
  -OEChem-04052318173D

 88 96  0     1  0  0  0  0  0999 V2000
  -29.4984  -36.1603   21.3340 C   0  0  0  0  0  0  0  0  0  0  0  0
  -29.8124  -35.1053   20.4833 C   0  0  0  0  0  0  0  0  0  0  0  0
  -22.6288  -10.5490   21.3026 C   0  0  0  0  0  0  0  0  0  0  0  0
  -24.5858   -9.1422   21.4710 C   0  0  0  0  0  0  0  0  0  0  0  0
  -28.8356  -35.9121   22.5353 C   0  0  0  0  0  0  0  0  0  0  0  0
  -29.4647  -33.8012   20.8339 C   0  0  0  0  0  0  0  0  0  0  0  0
  -27.4444  -27.5832   17.9062 C   0  0  0  0  0  0  0  0  0  0  0  0
  -21.8151   -9.4162   21.2942 C   0  0  0  0  0  0  0  0  0  0  0  0
  -23.7721   -8.0093   21.4626 C   0  0  0  0  0  0  0  0  0  0  0  0
  -27.7858  -26.2314   17.9062 C   0  0  0  0  0  0  0  0  0  0  0  0
  -21.8242   -6.3274   23.6529 C   0  0  0  0  0  0  0  0  0  0  0  0
  -22.1018   -5.3251   24.5824 C   0  0  0  0  0  0  0  0  0  0  0  0
  -29.6696  -17.0797   22.4595 C   0  0  0  0  0  0  0  0  0  0  0  0
  -26.5723  -25.9311   19.9693 C   0  0  0  0  0  0  0  0  0  0  0  0
  -22.4673   -3.7564   22.7815 C   0  0  0  0  0  0  0  0  0  0  0  0
  -30.1174  -15.8496   22.0438 C   0  0  0  0  0  0  0  0  0  0  0  0
  -24.0142  -10.4121   21.3910 C   0  0  0  0  0  0  0  0  0  0  0  0
  -25.2841  -12.3128   22.5234 C   0  0  0  0  0  0  0  0  0  0  0  0
  -28.4711  -34.6054   22.8963 C   0  0  0  0  0  0  0  0  0  0  0  0
  -26.6722  -28.1223   18.9453 C   0  0  0  0  0  0  0  0  0  0  0  0
  -28.7976  -33.5351   22.0417 C   0  0  0  0  0  0  0  0  0  0  0  0
  -26.2203  -27.2895   19.9789 C   0  0  0  0  0  0  0  0  0  0  0  0
  -22.3867   -8.1463   21.3742 C   0  0  0  0  0  0  0  0  0  0  0  0
  -27.3522  -25.4058   18.9393 C   0  0  0  0  0  0  0  0  0  0  0  0
  -21.8681   -6.0443   22.2878 C   0  0  0  0  0  0  0  0  0  0  0  0
  -22.4234   -4.0396   24.1467 C   0  0  0  0  0  0  0  0  0  0  0  0
  -22.1897   -4.7588   21.8521 C   0  0  0  0  0  0  0  0  0  0  0  0
  -24.8553  -11.5819   21.3992 C   0  0  0  0  0  0  0  0  0  0  0  0
  -29.5853  -17.8411   21.2784 C   0  0  0  0  0  0  0  0  0  0  0  0
  -26.0559  -13.3225   22.0025 C   0  0  0  0  0  0  0  0  0  0  0  0
  -25.0095  -12.0980   23.9141 C   0  0  0  0  0  0  0  0  0  0  0  0
  -27.1373  -30.3540   21.1604 C   0  0  0  0  0  0  0  0  0  0  0  0
  -30.0452  -15.0047   18.4606 C   0  0  0  0  0  0  0  0  0  0  0  0
  -24.0033  -29.8170   21.8023 C   0  0  0  0  0  0  0  0  0  0  0  0
  -21.3396  -27.6885   21.6574 C   0  0  0  0  0  0  0  0  0  0  0  0
  -27.7977  -34.3810   24.2271 C   0  0  0  0  0  0  0  0  0  0  0  0
  -26.2901  -29.5768   18.9167 C   0  0  0  0  0  0  0  0  0  0  0  0
  -25.3720  -27.8148   21.1071 C   0  0  0  0  0  0  0  0  0  0  0  0
  -27.1315  -33.0130   24.3496 C   0  0  0  0  0  0  0  0  0  0  0  0
  -26.6792  -14.8787   17.2382 C   0  0  0  0  0  0  0  0  0  0  0  0
  -28.0701  -31.9161   23.8570 C   0  0  0  0  0  0  0  0  0  0  0  0
  -25.9469  -14.0445   18.2885 C   0  0  0  0  0  0  0  0  0  0  0  0
  -28.1131  -14.3963   17.0424 C   0  0  0  0  0  0  0  0  0  0  0  0
  -28.1855  -13.5164   19.3537 C   0  0  0  0  0  0  0  0  0  0  0  0
  -28.4151  -32.1095   22.3755 C   0  0  1  0  0  0  0  0  0  0  0  0
  -25.9312  -30.1274   20.2935 C   0  0  1  0  0  0  0  0  0  0  0  0
  -26.7429  -13.9900   19.6045 C   0  0  2  0  0  0  0  0  0  0  0  0
  -32.2370  -14.9000   19.6268 C   0  0  0  0  0  0  0  0  0  0  0  0
  -18.9192  -27.5156   22.2968 C   0  0  0  0  0  0  0  0  0  0  0  0
  -24.8068  -29.3557   24.7094 C   0  0  0  0  0  0  0  0  0  0  0  0
  -22.5762  -28.2818   25.0826 C   0  0  0  0  0  0  0  0  0  0  0  0
  -22.7066  -30.6790   24.4049 C   0  0  0  0  0  0  0  0  0  0  0  0
  -27.1559  -18.7746   19.6272 C   0  0  0  0  0  0  0  0  0  0  0  0
  -20.4986  -27.3601   18.8389 C   0  0  0  0  0  0  0  0  0  0  0  0
  -29.1456  -19.2808   21.1409 C   0  0  0  0  0  0  0  0  0  0  0  0
  -27.2063  -23.2982   20.0315 C   0  0  0  0  0  0  0  0  0  1  0  0
  -30.7208  -14.9006   19.8047 C   0  0  1  0  0  0  0  0  0  0  0  0
  -23.2432  -28.8809   22.7105 C   0  0  1  0  0  0  0  0  0  0  0  0
  -19.9059  -27.8985   21.2048 C   0  0  2  0  0  0  0  0  0  0  0  0
  -23.3508  -29.2895   24.2068 C   0  0  0  0  0  0  0  0  0  0  0  0
  -27.6329  -19.4660   20.9044 C   0  0  1  0  0  0  0  0  0  0  0  0
  -27.6977  -21.8713   19.8546 C   0  0  0  0  0  0  0  0  0  0  0  0
  -27.2081  -20.9436   20.9609 C   0  0  0  0  0  0  0  0  0  0  0  0
  -25.3162  -12.0847   20.2508 N   0  0  0  0  0  0  0  0  0  0  0  0
  -29.9503  -17.1524   20.1938 N   0  0  0  0  0  0  0  0  0  0  0  0
  -30.2684  -15.9453   20.6917 N   0  0  0  0  0  0  0  0  0  0  0  0
  -26.0426  -13.1424   20.6506 N   0  0  0  0  0  0  0  0  0  0  0  0
  -25.0301  -29.2452   21.0377 N   0  0  0  0  0  0  0  0  0  0  0  0
  -28.8286  -14.3371   18.3183 N   0  0  0  0  0  0  0  0  0  0  0  0
  -26.7377  -14.3381   22.5735 N   0  0  0  0  0  0  0  0  0  0  0  0
  -24.1981  -11.0138   24.2753 N   0  0  0  0  0  0  0  0  0  0  0  0
  -27.3183  -31.6704   21.5396 N   0  0  0  0  0  0  0  0  0  0  0  0
  -21.8772  -28.8365   22.1999 N   0  0  0  0  0  0  0  0  0  0  0  0
  -19.6169  -27.0715   19.9992 N   0  3  0  0  0  0  0  0  0  0  0  0
  -25.4566  -12.8551   24.8088 O   0  0  0  0  0  0  0  0  0  0  0  0
  -27.8501  -29.4046   21.4640 O   0  0  0  0  0  0  0  0  0  0  0  0
  -30.5828  -15.6627   17.5660 O   0  0  0  0  0  0  0  0  0  0  0  0
  -23.6927  -31.0103   21.7670 O   0  0  0  0  0  0  0  0  0  0  0  0
  -21.9229  -26.6127   21.5445 O   0  0  0  0  0  0  0  0  0  0  0  0
  -21.5930   -7.0406   21.3663 O   0  0  0  0  0  0  0  0  0  0  0  0
  -27.6845  -24.0862   18.9421 O   0  0  0  0  0  0  0  0  0  1  0  0
  -22.6914   -3.0775   25.0393 F   0  0  0  0  0  0  0  0  0  0  0  0
  -22.2346   -4.4811   20.5419 F   0  0  0  0  0  0  0  0  0  0  0  0
  -26.9748  -18.8592   21.9467 F   0  0  0  0  0  0  0  0  0  0  0  0
  -29.0534  -21.8822   19.8238 F   0  0  0  0  0  0  0  0  0  0  0  0
  -27.2778  -21.4143   18.6486 F   0  0  0  0  0  0  0  0  0  0  0  0
  -25.8446  -20.9891   20.9807 F   0  0  0  0  0  0  0  0  0  0  0  0
  -27.6130  -21.4558   22.1581 F   0  0  0  0  0  0  0  0  0  0  0  0
  1  2  1  0  0  0  0
  1  5  2  0  0  0  0
  2  6  2  0  0  0  0
  3  8  2  0  0  0  0
  3 17  1  0  0  0  0
  4  9  1  0  0  0  0
  4 17  2  0  0  0  0
  5 19  1  0  0  0  0
  6 21  1  0  0  0  0
  7 10  2  0  0  0  0
  7 20  1  0  0  0  0
  8 23  1  0  0  0  0
  9 23  2  0  0  0  0
 10 24  1  0  0  0  0
 11 12  2  0  0  0  0
 11 25  1  0  0  0  0
 12 26  1  0  0  0  0
 13 16  2  0  0  0  0
 13 29  1  0  0  0  0
 14 22  1  0  0  0  0
 14 24  2  0  0  0  0
 15 26  2  0  0  0  0
 15 27  1  0  0  0  0
 16 66  1  0  0  0  0
 17 28  1  0  0  0  0
 18 28  1  0  0  0  0
 18 30  2  0  0  0  0
 18 31  1  0  0  0  0
 19 21  2  0  0  0  0
 19 36  1  0  0  0  0
 20 22  2  0  0  0  0
 20 37  1  0  0  0  0
 21 45  1  0  0  0  0
 22 38  1  0  0  0  0
 23 80  1  0  0  0  0
 24 81  1  0  0  0  0
 25 27  2  0  0  0  0
 25 80  1  0  0  0  0
 26 82  1  0  0  0  0
 27 83  1  0  0  0  0
 28 64  2  0  0  0  0
 29 55  1  0  0  0  0
 29 65  2  0  0  0  0
 30 67  1  0  0  0  0
 30 70  1  0  0  0  0
 31 71  1  0  0  0  0
 31 75  2  0  0  0  0
 32 46  1  0  0  0  0
 32 72  1  0  0  0  0
 32 76  2  0  0  0  0
 33 57  1  0  0  0  0
 33 69  1  0  0  0  0
 33 77  2  0  0  0  0
 34 58  1  0  0  0  0
 34 68  1  0  0  0  0
 34 78  2  0  0  0  0
 35 59  1  0  0  0  0
 35 73  1  0  0  0  0
 35 79  2  0  0  0  0
 36 39  1  0  0  0  0
 37 46  1  0  0  0  0
 38 68  1  0  0  0  0
 39 41  1  0  0  0  0
 40 42  1  0  0  0  0
 40 43  1  0  0  0  0
 41 45  1  0  0  0  0
 42 47  1  0  0  0  0
 43 69  1  0  0  0  0
 44 47  1  0  0  0  0
 44 69  1  0  0  0  0
 45 72  1  0  0  0  0
 46 68  1  0  0  0  0
 47 67  1  0  0  0  0
 48 57  1  0  0  0  0
 49 59  1  0  0  0  0
 50 60  1  0  0  0  0
 51 60  1  0  0  0  0
 52 60  1  0  0  0  0
 53 61  1  0  0  0  0
 54 74  1  0  0  0  0
 55 61  1  0  0  0  0
 56 62  1  0  0  0  0
 56 81  1  0  0  0  0
 57 66  1  0  0  0  0
 58 60  1  0  0  0  0
 58 73  1  0  0  0  0
 59 74  1  0  0  0  0
 61 63  1  0  0  0  0
 61 84  1  0  0  0  0
 62 63  1  0  0  0  0
 62 85  1  0  0  0  0
 62 86  1  0  0  0  0
 63 87  1  0  0  0  0
 63 88  1  0  0  0  0
 64 67  1  0  0  0  0
 65 66  1  0  0  0  0
M  CHG  1  74   1
M  ISO  4  33 100  56 101  57 100  81 101
M  END
> <Batch ID>
0069

> <Smiles>
CNC(C)C(=O)NC(C(=O)N1Cc2cc([101O:1][101CH2:1]C(F)(F)C(F)(F)C(C)(F)Cc3ccn([100CH:0](C)[100C:0](=O)N4CCCC(n5nc(-c6ccc(Oc7ccc(F)cc7F)cc6)c(C(N)=O)c5N)C4)n3)ccc2CC1C(=O)NC1CCCc2ccccc21)C(C)(C)C

> <Shape>
0.310

> <Color>
0.119

> <Negative vol penalty>
0.000

$$$$

  -OEChem-04052318173D

 91 99  0     1  0  0  0  0  0999 V2000
  -28.3702  -35.8565   24.0121 C   0  0  0  0  0  0  0  0  0  0  0  0
  -29.1093  -34.6839   24.1312 C   0  0  0  0  0  0  0  0  0  0  0  0
  -25.9428  -12.9202   21.5639 C   0  0  0  0  0  0  0  0  0  0  0  0
  -26.2426  -13.0764   19.1717 C   0  0  0  0  0  0  0  0  0  0  0  0
  -27.0030  -35.8481   24.2851 C   0  0  0  0  0  0  0  0  0  0  0  0
  -28.4817  -33.5024   24.5244 C   0  0  0  0  0  0  0  0  0  0  0  0
  -28.6123  -27.6564   20.3174 C   0  0  0  0  0  0  0  0  0  0  0  0
  -24.7945  -12.1525   21.3699 C   0  0  0  0  0  0  0  0  0  0  0  0
  -25.0943  -12.3086   18.9776 C   0  0  0  0  0  0  0  0  0  0  0  0
  -28.7720  -26.4336   19.6650 C   0  0  0  0  0  0  0  0  0  0  0  0
  -24.0416   -8.9440   20.6135 C   0  0  0  0  0  0  0  0  0  0  0  0
  -23.8845   -7.8027   21.3997 C   0  0  0  0  0  0  0  0  0  0  0  0
  -27.3685  -25.3580   21.3146 C   0  0  0  0  0  0  0  0  0  0  0  0
  -21.8298   -8.7034   22.2966 C   0  0  0  0  0  0  0  0  0  0  0  0
  -26.6668  -13.3822   20.4648 C   0  0  0  0  0  0  0  0  0  0  0  0
  -29.0216  -13.7993   21.3529 C   0  0  0  0  0  0  0  0  0  0  0  0
  -26.3565  -34.6638   24.6725 C   0  0  0  0  0  0  0  0  0  0  0  0
  -27.8166  -27.7376   21.4636 C   0  0  0  0  0  0  0  0  0  0  0  0
  -27.1048  -33.4784   24.8041 C   0  0  0  0  0  0  0  0  0  0  0  0
  -27.1947  -26.5825   21.9652 C   0  0  0  0  0  0  0  0  0  0  0  0
  -24.3703  -11.8467   20.0768 C   0  0  0  0  0  0  0  0  0  0  0  0
  -28.1518  -25.2873   20.1626 C   0  0  0  0  0  0  0  0  0  0  0  0
  -23.0929   -9.9651   20.6688 C   0  0  0  0  0  0  0  0  0  0  0  0
  -22.7786   -7.6823   22.2412 C   0  0  0  0  0  0  0  0  0  0  0  0
  -21.9870   -9.8448   21.5103 C   0  0  0  0  0  0  0  0  0  0  0  0
  -27.8527  -14.1758   20.6646 C   0  0  0  0  0  0  0  0  0  0  0  0
  -29.8434  -14.8958   21.2594 C   0  0  0  0  0  0  0  0  0  0  0  0
  -27.6367  -23.4877   15.3162 C   0  0  0  0  0  0  0  0  0  0  0  0
  -29.3119  -22.3801   14.4941 C   0  0  0  0  0  0  0  0  0  0  0  0
  -29.3364  -12.5684   22.0173 C   0  0  0  0  0  0  0  0  0  0  0  0
  -26.3925  -29.9083   24.1721 C   0  0  0  0  0  0  0  0  0  0  0  0
  -30.0626  -19.2651   17.2424 C   0  0  0  0  0  0  0  0  0  0  0  0
  -24.1711  -27.9707   23.3226 C   0  0  0  0  0  0  0  0  0  0  0  0
  -21.8759  -25.9501   21.8104 C   0  0  0  0  0  0  0  0  0  0  0  0
  -24.8857  -34.7142   25.0028 C   0  0  0  0  0  0  0  0  0  0  0  0
  -27.6663  -29.0214   22.2337 C   0  0  0  0  0  0  0  0  0  0  0  0
  -26.3761  -26.7106   23.2208 C   0  0  0  0  0  0  0  0  0  0  0  0
  -24.2248  -33.3391   25.0511 C   0  0  0  0  0  0  0  0  0  0  0  0
  -29.7194  -19.6534   20.8422 C   0  0  0  0  0  0  0  0  0  0  0  0
  -25.0798  -32.3638   25.8541 C   0  0  0  0  0  0  0  0  0  0  0  0
  -29.2776  -18.2515   21.2600 C   0  0  0  0  0  0  0  0  0  0  0  0
  -29.1446  -20.0410   19.4822 C   0  0  0  0  0  0  0  0  0  0  0  0
  -29.0175  -17.6624   18.8109 C   0  0  0  0  0  0  0  0  0  0  0  0
  -26.4552  -32.1715   25.2040 C   0  0  1  0  0  0  0  0  0  0  0  0
  -26.2707  -29.1892   22.8608 C   0  0  1  0  0  0  0  0  0  0  0  0
  -29.6008  -17.2213   20.1637 C   0  0  2  0  0  0  0  0  0  0  0  0
  -29.7282  -25.8043   14.4174 C   0  0  0  0  0  0  0  0  0  0  0  0
  -20.2965  -27.6909   20.9315 C   0  0  0  0  0  0  0  0  0  0  0  0
  -25.3553  -24.1395   16.0505 C   0  0  0  0  0  0  0  0  0  0  0  0
  -26.8090  -25.9322   15.1589 C   0  0  0  0  0  0  0  0  0  0  0  0
  -30.7623  -20.6167   13.4223 C   0  0  0  0  0  0  0  0  0  0  0  0
  -31.3185  -22.9881   12.9784 C   0  0  0  0  0  0  0  0  0  0  0  0
  -24.7676  -26.2484   25.7684 C   0  0  0  0  0  0  0  0  0  0  0  0
  -22.6954  -24.9375   25.2625 C   0  0  0  0  0  0  0  0  0  0  0  0
  -22.5314  -27.3678   25.8006 C   0  0  0  0  0  0  0  0  0  0  0  0
  -27.7375  -22.4151   17.9356 C   0  0  0  0  0  0  0  0  0  0  0  0
  -25.9894  -23.6656   19.1974 C   0  0  0  0  0  0  0  0  0  0  0  0
  -19.5096  -24.4556   22.7726 C   0  0  0  0  0  0  0  0  0  0  0  0
  -32.8988  -20.3850   16.7432 C   0  0  0  0  0  0  0  0  0  0  0  0
  -30.4361  -20.6955   16.9450 C   0  0  0  0  0  0  0  0  0  0  0  0
  -27.2942  -24.9199   17.4516 C   0  0  0  0  0  0  0  0  0  0  0  0
  -29.8585  -24.6573   15.4049 C   0  0  0  0  0  0  0  0  0  0  0  0
  -31.7237  -22.0111   15.2680 C   0  0  0  0  0  0  0  0  0  0  0  0
  -23.4791  -26.6538   23.5680 C   0  0  1  0  0  0  0  0  0  0  0  0
  -20.4740  -26.2255   21.2975 C   0  0  2  0  0  0  0  0  0  0  0  0
  -26.8314  -24.6223   15.9792 C   0  0  0  0  0  0  0  0  0  0  0  0
  -30.6858  -22.0478   14.0771 C   0  0  0  0  0  0  0  0  0  0  0  0
  -23.3890  -26.3045   25.0804 C   0  0  0  0  0  0  0  0  0  0  0  0
  -27.3563  -23.7795   18.5038 C   0  0  0  0  0  0  0  0  0  1  0  0
  -27.9218  -15.4148   20.1704 N   0  0  0  0  0  0  0  0  0  0  0  0
  -27.1758  -22.3333   14.8905 N   0  0  0  0  0  0  0  0  0  0  0  0
  -28.2416  -21.6287   14.3674 N   0  0  0  0  0  0  0  0  0  0  0  0
  -29.1439  -15.8263   20.5487 N   0  0  0  0  0  0  0  0  0  0  0  0
  -28.9772  -23.5598   15.0866 N   0  0  0  0  0  0  0  0  0  0  0  0
  -25.5621  -27.9350   23.1670 N   0  0  0  0  0  0  0  0  0  0  0  0
  -29.4505  -19.0211   18.4720 N   0  0  0  0  0  0  0  0  0  0  0  0
  -31.0889  -15.1452   21.7166 N   0  0  0  0  0  0  0  0  0  0  0  0
  -29.9566  -11.5507   21.2798 N   0  0  0  0  0  0  0  0  0  0  0  0
  -26.3560  -31.2854   24.0641 N   0  0  0  0  0  0  0  0  0  0  0  0
  -22.1867  -26.7404   22.8967 N   0  0  0  0  0  0  0  0  0  0  0  0
  -19.4642  -25.8748   22.3359 N   0  3  0  0  0  0  0  0  0  0  0  0
  -31.6237  -20.7309   16.0159 N   0  3  1  0  0  0  0  0  0  0  0  0
  -29.0605  -12.3706   23.2249 O   0  0  0  0  0  0  0  0  0  0  0  0
  -26.5094  -29.2623   25.2068 O   0  0  0  0  0  0  0  0  0  0  0  0
  -30.3109  -18.3920   16.4068 O   0  0  0  0  0  0  0  0  0  0  0  0
  -23.4996  -29.0053   23.2754 O   0  0  0  0  0  0  0  0  0  0  0  0
  -22.6195  -25.1147   21.3009 O   0  0  0  0  0  0  0  0  0  0  0  0
  -23.2500  -11.0973   19.8871 O   0  0  0  0  0  0  0  0  0  0  0  0
  -28.3083  -24.0977   19.5182 O   0  0  0  0  0  0  0  0  0  1  0  0
  -22.6270   -6.5855   22.9950 F   0  0  0  0  0  0  0  0  0  0  0  0
  -21.0717  -10.8219   21.5669 F   0  0  0  0  0  0  0  0  0  0  0  0
  1  2  1  0  0  0  0
  1  5  2  0  0  0  0
  2  6  2  0  0  0  0
  3  8  2  0  0  0  0
  3 15  1  0  0  0  0
  4  9  1  0  0  0  0
  4 15  2  0  0  0  0
  5 17  1  0  0  0  0
  6 19  1  0  0  0  0
  7 10  2  0  0  0  0
  7 18  1  0  0  0  0
  8 21  1  0  0  0  0
  9 21  2  0  0  0  0
 10 22  1  0  0  0  0
 11 12  2  0  0  0  0
 11 23  1  0  0  0  0
 12 24  1  0  0  0  0
 13 20  1  0  0  0  0
 13 22  2  0  0  0  0
 14 24  2  0  0  0  0
 14 25  1  0  0  0  0
 15 26  1  0  0  0  0
 16 26  1  0  0  0  0
 16 27  2  0  0  0  0
 16 30  1  0  0  0  0
 17 19  2  0  0  0  0
 17 35  1  0  0  0  0
 18 20  2  0  0  0  0
 18 36  1  0  0  0  0
 19 44  1  0  0  0  0
 20 37  1  0  0  0  0
 21 88  1  0  0  0  0
 22 89  1  0  0  0  0
 23 25  2  0  0  0  0
 23 88  1  0  0  0  0
 24 90  1  0  0  0  0
 25 91  1  0  0  0  0
 26 70  2  0  0  0  0
 27 73  1  0  0  0  0
 27 77  1  0  0  0  0
 28 66  1  0  0  0  0
 28 71  2  0  0  0  0
 28 74  1  0  0  0  0
 29 67  1  0  0  0  0
 29 72  2  0  0  0  0
 29 74  1  0  0  0  0
 30 78  1  0  0  0  0
 30 83  2  0  0  0  0
 31 45  1  0  0  0  0
 31 79  1  0  0  0  0
 31 84  2  0  0  0  0
 32 60  1  0  0  0  0
 32 76  1  0  0  0  0
 32 85  2  0  0  0  0
 33 64  1  0  0  0  0
 33 75  1  0  0  0  0
 33 86  2  0  0  0  0
 34 65  1  0  0  0  0
 34 80  1  0  0  0  0
 34 87  2  0  0  0  0
 35 38  1  0  0  0  0
 36 45  1  0  0  0  0
 37 75  1  0  0  0  0
 38 40  1  0  0  0  0
 39 41  1  0  0  0  0
 39 42  1  0  0  0  0
 40 44  1  0  0  0  0
 41 46  1  0  0  0  0
 42 76  1  0  0  0  0
 43 46  1  0  0  0  0
 43 76  1  0  0  0  0
 44 79  1  0  0  0  0
 45 75  1  0  0  0  0
 46 73  1  0  0  0  0
 47 62  1  0  0  0  0
 48 65  1  0  0  0  0
 49 66  1  0  0  0  0
 50 66  1  0  0  0  0
 51 67  1  0  0  0  0
 52 67  1  0  0  0  0
 53 68  1  0  0  0  0
 54 68  1  0  0  0  0
 55 68  1  0  0  0  0
 56 69  1  0  0  0  0
 57 69  1  0  0  0  0
 58 81  1  0  0  0  0
 59 82  1  0  0  0  0
 60 82  1  0  0  0  0
 61 66  1  0  0  0  0
 61 69  1  0  0  0  0
 62 74  1  0  0  0  0
 63 67  1  0  0  0  0
 63 82  1  0  0  0  0
 64 68  1  0  0  0  0
 64 80  1  0  0  0  0
 65 81  1  0  0  0  0
 69 89  1  0  0  0  0
 70 73  1  0  0  0  0
 71 72  1  0  0  0  0
M  CHG  2  81   1  82   1
M  ISO  4  32 100  60 100  69 101  89 101
M  END
> <Batch ID>
0069

> <Smiles>
CCn1c(C(C)(C)CN(C)[100CH2:0][100C:0](=O)N2CCCC(n3nc(-c4ccc(Oc5ccc(F)cc5F)cc4)c(C(N)=O)c3N)C2)nnc1C(C)(C)C[101C:1](C)(C)[101O:1]c1ccc2c(c1)CN(C(=O)C(NC(=O)C(C)NC)C(C)(C)C)C(C(=O)NC1CCCc3ccccc31)C2

> <Shape>
0.257

> <Color>
0.046

> <Negative vol penalty>
0.000

$$$$

  -OEChem-04052318173D

 86 94  0     1  0  0  0  0  0999 V2000
  -19.2082  -27.4502   23.7621 C   0  0  0  0  0  0  0  0  0  0  0  0
  -20.5249  -27.0854   23.5004 C   0  0  0  0  0  0  0  0  0  0  0  0
  -26.4404  -14.9299   22.9780 C   0  0  0  0  0  0  0  0  0  0  0  0
  -25.6153  -14.7245   20.7165 C   0  0  0  0  0  0  0  0  0  0  0  0
  -18.2790  -27.4954   22.7236 C   0  0  0  0  0  0  0  0  0  0  0  0
  -20.9129  -26.7643   22.2001 C   0  0  0  0  0  0  0  0  0  0  0  0
  -25.3153  -28.9043   20.9022 C   0  0  0  0  0  0  0  0  0  0  0  0
  -25.4911  -14.0030   23.4085 C   0  0  0  0  0  0  0  0  0  0  0  0
  -24.6660  -13.7976   21.1470 C   0  0  0  0  0  0  0  0  0  0  0  0
  -26.4795  -28.3110   21.3884 C   0  0  0  0  0  0  0  0  0  0  0  0
  -24.5775  -10.5170   21.9534 C   0  0  0  0  0  0  0  0  0  0  0  0
  -24.4062   -9.3638   21.1877 C   0  0  0  0  0  0  0  0  0  0  0  0
  -26.8056  -27.2216   19.2609 C   0  0  0  0  0  0  0  0  0  0  0  0
  -22.0916   -9.9512   20.8208 C   0  0  0  0  0  0  0  0  0  0  0  0
  -31.9561  -24.6703   17.9992 C   0  0  0  0  0  0  0  0  0  0  0  0
  -31.9062  -23.8279   20.0350 C   0  0  0  0  0  0  0  0  0  0  0  0
  -26.5025  -15.2907   21.6320 C   0  0  0  0  0  0  0  0  0  0  0  0
  -28.7884  -15.9809   20.7344 C   0  0  0  0  0  0  0  0  0  0  0  0
  -18.6581  -27.1840   21.4083 C   0  0  0  0  0  0  0  0  0  0  0  0
  -24.8809  -28.6517   19.5930 C   0  0  0  0  0  0  0  0  0  0  0  0
  -19.9876  -26.8040   21.1432 C   0  0  0  0  0  0  0  0  0  0  0  0
  -25.6370  -27.8150   18.7596 C   0  0  0  0  0  0  0  0  0  0  0  0
  -24.6040  -13.4368   22.4931 C   0  0  0  0  0  0  0  0  0  0  0  0
  -27.2233  -27.4672   20.5687 C   0  0  0  0  0  0  0  0  0  0  0  0
  -23.5058  -11.3873   22.1529 C   0  0  0  0  0  0  0  0  0  0  0  0
  -23.1633   -9.0809   20.6213 C   0  0  0  0  0  0  0  0  0  0  0  0
  -22.2629  -11.1044   21.5866 C   0  0  0  0  0  0  0  0  0  0  0  0
  -27.4825  -16.2485   21.1867 C   0  0  0  0  0  0  0  0  0  0  0  0
  -31.9111  -23.2963   17.9739 C   0  0  0  0  0  0  0  0  0  0  0  0
  -29.3070  -17.2162   20.4321 C   0  0  0  0  0  0  0  0  0  0  0  0
  -29.4716  -14.7276   20.5994 C   0  0  0  0  0  0  0  0  0  0  0  0
  -22.2922  -27.3326   18.3038 C   0  0  0  0  0  0  0  0  0  0  0  0
  -23.6543  -28.3094   15.5265 C   0  0  0  0  0  0  0  0  0  0  0  0
  -26.4911  -29.1755   13.8385 C   0  0  0  0  0  0  0  0  0  0  0  0
  -28.8084  -22.2702   18.1182 C   0  0  0  0  0  0  0  0  0  0  0  0
  -17.6072  -27.2011   20.3266 C   0  0  0  0  0  0  0  0  0  0  0  0
  -23.6373  -29.3206   19.0748 C   0  0  0  0  0  0  0  0  0  0  0  0
  -25.2246  -27.5275   17.3399 C   0  0  0  0  0  0  0  0  0  0  0  0
  -18.1868  -27.2092   18.9144 C   0  0  0  0  0  0  0  0  0  0  0  0
  -27.5528  -21.8557   21.4240 C   0  0  0  0  0  0  0  0  0  0  0  0
  -19.2935  -26.1673   18.7856 C   0  0  0  0  0  0  0  0  0  0  0  0
  -27.5245  -20.3385   21.6170 C   0  0  0  0  0  0  0  0  0  0  0  0
  -27.1903  -22.2496   19.9938 C   0  0  0  0  0  0  0  0  0  0  0  0
  -27.9634  -20.0707   19.1402 C   0  0  0  0  0  0  0  0  0  0  0  0
  -20.4528  -26.4727   19.7418 C   0  0  1  0  0  0  0  0  0  0  0  0
  -23.0119  -28.5860   17.8931 C   0  0  1  0  0  0  0  0  0  0  0  0
  -28.3767  -19.6219   20.5524 C   0  0  2  0  0  0  0  0  0  0  0  0
  -34.6076  -26.4657   20.1530 C   0  0  0  0  0  0  0  0  0  0  0  0
  -27.2933  -29.8899   11.5706 C   0  0  0  0  0  0  0  0  0  0  0  0
  -32.5531  -20.9878   16.9967 C   0  0  0  0  0  0  0  0  0  0  0  0
  -32.6906  -23.0357   15.6028 C   0  0  0  0  0  0  0  0  0  0  0  0
  -23.3798  -25.4392   14.5281 C   0  0  0  0  0  0  0  0  0  0  0  0
  -25.0117  -25.9891   12.7108 C   0  0  0  0  0  0  0  0  0  0  0  0
  -22.8294  -27.1914   12.8306 C   0  0  0  0  0  0  0  0  0  0  0  0
  -32.0540  -27.5388   18.8472 C   0  0  0  0  0  0  0  0  0  0  0  0
  -27.5043  -31.7534   14.8810 C   0  0  0  0  0  0  0  0  0  0  0  0
  -33.2513  -26.5734   20.8453 C   0  0  0  0  0  0  0  0  0  0  0  0
  -30.7372  -26.6673   20.8104 C   0  0  0  0  0  0  0  0  0  0  0  0
  -30.4393  -22.1284   16.2530 C   0  0  0  0  0  0  0  0  0  0  0  0
  -29.3888  -26.6071   20.0927 C   0  0  0  0  0  0  0  0  0  1  0  0
  -24.6216  -27.7028   14.5390 C   0  0  1  0  0  0  0  0  0  0  0  0
  -26.8050  -30.3537   12.9342 C   0  0  2  0  0  0  0  0  0  0  0  0
  -31.8933  -22.4075   16.8022 C   0  0  0  0  0  0  0  0  0  0  0  0
  -23.9676  -26.5843   13.6795 C   0  0  0  0  0  0  0  0  0  0  0  0
  -31.9985  -26.4189   19.9169 C   0  0  1  0  0  0  0  0  0  0  0  0
  -31.8799  -22.7780   19.2444 N   0  0  0  0  0  0  0  0  0  0  0  0
  -27.1896  -17.5516   21.1747 N   0  0  0  0  0  0  0  0  0  0  0  0
  -31.9520  -24.9962   19.3262 N   0  0  0  0  0  0  0  0  0  0  0  0
  -28.3188  -18.1138   20.7112 N   0  0  0  0  0  0  0  0  0  0  0  0
  -23.9979  -28.2002   16.8815 N   0  0  0  0  0  0  0  0  0  0  0  0
  -28.0358  -21.5364   19.0335 N   0  0  0  0  0  0  0  0  0  0  0  0
  -30.5074  -17.6114   19.9575 N   0  0  0  0  0  0  0  0  0  0  0  0
  -28.7920  -13.5545   20.9547 N   0  0  0  0  0  0  0  0  0  0  0  0
  -21.2744  -27.5412   19.2149 N   0  0  0  0  0  0  0  0  0  0  0  0
  -25.1628  -28.8133   13.7629 N   0  0  0  0  0  0  0  0  0  0  0  0
  -29.5861  -21.5168   17.2474 N   0  0  0  0  0  0  0  0  0  0  0  0
  -27.8611  -31.2091   13.5456 N   0  3  0  0  0  0  0  0  0  0  0  0
  -30.6555  -14.6517   20.1918 O   0  0  0  0  0  0  0  0  0  0  0  0
  -22.6338  -26.2562   17.8281 O   0  0  0  0  0  0  0  0  0  0  0  0
  -22.6350  -28.8660   15.1107 O   0  0  0  0  0  0  0  0  0  0  0  0
  -27.3401  -28.6287   14.5390 O   0  0  0  0  0  0  0  0  0  0  0  0
  -28.8093  -23.5054   18.0835 O   0  0  0  0  0  0  0  0  0  0  0  0
  -23.6777  -12.5322   22.9128 O   0  0  0  0  0  0  0  0  0  0  0  0
  -28.3597  -26.8863   21.0410 O   0  0  0  0  0  0  0  0  0  1  0  0
  -22.9993   -7.9742   19.8847 F   0  0  0  0  0  0  0  0  0  0  0  0
  -21.2299  -11.9373   21.7738 F   0  0  0  0  0  0  0  0  0  0  0  0
  1  2  1  0  0  0  0
  1  5  2  0  0  0  0
  2  6  2  0  0  0  0
  3  8  2  0  0  0  0
  3 17  1  0  0  0  0
  4  9  1  0  0  0  0
  4 17  2  0  0  0  0
  5 19  1  0  0  0  0
  6 21  1  0  0  0  0
  7 10  2  0  0  0  0
  7 20  1  0  0  0  0
  8 23  1  0  0  0  0
  9 23  2  0  0  0  0
 10 24  1  0  0  0  0
 11 12  2  0  0  0  0
 11 25  1  0  0  0  0
 12 26  1  0  0  0  0
 13 22  1  0  0  0  0
 13 24  2  0  0  0  0
 14 26  2  0  0  0  0
 14 27  1  0  0  0  0
 15 29  2  0  0  0  0
 15 68  1  0  0  0  0
 16 66  2  0  0  0  0
 16 68  1  0  0  0  0
 17 28  1  0  0  0  0
 18 28  1  0  0  0  0
 18 30  2  0  0  0  0
 18 31  1  0  0  0  0
 19 21  2  0  0  0  0
 19 36  1  0  0  0  0
 20 22  2  0  0  0  0
 20 37  1  0  0  0  0
 21 45  1  0  0  0  0
 22 38  1  0  0  0  0
 23 83  1  0  0  0  0
 24 84  1  0  0  0  0
 25 27  2  0  0  0  0
 25 83  1  0  0  0  0
 26 85  1  0  0  0  0
 27 86  1  0  0  0  0
 28 67  2  0  0  0  0
 29 63  1  0  0  0  0
 29 66  1  0  0  0  0
 30 69  1  0  0  0  0
 30 72  1  0  0  0  0
 31 73  1  0  0  0  0
 31 78  2  0  0  0  0
 32 46  1  0  0  0  0
 32 74  1  0  0  0  0
 32 79  2  0  0  0  0
 33 61  1  0  0  0  0
 33 70  1  0  0  0  0
 33 80  2  0  0  0  0
 34 62  1  0  0  0  0
 34 75  1  0  0  0  0
 34 81  2  0  0  0  0
 35 71  1  0  0  0  0
 35 76  1  0  0  0  0
 35 82  2  0  0  0  0
 36 39  1  0  0  0  0
 37 46  1  0  0  0  0
 38 70  1  0  0  0  0
 39 41  1  0  0  0  0
 40 42  1  0  0  0  0
 40 43  1  0  0  0  0
 41 45  1  0  0  0  0
 42 47  1  0  0  0  0
 43 71  1  0  0  0  0
 44 47  1  0  0  0  0
 44 71  1  0  0  0  0
 45 74  1  0  0  0  0
 46 70  1  0  0  0  0
 47 69  1  0  0  0  0
 48 57  1  0  0  0  0
 49 62  1  0  0  0  0
 50 63  1  0  0  0  0
 51 63  1  0  0  0  0
 52 64  1  0  0  0  0
 53 64  1  0  0  0  0
 54 64  1  0  0  0  0
 55 65  1  0  0  0  0
 56 77  1  0  0  0  0
 57 65  1  0  0  0  0
 58 60  1  0  0  0  0
 58 65  1  0  0  0  0
 59 63  1  0  0  0  0
 59 76  1  0  0  0  0
 60 84  1  0  0  0  0
 61 64  1  0  0  0  0
 61 75  1  0  0  0  0
 62 77  1  0  0  0  0
 65 68  1  0  0  0  0
 67 69  1  0  0  0  0
M  CHG  1  77   1
M  ISO  4  35 100  60 101  76 100  84 101
M  END
> <Batch ID>
0069

> <Smiles>
CCC(C)(C[101CH2:1][101O:1]c1ccc2c(c1)CN(C(=O)C(NC(=O)C(C)NC)C(C)(C)C)C(C(=O)NC1CCCc3ccccc31)C2)n1cnc(C(C)(C)C[100NH:0][100C:0](=O)N2CCCC(n3nc(-c4ccc(Oc5ccc(F)cc5F)cc4)c(C(N)=O)c3N)C2)c1

> <Shape>
0.239

> <Color>
0.075

> <Negative vol penalty>
0.000

$$$$

  -OEChem-04052318173D

 91 99  0     1  0  0  0  0  0999 V2000
  -26.7883  -29.2332   21.1066 C   0  0  0  0  0  0  0  0  0  0  0  0
  -26.3947  -27.9232   21.3601 C   0  0  0  0  0  0  0  0  0  0  0  0
  -22.0580  -25.6657   21.7786 C   0  0  0  0  0  0  0  0  0  0  0  0
  -20.1158  -24.7462   22.8829 C   0  0  0  0  0  0  0  0  0  0  0  0
  -27.7231  -29.4980   20.1067 C   0  0  0  0  0  0  0  0  0  0  0  0
  -26.9349  -26.8771   20.6128 C   0  0  0  0  0  0  0  0  0  0  0  0
  -28.1959  -21.2160   22.5794 C   0  0  0  0  0  0  0  0  0  0  0  0
  -21.3254  -26.8024   21.4367 C   0  0  0  0  0  0  0  0  0  0  0  0
  -19.3832  -25.8829   22.5410 C   0  0  0  0  0  0  0  0  0  0  0  0
  -27.5002  -20.0118   22.4801 C   0  0  0  0  0  0  0  0  0  0  0  0
  -17.1030  -28.7017   22.2705 C   0  0  0  0  0  0  0  0  0  0  0  0
  -16.3031  -29.2794   23.2564 C   0  0  0  0  0  0  0  0  0  0  0  0
  -28.7994  -19.4289   20.5329 C   0  0  0  0  0  0  0  0  0  0  0  0
  -18.2573  -29.6404   24.6305 C   0  0  0  0  0  0  0  0  0  0  0  0
  -26.3057  -12.2772   21.5110 C   0  0  0  0  0  0  0  0  0  0  0  0
  -21.4532  -24.6376   22.5017 C   0  0  0  0  0  0  0  0  0  0  0  0
  -22.9689  -23.2601   24.0224 C   0  0  0  0  0  0  0  0  0  0  0  0
  -28.2823  -28.4538   19.3533 C   0  0  0  0  0  0  0  0  0  0  0  0
  -29.1927  -21.5410   21.6482 C   0  0  0  0  0  0  0  0  0  0  0  0
  -27.8771  -27.1283   19.6009 C   0  0  0  0  0  0  0  0  0  0  0  0
  -29.5080  -20.6366   20.6241 C   0  0  0  0  0  0  0  0  0  0  0  0
  -25.5458  -13.0917   22.3256 C   0  0  0  0  0  0  0  0  0  0  0  0
  -19.9881  -26.9110   21.8179 C   0  0  0  0  0  0  0  0  0  0  0  0
  -27.7999  -19.1193   21.4550 C   0  0  0  0  0  0  0  0  0  0  0  0
  -18.4801  -28.5932   22.4646 C   0  0  0  0  0  0  0  0  0  0  0  0
  -16.8802  -29.7488   24.4363 C   0  0  0  0  0  0  0  0  0  0  0  0
  -19.0572  -29.0626   23.6446 C   0  0  0  0  0  0  0  0  0  0  0  0
  -22.2092  -23.4629   22.8547 C   0  0  0  0  0  0  0  0  0  0  0  0
  -24.2886  -13.4052   21.8506 C   0  0  0  0  0  0  0  0  0  0  0  0
  -23.4858  -21.9955   23.8804 C   0  0  0  0  0  0  0  0  0  0  0  0
  -24.6375  -12.1765   19.9703 C   0  0  0  0  0  0  0  0  0  0  0  0
  -23.1877  -24.1363   25.1359 C   0  0  0  0  0  0  0  0  0  0  0  0
  -29.5952  -23.8583   19.5100 C   0  0  0  0  0  0  0  0  0  0  0  0
  -32.5133  -22.4878   19.1512 C   0  0  0  0  0  0  0  0  0  0  0  0
  -34.4627  -19.7027   19.4509 C   0  0  0  0  0  0  0  0  0  0  0  0
  -22.8367  -16.7010   22.6582 C   0  0  0  0  0  0  0  0  0  0  0  0
  -29.2540  -28.7935   18.2510 C   0  0  0  0  0  0  0  0  0  0  0  0
  -29.9523  -22.8320   21.7849 C   0  0  0  0  0  0  0  0  0  0  0  0
  -30.5833  -20.9292   19.6110 C   0  0  0  0  0  0  0  0  0  0  0  0
  -30.0584  -27.5939   17.7571 C   0  0  0  0  0  0  0  0  0  0  0  0
  -23.5697  -18.9007   19.8795 C   0  0  0  0  0  0  0  0  0  0  0  0
  -29.1429  -26.3960   17.5256 C   0  0  0  0  0  0  0  0  0  0  0  0
  -23.3411  -20.2751   20.5111 C   0  0  0  0  0  0  0  0  0  0  0  0
  -22.5587  -17.8806   20.3946 C   0  0  0  0  0  0  0  0  0  0  0  0
  -22.2954  -19.1151   22.5113 C   0  0  0  0  0  0  0  0  0  0  0  0
  -28.4590  -25.9644   18.8284 C   0  0  1  0  0  0  0  0  0  0  0  0
  -30.5934  -23.2893   20.4782 C   0  0  1  0  0  0  0  0  0  0  0  0
  -23.3002  -20.1856   22.0482 C   0  0  2  0  0  0  0  0  0  0  0  0
  -24.9907  -11.6300   25.0013 C   0  0  0  0  0  0  0  0  0  0  0  0
  -22.0667  -13.5787   23.0316 C   0  0  0  0  0  0  0  0  0  0  0  0
  -36.7979  -18.8795   19.0428 C   0  0  0  0  0  0  0  0  0  0  0  0
  -27.5274  -13.1194   23.9923 C   0  0  0  0  0  0  0  0  0  0  0  0
  -31.9308  -22.3254   16.1605 C   0  0  0  0  0  0  0  0  0  0  0  0
  -33.8098  -20.6838   15.9545 C   0  0  0  0  0  0  0  0  0  0  0  0
  -34.2673  -23.0093   16.7326 C   0  0  0  0  0  0  0  0  0  0  0  0
  -34.8748  -19.0978   22.3185 C   0  0  0  0  0  0  0  0  0  0  0  0
  -24.1326  -11.6677   18.6625 C   0  0  0  0  0  0  0  0  0  0  0  0
  -25.1535  -13.1394   24.8407 C   0  0  0  0  0  0  0  0  0  0  0  0
  -26.5898  -15.8519   22.4083 C   0  0  0  0  0  0  0  0  0  0  0  0
  -26.0923  -15.1728   23.6909 C   0  0  0  0  0  0  0  0  0  0  0  0
  -26.6402  -17.3669   22.5685 C   0  0  0  0  0  0  0  0  0  1  0  0
  -23.3773  -14.2793   22.6475 C   0  0  2  0  0  0  0  0  0  0  0  0
  -33.0816  -21.3963   18.2767 C   0  0  1  0  0  0  0  0  0  0  0  0
  -35.8421  -19.4985   20.0508 C   0  0  2  0  0  0  0  0  0  0  0  0
  -26.0904  -13.6041   23.6733 C   0  0  2  0  0  0  0  0  0  0  0  0
  -33.2507  -21.8487   16.7989 C   0  0  0  0  0  0  0  0  0  0  0  0
  -23.6905  -10.2142   18.7240 C   0  0  0  0  0  0  0  0  0  0  0  0
  -25.8814  -11.7998   20.3226 N   0  0  0  0  0  0  0  0  0  0  0  0
  -22.2383  -22.4115   22.0315 N   0  0  0  0  0  0  0  0  0  0  0  0
  -23.8005  -12.9635   20.6729 N   0  0  0  0  0  0  0  0  0  0  0  0
  -23.0226  -21.5358   22.6827 N   0  0  0  0  0  0  0  0  0  0  0  0
  -31.2936  -22.2073   19.7831 N   0  0  0  0  0  0  0  0  0  0  0  0
  -22.5831  -17.8311   21.8633 N   0  0  0  0  0  0  0  0  0  0  0  0
  -24.2869  -21.2431   24.6643 N   0  0  0  0  0  0  0  0  0  0  0  0
  -22.5818  -25.4000   25.1208 N   0  0  0  0  0  0  0  0  0  0  0  0
  -29.3784  -25.2150   19.6577 N   0  0  0  0  0  0  0  0  0  0  0  0
  -34.3205  -20.9653   18.9152 N   0  0  0  0  0  0  0  0  0  0  0  0
  -23.0931  -15.5232   21.9671 N   0  0  0  0  0  0  0  0  0  0  0  0
  -35.7633  -18.5998   21.2370 N   0  3  0  0  0  0  0  0  0  0  0  0
  -23.9128  -23.8147   26.1077 O   0  0  0  0  0  0  0  0  0  0  0  0
  -29.0623  -23.1213   18.6887 O   0  0  0  0  0  0  0  0  0  0  0  0
  -33.1325  -23.5475   19.2749 O   0  0  0  0  0  0  0  0  0  0  0  0
  -33.5990  -18.8283   19.4536 O   0  0  0  0  0  0  0  0  0  0  0  0
  -22.8397  -16.7397   23.8934 O   0  0  0  0  0  0  0  0  0  0  0  0
  -19.2730  -28.0201   21.4846 O   0  0  0  0  0  0  0  0  0  0  0  0
  -27.1220  -17.9436   21.3554 O   0  0  0  0  0  0  0  0  0  1  0  0
  -16.1121  -30.3050   25.3823 F   0  0  0  0  0  0  0  0  0  0  0  0
  -20.3797  -28.9623   23.8362 F   0  0  0  0  0  0  0  0  0  0  0  0
  -24.7335   -9.4085   19.0278 F   0  0  0  0  0  0  0  0  0  0  0  0
  -23.1905   -9.8003   17.5403 F   0  0  0  0  0  0  0  0  0  0  0  0
  -22.7443  -10.0256   19.6683 F   0  0  0  0  0  0  0  0  0  0  0  0
  1  2  1  0  0  0  0
  1  5  2  0  0  0  0
  2  6  2  0  0  0  0
  3  8  2  0  0  0  0
  3 16  1  0  0  0  0
  4  9  1  0  0  0  0
  4 16  2  0  0  0  0
  5 18  1  0  0  0  0
  6 20  1  0  0  0  0
  7 10  2  0  0  0  0
  7 19  1  0  0  0  0
  8 23  1  0  0  0  0
  9 23  2  0  0  0  0
 10 24  1  0  0  0  0
 11 12  2  0  0  0  0
 11 25  1  0  0  0  0
 12 26  1  0  0  0  0
 13 21  1  0  0  0  0
 13 24  2  0  0  0  0
 14 26  2  0  0  0  0
 14 27  1  0  0  0  0
 15 22  1  0  0  0  0
 15 68  2  0  0  0  0
 16 28  1  0  0  0  0
 17 28  1  0  0  0  0
 17 30  2  0  0  0  0
 17 32  1  0  0  0  0
 18 20  2  0  0  0  0
 18 37  1  0  0  0  0
 19 21  2  0  0  0  0
 19 38  1  0  0  0  0
 20 46  1  0  0  0  0
 21 39  1  0  0  0  0
 22 29  2  0  0  0  0
 22 65  1  0  0  0  0
 23 85  1  0  0  0  0
 24 86  1  0  0  0  0
 25 27  2  0  0  0  0
 25 85  1  0  0  0  0
 26 87  1  0  0  0  0
 27 88  1  0  0  0  0
 28 69  2  0  0  0  0
 29 62  1  0  0  0  0
 29 70  1  0  0  0  0
 30 71  1  0  0  0  0
 30 74  1  0  0  0  0
 31 57  1  0  0  0  0
 31 68  1  0  0  0  0
 31 70  2  0  0  0  0
 32 75  1  0  0  0  0
 32 80  2  0  0  0  0
 33 47  1  0  0  0  0
 33 76  1  0  0  0  0
 33 81  2  0  0  0  0
 34 63  1  0  0  0  0
 34 72  1  0  0  0  0
 34 82  2  0  0  0  0
 35 64  1  0  0  0  0
 35 77  1  0  0  0  0
 35 83  2  0  0  0  0
 36 73  1  0  0  0  0
 36 78  1  0  0  0  0
 36 84  2  0  0  0  0
 37 40  1  0  0  0  0
 38 47  1  0  0  0  0
 39 72  1  0  0  0  0
 40 42  1  0  0  0  0
 41 43  1  0  0  0  0
 41 44  1  0  0  0  0
 42 46  1  0  0  0  0
 43 48  1  0  0  0  0
 44 73  1  0  0  0  0
 45 48  1  0  0  0  0
 45 73  1  0  0  0  0
 46 76  1  0  0  0  0
 47 72  1  0  0  0  0
 48 71  1  0  0  0  0
 49 58  1  0  0  0  0
 50 62  1  0  0  0  0
 51 64  1  0  0  0  0
 52 65  1  0  0  0  0
 53 66  1  0  0  0  0
 54 66  1  0  0  0  0
 55 66  1  0  0  0  0
 56 79  1  0  0  0  0
 57 67  1  0  0  0  0
 58 65  1  0  0  0  0
 59 60  1  0  0  0  0
 59 61  1  0  0  0  0
 60 65  1  0  0  0  0
 61 86  1  0  0  0  0
 62 78  1  0  0  0  0
 63 66  1  0  0  0  0
 63 77  1  0  0  0  0
 64 79  1  0  0  0  0
 67 89  1  0  0  0  0
 67 90  1  0  0  0  0
 67 91  1  0  0  0  0
 69 71  1  0  0  0  0
M  CHG  1  79   1
M  ISO  4  36 100  61 101  78 100  86 101
M  END
> <Batch ID>
0069

> <Smiles>
CCC(C)(CC[101CH2:1][101O:1]c1ccc2c(c1)CN(C(=O)C(NC(=O)C(C)NC)C(C)(C)C)C(C(=O)NC1CCCc3ccccc31)C2)c1cnc(CC(F)(F)F)nc1C(C)[100NH:0][100C:0](=O)N1CCCC(n2nc(-c3ccc(Oc4ccc(F)cc4F)cc3)c(C(N)=O)c2N)C1

> <Shape>
0.179

> <Color>
0.069

> <Negative vol penalty>
0.000

$$$$

  -OEChem-04052318173D

 85 93  0     1  0  0  0  0  0999 V2000
  -24.8466  -11.1643   20.0799 C   0  0  0  0  0  0  0  0  0  0  0  0
  -24.1154  -12.2402   19.5866 C   0  0  0  0  0  0  0  0  0  0  0  0
  -20.9707  -29.8494   24.0361 C   0  0  0  0  0  0  0  0  0  0  0  0
  -22.2823  -29.3122   22.0795 C   0  0  0  0  0  0  0  0  0  0  0  0
  -25.8310  -11.3757   21.0444 C   0  0  0  0  0  0  0  0  0  0  0  0
  -24.3674  -13.5279   20.0584 C   0  0  0  0  0  0  0  0  0  0  0  0
  -24.0510  -18.7455   16.8673 C   0  0  0  0  0  0  0  0  0  0  0  0
  -21.8067  -30.9347   24.2985 C   0  0  0  0  0  0  0  0  0  0  0  0
  -23.1182  -30.3975   22.3418 C   0  0  0  0  0  0  0  0  0  0  0  0
  -23.0614  -19.7218   16.7616 C   0  0  0  0  0  0  0  0  0  0  0  0
  -25.6873  -31.1187   24.4181 C   0  0  0  0  0  0  0  0  0  0  0  0
  -27.0637  -30.9153   24.3196 C   0  0  0  0  0  0  0  0  0  0  0  0
  -24.1835  -21.0332   18.4469 C   0  0  0  0  0  0  0  0  0  0  0  0
  -27.1908  -32.6077   22.6001 C   0  0  0  0  0  0  0  0  0  0  0  0
  -17.8681  -20.5125   21.4064 C   0  0  0  0  0  0  0  0  0  0  0  0
  -21.2086  -29.0381   22.9266 C   0  0  0  0  0  0  0  0  0  0  0  0
  -19.1762  -27.9135   21.8719 C   0  0  0  0  0  0  0  0  0  0  0  0
  -26.1018  -12.6679   21.5212 C   0  0  0  0  0  0  0  0  0  0  0  0
  -25.1103  -18.9009   17.7730 C   0  0  0  0  0  0  0  0  0  0  0  0
  -25.3554  -13.7566   21.0312 C   0  0  0  0  0  0  0  0  0  0  0  0
  -25.1867  -20.0586   18.5604 C   0  0  0  0  0  0  0  0  0  0  0  0
  -22.8804  -31.2088   23.4513 C   0  0  0  0  0  0  0  0  0  0  0  0
  -23.1260  -20.8645   17.5535 C   0  0  0  0  0  0  0  0  0  0  0  0
  -25.0626  -32.0666   23.6075 C   0  0  0  0  0  0  0  0  0  0  0  0
  -27.8155  -31.6598   23.4107 C   0  0  0  0  0  0  0  0  0  0  0  0
  -25.8144  -32.8111   22.6985 C   0  0  0  0  0  0  0  0  0  0  0  0
  -20.3458  -27.9164   22.6554 C   0  0  0  0  0  0  0  0  0  0  0  0
  -19.0765  -19.8374   21.1844 C   0  0  0  0  0  0  0  0  0  0  0  0
  -18.7289  -26.6161   21.9273 C   0  0  0  0  0  0  0  0  0  0  0  0
  -18.5500  -28.9876   21.1578 C   0  0  0  0  0  0  0  0  0  0  0  0
  -26.1424  -17.2949   20.3145 C   0  0  0  0  0  0  0  0  0  0  0  0
  -28.5950  -19.4131   20.1713 C   0  0  0  0  0  0  0  0  0  0  0  0
  -21.3496  -21.4114   21.7015 C   0  0  0  0  0  0  0  0  0  0  0  0
  -29.7290  -22.4685   19.1587 C   0  0  0  0  0  0  0  0  0  0  0  0
  -27.1430  -12.8408   22.5986 C   0  0  0  0  0  0  0  0  0  0  0  0
  -26.1842  -17.8510   17.8559 C   0  0  0  0  0  0  0  0  0  0  0  0
  -26.3142  -20.2827   19.5336 C   0  0  0  0  0  0  0  0  0  0  0  0
  -27.6055  -14.2851   22.7726 C   0  0  0  0  0  0  0  0  0  0  0  0
  -20.0759  -22.7343   24.8739 C   0  0  0  0  0  0  0  0  0  0  0  0
  -26.4073  -15.2282   22.8126 C   0  0  0  0  0  0  0  0  0  0  0  0
  -20.1877  -24.2107   24.4799 C   0  0  0  0  0  0  0  0  0  0  0  0
  -19.8231  -21.7979   23.6928 C   0  0  0  0  0  0  0  0  0  0  0  0
  -20.2959  -23.6042   22.0400 C   0  0  0  0  0  0  0  0  0  0  0  0
  -25.6165  -15.1715   21.5000 C   0  0  1  0  0  0  0  0  0  0  0  0
  -26.9407  -17.8733   19.1805 C   0  0  1  0  0  0  0  0  0  0  0  0
  -19.5905  -24.4780   23.0912 C   0  0  2  0  0  0  0  0  0  0  0  0
  -31.7660  -23.9328   19.2193 C   0  0  0  0  0  0  0  0  0  0  0  0
  -20.2321  -17.7106   22.0044 C   0  0  0  0  0  0  0  0  0  0  0  0
  -19.4664  -19.3628   23.6499 C   0  0  0  0  0  0  0  0  0  0  0  0
  -22.4258  -19.3020   21.1073 C   0  0  0  0  0  0  0  0  0  0  0  0
  -22.2408  -20.0102   23.4830 C   0  0  0  0  0  0  0  0  0  0  0  0
  -28.0288  -20.0754   23.0955 C   0  0  0  0  0  0  0  0  0  0  0  0
  -29.4058  -22.1482   22.8202 C   0  0  0  0  0  0  0  0  0  0  0  0
  -30.4556  -19.9060   22.5152 C   0  0  0  0  0  0  0  0  0  0  0  0
  -29.9283  -22.5116   16.2062 C   0  0  0  0  0  0  0  0  0  0  0  0
  -18.3990  -21.9084   17.3546 C   0  0  0  0  0  0  0  0  0  0  0  0
  -19.8288  -22.3293   17.6980 C   0  0  0  0  0  0  0  0  0  0  0  0
  -18.0383  -20.5176   17.8887 C   0  0  0  0  0  0  0  0  0  0  0  0
  -20.8526  -21.3831   17.0855 C   0  0  0  0  0  0  0  0  0  1  0  0
  -28.8636  -20.7788   20.7557 C   0  0  1  0  0  0  0  0  0  0  0  0
  -30.9965  -22.8827   18.4333 C   0  0  2  0  0  0  0  0  0  0  0  0
  -20.0193  -19.2778   22.1619 C   0  0  0  0  0  0  0  0  0  0  0  0
  -21.4896  -19.9743   22.1346 C   0  0  0  0  0  0  0  0  0  0  0  0
  -29.1660  -20.7223   22.2798 C   0  0  0  0  0  0  0  0  0  0  0  0
  -17.3197  -20.8561   20.2377 N   0  0  0  0  0  0  0  0  0  0  0  0
  -20.6240  -26.7161   23.1709 N   0  0  0  0  0  0  0  0  0  0  0  0
  -19.3085  -19.7436   19.8721 N   0  0  0  0  0  0  0  0  0  0  0  0
  -19.6228  -25.9468   22.7104 N   0  0  0  0  0  0  0  0  0  0  0  0
  -18.2278  -20.3681   19.3772 N   0  0  0  0  0  0  0  0  0  0  0  0
  -27.3366  -19.2245   19.5826 N   0  0  0  0  0  0  0  0  0  0  0  0
  -20.5399  -22.2300   22.4906 N   0  0  0  0  0  0  0  0  0  0  0  0
  -17.6621  -25.9938   21.3822 N   0  0  0  0  0  0  0  0  0  0  0  0
  -19.1418  -30.2572   21.2069 N   0  0  0  0  0  0  0  0  0  0  0  0
  -26.2926  -15.9300   20.4695 N   0  0  0  0  0  0  0  0  0  0  0  0
  -29.9348  -21.3619   19.9552 N   0  0  0  0  0  0  0  0  0  0  0  0
  -30.6661  -23.4467   17.0940 N   0  3  0  0  0  0  0  0  0  0  0  0
  -17.4879  -28.8301   20.5093 O   0  0  0  0  0  0  0  0  0  0  0  0
  -25.4433  -18.0326   20.9991 O   0  0  0  0  0  0  0  0  0  0  0  0
  -29.4722  -18.5477   20.2285 O   0  0  0  0  0  0  0  0  0  0  0  0
  -21.9428  -21.8019   20.6923 O   0  0  0  0  0  0  0  0  0  0  0  0
  -28.6638  -23.0689   19.0343 O   0  0  0  0  0  0  0  0  0  0  0  0
  -23.6961  -32.2680   23.7069 O   0  0  0  0  0  0  0  0  0  0  0  0
  -22.1610  -21.8187   17.4528 O   0  0  0  0  0  0  0  0  0  1  0  0
  -29.1375  -31.4654   23.3174 F   0  0  0  0  0  0  0  0  0  0  0  0
  -25.2201  -33.7240   21.9180 F   0  0  0  0  0  0  0  0  0  0  0  0
  1  2  1  0  0  0  0
  1  5  2  0  0  0  0
  2  6  2  0  0  0  0
  3  8  2  0  0  0  0
  3 16  1  0  0  0  0
  4  9  1  0  0  0  0
  4 16  2  0  0  0  0
  5 18  1  0  0  0  0
  6 20  1  0  0  0  0
  7 10  2  0  0  0  0
  7 19  1  0  0  0  0
  8 22  1  0  0  0  0
  9 22  2  0  0  0  0
 10 23  1  0  0  0  0
 11 12  2  0  0  0  0
 11 24  1  0  0  0  0
 12 25  1  0  0  0  0
 13 21  1  0  0  0  0
 13 23  2  0  0  0  0
 14 25  2  0  0  0  0
 14 26  1  0  0  0  0
 15 28  1  0  0  0  0
 15 65  2  0  0  0  0
 16 27  1  0  0  0  0
 17 27  1  0  0  0  0
 17 29  2  0  0  0  0
 17 30  1  0  0  0  0
 18 20  2  0  0  0  0
 18 35  1  0  0  0  0
 19 21  2  0  0  0  0
 19 36  1  0  0  0  0
 20 44  1  0  0  0  0
 21 37  1  0  0  0  0
 22 82  1  0  0  0  0
 23 83  1  0  0  0  0
 24 26  2  0  0  0  0
 24 82  1  0  0  0  0
 25 84  1  0  0  0  0
 26 85  1  0  0  0  0
 27 66  2  0  0  0  0
 28 62  1  0  0  0  0
 28 67  2  0  0  0  0
 29 68  1  0  0  0  0
 29 72  1  0  0  0  0
 30 73  1  0  0  0  0
 30 77  2  0  0  0  0
 31 45  1  0  0  0  0
 31 74  1  0  0  0  0
 31 78  2  0  0  0  0
 32 60  1  0  0  0  0
 32 70  1  0  0  0  0
 32 79  2  0  0  0  0
 33 63  1  0  0  0  0
 33 71  1  0  0  0  0
 33 80  2  0  0  0  0
 34 61  1  0  0  0  0
 34 75  1  0  0  0  0
 34 81  2  0  0  0  0
 35 38  1  0  0  0  0
 36 45  1  0  0  0  0
 37 70  1  0  0  0  0
 38 40  1  0  0  0  0
 39 41  1  0  0  0  0
 39 42  1  0  0  0  0
 40 44  1  0  0  0  0
 41 46  1  0  0  0  0
 42 71  1  0  0  0  0
 43 46  1  0  0  0  0
 43 71  1  0  0  0  0
 44 74  1  0  0  0  0
 45 70  1  0  0  0  0
 46 68  1  0  0  0  0
 47 61  1  0  0  0  0
 48 62  1  0  0  0  0
 49 62  1  0  0  0  0
 50 63  1  0  0  0  0
 51 63  1  0  0  0  0
 52 64  1  0  0  0  0
 53 64  1  0  0  0  0
 54 64  1  0  0  0  0
 55 76  1  0  0  0  0
 56 57  1  0  0  0  0
 56 58  1  0  0  0  0
 57 59  1  0  0  0  0
 58 69  1  0  0  0  0
 59 83  1  0  0  0  0
 60 64  1  0  0  0  0
 60 75  1  0  0  0  0
 61 76  1  0  0  0  0
 62 63  1  0  0  0  0
 65 69  1  0  0  0  0
 66 68  1  0  0  0  0
 67 69  1  0  0  0  0
M  CHG  1  76   1
M  ISO  4  33 100  59 101  63 100  83 101
M  END
> <Batch ID>
0069

> <Smiles>
CNC(C)C(=O)NC(C(=O)N1Cc2cc([101O:1][101CH2:1]CCCn3ncc(C(C)(C)[100C:0](C)(C)[100C:0](=O)N4CCCC(n5nc(-c6ccc(Oc7ccc(F)cc7F)cc6)c(C(N)=O)c5N)C4)n3)ccc2CC1C(=O)NC1CCCc2ccccc21)C(C)(C)C

> <Shape>
0.203

> <Color>
0.073

> <Negative vol penalty>
0.000

$$$$

  -OEChem-04052318173D

 86 94  0     1  0  0  0  0  0999 V2000
  -20.2666  -33.6485   24.4861 C   0  0  0  0  0  0  0  0  0  0  0  0
  -21.5601  -33.3100   24.1018 C   0  0  0  0  0  0  0  0  0  0  0  0
  -24.1717  -12.2907   21.1671 C   0  0  0  0  0  0  0  0  0  0  0  0
  -26.5269  -12.5743   21.6246 C   0  0  0  0  0  0  0  0  0  0  0  0
  -19.3139  -32.6489   24.6791 C   0  0  0  0  0  0  0  0  0  0  0  0
  -21.9020  -31.9717   23.9113 C   0  0  0  0  0  0  0  0  0  0  0  0
  -25.8209  -29.7257   19.7757 C   0  0  0  0  0  0  0  0  0  0  0  0
  -24.3256  -10.9060   21.2327 C   0  0  0  0  0  0  0  0  0  0  0  0
  -26.6809  -11.1895   21.6903 C   0  0  0  0  0  0  0  0  0  0  0  0
  -27.1575  -29.3389   19.8633 C   0  0  0  0  0  0  0  0  0  0  0  0
  -24.0279   -7.3056   21.6374 C   0  0  0  0  0  0  0  0  0  0  0  0
  -23.0784   -6.5810   22.3577 C   0  0  0  0  0  0  0  0  0  0  0  0
  -26.4678  -27.0498   20.1846 C   0  0  0  0  0  0  0  0  0  0  0  0
  -23.6508   -7.8153   24.3542 C   0  0  0  0  0  0  0  0  0  0  0  0
  -25.2724  -13.1249   21.3629 C   0  0  0  0  0  0  0  0  0  0  0  0
  -24.8032  -15.4279   22.3548 C   0  0  0  0  0  0  0  0  0  0  0  0
  -19.6417  -31.2983   24.4815 C   0  0  0  0  0  0  0  0  0  0  0  0
  -24.7958  -28.7774   19.9030 C   0  0  0  0  0  0  0  0  0  0  0  0
  -20.9532  -30.9530   24.1032 C   0  0  0  0  0  0  0  0  0  0  0  0
  -25.1191  -27.4267   20.0957 C   0  0  0  0  0  0  0  0  0  0  0  0
  -25.5802  -10.3554   21.4944 C   0  0  0  0  0  0  0  0  0  0  0  0
  -27.4811  -28.0013   20.0707 C   0  0  0  0  0  0  0  0  0  0  0  0
  -24.7890   -8.2851   22.2755 C   0  0  0  0  0  0  0  0  0  0  0  0
  -22.8898   -6.8358   23.7161 C   0  0  0  0  0  0  0  0  0  0  0  0
  -24.6004   -8.5399   23.6338 C   0  0  0  0  0  0  0  0  0  0  0  0
  -25.1141  -14.5554   21.2946 C   0  0  0  0  0  0  0  0  0  0  0  0
  -29.2892  -24.1360   18.1773 C   0  0  0  0  0  0  0  0  0  0  0  0
  -28.5904  -24.0269   20.7516 C   0  0  0  0  0  0  0  0  0  0  0  0
  -28.8771  -22.9541   18.7525 C   0  0  0  0  0  0  0  0  0  0  0  0
  -29.0031  -25.2087   20.1767 C   0  0  0  0  0  0  0  0  0  0  0  0
  -24.7667  -16.6728   21.7756 C   0  0  0  0  0  0  0  0  0  0  0  0
  -24.5686  -15.1389   23.7394 C   0  0  0  0  0  0  0  0  0  0  0  0
  -22.3945  -28.3294   21.9370 C   0  0  0  0  0  0  0  0  0  0  0  0
  -21.5904  -25.9700   19.8612 C   0  0  0  0  0  0  0  0  0  0  0  0
  -22.5845  -23.7710   17.4481 C   0  0  0  0  0  0  0  0  0  0  0  0
  -27.3390  -18.9694   16.8807 C   0  0  0  0  0  0  0  0  0  0  0  0
  -18.5910  -30.2498   24.7482 C   0  0  0  0  0  0  0  0  0  0  0  0
  -23.3595  -29.2068   19.7794 C   0  0  0  0  0  0  0  0  0  0  0  0
  -24.0562  -26.3666   20.2186 C   0  0  0  0  0  0  0  0  0  0  0  0
  -18.9324  -28.8823   24.1619 C   0  0  0  0  0  0  0  0  0  0  0  0
  -23.8560  -18.8380   17.6075 C   0  0  0  0  0  0  0  0  0  0  0  0
  -20.3766  -28.5097   24.4821 C   0  0  0  0  0  0  0  0  0  0  0  0
  -23.7554  -17.8043   18.7305 C   0  0  0  0  0  0  0  0  0  0  0  0
  -24.9315  -18.4633   16.5902 C   0  0  0  0  0  0  0  0  0  0  0  0
  -26.1642  -17.1709   18.2884 C   0  0  0  0  0  0  0  0  0  0  0  0
  -21.3558  -29.5142   23.8626 C   0  0  1  0  0  0  0  0  0  0  0  0
  -22.3862  -28.2336   20.4375 C   0  0  1  0  0  0  0  0  0  0  0  0
  -25.1312  -17.5341   19.3688 C   0  0  2  0  0  0  0  0  0  0  0  0
  -29.6805  -24.2066   16.7408 C   0  0  0  0  0  0  0  0  0  0  0  0
  -28.1987  -23.9561   22.1879 C   0  0  0  0  0  0  0  0  0  0  0  0
  -30.4496  -26.6926   21.6080 C   0  0  0  0  0  0  0  0  0  0  0  0
  -21.7097  -21.9445   15.9662 C   0  0  0  0  0  0  0  0  0  0  0  0
  -21.5536  -24.0605   22.2407 C   0  0  0  0  0  0  0  0  0  0  0  0
  -21.6238  -22.1522   20.6215 C   0  0  0  0  0  0  0  0  0  0  0  0
  -19.6896  -23.7274   20.6070 C   0  0  0  0  0  0  0  0  0  0  0  0
  -31.3195  -21.2665   17.7554 C   0  0  0  0  0  0  0  0  0  0  0  0
  -30.0433  -20.2647   19.6425 C   0  0  0  0  0  0  0  0  0  0  0  0
  -23.2948  -25.2637   14.9932 C   0  0  0  0  0  0  0  0  0  0  0  0
  -28.8040  -21.6907   17.9651 C   0  0  0  0  0  0  0  0  0  0  0  0
  -29.7522  -19.3719   17.2974 C   0  0  0  0  0  0  0  0  0  0  0  0
  -29.0786  -26.4896   20.9756 C   0  0  1  0  0  0  0  0  0  1  0  0
  -21.9279  -24.5049   19.7251 C   0  0  1  0  0  0  0  0  0  0  0  0
  -21.9971  -23.4328   16.0898 C   0  0  2  0  0  0  0  0  0  0  0  0
  -21.2189  -23.6313   20.7982 C   0  0  0  0  0  0  0  0  0  0  0  0
  -29.9617  -20.6482   18.1469 C   0  0  0  0  0  0  0  0  0  0  0  0
  -25.2642  -15.1920   20.1301 N   0  0  0  0  0  0  0  0  0  0  0  0
  -28.5200  -22.8784   20.0498 N   0  0  0  0  0  0  0  0  0  0  0  0
  -29.3598  -25.2845   18.8791 N   0  0  0  0  0  0  0  0  0  0  0  0
  -25.0466  -16.4778   20.4551 N   0  0  0  0  0  0  0  0  0  0  0  0
  -22.6665  -26.8372   20.0973 N   0  0  0  0  0  0  0  0  0  0  0  0
  -26.2118  -18.2219   17.2599 N   0  0  0  0  0  0  0  0  0  0  0  0
  -24.5227  -17.9042   22.2721 N   0  0  0  0  0  0  0  0  0  0  0  0
  -24.6454  -13.8062   24.1661 N   0  0  0  0  0  0  0  0  0  0  0  0
  -21.5104  -29.2615   22.4461 N   0  0  0  0  0  0  0  0  0  0  0  0
  -21.6080  -24.1384   18.3497 N   0  0  0  0  0  0  0  0  0  0  0  0
  -28.5108  -18.6822   17.5699 N   0  0  0  0  0  0  0  0  0  0  0  0
  -22.9429  -23.8204   15.0053 N   0  3  0  0  0  0  0  0  0  0  0  0
  -24.2826  -16.0341   24.5704 O   0  0  0  0  0  0  0  0  0  0  0  0
  -23.1462  -27.6099   22.5842 O   0  0  0  0  0  0  0  0  0  0  0  0
  -20.4161  -26.3325   19.7546 O   0  0  0  0  0  0  0  0  0  0  0  0
  -23.7887  -23.7115   17.6866 O   0  0  0  0  0  0  0  0  0  0  0  0
  -27.3024  -19.8327   15.9973 O   0  0  0  0  0  0  0  0  0  0  0  0
  -25.7308   -9.0042   21.5588 O   0  0  0  0  0  0  0  0  0  0  0  0
  -28.7849  -27.6211   20.1572 O   0  0  0  0  0  0  0  0  0  1  0  0
  -21.9768   -6.1410   24.4073 F   0  0  0  0  0  0  0  0  0  0  0  0
  -25.3278   -9.4805   24.2520 F   0  0  0  0  0  0  0  0  0  0  0  0
  1  2  1  0  0  0  0
  1  5  2  0  0  0  0
  2  6  2  0  0  0  0
  3  8  2  0  0  0  0
  3 15  1  0  0  0  0
  4  9  1  0  0  0  0
  4 15  2  0  0  0  0
  5 17  1  0  0  0  0
  6 19  1  0  0  0  0
  7 10  2  0  0  0  0
  7 18  1  0  0  0  0
  8 21  1  0  0  0  0
  9 21  2  0  0  0  0
 10 22  1  0  0  0  0
 11 12  2  0  0  0  0
 11 23  1  0  0  0  0
 12 24  1  0  0  0  0
 13 20  1  0  0  0  0
 13 22  2  0  0  0  0
 14 24  2  0  0  0  0
 14 25  1  0  0  0  0
 15 26  1  0  0  0  0
 16 26  1  0  0  0  0
 16 31  2  0  0  0  0
 16 32  1  0  0  0  0
 17 19  2  0  0  0  0
 17 37  1  0  0  0  0
 18 20  2  0  0  0  0
 18 38  1  0  0  0  0
 19 46  1  0  0  0  0
 20 39  1  0  0  0  0
 21 83  1  0  0  0  0
 22 84  1  0  0  0  0
 23 25  2  0  0  0  0
 23 83  1  0  0  0  0
 24 85  1  0  0  0  0
 25 86  1  0  0  0  0
 26 66  2  0  0  0  0
 27 29  1  0  0  0  0
 27 49  1  0  0  0  0
 27 68  2  0  0  0  0
 28 30  2  0  0  0  0
 28 50  1  0  0  0  0
 28 67  1  0  0  0  0
 29 59  1  0  0  0  0
 29 67  2  0  0  0  0
 30 61  1  0  0  0  0
 30 68  1  0  0  0  0
 31 69  1  0  0  0  0
 31 72  1  0  0  0  0
 32 73  1  0  0  0  0
 32 78  2  0  0  0  0
 33 47  1  0  0  0  0
 33 74  1  0  0  0  0
 33 79  2  0  0  0  0
 34 62  1  0  0  0  0
 34 70  1  0  0  0  0
 34 80  2  0  0  0  0
 35 63  1  0  0  0  0
 35 75  1  0  0  0  0
 35 81  2  0  0  0  0
 36 71  1  0  0  0  0
 36 76  1  0  0  0  0
 36 82  2  0  0  0  0
 37 40  1  0  0  0  0
 38 47  1  0  0  0  0
 39 70  1  0  0  0  0
 40 42  1  0  0  0  0
 41 43  1  0  0  0  0
 41 44  1  0  0  0  0
 42 46  1  0  0  0  0
 43 48  1  0  0  0  0
 44 71  1  0  0  0  0
 45 48  1  0  0  0  0
 45 71  1  0  0  0  0
 46 74  1  0  0  0  0
 47 70  1  0  0  0  0
 48 69  1  0  0  0  0
 51 61  1  0  0  0  0
 52 63  1  0  0  0  0
 53 64  1  0  0  0  0
 54 64  1  0  0  0  0
 55 64  1  0  0  0  0
 56 65  1  0  0  0  0
 57 65  1  0  0  0  0
 58 77  1  0  0  0  0
 59 65  1  0  0  0  0
 60 65  1  0  0  0  0
 60 76  1  0  0  0  0
 61 84  1  0  0  0  0
 62 64  1  0  0  0  0
 62 75  1  0  0  0  0
 63 77  1  0  0  0  0
 66 69  1  0  0  0  0
M  CHG  1  77   1
M  ISO  4  36 100  61 101  76 100  84 101
M  END
> <Batch ID>
0069

> <Smiles>
CNC(C)C(=O)NC(C(=O)N1Cc2cc([101O:1][101CH:1](C)c3nc(C)c(CC(C)(C)C[100NH:0][100C:0](=O)N4CCCC(n5nc(-c6ccc(Oc7ccc(F)cc7F)cc6)c(C(N)=O)c5N)C4)nc3C)ccc2CC1C(=O)NC1CCCc2ccccc21)C(C)(C)C

> <Shape>
0.210

> <Color>
0.074

> <Negative vol penalty>
0.000

$$$$

  -OEChem-04052318173D

 84 92  0     1  0  0  0  0  0999 V2000
  -19.2782  -23.9961   23.5505 C   0  0  0  0  0  0  0  0  0  0  0  0
  -20.6557  -24.1112   23.3935 C   0  0  0  0  0  0  0  0  0  0  0  0
  -26.7052  -12.8324   20.6995 C   0  0  0  0  0  0  0  0  0  0  0  0
  -25.3293  -14.1448   19.2089 C   0  0  0  0  0  0  0  0  0  0  0  0
  -18.4507  -25.0769   23.2488 C   0  0  0  0  0  0  0  0  0  0  0  0
  -21.2064  -25.3069   22.9337 C   0  0  0  0  0  0  0  0  0  0  0  0
  -25.2793  -26.7187   25.5914 C   0  0  0  0  0  0  0  0  0  0  0  0
  -25.9067  -11.7156   20.4532 C   0  0  0  0  0  0  0  0  0  0  0  0
  -24.5308  -13.0279   18.9626 C   0  0  0  0  0  0  0  0  0  0  0  0
  -26.4795  -26.0667   25.3117 C   0  0  0  0  0  0  0  0  0  0  0  0
  -22.9047  -10.5303   21.4569 C   0  0  0  0  0  0  0  0  0  0  0  0
  -22.5155   -9.7587   22.5517 C   0  0  0  0  0  0  0  0  0  0  0  0
  -27.1732  -27.9380   23.9566 C   0  0  0  0  0  0  0  0  0  0  0  0
  -23.6250   -7.8386   21.5930 C   0  0  0  0  0  0  0  0  0  0  0  0
  -26.3592  -24.4253   19.6936 C   0  0  0  0  0  0  0  0  0  0  0  0
  -26.4164  -14.0471   20.0774 C   0  0  0  0  0  0  0  0  0  0  0  0
  -28.3890  -15.5991   19.6215 C   0  0  0  0  0  0  0  0  0  0  0  0
  -18.9923  -26.2896   22.7942 C   0  0  0  0  0  0  0  0  0  0  0  0
  -25.0120  -27.9827   25.0460 C   0  0  0  0  0  0  0  0  0  0  0  0
  -20.3853  -26.4045   22.6243 C   0  0  0  0  0  0  0  0  0  0  0  0
  -25.9700  -28.6050   24.2329 C   0  0  0  0  0  0  0  0  0  0  0  0
  -24.8195  -11.8133   19.5848 C   0  0  0  0  0  0  0  0  0  0  0  0
  -27.4254  -26.6751   24.4919 C   0  0  0  0  0  0  0  0  0  0  0  0
  -23.6540   -9.9560   20.4300 C   0  0  0  0  0  0  0  0  0  0  0  0
  -22.8756   -8.4129   22.6198 C   0  0  0  0  0  0  0  0  0  0  0  0
  -24.0142   -8.6102   20.4981 C   0  0  0  0  0  0  0  0  0  0  0  0
  -27.5184  -24.9477   20.2301 C   0  0  0  0  0  0  0  0  0  0  0  0
  -27.2405  -15.2013   20.3318 C   0  0  0  0  0  0  0  0  0  0  0  0
  -28.1625  -24.1483   21.1523 C   0  0  0  0  0  0  0  0  0  0  0  0
  -28.8014  -16.7480   20.2511 C   0  0  0  0  0  0  0  0  0  0  0  0
  -26.5779  -22.5333   20.9344 C   0  0  0  0  0  0  0  0  0  0  0  0
  -29.0261  -14.9849   18.4934 C   0  0  0  0  0  0  0  0  0  0  0  0
  -22.8094  -29.1561   23.0774 C   0  0  0  0  0  0  0  0  0  0  0  0
  -24.2269  -31.9821   23.8028 C   0  0  0  0  0  0  0  0  0  0  0  0
  -27.0139  -33.6345   24.8748 C   0  0  0  0  0  0  0  0  0  0  0  0
  -25.5110  -20.5797   23.7196 C   0  0  0  0  0  0  0  0  0  0  0  0
  -18.0540  -27.4147   22.4358 C   0  0  0  0  0  0  0  0  0  0  0  0
  -23.7239  -28.6843   25.3790 C   0  0  0  0  0  0  0  0  0  0  0  0
  -25.7400  -29.9699   23.6391 C   0  0  0  0  0  0  0  0  0  0  0  0
  -18.7468  -28.7692   22.3108 C   0  0  0  0  0  0  0  0  0  0  0  0
  -28.7339  -18.9345   24.4996 C   0  0  0  0  0  0  0  0  0  0  0  0
  -20.0212  -28.6425   21.4822 C   0  0  0  0  0  0  0  0  0  0  0  0
  -28.7698  -17.7809   23.4986 C   0  0  0  0  0  0  0  0  0  0  0  0
  -27.3047  -19.3268   24.8618 C   0  0  0  0  0  0  0  0  0  0  0  0
  -26.4861  -18.4893   22.6840 C   0  0  0  0  0  0  0  0  0  0  0  0
  -21.0224  -27.6932   22.1515 C   0  0  1  0  0  0  0  0  0  0  0  0
  -23.3396  -29.7463   24.3534 C   0  0  1  0  0  0  0  0  0  0  0  0
  -27.9111  -18.1002   22.2625 C   0  0  2  0  0  0  0  0  0  0  0  0
  -25.2852  -20.4984   20.1930 C   0  0  0  0  0  0  0  0  0  0  0  0
  -27.8813  -35.9449   25.3298 C   0  0  0  0  0  0  0  0  0  0  0  0
  -24.5332  -32.4552   20.8041 C   0  0  0  0  0  0  0  0  0  0  0  0
  -26.2029  -34.2458   21.3277 C   0  0  0  0  0  0  0  0  0  0  0  0
  -23.8462  -34.4720   22.1135 C   0  0  0  0  0  0  0  0  0  0  0  0
  -24.2162  -22.3095   22.5318 C   0  0  0  0  0  0  0  0  0  0  0  0
  -27.4785  -33.0227   27.7329 C   0  0  0  0  0  0  0  0  0  0  0  0
  -29.4380  -24.6315   21.7953 C   0  0  0  0  0  0  0  0  0  0  0  0
  -29.6393  -24.1210   23.2237 C   0  0  0  0  0  0  0  0  0  0  0  0
  -28.5746  -24.6139   24.1967 C   0  0  0  0  0  0  0  0  0  1  0  0
  -26.0556  -21.1926   21.3257 C   0  0  2  0  0  0  0  0  0  0  0  0
  -25.3669  -32.7857   23.2251 C   0  0  1  0  0  0  0  0  0  0  0  0
  -27.2023  -34.7189   25.9203 C   0  0  2  0  0  0  0  0  0  0  0  0
  -24.9911  -33.4631   21.8771 C   0  0  0  0  0  0  0  0  0  0  0  0
  -25.8583  -23.2170   20.0243 N   0  0  0  0  0  0  0  0  0  0  0  0
  -26.9424  -16.0301   21.3359 N   0  0  0  0  0  0  0  0  0  0  0  0
  -27.7186  -22.9313   21.5293 N   0  0  0  0  0  0  0  0  0  0  0  0
  -27.9097  -16.9601   21.2611 N   0  0  0  0  0  0  0  0  0  0  0  0
  -24.4625  -30.6126   23.9889 N   0  0  0  0  0  0  0  0  0  0  0  0
  -26.4989  -19.5826   23.6674 N   0  0  0  0  0  0  0  0  0  0  0  0
  -29.8361  -17.5874   20.0338 N   0  0  0  0  0  0  0  0  0  0  0  0
  -28.4712  -13.8086   17.9712 N   0  0  0  0  0  0  0  0  0  0  0  0
  -21.6942  -28.3579   23.2475 N   0  0  0  0  0  0  0  0  0  0  0  0
  -25.7784  -33.7188   24.2684 N   0  0  0  0  0  0  0  0  0  0  0  0
  -25.2247  -21.2593   22.5259 N   0  0  0  0  0  0  0  0  0  0  0  0
  -28.0395  -34.2140   27.0451 N   0  3  0  0  0  0  0  0  0  0  0  0
  -30.0664  -15.4561   17.9744 O   0  0  0  0  0  0  0  0  0  0  0  0
  -23.3696  -29.4074   22.0169 O   0  0  0  0  0  0  0  0  0  0  0  0
  -23.1690  -32.5501   24.0854 O   0  0  0  0  0  0  0  0  0  0  0  0
  -27.8779  -32.7987   24.6188 O   0  0  0  0  0  0  0  0  0  0  0  0
  -24.9256  -20.8537   24.7750 O   0  0  0  0  0  0  0  0  0  0  0  0
  -24.0403  -10.7236   19.3441 O   0  0  0  0  0  0  0  0  0  0  0  0
  -28.5975  -26.0406   24.2168 O   0  0  0  0  0  0  0  0  0  1  0  0
  -22.5031   -7.6724   23.6720 F   0  0  0  0  0  0  0  0  0  0  0  0
  -24.7350   -8.0532   19.5152 F   0  0  0  0  0  0  0  0  0  0  0  0
  -27.9790  -26.1507   19.8730 F   0  0  0  0  0  0  0  0  0  0  0  0
  1  2  1  0  0  0  0
  1  5  2  0  0  0  0
  2  6  2  0  0  0  0
  3  8  2  0  0  0  0
  3 16  1  0  0  0  0
  4  9  1  0  0  0  0
  4 16  2  0  0  0  0
  5 18  1  0  0  0  0
  6 20  1  0  0  0  0
  7 10  2  0  0  0  0
  7 19  1  0  0  0  0
  8 22  1  0  0  0  0
  9 22  2  0  0  0  0
 10 23  1  0  0  0  0
 11 12  2  0  0  0  0
 11 24  1  0  0  0  0
 12 25  1  0  0  0  0
 13 21  1  0  0  0  0
 13 23  2  0  0  0  0
 14 25  2  0  0  0  0
 14 26  1  0  0  0  0
 15 27  1  0  0  0  0
 15 63  2  0  0  0  0
 16 28  1  0  0  0  0
 17 28  1  0  0  0  0
 17 30  2  0  0  0  0
 17 32  1  0  0  0  0
 18 20  2  0  0  0  0
 18 37  1  0  0  0  0
 19 21  2  0  0  0  0
 19 38  1  0  0  0  0
 20 46  1  0  0  0  0
 21 39  1  0  0  0  0
 22 80  1  0  0  0  0
 23 81  1  0  0  0  0
 24 26  2  0  0  0  0
 24 80  1  0  0  0  0
 25 82  1  0  0  0  0
 26 83  1  0  0  0  0
 27 29  2  0  0  0  0
 27 84  1  0  0  0  0
 28 64  2  0  0  0  0
 29 56  1  0  0  0  0
 29 65  1  0  0  0  0
 30 66  1  0  0  0  0
 30 69  1  0  0  0  0
 31 59  1  0  0  0  0
 31 63  1  0  0  0  0
 31 65  2  0  0  0  0
 32 70  1  0  0  0  0
 32 75  2  0  0  0  0
 33 47  1  0  0  0  0
 33 71  1  0  0  0  0
 33 76  2  0  0  0  0
 34 60  1  0  0  0  0
 34 67  1  0  0  0  0
 34 77  2  0  0  0  0
 35 61  1  0  0  0  0
 35 72  1  0  0  0  0
 35 78  2  0  0  0  0
 36 68  1  0  0  0  0
 36 73  1  0  0  0  0
 36 79  2  0  0  0  0
 37 40  1  0  0  0  0
 38 47  1  0  0  0  0
 39 67  1  0  0  0  0
 40 42  1  0  0  0  0
 41 43  1  0  0  0  0
 41 44  1  0  0  0  0
 42 46  1  0  0  0  0
 43 48  1  0  0  0  0
 44 68  1  0  0  0  0
 45 48  1  0  0  0  0
 45 68  1  0  0  0  0
 46 71  1  0  0  0  0
 47 67  1  0  0  0  0
 48 66  1  0  0  0  0
 49 59  1  0  0  0  0
 50 61  1  0  0  0  0
 51 62  1  0  0  0  0
 52 62  1  0  0  0  0
 53 62  1  0  0  0  0
 54 73  1  0  0  0  0
 55 74  1  0  0  0  0
 56 57  1  0  0  0  0
 57 58  1  0  0  0  0
 58 81  1  0  0  0  0
 59 73  1  0  0  0  0
 60 62  1  0  0  0  0
 60 72  1  0  0  0  0
 61 74  1  0  0  0  0
 64 66  1  0  0  0  0
M  CHG  1  74   1
M  ISO  4  36 100  58 101  73 100  81 101
M  END
> <Batch ID>
0069

> <Smiles>
CNC(C)C(=O)NC(C(=O)N1Cc2cc([101O:1][101CH2:1]CCc3nc(C(C)[100N:0](C)[100C:0](=O)N4CCCC(n5nc(-c6ccc(Oc7ccc(F)cc7F)cc6)c(C(N)=O)c5N)C4)ncc3F)ccc2CC1C(=O)NC1CCCc2ccccc21)C(C)(C)C

> <Shape>
0.218

> <Color>
0.097

> <Negative vol penalty>
0.000

$$$$

  -OEChem-04052318173D

 89 97  0     1  0  0  0  0  0999 V2000
  -16.2559  -28.9713   23.9067 C   0  0  0  0  0  0  0  0  0  0  0  0
  -17.2034  -27.9553   23.9809 C   0  0  0  0  0  0  0  0  0  0  0  0
  -22.5228  -14.3995   19.8916 C   0  0  0  0  0  0  0  0  0  0  0  0
  -23.6081  -13.7204   21.9405 C   0  0  0  0  0  0  0  0  0  0  0  0
  -16.5492  -30.1475   23.2179 C   0  0  0  0  0  0  0  0  0  0  0  0
  -18.4444  -28.1146   23.3653 C   0  0  0  0  0  0  0  0  0  0  0  0
  -23.8350  -25.9842   25.3424 C   0  0  0  0  0  0  0  0  0  0  0  0
  -21.8740  -13.1665   19.8266 C   0  0  0  0  0  0  0  0  0  0  0  0
  -22.9592  -12.4874   21.8756 C   0  0  0  0  0  0  0  0  0  0  0  0
  -24.5813  -24.8577   24.9993 C   0  0  0  0  0  0  0  0  0  0  0  0
  -23.3093   -9.5734   20.1971 C   0  0  0  0  0  0  0  0  0  0  0  0
  -24.0667   -8.4287   20.4449 C   0  0  0  0  0  0  0  0  0  0  0  0
  -25.8776  -26.1917   23.4634 C   0  0  0  0  0  0  0  0  0  0  0  0
  -22.6266   -7.8784   22.3051 C   0  0  0  0  0  0  0  0  0  0  0  0
  -29.1167  -17.6202   23.5561 C   0  0  0  0  0  0  0  0  0  0  0  0
  -31.0764  -18.7741   23.0230 C   0  0  0  0  0  0  0  0  0  0  0  0
  -23.3899  -14.6765   20.9486 C   0  0  0  0  0  0  0  0  0  0  0  0
  -23.6009  -17.1207   21.6479 C   0  0  0  0  0  0  0  0  0  0  0  0
  -17.7980  -30.3252   22.6018 C   0  0  0  0  0  0  0  0  0  0  0  0
  -24.0977  -27.2227   24.7395 C   0  0  0  0  0  0  0  0  0  0  0  0
  -18.7542  -29.2937   22.6665 C   0  0  0  0  0  0  0  0  0  0  0  0
  -25.1349  -27.3329   23.8024 C   0  0  0  0  0  0  0  0  0  0  0  0
  -30.2286  -17.7214   22.7451 C   0  0  0  0  0  0  0  0  0  0  0  0
  -22.0922  -12.2104   20.8186 C   0  0  0  0  0  0  0  0  0  0  0  0
  -25.6008  -24.9606   24.0575 C   0  0  0  0  0  0  0  0  0  0  0  0
  -22.2105   -9.8707   21.0033 C   0  0  0  0  0  0  0  0  0  0  0  0
  -23.7254   -7.5812   21.4988 C   0  0  0  0  0  0  0  0  0  0  0  0
  -21.8691   -9.0232   22.0573 C   0  0  0  0  0  0  0  0  0  0  0  0
  -24.0609  -15.9498   21.0160 C   0  0  0  0  0  0  0  0  0  0  0  0
  -24.5949  -18.0427   21.4280 C   0  0  0  0  0  0  0  0  0  0  0  0
  -29.7464  -19.4593   24.7343 C   0  0  0  0  0  0  0  0  0  0  0  0
  -22.3840  -17.3540   22.3693 C   0  0  0  0  0  0  0  0  0  0  0  0
  -22.4407  -29.2209   22.9050 C   0  0  0  0  0  0  0  0  0  0  0  0
  -30.4627  -17.4226   20.2894 C   0  0  0  0  0  0  0  0  0  0  0  0
  -25.0369  -31.1240   23.3057 C   0  0  0  0  0  0  0  0  0  0  0  0
  -28.3680  -31.3708   24.0054 C   0  0  0  0  0  0  0  0  0  0  0  0
  -18.0518  -31.5948   21.8283 C   0  0  0  0  0  0  0  0  0  0  0  0
  -23.3012  -28.4341   25.1403 C   0  0  0  0  0  0  0  0  0  0  0  0
  -25.4702  -28.6440   23.1412 C   0  0  0  0  0  0  0  0  0  0  0  0
  -19.5276  -31.8367   21.5220 C   0  0  0  0  0  0  0  0  0  0  0  0
  -28.0389  -19.1777   18.3185 C   0  0  0  0  0  0  0  0  0  0  0  0
  -20.1783  -30.5632   20.9914 C   0  0  0  0  0  0  0  0  0  0  0  0
  -26.7033  -18.6343   18.8245 C   0  0  0  0  0  0  0  0  0  0  0  0
  -29.1193  -18.1007   18.3274 C   0  0  0  0  0  0  0  0  0  0  0  0
  -27.9764  -16.8992   20.1637 C   0  0  0  0  0  0  0  0  0  0  0  0
  -20.1207  -29.4391   22.0328 C   0  0  1  0  0  0  0  0  0  0  0  0
  -23.3167  -29.5354   24.0846 C   0  0  1  0  0  0  0  0  0  0  0  0
  -26.8650  -17.9631   20.1999 C   0  0  2  0  0  0  0  0  0  0  0  0
  -30.6661  -18.8999   27.6211 C   0  0  0  0  0  0  0  0  0  0  0  0
  -30.2158  -33.0547   24.2224 C   0  0  0  0  0  0  0  0  0  0  0  0
  -27.8365  -21.4299   23.1500 C   0  0  0  0  0  0  0  0  0  0  0  0
  -30.5450  -21.5639   26.0140 C   0  0  0  0  0  0  0  0  0  0  0  0
  -25.1843  -31.3504   20.2665 C   0  0  0  0  0  0  0  0  0  0  0  0
  -27.5223  -32.2113   20.5137 C   0  0  0  0  0  0  0  0  0  0  0  0
  -25.6154  -33.4863   21.4938 C   0  0  0  0  0  0  0  0  0  0  0  0
  -28.8285  -30.6718   26.8441 C   0  0  0  0  0  0  0  0  0  0  0  0
  -29.4051  -19.6671   27.2294 C   0  0  0  0  0  0  0  0  0  0  0  0
  -28.0680  -21.1616   25.7067 C   0  0  0  0  0  0  0  0  0  0  0  0
  -26.5027  -22.8637   24.7248 C   0  0  0  0  0  0  0  0  0  1  0  0
  -30.4932  -16.7627   21.6450 C   0  0  1  0  0  0  0  0  0  0  0  0
  -26.3427  -31.3191   22.5737 C   0  0  1  0  0  0  0  0  0  0  0  0
  -29.1337  -32.2756   24.9537 C   0  0  2  0  0  0  0  0  0  0  0  0
  -27.8364  -22.1229   24.5137 C   0  0  2  0  0  0  0  0  0  0  0  0
  -29.4686  -20.4592   25.8738 C   0  0  2  0  0  0  0  0  0  0  0  0
  -26.1588  -32.0665   21.2227 C   0  0  0  0  0  0  0  0  0  0  0  0
  -31.8129  -15.9978   21.7984 C   0  0  0  0  0  0  0  0  0  0  0  0
  -28.8435  -18.4748   24.5637 N   0  0  0  0  0  0  0  0  0  0  0  0
  -30.8652  -19.6654   24.0136 N   0  0  0  0  0  0  0  0  0  0  0  0
  -25.2541  -16.1107   20.4378 N   0  0  0  0  0  0  0  0  0  0  0  0
  -25.5524  -17.3934   20.7055 N   0  0  0  0  0  0  0  0  0  0  0  0
  -24.6589  -29.7983   23.5617 N   0  0  0  0  0  0  0  0  0  0  0  0
  -29.2264  -17.4719   19.6451 N   0  0  0  0  0  0  0  0  0  0  0  0
  -24.7346  -19.3374   21.7839 N   0  0  0  0  0  0  0  0  0  0  0  0
  -21.4724  -16.2976   22.5011 N   0  0  0  0  0  0  0  0  0  0  0  0
  -21.1316  -29.6391   23.0489 N   0  0  0  0  0  0  0  0  0  0  0  0
  -27.2393  -31.9886   23.5098 N   0  0  0  0  0  0  0  0  0  0  0  0
  -29.7794  -31.4710   26.0292 N   0  3  0  0  0  0  0  0  0  0  0  0
  -22.1056  -18.4709   22.8677 O   0  0  0  0  0  0  0  0  0  0  0  0
  -22.9177  -28.6429   21.9353 O   0  0  0  0  0  0  0  0  0  0  0  0
  -31.5070  -17.8825   19.8202 O   0  0  0  0  0  0  0  0  0  0  0  0
  -24.3800  -32.1117   23.6444 O   0  0  0  0  0  0  0  0  0  0  0  0
  -28.7364  -30.2313   23.7288 O   0  0  0  0  0  0  0  0  0  0  0  0
  -21.4590  -11.0072   20.7556 O   0  0  0  0  0  0  0  0  0  0  0  0
  -26.3303  -23.8625   23.7203 O   0  0  0  0  0  0  0  0  0  1  0  0
  -24.4519   -6.4811   21.7357 F   0  0  0  0  0  0  0  0  0  0  0  0
  -20.8139   -9.3030   22.8345 F   0  0  0  0  0  0  0  0  0  0  0  0
  -32.0330  -15.1652   20.7544 F   0  0  0  0  0  0  0  0  0  0  0  0
  -32.8734  -16.8278   21.8872 F   0  0  0  0  0  0  0  0  0  0  0  0
  -31.7903  -15.2361   22.9157 F   0  0  0  0  0  0  0  0  0  0  0  0
  1  2  1  0  0  0  0
  1  5  2  0  0  0  0
  2  6  2  0  0  0  0
  3  8  2  0  0  0  0
  3 17  1  0  0  0  0
  4  9  1  0  0  0  0
  4 17  2  0  0  0  0
  5 19  1  0  0  0  0
  6 21  1  0  0  0  0
  7 10  2  0  0  0  0
  7 20  1  0  0  0  0
  8 24  1  0  0  0  0
  9 24  2  0  0  0  0
 10 25  1  0  0  0  0
 11 12  2  0  0  0  0
 11 26  1  0  0  0  0
 12 27  1  0  0  0  0
 13 22  1  0  0  0  0
 13 25  2  0  0  0  0
 14 27  2  0  0  0  0
 14 28  1  0  0  0  0
 15 23  1  0  0  0  0
 15 67  2  0  0  0  0
 16 23  2  0  0  0  0
 16 68  1  0  0  0  0
 17 29  1  0  0  0  0
 18 29  1  0  0  0  0
 18 30  2  0  0  0  0
 18 32  1  0  0  0  0
 19 21  2  0  0  0  0
 19 37  1  0  0  0  0
 20 22  2  0  0  0  0
 20 38  1  0  0  0  0
 21 46  1  0  0  0  0
 22 39  1  0  0  0  0
 23 60  1  0  0  0  0
 24 83  1  0  0  0  0
 25 84  1  0  0  0  0
 26 28  2  0  0  0  0
 26 83  1  0  0  0  0
 27 85  1  0  0  0  0
 28 86  1  0  0  0  0
 29 69  2  0  0  0  0
 30 70  1  0  0  0  0
 30 73  1  0  0  0  0
 31 64  1  0  0  0  0
 31 67  1  0  0  0  0
 31 68  2  0  0  0  0
 32 74  1  0  0  0  0
 32 78  2  0  0  0  0
 33 47  1  0  0  0  0
 33 75  1  0  0  0  0
 33 79  2  0  0  0  0
 34 60  1  0  0  0  0
 34 72  1  0  0  0  0
 34 80  2  0  0  0  0
 35 61  1  0  0  0  0
 35 71  1  0  0  0  0
 35 81  2  0  0  0  0
 36 62  1  0  0  0  0
 36 76  1  0  0  0  0
 36 82  2  0  0  0  0
 37 40  1  0  0  0  0
 38 47  1  0  0  0  0
 39 71  1  0  0  0  0
 40 42  1  0  0  0  0
 41 43  1  0  0  0  0
 41 44  1  0  0  0  0
 42 46  1  0  0  0  0
 43 48  1  0  0  0  0
 44 72  1  0  0  0  0
 45 48  1  0  0  0  0
 45 72  1  0  0  0  0
 46 75  1  0  0  0  0
 47 71  1  0  0  0  0
 48 70  1  0  0  0  0
 49 57  1  0  0  0  0
 50 62  1  0  0  0  0
 51 63  1  0  0  0  0
 52 64  1  0  0  0  0
 53 65  1  0  0  0  0
 54 65  1  0  0  0  0
 55 65  1  0  0  0  0
 56 77  1  0  0  0  0
 57 64  1  0  0  0  0
 58 63  1  0  0  0  0
 58 64  1  0  0  0  0
 59 63  1  0  0  0  0
 59 84  1  0  0  0  0
 60 66  1  0  0  0  0
 61 65  1  0  0  0  0
 61 76  1  0  0  0  0
 62 77  1  0  0  0  0
 66 87  1  0  0  0  0
 66 88  1  0  0  0  0
 66 89  1  0  0  0  0
 69 70  1  0  0  0  0
M  CHG  1  77   1
M  ISO  4  34 100  59 101  60 100  84 101
M  END
> <Batch ID>
0069

> <Smiles>
CCC(C)(CC(C)[101CH2:1][101O:1]c1ccc2c(c1)CN(C(=O)C(NC(=O)C(C)NC)C(C)(C)C)C(C(=O)NC1CCCc3ccccc31)C2)c1ncc([100CH:0]([100C:0](=O)N2CCCC(n3nc(-c4ccc(Oc5ccc(F)cc5F)cc4)c(C(N)=O)c3N)C2)C(F)(F)F)cn1

> <Shape>
0.218

> <Color>
0.060

> <Negative vol penalty>
0.000

$$$$

  -OEChem-04052318173D

 89 97  0     1  0  0  0  0  0999 V2000
  -30.6024  -27.2314   16.2939 C   0  0  0  0  0  0  0  0  0  0  0  0
  -29.2289  -27.0629   16.4377 C   0  0  0  0  0  0  0  0  0  0  0  0
  -23.2071  -13.0471   20.1137 C   0  0  0  0  0  0  0  0  0  0  0  0
  -24.7999  -14.6729   20.9243 C   0  0  0  0  0  0  0  0  0  0  0  0
  -31.3737  -27.6236   17.3872 C   0  0  0  0  0  0  0  0  0  0  0  0
  -28.6262  -27.2854   17.6753 C   0  0  0  0  0  0  0  0  0  0  0  0
  -23.0472  -29.5987   18.6901 C   0  0  0  0  0  0  0  0  0  0  0  0
  -24.1944  -12.0625   20.1485 C   0  0  0  0  0  0  0  0  0  0  0  0
  -25.7872  -13.6882   20.9591 C   0  0  0  0  0  0  0  0  0  0  0  0
  -21.8209  -28.9995   18.9746 C   0  0  0  0  0  0  0  0  0  0  0  0
  -27.8244  -12.1241   18.7604 C   0  0  0  0  0  0  0  0  0  0  0  0
  -29.0800  -12.4468   18.2456 C   0  0  0  0  0  0  0  0  0  0  0  0
  -22.1990  -29.3579   21.3300 C   0  0  0  0  0  0  0  0  0  0  0  0
  -30.0771  -12.0076   20.4020 C   0  0  0  0  0  0  0  0  0  0  0  0
  -23.0437  -24.4990   20.9260 C   0  0  0  0  0  0  0  0  0  0  0  0
  -23.5098  -14.3524   20.5016 C   0  0  0  0  0  0  0  0  0  0  0  0
  -21.6041  -15.7226   21.5006 C   0  0  0  0  0  0  0  0  0  0  0  0
  -30.7787  -27.8604   18.6364 C   0  0  0  0  0  0  0  0  0  0  0  0
  -23.8650  -30.0729   19.7259 C   0  0  0  0  0  0  0  0  0  0  0  0
  -29.3904  -27.6798   18.7866 C   0  0  0  0  0  0  0  0  0  0  0  0
  -23.4341  -29.9649   21.0558 C   0  0  0  0  0  0  0  0  0  0  0  0
  -25.4845  -12.3830   20.5712 C   0  0  0  0  0  0  0  0  0  0  0  0
  -21.3979  -28.8764   20.2949 C   0  0  0  0  0  0  0  0  0  0  0  0
  -27.6952  -11.7432   20.0961 C   0  0  0  0  0  0  0  0  0  0  0  0
  -30.2063  -12.3885   19.0663 C   0  0  0  0  0  0  0  0  0  0  0  0
  -28.8215  -11.6849   20.9168 C   0  0  0  0  0  0  0  0  0  0  0  0
  -22.4905  -15.3701   20.4653 C   0  0  0  0  0  0  0  0  0  0  0  0
  -22.8461  -23.2555   20.3673 C   0  0  0  0  0  0  0  0  0  0  0  0
  -20.7828  -24.7572   21.1514 C   0  0  0  0  0  0  0  0  0  0  0  0
  -20.5850  -23.5140   20.5921 C   0  0  0  0  0  0  0  0  0  0  0  0
  -20.8420  -16.7348   20.9702 C   0  0  0  0  0  0  0  0  0  0  0  0
  -21.4806  -15.1835   22.8233 C   0  0  0  0  0  0  0  0  0  0  0  0
  -26.7813  -29.3745   20.7800 C   0  0  0  0  0  0  0  0  0  0  0  0
  -26.2670  -31.9227   22.7202 C   0  0  0  0  0  0  0  0  0  0  0  0
  -24.0269  -33.9666   24.2858 C   0  0  0  0  0  0  0  0  0  0  0  0
  -21.8149  -20.7102   16.5997 C   0  0  0  0  0  0  0  0  0  0  0  0
  -31.6603  -28.2370   19.8007 C   0  0  0  0  0  0  0  0  0  0  0  0
  -25.1729  -30.7408   19.4007 C   0  0  0  0  0  0  0  0  0  0  0  0
  -24.2657  -30.4762   22.2028 C   0  0  0  0  0  0  0  0  0  0  0  0
  -30.8907  -28.8157   20.9852 C   0  0  0  0  0  0  0  0  0  0  0  0
  -19.1505  -18.3569   16.7991 C   0  0  0  0  0  0  0  0  0  0  0  0
  -29.6657  -27.9612   21.2948 C   0  0  0  0  0  0  0  0  0  0  0  0
  -19.6244  -17.3564   17.8547 C   0  0  0  0  0  0  0  0  0  0  0  0
  -20.3073  -18.8593   15.9381 C   0  0  0  0  0  0  0  0  0  0  0  0
  -21.9190  -18.4157   17.7490 C   0  0  0  0  0  0  0  0  0  0  0  0
  -28.6963  -27.9356   20.1068 C   0  0  1  0  0  0  0  0  0  0  0  0
  -26.1579  -30.7247   20.5656 C   0  0  1  0  0  0  0  0  0  0  0  0
  -20.7965  -17.9232   18.6783 C   0  0  2  0  0  0  0  0  0  0  0  0
  -19.2357  -21.4665   20.0688 C   0  0  0  0  0  0  0  0  0  0  0  0
  -23.9065  -35.9375   25.8345 C   0  0  0  0  0  0  0  0  0  0  0  0
  -23.6882  -20.8815   20.0553 C   0  0  0  0  0  0  0  0  0  0  0  0
  -25.2385  -22.5654   20.9219 C   0  0  0  0  0  0  0  0  0  0  0  0
  -26.9657  -30.1121   25.0748 C   0  0  0  0  0  0  0  0  0  0  0  0
  -25.9276  -31.8076   26.5966 C   0  0  0  0  0  0  0  0  0  0  0  0
  -27.9136  -32.4220   25.2178 C   0  0  0  0  0  0  0  0  0  0  0  0
  -24.9806  -24.2318   18.2308 C   0  0  0  0  0  0  0  0  0  0  0  0
  -25.7388  -21.8703   18.0340 C   0  0  0  0  0  0  0  0  0  0  0  0
  -22.6252  -35.6149   22.2665 C   0  0  0  0  0  0  0  0  0  0  0  0
  -19.6236  -25.6123   21.5970 C   0  0  0  0  0  0  0  0  0  0  0  0
  -19.2158  -22.9565   20.4013 C   0  0  0  0  0  0  0  0  0  0  0  0
  -18.8813  -26.2925   20.4446 C   0  0  0  0  0  0  0  0  0  0  0  0
  -23.3808  -22.4690   17.3830 C   0  0  0  0  0  0  0  0  0  0  0  0
  -19.7435  -27.2851   19.6734 C   0  0  0  0  0  0  0  0  0  1  0  0
  -25.6699  -32.1179   24.0929 C   0  0  1  0  0  0  0  0  0  0  0  0
  -23.9416  -35.4790   24.3849 C   0  0  2  0  0  0  0  0  0  0  0  0
  -24.0060  -22.4285   19.9354 C   0  0  0  0  0  0  0  0  0  0  0  0
  -26.6042  -31.6034   25.2243 C   0  0  0  0  0  0  0  0  0  0  0  0
  -24.5237  -22.7590   18.4093 C   0  0  0  0  0  0  0  0  0  0  0  0
  -22.0156  -25.2722   21.3282 N   0  0  0  0  0  0  0  0  0  0  0  0
  -22.3094  -16.0989   19.3608 N   0  0  0  0  0  0  0  0  0  0  0  0
  -21.6132  -22.7407   20.1903 N   0  0  0  0  0  0  0  0  0  0  0  0
  -21.3003  -16.9196   19.6990 N   0  0  0  0  0  0  0  0  0  0  0  0
  -25.5395  -31.1157   21.8341 N   0  0  0  0  0  0  0  0  0  0  0  0
  -21.3849  -19.3851   16.7796 N   0  0  0  0  0  0  0  0  0  0  0  0
  -19.8313  -17.4759   21.4720 N   0  0  0  0  0  0  0  0  0  0  0  0
  -22.3430  -14.1469   23.2055 N   0  0  0  0  0  0  0  0  0  0  0  0
  -27.9352  -29.1652   20.0491 N   0  0  0  0  0  0  0  0  0  0  0  0
  -25.3328  -33.5337   24.1939 N   0  0  0  0  0  0  0  0  0  0  0  0
  -22.8361  -21.1309   17.4429 N   0  0  0  0  0  0  0  0  0  0  0  0
  -22.7110  -35.9740   23.7055 N   0  3  0  0  0  0  0  0  0  0  0  0
  -20.6197  -15.5971   23.6365 O   0  0  0  0  0  0  0  0  0  0  0  0
  -26.2553  -28.5819   21.5525 O   0  0  0  0  0  0  0  0  0  0  0  0
  -27.3359  -32.4719   22.4421 O   0  0  0  0  0  0  0  0  0  0  0  0
  -23.0346  -33.2416   24.2932 O   0  0  0  0  0  0  0  0  0  0  0  0
  -21.3214  -21.4642   15.7543 O   0  0  0  0  0  0  0  0  0  0  0  0
  -26.4481  -11.4224   20.6055 O   0  0  0  0  0  0  0  0  0  0  0  0
  -20.2017  -28.2915   20.5753 O   0  0  0  0  0  0  0  0  0  1  0  0
  -31.4121  -12.6970   18.5714 F   0  0  0  0  0  0  0  0  0  0  0  0
  -28.7038  -11.3185   22.2004 F   0  0  0  0  0  0  0  0  0  0  0  0
  1  2  1  0  0  0  0
  1  5  2  0  0  0  0
  2  6  2  0  0  0  0
  3  8  2  0  0  0  0
  3 16  1  0  0  0  0
  4  9  1  0  0  0  0
  4 16  2  0  0  0  0
  5 18  1  0  0  0  0
  6 20  1  0  0  0  0
  7 10  2  0  0  0  0
  7 19  1  0  0  0  0
  8 22  1  0  0  0  0
  9 22  2  0  0  0  0
 10 23  1  0  0  0  0
 11 12  2  0  0  0  0
 11 24  1  0  0  0  0
 12 25  1  0  0  0  0
 13 21  1  0  0  0  0
 13 23  2  0  0  0  0
 14 25  2  0  0  0  0
 14 26  1  0  0  0  0
 15 28  1  0  0  0  0
 15 69  2  0  0  0  0
 16 27  1  0  0  0  0
 17 27  1  0  0  0  0
 17 31  2  0  0  0  0
 17 32  1  0  0  0  0
 18 20  2  0  0  0  0
 18 37  1  0  0  0  0
 19 21  2  0  0  0  0
 19 38  1  0  0  0  0
 20 46  1  0  0  0  0
 21 39  1  0  0  0  0
 22 86  1  0  0  0  0
 23 87  1  0  0  0  0
 24 26  2  0  0  0  0
 24 86  1  0  0  0  0
 25 88  1  0  0  0  0
 26 89  1  0  0  0  0
 27 70  2  0  0  0  0
 28 66  1  0  0  0  0
 28 71  2  0  0  0  0
 29 30  2  0  0  0  0
 29 59  1  0  0  0  0
 29 69  1  0  0  0  0
 30 60  1  0  0  0  0
 30 71  1  0  0  0  0
 31 72  1  0  0  0  0
 31 75  1  0  0  0  0
 32 76  1  0  0  0  0
 32 81  2  0  0  0  0
 33 47  1  0  0  0  0
 33 77  1  0  0  0  0
 33 82  2  0  0  0  0
 34 64  1  0  0  0  0
 34 73  1  0  0  0  0
 34 83  2  0  0  0  0
 35 65  1  0  0  0  0
 35 78  1  0  0  0  0
 35 84  2  0  0  0  0
 36 74  1  0  0  0  0
 36 79  1  0  0  0  0
 36 85  2  0  0  0  0
 37 40  1  0  0  0  0
 38 47  1  0  0  0  0
 39 73  1  0  0  0  0
 40 42  1  0  0  0  0
 41 43  1  0  0  0  0
 41 44  1  0  0  0  0
 42 46  1  0  0  0  0
 43 48  1  0  0  0  0
 44 74  1  0  0  0  0
 45 48  1  0  0  0  0
 45 74  1  0  0  0  0
 46 77  1  0  0  0  0
 47 73  1  0  0  0  0
 48 72  1  0  0  0  0
 49 60  1  0  0  0  0
 50 65  1  0  0  0  0
 51 66  1  0  0  0  0
 52 66  1  0  0  0  0
 53 67  1  0  0  0  0
 54 67  1  0  0  0  0
 55 67  1  0  0  0  0
 56 68  1  0  0  0  0
 57 68  1  0  0  0  0
 58 80  1  0  0  0  0
 59 61  1  0  0  0  0
 61 63  1  0  0  0  0
 62 68  1  0  0  0  0
 62 79  1  0  0  0  0
 63 87  1  0  0  0  0
 64 67  1  0  0  0  0
 64 78  1  0  0  0  0
 65 80  1  0  0  0  0
 66 68  1  0  0  0  0
 70 72  1  0  0  0  0
M  CHG  1  80   1
M  ISO  4  36 100  63 101  79 100  87 101
M  END
> <Batch ID>
0069

> <Smiles>
CCc1nc(C(C)(C)C(C)(C)C[100NH:0][100C:0](=O)N2CCCC(n3nc(-c4ccc(Oc5ccc(F)cc5F)cc4)c(C(N)=O)c3N)C2)cnc1CC[101CH2:1][101O:1]c1ccc2c(c1)CN(C(=O)C(NC(=O)C(C)NC)C(C)(C)C)C(C(=O)NC1CCCc3ccccc31)C2

> <Shape>
0.247

> <Color>
0.082

> <Negative vol penalty>
0.000

$$$$

  -OEChem-04052318173D

 90 98  0     1  0  0  0  0  0999 V2000
  -27.5946  -34.3966   21.0396 C   0  0  0  0  0  0  0  0  0  0  0  0
  -27.5083  -33.0564   20.6763 C   0  0  0  0  0  0  0  0  0  0  0  0
  -25.0484  -11.8376   19.9927 C   0  0  0  0  0  0  0  0  0  0  0  0
  -25.6542  -12.4527   22.2492 C   0  0  0  0  0  0  0  0  0  0  0  0
  -26.8753  -34.8679   22.1371 C   0  0  0  0  0  0  0  0  0  0  0  0
  -26.7033  -32.1865   21.4110 C   0  0  0  0  0  0  0  0  0  0  0  0
  -23.4855  -27.4426   19.2554 C   0  0  0  0  0  0  0  0  0  0  0  0
  -25.4694  -10.5303   20.2360 C   0  0  0  0  0  0  0  0  0  0  0  0
  -26.0752  -11.1453   22.4925 C   0  0  0  0  0  0  0  0  0  0  0  0
  -23.7434  -26.0729   19.2200 C   0  0  0  0  0  0  0  0  0  0  0  0
  -24.2712   -7.7757   21.7882 C   0  0  0  0  0  0  0  0  0  0  0  0
  -23.4435   -6.7379   21.3598 C   0  0  0  0  0  0  0  0  0  0  0  0
  -22.4648  -25.7860   21.2454 C   0  0  0  0  0  0  0  0  0  0  0  0
  -25.2189   -5.9044   19.9490 C   0  0  0  0  0  0  0  0  0  0  0  0
  -27.8731  -20.8476   23.3930 C   0  0  0  0  0  0  0  0  0  0  0  0
  -25.1409  -12.7989   20.9992 C   0  0  0  0  0  0  0  0  0  0  0  0
  -23.4183  -14.6798   20.9500 C   0  0  0  0  0  0  0  0  0  0  0  0
  -26.0535  -34.0054   22.8797 C   0  0  0  0  0  0  0  0  0  0  0  0
  -22.7232  -27.9967   20.2938 C   0  0  0  0  0  0  0  0  0  0  0  0
  -25.9733  -32.6465   22.5202 C   0  0  0  0  0  0  0  0  0  0  0  0
  -22.1966  -27.1626   21.2903 C   0  0  0  0  0  0  0  0  0  0  0  0
  -25.9827  -10.1841   21.4859 C   0  0  0  0  0  0  0  0  0  0  0  0
  -23.2354  -25.2448   20.2167 C   0  0  0  0  0  0  0  0  0  0  0  0
  -25.5727   -7.8779   21.2969 C   0  0  0  0  0  0  0  0  0  0  0  0
  -23.9174   -5.8022   20.4403 C   0  0  0  0  0  0  0  0  0  0  0  0
  -26.0465   -6.9423   20.3773 C   0  0  0  0  0  0  0  0  0  0  0  0
  -24.7067  -14.1497   20.7483 C   0  0  0  0  0  0  0  0  0  0  0  0
  -27.0562  -20.5677   22.3166 C   0  0  0  0  0  0  0  0  0  0  0  0
  -29.1573  -21.2444   23.0805 C   0  0  0  0  0  0  0  0  0  0  0  0
  -23.5234  -15.9939   20.5645 C   0  0  0  0  0  0  0  0  0  0  0  0
  -28.7265  -21.0614   20.8561 C   0  0  0  0  0  0  0  0  0  0  0  0
  -22.2324  -14.0415   21.4419 C   0  0  0  0  0  0  0  0  0  0  0  0
  -23.2711  -30.1273   22.5882 C   0  0  0  0  0  0  0  0  0  0  0  0
  -20.0956  -29.7664   23.1437 C   0  0  0  0  0  0  0  0  0  0  0  0
  -29.0618  -18.6336   19.4900 C   0  0  0  0  0  0  0  0  0  0  0  0
  -17.3108  -27.8124   22.8729 C   0  0  0  0  0  0  0  0  0  0  0  0
  -25.3318  -34.5506   24.0866 C   0  0  0  0  0  0  0  0  0  0  0  0
  -22.4317  -29.4723   20.3030 C   0  0  0  0  0  0  0  0  0  0  0  0
  -21.3553  -27.7052   22.4157 C   0  0  0  0  0  0  0  0  0  0  0  0
  -24.2093  -33.6445   24.5858 C   0  0  0  0  0  0  0  0  0  0  0  0
  -25.9105  -18.9232   17.6403 C   0  0  0  0  0  0  0  0  0  0  0  0
  -24.6851  -32.1972   24.6613 C   0  0  0  0  0  0  0  0  0  0  0  0
  -25.3225  -17.5960   18.1309 C   0  0  0  0  0  0  0  0  0  0  0  0
  -26.8666  -19.5798   18.6354 C   0  0  0  0  0  0  0  0  0  0  0  0
  -26.9406  -17.5326   20.0571 C   0  0  0  0  0  0  0  0  0  0  0  0
  -25.0915  -31.6772   23.2772 C   0  0  1  0  0  0  0  0  0  0  0  0
  -22.0744  -30.0022   21.6882 C   0  0  1  0  0  0  0  0  0  0  0  0
  -25.4598  -17.4380   19.6517 C   0  0  2  0  0  0  0  0  0  0  0  0
  -14.8697  -27.7706   23.4531 C   0  0  0  0  0  0  0  0  0  0  0  0
  -30.3397  -20.3428   25.1139 C   0  0  0  0  0  0  0  0  0  0  0  0
  -29.5831  -22.7430   25.0603 C   0  0  0  0  0  0  0  0  0  0  0  0
  -31.5417  -22.0105   23.7155 C   0  0  0  0  0  0  0  0  0  0  0  0
  -30.3114  -22.2947   19.2755 C   0  0  0  0  0  0  0  0  0  0  0  0
  -28.0566  -21.7192   18.4950 C   0  0  0  0  0  0  0  0  0  0  0  0
  -31.2748  -19.6036   19.1404 C   0  0  0  0  0  0  0  0  0  0  0  0
  -29.5794  -19.6157   17.3223 C   0  0  0  0  0  0  0  0  0  0  0  0
  -20.7996  -29.1683   26.0517 C   0  0  0  0  0  0  0  0  0  0  0  0
  -18.4991  -28.2239   26.3416 C   0  0  0  0  0  0  0  0  0  0  0  0
  -18.7924  -30.6278   25.7433 C   0  0  0  0  0  0  0  0  0  0  0  0
  -16.5188  -27.6222   20.0276 C   0  0  0  0  0  0  0  0  0  0  0  0
  -25.6344  -20.1268   22.5577 C   0  0  0  0  0  0  0  0  0  0  0  0
  -24.6310  -21.2833   22.6283 C   0  0  0  0  0  0  0  0  0  0  0  0
  -24.5261  -22.0656   21.3183 C   0  0  0  0  0  0  0  0  0  0  0  0
  -23.5512  -23.2290   21.4386 C   0  0  0  0  0  0  0  0  0  1  0  0
  -19.2581  -28.8521   24.0049 C   0  0  1  0  0  0  0  0  0  0  0  0
  -15.9038  -28.1245   22.3958 C   0  0  2  0  0  0  0  0  0  0  0  0
  -30.1135  -21.5706   24.1785 C   0  0  0  0  0  0  0  0  0  0  0  0
  -29.2000  -21.1838   19.4473 C   0  0  0  0  0  0  0  0  0  0  0  0
  -29.7718  -19.7956   18.8437 C   0  0  0  0  0  0  0  0  0  0  0  0
  -19.3547  -29.2078   25.5154 C   0  0  0  0  0  0  0  0  0  0  0  0
  -25.5672  -15.0532   20.2716 N   0  0  0  0  0  0  0  0  0  0  0  0
  -27.4516  -20.6644   21.0303 N   0  0  0  0  0  0  0  0  0  0  0  0
  -29.6193  -21.3624   21.8183 N   0  0  0  0  0  0  0  0  0  0  0  0
  -24.8180  -16.1642   20.1704 N   0  0  0  0  0  0  0  0  0  0  0  0
  -21.1034  -29.1554   22.3842 N   0  0  0  0  0  0  0  0  0  0  0  0
  -27.6734  -18.5893   19.3520 N   0  0  0  0  0  0  0  0  0  0  0  0
  -22.6339  -17.0086   20.5274 N   0  0  0  0  0  0  0  0  0  0  0  0
  -22.2996  -12.6861   21.7924 N   0  0  0  0  0  0  0  0  0  0  0  0
  -23.9183  -31.3448   22.4977 N   0  0  0  0  0  0  0  0  0  0  0  0
  -17.9046  -28.9079   23.4633 N   0  0  0  0  0  0  0  0  0  0  0  0
  -15.5936  -27.3539   21.1585 N   0  3  0  0  0  0  0  0  0  0  0  0
  -21.1413  -14.6506   21.5513 O   0  0  0  0  0  0  0  0  0  0  0  0
  -23.5832  -29.1892   23.3123 O   0  0  0  0  0  0  0  0  0  0  0  0
  -19.8596  -30.9771   23.1394 O   0  0  0  0  0  0  0  0  0  0  0  0
  -29.7175  -17.7846   20.0999 O   0  0  0  0  0  0  0  0  0  0  0  0
  -17.8296  -26.7064   22.7388 O   0  0  0  0  0  0  0  0  0  0  0  0
  -26.3934   -8.9084   21.7237 O   0  0  0  0  0  0  0  0  0  0  0  0
  -23.4861  -23.9076   20.1849 O   0  0  0  0  0  0  0  0  0  1  0  0
  -23.1230   -4.8047   20.0302 F   0  0  0  0  0  0  0  0  0  0  0  0
  -27.2963   -7.0346   19.9027 F   0  0  0  0  0  0  0  0  0  0  0  0
  1  2  1  0  0  0  0
  1  5  2  0  0  0  0
  2  6  2  0  0  0  0
  3  8  2  0  0  0  0
  3 16  1  0  0  0  0
  4  9  1  0  0  0  0
  4 16  2  0  0  0  0
  5 18  1  0  0  0  0
  6 20  1  0  0  0  0
  7 10  2  0  0  0  0
  7 19  1  0  0  0  0
  8 22  1  0  0  0  0
  9 22  2  0  0  0  0
 10 23  1  0  0  0  0
 11 12  2  0  0  0  0
 11 24  1  0  0  0  0
 12 25  1  0  0  0  0
 13 21  1  0  0  0  0
 13 23  2  0  0  0  0
 14 25  2  0  0  0  0
 14 26  1  0  0  0  0
 15 28  1  0  0  0  0
 15 29  2  0  0  0  0
 16 27  1  0  0  0  0
 17 27  1  0  0  0  0
 17 30  2  0  0  0  0
 17 32  1  0  0  0  0
 18 20  2  0  0  0  0
 18 37  1  0  0  0  0
 19 21  2  0  0  0  0
 19 38  1  0  0  0  0
 20 46  1  0  0  0  0
 21 39  1  0  0  0  0
 22 87  1  0  0  0  0
 23 88  1  0  0  0  0
 24 26  2  0  0  0  0
 24 87  1  0  0  0  0
 25 89  1  0  0  0  0
 26 90  1  0  0  0  0
 27 71  2  0  0  0  0
 28 61  1  0  0  0  0
 28 72  2  0  0  0  0
 29 67  1  0  0  0  0
 29 73  1  0  0  0  0
 30 74  1  0  0  0  0
 30 77  1  0  0  0  0
 31 68  1  0  0  0  0
 31 72  1  0  0  0  0
 31 73  2  0  0  0  0
 32 78  1  0  0  0  0
 32 82  2  0  0  0  0
 33 47  1  0  0  0  0
 33 79  1  0  0  0  0
 33 83  2  0  0  0  0
 34 65  1  0  0  0  0
 34 75  1  0  0  0  0
 34 84  2  0  0  0  0
 35 69  1  0  0  0  0
 35 76  1  0  0  0  0
 35 85  2  0  0  0  0
 36 66  1  0  0  0  0
 36 80  1  0  0  0  0
 36 86  2  0  0  0  0
 37 40  1  0  0  0  0
 38 47  1  0  0  0  0
 39 75  1  0  0  0  0
 40 42  1  0  0  0  0
 41 43  1  0  0  0  0
 41 44  1  0  0  0  0
 42 46  1  0  0  0  0
 43 48  1  0  0  0  0
 44 76  1  0  0  0  0
 45 48  1  0  0  0  0
 45 76  1  0  0  0  0
 46 79  1  0  0  0  0
 47 75  1  0  0  0  0
 48 74  1  0  0  0  0
 49 66  1  0  0  0  0
 50 67  1  0  0  0  0
 51 67  1  0  0  0  0
 52 67  1  0  0  0  0
 53 68  1  0  0  0  0
 54 68  1  0  0  0  0
 55 69  1  0  0  0  0
 56 69  1  0  0  0  0
 57 70  1  0  0  0  0
 58 70  1  0  0  0  0
 59 70  1  0  0  0  0
 60 81  1  0  0  0  0
 61 62  1  0  0  0  0
 62 63  1  0  0  0  0
 63 64  1  0  0  0  0
 64 88  1  0  0  0  0
 65 70  1  0  0  0  0
 65 80  1  0  0  0  0
 66 81  1  0  0  0  0
 68 69  1  0  0  0  0
 71 74  1  0  0  0  0
M  CHG  1  81   1
M  ISO  4  35 100  64 101  69 100  88 101
M  END
> <Batch ID>
0069

> <Smiles>
CNC(C)C(=O)NC(C(=O)N1Cc2cc([101O:1][101CH2:1]CCCc3cc(C(C)(C)C)nc(C(C)(C)[100C:0](C)(C)[100C:0](=O)N4CCCC(n5nc(-c6ccc(Oc7ccc(F)cc7F)cc6)c(C(N)=O)c5N)C4)n3)ccc2CC1C(=O)NC1CCCc2ccccc21)C(C)(C)C

> <Shape>
0.255

> <Color>
0.067

> <Negative vol penalty>
0.000

$$$$

  -OEChem-04052318173D

 87 95  0     1  0  0  0  0  0999 V2000
  -17.9269  -33.0861   23.0968 C   0  0  0  0  0  0  0  0  0  0  0  0
  -19.0898  -33.1601   22.3367 C   0  0  0  0  0  0  0  0  0  0  0  0
  -24.6453  -13.8239   20.9634 C   0  0  0  0  0  0  0  0  0  0  0  0
  -26.5752  -13.3343   19.5950 C   0  0  0  0  0  0  0  0  0  0  0  0
  -17.8124  -32.1267   24.1020 C   0  0  0  0  0  0  0  0  0  0  0  0
  -20.1392  -32.2753   22.5821 C   0  0  0  0  0  0  0  0  0  0  0  0
  -25.3897  -28.7665   19.2002 C   0  0  0  0  0  0  0  0  0  0  0  0
  -24.5837  -12.4866   21.3550 C   0  0  0  0  0  0  0  0  0  0  0  0
  -26.5137  -11.9970   19.9866 C   0  0  0  0  0  0  0  0  0  0  0  0
  -26.7669  -28.5613   19.2699 C   0  0  0  0  0  0  0  0  0  0  0  0
  -23.4858   -9.5618   20.0647 C   0  0  0  0  0  0  0  0  0  0  0  0
  -22.2354   -8.9439   20.0633 C   0  0  0  0  0  0  0  0  0  0  0  0
  -29.8358  -24.7405   19.9911 C   0  0  0  0  0  0  0  0  0  0  0  0
  -26.4259  -26.8937   20.9793 C   0  0  0  0  0  0  0  0  0  0  0  0
  -22.4475   -8.5096   22.4305 C   0  0  0  0  0  0  0  0  0  0  0  0
  -29.6989  -23.3709   19.8925 C   0  0  0  0  0  0  0  0  0  0  0  0
  -25.6410  -14.2478   20.0834 C   0  0  0  0  0  0  0  0  0  0  0  0
  -26.4156  -16.6679   20.3083 C   0  0  0  0  0  0  0  0  0  0  0  0
  -18.8572  -31.2235   24.3534 C   0  0  0  0  0  0  0  0  0  0  0  0
  -24.5195  -28.0435   20.0287 C   0  0  0  0  0  0  0  0  0  0  0  0
  -20.0391  -31.3038   23.5925 C   0  0  0  0  0  0  0  0  0  0  0  0
  -25.0378  -27.0898   20.9164 C   0  0  0  0  0  0  0  0  0  0  0  0
  -25.5179  -11.5731   20.8667 C   0  0  0  0  0  0  0  0  0  0  0  0
  -27.2854  -27.6269   20.1616 C   0  0  0  0  0  0  0  0  0  0  0  0
  -24.2172   -9.6536   21.2489 C   0  0  0  0  0  0  0  0  0  0  0  0
  -21.7162   -8.4178   21.2462 C   0  0  0  0  0  0  0  0  0  0  0  0
  -23.6980   -9.1275   22.4318 C   0  0  0  0  0  0  0  0  0  0  0  0
  -25.7049  -15.6290   19.6780 C   0  0  0  0  0  0  0  0  0  0  0  0
  -29.1913  -25.4766   19.0179 C   0  0  0  0  0  0  0  0  0  0  0  0
  -26.1543  -17.7771   19.5416 C   0  0  0  0  0  0  0  0  0  0  0  0
  -28.4081  -23.5833   18.0335 C   0  0  0  0  0  0  0  0  0  0  0  0
  -27.2384  -16.6334   21.4820 C   0  0  0  0  0  0  0  0  0  0  0  0
  -22.4427  -28.8073   22.3106 C   0  0  0  0  0  0  0  0  0  0  0  0
  -21.7285  -25.6459   22.1780 C   0  0  0  0  0  0  0  0  0  0  0  0
  -22.7261  -22.4813   21.3801 C   0  0  0  0  0  0  0  0  0  0  0  0
  -25.6317  -20.2359   14.5590 C   0  0  0  0  0  0  0  0  0  0  0  0
  -18.7060  -30.2345   25.4821 C   0  0  0  0  0  0  0  0  0  0  0  0
  -23.0345  -28.2574   19.9224 C   0  0  0  0  0  0  0  0  0  0  0  0
  -24.1448  -26.2732   21.8132 C   0  0  0  0  0  0  0  0  0  0  0  0
  -19.7158  -29.0909   25.4292 C   0  0  0  0  0  0  0  0  0  0  0  0
  -22.7966  -18.4951   15.8271 C   0  0  0  0  0  0  0  0  0  0  0  0
  -21.1186  -29.6292   25.1660 C   0  0  0  0  0  0  0  0  0  0  0  0
  -23.3603  -17.6757   16.9894 C   0  0  0  0  0  0  0  0  0  0  0  0
  -23.7870  -18.5863   14.6683 C   0  0  0  0  0  0  0  0  0  0  0  0
  -25.6910  -18.2601   16.1988 C   0  0  0  0  0  0  0  0  0  0  0  0
  -21.1896  -30.3456   23.8121 C   0  0  1  0  0  0  0  0  0  0  0  0
  -22.2784  -27.8338   21.1779 C   0  0  1  0  0  0  0  0  0  0  0  0
  -24.7502  -18.1869   17.4136 C   0  0  2  0  0  0  0  0  0  0  0  0
  -26.3386  -23.7565   16.6031 C   0  0  0  0  0  0  0  0  0  0  0  0
  -21.9388  -20.0988   21.4193 C   0  0  0  0  0  0  0  0  0  0  0  0
  -30.7703  -29.0552   19.0794 C   0  0  0  0  0  0  0  0  0  0  0  0
  -31.4665  -27.0744   17.7240 C   0  0  0  0  0  0  0  0  0  0  0  0
  -22.2120  -25.5383   25.1888 C   0  0  0  0  0  0  0  0  0  0  0  0
  -22.3507  -23.0451   25.0070 C   0  0  0  0  0  0  0  0  0  0  0  0
  -20.2363  -24.2223   24.4018 C   0  0  0  0  0  0  0  0  0  0  0  0
  -29.0853  -23.7330   14.9458 C   0  0  0  0  0  0  0  0  0  0  0  0
  -29.5761  -21.5448   16.0371 C   0  0  0  0  0  0  0  0  0  0  0  0
  -22.9523  -22.2363   18.4394 C   0  0  0  0  0  0  0  0  0  0  0  0
  -27.5481  -21.8128   14.5771 C   0  0  0  0  0  0  0  0  0  0  0  0
  -29.2837  -26.9872   19.0419 C   0  0  2  0  0  0  0  0  0  1  0  0
  -27.6161  -22.9408   16.9458 C   0  0  1  0  0  0  0  0  0  0  0  0
  -22.2389  -24.4046   22.8692 C   0  0  1  0  0  0  0  0  0  0  0  0
  -22.0393  -21.3755   20.5990 C   0  0  2  0  0  0  0  0  0  0  0  0
  -30.7359  -27.5240   18.9939 C   0  0  0  0  0  0  0  0  0  0  0  0
  -21.7767  -24.3192   24.3513 C   0  0  0  0  0  0  0  0  0  0  0  0
  -28.4371  -22.5164   15.6430 C   0  0  0  0  0  0  0  0  0  0  0  0
  -28.9898  -22.7564   18.9230 N   0  0  0  0  0  0  0  0  0  0  0  0
  -25.0417  -16.0413   18.5944 N   0  0  0  0  0  0  0  0  0  0  0  0
  -28.4663  -24.9287   18.0207 N   0  0  0  0  0  0  0  0  0  0  0  0
  -25.3346  -17.3517   18.5379 N   0  0  0  0  0  0  0  0  0  0  0  0
  -22.7004  -26.5233   21.6767 N   0  0  0  0  0  0  0  0  0  0  0  0
  -25.0844  -19.0789   15.1375 N   0  0  0  0  0  0  0  0  0  0  0  0
  -26.5480  -19.0650   19.6347 N   0  0  0  0  0  0  0  0  0  0  0  0
  -27.4003  -15.4114   22.1488 N   0  0  0  0  0  0  0  0  0  0  0  0
  -21.2598  -29.3828   22.7339 N   0  0  0  0  0  0  0  0  0  0  0  0
  -21.8174  -23.2764   22.0459 N   0  0  0  0  0  0  0  0  0  0  0  0
  -26.8613  -20.6380   15.0660 N   0  0  0  0  0  0  0  0  0  0  0  0
  -22.7976  -21.0743   19.3519 N   0  3  0  0  0  0  0  0  0  0  0  0
  -27.7999  -17.6594   21.9355 O   0  0  0  0  0  0  0  0  0  0  0  0
  -23.5597  -29.0195   22.7677 O   0  0  0  0  0  0  0  0  0  0  0  0
  -20.5122  -25.8267   22.0800 O   0  0  0  0  0  0  0  0  0  0  0  0
  -23.9467  -22.6231   21.4006 O   0  0  0  0  0  0  0  0  0  0  0  0
  -25.0640  -20.8671   13.6610 O   0  0  0  0  0  0  0  0  0  0  0  0
  -25.4582  -10.2681   21.2487 O   0  0  0  0  0  0  0  0  0  0  0  0
  -28.6294  -27.4250   20.2321 O   0  0  0  0  0  0  0  0  0  1  0  0
  -20.5146   -7.8257   21.2451 F   0  0  0  0  0  0  0  0  0  0  0  0
  -24.3954   -9.2137   23.5729 F   0  0  0  0  0  0  0  0  0  0  0  0
  1  2  1  0  0  0  0
  1  5  2  0  0  0  0
  2  6  2  0  0  0  0
  3  8  2  0  0  0  0
  3 17  1  0  0  0  0
  4  9  1  0  0  0  0
  4 17  2  0  0  0  0
  5 19  1  0  0  0  0
  6 21  1  0  0  0  0
  7 10  2  0  0  0  0
  7 20  1  0  0  0  0
  8 23  1  0  0  0  0
  9 23  2  0  0  0  0
 10 24  1  0  0  0  0
 11 12  2  0  0  0  0
 11 25  1  0  0  0  0
 12 26  1  0  0  0  0
 13 16  2  0  0  0  0
 13 29  1  0  0  0  0
 14 22  1  0  0  0  0
 14 24  2  0  0  0  0
 15 26  2  0  0  0  0
 15 27  1  0  0  0  0
 16 67  1  0  0  0  0
 17 28  1  0  0  0  0
 18 28  1  0  0  0  0
 18 30  2  0  0  0  0
 18 32  1  0  0  0  0
 19 21  2  0  0  0  0
 19 37  1  0  0  0  0
 20 22  2  0  0  0  0
 20 38  1  0  0  0  0
 21 46  1  0  0  0  0
 22 39  1  0  0  0  0
 23 84  1  0  0  0  0
 24 85  1  0  0  0  0
 25 27  2  0  0  0  0
 25 84  1  0  0  0  0
 26 86  1  0  0  0  0
 27 87  1  0  0  0  0
 28 68  2  0  0  0  0
 29 60  1  0  0  0  0
 29 69  2  0  0  0  0
 30 70  1  0  0  0  0
 30 73  1  0  0  0  0
 31 61  1  0  0  0  0
 31 67  2  0  0  0  0
 31 69  1  0  0  0  0
 32 74  1  0  0  0  0
 32 79  2  0  0  0  0
 33 47  1  0  0  0  0
 33 75  1  0  0  0  0
 33 80  2  0  0  0  0
 34 62  1  0  0  0  0
 34 71  1  0  0  0  0
 34 81  2  0  0  0  0
 35 63  1  0  0  0  0
 35 76  1  0  0  0  0
 35 82  2  0  0  0  0
 36 72  1  0  0  0  0
 36 77  1  0  0  0  0
 36 83  2  0  0  0  0
 37 40  1  0  0  0  0
 38 47  1  0  0  0  0
 39 71  1  0  0  0  0
 40 42  1  0  0  0  0
 41 43  1  0  0  0  0
 41 44  1  0  0  0  0
 42 46  1  0  0  0  0
 43 48  1  0  0  0  0
 44 72  1  0  0  0  0
 45 48  1  0  0  0  0
 45 72  1  0  0  0  0
 46 75  1  0  0  0  0
 47 71  1  0  0  0  0
 48 70  1  0  0  0  0
 49 61  1  0  0  0  0
 50 63  1  0  0  0  0
 51 64  1  0  0  0  0
 52 64  1  0  0  0  0
 53 65  1  0  0  0  0
 54 65  1  0  0  0  0
 55 65  1  0  0  0  0
 56 66  1  0  0  0  0
 57 66  1  0  0  0  0
 58 78  1  0  0  0  0
 59 66  1  0  0  0  0
 59 77  1  0  0  0  0
 60 64  1  0  0  0  0
 60 85  1  0  0  0  0
 61 66  1  0  0  0  0
 62 65  1  0  0  0  0
 62 76  1  0  0  0  0
 63 78  1  0  0  0  0
 68 70  1  0  0  0  0
M  CHG  1  78   1
M  ISO  4  36 100  60 101  77 100  85 101
M  END
> <Batch ID>
0069

> <Smiles>
CNC(C)C(=O)NC(C(=O)N1Cc2cc([101O:1][101CH:1](c3ccnc(C(C)C(C)(C)C[100NH:0][100C:0](=O)N4CCCC(n5nc(-c6ccc(Oc7ccc(F)cc7F)cc6)c(C(N)=O)c5N)C4)n3)C(C)C)ccc2CC1C(=O)NC1CCCc2ccccc21)C(C)(C)C

> <Shape>
0.204

> <Color>
0.108

> <Negative vol penalty>
0.000

$$$$

  -OEChem-04052318173D

 95104  0     1  0  0  0  0  0999 V2000
  -17.4038  -12.4511   22.6832 C   0  0  0  0  0  0  0  0  0  0  0  0
  -17.9352  -13.6228   22.1539 C   0  0  0  0  0  0  0  0  0  0  0  0
  -26.5137  -28.6699   26.6966 C   0  0  0  0  0  0  0  0  0  0  0  0
  -28.4412  -28.9404   25.2653 C   0  0  0  0  0  0  0  0  0  0  0  0
  -18.2234  -11.5727   23.3906 C   0  0  0  0  0  0  0  0  0  0  0  0
  -19.2863  -13.9174   22.3327 C   0  0  0  0  0  0  0  0  0  0  0  0
  -22.9826  -16.7882   18.3828 C   0  0  0  0  0  0  0  0  0  0  0  0
  -27.2064  -27.9827   20.7726 C   0  0  0  0  0  0  0  0  0  0  0  0
  -25.1662  -26.9823   19.9515 C   0  0  0  0  0  0  0  0  0  0  0  0
  -26.9404  -29.1338   20.0312 C   0  0  0  0  0  0  0  0  0  0  0  0
  -24.9002  -28.1335   19.2102 C   0  0  0  0  0  0  0  0  0  0  0  0
  -27.1287  -27.5839   27.3196 C   0  0  0  0  0  0  0  0  0  0  0  0
  -29.0562  -27.8545   25.8883 C   0  0  0  0  0  0  0  0  0  0  0  0
  -23.4150  -18.1107   18.2944 C   0  0  0  0  0  0  0  0  0  0  0  0
  -28.8762  -24.4806   25.7629 C   0  0  0  0  0  0  0  0  0  0  0  0
  -29.4981  -23.5337   24.9492 C   0  0  0  0  0  0  0  0  0  0  0  0
  -25.4343  -17.5232   19.4761 C   0  0  0  0  0  0  0  0  0  0  0  0
  -31.6065  -23.9802   26.0411 C   0  0  0  0  0  0  0  0  0  0  0  0
  -27.4010  -23.5574   20.2524 C   0  0  0  0  0  0  0  0  0  0  0  0
  -27.1699  -29.3481   25.6695 C   0  0  0  0  0  0  0  0  0  0  0  0
  -26.6214  -31.8245   25.3974 C   0  0  0  0  0  0  0  0  0  0  0  0
  -19.5875  -11.8519   23.5699 C   0  0  0  0  0  0  0  0  0  0  0  0
  -23.7692  -15.8239   19.0292 C   0  0  0  0  0  0  0  0  0  0  0  0
  -20.1247  -13.0425   23.0444 C   0  0  0  0  0  0  0  0  0  0  0  0
  -25.0108  -16.1886   19.5692 C   0  0  0  0  0  0  0  0  0  0  0  0
  -26.3194  -26.9069   20.7327 C   0  0  0  0  0  0  0  0  0  0  0  0
  -25.7872  -29.2093   19.2501 C   0  0  0  0  0  0  0  0  0  0  0  0
  -28.3999  -27.1762   26.9154 C   0  0  0  0  0  0  0  0  0  0  0  0
  -24.6397  -18.4790   18.8436 C   0  0  0  0  0  0  0  0  0  0  0  0
  -29.6195  -25.1774   26.7156 C   0  0  0  0  0  0  0  0  0  0  0  0
  -30.8632  -23.2834   25.0883 C   0  0  0  0  0  0  0  0  0  0  0  0
  -30.9846  -24.9272   26.8547 C   0  0  0  0  0  0  0  0  0  0  0  0
  -26.5349  -30.4696   25.0252 C   0  0  0  0  0  0  0  0  0  0  0  0
  -27.5750  -24.7301   20.9317 C   0  0  0  0  0  0  0  0  0  0  0  0
  -25.8454  -32.4840   24.4757 C   0  0  0  0  0  0  0  0  0  0  0  0
  -29.5722  -23.9793   20.3417 C   0  0  0  0  0  0  0  0  0  0  0  0
  -27.3390  -32.4327   26.4795 C   0  0  0  0  0  0  0  0  0  0  0  0
  -23.3887  -13.9574   21.5739 C   0  0  0  0  0  0  0  0  0  0  0  0
  -26.2170  -12.7069   20.5945 C   0  0  0  0  0  0  0  0  0  0  0  0
  -24.1957  -31.0694   18.8731 C   0  0  0  0  0  0  0  0  0  0  0  0
  -29.1249  -13.1280   18.8585 C   0  0  0  0  0  0  0  0  0  0  0  0
  -20.4236  -10.8952   24.3825 C   0  0  0  0  0  0  0  0  0  0  0  0
  -23.3007  -14.3960   19.0928 C   0  0  0  0  0  0  0  0  0  0  0  0
  -25.9020  -15.1871   20.2557 C   0  0  0  0  0  0  0  0  0  0  0  0
  -21.9262  -11.0983   24.2060 C   0  0  0  0  0  0  0  0  0  0  0  0
  -22.0556  -31.8678   21.6339 C   0  0  0  0  0  0  0  0  0  0  0  0
  -22.2799  -12.5789   24.3038 C   0  0  0  0  0  0  0  0  0  0  0  0
  -22.9618  -31.6953   22.8522 C   0  0  0  0  0  0  0  0  0  0  0  0
  -22.3860  -30.8529   20.5440 C   0  0  0  0  0  0  0  0  0  0  0  0
  -24.7257  -30.6931   21.3325 C   0  0  0  0  0  0  0  0  0  0  0  0
  -21.5910  -13.3850   23.1960 C   0  0  1  0  0  0  0  0  0  0  0  0
  -23.9483  -13.6045   20.2248 C   0  0  1  0  0  0  0  0  0  0  0  0
  -24.4457  -31.7189   22.4451 C   0  0  2  0  0  0  0  0  0  0  0  0
  -31.2576  -11.9433   18.2709 C   0  0  0  0  0  0  0  0  0  0  0  0
  -25.4006  -30.1176   16.9440 C   0  0  0  0  0  0  0  0  0  0  0  0
  -26.5318  -31.6000   18.6043 C   0  0  0  0  0  0  0  0  0  0  0  0
  -31.4483  -23.8563   18.6651 C   0  0  0  0  0  0  0  0  0  0  0  0
  -31.6077  -22.5763   20.8267 C   0  0  0  0  0  0  0  0  0  0  0  0
  -31.8788  -25.0476   20.8046 C   0  0  0  0  0  0  0  0  0  0  0  0
  -27.2780  -13.2270   23.4077 C   0  0  0  0  0  0  0  0  0  0  0  0
  -29.5973  -12.9307   22.5124 C   0  0  0  0  0  0  0  0  0  0  0  0
  -27.9746  -11.0384   22.4181 C   0  0  0  0  0  0  0  0  0  0  0  0
  -28.3222  -23.0184   17.0006 C   0  0  0  0  0  0  0  0  0  0  0  0
  -28.9450  -20.6131   16.8923 C   0  0  0  0  0  0  0  0  0  0  0  0
  -28.5294  -13.2477   15.9619 C   0  0  0  0  0  0  0  0  0  0  0  0
  -26.6097  -25.6468   21.5437 C   0  0  0  0  0  0  0  0  0  0  0  0
  -26.7381  -21.2493   17.8910 C   0  0  0  0  0  0  0  0  0  0  0  0
  -28.9416  -21.8472   19.1276 C   0  0  0  0  0  0  0  0  0  0  0  0
  -26.4731  -19.9877   18.7083 C   0  0  0  0  0  0  0  0  0  1  0  0
  -27.6709  -13.0102   20.8651 C   0  0  1  0  0  0  0  0  0  0  0  0
  -29.8294  -12.2451   17.8443 C   0  0  2  0  0  0  0  0  0  0  0  0
  -25.5026  -30.4412   18.4590 C   0  0  0  0  0  0  0  0  0  0  0  0
  -31.0436  -23.8798   20.1745 C   0  0  0  0  0  0  0  0  0  0  0  0
  -28.1128  -12.5711   22.2896 C   0  0  0  0  0  0  0  0  0  0  0  0
  -28.2252  -21.6731   17.7541 C   0  0  0  0  0  0  0  0  0  0  0  0
  -25.7647  -30.2781   23.9509 N   0  0  0  0  0  0  0  0  0  0  0  0
  -28.6530  -23.1154   19.8988 N   0  0  0  0  0  0  0  0  0  0  0  0
  -25.3600  -31.5214   23.6402 N   0  0  0  0  0  0  0  0  0  0  0  0
  -28.9280  -24.9667   20.9722 N   0  3  0  0  0  0  0  0  0  0  0  0
  -25.3970  -13.8048   20.2978 N   0  0  0  0  0  0  0  0  0  0  0  0
  -23.8088  -30.8910   20.2014 N   0  0  0  0  0  0  0  0  0  0  0  0
  -25.5378  -33.7875   24.3065 N   0  0  0  0  0  0  0  0  0  0  0  0
  -28.0867  -31.6089   27.3319 N   0  0  0  0  0  0  0  0  0  0  0  0
  -22.2846  -13.2104   21.9379 N   0  0  0  0  0  0  0  0  0  0  0  0
  -28.4263  -12.3839   19.7855 N   0  0  0  0  0  0  0  0  0  0  0  0
  -29.8680  -12.9142   16.5132 N   0  3  0  0  0  0  0  0  0  0  0  0
  -27.3046  -33.6681   26.6942 O   0  0  0  0  0  0  0  0  0  0  0  0
  -23.9201  -14.8410   22.2361 O   0  0  0  0  0  0  0  0  0  0  0  0
  -25.8249  -11.5382   20.6376 O   0  0  0  0  0  0  0  0  0  0  0  0
  -23.5412  -31.7019   18.0401 O   0  0  0  0  0  0  0  0  0  0  0  0
  -29.1908  -14.3550   18.8331 O   0  0  0  0  0  0  0  0  0  0  0  0
  -29.0005  -26.1167   27.5232 O   0  0  0  0  0  0  0  0  0  0  0  0
  -25.0639  -19.7693   18.7592 O   0  0  0  0  0  0  0  0  0  1  0  0
  -31.4600  -22.3729   24.3079 F   0  0  0  0  0  0  0  0  0  0  0  0
  -31.7037  -25.5926   27.7691 F   0  0  0  0  0  0  0  0  0  0  0  0
  1  2  1  0  0  0  0
  1  5  2  0  0  0  0
  2  6  2  0  0  0  0
  3 12  2  0  0  0  0
  3 20  1  0  0  0  0
  4 13  1  0  0  0  0
  4 20  2  0  0  0  0
  5 22  1  0  0  0  0
  6 24  1  0  0  0  0
  7 14  2  0  0  0  0
  7 23  1  0  0  0  0
  8 10  2  0  0  0  0
  8 26  1  0  0  0  0
  9 11  1  0  0  0  0
  9 26  2  0  0  0  0
 10 27  1  0  0  0  0
 11 27  2  0  0  0  0
 12 28  1  0  0  0  0
 13 28  2  0  0  0  0
 14 29  1  0  0  0  0
 15 16  2  0  0  0  0
 15 30  1  0  0  0  0
 16 31  1  0  0  0  0
 17 25  1  0  0  0  0
 17 29  2  0  0  0  0
 18 31  2  0  0  0  0
 18 32  1  0  0  0  0
 19 34  2  0  0  0  0
 19 77  1  0  0  0  0
 20 33  1  0  0  0  0
 21 33  1  0  0  0  0
 21 35  2  0  0  0  0
 21 37  1  0  0  0  0
 22 24  2  0  0  0  0
 22 42  1  0  0  0  0
 23 25  2  0  0  0  0
 23 43  1  0  0  0  0
 24 51  1  0  0  0  0
 25 44  1  0  0  0  0
 26 66  1  0  0  0  0
 27 72  1  0  0  0  0
 28 92  1  0  0  0  0
 29 93  1  0  0  0  0
 30 32  2  0  0  0  0
 30 92  1  0  0  0  0
 31 94  1  0  0  0  0
 32 95  1  0  0  0  0
 33 76  2  0  0  0  0
 34 66  1  0  0  0  0
 34 79  1  0  0  0  0
 35 78  1  0  0  0  0
 35 82  1  0  0  0  0
 36 73  1  0  0  0  0
 36 77  1  0  0  0  0
 36 79  2  0  0  0  0
 37 83  1  0  0  0  0
 37 87  2  0  0  0  0
 38 52  1  0  0  0  0
 38 84  1  0  0  0  0
 38 88  2  0  0  0  0
 39 70  1  0  0  0  0
 39 80  1  0  0  0  0
 39 89  2  0  0  0  0
 40 72  1  0  0  0  0
 40 81  1  0  0  0  0
 40 90  2  0  0  0  0
 41 71  1  0  0  0  0
 41 85  1  0  0  0  0
 41 91  2  0  0  0  0
 42 45  1  0  0  0  0
 43 52  1  0  0  0  0
 44 80  1  0  0  0  0
 45 47  1  0  0  0  0
 46 48  1  0  0  0  0
 46 49  1  0  0  0  0
 47 51  1  0  0  0  0
 48 53  1  0  0  0  0
 49 81  1  0  0  0  0
 50 53  1  0  0  0  0
 50 81  1  0  0  0  0
 51 84  1  0  0  0  0
 52 80  1  0  0  0  0
 53 78  1  0  0  0  0
 54 71  1  0  0  0  0
 55 72  1  0  0  0  0
 56 72  1  0  0  0  0
 57 73  1  0  0  0  0
 58 73  1  0  0  0  0
 59 73  1  0  0  0  0
 60 74  1  0  0  0  0
 61 74  1  0  0  0  0
 62 74  1  0  0  0  0
 63 75  1  0  0  0  0
 64 75  1  0  0  0  0
 65 86  1  0  0  0  0
 67 69  1  0  0  0  0
 67 75  1  0  0  0  0
 68 75  1  0  0  0  0
 68 77  1  0  0  0  0
 69 93  1  0  0  0  0
 70 74  1  0  0  0  0
 70 85  1  0  0  0  0
 71 86  1  0  0  0  0
 76 78  1  0  0  0  0
M  CHG  2  79   1  86   1
M  ISO  4  40 100  69 101  72 100  93 101
M  END
> <Batch ID>
0069

> <Smiles>
CNC(C)C(=O)NC(C(=O)N1Cc2cc([101O:1][101CH2:1]CC(C)(C)Cn3cc(Cc4ccc([100C:0](C)(C)[100C:0](=O)N5CCCC(n6nc(-c7ccc(Oc8ccc(F)cc8F)cc7)c(C(N)=O)c6N)C5)cc4)nc3C(C)(C)C)ccc2CC1C(=O)NC1CCCc2ccccc21)C(C)(C)C

> <Shape>
0.245

> <Color>
0.068

> <Negative vol penalty>
0.000

$$$$

  -OEChem-04052318173D

 87 95  0     1  0  0  0  0  0999 V2000
  -31.2640  -11.9479   19.6711 C   0  0  0  0  0  0  0  0  0  0  0  0
  -30.7872  -13.0347   18.9452 C   0  0  0  0  0  0  0  0  0  0  0  0
  -25.6493  -30.7746   19.9807 C   0  0  0  0  0  0  0  0  0  0  0  0
  -25.5257  -29.2334   21.8371 C   0  0  0  0  0  0  0  0  0  0  0  0
  -30.3850  -10.9478   20.0848 C   0  0  0  0  0  0  0  0  0  0  0  0
  -29.4312  -13.1214   18.6316 C   0  0  0  0  0  0  0  0  0  0  0  0
  -27.5456  -17.7535   19.4274 C   0  0  0  0  0  0  0  0  0  0  0  0
  -24.2751  -30.9954   20.0725 C   0  0  0  0  0  0  0  0  0  0  0  0
  -24.1515  -29.4542   21.9290 C   0  0  0  0  0  0  0  0  0  0  0  0
  -27.8223  -18.7270   18.4684 C   0  0  0  0  0  0  0  0  0  0  0  0
  -21.3531  -28.4446   20.3225 C   0  0  0  0  0  0  0  0  0  0  0  0
  -20.5269  -27.3316   20.4786 C   0  0  0  0  0  0  0  0  0  0  0  0
  -25.6307  -18.4015   17.5144 C   0  0  0  0  0  0  0  0  0  0  0  0
  -19.7244  -28.2216   22.5764 C   0  0  0  0  0  0  0  0  0  0  0  0
  -28.3657  -24.0161   21.4946 C   0  0  0  0  0  0  0  0  0  0  0  0
  -26.2746  -29.8935   20.8630 C   0  0  0  0  0  0  0  0  0  0  0  0
  -28.7155  -30.3752   21.4265 C   0  0  0  0  0  0  0  0  0  0  0  0
  -29.0161  -11.0271   19.7844 C   0  0  0  0  0  0  0  0  0  0  0  0
  -26.3114  -17.0879   19.4304 C   0  0  0  0  0  0  0  0  0  0  0  0
  -28.5334  -12.1207   19.0405 C   0  0  0  0  0  0  0  0  0  0  0  0
  -25.3398  -17.4218   18.4760 C   0  0  0  0  0  0  0  0  0  0  0  0
  -23.5262  -30.3353   21.0466 C   0  0  0  0  0  0  0  0  0  0  0  0
  -26.8658  -19.0491   17.5100 C   0  0  0  0  0  0  0  0  0  0  0  0
  -21.3650  -29.4460   21.2934 C   0  0  0  0  0  0  0  0  0  0  0  0
  -19.7125  -27.2202   21.6055 C   0  0  0  0  0  0  0  0  0  0  0  0
  -20.5506  -29.3346   22.4203 C   0  0  0  0  0  0  0  0  0  0  0  0
  -27.6940  -29.6646   20.7683 C   0  0  0  0  0  0  0  0  0  0  0  0
  -29.0289  -23.7835   20.3099 C   0  0  0  0  0  0  0  0  0  0  0  0
  -26.3625  -23.7291   20.4296 C   0  0  0  0  0  0  0  0  0  0  0  0
  -27.0256  -23.4972   19.2446 C   0  0  0  0  0  0  0  0  0  0  0  0
  -29.8772  -29.7748   21.0064 C   0  0  0  0  0  0  0  0  0  0  0  0
  -28.6226  -31.4794   22.3364 C   0  0  0  0  0  0  0  0  0  0  0  0
  -25.3919  -14.0656   19.0775 C   0  0  0  0  0  0  0  0  0  0  0  0
  -22.4752  -15.2744   19.8219 C   0  0  0  0  0  0  0  0  0  0  0  0
  -31.0108  -24.2604   18.9045 C   0  0  0  0  0  0  0  0  0  0  0  0
  -20.4003  -17.9821   19.9199 C   0  0  0  0  0  0  0  0  0  0  0  0
  -28.1123   -9.8980   20.2122 C   0  0  0  0  0  0  0  0  0  0  0  0
  -26.0184  -16.0592   20.4879 C   0  0  0  0  0  0  0  0  0  0  0  0
  -23.9917  -16.7508   18.4486 C   0  0  0  0  0  0  0  0  0  0  0  0
  -26.6285  -10.2529   20.1617 C   0  0  0  0  0  0  0  0  0  0  0  0
  -31.7442  -27.3868   17.3146 C   0  0  0  0  0  0  0  0  0  0  0  0
  -26.2902  -10.9476   18.8466 C   0  0  0  0  0  0  0  0  0  0  0  0
  -30.8603  -28.3851   18.0610 C   0  0  0  0  0  0  0  0  0  0  0  0
  -31.0611  -26.0296   17.1778 C   0  0  0  0  0  0  0  0  0  0  0  0
  -29.7324  -26.4362   19.2249 C   0  0  0  0  0  0  0  0  0  0  0  0
  -27.0653  -12.2629   18.7021 C   0  0  1  0  0  0  0  0  0  0  0  0
  -24.9215  -15.0799   20.0813 C   0  0  1  0  0  0  0  0  0  0  0  0
  -30.3974  -27.8114   19.4119 C   0  0  2  0  0  0  0  0  0  0  0  0
  -24.8741  -23.7010   20.5057 C   0  0  0  0  0  0  0  0  0  0  0  0
  -18.0636  -18.6517   20.5435 C   0  0  0  0  0  0  0  0  0  0  0  0
  -27.7573  -24.3191   16.2516 C   0  0  0  0  0  0  0  0  0  0  0  0
  -31.1155  -22.4081   20.5272 C   0  0  0  0  0  0  0  0  0  0  0  0
  -31.2163  -24.7975   21.2447 C   0  0  0  0  0  0  0  0  0  0  0  0
  -21.4247  -13.9786   17.2671 C   0  0  0  0  0  0  0  0  0  0  0  0
  -19.3977  -15.4374   17.4435 C   0  0  0  0  0  0  0  0  0  0  0  0
  -19.9004  -13.7811   19.2398 C   0  0  0  0  0  0  0  0  0  0  0  0
  -25.2371  -22.8777   15.0311 C   0  0  0  0  0  0  0  0  0  0  0  0
  -27.4637  -21.9289   14.4065 C   0  0  0  0  0  0  0  0  0  0  0  0
  -21.3684  -19.8862   21.9684 C   0  0  0  0  0  0  0  0  0  0  0  0
  -26.2745  -23.2032   17.9651 C   0  0  0  0  0  0  0  0  0  0  0  0
  -26.0270  -20.7486   16.0733 C   0  0  0  0  0  0  0  0  0  1  0  0
  -21.3272  -15.8582   19.0344 C   0  0  1  0  0  0  0  0  0  0  0  0
  -19.5029  -18.5243   21.0177 C   0  0  2  0  0  0  0  0  0  0  0  0
  -27.1900  -22.9687   16.7324 C   0  0  1  0  0  0  0  0  0  0  0  0
  -30.5162  -23.8160   20.2580 C   0  0  0  0  0  0  0  0  0  0  0  0
  -20.5385  -14.7753   18.2453 C   0  0  0  0  0  0  0  0  0  0  0  0
  -26.4797  -22.1497   15.5810 C   0  0  0  0  0  0  0  0  0  0  0  0
  -27.0205  -23.9930   21.5757 N   0  0  0  0  0  0  0  0  0  0  0  0
  -28.1653  -28.6875   19.9891 N   0  0  0  0  0  0  0  0  0  0  0  0
  -28.3708  -23.5199   19.1636 N   0  0  0  0  0  0  0  0  0  0  0  0
  -29.4957  -28.7799   20.1550 N   0  0  0  0  0  0  0  0  0  0  0  0
  -23.7552  -15.7473   19.4995 N   0  0  0  0  0  0  0  0  0  0  0  0
  -30.6164  -25.5292   18.4797 N   0  0  0  0  0  0  0  0  0  0  0  0
  -31.1775  -30.0060   21.2859 N   0  0  0  0  0  0  0  0  0  0  0  0
  -27.3515  -31.9729   22.6606 N   0  0  0  0  0  0  0  0  0  0  0  0
  -26.4574  -13.2990   19.5093 N   0  0  0  0  0  0  0  0  0  0  0  0
  -20.5186  -16.6101   19.9880 N   0  0  0  0  0  0  0  0  0  0  0  0
  -19.9743  -19.8686   21.4555 N   0  3  0  0  0  0  0  0  0  0  0  0
  -29.6376  -32.0231   22.8341 O   0  0  0  0  0  0  0  0  0  0  0  0
  -24.8289  -13.9836   17.9922 O   0  0  0  0  0  0  0  0  0  0  0  0
  -22.2441  -14.4352   20.6959 O   0  0  0  0  0  0  0  0  0  0  0  0
  -31.7286  -23.5022   18.2471 O   0  0  0  0  0  0  0  0  0  0  0  0
  -20.9392  -18.7033   19.0832 O   0  0  0  0  0  0  0  0  0  0  0  0
  -22.1853  -30.5507   21.1367 O   0  0  0  0  0  0  0  0  0  0  0  0
  -27.1336  -19.9984   16.5725 O   0  0  0  0  0  0  0  0  0  1  0  0
  -18.9180  -26.1521   21.7545 F   0  0  0  0  0  0  0  0  0  0  0  0
  -20.5569  -30.2940   23.3559 F   0  0  0  0  0  0  0  0  0  0  0  0
  1  2  1  0  0  0  0
  1  5  2  0  0  0  0
  2  6  2  0  0  0  0
  3  8  2  0  0  0  0
  3 16  1  0  0  0  0
  4  9  1  0  0  0  0
  4 16  2  0  0  0  0
  5 18  1  0  0  0  0
  6 20  1  0  0  0  0
  7 10  2  0  0  0  0
  7 19  1  0  0  0  0
  8 22  1  0  0  0  0
  9 22  2  0  0  0  0
 10 23  1  0  0  0  0
 11 12  2  0  0  0  0
 11 24  1  0  0  0  0
 12 25  1  0  0  0  0
 13 21  1  0  0  0  0
 13 23  2  0  0  0  0
 14 25  2  0  0  0  0
 14 26  1  0  0  0  0
 15 28  1  0  0  0  0
 15 68  2  0  0  0  0
 16 27  1  0  0  0  0
 17 27  1  0  0  0  0
 17 31  2  0  0  0  0
 17 32  1  0  0  0  0
 18 20  2  0  0  0  0
 18 37  1  0  0  0  0
 19 21  2  0  0  0  0
 19 38  1  0  0  0  0
 20 46  1  0  0  0  0
 21 39  1  0  0  0  0
 22 84  1  0  0  0  0
 23 85  1  0  0  0  0
 24 26  2  0  0  0  0
 24 84  1  0  0  0  0
 25 86  1  0  0  0  0
 26 87  1  0  0  0  0
 27 69  2  0  0  0  0
 28 65  1  0  0  0  0
 28 70  2  0  0  0  0
 29 30  2  0  0  0  0
 29 49  1  0  0  0  0
 29 68  1  0  0  0  0
 30 60  1  0  0  0  0
 30 70  1  0  0  0  0
 31 71  1  0  0  0  0
 31 74  1  0  0  0  0
 32 75  1  0  0  0  0
 32 79  2  0  0  0  0
 33 47  1  0  0  0  0
 33 76  1  0  0  0  0
 33 80  2  0  0  0  0
 34 62  1  0  0  0  0
 34 72  1  0  0  0  0
 34 81  2  0  0  0  0
 35 65  1  0  0  0  0
 35 73  1  0  0  0  0
 35 82  2  0  0  0  0
 36 63  1  0  0  0  0
 36 77  1  0  0  0  0
 36 83  2  0  0  0  0
 37 40  1  0  0  0  0
 38 47  1  0  0  0  0
 39 72  1  0  0  0  0
 40 42  1  0  0  0  0
 41 43  1  0  0  0  0
 41 44  1  0  0  0  0
 42 46  1  0  0  0  0
 43 48  1  0  0  0  0
 44 73  1  0  0  0  0
 45 48  1  0  0  0  0
 45 73  1  0  0  0  0
 46 76  1  0  0  0  0
 47 72  1  0  0  0  0
 48 71  1  0  0  0  0
 50 63  1  0  0  0  0
 51 64  1  0  0  0  0
 52 65  1  0  0  0  0
 53 65  1  0  0  0  0
 54 66  1  0  0  0  0
 55 66  1  0  0  0  0
 56 66  1  0  0  0  0
 57 67  1  0  0  0  0
 58 67  1  0  0  0  0
 59 78  1  0  0  0  0
 60 64  1  0  0  0  0
 61 67  1  0  0  0  0
 61 85  1  0  0  0  0
 62 66  1  0  0  0  0
 62 77  1  0  0  0  0
 63 78  1  0  0  0  0
 64 67  1  0  0  0  0
 69 71  1  0  0  0  0
M  CHG  1  78   1
M  ISO  4  35 100  61 101  65 100  85 101
M  END
> <Batch ID>
0069

> <Smiles>
CNC(C)C(=O)NC(C(=O)N1Cc2cc([101O:1][101CH2:1]C(C)(C)C(C)Cc3nc([100C:0](C)(C)[100C:0](=O)N4CCCC(n5nc(-c6ccc(Oc7ccc(F)cc7F)cc6)c(C(N)=O)c5N)C4)cnc3C)ccc2CC1C(=O)NC1CCCc2ccccc21)C(C)(C)C

> <Shape>
0.224

> <Color>
0.050

> <Negative vol penalty>
0.000

$$$$

  -OEChem-04052318173D

 85 93  0     1  0  0  0  0  0999 V2000
  -16.1039  -26.9275   25.8607 C   0  0  0  0  0  0  0  0  0  0  0  0
  -17.2896  -26.2209   25.6871 C   0  0  0  0  0  0  0  0  0  0  0  0
  -30.5117  -18.3404   21.4896 C   0  0  0  0  0  0  0  0  0  0  0  0
  -28.7742  -18.1491   19.8218 C   0  0  0  0  0  0  0  0  0  0  0  0
  -15.9148  -28.1421   25.2027 C   0  0  0  0  0  0  0  0  0  0  0  0
  -18.2866  -26.7280   24.8545 C   0  0  0  0  0  0  0  0  0  0  0  0
  -22.8997  -26.3838   26.9150 C   0  0  0  0  0  0  0  0  0  0  0  0
  -30.2972  -17.0143   21.8652 C   0  0  0  0  0  0  0  0  0  0  0  0
  -28.5597  -16.8230   20.1974 C   0  0  0  0  0  0  0  0  0  0  0  0
  -23.5192  -25.1352   26.8843 C   0  0  0  0  0  0  0  0  0  0  0  0
  -30.0165  -13.8197   19.6697 C   0  0  0  0  0  0  0  0  0  0  0  0
  -29.8817  -12.8736   18.6537 C   0  0  0  0  0  0  0  0  0  0  0  0
  -24.8258  -25.8370   24.9818 C   0  0  0  0  0  0  0  0  0  0  0  0
  -27.6671  -12.3310   19.4528 C   0  0  0  0  0  0  0  0  0  0  0  0
  -24.0078  -21.1319   20.9898 C   0  0  0  0  0  0  0  0  0  0  0  0
  -24.7377  -22.4888   19.3000 C   0  0  0  0  0  0  0  0  0  0  0  0
  -29.7501  -18.9078   20.4679 C   0  0  0  0  0  0  0  0  0  0  0  0
  -30.8616  -20.7500   19.0974 C   0  0  0  0  0  0  0  0  0  0  0  0
  -16.9139  -28.6691   24.3692 C   0  0  0  0  0  0  0  0  0  0  0  0
  -23.2313  -27.3663   25.9710 C   0  0  0  0  0  0  0  0  0  0  0  0
  -18.1102  -27.9502   24.1837 C   0  0  0  0  0  0  0  0  0  0  0  0
  -24.2109  -27.0981   25.0042 C   0  0  0  0  0  0  0  0  0  0  0  0
  -29.3212  -16.2556   21.2191 C   0  0  0  0  0  0  0  0  0  0  0  0
  -24.4804  -24.8606   25.9158 C   0  0  0  0  0  0  0  0  0  0  0  0
  -28.9767  -14.0213   20.5774 C   0  0  0  0  0  0  0  0  0  0  0  0
  -28.7070  -12.1293   18.5452 C   0  0  0  0  0  0  0  0  0  0  0  0
  -27.8020  -13.2770   20.4689 C   0  0  0  0  0  0  0  0  0  0  0  0
  -29.9708  -20.2778   20.0799 C   0  0  0  0  0  0  0  0  0  0  0  0
  -24.1430  -22.1716   21.8832 C   0  0  0  0  0  0  0  0  0  0  0  0
  -24.8722  -23.5289   20.1932 C   0  0  0  0  0  0  0  0  0  0  0  0
  -30.6969  -22.1135   19.1114 C   0  0  0  0  0  0  0  0  0  0  0  0
  -31.7578  -20.0214   18.2479 C   0  0  0  0  0  0  0  0  0  0  0  0
  -21.6420  -28.9226   23.7004 C   0  0  0  0  0  0  0  0  0  0  0  0
  -24.4172  -30.5815   23.4384 C   0  0  0  0  0  0  0  0  0  0  0  0
  -26.1005  -25.5823   20.8299 C   0  0  0  0  0  0  0  0  0  0  0  0
  -27.7956  -30.6700   23.9133 C   0  0  0  0  0  0  0  0  0  0  0  0
  -16.6447  -29.9626   23.6418 C   0  0  0  0  0  0  0  0  0  0  0  0
  -22.5732  -28.7173   26.0342 C   0  0  0  0  0  0  0  0  0  0  0  0
  -24.6173  -28.1257   23.9808 C   0  0  0  0  0  0  0  0  0  0  0  0
  -17.9022  -30.6138   23.0717 C   0  0  0  0  0  0  0  0  0  0  0  0
  -29.4836  -25.7168   22.0032 C   0  0  0  0  0  0  0  0  0  0  0  0
  -18.7576  -29.5793   22.3472 C   0  0  0  0  0  0  0  0  0  0  0  0
  -30.0646  -24.3687   21.5787 C   0  0  0  0  0  0  0  0  0  0  0  0
  -28.0146  -25.5932   22.3953 C   0  0  0  0  0  0  0  0  0  0  0  0
  -27.7324  -23.6325   20.9128 C   0  0  0  0  0  0  0  0  0  0  0  0
  -19.2252  -28.4796   23.3082 C   0  0  1  0  0  0  0  0  0  0  0  0
  -22.6174  -29.4662   24.7057 C   0  0  1  0  0  0  0  0  0  0  0  0
  -29.2065  -23.7185   20.4791 C   0  0  2  0  0  0  0  0  0  0  0  0
  -29.7956  -32.1455   23.5666 C   0  0  0  0  0  0  0  0  0  0  0  0
  -24.1680  -25.7692   19.3115 C   0  0  0  0  0  0  0  0  0  0  0  0
  -26.3621  -24.8549   18.5474 C   0  0  0  0  0  0  0  0  0  0  0  0
  -24.3857  -29.9201   20.4599 C   0  0  0  0  0  0  0  0  0  0  0  0
  -26.8019  -30.5686   20.3614 C   0  0  0  0  0  0  0  0  0  0  0  0
  -25.0835  -32.2598   21.0016 C   0  0  0  0  0  0  0  0  0  0  0  0
  -26.0559  -20.6963   26.3225 C   0  0  0  0  0  0  0  0  0  0  0  0
  -23.6517  -20.1791   25.8326 C   0  0  0  0  0  0  0  0  0  0  0  0
  -28.3763  -30.7610   26.8139 C   0  0  0  0  0  0  0  0  0  0  0  0
  -23.8030  -21.9787   23.3415 C   0  0  0  0  0  0  0  0  0  0  0  0
  -25.0249  -21.5082   24.1428 C   0  0  0  0  0  0  0  0  0  0  0  0
  -24.3270  -22.5270   26.3477 C   0  0  0  0  0  0  0  0  0  1  0  0
  -25.6846  -30.4246   22.6334 C   0  0  1  0  0  0  0  0  0  0  0  0
  -28.6987  -31.7222   24.5311 C   0  0  2  0  0  0  0  0  0  0  0  0
  -25.3547  -24.8608   19.7357 C   0  0  0  0  0  0  0  0  0  0  0  0
  -25.4801  -30.7730   21.1320 C   0  0  0  0  0  0  0  0  0  0  0  0
  -24.7723  -21.2180   25.6500 C   0  0  0  0  0  0  0  0  0  0  0  0
  -24.3028  -21.2718   19.6822 N   0  0  0  0  0  0  0  0  0  0  0  0
  -29.2907  -21.2613   20.6749 N   0  0  0  0  0  0  0  0  0  0  0  0
  -24.5776  -23.3888   21.5009 N   0  0  0  0  0  0  0  0  0  0  0  0
  -29.7544  -22.3653   20.0646 N   0  0  0  0  0  0  0  0  0  0  0  0
  -23.9407  -29.4294   24.0799 N   0  0  0  0  0  0  0  0  0  0  0  0
  -27.2375  -24.9506   21.3340 N   0  0  0  0  0  0  0  0  0  0  0  0
  -31.2677  -23.1097   18.4014 N   0  0  0  0  0  0  0  0  0  0  0  0
  -31.8014  -18.6253   18.3637 N   0  0  0  0  0  0  0  0  0  0  0  0
  -20.3258  -28.9524   24.1202 N   0  0  0  0  0  0  0  0  0  0  0  0
  -26.6962  -31.2353   23.3026 N   0  0  0  0  0  0  0  0  0  0  0  0
  -29.3392  -31.1932   25.7684 N   0  3  0  0  0  0  0  0  0  0  0  0
  -32.5100  -20.5927   17.4225 O   0  0  0  0  0  0  0  0  0  0  0  0
  -22.0529  -28.5081   22.6228 O   0  0  0  0  0  0  0  0  0  0  0  0
  -23.8740  -31.6872   23.5017 O   0  0  0  0  0  0  0  0  0  0  0  0
  -25.6851  -26.6761   21.2215 O   0  0  0  0  0  0  0  0  0  0  0  0
  -28.0427  -29.4671   23.9640 O   0  0  0  0  0  0  0  0  0  0  0  0
  -29.1118  -14.9615   21.5852 O   0  0  0  0  0  0  0  0  0  0  0  0
  -25.0861  -23.6425   25.8832 O   0  0  0  0  0  0  0  0  0  1  0  0
  -28.5770  -11.2220   17.5684 F   0  0  0  0  0  0  0  0  0  0  0  0
  -26.7992  -13.4671   21.3372 F   0  0  0  0  0  0  0  0  0  0  0  0
  1  2  1  0  0  0  0
  1  5  2  0  0  0  0
  2  6  2  0  0  0  0
  3  8  2  0  0  0  0
  3 17  1  0  0  0  0
  4  9  1  0  0  0  0
  4 17  2  0  0  0  0
  5 19  1  0  0  0  0
  6 21  1  0  0  0  0
  7 10  2  0  0  0  0
  7 20  1  0  0  0  0
  8 23  1  0  0  0  0
  9 23  2  0  0  0  0
 10 24  1  0  0  0  0
 11 12  2  0  0  0  0
 11 25  1  0  0  0  0
 12 26  1  0  0  0  0
 13 22  1  0  0  0  0
 13 24  2  0  0  0  0
 14 26  2  0  0  0  0
 14 27  1  0  0  0  0
 15 29  1  0  0  0  0
 15 66  2  0  0  0  0
 16 30  2  0  0  0  0
 16 66  1  0  0  0  0
 17 28  1  0  0  0  0
 18 28  1  0  0  0  0
 18 31  2  0  0  0  0
 18 32  1  0  0  0  0
 19 21  2  0  0  0  0
 19 37  1  0  0  0  0
 20 22  2  0  0  0  0
 20 38  1  0  0  0  0
 21 46  1  0  0  0  0
 22 39  1  0  0  0  0
 23 82  1  0  0  0  0
 24 83  1  0  0  0  0
 25 27  2  0  0  0  0
 25 82  1  0  0  0  0
 26 84  1  0  0  0  0
 27 85  1  0  0  0  0
 28 67  2  0  0  0  0
 29 58  1  0  0  0  0
 29 68  2  0  0  0  0
 30 63  1  0  0  0  0
 30 68  1  0  0  0  0
 31 69  1  0  0  0  0
 31 72  1  0  0  0  0
 32 73  1  0  0  0  0
 32 77  2  0  0  0  0
 33 47  1  0  0  0  0
 33 74  1  0  0  0  0
 33 78  2  0  0  0  0
 34 61  1  0  0  0  0
 34 70  1  0  0  0  0
 34 79  2  0  0  0  0
 35 63  1  0  0  0  0
 35 71  1  0  0  0  0
 35 80  2  0  0  0  0
 36 62  1  0  0  0  0
 36 75  1  0  0  0  0
 36 81  2  0  0  0  0
 37 40  1  0  0  0  0
 38 47  1  0  0  0  0
 39 70  1  0  0  0  0
 40 42  1  0  0  0  0
 41 43  1  0  0  0  0
 41 44  1  0  0  0  0
 42 46  1  0  0  0  0
 43 48  1  0  0  0  0
 44 71  1  0  0  0  0
 45 48  1  0  0  0  0
 45 71  1  0  0  0  0
 46 74  1  0  0  0  0
 47 70  1  0  0  0  0
 48 69  1  0  0  0  0
 49 62  1  0  0  0  0
 50 63  1  0  0  0  0
 51 63  1  0  0  0  0
 52 64  1  0  0  0  0
 53 64  1  0  0  0  0
 54 64  1  0  0  0  0
 55 65  1  0  0  0  0
 56 65  1  0  0  0  0
 57 76  1  0  0  0  0
 58 59  1  0  0  0  0
 59 65  1  0  0  0  0
 60 65  1  0  0  0  0
 60 83  1  0  0  0  0
 61 64  1  0  0  0  0
 61 75  1  0  0  0  0
 62 76  1  0  0  0  0
 67 69  1  0  0  0  0
M  CHG  1  76   1
M  ISO  4  35 100  60 101  63 100  83 101
M  END
> <Batch ID>
0069

> <Smiles>
CNC(C)C(=O)NC(C(=O)N1Cc2cc([101O:1][101CH2:1]C(C)(C)CCc3cncc([100C:0](C)(C)[100C:0](=O)N4CCCC(n5nc(-c6ccc(Oc7ccc(F)cc7F)cc6)c(C(N)=O)c5N)C4)n3)ccc2CC1C(=O)NC1CCCc2ccccc21)C(C)(C)C

> <Shape>
0.238

> <Color>
0.054

> <Negative vol penalty>
0.000

$$$$

  -OEChem-04052318173D

 88 96  0     1  0  0  0  0  0999 V2000
  -18.8093  -22.0415   22.0756 C   0  0  0  0  0  0  0  0  0  0  0  0
  -20.1519  -21.7845   22.3343 C   0  0  0  0  0  0  0  0  0  0  0  0
  -25.2423  -13.4274   21.6006 C   0  0  0  0  0  0  0  0  0  0  0  0
  -26.2389  -13.3745   19.4004 C   0  0  0  0  0  0  0  0  0  0  0  0
  -18.4358  -23.2324   21.4543 C   0  0  0  0  0  0  0  0  0  0  0  0
  -21.1218  -22.7181   21.9709 C   0  0  0  0  0  0  0  0  0  0  0  0
  -26.3139  -23.9862   24.9609 C   0  0  0  0  0  0  0  0  0  0  0  0
  -24.3718  -12.4021   21.2310 C   0  0  0  0  0  0  0  0  0  0  0  0
  -25.3684  -12.3492   19.0307 C   0  0  0  0  0  0  0  0  0  0  0  0
  -27.6310  -23.5701   24.7714 C   0  0  0  0  0  0  0  0  0  0  0  0
  -24.4901   -9.0419   20.8733 C   0  0  0  0  0  0  0  0  0  0  0  0
  -24.3065   -7.9917   21.7727 C   0  0  0  0  0  0  0  0  0  0  0  0
  -28.0784  -25.5792   23.5134 C   0  0  0  0  0  0  0  0  0  0  0  0
  -31.1367  -22.6752   18.9648 C   0  0  0  0  0  0  0  0  0  0  0  0
  -29.7801  -24.0559   17.5373 C   0  0  0  0  0  0  0  0  0  0  0  0
  -21.9468   -8.4984   21.8828 C   0  0  0  0  0  0  0  0  0  0  0  0
  -26.1758  -13.9137   20.6853 C   0  0  0  0  0  0  0  0  0  0  0  0
  -28.3502  -14.8382   21.6470 C   0  0  0  0  0  0  0  0  0  0  0  0
  -19.4008  -24.1853   21.0918 C   0  0  0  0  0  0  0  0  0  0  0  0
  -25.8655  -25.1988   24.4178 C   0  0  0  0  0  0  0  0  0  0  0  0
  -20.7610  -23.9223   21.3430 C   0  0  0  0  0  0  0  0  0  0  0  0
  -26.7559  -26.0096   23.6996 C   0  0  0  0  0  0  0  0  0  0  0  0
  -30.3312  -22.8158   17.8403 C   0  0  0  0  0  0  0  0  0  0  0  0
  -24.4349  -11.8630   19.9461 C   0  0  0  0  0  0  0  0  0  0  0  0
  -28.5127  -24.3652   24.0451 C   0  0  0  0  0  0  0  0  0  0  0  0
  -23.4021   -9.8205   20.4787 C   0  0  0  0  0  0  0  0  0  0  0  0
  -23.0349   -7.7199   22.2774 C   0  0  0  0  0  0  0  0  0  0  0  0
  -22.1304   -9.5487   20.9834 C   0  0  0  0  0  0  0  0  0  0  0  0
  -27.0749  -14.9732   21.0663 C   0  0  0  0  0  0  0  0  0  0  0  0
  -31.3587  -23.7966   19.7478 C   0  0  0  0  0  0  0  0  0  0  0  0
  -30.0627  -25.1154   18.3843 C   0  0  0  0  0  0  0  0  0  0  0  0
  -28.7897  -16.1287   21.8141 C   0  0  0  0  0  0  0  0  0  0  0  0
  -29.0730  -13.6524   22.0034 C   0  0  0  0  0  0  0  0  0  0  0  0
  -23.6498  -26.0215   22.2924 C   0  0  0  0  0  0  0  0  0  0  0  0
  -24.4677  -29.0309   23.1853 C   0  0  0  0  0  0  0  0  0  0  0  0
  -26.8137  -31.1209   24.5176 C   0  0  0  0  0  0  0  0  0  0  0  0
  -27.4642  -21.2766   19.0585 C   0  0  0  0  0  0  0  0  0  0  0  0
  -18.9532  -25.4372   20.3797 C   0  0  0  0  0  0  0  0  0  0  0  0
  -24.4490  -25.6461   24.6539 C   0  0  0  0  0  0  0  0  0  0  0  0
  -26.3295  -27.3298   23.1132 C   0  0  0  0  0  0  0  0  0  0  0  0
  -20.0086  -26.5400   20.3650 C   0  0  0  0  0  0  0  0  0  0  0  0
  -27.1695  -20.5722   22.5361 C   0  0  0  0  0  0  0  0  0  0  0  0
  -21.3690  -25.9718   19.9735 C   0  0  0  0  0  0  0  0  0  0  0  0
  -27.2269  -19.0452   22.6061 C   0  0  0  0  0  0  0  0  0  0  0  0
  -26.4215  -21.0525   21.2943 C   0  0  0  0  0  0  0  0  0  0  0  0
  -26.9772  -18.9754   20.0899 C   0  0  0  0  0  0  0  0  0  0  0  0
  -21.8403  -24.9213   20.9862 C   0  0  1  0  0  0  0  0  0  0  0  0
  -23.9607  -26.6551   23.6189 C   0  0  1  0  0  0  0  0  0  0  0  0
  -27.7703  -18.4438   21.2960 C   0  0  2  0  0  0  0  0  0  0  0  0
  -27.2076  -33.5333   25.0856 C   0  0  0  0  0  0  0  0  0  0  0  0
  -30.7371  -20.2974   17.4050 C   0  0  0  0  0  0  0  0  0  0  0  0
  -30.6020  -21.9031   15.5184 C   0  0  0  0  0  0  0  0  0  0  0  0
  -27.9271  -26.4166   18.0811 C   0  0  0  0  0  0  0  0  0  0  0  0
  -29.9514  -26.9818   16.6959 C   0  0  0  0  0  0  0  0  0  0  0  0
  -29.8659  -27.5887   19.1054 C   0  0  0  0  0  0  0  0  0  0  0  0
  -24.9201  -29.6498   20.2320 C   0  0  0  0  0  0  0  0  0  0  0  0
  -26.1894  -31.6931   20.9264 C   0  0  0  0  0  0  0  0  0  0  0  0
  -23.7760  -31.4662   21.5152 C   0  0  0  0  0  0  0  0  0  0  0  0
  -27.1531  -30.5087   27.3932 C   0  0  0  0  0  0  0  0  0  0  0  0
  -32.2284  -23.6823   20.9743 C   0  0  0  0  0  0  0  0  0  0  0  0
  -31.4564  -23.3226   22.2455 C   0  0  0  0  0  0  0  0  0  0  0  0
  -28.5255  -21.3386   16.8160 C   0  0  0  0  0  0  0  0  0  0  0  0
  -30.4450  -24.3855   22.6588 C   0  0  0  0  0  0  0  0  0  1  0  0
  -25.4848  -30.0448   22.7202 C   0  0  1  0  0  0  0  0  0  0  0  0
  -26.7181  -32.1864   25.5946 C   0  0  2  0  0  0  0  0  0  0  0  0
  -30.0603  -21.6415   16.9620 C   0  0  0  0  0  0  0  0  0  0  0  0
  -29.4864  -26.4601   18.0906 C   0  0  0  0  0  0  0  0  0  0  0  0
  -25.1004  -30.6877   21.3577 C   0  0  0  0  0  0  0  0  0  0  0  0
  -26.7267  -16.2488   20.8774 N   0  0  0  0  0  0  0  0  0  0  0  0
  -30.8406  -25.0174   19.4856 N   0  0  0  0  0  0  0  0  0  0  0  0
  -27.7897  -16.9271   21.3421 N   0  0  0  0  0  0  0  0  0  0  0  0
  -24.9328  -27.7206   23.3659 N   0  0  0  0  0  0  0  0  0  0  0  0
  -26.9870  -20.4467   20.0863 N   0  0  0  0  0  0  0  0  0  0  0  0
  -29.9300  -16.6471   22.3174 N   0  0  0  0  0  0  0  0  0  0  0  0
  -28.4749  -12.4078   21.7632 N   0  0  0  0  0  0  0  0  0  0  0  0
  -22.3514  -25.5625   22.1787 N   0  0  0  0  0  0  0  0  0  0  0  0
  -25.6356  -31.0017   23.8111 N   0  0  0  0  0  0  0  0  0  0  0  0
  -27.9898  -20.6215   17.9515 N   0  0  0  0  0  0  0  0  0  0  0  0
  -27.5410  -31.8034   26.7766 N   0  3  0  0  0  0  0  0  0  0  0  0
  -30.2085  -13.6955   22.5346 O   0  0  0  0  0  0  0  0  0  0  0  0
  -24.5227  -25.9555   21.4350 O   0  0  0  0  0  0  0  0  0  0  0  0
  -23.3050  -29.3898   23.3881 O   0  0  0  0  0  0  0  0  0  0  0  0
  -27.8328  -30.4629   24.3201 O   0  0  0  0  0  0  0  0  0  0  0  0
  -27.4297  -22.5100   19.1248 O   0  0  0  0  0  0  0  0  0  0  0  0
  -23.5858  -10.8623   19.5851 O   0  0  0  0  0  0  0  0  0  0  0  0
  -29.7987  -23.9611   23.8582 O   0  0  0  0  0  0  0  0  0  1  0  0
  -22.8585   -6.7104   23.1399 F   0  0  0  0  0  0  0  0  0  0  0  0
  -21.0811  -10.2925   20.6071 F   0  0  0  0  0  0  0  0  0  0  0  0
  1  2  1  0  0  0  0
  1  5  2  0  0  0  0
  2  6  2  0  0  0  0
  3  8  2  0  0  0  0
  3 17  1  0  0  0  0
  4  9  1  0  0  0  0
  4 17  2  0  0  0  0
  5 19  1  0  0  0  0
  6 21  1  0  0  0  0
  7 10  2  0  0  0  0
  7 20  1  0  0  0  0
  8 24  1  0  0  0  0
  9 24  2  0  0  0  0
 10 25  1  0  0  0  0
 11 12  2  0  0  0  0
 11 26  1  0  0  0  0
 12 27  1  0  0  0  0
 13 22  1  0  0  0  0
 13 25  2  0  0  0  0
 14 23  2  0  0  0  0
 14 30  1  0  0  0  0
 15 23  1  0  0  0  0
 15 31  2  0  0  0  0
 16 27  2  0  0  0  0
 16 28  1  0  0  0  0
 17 29  1  0  0  0  0
 18 29  1  0  0  0  0
 18 32  2  0  0  0  0
 18 33  1  0  0  0  0
 19 21  2  0  0  0  0
 19 38  1  0  0  0  0
 20 22  2  0  0  0  0
 20 39  1  0  0  0  0
 21 47  1  0  0  0  0
 22 40  1  0  0  0  0
 23 66  1  0  0  0  0
 24 85  1  0  0  0  0
 25 86  1  0  0  0  0
 26 28  2  0  0  0  0
 26 85  1  0  0  0  0
 27 87  1  0  0  0  0
 28 88  1  0  0  0  0
 29 69  2  0  0  0  0
 30 60  1  0  0  0  0
 30 70  2  0  0  0  0
 31 67  1  0  0  0  0
 31 70  1  0  0  0  0
 32 71  1  0  0  0  0
 32 74  1  0  0  0  0
 33 75  1  0  0  0  0
 33 80  2  0  0  0  0
 34 48  1  0  0  0  0
 34 76  1  0  0  0  0
 34 81  2  0  0  0  0
 35 64  1  0  0  0  0
 35 72  1  0  0  0  0
 35 82  2  0  0  0  0
 36 65  1  0  0  0  0
 36 77  1  0  0  0  0
 36 83  2  0  0  0  0
 37 73  1  0  0  0  0
 37 78  1  0  0  0  0
 37 84  2  0  0  0  0
 38 41  1  0  0  0  0
 39 48  1  0  0  0  0
 40 72  1  0  0  0  0
 41 43  1  0  0  0  0
 42 44  1  0  0  0  0
 42 45  1  0  0  0  0
 43 47  1  0  0  0  0
 44 49  1  0  0  0  0
 45 73  1  0  0  0  0
 46 49  1  0  0  0  0
 46 73  1  0  0  0  0
 47 76  1  0  0  0  0
 48 72  1  0  0  0  0
 49 71  1  0  0  0  0
 50 65  1  0  0  0  0
 51 66  1  0  0  0  0
 52 66  1  0  0  0  0
 53 67  1  0  0  0  0
 54 67  1  0  0  0  0
 55 67  1  0  0  0  0
 56 68  1  0  0  0  0
 57 68  1  0  0  0  0
 58 68  1  0  0  0  0
 59 79  1  0  0  0  0
 60 61  1  0  0  0  0
 61 63  1  0  0  0  0
 62 66  1  0  0  0  0
 62 78  1  0  0  0  0
 63 86  1  0  0  0  0
 64 68  1  0  0  0  0
 64 77  1  0  0  0  0
 65 79  1  0  0  0  0
 69 71  1  0  0  0  0
M  CHG  1  79   1
M  ISO  4  37 100  63 101  78 100  86 101
M  END
> <Batch ID>
0069

> <Smiles>
CNC(C)C(=O)NC(C(=O)N1Cc2cc([101O:1][101CH2:1]CCc3cc(C(C)(C)C[100NH:0][100C:0](=O)N4CCCC(n5nc(-c6ccc(Oc7ccc(F)cc7F)cc6)c(C(N)=O)c5N)C4)cc(C(C)(C)C)n3)ccc2CC1C(=O)NC1CCCc2ccccc21)C(C)(C)C

> <Shape>
0.249

> <Color>
0.062

> <Negative vol penalty>
0.000

$$$$

  -OEChem-04052318173D

 80 88  0     1  0  0  0  0  0999 V2000
  -28.1281  -35.2324   23.8834 C   0  0  0  0  0  0  0  0  0  0  0  0
  -28.3293  -33.8981   23.5449 C   0  0  0  0  0  0  0  0  0  0  0  0
  -26.7920  -23.5782   16.6303 C   0  0  0  0  0  0  0  0  0  0  0  0
  -25.2217  -11.7991   20.8811 C   0  0  0  0  0  0  0  0  0  0  0  0
  -25.2927  -12.9408   23.0091 C   0  0  0  0  0  0  0  0  0  0  0  0
  -26.9018  -35.6404   24.4065 C   0  0  0  0  0  0  0  0  0  0  0  0
  -27.3046  -32.9708   23.7304 C   0  0  0  0  0  0  0  0  0  0  0  0
  -26.7398  -29.8791   19.7596 C   0  0  0  0  0  0  0  0  0  0  0  0
  -25.5715  -10.6044   21.5103 C   0  0  0  0  0  0  0  0  0  0  0  0
  -25.6425  -11.7460   23.6384 C   0  0  0  0  0  0  0  0  0  0  0  0
  -27.6531  -28.8335   19.6318 C   0  0  0  0  0  0  0  0  0  0  0  0
  -24.0398   -8.2171   23.3508 C   0  0  0  0  0  0  0  0  0  0  0  0
  -23.3302   -7.0683   23.0010 C   0  0  0  0  0  0  0  0  0  0  0  0
  -26.7670  -22.8673   17.8555 C   0  0  0  0  0  0  0  0  0  0  0  0
  -26.0355  -27.3131   20.5757 C   0  0  0  0  0  0  0  0  0  0  0  0
  -25.3806   -6.0277   22.2594 C   0  0  0  0  0  0  0  0  0  0  0  0
  -27.8097  -24.5027   16.7119 C   0  0  0  0  0  0  0  0  0  0  0  0
  -25.0823  -12.9673   21.6305 C   0  0  0  0  0  0  0  0  0  0  0  0
  -23.4229  -14.6975   20.7586 C   0  0  0  0  0  0  0  0  0  0  0  0
  -25.8583  -34.7194   24.5896 C   0  0  0  0  0  0  0  0  0  0  0  0
  -25.4692  -29.6513   20.3075 C   0  0  0  0  0  0  0  0  0  0  0  0
  -26.0636  -33.3666   24.2578 C   0  0  0  0  0  0  0  0  0  0  0  0
  -25.1070  -28.3570   20.7070 C   0  0  0  0  0  0  0  0  0  0  0  0
  -25.7818  -10.5779   22.8889 C   0  0  0  0  0  0  0  0  0  0  0  0
  -27.3021  -27.5509   20.0425 C   0  0  0  0  0  0  0  0  0  0  0  0
  -25.4198   -8.2712   23.1548 C   0  0  0  0  0  0  0  0  0  0  0  0
  -24.0006   -5.9736   22.4554 C   0  0  0  0  0  0  0  0  0  0  0  0
  -26.0902   -7.1765   22.6091 C   0  0  0  0  0  0  0  0  0  0  0  0
  -24.7216  -14.2019   20.9810 C   0  0  0  0  0  0  0  0  0  0  0  0
  -27.7702  -23.3792   18.6486 C   0  0  0  0  0  0  0  0  0  0  0  0
  -23.6179  -15.8933   20.1116 C   0  0  0  0  0  0  0  0  0  0  0  0
  -22.1537  -14.1281   21.1060 C   0  0  0  0  0  0  0  0  0  0  0  0
  -23.9076  -30.7078   22.8666 C   0  0  0  0  0  0  0  0  0  0  0  0
  -21.4443  -29.0439   21.5681 C   0  0  0  0  0  0  0  0  0  0  0  0
  -20.4171  -26.5151   19.5195 C   0  0  0  0  0  0  0  0  0  0  0  0
  -28.1448  -19.6830   20.1297 C   0  0  0  0  0  0  0  0  0  0  0  0
  -24.5663  -35.1986   25.2025 C   0  0  0  0  0  0  0  0  0  0  0  0
  -24.4859  -30.7846   20.4139 C   0  0  0  0  0  0  0  0  0  0  0  0
  -23.7482  -28.0559   21.2828 C   0  0  0  0  0  0  0  0  0  0  0  0
  -23.4062  -34.2237   25.0180 C   0  0  0  0  0  0  0  0  0  0  0  0
  -26.6999  -18.1186   17.2036 C   0  0  0  0  0  0  0  0  0  0  0  0
  -23.8447  -32.8021   25.3549 C   0  0  0  0  0  0  0  0  0  0  0  0
  -25.9005  -16.9762   17.8329 C   0  0  0  0  0  0  0  0  0  0  0  0
  -28.0158  -18.3449   17.9421 C   0  0  0  0  0  0  0  0  0  0  0  0
  -27.0683  -17.4526   20.0349 C   0  0  0  0  0  0  0  0  0  0  0  0
  -24.9681  -32.3354   24.4212 C   0  0  1  0  0  0  0  0  0  0  0  0
  -23.4037  -30.5403   21.4610 C   0  0  1  0  0  0  0  0  0  0  0  0
  -25.7165  -17.1889   19.3472 C   0  0  2  0  0  0  0  0  0  0  0  0
  -18.3433  -25.3720   18.6888 C   0  0  0  0  0  0  0  0  0  0  0  0
  -21.1631  -27.6120   24.2477 C   0  0  0  0  0  0  0  0  0  0  0  0
  -19.7722  -25.8779   23.0961 C   0  0  0  0  0  0  0  0  0  0  0  0
  -18.9967  -28.2476   23.1722 C   0  0  0  0  0  0  0  0  0  0  0  0
  -21.0106  -27.2270   16.7089 C   0  0  0  0  0  0  0  0  0  0  0  0
  -28.1810  -23.0035   20.0170 C   0  0  0  0  0  0  0  0  0  0  0  0
  -29.5576  -25.2063   18.4301 C   0  0  0  0  0  0  0  0  0  0  0  0
  -29.2543  -21.9017   20.0706 C   0  0  0  0  0  0  0  0  0  0  0  0
  -29.1295  -26.6093   18.8467 C   0  0  0  0  0  0  0  0  0  1  0  0
  -20.9375  -27.6260   21.6758 C   0  0  1  0  0  0  0  0  0  0  0  0
  -19.3641  -26.4684   18.4271 C   0  0  2  0  0  0  0  0  0  0  0  0
  -20.2437  -27.3466   23.0389 C   0  0  0  0  0  0  0  0  0  0  0  0
  -25.6714  -15.0161   20.5130 N   0  0  0  0  0  0  0  0  0  0  0  0
  -28.3972  -24.3729   17.9432 N   0  0  0  0  0  0  0  0  0  0  0  0
  -24.9689  -16.0354   19.9901 N   0  0  0  0  0  0  0  0  0  0  0  0
  -22.8240  -29.1985   21.3723 N   0  0  0  0  0  0  0  0  0  0  0  0
  -27.7691  -18.5593   19.3751 N   0  0  0  0  0  0  0  0  0  0  0  0
  -22.7637  -16.8264   19.6403 N   0  0  0  0  0  0  0  0  0  0  0  0
  -22.1344  -12.8931   21.7683 N   0  0  0  0  0  0  0  0  0  0  0  0
  -24.4298  -31.9594   23.1315 N   0  0  0  0  0  0  0  0  0  0  0  0
  -20.0817  -27.4091   20.5143 N   0  0  0  0  0  0  0  0  0  0  0  0
  -28.8104  -20.6830   19.4313 N   0  0  0  0  0  0  0  0  0  0  0  0
  -20.0010  -26.2116   17.1044 N   0  3  0  0  0  0  0  0  0  0  0  0
  -21.0685  -14.6897   20.8224 O   0  0  0  0  0  0  0  0  0  0  0  0
  -23.8272  -29.7714   23.6529 O   0  0  0  0  0  0  0  0  0  0  0  0
  -20.6445  -29.9797   21.6474 O   0  0  0  0  0  0  0  0  0  0  0  0
  -21.4335  -25.8246   19.4949 O   0  0  0  0  0  0  0  0  0  0  0  0
  -27.9003  -19.7899   21.3363 O   0  0  0  0  0  0  0  0  0  0  0  0
  -26.1229   -9.4122   23.5033 O   0  0  0  0  0  0  0  0  0  0  0  0
  -28.1919  -26.5286   19.9194 O   0  0  0  0  0  0  0  0  0  1  0  0
  -23.3193   -4.8699   22.1210 F   0  0  0  0  0  0  0  0  0  0  0  0
  -27.4160   -7.2222   22.4196 F   0  0  0  0  0  0  0  0  0  0  0  0
  1  2  1  0  0  0  0
  1  6  2  0  0  0  0
  2  7  2  0  0  0  0
  3 14  1  0  0  0  0
  3 17  2  0  0  0  0
  4  9  2  0  0  0  0
  4 18  1  0  0  0  0
  5 10  1  0  0  0  0
  5 18  2  0  0  0  0
  6 20  1  0  0  0  0
  7 22  1  0  0  0  0
  8 11  2  0  0  0  0
  8 21  1  0  0  0  0
  9 24  1  0  0  0  0
 10 24  2  0  0  0  0
 11 25  1  0  0  0  0
 12 13  2  0  0  0  0
 12 26  1  0  0  0  0
 13 27  1  0  0  0  0
 14 30  2  0  0  0  0
 15 23  1  0  0  0  0
 15 25  2  0  0  0  0
 16 27  2  0  0  0  0
 16 28  1  0  0  0  0
 17 62  1  0  0  0  0
 18 29  1  0  0  0  0
 19 29  1  0  0  0  0
 19 31  2  0  0  0  0
 19 32  1  0  0  0  0
 20 22  2  0  0  0  0
 20 37  1  0  0  0  0
 21 23  2  0  0  0  0
 21 38  1  0  0  0  0
 22 46  1  0  0  0  0
 23 39  1  0  0  0  0
 24 77  1  0  0  0  0
 25 78  1  0  0  0  0
 26 28  2  0  0  0  0
 26 77  1  0  0  0  0
 27 79  1  0  0  0  0
 28 80  1  0  0  0  0
 29 61  2  0  0  0  0
 30 54  1  0  0  0  0
 30 62  1  0  0  0  0
 31 63  1  0  0  0  0
 31 66  1  0  0  0  0
 32 67  1  0  0  0  0
 32 72  2  0  0  0  0
 33 47  1  0  0  0  0
 33 68  1  0  0  0  0
 33 73  2  0  0  0  0
 34 58  1  0  0  0  0
 34 64  1  0  0  0  0
 34 74  2  0  0  0  0
 35 59  1  0  0  0  0
 35 69  1  0  0  0  0
 35 75  2  0  0  0  0
 36 65  1  0  0  0  0
 36 70  1  0  0  0  0
 36 76  2  0  0  0  0
 37 40  1  0  0  0  0
 38 47  1  0  0  0  0
 39 64  1  0  0  0  0
 40 42  1  0  0  0  0
 41 43  1  0  0  0  0
 41 44  1  0  0  0  0
 42 46  1  0  0  0  0
 43 48  1  0  0  0  0
 44 65  1  0  0  0  0
 45 48  1  0  0  0  0
 45 65  1  0  0  0  0
 46 68  1  0  0  0  0
 47 64  1  0  0  0  0
 48 63  1  0  0  0  0
 49 59  1  0  0  0  0
 50 60  1  0  0  0  0
 51 60  1  0  0  0  0
 52 60  1  0  0  0  0
 53 71  1  0  0  0  0
 54 56  1  0  0  0  0
 55 57  1  0  0  0  0
 55 62  1  0  0  0  0
 56 70  1  0  0  0  0
 57 78  1  0  0  0  0
 58 60  1  0  0  0  0
 58 69  1  0  0  0  0
 59 71  1  0  0  0  0
 61 63  1  0  0  0  0
M  CHG  1  71   1
M  ISO  4  36 100  57 101  70 100  78 101
M  END
> <Batch ID>
0069

> <Smiles>
CNC(C)C(=O)NC(C(=O)N1Cc2cc([101O:1][101CH2:1]Cn3cccc3CC[100NH:0][100C:0](=O)N3CCCC(n4nc(-c5ccc(Oc6ccc(F)cc6F)cc5)c(C(N)=O)c4N)C3)ccc2CC1C(=O)NC1CCCc2ccccc21)C(C)(C)C

> <Shape>
0.285

> <Color>
0.091

> <Negative vol penalty>
0.000

$$$$

  -OEChem-04052318173D

 87 95  0     1  0  0  0  0  0999 V2000
  -21.8065  -11.0571   19.6130 C   0  0  0  0  0  0  0  0  0  0  0  0
  -21.5127  -12.3214   20.1135 C   0  0  0  0  0  0  0  0  0  0  0  0
  -26.7915  -28.1259   18.9657 C   0  0  0  0  0  0  0  0  0  0  0  0
  -25.3767  -27.8112   20.8987 C   0  0  0  0  0  0  0  0  0  0  0  0
  -23.1181  -10.5850   19.6414 C   0  0  0  0  0  0  0  0  0  0  0  0
  -22.5301  -13.1140   20.6436 C   0  0  0  0  0  0  0  0  0  0  0  0
  -22.9890  -19.2129   20.3284 C   0  0  0  0  0  0  0  0  0  0  0  0
  -26.9930  -29.4572   19.3299 C   0  0  0  0  0  0  0  0  0  0  0  0
  -25.5782  -29.1425   21.2629 C   0  0  0  0  0  0  0  0  0  0  0  0
  -22.6707  -20.2254   21.2324 C   0  0  0  0  0  0  0  0  0  0  0  0
  -27.9870  -30.9744   22.7671 C   0  0  0  0  0  0  0  0  0  0  0  0
  -28.2666  -31.2429   24.1069 C   0  0  0  0  0  0  0  0  0  0  0  0
  -24.9647  -20.2732   21.9772 C   0  0  0  0  0  0  0  0  0  0  0  0
  -26.2915  -32.6279   24.2415 C   0  0  0  0  0  0  0  0  0  0  0  0
  -19.0974  -23.5631   21.9455 C   0  0  0  0  0  0  0  0  0  0  0  0
  -25.9833  -27.3029   19.7501 C   0  0  0  0  0  0  0  0  0  0  0  0
  -26.5461  -24.8147   19.7580 C   0  0  0  0  0  0  0  0  0  0  0  0
  -24.1537  -11.3760   20.1633 C   0  0  0  0  0  0  0  0  0  0  0  0
  -24.2973  -18.7145   20.2496 C   0  0  0  0  0  0  0  0  0  0  0  0
  -23.8565  -12.6515   20.6802 C   0  0  0  0  0  0  0  0  0  0  0  0
  -25.2975  -19.2561   21.0696 C   0  0  0  0  0  0  0  0  0  0  0  0
  -26.3864  -29.9655   20.4785 C   0  0  0  0  0  0  0  0  0  0  0  0
  -23.6580  -20.7537   22.0591 C   0  0  0  0  0  0  0  0  0  0  0  0
  -26.8597  -31.5327   22.1644 C   0  0  0  0  0  0  0  0  0  0  0  0
  -27.4189  -32.0697   24.8442 C   0  0  0  0  0  0  0  0  0  0  0  0
  -26.0119  -32.3594   22.9016 C   0  0  0  0  0  0  0  0  0  0  0  0
  -25.7743  -25.9277   19.3741 C   0  0  0  0  0  0  0  0  0  0  0  0
  -19.7016  -24.3546   22.9009 C   0  0  0  0  0  0  0  0  0  0  0  0
  -18.5810  -24.2328   20.8551 C   0  0  0  0  0  0  0  0  0  0  0  0
  -25.9399  -23.7475   19.1417 C   0  0  0  0  0  0  0  0  0  0  0  0
  -19.2579  -26.2321   21.6987 C   0  0  0  0  0  0  0  0  0  0  0  0
  -27.7071  -24.7513   20.5969 C   0  0  0  0  0  0  0  0  0  0  0  0
  -25.6515  -15.8806   20.7388 C   0  0  0  0  0  0  0  0  0  0  0  0
  -28.2936  -17.3831   19.6056 C   0  0  0  0  0  0  0  0  0  0  0  0
  -29.9593  -20.3157   19.0840 C   0  0  0  0  0  0  0  0  0  0  0  0
  -20.3543  -22.7885   17.2097 C   0  0  0  0  0  0  0  0  0  0  0  0
  -25.5482  -10.8039   20.2159 C   0  0  0  0  0  0  0  0  0  0  0  0
  -24.6302  -17.6406   19.2504 C   0  0  0  0  0  0  0  0  0  0  0  0
  -26.7217  -18.7699   21.0096 C   0  0  0  0  0  0  0  0  0  0  0  0
  -26.6294  -11.8553   20.4520 C   0  0  0  0  0  0  0  0  0  0  0  0
  -23.3429  -22.6335   15.2809 C   0  0  0  0  0  0  0  0  0  0  0  0
  -26.2244  -12.7924   21.5854 C   0  0  0  0  0  0  0  0  0  0  0  0
  -24.3746  -23.3597   16.1458 C   0  0  0  0  0  0  0  0  0  0  0  0
  -21.9622  -23.2766   15.3896 C   0  0  0  0  0  0  0  0  0  0  0  0
  -22.4879  -24.1544   17.6317 C   0  0  0  0  0  0  0  0  0  0  0  0
  -24.9369  -13.5508   21.2407 C   0  0  1  0  0  0  0  0  0  0  0  0
  -25.8838  -16.8519   19.6162 C   0  0  1  0  0  0  0  0  0  0  0  0
  -23.8835  -23.5083   17.5984 C   0  0  2  0  0  0  0  0  0  0  0  0
  -19.3500  -27.7139   21.5593 C   0  0  0  0  0  0  0  0  0  0  0  0
  -31.7561  -21.8566   18.2506 C   0  0  0  0  0  0  0  0  0  0  0  0
  -17.3585  -24.3169   18.5758 C   0  0  0  0  0  0  0  0  0  0  0  0
  -16.6608  -22.7053   20.3284 C   0  0  0  0  0  0  0  0  0  0  0  0
  -29.7427  -16.4705   22.1309 C   0  0  0  0  0  0  0  0  0  0  0  0
  -31.5254  -18.1566   21.6334 C   0  0  0  0  0  0  0  0  0  0  0  0
  -31.0916  -16.2934   20.0325 C   0  0  0  0  0  0  0  0  0  0  0  0
  -22.7091  -24.4811   23.7578 C   0  0  0  0  0  0  0  0  0  0  0  0
  -22.1878  -22.7078   25.4286 C   0  0  0  0  0  0  0  0  0  0  0  0
  -28.5876  -20.7005   16.4900 C   0  0  0  0  0  0  0  0  0  0  0  0
  -20.2978  -23.7120   24.1316 C   0  0  0  0  0  0  0  0  0  0  0  0
  -18.8478  -22.3702   19.1371 C   0  0  0  0  0  0  0  0  0  0  0  0
  -21.9953  -22.1895   22.9700 C   0  0  0  0  0  0  0  0  0  1  0  0
  -29.4182  -18.1790   20.2226 C   0  0  1  0  0  0  0  0  0  0  0  0
  -30.6690  -20.8673   17.8607 C   0  0  2  0  0  0  0  0  0  0  0  0
  -17.9101  -23.4609   19.7686 C   0  0  0  0  0  0  0  0  0  0  0  0
  -30.4173  -17.2829   21.0076 C   0  0  0  0  0  0  0  0  0  0  0  0
  -21.7909  -23.2780   24.0479 C   0  0  0  0  0  0  0  0  0  0  0  0
  -24.7557  -25.5981   18.5755 N   0  0  0  0  0  0  0  0  0  0  0  0
  -19.8000  -25.6971   22.8093 N   0  0  0  0  0  0  0  0  0  0  0  0
  -18.6437  -25.5715   20.6988 N   0  0  0  0  0  0  0  0  0  0  0  0
  -24.8832  -24.2659   18.4525 N   0  0  0  0  0  0  0  0  0  0  0  0
  -26.9960  -17.7141   20.0208 N   0  0  0  0  0  0  0  0  0  0  0  0
  -21.5546  -23.3868   16.7923 N   0  0  0  0  0  0  0  0  0  0  0  0
  -26.2130  -22.4255   19.1273 N   0  0  0  0  0  0  0  0  0  0  0  0
  -28.1981  -25.9421   21.1493 N   0  0  0  0  0  0  0  0  0  0  0  0
  -25.2189  -14.6353   20.3249 N   0  0  0  0  0  0  0  0  0  0  0  0
  -30.0247  -18.9393   19.1352 N   0  0  0  0  0  0  0  0  0  0  0  0
  -20.0456  -22.9350   18.5566 N   0  0  0  0  0  0  0  0  0  0  0  0
  -29.6986  -21.5627   16.9686 N   0  3  0  0  0  0  0  0  0  0  0  0
  -28.3014  -23.6728   20.8360 O   0  0  0  0  0  0  0  0  0  0  0  0
  -25.8514  -16.2344   21.8949 O   0  0  0  0  0  0  0  0  0  0  0  0
  -28.5563  -16.5049   18.7801 O   0  0  0  0  0  0  0  0  0  0  0  0
  -29.4058  -21.0342   19.9135 O   0  0  0  0  0  0  0  0  0  0  0  0
  -19.6152  -22.1651   16.4402 O   0  0  0  0  0  0  0  0  0  0  0  0
  -26.5830  -31.2645   20.8343 O   0  0  0  0  0  0  0  0  0  0  0  0
  -23.3499  -21.7417   22.9428 O   0  0  0  0  0  0  0  0  0  1  0  0
  -27.6867  -32.3262   26.1313 F   0  0  0  0  0  0  0  0  0  0  0  0
  -24.9268  -32.8976   22.3284 F   0  0  0  0  0  0  0  0  0  0  0  0
  1  2  1  0  0  0  0
  1  5  2  0  0  0  0
  2  6  2  0  0  0  0
  3  8  2  0  0  0  0
  3 16  1  0  0  0  0
  4  9  1  0  0  0  0
  4 16  2  0  0  0  0
  5 18  1  0  0  0  0
  6 20  1  0  0  0  0
  7 10  2  0  0  0  0
  7 19  1  0  0  0  0
  8 22  1  0  0  0  0
  9 22  2  0  0  0  0
 10 23  1  0  0  0  0
 11 12  2  0  0  0  0
 11 24  1  0  0  0  0
 12 25  1  0  0  0  0
 13 21  1  0  0  0  0
 13 23  2  0  0  0  0
 14 25  2  0  0  0  0
 14 26  1  0  0  0  0
 15 28  1  0  0  0  0
 15 29  2  0  0  0  0
 16 27  1  0  0  0  0
 17 27  1  0  0  0  0
 17 30  2  0  0  0  0
 17 32  1  0  0  0  0
 18 20  2  0  0  0  0
 18 37  1  0  0  0  0
 19 21  2  0  0  0  0
 19 38  1  0  0  0  0
 20 46  1  0  0  0  0
 21 39  1  0  0  0  0
 22 84  1  0  0  0  0
 23 85  1  0  0  0  0
 24 26  2  0  0  0  0
 24 84  1  0  0  0  0
 25 86  1  0  0  0  0
 26 87  1  0  0  0  0
 27 67  2  0  0  0  0
 28 59  1  0  0  0  0
 28 68  2  0  0  0  0
 29 64  1  0  0  0  0
 29 69  1  0  0  0  0
 30 70  1  0  0  0  0
 30 73  1  0  0  0  0
 31 49  1  0  0  0  0
 31 68  1  0  0  0  0
 31 69  2  0  0  0  0
 32 74  1  0  0  0  0
 32 79  2  0  0  0  0
 33 47  1  0  0  0  0
 33 75  1  0  0  0  0
 33 80  2  0  0  0  0
 34 62  1  0  0  0  0
 34 71  1  0  0  0  0
 34 81  2  0  0  0  0
 35 63  1  0  0  0  0
 35 76  1  0  0  0  0
 35 82  2  0  0  0  0
 36 72  1  0  0  0  0
 36 77  1  0  0  0  0
 36 83  2  0  0  0  0
 37 40  1  0  0  0  0
 38 47  1  0  0  0  0
 39 71  1  0  0  0  0
 40 42  1  0  0  0  0
 41 43  1  0  0  0  0
 41 44  1  0  0  0  0
 42 46  1  0  0  0  0
 43 48  1  0  0  0  0
 44 72  1  0  0  0  0
 45 48  1  0  0  0  0
 45 72  1  0  0  0  0
 46 75  1  0  0  0  0
 47 71  1  0  0  0  0
 48 70  1  0  0  0  0
 50 63  1  0  0  0  0
 51 64  1  0  0  0  0
 52 64  1  0  0  0  0
 53 65  1  0  0  0  0
 54 65  1  0  0  0  0
 55 65  1  0  0  0  0
 56 66  1  0  0  0  0
 57 66  1  0  0  0  0
 58 78  1  0  0  0  0
 59 66  1  0  0  0  0
 60 64  1  0  0  0  0
 60 77  1  0  0  0  0
 61 66  1  0  0  0  0
 61 85  1  0  0  0  0
 62 65  1  0  0  0  0
 62 76  1  0  0  0  0
 63 78  1  0  0  0  0
 67 70  1  0  0  0  0
M  CHG  1  78   1
M  ISO  4  36 100  61 101  77 100  85 101
M  END
> <Batch ID>
0069

> <Smiles>
CNC(C)C(=O)NC(C(=O)N1Cc2cc([101O:1][101CH2:1]C(C)(C)Cc3cc(C(C)(C)C[100NH:0][100C:0](=O)N4CCCC(n5nc(-c6ccc(Oc7ccc(F)cc7F)cc6)c(C(N)=O)c5N)C4)nc(C)n3)ccc2CC1C(=O)NC1CCCc2ccccc21)C(C)(C)C

> <Shape>
0.217

> <Color>
0.056

> <Negative vol penalty>
0.000

$$$$

  -OEChem-04052318173D

 85 93  0     1  0  0  0  0  0999 V2000
  -16.7190  -29.2832   24.2842 C   0  0  0  0  0  0  0  0  0  0  0  0
  -17.1752  -28.4521   23.2660 C   0  0  0  0  0  0  0  0  0  0  0  0
  -26.6080  -11.9646   21.6146 C   0  0  0  0  0  0  0  0  0  0  0  0
  -25.9547  -13.1190   19.5952 C   0  0  0  0  0  0  0  0  0  0  0  0
  -17.3776  -30.4827   24.5511 C   0  0  0  0  0  0  0  0  0  0  0  0
  -18.2897  -28.8207   22.5134 C   0  0  0  0  0  0  0  0  0  0  0  0
  -22.5518  -25.0937   20.1790 C   0  0  0  0  0  0  0  0  0  0  0  0
  -25.4114  -11.2483   21.5923 C   0  0  0  0  0  0  0  0  0  0  0  0
  -24.7581  -12.4026   19.5729 C   0  0  0  0  0  0  0  0  0  0  0  0
  -22.7303  -24.5539   18.9060 C   0  0  0  0  0  0  0  0  0  0  0  0
  -24.1327   -8.5851   19.9475 C   0  0  0  0  0  0  0  0  0  0  0  0
  -24.1945   -7.2121   20.1857 C   0  0  0  0  0  0  0  0  0  0  0  0
  -24.2592  -26.3409   18.3691 C   0  0  0  0  0  0  0  0  0  0  0  0
  -22.7502   -7.4799   22.1038 C   0  0  0  0  0  0  0  0  0  0  0  0
  -27.8123  -20.3590   16.3332 C   0  0  0  0  0  0  0  0  0  0  0  0
  -26.8797  -12.9000   20.6161 C   0  0  0  0  0  0  0  0  0  0  0  0
  -29.3351  -13.2780   20.0368 C   0  0  0  0  0  0  0  0  0  0  0  0
  -18.5066  -30.8615   23.8078 C   0  0  0  0  0  0  0  0  0  0  0  0
  -23.2184  -26.2692   20.5535 C   0  0  0  0  0  0  0  0  0  0  0  0
  -18.9633  -30.0270   22.7698 C   0  0  0  0  0  0  0  0  0  0  0  0
  -24.0894  -26.8922   19.6483 C   0  0  0  0  0  0  0  0  0  0  0  0
  -28.5258  -22.6473   17.5434 C   0  0  0  0  0  0  0  0  0  0  0  0
  -24.4864  -11.4673   20.5714 C   0  0  0  0  0  0  0  0  0  0  0  0
  -23.5818  -25.1791   17.9998 C   0  0  0  0  0  0  0  0  0  0  0  0
  -23.3797   -9.4055   20.7874 C   0  0  0  0  0  0  0  0  0  0  0  0
  -23.5032   -6.6595   21.2638 C   0  0  0  0  0  0  0  0  0  0  0  0
  -22.6884   -8.8529   21.8656 C   0  0  0  0  0  0  0  0  0  0  0  0
  -28.1154  -13.6407   20.6389 C   0  0  0  0  0  0  0  0  0  0  0  0
  -28.0177  -22.6217   16.2606 C   0  0  0  0  0  0  0  0  0  0  0  0
  -28.6431  -21.4202   18.1637 C   0  0  0  0  0  0  0  0  0  0  0  0
  -30.1905  -14.3068   20.3472 C   0  0  0  0  0  0  0  0  0  0  0  0
  -29.6653  -12.1152   19.2658 C   0  0  0  0  0  0  0  0  0  0  0  0
  -22.3036  -29.1830   21.4347 C   0  0  0  0  0  0  0  0  0  0  0  0
  -29.1983  -20.0646   21.7526 C   0  0  0  0  0  0  0  0  0  0  0  0
  -25.4757  -29.5915   21.9765 C   0  0  0  0  0  0  0  0  0  0  0  0
  -28.6793  -28.6415   21.2827 C   0  0  0  0  0  0  0  0  0  0  0  0
  -19.1571  -32.1901   24.1020 C   0  0  0  0  0  0  0  0  0  0  0  0
  -23.0358  -26.8240   21.9396 C   0  0  0  0  0  0  0  0  0  0  0  0
  -24.8441  -28.1449   20.0083 C   0  0  0  0  0  0  0  0  0  0  0  0
  -20.5553  -32.3290   23.5054 C   0  0  0  0  0  0  0  0  0  0  0  0
  -31.0028  -17.6372   23.6739 C   0  0  0  0  0  0  0  0  0  0  0  0
  -20.5650  -31.8619   22.0533 C   0  0  0  0  0  0  0  0  0  0  0  0
  -30.5560  -16.3031   23.0775 C   0  0  0  0  0  0  0  0  0  0  0  0
  -29.8687  -18.6574   23.6721 C   0  0  0  0  0  0  0  0  0  0  0  0
  -28.8094  -17.5507   21.7292 C   0  0  0  0  0  0  0  0  0  0  0  0
  -20.1838  -30.3804   21.9478 C   0  0  1  0  0  0  0  0  0  0  0  0
  -23.3678  -28.3098   22.0370 C   0  0  1  0  0  0  0  0  0  0  0  0
  -29.9341  -16.5013   21.6838 C   0  0  2  0  0  0  0  0  0  0  0  0
  -28.9212  -23.9150   18.2138 C   0  0  0  0  0  0  0  0  0  0  0  0
  -30.7266  -21.2601   19.5297 C   0  0  0  0  0  0  0  0  0  0  0  0
  -27.0795  -20.2375   20.5581 C   0  0  0  0  0  0  0  0  0  0  0  0
  -31.0622  -29.1848   21.8519 C   0  0  0  0  0  0  0  0  0  0  0  0
  -25.3326  -32.0686   20.2007 C   0  0  0  0  0  0  0  0  0  0  0  0
  -27.8300  -32.0081   20.0344 C   0  0  0  0  0  0  0  0  0  0  0  0
  -26.7370  -32.3357   22.2527 C   0  0  0  0  0  0  0  0  0  0  0  0
  -29.1576  -25.9328   22.3751 C   0  0  0  0  0  0  0  0  0  0  0  0
  -27.8434  -23.9014   15.4823 C   0  0  0  0  0  0  0  0  0  0  0  0
  -26.6671  -23.8735   14.5001 C   0  0  0  0  0  0  0  0  0  0  0  0
  -25.3131  -23.7102   15.1921 C   0  0  0  0  0  0  0  0  0  0  0  0
  -25.0222  -24.8720   16.1324 C   0  0  0  0  0  0  0  0  0  1  0  0
  -29.1806  -21.3237   19.5536 C   0  0  2  0  0  0  0  0  0  0  0  0
  -28.5942  -20.1315   20.3725 C   0  0  1  0  0  0  0  0  0  0  0  0
  -26.6493  -30.0616   21.1516 C   0  0  1  0  0  0  0  0  0  0  0  0
  -29.8546  -28.3242   22.1895 C   0  0  2  0  0  0  0  0  0  0  0  0
  -26.6217  -31.5960   20.9021 C   0  0  0  0  0  0  0  0  0  0  0  0
  -27.6495  -21.4913   15.6226 N   0  0  0  0  0  0  0  0  0  0  0  0
  -28.2945  -20.2518   17.5861 N   0  0  0  0  0  0  0  0  0  0  0  0
  -28.1856  -14.8085   21.2832 N   0  0  0  0  0  0  0  0  0  0  0  0
  -29.4597  -15.1886   21.0878 N   0  0  0  0  0  0  0  0  0  0  0  0
  -24.6273  -28.6522   21.3732 N   0  0  0  0  0  0  0  0  0  0  0  0
  -29.2898  -18.8004   22.3351 N   0  0  0  0  0  0  0  0  0  0  0  0
  -31.4890  -14.5341   20.0562 N   0  0  0  0  0  0  0  0  0  0  0  0
  -28.6677  -11.1567   19.0415 N   0  0  0  0  0  0  0  0  0  0  0  0
  -21.3041  -29.5426   22.3185 N   0  0  0  0  0  0  0  0  0  0  0  0
  -27.8465  -29.5894   21.8388 N   0  0  0  0  0  0  0  0  0  0  0  0
  -30.2443  -26.8924   22.0506 N   0  3  0  0  0  0  0  0  0  0  0  0
  -30.8157  -11.9236   18.8036 O   0  0  0  0  0  0  0  0  0  0  0  0
  -22.3843  -29.5078   20.2558 O   0  0  0  0  0  0  0  0  0  0  0  0
  -29.5797  -21.1057   22.2939 O   0  0  0  0  0  0  0  0  0  0  0  0
  -25.3215  -30.0357   23.1169 O   0  0  0  0  0  0  0  0  0  0  0  0
  -28.5182  -28.1050   20.1887 O   0  0  0  0  0  0  0  0  0  0  0  0
  -23.3187  -10.7683   20.5492 O   0  0  0  0  0  0  0  0  0  0  0  0
  -23.7573  -24.6546   16.7564 O   0  0  0  0  0  0  0  0  0  1  0  0
  -23.5614   -5.3408   21.4915 F   0  0  0  0  0  0  0  0  0  0  0  0
  -21.9623   -9.6358   22.6753 F   0  0  0  0  0  0  0  0  0  0  0  0
  1  2  1  0  0  0  0
  1  5  2  0  0  0  0
  2  6  2  0  0  0  0
  3  8  2  0  0  0  0
  3 16  1  0  0  0  0
  4  9  1  0  0  0  0
  4 16  2  0  0  0  0
  5 18  1  0  0  0  0
  6 20  1  0  0  0  0
  7 10  2  0  0  0  0
  7 19  1  0  0  0  0
  8 23  1  0  0  0  0
  9 23  2  0  0  0  0
 10 24  1  0  0  0  0
 11 12  2  0  0  0  0
 11 25  1  0  0  0  0
 12 26  1  0  0  0  0
 13 21  1  0  0  0  0
 13 24  2  0  0  0  0
 14 26  2  0  0  0  0
 14 27  1  0  0  0  0
 15 66  2  0  0  0  0
 15 67  1  0  0  0  0
 16 28  1  0  0  0  0
 17 28  1  0  0  0  0
 17 31  2  0  0  0  0
 17 32  1  0  0  0  0
 18 20  2  0  0  0  0
 18 37  1  0  0  0  0
 19 21  2  0  0  0  0
 19 38  1  0  0  0  0
 20 46  1  0  0  0  0
 21 39  1  0  0  0  0
 22 29  2  0  0  0  0
 22 30  1  0  0  0  0
 22 49  1  0  0  0  0
 23 82  1  0  0  0  0
 24 83  1  0  0  0  0
 25 27  2  0  0  0  0
 25 82  1  0  0  0  0
 26 84  1  0  0  0  0
 27 85  1  0  0  0  0
 28 68  2  0  0  0  0
 29 57  1  0  0  0  0
 29 66  1  0  0  0  0
 30 61  1  0  0  0  0
 30 67  2  0  0  0  0
 31 69  1  0  0  0  0
 31 72  1  0  0  0  0
 32 73  1  0  0  0  0
 32 77  2  0  0  0  0
 33 47  1  0  0  0  0
 33 74  1  0  0  0  0
 33 78  2  0  0  0  0
 34 62  1  0  0  0  0
 34 71  1  0  0  0  0
 34 79  2  0  0  0  0
 35 63  1  0  0  0  0
 35 70  1  0  0  0  0
 35 80  2  0  0  0  0
 36 64  1  0  0  0  0
 36 75  1  0  0  0  0
 36 81  2  0  0  0  0
 37 40  1  0  0  0  0
 38 47  1  0  0  0  0
 39 70  1  0  0  0  0
 40 42  1  0  0  0  0
 41 43  1  0  0  0  0
 41 44  1  0  0  0  0
 42 46  1  0  0  0  0
 43 48  1  0  0  0  0
 44 71  1  0  0  0  0
 45 48  1  0  0  0  0
 45 71  1  0  0  0  0
 46 74  1  0  0  0  0
 47 70  1  0  0  0  0
 48 69  1  0  0  0  0
 50 61  1  0  0  0  0
 51 62  1  0  0  0  0
 52 64  1  0  0  0  0
 53 65  1  0  0  0  0
 54 65  1  0  0  0  0
 55 65  1  0  0  0  0
 56 76  1  0  0  0  0
 57 58  1  0  0  0  0
 58 59  1  0  0  0  0
 59 60  1  0  0  0  0
 60 83  1  0  0  0  0
 61 62  1  0  0  0  0
 63 65  1  0  0  0  0
 63 75  1  0  0  0  0
 64 76  1  0  0  0  0
 68 69  1  0  0  0  0
M  CHG  1  76   1
M  ISO  4  34 100  60 101  62 100  83 101
M  END
> <Batch ID>
0069

> <Smiles>
CNC(C)C(=O)NC(C(=O)N1Cc2cc([101O:1][101CH2:1]CCCc3ncnc(C(C)[100CH:0](C)[100C:0](=O)N4CCCC(n5nc(-c6ccc(Oc7ccc(F)cc7F)cc6)c(C(N)=O)c5N)C4)c3C)ccc2CC1C(=O)NC1CCCc2ccccc21)C(C)(C)C

> <Shape>
0.297

> <Color>
0.073

> <Negative vol penalty>
0.000

$$$$

  -OEChem-04052318173D

 86 94  0     1  0  0  0  0  0999 V2000
  -17.2355  -26.2146   21.9082 C   0  0  0  0  0  0  0  0  0  0  0  0
  -18.5415  -25.8438   21.6043 C   0  0  0  0  0  0  0  0  0  0  0  0
  -24.3868  -12.1308   21.9337 C   0  0  0  0  0  0  0  0  0  0  0  0
  -24.7150  -11.7382   19.5725 C   0  0  0  0  0  0  0  0  0  0  0  0
  -16.9859  -27.4381   22.5284 C   0  0  0  0  0  0  0  0  0  0  0  0
  -19.5986  -26.6969   21.9194 C   0  0  0  0  0  0  0  0  0  0  0  0
  -23.4993  -24.2575   24.0356 C   0  0  0  0  0  0  0  0  0  0  0  0
  -23.5528  -11.0150   22.0034 C   0  0  0  0  0  0  0  0  0  0  0  0
  -23.8810  -10.6223   19.6422 C   0  0  0  0  0  0  0  0  0  0  0  0
  -24.3402  -23.5418   23.1844 C   0  0  0  0  0  0  0  0  0  0  0  0
  -21.6254   -8.0595   22.8780 C   0  0  0  0  0  0  0  0  0  0  0  0
  -21.8078   -7.1790   23.9443 C   0  0  0  0  0  0  0  0  0  0  0  0
  -25.9270  -25.3581   23.2348 C   0  0  0  0  0  0  0  0  0  0  0  0
  -24.0770   -6.7731   23.2210 C   0  0  0  0  0  0  0  0  0  0  0  0
  -28.4086  -23.3790   19.2893 C   0  0  0  0  0  0  0  0  0  0  0  0
  -24.9679  -12.4925   20.7182 C   0  0  0  0  0  0  0  0  0  0  0  0
  -27.2238  -13.6779   20.8337 C   0  0  0  0  0  0  0  0  0  0  0  0
  -18.0412  -28.3024   22.8600 C   0  0  0  0  0  0  0  0  0  0  0  0
  -23.8616  -25.5355   24.4848 C   0  0  0  0  0  0  0  0  0  0  0  0
  -19.3626  -27.9337   22.5434 C   0  0  0  0  0  0  0  0  0  0  0  0
  -25.0901  -26.0868   24.0937 C   0  0  0  0  0  0  0  0  0  0  0  0
  -28.3492  -23.1168   20.6428 C   0  0  0  0  0  0  0  0  0  0  0  0
  -23.2999  -10.2607   20.8576 C   0  0  0  0  0  0  0  0  0  0  0  0
  -25.5529  -24.0933   22.7815 C   0  0  0  0  0  0  0  0  0  0  0  0
  -22.6687   -8.2967   21.9830 C   0  0  0  0  0  0  0  0  0  0  0  0
  -23.0336   -6.5359   24.1159 C   0  0  0  0  0  0  0  0  0  0  0  0
  -23.8945   -7.6535   22.1546 C   0  0  0  0  0  0  0  0  0  0  0  0
  -25.8291  -13.6454   20.6455 C   0  0  0  0  0  0  0  0  0  0  0  0
  -29.0142  -21.9822   21.0609 C   0  0  0  0  0  0  0  0  0  0  0  0
  -27.5630  -14.9975   20.6606 C   0  0  0  0  0  0  0  0  0  0  0  0
  -29.6728  -21.5235   18.9342 C   0  0  0  0  0  0  0  0  0  0  0  0
  -28.1316  -12.6106   21.1378 C   0  0  0  0  0  0  0  0  0  0  0  0
  -22.6352  -28.4520   24.1789 C   0  0  0  0  0  0  0  0  0  0  0  0
  -24.9993  -29.2409   26.2552 C   0  0  0  0  0  0  0  0  0  0  0  0
  -28.0548  -28.5015   27.5833 C   0  0  0  0  0  0  0  0  0  0  0  0
  -27.1437  -19.8022   17.8526 C   0  0  0  0  0  0  0  0  0  0  0  0
  -17.7180  -29.6355   23.4869 C   0  0  0  0  0  0  0  0  0  0  0  0
  -22.9557  -26.2835   25.4241 C   0  0  0  0  0  0  0  0  0  0  0  0
  -25.5347  -27.4468   24.5640 C   0  0  0  0  0  0  0  0  0  0  0  0
  -18.9253  -30.3164   24.1266 C   0  0  0  0  0  0  0  0  0  0  0  0
  -24.6594  -19.1247   20.3114 C   0  0  0  0  0  0  0  0  0  0  0  0
  -20.1255  -30.2683   23.1864 C   0  0  0  0  0  0  0  0  0  0  0  0
  -24.8533  -17.6407   20.6281 C   0  0  0  0  0  0  0  0  0  0  0  0
  -24.9008  -19.4225   18.8332 C   0  0  0  0  0  0  0  0  0  0  0  0
  -26.3927  -17.4717   18.6280 C   0  0  0  0  0  0  0  0  0  0  0  0
  -20.5380  -28.8210   22.8918 C   0  0  1  0  0  0  0  0  0  0  0  0
  -23.1913  -27.7906   25.4081 C   0  0  1  0  0  0  0  0  0  0  0  0
  -26.2148  -17.1317   20.1177 C   0  0  2  0  0  0  0  0  0  0  0  0
  -28.0547  -20.4540   22.8017 C   0  0  0  0  0  0  0  0  0  0  0  0
  -29.7439  -29.3523   29.2328 C   0  0  0  0  0  0  0  0  0  0  0  0
  -32.3407  -20.6852   16.1395 C   0  0  0  0  0  0  0  0  0  0  0  0
  -32.5319  -22.1644   18.1344 C   0  0  0  0  0  0  0  0  0  0  0  0
  -31.1064  -19.3900   18.6485 C   0  0  0  0  0  0  0  0  0  0  0  0
  -25.8672  -31.3796   24.2596 C   0  0  0  0  0  0  0  0  0  0  0  0
  -28.0495  -31.5311   25.4773 C   0  0  0  0  0  0  0  0  0  0  0  0
  -25.9249  -32.1014   26.6534 C   0  0  0  0  0  0  0  0  0  0  0  0
  -27.8393  -26.0586   29.2399 C   0  0  0  0  0  0  0  0  0  0  0  0
  -27.6026  -24.0224   21.5775 C   0  0  0  0  0  0  0  0  0  1  0  0
  -29.0185  -21.5988   22.5040 C   0  0  0  0  0  0  0  0  0  0  0  0
  -29.4258  -20.0264   16.9035 C   0  0  0  0  0  0  0  0  0  0  0  0
  -26.4363  -29.6834   26.1210 C   0  0  1  0  0  0  0  0  0  0  0  0
  -28.5418  -28.4454   29.0200 C   0  0  2  0  0  0  0  0  0  0  0  0
  -31.5362  -21.4655   17.1918 C   0  0  0  0  0  0  0  0  0  0  0  0
  -30.4086  -20.6389   17.9854 C   0  0  1  0  0  0  0  0  0  0  0  0
  -26.5605  -31.1491   25.6172 C   0  0  0  0  0  0  0  0  0  0  0  0
  -29.0639  -22.6008   18.4031 N   0  0  0  0  0  0  0  0  0  0  0  0
  -25.3173  -14.8488   20.3738 N   0  0  0  0  0  0  0  0  0  0  0  0
  -29.6885  -21.1597   20.2307 N   0  0  0  0  0  0  0  0  0  0  0  0
  -26.3962  -15.6499   20.3901 N   0  0  0  0  0  0  0  0  0  0  0  0
  -24.6113  -28.1415   25.4763 N   0  0  0  0  0  0  0  0  0  0  0  0
  -26.2094  -18.9156   18.4130 N   0  0  0  0  0  0  0  0  0  0  0  0
  -28.7425  -15.6519   20.7149 N   0  0  0  0  0  0  0  0  0  0  0  0
  -27.6158  -11.3154   21.2822 N   0  0  0  0  0  0  0  0  0  0  0  0
  -21.2763  -28.2689   24.0074 N   0  0  0  0  0  0  0  0  0  0  0  0
  -27.0604  -29.4423   27.4175 N   0  0  0  0  0  0  0  0  0  0  0  0
  -28.3613  -19.2411   17.4873 N   0  0  0  0  0  0  0  0  0  0  0  0
  -28.9337  -27.0533   29.3801 N   0  3  0  0  0  0  0  0  0  0  0  0
  -29.3614  -12.8025   21.2935 O   0  0  0  0  0  0  0  0  0  0  0  0
  -23.3833  -29.0831   23.4414 O   0  0  0  0  0  0  0  0  0  0  0  0
  -24.2505  -29.8438   27.0281 O   0  0  0  0  0  0  0  0  0  0  0  0
  -28.5135  -27.7854   26.6960 O   0  0  0  0  0  0  0  0  0  0  0  0
  -26.9121  -21.0057   17.6948 O   0  0  0  0  0  0  0  0  0  0  0  0
  -22.4863   -9.1716   20.9253 O   0  0  0  0  0  0  0  0  0  0  0  0
  -26.3752  -23.3972   21.9502 O   0  0  0  0  0  0  0  0  0  1  0  0
  -23.2091   -5.6916   25.1409 F   0  0  0  0  0  0  0  0  0  0  0  0
  -24.9009   -7.8784   21.2988 F   0  0  0  0  0  0  0  0  0  0  0  0
  1  2  1  0  0  0  0
  1  5  2  0  0  0  0
  2  6  2  0  0  0  0
  3  8  2  0  0  0  0
  3 16  1  0  0  0  0
  4  9  1  0  0  0  0
  4 16  2  0  0  0  0
  5 18  1  0  0  0  0
  6 20  1  0  0  0  0
  7 10  2  0  0  0  0
  7 19  1  0  0  0  0
  8 23  1  0  0  0  0
  9 23  2  0  0  0  0
 10 24  1  0  0  0  0
 11 12  2  0  0  0  0
 11 25  1  0  0  0  0
 12 26  1  0  0  0  0
 13 21  1  0  0  0  0
 13 24  2  0  0  0  0
 14 26  2  0  0  0  0
 14 27  1  0  0  0  0
 15 22  1  0  0  0  0
 15 66  2  0  0  0  0
 16 28  1  0  0  0  0
 17 28  1  0  0  0  0
 17 30  2  0  0  0  0
 17 32  1  0  0  0  0
 18 20  2  0  0  0  0
 18 37  1  0  0  0  0
 19 21  2  0  0  0  0
 19 38  1  0  0  0  0
 20 46  1  0  0  0  0
 21 39  1  0  0  0  0
 22 29  2  0  0  0  0
 22 58  1  0  0  0  0
 23 83  1  0  0  0  0
 24 84  1  0  0  0  0
 25 27  2  0  0  0  0
 25 83  1  0  0  0  0
 26 85  1  0  0  0  0
 27 86  1  0  0  0  0
 28 67  2  0  0  0  0
 29 59  1  0  0  0  0
 29 68  1  0  0  0  0
 30 69  1  0  0  0  0
 30 72  1  0  0  0  0
 31 64  1  0  0  0  0
 31 66  1  0  0  0  0
 31 68  2  0  0  0  0
 32 73  1  0  0  0  0
 32 78  2  0  0  0  0
 33 47  1  0  0  0  0
 33 74  1  0  0  0  0
 33 79  2  0  0  0  0
 34 61  1  0  0  0  0
 34 70  1  0  0  0  0
 34 80  2  0  0  0  0
 35 62  1  0  0  0  0
 35 75  1  0  0  0  0
 35 81  2  0  0  0  0
 36 71  1  0  0  0  0
 36 76  1  0  0  0  0
 36 82  2  0  0  0  0
 37 40  1  0  0  0  0
 38 47  1  0  0  0  0
 39 70  1  0  0  0  0
 40 42  1  0  0  0  0
 41 43  1  0  0  0  0
 41 44  1  0  0  0  0
 42 46  1  0  0  0  0
 43 48  1  0  0  0  0
 44 71  1  0  0  0  0
 45 48  1  0  0  0  0
 45 71  1  0  0  0  0
 46 74  1  0  0  0  0
 47 70  1  0  0  0  0
 48 69  1  0  0  0  0
 49 59  1  0  0  0  0
 50 62  1  0  0  0  0
 51 63  1  0  0  0  0
 52 63  1  0  0  0  0
 53 64  1  0  0  0  0
 54 65  1  0  0  0  0
 55 65  1  0  0  0  0
 56 65  1  0  0  0  0
 57 77  1  0  0  0  0
 58 84  1  0  0  0  0
 60 64  1  0  0  0  0
 60 76  1  0  0  0  0
 61 65  1  0  0  0  0
 61 75  1  0  0  0  0
 62 77  1  0  0  0  0
 63 64  1  0  0  0  0
 67 69  1  0  0  0  0
M  CHG  1  77   1
M  ISO  4  36 100  58 101  76 100  84 101
M  END
> <Batch ID>
0069

> <Smiles>
CCc1nc(C(C)(C[100NH:0][100C:0](=O)N2CCCC(n3nc(-c4ccc(Oc5ccc(F)cc5F)cc4)c(C(N)=O)c3N)C2)C(C)C)ncc1[101CH2:1][101O:1]c1ccc2c(c1)CN(C(=O)C(NC(=O)C(C)NC)C(C)(C)C)C(C(=O)NC1CCCc3ccccc31)C2

> <Shape>
0.256

> <Color>
0.082

> <Negative vol penalty>
0.000

$$$$

  -OEChem-04052318173D

 93101  0     1  0  0  0  0  0999 V2000
  -23.8893  -30.9651   20.6629 C   0  0  0  0  0  0  0  0  0  0  0  0
  -24.4009  -29.8972   19.9327 C   0  0  0  0  0  0  0  0  0  0  0  0
  -23.1756   -9.7352   19.8980 C   0  0  0  0  0  0  0  0  0  0  0  0
  -23.9299   -9.7460   22.1933 C   0  0  0  0  0  0  0  0  0  0  0  0
  -24.6966  -31.6260   21.5878 C   0  0  0  0  0  0  0  0  0  0  0  0
  -25.7206  -29.4902   20.1262 C   0  0  0  0  0  0  0  0  0  0  0  0
  -27.8864  -23.7683   19.8522 C   0  0  0  0  0  0  0  0  0  0  0  0
  -22.4951   -8.5394   20.1273 C   0  0  0  0  0  0  0  0  0  0  0  0
  -23.2493   -8.5502   22.4225 C   0  0  0  0  0  0  0  0  0  0  0  0
  -28.5417  -23.0607   18.8454 C   0  0  0  0  0  0  0  0  0  0  0  0
  -20.0682   -7.5683   23.0034 C   0  0  0  0  0  0  0  0  0  0  0  0
  -19.3125   -7.4682   24.1714 C   0  0  0  0  0  0  0  0  0  0  0  0
  -30.6658  -23.6231   19.8410 C   0  0  0  0  0  0  0  0  0  0  0  0
  -20.6561   -5.5893   24.8797 C   0  0  0  0  0  0  0  0  0  0  0  0
  -30.5974  -18.2871   18.4736 C   0  0  0  0  0  0  0  0  0  0  0  0
  -23.8930  -10.3385   20.9310 C   0  0  0  0  0  0  0  0  0  0  0  0
  -24.0972  -12.8801   20.8529 C   0  0  0  0  0  0  0  0  0  0  0  0
  -26.0238  -31.2208   21.7997 C   0  0  0  0  0  0  0  0  0  0  0  0
  -28.6175  -24.4190   20.8564 C   0  0  0  0  0  0  0  0  0  0  0  0
  -26.5468  -30.1472   21.0538 C   0  0  0  0  0  0  0  0  0  0  0  0
  -30.0173  -24.3362   20.8608 C   0  0  0  0  0  0  0  0  0  0  0  0
  -22.5319   -7.9469   21.3895 C   0  0  0  0  0  0  0  0  0  0  0  0
  -29.9317  -22.9904   18.8381 C   0  0  0  0  0  0  0  0  0  0  0  0
  -21.1179   -6.6789   22.7734 C   0  0  0  0  0  0  0  0  0  0  0  0
  -19.6064   -6.4787   25.1096 C   0  0  0  0  0  0  0  0  0  0  0  0
  -21.4119   -5.6894   23.7116 C   0  0  0  0  0  0  0  0  0  0  0  0
  -24.5967  -11.5734   20.6947 C   0  0  0  0  0  0  0  0  0  0  0  0
  -30.9593  -18.3318   19.7904 C   0  0  0  0  0  0  0  0  0  0  0  0
  -25.1476  -13.6937   20.5047 C   0  0  0  0  0  0  0  0  0  0  0  0
  -32.8067  -18.3839   18.5720 C   0  0  0  0  0  0  0  0  0  0  0  0
  -22.7998  -13.3192   21.2767 C   0  0  0  0  0  0  0  0  0  0  0  0
  -28.9508  -27.4393   21.7892 C   0  0  0  0  0  0  0  0  0  0  0  0
  -30.6695  -26.0991   24.1918 C   0  0  0  0  0  0  0  0  0  0  0  0
  -32.5296  -23.4619   25.3017 C   0  0  0  0  0  0  0  0  0  0  0  0
  -30.5675  -15.0060   20.7243 C   0  0  0  0  0  0  0  0  0  0  0  0
  -26.8725  -31.9961   22.7761 C   0  0  0  0  0  0  0  0  0  0  0  0
  -27.8946  -25.1558   21.9504 C   0  0  0  0  0  0  0  0  0  0  0  0
  -30.8476  -25.0001   21.9277 C   0  0  0  0  0  0  0  0  0  0  0  0
  -28.1456  -31.2636   23.1920 C   0  0  0  0  0  0  0  0  0  0  0  0
  -29.5656  -12.6025   18.2961 C   0  0  0  0  0  0  0  0  0  0  0  0
  -28.8524  -30.6858   21.9700 C   0  0  0  0  0  0  0  0  0  0  0  0
  -28.1454  -12.2241   18.7204 C   0  0  0  0  0  0  0  0  0  0  0  0
  -30.4672  -12.8532   19.5029 C   0  0  0  0  0  0  0  0  0  0  0  0
  -28.5260  -13.4571   20.8961 C   0  0  0  0  0  0  0  0  0  0  0  0
  -27.9657  -29.6604   21.2533 C   0  0  1  0  0  0  0  0  0  0  0  0
  -28.7597  -26.2109   22.6330 C   0  0  1  0  0  0  0  0  0  0  0  0
  -27.5649  -13.2491   19.7131 C   0  0  2  0  0  0  0  0  0  0  0  0
  -33.8332  -22.6710   27.2948 C   0  0  0  0  0  0  0  0  0  0  0  0
  -32.9503  -20.7690   14.4163 C   0  0  0  0  0  0  0  0  0  0  0  0
  -31.2966  -16.9583   15.6934 C   0  0  0  0  0  0  0  0  0  0  0  0
  -28.5891  -18.2535   20.8261 C   0  0  0  0  0  0  0  0  0  0  0  0
  -30.3732  -19.6411   21.8495 C   0  0  0  0  0  0  0  0  0  0  0  0
  -34.5577  -19.6925   17.3199 C   0  0  0  0  0  0  0  0  0  0  0  0
  -34.6650  -17.1781   17.3720 C   0  0  0  0  0  0  0  0  0  0  0  0
  -35.2545  -18.5050   19.3902 C   0  0  0  0  0  0  0  0  0  0  0  0
  -32.9454  -27.9916   23.4511 C   0  0  0  0  0  0  0  0  0  0  0  0
  -34.4905  -26.5449   24.7883 C   0  0  0  0  0  0  0  0  0  0  0  0
  -32.5866  -27.7032   25.9093 C   0  0  0  0  0  0  0  0  0  0  0  0
  -30.1462  -22.0695   14.1017 C   0  0  0  0  0  0  0  0  0  0  0  0
  -31.8318  -23.3822   15.3617 C   0  0  0  0  0  0  0  0  0  0  0  0
  -30.7749  -21.1057   25.6599 C   0  0  0  0  0  0  0  0  0  0  0  0
  -31.0984  -19.4745   15.5494 C   0  0  0  0  0  0  0  0  0  0  0  0
  -30.5141  -17.1365   21.9961 C   0  0  0  0  0  0  0  0  0  0  0  0
  -29.9407  -22.2380   16.5820 C   0  0  0  0  0  0  0  0  0  1  0  0
  -32.1203  -25.7340   24.3937 C   0  0  1  0  0  0  0  0  0  0  0  0
  -32.4825  -22.6699   26.5959 C   0  0  2  0  0  0  0  0  0  0  0  0
  -31.8770  -20.8209   15.5194 C   0  0  2  0  0  0  0  0  0  0  0  0
  -31.8393  -18.2923   16.2257 C   0  0  1  0  0  0  0  0  0  0  0  0
  -30.1561  -18.3247   21.0158 C   0  0  0  0  0  0  0  0  0  0  0  0
  -34.2414  -18.4371   18.1955 C   0  0  0  0  0  0  0  0  0  0  0  0
  -33.0204  -26.9824   24.6143 C   0  0  0  0  0  0  0  0  0  0  0  0
  -30.9566  -22.1067   15.4218 C   0  0  0  0  0  0  0  0  0  0  0  0
  -25.8656  -11.5533   20.2783 N   0  0  0  0  0  0  0  0  0  0  0  0
  -31.7602  -18.3212   17.7423 N   0  0  0  0  0  0  0  0  0  0  0  0
  -26.1724  -12.8574   20.1718 N   0  0  0  0  0  0  0  0  0  0  0  0
  -32.3317  -18.3910   19.8216 N   0  3  0  0  0  0  0  0  0  0  0  0
  -30.0947  -25.7140   22.9723 N   0  0  0  0  0  0  0  0  0  0  0  0
  -29.8599  -13.8357   20.4039 N   0  0  0  0  0  0  0  0  0  0  0  0
  -25.2855  -15.0356   20.4539 N   0  0  0  0  0  0  0  0  0  0  0  0
  -21.8382  -12.3510   21.5965 N   0  0  0  0  0  0  0  0  0  0  0  0
  -27.9736  -28.4003   21.9650 N   0  0  0  0  0  0  0  0  0  0  0  0
  -32.1506  -24.7740   25.4918 N   0  0  0  0  0  0  0  0  0  0  0  0
  -29.9172  -15.8870   21.5797 N   0  0  0  0  0  0  0  0  0  0  0  0
  -32.0949  -21.2567   26.3246 N   0  3  0  0  0  0  0  0  0  0  0  0
  -22.4969  -14.5340   21.3534 O   0  0  0  0  0  0  0  0  0  0  0  0
  -29.9145  -27.5107   21.0355 O   0  0  0  0  0  0  0  0  0  0  0  0
  -30.0663  -26.6975   25.0861 O   0  0  0  0  0  0  0  0  0  0  0  0
  -32.8721  -22.9671   24.2301 O   0  0  0  0  0  0  0  0  0  0  0  0
  -31.6930  -15.2504   20.2766 O   0  0  0  0  0  0  0  0  0  0  0  0
  -21.8678   -6.7801   21.6136 O   0  0  0  0  0  0  0  0  0  0  0  0
  -30.5789  -22.2954   17.8485 O   0  0  0  0  0  0  0  0  0  1  0  0
  -18.8816   -6.3837   26.2320 F   0  0  0  0  0  0  0  0  0  0  0  0
  -22.4198   -4.8329   23.4967 F   0  0  0  0  0  0  0  0  0  0  0  0
  1  2  1  0  0  0  0
  1  5  2  0  0  0  0
  2  6  2  0  0  0  0
  3  8  2  0  0  0  0
  3 16  1  0  0  0  0
  4  9  1  0  0  0  0
  4 16  2  0  0  0  0
  5 18  1  0  0  0  0
  6 20  1  0  0  0  0
  7 10  2  0  0  0  0
  7 19  1  0  0  0  0
  8 22  1  0  0  0  0
  9 22  2  0  0  0  0
 10 23  1  0  0  0  0
 11 12  2  0  0  0  0
 11 24  1  0  0  0  0
 12 25  1  0  0  0  0
 13 21  1  0  0  0  0
 13 23  2  0  0  0  0
 14 25  2  0  0  0  0
 14 26  1  0  0  0  0
 15 28  2  0  0  0  0
 15 74  1  0  0  0  0
 16 27  1  0  0  0  0
 17 27  1  0  0  0  0
 17 29  2  0  0  0  0
 17 31  1  0  0  0  0
 18 20  2  0  0  0  0
 18 36  1  0  0  0  0
 19 21  2  0  0  0  0
 19 37  1  0  0  0  0
 20 45  1  0  0  0  0
 21 38  1  0  0  0  0
 22 90  1  0  0  0  0
 23 91  1  0  0  0  0
 24 26  2  0  0  0  0
 24 90  1  0  0  0  0
 25 92  1  0  0  0  0
 26 93  1  0  0  0  0
 27 73  2  0  0  0  0
 28 69  1  0  0  0  0
 28 76  1  0  0  0  0
 29 75  1  0  0  0  0
 29 79  1  0  0  0  0
 30 70  1  0  0  0  0
 30 74  1  0  0  0  0
 30 76  2  0  0  0  0
 31 80  1  0  0  0  0
 31 85  2  0  0  0  0
 32 46  1  0  0  0  0
 32 81  1  0  0  0  0
 32 86  2  0  0  0  0
 33 65  1  0  0  0  0
 33 77  1  0  0  0  0
 33 87  2  0  0  0  0
 34 66  1  0  0  0  0
 34 82  1  0  0  0  0
 34 88  2  0  0  0  0
 35 78  1  0  0  0  0
 35 83  1  0  0  0  0
 35 89  2  0  0  0  0
 36 39  1  0  0  0  0
 37 46  1  0  0  0  0
 38 77  1  0  0  0  0
 39 41  1  0  0  0  0
 40 42  1  0  0  0  0
 40 43  1  0  0  0  0
 41 45  1  0  0  0  0
 42 47  1  0  0  0  0
 43 78  1  0  0  0  0
 44 47  1  0  0  0  0
 44 78  1  0  0  0  0
 45 81  1  0  0  0  0
 46 77  1  0  0  0  0
 47 75  1  0  0  0  0
 48 66  1  0  0  0  0
 49 67  1  0  0  0  0
 50 68  1  0  0  0  0
 51 69  1  0  0  0  0
 52 69  1  0  0  0  0
 53 70  1  0  0  0  0
 54 70  1  0  0  0  0
 55 70  1  0  0  0  0
 56 71  1  0  0  0  0
 57 71  1  0  0  0  0
 58 71  1  0  0  0  0
 59 72  1  0  0  0  0
 60 72  1  0  0  0  0
 61 84  1  0  0  0  0
 62 67  1  0  0  0  0
 62 68  1  0  0  0  0
 63 69  1  0  0  0  0
 63 83  1  0  0  0  0
 64 72  1  0  0  0  0
 64 91  1  0  0  0  0
 65 71  1  0  0  0  0
 65 82  1  0  0  0  0
 66 84  1  0  0  0  0
 67 72  1  0  0  0  0
 68 74  1  0  0  0  0
 73 75  1  0  0  0  0
M  CHG  2  76   1  84   1
M  ISO  4  35 100  64 101  83 100  91 101
M  END
> <Batch ID>
0069

> <Smiles>
CNC(C)C(=O)NC(C(=O)N1Cc2cc([101O:1][101CH2:1]C(C)(C)C(C)CC(C)n3cc(C(C)(C)C[100NH:0][100C:0](=O)N4CCCC(n5nc(-c6ccc(Oc7ccc(F)cc7F)cc6)c(C(N)=O)c5N)C4)nc3C(C)(C)C)ccc2CC1C(=O)NC1CCCc2ccccc21)C(C)(C)C

> <Shape>
0.295

> <Color>
0.182

> <Negative vol penalty>
0.000

$$$$

  -OEChem-04052318173D

 85 93  0     1  0  0  0  0  0999 V2000
  -37.4893  -15.9759   23.4491 C   0  0  0  0  0  0  0  0  0  0  0  0
  -36.5669  -16.6961   22.6968 C   0  0  0  0  0  0  0  0  0  0  0  0
  -19.1181  -27.3136   21.5176 C   0  0  0  0  0  0  0  0  0  0  0  0
  -18.9337  -27.3923   23.9252 C   0  0  0  0  0  0  0  0  0  0  0  0
  -37.4067  -14.5852   23.5059 C   0  0  0  0  0  0  0  0  0  0  0  0
  -35.5620  -16.0261   22.0000 C   0  0  0  0  0  0  0  0  0  0  0  0
  -31.0298  -18.2202   22.5383 C   0  0  0  0  0  0  0  0  0  0  0  0
  -17.8053  -27.7706   21.4020 C   0  0  0  0  0  0  0  0  0  0  0  0
  -17.6209  -27.8494   23.8097 C   0  0  0  0  0  0  0  0  0  0  0  0
  -30.7822  -19.3642   21.7809 C   0  0  0  0  0  0  0  0  0  0  0  0
  -14.3409  -29.3810   24.1472 C   0  0  0  0  0  0  0  0  0  0  0  0
  -13.9503  -30.4456   24.9592 C   0  0  0  0  0  0  0  0  0  0  0  0
  -29.5399  -18.0377   20.1946 C   0  0  0  0  0  0  0  0  0  0  0  0
  -15.6572  -31.8336   23.9606 C   0  0  0  0  0  0  0  0  0  0  0  0
  -26.1481  -22.9527   20.0972 C   0  0  0  0  0  0  0  0  0  0  0  0
  -24.7235  -22.6984   17.8355 C   0  0  0  0  0  0  0  0  0  0  0  0
  -19.6823  -27.1244   22.7792 C   0  0  0  0  0  0  0  0  0  0  0  0
  -22.2079  -27.4322   22.9634 C   0  0  0  0  0  0  0  0  0  0  0  0
  -36.3944  -13.8984   22.8172 C   0  0  0  0  0  0  0  0  0  0  0  0
  -30.5428  -16.9724   22.1232 C   0  0  0  0  0  0  0  0  0  0  0  0
  -35.4666  -14.6248   22.0465 C   0  0  0  0  0  0  0  0  0  0  0  0
  -29.7806  -16.8798   20.9499 C   0  0  0  0  0  0  0  0  0  0  0  0
  -17.0567  -28.0386   22.5481 C   0  0  0  0  0  0  0  0  0  0  0  0
  -30.0397  -19.2726   20.6073 C   0  0  0  0  0  0  0  0  0  0  0  0
  -15.3897  -29.5425   23.2418 C   0  0  0  0  0  0  0  0  0  0  0  0
  -14.6084  -31.6719   24.8659 C   0  0  0  0  0  0  0  0  0  0  0  0
  -16.0478  -30.7688   23.1485 C   0  0  0  0  0  0  0  0  0  0  0  0
  -21.0381  -26.6517   22.8991 C   0  0  0  0  0  0  0  0  0  0  0  0
  -25.0786  -22.0866   19.9957 C   0  0  0  0  0  0  0  0  0  0  0  0
  -26.4379  -23.6794   18.9605 C   0  0  0  0  0  0  0  0  0  0  0  0
  -23.2260  -26.5167   23.0722 C   0  0  0  0  0  0  0  0  0  0  0  0
  -22.3606  -28.8574   22.9281 C   0  0  0  0  0  0  0  0  0  0  0  0
  -24.6776  -21.2626   21.1433 C   0  0  0  0  0  0  0  0  0  0  0  0
  -31.8742  -14.2095   21.2883 C   0  0  0  0  0  0  0  0  0  0  0  0
  -28.7943  -13.1940   21.2155 C   0  0  0  0  0  0  0  0  0  0  0  0
  -25.4902  -13.9837   20.8904 C   0  0  0  0  0  0  0  0  0  0  0  0
  -36.3740  -12.3913   22.8705 C   0  0  0  0  0  0  0  0  0  0  0  0
  -30.7958  -15.7522   22.9655 C   0  0  0  0  0  0  0  0  0  0  0  0
  -29.2180  -15.5672   20.4713 C   0  0  0  0  0  0  0  0  0  0  0  0
  -35.0532  -11.7832   22.4058 C   0  0  0  0  0  0  0  0  0  0  0  0
  -23.5418  -21.7898   24.4860 C   0  0  0  0  0  0  0  0  0  0  0  0
  -34.5941  -12.4344   21.1050 C   0  0  0  0  0  0  0  0  0  0  0  0
  -22.8747  -23.1651   24.4239 C   0  0  0  0  0  0  0  0  0  0  0  0
  -23.3271  -21.0006   23.1970 C   0  0  0  0  0  0  0  0  0  0  0  0
  -23.0706  -23.0896   21.9027 C   0  0  0  0  0  0  0  0  0  0  0  0
  -34.3472  -13.9357   21.2968 C   0  0  1  0  0  0  0  0  0  0  0  0
  -30.6877  -14.4499   22.1783 C   0  0  1  0  0  0  0  0  0  0  0  0
  -23.3061  -23.9378   23.1633 C   0  0  1  0  0  0  0  0  0  0  0  0
  -23.2105  -12.9361   20.8357 C   0  0  0  0  0  0  0  0  0  0  0  0
  -27.3376  -25.7344   20.0696 C   0  0  0  0  0  0  0  0  0  0  0  0
  -27.7904  -25.4523   17.6483 C   0  0  0  0  0  0  0  0  0  0  0  0
  -29.3169  -12.2109   18.3746 C   0  0  0  0  0  0  0  0  0  0  0  0
  -26.8395  -12.0601   18.0457 C   0  0  0  0  0  0  0  0  0  0  0  0
  -27.9530  -10.6572   19.7819 C   0  0  0  0  0  0  0  0  0  0  0  0
  -31.1079  -21.2831   17.4187 C   0  0  0  0  0  0  0  0  0  0  0  0
  -31.9087  -23.2894   18.6741 C   0  0  0  0  0  0  0  0  0  0  0  0
  -24.6066  -15.5054   23.2701 C   0  0  0  0  0  0  0  0  0  0  0  0
  -28.9601  -23.9579   19.3227 C   0  0  0  0  0  0  0  0  0  0  0  0
  -29.4157  -22.9020   18.2978 C   0  0  0  0  0  0  0  0  0  0  0  0
  -30.7780  -21.4219   19.9065 C   0  0  0  0  0  0  0  0  0  1  0  0
  -27.7096  -13.1441   20.1668 C   0  0  1  0  0  0  0  0  0  0  0  0
  -24.2742  -13.5855   21.7073 C   0  0  2  0  0  0  0  0  0  0  0  0
  -27.6137  -24.6739   18.9742 C   0  0  0  0  0  0  0  0  0  0  0  0
  -27.9669  -12.0426   19.1000 C   0  0  0  0  0  0  0  0  0  0  0  0
  -30.7912  -22.2348   18.5932 C   0  0  0  0  0  0  0  0  0  0  0  0
  -24.3415  -21.9337   18.8760 N   0  0  0  0  0  0  0  0  0  0  0  0
  -25.7438  -23.5770   17.8081 N   0  0  0  0  0  0  0  0  0  0  0  0
  -21.2885  -25.3412   22.9617 N   0  0  0  0  0  0  0  0  0  0  0  0
  -22.6274  -25.2912   23.0663 N   0  0  0  0  0  0  0  0  0  0  0  0
  -23.7382  -21.7869   22.0344 N   0  0  0  0  0  0  0  0  0  0  0  0
  -29.4979  -14.4016   21.3261 N   0  0  0  0  0  0  0  0  0  0  0  0
  -24.5659  -26.6484   23.1712 N   0  0  0  0  0  0  0  0  0  0  0  0
  -21.2104  -29.6500   22.8133 N   0  0  0  0  0  0  0  0  0  0  0  0
  -33.0806  -14.1589   21.9603 N   0  0  0  0  0  0  0  0  0  0  0  0
  -26.4506  -12.9944   20.8886 N   0  0  0  0  0  0  0  0  0  0  0  0
  -23.6770  -14.7823   22.3645 N   0  3  0  0  0  0  0  0  0  0  0  0
  -23.4851  -29.4110   22.9797 O   0  0  0  0  0  0  0  0  0  0  0  0
  -25.2188  -20.1620   21.2376 O   0  0  0  0  0  0  0  0  0  0  0  0
  -31.7074  -14.0781   20.0814 O   0  0  0  0  0  0  0  0  0  0  0  0
  -29.0047  -12.2004   21.9157 O   0  0  0  0  0  0  0  0  0  0  0  0
  -25.5776  -15.0629   20.3088 O   0  0  0  0  0  0  0  0  0  0  0  0
  -15.7758  -28.4848   22.4357 O   0  0  0  0  0  0  0  0  0  0  0  0
  -29.7954  -20.3954   19.8605 O   0  0  0  0  0  0  0  0  0  1  0  0
  -14.2321  -32.6947   25.6447 F   0  0  0  0  0  0  0  0  0  0  0  0
  -17.0553  -30.9305   22.2798 F   0  0  0  0  0  0  0  0  0  0  0  0
  1  2  1  0  0  0  0
  1  5  2  0  0  0  0
  2  6  2  0  0  0  0
  3  8  2  0  0  0  0
  3 17  1  0  0  0  0
  4  9  1  0  0  0  0
  4 17  2  0  0  0  0
  5 19  1  0  0  0  0
  6 21  1  0  0  0  0
  7 10  2  0  0  0  0
  7 20  1  0  0  0  0
  8 23  1  0  0  0  0
  9 23  2  0  0  0  0
 10 24  1  0  0  0  0
 11 12  2  0  0  0  0
 11 25  1  0  0  0  0
 12 26  1  0  0  0  0
 13 22  1  0  0  0  0
 13 24  2  0  0  0  0
 14 26  2  0  0  0  0
 14 27  1  0  0  0  0
 15 29  2  0  0  0  0
 15 30  1  0  0  0  0
 16 66  2  0  0  0  0
 16 67  1  0  0  0  0
 17 28  1  0  0  0  0
 18 28  1  0  0  0  0
 18 31  2  0  0  0  0
 18 32  1  0  0  0  0
 19 21  2  0  0  0  0
 19 37  1  0  0  0  0
 20 22  2  0  0  0  0
 20 38  1  0  0  0  0
 21 46  1  0  0  0  0
 22 39  1  0  0  0  0
 23 82  1  0  0  0  0
 24 83  1  0  0  0  0
 25 27  2  0  0  0  0
 25 82  1  0  0  0  0
 26 84  1  0  0  0  0
 27 85  1  0  0  0  0
 28 68  2  0  0  0  0
 29 33  1  0  0  0  0
 29 66  1  0  0  0  0
 30 63  1  0  0  0  0
 30 67  2  0  0  0  0
 31 69  1  0  0  0  0
 31 72  1  0  0  0  0
 32 73  1  0  0  0  0
 32 77  2  0  0  0  0
 33 70  1  0  0  0  0
 33 78  2  0  0  0  0
 34 47  1  0  0  0  0
 34 74  1  0  0  0  0
 34 79  2  0  0  0  0
 35 61  1  0  0  0  0
 35 71  1  0  0  0  0
 35 80  2  0  0  0  0
 36 62  1  0  0  0  0
 36 75  1  0  0  0  0
 36 81  2  0  0  0  0
 37 40  1  0  0  0  0
 38 47  1  0  0  0  0
 39 71  1  0  0  0  0
 40 42  1  0  0  0  0
 41 43  1  0  0  0  0
 41 44  1  0  0  0  0
 42 46  1  0  0  0  0
 43 48  1  0  0  0  0
 44 70  1  0  0  0  0
 45 48  1  0  0  0  0
 45 70  1  0  0  0  0
 46 74  1  0  0  0  0
 47 71  1  0  0  0  0
 48 69  1  0  0  0  0
 49 62  1  0  0  0  0
 50 63  1  0  0  0  0
 51 63  1  0  0  0  0
 52 64  1  0  0  0  0
 53 64  1  0  0  0  0
 54 64  1  0  0  0  0
 55 65  1  0  0  0  0
 56 65  1  0  0  0  0
 57 76  1  0  0  0  0
 58 59  1  0  0  0  0
 58 63  1  0  0  0  0
 59 65  1  0  0  0  0
 60 65  1  0  0  0  0
 60 83  1  0  0  0  0
 61 64  1  0  0  0  0
 61 75  1  0  0  0  0
 62 76  1  0  0  0  0
 68 69  1  0  0  0  0
M  CHG  1  76   1
M  ISO  4  29 100  33 100  60 101  83 101
M  END
> <Batch ID>
0069

> <Smiles>
CNC(C)C(=O)NC(C(=O)N1Cc2cc([101O:1][101CH2:1]C(C)(C)CCC(C)(C)c3c[100c:0]([100C:0](=O)N4CCCC(n5nc(-c6ccc(Oc7ccc(F)cc7F)cc6)c(C(N)=O)c5N)C4)ncn3)ccc2CC1C(=O)NC1CCCc2ccccc21)C(C)(C)C

> <Shape>
0.226

> <Color>
0.078

> <Negative vol penalty>
0.000

$$$$

  -OEChem-04052318173D

 92100  0     1  0  0  0  0  0999 V2000
  -26.5907  -38.8403   20.9506 C   0  0  0  0  0  0  0  0  0  0  0  0
  -26.7926  -37.8190   20.0278 C   0  0  0  0  0  0  0  0  0  0  0  0
  -26.4414  -12.2359   21.6680 C   0  0  0  0  0  0  0  0  0  0  0  0
  -25.9550  -13.2831   19.5458 C   0  0  0  0  0  0  0  0  0  0  0  0
  -26.6408  -38.5643   22.3163 C   0  0  0  0  0  0  0  0  0  0  0  0
  -27.0458  -36.5211   20.4704 C   0  0  0  0  0  0  0  0  0  0  0  0
  -25.8987  -29.6840   18.6662 C   0  0  0  0  0  0  0  0  0  0  0  0
  -25.2179  -11.5678   21.6188 C   0  0  0  0  0  0  0  0  0  0  0  0
  -24.7315  -12.6150   19.4966 C   0  0  0  0  0  0  0  0  0  0  0  0
  -26.5914  -28.4887   18.4791 C   0  0  0  0  0  0  0  0  0  0  0  0
  -23.9203   -8.8574   20.0687 C   0  0  0  0  0  0  0  0  0  0  0  0
  -23.9087   -7.5013   20.3947 C   0  0  0  0  0  0  0  0  0  0  0  0
  -26.5763  -28.1141   20.8621 C   0  0  0  0  0  0  0  0  0  0  0  0
  -22.3705   -7.9492   22.2031 C   0  0  0  0  0  0  0  0  0  0  0  0
  -26.8099  -13.0936   20.6315 C   0  0  0  0  0  0  0  0  0  0  0  0
  -29.3085  -13.3354   20.1772 C   0  0  0  0  0  0  0  0  0  0  0  0
  -26.8851  -37.2606   22.7758 C   0  0  0  0  0  0  0  0  0  0  0  0
  -25.5485  -30.1095   19.9556 C   0  0  0  0  0  0  0  0  0  0  0  0
  -27.1005  -36.2276   21.8436 C   0  0  0  0  0  0  0  0  0  0  0  0
  -25.8769  -29.3140   21.0626 C   0  0  0  0  0  0  0  0  0  0  0  0
  -24.3630  -11.7574   20.5331 C   0  0  0  0  0  0  0  0  0  0  0  0
  -26.9329  -27.7049   19.5774 C   0  0  0  0  0  0  0  0  0  0  0  0
  -23.1571   -9.7595   20.8100 C   0  0  0  0  0  0  0  0  0  0  0  0
  -23.1338   -7.0471   21.4618 C   0  0  0  0  0  0  0  0  0  0  0  0
  -22.3822   -9.3054   21.8772 C   0  0  0  0  0  0  0  0  0  0  0  0
  -28.0734  -13.7844   20.6820 C   0  0  0  0  0  0  0  0  0  0  0  0
  -30.1888  -14.3472   20.4737 C   0  0  0  0  0  0  0  0  0  0  0  0
  -28.9852  -18.3755   17.3240 C   0  0  0  0  0  0  0  0  0  0  0  0
  -29.2118  -20.1108   18.4617 C   0  0  0  0  0  0  0  0  0  0  0  0
  -29.6311  -12.1132   19.5006 C   0  0  0  0  0  0  0  0  0  0  0  0
  -26.2594  -32.6307   21.7561 C   0  0  0  0  0  0  0  0  0  0  0  0
  -24.0615  -31.3318   23.7573 C   0  0  0  0  0  0  0  0  0  0  0  0
  -31.3872  -19.8093   20.6118 C   0  0  0  0  0  0  0  0  0  0  0  0
  -22.3866  -28.5504   24.8087 C   0  0  0  0  0  0  0  0  0  0  0  0
  -26.9769  -37.0198   24.2618 C   0  0  0  0  0  0  0  0  0  0  0  0
  -24.7779  -31.3882   20.1383 C   0  0  0  0  0  0  0  0  0  0  0  0
  -25.5063  -29.7160   22.4660 C   0  0  0  0  0  0  0  0  0  0  0  0
  -26.8788  -35.5461   24.6473 C   0  0  0  0  0  0  0  0  0  0  0  0
  -29.6747  -18.4091   23.4308 C   0  0  0  0  0  0  0  0  0  0  0  0
  -27.7798  -34.6995   23.7538 C   0  0  0  0  0  0  0  0  0  0  0  0
  -29.1810  -17.0577   22.9160 C   0  0  0  0  0  0  0  0  0  0  0  0
  -29.6457  -19.4689   22.3339 C   0  0  0  0  0  0  0  0  0  0  0  0
  -29.9103  -17.7381   20.5857 C   0  0  0  0  0  0  0  0  0  0  0  0
  -27.3532  -34.8022   22.2845 C   0  0  1  0  0  0  0  0  0  0  0  0
  -24.9234  -31.9789   21.5374 C   0  0  1  0  0  0  0  0  0  0  0  0
  -29.9524  -16.6315   21.6543 C   0  0  2  0  0  0  0  0  0  0  0  0
  -20.6808  -27.7951   26.4871 C   0  0  0  0  0  0  0  0  0  0  0  0
  -26.7951  -17.2349   16.7061 C   0  0  0  0  0  0  0  0  0  0  0  0
  -28.8316  -15.8813   16.8387 C   0  0  0  0  0  0  0  0  0  0  0  0
  -32.1443  -21.0631   18.6175 C   0  0  0  0  0  0  0  0  0  0  0  0
  -32.7220  -18.6574   18.9391 C   0  0  0  0  0  0  0  0  0  0  0  0
  -26.1724  -31.4599   25.9568 C   0  0  0  0  0  0  0  0  0  0  0  0
  -24.7779  -29.8657   27.2917 C   0  0  0  0  0  0  0  0  0  0  0  0
  -23.8685  -32.1074   26.6830 C   0  0  0  0  0  0  0  0  0  0  0  0
  -30.1284  -17.5566   14.5278 C   0  0  0  0  0  0  0  0  0  0  0  0
  -28.0592  -18.9117   14.3017 C   0  0  0  0  0  0  0  0  0  0  0  0
  -27.9633  -16.4442   14.0341 C   0  0  0  0  0  0  0  0  0  0  0  0
  -25.8672  -22.8368   20.9917 C   0  0  0  0  0  0  0  0  0  0  0  0
  -28.2373  -22.9198   21.7791 C   0  0  0  0  0  0  0  0  0  0  0  0
  -20.5200  -27.6692   22.6878 C   0  0  0  0  0  0  0  0  0  0  0  0
  -29.0483  -21.4225   19.1913 C   0  0  0  0  0  0  0  0  0  0  0  0
  -27.6106  -21.6044   19.6969 C   0  0  0  0  0  0  0  0  0  0  0  0
  -27.5830  -24.1540   19.6553 C   0  0  0  0  0  0  0  0  0  0  0  0
  -27.3767  -25.4992   20.3480 C   0  0  0  0  0  0  0  0  0  1  0  0
  -24.1049  -30.3379   24.8927 C   0  0  1  0  0  0  0  0  0  0  0  0
  -20.9124  -28.3018   25.0720 C   0  0  2  0  0  0  0  0  0  0  0  0
  -28.3638  -17.3566   16.4698 C   0  0  0  0  0  0  0  0  0  0  0  0
  -31.6127  -19.7104   19.1241 C   0  0  0  0  0  0  0  0  0  0  0  0
  -24.7398  -30.9358   26.1799 C   0  0  0  0  0  0  0  0  0  0  0  0
  -28.6161  -17.5787   14.8627 C   0  0  0  0  0  0  0  0  0  0  0  0
  -27.3386  -22.8946   20.5289 C   0  0  0  0  0  0  0  0  0  0  0  0
  -28.1575  -14.9875   21.2559 N   0  0  0  0  0  0  0  0  0  0  0  0
  -28.3088  -19.4852   17.7429 N   0  0  0  0  0  0  0  0  0  0  0  0
  -30.2499  -18.2750   17.7385 N   0  0  0  0  0  0  0  0  0  0  0  0
  -29.4561  -15.3032   21.1135 N   0  0  0  0  0  0  0  0  0  0  0  0
  -30.3696  -19.3972   18.4641 N   0  0  0  0  0  0  0  0  0  0  0  0
  -24.7586  -30.9779   22.5934 N   0  0  0  0  0  0  0  0  0  0  0  0
  -30.3701  -19.0171   21.1446 N   0  0  0  0  0  0  0  0  0  0  0  0
  -31.5104  -14.5034   20.2470 N   0  0  0  0  0  0  0  0  0  0  0  0
  -28.6071  -11.1828   19.2771 N   0  0  0  0  0  0  0  0  0  0  0  0
  -26.1869  -33.9815   22.0383 N   0  0  0  0  0  0  0  0  0  0  0  0
  -22.7382  -29.8583   25.0678 N   0  0  0  0  0  0  0  0  0  0  0  0
  -20.3792  -27.2895   24.1171 N   0  3  0  0  0  0  0  0  0  0  0  0
  -30.7965  -11.8467   19.1205 O   0  0  0  0  0  0  0  0  0  0  0  0
  -27.2803  -31.9577   21.6764 O   0  0  0  0  0  0  0  0  0  0  0  0
  -23.4265  -32.3803   23.8953 O   0  0  0  0  0  0  0  0  0  0  0  0
  -32.0969  -20.5663   21.2793 O   0  0  0  0  0  0  0  0  0  0  0  0
  -23.1506  -27.6714   24.4162 O   0  0  0  0  0  0  0  0  0  0  0  0
  -23.1691  -11.1055   20.4846 O   0  0  0  0  0  0  0  0  0  0  0  0
  -27.6096  -26.5380   19.3978 O   0  0  0  0  0  0  0  0  0  1  0  0
  -23.1215   -5.7445   21.7738 F   0  0  0  0  0  0  0  0  0  0  0  0
  -21.6460  -10.1670   22.5922 F   0  0  0  0  0  0  0  0  0  0  0  0
  1  2  1  0  0  0  0
  1  5  2  0  0  0  0
  2  6  2  0  0  0  0
  3  8  2  0  0  0  0
  3 15  1  0  0  0  0
  4  9  1  0  0  0  0
  4 15  2  0  0  0  0
  5 17  1  0  0  0  0
  6 19  1  0  0  0  0
  7 10  2  0  0  0  0
  7 18  1  0  0  0  0
  8 21  1  0  0  0  0
  9 21  2  0  0  0  0
 10 22  1  0  0  0  0
 11 12  2  0  0  0  0
 11 23  1  0  0  0  0
 12 24  1  0  0  0  0
 13 20  1  0  0  0  0
 13 22  2  0  0  0  0
 14 24  2  0  0  0  0
 14 25  1  0  0  0  0
 15 26  1  0  0  0  0
 16 26  1  0  0  0  0
 16 27  2  0  0  0  0
 16 30  1  0  0  0  0
 17 19  2  0  0  0  0
 17 35  1  0  0  0  0
 18 20  2  0  0  0  0
 18 36  1  0  0  0  0
 19 44  1  0  0  0  0
 20 37  1  0  0  0  0
 21 89  1  0  0  0  0
 22 90  1  0  0  0  0
 23 25  2  0  0  0  0
 23 89  1  0  0  0  0
 24 91  1  0  0  0  0
 25 92  1  0  0  0  0
 26 72  2  0  0  0  0
 27 75  1  0  0  0  0
 27 79  1  0  0  0  0
 28 67  1  0  0  0  0
 28 73  1  0  0  0  0
 28 74  2  0  0  0  0
 29 61  1  0  0  0  0
 29 73  2  0  0  0  0
 29 76  1  0  0  0  0
 30 80  1  0  0  0  0
 30 84  2  0  0  0  0
 31 45  1  0  0  0  0
 31 81  1  0  0  0  0
 31 85  2  0  0  0  0
 32 65  1  0  0  0  0
 32 77  1  0  0  0  0
 32 86  2  0  0  0  0
 33 68  1  0  0  0  0
 33 78  1  0  0  0  0
 33 87  2  0  0  0  0
 34 66  1  0  0  0  0
 34 82  1  0  0  0  0
 34 88  2  0  0  0  0
 35 38  1  0  0  0  0
 36 45  1  0  0  0  0
 37 77  1  0  0  0  0
 38 40  1  0  0  0  0
 39 41  1  0  0  0  0
 39 42  1  0  0  0  0
 40 44  1  0  0  0  0
 41 46  1  0  0  0  0
 42 78  1  0  0  0  0
 43 46  1  0  0  0  0
 43 78  1  0  0  0  0
 44 81  1  0  0  0  0
 45 77  1  0  0  0  0
 46 75  1  0  0  0  0
 47 66  1  0  0  0  0
 48 67  1  0  0  0  0
 49 67  1  0  0  0  0
 50 68  1  0  0  0  0
 51 68  1  0  0  0  0
 52 69  1  0  0  0  0
 53 69  1  0  0  0  0
 54 69  1  0  0  0  0
 55 70  1  0  0  0  0
 56 70  1  0  0  0  0
 57 70  1  0  0  0  0
 58 71  1  0  0  0  0
 59 71  1  0  0  0  0
 60 83  1  0  0  0  0
 61 62  1  0  0  0  0
 62 71  1  0  0  0  0
 63 64  1  0  0  0  0
 63 71  1  0  0  0  0
 64 90  1  0  0  0  0
 65 69  1  0  0  0  0
 65 82  1  0  0  0  0
 66 83  1  0  0  0  0
 67 70  1  0  0  0  0
 68 76  1  0  0  0  0
 72 75  1  0  0  0  0
 74 76  1  0  0  0  0
M  CHG  1  83   1
M  ISO  4  33 100  64 101  68 100  90 101
M  END
> <Batch ID>
0069

> <Smiles>
CNC(C)C(=O)NC(C(=O)N1Cc2cc([101O:1][101CH2:1]CC(C)(C)CCc3nc(C(C)(C)C(C)(C)C)nn3[100C:0](C)(C)[100C:0](=O)N3CCCC(n4nc(-c5ccc(Oc6ccc(F)cc6F)cc5)c(C(N)=O)c4N)C3)ccc2CC1C(=O)NC1CCCc2ccccc21)C(C)(C)C

> <Shape>
0.303

> <Color>
0.085

> <Negative vol penalty>
0.000

$$$$

  -OEChem-04052318173D

 85 93  0     1  0  0  0  0  0999 V2000
  -22.1918  -16.7002   38.2070 C   0  0  0  0  0  0  0  0  0  0  0  0
  -22.5200  -15.9015   37.1162 C   0  0  0  0  0  0  0  0  0  0  0  0
  -23.1980   -9.8531   19.9555 C   0  0  0  0  0  0  0  0  0  0  0  0
  -23.9053   -9.9362   22.2642 C   0  0  0  0  0  0  0  0  0  0  0  0
  -22.0055  -18.0712   38.0347 C   0  0  0  0  0  0  0  0  0  0  0  0
  -22.6610  -16.4733   35.8522 C   0  0  0  0  0  0  0  0  0  0  0  0
  -26.4053  -15.7571   29.7872 C   0  0  0  0  0  0  0  0  0  0  0  0
  -22.5047   -8.6700   20.2105 C   0  0  0  0  0  0  0  0  0  0  0  0
  -23.2120   -8.7530   22.5192 C   0  0  0  0  0  0  0  0  0  0  0  0
  -26.2144  -15.6380   28.4113 C   0  0  0  0  0  0  0  0  0  0  0  0
  -20.2509   -5.8205   20.3377 C   0  0  0  0  0  0  0  0  0  0  0  0
  -18.9602   -5.7012   19.8225 C   0  0  0  0  0  0  0  0  0  0  0  0
  -25.9467  -18.0298   28.2474 C   0  0  0  0  0  0  0  0  0  0  0  0
  -18.2736   -7.6371   21.0946 C   0  0  0  0  0  0  0  0  0  0  0  0
  -28.2081  -17.2534   22.8739 C   0  0  0  0  0  0  0  0  0  0  0  0
  -23.8984  -10.4862   20.9824 C   0  0  0  0  0  0  0  0  0  0  0  0
  -24.1217  -13.0225   20.8236 C   0  0  0  0  0  0  0  0  0  0  0  0
  -22.1538  -18.6615   36.7697 C   0  0  0  0  0  0  0  0  0  0  0  0
  -26.3574  -17.0145   30.4062 C   0  0  0  0  0  0  0  0  0  0  0  0
  -22.4752  -17.8532   35.6626 C   0  0  0  0  0  0  0  0  0  0  0  0
  -26.1398  -18.1625   29.6309 C   0  0  0  0  0  0  0  0  0  0  0  0
  -22.5116   -8.1199   21.4923 C   0  0  0  0  0  0  0  0  0  0  0  0
  -25.9822  -16.7740   27.6416 C   0  0  0  0  0  0  0  0  0  0  0  0
  -20.5529   -6.8480   21.2315 C   0  0  0  0  0  0  0  0  0  0  0  0
  -17.9715   -6.6095   20.2009 C   0  0  0  0  0  0  0  0  0  0  0  0
  -19.5643   -7.7563   21.6099 C   0  0  0  0  0  0  0  0  0  0  0  0
  -24.6152  -11.7081   20.7195 C   0  0  0  0  0  0  0  0  0  0  0  0
  -29.2689  -16.7301   23.5579 C   0  0  0  0  0  0  0  0  0  0  0  0
  -25.1847  -13.8173   20.4702 C   0  0  0  0  0  0  0  0  0  0  0  0
  -27.4178  -16.1659   24.6327 C   0  0  0  0  0  0  0  0  0  0  0  0
  -22.8190  -13.4836   21.2057 C   0  0  0  0  0  0  0  0  0  0  0  0
  -24.5151  -18.3548   32.6229 C   0  0  0  0  0  0  0  0  0  0  0  0
  -26.6462  -20.7869   32.3666 C   0  0  0  0  0  0  0  0  0  0  0  0
  -28.9744  -22.4115   30.4727 C   0  0  0  0  0  0  0  0  0  0  0  0
  -30.9478  -14.0537   20.9653 C   0  0  0  0  0  0  0  0  0  0  0  0
  -21.8960  -20.1404   36.6240 C   0  0  0  0  0  0  0  0  0  0  0  0
  -26.5918  -17.1290   31.8875 C   0  0  0  0  0  0  0  0  0  0  0  0
  -26.0991  -19.5375   30.2441 C   0  0  0  0  0  0  0  0  0  0  0  0
  -22.4318  -20.7265   35.3203 C   0  0  0  0  0  0  0  0  0  0  0  0
  -29.3610  -13.1185   17.9183 C   0  0  0  0  0  0  0  0  0  0  0  0
  -22.0499  -19.8394   34.1396 C   0  0  0  0  0  0  0  0  0  0  0  0
  -27.9296  -12.7817   18.3397 C   0  0  0  0  0  0  0  0  0  0  0  0
  -30.3760  -12.6920   18.9765 C   0  0  0  0  0  0  0  0  0  0  0  0
  -28.6784  -12.8696   20.7543 C   0  0  0  0  0  0  0  0  0  0  0  0
  -22.6614  -18.4402   34.2803 C   0  0  1  0  0  0  0  0  0  0  0  0
  -26.0107  -18.4055   32.4876 C   0  0  1  0  0  0  0  0  0  0  0  0
  -27.6144  -13.3314   19.7439 C   0  0  2  0  0  0  0  0  0  0  0  0
  -25.9982  -13.4109   24.3733 C   0  0  0  0  0  0  0  0  0  0  0  0
  -29.6486  -16.1423   26.9370 C   0  0  0  0  0  0  0  0  0  0  0  0
  -30.5189  -24.3888   30.5179 C   0  0  0  0  0  0  0  0  0  0  0  0
  -31.5993  -17.4784   24.3980 C   0  0  0  0  0  0  0  0  0  0  0  0
  -30.9991  -17.6629   21.9977 C   0  0  0  0  0  0  0  0  0  0  0  0
  -24.2760  -22.6463   31.8818 C   0  0  0  0  0  0  0  0  0  0  0  0
  -25.8844  -24.3551   31.0092 C   0  0  0  0  0  0  0  0  0  0  0  0
  -26.0490  -23.5839   33.3758 C   0  0  0  0  0  0  0  0  0  0  0  0
  -31.3675  -20.6957   30.1753 C   0  0  0  0  0  0  0  0  0  0  0  0
  -25.4010  -14.6508   25.0220 C   0  0  0  0  0  0  0  0  0  0  0  0
  -29.5223  -15.3535   25.6450 C   0  0  0  0  0  0  0  0  0  0  0  0
  -31.3682  -15.3935   23.0116 C   0  0  0  0  0  0  0  0  0  0  0  0
  -26.4552  -15.5805   25.6397 C   0  0  2  0  0  0  0  0  0  1  0  0
  -26.7553  -22.0273   31.5130 C   0  0  1  0  0  0  0  0  0  0  0  0
  -30.3740  -22.9011   30.7982 C   0  0  2  0  0  0  0  0  0  0  0  0
  -30.7089  -16.8040   23.2822 C   0  0  0  0  0  0  0  0  0  0  0  0
  -25.7399  -23.1272   31.9334 C   0  0  0  0  0  0  0  0  0  0  0  0
  -25.8922  -11.6662   20.3302 N   0  0  0  0  0  0  0  0  0  0  0  0
  -28.7507  -16.0629   24.6416 N   0  0  0  0  0  0  0  0  0  0  0  0
  -26.2101  -12.9640   20.1866 N   0  0  0  0  0  0  0  0  0  0  0  0
  -27.0756  -16.8885   23.5612 N   0  3  0  0  0  0  0  0  0  0  0  0
  -26.3278  -19.5968   31.6973 N   0  0  0  0  0  0  0  0  0  0  0  0
  -30.0205  -13.2477   20.2844 N   0  0  0  0  0  0  0  0  0  0  0  0
  -25.3328  -15.1559   20.3774 N   0  0  0  0  0  0  0  0  0  0  0  0
  -21.8445  -12.5327   21.5377 N   0  0  0  0  0  0  0  0  0  0  0  0
  -24.0640  -18.4635   33.9244 N   0  0  0  0  0  0  0  0  0  0  0  0
  -28.1512  -22.4462   31.5783 N   0  0  0  0  0  0  0  0  0  0  0  0
  -30.5285  -14.5450   22.1956 N   0  0  0  0  0  0  0  0  0  0  0  0
  -31.3822  -22.1685   29.9810 N   0  3  0  0  0  0  0  0  0  0  0  0
  -22.5230  -14.7022   21.2355 O   0  0  0  0  0  0  0  0  0  0  0  0
  -23.8218  -18.2279   31.6204 O   0  0  0  0  0  0  0  0  0  0  0  0
  -26.8434  -20.8696   33.5815 O   0  0  0  0  0  0  0  0  0  0  0  0
  -28.6434  -22.0392   29.3492 O   0  0  0  0  0  0  0  0  0  0  0  0
  -32.0644  -14.3203   20.5081 O   0  0  0  0  0  0  0  0  0  0  0  0
  -21.8350   -6.9655   21.7415 O   0  0  0  0  0  0  0  0  0  0  0  0
  -25.7949  -16.6605   26.2985 O   0  0  0  0  0  0  0  0  0  1  0  0
  -16.7325   -6.4958   19.7048 F   0  0  0  0  0  0  0  0  0  0  0  0
  -19.8488   -8.7462   22.4672 F   0  0  0  0  0  0  0  0  0  0  0  0
  1  2  1  0  0  0  0
  1  5  2  0  0  0  0
  2  6  2  0  0  0  0
  3  8  2  0  0  0  0
  3 16  1  0  0  0  0
  4  9  1  0  0  0  0
  4 16  2  0  0  0  0
  5 18  1  0  0  0  0
  6 20  1  0  0  0  0
  7 10  2  0  0  0  0
  7 19  1  0  0  0  0
  8 22  1  0  0  0  0
  9 22  2  0  0  0  0
 10 23  1  0  0  0  0
 11 12  2  0  0  0  0
 11 24  1  0  0  0  0
 12 25  1  0  0  0  0
 13 21  1  0  0  0  0
 13 23  2  0  0  0  0
 14 25  2  0  0  0  0
 14 26  1  0  0  0  0
 15 28  2  0  0  0  0
 15 68  1  0  0  0  0
 16 27  1  0  0  0  0
 17 27  1  0  0  0  0
 17 29  2  0  0  0  0
 17 31  1  0  0  0  0
 18 20  2  0  0  0  0
 18 36  1  0  0  0  0
 19 21  2  0  0  0  0
 19 37  1  0  0  0  0
 20 45  1  0  0  0  0
 21 38  1  0  0  0  0
 22 82  1  0  0  0  0
 23 83  1  0  0  0  0
 24 26  2  0  0  0  0
 24 82  1  0  0  0  0
 25 84  1  0  0  0  0
 26 85  1  0  0  0  0
 27 65  2  0  0  0  0
 28 63  1  0  0  0  0
 28 66  1  0  0  0  0
 29 67  1  0  0  0  0
 29 71  1  0  0  0  0
 30 60  1  0  0  0  0
 30 66  1  0  0  0  0
 30 68  2  0  0  0  0
 31 72  1  0  0  0  0
 31 77  2  0  0  0  0
 32 46  1  0  0  0  0
 32 73  1  0  0  0  0
 32 78  2  0  0  0  0
 33 61  1  0  0  0  0
 33 69  1  0  0  0  0
 33 79  2  0  0  0  0
 34 62  1  0  0  0  0
 34 74  1  0  0  0  0
 34 80  2  0  0  0  0
 35 70  1  0  0  0  0
 35 75  1  0  0  0  0
 35 81  2  0  0  0  0
 36 39  1  0  0  0  0
 37 46  1  0  0  0  0
 38 69  1  0  0  0  0
 39 41  1  0  0  0  0
 40 42  1  0  0  0  0
 40 43  1  0  0  0  0
 41 45  1  0  0  0  0
 42 47  1  0  0  0  0
 43 70  1  0  0  0  0
 44 47  1  0  0  0  0
 44 70  1  0  0  0  0
 45 73  1  0  0  0  0
 46 69  1  0  0  0  0
 47 67  1  0  0  0  0
 48 57  1  0  0  0  0
 49 58  1  0  0  0  0
 50 62  1  0  0  0  0
 51 63  1  0  0  0  0
 52 63  1  0  0  0  0
 53 64  1  0  0  0  0
 54 64  1  0  0  0  0
 55 64  1  0  0  0  0
 56 76  1  0  0  0  0
 57 60  1  0  0  0  0
 58 66  1  0  0  0  0
 59 63  1  0  0  0  0
 59 75  1  0  0  0  0
 60 83  1  0  0  0  0
 61 64  1  0  0  0  0
 61 74  1  0  0  0  0
 62 76  1  0  0  0  0
 65 67  1  0  0  0  0
M  CHG  2  68   1  76   1
M  ISO  4  35 100  60 101  75 100  83 101
M  END
> <Batch ID>
0069

> <Smiles>
CCn1c(C(C)(C)C[100NH:0][100C:0](=O)N2CCCC(n3nc(-c4ccc(Oc5ccc(F)cc5F)cc4)c(C(N)=O)c3N)C2)cnc1[101CH:1](CC)[101O:1]c1ccc2c(c1)CN(C(=O)C(NC(=O)C(C)NC)C(C)(C)C)C(C(=O)NC1CCCc3ccccc31)C2

> <Shape>
0.144

> <Color>
0.177

> <Negative vol penalty>
0.000

$$$$

  -OEChem-04052318173D

 84 92  0     1  0  0  0  0  0999 V2000
  -28.1867  -21.0881   35.0346 C   0  0  0  0  0  0  0  0  0  0  0  0
  -28.6378  -21.4679   33.7746 C   0  0  0  0  0  0  0  0  0  0  0  0
  -23.1894   -9.8181   19.9309 C   0  0  0  0  0  0  0  0  0  0  0  0
  -23.5604   -9.9999   22.3113 C   0  0  0  0  0  0  0  0  0  0  0  0
  -28.2164  -19.7453   35.4088 C   0  0  0  0  0  0  0  0  0  0  0  0
  -29.1199  -20.5053   32.8884 C   0  0  0  0  0  0  0  0  0  0  0  0
  -29.4569  -19.0338   25.8857 C   0  0  0  0  0  0  0  0  0  0  0  0
  -22.4212   -8.6725   20.1381 C   0  0  0  0  0  0  0  0  0  0  0  0
  -22.7921   -8.8543   22.5185 C   0  0  0  0  0  0  0  0  0  0  0  0
  -30.3829  -18.6980   24.8991 C   0  0  0  0  0  0  0  0  0  0  0  0
  -23.1902   -5.5070   22.2583 C   0  0  0  0  0  0  0  0  0  0  0  0
  -23.6847   -4.5458   23.1398 C   0  0  0  0  0  0  0  0  0  0  0  0
  -30.3132  -16.3985   25.6247 C   0  0  0  0  0  0  0  0  0  0  0  0
  -21.7241   -4.8091   24.5268 C   0  0  0  0  0  0  0  0  0  0  0  0
  -23.7591  -10.4818   21.0175 C   0  0  0  0  0  0  0  0  0  0  0  0
  -24.1014  -12.9979   20.7728 C   0  0  0  0  0  0  0  0  0  0  0  0
  -28.6902  -18.7645   34.5232 C   0  0  0  0  0  0  0  0  0  0  0  0
  -28.9595  -18.0548   26.7578 C   0  0  0  0  0  0  0  0  0  0  0  0
  -29.1572  -19.1483   33.2516 C   0  0  0  0  0  0  0  0  0  0  0  0
  -29.3790  -16.7240   26.6199 C   0  0  0  0  0  0  0  0  0  0  0  0
  -22.2225   -8.1906   21.4319 C   0  0  0  0  0  0  0  0  0  0  0  0
  -30.8134  -17.3807   24.7703 C   0  0  0  0  0  0  0  0  0  0  0  0
  -21.9627   -6.1193   22.5111 C   0  0  0  0  0  0  0  0  0  0  0  0
  -22.9517   -4.1968   24.2741 C   0  0  0  0  0  0  0  0  0  0  0  0
  -21.2296   -5.7703   23.6453 C   0  0  0  0  0  0  0  0  0  0  0  0
  -24.5532  -11.6650   20.8040 C   0  0  0  0  0  0  0  0  0  0  0  0
  -25.2342  -13.7390   20.5405 C   0  0  0  0  0  0  0  0  0  0  0  0
  -34.2002  -16.0498   19.1673 C   0  0  0  0  0  0  0  0  0  0  0  0
  -34.5876  -14.3571   20.4688 C   0  0  0  0  0  0  0  0  0  0  0  0
  -22.7763  -13.5194   20.9391 C   0  0  0  0  0  0  0  0  0  0  0  0
  -29.0552  -17.5934   29.9013 C   0  0  0  0  0  0  0  0  0  0  0  0
  -27.0546  -15.1356   29.2089 C   0  0  0  0  0  0  0  0  0  0  0  0
  -25.9124  -12.8901   26.9067 C   0  0  0  0  0  0  0  0  0  0  0  0
  -30.9271  -12.6915   21.7021 C   0  0  0  0  0  0  0  0  0  0  0  0
  -28.7471  -17.3315   34.9900 C   0  0  0  0  0  0  0  0  0  0  0  0
  -27.9409  -18.4283   27.7996 C   0  0  0  0  0  0  0  0  0  0  0  0
  -28.8601  -15.6318   27.5179 C   0  0  0  0  0  0  0  0  0  0  0  0
  -28.9237  -16.3274   33.8538 C   0  0  0  0  0  0  0  0  0  0  0  0
  -29.5313  -13.4565   18.4518 C   0  0  0  0  0  0  0  0  0  0  0  0
  -30.0224  -16.7874   32.9008 C   0  0  0  0  0  0  0  0  0  0  0  0
  -28.0417  -13.2063   18.6940 C   0  0  0  0  0  0  0  0  0  0  0  0
  -30.3911  -12.4444   19.2032 C   0  0  0  0  0  0  0  0  0  0  0  0
  -28.6443  -12.1344   20.9138 C   0  0  0  0  0  0  0  0  0  0  0  0
  -29.6644  -18.1305   32.2532 C   0  0  1  0  0  0  0  0  0  0  0  0
  -27.8896  -17.4449   28.9648 C   0  0  1  0  0  0  0  0  0  0  0  0
  -27.7222  -13.1390   20.1992 C   0  0  2  0  0  0  0  0  0  0  0  0
  -33.7858  -17.3918   18.7212 C   0  0  0  0  0  0  0  0  0  0  0  0
  -24.3025  -10.9829   26.6455 C   0  0  0  0  0  0  0  0  0  0  0  0
  -35.5693  -14.1018   22.8495 C   0  0  0  0  0  0  0  0  0  0  0  0
  -35.2883  -12.1250   21.3767 C   0  0  0  0  0  0  0  0  0  0  0  0
  -28.9750  -13.3105   30.7224 C   0  0  0  0  0  0  0  0  0  0  0  0
  -27.8555  -11.3504   29.6394 C   0  0  0  0  0  0  0  0  0  0  0  0
  -26.5523  -12.8545   31.1434 C   0  0  0  0  0  0  0  0  0  0  0  0
  -24.3767  -14.3202   24.8197 C   0  0  0  0  0  0  0  0  0  0  0  0
  -32.1785  -16.9513   21.4560 C   0  0  0  0  0  0  0  0  0  0  0  0
  -33.6031  -16.4238   21.6398 C   0  0  0  0  0  0  0  0  0  0  0  0
  -33.2588  -13.2507   22.3402 C   0  0  0  0  0  0  0  0  0  0  0  0
  -31.7045  -17.8261   22.6108 C   0  0  0  0  0  0  0  0  0  1  0  0
  -27.2332  -13.6796   28.8526 C   0  0  1  0  0  0  0  0  0  0  0  0
  -24.5051  -12.4839   26.5080 C   0  0  2  0  0  0  0  0  0  0  0  0
  -34.6677  -13.5333   21.6881 C   0  0  0  0  0  0  0  0  0  0  0  0
  -27.6654  -12.8194   30.0736 C   0  0  0  0  0  0  0  0  0  0  0  0
  -25.8703  -11.5622   20.6071 N   0  0  0  0  0  0  0  0  0  0  0  0
  -34.6958  -15.0860   18.4245 N   0  0  0  0  0  0  0  0  0  0  0  0
  -34.9423  -14.0091   19.2525 N   0  0  0  0  0  0  0  0  0  0  0  0
  -26.2558  -12.8400   20.4498 N   0  0  0  0  0  0  0  0  0  0  0  0
  -34.1147  -15.6342   20.4615 N   0  0  0  0  0  0  0  0  0  0  0  0
  -27.8704  -16.0482   28.5252 N   0  0  0  0  0  0  0  0  0  0  0  0
  -30.0503  -12.4433   20.6329 N   0  0  0  0  0  0  0  0  0  0  0  0
  -25.4461  -15.0656   20.4069 N   0  0  0  0  0  0  0  0  0  0  0  0
  -21.7278  -12.6186   21.1705 N   0  0  0  0  0  0  0  0  0  0  0  0
  -28.6999  -17.9384   31.1914 N   0  0  0  0  0  0  0  0  0  0  0  0
  -25.9820  -13.2540   28.2349 N   0  0  0  0  0  0  0  0  0  0  0  0
  -32.2425  -12.9690   21.3509 N   0  0  0  0  0  0  0  0  0  0  0  0
  -24.2368  -12.8666   25.0929 N   0  3  0  0  0  0  0  0  0  0  0  0
  -22.5267  -14.7467   20.8677 O   0  0  0  0  0  0  0  0  0  0  0  0
  -30.1925  -17.4071   29.4848 O   0  0  0  0  0  0  0  0  0  0  0  0
  -26.2169  -15.4523   30.0572 O   0  0  0  0  0  0  0  0  0  0  0  0
  -26.8563  -12.8818   26.1197 O   0  0  0  0  0  0  0  0  0  0  0  0
  -30.5632  -12.6724   22.8829 O   0  0  0  0  0  0  0  0  0  0  0  0
  -21.4727   -7.0729   21.6345 O   0  0  0  0  0  0  0  0  0  0  0  0
  -31.7176  -17.0504   23.8085 O   0  0  0  0  0  0  0  0  0  1  0  0
  -23.4260   -3.2726   25.1197 F   0  0  0  0  0  0  0  0  0  0  0  0
  -20.0491   -6.3543   23.8928 F   0  0  0  0  0  0  0  0  0  0  0  0
  1  2  1  0  0  0  0
  1  5  2  0  0  0  0
  2  6  2  0  0  0  0
  3  8  2  0  0  0  0
  3 15  1  0  0  0  0
  4  9  1  0  0  0  0
  4 15  2  0  0  0  0
  5 17  1  0  0  0  0
  6 19  1  0  0  0  0
  7 10  2  0  0  0  0
  7 18  1  0  0  0  0
  8 21  1  0  0  0  0
  9 21  2  0  0  0  0
 10 22  1  0  0  0  0
 11 12  2  0  0  0  0
 11 23  1  0  0  0  0
 12 24  1  0  0  0  0
 13 20  1  0  0  0  0
 13 22  2  0  0  0  0
 14 24  2  0  0  0  0
 14 25  1  0  0  0  0
 15 26  1  0  0  0  0
 16 26  1  0  0  0  0
 16 27  2  0  0  0  0
 16 30  1  0  0  0  0
 17 19  2  0  0  0  0
 17 35  1  0  0  0  0
 18 20  2  0  0  0  0
 18 36  1  0  0  0  0
 19 44  1  0  0  0  0
 20 37  1  0  0  0  0
 21 81  1  0  0  0  0
 22 82  1  0  0  0  0
 23 25  2  0  0  0  0
 23 81  1  0  0  0  0
 24 83  1  0  0  0  0
 25 84  1  0  0  0  0
 26 63  2  0  0  0  0
 27 66  1  0  0  0  0
 27 70  1  0  0  0  0
 28 47  1  0  0  0  0
 28 64  2  0  0  0  0
 28 67  1  0  0  0  0
 29 61  1  0  0  0  0
 29 65  2  0  0  0  0
 29 67  1  0  0  0  0
 30 71  1  0  0  0  0
 30 76  2  0  0  0  0
 31 45  1  0  0  0  0
 31 72  1  0  0  0  0
 31 77  2  0  0  0  0
 32 59  1  0  0  0  0
 32 68  1  0  0  0  0
 32 78  2  0  0  0  0
 33 60  1  0  0  0  0
 33 73  1  0  0  0  0
 33 79  2  0  0  0  0
 34 69  1  0  0  0  0
 34 74  1  0  0  0  0
 34 80  2  0  0  0  0
 35 38  1  0  0  0  0
 36 45  1  0  0  0  0
 37 68  1  0  0  0  0
 38 40  1  0  0  0  0
 39 41  1  0  0  0  0
 39 42  1  0  0  0  0
 40 44  1  0  0  0  0
 41 46  1  0  0  0  0
 42 69  1  0  0  0  0
 43 46  1  0  0  0  0
 43 69  1  0  0  0  0
 44 72  1  0  0  0  0
 45 68  1  0  0  0  0
 46 66  1  0  0  0  0
 48 60  1  0  0  0  0
 49 61  1  0  0  0  0
 50 61  1  0  0  0  0
 51 62  1  0  0  0  0
 52 62  1  0  0  0  0
 53 62  1  0  0  0  0
 54 75  1  0  0  0  0
 55 56  1  0  0  0  0
 55 58  1  0  0  0  0
 56 67  1  0  0  0  0
 57 61  1  0  0  0  0
 57 74  1  0  0  0  0
 58 82  1  0  0  0  0
 59 62  1  0  0  0  0
 59 73  1  0  0  0  0
 60 75  1  0  0  0  0
 63 66  1  0  0  0  0
 64 65  1  0  0  0  0
M  CHG  1  75   1
M  ISO  4  34 100  58 101  74 100  82 101
M  END
> <Batch ID>
0069

> <Smiles>
CNC(C)C(=O)NC(C(=O)N1Cc2cc([101O:1][101CH2:1]CCn3c(C)nnc3C(C)(C)C[100NH:0][100C:0](=O)N3CCCC(n4nc(-c5ccc(Oc6ccc(F)cc6F)cc5)c(C(N)=O)c4N)C3)ccc2CC1C(=O)NC1CCCc2ccccc21)C(C)(C)C

> <Shape>
0.149

> <Color>
0.177

> <Negative vol penalty>
0.000

$$$$

  -OEChem-04052318173D

 87 95  0     1  0  0  0  0  0999 V2000
  -32.2896  -27.7343   14.1589 C   0  0  0  0  0  0  0  0  0  0  0  0
  -31.4684  -26.6765   14.5359 C   0  0  0  0  0  0  0  0  0  0  0  0
  -23.7718  -10.0651   22.3772 C   0  0  0  0  0  0  0  0  0  0  0  0
  -24.5249  -11.6661   24.0224 C   0  0  0  0  0  0  0  0  0  0  0  0
  -32.6473  -28.7050   15.0936 C   0  0  0  0  0  0  0  0  0  0  0  0
  -31.0052  -26.5882   15.8482 C   0  0  0  0  0  0  0  0  0  0  0  0
  -25.5720  -24.4527   17.6989 C   0  0  0  0  0  0  0  0  0  0  0  0
  -23.2885   -9.2449   23.3967 C   0  0  0  0  0  0  0  0  0  0  0  0
  -24.0416  -10.8459   25.0419 C   0  0  0  0  0  0  0  0  0  0  0  0
  -25.1730  -23.2164   18.2050 C   0  0  0  0  0  0  0  0  0  0  0  0
  -22.6838   -9.3428   28.0610 C   0  0  0  0  0  0  0  0  0  0  0  0
  -21.9597   -9.9445   29.0901 C   0  0  0  0  0  0  0  0  0  0  0  0
  -25.3984  -24.0694   20.4501 C   0  0  0  0  0  0  0  0  0  0  0  0
  -20.3316  -10.7283   27.4863 C   0  0  0  0  0  0  0  0  0  0  0  0
  -30.1321  -20.0983   19.3146 C   0  0  0  0  0  0  0  0  0  0  0  0
  -24.3901  -11.2757   22.6901 C   0  0  0  0  0  0  0  0  0  0  0  0
  -24.1923  -13.1437   20.9640 C   0  0  0  0  0  0  0  0  0  0  0  0
  -32.1805  -28.6338   16.4156 C   0  0  0  0  0  0  0  0  0  0  0  0
  -25.8982  -25.5051   18.5663 C   0  0  0  0  0  0  0  0  0  0  0  0
  -31.3581  -27.5582   16.8018 C   0  0  0  0  0  0  0  0  0  0  0  0
  -25.7987  -25.3189   19.9525 C   0  0  0  0  0  0  0  0  0  0  0  0
  -23.4233   -9.6353   24.7290 C   0  0  0  0  0  0  0  0  0  0  0  0
  -25.0889  -23.0237   19.5808 C   0  0  0  0  0  0  0  0  0  0  0  0
  -22.2320   -9.4339   26.7445 C   0  0  0  0  0  0  0  0  0  0  0  0
  -20.7836  -10.6372   28.8028 C   0  0  0  0  0  0  0  0  0  0  0  0
  -21.0559  -10.1266   26.4571 C   0  0  0  0  0  0  0  0  0  0  0  0
  -24.8900  -12.1232   21.6375 C   0  0  0  0  0  0  0  0  0  0  0  0
  -29.3670  -18.9550   19.2066 C   0  0  0  0  0  0  0  0  0  0  0  0
  -29.5945  -21.1055   20.0896 C   0  0  0  0  0  0  0  0  0  0  0  0
  -25.1004  -13.6436   20.0630 C   0  0  0  0  0  0  0  0  0  0  0  0
  -27.7525  -19.8496   20.5334 C   0  0  0  0  0  0  0  0  0  0  0  0
  -22.8439  -13.5991   21.1375 C   0  0  0  0  0  0  0  0  0  0  0  0
  -28.5207  -27.2063   19.1424 C   0  0  0  0  0  0  0  0  0  0  0  0
  -26.5261  -28.9095   21.0510 C   0  0  0  0  0  0  0  0  0  0  0  0
  -23.6566  -28.9991   22.8963 C   0  0  0  0  0  0  0  0  0  0  0  0
  -30.2479  -15.3935   18.8033 C   0  0  0  0  0  0  0  0  0  0  0  0
  -32.6325  -29.6809   17.4024 C   0  0  0  0  0  0  0  0  0  0  0  0
  -26.3011  -26.8408   18.0042 C   0  0  0  0  0  0  0  0  0  0  0  0
  -26.1184  -26.4229   20.9260 C   0  0  0  0  0  0  0  0  0  0  0  0
  -31.7946  -29.7179   18.6779 C   0  0  0  0  0  0  0  0  0  0  0  0
  -29.6253  -11.8921   18.6331 C   0  0  0  0  0  0  0  0  0  0  0  0
  -31.5809  -28.3072   19.2174 C   0  0  0  0  0  0  0  0  0  0  0  0
  -28.2840  -11.7238   19.3492 C   0  0  0  0  0  0  0  0  0  0  0  0
  -30.4816  -12.9750   19.2858 C   0  0  0  0  0  0  0  0  0  0  0  0
  -28.4757  -14.1148   20.1526 C   0  0  0  0  0  0  0  0  0  0  0  0
  -30.8154  -27.4412   18.2096 C   0  0  1  0  0  0  0  0  0  0  0  0
  -27.1049  -27.6853   18.9881 C   0  0  1  0  0  0  0  0  0  0  0  0
  -27.5540  -13.0724   19.4966 C   0  0  2  0  0  0  0  0  0  0  0  0
  -29.4346  -17.8957   16.9186 C   0  0  0  0  0  0  0  0  0  0  0  0
  -26.4544  -18.5790   22.2627 C   0  0  0  0  0  0  0  0  0  0  0  0
  -22.3111  -30.5173   24.3735 C   0  0  0  0  0  0  0  0  0  0  0  0
  -30.6017  -23.0825   18.8966 C   0  0  0  0  0  0  0  0  0  0  0  0
  -31.7404  -22.1254   20.9273 C   0  0  0  0  0  0  0  0  0  0  0  0
  -29.6526  -23.4544   21.1644 C   0  0  0  0  0  0  0  0  0  0  0  0
  -28.5204  -28.4676   23.3177 C   0  0  0  0  0  0  0  0  0  0  0  0
  -26.7308  -29.1473   24.9313 C   0  0  0  0  0  0  0  0  0  0  0  0
  -27.5457  -30.7686   23.2195 C   0  0  0  0  0  0  0  0  0  0  0  0
  -21.3204  -28.8838   21.0831 C   0  0  0  0  0  0  0  0  0  0  0  0
  -25.2424  -19.4853   20.2435 C   0  0  0  0  0  0  0  0  0  0  0  0
  -25.0159  -20.6632   19.3003 C   0  0  0  0  0  0  0  0  0  1  0  0
  -29.8661  -17.8106   18.3896 C   0  0  2  0  0  0  0  0  0  0  0  0
  -26.4082  -19.7082   21.2262 C   0  0  2  0  0  0  0  0  0  0  0  0
  -26.0989  -28.8255   22.4965 C   0  0  1  0  0  0  0  0  0  0  0  0
  -22.5283  -30.0129   22.9553 C   0  0  2  0  0  0  0  0  0  0  0  0
  -30.3503  -22.3798   20.2665 C   0  0  0  0  0  0  0  0  0  0  0  0
  -27.2197  -29.2806   23.4732 C   0  0  0  0  0  0  0  0  0  0  0  0
  -26.1446  -11.9818   21.2014 N   0  0  0  0  0  0  0  0  0  0  0  0
  -28.1682  -18.7960   19.8049 N   0  0  0  0  0  0  0  0  0  0  0  0
  -28.4028  -21.0147   20.7156 N   0  0  0  0  0  0  0  0  0  0  0  0
  -26.2423  -12.9201   20.2442 N   0  0  0  0  0  0  0  0  0  0  0  0
  -26.5137  -27.7086   20.3275 N   0  0  0  0  0  0  0  0  0  0  0  0
  -29.7315  -14.2286   19.3944 N   0  0  0  0  0  0  0  0  0  0  0  0
  -25.0256  -14.6270   19.1412 N   0  0  0  0  0  0  0  0  0  0  0  0
  -22.0477  -12.9755   22.1078 N   0  0  0  0  0  0  0  0  0  0  0  0
  -29.4044  -27.7618   18.2368 N   0  0  0  0  0  0  0  0  0  0  0  0
  -24.8645  -29.5959   22.6028 N   0  0  0  0  0  0  0  0  0  0  0  0
  -29.4711  -16.5365   18.9477 N   0  0  0  0  0  0  0  0  0  0  0  0
  -21.2571  -29.4016   22.4741 N   0  3  0  0  0  0  0  0  0  0  0  0
  -22.3543  -14.5204   20.4410 O   0  0  0  0  0  0  0  0  0  0  0  0
  -28.7916  -26.3941   20.0191 O   0  0  0  0  0  0  0  0  0  0  0  0
  -26.8518  -30.0018   20.5792 O   0  0  0  0  0  0  0  0  0  0  0  0
  -23.4845  -27.7985   23.0946 O   0  0  0  0  0  0  0  0  0  0  0  0
  -31.3192  -15.4123   18.1877 O   0  0  0  0  0  0  0  0  0  0  0  0
  -22.9516   -8.8353   25.7240 O   0  0  0  0  0  0  0  0  0  0  0  0
  -24.7004  -21.8177   20.0774 O   0  0  0  0  0  0  0  0  0  1  0  0
  -20.0874  -11.2137   29.7914 F   0  0  0  0  0  0  0  0  0  0  0  0
  -20.6161  -10.2165   25.1945 F   0  0  0  0  0  0  0  0  0  0  0  0
  1  2  1  0  0  0  0
  1  5  2  0  0  0  0
  2  6  2  0  0  0  0
  3  8  2  0  0  0  0
  3 16  1  0  0  0  0
  4  9  1  0  0  0  0
  4 16  2  0  0  0  0
  5 18  1  0  0  0  0
  6 20  1  0  0  0  0
  7 10  2  0  0  0  0
  7 19  1  0  0  0  0
  8 22  1  0  0  0  0
  9 22  2  0  0  0  0
 10 23  1  0  0  0  0
 11 12  2  0  0  0  0
 11 24  1  0  0  0  0
 12 25  1  0  0  0  0
 13 21  1  0  0  0  0
 13 23  2  0  0  0  0
 14 25  2  0  0  0  0
 14 26  1  0  0  0  0
 15 28  1  0  0  0  0
 15 29  2  0  0  0  0
 16 27  1  0  0  0  0
 17 27  1  0  0  0  0
 17 30  2  0  0  0  0
 17 32  1  0  0  0  0
 18 20  2  0  0  0  0
 18 37  1  0  0  0  0
 19 21  2  0  0  0  0
 19 38  1  0  0  0  0
 20 46  1  0  0  0  0
 21 39  1  0  0  0  0
 22 84  1  0  0  0  0
 23 85  1  0  0  0  0
 24 26  2  0  0  0  0
 24 84  1  0  0  0  0
 25 86  1  0  0  0  0
 26 87  1  0  0  0  0
 27 67  2  0  0  0  0
 28 61  1  0  0  0  0
 28 68  2  0  0  0  0
 29 65  1  0  0  0  0
 29 69  1  0  0  0  0
 30 70  1  0  0  0  0
 30 73  1  0  0  0  0
 31 62  1  0  0  0  0
 31 68  1  0  0  0  0
 31 69  2  0  0  0  0
 32 74  1  0  0  0  0
 32 79  2  0  0  0  0
 33 47  1  0  0  0  0
 33 75  1  0  0  0  0
 33 80  2  0  0  0  0
 34 63  1  0  0  0  0
 34 71  1  0  0  0  0
 34 81  2  0  0  0  0
 35 64  1  0  0  0  0
 35 76  1  0  0  0  0
 35 82  2  0  0  0  0
 36 72  1  0  0  0  0
 36 77  1  0  0  0  0
 36 83  2  0  0  0  0
 37 40  1  0  0  0  0
 38 47  1  0  0  0  0
 39 71  1  0  0  0  0
 40 42  1  0  0  0  0
 41 43  1  0  0  0  0
 41 44  1  0  0  0  0
 42 46  1  0  0  0  0
 43 48  1  0  0  0  0
 44 72  1  0  0  0  0
 45 48  1  0  0  0  0
 45 72  1  0  0  0  0
 46 75  1  0  0  0  0
 47 71  1  0  0  0  0
 48 70  1  0  0  0  0
 49 61  1  0  0  0  0
 50 62  1  0  0  0  0
 51 64  1  0  0  0  0
 52 65  1  0  0  0  0
 53 65  1  0  0  0  0
 54 65  1  0  0  0  0
 55 66  1  0  0  0  0
 56 66  1  0  0  0  0
 57 66  1  0  0  0  0
 58 78  1  0  0  0  0
 59 60  1  0  0  0  0
 59 62  1  0  0  0  0
 60 85  1  0  0  0  0
 61 77  1  0  0  0  0
 63 66  1  0  0  0  0
 63 76  1  0  0  0  0
 64 78  1  0  0  0  0
 67 70  1  0  0  0  0
M  CHG  1  78   1
M  ISO  4  36 100  60 101  77 100  85 101
M  END
> <Batch ID>
0069

> <Smiles>
CNC(C)C(=O)NC(C(=O)N1Cc2cc([101O:1][101CH2:1]CC(C)c3nc(C(C)[100NH:0][100C:0](=O)N4CCCC(n5nc(-c6ccc(Oc7ccc(F)cc7F)cc6)c(C(N)=O)c5N)C4)cc(C(C)(C)C)n3)ccc2CC1C(=O)NC1CCCc2ccccc21)C(C)(C)C

> <Shape>
0.241

> <Color>
0.135

> <Negative vol penalty>
0.000

$$$$

  -OEChem-04052318173D

 87 95  0     1  0  0  0  0  0999 V2000
  -32.0966  -27.0671   19.0249 C   0  0  0  0  0  0  0  0  0  0  0  0
  -31.2431  -25.9792   19.1778 C   0  0  0  0  0  0  0  0  0  0  0  0
  -27.3006  -17.2896   19.0580 C   0  0  0  0  0  0  0  0  0  0  0  0
  -28.0455  -17.0983   21.3484 C   0  0  0  0  0  0  0  0  0  0  0  0
  -31.9045  -28.2156   19.7916 C   0  0  0  0  0  0  0  0  0  0  0  0
  -30.1975  -26.0389   20.0984 C   0  0  0  0  0  0  0  0  0  0  0  0
  -24.6566  -23.4894   19.5466 C   0  0  0  0  0  0  0  0  0  0  0  0
  -27.9769  -18.5037   18.9394 C   0  0  0  0  0  0  0  0  0  0  0  0
  -28.7219  -18.3124   21.2298 C   0  0  0  0  0  0  0  0  0  0  0  0
  -24.1141  -22.3068   20.0476 C   0  0  0  0  0  0  0  0  0  0  0  0
  -27.9576  -21.6054   21.2817 C   0  0  0  0  0  0  0  0  0  0  0  0
  -27.8250  -22.5254   22.3217 C   0  0  0  0  0  0  0  0  0  0  0  0
  -23.1659  -23.5322   21.8966 C   0  0  0  0  0  0  0  0  0  0  0  0
  -30.2127  -22.4596   22.6844 C   0  0  0  0  0  0  0  0  0  0  0  0
  -24.1615  -15.4838   25.5568 C   0  0  0  0  0  0  0  0  0  0  0  0
  -27.3348  -16.5869   20.2625 C   0  0  0  0  0  0  0  0  0  0  0  0
  -27.1416  -14.0475   20.1142 C   0  0  0  0  0  0  0  0  0  0  0  0
  -30.8501  -28.2930   20.7152 C   0  0  0  0  0  0  0  0  0  0  0  0
  -24.4667  -24.7026   20.2238 C   0  0  0  0  0  0  0  0  0  0  0  0
  -29.9919  -27.1890   20.8792 C   0  0  0  0  0  0  0  0  0  0  0  0
  -23.7049  -24.7292   21.4007 C   0  0  0  0  0  0  0  0  0  0  0  0
  -28.6876  -19.0151   20.0253 C   0  0  0  0  0  0  0  0  0  0  0  0
  -23.3711  -22.3276   21.2243 C   0  0  0  0  0  0  0  0  0  0  0  0
  -29.2178  -21.1124   20.9431 C   0  0  0  0  0  0  0  0  0  0  0  0
  -28.9525  -22.9525   23.0230 C   0  0  0  0  0  0  0  0  0  0  0  0
  -30.3453  -21.5395   21.6444 C   0  0  0  0  0  0  0  0  0  0  0  0
  -26.6359  -15.3329   20.3858 C   0  0  0  0  0  0  0  0  0  0  0  0
  -22.8718  -15.2770   25.1195 C   0  0  0  0  0  0  0  0  0  0  0  0
  -23.8980  -17.7370   25.2687 C   0  0  0  0  0  0  0  0  0  0  0  0
  -22.6085  -17.5303   24.8306 C   0  0  0  0  0  0  0  0  0  0  0  0
  -26.0937  -13.2019   20.3853 C   0  0  0  0  0  0  0  0  0  0  0  0
  -28.4423  -13.6531   19.6577 C   0  0  0  0  0  0  0  0  0  0  0  0
  -26.3877  -26.8241   21.6069 C   0  0  0  0  0  0  0  0  0  0  0  0
  -23.6395  -28.5156   21.9369 C   0  0  0  0  0  0  0  0  0  0  0  0
  -21.2860  -13.7828   23.9434 C   0  0  0  0  0  0  0  0  0  0  0  0
  -20.2325  -28.4979   22.1338 C   0  0  0  0  0  0  0  0  0  0  0  0
  -30.7109  -29.5378   21.5554 C   0  0  0  0  0  0  0  0  0  0  0  0
  -25.0359  -25.9738   19.6560 C   0  0  0  0  0  0  0  0  0  0  0  0
  -23.4548  -26.0088   22.1547 C   0  0  0  0  0  0  0  0  0  0  0  0
  -29.3524  -29.6614   22.2404 C   0  0  0  0  0  0  0  0  0  0  0  0
  -21.3199  -13.0398   20.4382 C   0  0  0  0  0  0  0  0  0  0  0  0
  -28.9620  -28.3398   22.8943 C   0  0  0  0  0  0  0  0  0  0  0  0
  -22.7234  -13.4534   19.9971 C   0  0  0  0  0  0  0  0  0  0  0  0
  -20.7832  -13.9613   21.5290 C   0  0  0  0  0  0  0  0  0  0  0  0
  -23.0799  -14.4882   22.2834 C   0  0  0  0  0  0  0  0  0  0  0  0
  -28.8313  -27.2248   21.8497 C   0  0  1  0  0  0  0  0  0  0  0  0
  -25.2127  -27.0692   20.7029 C   0  0  1  0  0  0  0  0  0  0  0  0
  -23.6718  -13.5646   21.2040 C   0  0  2  0  0  0  0  0  0  0  0  0
  -25.9930  -19.0847   25.5538 C   0  0  0  0  0  0  0  0  0  0  0  0
  -18.2692  -30.0301   22.4417 C   0  0  0  0  0  0  0  0  0  0  0  0
  -21.6098  -13.5069   26.3712 C   0  0  0  0  0  0  0  0  0  0  0  0
  -23.3273  -12.7633   24.7186 C   0  0  0  0  0  0  0  0  0  0  0  0
  -24.2741  -28.7265   24.9140 C   0  0  0  0  0  0  0  0  0  0  0  0
  -21.8940  -29.3994   25.3025 C   0  0  0  0  0  0  0  0  0  0  0  0
  -23.3757  -30.8227   23.8877 C   0  0  0  0  0  0  0  0  0  0  0  0
  -19.4943  -20.1496   23.1702 C   0  0  0  0  0  0  0  0  0  0  0  0
  -20.4222  -19.7808   20.8701 C   0  0  0  0  0  0  0  0  0  0  0  0
  -19.1014  -27.7674   19.4983 C   0  0  0  0  0  0  0  0  0  0  0  0
  -24.4794  -19.1069   25.3550 C   0  0  0  0  0  0  0  0  0  0  0  0
  -21.7234  -18.6815   24.4174 C   0  0  0  0  0  0  0  0  0  0  0  0
  -21.6280  -18.7926   22.8893 C   0  0  0  0  0  0  0  0  0  0  0  0
  -21.6276  -21.2828   22.4591 C   0  0  0  0  0  0  0  0  0  1  0  0
  -22.5593  -28.6057   22.9876 C   0  0  1  0  0  0  0  0  0  0  0  0
  -19.1789  -29.3400   21.4373 C   0  0  2  0  0  0  0  0  0  0  0  0
  -22.3121  -13.8998   25.0423 C   0  0  0  0  0  0  0  0  0  0  0  0
  -23.0319  -29.3640   24.2600 C   0  0  0  0  0  0  0  0  0  0  0  0
  -20.7880  -19.9861   22.3508 C   0  0  0  0  0  0  0  0  0  0  0  0
  -24.6978  -16.7175   25.6393 N   0  0  0  0  0  0  0  0  0  0  0  0
  -25.3655  -15.3108   20.7977 N   0  0  0  0  0  0  0  0  0  0  0  0
  -22.0721  -16.2965   24.7485 N   0  0  0  0  0  0  0  0  0  0  0  0
  -25.0641  -14.0011   20.7868 N   0  0  0  0  0  0  0  0  0  0  0  0
  -24.0376  -27.2243   21.5627 N   0  0  0  0  0  0  0  0  0  0  0  0
  -21.7228  -14.0579   22.6475 N   0  0  0  0  0  0  0  0  0  0  0  0
  -25.9618  -11.8602   20.3168 N   0  0  0  0  0  0  0  0  0  0  0  0
  -29.4005  -14.6498   19.4285 N   0  0  0  0  0  0  0  0  0  0  0  0
  -27.5779  -27.3450   21.1363 N   0  0  0  0  0  0  0  0  0  0  0  0
  -21.4009  -29.2028   22.3319 N   0  0  0  0  0  0  0  0  0  0  0  0
  -18.3382  -28.4878   20.5497 N   0  3  0  0  0  0  0  0  0  0  0  0
  -28.7406  -12.4537   19.4433 O   0  0  0  0  0  0  0  0  0  0  0  0
  -26.2261  -26.2091   22.6544 O   0  0  0  0  0  0  0  0  0  0  0  0
  -24.1077  -29.5526   21.4605 O   0  0  0  0  0  0  0  0  0  0  0  0
  -20.1320  -13.4536   24.2299 O   0  0  0  0  0  0  0  0  0  0  0  0
  -20.0372  -27.3325   22.4719 O   0  0  0  0  0  0  0  0  0  0  0  0
  -29.3479  -20.1997   19.9098 O   0  0  0  0  0  0  0  0  0  0  0  0
  -22.8410  -21.1747   21.7158 O   0  0  0  0  0  0  0  0  0  1  0  0
  -28.8252  -23.8372   24.0207 F   0  0  0  0  0  0  0  0  0  0  0  0
  -31.5587  -21.0703   21.3229 F   0  0  0  0  0  0  0  0  0  0  0  0
  1  2  1  0  0  0  0
  1  5  2  0  0  0  0
  2  6  2  0  0  0  0
  3  8  2  0  0  0  0
  3 16  1  0  0  0  0
  4  9  1  0  0  0  0
  4 16  2  0  0  0  0
  5 18  1  0  0  0  0
  6 20  1  0  0  0  0
  7 10  2  0  0  0  0
  7 19  1  0  0  0  0
  8 22  1  0  0  0  0
  9 22  2  0  0  0  0
 10 23  1  0  0  0  0
 11 12  2  0  0  0  0
 11 24  1  0  0  0  0
 12 25  1  0  0  0  0
 13 21  1  0  0  0  0
 13 23  2  0  0  0  0
 14 25  2  0  0  0  0
 14 26  1  0  0  0  0
 15 28  1  0  0  0  0
 15 68  2  0  0  0  0
 16 27  1  0  0  0  0
 17 27  1  0  0  0  0
 17 31  2  0  0  0  0
 17 32  1  0  0  0  0
 18 20  2  0  0  0  0
 18 37  1  0  0  0  0
 19 21  2  0  0  0  0
 19 38  1  0  0  0  0
 20 46  1  0  0  0  0
 21 39  1  0  0  0  0
 22 84  1  0  0  0  0
 23 85  1  0  0  0  0
 24 26  2  0  0  0  0
 24 84  1  0  0  0  0
 25 86  1  0  0  0  0
 26 87  1  0  0  0  0
 27 69  2  0  0  0  0
 28 65  1  0  0  0  0
 28 70  2  0  0  0  0
 29 30  2  0  0  0  0
 29 59  1  0  0  0  0
 29 68  1  0  0  0  0
 30 60  1  0  0  0  0
 30 70  1  0  0  0  0
 31 71  1  0  0  0  0
 31 74  1  0  0  0  0
 32 75  1  0  0  0  0
 32 79  2  0  0  0  0
 33 47  1  0  0  0  0
 33 76  1  0  0  0  0
 33 80  2  0  0  0  0
 34 63  1  0  0  0  0
 34 72  1  0  0  0  0
 34 81  2  0  0  0  0
 35 65  1  0  0  0  0
 35 73  1  0  0  0  0
 35 82  2  0  0  0  0
 36 64  1  0  0  0  0
 36 77  1  0  0  0  0
 36 83  2  0  0  0  0
 37 40  1  0  0  0  0
 38 47  1  0  0  0  0
 39 72  1  0  0  0  0
 40 42  1  0  0  0  0
 41 43  1  0  0  0  0
 41 44  1  0  0  0  0
 42 46  1  0  0  0  0
 43 48  1  0  0  0  0
 44 73  1  0  0  0  0
 45 48  1  0  0  0  0
 45 73  1  0  0  0  0
 46 76  1  0  0  0  0
 47 72  1  0  0  0  0
 48 71  1  0  0  0  0
 49 59  1  0  0  0  0
 50 64  1  0  0  0  0
 51 65  1  0  0  0  0
 52 65  1  0  0  0  0
 53 66  1  0  0  0  0
 54 66  1  0  0  0  0
 55 66  1  0  0  0  0
 56 67  1  0  0  0  0
 57 67  1  0  0  0  0
 58 78  1  0  0  0  0
 60 61  1  0  0  0  0
 61 67  1  0  0  0  0
 62 67  1  0  0  0  0
 62 85  1  0  0  0  0
 63 66  1  0  0  0  0
 63 77  1  0  0  0  0
 64 78  1  0  0  0  0
 69 71  1  0  0  0  0
M  CHG  1  78   1
M  ISO  4  35 100  62 101  65 100  85 101
M  END
> <Batch ID>
0069

> <Smiles>
CCc1ncc([100C:0](C)(C)[100C:0](=O)N2CCCC(n3nc(-c4ccc(Oc5ccc(F)cc5F)cc4)c(C(N)=O)c3N)C2)nc1CCC(C)(C)[101CH2:1][101O:1]c1ccc2c(c1)CN(C(=O)C(NC(=O)C(C)NC)C(C)(C)C)C(C(=O)NC1CCCc3ccccc31)C2

> <Shape>
0.207

> <Color>
0.068

> <Negative vol penalty>
0.000

$$$$

  -OEChem-04052318173D

 86 94  0     1  0  0  0  0  0999 V2000
  -17.5718  -33.1477   23.4256 C   0  0  0  0  0  0  0  0  0  0  0  0
  -18.9279  -33.3984   23.6090 C   0  0  0  0  0  0  0  0  0  0  0  0
  -25.3125  -13.0417   21.6606 C   0  0  0  0  0  0  0  0  0  0  0  0
  -26.9101  -12.5028   19.9302 C   0  0  0  0  0  0  0  0  0  0  0  0
  -17.1159  -31.8350   23.3120 C   0  0  0  0  0  0  0  0  0  0  0  0
  -19.8288  -32.3364   23.6802 C   0  0  0  0  0  0  0  0  0  0  0  0
  -26.5792  -30.6202   22.0061 C   0  0  0  0  0  0  0  0  0  0  0  0
  -25.0046  -11.6882   21.7979 C   0  0  0  0  0  0  0  0  0  0  0  0
  -26.6023  -11.1493   20.0675 C   0  0  0  0  0  0  0  0  0  0  0  0
  -27.7302  -30.0872   22.5848 C   0  0  0  0  0  0  0  0  0  0  0  0
  -23.1434   -9.3805   20.1747 C   0  0  0  0  0  0  0  0  0  0  0  0
  -21.7964   -9.0284   20.2595 C   0  0  0  0  0  0  0  0  0  0  0  0
  -26.8386  -27.8643   22.2963 C   0  0  0  0  0  0  0  0  0  0  0  0
  -22.1877   -8.0559   22.4363 C   0  0  0  0  0  0  0  0  0  0  0  0
  -26.2653  -13.4490   20.7267 C   0  0  0  0  0  0  0  0  0  0  0  0
  -27.5754  -15.5680   21.2752 C   0  0  0  0  0  0  0  0  0  0  0  0
  -18.0129  -30.7568   23.3721 C   0  0  0  0  0  0  0  0  0  0  0  0
  -25.5428  -29.7785   21.5774 C   0  0  0  0  0  0  0  0  0  0  0  0
  -19.3843  -31.0080   23.5686 C   0  0  0  0  0  0  0  0  0  0  0  0
  -25.6766  -28.3890   21.7102 C   0  0  0  0  0  0  0  0  0  0  0  0
  -25.6495  -10.7420   21.0014 C   0  0  0  0  0  0  0  0  0  0  0  0
  -27.8588  -28.7093   22.7326 C   0  0  0  0  0  0  0  0  0  0  0  0
  -24.0126   -9.0702   21.2206 C   0  0  0  0  0  0  0  0  0  0  0  0
  -21.3186   -8.3661   21.3903 C   0  0  0  0  0  0  0  0  0  0  0  0
  -23.5348   -8.4079   22.3514 C   0  0  0  0  0  0  0  0  0  0  0  0
  -26.5833  -14.8471   20.5841 C   0  0  0  0  0  0  0  0  0  0  0  0
  -27.4758  -16.8467   20.7839 C   0  0  0  0  0  0  0  0  0  0  0  0
  -28.5041  -15.1217   22.2723 C   0  0  0  0  0  0  0  0  0  0  0  0
  -22.4873  -29.4009   22.3680 C   0  0  0  0  0  0  0  0  0  0  0  0
  -26.9501  -20.3080   16.4212 C   0  0  0  0  0  0  0  0  0  0  0  0
  -22.4965  -27.3434   19.8602 C   0  0  0  0  0  0  0  0  0  0  0  0
  -24.2849  -25.2851   17.8080 C   0  0  0  0  0  0  0  0  0  0  0  0
  -17.4671  -29.3531   23.2916 C   0  0  0  0  0  0  0  0  0  0  0  0
  -24.3192  -30.3675   20.9307 C   0  0  0  0  0  0  0  0  0  0  0  0
  -24.6015  -27.4410   21.2476 C   0  0  0  0  0  0  0  0  0  0  0  0
  -18.5340  -28.3004   23.0023 C   0  0  0  0  0  0  0  0  0  0  0  0
  -23.9494  -19.0020   17.8808 C   0  0  0  0  0  0  0  0  0  0  0  0
  -19.7532  -28.5171   23.8931 C   0  0  0  0  0  0  0  0  0  0  0  0
  -29.0880  -21.7820   19.3918 C   0  0  0  0  0  0  0  0  0  0  0  0
  -28.7727  -23.9646   18.1613 C   0  0  0  0  0  0  0  0  0  0  0  0
  -28.7118  -22.4676   20.7040 C   0  0  0  0  0  0  0  0  0  0  0  0
  -28.3962  -24.6500   19.4735 C   0  0  0  0  0  0  0  0  0  0  0  0
  -24.4457  -17.8450   18.7470 C   0  0  0  0  0  0  0  0  0  0  0  0
  -24.7778  -19.1415   16.6075 C   0  0  0  0  0  0  0  0  0  0  0  0
  -26.7439  -18.1281   17.7161 C   0  0  0  0  0  0  0  0  0  0  0  0
  -20.3956  -29.8837   23.6260 C   0  0  1  0  0  0  0  0  0  0  0  0
  -23.1051  -29.4463   20.9991 C   0  0  1  0  0  0  0  0  0  0  0  0
  -28.4346  -22.4686   18.1856 C   0  0  0  0  0  0  0  0  0  0  0  0
  -29.0501  -23.9636   20.6794 C   0  0  0  0  0  0  0  0  0  0  0  0
  -25.9536  -17.9715   19.0273 C   0  0  2  0  0  0  0  0  0  0  0  0
  -29.1834  -19.5386   15.7395 C   0  0  0  0  0  0  0  0  0  0  0  0
  -24.0109  -23.7075   15.8758 C   0  0  0  0  0  0  0  0  0  0  0  0
  -21.3521  -25.2358   21.7465 C   0  0  0  0  0  0  0  0  0  0  0  0
  -21.9868  -23.4897   20.0683 C   0  0  0  0  0  0  0  0  0  0  0  0
  -20.3326  -25.2559   19.4630 C   0  0  0  0  0  0  0  0  0  0  0  0
  -30.3865  -26.4166   24.0760 C   0  0  0  0  0  0  0  0  0  0  0  0
  -27.9006  -26.3339   24.3336 C   0  0  0  0  0  0  0  0  0  0  0  0
  -26.0467  -26.9155   16.0769 C   0  0  0  0  0  0  0  0  0  0  0  0
  -28.8665  -21.7972   16.8834 C   0  0  0  0  0  0  0  0  0  0  0  0
  -28.9748  -26.1229   22.0142 C   0  0  0  0  0  0  0  0  0  0  0  0
  -28.4136  -20.3392   16.7833 C   0  0  1  0  0  0  0  0  0  0  0  0
  -22.7748  -25.8698   19.6874 C   0  0  1  0  0  0  0  0  0  0  0  0
  -24.3049  -25.1389   16.2971 C   0  0  2  0  0  0  0  0  0  0  0  0
  -28.6194  -24.6357   21.9817 C   0  0  0  0  0  0  0  0  0  0  0  0
  -21.6312  -24.9805   20.2519 C   0  0  0  0  0  0  0  0  0  0  0  0
  -29.0461  -26.7660   23.4182 C   0  0  0  0  0  0  0  0  0  1  0  0
  -25.9033  -15.6048   19.7195 N   0  0  0  0  0  0  0  0  0  0  0  0
  -26.4690  -16.8152   19.8643 N   0  0  0  0  0  0  0  0  0  0  0  0
  -23.4214  -28.0658   20.6274 N   0  0  0  0  0  0  0  0  0  0  0  0
  -26.2060  -19.2363   16.9149 N   0  0  0  0  0  0  0  0  0  0  0  0
  -28.1519  -17.9837   21.0530 N   0  0  0  0  0  0  0  0  0  0  0  0
  -28.4708  -13.7758   22.6617 N   0  0  0  0  0  0  0  0  0  0  0  0
  -21.1794  -29.8448   22.4100 N   0  0  0  0  0  0  0  0  0  0  0  0
  -23.0427  -25.6687   18.2675 N   0  0  0  0  0  0  0  0  0  0  0  0
  -25.6398  -25.5229   15.7572 N   0  3  0  0  0  0  0  0  0  0  0  0
  -29.3278  -15.8973   22.8140 O   0  0  0  0  0  0  0  0  0  0  0  0
  -23.1479  -28.9920   23.3157 O   0  0  0  0  0  0  0  0  0  0  0  0
  -26.4833  -21.2117   15.7229 O   0  0  0  0  0  0  0  0  0  0  0  0
  -21.4991  -27.8369   19.3280 O   0  0  0  0  0  0  0  0  0  0  0  0
  -25.2714  -25.0761   18.5106 O   0  0  0  0  0  0  0  0  0  0  0  0
  -25.3495   -9.4211   21.1352 O   0  0  0  0  0  0  0  0  0  0  0  0
  -28.9809  -28.1864   23.2978 O   0  0  0  0  0  0  0  0  0  1  0  0
  -20.0247   -8.0294   21.4723 F   0  0  0  0  0  0  0  0  0  0  0  0
  -24.3647   -8.1082   23.3599 F   0  0  0  0  0  0  0  0  0  0  0  0
  -29.2178  -23.9872   23.0115 F   0  0  0  0  0  0  0  0  0  0  0  0
  -27.2823  -24.4682   22.1317 F   0  0  0  0  0  0  0  0  0  0  0  0
  1  2  1  0  0  0  0
  1  5  2  0  0  0  0
  2  6  2  0  0  0  0
  3  8  2  0  0  0  0
  3 15  1  0  0  0  0
  4  9  1  0  0  0  0
  4 15  2  0  0  0  0
  5 17  1  0  0  0  0
  6 19  1  0  0  0  0
  7 10  2  0  0  0  0
  7 18  1  0  0  0  0
  8 21  1  0  0  0  0
  9 21  2  0  0  0  0
 10 22  1  0  0  0  0
 11 12  2  0  0  0  0
 11 23  1  0  0  0  0
 12 24  1  0  0  0  0
 13 20  1  0  0  0  0
 13 22  2  0  0  0  0
 14 24  2  0  0  0  0
 14 25  1  0  0  0  0
 15 26  1  0  0  0  0
 16 26  1  0  0  0  0
 16 27  2  0  0  0  0
 16 28  1  0  0  0  0
 17 19  2  0  0  0  0
 17 33  1  0  0  0  0
 18 20  2  0  0  0  0
 18 34  1  0  0  0  0
 19 46  1  0  0  0  0
 20 35  1  0  0  0  0
 21 81  1  0  0  0  0
 22 82  1  0  0  0  0
 23 25  2  0  0  0  0
 23 81  1  0  0  0  0
 24 83  1  0  0  0  0
 25 84  1  0  0  0  0
 26 67  2  0  0  0  0
 27 68  1  0  0  0  0
 27 71  1  0  0  0  0
 28 72  1  0  0  0  0
 28 76  2  0  0  0  0
 29 47  1  0  0  0  0
 29 73  1  0  0  0  0
 29 77  2  0  0  0  0
 30 61  1  0  0  0  0
 30 70  1  0  0  0  0
 30 78  2  0  0  0  0
 31 62  1  0  0  0  0
 31 69  1  0  0  0  0
 31 79  2  0  0  0  0
 32 63  1  0  0  0  0
 32 74  1  0  0  0  0
 32 80  2  0  0  0  0
 33 36  1  0  0  0  0
 34 47  1  0  0  0  0
 35 69  1  0  0  0  0
 36 38  1  0  0  0  0
 37 43  1  0  0  0  0
 37 44  1  0  0  0  0
 38 46  1  0  0  0  0
 39 41  1  0  0  0  0
 39 48  1  0  0  0  0
 40 42  1  0  0  0  0
 40 48  1  0  0  0  0
 41 49  1  0  0  0  0
 42 49  1  0  0  0  0
 43 50  1  0  0  0  0
 44 70  1  0  0  0  0
 45 50  1  0  0  0  0
 45 70  1  0  0  0  0
 46 73  1  0  0  0  0
 47 69  1  0  0  0  0
 48 59  1  0  0  0  0
 49 64  1  0  0  0  0
 50 68  1  0  0  0  0
 51 61  1  0  0  0  0
 52 63  1  0  0  0  0
 53 65  1  0  0  0  0
 54 65  1  0  0  0  0
 55 65  1  0  0  0  0
 56 66  1  0  0  0  0
 57 66  1  0  0  0  0
 58 75  1  0  0  0  0
 59 61  1  0  0  0  0
 60 64  1  0  0  0  0
 60 66  1  0  0  0  0
 62 65  1  0  0  0  0
 62 74  1  0  0  0  0
 63 75  1  0  0  0  0
 64 85  1  0  0  0  0
 64 86  1  0  0  0  0
 66 82  1  0  0  0  0
 67 68  1  0  0  0  0
M  CHG  1  75   1
M  ISO  4  30 100  61 100  66 101  82 101
M  END
> <Batch ID>
0069

> <Smiles>
CNC(C)C(=O)NC(C(=O)N1Cc2cc([101O:1][101C:1](C)(C)CC(F)(F)C3CCC(C[100CH:0](C)[100C:0](=O)N4CCCC(n5nc(-c6ccc(Oc7ccc(F)cc7F)cc6)c(C(N)=O)c5N)C4)CC3)ccc2CC1C(=O)NC1CCCc2ccccc21)C(C)(C)C

> <Shape>
0.224

> <Color>
0.070

> <Negative vol penalty>
0.000

$$$$

  -OEChem-04052318173D

 86 94  0     1  0  0  0  0  0999 V2000
  -16.6127  -29.0445   23.7348 C   0  0  0  0  0  0  0  0  0  0  0  0
  -17.1684  -28.1658   22.8105 C   0  0  0  0  0  0  0  0  0  0  0  0
  -24.0783   -9.7929   22.3639 C   0  0  0  0  0  0  0  0  0  0  0  0
  -24.7083   -9.0077   20.1676 C   0  0  0  0  0  0  0  0  0  0  0  0
  -17.3610  -30.1215   24.2082 C   0  0  0  0  0  0  0  0  0  0  0  0
  -18.4724  -28.3641   22.3582 C   0  0  0  0  0  0  0  0  0  0  0  0
  -22.5594  -24.0436   20.8970 C   0  0  0  0  0  0  0  0  0  0  0  0
  -23.0103   -8.8958   22.3783 C   0  0  0  0  0  0  0  0  0  0  0  0
  -23.6403   -8.1105   20.1820 C   0  0  0  0  0  0  0  0  0  0  0  0
  -22.9530  -23.4995   19.6751 C   0  0  0  0  0  0  0  0  0  0  0  0
  -20.3326   -6.5598   23.1452 C   0  0  0  0  0  0  0  0  0  0  0  0
  -20.1209   -5.8222   24.3100 C   0  0  0  0  0  0  0  0  0  0  0  0
  -24.8160  -25.0303   19.6005 C   0  0  0  0  0  0  0  0  0  0  0  0
  -22.3251   -4.8558   24.0985 C   0  0  0  0  0  0  0  0  0  0  0  0
  -27.8891  -20.9985   19.7189 C   0  0  0  0  0  0  0  0  0  0  0  0
  -29.5840  -20.7241   17.6745 C   0  0  0  0  0  0  0  0  0  0  0  0
  -24.9273   -9.8489   21.2585 C   0  0  0  0  0  0  0  0  0  0  0  0
  -27.3412  -10.5451   21.7011 C   0  0  0  0  0  0  0  0  0  0  0  0
  -18.6782  -30.3276   23.7688 C   0  0  0  0  0  0  0  0  0  0  0  0
  -23.2861  -25.0941   21.4755 C   0  0  0  0  0  0  0  0  0  0  0  0
  -19.2386  -29.4456   22.8252 C   0  0  0  0  0  0  0  0  0  0  0  0
  -24.4310  -25.5841   20.8310 C   0  0  0  0  0  0  0  0  0  0  0  0
  -22.7914   -8.0546   21.2874 C   0  0  0  0  0  0  0  0  0  0  0  0
  -24.0797  -23.9948   19.0253 C   0  0  0  0  0  0  0  0  0  0  0  0
  -21.5405   -6.4453   22.4570 C   0  0  0  0  0  0  0  0  0  0  0  0
  -21.1172   -4.9702   24.7867 C   0  0  0  0  0  0  0  0  0  0  0  0
  -22.5368   -5.5934   22.9337 C   0  0  0  0  0  0  0  0  0  0  0  0
  -26.0303  -10.7758   21.2428 C   0  0  0  0  0  0  0  0  0  0  0  0
  -27.7856  -21.7928   18.5982 C   0  0  0  0  0  0  0  0  0  0  0  0
  -29.6881  -19.9303   18.7955 C   0  0  0  0  0  0  0  0  0  0  0  0
  -28.0000  -11.7272   21.4665 C   0  0  0  0  0  0  0  0  0  0  0  0
  -27.9123   -9.3674   22.2865 C   0  0  0  0  0  0  0  0  0  0  0  0
  -22.6354  -28.1036   22.2650 C   0  0  0  0  0  0  0  0  0  0  0  0
  -25.6113  -27.9995   23.5516 C   0  0  0  0  0  0  0  0  0  0  0  0
  -28.7081  -26.5657   23.5770 C   0  0  0  0  0  0  0  0  0  0  0  0
  -29.2944  -15.9395   18.3775 C   0  0  0  0  0  0  0  0  0  0  0  0
  -19.4315  -31.5329   24.2732 C   0  0  0  0  0  0  0  0  0  0  0  0
  -22.8639  -25.6520   22.8069 C   0  0  0  0  0  0  0  0  0  0  0  0
  -25.2572  -26.6973   21.4199 C   0  0  0  0  0  0  0  0  0  0  0  0
  -20.9362  -31.4577   24.0270 C   0  0  0  0  0  0  0  0  0  0  0  0
  -26.2550  -16.2766   20.1440 C   0  0  0  0  0  0  0  0  0  0  0  0
  -21.2214  -31.0145   22.5956 C   0  0  0  0  0  0  0  0  0  0  0  0
  -26.0229  -14.8443   20.6229 C   0  0  0  0  0  0  0  0  0  0  0  0
  -26.8088  -16.3233   18.7188 C   0  0  0  0  0  0  0  0  0  0  0  0
  -27.7938  -14.0711   19.0019 C   0  0  0  0  0  0  0  0  0  0  0  0
  -20.6585  -29.6132   22.3294 C   0  0  1  0  0  0  0  0  0  0  0  0
  -23.3820  -27.0655   23.0540 C   0  0  1  0  0  0  0  0  0  0  0  0
  -27.2940  -13.9944   20.4527 C   0  0  2  0  0  0  0  0  0  0  0  0
  -30.9405  -26.7188   24.7130 C   0  0  0  0  0  0  0  0  0  0  0  0
  -30.7650  -18.0577   20.2202 C   0  0  0  0  0  0  0  0  0  0  0  0
  -32.1697  -19.5586   18.8310 C   0  0  0  0  0  0  0  0  0  0  0  0
  -26.2685  -30.4918   21.9188 C   0  0  0  0  0  0  0  0  0  0  0  0
  -28.6955  -30.0406   22.3367 C   0  0  0  0  0  0  0  0  0  0  0  0
  -27.1674  -30.5066   24.2525 C   0  0  0  0  0  0  0  0  0  0  0  0
  -24.7229  -21.2205   18.6517 C   0  0  0  0  0  0  0  0  0  0  0  0
  -25.6286  -21.9285   16.4249 C   0  0  0  0  0  0  0  0  0  0  0  0
  -28.4950  -17.5917   16.6351 C   0  0  0  0  0  0  0  0  0  0  0  0
  -28.5007  -23.8010   24.6126 C   0  0  0  0  0  0  0  0  0  0  0  0
  -26.7031  -22.8435   18.4994 C   0  0  0  0  0  0  0  0  0  0  0  0
  -30.6974  -17.8554   17.7148 C   0  0  0  0  0  0  0  0  0  0  0  0
  -27.0045  -28.2897   23.0480 C   0  0  1  0  0  0  0  0  0  0  0  0
  -29.5723  -26.0548   24.7157 C   0  0  2  0  0  0  0  0  0  0  0  0
  -30.7537  -18.8953   18.8926 C   0  0  0  0  0  0  0  0  0  0  0  0
  -27.2675  -29.8125   22.8767 C   0  0  0  0  0  0  0  0  0  0  0  0
  -25.3742  -22.3663   17.8728 C   0  0  0  0  0  0  0  0  0  1  0  0
  -28.6309  -21.6696   17.5557 N   0  0  0  0  0  0  0  0  0  0  0  0
  -28.8425  -20.0533   19.8378 N   0  0  0  0  0  0  0  0  0  0  0  0
  -25.8643  -12.0078   20.7542 N   0  0  0  0  0  0  0  0  0  0  0  0
  -27.0795  -12.5618   20.9042 N   0  0  0  0  0  0  0  0  0  0  0  0
  -24.8001  -27.2140   22.7205 N   0  0  0  0  0  0  0  0  0  0  0  0
  -27.9923  -15.4624   18.5883 N   0  0  0  0  0  0  0  0  0  0  0  0
  -29.2712  -12.1238   21.6886 N   0  0  0  0  0  0  0  0  0  0  0  0
  -27.0949   -8.2415   22.4553 N   0  0  0  0  0  0  0  0  0  0  0  0
  -21.5196  -28.6043   22.9083 N   0  0  0  0  0  0  0  0  0  0  0  0
  -27.9187  -27.6255   23.9707 N   0  0  0  0  0  0  0  0  0  0  0  0
  -29.4310  -17.1387   17.6622 N   0  0  0  0  0  0  0  0  0  0  0  0
  -29.7646  -24.5816   24.5994 N   0  3  0  0  0  0  0  0  0  0  0  0
  -29.1076   -9.3205   22.6641 O   0  0  0  0  0  0  0  0  0  0  0  0
  -23.0423  -28.4275   21.1554 O   0  0  0  0  0  0  0  0  0  0  0  0
  -25.2582  -28.4470   24.6455 O   0  0  0  0  0  0  0  0  0  0  0  0
  -28.7337  -26.0762   22.4500 O   0  0  0  0  0  0  0  0  0  0  0  0
  -30.2827  -15.3243   18.7980 O   0  0  0  0  0  0  0  0  0  0  0  0
  -21.7495   -7.1789   21.3012 O   0  0  0  0  0  0  0  0  0  0  0  0
  -24.4657  -23.4661   17.8323 O   0  0  0  0  0  0  0  0  0  1  0  0
  -20.9144   -4.2631   25.9061 F   0  0  0  0  0  0  0  0  0  0  0  0
  -23.6997   -5.4801   22.2776 F   0  0  0  0  0  0  0  0  0  0  0  0
  1  2  1  0  0  0  0
  1  5  2  0  0  0  0
  2  6  2  0  0  0  0
  3  8  2  0  0  0  0
  3 17  1  0  0  0  0
  4  9  1  0  0  0  0
  4 17  2  0  0  0  0
  5 19  1  0  0  0  0
  6 21  1  0  0  0  0
  7 10  2  0  0  0  0
  7 20  1  0  0  0  0
  8 23  1  0  0  0  0
  9 23  2  0  0  0  0
 10 24  1  0  0  0  0
 11 12  2  0  0  0  0
 11 25  1  0  0  0  0
 12 26  1  0  0  0  0
 13 22  1  0  0  0  0
 13 24  2  0  0  0  0
 14 26  2  0  0  0  0
 14 27  1  0  0  0  0
 15 29  1  0  0  0  0
 15 67  2  0  0  0  0
 16 30  2  0  0  0  0
 16 66  1  0  0  0  0
 17 28  1  0  0  0  0
 18 28  1  0  0  0  0
 18 31  2  0  0  0  0
 18 32  1  0  0  0  0
 19 21  2  0  0  0  0
 19 37  1  0  0  0  0
 20 22  2  0  0  0  0
 20 38  1  0  0  0  0
 21 46  1  0  0  0  0
 22 39  1  0  0  0  0
 23 83  1  0  0  0  0
 24 84  1  0  0  0  0
 25 27  2  0  0  0  0
 25 83  1  0  0  0  0
 26 85  1  0  0  0  0
 27 86  1  0  0  0  0
 28 68  2  0  0  0  0
 29 59  1  0  0  0  0
 29 66  2  0  0  0  0
 30 63  1  0  0  0  0
 30 67  1  0  0  0  0
 31 69  1  0  0  0  0
 31 72  1  0  0  0  0
 32 73  1  0  0  0  0
 32 78  2  0  0  0  0
 33 47  1  0  0  0  0
 33 74  1  0  0  0  0
 33 79  2  0  0  0  0
 34 61  1  0  0  0  0
 34 70  1  0  0  0  0
 34 80  2  0  0  0  0
 35 62  1  0  0  0  0
 35 75  1  0  0  0  0
 35 81  2  0  0  0  0
 36 71  1  0  0  0  0
 36 76  1  0  0  0  0
 36 82  2  0  0  0  0
 37 40  1  0  0  0  0
 38 47  1  0  0  0  0
 39 70  1  0  0  0  0
 40 42  1  0  0  0  0
 41 43  1  0  0  0  0
 41 44  1  0  0  0  0
 42 46  1  0  0  0  0
 43 48  1  0  0  0  0
 44 71  1  0  0  0  0
 45 48  1  0  0  0  0
 45 71  1  0  0  0  0
 46 74  1  0  0  0  0
 47 70  1  0  0  0  0
 48 69  1  0  0  0  0
 49 62  1  0  0  0  0
 50 63  1  0  0  0  0
 51 63  1  0  0  0  0
 52 64  1  0  0  0  0
 53 64  1  0  0  0  0
 54 64  1  0  0  0  0
 55 65  1  0  0  0  0
 56 65  1  0  0  0  0
 57 76  1  0  0  0  0
 58 77  1  0  0  0  0
 59 65  1  0  0  0  0
 60 63  1  0  0  0  0
 60 76  1  0  0  0  0
 61 64  1  0  0  0  0
 61 75  1  0  0  0  0
 62 77  1  0  0  0  0
 65 84  1  0  0  0  0
 68 69  1  0  0  0  0
M  CHG  1  77   1
M  ISO  4  36 100  65 101  76 100  84 101
M  END
> <Batch ID>
0069

> <Smiles>
CNC(C)C(=O)NC(C(=O)N1Cc2cc([101O:1][101C:1](C)(C)Cc3cnc(C(C)(C)C[100N:0](C)[100C:0](=O)N4CCCC(n5nc(-c6ccc(Oc7ccc(F)cc7F)cc6)c(C(N)=O)c5N)C4)cn3)ccc2CC1C(=O)NC1CCCc2ccccc21)C(C)(C)C

> <Shape>
0.230

> <Color>
0.099

> <Negative vol penalty>
0.000

$$$$

  -OEChem-04052318173D

 83 91  0     1  0  0  0  0  0999 V2000
  -20.1211  -26.2871   25.9684 C   0  0  0  0  0  0  0  0  0  0  0  0
  -21.3396  -26.0936   25.3256 C   0  0  0  0  0  0  0  0  0  0  0  0
  -24.7660  -14.3550   20.4266 C   0  0  0  0  0  0  0  0  0  0  0  0
  -26.4117  -12.6039   20.1764 C   0  0  0  0  0  0  0  0  0  0  0  0
  -19.0868  -26.9542   25.3132 C   0  0  0  0  0  0  0  0  0  0  0  0
  -21.5242  -26.5661   24.0267 C   0  0  0  0  0  0  0  0  0  0  0  0
  -25.9740  -28.9076   23.4255 C   0  0  0  0  0  0  0  0  0  0  0  0
  -23.7451  -13.4100   20.3253 C   0  0  0  0  0  0  0  0  0  0  0  0
  -25.3908  -11.6589   20.0751 C   0  0  0  0  0  0  0  0  0  0  0  0
  -27.1035  -28.1023   23.2853 C   0  0  0  0  0  0  0  0  0  0  0  0
  -23.2244   -8.7394   20.1119 C   0  0  0  0  0  0  0  0  0  0  0  0
  -23.3596   -7.5570   20.8393 C   0  0  0  0  0  0  0  0  0  0  0  0
  -27.0299  -28.4254   20.8959 C   0  0  0  0  0  0  0  0  0  0  0  0
  -23.4390   -8.8288   22.8919 C   0  0  0  0  0  0  0  0  0  0  0  0
  -30.8502  -21.5823   20.2569 C   0  0  0  0  0  0  0  0  0  0  0  0
  -26.0994  -13.9520   20.3522 C   0  0  0  0  0  0  0  0  0  0  0  0
  -27.7967  -15.3633   21.6308 C   0  0  0  0  0  0  0  0  0  0  0  0
  -19.2621  -27.4436   24.0092 C   0  0  0  0  0  0  0  0  0  0  0  0
  -25.3566  -29.4699   22.2990 C   0  0  0  0  0  0  0  0  0  0  0  0
  -20.4909  -27.2392   23.3530 C   0  0  0  0  0  0  0  0  0  0  0  0
  -25.8943  -29.2396   21.0247 C   0  0  0  0  0  0  0  0  0  0  0  0
  -24.0574  -12.0620   20.1495 C   0  0  0  0  0  0  0  0  0  0  0  0
  -27.6299  -27.8587   22.0202 C   0  0  0  0  0  0  0  0  0  0  0  0
  -23.1966   -9.9666   20.7744 C   0  0  0  0  0  0  0  0  0  0  0  0
  -23.4669   -7.6017   22.2293 C   0  0  0  0  0  0  0  0  0  0  0  0
  -23.3039  -10.0113   22.1644 C   0  0  0  0  0  0  0  0  0  0  0  0
  -27.1544  -14.9277   20.4562 C   0  0  0  0  0  0  0  0  0  0  0  0
  -29.8590  -21.2296   19.3759 C   0  0  0  0  0  0  0  0  0  0  0  0
  -28.7155  -16.2876   21.1971 C   0  0  0  0  0  0  0  0  0  0  0  0
  -27.5821  -14.9677   22.9921 C   0  0  0  0  0  0  0  0  0  0  0  0
  -30.0310  -20.6732   18.0277 C   0  0  0  0  0  0  0  0  0  0  0  0
  -22.4849  -29.2248   20.9584 C   0  0  0  0  0  0  0  0  0  0  0  0
  -23.6155  -31.5737   19.0278 C   0  0  0  0  0  0  0  0  0  0  0  0
  -26.3151  -33.1538   17.6632 C   0  0  0  0  0  0  0  0  0  0  0  0
  -18.0993  -28.1169   23.3241 C   0  0  0  0  0  0  0  0  0  0  0  0
  -24.1547  -30.3581   22.4695 C   0  0  0  0  0  0  0  0  0  0  0  0
  -25.2807  -29.8363   19.7854 C   0  0  0  0  0  0  0  0  0  0  0  0
  -18.5009  -28.9161   22.0870 C   0  0  0  0  0  0  0  0  0  0  0  0
  -30.2956  -17.4422   16.5337 C   0  0  0  0  0  0  0  0  0  0  0  0
  -19.4426  -28.1003   21.2070 C   0  0  0  0  0  0  0  0  0  0  0  0
  -29.5382  -16.5360   17.5059 C   0  0  0  0  0  0  0  0  0  0  0  0
  -29.6524  -18.8230   16.4330 C   0  0  0  0  0  0  0  0  0  0  0  0
  -28.7076  -18.6028   18.7053 C   0  0  0  0  0  0  0  0  0  0  0  0
  -20.7380  -27.7589   21.9533 C   0  0  1  0  0  0  0  0  0  0  0  0
  -23.3033  -30.4601   21.2077 C   0  0  1  0  0  0  0  0  0  0  0  0
  -29.3530  -17.2176   18.8747 C   0  0  1  0  0  0  0  0  0  0  0  0
  -26.9224  -35.0147   16.0930 C   0  0  0  0  0  0  0  0  0  0  0  0
  -22.8604  -29.8131   16.6530 C   0  0  0  0  0  0  0  0  0  0  0  0
  -24.3181  -31.2513   15.2125 C   0  0  0  0  0  0  0  0  0  0  0  0
  -22.3365  -32.2409   16.3600 C   0  0  0  0  0  0  0  0  0  0  0  0
  -31.7434  -22.0442   24.9689 C   0  0  0  0  0  0  0  0  0  0  0  0
  -29.7642  -20.7657   24.1886 C   0  0  0  0  0  0  0  0  0  0  0  0
  -31.9936  -20.3356   23.1598 C   0  0  0  0  0  0  0  0  0  0  0  0
  -27.7657  -34.6244   19.7825 C   0  0  0  0  0  0  0  0  0  0  0  0
  -29.6788  -24.8766   22.2207 C   0  0  0  0  0  0  0  0  0  0  0  0
  -29.8842  -23.7343   23.2245 C   0  0  0  0  0  0  0  0  0  0  0  0
  -28.9201  -26.0403   22.8477 C   0  0  0  0  0  0  0  0  0  1  0  0
  -24.3719  -31.6127   17.7219 C   0  0  1  0  0  0  0  0  0  0  0  0
  -26.6648  -34.6259   17.5405 C   0  0  2  0  0  0  0  0  0  0  0  0
  -30.7422  -22.5696   22.6546 C   0  0  1  0  0  0  0  0  0  0  0  0
  -23.4824  -31.2165   16.5098 C   0  0  0  0  0  0  0  0  0  0  0  0
  -31.0737  -21.4401   23.7129 C   0  0  0  0  0  0  0  0  0  0  0  0
  -27.6252  -15.5262   19.3588 N   0  0  0  0  0  0  0  0  0  0  0  0
  -28.6366  -21.4726   19.9384 N   0  0  0  0  0  0  0  0  0  0  0  0
  -28.8380  -21.9705   21.1535 N   0  0  0  0  0  0  0  0  0  0  0  0
  -30.1661  -22.0353   21.3426 N   0  0  0  0  0  0  0  0  0  0  0  0
  -28.5730  -16.3474   19.8420 N   0  0  0  0  0  0  0  0  0  0  0  0
  -29.4869  -19.4148   17.7601 N   0  0  0  0  0  0  0  0  0  0  0  0
  -24.1032  -30.6926   20.0034 N   0  0  0  0  0  0  0  0  0  0  0  0
  -29.6232  -17.0469   21.8466 N   0  0  0  0  0  0  0  0  0  0  0  0
  -26.5987  -14.0060   23.2613 N   0  0  0  0  0  0  0  0  0  0  0  0
  -21.6192  -28.9064   21.9872 N   0  0  0  0  0  0  0  0  0  0  0  0
  -24.9522  -32.9478   17.6261 N   0  0  0  0  0  0  0  0  0  0  0  0
  -27.8870  -34.9359   18.3350 N   0  3  0  0  0  0  0  0  0  0  0  0
  -28.2315  -15.4646   23.9433 O   0  0  0  0  0  0  0  0  0  0  0  0
  -30.6618  -21.3658   17.2304 O   0  0  0  0  0  0  0  0  0  0  0  0
  -22.6273  -28.6073   19.9096 O   0  0  0  0  0  0  0  0  0  0  0  0
  -22.6326  -32.3035   19.1794 O   0  0  0  0  0  0  0  0  0  0  0  0
  -27.1660  -32.2742   17.7765 O   0  0  0  0  0  0  0  0  0  0  0  0
  -23.0615  -11.1396   20.0509 O   0  0  0  0  0  0  0  0  0  0  0  0
  -28.7318  -27.0725   21.8805 O   0  0  0  0  0  0  0  0  0  1  0  0
  -23.5952   -6.4660   22.9278 F   0  0  0  0  0  0  0  0  0  0  0  0
  -23.2766  -11.1872   22.8066 F   0  0  0  0  0  0  0  0  0  0  0  0
  1  2  1  0  0  0  0
  1  5  2  0  0  0  0
  2  6  2  0  0  0  0
  3  8  2  0  0  0  0
  3 16  1  0  0  0  0
  4  9  1  0  0  0  0
  4 16  2  0  0  0  0
  5 18  1  0  0  0  0
  6 20  1  0  0  0  0
  7 10  2  0  0  0  0
  7 19  1  0  0  0  0
  8 22  1  0  0  0  0
  9 22  2  0  0  0  0
 10 23  1  0  0  0  0
 11 12  2  0  0  0  0
 11 24  1  0  0  0  0
 12 25  1  0  0  0  0
 13 21  1  0  0  0  0
 13 23  2  0  0  0  0
 14 25  2  0  0  0  0
 14 26  1  0  0  0  0
 15 28  2  0  0  0  0
 15 66  1  0  0  0  0
 16 27  1  0  0  0  0
 17 27  1  0  0  0  0
 17 29  2  0  0  0  0
 17 30  1  0  0  0  0
 18 20  2  0  0  0  0
 18 35  1  0  0  0  0
 19 21  2  0  0  0  0
 19 36  1  0  0  0  0
 20 44  1  0  0  0  0
 21 37  1  0  0  0  0
 22 80  1  0  0  0  0
 23 81  1  0  0  0  0
 24 26  2  0  0  0  0
 24 80  1  0  0  0  0
 25 82  1  0  0  0  0
 26 83  1  0  0  0  0
 27 63  2  0  0  0  0
 28 31  1  0  0  0  0
 28 64  1  0  0  0  0
 29 67  1  0  0  0  0
 29 70  1  0  0  0  0
 30 71  1  0  0  0  0
 30 75  2  0  0  0  0
 31 68  1  0  0  0  0
 31 76  2  0  0  0  0
 32 45  1  0  0  0  0
 32 72  1  0  0  0  0
 32 77  2  0  0  0  0
 33 58  1  0  0  0  0
 33 69  1  0  0  0  0
 33 78  2  0  0  0  0
 34 59  1  0  0  0  0
 34 73  1  0  0  0  0
 34 79  2  0  0  0  0
 35 38  1  0  0  0  0
 36 45  1  0  0  0  0
 37 69  1  0  0  0  0
 38 40  1  0  0  0  0
 39 41  1  0  0  0  0
 39 42  1  0  0  0  0
 40 44  1  0  0  0  0
 41 46  1  0  0  0  0
 42 68  1  0  0  0  0
 43 46  1  0  0  0  0
 43 68  1  0  0  0  0
 44 72  1  0  0  0  0
 45 69  1  0  0  0  0
 46 67  1  0  0  0  0
 47 59  1  0  0  0  0
 48 61  1  0  0  0  0
 49 61  1  0  0  0  0
 50 61  1  0  0  0  0
 51 62  1  0  0  0  0
 52 62  1  0  0  0  0
 53 62  1  0  0  0  0
 54 74  1  0  0  0  0
 55 56  1  0  0  0  0
 55 57  1  0  0  0  0
 56 60  1  0  0  0  0
 57 81  1  0  0  0  0
 58 61  1  0  0  0  0
 58 73  1  0  0  0  0
 59 74  1  0  0  0  0
 60 62  1  0  0  0  0
 60 66  1  0  0  0  0
 63 67  1  0  0  0  0
 64 65  2  0  0  0  0
 65 66  1  0  0  0  0
M  CHG  1  74   1
M  ISO  4  28 100  31 100  57 101  81 101
M  END
> <Batch ID>
0069

> <Smiles>
CNC(C)C(=O)NC(C(=O)N1Cc2cc([101O:1][101CH2:1]CCC(n3c[100c:0]([100C:0](=O)N4CCCC(n5nc(-c6ccc(Oc7ccc(F)cc7F)cc6)c(C(N)=O)c5N)C4)nn3)C(C)(C)C)ccc2CC1C(=O)NC1CCCc2ccccc21)C(C)(C)C

> <Shape>
0.236

> <Color>
0.083

> <Negative vol penalty>
0.000

$$$$

  -OEChem-04052318173D

 85 93  0     1  0  0  0  0  0999 V2000
  -29.4812  -35.9268   20.4698 C   0  0  0  0  0  0  0  0  0  0  0  0
  -29.9151  -34.6189   20.2779 C   0  0  0  0  0  0  0  0  0  0  0  0
  -22.8786  -14.2444   21.9280 C   0  0  0  0  0  0  0  0  0  0  0  0
  -24.1012  -16.1409   22.7915 C   0  0  0  0  0  0  0  0  0  0  0  0
  -28.3610  -36.1795   21.2604 C   0  0  0  0  0  0  0  0  0  0  0  0
  -29.2296  -33.5631   20.8776 C   0  0  0  0  0  0  0  0  0  0  0  0
  -28.3861  -27.9470   18.5854 C   0  0  0  0  0  0  0  0  0  0  0  0
  -22.0431  -14.2746   23.0446 C   0  0  0  0  0  0  0  0  0  0  0  0
  -23.2656  -16.1711   23.9081 C   0  0  0  0  0  0  0  0  0  0  0  0
  -29.0431  -26.7367   18.8029 C   0  0  0  0  0  0  0  0  0  0  0  0
  -19.3623  -14.0780   25.4919 C   0  0  0  0  0  0  0  0  0  0  0  0
  -17.9902  -13.9457   25.2789 C   0  0  0  0  0  0  0  0  0  0  0  0
  -27.3687  -26.1270   20.4290 C   0  0  0  0  0  0  0  0  0  0  0  0
  -29.2762  -18.2366   17.7760 C   0  0  0  0  0  0  0  0  0  0  0  0
  -18.0115  -15.9340   23.9066 C   0  0  0  0  0  0  0  0  0  0  0  0
  -23.9077  -15.1775   21.8015 C   0  0  0  0  0  0  0  0  0  0  0  0
  -24.5848  -15.8227   19.4282 C   0  0  0  0  0  0  0  0  0  0  0  0
  -27.6557  -35.1254   21.8622 C   0  0  0  0  0  0  0  0  0  0  0  0
  -27.2195  -28.2616   19.2972 C   0  0  0  0  0  0  0  0  0  0  0  0
  -28.0997  -33.8020   21.6782 C   0  0  0  0  0  0  0  0  0  0  0  0
  -26.6974  -27.3408   20.2168 C   0  0  0  0  0  0  0  0  0  0  0  0
  -28.7092  -19.4070   18.2680 C   0  0  0  0  0  0  0  0  0  0  0  0
  -28.8443  -19.7256   19.6146 C   0  0  0  0  0  0  0  0  0  0  0  0
  -22.2366  -15.2380   24.0346 C   0  0  0  0  0  0  0  0  0  0  0  0
  -28.5360  -25.8277   19.7269 C   0  0  0  0  0  0  0  0  0  0  0  0
  -20.0590  -15.1383   24.9123 C   0  0  0  0  0  0  0  0  0  0  0  0
  -17.3147  -14.8736   24.4862 C   0  0  0  0  0  0  0  0  0  0  0  0
  -19.3836  -16.0663   24.1196 C   0  0  0  0  0  0  0  0  0  0  0  0
  -24.7714  -15.1465   20.6487 C   0  0  0  0  0  0  0  0  0  0  0  0
  -29.9628  -17.4251   18.6647 C   0  0  0  0  0  0  0  0  0  0  0  0
  -29.5501  -18.8475   20.4211 C   0  0  0  0  0  0  0  0  0  0  0  0
  -25.6730  -15.4679   18.6691 C   0  0  0  0  0  0  0  0  0  0  0  0
  -23.5227  -16.6939   19.0174 C   0  0  0  0  0  0  0  0  0  0  0  0
  -26.3910  -30.5423   21.3505 C   0  0  0  0  0  0  0  0  0  0  0  0
  -23.4579  -29.1847   21.0738 C   0  0  0  0  0  0  0  0  0  0  0  0
  -21.6048  -26.4183   20.3255 C   0  0  0  0  0  0  0  0  0  0  0  0
  -31.3894  -14.3552   19.7505 C   0  0  0  0  0  0  0  0  0  0  0  0
  -26.4785  -35.4514   22.7469 C   0  0  0  0  0  0  0  0  0  0  0  0
  -26.5079  -29.5598   19.0316 C   0  0  0  0  0  0  0  0  0  0  0  0
  -25.4370  -27.6220   20.9919 C   0  0  0  0  0  0  0  0  0  0  0  0
  -25.5863  -34.2483   23.0414 C   0  0  0  0  0  0  0  0  0  0  0  0
  -28.9391  -11.7682   18.7475 C   0  0  0  0  0  0  0  0  0  0  0  0
  -26.4312  -33.0404   23.4337 C   0  0  0  0  0  0  0  0  0  0  0  0
  -27.6030  -12.4227   19.0944 C   0  0  0  0  0  0  0  0  0  0  0  0
  -30.0674  -12.2738   19.6415 C   0  0  0  0  0  0  0  0  0  0  0  0
  -28.8737  -14.4096   19.9987 C   0  0  0  0  0  0  0  0  0  0  0  0
  -27.3679  -32.6281   22.2917 C   0  0  1  0  0  0  0  0  0  0  0  0
  -25.6124  -29.9975   20.1865 C   0  0  1  0  0  0  0  0  0  0  0  0
  -27.7247  -13.9565   19.0856 C   0  0  2  0  0  0  0  0  0  0  0  0
  -27.9610  -20.2994   17.3338 C   0  0  0  0  0  0  0  0  0  0  0  0
  -30.7837  -18.2389   22.5174 C   0  0  0  0  0  0  0  0  0  0  0  0
  -19.2334  -25.6032   20.2277 C   0  0  0  0  0  0  0  0  0  0  0  0
  -23.4108  -28.9641   24.1166 C   0  0  0  0  0  0  0  0  0  0  0  0
  -21.5253  -27.3314   23.8995 C   0  0  0  0  0  0  0  0  0  0  0  0
  -21.2443  -29.6736   23.0885 C   0  0  0  0  0  0  0  0  0  0  0  0
  -32.8267  -16.2802   19.1957 C   0  0  0  0  0  0  0  0  0  0  0  0
  -21.7912  -25.8683   17.4235 C   0  0  0  0  0  0  0  0  0  0  0  0
  -28.2425  -20.9891   20.1760 C   0  0  0  0  0  0  0  0  0  0  0  0
  -29.7302  -19.1365   21.8757 C   0  0  0  0  0  0  0  0  0  0  0  0
  -30.5855  -16.1618   18.1717 C   0  0  0  0  0  0  0  0  0  0  0  0
  -29.0326  -22.2535   19.8317 C   0  0  0  0  0  0  0  0  0  0  0  0
  -28.3712  -23.5332   20.3301 C   0  0  0  0  0  0  0  0  0  1  0  0
  -22.7186  -28.0812   21.7913 C   0  0  1  0  0  0  0  0  0  0  0  0
  -20.3781  -26.2341   19.4503 C   0  0  2  0  0  0  0  0  0  0  0  0
  -22.2496  -28.5078   23.2109 C   0  0  0  0  0  0  0  0  0  0  0  0
  -25.8901  -14.4170   20.6682 N   0  0  0  0  0  0  0  0  0  0  0  0
  -30.1150  -17.7014   19.9793 N   0  0  0  0  0  0  0  0  0  0  0  0
  -26.4162  -14.6328   19.4505 N   0  0  0  0  0  0  0  0  0  0  0  0
  -24.7810  -28.9077   20.7016 N   0  0  0  0  0  0  0  0  0  0  0  0
  -30.1329  -13.7356   19.6485 N   0  0  0  0  0  0  0  0  0  0  0  0
  -26.0571  -15.7916   17.4161 N   0  0  0  0  0  0  0  0  0  0  0  0
  -22.4828  -16.9519   19.9209 N   0  0  0  0  0  0  0  0  0  0  0  0
  -26.6372  -31.9000   21.2766 N   0  0  0  0  0  0  0  0  0  0  0  0
  -21.6368  -27.6700   20.9030 N   0  0  0  0  0  0  0  0  0  0  0  0
  -31.5393  -15.6035   19.1276 N   0  0  0  0  0  0  0  0  0  0  0  0
  -20.6975  -25.3566   18.2889 N   0  3  0  0  0  0  0  0  0  0  0  0
  -23.4882  -17.2147   17.8767 O   0  0  0  0  0  0  0  0  0  0  0  0
  -26.7411  -29.7870   22.2497 O   0  0  0  0  0  0  0  0  0  0  0  0
  -22.8804  -30.2505   20.8454 O   0  0  0  0  0  0  0  0  0  0  0  0
  -22.4481  -25.5385   20.4841 O   0  0  0  0  0  0  0  0  0  0  0  0
  -32.3265  -13.8185   20.3551 O   0  0  0  0  0  0  0  0  0  0  0  0
  -21.4214  -15.2679   25.1241 O   0  0  0  0  0  0  0  0  0  0  0  0
  -29.1757  -24.6459   19.9416 O   0  0  0  0  0  0  0  0  0  1  0  0
  -15.9974  -14.7456   24.2805 F   0  0  0  0  0  0  0  0  0  0  0  0
  -20.0478  -17.0864   23.5592 F   0  0  0  0  0  0  0  0  0  0  0  0
  1  2  1  0  0  0  0
  1  5  2  0  0  0  0
  2  6  2  0  0  0  0
  3  8  2  0  0  0  0
  3 16  1  0  0  0  0
  4  9  1  0  0  0  0
  4 16  2  0  0  0  0
  5 18  1  0  0  0  0
  6 20  1  0  0  0  0
  7 10  2  0  0  0  0
  7 19  1  0  0  0  0
  8 24  1  0  0  0  0
  9 24  2  0  0  0  0
 10 25  1  0  0  0  0
 11 12  2  0  0  0  0
 11 26  1  0  0  0  0
 12 27  1  0  0  0  0
 13 21  1  0  0  0  0
 13 25  2  0  0  0  0
 14 22  2  0  0  0  0
 14 30  1  0  0  0  0
 15 27  2  0  0  0  0
 15 28  1  0  0  0  0
 16 29  1  0  0  0  0
 17 29  1  0  0  0  0
 17 32  2  0  0  0  0
 17 33  1  0  0  0  0
 18 20  2  0  0  0  0
 18 38  1  0  0  0  0
 19 21  2  0  0  0  0
 19 39  1  0  0  0  0
 20 47  1  0  0  0  0
 21 40  1  0  0  0  0
 22 23  1  0  0  0  0
 22 50  1  0  0  0  0
 23 31  2  0  0  0  0
 23 58  1  0  0  0  0
 24 82  1  0  0  0  0
 25 83  1  0  0  0  0
 26 28  2  0  0  0  0
 26 82  1  0  0  0  0
 27 84  1  0  0  0  0
 28 85  1  0  0  0  0
 29 66  2  0  0  0  0
 30 60  1  0  0  0  0
 30 67  2  0  0  0  0
 31 59  1  0  0  0  0
 31 67  1  0  0  0  0
 32 68  1  0  0  0  0
 32 71  1  0  0  0  0
 33 72  1  0  0  0  0
 33 77  2  0  0  0  0
 34 48  1  0  0  0  0
 34 73  1  0  0  0  0
 34 78  2  0  0  0  0
 35 63  1  0  0  0  0
 35 69  1  0  0  0  0
 35 79  2  0  0  0  0
 36 64  1  0  0  0  0
 36 74  1  0  0  0  0
 36 80  2  0  0  0  0
 37 70  1  0  0  0  0
 37 75  1  0  0  0  0
 37 81  2  0  0  0  0
 38 41  1  0  0  0  0
 39 48  1  0  0  0  0
 40 69  1  0  0  0  0
 41 43  1  0  0  0  0
 42 44  1  0  0  0  0
 42 45  1  0  0  0  0
 43 47  1  0  0  0  0
 44 49  1  0  0  0  0
 45 70  1  0  0  0  0
 46 49  1  0  0  0  0
 46 70  1  0  0  0  0
 47 73  1  0  0  0  0
 48 69  1  0  0  0  0
 49 68  1  0  0  0  0
 51 59  1  0  0  0  0
 52 64  1  0  0  0  0
 53 65  1  0  0  0  0
 54 65  1  0  0  0  0
 55 65  1  0  0  0  0
 56 75  1  0  0  0  0
 57 76  1  0  0  0  0
 58 61  1  0  0  0  0
 60 75  1  0  0  0  0
 61 62  1  0  0  0  0
 62 83  1  0  0  0  0
 63 65  1  0  0  0  0
 63 74  1  0  0  0  0
 64 76  1  0  0  0  0
 66 68  1  0  0  0  0
M  CHG  1  76   1
M  ISO  4  37 100  62 101  75 100  83 101
M  END
> <Batch ID>
0069

> <Smiles>
CCc1nc(C[100N:0](C)[100C:0](=O)N2CCCC(n3nc(-c4ccc(Oc5ccc(F)cc5F)cc4)c(C(N)=O)c3N)C2)cc(C)c1CC[101CH2:1][101O:1]c1ccc2c(c1)CN(C(=O)C(NC(=O)C(C)NC)C(C)(C)C)C(C(=O)NC1CCCc3ccccc31)C2

> <Shape>
0.253

> <Color>
0.067

> <Negative vol penalty>
0.000

$$$$

  -OEChem-04052318173D

 84 92  0     1  0  0  0  0  0999 V2000
  -28.5598  -22.0764   19.5206 C   0  0  0  0  0  0  0  0  0  0  0  0
  -27.3706  -22.4431   20.1424 C   0  0  0  0  0  0  0  0  0  0  0  0
  -26.6721  -13.3972   20.7010 C   0  0  0  0  0  0  0  0  0  0  0  0
  -24.3248  -13.7298   21.1663 C   0  0  0  0  0  0  0  0  0  0  0  0
  -29.7352  -22.7716   19.8015 C   0  0  0  0  0  0  0  0  0  0  0  0
  -27.3563  -23.5047   21.0464 C   0  0  0  0  0  0  0  0  0  0  0  0
  -23.4340  -26.6240   20.3181 C   0  0  0  0  0  0  0  0  0  0  0  0
  -26.3948  -12.1196   20.2149 C   0  0  0  0  0  0  0  0  0  0  0  0
  -24.0474  -12.4522   20.6800 C   0  0  0  0  0  0  0  0  0  0  0  0
  -22.1925  -26.2085   20.7975 C   0  0  0  0  0  0  0  0  0  0  0  0
  -24.2743   -9.2638   21.7816 C   0  0  0  0  0  0  0  0  0  0  0  0
  -23.4103   -8.4605   22.5259 C   0  0  0  0  0  0  0  0  0  0  0  0
  -22.4766  -27.6164   22.7356 C   0  0  0  0  0  0  0  0  0  0  0  0
  -21.9025   -8.3369   20.6422 C   0  0  0  0  0  0  0  0  0  0  0  0
  -22.2185  -22.9104   26.4311 C   0  0  0  0  0  0  0  0  0  0  0  0
  -25.6371  -14.2023   21.1768 C   0  0  0  0  0  0  0  0  0  0  0  0
  -25.9480  -16.7239   20.9473 C   0  0  0  0  0  0  0  0  0  0  0  0
  -29.7335  -23.8485   20.7021 C   0  0  0  0  0  0  0  0  0  0  0  0
  -24.2123  -27.5320   21.0504 C   0  0  0  0  0  0  0  0  0  0  0  0
  -28.5331  -24.2142   21.3407 C   0  0  0  0  0  0  0  0  0  0  0  0
  -23.7264  -28.0438   22.2621 C   0  0  0  0  0  0  0  0  0  0  0  0
  -25.0825  -11.6471   20.2043 C   0  0  0  0  0  0  0  0  0  0  0  0
  -21.7149  -26.7025   22.0078 C   0  0  0  0  0  0  0  0  0  0  0  0
  -23.9523   -9.6037   20.4676 C   0  0  0  0  0  0  0  0  0  0  0  0
  -22.2245   -7.9970   21.9562 C   0  0  0  0  0  0  0  0  0  0  0  0
  -22.7664   -9.1402   19.8979 C   0  0  0  0  0  0  0  0  0  0  0  0
  -25.9231  -15.5219   21.6797 C   0  0  0  0  0  0  0  0  0  0  0  0
  -23.3295  -22.5838   25.6851 C   0  0  0  0  0  0  0  0  0  0  0  0
  -21.0574  -23.3483   24.5102 C   0  0  0  0  0  0  0  0  0  0  0  0
  -22.1687  -23.0224   23.7642 C   0  0  0  0  0  0  0  0  0  0  0  0
  -26.2672  -17.6849   21.8752 C   0  0  0  0  0  0  0  0  0  0  0  0
  -25.7043  -16.9513   19.5528 C   0  0  0  0  0  0  0  0  0  0  0  0
  -27.0775  -27.4332   22.4232 C   0  0  0  0  0  0  0  0  0  0  0  0
  -26.5036  -30.5824   22.9485 C   0  0  0  0  0  0  0  0  0  0  0  0
  -24.2170  -33.0905   23.3051 C   0  0  0  0  0  0  0  0  0  0  0  0
  -25.6302  -19.9779   26.9231 C   0  0  0  0  0  0  0  0  0  0  0  0
  -31.0382  -24.5396   21.0098 C   0  0  0  0  0  0  0  0  0  0  0  0
  -25.5375  -27.9907   20.5065 C   0  0  0  0  0  0  0  0  0  0  0  0
  -24.5142  -29.0360   23.0765 C   0  0  0  0  0  0  0  0  0  0  0  0
  -30.8640  -25.8920   21.6961 C   0  0  0  0  0  0  0  0  0  0  0  0
  -27.8950  -17.2448   26.6441 C   0  0  0  0  0  0  0  0  0  0  0  0
  -29.8531  -25.7872   22.8336 C   0  0  0  0  0  0  0  0  0  0  0  0
  -27.5816  -16.6488   25.2707 C   0  0  0  0  0  0  0  0  0  0  0  0
  -26.6340  -17.7520   27.3404 C   0  0  0  0  0  0  0  0  0  0  0  0
  -25.5128  -18.1012   25.1736 C   0  0  0  0  0  0  0  0  0  0  0  0
  -28.4723  -25.3760   22.3084 C   0  0  1  0  0  0  0  0  0  0  0  0
  -26.4737  -28.5251   21.5860 C   0  0  1  0  0  0  0  0  0  0  0  0
  -26.7605  -17.6270   24.4091 C   0  0  2  0  0  0  0  0  0  0  0  0
  -25.7756  -23.0845   26.0421 C   0  0  0  0  0  0  0  0  0  0  0  0
  -24.0483  -35.5517   23.7649 C   0  0  0  0  0  0  0  0  0  0  0  0
  -17.9469  -25.4996   23.6241 C   0  0  0  0  0  0  0  0  0  0  0  0
  -27.0913  -30.0690   25.8982 C   0  0  0  0  0  0  0  0  0  0  0  0
  -26.0048  -32.2623   26.4246 C   0  0  0  0  0  0  0  0  0  0  0  0
  -28.0502  -32.1962   24.9983 C   0  0  0  0  0  0  0  0  0  0  0  0
  -22.9118  -33.6058   20.6993 C   0  0  0  0  0  0  0  0  0  0  0  0
  -19.7637  -23.7812   23.8643 C   0  0  0  0  0  0  0  0  0  0  0  0
  -20.3356  -26.2645   23.8951 C   0  0  0  0  0  0  0  0  0  1  0  0
  -24.5900  -22.1579   26.3534 C   0  0  2  0  0  0  0  0  0  0  0  0
  -25.8522  -31.3809   24.0517 C   0  0  1  0  0  0  0  0  0  0  0  0
  -24.1392  -34.4773   22.6925 C   0  0  2  0  0  0  0  0  0  0  0  0
  -19.3023  -25.1940   24.2742 C   0  0  1  0  0  0  0  0  0  0  0  0
  -26.7354  -31.4569   25.3290 C   0  0  0  0  0  0  0  0  0  0  0  0
  -21.0625  -23.2985   25.8570 N   0  0  0  0  0  0  0  0  0  0  0  0
  -26.2042  -15.7005   22.9732 N   0  0  0  0  0  0  0  0  0  0  0  0
  -23.3245  -22.6340   24.3383 N   0  0  0  0  0  0  0  0  0  0  0  0
  -26.4089  -17.0258   23.0608 N   0  0  0  0  0  0  0  0  0  0  0  0
  -25.8069  -29.4491   22.5057 N   0  0  0  0  0  0  0  0  0  0  0  0
  -25.9021  -18.6762   26.4708 N   0  0  0  0  0  0  0  0  0  0  0  0
  -26.4377  -19.0210   21.7844 N   0  0  0  0  0  0  0  0  0  0  0  0
  -25.3887  -15.8527   18.7418 N   0  0  0  0  0  0  0  0  0  0  0  0
  -27.8054  -26.5074   21.7004 N   0  0  0  0  0  0  0  0  0  0  0  0
  -25.5222  -32.6798   23.4752 N   0  0  0  0  0  0  0  0  0  0  0  0
  -24.9378  -20.7912   26.0344 N   0  0  0  0  0  0  0  0  0  0  0  0
  -22.9413  -34.5886   21.8129 N   0  3  0  0  0  0  0  0  0  0  0  0
  -25.7807  -18.0926   19.0379 O   0  0  0  0  0  0  0  0  0  0  0  0
  -26.8976  -27.4317   23.6353 O   0  0  0  0  0  0  0  0  0  0  0  0
  -27.5872  -30.9546   22.4913 O   0  0  0  0  0  0  0  0  0  0  0  0
  -23.2196  -32.4384   23.6062 O   0  0  0  0  0  0  0  0  0  0  0  0
  -25.9834  -20.3869   28.0344 O   0  0  0  0  0  0  0  0  0  0  0  0
  -24.8114  -10.4006   19.7297 O   0  0  0  0  0  0  0  0  0  0  0  0
  -20.5037  -26.2981   22.4784 O   0  0  0  0  0  0  0  0  0  1  0  0
  -21.3957   -7.2244   22.6706 F   0  0  0  0  0  0  0  0  0  0  0  0
  -22.4523   -9.4624   18.6357 F   0  0  0  0  0  0  0  0  0  0  0  0
  -22.2041  -23.0699   22.0507 Cl  0  0  0  0  0  0  0  0  0  0  0  0
  1  2  1  0  0  0  0
  1  5  2  0  0  0  0
  2  6  2  0  0  0  0
  3  8  2  0  0  0  0
  3 16  1  0  0  0  0
  4  9  1  0  0  0  0
  4 16  2  0  0  0  0
  5 18  1  0  0  0  0
  6 20  1  0  0  0  0
  7 10  2  0  0  0  0
  7 19  1  0  0  0  0
  8 22  1  0  0  0  0
  9 22  2  0  0  0  0
 10 23  1  0  0  0  0
 11 12  2  0  0  0  0
 11 24  1  0  0  0  0
 12 25  1  0  0  0  0
 13 21  1  0  0  0  0
 13 23  2  0  0  0  0
 14 25  2  0  0  0  0
 14 26  1  0  0  0  0
 15 28  1  0  0  0  0
 15 63  2  0  0  0  0
 16 27  1  0  0  0  0
 17 27  1  0  0  0  0
 17 31  2  0  0  0  0
 17 32  1  0  0  0  0
 18 20  2  0  0  0  0
 18 37  1  0  0  0  0
 19 21  2  0  0  0  0
 19 38  1  0  0  0  0
 20 46  1  0  0  0  0
 21 39  1  0  0  0  0
 22 80  1  0  0  0  0
 23 81  1  0  0  0  0
 24 26  2  0  0  0  0
 24 80  1  0  0  0  0
 25 82  1  0  0  0  0
 26 83  1  0  0  0  0
 27 64  2  0  0  0  0
 28 58  1  0  0  0  0
 28 65  2  0  0  0  0
 29 30  2  0  0  0  0
 29 56  1  0  0  0  0
 29 63  1  0  0  0  0
 30 65  1  0  0  0  0
 30 84  1  0  0  0  0
 31 66  1  0  0  0  0
 31 69  1  0  0  0  0
 32 70  1  0  0  0  0
 32 75  2  0  0  0  0
 33 47  1  0  0  0  0
 33 71  1  0  0  0  0
 33 76  2  0  0  0  0
 34 59  1  0  0  0  0
 34 67  1  0  0  0  0
 34 77  2  0  0  0  0
 35 60  1  0  0  0  0
 35 72  1  0  0  0  0
 35 78  2  0  0  0  0
 36 68  1  0  0  0  0
 36 73  1  0  0  0  0
 36 79  2  0  0  0  0
 37 40  1  0  0  0  0
 38 47  1  0  0  0  0
 39 67  1  0  0  0  0
 40 42  1  0  0  0  0
 41 43  1  0  0  0  0
 41 44  1  0  0  0  0
 42 46  1  0  0  0  0
 43 48  1  0  0  0  0
 44 68  1  0  0  0  0
 45 48  1  0  0  0  0
 45 68  1  0  0  0  0
 46 71  1  0  0  0  0
 47 67  1  0  0  0  0
 48 66  1  0  0  0  0
 49 58  1  0  0  0  0
 50 60  1  0  0  0  0
 51 61  1  0  0  0  0
 52 62  1  0  0  0  0
 53 62  1  0  0  0  0
 54 62  1  0  0  0  0
 55 74  1  0  0  0  0
 56 61  1  0  0  0  0
 57 61  1  0  0  0  0
 57 81  1  0  0  0  0
 58 73  1  0  0  0  0
 59 62  1  0  0  0  0
 59 72  1  0  0  0  0
 60 74  1  0  0  0  0
 64 66  1  0  0  0  0
M  CHG  1  74   1
M  ISO  4  36 100  57 101  73 100  81 101
M  END
> <Batch ID>
0069

> <Smiles>
CNC(C)C(=O)NC(C(=O)N1Cc2cc([101O:1][101CH2:1]C(C)Cc3ncc(C(C)[100NH:0][100C:0](=O)N4CCCC(n5nc(-c6ccc(Oc7ccc(F)cc7F)cc6)c(C(N)=O)c5N)C4)nc3Cl)ccc2CC1C(=O)NC1CCCc2ccccc21)C(C)(C)C

> <Shape>
0.220

> <Color>
0.067

> <Negative vol penalty>
0.000

$$$$

  -OEChem-04052318173D

 87 95  0     1  0  0  0  0  0999 V2000
  -20.1196  -24.5521   23.9906 C   0  0  0  0  0  0  0  0  0  0  0  0
  -21.0877  -24.6701   22.9985 C   0  0  0  0  0  0  0  0  0  0  0  0
  -28.5179  -14.0060   18.6960 C   0  0  0  0  0  0  0  0  0  0  0  0
  -29.5783  -13.4300   20.7890 C   0  0  0  0  0  0  0  0  0  0  0  0
  -19.2299  -25.6001   24.2230 C   0  0  0  0  0  0  0  0  0  0  0  0
  -21.1660  -25.8359   22.2374 C   0  0  0  0  0  0  0  0  0  0  0  0
  -25.9247  -27.4748   21.6777 C   0  0  0  0  0  0  0  0  0  0  0  0
  -28.2968  -12.6536   18.4358 C   0  0  0  0  0  0  0  0  0  0  0  0
  -29.3572  -12.0776   20.5289 C   0  0  0  0  0  0  0  0  0  0  0  0
  -26.7183  -26.8172   20.7388 C   0  0  0  0  0  0  0  0  0  0  0  0
  -27.7748   -9.3312   17.0528 C   0  0  0  0  0  0  0  0  0  0  0  0
  -28.0595   -8.8608   15.7709 C   0  0  0  0  0  0  0  0  0  0  0  0
  -26.3124  -28.5950   19.1596 C   0  0  0  0  0  0  0  0  0  0  0  0
  -30.3643   -9.5356   16.0353 C   0  0  0  0  0  0  0  0  0  0  0  0
  -29.1587  -14.3942   19.8726 C   0  0  0  0  0  0  0  0  0  0  0  0
  -30.1364  -16.6949   19.3642 C   0  0  0  0  0  0  0  0  0  0  0  0
  -19.3035  -26.7832   23.4710 C   0  0  0  0  0  0  0  0  0  0  0  0
  -25.3091  -28.6941   21.3603 C   0  0  0  0  0  0  0  0  0  0  0  0
  -20.2756  -26.9002   22.4591 C   0  0  0  0  0  0  0  0  0  0  0  0
  -25.5136  -29.2673   20.0971 C   0  0  0  0  0  0  0  0  0  0  0  0
  -28.7165  -11.6894   19.3522 C   0  0  0  0  0  0  0  0  0  0  0  0
  -26.9099  -27.3758   19.4786 C   0  0  0  0  0  0  0  0  0  0  0  0
  -28.7848   -9.9038   17.8260 C   0  0  0  0  0  0  0  0  0  0  0  0
  -29.3543   -8.9630   15.2621 C   0  0  0  0  0  0  0  0  0  0  0  0
  -30.0795  -10.0060   17.3172 C   0  0  0  0  0  0  0  0  0  0  0  0
  -29.3879  -15.7911   20.1417 C   0  0  0  0  0  0  0  0  0  0  0  0
  -30.0485  -17.8860   20.0425 C   0  0  0  0  0  0  0  0  0  0  0  0
  -26.4449  -22.2425   20.1377 C   0  0  0  0  0  0  0  0  0  0  0  0
  -25.3228  -20.5761   20.9582 C   0  0  0  0  0  0  0  0  0  0  0  0
  -30.8476  -16.4773   18.1384 C   0  0  0  0  0  0  0  0  0  0  0  0
  -22.3015  -29.7022   21.1561 C   0  0  0  0  0  0  0  0  0  0  0  0
  -23.7102  -32.5871   20.6928 C   0  0  0  0  0  0  0  0  0  0  0  0
  -25.9711  -20.0075   23.9137 C   0  0  0  0  0  0  0  0  0  0  0  0
  -26.4635  -34.3402   19.6963 C   0  0  0  0  0  0  0  0  0  0  0  0
  -18.2898  -27.8702   23.7267 C   0  0  0  0  0  0  0  0  0  0  0  0
  -24.4777  -29.4041   22.3934 C   0  0  0  0  0  0  0  0  0  0  0  0
  -24.8914  -30.5842   19.7137 C   0  0  0  0  0  0  0  0  0  0  0  0
  -18.6798  -29.2196   23.1290 C   0  0  0  0  0  0  0  0  0  0  0  0
  -29.4991  -19.6678   24.4404 C   0  0  0  0  0  0  0  0  0  0  0  0
  -19.1602  -29.0479   21.6915 C   0  0  0  0  0  0  0  0  0  0  0  0
  -29.9337  -18.6951   23.3448 C   0  0  0  0  0  0  0  0  0  0  0  0
  -28.1058  -19.3332   24.9637 C   0  0  0  0  0  0  0  0  0  0  0  0
  -27.4898  -18.2947   22.8041 C   0  0  0  0  0  0  0  0  0  0  0  0
  -20.4081  -28.1588   21.6293 C   0  0  1  0  0  0  0  0  0  0  0  0
  -23.4813  -30.3868   21.7862 C   0  0  1  0  0  0  0  0  0  0  0  0
  -28.8796  -18.6157   22.2263 C   0  0  2  0  0  0  0  0  0  0  0  0
  -28.6256  -19.8401   20.2843 C   0  0  0  0  0  0  0  0  0  0  0  0
  -23.9021  -18.4891   20.9589 C   0  0  0  0  0  0  0  0  0  0  0  0
  -27.9367  -36.3320   19.2962 C   0  0  0  0  0  0  0  0  0  0  0  0
  -24.4377  -18.0893   23.8981 C   0  0  0  0  0  0  0  0  0  0  0  0
  -23.6188  -20.4237   23.5142 C   0  0  0  0  0  0  0  0  0  0  0  0
  -22.0480  -32.8499   18.1476 C   0  0  0  0  0  0  0  0  0  0  0  0
  -23.5812  -34.6904   17.4195 C   0  0  0  0  0  0  0  0  0  0  0  0
  -22.2264  -34.9471   19.4982 C   0  0  0  0  0  0  0  0  0  0  0  0
  -29.1679  -25.7469   20.1669 C   0  0  0  0  0  0  0  0  0  0  0  0
  -29.1057  -24.9755   17.7814 C   0  0  0  0  0  0  0  0  0  0  0  0
  -27.6250  -34.1725   22.4132 C   0  0  0  0  0  0  0  0  0  0  0  0
  -27.6084  -23.1350   19.7816 C   0  0  0  0  0  0  0  0  0  0  0  0
  -27.1323  -24.4988   19.2614 C   0  0  0  0  0  0  0  0  0  0  0  0
  -27.8019  -20.5203   21.3643 C   0  0  0  0  0  0  0  0  0  0  0  0
  -25.0237  -19.3159   21.6611 C   0  0  2  0  0  0  0  0  0  0  0  0
  -24.1941  -33.3597   19.4894 C   0  0  1  0  0  0  0  0  0  0  0  0
  -27.2071  -35.4978   20.3377 C   0  0  2  0  0  0  0  0  0  0  0  0
  -24.7595  -19.4314   23.2251 C   0  0  0  0  0  0  0  0  0  0  0  0
  -23.0227  -33.9360   18.6449 C   0  0  0  0  0  0  0  0  0  0  0  0
  -28.2685  -25.4954   18.9547 C   0  0  0  0  0  0  0  0  0  1  0  0
  -28.8632  -16.3592   21.2307 N   0  0  0  0  0  0  0  0  0  0  0  0
  -25.1802  -22.4313   19.8354 N   0  0  0  0  0  0  0  0  0  0  0  0
  -24.4664  -21.3711   20.3574 N   0  0  0  0  0  0  0  0  0  0  0  0
  -29.2828  -17.6329   21.1424 N   0  0  0  0  0  0  0  0  0  0  0  0
  -26.5804  -21.0863   20.8445 N   0  0  0  0  0  0  0  0  0  0  0  0
  -24.0820  -31.2367   20.7561 N   0  0  0  0  0  0  0  0  0  0  0  0
  -27.1382  -19.2447   23.8686 N   0  0  0  0  0  0  0  0  0  0  0  0
  -30.5524  -19.1146   19.7995 N   0  0  0  0  0  0  0  0  0  0  0  0
  -32.1919  -16.0867   18.2062 N   0  0  0  0  0  0  0  0  0  0  0  0
  -21.5817  -28.9065   22.0269 N   0  0  0  0  0  0  0  0  0  0  0  0
  -25.1180  -34.3685   19.9965 N   0  0  0  0  0  0  0  0  0  0  0  0
  -28.2078  -34.9907   21.3187 N   0  3  0  0  0  0  0  0  0  0  0  0
  -30.3116  -16.6409   17.0161 O   0  0  0  0  0  0  0  0  0  0  0  0
  -22.0610  -29.8836   19.9683 O   0  0  0  0  0  0  0  0  0  0  0  0
  -23.0335  -33.1626   21.5487 O   0  0  0  0  0  0  0  0  0  0  0  0
  -25.8817  -21.1042   24.4718 O   0  0  0  0  0  0  0  0  0  0  0  0
  -27.0198  -33.4975   18.9957 O   0  0  0  0  0  0  0  0  0  0  0  0
  -28.5007  -10.3696   19.0988 O   0  0  0  0  0  0  0  0  0  0  0  0
  -27.6835  -26.7358   18.5600 O   0  0  0  0  0  0  0  0  0  1  0  0
  -29.6279   -8.5099   14.0317 F   0  0  0  0  0  0  0  0  0  0  0  0
  -31.0542  -10.5541   18.0557 F   0  0  0  0  0  0  0  0  0  0  0  0
  1  2  1  0  0  0  0
  1  5  2  0  0  0  0
  2  6  2  0  0  0  0
  3  8  2  0  0  0  0
  3 15  1  0  0  0  0
  4  9  1  0  0  0  0
  4 15  2  0  0  0  0
  5 17  1  0  0  0  0
  6 19  1  0  0  0  0
  7 10  2  0  0  0  0
  7 18  1  0  0  0  0
  8 21  1  0  0  0  0
  9 21  2  0  0  0  0
 10 22  1  0  0  0  0
 11 12  2  0  0  0  0
 11 23  1  0  0  0  0
 12 24  1  0  0  0  0
 13 20  1  0  0  0  0
 13 22  2  0  0  0  0
 14 24  2  0  0  0  0
 14 25  1  0  0  0  0
 15 26  1  0  0  0  0
 16 26  1  0  0  0  0
 16 27  2  0  0  0  0
 16 30  1  0  0  0  0
 17 19  2  0  0  0  0
 17 35  1  0  0  0  0
 18 20  2  0  0  0  0
 18 36  1  0  0  0  0
 19 44  1  0  0  0  0
 20 37  1  0  0  0  0
 21 84  1  0  0  0  0
 22 85  1  0  0  0  0
 23 25  2  0  0  0  0
 23 84  1  0  0  0  0
 24 86  1  0  0  0  0
 25 87  1  0  0  0  0
 26 67  2  0  0  0  0
 27 70  1  0  0  0  0
 27 74  1  0  0  0  0
 28 58  1  0  0  0  0
 28 68  2  0  0  0  0
 28 71  1  0  0  0  0
 29 61  1  0  0  0  0
 29 69  2  0  0  0  0
 29 71  1  0  0  0  0
 30 75  1  0  0  0  0
 30 79  2  0  0  0  0
 31 45  1  0  0  0  0
 31 76  1  0  0  0  0
 31 80  2  0  0  0  0
 32 62  1  0  0  0  0
 32 72  1  0  0  0  0
 32 81  2  0  0  0  0
 33 64  1  0  0  0  0
 33 73  1  0  0  0  0
 33 82  2  0  0  0  0
 34 63  1  0  0  0  0
 34 77  1  0  0  0  0
 34 83  2  0  0  0  0
 35 38  1  0  0  0  0
 36 45  1  0  0  0  0
 37 72  1  0  0  0  0
 38 40  1  0  0  0  0
 39 41  1  0  0  0  0
 39 42  1  0  0  0  0
 40 44  1  0  0  0  0
 41 46  1  0  0  0  0
 42 73  1  0  0  0  0
 43 46  1  0  0  0  0
 43 73  1  0  0  0  0
 44 76  1  0  0  0  0
 45 72  1  0  0  0  0
 46 70  1  0  0  0  0
 47 60  1  0  0  0  0
 48 61  1  0  0  0  0
 49 63  1  0  0  0  0
 50 64  1  0  0  0  0
 51 64  1  0  0  0  0
 52 65  1  0  0  0  0
 53 65  1  0  0  0  0
 54 65  1  0  0  0  0
 55 66  1  0  0  0  0
 56 66  1  0  0  0  0
 57 78  1  0  0  0  0
 58 59  1  0  0  0  0
 59 66  1  0  0  0  0
 60 71  1  0  0  0  0
 61 64  1  0  0  0  0
 62 65  1  0  0  0  0
 62 77  1  0  0  0  0
 63 78  1  0  0  0  0
 66 85  1  0  0  0  0
 67 70  1  0  0  0  0
 68 69  1  0  0  0  0
M  CHG  1  78   1
M  ISO  4  33 100  64 100  66 101  85 101
M  END
> <Batch ID>
0069

> <Smiles>
CCn1c(CC[101C:1](C)(C)[101O:1]c2ccc3c(c2)CN(C(=O)C(NC(=O)C(C)NC)C(C)(C)C)C(C(=O)NC2CCCc4ccccc42)C3)nnc1C(C)[100C:0](C)(C)[100C:0](=O)N1CCCC(n2nc(-c3ccc(Oc4ccc(F)cc4F)cc3)c(C(N)=O)c2N)C1

> <Shape>
0.202

> <Color>
0.085

> <Negative vol penalty>
0.000

$$$$

  -OEChem-04052318173D

 87 95  0     1  0  0  0  0  0999 V2000
  -28.8583  -24.7822   16.4793 C   0  0  0  0  0  0  0  0  0  0  0  0
  -27.6825  -24.8064   17.2224 C   0  0  0  0  0  0  0  0  0  0  0  0
  -23.4316  -12.6958   22.4505 C   0  0  0  0  0  0  0  0  0  0  0  0
  -23.0390  -12.1220   20.1367 C   0  0  0  0  0  0  0  0  0  0  0  0
  -29.9898  -25.4505   16.9452 C   0  0  0  0  0  0  0  0  0  0  0  0
  -27.6378  -25.4979   18.4325 C   0  0  0  0  0  0  0  0  0  0  0  0
  -23.4462  -28.2983   18.9160 C   0  0  0  0  0  0  0  0  0  0  0  0
  -23.3948  -11.3440   22.7920 C   0  0  0  0  0  0  0  0  0  0  0  0
  -23.0023  -10.7701   20.4782 C   0  0  0  0  0  0  0  0  0  0  0  0
  -22.2715  -27.6317   19.2619 C   0  0  0  0  0  0  0  0  0  0  0  0
  -23.1643   -7.1439   20.6853 C   0  0  0  0  0  0  0  0  0  0  0  0
  -23.8654   -6.2504   19.8756 C   0  0  0  0  0  0  0  0  0  0  0  0
  -22.5572  -28.3299   21.5532 C   0  0  0  0  0  0  0  0  0  0  0  0
  -25.9217   -7.4209   20.3644 C   0  0  0  0  0  0  0  0  0  0  0  0
  -23.2537  -13.0849   21.1228 C   0  0  0  0  0  0  0  0  0  0  0  0
  -24.4198  -15.2326   20.3914 C   0  0  0  0  0  0  0  0  0  0  0  0
  -29.9562  -26.1586   18.1568 C   0  0  0  0  0  0  0  0  0  0  0  0
  -24.1922  -28.9776   19.8899 C   0  0  0  0  0  0  0  0  0  0  0  0
  -28.7703  -26.1752   18.9156 C   0  0  0  0  0  0  0  0  0  0  0  0
  -23.7396  -29.0064   21.2167 C   0  0  0  0  0  0  0  0  0  0  0  0
  -23.1802  -10.3811   21.8059 C   0  0  0  0  0  0  0  0  0  0  0  0
  -21.8284  -27.6450   20.5812 C   0  0  0  0  0  0  0  0  0  0  0  0
  -23.8419   -8.1760   21.3346 C   0  0  0  0  0  0  0  0  0  0  0  0
  -25.2441   -6.3889   19.7152 C   0  0  0  0  0  0  0  0  0  0  0  0
  -25.2205   -8.3145   21.1741 C   0  0  0  0  0  0  0  0  0  0  0  0
  -23.2910  -14.4812   20.7695 C   0  0  0  0  0  0  0  0  0  0  0  0
  -16.6627  -23.1536   19.3283 C   0  0  0  0  0  0  0  0  0  0  0  0
  -19.3279  -23.0525   19.2112 C   0  0  0  0  0  0  0  0  0  0  0  0
  -17.3042  -22.2883   18.4696 C   0  0  0  0  0  0  0  0  0  0  0  0
  -18.6865  -23.9184   20.0694 C   0  0  0  0  0  0  0  0  0  0  0  0
  -23.9305  -16.4950   20.1605 C   0  0  0  0  0  0  0  0  0  0  0  0
  -25.7884  -14.8258   20.2606 C   0  0  0  0  0  0  0  0  0  0  0  0
  -27.1320  -28.6946   21.0653 C   0  0  0  0  0  0  0  0  0  0  0  0
  -26.3439  -31.4178   22.6419 C   0  0  0  0  0  0  0  0  0  0  0  0
  -23.8918  -33.4355   23.8921 C   0  0  0  0  0  0  0  0  0  0  0  0
  -18.7602  -18.5354   18.5136 C   0  0  0  0  0  0  0  0  0  0  0  0
  -31.2183  -26.8262   18.6428 C   0  0  0  0  0  0  0  0  0  0  0  0
  -25.4430  -29.7142   19.4956 C   0  0  0  0  0  0  0  0  0  0  0  0
  -24.4933  -29.7382   22.2960 C   0  0  0  0  0  0  0  0  0  0  0  0
  -30.9788  -27.8483   19.7511 C   0  0  0  0  0  0  0  0  0  0  0  0
  -20.4313  -19.4646   21.4827 C   0  0  0  0  0  0  0  0  0  0  0  0
  -30.0478  -27.2744   20.8144 C   0  0  0  0  0  0  0  0  0  0  0  0
  -21.4694  -18.3503   21.6071 C   0  0  0  0  0  0  0  0  0  0  0  0
  -19.0787  -18.9384   20.9991 C   0  0  0  0  0  0  0  0  0  0  0  0
  -20.1937  -17.0398   19.8702 C   0  0  0  0  0  0  0  0  0  0  0  0
  -28.6752  -26.9350   20.2209 C   0  0  1  0  0  0  0  0  0  0  0  0
  -26.3960  -29.9419   20.6649 C   0  0  1  0  0  0  0  0  0  0  0  0
  -21.5783  -17.5511   20.2969 C   0  0  2  0  0  0  0  0  0  0  0  0
  -15.1753  -23.2165   19.4009 C   0  0  0  0  0  0  0  0  0  0  0  0
  -20.8152  -22.9892   19.1386 C   0  0  0  0  0  0  0  0  0  0  0  0
  -23.5573  -35.5735   25.1626 C   0  0  0  0  0  0  0  0  0  0  0  0
  -16.4497  -19.1582   16.3447 C   0  0  0  0  0  0  0  0  0  0  0  0
  -20.4088  -24.1253   21.9851 C   0  0  0  0  0  0  0  0  0  0  0  0
  -18.4802  -25.6869   21.8440 C   0  0  0  0  0  0  0  0  0  0  0  0
  -27.1423  -30.0045   25.2256 C   0  0  0  0  0  0  0  0  0  0  0  0
  -25.9192  -31.7828   26.4943 C   0  0  0  0  0  0  0  0  0  0  0  0
  -27.8763  -32.3902   25.0718 C   0  0  0  0  0  0  0  0  0  0  0  0
  -16.5511  -19.2923   19.4892 C   0  0  0  0  0  0  0  0  0  0  0  0
  -22.3995  -34.6682   21.6532 C   0  0  0  0  0  0  0  0  0  0  0  0
  -16.5405  -21.3749   17.5728 C   0  0  0  0  0  0  0  0  0  0  0  0
  -20.3386  -25.8407   20.1559 C   0  0  0  0  0  0  0  0  0  1  0  0
  -25.6976  -31.7361   23.9685 C   0  0  1  0  0  0  0  0  0  0  0  0
  -23.6694  -34.9335   23.7876 C   0  0  2  0  0  0  0  0  0  0  0  0
  -17.2787  -20.0550   17.2588 C   0  0  1  0  0  0  0  0  0  0  0  0
  -19.4757  -24.8632   20.9950 C   0  0  0  0  0  0  0  0  0  0  0  0
  -26.6454  -31.4629   25.1703 C   0  0  0  0  0  0  0  0  0  0  0  0
  -22.1690  -15.2059   20.7796 N   0  0  0  0  0  0  0  0  0  0  0  0
  -18.6483  -22.2220   18.3959 N   0  0  0  0  0  0  0  0  0  0  0  0
  -17.3424  -23.9844   20.1433 N   0  0  0  0  0  0  0  0  0  0  0  0
  -22.5905  -16.4258   20.4051 N   0  0  0  0  0  0  0  0  0  0  0  0
  -25.7137  -30.4379   21.8618 N   0  0  0  0  0  0  0  0  0  0  0  0
  -19.2341  -18.1425   19.7739 N   0  0  0  0  0  0  0  0  0  0  0  0
  -24.5199  -17.6464   19.7742 N   0  0  0  0  0  0  0  0  0  0  0  0
  -26.1182  -13.4917   20.5362 N   0  0  0  0  0  0  0  0  0  0  0  0
  -27.8868  -28.1367   20.0512 N   0  0  0  0  0  0  0  0  0  0  0  0
  -25.2331  -33.1160   23.8756 N   0  0  0  0  0  0  0  0  0  0  0  0
  -17.6089  -19.3365   18.4815 N   0  0  0  0  0  0  0  0  0  0  0  0
  -22.4169  -35.2198   23.0325 N   0  3  0  0  0  0  0  0  0  0  0  0
  -26.6948  -15.6256   19.9255 O   0  0  0  0  0  0  0  0  0  0  0  0
  -27.0242  -28.2707   22.2100 O   0  0  0  0  0  0  0  0  0  0  0  0
  -27.3661  -32.0215   22.3069 O   0  0  0  0  0  0  0  0  0  0  0  0
  -22.9683  -32.6297   23.9832 O   0  0  0  0  0  0  0  0  0  0  0  0
  -19.3291  -18.1835   17.4721 O   0  0  0  0  0  0  0  0  0  0  0  0
  -23.1445   -9.0618   22.1387 O   0  0  0  0  0  0  0  0  0  0  0  0
  -20.6825  -26.9947   20.9216 O   0  0  0  0  0  0  0  0  0  1  0  0
  -25.9175   -5.5298   18.9388 F   0  0  0  0  0  0  0  0  0  0  0  0
  -25.8771   -9.3032   21.7963 F   0  0  0  0  0  0  0  0  0  0  0  0
  1  2  1  0  0  0  0
  1  5  2  0  0  0  0
  2  6  2  0  0  0  0
  3  8  2  0  0  0  0
  3 15  1  0  0  0  0
  4  9  1  0  0  0  0
  4 15  2  0  0  0  0
  5 17  1  0  0  0  0
  6 19  1  0  0  0  0
  7 10  2  0  0  0  0
  7 18  1  0  0  0  0
  8 21  1  0  0  0  0
  9 21  2  0  0  0  0
 10 22  1  0  0  0  0
 11 12  2  0  0  0  0
 11 23  1  0  0  0  0
 12 24  1  0  0  0  0
 13 20  1  0  0  0  0
 13 22  2  0  0  0  0
 14 24  2  0  0  0  0
 14 25  1  0  0  0  0
 15 26  1  0  0  0  0
 16 26  1  0  0  0  0
 16 31  2  0  0  0  0
 16 32  1  0  0  0  0
 17 19  2  0  0  0  0
 17 37  1  0  0  0  0
 18 20  2  0  0  0  0
 18 38  1  0  0  0  0
 19 46  1  0  0  0  0
 20 39  1  0  0  0  0
 21 84  1  0  0  0  0
 22 85  1  0  0  0  0
 23 25  2  0  0  0  0
 23 84  1  0  0  0  0
 24 86  1  0  0  0  0
 25 87  1  0  0  0  0
 26 67  2  0  0  0  0
 27 29  1  0  0  0  0
 27 49  1  0  0  0  0
 27 69  2  0  0  0  0
 28 30  2  0  0  0  0
 28 50  1  0  0  0  0
 28 68  1  0  0  0  0
 29 60  1  0  0  0  0
 29 68  2  0  0  0  0
 30 65  1  0  0  0  0
 30 69  1  0  0  0  0
 31 70  1  0  0  0  0
 31 73  1  0  0  0  0
 32 74  1  0  0  0  0
 32 79  2  0  0  0  0
 33 47  1  0  0  0  0
 33 75  1  0  0  0  0
 33 80  2  0  0  0  0
 34 62  1  0  0  0  0
 34 71  1  0  0  0  0
 34 81  2  0  0  0  0
 35 63  1  0  0  0  0
 35 76  1  0  0  0  0
 35 82  2  0  0  0  0
 36 72  1  0  0  0  0
 36 77  1  0  0  0  0
 36 83  2  0  0  0  0
 37 40  1  0  0  0  0
 38 47  1  0  0  0  0
 39 71  1  0  0  0  0
 40 42  1  0  0  0  0
 41 43  1  0  0  0  0
 41 44  1  0  0  0  0
 42 46  1  0  0  0  0
 43 48  1  0  0  0  0
 44 72  1  0  0  0  0
 45 48  1  0  0  0  0
 45 72  1  0  0  0  0
 46 75  1  0  0  0  0
 47 71  1  0  0  0  0
 48 70  1  0  0  0  0
 51 63  1  0  0  0  0
 52 64  1  0  0  0  0
 53 65  1  0  0  0  0
 54 65  1  0  0  0  0
 55 66  1  0  0  0  0
 56 66  1  0  0  0  0
 57 66  1  0  0  0  0
 58 77  1  0  0  0  0
 59 78  1  0  0  0  0
 60 64  1  0  0  0  0
 61 65  1  0  0  0  0
 61 85  1  0  0  0  0
 62 66  1  0  0  0  0
 62 76  1  0  0  0  0
 63 78  1  0  0  0  0
 64 77  1  0  0  0  0
 67 70  1  0  0  0  0
M  CHG  1  78   1
M  ISO  4  36 100  61 101  77 100  85 101
M  END
> <Batch ID>
0069

> <Smiles>
CNC(C)C(=O)NC(C(=O)N1Cc2cc([101O:1][101CH2:1]C(C)(C)c3nc(C)c(CC(C)[100N:0](C)[100C:0](=O)N4CCCC(n5nc(-c6ccc(Oc7ccc(F)cc7F)cc6)c(C(N)=O)c5N)C4)nc3C)ccc2CC1C(=O)NC1CCCc2ccccc21)C(C)(C)C

> <Shape>
0.246

> <Color>
0.066

> <Negative vol penalty>
0.000

$$$$

  -OEChem-04052318173D

 85 93  0     1  0  0  0  0  0999 V2000
  -17.7315  -31.0065   21.4606 C   0  0  0  0  0  0  0  0  0  0  0  0
  -19.1017  -31.2427   21.5068 C   0  0  0  0  0  0  0  0  0  0  0  0
  -25.5994  -15.0364   21.6408 C   0  0  0  0  0  0  0  0  0  0  0  0
  -24.6925  -16.5158   19.9598 C   0  0  0  0  0  0  0  0  0  0  0  0
  -17.2327  -29.7408   21.7662 C   0  0  0  0  0  0  0  0  0  0  0  0
  -19.9739  -30.2136   21.8598 C   0  0  0  0  0  0  0  0  0  0  0  0
  -25.6238  -29.2707   19.6929 C   0  0  0  0  0  0  0  0  0  0  0  0
  -24.3856  -14.3513   21.6929 C   0  0  0  0  0  0  0  0  0  0  0  0
  -23.4786  -15.8307   20.0118 C   0  0  0  0  0  0  0  0  0  0  0  0
  -26.8858  -29.5823   20.1968 C   0  0  0  0  0  0  0  0  0  0  0  0
  -22.7645  -12.0131   19.8659 C   0  0  0  0  0  0  0  0  0  0  0  0
  -22.8066  -10.6190   19.8692 C   0  0  0  0  0  0  0  0  0  0  0  0
  -27.0625  -27.3579   21.1134 C   0  0  0  0  0  0  0  0  0  0  0  0
  -21.6840  -10.5901   22.0084 C   0  0  0  0  0  0  0  0  0  0  0  0
  -30.3260  -24.3535   17.6819 C   0  0  0  0  0  0  0  0  0  0  0  0
  -25.7529  -16.1187   20.7743 C   0  0  0  0  0  0  0  0  0  0  0  0
  -28.1043  -16.5499   19.8840 C   0  0  0  0  0  0  0  0  0  0  0  0
  -18.1001  -28.6932   22.1137 C   0  0  0  0  0  0  0  0  0  0  0  0
  -25.0661  -28.0017   19.9052 C   0  0  0  0  0  0  0  0  0  0  0  0
  -19.4862  -28.9331   22.1717 C   0  0  0  0  0  0  0  0  0  0  0  0
  -25.7943  -27.0319   20.6089 C   0  0  0  0  0  0  0  0  0  0  0  0
  -23.3251  -14.7485   20.8784 C   0  0  0  0  0  0  0  0  0  0  0  0
  -27.6041  -28.6269   20.9097 C   0  0  0  0  0  0  0  0  0  0  0  0
  -22.1822  -12.6959   20.9339 C   0  0  0  0  0  0  0  0  0  0  0  0
  -22.2663   -9.9074   20.9404 C   0  0  0  0  0  0  0  0  0  0  0  0
  -21.6420  -11.9844   22.0051 C   0  0  0  0  0  0  0  0  0  0  0  0
  -27.0065  -16.8271   20.7205 C   0  0  0  0  0  0  0  0  0  0  0  0
  -31.1754  -24.5478   18.7487 C   0  0  0  0  0  0  0  0  0  0  0  0
  -30.0414  -26.6149   17.4964 C   0  0  0  0  0  0  0  0  0  0  0  0
  -30.8902  -26.8094   18.5637 C   0  0  0  0  0  0  0  0  0  0  0  0
  -29.0378  -17.5011   20.2162 C   0  0  0  0  0  0  0  0  0  0  0  0
  -28.2658  -15.5245   18.8950 C   0  0  0  0  0  0  0  0  0  0  0  0
  -22.4776  -26.9092   21.3918 C   0  0  0  0  0  0  0  0  0  0  0  0
  -23.4145  -24.0791   20.1130 C   0  0  0  0  0  0  0  0  0  0  0  0
  -25.9458  -22.1600   18.8656 C   0  0  0  0  0  0  0  0  0  0  0  0
  -30.3962  -22.7846   21.3929 C   0  0  0  0  0  0  0  0  0  0  0  0
  -17.5106  -27.3546   22.4818 C   0  0  0  0  0  0  0  0  0  0  0  0
  -23.7149  -27.6726   19.3321 C   0  0  0  0  0  0  0  0  0  0  0  0
  -25.2488  -25.6483   20.8467 C   0  0  0  0  0  0  0  0  0  0  0  0
  -18.5309  -26.2191   22.4822 C   0  0  0  0  0  0  0  0  0  0  0  0
  -29.1727  -20.7779   24.0673 C   0  0  0  0  0  0  0  0  0  0  0  0
  -19.7989  -26.6410   23.2178 C   0  0  0  0  0  0  0  0  0  0  0  0
  -28.5854  -19.5520   23.3657 C   0  0  0  0  0  0  0  0  0  0  0  0
  -28.9424  -22.0540   23.2607 C   0  0  0  0  0  0  0  0  0  0  0  0
  -28.8208  -20.7695   21.1609 C   0  0  0  0  0  0  0  0  0  0  0  0
  -20.4663  -27.8359   22.5261 C   0  0  1  0  0  0  0  0  0  0  0  0
  -23.0272  -26.5154   20.0499 C   0  0  1  0  0  0  0  0  0  0  0  0
  -29.0771  -19.4502   21.9093 C   0  0  2  0  0  0  0  0  0  0  0  0
  -29.4067  -27.7660   16.7942 C   0  0  0  0  0  0  0  0  0  0  0  0
  -33.3060  -21.3223   19.1654 C   0  0  0  0  0  0  0  0  0  0  0  0
  -26.4117  -19.8765   17.9348 C   0  0  0  0  0  0  0  0  0  0  0  0
  -23.2907  -22.9090   22.9282 C   0  0  0  0  0  0  0  0  0  0  0  0
  -24.6445  -20.9698   22.1065 C   0  0  0  0  0  0  0  0  0  0  0  0
  -22.3896  -21.4146   21.1368 C   0  0  0  0  0  0  0  0  0  0  0  0
  -26.8321  -23.2718   16.2699 C   0  0  0  0  0  0  0  0  0  0  0  0
  -32.6838  -22.5380   18.4893 C   0  0  0  0  0  0  0  0  0  0  0  0
  -31.0914  -29.6009   20.8719 C   0  0  0  0  0  0  0  0  0  0  0  0
  -29.6099  -29.8836   20.6784 C   0  0  0  0  0  0  0  0  0  1  0  0
  -31.4712  -28.2068   20.3982 C   0  0  0  0  0  0  0  0  0  0  0  0
  -31.8016  -23.3859   19.4377 C   0  0  2  0  0  0  0  0  0  0  0  0
  -24.3127  -22.9502   20.5576 C   0  0  1  0  0  0  0  0  0  0  0  0
  -26.0438  -21.3155   17.6079 C   0  0  2  0  0  0  0  0  0  0  0  0
  -23.6691  -22.0875   21.6797 C   0  0  0  0  0  0  0  0  0  0  0  0
  -29.7438  -25.3835   17.0365 N   0  0  0  0  0  0  0  0  0  0  0  0
  -27.2212  -17.8724   21.5238 N   0  0  0  0  0  0  0  0  0  0  0  0
  -31.4727  -25.7793   19.2088 N   0  0  0  0  0  0  0  0  0  0  0  0
  -28.4648  -18.2603   21.1936 N   0  0  0  0  0  0  0  0  0  0  0  0
  -23.9208  -25.3769   20.2719 N   0  0  0  0  0  0  0  0  0  0  0  0
  -29.4323  -21.8919   21.8897 N   0  0  0  0  0  0  0  0  0  0  0  0
  -30.2847  -17.7536   19.7647 N   0  0  0  0  0  0  0  0  0  0  0  0
  -27.2078  -14.6307   18.6804 N   0  0  0  0  0  0  0  0  0  0  0  0
  -21.1868  -27.4005   21.3489 N   0  0  0  0  0  0  0  0  0  0  0  0
  -24.6565  -22.2032   19.3525 N   0  0  0  0  0  0  0  0  0  0  0  0
  -30.8108  -22.5562   20.0864 N   0  0  0  0  0  0  0  0  0  0  0  0
  -27.0806  -21.8691   16.6917 N   0  3  0  0  0  0  0  0  0  0  0  0
  -29.3234  -15.3941   18.2332 O   0  0  0  0  0  0  0  0  0  0  0  0
  -23.1727  -26.7757   22.3921 O   0  0  0  0  0  0  0  0  0  0  0  0
  -22.3073  -23.8188   19.6355 O   0  0  0  0  0  0  0  0  0  0  0  0
  -26.9166  -22.7217   19.3680 O   0  0  0  0  0  0  0  0  0  0  0  0
  -30.8574  -23.7129   22.0656 O   0  0  0  0  0  0  0  0  0  0  0  0
  -22.1405  -14.0800   20.9288 O   0  0  0  0  0  0  0  0  0  0  0  0
  -28.8359  -28.9286   21.4032 O   0  0  0  0  0  0  0  0  0  1  0  0
  -31.1789  -28.0713   19.0140 O   0  0  0  0  0  0  0  0  0  0  0  0
  -22.3055   -8.5686   20.9428 F   0  0  0  0  0  0  0  0  0  0  0  0
  -21.0803  -12.6347   23.0334 F   0  0  0  0  0  0  0  0  0  0  0  0
  1  2  1  0  0  0  0
  1  5  2  0  0  0  0
  2  6  2  0  0  0  0
  3  8  2  0  0  0  0
  3 16  1  0  0  0  0
  4  9  1  0  0  0  0
  4 16  2  0  0  0  0
  5 18  1  0  0  0  0
  6 20  1  0  0  0  0
  7 10  2  0  0  0  0
  7 19  1  0  0  0  0
  8 22  1  0  0  0  0
  9 22  2  0  0  0  0
 10 23  1  0  0  0  0
 11 12  2  0  0  0  0
 11 24  1  0  0  0  0
 12 25  1  0  0  0  0
 13 21  1  0  0  0  0
 13 23  2  0  0  0  0
 14 25  2  0  0  0  0
 14 26  1  0  0  0  0
 15 28  1  0  0  0  0
 15 64  2  0  0  0  0
 16 27  1  0  0  0  0
 17 27  1  0  0  0  0
 17 31  2  0  0  0  0
 17 32  1  0  0  0  0
 18 20  2  0  0  0  0
 18 37  1  0  0  0  0
 19 21  2  0  0  0  0
 19 38  1  0  0  0  0
 20 46  1  0  0  0  0
 21 39  1  0  0  0  0
 22 81  1  0  0  0  0
 23 82  1  0  0  0  0
 24 26  2  0  0  0  0
 24 81  1  0  0  0  0
 25 84  1  0  0  0  0
 26 85  1  0  0  0  0
 27 65  2  0  0  0  0
 28 60  1  0  0  0  0
 28 66  2  0  0  0  0
 29 30  2  0  0  0  0
 29 49  1  0  0  0  0
 29 64  1  0  0  0  0
 30 66  1  0  0  0  0
 30 83  1  0  0  0  0
 31 67  1  0  0  0  0
 31 70  1  0  0  0  0
 32 71  1  0  0  0  0
 32 76  2  0  0  0  0
 33 47  1  0  0  0  0
 33 72  1  0  0  0  0
 33 77  2  0  0  0  0
 34 61  1  0  0  0  0
 34 68  1  0  0  0  0
 34 78  2  0  0  0  0
 35 62  1  0  0  0  0
 35 73  1  0  0  0  0
 35 79  2  0  0  0  0
 36 69  1  0  0  0  0
 36 74  1  0  0  0  0
 36 80  2  0  0  0  0
 37 40  1  0  0  0  0
 38 47  1  0  0  0  0
 39 68  1  0  0  0  0
 40 42  1  0  0  0  0
 41 43  1  0  0  0  0
 41 44  1  0  0  0  0
 42 46  1  0  0  0  0
 43 48  1  0  0  0  0
 44 69  1  0  0  0  0
 45 48  1  0  0  0  0
 45 69  1  0  0  0  0
 46 72  1  0  0  0  0
 47 68  1  0  0  0  0
 48 67  1  0  0  0  0
 50 56  1  0  0  0  0
 51 62  1  0  0  0  0
 52 63  1  0  0  0  0
 53 63  1  0  0  0  0
 54 63  1  0  0  0  0
 55 75  1  0  0  0  0
 56 60  1  0  0  0  0
 57 58  1  0  0  0  0
 57 59  1  0  0  0  0
 58 82  1  0  0  0  0
 59 83  1  0  0  0  0
 60 74  1  0  0  0  0
 61 63  1  0  0  0  0
 61 73  1  0  0  0  0
 62 75  1  0  0  0  0
 65 67  1  0  0  0  0
M  CHG  1  75   1
M  ISO  4  36 100  58 101  74 100  82 101
M  END
> <Batch ID>
0069

> <Smiles>
CCC([100NH:0][100C:0](=O)N1CCCC(n2nc(-c3ccc(Oc4ccc(F)cc4F)cc3)c(C(N)=O)c2N)C1)c1cnc(C)c(OCC[101CH2:1][101O:1]c2ccc3c(c2)CN(C(=O)C(NC(=O)C(C)NC)C(C)(C)C)C(C(=O)NC2CCCc4ccccc42)C3)n1

> <Shape>
0.236

> <Color>
0.072

> <Negative vol penalty>
0.000

$$$$

  -OEChem-04052318173D

 89 97  0     1  0  0  0  0  0999 V2000
  -24.3853  -33.7901   15.1955 C   0  0  0  0  0  0  0  0  0  0  0  0
  -24.5222  -32.4169   15.3710 C   0  0  0  0  0  0  0  0  0  0  0  0
  -24.6545   -9.0158   21.7223 C   0  0  0  0  0  0  0  0  0  0  0  0
  -23.0337  -10.8067   21.6736 C   0  0  0  0  0  0  0  0  0  0  0  0
  -24.7949  -34.6646   16.2012 C   0  0  0  0  0  0  0  0  0  0  0  0
  -25.0700  -31.9173   16.5521 C   0  0  0  0  0  0  0  0  0  0  0  0
  -23.5315  -26.7280   19.4173 C   0  0  0  0  0  0  0  0  0  0  0  0
  -23.8385   -8.3011   22.5992 C   0  0  0  0  0  0  0  0  0  0  0  0
  -22.2176  -10.0920   22.5505 C   0  0  0  0  0  0  0  0  0  0  0  0
  -24.1027  -25.4562   19.4255 C   0  0  0  0  0  0  0  0  0  0  0  0
  -21.0589   -6.3848   22.4130 C   0  0  0  0  0  0  0  0  0  0  0  0
  -20.8659   -5.0271   22.1579 C   0  0  0  0  0  0  0  0  0  0  0  0
  -25.2897  -26.0091   21.4515 C   0  0  0  0  0  0  0  0  0  0  0  0
  -21.8213   -4.4870   24.3103 C   0  0  0  0  0  0  0  0  0  0  0  0
  -31.4929  -20.4446   20.2327 C   0  0  0  0  0  0  0  0  0  0  0  0
  -24.2521  -10.2687   21.2596 C   0  0  0  0  0  0  0  0  0  0  0  0
  -25.0812  -10.9573   18.9474 C   0  0  0  0  0  0  0  0  0  0  0  0
  -25.3390  -34.1752   17.3991 C   0  0  0  0  0  0  0  0  0  0  0  0
  -23.8441  -27.6552   20.4218 C   0  0  0  0  0  0  0  0  0  0  0  0
  -25.4885  -32.7861   17.5742 C   0  0  0  0  0  0  0  0  0  0  0  0
  -24.7191  -27.2911   21.4551 C   0  0  0  0  0  0  0  0  0  0  0  0
  -22.6201   -8.8392   23.0133 C   0  0  0  0  0  0  0  0  0  0  0  0
  -24.9842  -25.0976   20.4411 C   0  0  0  0  0  0  0  0  0  0  0  0
  -21.6332   -6.7936   23.6166 C   0  0  0  0  0  0  0  0  0  0  0  0
  -21.2470   -4.0782   23.1065 C   0  0  0  0  0  0  0  0  0  0  0  0
  -22.0143   -5.8447   24.5653 C   0  0  0  0  0  0  0  0  0  0  0  0
  -25.0949  -11.0077   20.3542 C   0  0  0  0  0  0  0  0  0  0  0  0
  -30.3416  -20.0205   19.6065 C   0  0  0  0  0  0  0  0  0  0  0  0
  -30.5708  -22.5167   20.5250 C   0  0  0  0  0  0  0  0  0  0  0  0
  -29.4197  -22.0929   19.8982 C   0  0  0  0  0  0  0  0  0  0  0  0
  -26.0635  -11.8369   18.5628 C   0  0  0  0  0  0  0  0  0  0  0  0
  -24.2545  -10.1845   18.0671 C   0  0  0  0  0  0  0  0  0  0  0  0
  -25.2190  -30.5205   20.4806 C   0  0  0  0  0  0  0  0  0  0  0  0
  -24.3731  -30.4314   23.6109 C   0  0  0  0  0  0  0  0  0  0  0  0
  -28.3455  -16.5746   21.3236 C   0  0  0  0  0  0  0  0  0  0  0  0
  -23.5886  -28.5494   26.3476 C   0  0  0  0  0  0  0  0  0  0  0  0
  -25.8112  -35.1611   18.4382 C   0  0  0  0  0  0  0  0  0  0  0  0
  -23.1987  -29.0138   20.4133 C   0  0  0  0  0  0  0  0  0  0  0  0
  -25.0716  -28.2429   22.5680 C   0  0  0  0  0  0  0  0  0  0  0  0
  -26.0358  -34.5365   19.8128 C   0  0  0  0  0  0  0  0  0  0  0  0
  -30.1986  -13.7226   20.0355 C   0  0  0  0  0  0  0  0  0  0  0  0
  -26.8235  -33.2364   19.6862 C   0  0  0  0  0  0  0  0  0  0  0  0
  -29.0882  -12.6857   19.8709 C   0  0  0  0  0  0  0  0  0  0  0  0
  -29.9598  -14.6122   21.2527 C   0  0  0  0  0  0  0  0  0  0  0  0
  -27.5165  -14.2555   21.0868 C   0  0  0  0  0  0  0  0  0  0  0  0
  -26.0552  -32.2049   18.8514 C   0  0  1  0  0  0  0  0  0  0  0  0
  -23.9866  -30.0545   21.2030 C   0  0  1  0  0  0  0  0  0  0  0  0
  -27.7041  -13.3576   19.8524 C   0  0  2  0  0  0  0  0  0  0  0  0
  -30.5412  -23.9859   22.5565 C   0  0  0  0  0  0  0  0  0  0  0  0
  -22.9807  -28.7581   28.7734 C   0  0  0  0  0  0  0  0  0  0  0  0
  -31.3493  -18.3498   18.0288 C   0  0  0  0  0  0  0  0  0  0  0  0
  -28.9138  -18.3094   18.2973 C   0  0  0  0  0  0  0  0  0  0  0  0
  -30.2707  -17.1029   22.7767 C   0  0  0  0  0  0  0  0  0  0  0  0
  -28.9388  -18.9036   21.6925 C   0  0  0  0  0  0  0  0  0  0  0  0
  -27.2861  -31.0383   24.2861 C   0  0  0  0  0  0  0  0  0  0  0  0
  -26.8225  -30.3027   26.6339 C   0  0  0  0  0  0  0  0  0  0  0  0
  -25.6139  -32.2665   25.6824 C   0  0  0  0  0  0  0  0  0  0  0  0
  -20.9662  -27.2453   25.9223 C   0  0  0  0  0  0  0  0  0  0  0  0
  -30.7077  -23.9085   21.0408 C   0  0  0  0  0  0  0  0  0  0  0  0
  -28.2442  -23.0171   19.7044 C   0  0  0  0  0  0  0  0  0  0  0  0
  -26.9561  -22.2984   19.2972 C   0  0  0  0  0  0  0  0  0  0  0  0
  -25.7541  -23.2292   19.1872 C   0  0  0  0  0  0  0  0  0  1  0  0
  -25.0256  -29.9418   24.8811 C   0  0  1  0  0  0  0  0  0  0  0  0
  -22.4539  -28.6543   27.3506 C   0  0  2  0  0  0  0  0  0  0  0  0
  -30.4096  -17.5044   20.2140 C   0  0  2  0  0  0  0  0  0  0  0  0
  -30.2273  -18.6254   19.1000 C   0  0  0  0  0  0  0  0  0  0  0  0
  -29.5301  -17.4914   21.4973 C   0  0  0  0  0  0  0  0  0  0  0  0
  -26.1821  -30.8698   25.3490 C   0  0  0  0  0  0  0  0  0  0  0  0
  -31.6282  -21.7003   20.7032 N   0  0  0  0  0  0  0  0  0  0  0  0
  -26.0132  -11.8524   20.8310 N   0  0  0  0  0  0  0  0  0  0  0  0
  -29.2843  -20.8371   19.4279 N   0  0  0  0  0  0  0  0  0  0  0  0
  -26.5857  -12.3408   19.7176 N   0  0  0  0  0  0  0  0  0  0  0  0
  -24.4198  -29.5617   22.5121 N   0  0  0  0  0  0  0  0  0  0  0  0
  -28.6205  -15.2115   21.2114 N   0  0  0  0  0  0  0  0  0  0  0  0
  -26.5228  -12.2207   17.3528 N   0  0  0  0  0  0  0  0  0  0  0  0
  -23.2954   -9.3308   18.6290 N   0  0  0  0  0  0  0  0  0  0  0  0
  -25.0055  -31.5967   19.6405 N   0  0  0  0  0  0  0  0  0  0  0  0
  -23.9527  -29.7857   25.8573 N   0  0  0  0  0  0  0  0  0  0  0  0
  -21.5721  -27.4562   27.2622 N   0  3  0  0  0  0  0  0  0  0  0  0
  -24.3742  -10.2369   16.8195 O   0  0  0  0  0  0  0  0  0  0  0  0
  -26.2848  -29.9471   20.6723 O   0  0  0  0  0  0  0  0  0  0  0  0
  -23.8353  -31.5415   23.5963 O   0  0  0  0  0  0  0  0  0  0  0  0
  -27.2109  -17.0576   21.2862 O   0  0  0  0  0  0  0  0  0  0  0  0
  -24.1032  -27.4784   26.0336 O   0  0  0  0  0  0  0  0  0  0  0  0
  -21.8234   -8.1419   23.8687 O   0  0  0  0  0  0  0  0  0  0  0  0
  -25.5437  -23.8572   20.4512 O   0  0  0  0  0  0  0  0  0  1  0  0
  -21.0602   -2.7746   22.8621 F   0  0  0  0  0  0  0  0  0  0  0  0
  -22.5654   -6.2314   25.7240 F   0  0  0  0  0  0  0  0  0  0  0  0
  -31.7160  -17.5584   20.6357 F   0  0  0  0  0  0  0  0  0  0  0  0
  1  2  1  0  0  0  0
  1  5  2  0  0  0  0
  2  6  2  0  0  0  0
  3  8  2  0  0  0  0
  3 16  1  0  0  0  0
  4  9  1  0  0  0  0
  4 16  2  0  0  0  0
  5 18  1  0  0  0  0
  6 20  1  0  0  0  0
  7 10  2  0  0  0  0
  7 19  1  0  0  0  0
  8 22  1  0  0  0  0
  9 22  2  0  0  0  0
 10 23  1  0  0  0  0
 11 12  2  0  0  0  0
 11 24  1  0  0  0  0
 12 25  1  0  0  0  0
 13 21  1  0  0  0  0
 13 23  2  0  0  0  0
 14 25  2  0  0  0  0
 14 26  1  0  0  0  0
 15 28  1  0  0  0  0
 15 69  2  0  0  0  0
 16 27  1  0  0  0  0
 17 27  1  0  0  0  0
 17 31  2  0  0  0  0
 17 32  1  0  0  0  0
 18 20  2  0  0  0  0
 18 37  1  0  0  0  0
 19 21  2  0  0  0  0
 19 38  1  0  0  0  0
 20 46  1  0  0  0  0
 21 39  1  0  0  0  0
 22 85  1  0  0  0  0
 23 86  1  0  0  0  0
 24 26  2  0  0  0  0
 24 85  1  0  0  0  0
 25 87  1  0  0  0  0
 26 88  1  0  0  0  0
 27 70  2  0  0  0  0
 28 66  1  0  0  0  0
 28 71  2  0  0  0  0
 29 30  2  0  0  0  0
 29 59  1  0  0  0  0
 29 69  1  0  0  0  0
 30 60  1  0  0  0  0
 30 71  1  0  0  0  0
 31 72  1  0  0  0  0
 31 75  1  0  0  0  0
 32 76  1  0  0  0  0
 32 80  2  0  0  0  0
 33 47  1  0  0  0  0
 33 77  1  0  0  0  0
 33 81  2  0  0  0  0
 34 63  1  0  0  0  0
 34 73  1  0  0  0  0
 34 82  2  0  0  0  0
 35 67  1  0  0  0  0
 35 74  1  0  0  0  0
 35 83  2  0  0  0  0
 36 64  1  0  0  0  0
 36 78  1  0  0  0  0
 36 84  2  0  0  0  0
 37 40  1  0  0  0  0
 38 47  1  0  0  0  0
 39 73  1  0  0  0  0
 40 42  1  0  0  0  0
 41 43  1  0  0  0  0
 41 44  1  0  0  0  0
 42 46  1  0  0  0  0
 43 48  1  0  0  0  0
 44 74  1  0  0  0  0
 45 48  1  0  0  0  0
 45 74  1  0  0  0  0
 46 77  1  0  0  0  0
 47 73  1  0  0  0  0
 48 72  1  0  0  0  0
 49 59  1  0  0  0  0
 50 64  1  0  0  0  0
 51 66  1  0  0  0  0
 52 66  1  0  0  0  0
 53 67  1  0  0  0  0
 54 67  1  0  0  0  0
 55 68  1  0  0  0  0
 56 68  1  0  0  0  0
 57 68  1  0  0  0  0
 58 79  1  0  0  0  0
 60 61  1  0  0  0  0
 61 62  1  0  0  0  0
 62 86  1  0  0  0  0
 63 68  1  0  0  0  0
 63 78  1  0  0  0  0
 64 79  1  0  0  0  0
 65 66  1  0  0  0  0
 65 67  1  0  0  0  0
 65 89  1  0  0  0  0
 70 72  1  0  0  0  0
M  CHG  1  79   1
M  ISO  4  35 100  62 101  67 100  86 101
M  END
> <Batch ID>
0069

> <Smiles>
CCc1ncc(C(C)(C)C(F)[100C:0](C)(C)[100C:0](=O)N2CCCC(n3nc(-c4ccc(Oc5ccc(F)cc5F)cc4)c(C(N)=O)c3N)C2)nc1CC[101CH2:1][101O:1]c1ccc2c(c1)CN(C(=O)C(NC(=O)C(C)NC)C(C)(C)C)C(C(=O)NC1CCCc3ccccc31)C2

> <Shape>
0.273

> <Color>
0.084

> <Negative vol penalty>
0.000

$$$$

  -OEChem-04052318173D

 87 95  0     1  0  0  0  0  0999 V2000
  -26.3667  -35.4960   23.1157 C   0  0  0  0  0  0  0  0  0  0  0  0
  -26.8632  -34.2151   22.8960 C   0  0  0  0  0  0  0  0  0  0  0  0
  -24.7651  -13.2488   21.5244 C   0  0  0  0  0  0  0  0  0  0  0  0
  -26.1449  -13.1413   19.5440 C   0  0  0  0  0  0  0  0  0  0  0  0
  -25.0750  -35.6661   23.6122 C   0  0  0  0  0  0  0  0  0  0  0  0
  -26.0686  -33.1035   23.1739 C   0  0  0  0  0  0  0  0  0  0  0  0
  -26.2470  -29.6213   19.5013 C   0  0  0  0  0  0  0  0  0  0  0  0
  -24.0807  -12.1064   21.1096 C   0  0  0  0  0  0  0  0  0  0  0  0
  -25.4604  -11.9989   19.1292 C   0  0  0  0  0  0  0  0  0  0  0  0
  -27.3713  -28.7980   19.4586 C   0  0  0  0  0  0  0  0  0  0  0  0
  -24.5897   -8.7637   21.0991 C   0  0  0  0  0  0  0  0  0  0  0  0
  -24.3495   -7.7712   22.0492 C   0  0  0  0  0  0  0  0  0  0  0  0
  -26.1227  -27.0465   20.5506 C   0  0  0  0  0  0  0  0  0  0  0  0
  -21.9710   -8.0147   21.7021 C   0  0  0  0  0  0  0  0  0  0  0  0
  -31.0269  -25.5189   18.2317 C   0  0  0  0  0  0  0  0  0  0  0  0
  -25.7972  -13.7663   20.7416 C   0  0  0  0  0  0  0  0  0  0  0  0
  -27.6599  -15.0015   21.9713 C   0  0  0  0  0  0  0  0  0  0  0  0
  -24.2607  -34.5562   23.8871 C   0  0  0  0  0  0  0  0  0  0  0  0
  -25.0533  -29.1665   20.0797 C   0  0  0  0  0  0  0  0  0  0  0  0
  -24.7652  -33.2588   23.6758 C   0  0  0  0  0  0  0  0  0  0  0  0
  -24.9839  -27.8651   20.5971 C   0  0  0  0  0  0  0  0  0  0  0  0
  -30.6655  -26.2017   19.3752 C   0  0  0  0  0  0  0  0  0  0  0  0
  -24.4283  -11.4814   19.9120 C   0  0  0  0  0  0  0  0  0  0  0  0
  -27.3101  -27.5114   19.9859 C   0  0  0  0  0  0  0  0  0  0  0  0
  -23.5206   -9.3818   20.4506 C   0  0  0  0  0  0  0  0  0  0  0  0
  -23.0401   -7.3966   22.3507 C   0  0  0  0  0  0  0  0  0  0  0  0
  -22.2112   -9.0073   20.7521 C   0  0  0  0  0  0  0  0  0  0  0  0
  -26.5042  -14.9466   21.1693 C   0  0  0  0  0  0  0  0  0  0  0  0
  -31.3581  -25.8598   20.5187 C   0  0  0  0  0  0  0  0  0  0  0  0
  -27.9335  -16.3424   22.0881 C   0  0  0  0  0  0  0  0  0  0  0  0
  -32.5909  -24.3301   19.3753 C   0  0  0  0  0  0  0  0  0  0  0  0
  -28.4184  -13.9356   22.5581 C   0  0  0  0  0  0  0  0  0  0  0  0
  -23.2692  -30.0736   22.5492 C   0  0  0  0  0  0  0  0  0  0  0  0
  -21.2514  -27.7942   21.4289 C   0  0  0  0  0  0  0  0  0  0  0  0
  -20.8338  -24.9274   19.6250 C   0  0  0  0  0  0  0  0  0  0  0  0
  -28.4296  -21.4227   19.8320 C   0  0  0  0  0  0  0  0  0  0  0  0
  -22.8881  -34.7888   24.4673 C   0  0  0  0  0  0  0  0  0  0  0  0
  -23.8415  -30.0575   20.0939 C   0  0  0  0  0  0  0  0  0  0  0  0
  -23.7202  -27.3220   21.2107 C   0  0  0  0  0  0  0  0  0  0  0  0
  -21.9759  -33.5678   24.3822 C   0  0  0  0  0  0  0  0  0  0  0  0
  -25.1714  -20.3880   20.8270 C   0  0  0  0  0  0  0  0  0  0  0  0
  -22.7162  -32.3153   24.8407 C   0  0  0  0  0  0  0  0  0  0  0  0
  -25.3217  -18.8844   21.0647 C   0  0  0  0  0  0  0  0  0  0  0  0
  -26.0235  -20.8616   19.6516 C   0  0  0  0  0  0  0  0  0  0  0  0
  -27.6011  -18.9957   19.9735 C   0  0  0  0  0  0  0  0  0  0  0  0
  -23.9249  -32.0287   23.9415 C   0  0  1  0  0  0  0  0  0  0  0  0
  -22.8299  -29.6731   21.1692 C   0  0  1  0  0  0  0  0  0  0  0  0
  -26.8037  -18.4810   21.1840 C   0  0  2  0  0  0  0  0  0  0  0  0
  -31.0525  -26.5334   21.8158 C   0  0  0  0  0  0  0  0  0  0  0  0
  -19.0750  -23.2820   18.9203 C   0  0  0  0  0  0  0  0  0  0  0  0
  -35.0007  -23.9662   19.8435 C   0  0  0  0  0  0  0  0  0  0  0  0
  -34.0147  -22.6893   17.9754 C   0  0  0  0  0  0  0  0  0  0  0  0
  -21.2679  -26.5811   24.2286 C   0  0  0  0  0  0  0  0  0  0  0  0
  -20.3096  -24.4851   23.2504 C   0  0  0  0  0  0  0  0  0  0  0  0
  -19.0256  -26.6199   23.1217 C   0  0  0  0  0  0  0  0  0  0  0  0
  -32.4535  -20.0786   19.1181 C   0  0  0  0  0  0  0  0  0  0  0  0
  -32.1580  -20.2892   21.5753 C   0  0  0  0  0  0  0  0  0  0  0  0
  -21.2834  -25.4993   16.7563 C   0  0  0  0  0  0  0  0  0  0  0  0
  -29.5859  -27.2434   19.3495 C   0  0  0  0  0  0  0  0  0  1  0  0
  -33.4238  -22.0882   20.3927 C   0  0  0  0  0  0  0  0  0  0  0  0
  -30.8689  -21.8271   20.0443 C   0  0  0  0  0  0  0  0  0  0  0  0
  -21.0715  -26.3145   21.6680 C   0  0  1  0  0  0  0  0  0  0  0  0
  -19.8290  -24.5502   18.5515 C   0  0  2  0  0  0  0  0  0  0  0  0
  -33.6607  -23.2911   19.3754 C   0  0  0  0  0  0  0  0  0  0  0  0
  -20.4432  -26.0108   23.0574 C   0  0  0  0  0  0  0  0  0  0  0  0
  -32.2133  -21.0983   20.2519 C   0  0  0  0  0  0  0  0  0  0  0  0
  -31.9887  -24.5734   18.1956 N   0  0  0  0  0  0  0  0  0  0  0  0
  -26.0731  -16.1565   20.8027 N   0  0  0  0  0  0  0  0  0  0  0  0
  -32.3303  -24.9250   20.5550 N   0  0  0  0  0  0  0  0  0  0  0  0
  -26.9626  -16.9842   21.3769 N   0  0  0  0  0  0  0  0  0  0  0  0
  -22.5642  -28.2336   21.2066 N   0  0  0  0  0  0  0  0  0  0  0  0
  -27.4179  -20.4482   19.8272 N   0  0  0  0  0  0  0  0  0  0  0  0
  -28.9073  -17.0233   22.7287 N   0  0  0  0  0  0  0  0  0  0  0  0
  -27.9984  -12.6168   22.3380 N   0  0  0  0  0  0  0  0  0  0  0  0
  -23.4972  -31.4286   22.6960 N   0  0  0  0  0  0  0  0  0  0  0  0
  -20.2977  -25.8097   20.5390 N   0  0  0  0  0  0  0  0  0  0  0  0
  -29.7227  -20.9464   20.0103 N   0  0  0  0  0  0  0  0  0  0  0  0
  -20.5208  -24.3242   17.2510 N   0  3  0  0  0  0  0  0  0  0  0  0
  -29.4289  -14.1473   23.2706 O   0  0  0  0  0  0  0  0  0  0  0  0
  -23.3909  -29.2169   23.4169 O   0  0  0  0  0  0  0  0  0  0  0  0
  -20.2627  -28.5318   21.4320 O   0  0  0  0  0  0  0  0  0  0  0  0
  -21.9786  -24.4809   19.6524 O   0  0  0  0  0  0  0  0  0  0  0  0
  -28.1971  -22.6284   19.6934 O   0  0  0  0  0  0  0  0  0  0  0  0
  -23.7608  -10.3665   19.5070 O   0  0  0  0  0  0  0  0  0  0  0  0
  -28.4062  -26.7059   19.9461 O   0  0  0  0  0  0  0  0  0  1  0  0
  -22.8096   -6.4423   23.2620 F   0  0  0  0  0  0  0  0  0  0  0  0
  -21.1801   -9.5967   20.1314 F   0  0  0  0  0  0  0  0  0  0  0  0
  1  2  1  0  0  0  0
  1  5  2  0  0  0  0
  2  6  2  0  0  0  0
  3  8  2  0  0  0  0
  3 16  1  0  0  0  0
  4  9  1  0  0  0  0
  4 16  2  0  0  0  0
  5 18  1  0  0  0  0
  6 20  1  0  0  0  0
  7 10  2  0  0  0  0
  7 19  1  0  0  0  0
  8 23  1  0  0  0  0
  9 23  2  0  0  0  0
 10 24  1  0  0  0  0
 11 12  2  0  0  0  0
 11 25  1  0  0  0  0
 12 26  1  0  0  0  0
 13 21  1  0  0  0  0
 13 24  2  0  0  0  0
 14 26  2  0  0  0  0
 14 27  1  0  0  0  0
 15 22  1  0  0  0  0
 15 67  2  0  0  0  0
 16 28  1  0  0  0  0
 17 28  1  0  0  0  0
 17 30  2  0  0  0  0
 17 32  1  0  0  0  0
 18 20  2  0  0  0  0
 18 37  1  0  0  0  0
 19 21  2  0  0  0  0
 19 38  1  0  0  0  0
 20 46  1  0  0  0  0
 21 39  1  0  0  0  0
 22 29  2  0  0  0  0
 22 59  1  0  0  0  0
 23 84  1  0  0  0  0
 24 85  1  0  0  0  0
 25 27  2  0  0  0  0
 25 84  1  0  0  0  0
 26 86  1  0  0  0  0
 27 87  1  0  0  0  0
 28 68  2  0  0  0  0
 29 49  1  0  0  0  0
 29 69  1  0  0  0  0
 30 70  1  0  0  0  0
 30 73  1  0  0  0  0
 31 64  1  0  0  0  0
 31 67  1  0  0  0  0
 31 69  2  0  0  0  0
 32 74  1  0  0  0  0
 32 79  2  0  0  0  0
 33 47  1  0  0  0  0
 33 75  1  0  0  0  0
 33 80  2  0  0  0  0
 34 62  1  0  0  0  0
 34 71  1  0  0  0  0
 34 81  2  0  0  0  0
 35 63  1  0  0  0  0
 35 76  1  0  0  0  0
 35 82  2  0  0  0  0
 36 72  1  0  0  0  0
 36 77  1  0  0  0  0
 36 83  2  0  0  0  0
 37 40  1  0  0  0  0
 38 47  1  0  0  0  0
 39 71  1  0  0  0  0
 40 42  1  0  0  0  0
 41 43  1  0  0  0  0
 41 44  1  0  0  0  0
 42 46  1  0  0  0  0
 43 48  1  0  0  0  0
 44 72  1  0  0  0  0
 45 48  1  0  0  0  0
 45 72  1  0  0  0  0
 46 75  1  0  0  0  0
 47 71  1  0  0  0  0
 48 70  1  0  0  0  0
 50 63  1  0  0  0  0
 51 64  1  0  0  0  0
 52 64  1  0  0  0  0
 53 65  1  0  0  0  0
 54 65  1  0  0  0  0
 55 65  1  0  0  0  0
 56 66  1  0  0  0  0
 57 66  1  0  0  0  0
 58 78  1  0  0  0  0
 59 85  1  0  0  0  0
 60 64  1  0  0  0  0
 60 66  1  0  0  0  0
 61 66  1  0  0  0  0
 61 77  1  0  0  0  0
 62 65  1  0  0  0  0
 62 76  1  0  0  0  0
 63 78  1  0  0  0  0
 68 70  1  0  0  0  0
M  CHG  1  78   1
M  ISO  4  36 100  59 101  77 100  85 101
M  END
> <Batch ID>
0069

> <Smiles>
CNC(C)C(=O)NC(C(=O)N1Cc2cc([101O:1][101CH2:1]c3cnc(C(C)(C)CC(C)(C)C[100NH:0][100C:0](=O)N4CCCC(n5nc(-c6ccc(Oc7ccc(F)cc7F)cc6)c(C(N)=O)c5N)C4)nc3C)ccc2CC1C(=O)NC1CCCc2ccccc21)C(C)(C)C

> <Shape>
0.297

> <Color>
0.088

> <Negative vol penalty>
0.000

$$$$

  -OEChem-04052318173D

 82 90  0     1  0  0  0  0  0999 V2000
  -19.6287  -34.1320   23.0636 C   0  0  0  0  0  0  0  0  0  0  0  0
  -20.9610  -33.8614   22.7685 C   0  0  0  0  0  0  0  0  0  0  0  0
  -26.3712  -18.2321   19.1172 C   0  0  0  0  0  0  0  0  0  0  0  0
  -27.9216  -17.1365   20.6115 C   0  0  0  0  0  0  0  0  0  0  0  0
  -18.8109  -33.1254   23.5753 C   0  0  0  0  0  0  0  0  0  0  0  0
  -21.4766  -32.5842   22.9859 C   0  0  0  0  0  0  0  0  0  0  0  0
  -25.7176  -29.7063   19.6336 C   0  0  0  0  0  0  0  0  0  0  0  0
  -25.8924  -16.9893   18.7027 C   0  0  0  0  0  0  0  0  0  0  0  0
  -27.4428  -15.8937   20.1970 C   0  0  0  0  0  0  0  0  0  0  0  0
  -27.0916  -29.5395   19.8014 C   0  0  0  0  0  0  0  0  0  0  0  0
  -24.7648  -13.9264   20.8125 C   0  0  0  0  0  0  0  0  0  0  0  0
  -24.5034  -12.9732   21.7967 C   0  0  0  0  0  0  0  0  0  0  0  0
  -26.6997  -27.3887   20.8212 C   0  0  0  0  0  0  0  0  0  0  0  0
  -26.1168  -11.4863   20.7851 C   0  0  0  0  0  0  0  0  0  0  0  0
  -31.7781  -27.6630   20.4523 C   0  0  0  0  0  0  0  0  0  0  0  0
  -31.6264  -26.4263   22.2641 C   0  0  0  0  0  0  0  0  0  0  0  0
  -27.3858  -18.3057   20.0716 C   0  0  0  0  0  0  0  0  0  0  0  0
  -27.4039  -20.3712   21.5686 C   0  0  0  0  0  0  0  0  0  0  0  0
  -19.3142  -31.8326   23.7900 C   0  0  0  0  0  0  0  0  0  0  0  0
  -24.8223  -28.7188   20.0689 C   0  0  0  0  0  0  0  0  0  0  0  0
  -20.6651  -31.5596   23.5021 C   0  0  0  0  0  0  0  0  0  0  0  0
  -25.3150  -27.5443   20.6554 C   0  0  0  0  0  0  0  0  0  0  0  0
  -30.8527  -27.0256   21.3004 C   0  0  0  0  0  0  0  0  0  0  0  0
  -26.4282  -15.8201   19.2426 C   0  0  0  0  0  0  0  0  0  0  0  0
  -27.5827  -28.3819   20.3979 C   0  0  0  0  0  0  0  0  0  0  0  0
  -25.7021  -13.6595   19.8145 C   0  0  0  0  0  0  0  0  0  0  0  0
  -25.1794  -11.7532   21.7830 C   0  0  0  0  0  0  0  0  0  0  0  0
  -26.3781  -12.4395   19.8008 C   0  0  0  0  0  0  0  0  0  0  0  0
  -27.8812  -19.5892   20.4997 C   0  0  0  0  0  0  0  0  0  0  0  0
  -28.2028  -21.4884   21.5602 C   0  0  0  0  0  0  0  0  0  0  0  0
  -26.3340  -20.1109   22.4870 C   0  0  0  0  0  0  0  0  0  0  0  0
  -22.4681  -28.6081   22.2018 C   0  0  0  0  0  0  0  0  0  0  0  0
  -33.2319  -23.7067   21.3053 C   0  0  0  0  0  0  0  0  0  0  0  0
  -22.0093  -25.6455   20.9631 C   0  0  0  0  0  0  0  0  0  0  0  0
  -24.0770  -22.8869   19.8992 C   0  0  0  0  0  0  0  0  0  0  0  0
  -18.4043  -30.7896   24.3891 C   0  0  0  0  0  0  0  0  0  0  0  0
  -23.3446  -28.9021   19.8563 C   0  0  0  0  0  0  0  0  0  0  0  0
  -24.3969  -26.4451   21.1214 C   0  0  0  0  0  0  0  0  0  0  0  0
  -18.9294  -29.3642   24.2384 C   0  0  0  0  0  0  0  0  0  0  0  0
  -31.5306  -23.1431   18.1406 C   0  0  0  0  0  0  0  0  0  0  0  0
  -20.4045  -29.2954   24.6207 C   0  0  0  0  0  0  0  0  0  0  0  0
  -30.4026  -22.2028   18.5632 C   0  0  0  0  0  0  0  0  0  0  0  0
  -32.8060  -22.8838   18.9382 C   0  0  0  0  0  0  0  0  0  0  0  0
  -31.4879  -22.0136   20.8434 C   0  0  0  0  0  0  0  0  0  0  0  0
  -21.2546  -30.1801   23.7009 C   0  0  1  0  0  0  0  0  0  0  0  0
  -22.4956  -28.0595   20.8033 C   0  0  1  0  0  0  0  0  0  0  0  0
  -30.1743  -22.2632   20.0837 C   0  0  2  0  0  0  0  0  0  0  0  0
  -23.6462  -21.0814   18.2103 C   0  0  0  0  0  0  0  0  0  0  0  0
  -34.7748  -27.5362   23.3302 C   0  0  0  0  0  0  0  0  0  0  0  0
  -21.0442  -24.0301   23.3650 C   0  0  0  0  0  0  0  0  0  0  0  0
  -22.1083  -22.0070   22.3438 C   0  0  0  0  0  0  0  0  0  0  0  0
  -20.2569  -23.1772   21.1499 C   0  0  0  0  0  0  0  0  0  0  0  0
  -36.1804  -26.2396   21.1686 C   0  0  0  0  0  0  0  0  0  0  0  0
  -35.7981  -24.3576   22.7572 C   0  0  0  0  0  0  0  0  0  0  0  0
  -26.5454  -23.5379   18.4018 C   0  0  0  0  0  0  0  0  0  0  0  0
  -29.3571  -27.0063   21.1822 C   0  0  0  0  0  0  0  0  0  1  0  0
  -34.3336  -24.5805   20.7607 C   0  0  0  0  0  0  0  0  0  0  0  0
  -22.5361  -24.2646   21.2709 C   0  0  1  0  0  0  0  0  0  0  0  0
  -24.3109  -22.4239   18.4725 C   0  0  2  0  0  0  0  0  0  0  0  0
  -34.0964  -26.3196   22.6724 C   0  0  2  0  0  0  0  0  0  0  0  0
  -21.5018  -23.3931   22.0377 C   0  0  0  0  0  0  0  0  0  0  0  0
  -35.0836  -25.3912   21.8570 C   0  0  0  0  0  0  0  0  0  0  0  0
  -33.0429  -27.4853   20.8429 N   0  0  0  0  0  0  0  0  0  0  0  0
  -28.9039  -20.1612   19.8588 N   0  0  0  0  0  0  0  0  0  0  0  0
  -32.9178  -26.7296   21.9472 N   0  0  0  0  0  0  0  0  0  0  0  0
  -29.0758  -21.3146   20.5269 N   0  0  0  0  0  0  0  0  0  0  0  0
  -22.9600  -26.6739   20.8973 N   0  0  0  0  0  0  0  0  0  0  0  0
  -32.5408  -22.9225   20.3813 N   0  0  0  0  0  0  0  0  0  0  0  0
  -28.2365  -22.5927   22.3360 N   0  0  0  0  0  0  0  0  0  0  0  0
  -25.6156  -18.9148   22.3542 N   0  0  0  0  0  0  0  0  0  0  0  0
  -21.4628  -29.5295   22.4250 N   0  0  0  0  0  0  0  0  0  0  0  0
  -22.9668  -23.6987   19.9971 N   0  0  0  0  0  0  0  0  0  0  0  0
  -25.7706  -22.2856   18.2056 N   0  3  0  0  0  0  0  0  0  0  0  0
  -26.0137  -20.9227   23.3881 O   0  0  0  0  0  0  0  0  0  0  0  0
  -23.2967  -28.2229   23.0184 O   0  0  0  0  0  0  0  0  0  0  0  0
  -32.9924  -23.7241   22.5154 O   0  0  0  0  0  0  0  0  0  0  0  0
  -20.7997  -25.8045   20.7805 O   0  0  0  0  0  0  0  0  0  0  0  0
  -24.8041  -22.5580   20.8339 O   0  0  0  0  0  0  0  0  0  0  0  0
  -25.9611  -14.6072   18.8385 O   0  0  0  0  0  0  0  0  0  0  0  0
  -28.9233  -28.2168   20.5636 O   0  0  0  0  0  0  0  0  0  1  0  0
  -24.9295  -10.8385   22.7291 F   0  0  0  0  0  0  0  0  0  0  0  0
  -27.2806  -12.1779   18.8453 F   0  0  0  0  0  0  0  0  0  0  0  0
  1  2  1  0  0  0  0
  1  5  2  0  0  0  0
  2  6  2  0  0  0  0
  3  8  2  0  0  0  0
  3 17  1  0  0  0  0
  4  9  1  0  0  0  0
  4 17  2  0  0  0  0
  5 19  1  0  0  0  0
  6 21  1  0  0  0  0
  7 10  2  0  0  0  0
  7 20  1  0  0  0  0
  8 24  1  0  0  0  0
  9 24  2  0  0  0  0
 10 25  1  0  0  0  0
 11 12  2  0  0  0  0
 11 26  1  0  0  0  0
 12 27  1  0  0  0  0
 13 22  1  0  0  0  0
 13 25  2  0  0  0  0
 14 27  2  0  0  0  0
 14 28  1  0  0  0  0
 15 23  1  0  0  0  0
 15 63  2  0  0  0  0
 16 23  2  0  0  0  0
 16 65  1  0  0  0  0
 17 29  1  0  0  0  0
 18 29  1  0  0  0  0
 18 30  2  0  0  0  0
 18 31  1  0  0  0  0
 19 21  2  0  0  0  0
 19 36  1  0  0  0  0
 20 22  2  0  0  0  0
 20 37  1  0  0  0  0
 21 45  1  0  0  0  0
 22 38  1  0  0  0  0
 23 56  1  0  0  0  0
 24 79  1  0  0  0  0
 25 80  1  0  0  0  0
 26 28  2  0  0  0  0
 26 79  1  0  0  0  0
 27 81  1  0  0  0  0
 28 82  1  0  0  0  0
 29 64  2  0  0  0  0
 30 66  1  0  0  0  0
 30 69  1  0  0  0  0
 31 70  1  0  0  0  0
 31 74  2  0  0  0  0
 32 46  1  0  0  0  0
 32 71  1  0  0  0  0
 32 75  2  0  0  0  0
 33 57  1  0  0  0  0
 33 68  1  0  0  0  0
 33 76  2  0  0  0  0
 34 58  1  0  0  0  0
 34 67  1  0  0  0  0
 34 77  2  0  0  0  0
 35 59  1  0  0  0  0
 35 72  1  0  0  0  0
 35 78  2  0  0  0  0
 36 39  1  0  0  0  0
 37 46  1  0  0  0  0
 38 67  1  0  0  0  0
 39 41  1  0  0  0  0
 40 42  1  0  0  0  0
 40 43  1  0  0  0  0
 41 45  1  0  0  0  0
 42 47  1  0  0  0  0
 43 68  1  0  0  0  0
 44 47  1  0  0  0  0
 44 68  1  0  0  0  0
 45 71  1  0  0  0  0
 46 67  1  0  0  0  0
 47 66  1  0  0  0  0
 48 59  1  0  0  0  0
 49 60  1  0  0  0  0
 50 61  1  0  0  0  0
 51 61  1  0  0  0  0
 52 61  1  0  0  0  0
 53 62  1  0  0  0  0
 54 62  1  0  0  0  0
 55 73  1  0  0  0  0
 56 80  1  0  0  0  0
 57 62  1  0  0  0  0
 58 61  1  0  0  0  0
 58 72  1  0  0  0  0
 59 73  1  0  0  0  0
 60 62  1  0  0  0  0
 60 65  1  0  0  0  0
 63 65  1  0  0  0  0
 64 66  1  0  0  0  0
M  CHG  1  73   1
M  ISO  4  33 100  56 101  57 100  80 101
M  END
> <Batch ID>
0069

> <Smiles>
CNC(C)C(=O)NC(C(=O)N1Cc2cc([101O:1][101CH2:1]c3cnn(C(C)C(C)(C)[100CH2:0][100C:0](=O)N4CCCC(n5nc(-c6ccc(Oc7ccc(F)cc7F)cc6)c(C(N)=O)c5N)C4)c3)ccc2CC1C(=O)NC1CCCc2ccccc21)C(C)(C)C

> <Shape>
0.192

> <Color>
0.085

> <Negative vol penalty>
0.000

$$$$

  -OEChem-04052318173D

 84 92  0     1  0  0  0  0  0999 V2000
  -33.1006   -9.0481   13.5023 C   0  0  0  0  0  0  0  0  0  0  0  0
  -33.1383  -10.2979   14.1121 C   0  0  0  0  0  0  0  0  0  0  0  0
  -22.7257  -28.2651   20.8298 C   0  0  0  0  0  0  0  0  0  0  0  0
  -24.0101  -27.6238   22.7730 C   0  0  0  0  0  0  0  0  0  0  0  0
  -31.9040   -8.3344   13.4514 C   0  0  0  0  0  0  0  0  0  0  0  0
  -31.9790  -10.8353   14.6705 C   0  0  0  0  0  0  0  0  0  0  0  0
  -31.5869  -14.3395   19.6777 C   0  0  0  0  0  0  0  0  0  0  0  0
  -21.5485  -27.9221   21.4947 C   0  0  0  0  0  0  0  0  0  0  0  0
  -22.8328  -27.2809   23.4380 C   0  0  0  0  0  0  0  0  0  0  0  0
  -31.4837  -15.7190   19.8515 C   0  0  0  0  0  0  0  0  0  0  0  0
  -18.1792  -27.5554   22.8095 C   0  0  0  0  0  0  0  0  0  0  0  0
  -17.1050  -28.4411   22.7248 C   0  0  0  0  0  0  0  0  0  0  0  0
  -29.0870  -15.5109   20.0309 C   0  0  0  0  0  0  0  0  0  0  0  0
  -29.3656  -20.2198   21.6977 C   0  0  0  0  0  0  0  0  0  0  0  0
  -18.4475  -30.1676   23.7513 C   0  0  0  0  0  0  0  0  0  0  0  0
  -28.6201  -21.7521   19.5665 C   0  0  0  0  0  0  0  0  0  0  0  0
  -23.9565  -28.1158   21.4689 C   0  0  0  0  0  0  0  0  0  0  0  0
  -25.8111  -29.7242   20.7750 C   0  0  0  0  0  0  0  0  0  0  0  0
  -30.7316   -8.8590   14.0179 C   0  0  0  0  0  0  0  0  0  0  0  0
  -30.4381  -13.5353   19.6684 C   0  0  0  0  0  0  0  0  0  0  0  0
  -30.7653  -10.1285   14.6259 C   0  0  0  0  0  0  0  0  0  0  0  0
  -29.1786  -14.1212   19.8594 C   0  0  0  0  0  0  0  0  0  0  0  0
  -29.4396  -21.6049   21.7944 C   0  0  0  0  0  0  0  0  0  0  0  0
  -29.0616  -22.3929   20.7129 C   0  0  0  0  0  0  0  0  0  0  0  0
  -21.6020  -27.4301   22.7988 C   0  0  0  0  0  0  0  0  0  0  0  0
  -30.2334  -16.3052   20.0252 C   0  0  0  0  0  0  0  0  0  0  0  0
  -19.3876  -27.9758   23.3652 C   0  0  0  0  0  0  0  0  0  0  0  0
  -17.2391  -29.7472   23.1957 C   0  0  0  0  0  0  0  0  0  0  0  0
  -19.5218  -29.2819   23.8361 C   0  0  0  0  0  0  0  0  0  0  0  0
  -25.1730  -28.4694   20.7824 C   0  0  0  0  0  0  0  0  0  0  0  0
  -28.9103  -19.6763   20.5073 C   0  0  0  0  0  0  0  0  0  0  0  0
  -26.9187  -29.5415   19.9837 C   0  0  0  0  0  0  0  0  0  0  0  0
  -25.4361  -30.9457   21.4254 C   0  0  0  0  0  0  0  0  0  0  0  0
  -29.0523  -11.6283   17.5361 C   0  0  0  0  0  0  0  0  0  0  0  0
  -27.0933  -10.9191   20.0225 C   0  0  0  0  0  0  0  0  0  0  0  0
  -30.0735  -24.6263   18.5698 C   0  0  0  0  0  0  0  0  0  0  0  0
  -25.7439  -11.8683   23.0099 C   0  0  0  0  0  0  0  0  0  0  0  0
  -29.4512   -8.0712   13.8966 C   0  0  0  0  0  0  0  0  0  0  0  0
  -30.5687  -12.0456   19.5065 C   0  0  0  0  0  0  0  0  0  0  0  0
  -27.9164  -13.2996   19.8777 C   0  0  0  0  0  0  0  0  0  0  0  0
  -28.3515   -8.5468   14.8425 C   0  0  0  0  0  0  0  0  0  0  0  0
  -28.5200  -26.9365   16.3138 C   0  0  0  0  0  0  0  0  0  0  0  0
  -28.2333  -10.0671   14.8023 C   0  0  0  0  0  0  0  0  0  0  0  0
  -27.5235  -27.6859   17.1973 C   0  0  0  0  0  0  0  0  0  0  0  0
  -28.6509  -25.4760   16.7345 C   0  0  0  0  0  0  0  0  0  0  0  0
  -28.0134  -26.0364   19.0585 C   0  0  0  0  0  0  0  0  0  0  0  0
  -29.5344  -10.7341   15.2648 C   0  0  1  0  0  0  0  0  0  0  0  0
  -29.2902  -11.3854   18.9997 C   0  0  1  0  0  0  0  0  0  0  0  0
  -27.8742  -27.5233   18.6869 C   0  0  2  0  0  0  0  0  0  0  0  0
  -31.3791  -21.8298   23.3886 C   0  0  0  0  0  0  0  0  0  0  0  0
  -29.0153  -21.8955   24.2621 C   0  0  0  0  0  0  0  0  0  0  0  0
  -24.1461  -11.0957   24.7840 C   0  0  0  0  0  0  0  0  0  0  0  0
  -31.5946  -23.7066   20.2578 C   0  0  0  0  0  0  0  0  0  0  0  0
  -30.5956  -25.9752   20.5803 C   0  0  0  0  0  0  0  0  0  0  0  0
  -24.7429  -11.6224   18.2085 C   0  0  0  0  0  0  0  0  0  0  0  0
  -23.2986  -11.7576   20.2491 C   0  0  0  0  0  0  0  0  0  0  0  0
  -24.3899   -9.5998   19.6363 C   0  0  0  0  0  0  0  0  0  0  0  0
  -27.8574  -11.8794   25.0816 C   0  0  0  0  0  0  0  0  0  0  0  0
  -29.1216  -23.8801   20.7624 C   0  0  0  0  0  0  0  0  0  0  0  0
  -28.8176  -18.1853   20.3670 C   0  0  0  0  0  0  0  0  0  1  0  0
  -29.9258  -22.2219   23.0638 C   0  0  0  0  0  0  0  0  0  0  0  0
  -25.8005  -11.4838   20.5597 C   0  0  1  0  0  0  0  0  0  0  0  0
  -25.5966  -11.1307   24.3284 C   0  0  2  0  0  0  0  0  0  0  0  0
  -30.3318  -24.5594   20.0540 C   0  0  0  0  0  0  0  0  0  0  0  0
  -24.5814  -11.1319   19.6612 C   0  0  0  0  0  0  0  0  0  0  0  0
  -28.5344  -20.4093   19.4354 N   0  0  0  0  0  0  0  0  0  0  0  0
  -25.8213  -27.5570   20.0535 N   0  0  0  0  0  0  0  0  0  0  0  0
  -26.8782  -28.2392   19.5806 N   0  0  0  0  0  0  0  0  0  0  0  0
  -28.0956  -11.8481   19.7090 N   0  0  0  0  0  0  0  0  0  0  0  0
  -28.9623  -25.3636   18.1605 N   0  0  0  0  0  0  0  0  0  0  0  0
  -27.9136  -30.3695   19.6002 N   0  0  0  0  0  0  0  0  0  0  0  0
  -24.2685  -30.9588   22.2006 N   0  0  0  0  0  0  0  0  0  0  0  0
  -29.6392  -10.6910   16.7076 N   0  0  0  0  0  0  0  0  0  0  0  0
  -25.6870  -11.0077   21.9341 N   0  0  0  0  0  0  0  0  0  0  0  0
  -26.4060  -11.7967   25.3878 N   0  3  0  0  0  0  0  0  0  0  0  0
  -26.1075  -31.9989   21.3089 O   0  0  0  0  0  0  0  0  0  0  0  0
  -28.3845  -12.5938   17.1846 O   0  0  0  0  0  0  0  0  0  0  0  0
  -27.2122   -9.6982   19.8926 O   0  0  0  0  0  0  0  0  0  0  0  0
  -30.8394  -24.0424   17.7986 O   0  0  0  0  0  0  0  0  0  0  0  0
  -25.8907  -13.0866   22.9410 O   0  0  0  0  0  0  0  0  0  0  0  0
  -20.4534  -27.0956   23.4480 O   0  0  0  0  0  0  0  0  0  0  0  0
  -30.1297  -17.6515   20.1943 O   0  0  0  0  0  0  0  0  0  1  0  0
  -16.2079  -30.5981   23.1128 F   0  0  0  0  0  0  0  0  0  0  0  0
  -20.6805  -29.6919   24.3699 F   0  0  0  0  0  0  0  0  0  0  0  0
  1  2  1  0  0  0  0
  1  5  2  0  0  0  0
  2  6  2  0  0  0  0
  3  8  2  0  0  0  0
  3 17  1  0  0  0  0
  4  9  1  0  0  0  0
  4 17  2  0  0  0  0
  5 19  1  0  0  0  0
  6 21  1  0  0  0  0
  7 10  2  0  0  0  0
  7 20  1  0  0  0  0
  8 25  1  0  0  0  0
  9 25  2  0  0  0  0
 10 26  1  0  0  0  0
 11 12  2  0  0  0  0
 11 27  1  0  0  0  0
 12 28  1  0  0  0  0
 13 22  1  0  0  0  0
 13 26  2  0  0  0  0
 14 23  2  0  0  0  0
 14 31  1  0  0  0  0
 15 28  2  0  0  0  0
 15 29  1  0  0  0  0
 16 24  2  0  0  0  0
 16 66  1  0  0  0  0
 17 30  1  0  0  0  0
 18 30  1  0  0  0  0
 18 32  2  0  0  0  0
 18 33  1  0  0  0  0
 19 21  2  0  0  0  0
 19 38  1  0  0  0  0
 20 22  2  0  0  0  0
 20 39  1  0  0  0  0
 21 47  1  0  0  0  0
 22 40  1  0  0  0  0
 23 24  1  0  0  0  0
 23 61  1  0  0  0  0
 24 59  1  0  0  0  0
 25 81  1  0  0  0  0
 26 82  1  0  0  0  0
 27 29  2  0  0  0  0
 27 81  1  0  0  0  0
 28 83  1  0  0  0  0
 29 84  1  0  0  0  0
 30 67  2  0  0  0  0
 31 60  1  0  0  0  0
 31 66  2  0  0  0  0
 32 68  1  0  0  0  0
 32 71  1  0  0  0  0
 33 72  1  0  0  0  0
 33 76  2  0  0  0  0
 34 48  1  0  0  0  0
 34 73  1  0  0  0  0
 34 77  2  0  0  0  0
 35 62  1  0  0  0  0
 35 69  1  0  0  0  0
 35 78  2  0  0  0  0
 36 64  1  0  0  0  0
 36 70  1  0  0  0  0
 36 79  2  0  0  0  0
 37 63  1  0  0  0  0
 37 74  1  0  0  0  0
 37 80  2  0  0  0  0
 38 41  1  0  0  0  0
 39 48  1  0  0  0  0
 40 69  1  0  0  0  0
 41 43  1  0  0  0  0
 42 44  1  0  0  0  0
 42 45  1  0  0  0  0
 43 47  1  0  0  0  0
 44 49  1  0  0  0  0
 45 70  1  0  0  0  0
 46 49  1  0  0  0  0
 46 70  1  0  0  0  0
 47 73  1  0  0  0  0
 48 69  1  0  0  0  0
 49 68  1  0  0  0  0
 50 61  1  0  0  0  0
 51 61  1  0  0  0  0
 52 63  1  0  0  0  0
 53 64  1  0  0  0  0
 54 64  1  0  0  0  0
 55 65  1  0  0  0  0
 56 65  1  0  0  0  0
 57 65  1  0  0  0  0
 58 75  1  0  0  0  0
 59 64  1  0  0  0  0
 60 82  1  0  0  0  0
 62 65  1  0  0  0  0
 62 74  1  0  0  0  0
 63 75  1  0  0  0  0
 67 68  1  0  0  0  0
M  CHG  1  75   1
M  ISO  4  36 100  60 101  64 100  82 101
M  END
> <Batch ID>
0069

> <Smiles>
CNC(C)C(=O)NC(C(=O)N1Cc2cc([101O:1][101CH2:1]c3cc(C(C)C)c(C[100C:0](C)(C)[100C:0](=O)N4CCCC(n5nc(-c6ccc(Oc7ccc(F)cc7F)cc6)c(C(N)=O)c5N)C4)cn3)ccc2CC1C(=O)NC1CCCc2ccccc21)C(C)(C)C

> <Shape>
0.294

> <Color>
0.071

> <Negative vol penalty>
0.000

$$$$

  -OEChem-04052318173D

 89 97  0     1  0  0  0  0  0999 V2000
  -31.7017  -26.0780   17.2512 C   0  0  0  0  0  0  0  0  0  0  0  0
  -30.5240  -25.4437   17.6333 C   0  0  0  0  0  0  0  0  0  0  0  0
  -24.7315   -8.4999   20.7262 C   0  0  0  0  0  0  0  0  0  0  0  0
  -23.0820  -10.1836   20.1957 C   0  0  0  0  0  0  0  0  0  0  0  0
  -32.2533  -27.0688   18.0623 C   0  0  0  0  0  0  0  0  0  0  0  0
  -29.8977  -25.7992   18.8274 C   0  0  0  0  0  0  0  0  0  0  0  0
  -23.8741  -25.9480   19.9229 C   0  0  0  0  0  0  0  0  0  0  0  0
  -23.7178   -7.6392   21.1469 C   0  0  0  0  0  0  0  0  0  0  0  0
  -22.0682   -9.3228   20.6164 C   0  0  0  0  0  0  0  0  0  0  0  0
  -23.0106  -25.0448   20.5412 C   0  0  0  0  0  0  0  0  0  0  0  0
  -21.7702   -7.2329   23.8794 C   0  0  0  0  0  0  0  0  0  0  0  0
  -21.9610   -6.5447   25.0775 C   0  0  0  0  0  0  0  0  0  0  0  0
  -23.2333  -26.2596   22.6134 C   0  0  0  0  0  0  0  0  0  0  0  0
  -21.7818   -4.4432   23.8990 C   0  0  0  0  0  0  0  0  0  0  0  0
  -24.4137   -9.7721   20.2507 C   0  0  0  0  0  0  0  0  0  0  0  0
  -25.9947  -10.7769   18.5191 C   0  0  0  0  0  0  0  0  0  0  0  0
  -31.6283  -27.4434   19.2622 C   0  0  0  0  0  0  0  0  0  0  0  0
  -24.4332  -27.0093   20.6492 C   0  0  0  0  0  0  0  0  0  0  0  0
  -30.4422  -26.7951   19.6560 C   0  0  0  0  0  0  0  0  0  0  0  0
  -24.1016  -27.1764   22.0013 C   0  0  0  0  0  0  0  0  0  0  0  0
  -24.1599  -20.3422   23.8363 C   0  0  0  0  0  0  0  0  0  0  0  0
  -22.3861   -8.0506   21.0920 C   0  0  0  0  0  0  0  0  0  0  0  0
  -22.6923  -25.1988   21.8873 C   0  0  0  0  0  0  0  0  0  0  0  0
  -21.5851   -6.5262   22.6910 C   0  0  0  0  0  0  0  0  0  0  0  0
  -21.9669   -5.1499   25.0874 C   0  0  0  0  0  0  0  0  0  0  0  0
  -21.5910   -5.1314   22.7009 C   0  0  0  0  0  0  0  0  0  0  0  0
  -25.4605  -10.6619   19.8165 C   0  0  0  0  0  0  0  0  0  0  0  0
  -23.8528  -21.6805   23.9742 C   0  0  0  0  0  0  0  0  0  0  0  0
  -25.4739  -20.0604   23.5229 C   0  0  0  0  0  0  0  0  0  0  0  0
  -26.9547  -11.7531   18.6284 C   0  0  0  0  0  0  0  0  0  0  0  0
  -25.9993  -22.2720   23.5161 C   0  0  0  0  0  0  0  0  0  0  0  0
  -25.6537  -10.0650   17.3222 C   0  0  0  0  0  0  0  0  0  0  0  0
  -27.3884  -27.8824   21.4294 C   0  0  0  0  0  0  0  0  0  0  0  0
  -25.8853  -30.5053   22.6055 C   0  0  0  0  0  0  0  0  0  0  0  0
  -23.0172  -31.9001   23.8202 C   0  0  0  0  0  0  0  0  0  0  0  0
  -27.7014  -16.3321   22.4134 C   0  0  0  0  0  0  0  0  0  0  0  0
  -32.2875  -28.4867   20.1292 C   0  0  0  0  0  0  0  0  0  0  0  0
  -25.3420  -27.9906   19.9609 C   0  0  0  0  0  0  0  0  0  0  0  0
  -24.6592  -28.3108   22.8203 C   0  0  0  0  0  0  0  0  0  0  0  0
  -31.3610  -29.0676   21.1943 C   0  0  0  0  0  0  0  0  0  0  0  0
  -29.9926  -13.6810   21.7820 C   0  0  0  0  0  0  0  0  0  0  0  0
  -30.6050  -27.9525   21.9098 C   0  0  0  0  0  0  0  0  0  0  0  0
  -29.1391  -12.6170   21.0896 C   0  0  0  0  0  0  0  0  0  0  0  0
  -29.2073  -14.4177   22.8648 C   0  0  0  0  0  0  0  0  0  0  0  0
  -27.0770  -13.9387   21.7219 C   0  0  0  0  0  0  0  0  0  0  0  0
  -29.7199  -27.1704   20.9318 C   0  0  1  0  0  0  0  0  0  0  0  0
  -26.2582  -28.7355   20.9268 C   0  0  1  0  0  0  0  0  0  0  0  0
  -27.8090  -13.2070   20.5838 C   0  0  2  0  0  0  0  0  0  0  0  0
  -23.1409  -19.2733   24.0155 C   0  0  0  0  0  0  0  0  0  0  0  0
  -22.1076  -34.0524   24.7355 C   0  0  0  0  0  0  0  0  0  0  0  0
  -26.6962  -24.5859   24.2272 C   0  0  0  0  0  0  0  0  0  0  0  0
  -27.0865  -23.8272   21.8591 C   0  0  0  0  0  0  0  0  0  0  0  0
  -28.4874  -22.9404   23.7118 C   0  0  0  0  0  0  0  0  0  0  0  0
  -27.2999  -29.9733   25.2561 C   0  0  0  0  0  0  0  0  0  0  0  0
  -25.6695  -31.5217   26.3572 C   0  0  0  0  0  0  0  0  0  0  0  0
  -27.2050  -32.3818   24.5894 C   0  0  0  0  0  0  0  0  0  0  0  0
  -27.1351  -18.9827   21.1185 C   0  0  0  0  0  0  0  0  0  0  0  0
  -24.7460  -18.2597   21.1500 C   0  0  0  0  0  0  0  0  0  0  0  0
  -21.0343  -32.1261   21.6348 C   0  0  0  0  0  0  0  0  0  0  0  0
  -22.4485  -22.1101   24.3161 C   0  0  0  0  0  0  0  0  0  0  0  0
  -25.9239  -18.6474   23.3474 C   0  0  0  0  0  0  0  0  0  0  0  0
  -21.4774  -22.0368   23.1357 C   0  0  0  0  0  0  0  0  0  0  0  0
  -21.8407  -22.9809   21.9955 C   0  0  0  0  0  0  0  0  0  1  0  0
  -25.2771  -30.8830   23.9346 C   0  0  1  0  0  0  0  0  0  0  0  0
  -22.3129  -33.2038   23.4903 C   0  0  2  0  0  0  0  0  0  0  0  0
  -27.0214  -23.3435   23.3411 C   0  0  0  0  0  0  0  0  0  0  0  0
  -26.3537  -31.1673   25.0197 C   0  0  0  0  0  0  0  0  0  0  0  0
  -26.0952  -18.1472   21.8797 C   0  0  0  0  0  0  0  0  0  0  0  0
  -26.0336  -11.4982   20.6861 N   0  0  0  0  0  0  0  0  0  0  0  0
  -24.7511  -22.6754   23.8206 N   0  0  0  0  0  0  0  0  0  0  0  0
  -26.4234  -21.0041   23.3548 N   0  0  0  0  0  0  0  0  0  0  0  0
  -26.9380  -12.1479   19.9338 N   0  0  0  0  0  0  0  0  0  0  0  0
  -25.5482  -29.2403   22.1038 N   0  0  0  0  0  0  0  0  0  0  0  0
  -27.9579  -14.9542   22.3197 N   0  0  0  0  0  0  0  0  0  0  0  0
  -27.8032  -12.3036   17.7342 N   0  0  0  0  0  0  0  0  0  0  0  0
  -24.6441   -9.0950   17.3865 N   0  0  0  0  0  0  0  0  0  0  0  0
  -28.5164  -27.9161   20.6320 N   0  0  0  0  0  0  0  0  0  0  0  0
  -24.3839  -32.0058   23.6704 N   0  0  0  0  0  0  0  0  0  0  0  0
  -26.4975  -16.7584   21.8660 N   0  0  0  0  0  0  0  0  0  0  0  0
  -20.9800  -32.9327   22.8812 N   0  3  0  0  0  0  0  0  0  0  0  0
  -26.2386  -10.2710   16.2318 O   0  0  0  0  0  0  0  0  0  0  0  0
  -27.2479  -27.2422   22.4648 O   0  0  0  0  0  0  0  0  0  0  0  0
  -26.6264  -31.3062   22.0302 O   0  0  0  0  0  0  0  0  0  0  0  0
  -22.4156  -30.8902   24.1789 O   0  0  0  0  0  0  0  0  0  0  0  0
  -28.4894  -17.1245   22.9407 O   0  0  0  0  0  0  0  0  0  0  0  0
  -21.3966   -7.2109   21.5022 O   0  0  0  0  0  0  0  0  0  0  0  0
  -21.8502  -24.3182   22.4934 O   0  0  0  0  0  0  0  0  0  1  0  0
  -22.1517   -4.4892   26.2378 F   0  0  0  0  0  0  0  0  0  0  0  0
  -21.4148   -4.4471   21.5622 F   0  0  0  0  0  0  0  0  0  0  0  0
  1  2  1  0  0  0  0
  1  5  2  0  0  0  0
  2  6  2  0  0  0  0
  3  8  2  0  0  0  0
  3 15  1  0  0  0  0
  4  9  1  0  0  0  0
  4 15  2  0  0  0  0
  5 17  1  0  0  0  0
  6 19  1  0  0  0  0
  7 10  2  0  0  0  0
  7 18  1  0  0  0  0
  8 22  1  0  0  0  0
  9 22  2  0  0  0  0
 10 23  1  0  0  0  0
 11 12  2  0  0  0  0
 11 24  1  0  0  0  0
 12 25  1  0  0  0  0
 13 20  1  0  0  0  0
 13 23  2  0  0  0  0
 14 25  2  0  0  0  0
 14 26  1  0  0  0  0
 15 27  1  0  0  0  0
 16 27  1  0  0  0  0
 16 30  2  0  0  0  0
 16 32  1  0  0  0  0
 17 19  2  0  0  0  0
 17 37  1  0  0  0  0
 18 20  2  0  0  0  0
 18 38  1  0  0  0  0
 19 46  1  0  0  0  0
 20 39  1  0  0  0  0
 21 28  2  0  0  0  0
 21 29  1  0  0  0  0
 21 49  1  0  0  0  0
 22 86  1  0  0  0  0
 23 87  1  0  0  0  0
 24 26  2  0  0  0  0
 24 86  1  0  0  0  0
 25 88  1  0  0  0  0
 26 89  1  0  0  0  0
 27 69  2  0  0  0  0
 28 60  1  0  0  0  0
 28 70  1  0  0  0  0
 29 61  1  0  0  0  0
 29 71  2  0  0  0  0
 30 72  1  0  0  0  0
 30 75  1  0  0  0  0
 31 66  1  0  0  0  0
 31 70  2  0  0  0  0
 31 71  1  0  0  0  0
 32 76  1  0  0  0  0
 32 81  2  0  0  0  0
 33 47  1  0  0  0  0
 33 77  1  0  0  0  0
 33 82  2  0  0  0  0
 34 64  1  0  0  0  0
 34 73  1  0  0  0  0
 34 83  2  0  0  0  0
 35 65  1  0  0  0  0
 35 78  1  0  0  0  0
 35 84  2  0  0  0  0
 36 74  1  0  0  0  0
 36 79  1  0  0  0  0
 36 85  2  0  0  0  0
 37 40  1  0  0  0  0
 38 47  1  0  0  0  0
 39 73  1  0  0  0  0
 40 42  1  0  0  0  0
 41 43  1  0  0  0  0
 41 44  1  0  0  0  0
 42 46  1  0  0  0  0
 43 48  1  0  0  0  0
 44 74  1  0  0  0  0
 45 48  1  0  0  0  0
 45 74  1  0  0  0  0
 46 77  1  0  0  0  0
 47 73  1  0  0  0  0
 48 72  1  0  0  0  0
 50 65  1  0  0  0  0
 51 66  1  0  0  0  0
 52 66  1  0  0  0  0
 53 66  1  0  0  0  0
 54 67  1  0  0  0  0
 55 67  1  0  0  0  0
 56 67  1  0  0  0  0
 57 68  1  0  0  0  0
 58 68  1  0  0  0  0
 59 80  1  0  0  0  0
 60 62  1  0  0  0  0
 61 68  1  0  0  0  0
 62 63  1  0  0  0  0
 63 87  1  0  0  0  0
 64 67  1  0  0  0  0
 64 78  1  0  0  0  0
 65 80  1  0  0  0  0
 68 79  1  0  0  0  0
 69 72  1  0  0  0  0
M  CHG  1  80   1
M  ISO  4  36 100  63 101  79 100  87 101
M  END
> <Batch ID>
0069

> <Smiles>
CNC(C)C(=O)NC(C(=O)N1Cc2cc([101O:1][101CH2:1]CCc3nc(C(C)(C)C)nc(CC(C)(C)[100NH:0][100C:0](=O)N4CCCC(n5nc(-c6ccc(Oc7ccc(F)cc7F)cc6)c(C(N)=O)c5N)C4)c3C)ccc2CC1C(=O)NC1CCCc2ccccc21)C(C)(C)C

> <Shape>
0.250

> <Color>
0.078

> <Negative vol penalty>
0.000

$$$$

  -OEChem-04052318173D

 86 94  0     1  0  0  0  0  0999 V2000
  -17.1025  -31.1452   23.3288 C   0  0  0  0  0  0  0  0  0  0  0  0
  -18.4304  -31.5145   23.1397 C   0  0  0  0  0  0  0  0  0  0  0  0
  -24.2123  -14.9265   22.4564 C   0  0  0  0  0  0  0  0  0  0  0  0
  -25.4561  -13.9578   20.6256 C   0  0  0  0  0  0  0  0  0  0  0  0
  -16.7594  -29.7959   23.4042 C   0  0  0  0  0  0  0  0  0  0  0  0
  -19.4161  -30.5347   23.0270 C   0  0  0  0  0  0  0  0  0  0  0  0
  -25.6475  -29.2366   19.7405 C   0  0  0  0  0  0  0  0  0  0  0  0
  -23.2766  -13.8961   22.3659 C   0  0  0  0  0  0  0  0  0  0  0  0
  -24.5204  -12.9273   20.5352 C   0  0  0  0  0  0  0  0  0  0  0  0
  -26.9532  -28.8395   20.0254 C   0  0  0  0  0  0  0  0  0  0  0  0
  -23.8178  -10.0526   22.1671 C   0  0  0  0  0  0  0  0  0  0  0  0
  -24.3005   -8.7511   22.0313 C   0  0  0  0  0  0  0  0  0  0  0  0
  -26.2326  -26.5384   20.0915 C   0  0  0  0  0  0  0  0  0  0  0  0
  -23.1390   -8.5402   19.9234 C   0  0  0  0  0  0  0  0  0  0  0  0
  -30.5167  -23.6790   18.3617 C   0  0  0  0  0  0  0  0  0  0  0  0
  -25.3021  -14.9574   21.5862 C   0  0  0  0  0  0  0  0  0  0  0  0
  -27.4382  -16.0424   22.4622 C   0  0  0  0  0  0  0  0  0  0  0  0
  -17.7401  -28.7989   23.2827 C   0  0  0  0  0  0  0  0  0  0  0  0
  -24.6207  -28.2869   19.6396 C   0  0  0  0  0  0  0  0  0  0  0  0
  -19.0860  -29.1708   23.1022 C   0  0  0  0  0  0  0  0  0  0  0  0
  -24.9152  -26.9257   19.8027 C   0  0  0  0  0  0  0  0  0  0  0  0
  -30.1785  -23.9073   17.0434 C   0  0  0  0  0  0  0  0  0  0  0  0
  -23.4306  -12.8965   21.4054 C   0  0  0  0  0  0  0  0  0  0  0  0
  -27.2454  -27.4905   20.2038 C   0  0  0  0  0  0  0  0  0  0  0  0
  -22.9956  -10.5980   21.1811 C   0  0  0  0  0  0  0  0  0  0  0  0
  -23.9611   -7.9948   20.9095 C   0  0  0  0  0  0  0  0  0  0  0  0
  -22.6562   -9.8418   20.0592 C   0  0  0  0  0  0  0  0  0  0  0  0
  -26.2687  -16.0219   21.6788 C   0  0  0  0  0  0  0  0  0  0  0  0
  -30.0676  -25.2330   16.6765 C   0  0  0  0  0  0  0  0  0  0  0  0
  -28.0059  -17.2653   22.1997 C   0  0  0  0  0  0  0  0  0  0  0  0
  -30.5941  -25.9118   18.7810 C   0  0  0  0  0  0  0  0  0  0  0  0
  -27.9644  -15.0453   23.3479 C   0  0  0  0  0  0  0  0  0  0  0  0
  -21.9181  -27.7292   21.2171 C   0  0  0  0  0  0  0  0  0  0  0  0
  -21.4824  -25.5008   18.9004 C   0  0  0  0  0  0  0  0  0  0  0  0
  -22.8751  -23.4448   16.5594 C   0  0  0  0  0  0  0  0  0  0  0  0
  -27.6582  -20.8385   17.5128 C   0  0  0  0  0  0  0  0  0  0  0  0
  -17.3275  -27.3545   23.4180 C   0  0  0  0  0  0  0  0  0  0  0  0
  -23.2225  -28.7290   19.3053 C   0  0  0  0  0  0  0  0  0  0  0  0
  -23.8526  -25.8648   19.6847 C   0  0  0  0  0  0  0  0  0  0  0  0
  -18.3803  -26.3706   22.9141 C   0  0  0  0  0  0  0  0  0  0  0  0
  -26.8539  -21.7328   20.9261 C   0  0  0  0  0  0  0  0  0  0  0  0
  -19.7601  -26.7471   23.4443 C   0  0  0  0  0  0  0  0  0  0  0  0
  -26.7247  -20.3554   21.5790 C   0  0  0  0  0  0  0  0  0  0  0  0
  -26.3008  -21.7245   19.5040 C   0  0  0  0  0  0  0  0  0  0  0  0
  -26.7805  -19.3192   19.2632 C   0  0  0  0  0  0  0  0  0  0  0  0
  -20.1805  -28.1368   22.9507 C   0  0  1  0  0  0  0  0  0  0  0  0
  -22.1590  -27.7227   19.7340 C   0  0  1  0  0  0  0  0  0  0  0  0
  -27.3427  -19.2560   20.6949 C   0  0  2  0  0  0  0  0  0  0  0  0
  -32.0166  -27.9129   19.3320 C   0  0  0  0  0  0  0  0  0  0  0  0
  -22.2682  -21.7134   14.8473 C   0  0  0  0  0  0  0  0  0  0  0  0
  -21.0624  -23.4534   21.1234 C   0  0  0  0  0  0  0  0  0  0  0  0
  -21.4107  -21.6445   19.4279 C   0  0  0  0  0  0  0  0  0  0  0  0
  -19.4969  -23.2261   19.1863 C   0  0  0  0  0  0  0  0  0  0  0  0
  -23.9741  -25.0776   14.3492 C   0  0  0  0  0  0  0  0  0  0  0  0
  -29.9533  -22.7816   16.1013 C   0  0  0  0  0  0  0  0  0  0  0  0
  -28.4705  -22.4797   15.8383 C   0  0  0  0  0  0  0  0  0  0  0  0
  -29.5743  -27.9072   19.9616 C   0  0  0  0  0  0  0  0  0  1  0  0
  -30.8301  -27.0471   19.7648 C   0  0  1  0  0  0  0  0  0  0  0  0
  -21.8460  -24.0449   18.7355 C   0  0  1  0  0  0  0  0  0  0  0  0
  -22.5228  -23.1904   15.1049 C   0  0  2  0  0  0  0  0  0  0  0  0
  -29.7067  -25.6003   15.2750 C   0  0  0  0  0  0  0  0  0  0  0  0
  -20.9739  -23.1121   19.6225 C   0  0  0  0  0  0  0  0  0  0  0  0
  -30.7326  -24.6613   19.2611 N   0  0  0  0  0  0  0  0  0  0  0  0
  -26.1019  -17.1427   20.9717 N   0  0  0  0  0  0  0  0  0  0  0  0
  -30.2691  -26.2644   17.5226 N   0  0  0  0  0  0  0  0  0  0  0  0
  -27.1741  -17.8791   21.3099 N   0  0  0  0  0  0  0  0  0  0  0  0
  -22.4996  -26.3478   19.3627 N   0  0  0  0  0  0  0  0  0  0  0  0
  -26.9436  -20.6678   18.7101 N   0  0  0  0  0  0  0  0  0  0  0  0
  -29.1303  -17.8647   22.6455 N   0  0  0  0  0  0  0  0  0  0  0  0
  -27.2549  -13.8464   23.5012 N   0  0  0  0  0  0  0  0  0  0  0  0
  -20.6281  -28.0707   21.5760 N   0  0  0  0  0  0  0  0  0  0  0  0
  -21.7606  -23.7622   17.3068 N   0  0  0  0  0  0  0  0  0  0  0  0
  -27.7607  -22.1457   17.0531 N   0  0  0  0  0  0  0  0  0  0  0  0
  -23.6332  -23.6377   14.2172 N   0  3  0  0  0  0  0  0  0  0  0  0
  -29.0236  -15.2191   23.9970 O   0  0  0  0  0  0  0  0  0  0  0  0
  -22.8343  -27.4439   21.9792 O   0  0  0  0  0  0  0  0  0  0  0  0
  -20.3401  -25.8741   18.6223 O   0  0  0  0  0  0  0  0  0  0  0  0
  -24.0234  -23.3660   16.9903 O   0  0  0  0  0  0  0  0  0  0  0  0
  -28.1720  -19.8957   16.9010 O   0  0  0  0  0  0  0  0  0  0  0  0
  -22.5178  -11.8907   21.3170 O   0  0  0  0  0  0  0  0  0  0  0  0
  -28.5189  -27.1003   20.4826 O   0  0  0  0  0  0  0  0  0  1  0  0
  -24.4260   -6.7455   20.7784 F   0  0  0  0  0  0  0  0  0  0  0  0
  -21.8677  -10.3608   19.1080 F   0  0  0  0  0  0  0  0  0  0  0  0
  -29.5141  -24.5217   14.4604 F   0  0  0  0  0  0  0  0  0  0  0  0
  -28.5558  -26.3287   15.1816 F   0  0  0  0  0  0  0  0  0  0  0  0
  -30.6685  -26.3529   14.6670 F   0  0  0  0  0  0  0  0  0  0  0  0
  1  2  1  0  0  0  0
  1  5  2  0  0  0  0
  2  6  2  0  0  0  0
  3  8  2  0  0  0  0
  3 16  1  0  0  0  0
  4  9  1  0  0  0  0
  4 16  2  0  0  0  0
  5 18  1  0  0  0  0
  6 20  1  0  0  0  0
  7 10  2  0  0  0  0
  7 19  1  0  0  0  0
  8 23  1  0  0  0  0
  9 23  2  0  0  0  0
 10 24  1  0  0  0  0
 11 12  2  0  0  0  0
 11 25  1  0  0  0  0
 12 26  1  0  0  0  0
 13 21  1  0  0  0  0
 13 24  2  0  0  0  0
 14 26  2  0  0  0  0
 14 27  1  0  0  0  0
 15 22  1  0  0  0  0
 15 63  2  0  0  0  0
 16 28  1  0  0  0  0
 17 28  1  0  0  0  0
 17 30  2  0  0  0  0
 17 32  1  0  0  0  0
 18 20  2  0  0  0  0
 18 37  1  0  0  0  0
 19 21  2  0  0  0  0
 19 38  1  0  0  0  0
 20 46  1  0  0  0  0
 21 39  1  0  0  0  0
 22 29  2  0  0  0  0
 22 55  1  0  0  0  0
 23 80  1  0  0  0  0
 24 81  1  0  0  0  0
 25 27  2  0  0  0  0
 25 80  1  0  0  0  0
 26 82  1  0  0  0  0
 27 83  1  0  0  0  0
 28 64  2  0  0  0  0
 29 61  1  0  0  0  0
 29 65  1  0  0  0  0
 30 66  1  0  0  0  0
 30 69  1  0  0  0  0
 31 58  1  0  0  0  0
 31 63  1  0  0  0  0
 31 65  2  0  0  0  0
 32 70  1  0  0  0  0
 32 75  2  0  0  0  0
 33 47  1  0  0  0  0
 33 71  1  0  0  0  0
 33 76  2  0  0  0  0
 34 59  1  0  0  0  0
 34 67  1  0  0  0  0
 34 77  2  0  0  0  0
 35 60  1  0  0  0  0
 35 72  1  0  0  0  0
 35 78  2  0  0  0  0
 36 68  1  0  0  0  0
 36 73  1  0  0  0  0
 36 79  2  0  0  0  0
 37 40  1  0  0  0  0
 38 47  1  0  0  0  0
 39 67  1  0  0  0  0
 40 42  1  0  0  0  0
 41 43  1  0  0  0  0
 41 44  1  0  0  0  0
 42 46  1  0  0  0  0
 43 48  1  0  0  0  0
 44 68  1  0  0  0  0
 45 48  1  0  0  0  0
 45 68  1  0  0  0  0
 46 71  1  0  0  0  0
 47 67  1  0  0  0  0
 48 66  1  0  0  0  0
 49 58  1  0  0  0  0
 50 60  1  0  0  0  0
 51 62  1  0  0  0  0
 52 62  1  0  0  0  0
 53 62  1  0  0  0  0
 54 74  1  0  0  0  0
 55 56  1  0  0  0  0
 56 73  1  0  0  0  0
 57 58  1  0  0  0  0
 57 81  1  0  0  0  0
 59 62  1  0  0  0  0
 59 72  1  0  0  0  0
 60 74  1  0  0  0  0
 61 84  1  0  0  0  0
 61 85  1  0  0  0  0
 61 86  1  0  0  0  0
 64 66  1  0  0  0  0
M  CHG  1  74   1
M  ISO  4  36 100  57 101  73 100  81 101
M  END
> <Batch ID>
0069

> <Smiles>
CNC(C)C(=O)NC(C(=O)N1Cc2cc([101O:1][101CH2:1]C(C)c3ncc(CC[100NH:0][100C:0](=O)N4CCCC(n5nc(-c6ccc(Oc7ccc(F)cc7F)cc6)c(C(N)=O)c5N)C4)c(C(F)(F)F)n3)ccc2CC1C(=O)NC1CCCc2ccccc21)C(C)(C)C

> <Shape>
0.244

> <Color>
0.079

> <Negative vol penalty>
0.000

$$$$

  -OEChem-04052318173D

 88 96  0     1  0  0  0  0  0999 V2000
  -19.6630  -25.1073   24.6014 C   0  0  0  0  0  0  0  0  0  0  0  0
  -20.9770  -25.3974   24.2485 C   0  0  0  0  0  0  0  0  0  0  0  0
  -25.5803  -16.3839   20.3916 C   0  0  0  0  0  0  0  0  0  0  0  0
  -26.1430  -16.0778   18.0621 C   0  0  0  0  0  0  0  0  0  0  0  0
  -18.6218  -25.8993   24.1191 C   0  0  0  0  0  0  0  0  0  0  0  0
  -21.2506  -26.4791   23.4121 C   0  0  0  0  0  0  0  0  0  0  0  0
  -25.1513  -29.2628   25.0492 C   0  0  0  0  0  0  0  0  0  0  0  0
  -24.8382  -15.2031   20.3676 C   0  0  0  0  0  0  0  0  0  0  0  0
  -25.4009  -14.8970   18.0380 C   0  0  0  0  0  0  0  0  0  0  0  0
  -26.4321  -28.7653   24.8127 C   0  0  0  0  0  0  0  0  0  0  0  0
  -22.1465  -14.0035   17.8332 C   0  0  0  0  0  0  0  0  0  0  0  0
  -21.2929  -13.7966   16.7497 C   0  0  0  0  0  0  0  0  0  0  0  0
  -26.6502  -30.2437   22.9191 C   0  0  0  0  0  0  0  0  0  0  0  0
  -22.5027  -11.7842   16.1808 C   0  0  0  0  0  0  0  0  0  0  0  0
  -26.5752  -27.5477   19.8532 C   0  0  0  0  0  0  0  0  0  0  0  0
  -26.2327  -16.8213   19.2388 C   0  0  0  0  0  0  0  0  0  0  0  0
  -28.3647  -18.1813   19.5741 C   0  0  0  0  0  0  0  0  0  0  0  0
  -18.8835  -26.9971   23.2842 C   0  0  0  0  0  0  0  0  0  0  0  0
  -24.6052  -30.2483   24.2144 C   0  0  0  0  0  0  0  0  0  0  0  0
  -20.2118  -27.2857   22.9171 C   0  0  0  0  0  0  0  0  0  0  0  0
  -25.3632  -30.7538   23.1486 C   0  0  0  0  0  0  0  0  0  0  0  0
  -24.7485  -14.4596   19.1908 C   0  0  0  0  0  0  0  0  0  0  0  0
  -27.1806  -29.2537   23.7458 C   0  0  0  0  0  0  0  0  0  0  0  0
  -23.1784  -13.1008   18.0905 C   0  0  0  0  0  0  0  0  0  0  0  0
  -21.4709  -12.6869   15.9235 C   0  0  0  0  0  0  0  0  0  0  0  0
  -23.3565  -11.9912   17.2643 C   0  0  0  0  0  0  0  0  0  0  0  0
  -26.9990  -18.0413   19.2629 C   0  0  0  0  0  0  0  0  0  0  0  0
  -26.0383  -27.8874   18.6282 C   0  0  0  0  0  0  0  0  0  0  0  0
  -27.5064  -26.5295   19.8352 C   0  0  0  0  0  0  0  0  0  0  0  0
  -28.6077  -19.5278   19.4550 C   0  0  0  0  0  0  0  0  0  0  0  0
  -27.2958  -26.3085   17.5827 C   0  0  0  0  0  0  0  0  0  0  0  0
  -29.3277  -17.1834   19.9383 C   0  0  0  0  0  0  0  0  0  0  0  0
  -22.0813  -30.4104   22.2890 C   0  0  0  0  0  0  0  0  0  0  0  0
  -22.9710  -33.5186   22.0252 C   0  0  0  0  0  0  0  0  0  0  0  0
  -28.0981  -24.1912   16.5789 C   0  0  0  0  0  0  0  0  0  0  0  0
  -25.4535  -35.8502   22.2446 C   0  0  0  0  0  0  0  0  0  0  0  0
  -17.7213  -27.7958   22.7495 C   0  0  0  0  0  0  0  0  0  0  0  0
  -23.2325  -30.7935   24.4989 C   0  0  0  0  0  0  0  0  0  0  0  0
  -24.8305  -31.8264   22.2351 C   0  0  0  0  0  0  0  0  0  0  0  0
  -18.1270  -29.1489   22.1708 C   0  0  0  0  0  0  0  0  0  0  0  0
  -25.4354  -23.4228   18.9340 C   0  0  0  0  0  0  0  0  0  0  0  0
  -19.3390  -28.9970   21.2572 C   0  0  0  0  0  0  0  0  0  0  0  0
  -25.7056  -21.9483   19.2304 C   0  0  0  0  0  0  0  0  0  0  0  0
  -25.7599  -23.7725   17.4840 C   0  0  0  0  0  0  0  0  0  0  0  0
  -27.4261  -21.9461   17.3723 C   0  0  0  0  0  0  0  0  0  0  0  0
  -20.5508  -28.4655   22.0321 C   0  0  1  0  0  0  0  0  0  0  0  0
  -22.5767  -31.4286   23.2766 C   0  0  1  0  0  0  0  0  0  0  0  0
  -27.1403  -21.5593   18.8330 C   0  0  2  0  0  0  0  0  0  0  0  0
  -23.5976  -28.4563   18.7046 C   0  0  0  0  0  0  0  0  0  0  0  0
  -25.8858  -38.3025   21.9338 C   0  0  0  0  0  0  0  0  0  0  0  0
  -30.6028  -26.3547   20.5778 C   0  0  0  0  0  0  0  0  0  0  0  0
  -28.9160  -26.3312   15.6678 C   0  0  0  0  0  0  0  0  0  0  0  0
  -26.6010  -25.5079   15.2241 C   0  0  0  0  0  0  0  0  0  0  0  0
  -22.9638  -33.1337   18.9984 C   0  0  0  0  0  0  0  0  0  0  0  0
  -24.2870  -35.2495   18.7962 C   0  0  0  0  0  0  0  0  0  0  0  0
  -21.9937  -35.3035   19.7764 C   0  0  0  0  0  0  0  0  0  0  0  0
  -30.0443  -25.3549   23.5117 C   0  0  0  0  0  0  0  0  0  0  0  0
  -31.1017  -27.6095   23.2945 C   0  0  0  0  0  0  0  0  0  0  0  0
  -26.2316  -36.1906   25.0797 C   0  0  0  0  0  0  0  0  0  0  0  0
  -25.0233  -28.9780   18.5472 C   0  0  0  0  0  0  0  0  0  0  0  0
  -28.1524  -26.0877   21.1295 C   0  0  0  0  0  0  0  0  0  0  0  0
  -28.6841  -27.4167   23.8893 C   0  0  0  0  0  0  0  0  0  1  0  0
  -23.8888  -34.2940   21.1112 C   0  0  1  0  0  0  0  0  0  0  0  0
  -25.5021  -37.2094   22.9190 C   0  0  2  0  0  0  0  0  0  0  0  0
  -29.4571  -26.8538   21.4807 C   0  0  1  0  0  0  0  0  0  0  0  0
  -27.6991  -25.6224   16.3216 C   0  0  0  0  0  0  0  0  0  0  0  0
  -23.2929  -34.4736   19.6864 C   0  0  0  0  0  0  0  0  0  0  0  0
  -29.8124  -26.7977   23.0206 C   0  0  0  0  0  0  0  0  0  0  0  0
  -26.4152  -19.2060   18.9683 N   0  0  0  0  0  0  0  0  0  0  0  0
  -26.3770  -27.2864   17.4687 N   0  0  0  0  0  0  0  0  0  0  0  0
  -27.8915  -25.8855   18.7139 N   0  0  0  0  0  0  0  0  0  0  0  0
  -27.4190  -20.0907   19.0941 N   0  0  0  0  0  0  0  0  0  0  0  0
  -23.4809  -32.3228   22.5506 N   0  0  0  0  0  0  0  0  0  0  0  0
  -27.1255  -23.3612   17.1369 N   0  0  0  0  0  0  0  0  0  0  0  0
  -29.7202  -20.2736   19.6249 N   0  0  0  0  0  0  0  0  0  0  0  0
  -28.9098  -15.8477   20.0137 N   0  0  0  0  0  0  0  0  0  0  0  0
  -21.1575  -29.5244   22.8099 N   0  0  0  0  0  0  0  0  0  0  0  0
  -24.1849  -35.5470   21.7973 N   0  0  0  0  0  0  0  0  0  0  0  0
  -26.4998  -37.2030   24.0260 N   0  3  0  0  0  0  0  0  0  0  0  0
  -30.5193  -17.4698   20.2054 O   0  0  0  0  0  0  0  0  0  0  0  0
  -22.5045  -30.4282   21.1391 O   0  0  0  0  0  0  0  0  0  0  0  0
  -21.8459  -33.9612   22.2698 O   0  0  0  0  0  0  0  0  0  0  0  0
  -29.2413  -23.8245   16.2945 O   0  0  0  0  0  0  0  0  0  0  0  0
  -26.4428  -35.1311   22.1233 O   0  0  0  0  0  0  0  0  0  0  0  0
  -24.0246  -13.3073   19.1670 O   0  0  0  0  0  0  0  0  0  0  0  0
  -28.4308  -28.7695   23.5124 O   0  0  0  0  0  0  0  0  0  1  0  0
  -20.6501  -12.4875   14.8840 F   0  0  0  0  0  0  0  0  0  0  0  0
  -24.3452  -11.1199   17.5071 F   0  0  0  0  0  0  0  0  0  0  0  0
  1  2  1  0  0  0  0
  1  5  2  0  0  0  0
  2  6  2  0  0  0  0
  3  8  2  0  0  0  0
  3 16  1  0  0  0  0
  4  9  1  0  0  0  0
  4 16  2  0  0  0  0
  5 18  1  0  0  0  0
  6 20  1  0  0  0  0
  7 10  2  0  0  0  0
  7 19  1  0  0  0  0
  8 22  1  0  0  0  0
  9 22  2  0  0  0  0
 10 23  1  0  0  0  0
 11 12  2  0  0  0  0
 11 24  1  0  0  0  0
 12 25  1  0  0  0  0
 13 21  1  0  0  0  0
 13 23  2  0  0  0  0
 14 25  2  0  0  0  0
 14 26  1  0  0  0  0
 15 28  1  0  0  0  0
 15 29  2  0  0  0  0
 16 27  1  0  0  0  0
 17 27  1  0  0  0  0
 17 30  2  0  0  0  0
 17 32  1  0  0  0  0
 18 20  2  0  0  0  0
 18 37  1  0  0  0  0
 19 21  2  0  0  0  0
 19 38  1  0  0  0  0
 20 46  1  0  0  0  0
 21 39  1  0  0  0  0
 22 85  1  0  0  0  0
 23 86  1  0  0  0  0
 24 26  2  0  0  0  0
 24 85  1  0  0  0  0
 25 87  1  0  0  0  0
 26 88  1  0  0  0  0
 27 69  2  0  0  0  0
 28 60  1  0  0  0  0
 28 70  2  0  0  0  0
 29 61  1  0  0  0  0
 29 71  1  0  0  0  0
 30 72  1  0  0  0  0
 30 75  1  0  0  0  0
 31 66  1  0  0  0  0
 31 70  1  0  0  0  0
 31 71  2  0  0  0  0
 32 76  1  0  0  0  0
 32 80  2  0  0  0  0
 33 47  1  0  0  0  0
 33 77  1  0  0  0  0
 33 81  2  0  0  0  0
 34 63  1  0  0  0  0
 34 73  1  0  0  0  0
 34 82  2  0  0  0  0
 35 66  1  0  0  0  0
 35 74  1  0  0  0  0
 35 83  2  0  0  0  0
 36 64  1  0  0  0  0
 36 78  1  0  0  0  0
 36 84  2  0  0  0  0
 37 40  1  0  0  0  0
 38 47  1  0  0  0  0
 39 73  1  0  0  0  0
 40 42  1  0  0  0  0
 41 43  1  0  0  0  0
 41 44  1  0  0  0  0
 42 46  1  0  0  0  0
 43 48  1  0  0  0  0
 44 74  1  0  0  0  0
 45 48  1  0  0  0  0
 45 74  1  0  0  0  0
 46 77  1  0  0  0  0
 47 73  1  0  0  0  0
 48 72  1  0  0  0  0
 49 60  1  0  0  0  0
 50 64  1  0  0  0  0
 51 65  1  0  0  0  0
 52 66  1  0  0  0  0
 53 66  1  0  0  0  0
 54 67  1  0  0  0  0
 55 67  1  0  0  0  0
 56 67  1  0  0  0  0
 57 68  1  0  0  0  0
 58 68  1  0  0  0  0
 59 79  1  0  0  0  0
 61 65  1  0  0  0  0
 62 68  1  0  0  0  0
 62 86  1  0  0  0  0
 63 67  1  0  0  0  0
 63 78  1  0  0  0  0
 64 79  1  0  0  0  0
 65 68  1  0  0  0  0
 69 72  1  0  0  0  0
M  CHG  1  79   1
M  ISO  4  35 100  62 101  66 100  86 101
M  END
> <Batch ID>
0069

> <Smiles>
CCc1cc(CC(C)C(C)(C)[101CH2:1][101O:1]c2ccc3c(c2)CN(C(=O)C(NC(=O)C(C)NC)C(C)(C)C)C(C(=O)NC2CCCc4ccccc42)C3)nc([100C:0](C)(C)[100C:0](=O)N2CCCC(n3nc(-c4ccc(Oc5ccc(F)cc5F)cc4)c(C(N)=O)c3N)C2)n1

> <Shape>
0.222

> <Color>
0.113

> <Negative vol penalty>
0.000

$$$$

  -OEChem-04052318173D

 82 90  0     1  0  0  0  0  0999 V2000
  -22.5387  -11.6216   19.4224 C   0  0  0  0  0  0  0  0  0  0  0  0
  -22.0503  -12.9236   19.4619 C   0  0  0  0  0  0  0  0  0  0  0  0
  -30.9988  -28.2978   21.0535 C   0  0  0  0  0  0  0  0  0  0  0  0
  -30.1225  -26.1448   21.7120 C   0  0  0  0  0  0  0  0  0  0  0  0
  -23.8011  -11.3358   19.9405 C   0  0  0  0  0  0  0  0  0  0  0  0
  -22.8238  -13.9405   20.0206 C   0  0  0  0  0  0  0  0  0  0  0  0
  -23.0765  -19.7875   18.2166 C   0  0  0  0  0  0  0  0  0  0  0  0
  -32.1629  -28.0461   21.7796 C   0  0  0  0  0  0  0  0  0  0  0  0
  -31.2866  -25.8930   22.4381 C   0  0  0  0  0  0  0  0  0  0  0  0
  -22.4551  -20.9427   18.6892 C   0  0  0  0  0  0  0  0  0  0  0  0
  -32.5983  -26.7750   25.4269 C   0  0  0  0  0  0  0  0  0  0  0  0
  -32.4600  -26.2449   26.7096 C   0  0  0  0  0  0  0  0  0  0  0  0
  -24.4140  -21.4525   20.0013 C   0  0  0  0  0  0  0  0  0  0  0  0
  -33.7366  -24.3043   26.0452 C   0  0  0  0  0  0  0  0  0  0  0  0
  -20.2724  -26.6891   19.9051 C   0  0  0  0  0  0  0  0  0  0  0  0
  -29.9786  -27.3471   21.0198 C   0  0  0  0  0  0  0  0  0  0  0  0
  -28.5310  -27.2931   18.9199 C   0  0  0  0  0  0  0  0  0  0  0  0
  -24.5944  -12.3514   20.4971 C   0  0  0  0  0  0  0  0  0  0  0  0
  -24.3694  -19.4500   18.6421 C   0  0  0  0  0  0  0  0  0  0  0  0
  -24.0975  -13.6678   20.5478 C   0  0  0  0  0  0  0  0  0  0  0  0
  -25.0506  -20.2939   19.5307 C   0  0  0  0  0  0  0  0  0  0  0  0
  -32.3068  -26.8437   22.4719 C   0  0  0  0  0  0  0  0  0  0  0  0
  -23.1227  -21.7738   19.5839 C   0  0  0  0  0  0  0  0  0  0  0  0
  -33.3056  -26.0697   24.4532 C   0  0  0  0  0  0  0  0  0  0  0  0
  -33.0292  -25.0096   27.0188 C   0  0  0  0  0  0  0  0  0  0  0  0
  -33.8748  -24.8344   24.7624 C   0  0  0  0  0  0  0  0  0  0  0  0
  -28.7757  -27.6068   20.2703 C   0  0  0  0  0  0  0  0  0  0  0  0
  -19.8716  -26.7665   21.2207 C   0  0  0  0  0  0  0  0  0  0  0  0
  -20.3202  -24.5400   21.4884 C   0  0  0  0  0  0  0  0  0  0  0  0
  -20.7204  -24.4626   20.1725 C   0  0  0  0  0  0  0  0  0  0  0  0
  -27.2535  -27.7416   18.6893 C   0  0  0  0  0  0  0  0  0  0  0  0
  -29.3824  -26.6535   17.9599 C   0  0  0  0  0  0  0  0  0  0  0  0
  -25.6419  -17.0097   20.2325 C   0  0  0  0  0  0  0  0  0  0  0  0
  -28.4309  -18.5044   19.5184 C   0  0  0  0  0  0  0  0  0  0  0  0
  -30.0402  -21.4038   18.7119 C   0  0  0  0  0  0  0  0  0  0  0  0
  -22.6534  -28.5422   22.3023 C   0  0  0  0  0  0  0  0  0  0  0  0
  -25.9332  -11.9856   21.0875 C   0  0  0  0  0  0  0  0  0  0  0  0
  -25.0362  -18.2145   18.1023 C   0  0  0  0  0  0  0  0  0  0  0  0
  -26.4477  -19.9870   20.0025 C   0  0  0  0  0  0  0  0  0  0  0  0
  -26.8440  -13.1878   21.3231 C   0  0  0  0  0  0  0  0  0  0  0  0
  -24.1262  -31.0553   20.1546 C   0  0  0  0  0  0  0  0  0  0  0  0
  -26.0743  -14.3154   22.0034 C   0  0  0  0  0  0  0  0  0  0  0  0
  -25.4723  -30.4133   19.8140 C   0  0  0  0  0  0  0  0  0  0  0  0
  -23.7256  -30.7665   21.5983 C   0  0  0  0  0  0  0  0  0  0  0  0
  -25.0292  -28.6750   21.6089 C   0  0  0  0  0  0  0  0  0  0  0  0
  -24.9168  -14.8025   21.1233 C   0  0  1  0  0  0  0  0  0  0  0  0
  -26.1564  -17.6992   19.0006 C   0  0  1  0  0  0  0  0  0  0  0  0
  -25.4794  -28.9116   20.1558 C   0  0  2  0  0  0  0  0  0  0  0  0
  -20.3443  -23.3455   22.3795 C   0  0  0  0  0  0  0  0  0  0  0  0
  -17.9231  -27.9882   22.2381 C   0  0  0  0  0  0  0  0  0  0  0  0
  -32.3261  -22.3188   18.2272 C   0  0  0  0  0  0  0  0  0  0  0  0
  -29.0933  -18.4201   22.4957 C   0  0  0  0  0  0  0  0  0  0  0  0
  -30.8639  -20.1404   22.0793 C   0  0  0  0  0  0  0  0  0  0  0  0
  -31.0176  -17.9046   20.9838 C   0  0  0  0  0  0  0  0  0  0  0  0
  -29.2556  -22.2345   15.9819 C   0  0  0  0  0  0  0  0  0  0  0  0
  -21.1990  -23.1722   19.5749 C   0  0  0  0  0  0  0  0  0  1  0  0
  -20.2645  -28.5650   22.9728 C   0  0  0  0  0  0  0  0  0  0  0  0
  -19.3996  -28.0576   21.7918 C   0  0  1  0  0  0  0  0  0  0  0  0
  -29.2801  -19.5589   20.1861 C   0  0  1  0  0  0  0  0  0  0  0  0
  -31.0589  -21.7238   17.6330 C   0  0  2  0  0  0  0  0  0  0  0  0
  -30.0367  -19.0111   21.4290 C   0  0  0  0  0  0  0  0  0  0  0  0
  -20.7040  -25.5358   19.3574 N   0  0  0  0  0  0  0  0  0  0  0  0
  -27.7370  -28.2082   20.8564 N   0  0  0  0  0  0  0  0  0  0  0  0
  -19.8883  -25.6933   22.0360 N   0  0  0  0  0  0  0  0  0  0  0  0
  -26.8273  -28.2762   19.8695 N   0  0  0  0  0  0  0  0  0  0  0  0
  -27.0547  -18.7643   19.4512 N   0  0  0  0  0  0  0  0  0  0  0  0
  -23.7342  -29.3190   21.8530 N   0  0  0  0  0  0  0  0  0  0  0  0
  -26.4644  -27.7271   17.5941 N   0  0  0  0  0  0  0  0  0  0  0  0
  -30.6643  -26.2560   18.3638 N   0  0  0  0  0  0  0  0  0  0  0  0
  -25.4113  -15.6575   20.0655 N   0  0  0  0  0  0  0  0  0  0  0  0
  -30.1501  -20.1002   19.1476 N   0  0  0  0  0  0  0  0  0  0  0  0
  -21.4649  -29.2295   22.5161 N   0  0  0  0  0  0  0  0  0  0  0  0
  -30.4930  -22.7000   16.6595 N   0  3  0  0  0  0  0  0  0  0  0  0
  -29.0233  -26.4554   16.7745 O   0  0  0  0  0  0  0  0  0  0  0  0
  -25.4684  -17.6563   21.2589 O   0  0  0  0  0  0  0  0  0  0  0  0
  -28.9696  -17.4908   19.0667 O   0  0  0  0  0  0  0  0  0  0  0  0
  -29.2306  -22.2288   19.1294 O   0  0  0  0  0  0  0  0  0  0  0  0
  -22.7397  -27.3244   22.4939 O   0  0  0  0  0  0  0  0  0  0  0  0
  -33.4426  -26.5977   23.1804 O   0  0  0  0  0  0  0  0  0  0  0  0
  -22.5182  -22.9016   20.0472 O   0  0  0  0  0  0  0  0  0  1  0  0
  -32.8977  -24.5014   28.2511 F   0  0  0  0  0  0  0  0  0  0  0  0
  -34.5565  -24.1527   23.8316 F   0  0  0  0  0  0  0  0  0  0  0  0
  1  2  1  0  0  0  0
  1  5  2  0  0  0  0
  2  6  2  0  0  0  0
  3  8  2  0  0  0  0
  3 16  1  0  0  0  0
  4  9  1  0  0  0  0
  4 16  2  0  0  0  0
  5 18  1  0  0  0  0
  6 20  1  0  0  0  0
  7 10  2  0  0  0  0
  7 19  1  0  0  0  0
  8 22  1  0  0  0  0
  9 22  2  0  0  0  0
 10 23  1  0  0  0  0
 11 12  2  0  0  0  0
 11 24  1  0  0  0  0
 12 25  1  0  0  0  0
 13 21  1  0  0  0  0
 13 23  2  0  0  0  0
 14 25  2  0  0  0  0
 14 26  1  0  0  0  0
 15 28  1  0  0  0  0
 15 62  2  0  0  0  0
 16 27  1  0  0  0  0
 17 27  1  0  0  0  0
 17 31  2  0  0  0  0
 17 32  1  0  0  0  0
 18 20  2  0  0  0  0
 18 37  1  0  0  0  0
 19 21  2  0  0  0  0
 19 38  1  0  0  0  0
 20 46  1  0  0  0  0
 21 39  1  0  0  0  0
 22 79  1  0  0  0  0
 23 80  1  0  0  0  0
 24 26  2  0  0  0  0
 24 79  1  0  0  0  0
 25 81  1  0  0  0  0
 26 82  1  0  0  0  0
 27 63  2  0  0  0  0
 28 58  1  0  0  0  0
 28 64  2  0  0  0  0
 29 30  2  0  0  0  0
 29 49  1  0  0  0  0
 29 64  1  0  0  0  0
 30 56  1  0  0  0  0
 30 62  1  0  0  0  0
 31 65  1  0  0  0  0
 31 68  1  0  0  0  0
 32 69  1  0  0  0  0
 32 74  2  0  0  0  0
 33 47  1  0  0  0  0
 33 70  1  0  0  0  0
 33 75  2  0  0  0  0
 34 59  1  0  0  0  0
 34 66  1  0  0  0  0
 34 76  2  0  0  0  0
 35 60  1  0  0  0  0
 35 71  1  0  0  0  0
 35 77  2  0  0  0  0
 36 67  1  0  0  0  0
 36 72  1  0  0  0  0
 36 78  2  0  0  0  0
 37 40  1  0  0  0  0
 38 47  1  0  0  0  0
 39 66  1  0  0  0  0
 40 42  1  0  0  0  0
 41 43  1  0  0  0  0
 41 44  1  0  0  0  0
 42 46  1  0  0  0  0
 43 48  1  0  0  0  0
 44 67  1  0  0  0  0
 45 48  1  0  0  0  0
 45 67  1  0  0  0  0
 46 70  1  0  0  0  0
 47 66  1  0  0  0  0
 48 65  1  0  0  0  0
 50 58  1  0  0  0  0
 51 60  1  0  0  0  0
 52 61  1  0  0  0  0
 53 61  1  0  0  0  0
 54 61  1  0  0  0  0
 55 73  1  0  0  0  0
 56 80  1  0  0  0  0
 57 58  1  0  0  0  0
 57 72  1  0  0  0  0
 59 61  1  0  0  0  0
 59 71  1  0  0  0  0
 60 73  1  0  0  0  0
 63 65  1  0  0  0  0
M  CHG  1  73   1
M  ISO  4  36 100  56 101  72 100  80 101
M  END
> <Batch ID>
0069

> <Smiles>
CNC(C)C(=O)NC(C(=O)N1Cc2cc([101O:1][101CH2:1]c3ncc(C(C)C[100NH:0][100C:0](=O)N4CCCC(n5nc(-c6ccc(Oc7ccc(F)cc7F)cc6)c(C(N)=O)c5N)C4)nc3C)ccc2CC1C(=O)NC1CCCc2ccccc21)C(C)(C)C

> <Shape>
0.229

> <Color>
0.070

> <Negative vol penalty>
0.000

$$$$

  -OEChem-04052318173D

 82 90  0     1  0  0  0  0  0999 V2000
  -21.9219  -11.3577   19.4257 C   0  0  0  0  0  0  0  0  0  0  0  0
  -21.6690  -12.2971   20.4202 C   0  0  0  0  0  0  0  0  0  0  0  0
  -21.0430  -26.6567   20.8966 C   0  0  0  0  0  0  0  0  0  0  0  0
  -22.1244  -26.4265   23.0448 C   0  0  0  0  0  0  0  0  0  0  0  0
  -23.2327  -11.1078   19.0216 C   0  0  0  0  0  0  0  0  0  0  0  0
  -22.7269  -12.9864   21.0119 C   0  0  0  0  0  0  0  0  0  0  0  0
  -24.3381  -19.3548   23.8692 C   0  0  0  0  0  0  0  0  0  0  0  0
  -19.9261  -25.9797   21.3863 C   0  0  0  0  0  0  0  0  0  0  0  0
  -21.0075  -25.7496   23.5345 C   0  0  0  0  0  0  0  0  0  0  0  0
  -24.8838  -19.9092   25.0262 C   0  0  0  0  0  0  0  0  0  0  0  0
  -19.0240  -22.7806   22.0000 C   0  0  0  0  0  0  0  0  0  0  0  0
  -18.4630  -21.7897   21.1945 C   0  0  0  0  0  0  0  0  0  0  0  0
  -27.1008  -19.4522   24.1922 C   0  0  0  0  0  0  0  0  0  0  0  0
  -16.3737  -23.0024   21.1578 C   0  0  0  0  0  0  0  0  0  0  0  0
  -29.4235  -24.8528   25.5308 C   0  0  0  0  0  0  0  0  0  0  0  0
  -30.7755  -23.3760   23.7648 C   0  0  0  0  0  0  0  0  0  0  0  0
  -22.1422  -26.8800   21.7258 C   0  0  0  0  0  0  0  0  0  0  0  0
  -23.5311  -28.9665   21.2511 C   0  0  0  0  0  0  0  0  0  0  0  0
  -24.3065  -11.8013   19.6019 C   0  0  0  0  0  0  0  0  0  0  0  0
  -25.1708  -18.8342   22.8682 C   0  0  0  0  0  0  0  0  0  0  0  0
  -24.0534  -12.7445   20.6162 C   0  0  0  0  0  0  0  0  0  0  0  0
  -26.5632  -18.8941   23.0224 C   0  0  0  0  0  0  0  0  0  0  0  0
  -19.9083  -25.5262   22.7053 C   0  0  0  0  0  0  0  0  0  0  0  0
  -26.2653  -19.9554   25.1892 C   0  0  0  0  0  0  0  0  0  0  0  0
  -18.2598  -23.8825   22.3845 C   0  0  0  0  0  0  0  0  0  0  0  0
  -17.1378  -21.9006   20.7734 C   0  0  0  0  0  0  0  0  0  0  0  0
  -16.9347  -23.9933   21.9634 C   0  0  0  0  0  0  0  0  0  0  0  0
  -23.2965  -27.5788   21.2203 C   0  0  0  0  0  0  0  0  0  0  0  0
  -29.8306  -23.5732   25.8379 C   0  0  0  0  0  0  0  0  0  0  0  0
  -30.3679  -24.6554   23.4573 C   0  0  0  0  0  0  0  0  0  0  0  0
  -24.7570  -29.1209   20.6514 C   0  0  0  0  0  0  0  0  0  0  0  0
  -22.7139  -30.0217   21.7751 C   0  0  0  0  0  0  0  0  0  0  0  0
  -25.5963  -15.9627   21.5732 C   0  0  0  0  0  0  0  0  0  0  0  0
  -27.5630  -17.5875   19.5696 C   0  0  0  0  0  0  0  0  0  0  0  0
  -29.5352  -20.3201   19.0309 C   0  0  0  0  0  0  0  0  0  0  0  0
  -29.4545  -25.4699   19.9761 C   0  0  0  0  0  0  0  0  0  0  0  0
  -25.7099  -11.4629   19.1655 C   0  0  0  0  0  0  0  0  0  0  0  0
  -24.5671  -18.2638   21.6142 C   0  0  0  0  0  0  0  0  0  0  0  0
  -27.5012  -18.3672   21.9683 C   0  0  0  0  0  0  0  0  0  0  0  0
  -26.7447  -12.5062   19.5793 C   0  0  0  0  0  0  0  0  0  0  0  0
  -27.6146  -27.0910   17.3948 C   0  0  0  0  0  0  0  0  0  0  0  0
  -26.5518  -12.8991   21.0405 C   0  0  0  0  0  0  0  0  0  0  0  0
  -26.3204  -27.5251   18.0853 C   0  0  0  0  0  0  0  0  0  0  0  0
  -28.1071  -25.7426   17.9154 C   0  0  0  0  0  0  0  0  0  0  0  0
  -26.9655  -26.0965   20.0707 C   0  0  0  0  0  0  0  0  0  0  0  0
  -25.1724  -13.5304   21.2646 C   0  0  1  0  0  0  0  0  0  0  0  0
  -25.4981  -17.2969   20.8891 C   0  0  1  0  0  0  0  0  0  0  0  0
  -26.4598  -27.4772   19.6188 C   0  0  2  0  0  0  0  0  0  0  0  0
  -31.5334  -26.5176   22.2183 C   0  0  0  0  0  0  0  0  0  0  0  0
  -31.0046  -21.9199   17.7744 C   0  0  0  0  0  0  0  0  0  0  0  0
  -29.7440  -15.5757   20.2809 C   0  0  0  0  0  0  0  0  0  0  0  0
  -31.4251  -17.1647   19.3231 C   0  0  0  0  0  0  0  0  0  0  0  0
  -29.6493  -16.1996   17.8609 C   0  0  0  0  0  0  0  0  0  0  0  0
  -27.2114  -21.8791   18.0672 C   0  0  0  0  0  0  0  0  0  0  0  0
  -29.5206  -22.9742   27.1865 C   0  0  0  0  0  0  0  0  0  0  0  0
  -28.1877  -22.2243   27.2358 C   0  0  0  0  0  0  0  0  0  0  0  0
  -28.0813  -21.1130   26.1979 C   0  0  0  0  0  0  0  0  0  1  0  0
  -30.6742  -25.2469   22.1260 C   0  0  2  0  0  0  0  0  0  0  0  0
  -29.0277  -17.9531   19.5730 C   0  0  1  0  0  0  0  0  0  0  0  0
  -29.6274  -21.2805   17.8589 C   0  0  2  0  0  0  0  0  0  0  0  0
  -29.9441  -16.7315   19.2804 C   0  0  0  0  0  0  0  0  0  0  0  0
  -30.5141  -22.8119   24.9606 N   0  0  0  0  0  0  0  0  0  0  0  0
  -29.6846  -25.4168   24.3348 N   0  0  0  0  0  0  0  0  0  0  0  0
  -24.2933  -26.8999   20.6463 N   0  0  0  0  0  0  0  0  0  0  0  0
  -25.1661  -27.8651   20.3108 N   0  0  0  0  0  0  0  0  0  0  0  0
  -26.8625  -17.8135   20.7629 N   0  0  0  0  0  0  0  0  0  0  0  0
  -28.2192  -25.7643   19.3758 N   0  0  0  0  0  0  0  0  0  0  0  0
  -25.5142  -30.2069   20.3874 N   0  0  0  0  0  0  0  0  0  0  0  0
  -21.4838  -29.6876   22.3577 N   0  0  0  0  0  0  0  0  0  0  0  0
  -25.1628  -14.9016   20.8015 N   0  0  0  0  0  0  0  0  0  0  0  0
  -29.1763  -19.0521   18.6252 N   0  0  0  0  0  0  0  0  0  0  0  0
  -29.4754  -25.5191   21.3646 N   0  0  0  0  0  0  0  0  0  0  0  0
  -28.6137  -22.3643   17.9963 N   0  3  0  0  0  0  0  0  0  0  0  0
  -23.0568  -31.2267   21.7132 O   0  0  0  0  0  0  0  0  0  0  0  0
  -26.0343  -15.9004   22.7159 O   0  0  0  0  0  0  0  0  0  0  0  0
  -27.0574  -17.1254   18.5437 O   0  0  0  0  0  0  0  0  0  0  0  0
  -29.7626  -20.6599   20.1899 O   0  0  0  0  0  0  0  0  0  0  0  0
  -30.4653  -25.1896   19.3229 O   0  0  0  0  0  0  0  0  0  0  0  0
  -18.8185  -24.8658   23.1836 O   0  0  0  0  0  0  0  0  0  0  0  0
  -26.8005  -20.4953   26.3178 O   0  0  0  0  0  0  0  0  0  1  0  0
  -16.5997  -20.9497   19.9985 F   0  0  0  0  0  0  0  0  0  0  0  0
  -16.1960  -25.0501   22.3286 F   0  0  0  0  0  0  0  0  0  0  0  0
  1  2  1  0  0  0  0
  1  5  2  0  0  0  0
  2  6  2  0  0  0  0
  3  8  2  0  0  0  0
  3 17  1  0  0  0  0
  4  9  1  0  0  0  0
  4 17  2  0  0  0  0
  5 19  1  0  0  0  0
  6 21  1  0  0  0  0
  7 10  2  0  0  0  0
  7 20  1  0  0  0  0
  8 23  1  0  0  0  0
  9 23  2  0  0  0  0
 10 24  1  0  0  0  0
 11 12  2  0  0  0  0
 11 25  1  0  0  0  0
 12 26  1  0  0  0  0
 13 22  1  0  0  0  0
 13 24  2  0  0  0  0
 14 26  2  0  0  0  0
 14 27  1  0  0  0  0
 15 29  1  0  0  0  0
 15 63  2  0  0  0  0
 16 30  2  0  0  0  0
 16 62  1  0  0  0  0
 17 28  1  0  0  0  0
 18 28  1  0  0  0  0
 18 31  2  0  0  0  0
 18 32  1  0  0  0  0
 19 21  2  0  0  0  0
 19 37  1  0  0  0  0
 20 22  2  0  0  0  0
 20 38  1  0  0  0  0
 21 46  1  0  0  0  0
 22 39  1  0  0  0  0
 23 79  1  0  0  0  0
 24 80  1  0  0  0  0
 25 27  2  0  0  0  0
 25 79  1  0  0  0  0
 26 81  1  0  0  0  0
 27 82  1  0  0  0  0
 28 64  2  0  0  0  0
 29 55  1  0  0  0  0
 29 62  2  0  0  0  0
 30 58  1  0  0  0  0
 30 63  1  0  0  0  0
 31 65  1  0  0  0  0
 31 68  1  0  0  0  0
 32 69  1  0  0  0  0
 32 74  2  0  0  0  0
 33 47  1  0  0  0  0
 33 70  1  0  0  0  0
 33 75  2  0  0  0  0
 34 59  1  0  0  0  0
 34 66  1  0  0  0  0
 34 76  2  0  0  0  0
 35 60  1  0  0  0  0
 35 71  1  0  0  0  0
 35 77  2  0  0  0  0
 36 67  1  0  0  0  0
 36 72  1  0  0  0  0
 36 78  2  0  0  0  0
 37 40  1  0  0  0  0
 38 47  1  0  0  0  0
 39 66  1  0  0  0  0
 40 42  1  0  0  0  0
 41 43  1  0  0  0  0
 41 44  1  0  0  0  0
 42 46  1  0  0  0  0
 43 48  1  0  0  0  0
 44 67  1  0  0  0  0
 45 48  1  0  0  0  0
 45 67  1  0  0  0  0
 46 70  1  0  0  0  0
 47 66  1  0  0  0  0
 48 65  1  0  0  0  0
 49 58  1  0  0  0  0
 50 60  1  0  0  0  0
 51 61  1  0  0  0  0
 52 61  1  0  0  0  0
 53 61  1  0  0  0  0
 54 73  1  0  0  0  0
 55 56  1  0  0  0  0
 56 57  1  0  0  0  0
 57 80  1  0  0  0  0
 58 72  1  0  0  0  0
 59 61  1  0  0  0  0
 59 71  1  0  0  0  0
 60 73  1  0  0  0  0
 64 65  1  0  0  0  0
M  CHG  1  73   1
M  ISO  4  36 100  57 101  72 100  80 101
M  END
> <Batch ID>
0069

> <Smiles>
CNC(C)C(=O)NC(C(=O)N1Cc2cc([101O:1][101CH2:1]CCc3cnc(C(C)[100NH:0][100C:0](=O)N4CCCC(n5nc(-c6ccc(Oc7ccc(F)cc7F)cc6)c(C(N)=O)c5N)C4)cn3)ccc2CC1C(=O)NC1CCCc2ccccc21)C(C)(C)C

> <Shape>
0.198

> <Color>
0.079

> <Negative vol penalty>
0.000

$$$$

  -OEChem-04052318173D

 88 96  0     1  0  0  0  0  0999 V2000
  -18.2448  -32.8294   24.3543 C   0  0  0  0  0  0  0  0  0  0  0  0
  -19.4895  -32.4872   24.8729 C   0  0  0  0  0  0  0  0  0  0  0  0
  -25.2359  -14.2669   20.9814 C   0  0  0  0  0  0  0  0  0  0  0  0
  -26.0352  -14.0820   18.7090 C   0  0  0  0  0  0  0  0  0  0  0  0
  -17.5210  -31.8986   23.6101 C   0  0  0  0  0  0  0  0  0  0  0  0
  -20.0107  -31.2134   24.6487 C   0  0  0  0  0  0  0  0  0  0  0  0
  -26.2465  -27.8248   23.6750 C   0  0  0  0  0  0  0  0  0  0  0  0
  -24.3750  -13.1908   20.7662 C   0  0  0  0  0  0  0  0  0  0  0  0
  -25.1743  -13.0058   18.4938 C   0  0  0  0  0  0  0  0  0  0  0  0
  -26.9743  -26.7444   24.1718 C   0  0  0  0  0  0  0  0  0  0  0  0
  -24.5863   -9.8186   20.6386 C   0  0  0  0  0  0  0  0  0  0  0  0
  -24.5223   -8.8327   21.6232 C   0  0  0  0  0  0  0  0  0  0  0  0
  -25.6700  -25.2449   22.8046 C   0  0  0  0  0  0  0  0  0  0  0  0
  -22.1644   -9.2733   21.9112 C   0  0  0  0  0  0  0  0  0  0  0  0
  -29.7432  -25.1298   21.7011 C   0  0  0  0  0  0  0  0  0  0  0  0
  -26.0660  -14.7126   19.9528 C   0  0  0  0  0  0  0  0  0  0  0  0
  -28.2809  -15.7723   20.6447 C   0  0  0  0  0  0  0  0  0  0  0  0
  -18.0379  -30.6160   23.3685 C   0  0  0  0  0  0  0  0  0  0  0  0
  -25.2160  -27.6219   22.7459 C   0  0  0  0  0  0  0  0  0  0  0  0
  -19.2926  -30.2641   23.9017 C   0  0  0  0  0  0  0  0  0  0  0  0
  -24.9323  -26.3246   22.2956 C   0  0  0  0  0  0  0  0  0  0  0  0
  -24.3442  -12.5602   19.5224 C   0  0  0  0  0  0  0  0  0  0  0  0
  -26.6842  -25.4539   23.7388 C   0  0  0  0  0  0  0  0  0  0  0  0
  -23.4394  -10.5320   20.2904 C   0  0  0  0  0  0  0  0  0  0  0  0
  -23.3114   -8.5600   22.2595 C   0  0  0  0  0  0  0  0  0  0  0  0
  -22.2284  -10.2593   20.9267 C   0  0  0  0  0  0  0  0  0  0  0  0
  -26.9551  -15.8246   20.1743 C   0  0  0  0  0  0  0  0  0  0  0  0
  -30.3267  -23.9570   22.1352 C   0  0  0  0  0  0  0  0  0  0  0  0
  -30.0132  -25.4830   20.3947 C   0  0  0  0  0  0  0  0  0  0  0  0
  -28.6850  -17.0845   20.6792 C   0  0  0  0  0  0  0  0  0  0  0  0
  -31.3018  -23.6326   20.1076 C   0  0  0  0  0  0  0  0  0  0  0  0
  -29.0761  -14.6388   21.0171 C   0  0  0  0  0  0  0  0  0  0  0  0
  -22.0808  -28.1450   22.7235 C   0  0  0  0  0  0  0  0  0  0  0  0
  -22.3413  -27.2149   19.6269 C   0  0  0  0  0  0  0  0  0  0  0  0
  -24.0808  -25.4770   17.2603 C   0  0  0  0  0  0  0  0  0  0  0  0
  -28.9898  -22.1458   18.3476 C   0  0  0  0  0  0  0  0  0  0  0  0
  -17.1979  -29.6281   22.5983 C   0  0  0  0  0  0  0  0  0  0  0  0
  -24.4581  -28.8006   22.1994 C   0  0  0  0  0  0  0  0  0  0  0  0
  -23.8493  -26.0553   21.2841 C   0  0  0  0  0  0  0  0  0  0  0  0
  -17.9867  -28.4243   22.0894 C   0  0  0  0  0  0  0  0  0  0  0  0
  -26.0321  -21.3608   20.1676 C   0  0  0  0  0  0  0  0  0  0  0  0
  -18.8746  -27.8618   23.1948 C   0  0  0  0  0  0  0  0  0  0  0  0
  -26.1150  -19.8462   20.3647 C   0  0  0  0  0  0  0  0  0  0  0  0
  -26.5827  -21.7840   18.8076 C   0  0  0  0  0  0  0  0  0  0  0  0
  -28.0303  -19.7916   18.7131 C   0  0  0  0  0  0  0  0  0  0  0  0
  -19.9026  -28.9006   23.6591 C   0  0  1  0  0  0  0  0  0  0  0  0
  -23.0879  -28.4245   21.6440 C   0  0  1  0  0  0  0  0  0  0  0  0
  -27.5381  -19.3224   20.0930 C   0  0  2  0  0  0  0  0  0  0  0  0
  -24.7025  -24.6303   14.9813 C   0  0  0  0  0  0  0  0  0  0  0  0
  -29.8863  -27.9866   20.6435 C   0  0  0  0  0  0  0  0  0  0  0  0
  -27.8657  -26.6949   19.8786 C   0  0  0  0  0  0  0  0  0  0  0  0
  -29.7923  -27.0414   18.3457 C   0  0  0  0  0  0  0  0  0  0  0  0
  -32.7436  -21.4964   19.8743 C   0  0  0  0  0  0  0  0  0  0  0  0
  -33.4223  -23.6098   18.7656 C   0  0  0  0  0  0  0  0  0  0  0  0
  -20.1507  -25.1665   20.1884 C   0  0  0  0  0  0  0  0  0  0  0  0
  -20.8018  -23.9941   18.0742 C   0  0  0  0  0  0  0  0  0  0  0  0
  -19.9462  -26.3357   17.9871 C   0  0  0  0  0  0  0  0  0  0  0  0
  -25.8197  -27.8144   16.7389 C   0  0  0  0  0  0  0  0  0  0  0  0
  -30.0895  -23.4877   23.5484 C   0  0  0  0  0  0  0  0  0  0  0  0
  -28.8674  -22.5791   23.6987 C   0  0  0  0  0  0  0  0  0  0  0  0
  -31.4244  -22.3482   17.9105 C   0  0  0  0  0  0  0  0  0  0  0  0
  -27.5536  -23.2732   23.3588 C   0  0  0  0  0  0  0  0  0  1  0  0
  -22.2638  -25.8959   18.8966 C   0  0  1  0  0  0  0  0  0  0  0  0
  -24.5373  -25.8579   15.8635 C   0  0  2  0  0  0  0  0  0  0  0  0
  -29.4246  -26.7348   19.8352 C   0  0  0  0  0  0  0  0  0  0  0  0
  -32.1644  -22.7997   19.2210 C   0  0  0  0  0  0  0  0  0  0  0  0
  -20.8098  -25.3526   18.8071 C   0  0  0  0  0  0  0  0  0  0  0  0
  -26.5442  -17.0714   19.9278 N   0  0  0  0  0  0  0  0  0  0  0  0
  -31.1145  -23.1808   21.3623 N   0  0  0  0  0  0  0  0  0  0  0  0
  -30.7912  -24.7553   19.5668 N   0  0  0  0  0  0  0  0  0  0  0  0
  -27.6181  -17.8146   20.2446 N   0  0  0  0  0  0  0  0  0  0  0  0
  -23.1322  -27.2400   20.7843 N   0  0  0  0  0  0  0  0  0  0  0  0
  -27.9355  -21.2565   18.6131 N   0  0  0  0  0  0  0  0  0  0  0  0
  -29.8453  -17.6736   21.0386 N   0  0  0  0  0  0  0  0  0  0  0  0
  -28.5059  -13.3621   20.9212 N   0  0  0  0  0  0  0  0  0  0  0  0
  -20.9907  -28.9942   22.7096 N   0  0  0  0  0  0  0  0  0  0  0  0
  -22.9033  -26.1076   17.6025 N   0  0  0  0  0  0  0  0  0  0  0  0
  -30.2407  -21.5636   18.1826 N   0  0  0  0  0  0  0  0  0  0  0  0
  -25.8432  -26.5735   15.9225 N   0  3  0  0  0  0  0  0  0  0  0  0
  -30.2518  -14.7561   21.4384 O   0  0  0  0  0  0  0  0  0  0  0  0
  -22.2774  -27.2260   23.5099 O   0  0  0  0  0  0  0  0  0  0  0  0
  -21.7286  -28.1890   19.1826 O   0  0  0  0  0  0  0  0  0  0  0  0
  -24.7043  -24.6952   17.9748 O   0  0  0  0  0  0  0  0  0  0  0  0
  -28.8293  -23.3685   18.2691 O   0  0  0  0  0  0  0  0  0  0  0  0
  -23.5044  -11.5099   19.3121 O   0  0  0  0  0  0  0  0  0  0  0  0
  -27.3926  -24.3975   24.2227 O   0  0  0  0  0  0  0  0  0  1  0  0
  -23.2497   -7.6121   23.2039 F   0  0  0  0  0  0  0  0  0  0  0  0
  -21.1229  -10.9405   20.5955 F   0  0  0  0  0  0  0  0  0  0  0  0
  1  2  1  0  0  0  0
  1  5  2  0  0  0  0
  2  6  2  0  0  0  0
  3  8  2  0  0  0  0
  3 16  1  0  0  0  0
  4  9  1  0  0  0  0
  4 16  2  0  0  0  0
  5 18  1  0  0  0  0
  6 20  1  0  0  0  0
  7 10  2  0  0  0  0
  7 19  1  0  0  0  0
  8 22  1  0  0  0  0
  9 22  2  0  0  0  0
 10 23  1  0  0  0  0
 11 12  2  0  0  0  0
 11 24  1  0  0  0  0
 12 25  1  0  0  0  0
 13 21  1  0  0  0  0
 13 23  2  0  0  0  0
 14 25  2  0  0  0  0
 14 26  1  0  0  0  0
 15 28  1  0  0  0  0
 15 29  2  0  0  0  0
 16 27  1  0  0  0  0
 17 27  1  0  0  0  0
 17 30  2  0  0  0  0
 17 32  1  0  0  0  0
 18 20  2  0  0  0  0
 18 37  1  0  0  0  0
 19 21  2  0  0  0  0
 19 38  1  0  0  0  0
 20 46  1  0  0  0  0
 21 39  1  0  0  0  0
 22 85  1  0  0  0  0
 23 86  1  0  0  0  0
 24 26  2  0  0  0  0
 24 85  1  0  0  0  0
 25 87  1  0  0  0  0
 26 88  1  0  0  0  0
 27 68  2  0  0  0  0
 28 59  1  0  0  0  0
 28 69  2  0  0  0  0
 29 65  1  0  0  0  0
 29 70  1  0  0  0  0
 30 71  1  0  0  0  0
 30 74  1  0  0  0  0
 31 66  1  0  0  0  0
 31 69  1  0  0  0  0
 31 70  2  0  0  0  0
 32 75  1  0  0  0  0
 32 80  2  0  0  0  0
 33 47  1  0  0  0  0
 33 76  1  0  0  0  0
 33 81  2  0  0  0  0
 34 63  1  0  0  0  0
 34 72  1  0  0  0  0
 34 82  2  0  0  0  0
 35 64  1  0  0  0  0
 35 77  1  0  0  0  0
 35 83  2  0  0  0  0
 36 73  1  0  0  0  0
 36 78  1  0  0  0  0
 36 84  2  0  0  0  0
 37 40  1  0  0  0  0
 38 47  1  0  0  0  0
 39 72  1  0  0  0  0
 40 42  1  0  0  0  0
 41 43  1  0  0  0  0
 41 44  1  0  0  0  0
 42 46  1  0  0  0  0
 43 48  1  0  0  0  0
 44 73  1  0  0  0  0
 45 48  1  0  0  0  0
 45 73  1  0  0  0  0
 46 76  1  0  0  0  0
 47 72  1  0  0  0  0
 48 71  1  0  0  0  0
 49 64  1  0  0  0  0
 50 65  1  0  0  0  0
 51 65  1  0  0  0  0
 52 65  1  0  0  0  0
 53 66  1  0  0  0  0
 54 66  1  0  0  0  0
 55 67  1  0  0  0  0
 56 67  1  0  0  0  0
 57 67  1  0  0  0  0
 58 79  1  0  0  0  0
 59 60  1  0  0  0  0
 60 62  1  0  0  0  0
 61 66  1  0  0  0  0
 61 78  1  0  0  0  0
 62 86  1  0  0  0  0
 63 67  1  0  0  0  0
 63 77  1  0  0  0  0
 64 79  1  0  0  0  0
 68 71  1  0  0  0  0
M  CHG  1  79   1
M  ISO  4  36 100  62 101  78 100  86 101
M  END
> <Batch ID>
0069

> <Smiles>
CNC(C)C(=O)NC(C(=O)N1Cc2cc([101O:1][101CH2:1]CCc3cc(C(C)(C)C)nc(C(C)(C)C[100NH:0][100C:0](=O)N4CCCC(n5nc(-c6ccc(Oc7ccc(F)cc7F)cc6)c(C(N)=O)c5N)C4)n3)ccc2CC1C(=O)NC1CCCc2ccccc21)C(C)(C)C

> <Shape>
0.234

> <Color>
0.071

> <Negative vol penalty>
0.000

$$$$

  -OEChem-04052318173D

 86 94  0     1  0  0  0  0  0999 V2000
  -17.0221  -29.2985   24.5812 C   0  0  0  0  0  0  0  0  0  0  0  0
  -17.6533  -28.1865   24.0331 C   0  0  0  0  0  0  0  0  0  0  0  0
  -26.3351  -12.9506   20.6815 C   0  0  0  0  0  0  0  0  0  0  0  0
  -24.4931  -14.5103   20.5747 C   0  0  0  0  0  0  0  0  0  0  0  0
  -17.3672  -30.5782   24.1486 C   0  0  0  0  0  0  0  0  0  0  0  0
  -18.6294  -28.3535   23.0514 C   0  0  0  0  0  0  0  0  0  0  0  0
  -22.7054  -25.4568   23.8517 C   0  0  0  0  0  0  0  0  0  0  0  0
  -25.4880  -11.9878   21.2301 C   0  0  0  0  0  0  0  0  0  0  0  0
  -23.6460  -13.5475   21.1233 C   0  0  0  0  0  0  0  0  0  0  0  0
  -22.6048  -24.1084   23.5120 C   0  0  0  0  0  0  0  0  0  0  0  0
  -23.7293   -9.0002   22.3239 C   0  0  0  0  0  0  0  0  0  0  0  0
  -23.8072   -7.7032   21.8167 C   0  0  0  0  0  0  0  0  0  0  0  0
  -23.7785  -24.5463   21.4505 C   0  0  0  0  0  0  0  0  0  0  0  0
  -23.2122   -8.5248   19.6240 C   0  0  0  0  0  0  0  0  0  0  0  0
  -25.2472  -20.1740   21.4337 C   0  0  0  0  0  0  0  0  0  0  0  0
  -25.8377  -14.2119   20.3538 C   0  0  0  0  0  0  0  0  0  0  0  0
  -26.9781  -15.4279   18.4229 C   0  0  0  0  0  0  0  0  0  0  0  0
  -18.3549  -30.7615   23.1680 C   0  0  0  0  0  0  0  0  0  0  0  0
  -23.3347  -26.3636   22.9868 C   0  0  0  0  0  0  0  0  0  0  0  0
  -18.9871  -29.6368   22.6044 C   0  0  0  0  0  0  0  0  0  0  0  0
  -23.8880  -25.9052   21.7827 C   0  0  0  0  0  0  0  0  0  0  0  0
  -24.1435  -12.2862   21.4510 C   0  0  0  0  0  0  0  0  0  0  0  0
  -23.1389  -23.6534   22.3100 C   0  0  0  0  0  0  0  0  0  0  0  0
  -23.3927  -10.0596   21.4812 C   0  0  0  0  0  0  0  0  0  0  0  0
  -23.5487   -7.4655   20.4668 C   0  0  0  0  0  0  0  0  0  0  0  0
  -23.1342   -9.8219   20.1312 C   0  0  0  0  0  0  0  0  0  0  0  0
  -26.7123  -15.2071   19.7876 C   0  0  0  0  0  0  0  0  0  0  0  0
  -26.0407  -20.9093   20.5328 C   0  0  0  0  0  0  0  0  0  0  0  0
  -24.0161  -20.1039   20.8287 C   0  0  0  0  0  0  0  0  0  0  0  0
  -27.8654  -16.4762   18.4111 C   0  0  0  0  0  0  0  0  0  0  0  0
  -26.4684  -14.7463   17.2690 C   0  0  0  0  0  0  0  0  0  0  0  0
  -22.4103  -28.9536   21.3926 C   0  0  0  0  0  0  0  0  0  0  0  0
  -25.5653  -29.1563   20.6666 C   0  0  0  0  0  0  0  0  0  0  0  0
  -28.5624  -27.5654   20.3019 C   0  0  0  0  0  0  0  0  0  0  0  0
  -28.8167  -20.7080   22.7384 C   0  0  0  0  0  0  0  0  0  0  0  0
  -18.6606  -32.1618   22.6985 C   0  0  0  0  0  0  0  0  0  0  0  0
  -23.4585  -27.8102   23.3800 C   0  0  0  0  0  0  0  0  0  0  0  0
  -24.5915  -26.8345   20.8287 C   0  0  0  0  0  0  0  0  0  0  0  0
  -19.9709  -32.2717   21.9231 C   0  0  0  0  0  0  0  0  0  0  0  0
  -31.2844  -18.5334   21.0404 C   0  0  0  0  0  0  0  0  0  0  0  0
  -20.0724  -31.1580   20.8857 C   0  0  0  0  0  0  0  0  0  0  0  0
  -30.4098  -17.4160   20.4743 C   0  0  0  0  0  0  0  0  0  0  0  0
  -30.6771  -19.1469   22.2984 C   0  0  0  0  0  0  0  0  0  0  0  0
  -28.4063  -18.5127   21.5531 C   0  0  0  0  0  0  0  0  0  0  0  0
  -20.0685  -29.7784   21.5552 C   0  0  1  0  0  0  0  0  0  0  0  0
  -23.6673  -28.7379   22.1871 C   0  0  1  0  0  0  0  0  0  0  0  0
  -28.9669  -17.9046   20.2587 C   0  0  2  0  0  0  0  0  0  0  0  0
  -30.9518  -27.9878   19.6622 C   0  0  0  0  0  0  0  0  0  0  0  0
  -27.8992  -22.6198   19.9957 C   0  0  0  0  0  0  0  0  0  0  0  0
  -28.3976  -20.1811   20.1026 C   0  0  0  0  0  0  0  0  0  0  0  0
  -22.1862  -18.3493   20.3157 C   0  0  0  0  0  0  0  0  0  0  0  0
  -22.9541  -18.7392   22.6402 C   0  0  0  0  0  0  0  0  0  0  0  0
  -24.7523  -29.2911   17.7287 C   0  0  0  0  0  0  0  0  0  0  0  0
  -27.1213  -28.7558   17.1207 C   0  0  0  0  0  0  0  0  0  0  0  0
  -26.5994  -30.8494   18.3725 C   0  0  0  0  0  0  0  0  0  0  0  0
  -23.1165  -20.9789   18.6517 C   0  0  0  0  0  0  0  0  0  0  0  0
  -27.3079  -22.6581   22.7273 C   0  0  0  0  0  0  0  0  0  0  0  0
  -29.5466  -26.7067   22.9576 C   0  0  0  0  0  0  0  0  0  0  0  0
  -21.5778  -20.5012   21.4868 C   0  0  0  0  0  0  0  0  0  0  0  0
  -21.9079  -21.6247   22.4684 C   0  0  0  0  0  0  0  0  0  1  0  0
  -26.4443  -28.6233   19.5610 C   0  0  1  0  0  0  0  0  0  0  0  0
  -29.9527  -27.9082   20.8059 C   0  0  2  0  0  0  0  0  0  0  0  0
  -27.4567  -21.2842   20.6839 C   0  0  0  0  0  0  0  0  0  0  0  0
  -22.7025  -19.4418   21.2827 C   0  0  0  0  0  0  0  0  0  0  0  0
  -26.2144  -29.3625   18.2126 C   0  0  0  0  0  0  0  0  0  0  0  0
  -27.3771  -16.0476   20.5849 N   0  0  0  0  0  0  0  0  0  0  0  0
  -25.3701  -21.2796   19.4387 N   0  0  0  0  0  0  0  0  0  0  0  0
  -24.1422  -20.7750   19.6481 N   0  0  0  0  0  0  0  0  0  0  0  0
  -28.0695  -16.8066   19.7185 N   0  0  0  0  0  0  0  0  0  0  0  0
  -24.6814  -28.2408   21.2551 N   0  0  0  0  0  0  0  0  0  0  0  0
  -29.2917  -19.5631   22.0777 N   0  0  0  0  0  0  0  0  0  0  0  0
  -28.4832  -17.1384   17.4100 N   0  0  0  0  0  0  0  0  0  0  0  0
  -25.5654  -13.6918   17.4607 N   0  0  0  0  0  0  0  0  0  0  0  0
  -21.3673  -29.4890   22.1241 N   0  0  0  0  0  0  0  0  0  0  0  0
  -27.8142  -28.6975   20.0572 N   0  0  0  0  0  0  0  0  0  0  0  0
  -27.8240  -21.4562   22.0877 N   0  0  0  0  0  0  0  0  0  0  0  0
  -30.4236  -26.8743   21.7703 N   0  3  0  0  0  0  0  0  0  0  0  0
  -26.8166  -15.0523   16.1034 O   0  0  0  0  0  0  0  0  0  0  0  0
  -22.3887  -28.6576   20.2037 O   0  0  0  0  0  0  0  0  0  0  0  0
  -25.6644  -30.3396   21.0006 O   0  0  0  0  0  0  0  0  0  0  0  0
  -28.1797  -26.4090   20.1380 O   0  0  0  0  0  0  0  0  0  0  0  0
  -29.2618  -21.0476   23.8422 O   0  0  0  0  0  0  0  0  0  0  0  0
  -23.3165  -11.3468   21.9861 O   0  0  0  0  0  0  0  0  0  0  0  0
  -23.0416  -22.3379   21.9758 O   0  0  0  0  0  0  0  0  0  1  0  0
  -23.6251   -6.2201   19.9795 F   0  0  0  0  0  0  0  0  0  0  0  0
  -22.8116  -10.8358   19.3165 F   0  0  0  0  0  0  0  0  0  0  0  0
  1  2  1  0  0  0  0
  1  5  2  0  0  0  0
  2  6  2  0  0  0  0
  3  8  2  0  0  0  0
  3 16  1  0  0  0  0
  4  9  1  0  0  0  0
  4 16  2  0  0  0  0
  5 18  1  0  0  0  0
  6 20  1  0  0  0  0
  7 10  2  0  0  0  0
  7 19  1  0  0  0  0
  8 22  1  0  0  0  0
  9 22  2  0  0  0  0
 10 23  1  0  0  0  0
 11 12  2  0  0  0  0
 11 24  1  0  0  0  0
 12 25  1  0  0  0  0
 13 21  1  0  0  0  0
 13 23  2  0  0  0  0
 14 25  2  0  0  0  0
 14 26  1  0  0  0  0
 15 28  1  0  0  0  0
 15 29  2  0  0  0  0
 16 27  1  0  0  0  0
 17 27  1  0  0  0  0
 17 30  2  0  0  0  0
 17 31  1  0  0  0  0
 18 20  2  0  0  0  0
 18 36  1  0  0  0  0
 19 21  2  0  0  0  0
 19 37  1  0  0  0  0
 20 45  1  0  0  0  0
 21 38  1  0  0  0  0
 22 83  1  0  0  0  0
 23 84  1  0  0  0  0
 24 26  2  0  0  0  0
 24 83  1  0  0  0  0
 25 85  1  0  0  0  0
 26 86  1  0  0  0  0
 27 66  2  0  0  0  0
 28 63  1  0  0  0  0
 28 67  2  0  0  0  0
 29 64  1  0  0  0  0
 29 68  1  0  0  0  0
 30 69  1  0  0  0  0
 30 72  1  0  0  0  0
 31 73  1  0  0  0  0
 31 78  2  0  0  0  0
 32 46  1  0  0  0  0
 32 74  1  0  0  0  0
 32 79  2  0  0  0  0
 33 61  1  0  0  0  0
 33 70  1  0  0  0  0
 33 80  2  0  0  0  0
 34 62  1  0  0  0  0
 34 75  1  0  0  0  0
 34 81  2  0  0  0  0
 35 71  1  0  0  0  0
 35 76  1  0  0  0  0
 35 82  2  0  0  0  0
 36 39  1  0  0  0  0
 37 46  1  0  0  0  0
 38 70  1  0  0  0  0
 39 41  1  0  0  0  0
 40 42  1  0  0  0  0
 40 43  1  0  0  0  0
 41 45  1  0  0  0  0
 42 47  1  0  0  0  0
 43 71  1  0  0  0  0
 44 47  1  0  0  0  0
 44 71  1  0  0  0  0
 45 74  1  0  0  0  0
 46 70  1  0  0  0  0
 47 69  1  0  0  0  0
 48 62  1  0  0  0  0
 49 63  1  0  0  0  0
 50 63  1  0  0  0  0
 51 64  1  0  0  0  0
 52 64  1  0  0  0  0
 53 65  1  0  0  0  0
 54 65  1  0  0  0  0
 55 65  1  0  0  0  0
 56 68  1  0  0  0  0
 57 76  1  0  0  0  0
 58 77  1  0  0  0  0
 59 60  1  0  0  0  0
 59 64  1  0  0  0  0
 60 84  1  0  0  0  0
 61 65  1  0  0  0  0
 61 75  1  0  0  0  0
 62 77  1  0  0  0  0
 63 76  1  0  0  0  0
 66 69  1  0  0  0  0
 67 68  1  0  0  0  0
M  CHG  1  77   1
M  ISO  4  35 100  60 101  76 100  84 101
M  END
> <Batch ID>
0069

> <Smiles>
CNC(C)C(=O)NC(C(=O)N1Cc2cc([101O:1][101CH2:1]CC(C)(C)c3cc(C(C)(C)[100N:0](C)[100C:0](=O)N4CCCC(n5nc(-c6ccc(Oc7ccc(F)cc7F)cc6)c(C(N)=O)c5N)C4)nn3C)ccc2CC1C(=O)NC1CCCc2ccccc21)C(C)(C)C

> <Shape>
0.235

> <Color>
0.078

> <Negative vol penalty>
0.000

$$$$

  -OEChem-04052318173D

 89 97  0     1  0  0  0  0  0999 V2000
  -27.7153  -22.1753   15.1536 C   0  0  0  0  0  0  0  0  0  0  0  0
  -27.2821  -22.2716   16.4721 C   0  0  0  0  0  0  0  0  0  0  0  0
  -24.4469  -13.7134   19.4616 C   0  0  0  0  0  0  0  0  0  0  0  0
  -23.3553  -14.9882   21.1995 C   0  0  0  0  0  0  0  0  0  0  0  0
  -28.5879  -23.1316   14.6361 C   0  0  0  0  0  0  0  0  0  0  0  0
  -27.7222  -23.3239   17.2742 C   0  0  0  0  0  0  0  0  0  0  0  0
  -23.9722  -25.4267   19.9502 C   0  0  0  0  0  0  0  0  0  0  0  0
  -23.6224  -12.6240   19.7427 C   0  0  0  0  0  0  0  0  0  0  0  0
  -22.5307  -13.8989   21.4806 C   0  0  0  0  0  0  0  0  0  0  0  0
  -23.5442  -24.7467   21.0896 C   0  0  0  0  0  0  0  0  0  0  0  0
  -23.4458  -10.1659   22.0558 C   0  0  0  0  0  0  0  0  0  0  0  0
  -24.0417   -8.9075   22.1397 C   0  0  0  0  0  0  0  0  0  0  0  0
  -27.6164  -20.3984   24.5601 C   0  0  0  0  0  0  0  0  0  0  0  0
  -24.8591  -26.2317   22.4625 C   0  0  0  0  0  0  0  0  0  0  0  0
  -22.6451   -8.1255   20.3299 C   0  0  0  0  0  0  0  0  0  0  0  0
  -26.3218  -20.0142   24.8110 C   0  0  0  0  0  0  0  0  0  0  0  0
  -24.3134  -14.8955   20.1900 C   0  0  0  0  0  0  0  0  0  0  0  0
  -24.9185  -17.0601   18.9835 C   0  0  0  0  0  0  0  0  0  0  0  0
  -29.0313  -24.2015   15.4294 C   0  0  0  0  0  0  0  0  0  0  0  0
  -24.8570  -26.5093   20.0578 C   0  0  0  0  0  0  0  0  0  0  0  0
  -28.6026  -24.2948   16.7672 C   0  0  0  0  0  0  0  0  0  0  0  0
  -25.2948  -26.9254   21.3232 C   0  0  0  0  0  0  0  0  0  0  0  0
  -22.6642  -12.7168   20.7522 C   0  0  0  0  0  0  0  0  0  0  0  0
  -23.9898  -25.1474   22.3458 C   0  0  0  0  0  0  0  0  0  0  0  0
  -22.4494  -10.4040   21.1091 C   0  0  0  0  0  0  0  0  0  0  0  0
  -23.6414   -7.8874   21.2767 C   0  0  0  0  0  0  0  0  0  0  0  0
  -22.0491   -9.3839   20.2461 C   0  0  0  0  0  0  0  0  0  0  0  0
  -25.1653  -16.0209   19.9005 C   0  0  0  0  0  0  0  0  0  0  0  0
  -27.5675  -20.9869   23.2822 C   0  0  0  0  0  0  0  0  0  0  0  0
  -26.0213  -17.8731   19.0810 C   0  0  0  0  0  0  0  0  0  0  0  0
  -23.7931  -17.2717   18.1207 C   0  0  0  0  0  0  0  0  0  0  0  0
  -27.7983  -27.1145   19.0156 C   0  0  0  0  0  0  0  0  0  0  0  0
  -27.2102  -30.0566   20.2485 C   0  0  0  0  0  0  0  0  0  0  0  0
  -29.7668  -20.5580   22.2514 C   0  0  0  0  0  0  0  0  0  0  0  0
  -25.4540  -31.9733   22.4597 C   0  0  0  0  0  0  0  0  0  0  0  0
  -30.0116  -25.1846   14.8401 C   0  0  0  0  0  0  0  0  0  0  0  0
  -25.2883  -27.2491   18.8212 C   0  0  0  0  0  0  0  0  0  0  0  0
  -26.2291  -28.0943   21.4943 C   0  0  0  0  0  0  0  0  0  0  0  0
  -30.1355  -26.4769   15.6433 C   0  0  0  0  0  0  0  0  0  0  0  0
  -30.4608  -17.1526   21.3787 C   0  0  0  0  0  0  0  0  0  0  0  0
  -30.2755  -26.1695   17.1308 C   0  0  0  0  0  0  0  0  0  0  0  0
  -29.1175  -16.6316   20.8695 C   0  0  0  0  0  0  0  0  0  0  0  0
  -30.2771  -18.1530   22.5156 C   0  0  0  0  0  0  0  0  0  0  0  0
  -28.0405  -18.7835   21.6660 C   0  0  0  0  0  0  0  0  0  0  0  0
  -29.0382  -25.4354   17.6613 C   0  0  1  0  0  0  0  0  0  0  0  0
  -26.5949  -28.0142   19.0079 C   0  0  1  0  0  0  0  0  0  0  0  0
  -28.1796  -17.7933   20.4962 C   0  0  2  0  0  0  0  0  0  0  0  0
  -25.2196  -34.3390   23.2633 C   0  0  0  0  0  0  0  0  0  0  0  0
  -23.7803  -18.6781   23.4634 C   0  0  0  0  0  0  0  0  0  0  0  0
  -29.7988  -29.7705   21.8382 C   0  0  0  0  0  0  0  0  0  0  0  0
  -29.0363  -31.6642   23.2876 C   0  0  0  0  0  0  0  0  0  0  0  0
  -29.4254  -32.0382   20.8522 C   0  0  0  0  0  0  0  0  0  0  0  0
  -22.6217  -32.1036   21.6112 C   0  0  0  0  0  0  0  0  0  0  0  0
  -23.5362  -22.3952   24.6389 C   0  0  0  0  0  0  0  0  0  0  0  0
  -23.2438  -20.8952   24.5476 C   0  0  0  0  0  0  0  0  0  0  0  0
  -23.2695  -23.0984   23.3147 C   0  0  0  0  0  0  0  0  0  1  0  0
  -27.4064  -30.7103   21.5951 C   0  0  1  0  0  0  0  0  0  0  0  0
  -24.7143  -33.2877   22.2875 C   0  0  2  0  0  0  0  0  0  0  0  0
  -24.1147  -20.1746   23.4964 C   0  0  1  0  0  0  0  0  0  0  0  0
  -28.6842  -21.5725   22.5213 C   0  0  0  0  0  0  0  0  0  0  0  0
  -28.9006  -31.0225   21.8902 C   0  0  0  0  0  0  0  0  0  0  0  0
  -28.3519  -22.1180   21.0907 C   0  0  0  0  0  0  0  0  0  0  0  0
  -29.3639  -22.7417   23.2960 C   0  0  0  0  0  0  0  0  0  0  0  0
  -26.3332  -16.1586   20.5338 N   0  0  0  0  0  0  0  0  0  0  0  0
  -26.3391  -20.9794   22.7578 N   0  0  0  0  0  0  0  0  0  0  0  0
  -25.6042  -20.3814   23.7109 N   0  0  0  0  0  0  0  0  0  0  0  0
  -26.8301  -17.2938   20.0139 N   0  0  0  0  0  0  0  0  0  0  0  0
  -26.6274  -28.7814   20.2547 N   0  0  0  0  0  0  0  0  0  0  0  0
  -29.3622  -19.2286   22.1292 N   0  0  0  0  0  0  0  0  0  0  0  0
  -26.3683  -19.0198   18.4588 N   0  0  0  0  0  0  0  0  0  0  0  0
  -22.7469  -16.3394   18.1464 N   0  0  0  0  0  0  0  0  0  0  0  0
  -27.9475  -26.3647   17.8645 N   0  0  0  0  0  0  0  0  0  0  0  0
  -26.5368  -31.8816   21.6109 N   0  0  0  0  0  0  0  0  0  0  0  0
  -23.2548  -33.0948   22.5187 N   0  3  0  0  0  0  0  0  0  0  0  0
  -23.7249  -18.2495   17.3379 O   0  0  0  0  0  0  0  0  0  0  0  0
  -28.5375  -27.1026   19.9928 O   0  0  0  0  0  0  0  0  0  0  0  0
  -27.5546  -30.6584   19.2283 O   0  0  0  0  0  0  0  0  0  0  0  0
  -30.9361  -20.9381   22.1497 O   0  0  0  0  0  0  0  0  0  0  0  0
  -25.1082  -31.1154   23.2690 O   0  0  0  0  0  0  0  0  0  0  0  0
  -21.8593  -11.6541   21.0266 O   0  0  0  0  0  0  0  0  0  0  0  0
  -23.5741  -24.4850   23.4595 O   0  0  0  0  0  0  0  0  0  1  0  0
  -24.2149   -6.6795   21.3563 F   0  0  0  0  0  0  0  0  0  0  0  0
  -21.0933   -9.6071   19.3338 F   0  0  0  0  0  0  0  0  0  0  0  0
  -27.4223  -23.1042   21.0975 F   0  0  0  0  0  0  0  0  0  0  0  0
  -29.4604  -22.6239   20.5041 F   0  0  0  0  0  0  0  0  0  0  0  0
  -27.8714  -21.1395   20.2911 F   0  0  0  0  0  0  0  0  0  0  0  0
  -29.8789  -22.3710   24.4916 F   0  0  0  0  0  0  0  0  0  0  0  0
  -30.3802  -23.2588   22.5673 F   0  0  0  0  0  0  0  0  0  0  0  0
  -28.4896  -23.7445   23.5349 F   0  0  0  0  0  0  0  0  0  0  0  0
  1  2  1  0  0  0  0
  1  5  2  0  0  0  0
  2  6  2  0  0  0  0
  3  8  2  0  0  0  0
  3 17  1  0  0  0  0
  4  9  1  0  0  0  0
  4 17  2  0  0  0  0
  5 19  1  0  0  0  0
  6 21  1  0  0  0  0
  7 10  2  0  0  0  0
  7 20  1  0  0  0  0
  8 23  1  0  0  0  0
  9 23  2  0  0  0  0
 10 24  1  0  0  0  0
 11 12  2  0  0  0  0
 11 25  1  0  0  0  0
 12 26  1  0  0  0  0
 13 16  2  0  0  0  0
 13 29  1  0  0  0  0
 14 22  1  0  0  0  0
 14 24  2  0  0  0  0
 15 26  2  0  0  0  0
 15 27  1  0  0  0  0
 16 66  1  0  0  0  0
 17 28  1  0  0  0  0
 18 28  1  0  0  0  0
 18 30  2  0  0  0  0
 18 31  1  0  0  0  0
 19 21  2  0  0  0  0
 19 36  1  0  0  0  0
 20 22  2  0  0  0  0
 20 37  1  0  0  0  0
 21 45  1  0  0  0  0
 22 38  1  0  0  0  0
 23 80  1  0  0  0  0
 24 81  1  0  0  0  0
 25 27  2  0  0  0  0
 25 80  1  0  0  0  0
 26 82  1  0  0  0  0
 27 83  1  0  0  0  0
 28 64  2  0  0  0  0
 29 60  1  0  0  0  0
 29 65  2  0  0  0  0
 30 67  1  0  0  0  0
 30 70  1  0  0  0  0
 31 71  1  0  0  0  0
 31 75  2  0  0  0  0
 32 46  1  0  0  0  0
 32 72  1  0  0  0  0
 32 76  2  0  0  0  0
 33 57  1  0  0  0  0
 33 68  1  0  0  0  0
 33 77  2  0  0  0  0
 34 60  1  0  0  0  0
 34 69  1  0  0  0  0
 34 78  2  0  0  0  0
 35 58  1  0  0  0  0
 35 73  1  0  0  0  0
 35 79  2  0  0  0  0
 36 39  1  0  0  0  0
 37 46  1  0  0  0  0
 38 68  1  0  0  0  0
 39 41  1  0  0  0  0
 40 42  1  0  0  0  0
 40 43  1  0  0  0  0
 41 45  1  0  0  0  0
 42 47  1  0  0  0  0
 43 69  1  0  0  0  0
 44 47  1  0  0  0  0
 44 69  1  0  0  0  0
 45 72  1  0  0  0  0
 46 68  1  0  0  0  0
 47 67  1  0  0  0  0
 48 58  1  0  0  0  0
 49 59  1  0  0  0  0
 50 61  1  0  0  0  0
 51 61  1  0  0  0  0
 52 61  1  0  0  0  0
 53 74  1  0  0  0  0
 54 55  1  0  0  0  0
 54 56  1  0  0  0  0
 55 59  1  0  0  0  0
 56 81  1  0  0  0  0
 57 61  1  0  0  0  0
 57 73  1  0  0  0  0
 58 74  1  0  0  0  0
 59 66  1  0  0  0  0
 60 62  1  0  0  0  0
 60 63  1  0  0  0  0
 62 84  1  0  0  0  0
 62 85  1  0  0  0  0
 62 86  1  0  0  0  0
 63 87  1  0  0  0  0
 63 88  1  0  0  0  0
 63 89  1  0  0  0  0
 64 67  1  0  0  0  0
 65 66  1  0  0  0  0
M  CHG  1  74   1
M  ISO  4  34 100  56 101  60 100  81 101
M  END
> <Batch ID>
0069

> <Smiles>
CNC(C)C(=O)NC(C(=O)N1Cc2cc([101O:1][101CH2:1]CCC(C)n3ccc([100C:0]([100C:0](=O)N4CCCC(n5nc(-c6ccc(Oc7ccc(F)cc7F)cc6)c(C(N)=O)c5N)C4)(C(F)(F)F)C(F)(F)F)n3)ccc2CC1C(=O)NC1CCCc2ccccc21)C(C)(C)C

> <Shape>
0.206

> <Color>
0.052

> <Negative vol penalty>
0.000

$$$$

  -OEChem-04052318173D

 85 93  0     1  0  0  0  0  0999 V2000
  -26.2677  -29.8641   32.4181 C   0  0  0  0  0  0  0  0  0  0  0  0
  -26.6776  -28.7709   31.6616 C   0  0  0  0  0  0  0  0  0  0  0  0
  -23.0245   -9.9648   19.9603 C   0  0  0  0  0  0  0  0  0  0  0  0
  -23.8159   -9.9352   22.2428 C   0  0  0  0  0  0  0  0  0  0  0  0
  -24.9723  -30.3606   32.2785 C   0  0  0  0  0  0  0  0  0  0  0  0
  -25.7920  -28.1729   30.7659 C   0  0  0  0  0  0  0  0  0  0  0  0
  -27.1700  -25.6434   25.3614 C   0  0  0  0  0  0  0  0  0  0  0  0
  -22.2635   -8.8227   20.2093 C   0  0  0  0  0  0  0  0  0  0  0  0
  -23.0548   -8.7931   22.4918 C   0  0  0  0  0  0  0  0  0  0  0  0
  -27.3769  -24.3213   24.9700 C   0  0  0  0  0  0  0  0  0  0  0  0
  -19.8214   -8.0472   23.1315 C   0  0  0  0  0  0  0  0  0  0  0  0
  -19.0800   -8.0091   24.3123 C   0  0  0  0  0  0  0  0  0  0  0  0
  -25.0807  -24.1832   24.2439 C   0  0  0  0  0  0  0  0  0  0  0  0
  -28.4881  -20.0475   22.5176 C   0  0  0  0  0  0  0  0  0  0  0  0
  -27.2592  -19.3293   24.4562 C   0  0  0  0  0  0  0  0  0  0  0  0
  -20.2963   -6.0424   25.0124 C   0  0  0  0  0  0  0  0  0  0  0  0
  -23.8008  -10.5210   20.9770 C   0  0  0  0  0  0  0  0  0  0  0  0
  -24.1864  -13.0407   20.8769 C   0  0  0  0  0  0  0  0  0  0  0  0
  -24.0735  -29.7744   31.3736 C   0  0  0  0  0  0  0  0  0  0  0  0
  -25.9118  -26.2428   25.2067 C   0  0  0  0  0  0  0  0  0  0  0  0
  -24.4830  -28.6612   30.6150 C   0  0  0  0  0  0  0  0  0  0  0  0
  -24.8610  -25.5138   24.6317 C   0  0  0  0  0  0  0  0  0  0  0  0
  -27.8613  -20.3454   23.7224 C   0  0  0  0  0  0  0  0  0  0  0  0
  -22.2786   -8.2369   21.4751 C   0  0  0  0  0  0  0  0  0  0  0  0
  -26.3314  -23.5901   24.4138 C   0  0  0  0  0  0  0  0  0  0  0  0
  -20.8002   -7.0829   22.8910 C   0  0  0  0  0  0  0  0  0  0  0  0
  -19.3175   -7.0067   25.2529 C   0  0  0  0  0  0  0  0  0  0  0  0
  -21.0376   -6.0805   23.8315 C   0  0  0  0  0  0  0  0  0  0  0  0
  -24.5876  -11.7005   20.7202 C   0  0  0  0  0  0  0  0  0  0  0  0
  -28.4851  -18.7284   22.0937 C   0  0  0  0  0  0  0  0  0  0  0  0
  -27.3110  -18.0424   23.9455 C   0  0  0  0  0  0  0  0  0  0  0  0
  -25.2868  -13.7742   20.5058 C   0  0  0  0  0  0  0  0  0  0  0  0
  -22.9313  -13.5750   21.3186 C   0  0  0  0  0  0  0  0  0  0  0  0
  -23.7578  -27.4805   27.1897 C   0  0  0  0  0  0  0  0  0  0  0  0
  -22.2762  -28.3257   24.4305 C   0  0  0  0  0  0  0  0  0  0  0  0
  -21.8083  -27.7501   21.0993 C   0  0  0  0  0  0  0  0  0  0  0  0
  -30.7901  -14.6929   20.6277 C   0  0  0  0  0  0  0  0  0  0  0  0
  -22.6685  -30.3166   31.2918 C   0  0  0  0  0  0  0  0  0  0  0  0
  -25.7120  -27.6783   25.6093 C   0  0  0  0  0  0  0  0  0  0  0  0
  -23.4967  -26.1175   24.4255 C   0  0  0  0  0  0  0  0  0  0  0  0
  -21.9107  -29.8598   30.0479 C   0  0  0  0  0  0  0  0  0  0  0  0
  -29.5770  -12.3532   18.2338 C   0  0  0  0  0  0  0  0  0  0  0  0
  -22.0850  -28.3590   29.8377 C   0  0  0  0  0  0  0  0  0  0  0  0
  -28.1405  -12.0810   18.6838 C   0  0  0  0  0  0  0  0  0  0  0  0
  -30.5144  -12.5456   19.4239 C   0  0  0  0  0  0  0  0  0  0  0  0
  -28.6454  -13.2966   20.8439 C   0  0  0  0  0  0  0  0  0  0  0  0
  -23.5592  -28.0007   29.6147 C   0  0  1  0  0  0  0  0  0  0  0  0
  -24.2512  -28.0254   25.8792 C   0  0  1  0  0  0  0  0  0  0  0  0
  -27.6521  -13.1513   19.6784 C   0  0  2  0  0  0  0  0  0  0  0  0
  -20.5079  -28.5807   19.1204 C   0  0  0  0  0  0  0  0  0  0  0  0
  -19.7752  -26.9398   25.4954 C   0  0  0  0  0  0  0  0  0  0  0  0
  -18.8555  -26.9632   23.1670 C   0  0  0  0  0  0  0  0  0  0  0  0
  -19.3489  -29.1126   24.3328 C   0  0  0  0  0  0  0  0  0  0  0  0
  -24.2767  -28.4539   19.6261 C   0  0  0  0  0  0  0  0  0  0  0  0
  -27.8357  -21.7574   24.2292 C   0  0  0  0  0  0  0  0  0  1  0  0
  -29.1497  -18.3714   20.8062 C   0  0  0  0  0  0  0  0  0  0  0  0
  -30.6389  -17.9980   20.9398 C   0  0  0  0  0  0  0  0  0  0  0  0
  -30.9118  -16.8295   21.8845 C   0  0  0  0  0  0  0  0  0  0  0  0
  -21.2636  -27.6763   23.5185 C   0  0  1  0  0  0  0  0  0  0  0  0
  -21.8058  -28.6880   19.9057 C   0  0  2  0  0  0  0  0  0  0  0  0
  -26.6735  -16.9278   24.7058 C   0  0  0  0  0  0  0  0  0  0  0  0
  -19.8358  -27.6607   24.1340 C   0  0  0  0  0  0  0  0  0  0  0  0
  -25.8446  -11.5862   20.2835 N   0  0  0  0  0  0  0  0  0  0  0  0
  -27.9106  -17.7145   22.7790 N   0  0  0  0  0  0  0  0  0  0  0  0
  -26.2428  -12.8641   20.1624 N   0  0  0  0  0  0  0  0  0  0  0  0
  -23.3495  -27.5223   24.8409 N   0  0  0  0  0  0  0  0  0  0  0  0
  -29.9947  -13.5748   20.3275 N   0  0  0  0  0  0  0  0  0  0  0  0
  -25.5202  -15.1023   20.4429 N   0  0  0  0  0  0  0  0  0  0  0  0
  -21.9079  -12.6807   21.6610 N   0  0  0  0  0  0  0  0  0  0  0  0
  -23.9598  -28.3271   28.2629 N   0  0  0  0  0  0  0  0  0  0  0  0
  -21.3562  -28.3761   22.2417 N   0  0  0  0  0  0  0  0  0  0  0  0
  -30.2194  -15.6239   21.4870 N   0  0  0  0  0  0  0  0  0  0  0  0
  -22.9368  -28.3649   18.9907 N   0  3  0  0  0  0  0  0  0  0  0  0
  -22.7181  -14.8090   21.3912 O   0  0  0  0  0  0  0  0  0  0  0  0
  -23.2313  -26.3744   27.2243 O   0  0  0  0  0  0  0  0  0  0  0  0
  -22.1245  -29.5045   24.7606 O   0  0  0  0  0  0  0  0  0  0  0  0
  -22.1713  -26.5782   21.0249 O   0  0  0  0  0  0  0  0  0  0  0  0
  -31.9227  -14.8526   20.1600 O   0  0  0  0  0  0  0  0  0  0  0  0
  -21.5359   -7.1225   21.7185 O   0  0  0  0  0  0  0  0  0  0  0  0
  -26.5305  -22.2993   24.0316 O   0  0  0  0  0  0  0  0  0  1  0  0
  -18.6066   -6.9712   26.3875 F   0  0  0  0  0  0  0  0  0  0  0  0
  -21.9774   -5.1521   23.6066 F   0  0  0  0  0  0  0  0  0  0  0  0
  -26.0858  -17.3275   25.8719 F   0  0  0  0  0  0  0  0  0  0  0  0
  -25.6880  -16.2867   24.0111 F   0  0  0  0  0  0  0  0  0  0  0  0
  -27.5649  -15.9567   25.0585 F   0  0  0  0  0  0  0  0  0  0  0  0
  1  2  1  0  0  0  0
  1  5  2  0  0  0  0
  2  6  2  0  0  0  0
  3  8  2  0  0  0  0
  3 17  1  0  0  0  0
  4  9  1  0  0  0  0
  4 17  2  0  0  0  0
  5 19  1  0  0  0  0
  6 21  1  0  0  0  0
  7 10  2  0  0  0  0
  7 20  1  0  0  0  0
  8 24  1  0  0  0  0
  9 24  2  0  0  0  0
 10 25  1  0  0  0  0
 11 12  2  0  0  0  0
 11 26  1  0  0  0  0
 12 27  1  0  0  0  0
 13 22  1  0  0  0  0
 13 25  2  0  0  0  0
 14 23  1  0  0  0  0
 14 30  2  0  0  0  0
 15 23  2  0  0  0  0
 15 31  1  0  0  0  0
 16 27  2  0  0  0  0
 16 28  1  0  0  0  0
 17 29  1  0  0  0  0
 18 29  1  0  0  0  0
 18 32  2  0  0  0  0
 18 33  1  0  0  0  0
 19 21  2  0  0  0  0
 19 38  1  0  0  0  0
 20 22  2  0  0  0  0
 20 39  1  0  0  0  0
 21 47  1  0  0  0  0
 22 40  1  0  0  0  0
 23 55  1  0  0  0  0
 24 79  1  0  0  0  0
 25 80  1  0  0  0  0
 26 28  2  0  0  0  0
 26 79  1  0  0  0  0
 27 81  1  0  0  0  0
 28 82  1  0  0  0  0
 29 63  2  0  0  0  0
 30 56  1  0  0  0  0
 30 64  1  0  0  0  0
 31 61  1  0  0  0  0
 31 64  2  0  0  0  0
 32 65  1  0  0  0  0
 32 68  1  0  0  0  0
 33 69  1  0  0  0  0
 33 74  2  0  0  0  0
 34 48  1  0  0  0  0
 34 70  1  0  0  0  0
 34 75  2  0  0  0  0
 35 59  1  0  0  0  0
 35 66  1  0  0  0  0
 35 76  2  0  0  0  0
 36 60  1  0  0  0  0
 36 71  1  0  0  0  0
 36 77  2  0  0  0  0
 37 67  1  0  0  0  0
 37 72  1  0  0  0  0
 37 78  2  0  0  0  0
 38 41  1  0  0  0  0
 39 48  1  0  0  0  0
 40 66  1  0  0  0  0
 41 43  1  0  0  0  0
 42 44  1  0  0  0  0
 42 45  1  0  0  0  0
 43 47  1  0  0  0  0
 44 49  1  0  0  0  0
 45 67  1  0  0  0  0
 46 49  1  0  0  0  0
 46 67  1  0  0  0  0
 47 70  1  0  0  0  0
 48 66  1  0  0  0  0
 49 65  1  0  0  0  0
 50 60  1  0  0  0  0
 51 62  1  0  0  0  0
 52 62  1  0  0  0  0
 53 62  1  0  0  0  0
 54 73  1  0  0  0  0
 55 80  1  0  0  0  0
 56 57  1  0  0  0  0
 57 58  1  0  0  0  0
 58 72  1  0  0  0  0
 59 62  1  0  0  0  0
 59 71  1  0  0  0  0
 60 73  1  0  0  0  0
 61 83  1  0  0  0  0
 61 84  1  0  0  0  0
 61 85  1  0  0  0  0
 63 65  1  0  0  0  0
M  CHG  1  73   1
M  ISO  4  37 100  55 101  72 100  80 101
M  END
> <Batch ID>
0069

> <Smiles>
CNC(C)C(=O)NC(C(=O)N1Cc2cc([101O:1][101CH2:1]c3cc(CCC[100NH:0][100C:0](=O)N4CCCC(n5nc(-c6ccc(Oc7ccc(F)cc7F)cc6)c(C(N)=O)c5N)C4)nc(C(F)(F)F)c3)ccc2CC1C(=O)NC1CCCc2ccccc21)C(C)(C)C

> <Shape>
0.230

> <Color>
0.205

> <Negative vol penalty>
0.000

$$$$

  -OEChem-04052318173D

 89 97  0     1  0  0  0  0  0999 V2000
  -37.3335  -12.0897   23.0238 C   0  0  0  0  0  0  0  0  0  0  0  0
  -36.7800  -13.3660   23.0076 C   0  0  0  0  0  0  0  0  0  0  0  0
  -24.2411  -28.5681   21.1071 C   0  0  0  0  0  0  0  0  0  0  0  0
  -25.3079  -29.8857   19.3858 C   0  0  0  0  0  0  0  0  0  0  0  0
  -36.8132  -11.0949   22.1971 C   0  0  0  0  0  0  0  0  0  0  0  0
  -35.7065  -13.6485   22.1637 C   0  0  0  0  0  0  0  0  0  0  0  0
  -31.0405  -17.4520   23.2895 C   0  0  0  0  0  0  0  0  0  0  0  0
  -24.8236  -29.3742   22.0851 C   0  0  0  0  0  0  0  0  0  0  0  0
  -25.8903  -30.6919   20.3638 C   0  0  0  0  0  0  0  0  0  0  0  0
  -30.7929  -18.7707   22.9107 C   0  0  0  0  0  0  0  0  0  0  0  0
  -24.2810  -32.4194   23.4510 C   0  0  0  0  0  0  0  0  0  0  0  0
  -23.4720  -32.8496   24.5026 C   0  0  0  0  0  0  0  0  0  0  0  0
  -29.4655  -17.9826   21.0570 C   0  0  0  0  0  0  0  0  0  0  0  0
  -24.9288  -31.7389   26.0777 C   0  0  0  0  0  0  0  0  0  0  0  0
  -28.9241  -26.6525   19.0408 C   0  0  0  0  0  0  0  0  0  0  0  0
  -24.4833  -28.8239   19.7574 C   0  0  0  0  0  0  0  0  0  0  0  0
  -22.5081  -27.7834   18.5230 C   0  0  0  0  0  0  0  0  0  0  0  0
  -35.7265  -11.3627   21.3497 C   0  0  0  0  0  0  0  0  0  0  0  0
  -30.5105  -16.3868   22.5474 C   0  0  0  0  0  0  0  0  0  0  0  0
  -35.1719  -12.6567   21.3239 C   0  0  0  0  0  0  0  0  0  0  0  0
  -29.7057  -16.6513   21.4300 C   0  0  0  0  0  0  0  0  0  0  0  0
  -25.6482  -30.4361   21.7135 C   0  0  0  0  0  0  0  0  0  0  0  0
  -30.0077  -19.0361   21.7926 C   0  0  0  0  0  0  0  0  0  0  0  0
  -25.4139  -31.6488   23.7127 C   0  0  0  0  0  0  0  0  0  0  0  0
  -23.7959  -32.5095   25.8160 C   0  0  0  0  0  0  0  0  0  0  0  0
  -25.7378  -31.3086   25.0261 C   0  0  0  0  0  0  0  0  0  0  0  0
  -23.8824  -27.9912   18.7466 C   0  0  0  0  0  0  0  0  0  0  0  0
  -28.7547  -25.4228   18.4437 C   0  0  0  0  0  0  0  0  0  0  0  0
  -27.4330  -26.0657   20.6724 C   0  0  0  0  0  0  0  0  0  0  0  0
  -27.2630  -24.8362   20.0749 C   0  0  0  0  0  0  0  0  0  0  0  0
  -22.4606  -26.9173   17.4580 C   0  0  0  0  0  0  0  0  0  0  0  0
  -21.3757  -28.3248   19.2160 C   0  0  0  0  0  0  0  0  0  0  0  0
  -31.7478  -13.9749   20.8874 C   0  0  0  0  0  0  0  0  0  0  0  0
  -28.6447  -13.0616   20.6447 C   0  0  0  0  0  0  0  0  0  0  0  0
  -27.8622  -26.7109   16.1150 C   0  0  0  0  0  0  0  0  0  0  0  0
  -25.3502  -13.9508   20.6985 C   0  0  0  0  0  0  0  0  0  0  0  0
  -35.2287  -10.2680   20.4395 C   0  0  0  0  0  0  0  0  0  0  0  0
  -30.7648  -14.9703   22.9847 C   0  0  0  0  0  0  0  0  0  0  0  0
  -29.0965  -15.5436   20.6113 C   0  0  0  0  0  0  0  0  0  0  0  0
  -33.8492  -10.5475   19.8485 C   0  0  0  0  0  0  0  0  0  0  0  0
  -25.6030  -23.9972   17.2449 C   0  0  0  0  0  0  0  0  0  0  0  0
  -33.7759  -11.9750   19.3159 C   0  0  0  0  0  0  0  0  0  0  0  0
  -24.3386  -24.2987   16.4480 C   0  0  0  0  0  0  0  0  0  0  0  0
  -26.8536  -24.4146   16.4810 C   0  0  0  0  0  0  0  0  0  0  0  0
  -25.5766  -26.2136   15.3283 C   0  0  0  0  0  0  0  0  0  0  0  0
  -33.9909  -12.9952   20.4404 C   0  0  1  0  0  0  0  0  0  0  0  0
  -30.5992  -13.9575   21.8559 C   0  0  1  0  0  0  0  0  0  0  0  0
  -24.2643  -25.7682   16.0019 C   0  0  2  0  0  0  0  0  0  0  0  0
  -26.8540  -26.7593   24.4259 C   0  0  0  0  0  0  0  0  0  0  0  0
  -23.0465  -12.9922   20.4315 C   0  0  0  0  0  0  0  0  0  0  0  0
  -29.1655  -23.6231   16.6763 C   0  0  0  0  0  0  0  0  0  0  0  0
  -31.0561  -24.9755   17.4640 C   0  0  0  0  0  0  0  0  0  0  0  0
  -29.3028  -25.4394   14.6080 C   0  0  0  0  0  0  0  0  0  0  0  0
  -30.2138  -27.3243   15.9485 C   0  0  0  0  0  0  0  0  0  0  0  0
  -29.0444  -12.9491   17.6219 C   0  0  0  0  0  0  0  0  0  0  0  0
  -26.5542  -12.9306   17.3633 C   0  0  0  0  0  0  0  0  0  0  0  0
  -27.6954  -11.0671   18.5665 C   0  0  0  0  0  0  0  0  0  0  0  0
  -24.5860  -14.7177   23.4529 C   0  0  0  0  0  0  0  0  0  0  0  0
  -26.6991  -26.4333   21.9166 C   0  0  0  0  0  0  0  0  0  0  0  0
  -26.3265  -23.8045   20.6516 C   0  0  0  0  0  0  0  0  0  0  0  0
  -27.5948  -26.3508   23.1624 C   0  0  0  0  0  0  0  0  0  0  0  0
  -26.7680  -22.3584   20.4005 C   0  0  0  0  0  0  0  0  0  0  0  0
  -28.1016  -22.0155   21.0659 C   0  0  0  0  0  0  0  0  0  0  0  0
  -28.5266  -20.5853   20.7619 C   0  0  0  0  0  0  0  0  0  1  0  0
  -27.5229  -13.3343   19.6720 C   0  0  1  0  0  0  0  0  0  0  0  0
  -24.1548  -13.3448   21.4114 C   0  0  2  0  0  0  0  0  0  0  0  0
  -29.4989  -25.0773   17.2017 C   0  0  0  0  0  0  0  0  0  0  0  0
  -29.2452  -26.1226   15.9913 C   0  0  0  0  0  0  0  0  0  0  0  0
  -27.7172  -12.5914   18.3200 C   0  0  0  0  0  0  0  0  0  0  0  0
  -28.2663  -26.9960   20.1659 N   0  0  0  0  0  0  0  0  0  0  0  0
  -24.6523  -27.3117   17.8924 N   0  0  0  0  0  0  0  0  0  0  0  0
  -27.9211  -24.4925   18.9500 N   0  0  0  0  0  0  0  0  0  0  0  0
  -23.7588  -26.6685   17.1218 N   0  0  0  0  0  0  0  0  0  0  0  0
  -29.3794  -14.1754   21.0755 N   0  0  0  0  0  0  0  0  0  0  0  0
  -26.7902  -25.8152   16.0495 N   0  0  0  0  0  0  0  0  0  0  0  0
  -21.4355  -26.3520   16.7858 N   0  0  0  0  0  0  0  0  0  0  0  0
  -21.6035  -29.1995   20.2872 N   0  0  0  0  0  0  0  0  0  0  0  0
  -32.7883  -13.1340   21.2335 N   0  0  0  0  0  0  0  0  0  0  0  0
  -26.2869  -12.9943   20.3684 N   0  0  0  0  0  0  0  0  0  0  0  0
  -23.6088  -14.3031   22.4136 N   0  3  0  0  0  0  0  0  0  0  0  0
  -20.1971  -28.0286   18.9052 O   0  0  0  0  0  0  0  0  0  0  0  0
  -31.6934  -14.6965   19.8985 O   0  0  0  0  0  0  0  0  0  0  0  0
  -28.8565  -11.9040   21.0145 O   0  0  0  0  0  0  0  0  0  0  0  0
  -27.7382  -27.9282   16.2739 O   0  0  0  0  0  0  0  0  0  0  0  0
  -25.4421  -15.1520   20.4552 O   0  0  0  0  0  0  0  0  0  0  0  0
  -26.2165  -31.2230   22.6676 O   0  0  0  0  0  0  0  0  0  0  0  0
  -29.7650  -20.3224   21.4203 O   0  0  0  0  0  0  0  0  0  1  0  0
  -23.0198  -32.9241   26.8259 F   0  0  0  0  0  0  0  0  0  0  0  0
  -26.8256  -30.5696   25.2838 F   0  0  0  0  0  0  0  0  0  0  0  0
  1  2  1  0  0  0  0
  1  5  2  0  0  0  0
  2  6  2  0  0  0  0
  3  8  2  0  0  0  0
  3 16  1  0  0  0  0
  4  9  1  0  0  0  0
  4 16  2  0  0  0  0
  5 18  1  0  0  0  0
  6 20  1  0  0  0  0
  7 10  2  0  0  0  0
  7 19  1  0  0  0  0
  8 22  1  0  0  0  0
  9 22  2  0  0  0  0
 10 23  1  0  0  0  0
 11 12  2  0  0  0  0
 11 24  1  0  0  0  0
 12 25  1  0  0  0  0
 13 21  1  0  0  0  0
 13 23  2  0  0  0  0
 14 25  2  0  0  0  0
 14 26  1  0  0  0  0
 15 28  1  0  0  0  0
 15 70  2  0  0  0  0
 16 27  1  0  0  0  0
 17 27  1  0  0  0  0
 17 31  2  0  0  0  0
 17 32  1  0  0  0  0
 18 20  2  0  0  0  0
 18 37  1  0  0  0  0
 19 21  2  0  0  0  0
 19 38  1  0  0  0  0
 20 46  1  0  0  0  0
 21 39  1  0  0  0  0
 22 86  1  0  0  0  0
 23 87  1  0  0  0  0
 24 26  2  0  0  0  0
 24 86  1  0  0  0  0
 25 88  1  0  0  0  0
 26 89  1  0  0  0  0
 27 71  2  0  0  0  0
 28 67  1  0  0  0  0
 28 72  2  0  0  0  0
 29 30  2  0  0  0  0
 29 59  1  0  0  0  0
 29 70  1  0  0  0  0
 30 60  1  0  0  0  0
 30 72  1  0  0  0  0
 31 73  1  0  0  0  0
 31 76  1  0  0  0  0
 32 77  1  0  0  0  0
 32 81  2  0  0  0  0
 33 47  1  0  0  0  0
 33 78  1  0  0  0  0
 33 82  2  0  0  0  0
 34 65  1  0  0  0  0
 34 74  1  0  0  0  0
 34 83  2  0  0  0  0
 35 68  1  0  0  0  0
 35 75  1  0  0  0  0
 35 84  2  0  0  0  0
 36 66  1  0  0  0  0
 36 79  1  0  0  0  0
 36 85  2  0  0  0  0
 37 40  1  0  0  0  0
 38 47  1  0  0  0  0
 39 74  1  0  0  0  0
 40 42  1  0  0  0  0
 41 43  1  0  0  0  0
 41 44  1  0  0  0  0
 42 46  1  0  0  0  0
 43 48  1  0  0  0  0
 44 75  1  0  0  0  0
 45 48  1  0  0  0  0
 45 75  1  0  0  0  0
 46 78  1  0  0  0  0
 47 74  1  0  0  0  0
 48 73  1  0  0  0  0
 49 61  1  0  0  0  0
 50 66  1  0  0  0  0
 51 67  1  0  0  0  0
 52 67  1  0  0  0  0
 53 68  1  0  0  0  0
 54 68  1  0  0  0  0
 55 69  1  0  0  0  0
 56 69  1  0  0  0  0
 57 69  1  0  0  0  0
 58 80  1  0  0  0  0
 59 61  1  0  0  0  0
 60 62  1  0  0  0  0
 62 63  1  0  0  0  0
 63 64  1  0  0  0  0
 64 87  1  0  0  0  0
 65 69  1  0  0  0  0
 65 79  1  0  0  0  0
 66 80  1  0  0  0  0
 67 68  1  0  0  0  0
 71 73  1  0  0  0  0
M  CHG  1  80   1
M  ISO  4  35 100  64 101  68 100  87 101
M  END
> <Batch ID>
0069

> <Smiles>
CCCc1ncc(C(C)(C)[100C:0](C)(C)[100C:0](=O)N2CCCC(n3nc(-c4ccc(Oc5ccc(F)cc5F)cc4)c(C(N)=O)c3N)C2)nc1CCC[101CH2:1][101O:1]c1ccc2c(c1)CN(C(=O)C(NC(=O)C(C)NC)C(C)(C)C)C(C(=O)NC1CCCc3ccccc31)C2

> <Shape>
0.255

> <Color>
0.068

> <Negative vol penalty>
0.000

$$$$

  -OEChem-04052318173D

 85 93  0     1  0  0  0  0  0999 V2000
  -28.2534  -11.4219   22.0145 C   0  0  0  0  0  0  0  0  0  0  0  0
  -28.7305  -12.4117   21.1611 C   0  0  0  0  0  0  0  0  0  0  0  0
  -19.7548  -28.2262   23.5126 C   0  0  0  0  0  0  0  0  0  0  0  0
  -19.8116  -26.4457   21.8806 C   0  0  0  0  0  0  0  0  0  0  0  0
  -26.8798  -11.2373   22.1669 C   0  0  0  0  0  0  0  0  0  0  0  0
  -27.8343  -13.2166   20.4588 C   0  0  0  0  0  0  0  0  0  0  0  0
  -29.1158  -18.1144   20.5798 C   0  0  0  0  0  0  0  0  0  0  0  0
  -18.3846  -28.3773   23.3002 C   0  0  0  0  0  0  0  0  0  0  0  0
  -18.4413  -26.5967   21.6682 C   0  0  0  0  0  0  0  0  0  0  0  0
  -30.1407  -18.5255   19.7288 C   0  0  0  0  0  0  0  0  0  0  0  0
  -15.5700  -25.6989   23.2077 C   0  0  0  0  0  0  0  0  0  0  0  0
  -14.7932  -24.5418   23.1503 C   0  0  0  0  0  0  0  0  0  0  0  0
  -30.9409  -22.5028   19.6397 C   0  0  0  0  0  0  0  0  0  0  0  0
  -30.2543  -23.4848   20.3318 C   0  0  0  0  0  0  0  0  0  0  0  0
  -28.5021  -19.3736   18.1748 C   0  0  0  0  0  0  0  0  0  0  0  0
  -14.1133  -25.1096   20.9026 C   0  0  0  0  0  0  0  0  0  0  0  0
  -20.4684  -27.2605   22.8027 C   0  0  0  0  0  0  0  0  0  0  0  0
  -22.5117  -26.2637   23.9600 C   0  0  0  0  0  0  0  0  0  0  0  0
  -25.9663  -12.0467   21.4735 C   0  0  0  0  0  0  0  0  0  0  0  0
  -27.7738  -18.3203   20.2291 C   0  0  0  0  0  0  0  0  0  0  0  0
  -26.4472  -13.0417   20.6011 C   0  0  0  0  0  0  0  0  0  0  0  0
  -27.4620  -18.9664   19.0243 C   0  0  0  0  0  0  0  0  0  0  0  0
  -17.7278  -27.5625   22.3780 C   0  0  0  0  0  0  0  0  0  0  0  0
  -29.8339  -19.1527   18.5248 C   0  0  0  0  0  0  0  0  0  0  0  0
  -15.6184  -26.5614   22.1125 C   0  0  0  0  0  0  0  0  0  0  0  0
  -14.0649  -24.2471   21.9978 C   0  0  0  0  0  0  0  0  0  0  0  0
  -14.8901  -26.2667   20.9599 C   0  0  0  0  0  0  0  0  0  0  0  0
  -21.8840  -27.1044   23.0213 C   0  0  0  0  0  0  0  0  0  0  0  0
  -31.8331  -22.9029   18.6653 C   0  0  0  0  0  0  0  0  0  0  0  0
  -30.5056  -24.8020   20.0039 C   0  0  0  0  0  0  0  0  0  0  0  0
  -23.8547  -26.4794   23.7701 C   0  0  0  0  0  0  0  0  0  0  0  0
  -21.9324  -25.3679   24.9179 C   0  0  0  0  0  0  0  0  0  0  0  0
  -25.2843  -16.4238   19.6728 C   0  0  0  0  0  0  0  0  0  0  0  0
  -23.6765  -19.2359   19.4994 C   0  0  0  0  0  0  0  0  0  0  0  0
  -23.7756  -22.5996   18.9317 C   0  0  0  0  0  0  0  0  0  0  0  0
  -27.3299  -27.6006   19.1064 C   0  0  0  0  0  0  0  0  0  0  0  0
  -24.4909  -11.7784   21.6344 C   0  0  0  0  0  0  0  0  0  0  0  0
  -26.6804  -17.8949   21.1703 C   0  0  0  0  0  0  0  0  0  0  0  0
  -26.0378  -19.2293   18.6108 C   0  0  0  0  0  0  0  0  0  0  0  0
  -23.6067  -12.9207   21.1409 C   0  0  0  0  0  0  0  0  0  0  0  0
  -26.5722  -30.0731   21.7548 C   0  0  0  0  0  0  0  0  0  0  0  0
  -24.0751  -13.4055   19.7726 C   0  0  0  0  0  0  0  0  0  0  0  0
  -25.3005  -29.5074   22.3846 C   0  0  0  0  0  0  0  0  0  0  0  0
  -26.7041  -29.6752   20.2879 C   0  0  0  0  0  0  0  0  0  0  0  0
  -25.3529  -27.6422   20.6821 C   0  0  0  0  0  0  0  0  0  0  0  0
  -25.5065  -13.9513   19.8410 C   0  0  1  0  0  0  0  0  0  0  0  0
  -25.3378  -17.6935   20.4745 C   0  0  1  0  0  0  0  0  0  0  0  0
  -25.2132  -27.9860   22.1727 C   0  0  2  0  0  0  0  0  0  0  0  0
  -22.9450  -24.9638   18.7975 C   0  0  0  0  0  0  0  0  0  0  0  0
  -30.1602  -27.3533   20.2655 C   0  0  0  0  0  0  0  0  0  0  0  0
  -30.1365  -25.8622   22.2484 C   0  0  0  0  0  0  0  0  0  0  0  0
  -22.6483  -18.3361   16.7712 C   0  0  0  0  0  0  0  0  0  0  0  0
  -21.9907  -20.7082   16.3144 C   0  0  0  0  0  0  0  0  0  0  0  0
  -20.9423  -19.4676   18.2077 C   0  0  0  0  0  0  0  0  0  0  0  0
  -27.9011  -25.3800   18.1996 C   0  0  0  0  0  0  0  0  0  0  0  0
  -24.4414  -23.1172   21.7685 C   0  0  0  0  0  0  0  0  0  0  0  0
  -32.6056  -21.8731   17.8802 C   0  0  0  0  0  0  0  0  0  0  0  0
  -31.8959  -21.4106   16.6058 C   0  0  0  0  0  0  0  0  0  0  0  0
  -28.2316  -25.7775   20.6117 C   0  0  0  0  0  0  0  0  0  0  0  0
  -30.5767  -20.6959   16.8748 C   0  0  0  0  0  0  0  0  0  1  0  0
  -23.3502  -20.2146   18.3974 C   0  0  1  0  0  0  0  0  0  0  0  0
  -23.1941  -23.7692   19.7051 C   0  0  2  0  0  0  0  0  0  0  0  0
  -29.7947  -25.8973   20.7223 C   0  0  0  0  0  0  0  0  0  0  0  0
  -22.2598  -19.6751   17.4293 C   0  0  0  0  0  0  0  0  0  0  0  0
  -22.7567  -27.8022   22.2895 N   0  0  0  0  0  0  0  0  0  0  0  0
  -32.0592  -24.1995   18.3654 N   0  0  0  0  0  0  0  0  0  0  0  0
  -31.3846  -25.1646   19.0459 N   0  0  0  0  0  0  0  0  0  0  0  0
  -23.9464  -27.4006   22.7684 N   0  0  0  0  0  0  0  0  0  0  0  0
  -25.0040  -18.7890   19.5621 N   0  0  0  0  0  0  0  0  0  0  0  0
  -26.5743  -28.2286   20.1101 N   0  0  0  0  0  0  0  0  0  0  0  0
  -24.9545  -25.9692   24.3639 N   0  0  0  0  0  0  0  0  0  0  0  0
  -20.5358  -25.2677   24.9797 N   0  0  0  0  0  0  0  0  0  0  0  0
  -25.5138  -15.2803   20.4139 N   0  0  0  0  0  0  0  0  0  0  0  0
  -22.9977  -21.4679   19.0557 N   0  0  0  0  0  0  0  0  0  0  0  0
  -27.7194  -26.2723   19.3357 N   0  0  0  0  0  0  0  0  0  0  0  0
  -24.1271  -24.1888   20.7888 N   0  3  0  0  0  0  0  0  0  0  0  0
  -22.6322  -24.6889   25.7071 O   0  0  0  0  0  0  0  0  0  0  0  0
  -25.0505  -16.4775   18.4710 O   0  0  0  0  0  0  0  0  0  0  0  0
  -22.7880  -18.8863   20.2805 O   0  0  0  0  0  0  0  0  0  0  0  0
  -24.8140  -22.6826   18.2795 O   0  0  0  0  0  0  0  0  0  0  0  0
  -27.6470  -28.1965   18.0690 O   0  0  0  0  0  0  0  0  0  0  0  0
  -16.3906  -27.7094   22.1707 O   0  0  0  0  0  0  0  0  0  0  0  0
  -30.8324  -19.5544   17.6921 O   0  0  0  0  0  0  0  0  0  1  0  0
  -13.3203  -23.1351   21.9423 F   0  0  0  0  0  0  0  0  0  0  0  0
  -14.9336  -27.0909   19.9042 F   0  0  0  0  0  0  0  0  0  0  0  0
  1  2  1  0  0  0  0
  1  5  2  0  0  0  0
  2  6  2  0  0  0  0
  3  8  2  0  0  0  0
  3 17  1  0  0  0  0
  4  9  1  0  0  0  0
  4 17  2  0  0  0  0
  5 19  1  0  0  0  0
  6 21  1  0  0  0  0
  7 10  2  0  0  0  0
  7 20  1  0  0  0  0
  8 23  1  0  0  0  0
  9 23  2  0  0  0  0
 10 24  1  0  0  0  0
 11 12  2  0  0  0  0
 11 25  1  0  0  0  0
 12 26  1  0  0  0  0
 13 14  2  0  0  0  0
 13 29  1  0  0  0  0
 14 30  1  0  0  0  0
 15 22  1  0  0  0  0
 15 24  2  0  0  0  0
 16 26  2  0  0  0  0
 16 27  1  0  0  0  0
 17 28  1  0  0  0  0
 18 28  1  0  0  0  0
 18 31  2  0  0  0  0
 18 32  1  0  0  0  0
 19 21  2  0  0  0  0
 19 37  1  0  0  0  0
 20 22  2  0  0  0  0
 20 38  1  0  0  0  0
 21 46  1  0  0  0  0
 22 39  1  0  0  0  0
 23 82  1  0  0  0  0
 24 83  1  0  0  0  0
 25 27  2  0  0  0  0
 25 82  1  0  0  0  0
 26 84  1  0  0  0  0
 27 85  1  0  0  0  0
 28 65  2  0  0  0  0
 29 57  1  0  0  0  0
 29 66  2  0  0  0  0
 30 63  1  0  0  0  0
 30 67  2  0  0  0  0
 31 68  1  0  0  0  0
 31 71  1  0  0  0  0
 32 72  1  0  0  0  0
 32 77  2  0  0  0  0
 33 47  1  0  0  0  0
 33 73  1  0  0  0  0
 33 78  2  0  0  0  0
 34 61  1  0  0  0  0
 34 69  1  0  0  0  0
 34 79  2  0  0  0  0
 35 62  1  0  0  0  0
 35 74  1  0  0  0  0
 35 80  2  0  0  0  0
 36 70  1  0  0  0  0
 36 75  1  0  0  0  0
 36 81  2  0  0  0  0
 37 40  1  0  0  0  0
 38 47  1  0  0  0  0
 39 69  1  0  0  0  0
 40 42  1  0  0  0  0
 41 43  1  0  0  0  0
 41 44  1  0  0  0  0
 42 46  1  0  0  0  0
 43 48  1  0  0  0  0
 44 70  1  0  0  0  0
 45 48  1  0  0  0  0
 45 70  1  0  0  0  0
 46 73  1  0  0  0  0
 47 69  1  0  0  0  0
 48 68  1  0  0  0  0
 49 62  1  0  0  0  0
 50 63  1  0  0  0  0
 51 63  1  0  0  0  0
 52 64  1  0  0  0  0
 53 64  1  0  0  0  0
 54 64  1  0  0  0  0
 55 75  1  0  0  0  0
 56 76  1  0  0  0  0
 57 58  1  0  0  0  0
 58 60  1  0  0  0  0
 59 63  1  0  0  0  0
 59 75  1  0  0  0  0
 60 83  1  0  0  0  0
 61 64  1  0  0  0  0
 61 74  1  0  0  0  0
 62 76  1  0  0  0  0
 65 68  1  0  0  0  0
 66 67  1  0  0  0  0
M  CHG  1  76   1
M  ISO  4  36 100  60 101  75 100  83 101
M  END
> <Batch ID>
0069

> <Smiles>
CNC(C)C(=O)NC(C(=O)N1Cc2cc([101O:1][101CH2:1]CCc3ccc(C(C)(C)C[100N:0](C)[100C:0](=O)N4CCCC(n5nc(-c6ccc(Oc7ccc(F)cc7F)cc6)c(C(N)=O)c5N)C4)nn3)ccc2CC1C(=O)NC1CCCc2ccccc21)C(C)(C)C

> <Shape>
0.217

> <Color>
0.070

> <Negative vol penalty>
0.000

$$$$

  -OEChem-04052318173D

 85 93  0     1  0  0  0  0  0999 V2000
  -30.9553  -34.9847   23.9585 C   0  0  0  0  0  0  0  0  0  0  0  0
  -30.9956  -33.8519   23.1519 C   0  0  0  0  0  0  0  0  0  0  0  0
  -23.5536   -9.0846   20.3259 C   0  0  0  0  0  0  0  0  0  0  0  0
  -22.8764  -10.8518   21.8278 C   0  0  0  0  0  0  0  0  0  0  0  0
  -30.0265  -35.0683   24.9949 C   0  0  0  0  0  0  0  0  0  0  0  0
  -30.1078  -32.8015   23.3821 C   0  0  0  0  0  0  0  0  0  0  0  0
  -27.5509  -29.1543   19.1790 C   0  0  0  0  0  0  0  0  0  0  0  0
  -22.7731   -8.1770   21.0419 C   0  0  0  0  0  0  0  0  0  0  0  0
  -22.0958   -9.9442   22.5437 C   0  0  0  0  0  0  0  0  0  0  0  0
  -27.8701  -27.8739   18.7292 C   0  0  0  0  0  0  0  0  0  0  0  0
  -23.0023   -6.4260   23.9239 C   0  0  0  0  0  0  0  0  0  0  0  0
  -29.3810  -18.8168   19.6721 C   0  0  0  0  0  0  0  0  0  0  0  0
  -23.5666   -5.1880   24.2308 C   0  0  0  0  0  0  0  0  0  0  0  0
  -29.0505  -17.5206   20.0516 C   0  0  0  0  0  0  0  0  0  0  0  0
  -26.2544  -26.9405   20.2581 C   0  0  0  0  0  0  0  0  0  0  0  0
  -21.8084   -4.0808   22.9980 C   0  0  0  0  0  0  0  0  0  0  0  0
  -28.1574  -19.6219   21.5459 C   0  0  0  0  0  0  0  0  0  0  0  0
  -23.6054  -10.4220   20.7189 C   0  0  0  0  0  0  0  0  0  0  0  0
  -24.0129  -12.1424   18.8799 C   0  0  0  0  0  0  0  0  0  0  0  0
  -29.1204  -34.0226   25.2318 C   0  0  0  0  0  0  0  0  0  0  0  0
  -26.5872  -29.3370   20.1811 C   0  0  0  0  0  0  0  0  0  0  0  0
  -29.1668  -32.8707   24.4235 C   0  0  0  0  0  0  0  0  0  0  0  0
  -25.9229  -28.2245   20.7170 C   0  0  0  0  0  0  0  0  0  0  0  0
  -22.0442   -8.6068   22.1507 C   0  0  0  0  0  0  0  0  0  0  0  0
  -27.2239  -26.7665   19.2708 C   0  0  0  0  0  0  0  0  0  0  0  0
  -28.9299  -19.8930   20.4281 C   0  0  0  0  0  0  0  0  0  0  0  0
  -21.8409   -6.4915   23.1540 C   0  0  0  0  0  0  0  0  0  0  0  0
  -22.9698   -4.0153   23.7679 C   0  0  0  0  0  0  0  0  0  0  0  0
  -21.2440   -5.3189   22.6911 C   0  0  0  0  0  0  0  0  0  0  0  0
  -24.4119  -11.3600   19.9802 C   0  0  0  0  0  0  0  0  0  0  0  0
  -28.2728  -17.3557   21.1865 C   0  0  0  0  0  0  0  0  0  0  0  0
  -25.1351  -12.8594   18.5436 C   0  0  0  0  0  0  0  0  0  0  0  0
  -22.7416  -12.2146   18.2210 C   0  0  0  0  0  0  0  0  0  0  0  0
  -26.6104  -30.5416   23.1226 C   0  0  0  0  0  0  0  0  0  0  0  0
  -23.4057  -30.0840   22.9157 C   0  0  0  0  0  0  0  0  0  0  0  0
  -29.9491  -14.5105   21.7390 C   0  0  0  0  0  0  0  0  0  0  0  0
  -20.8058  -28.4037   21.4791 C   0  0  0  0  0  0  0  0  0  0  0  0
  -28.1659  -34.1384   26.3938 C   0  0  0  0  0  0  0  0  0  0  0  0
  -26.2351  -30.7267   20.6365 C   0  0  0  0  0  0  0  0  0  0  0  0
  -24.8662  -28.3683   21.7806 C   0  0  0  0  0  0  0  0  0  0  0  0
  -27.0112  -33.1417   26.3352 C   0  0  0  0  0  0  0  0  0  0  0  0
  -29.9052  -12.6456   18.6796 C   0  0  0  0  0  0  0  0  0  0  0  0
  -27.5274  -31.7455   26.0021 C   0  0  0  0  0  0  0  0  0  0  0  0
  -28.4624  -12.1518   18.5809 C   0  0  0  0  0  0  0  0  0  0  0  0
  -30.3836  -12.6861   20.1276 C   0  0  0  0  0  0  0  0  0  0  0  0
  -28.0666  -12.9993   20.9368 C   0  0  0  0  0  0  0  0  0  0  0  0
  -28.2038  -31.7211   24.6261 C   0  0  1  0  0  0  0  0  0  0  0  0
  -25.6063  -30.7588   22.0261 C   0  0  1  0  0  0  0  0  0  0  0  0
  -27.5337  -12.9724   19.4933 C   0  0  2  0  0  0  0  0  0  0  0  0
  -26.4553  -15.9210   22.1925 C   0  0  0  0  0  0  0  0  0  0  0  0
  -18.3037  -28.2209   21.5413 C   0  0  0  0  0  0  0  0  0  0  0  0
  -28.3048  -14.2536   23.5451 C   0  0  0  0  0  0  0  0  0  0  0  0
  -29.7597  -16.2842   23.3775 C   0  0  0  0  0  0  0  0  0  0  0  0
  -23.5878  -28.5119   25.5243 C   0  0  0  0  0  0  0  0  0  0  0  0
  -21.3165  -27.5774   25.0386 C   0  0  0  0  0  0  0  0  0  0  0  0
  -21.6101  -30.0337   25.3594 C   0  0  0  0  0  0  0  0  0  0  0  0
  -20.5599  -29.2158   18.6438 C   0  0  0  0  0  0  0  0  0  0  0  0
  -28.3864  -23.3414   19.4411 C   0  0  0  0  0  0  0  0  0  0  0  0
  -27.3968  -24.4479   19.7708 C   0  0  0  0  0  0  0  0  0  1  0  0
  -28.2949  -22.1849   20.4241 C   0  0  0  0  0  0  0  0  0  0  0  0
  -27.8995  -15.9787   21.6236 C   0  0  2  0  0  0  0  0  0  0  0  0
  -22.4645  -28.9495   23.2412 C   0  0  1  0  0  0  0  0  0  0  0  0
  -19.4984  -28.8917   20.8814 C   0  0  2  0  0  0  0  0  0  0  0  0
  -28.9402  -15.2588   22.5735 C   0  0  0  0  0  0  0  0  0  0  0  0
  -22.2660  -28.7649   24.7722 C   0  0  0  0  0  0  0  0  0  0  0  0
  -27.8160  -18.3765   21.9461 N   0  0  0  0  0  0  0  0  0  0  0  0
  -25.6879  -11.5608   20.3200 N   0  0  0  0  0  0  0  0  0  0  0  0
  -26.1005  -12.4775   19.4281 N   0  0  0  0  0  0  0  0  0  0  0  0
  -24.5616  -29.7471   22.1972 N   0  0  0  0  0  0  0  0  0  0  0  0
  -29.4630  -13.4559   20.9661 N   0  0  0  0  0  0  0  0  0  0  0  0
  -25.3803  -13.7730   17.5804 N   0  0  0  0  0  0  0  0  0  0  0  0
  -21.6966  -11.4100   18.6952 N   0  0  0  0  0  0  0  0  0  0  0  0
  -27.2097  -31.7018   23.5745 N   0  0  0  0  0  0  0  0  0  0  0  0
  -21.2326  -29.2176   22.5070 N   0  0  0  0  0  0  0  0  0  0  0  0
  -19.4550  -28.5978   19.4210 N   0  3  0  0  0  0  0  0  0  0  0  0
  -22.5431  -12.9581   17.2304 O   0  0  0  0  0  0  0  0  0  0  0  0
  -26.8244  -29.4057   23.5296 O   0  0  0  0  0  0  0  0  0  0  0  0
  -23.1220  -31.2282   23.2790 O   0  0  0  0  0  0  0  0  0  0  0  0
  -31.1329  -14.8564   21.7723 O   0  0  0  0  0  0  0  0  0  0  0  0
  -21.3880  -27.3988   21.0770 O   0  0  0  0  0  0  0  0  0  0  0  0
  -21.2822   -7.7214   22.8494 O   0  0  0  0  0  0  0  0  0  0  0  0
  -27.5341  -25.5156   18.8340 O   0  0  0  0  0  0  0  0  0  1  0  0
  -29.2396  -21.1813   20.0774 O   0  0  0  0  0  0  0  0  0  0  0  0
  -23.5127   -2.8266   24.0615 F   0  0  0  0  0  0  0  0  0  0  0  0
  -20.1289   -5.3755   21.9501 F   0  0  0  0  0  0  0  0  0  0  0  0
  1  2  1  0  0  0  0
  1  5  2  0  0  0  0
  2  6  2  0  0  0  0
  3  8  2  0  0  0  0
  3 18  1  0  0  0  0
  4  9  1  0  0  0  0
  4 18  2  0  0  0  0
  5 20  1  0  0  0  0
  6 22  1  0  0  0  0
  7 10  2  0  0  0  0
  7 21  1  0  0  0  0
  8 24  1  0  0  0  0
  9 24  2  0  0  0  0
 10 25  1  0  0  0  0
 11 13  2  0  0  0  0
 11 27  1  0  0  0  0
 12 14  2  0  0  0  0
 12 26  1  0  0  0  0
 13 28  1  0  0  0  0
 14 31  1  0  0  0  0
 15 23  1  0  0  0  0
 15 25  2  0  0  0  0
 16 28  2  0  0  0  0
 16 29  1  0  0  0  0
 17 26  2  0  0  0  0
 17 66  1  0  0  0  0
 18 30  1  0  0  0  0
 19 30  1  0  0  0  0
 19 32  2  0  0  0  0
 19 33  1  0  0  0  0
 20 22  2  0  0  0  0
 20 38  1  0  0  0  0
 21 23  2  0  0  0  0
 21 39  1  0  0  0  0
 22 47  1  0  0  0  0
 23 40  1  0  0  0  0
 24 81  1  0  0  0  0
 25 82  1  0  0  0  0
 26 83  1  0  0  0  0
 27 29  2  0  0  0  0
 27 81  1  0  0  0  0
 28 84  1  0  0  0  0
 29 85  1  0  0  0  0
 30 67  2  0  0  0  0
 31 61  1  0  0  0  0
 31 66  2  0  0  0  0
 32 68  1  0  0  0  0
 32 71  1  0  0  0  0
 33 72  1  0  0  0  0
 33 76  2  0  0  0  0
 34 48  1  0  0  0  0
 34 73  1  0  0  0  0
 34 77  2  0  0  0  0
 35 62  1  0  0  0  0
 35 69  1  0  0  0  0
 35 78  2  0  0  0  0
 36 64  1  0  0  0  0
 36 70  1  0  0  0  0
 36 79  2  0  0  0  0
 37 63  1  0  0  0  0
 37 74  1  0  0  0  0
 37 80  2  0  0  0  0
 38 41  1  0  0  0  0
 39 48  1  0  0  0  0
 40 69  1  0  0  0  0
 41 43  1  0  0  0  0
 42 44  1  0  0  0  0
 42 45  1  0  0  0  0
 43 47  1  0  0  0  0
 44 49  1  0  0  0  0
 45 70  1  0  0  0  0
 46 49  1  0  0  0  0
 46 70  1  0  0  0  0
 47 73  1  0  0  0  0
 48 69  1  0  0  0  0
 49 68  1  0  0  0  0
 50 61  1  0  0  0  0
 51 63  1  0  0  0  0
 52 64  1  0  0  0  0
 53 64  1  0  0  0  0
 54 65  1  0  0  0  0
 55 65  1  0  0  0  0
 56 65  1  0  0  0  0
 57 75  1  0  0  0  0
 58 59  1  0  0  0  0
 58 60  1  0  0  0  0
 59 82  1  0  0  0  0
 60 83  1  0  0  0  0
 61 64  1  0  0  0  0
 62 65  1  0  0  0  0
 62 74  1  0  0  0  0
 63 75  1  0  0  0  0
 67 68  1  0  0  0  0
M  CHG  1  75   1
M  ISO  4  36 100  59 101  64 100  82 101
M  END
> <Batch ID>
0069

> <Smiles>
CNC(C)C(=O)NC(C(=O)N1Cc2cc([101O:1][101CH2:1]CCOc3ccc(C(C)[100C:0](C)(C)[100C:0](=O)N4CCCC(n5nc(-c6ccc(Oc7ccc(F)cc7F)cc6)c(C(N)=O)c5N)C4)nc3)ccc2CC1C(=O)NC1CCCc2ccccc21)C(C)(C)C

> <Shape>
0.325

> <Color>
0.116

> <Negative vol penalty>
0.000

$$$$

  -OEChem-04052318173D

 84 92  0     1  0  0  0  0  0999 V2000
  -25.6010  -37.7544   20.3108 C   0  0  0  0  0  0  0  0  0  0  0  0
  -26.3152  -36.6016   20.0004 C   0  0  0  0  0  0  0  0  0  0  0  0
  -25.0099  -12.4932   19.2305 C   0  0  0  0  0  0  0  0  0  0  0  0
  -24.0034  -12.7664   21.4098 C   0  0  0  0  0  0  0  0  0  0  0  0
  -24.7485  -37.7691   21.4140 C   0  0  0  0  0  0  0  0  0  0  0  0
  -26.1782  -35.4631   20.7938 C   0  0  0  0  0  0  0  0  0  0  0  0
  -26.3433  -29.6329   18.9263 C   0  0  0  0  0  0  0  0  0  0  0  0
  -24.9264  -11.1075   19.3656 C   0  0  0  0  0  0  0  0  0  0  0  0
  -23.9198  -11.3806   21.5449 C   0  0  0  0  0  0  0  0  0  0  0  0
  -27.3555  -28.6742   18.9328 C   0  0  0  0  0  0  0  0  0  0  0  0
  -21.9227   -8.8880   20.4409 C   0  0  0  0  0  0  0  0  0  0  0  0
  -20.7268   -8.3563   20.9233 C   0  0  0  0  0  0  0  0  0  0  0  0
  -26.5007  -27.7944   21.0099 C   0  0  0  0  0  0  0  0  0  0  0  0
  -21.9114   -7.3885   22.7934 C   0  0  0  0  0  0  0  0  0  0  0  0
  -30.2891  -22.8369   21.5051 C   0  0  0  0  0  0  0  0  0  0  0  0
  -24.5485  -13.3227   20.2527 C   0  0  0  0  0  0  0  0  0  0  0  0
  -23.6684  -15.6147   19.5599 C   0  0  0  0  0  0  0  0  0  0  0  0
  -24.5937  -36.6271   22.2156 C   0  0  0  0  0  0  0  0  0  0  0  0
  -25.4071  -29.6865   19.9689 C   0  0  0  0  0  0  0  0  0  0  0  0
  -25.3239  -35.4629   21.9095 C   0  0  0  0  0  0  0  0  0  0  0  0
  -25.4760  -28.7531   21.0130 C   0  0  0  0  0  0  0  0  0  0  0  0
  -29.0783  -23.2511   20.9888 C   0  0  0  0  0  0  0  0  0  0  0  0
  -24.3813  -10.5511   20.5228 C   0  0  0  0  0  0  0  0  0  0  0  0
  -27.4361  -27.7566   19.9761 C   0  0  0  0  0  0  0  0  0  0  0  0
  -23.1131   -8.6698   21.1346 C   0  0  0  0  0  0  0  0  0  0  0  0
  -20.7212   -7.6066   22.0995 C   0  0  0  0  0  0  0  0  0  0  0  0
  -23.1074   -7.9201   22.3109 C   0  0  0  0  0  0  0  0  0  0  0  0
  -24.6351  -14.7543   20.1140 C   0  0  0  0  0  0  0  0  0  0  0  0
  -27.9747  -22.5366   21.4079 C   0  0  0  0  0  0  0  0  0  0  0  0
  -24.2246  -16.8664   19.6609 C   0  0  0  0  0  0  0  0  0  0  0  0
  -29.2741  -21.1894   22.6979 C   0  0  0  0  0  0  0  0  0  0  0  0
  -22.3825  -15.3097   19.0038 C   0  0  0  0  0  0  0  0  0  0  0  0
  -24.6144  -31.8456   22.1630 C   0  0  0  0  0  0  0  0  0  0  0  0
  -22.2582  -29.7212   22.8396 C   0  0  0  0  0  0  0  0  0  0  0  0
  -28.2974  -19.0262   23.4056 C   0  0  0  0  0  0  0  0  0  0  0  0
  -21.1480  -26.4957   22.7366 C   0  0  0  0  0  0  0  0  0  0  0  0
  -23.6966  -36.7057   23.4255 C   0  0  0  0  0  0  0  0  0  0  0  0
  -24.3053  -30.7098   19.9335 C   0  0  0  0  0  0  0  0  0  0  0  0
  -24.4833  -28.7554   22.1456 C   0  0  0  0  0  0  0  0  0  0  0  0
  -23.3223  -35.3402   23.9960 C   0  0  0  0  0  0  0  0  0  0  0  0
  -28.4472  -19.0984   19.7725 C   0  0  0  0  0  0  0  0  0  0  0  0
  -24.5573  -34.4519   24.1086 C   0  0  0  0  0  0  0  0  0  0  0  0
  -27.4082  -18.0405   19.4027 C   0  0  0  0  0  0  0  0  0  0  0  0
  -29.1985  -18.7254   21.0478 C   0  0  0  0  0  0  0  0  0  0  0  0
  -27.2668  -17.4023   21.8493 C   0  0  0  0  0  0  0  0  0  0  0  0
  -25.1832  -34.2001   22.7316 C   0  0  1  0  0  0  0  0  0  0  0  0
  -23.7134  -30.9984   21.3097 C   0  0  1  0  0  0  0  0  0  0  0  0
  -26.4656  -17.7557   20.5851 C   0  0  2  0  0  0  0  0  0  0  0  0
  -26.6117  -22.8952   20.9148 C   0  0  0  0  0  0  0  0  0  0  0  0
  -19.1994  -25.0609   23.4011 C   0  0  0  0  0  0  0  0  0  0  0  0
  -28.3945  -24.0620   18.6321 C   0  0  0  0  0  0  0  0  0  0  0  0
  -30.4162  -24.9806   19.7485 C   0  0  0  0  0  0  0  0  0  0  0  0
  -29.2448  -20.5269   25.1171 C   0  0  0  0  0  0  0  0  0  0  0  0
  -30.6953  -19.2120   23.5676 C   0  0  0  0  0  0  0  0  0  0  0  0
  -23.1966  -29.7952   25.7420 C   0  0  0  0  0  0  0  0  0  0  0  0
  -21.8897  -27.6981   26.1451 C   0  0  0  0  0  0  0  0  0  0  0  0
  -20.7131  -29.7845   25.4486 C   0  0  0  0  0  0  0  0  0  0  0  0
  -20.6013  -25.7358   19.9290 C   0  0  0  0  0  0  0  0  0  0  0  0
  -28.1312  -25.5742   20.6164 C   0  0  0  0  0  0  0  0  0  1  0  0
  -22.1216  -28.5341   23.7621 C   0  0  1  0  0  0  0  0  0  0  0  0
  -19.8228  -25.9002   22.2966 C   0  0  2  0  0  0  0  0  0  0  0  0
  -28.9927  -24.4368   20.0094 C   0  0  0  0  0  0  0  0  0  0  0  0
  -29.3826  -20.0448   23.6477 C   0  0  0  0  0  0  0  0  0  0  0  0
  -22.0003  -28.9539   25.2543 C   0  0  0  0  0  0  0  0  0  0  0  0
  -30.4241  -21.8061   22.3651 N   0  0  0  0  0  0  0  0  0  0  0  0
  -25.7230  -15.4044   20.5355 N   0  0  0  0  0  0  0  0  0  0  0  0
  -28.0364  -21.4962   22.2647 N   0  0  0  0  0  0  0  0  0  0  0  0
  -25.4433  -16.6867   20.2461 N   0  0  0  0  0  0  0  0  0  0  0  0
  -23.4282  -29.7794   22.0692 N   0  0  0  0  0  0  0  0  0  0  0  0
  -28.2648  -18.4349   22.1425 N   0  0  0  0  0  0  0  0  0  0  0  0
  -23.7853  -18.0923   19.3051 N   0  0  0  0  0  0  0  0  0  0  0  0
  -21.9660  -13.9717   18.9782 N   0  0  0  0  0  0  0  0  0  0  0  0
  -24.4236  -33.2050   22.0055 N   0  0  0  0  0  0  0  0  0  0  0  0
  -20.9897  -27.7593   23.2654 N   0  0  0  0  0  0  0  0  0  0  0  0
  -20.0163  -25.0332   21.1000 N   0  3  0  0  0  0  0  0  0  0  0  0
  -21.6324  -16.1954   18.5282 O   0  0  0  0  0  0  0  0  0  0  0  0
  -25.4219  -31.3057   22.9101 O   0  0  0  0  0  0  0  0  0  0  0  0
  -21.3566  -30.5621   22.7987 O   0  0  0  0  0  0  0  0  0  0  0  0
  -27.5018  -18.7671   24.3123 O   0  0  0  0  0  0  0  0  0  0  0  0
  -22.2164  -25.8983   22.6258 O   0  0  0  0  0  0  0  0  0  0  0  0
  -24.2994   -9.1989   20.6548 O   0  0  0  0  0  0  0  0  0  0  0  0
  -28.4235  -26.8202   19.9852 O   0  0  0  0  0  0  0  0  0  1  0  0
  -19.5724   -7.0975   22.5635 F   0  0  0  0  0  0  0  0  0  0  0  0
  -24.2476   -7.7082   22.9824 F   0  0  0  0  0  0  0  0  0  0  0  0
  1  2  1  0  0  0  0
  1  5  2  0  0  0  0
  2  6  2  0  0  0  0
  3  8  2  0  0  0  0
  3 16  1  0  0  0  0
  4  9  1  0  0  0  0
  4 16  2  0  0  0  0
  5 18  1  0  0  0  0
  6 20  1  0  0  0  0
  7 10  2  0  0  0  0
  7 19  1  0  0  0  0
  8 23  1  0  0  0  0
  9 23  2  0  0  0  0
 10 24  1  0  0  0  0
 11 12  2  0  0  0  0
 11 25  1  0  0  0  0
 12 26  1  0  0  0  0
 13 21  1  0  0  0  0
 13 24  2  0  0  0  0
 14 26  2  0  0  0  0
 14 27  1  0  0  0  0
 15 22  1  0  0  0  0
 15 65  2  0  0  0  0
 16 28  1  0  0  0  0
 17 28  1  0  0  0  0
 17 30  2  0  0  0  0
 17 32  1  0  0  0  0
 18 20  2  0  0  0  0
 18 37  1  0  0  0  0
 19 21  2  0  0  0  0
 19 38  1  0  0  0  0
 20 46  1  0  0  0  0
 21 39  1  0  0  0  0
 22 29  2  0  0  0  0
 22 62  1  0  0  0  0
 23 81  1  0  0  0  0
 24 82  1  0  0  0  0
 25 27  2  0  0  0  0
 25 81  1  0  0  0  0
 26 83  1  0  0  0  0
 27 84  1  0  0  0  0
 28 66  2  0  0  0  0
 29 49  1  0  0  0  0
 29 67  1  0  0  0  0
 30 68  1  0  0  0  0
 30 71  1  0  0  0  0
 31 63  1  0  0  0  0
 31 65  1  0  0  0  0
 31 67  2  0  0  0  0
 32 72  1  0  0  0  0
 32 76  2  0  0  0  0
 33 47  1  0  0  0  0
 33 73  1  0  0  0  0
 33 77  2  0  0  0  0
 34 60  1  0  0  0  0
 34 69  1  0  0  0  0
 34 78  2  0  0  0  0
 35 63  1  0  0  0  0
 35 70  1  0  0  0  0
 35 79  2  0  0  0  0
 36 61  1  0  0  0  0
 36 74  1  0  0  0  0
 36 80  2  0  0  0  0
 37 40  1  0  0  0  0
 38 47  1  0  0  0  0
 39 69  1  0  0  0  0
 40 42  1  0  0  0  0
 41 43  1  0  0  0  0
 41 44  1  0  0  0  0
 42 46  1  0  0  0  0
 43 48  1  0  0  0  0
 44 70  1  0  0  0  0
 45 48  1  0  0  0  0
 45 70  1  0  0  0  0
 46 73  1  0  0  0  0
 47 69  1  0  0  0  0
 48 68  1  0  0  0  0
 50 61  1  0  0  0  0
 51 62  1  0  0  0  0
 52 62  1  0  0  0  0
 53 63  1  0  0  0  0
 54 63  1  0  0  0  0
 55 64  1  0  0  0  0
 56 64  1  0  0  0  0
 57 64  1  0  0  0  0
 58 75  1  0  0  0  0
 59 62  1  0  0  0  0
 59 82  1  0  0  0  0
 60 64  1  0  0  0  0
 60 74  1  0  0  0  0
 61 75  1  0  0  0  0
 66 68  1  0  0  0  0
M  CHG  1  75   1
M  ISO  4  35 100  59 101  63 100  82 101
M  END
> <Batch ID>
0069

> <Smiles>
CNC(C)C(=O)NC(C(=O)N1Cc2cc([101O:1][101CH2:1]C(C)(C)c3cnc([100C:0](C)(C)[100C:0](=O)N4CCCC(n5nc(-c6ccc(Oc7ccc(F)cc7F)cc6)c(C(N)=O)c5N)C4)nc3C)ccc2CC1C(=O)NC1CCCc2ccccc21)C(C)(C)C

> <Shape>
0.280

> <Color>
0.070

> <Negative vol penalty>
0.000

$$$$

  -OEChem-04052318173D

 86 94  0     1  0  0  0  0  0999 V2000
  -32.2344  -14.6121   19.9478 C   0  0  0  0  0  0  0  0  0  0  0  0
  -31.3738  -15.6948   20.0984 C   0  0  0  0  0  0  0  0  0  0  0  0
  -29.0589  -26.7305   18.4142 C   0  0  0  0  0  0  0  0  0  0  0  0
  -27.2067  -25.1800   18.3681 C   0  0  0  0  0  0  0  0  0  0  0  0
  -31.7161  -13.3361   19.7304 C   0  0  0  0  0  0  0  0  0  0  0  0
  -29.9944  -15.5023   20.0306 C   0  0  0  0  0  0  0  0  0  0  0  0
  -25.6988  -18.4984   23.2049 C   0  0  0  0  0  0  0  0  0  0  0  0
  -29.9515  -25.6619   18.4973 C   0  0  0  0  0  0  0  0  0  0  0  0
  -28.0993  -24.1113   18.4512 C   0  0  0  0  0  0  0  0  0  0  0  0
  -24.8704  -19.5719   22.8804 C   0  0  0  0  0  0  0  0  0  0  0  0
  -29.9178  -22.5645   20.8452 C   0  0  0  0  0  0  0  0  0  0  0  0
  -29.6176  -21.5375   21.7401 C   0  0  0  0  0  0  0  0  0  0  0  0
  -23.1084  -18.0294   22.3013 C   0  0  0  0  0  0  0  0  0  0  0  0
  -29.5692  -19.9588   19.9119 C   0  0  0  0  0  0  0  0  0  0  0  0
  -20.1141  -25.9991   21.6219 C   0  0  0  0  0  0  0  0  0  0  0  0
  -27.6865  -26.4896   18.3497 C   0  0  0  0  0  0  0  0  0  0  0  0
  -26.2789  -28.2071   17.0942 C   0  0  0  0  0  0  0  0  0  0  0  0
  -30.3294  -13.1264   19.6695 C   0  0  0  0  0  0  0  0  0  0  0  0
  -25.2410  -17.1798   23.0695 C   0  0  0  0  0  0  0  0  0  0  0  0
  -29.4571  -14.2225   19.8109 C   0  0  0  0  0  0  0  0  0  0  0  0
  -23.9320  -16.9410   22.6272 C   0  0  0  0  0  0  0  0  0  0  0  0
  -29.4717  -24.3523   18.5158 C   0  0  0  0  0  0  0  0  0  0  0  0
  -23.5761  -19.3374   22.4258 C   0  0  0  0  0  0  0  0  0  0  0  0
  -30.0436  -22.2887   19.4837 C   0  0  0  0  0  0  0  0  0  0  0  0
  -29.4433  -20.2346   21.2734 C   0  0  0  0  0  0  0  0  0  0  0  0
  -29.8693  -20.9858   19.0170 C   0  0  0  0  0  0  0  0  0  0  0  0
  -26.7640  -27.5931   18.2644 C   0  0  0  0  0  0  0  0  0  0  0  0
  -19.8464  -24.7783   22.2700 C   0  0  0  0  0  0  0  0  0  0  0  0
  -20.1218  -26.9296   22.6321 C   0  0  0  0  0  0  0  0  0  0  0  0
  -25.4394  -29.1952   17.5476 C   0  0  0  0  0  0  0  0  0  0  0  0
  -26.5617  -27.9108   15.7202 C   0  0  0  0  0  0  0  0  0  0  0  0
  -26.1184  -14.6685   21.3297 C   0  0  0  0  0  0  0  0  0  0  0  0
  -23.8672  -13.1463   23.1010 C   0  0  0  0  0  0  0  0  0  0  0  0
  -21.0313  -13.3614   24.9873 C   0  0  0  0  0  0  0  0  0  0  0  0
  -22.3192  -29.8891   22.6106 C   0  0  0  0  0  0  0  0  0  0  0  0
  -29.8172  -11.7365   19.3855 C   0  0  0  0  0  0  0  0  0  0  0  0
  -26.1379  -16.0336   23.4491 C   0  0  0  0  0  0  0  0  0  0  0  0
  -23.3858  -15.5448   22.4837 C   0  0  0  0  0  0  0  0  0  0  0  0
  -28.3343  -11.5576   19.7006 C   0  0  0  0  0  0  0  0  0  0  0  0
  -24.7610  -32.1119   21.2790 C   0  0  0  0  0  0  0  0  0  0  0  0
  -27.5245  -12.7206   19.1363 C   0  0  0  0  0  0  0  0  0  0  0  0
  -25.5075  -31.2612   20.2498 C   0  0  0  0  0  0  0  0  0  0  0  0
  -24.3578  -31.2923   22.5027 C   0  0  0  0  0  0  0  0  0  0  0  0
  -24.3393  -29.2168   21.1740 C   0  0  0  0  0  0  0  0  0  0  0  0
  -27.9543  -14.0501   19.7683 C   0  0  1  0  0  0  0  0  0  0  0  0
  -25.7419  -14.7192   22.7834 C   0  0  1  0  0  0  0  0  0  0  0  0
  -24.7176  -29.9866   19.8970 C   0  0  2  0  0  0  0  0  0  0  0  0
  -19.3148  -29.1481   21.7441 C   0  0  0  0  0  0  0  0  0  0  0  0
  -19.4062  -11.9431   26.2698 C   0  0  0  0  0  0  0  0  0  0  0  0
  -22.6102  -12.2203   20.4795 C   0  0  0  0  0  0  0  0  0  0  0  0
  -20.5348  -11.6480   21.7575 C   0  0  0  0  0  0  0  0  0  0  0  0
  -22.6779  -10.4813   22.2755 C   0  0  0  0  0  0  0  0  0  0  0  0
  -18.6403  -27.8215   25.1787 C   0  0  0  0  0  0  0  0  0  0  0  0
  -21.1153  -27.4385   25.5062 C   0  0  0  0  0  0  0  0  0  0  0  0
  -19.4683  -25.7143   26.2018 C   0  0  0  0  0  0  0  0  0  0  0  0
  -21.6459  -14.7498   27.5277 C   0  0  0  0  0  0  0  0  0  0  0  0
  -19.7209  -23.4130   21.6423 C   0  0  0  0  0  0  0  0  0  0  0  0
  -21.0441  -22.6435   21.5642 C   0  0  0  0  0  0  0  0  0  0  0  0
  -21.6373  -22.3316   22.9388 C   0  0  0  0  0  0  0  0  0  0  0  0
  -22.9690  -21.6027   22.8207 C   0  0  0  0  0  0  0  0  0  1  0  0
  -20.3437  -28.3869   22.6047 C   0  0  2  0  0  0  0  0  0  0  0  0
  -22.3849  -12.8972   22.9608 C   0  0  1  0  0  0  0  0  0  0  0  0
  -20.6761  -12.7766   26.3424 C   0  0  2  0  0  0  0  0  0  0  0  0
  -22.0626  -11.8381   21.8691 C   0  0  0  0  0  0  0  0  0  0  0  0
  -19.7754  -26.7755   25.1162 C   0  0  0  0  0  0  0  0  0  0  0  0
  -26.2736  -28.1450   19.3775 N   0  0  0  0  0  0  0  0  0  0  0  0
  -19.6951  -24.9175   23.5897 N   0  0  0  0  0  0  0  0  0  0  0  0
  -19.8684  -26.2366   23.7792 N   0  0  0  0  0  0  0  0  0  0  0  0
  -25.4717  -29.1162   18.9088 N   0  0  0  0  0  0  0  0  0  0  0  0
  -24.3034  -14.4571   22.8613 N   0  0  0  0  0  0  0  0  0  0  0  0
  -23.6107  -30.0985   22.0994 N   0  0  0  0  0  0  0  0  0  0  0  0
  -24.6842  -30.1151   16.9106 N   0  0  0  0  0  0  0  0  0  0  0  0
  -27.4468  -26.8632   15.4311 N   0  0  0  0  0  0  0  0  0  0  0  0
  -27.3912  -14.1845   21.0947 N   0  0  0  0  0  0  0  0  0  0  0  0
  -21.9018  -12.5486   24.2926 N   0  0  0  0  0  0  0  0  0  0  0  0
  -21.6785  -28.7366   22.1724 N   0  0  0  0  0  0  0  0  0  0  0  0
  -20.4671  -13.8658   27.3379 N   0  3  0  0  0  0  0  0  0  0  0  0
  -26.0576  -28.5665   14.7771 O   0  0  0  0  0  0  0  0  0  0  0  0
  -25.3131  -15.0394   20.4837 O   0  0  0  0  0  0  0  0  0  0  0  0
  -24.6098  -12.2139   23.4186 O   0  0  0  0  0  0  0  0  0  0  0  0
  -20.5786  -14.4304   24.5838 O   0  0  0  0  0  0  0  0  0  0  0  0
  -21.7752  -30.6739   23.3948 O   0  0  0  0  0  0  0  0  0  0  0  0
  -30.3424  -23.3092   18.5966 O   0  0  0  0  0  0  0  0  0  0  0  0
  -22.7657  -20.3834   22.1078 O   0  0  0  0  0  0  0  0  0  1  0  0
  -29.1566  -19.2482   22.1331 F   0  0  0  0  0  0  0  0  0  0  0  0
  -29.9900  -20.7145   17.7103 F   0  0  0  0  0  0  0  0  0  0  0  0
  1  2  1  0  0  0  0
  1  5  2  0  0  0  0
  2  6  2  0  0  0  0
  3  8  2  0  0  0  0
  3 16  1  0  0  0  0
  4  9  1  0  0  0  0
  4 16  2  0  0  0  0
  5 18  1  0  0  0  0
  6 20  1  0  0  0  0
  7 10  2  0  0  0  0
  7 19  1  0  0  0  0
  8 22  1  0  0  0  0
  9 22  2  0  0  0  0
 10 23  1  0  0  0  0
 11 12  2  0  0  0  0
 11 24  1  0  0  0  0
 12 25  1  0  0  0  0
 13 21  1  0  0  0  0
 13 23  2  0  0  0  0
 14 25  2  0  0  0  0
 14 26  1  0  0  0  0
 15 28  1  0  0  0  0
 15 29  2  0  0  0  0
 16 27  1  0  0  0  0
 17 27  1  0  0  0  0
 17 30  2  0  0  0  0
 17 31  1  0  0  0  0
 18 20  2  0  0  0  0
 18 36  1  0  0  0  0
 19 21  2  0  0  0  0
 19 37  1  0  0  0  0
 20 45  1  0  0  0  0
 21 38  1  0  0  0  0
 22 83  1  0  0  0  0
 23 84  1  0  0  0  0
 24 26  2  0  0  0  0
 24 83  1  0  0  0  0
 25 85  1  0  0  0  0
 26 86  1  0  0  0  0
 27 66  2  0  0  0  0
 28 57  1  0  0  0  0
 28 67  2  0  0  0  0
 29 61  1  0  0  0  0
 29 68  1  0  0  0  0
 30 69  1  0  0  0  0
 30 72  1  0  0  0  0
 31 73  1  0  0  0  0
 31 78  2  0  0  0  0
 32 46  1  0  0  0  0
 32 74  1  0  0  0  0
 32 79  2  0  0  0  0
 33 62  1  0  0  0  0
 33 70  1  0  0  0  0
 33 80  2  0  0  0  0
 34 63  1  0  0  0  0
 34 75  1  0  0  0  0
 34 81  2  0  0  0  0
 35 71  1  0  0  0  0
 35 76  1  0  0  0  0
 35 82  2  0  0  0  0
 36 39  1  0  0  0  0
 37 46  1  0  0  0  0
 38 70  1  0  0  0  0
 39 41  1  0  0  0  0
 40 42  1  0  0  0  0
 40 43  1  0  0  0  0
 41 45  1  0  0  0  0
 42 47  1  0  0  0  0
 43 71  1  0  0  0  0
 44 47  1  0  0  0  0
 44 71  1  0  0  0  0
 45 74  1  0  0  0  0
 46 70  1  0  0  0  0
 47 69  1  0  0  0  0
 48 61  1  0  0  0  0
 49 63  1  0  0  0  0
 50 64  1  0  0  0  0
 51 64  1  0  0  0  0
 52 64  1  0  0  0  0
 53 65  1  0  0  0  0
 54 65  1  0  0  0  0
 55 65  1  0  0  0  0
 56 77  1  0  0  0  0
 57 58  1  0  0  0  0
 58 59  1  0  0  0  0
 59 60  1  0  0  0  0
 60 84  1  0  0  0  0
 61 76  1  0  0  0  0
 62 64  1  0  0  0  0
 62 75  1  0  0  0  0
 63 77  1  0  0  0  0
 65 68  1  0  0  0  0
 66 69  1  0  0  0  0
 67 68  1  0  0  0  0
M  CHG  1  77   1
M  ISO  4  35 100  60 101  76 100  84 101
M  END
> <Batch ID>
0069

> <Smiles>
CNC(C)C(=O)NC(C(=O)N1Cc2cc([101O:1][101CH2:1]CCCc3cc(C(C)[100NH:0][100C:0](=O)N4CCCC(n5nc(-c6ccc(Oc7ccc(F)cc7F)cc6)c(C(N)=O)c5N)C4)n(C(C)(C)C)n3)ccc2CC1C(=O)NC1CCCc2ccccc21)C(C)(C)C

> <Shape>
0.236

> <Color>
0.066

> <Negative vol penalty>
0.000

$$$$

  -OEChem-04052318173D

 84 92  0     1  0  0  0  0  0999 V2000
  -28.2603   -9.9576   20.1803 C   0  0  0  0  0  0  0  0  0  0  0  0
  -28.6470  -11.2381   19.7978 C   0  0  0  0  0  0  0  0  0  0  0  0
  -19.5333  -28.2788   23.6210 C   0  0  0  0  0  0  0  0  0  0  0  0
  -20.1847  -26.5537   22.0599 C   0  0  0  0  0  0  0  0  0  0  0  0
  -26.9441   -9.7159   20.5714 C   0  0  0  0  0  0  0  0  0  0  0  0
  -27.7174  -12.2774   19.8053 C   0  0  0  0  0  0  0  0  0  0  0  0
  -29.5616  -16.5189   21.8676 C   0  0  0  0  0  0  0  0  0  0  0  0
  -18.1959  -27.9146   23.4654 C   0  0  0  0  0  0  0  0  0  0  0  0
  -18.8472  -26.1894   21.9044 C   0  0  0  0  0  0  0  0  0  0  0  0
  -30.4106  -17.2937   21.0784 C   0  0  0  0  0  0  0  0  0  0  0  0
  -16.5401  -24.4014   23.6075 C   0  0  0  0  0  0  0  0  0  0  0  0
  -16.2335  -23.0409   23.6315 C   0  0  0  0  0  0  0  0  0  0  0  0
  -28.5767  -18.7770   20.5723 C   0  0  0  0  0  0  0  0  0  0  0  0
  -15.3312  -23.2047   21.3963 C   0  0  0  0  0  0  0  0  0  0  0  0
  -30.6493  -26.7477   19.5097 C   0  0  0  0  0  0  0  0  0  0  0  0
  -29.9504  -25.2177   21.5828 C   0  0  0  0  0  0  0  0  0  0  0  0
  -20.5277  -27.5984   22.9182 C   0  0  0  0  0  0  0  0  0  0  0  0
  -22.8249  -27.4678   24.0197 C   0  0  0  0  0  0  0  0  0  0  0  0
  -26.0002  -10.7547   20.5929 C   0  0  0  0  0  0  0  0  0  0  0  0
  -28.2090  -16.8618   22.0065 C   0  0  0  0  0  0  0  0  0  0  0  0
  -26.3869  -12.0490   20.1958 C   0  0  0  0  0  0  0  0  0  0  0  0
  -27.7133  -18.0064   21.3659 C   0  0  0  0  0  0  0  0  0  0  0  0
  -17.8528  -26.8699   22.6072 C   0  0  0  0  0  0  0  0  0  0  0  0
  -29.9175  -18.4212   20.4283 C   0  0  0  0  0  0  0  0  0  0  0  0
  -16.2422  -25.1636   22.4779 C   0  0  0  0  0  0  0  0  0  0  0  0
  -15.6291  -22.4425   22.5259 C   0  0  0  0  0  0  0  0  0  0  0  0
  -15.6378  -24.5653   21.3723 C   0  0  0  0  0  0  0  0  0  0  0  0
  -21.9094  -27.9745   23.0780 C   0  0  0  0  0  0  0  0  0  0  0  0
  -30.0322  -27.2885   20.6161 C   0  0  0  0  0  0  0  0  0  0  0  0
  -30.5668  -24.6766   20.4761 C   0  0  0  0  0  0  0  0  0  0  0  0
  -23.9929  -28.1423   23.7604 C   0  0  0  0  0  0  0  0  0  0  0  0
  -22.6364  -26.4760   25.0378 C   0  0  0  0  0  0  0  0  0  0  0  0
  -25.4524  -15.4550   21.2814 C   0  0  0  0  0  0  0  0  0  0  0  0
  -24.1898  -17.9959   22.8536 C   0  0  0  0  0  0  0  0  0  0  0  0
  -24.5548  -21.2184   23.9163 C   0  0  0  0  0  0  0  0  0  0  0  0
  -27.7583  -30.1491   20.1632 C   0  0  0  0  0  0  0  0  0  0  0  0
  -24.5774  -10.4350   20.9780 C   0  0  0  0  0  0  0  0  0  0  0  0
  -27.3124  -16.0308   22.8828 C   0  0  0  0  0  0  0  0  0  0  0  0
  -26.2738  -18.4290   21.4990 C   0  0  0  0  0  0  0  0  0  0  0  0
  -23.7460  -11.6697   21.3167 C   0  0  0  0  0  0  0  0  0  0  0  0
  -24.8925  -32.1576   20.8186 C   0  0  0  0  0  0  0  0  0  0  0  0
  -23.9493  -12.7552   20.2645 C   0  0  0  0  0  0  0  0  0  0  0  0
  -23.9347  -31.2052   21.5366 C   0  0  0  0  0  0  0  0  0  0  0  0
  -25.6900  -31.4419   19.7306 C   0  0  0  0  0  0  0  0  0  0  0  0
  -25.4546  -29.2857   20.9006 C   0  0  0  0  0  0  0  0  0  0  0  0
  -25.4136  -13.2076   20.2143 C   0  0  1  0  0  0  0  0  0  0  0  0
  -25.8337  -16.1826   22.5395 C   0  0  1  0  0  0  0  0  0  0  0  0
  -24.6685  -29.9494   22.0443 C   0  0  2  0  0  0  0  0  0  0  0  0
  -31.9648  -29.3582   21.8079 C   0  0  0  0  0  0  0  0  0  0  0  0
  -23.3379  -23.0375   25.1441 C   0  0  0  0  0  0  0  0  0  0  0  0
  -22.4769  -18.5147   20.3824 C   0  0  0  0  0  0  0  0  0  0  0  0
  -22.0178  -20.8110   21.2684 C   0  0  0  0  0  0  0  0  0  0  0  0
  -21.2823  -18.8076   22.5600 C   0  0  0  0  0  0  0  0  0  0  0  0
  -26.6153  -21.3242   26.0380 C   0  0  0  0  0  0  0  0  0  0  0  0
  -30.4446  -29.4421   21.8708 C   0  0  0  0  0  0  0  0  0  0  0  0
  -31.7337  -21.3610   19.3736 C   0  0  0  0  0  0  0  0  0  0  0  0
  -30.4477  -20.5715   19.5616 C   0  0  0  0  0  0  0  0  0  1  0  0
  -31.4715  -22.8534   19.2460 C   0  0  0  0  0  0  0  0  0  0  0  0
  -29.7396  -28.7470   20.6806 C   0  0  2  0  0  0  0  0  0  0  0  0
  -23.7422  -19.3826   22.4589 C   0  0  1  0  0  0  0  0  0  0  0  0
  -24.3036  -21.8689   25.2647 C   0  0  2  0  0  0  0  0  0  0  0  0
  -22.4065  -19.3702   21.6631 C   0  0  0  0  0  0  0  0  0  0  0  0
  -29.6719  -26.5333   21.6727 N   0  0  0  0  0  0  0  0  0  0  0  0
  -30.9274  -25.4320   19.4197 N   0  0  0  0  0  0  0  0  0  0  0  0
  -22.4493  -28.8997   22.2801 N   0  0  0  0  0  0  0  0  0  0  0  0
  -23.7167  -28.9796   22.7199 N   0  0  0  0  0  0  0  0  0  0  0  0
  -25.4353  -17.5804   22.3618 N   0  0  0  0  0  0  0  0  0  0  0  0
  -26.3629  -30.2613   20.2778 N   0  0  0  0  0  0  0  0  0  0  0  0
  -25.2191  -28.0949   24.3233 N   0  0  0  0  0  0  0  0  0  0  0  0
  -21.3731  -25.8830   25.1671 N   0  0  0  0  0  0  0  0  0  0  0  0
  -25.7059  -14.0971   21.3179 N   0  0  0  0  0  0  0  0  0  0  0  0
  -23.6966  -20.1629   23.6907 N   0  0  0  0  0  0  0  0  0  0  0  0
  -28.3168  -29.0022   20.7141 N   0  0  0  0  0  0  0  0  0  0  0  0
  -25.5815  -22.3730   25.8427 N   0  3  0  0  0  0  0  0  0  0  0  0
  -23.5564  -26.1378   25.8207 O   0  0  0  0  0  0  0  0  0  0  0  0
  -24.9629  -16.0791   20.3473 O   0  0  0  0  0  0  0  0  0  0  0  0
  -23.4643  -17.3095   23.5776 O   0  0  0  0  0  0  0  0  0  0  0  0
  -25.4227  -21.6099   23.1392 O   0  0  0  0  0  0  0  0  0  0  0  0
  -28.4555  -31.0098   19.6155 O   0  0  0  0  0  0  0  0  0  0  0  0
  -16.5479  -26.5141   22.4553 O   0  0  0  0  0  0  0  0  0  0  0  0
  -30.7439  -19.1788   19.6569 O   0  0  0  0  0  0  0  0  0  1  0  0
  -30.8336  -23.3333   20.4218 O   0  0  0  0  0  0  0  0  0  0  0  0
  -15.3362  -21.1357   22.5485 F   0  0  0  0  0  0  0  0  0  0  0  0
  -15.3502  -25.2922   20.2838 F   0  0  0  0  0  0  0  0  0  0  0  0
  1  2  1  0  0  0  0
  1  5  2  0  0  0  0
  2  6  2  0  0  0  0
  3  8  2  0  0  0  0
  3 17  1  0  0  0  0
  4  9  1  0  0  0  0
  4 17  2  0  0  0  0
  5 19  1  0  0  0  0
  6 21  1  0  0  0  0
  7 10  2  0  0  0  0
  7 20  1  0  0  0  0
  8 23  1  0  0  0  0
  9 23  2  0  0  0  0
 10 24  1  0  0  0  0
 11 12  2  0  0  0  0
 11 25  1  0  0  0  0
 12 26  1  0  0  0  0
 13 22  1  0  0  0  0
 13 24  2  0  0  0  0
 14 26  2  0  0  0  0
 14 27  1  0  0  0  0
 15 29  1  0  0  0  0
 15 64  2  0  0  0  0
 16 30  2  0  0  0  0
 16 63  1  0  0  0  0
 17 28  1  0  0  0  0
 18 28  1  0  0  0  0
 18 31  2  0  0  0  0
 18 32  1  0  0  0  0
 19 21  2  0  0  0  0
 19 37  1  0  0  0  0
 20 22  2  0  0  0  0
 20 38  1  0  0  0  0
 21 46  1  0  0  0  0
 22 39  1  0  0  0  0
 23 80  1  0  0  0  0
 24 81  1  0  0  0  0
 25 27  2  0  0  0  0
 25 80  1  0  0  0  0
 26 83  1  0  0  0  0
 27 84  1  0  0  0  0
 28 65  2  0  0  0  0
 29 59  1  0  0  0  0
 29 63  2  0  0  0  0
 30 64  1  0  0  0  0
 30 82  1  0  0  0  0
 31 66  1  0  0  0  0
 31 69  1  0  0  0  0
 32 70  1  0  0  0  0
 32 75  2  0  0  0  0
 33 47  1  0  0  0  0
 33 71  1  0  0  0  0
 33 76  2  0  0  0  0
 34 60  1  0  0  0  0
 34 67  1  0  0  0  0
 34 77  2  0  0  0  0
 35 61  1  0  0  0  0
 35 72  1  0  0  0  0
 35 78  2  0  0  0  0
 36 68  1  0  0  0  0
 36 73  1  0  0  0  0
 36 79  2  0  0  0  0
 37 40  1  0  0  0  0
 38 47  1  0  0  0  0
 39 67  1  0  0  0  0
 40 42  1  0  0  0  0
 41 43  1  0  0  0  0
 41 44  1  0  0  0  0
 42 46  1  0  0  0  0
 43 48  1  0  0  0  0
 44 68  1  0  0  0  0
 45 48  1  0  0  0  0
 45 68  1  0  0  0  0
 46 71  1  0  0  0  0
 47 67  1  0  0  0  0
 48 66  1  0  0  0  0
 49 55  1  0  0  0  0
 50 61  1  0  0  0  0
 51 62  1  0  0  0  0
 52 62  1  0  0  0  0
 53 62  1  0  0  0  0
 54 74  1  0  0  0  0
 55 59  1  0  0  0  0
 56 57  1  0  0  0  0
 56 58  1  0  0  0  0
 57 81  1  0  0  0  0
 58 82  1  0  0  0  0
 59 73  1  0  0  0  0
 60 62  1  0  0  0  0
 60 72  1  0  0  0  0
 61 74  1  0  0  0  0
 65 66  1  0  0  0  0
M  CHG  1  74   1
M  ISO  4  36 100  57 101  73 100  81 101
M  END
> <Batch ID>
0069

> <Smiles>
CCC([100NH:0][100C:0](=O)N1CCCC(n2nc(-c3ccc(Oc4ccc(F)cc4F)cc3)c(C(N)=O)c2N)C1)c1cnc(OCC[101CH2:1][101O:1]c2ccc3c(c2)CN(C(=O)C(NC(=O)C(C)NC)C(C)(C)C)C(C(=O)NC2CCCc4ccccc42)C3)cn1

> <Shape>
0.230

> <Color>
0.066

> <Negative vol penalty>
0.000

$$$$

  -OEChem-04052318173D

 88 96  0     1  0  0  0  0  0999 V2000
  -29.4745  -36.7722   23.8160 C   0  0  0  0  0  0  0  0  0  0  0  0
  -29.5882  -35.9177   22.7240 C   0  0  0  0  0  0  0  0  0  0  0  0
  -27.1539  -13.0451   21.0943 C   0  0  0  0  0  0  0  0  0  0  0  0
  -24.9458  -13.7333   20.3958 C   0  0  0  0  0  0  0  0  0  0  0  0
  -28.8550  -36.3300   24.9841 C   0  0  0  0  0  0  0  0  0  0  0  0
  -29.0834  -34.6201   22.8000 C   0  0  0  0  0  0  0  0  0  0  0  0
  -26.5282  -31.3926   18.2657 C   0  0  0  0  0  0  0  0  0  0  0  0
  -26.6040  -11.9402   21.7441 C   0  0  0  0  0  0  0  0  0  0  0  0
  -24.3959  -12.6283   21.0456 C   0  0  0  0  0  0  0  0  0  0  0  0
  -27.0314  -30.4088   17.4155 C   0  0  0  0  0  0  0  0  0  0  0  0
  -24.0378   -9.3195   20.4592 C   0  0  0  0  0  0  0  0  0  0  0  0
  -23.0691   -8.5840   19.7765 C   0  0  0  0  0  0  0  0  0  0  0  0
  -28.8170  -24.1438   21.3212 C   0  0  0  0  0  0  0  0  0  0  0  0
  -29.8698  -24.5566   20.5238 C   0  0  0  0  0  0  0  0  0  0  0  0
  -26.1539  -28.7037   18.8790 C   0  0  0  0  0  0  0  0  0  0  0  0
  -21.4753   -9.0556   21.5300 C   0  0  0  0  0  0  0  0  0  0  0  0
  -26.3248  -13.9417   20.4201 C   0  0  0  0  0  0  0  0  0  0  0  0
  -27.3355  -15.1519   18.4147 C   0  0  0  0  0  0  0  0  0  0  0  0
  -28.3337  -35.0294   25.0711 C   0  0  0  0  0  0  0  0  0  0  0  0
  -25.8424  -31.0387   19.4365 C   0  0  0  0  0  0  0  0  0  0  0  0
  -28.4575  -34.1596   23.9709 C   0  0  0  0  0  0  0  0  0  0  0  0
  -25.6408  -29.6849   19.7410 C   0  0  0  0  0  0  0  0  0  0  0  0
  -25.2250  -11.7318   21.7198 C   0  0  0  0  0  0  0  0  0  0  0  0
  -26.8468  -29.0641   17.7236 C   0  0  0  0  0  0  0  0  0  0  0  0
  -23.7254   -9.9230   21.6774 C   0  0  0  0  0  0  0  0  0  0  0  0
  -21.7878   -8.4520   20.3119 C   0  0  0  0  0  0  0  0  0  0  0  0
  -22.4441   -9.7911   22.2127 C   0  0  0  0  0  0  0  0  0  0  0  0
  -26.8922  -15.0836   19.7492 C   0  0  0  0  0  0  0  0  0  0  0  0
  -27.8924  -23.2776   20.7732 C   0  0  0  0  0  0  0  0  0  0  0  0
  -29.9287  -24.0757   19.2312 C   0  0  0  0  0  0  0  0  0  0  0  0
  -27.7832  -16.4420   18.2673 C   0  0  0  0  0  0  0  0  0  0  0  0
  -27.3418  -14.1398   17.3993 C   0  0  0  0  0  0  0  0  0  0  0  0
  -26.3218  -31.5033   22.5442 C   0  0  0  0  0  0  0  0  0  0  0  0
  -23.3939  -30.1312   22.8038 C   0  0  0  0  0  0  0  0  0  0  0  0
  -26.3179  -21.4247   21.1485 C   0  0  0  0  0  0  0  0  0  0  0  0
  -21.0196  -28.0911   21.4446 C   0  0  0  0  0  0  0  0  0  0  0  0
  -27.7147  -34.5809   26.3712 C   0  0  0  0  0  0  0  0  0  0  0  0
  -25.2826  -32.1119   20.3294 C   0  0  0  0  0  0  0  0  0  0  0  0
  -24.8939  -29.2524   20.9754 C   0  0  0  0  0  0  0  0  0  0  0  0
  -26.8728  -33.3143   26.2400 C   0  0  0  0  0  0  0  0  0  0  0  0
  -29.6674  -20.0663   20.7449 C   0  0  0  0  0  0  0  0  0  0  0  0
  -27.6190  -32.2588   25.4301 C   0  0  0  0  0  0  0  0  0  0  0  0
  -29.3656  -18.6222   20.3466 C   0  0  0  0  0  0  0  0  0  0  0  0
  -28.6458  -20.5973   21.7471 C   0  0  0  0  0  0  0  0  0  0  0  0
  -26.9264  -19.0413   20.8828 C   0  0  0  0  0  0  0  0  0  0  0  0
  -27.9004  -32.7531   24.0060 C   0  0  1  0  0  0  0  0  0  0  0  0
  -25.0472  -31.6365   21.7597 C   0  0  1  0  0  0  0  0  0  0  0  0
  -27.9165  -18.4781   19.8496 C   0  0  2  0  0  0  0  0  0  0  0  0
  -32.5087  -22.3889   18.9142 C   0  0  0  0  0  0  0  0  0  0  0  0
  -18.7478  -27.1311   21.9079 C   0  0  0  0  0  0  0  0  0  0  0  0
  -27.0090  -22.6098   23.1143 C   0  0  0  0  0  0  0  0  0  0  0  0
  -32.0941  -25.4704   18.9654 C   0  0  0  0  0  0  0  0  0  0  0  0
  -24.6331  -28.1536   24.7695 C   0  0  0  0  0  0  0  0  0  0  0  0
  -22.6237  -26.6928   24.4588 C   0  0  0  0  0  0  0  0  0  0  0  0
  -22.3634  -28.9822   25.4146 C   0  0  0  0  0  0  0  0  0  0  0  0
  -19.8535  -29.3971   19.0585 C   0  0  0  0  0  0  0  0  0  0  0  0
  -31.8721  -23.2375   17.8165 C   0  0  0  0  0  0  0  0  0  0  0  0
  -29.7419  -26.5080   17.2592 C   0  0  0  0  0  0  0  0  0  0  0  0
  -29.3171  -27.1448   15.9352 C   0  0  0  0  0  0  0  0  0  0  0  0
  -30.5110  -25.1996   17.0191 C   0  0  0  0  0  0  0  0  0  0  0  0
  -25.4719  -23.7059   21.4266 C   0  0  0  0  0  0  0  0  0  0  0  0
  -28.5160  -28.4201   16.1567 C   0  0  0  0  0  0  0  0  0  1  0  0
  -22.8852  -28.7179   22.9550 C   0  0  1  0  0  0  0  0  0  0  0  0
  -19.5231  -28.2691   21.2625 C   0  0  2  0  0  0  0  0  0  0  0  0
  -26.7384  -22.8043   21.5886 C   0  0  1  0  0  0  0  0  0  0  0  0
  -31.0827  -24.5012   18.3025 C   0  0  1  0  0  0  0  0  0  0  0  0
  -23.1421  -28.1444   24.3771 C   0  0  0  0  0  0  0  0  0  0  0  0
  -27.0447  -16.2384   20.4029 N   0  0  0  0  0  0  0  0  0  0  0  0
  -27.9748  -22.8230   19.5048 N   0  0  0  0  0  0  0  0  0  0  0  0
  -29.0099  -23.2284   18.7213 N   0  0  0  0  0  0  0  0  0  0  0  0
  -27.5889  -17.0444   19.4754 N   0  0  0  0  0  0  0  0  0  0  0  0
  -24.3711  -30.3390   21.8201 N   0  0  0  0  0  0  0  0  0  0  0  0
  -27.2771  -20.4166   21.2486 N   0  0  0  0  0  0  0  0  0  0  0  0
  -28.3204  -17.1084   17.2234 N   0  0  0  0  0  0  0  0  0  0  0  0
  -26.8452  -12.8689   17.7195 N   0  0  0  0  0  0  0  0  0  0  0  0
  -26.7061  -32.6608   23.1938 N   0  0  0  0  0  0  0  0  0  0  0  0
  -21.4790  -28.7466   22.5673 N   0  0  0  0  0  0  0  0  0  0  0  0
  -25.7468  -25.1001   21.8589 N   0  3  0  0  0  0  0  0  0  0  0  0
  -19.1789  -28.3096   19.8130 N   0  3  0  0  0  0  0  0  0  0  0  0
  -27.7901  -14.3513   16.2469 O   0  0  0  0  0  0  0  0  0  0  0  0
  -26.9119  -30.4295   22.5603 O   0  0  0  0  0  0  0  0  0  0  0  0
  -22.9359  -31.0194   23.5270 O   0  0  0  0  0  0  0  0  0  0  0  0
  -25.1719  -21.2507   20.7261 O   0  0  0  0  0  0  0  0  0  0  0  0
  -21.7112  -27.4330   20.6706 O   0  0  0  0  0  0  0  0  0  0  0  0
  -24.6880  -10.6535   22.3536 O   0  0  0  0  0  0  0  0  0  0  0  0
  -27.3375  -28.1019   16.8958 O   0  0  0  0  0  0  0  0  0  1  0  0
  -20.8572   -7.7470   19.6554 F   0  0  0  0  0  0  0  0  0  0  0  0
  -22.1377  -10.3696   23.3820 F   0  0  0  0  0  0  0  0  0  0  0  0
  1  2  1  0  0  0  0
  1  5  2  0  0  0  0
  2  6  2  0  0  0  0
  3  8  2  0  0  0  0
  3 17  1  0  0  0  0
  4  9  1  0  0  0  0
  4 17  2  0  0  0  0
  5 19  1  0  0  0  0
  6 21  1  0  0  0  0
  7 10  2  0  0  0  0
  7 20  1  0  0  0  0
  8 23  1  0  0  0  0
  9 23  2  0  0  0  0
 10 24  1  0  0  0  0
 11 12  2  0  0  0  0
 11 25  1  0  0  0  0
 12 26  1  0  0  0  0
 13 14  2  0  0  0  0
 13 29  1  0  0  0  0
 14 30  1  0  0  0  0
 15 22  1  0  0  0  0
 15 24  2  0  0  0  0
 16 26  2  0  0  0  0
 16 27  1  0  0  0  0
 17 28  1  0  0  0  0
 18 28  1  0  0  0  0
 18 31  2  0  0  0  0
 18 32  1  0  0  0  0
 19 21  2  0  0  0  0
 19 37  1  0  0  0  0
 20 22  2  0  0  0  0
 20 38  1  0  0  0  0
 21 46  1  0  0  0  0
 22 39  1  0  0  0  0
 23 85  1  0  0  0  0
 24 86  1  0  0  0  0
 25 27  2  0  0  0  0
 25 85  1  0  0  0  0
 26 87  1  0  0  0  0
 27 88  1  0  0  0  0
 28 68  2  0  0  0  0
 29 65  1  0  0  0  0
 29 69  2  0  0  0  0
 30 66  1  0  0  0  0
 30 70  2  0  0  0  0
 31 71  1  0  0  0  0
 31 74  1  0  0  0  0
 32 75  1  0  0  0  0
 32 80  2  0  0  0  0
 33 47  1  0  0  0  0
 33 76  1  0  0  0  0
 33 81  2  0  0  0  0
 34 63  1  0  0  0  0
 34 72  1  0  0  0  0
 34 82  2  0  0  0  0
 35 65  1  0  0  0  0
 35 73  1  0  0  0  0
 35 83  2  0  0  0  0
 36 64  1  0  0  0  0
 36 77  1  0  0  0  0
 36 84  2  0  0  0  0
 37 40  1  0  0  0  0
 38 47  1  0  0  0  0
 39 72  1  0  0  0  0
 40 42  1  0  0  0  0
 41 43  1  0  0  0  0
 41 44  1  0  0  0  0
 42 46  1  0  0  0  0
 43 48  1  0  0  0  0
 44 73  1  0  0  0  0
 45 48  1  0  0  0  0
 45 73  1  0  0  0  0
 46 76  1  0  0  0  0
 47 72  1  0  0  0  0
 48 71  1  0  0  0  0
 49 57  1  0  0  0  0
 50 64  1  0  0  0  0
 51 65  1  0  0  0  0
 52 66  1  0  0  0  0
 53 67  1  0  0  0  0
 54 67  1  0  0  0  0
 55 67  1  0  0  0  0
 56 79  1  0  0  0  0
 57 66  1  0  0  0  0
 58 59  1  0  0  0  0
 58 60  1  0  0  0  0
 59 62  1  0  0  0  0
 60 66  1  0  0  0  0
 61 65  1  0  0  0  0
 61 78  1  0  0  0  0
 62 86  1  0  0  0  0
 63 67  1  0  0  0  0
 63 77  1  0  0  0  0
 64 79  1  0  0  0  0
 68 71  1  0  0  0  0
 69 70  1  0  0  0  0
M  CHG  2  78   1  79   1
M  ISO  4  35 100  62 101  65 100  86 101
M  END
> <Batch ID>
0069

> <Smiles>
CCC(C)(CCC[101CH2:1][101O:1]c1ccc2c(c1)CN(C(=O)C(NC(=O)C(C)NC)C(C)(C)C)C(C(=O)NC1CCCc3ccccc31)C2)c1ccc([100C:0](C)(CN)[100C:0](=O)N2CCCC(n3nc(-c4ccc(Oc5ccc(F)cc5F)cc4)c(C(N)=O)c3N)C2)nn1

> <Shape>
0.272

> <Color>
0.071

> <Negative vol penalty>
0.000

$$$$

  -OEChem-04052318173D

 86 94  0     1  0  0  0  0  0999 V2000
  -27.0163  -28.3867   18.7782 C   0  0  0  0  0  0  0  0  0  0  0  0
  -26.9119  -27.2273   19.5399 C   0  0  0  0  0  0  0  0  0  0  0  0
  -29.9236  -23.6803   20.1980 C   0  0  0  0  0  0  0  0  0  0  0  0
  -31.1616  -22.7461   18.3455 C   0  0  0  0  0  0  0  0  0  0  0  0
  -26.2408  -29.5008   19.0966 C   0  0  0  0  0  0  0  0  0  0  0  0
  -26.0327  -27.1817   20.6213 C   0  0  0  0  0  0  0  0  0  0  0  0
  -23.3412  -22.8942   20.7573 C   0  0  0  0  0  0  0  0  0  0  0  0
  -30.7665  -24.7917   20.2008 C   0  0  0  0  0  0  0  0  0  0  0  0
  -32.0045  -23.8575   18.3483 C   0  0  0  0  0  0  0  0  0  0  0  0
  -23.9829  -21.7546   21.2403 C   0  0  0  0  0  0  0  0  0  0  0  0
  -32.3696  -28.0439   20.4618 C   0  0  0  0  0  0  0  0  0  0  0  0
  -31.7813  -29.3037   20.5737 C   0  0  0  0  0  0  0  0  0  0  0  0
  -22.9076  -22.0623   23.3777 C   0  0  0  0  0  0  0  0  0  0  0  0
  -30.5439  -28.9067   18.5370 C   0  0  0  0  0  0  0  0  0  0  0  0
  -25.1856  -13.1112   22.3859 C   0  0  0  0  0  0  0  0  0  0  0  0
  -30.1212  -22.6575   19.2703 C   0  0  0  0  0  0  0  0  0  0  0  0
  -28.0529  -21.3521   18.5453 C   0  0  0  0  0  0  0  0  0  0  0  0
  -25.3446  -29.4656   20.1765 C   0  0  0  0  0  0  0  0  0  0  0  0
  -22.4849  -23.6338   21.5857 C   0  0  0  0  0  0  0  0  0  0  0  0
  -25.2455  -28.2968   20.9553 C   0  0  0  0  0  0  0  0  0  0  0  0
  -22.2542  -23.2094   22.9020 C   0  0  0  0  0  0  0  0  0  0  0  0
  -31.8069  -24.8803   19.2760 C   0  0  0  0  0  0  0  0  0  0  0  0
  -23.7685  -21.3401   22.5515 C   0  0  0  0  0  0  0  0  0  0  0  0
  -32.0451  -27.2155   19.3875 C   0  0  0  0  0  0  0  0  0  0  0  0
  -30.8685  -29.7350   19.6113 C   0  0  0  0  0  0  0  0  0  0  0  0
  -31.1322  -27.6469   18.4251 C   0  0  0  0  0  0  0  0  0  0  0  0
  -29.2512  -21.5089   19.2673 C   0  0  0  0  0  0  0  0  0  0  0  0
  -25.4036  -12.0238   21.5646 C   0  0  0  0  0  0  0  0  0  0  0  0
  -25.1874  -14.3414   21.7608 C   0  0  0  0  0  0  0  0  0  0  0  0
  -27.6109  -20.0960   18.8822 C   0  0  0  0  0  0  0  0  0  0  0  0
  -25.5866  -13.3722   19.7437 C   0  0  0  0  0  0  0  0  0  0  0  0
  -27.3979  -22.2605   17.6500 C   0  0  0  0  0  0  0  0  0  0  0  0
  -22.4663  -26.6074   22.7088 C   0  0  0  0  0  0  0  0  0  0  0  0
  -19.5505  -25.7468   23.8401 C   0  0  0  0  0  0  0  0  0  0  0  0
  -17.4427  -23.2447   24.8114 C   0  0  0  0  0  0  0  0  0  0  0  0
  -28.5799  -14.6735   19.7780 C   0  0  0  0  0  0  0  0  0  0  0  0
  -24.5619  -30.7106   20.5112 C   0  0  0  0  0  0  0  0  0  0  0  0
  -21.7794  -24.8456   21.0413 C   0  0  0  0  0  0  0  0  0  0  0  0
  -21.3286  -23.9569   23.8255 C   0  0  0  0  0  0  0  0  0  0  0  0
  -23.3805  -30.4551   21.4436 C   0  0  0  0  0  0  0  0  0  0  0  0
  -29.1813  -16.9092   22.4829 C   0  0  0  0  0  0  0  0  0  0  0  0
  -23.8042  -29.5709   22.6121 C   0  0  0  0  0  0  0  0  0  0  0  0
  -29.1605  -18.2910   21.8269 C   0  0  0  0  0  0  0  0  0  0  0  0
  -29.8120  -15.8604   21.5695 C   0  0  0  0  0  0  0  0  0  0  0  0
  -29.1980  -17.1573   19.5659 C   0  0  0  0  0  0  0  0  0  0  0  0
  -24.2851  -28.2002   22.1208 C   0  0  1  0  0  0  0  0  0  0  0  0
  -21.3287  -25.8141   22.1305 C   0  0  1  0  0  0  0  0  0  0  0  0
  -28.5205  -18.2373   20.4266 C   0  0  2  0  0  0  0  0  0  0  0  0
  -25.4193  -10.6518   22.1499 C   0  0  0  0  0  0  0  0  0  0  0  0
  -15.1380  -22.8536   25.7240 C   0  0  0  0  0  0  0  0  0  0  0  0
  -25.0993  -14.7440   17.6043 C   0  0  0  0  0  0  0  0  0  0  0  0
  -25.2542  -12.2694   17.5142 C   0  0  0  0  0  0  0  0  0  0  0  0
  -20.4903  -26.6565   26.5968 C   0  0  0  0  0  0  0  0  0  0  0  0
  -18.5718  -25.3920   27.5913 C   0  0  0  0  0  0  0  0  0  0  0  0
  -18.1378  -27.2921   26.0344 C   0  0  0  0  0  0  0  0  0  0  0  0
  -16.6489  -21.6564   22.4437 C   0  0  0  0  0  0  0  0  0  0  0  0
  -24.6961  -17.8474   22.7792 C   0  0  0  0  0  0  0  0  0  0  0  0
  -27.3320  -13.6274   17.9051 C   0  0  0  0  0  0  0  0  0  0  0  0
  -24.6925  -19.1994   22.0833 C   0  0  0  0  0  0  0  0  0  1  0  0
  -24.9901  -16.7108   21.8128 C   0  0  0  0  0  0  0  0  0  0  0  0
  -19.0413  -25.1174   25.1143 C   0  0  1  0  0  0  0  0  0  0  0  0
  -15.9911  -22.9609   24.4696 C   0  0  2  0  0  0  0  0  0  0  0  0
  -25.8092  -13.5172   18.2765 C   0  0  0  0  0  0  0  0  0  0  0  0
  -19.0793  -26.1013   26.3176 C   0  0  0  0  0  0  0  0  0  0  0  0
  -29.5513  -20.4382   20.0072 N   0  0  0  0  0  0  0  0  0  0  0  0
  -25.6084  -12.1183   20.2344 N   0  0  0  0  0  0  0  0  0  0  0  0
  -25.3855  -14.5093   20.4368 N   0  0  0  0  0  0  0  0  0  0  0  0
  -28.5352  -19.5965   19.7520 N   0  0  0  0  0  0  0  0  0  0  0  0
  -20.6671  -25.1390   23.2488 N   0  0  0  0  0  0  0  0  0  0  0  0
  -29.1587  -15.8597   20.2584 N   0  0  0  0  0  0  0  0  0  0  0  0
  -26.5257  -19.3812   18.5165 N   0  0  0  0  0  0  0  0  0  0  0  0
  -27.9884  -23.5097   17.4156 N   0  0  0  0  0  0  0  0  0  0  0  0
  -23.1564  -27.3614   21.7789 N   0  0  0  0  0  0  0  0  0  0  0  0
  -17.7129  -24.5968   24.8099 N   0  0  0  0  0  0  0  0  0  0  0  0
  -27.9759  -14.7615   18.5297 N   0  0  0  0  0  0  0  0  0  0  0  0
  -15.8776  -21.6819   23.7132 N   0  3  0  0  0  0  0  0  0  0  0  0
  -26.3125  -21.9793   17.0877 O   0  0  0  0  0  0  0  0  0  0  0  0
  -22.6997  -26.5414   23.9100 O   0  0  0  0  0  0  0  0  0  0  0  0
  -18.9743  -26.7368   23.3824 O   0  0  0  0  0  0  0  0  0  0  0  0
  -18.2548  -22.3559   25.0590 O   0  0  0  0  0  0  0  0  0  0  0  0
  -28.5953  -13.6157   20.4166 O   0  0  0  0  0  0  0  0  0  0  0  0
  -32.6294  -25.9648   19.2783 O   0  0  0  0  0  0  0  0  0  0  0  0
  -24.3941  -20.2285   23.0257 O   0  0  0  0  0  0  0  0  0  1  0  0
  -24.9779  -15.4713   22.5079 O   0  0  0  0  0  0  0  0  0  0  0  0
  -30.3025  -30.9442   19.7197 F   0  0  0  0  0  0  0  0  0  0  0  0
  -30.8156  -26.8550   17.3914 F   0  0  0  0  0  0  0  0  0  0  0  0
  1  2  1  0  0  0  0
  1  5  2  0  0  0  0
  2  6  2  0  0  0  0
  3  8  2  0  0  0  0
  3 16  1  0  0  0  0
  4  9  1  0  0  0  0
  4 16  2  0  0  0  0
  5 18  1  0  0  0  0
  6 20  1  0  0  0  0
  7 10  2  0  0  0  0
  7 19  1  0  0  0  0
  8 22  1  0  0  0  0
  9 22  2  0  0  0  0
 10 23  1  0  0  0  0
 11 12  2  0  0  0  0
 11 24  1  0  0  0  0
 12 25  1  0  0  0  0
 13 21  1  0  0  0  0
 13 23  2  0  0  0  0
 14 25  2  0  0  0  0
 14 26  1  0  0  0  0
 15 28  2  0  0  0  0
 15 29  1  0  0  0  0
 16 27  1  0  0  0  0
 17 27  1  0  0  0  0
 17 30  2  0  0  0  0
 17 32  1  0  0  0  0
 18 20  2  0  0  0  0
 18 37  1  0  0  0  0
 19 21  2  0  0  0  0
 19 38  1  0  0  0  0
 20 46  1  0  0  0  0
 21 39  1  0  0  0  0
 22 82  1  0  0  0  0
 23 83  1  0  0  0  0
 24 26  2  0  0  0  0
 24 82  1  0  0  0  0
 25 85  1  0  0  0  0
 26 86  1  0  0  0  0
 27 65  2  0  0  0  0
 28 49  1  0  0  0  0
 28 66  1  0  0  0  0
 29 67  2  0  0  0  0
 29 84  1  0  0  0  0
 30 68  1  0  0  0  0
 30 71  1  0  0  0  0
 31 63  1  0  0  0  0
 31 66  2  0  0  0  0
 31 67  1  0  0  0  0
 32 72  1  0  0  0  0
 32 77  2  0  0  0  0
 33 47  1  0  0  0  0
 33 73  1  0  0  0  0
 33 78  2  0  0  0  0
 34 61  1  0  0  0  0
 34 69  1  0  0  0  0
 34 79  2  0  0  0  0
 35 62  1  0  0  0  0
 35 74  1  0  0  0  0
 35 80  2  0  0  0  0
 36 70  1  0  0  0  0
 36 75  1  0  0  0  0
 36 81  2  0  0  0  0
 37 40  1  0  0  0  0
 38 47  1  0  0  0  0
 39 69  1  0  0  0  0
 40 42  1  0  0  0  0
 41 43  1  0  0  0  0
 41 44  1  0  0  0  0
 42 46  1  0  0  0  0
 43 48  1  0  0  0  0
 44 70  1  0  0  0  0
 45 48  1  0  0  0  0
 45 70  1  0  0  0  0
 46 73  1  0  0  0  0
 47 69  1  0  0  0  0
 48 68  1  0  0  0  0
 50 62  1  0  0  0  0
 51 63  1  0  0  0  0
 52 63  1  0  0  0  0
 53 64  1  0  0  0  0
 54 64  1  0  0  0  0
 55 64  1  0  0  0  0
 56 76  1  0  0  0  0
 57 59  1  0  0  0  0
 57 60  1  0  0  0  0
 58 63  1  0  0  0  0
 58 75  1  0  0  0  0
 59 83  1  0  0  0  0
 60 84  1  0  0  0  0
 61 64  1  0  0  0  0
 61 74  1  0  0  0  0
 62 76  1  0  0  0  0
 65 68  1  0  0  0  0
M  CHG  1  76   1
M  ISO  4  36 100  59 101  75 100  83 101
M  END
> <Batch ID>
0069

> <Smiles>
CNC(C)C(=O)NC(C(=O)N1Cc2cc([101O:1][101CH2:1]CCOc3cc(C)nc(C(C)(C)C[100NH:0][100C:0](=O)N4CCCC(n5nc(-c6ccc(Oc7ccc(F)cc7F)cc6)c(C(N)=O)c5N)C4)n3)ccc2CC1C(=O)NC1CCCc2ccccc21)C(C)(C)C

> <Shape>
0.202

> <Color>
0.081

> <Negative vol penalty>
0.000

$$$$

  -OEChem-04052318173D

 82 90  0     1  0  0  0  0  0999 V2000
  -20.5740  -31.5298   21.9540 C   0  0  0  0  0  0  0  0  0  0  0  0
  -21.5722  -30.7268   22.4964 C   0  0  0  0  0  0  0  0  0  0  0  0
  -27.1110  -13.4778   21.5838 C   0  0  0  0  0  0  0  0  0  0  0  0
  -26.7719  -13.7173   19.2037 C   0  0  0  0  0  0  0  0  0  0  0  0
  -19.2761  -31.0364   21.8273 C   0  0  0  0  0  0  0  0  0  0  0  0
  -21.2728  -29.4303   22.9135 C   0  0  0  0  0  0  0  0  0  0  0  0
  -24.7400  -26.0577   21.4137 C   0  0  0  0  0  0  0  0  0  0  0  0
  -26.3271  -12.3241   21.5794 C   0  0  0  0  0  0  0  0  0  0  0  0
  -25.9880  -12.5636   19.1993 C   0  0  0  0  0  0  0  0  0  0  0  0
  -25.9322  -26.0067   22.1347 C   0  0  0  0  0  0  0  0  0  0  0  0
  -24.1182   -9.5158   22.2562 C   0  0  0  0  0  0  0  0  0  0  0  0
  -23.1648   -9.3739   23.2644 C   0  0  0  0  0  0  0  0  0  0  0  0
  -25.1162  -24.0804   23.3359 C   0  0  0  0  0  0  0  0  0  0  0  0
  -22.0827  -11.4042   22.5269 C   0  0  0  0  0  0  0  0  0  0  0  0
  -30.7046  -25.7210   20.5330 C   0  0  0  0  0  0  0  0  0  0  0  0
  -31.5325  -23.7241   20.9354 C   0  0  0  0  0  0  0  0  0  0  0  0
  -27.3333  -14.1745   20.3959 C   0  0  0  0  0  0  0  0  0  0  0  0
  -29.5349  -15.4496   20.2097 C   0  0  0  0  0  0  0  0  0  0  0  0
  -18.9628  -29.7299   22.2341 C   0  0  0  0  0  0  0  0  0  0  0  0
  -23.7209  -25.1256   21.6564 C   0  0  0  0  0  0  0  0  0  0  0  0
  -19.9692  -28.9195   22.7934 C   0  0  0  0  0  0  0  0  0  0  0  0
  -23.9130  -24.1202   22.6148 C   0  0  0  0  0  0  0  0  0  0  0  0
  -31.0733  -24.8494   21.5752 C   0  0  0  0  0  0  0  0  0  0  0  0
  -25.7656  -11.8670   20.3872 C   0  0  0  0  0  0  0  0  0  0  0  0
  -26.1193  -25.0197   23.0980 C   0  0  0  0  0  0  0  0  0  0  0  0
  -24.0540  -10.6020   21.3834 C   0  0  0  0  0  0  0  0  0  0  0  0
  -22.1471  -10.3181   23.3998 C   0  0  0  0  0  0  0  0  0  0  0  0
  -23.0362  -11.5462   21.5187 C   0  0  0  0  0  0  0  0  0  0  0  0
  -28.1426  -15.3666   20.3999 C   0  0  0  0  0  0  0  0  0  0  0  0
  -29.8150  -16.7909   20.3039 C   0  0  0  0  0  0  0  0  0  0  0  0
  -30.4897  -14.4074   19.9692 C   0  0  0  0  0  0  0  0  0  0  0  0
  -20.7151  -25.3025   22.6751 C   0  0  0  0  0  0  0  0  0  0  0  0
  -20.7062  -22.1323   21.9880 C   0  0  0  0  0  0  0  0  0  0  0  0
  -22.4915  -19.2553   21.5614 C   0  0  0  0  0  0  0  0  0  0  0  0
  -28.6423  -22.1059   19.0705 C   0  0  0  0  0  0  0  0  0  0  0  0
  -17.5351  -29.2571   22.1211 C   0  0  0  0  0  0  0  0  0  0  0  0
  -22.4514  -25.1780   20.8514 C   0  0  0  0  0  0  0  0  0  0  0  0
  -22.8580  -23.0836   22.8991 C   0  0  0  0  0  0  0  0  0  0  0  0
  -17.3837  -27.7428   22.2411 C   0  0  0  0  0  0  0  0  0  0  0  0
  -26.9349  -20.6558   21.8380 C   0  0  0  0  0  0  0  0  0  0  0  0
  -18.1936  -27.2173   23.4220 C   0  0  0  0  0  0  0  0  0  0  0  0
  -27.2065  -19.1576   21.6911 C   0  0  0  0  0  0  0  0  0  0  0  0
  -26.7580  -21.3330   20.4807 C   0  0  0  0  0  0  0  0  0  0  0  0
  -28.1317  -19.6079   19.3803 C   0  0  0  0  0  0  0  0  0  0  0  0
  -19.6892  -27.4993   23.2344 C   0  0  1  0  0  0  0  0  0  0  0  0
  -21.2771  -24.4913   21.5421 C   0  0  1  0  0  0  0  0  0  0  0  0
  -28.3726  -18.8917   20.7202 C   0  0  2  0  0  0  0  0  0  0  0  0
  -22.9339  -16.8532   20.9857 C   0  0  0  0  0  0  0  0  0  0  0  0
  -32.9030  -23.6847   17.6740 C   0  0  0  0  0  0  0  0  0  0  0  0
  -19.7176  -21.6460   24.8334 C   0  0  0  0  0  0  0  0  0  0  0  0
  -20.3535  -19.2390   24.5685 C   0  0  0  0  0  0  0  0  0  0  0  0
  -18.6103  -20.2367   23.0891 C   0  0  0  0  0  0  0  0  0  0  0  0
  -22.9676  -19.9048   18.7135 C   0  0  0  0  0  0  0  0  0  0  0  0
  -30.9871  -25.0946   23.0604 C   0  0  0  0  0  0  0  0  0  0  0  0
  -29.6578  -24.6589   23.6806 C   0  0  0  0  0  0  0  0  0  0  0  0
  -30.5728  -22.7236   17.6385 C   0  0  0  0  0  0  0  0  0  0  0  0
  -28.4599  -25.4378   23.1498 C   0  0  0  0  0  0  0  0  0  1  0  0
  -21.0341  -20.8720   22.7516 C   0  0  1  0  0  0  0  0  0  0  0  0
  -22.4586  -18.2021   20.4687 C   0  0  2  0  0  0  0  0  0  0  0  0
  -31.7749  -23.0896   18.5235 C   0  0  2  0  0  0  0  0  0  0  0  0
  -19.9482  -20.5190   23.8069 C   0  0  0  0  0  0  0  0  0  0  0  0
  -30.9119  -25.1947   19.3230 N   0  0  0  0  0  0  0  0  0  0  0  0
  -27.5775  -16.5602   20.6000 N   0  0  0  0  0  0  0  0  0  0  0  0
  -31.4159  -23.9803   19.6009 N   0  0  0  0  0  0  0  0  0  0  0  0
  -28.6200  -17.4058   20.5361 N   0  0  0  0  0  0  0  0  0  0  0  0
  -21.6317  -23.1806   22.0902 N   0  0  0  0  0  0  0  0  0  0  0  0
  -27.8982  -21.0427   19.6080 N   0  0  0  0  0  0  0  0  0  0  0  0
  -30.9645  -17.4925   20.2100 N   0  0  0  0  0  0  0  0  0  0  0  0
  -30.0320  -13.0844   19.9020 N   0  0  0  0  0  0  0  0  0  0  0  0
  -20.2683  -26.5558   22.3021 N   0  0  0  0  0  0  0  0  0  0  0  0
  -21.2543  -19.8339   21.7505 N   0  0  0  0  0  0  0  0  0  0  0  0
  -29.7103  -21.7430   18.2590 N   0  0  0  0  0  0  0  0  0  0  0  0
  -23.3357  -18.6059   19.3335 N   0  3  0  0  0  0  0  0  0  0  0  0
  -31.7149  -14.6407   19.8347 O   0  0  0  0  0  0  0  0  0  0  0  0
  -20.6874  -24.8261   23.8037 O   0  0  0  0  0  0  0  0  0  0  0  0
  -19.6707  -22.1823   21.3195 O   0  0  0  0  0  0  0  0  0  0  0  0
  -23.5118  -19.5341   22.1874 O   0  0  0  0  0  0  0  0  0  0  0  0
  -28.3780  -23.2907   19.3013 O   0  0  0  0  0  0  0  0  0  0  0  0
  -25.0008  -10.7411   20.3825 O   0  0  0  0  0  0  0  0  0  0  0  0
  -27.2817  -24.9679   23.8036 O   0  0  0  0  0  0  0  0  0  1  0  0
  -21.2307  -10.1808   24.3670 F   0  0  0  0  0  0  0  0  0  0  0  0
  -22.9685  -12.5911   20.6825 F   0  0  0  0  0  0  0  0  0  0  0  0
  1  2  1  0  0  0  0
  1  5  2  0  0  0  0
  2  6  2  0  0  0  0
  3  8  2  0  0  0  0
  3 17  1  0  0  0  0
  4  9  1  0  0  0  0
  4 17  2  0  0  0  0
  5 19  1  0  0  0  0
  6 21  1  0  0  0  0
  7 10  2  0  0  0  0
  7 20  1  0  0  0  0
  8 24  1  0  0  0  0
  9 24  2  0  0  0  0
 10 25  1  0  0  0  0
 11 12  2  0  0  0  0
 11 26  1  0  0  0  0
 12 27  1  0  0  0  0
 13 22  1  0  0  0  0
 13 25  2  0  0  0  0
 14 27  2  0  0  0  0
 14 28  1  0  0  0  0
 15 23  1  0  0  0  0
 15 62  2  0  0  0  0
 16 23  2  0  0  0  0
 16 64  1  0  0  0  0
 17 29  1  0  0  0  0
 18 29  1  0  0  0  0
 18 30  2  0  0  0  0
 18 31  1  0  0  0  0
 19 21  2  0  0  0  0
 19 36  1  0  0  0  0
 20 22  2  0  0  0  0
 20 37  1  0  0  0  0
 21 45  1  0  0  0  0
 22 38  1  0  0  0  0
 23 54  1  0  0  0  0
 24 79  1  0  0  0  0
 25 80  1  0  0  0  0
 26 28  2  0  0  0  0
 26 79  1  0  0  0  0
 27 81  1  0  0  0  0
 28 82  1  0  0  0  0
 29 63  2  0  0  0  0
 30 65  1  0  0  0  0
 30 68  1  0  0  0  0
 31 69  1  0  0  0  0
 31 74  2  0  0  0  0
 32 46  1  0  0  0  0
 32 70  1  0  0  0  0
 32 75  2  0  0  0  0
 33 58  1  0  0  0  0
 33 66  1  0  0  0  0
 33 76  2  0  0  0  0
 34 59  1  0  0  0  0
 34 71  1  0  0  0  0
 34 77  2  0  0  0  0
 35 67  1  0  0  0  0
 35 72  1  0  0  0  0
 35 78  2  0  0  0  0
 36 39  1  0  0  0  0
 37 46  1  0  0  0  0
 38 66  1  0  0  0  0
 39 41  1  0  0  0  0
 40 42  1  0  0  0  0
 40 43  1  0  0  0  0
 41 45  1  0  0  0  0
 42 47  1  0  0  0  0
 43 67  1  0  0  0  0
 44 47  1  0  0  0  0
 44 67  1  0  0  0  0
 45 70  1  0  0  0  0
 46 66  1  0  0  0  0
 47 65  1  0  0  0  0
 48 59  1  0  0  0  0
 49 60  1  0  0  0  0
 50 61  1  0  0  0  0
 51 61  1  0  0  0  0
 52 61  1  0  0  0  0
 53 73  1  0  0  0  0
 54 55  1  0  0  0  0
 55 57  1  0  0  0  0
 56 60  1  0  0  0  0
 56 72  1  0  0  0  0
 57 80  1  0  0  0  0
 58 61  1  0  0  0  0
 58 71  1  0  0  0  0
 59 73  1  0  0  0  0
 60 64  1  0  0  0  0
 62 64  1  0  0  0  0
 63 65  1  0  0  0  0
M  CHG  1  73   1
M  ISO  4  35 100  57 101  72 100  80 101
M  END
> <Batch ID>
0069

> <Smiles>
CNC(C)C(=O)NC(C(=O)N1Cc2cc([101O:1][101CH2:1]CCc3cnn(C(C)C[100NH:0][100C:0](=O)N4CCCC(n5nc(-c6ccc(Oc7ccc(F)cc7F)cc6)c(C(N)=O)c5N)C4)c3)ccc2CC1C(=O)NC1CCCc2ccccc21)C(C)(C)C

> <Shape>
0.207

> <Color>
0.075

> <Negative vol penalty>
0.000

$$$$

  -OEChem-04052318173D

 87 95  0     1  0  0  0  0  0999 V2000
  -25.4771  -11.3210   21.2997 C   0  0  0  0  0  0  0  0  0  0  0  0
  -26.5844  -12.1564   21.1933 C   0  0  0  0  0  0  0  0  0  0  0  0
  -19.4086  -27.3201   21.3709 C   0  0  0  0  0  0  0  0  0  0  0  0
  -19.8969  -28.8939   23.1378 C   0  0  0  0  0  0  0  0  0  0  0  0
  -24.2427  -11.7345   20.8005 C   0  0  0  0  0  0  0  0  0  0  0  0
  -26.4582  -13.4056   20.5866 C   0  0  0  0  0  0  0  0  0  0  0  0
  -29.0648  -20.0690   20.9326 C   0  0  0  0  0  0  0  0  0  0  0  0
  -18.3272  -26.8321   22.1044 C   0  0  0  0  0  0  0  0  0  0  0  0
  -18.8154  -28.4059   23.8713 C   0  0  0  0  0  0  0  0  0  0  0  0
  -29.6335  -21.0468   20.1175 C   0  0  0  0  0  0  0  0  0  0  0  0
  -17.8279  -24.7428   24.7139 C   0  0  0  0  0  0  0  0  0  0  0  0
  -17.6729  -23.3590   24.7957 C   0  0  0  0  0  0  0  0  0  0  0  0
  -27.4341  -21.6881   19.3624 C   0  0  0  0  0  0  0  0  0  0  0  0
  -15.5012  -23.5407   23.7526 C   0  0  0  0  0  0  0  0  0  0  0  0
  -29.1169  -29.4217   20.1610 C   0  0  0  0  0  0  0  0  0  0  0  0
  -20.1935  -28.3510   21.8876 C   0  0  0  0  0  0  0  0  0  0  0  0
  -21.2992  -29.9081   20.1963 C   0  0  0  0  0  0  0  0  0  0  0  0
  -24.0991  -12.9934   20.1960 C   0  0  0  0  0  0  0  0  0  0  0  0
  -27.6748  -19.8859   20.9605 C   0  0  0  0  0  0  0  0  0  0  0  0
  -25.2210  -13.8358   20.0776 C   0  0  0  0  0  0  0  0  0  0  0  0
  -26.8500  -20.7091   20.1806 C   0  0  0  0  0  0  0  0  0  0  0  0
  -18.0306  -27.3750   23.3545 C   0  0  0  0  0  0  0  0  0  0  0  0
  -28.8184  -21.8546   19.3301 C   0  0  0  0  0  0  0  0  0  0  0  0
  -16.8195  -25.5256   24.1516 C   0  0  0  0  0  0  0  0  0  0  0  0
  -16.5096  -22.7580   24.3150 C   0  0  0  0  0  0  0  0  0  0  0  0
  -15.6562  -24.9245   23.6709 C   0  0  0  0  0  0  0  0  0  0  0  0
  -21.3111  -28.8552   21.1307 C   0  0  0  0  0  0  0  0  0  0  0  0
  -29.6208  -28.3335   20.8386 C   0  0  0  0  0  0  0  0  0  0  0  0
  -30.4836  -28.9513   18.3889 C   0  0  0  0  0  0  0  0  0  0  0  0
  -30.9882  -27.8634   19.0668 C   0  0  0  0  0  0  0  0  0  0  0  0
  -22.5989  -29.9952   19.7608 C   0  0  0  0  0  0  0  0  0  0  0  0
  -20.2108  -30.7337   19.7612 C   0  0  0  0  0  0  0  0  0  0  0  0
  -25.7122  -17.4949   20.2293 C   0  0  0  0  0  0  0  0  0  0  0  0
  -23.4629  -19.4799   21.4632 C   0  0  0  0  0  0  0  0  0  0  0  0
  -27.6953  -28.4307   22.3788 C   0  0  0  0  0  0  0  0  0  0  0  0
  -22.5116  -22.6706   22.2125 C   0  0  0  0  0  0  0  0  0  0  0  0
  -22.7554  -13.3773   19.6289 C   0  0  0  0  0  0  0  0  0  0  0  0
  -27.0751  -18.8447   21.8653 C   0  0  0  0  0  0  0  0  0  0  0  0
  -25.3507  -20.5664   20.1899 C   0  0  0  0  0  0  0  0  0  0  0  0
  -22.6217  -14.8695   19.3359 C   0  0  0  0  0  0  0  0  0  0  0  0
  -26.5236  -27.3500   19.1099 C   0  0  0  0  0  0  0  0  0  0  0  0
  -23.8545  -15.3810   18.5975 C   0  0  0  0  0  0  0  0  0  0  0  0
  -25.0358  -27.6893   19.1909 C   0  0  0  0  0  0  0  0  0  0  0  0
  -27.0681  -26.8874   20.4588 C   0  0  0  0  0  0  0  0  0  0  0  0
  -25.3415  -28.1981   21.6527 C   0  0  0  0  0  0  0  0  0  0  0  0
  -25.1185  -15.2083   19.4483 C   0  0  1  0  0  0  0  0  0  0  0  0
  -25.6825  -18.4023   21.4265 C   0  0  1  0  0  0  0  0  0  0  0  0
  -24.7606  -28.6983   20.3196 C   0  0  2  0  0  0  0  0  0  0  0  0
  -30.9596  -29.3038   17.0210 C   0  0  0  0  0  0  0  0  0  0  0  0
  -21.1011  -24.5188   23.1569 C   0  0  0  0  0  0  0  0  0  0  0  0
  -28.9920  -26.4469   22.4286 C   0  0  0  0  0  0  0  0  0  0  0  0
  -21.9085  -19.1328   18.8606 C   0  0  0  0  0  0  0  0  0  0  0  0
  -20.5543  -21.1446   19.4823 C   0  0  0  0  0  0  0  0  0  0  0  0
  -20.5005  -19.1119   20.9273 C   0  0  0  0  0  0  0  0  0  0  0  0
  -30.0215  -30.1933   23.3231 C   0  0  0  0  0  0  0  0  0  0  0  0
  -29.4263  -28.2863   24.7949 C   0  0  0  0  0  0  0  0  0  0  0  0
  -31.4891  -28.1906   23.3949 C   0  0  0  0  0  0  0  0  0  0  0  0
  -23.8663  -22.5191   24.8395 C   0  0  0  0  0  0  0  0  0  0  0  0
  -32.0456  -26.9782   18.4568 C   0  0  0  0  0  0  0  0  0  0  0  0
  -31.9615  -25.5146   18.9042 C   0  0  0  0  0  0  0  0  0  0  0  0
  -30.6608  -24.8322   18.4782 C   0  0  0  0  0  0  0  0  0  0  0  0
  -30.5958  -23.3939   18.9738 C   0  0  0  0  0  0  0  0  0  1  0  0
  -22.5709  -20.5628   20.9056 C   0  0  1  0  0  0  0  0  0  0  0  0
  -21.9177  -23.2751   23.4720 C   0  0  2  0  0  0  0  0  0  0  0  0
  -29.1298  -28.0001   22.2038 C   0  0  1  0  0  0  0  0  0  0  0  0
  -21.4119  -19.9897   20.0421 C   0  0  0  0  0  0  0  0  0  0  0  0
  -30.0073  -28.6462   23.4043 C   0  0  0  0  0  0  0  0  0  0  0  0
  -29.5392  -29.7501   18.9239 N   0  0  0  0  0  0  0  0  0  0  0  0
  -22.5222  -28.3122   21.2804 N   0  0  0  0  0  0  0  0  0  0  0  0
  -30.5656  -27.5348   20.3037 N   0  0  0  0  0  0  0  0  0  0  0  0
  -23.2835  -29.0267   20.4342 N   0  0  0  0  0  0  0  0  0  0  0  0
  -24.8124  -19.5299   21.0862 N   0  0  0  0  0  0  0  0  0  0  0  0
  -26.7614  -27.8626   21.5121 N   0  0  0  0  0  0  0  0  0  0  0  0
  -23.2115  -30.8050   18.8712 N   0  0  0  0  0  0  0  0  0  0  0  0
  -18.9410  -30.5096   20.3106 N   0  0  0  0  0  0  0  0  0  0  0  0
  -25.1891  -16.2375   20.4633 N   0  0  0  0  0  0  0  0  0  0  0  0
  -22.1294  -21.3561   22.0476 N   0  0  0  0  0  0  0  0  0  0  0  0
  -22.9993  -23.6521   24.4254 N   0  3  0  0  0  0  0  0  0  0  0  0
  -20.3564  -31.6323   18.8982 O   0  0  0  0  0  0  0  0  0  0  0  0
  -26.1740  -17.9056   19.1711 O   0  0  0  0  0  0  0  0  0  0  0  0
  -22.9815  -18.6256   22.2115 O   0  0  0  0  0  0  0  0  0  0  0  0
  -27.4156  -29.2495   23.2583 O   0  0  0  0  0  0  0  0  0  0  0  0
  -23.2387  -23.3025   21.4492 O   0  0  0  0  0  0  0  0  0  0  0  0
  -16.9753  -26.8992   24.0704 O   0  0  0  0  0  0  0  0  0  0  0  0
  -29.3710  -22.8092   18.5331 O   0  0  0  0  0  0  0  0  0  1  0  0
  -16.3615  -21.4289   24.3922 F   0  0  0  0  0  0  0  0  0  0  0  0
  -14.6846  -25.6712   23.1285 F   0  0  0  0  0  0  0  0  0  0  0  0
  1  2  1  0  0  0  0
  1  5  2  0  0  0  0
  2  6  2  0  0  0  0
  3  8  2  0  0  0  0
  3 16  1  0  0  0  0
  4  9  1  0  0  0  0
  4 16  2  0  0  0  0
  5 18  1  0  0  0  0
  6 20  1  0  0  0  0
  7 10  2  0  0  0  0
  7 19  1  0  0  0  0
  8 22  1  0  0  0  0
  9 22  2  0  0  0  0
 10 23  1  0  0  0  0
 11 12  2  0  0  0  0
 11 24  1  0  0  0  0
 12 25  1  0  0  0  0
 13 21  1  0  0  0  0
 13 23  2  0  0  0  0
 14 25  2  0  0  0  0
 14 26  1  0  0  0  0
 15 28  1  0  0  0  0
 15 68  2  0  0  0  0
 16 27  1  0  0  0  0
 17 27  1  0  0  0  0
 17 31  2  0  0  0  0
 17 32  1  0  0  0  0
 18 20  2  0  0  0  0
 18 37  1  0  0  0  0
 19 21  2  0  0  0  0
 19 38  1  0  0  0  0
 20 46  1  0  0  0  0
 21 39  1  0  0  0  0
 22 84  1  0  0  0  0
 23 85  1  0  0  0  0
 24 26  2  0  0  0  0
 24 84  1  0  0  0  0
 25 86  1  0  0  0  0
 26 87  1  0  0  0  0
 27 69  2  0  0  0  0
 28 65  1  0  0  0  0
 28 70  2  0  0  0  0
 29 30  2  0  0  0  0
 29 49  1  0  0  0  0
 29 68  1  0  0  0  0
 30 59  1  0  0  0  0
 30 70  1  0  0  0  0
 31 71  1  0  0  0  0
 31 74  1  0  0  0  0
 32 75  1  0  0  0  0
 32 79  2  0  0  0  0
 33 47  1  0  0  0  0
 33 76  1  0  0  0  0
 33 80  2  0  0  0  0
 34 63  1  0  0  0  0
 34 72  1  0  0  0  0
 34 81  2  0  0  0  0
 35 65  1  0  0  0  0
 35 73  1  0  0  0  0
 35 82  2  0  0  0  0
 36 64  1  0  0  0  0
 36 77  1  0  0  0  0
 36 83  2  0  0  0  0
 37 40  1  0  0  0  0
 38 47  1  0  0  0  0
 39 72  1  0  0  0  0
 40 42  1  0  0  0  0
 41 43  1  0  0  0  0
 41 44  1  0  0  0  0
 42 46  1  0  0  0  0
 43 48  1  0  0  0  0
 44 73  1  0  0  0  0
 45 48  1  0  0  0  0
 45 73  1  0  0  0  0
 46 76  1  0  0  0  0
 47 72  1  0  0  0  0
 48 71  1  0  0  0  0
 50 64  1  0  0  0  0
 51 65  1  0  0  0  0
 52 66  1  0  0  0  0
 53 66  1  0  0  0  0
 54 66  1  0  0  0  0
 55 67  1  0  0  0  0
 56 67  1  0  0  0  0
 57 67  1  0  0  0  0
 58 78  1  0  0  0  0
 59 60  1  0  0  0  0
 60 61  1  0  0  0  0
 61 62  1  0  0  0  0
 62 85  1  0  0  0  0
 63 66  1  0  0  0  0
 63 77  1  0  0  0  0
 64 78  1  0  0  0  0
 65 67  1  0  0  0  0
 69 71  1  0  0  0  0
M  CHG  1  78   1
M  ISO  4  35 100  62 101  65 100  85 101
M  END
> <Batch ID>
0069

> <Smiles>
CNC(C)C(=O)NC(C(=O)N1Cc2cc([101O:1][101CH2:1]CCCc3nc([100C:0](C)([100C:0](=O)N4CCCC(n5nc(-c6ccc(Oc7ccc(F)cc7F)cc6)c(C(N)=O)c5N)C4)C(C)(C)C)cnc3C)ccc2CC1C(=O)NC1CCCc2ccccc21)C(C)(C)C

> <Shape>
0.208

> <Color>
0.070

> <Negative vol penalty>
0.000

$$$$

  -OEChem-04052318173D

 83 91  0     1  0  0  0  0  0999 V2000
  -21.2753  -12.8113   20.7691 C   0  0  0  0  0  0  0  0  0  0  0  0
  -21.2634  -14.1964   20.8992 C   0  0  0  0  0  0  0  0  0  0  0  0
  -29.7155  -27.7217   18.8245 C   0  0  0  0  0  0  0  0  0  0  0  0
  -29.2530  -26.2745   20.7030 C   0  0  0  0  0  0  0  0  0  0  0  0
  -22.4776  -12.1129   20.8727 C   0  0  0  0  0  0  0  0  0  0  0  0
  -22.4537  -14.8837   21.1342 C   0  0  0  0  0  0  0  0  0  0  0  0
  -22.9066  -19.0249   18.2550 C   0  0  0  0  0  0  0  0  0  0  0  0
  -31.0689  -27.3943   18.9054 C   0  0  0  0  0  0  0  0  0  0  0  0
  -30.6065  -25.9471   20.7839 C   0  0  0  0  0  0  0  0  0  0  0  0
  -22.1864  -20.1533   18.6448 C   0  0  0  0  0  0  0  0  0  0  0  0
  -33.4407  -27.3461   21.9844 C   0  0  0  0  0  0  0  0  0  0  0  0
  -34.0318  -27.3412   23.2477 C   0  0  0  0  0  0  0  0  0  0  0  0
  -24.1817  -21.0762   19.6379 C   0  0  0  0  0  0  0  0  0  0  0  0
  -21.4283  -24.5577   22.0861 C   0  0  0  0  0  0  0  0  0  0  0  0
  -34.5850  -25.0047   22.9797 C   0  0  0  0  0  0  0  0  0  0  0  0
  -21.4578  -25.3033   19.8278 C   0  0  0  0  0  0  0  0  0  0  0  0
  -28.8075  -27.1618   19.7233 C   0  0  0  0  0  0  0  0  0  0  0  0
  -26.4183  -26.8408   18.8890 C   0  0  0  0  0  0  0  0  0  0  0  0
  -23.6845  -12.7930   21.0994 C   0  0  0  0  0  0  0  0  0  0  0  0
  -24.2695  -18.9086   18.5638 C   0  0  0  0  0  0  0  0  0  0  0  0
  -23.6730  -14.1936   21.2423 C   0  0  0  0  0  0  0  0  0  0  0  0
  -24.9175  -19.9465   19.2487 C   0  0  0  0  0  0  0  0  0  0  0  0
  -21.8935  -24.4013   20.7852 C   0  0  0  0  0  0  0  0  0  0  0  0
  -20.5540  -25.5966   22.3857 C   0  0  0  0  0  0  0  0  0  0  0  0
  -31.5145  -26.5070   19.8851 C   0  0  0  0  0  0  0  0  0  0  0  0
  -22.8233  -21.1779   19.3389 C   0  0  0  0  0  0  0  0  0  0  0  0
  -33.4216  -26.1804   21.2186 C   0  0  0  0  0  0  0  0  0  0  0  0
  -34.6040  -26.1705   23.7454 C   0  0  0  0  0  0  0  0  0  0  0  0
  -33.9938  -25.0096   21.7163 C   0  0  0  0  0  0  0  0  0  0  0  0
  -27.4093  -27.5000   19.6406 C   0  0  0  0  0  0  0  0  0  0  0  0
  -20.1785  -26.4451   21.3568 C   0  0  0  0  0  0  0  0  0  0  0  0
  -25.2668  -27.5434   19.1479 C   0  0  0  0  0  0  0  0  0  0  0  0
  -26.5286  -25.6956   18.0333 C   0  0  0  0  0  0  0  0  0  0  0  0
  -26.0132  -16.8910   20.2936 C   0  0  0  0  0  0  0  0  0  0  0  0
  -28.4889  -18.5901   19.0662 C   0  0  0  0  0  0  0  0  0  0  0  0
  -30.0893  -21.6566   18.0402 C   0  0  0  0  0  0  0  0  0  0  0  0
  -21.8238  -30.0981   22.7206 C   0  0  0  0  0  0  0  0  0  0  0  0
  -24.9525  -11.9905   21.2511 C   0  0  0  0  0  0  0  0  0  0  0  0
  -25.0383  -17.6970   18.1128 C   0  0  0  0  0  0  0  0  0  0  0  0
  -26.3836  -19.8793   19.5868 C   0  0  0  0  0  0  0  0  0  0  0  0
  -26.2223  -12.8287   21.1277 C   0  0  0  0  0  0  0  0  0  0  0  0
  -24.5711  -31.9845   21.4671 C   0  0  0  0  0  0  0  0  0  0  0  0
  -26.1058  -14.1002   21.9624 C   0  0  0  0  0  0  0  0  0  0  0  0
  -25.4750  -30.9311   20.8241 C   0  0  0  0  0  0  0  0  0  0  0  0
  -23.8968  -31.4542   22.7306 C   0  0  0  0  0  0  0  0  0  0  0  0
  -24.0634  -29.1357   21.9117 C   0  0  0  0  0  0  0  0  0  0  0  0
  -24.9470  -14.9772   21.4730 C   0  0  1  0  0  0  0  0  0  0  0  0
  -26.3029  -17.4533   18.9307 C   0  0  1  0  0  0  0  0  0  0  0  0
  -24.7220  -29.6055   20.6032 C   0  0  2  0  0  0  0  0  0  0  0  0
  -20.0504  -25.7687   23.7771 C   0  0  0  0  0  0  0  0  0  0  0  0
  -32.0794  -22.7424   16.9642 C   0  0  0  0  0  0  0  0  0  0  0  0
  -17.8309  -27.1717   22.1674 C   0  0  0  0  0  0  0  0  0  0  0  0
  -18.9492  -28.3598   20.2983 C   0  0  0  0  0  0  0  0  0  0  0  0
  -29.4548  -19.0131   21.9295 C   0  0  0  0  0  0  0  0  0  0  0  0
  -30.9265  -20.8550   21.0869 C   0  0  0  0  0  0  0  0  0  0  0  0
  -31.2679  -18.5197   20.2790 C   0  0  0  0  0  0  0  0  0  0  0  0
  -28.6988  -21.8939   15.4384 C   0  0  0  0  0  0  0  0  0  0  0  0
  -22.8383  -23.2914   20.4292 C   0  0  0  0  0  0  0  0  0  1  0  0
  -19.8314  -28.6208   22.6366 C   0  0  0  0  0  0  0  0  0  0  0  0
  -29.2518  -19.8232   19.4864 C   0  0  1  0  0  0  0  0  0  0  0  0
  -30.8312  -21.9033   16.7390 C   0  0  2  0  0  0  0  0  0  0  0  0
  -19.2423  -27.5790   21.6202 C   0  0  0  0  0  0  0  0  0  0  0  0
  -30.1972  -19.5534   20.6909 C   0  0  0  0  0  0  0  0  0  0  0  0
  -20.6093  -26.3248   20.0810 N   0  0  0  0  0  0  0  0  0  0  0  0
  -26.9295  -28.5415   20.3255 N   0  0  0  0  0  0  0  0  0  0  0  0
  -25.6244  -28.5421   20.0052 N   0  0  0  0  0  0  0  0  0  0  0  0
  -27.0907  -18.6715   19.1299 N   0  0  0  0  0  0  0  0  0  0  0  0
  -23.1991  -30.1965   22.4526 N   0  0  0  0  0  0  0  0  0  0  0  0
  -23.9936  -27.3982   18.7235 N   0  0  0  0  0  0  0  0  0  0  0  0
  -27.7857  -25.0953   17.8793 N   0  0  0  0  0  0  0  0  0  0  0  0
  -25.3260  -15.6924   20.2733 N   0  0  0  0  0  0  0  0  0  0  0  0
  -29.9314  -20.3099   18.2907 N   0  0  0  0  0  0  0  0  0  0  0  0
  -21.2389  -28.8735   22.4222 N   0  0  0  0  0  0  0  0  0  0  0  0
  -29.9533  -22.6176   15.7694 N   0  3  0  0  0  0  0  0  0  0  0  0
  -25.5449  -25.2288   17.4105 O   0  0  0  0  0  0  0  0  0  0  0  0
  -26.3870  -17.4989   21.2899 O   0  0  0  0  0  0  0  0  0  0  0  0
  -29.1106  -17.5939   18.6884 O   0  0  0  0  0  0  0  0  0  0  0  0
  -29.6929  -22.5675   18.7639 O   0  0  0  0  0  0  0  0  0  0  0  0
  -21.1648  -31.0342   23.1858 O   0  0  0  0  0  0  0  0  0  0  0  0
  -32.8351  -26.1871   19.9642 O   0  0  0  0  0  0  0  0  0  0  0  0
  -22.1226  -22.2800   19.7211 O   0  0  0  0  0  0  0  0  0  1  0  0
  -35.1730  -26.1662   24.9580 F   0  0  0  0  0  0  0  0  0  0  0  0
  -33.9797  -23.8869   20.9848 F   0  0  0  0  0  0  0  0  0  0  0  0
  1  2  1  0  0  0  0
  1  5  2  0  0  0  0
  2  6  2  0  0  0  0
  3  8  2  0  0  0  0
  3 17  1  0  0  0  0
  4  9  1  0  0  0  0
  4 17  2  0  0  0  0
  5 19  1  0  0  0  0
  6 21  1  0  0  0  0
  7 10  2  0  0  0  0
  7 20  1  0  0  0  0
  8 25  1  0  0  0  0
  9 25  2  0  0  0  0
 10 26  1  0  0  0  0
 11 12  2  0  0  0  0
 11 27  1  0  0  0  0
 12 28  1  0  0  0  0
 13 22  1  0  0  0  0
 13 26  2  0  0  0  0
 14 23  2  0  0  0  0
 14 24  1  0  0  0  0
 15 28  2  0  0  0  0
 15 29  1  0  0  0  0
 16 23  1  0  0  0  0
 16 64  2  0  0  0  0
 17 30  1  0  0  0  0
 18 30  1  0  0  0  0
 18 32  2  0  0  0  0
 18 33  1  0  0  0  0
 19 21  2  0  0  0  0
 19 38  1  0  0  0  0
 20 22  2  0  0  0  0
 20 39  1  0  0  0  0
 21 47  1  0  0  0  0
 22 40  1  0  0  0  0
 23 58  1  0  0  0  0
 24 31  2  0  0  0  0
 24 50  1  0  0  0  0
 25 80  1  0  0  0  0
 26 81  1  0  0  0  0
 27 29  2  0  0  0  0
 27 80  1  0  0  0  0
 28 82  1  0  0  0  0
 29 83  1  0  0  0  0
 30 65  2  0  0  0  0
 31 62  1  0  0  0  0
 31 64  1  0  0  0  0
 32 66  1  0  0  0  0
 32 69  1  0  0  0  0
 33 70  1  0  0  0  0
 33 75  2  0  0  0  0
 34 48  1  0  0  0  0
 34 71  1  0  0  0  0
 34 76  2  0  0  0  0
 35 60  1  0  0  0  0
 35 67  1  0  0  0  0
 35 77  2  0  0  0  0
 36 61  1  0  0  0  0
 36 72  1  0  0  0  0
 36 78  2  0  0  0  0
 37 68  1  0  0  0  0
 37 73  1  0  0  0  0
 37 79  2  0  0  0  0
 38 41  1  0  0  0  0
 39 48  1  0  0  0  0
 40 67  1  0  0  0  0
 41 43  1  0  0  0  0
 42 44  1  0  0  0  0
 42 45  1  0  0  0  0
 43 47  1  0  0  0  0
 44 49  1  0  0  0  0
 45 68  1  0  0  0  0
 46 49  1  0  0  0  0
 46 68  1  0  0  0  0
 47 71  1  0  0  0  0
 48 67  1  0  0  0  0
 49 66  1  0  0  0  0
 51 61  1  0  0  0  0
 52 62  1  0  0  0  0
 53 62  1  0  0  0  0
 54 63  1  0  0  0  0
 55 63  1  0  0  0  0
 56 63  1  0  0  0  0
 57 74  1  0  0  0  0
 58 81  1  0  0  0  0
 59 62  1  0  0  0  0
 59 73  1  0  0  0  0
 60 63  1  0  0  0  0
 60 72  1  0  0  0  0
 61 74  1  0  0  0  0
 65 66  1  0  0  0  0
M  CHG  1  74   1
M  ISO  4  37 100  58 101  73 100  81 101
M  END
> <Batch ID>
0069

> <Smiles>
CNC(C)C(=O)NC(C(=O)N1Cc2cc([101O:1][101CH2:1]c3cnc(C(C)(C)C[100NH:0][100C:0](=O)N4CCCC(n5nc(-c6ccc(Oc7ccc(F)cc7F)cc6)c(C(N)=O)c5N)C4)c(C)c3)ccc2CC1C(=O)NC1CCCc2ccccc21)C(C)(C)C

> <Shape>
0.251

> <Color>
0.064

> <Negative vol penalty>
0.000

$$$$

  -OEChem-04052318173D

 89 97  0     1  0  0  0  0  0999 V2000
  -26.0237  -19.6359   17.4679 C   0  0  0  0  0  0  0  0  0  0  0  0
  -25.3348  -20.7859   17.8398 C   0  0  0  0  0  0  0  0  0  0  0  0
  -24.4668  -16.1784   19.3213 C   0  0  0  0  0  0  0  0  0  0  0  0
  -26.0210  -16.2603   21.1691 C   0  0  0  0  0  0  0  0  0  0  0  0
  -27.2750  -19.3650   18.0200 C   0  0  0  0  0  0  0  0  0  0  0  0
  -25.8964  -21.6652   18.7649 C   0  0  0  0  0  0  0  0  0  0  0  0
  -25.3536  -27.7648   18.8460 C   0  0  0  0  0  0  0  0  0  0  0  0
  -25.4079  -15.4849   18.5604 C   0  0  0  0  0  0  0  0  0  0  0  0
  -26.9621  -15.5667   20.4083 C   0  0  0  0  0  0  0  0  0  0  0  0
  -24.5258  -28.6233   19.5681 C   0  0  0  0  0  0  0  0  0  0  0  0
  -27.5437  -12.3703   19.4780 C   0  0  0  0  0  0  0  0  0  0  0  0
  -28.2253  -11.3202   20.0930 C   0  0  0  0  0  0  0  0  0  0  0  0
  -19.5290  -25.4342   22.9332 C   0  0  0  0  0  0  0  0  0  0  0  0
  -26.2808  -28.9397   21.1925 C   0  0  0  0  0  0  0  0  0  0  0  0
  -30.3239  -12.4492   19.6950 C   0  0  0  0  0  0  0  0  0  0  0  0
  -20.0700  -26.4122   22.1348 C   0  0  0  0  0  0  0  0  0  0  0  0
  -24.7734  -16.5662   20.6257 C   0  0  0  0  0  0  0  0  0  0  0  0
  -22.8222  -16.7335   22.2605 C   0  0  0  0  0  0  0  0  0  0  0  0
  -27.8564  -20.2463   18.9451 C   0  0  0  0  0  0  0  0  0  0  0  0
  -26.6497  -27.4782   19.2983 C   0  0  0  0  0  0  0  0  0  0  0  0
  -27.1560  -21.4052   19.3309 C   0  0  0  0  0  0  0  0  0  0  0  0
  -27.1241  -28.0793   20.4730 C   0  0  0  0  0  0  0  0  0  0  0  0
  -26.6555  -15.1790   19.1039 C   0  0  0  0  0  0  0  0  0  0  0  0
  -24.9883  -29.2086   20.7430 C   0  0  0  0  0  0  0  0  0  0  0  0
  -28.2522  -13.4599   18.9714 C   0  0  0  0  0  0  0  0  0  0  0  0
  -29.6154  -11.3596   20.2015 C   0  0  0  0  0  0  0  0  0  0  0  0
  -29.6423  -13.4993   19.0800 C   0  0  0  0  0  0  0  0  0  0  0  0
  -23.8018  -17.2831   21.4119 C   0  0  0  0  0  0  0  0  0  0  0  0
  -19.9654  -25.7585   24.2317 C   0  0  0  0  0  0  0  0  0  0  0  0
  -22.1595  -17.8230   22.7707 C   0  0  0  0  0  0  0  0  0  0  0  0
  -22.5369  -15.3609   22.5607 C   0  0  0  0  0  0  0  0  0  0  0  0
  -28.1734  -24.8447   20.2184 C   0  0  0  0  0  0  0  0  0  0  0  0
  -30.7360  -26.8310   20.3184 C   0  0  0  0  0  0  0  0  0  0  0  0
  -31.9222  -30.0171   20.6155 C   0  0  0  0  0  0  0  0  0  0  0  0
  -22.0312  -22.7265   24.9843 C   0  0  0  0  0  0  0  0  0  0  0  0
  -29.1903  -19.8872   19.5504 C   0  0  0  0  0  0  0  0  0  0  0  0
  -27.5397  -26.5710   18.4938 C   0  0  0  0  0  0  0  0  0  0  0  0
  -28.5146  -27.8202   20.9906 C   0  0  0  0  0  0  0  0  0  0  0  0
  -29.8811  -21.0599   20.2416 C   0  0  0  0  0  0  0  0  0  0  0  0
  -22.3188  -22.6974   21.4645 C   0  0  0  0  0  0  0  0  0  0  0  0
  -28.8967  -21.8084   21.1346 C   0  0  0  0  0  0  0  0  0  0  0  0
  -22.6621  -21.2319   21.2011 C   0  0  0  0  0  0  0  0  0  0  0  0
  -23.0279  -23.2392   22.7071 C   0  0  0  0  0  0  0  0  0  0  0  0
  -23.1518  -20.9591   23.6603 C   0  0  0  0  0  0  0  0  0  0  0  0
  -27.7431  -22.3959   20.3128 C   0  0  1  0  0  0  0  0  0  0  0  0
  -28.6598  -25.9465   19.3200 C   0  0  1  0  0  0  0  0  0  0  0  0
  -22.4054  -20.3733   22.4517 C   0  0  2  0  0  0  0  0  0  0  0  0
  -34.0642  -31.3218   20.6993 C   0  0  0  0  0  0  0  0  0  0  0  0
  -19.6136  -30.0013   22.9193 C   0  0  0  0  0  0  0  0  0  0  0  0
  -18.7709  -23.7515   25.3459 C   0  0  0  0  0  0  0  0  0  0  0  0
  -18.8924  -25.9485   26.4922 C   0  0  0  0  0  0  0  0  0  0  0  0
  -31.1884  -25.8992   23.1884 C   0  0  0  0  0  0  0  0  0  0  0  0
  -32.6912  -27.8741   23.5189 C   0  0  0  0  0  0  0  0  0  0  0  0
  -33.2732  -26.1355   21.8274 C   0  0  0  0  0  0  0  0  0  0  0  0
  -23.8774  -32.5114   23.3445 C   0  0  0  0  0  0  0  0  0  0  0  0
  -23.3244  -30.7640   25.0372 C   0  0  0  0  0  0  0  0  0  0  0  0
  -23.1016  -25.0178   25.0788 C   0  0  0  0  0  0  0  0  0  0  0  0
  -31.2143  -31.5576   18.1896 C   0  0  0  0  0  0  0  0  0  0  0  0
  -21.9566  -30.9747   22.8796 C   0  0  0  0  0  0  0  0  0  0  0  0
  -21.5516  -28.4612   22.5738 C   0  0  0  0  0  0  0  0  0  0  0  0
  -20.9747  -24.5641   26.2434 C   0  0  0  0  0  0  0  0  0  0  0  0
  -24.3757  -30.0953   22.8630 C   0  0  0  0  0  0  0  0  0  1  0  0
  -31.3585  -27.7210   21.3669 C   0  0  1  0  0  0  0  0  0  0  0  0
  -32.9525  -30.7876   19.8097 C   0  0  2  0  0  0  0  0  0  0  0  0
  -21.0856  -29.7557   23.2822 C   0  0  2  0  0  0  0  0  0  0  0  0
  -19.6752  -25.0360   25.4818 C   0  0  0  0  0  0  0  0  0  0  0  0
  -32.1009  -26.9110   22.4670 C   0  0  0  0  0  0  0  0  0  0  0  0
  -23.3711  -31.0631   23.5302 C   0  0  0  0  0  0  0  0  0  0  0  0
  -23.7679  -18.6180   21.3820 N   0  0  0  0  0  0  0  0  0  0  0  0
  -20.7252  -26.8566   24.2611 N   0  0  0  0  0  0  0  0  0  0  0  0
  -20.7705  -27.2308   22.9711 N   0  0  0  0  0  0  0  0  0  0  0  0
  -22.7589  -18.9163   22.2180 N   0  0  0  0  0  0  0  0  0  0  0  0
  -29.3445  -26.9211   20.1719 N   0  0  0  0  0  0  0  0  0  0  0  0
  -22.7959  -22.3653   23.8653 N   0  0  0  0  0  0  0  0  0  0  0  0
  -21.1283  -17.9428   23.6337 N   0  0  0  0  0  0  0  0  0  0  0  0
  -23.3144  -14.3677   21.9498 N   0  0  0  0  0  0  0  0  0  0  0  0
  -28.1712  -23.5960   19.6266 N   0  0  0  0  0  0  0  0  0  0  0  0
  -32.2046  -28.6679   20.6485 N   0  0  0  0  0  0  0  0  0  0  0  0
  -22.0053  -24.0852   25.3330 N   0  0  0  0  0  0  0  0  0  0  0  0
  -32.3111  -31.9400   19.1157 N   0  3  0  0  0  0  0  0  0  0  0  0
  -21.6089  -15.0245   23.3348 O   0  0  0  0  0  0  0  0  0  0  0  0
  -27.8271  -25.1077   21.3640 O   0  0  0  0  0  0  0  0  0  0  0  0
  -31.4587  -26.0885   19.6489 O   0  0  0  0  0  0  0  0  0  0  0  0
  -30.9649  -30.5585   21.1641 O   0  0  0  0  0  0  0  0  0  0  0  0
  -21.4111  -21.8809   25.6419 O   0  0  0  0  0  0  0  0  0  0  0  0
  -27.5740  -14.5020   18.3618 O   0  0  0  0  0  0  0  0  0  0  0  0
  -24.1821  -30.0465   21.4501 O   0  0  0  0  0  0  0  0  0  1  0  0
  -30.2696  -10.3518   20.7935 F   0  0  0  0  0  0  0  0  0  0  0  0
  -30.3283  -14.5440   18.5963 F   0  0  0  0  0  0  0  0  0  0  0  0
  1  2  1  0  0  0  0
  1  5  2  0  0  0  0
  2  6  2  0  0  0  0
  3  8  2  0  0  0  0
  3 17  1  0  0  0  0
  4  9  1  0  0  0  0
  4 17  2  0  0  0  0
  5 19  1  0  0  0  0
  6 21  1  0  0  0  0
  7 10  2  0  0  0  0
  7 20  1  0  0  0  0
  8 23  1  0  0  0  0
  9 23  2  0  0  0  0
 10 24  1  0  0  0  0
 11 12  2  0  0  0  0
 11 25  1  0  0  0  0
 12 26  1  0  0  0  0
 13 16  2  0  0  0  0
 13 29  1  0  0  0  0
 14 22  1  0  0  0  0
 14 24  2  0  0  0  0
 15 26  2  0  0  0  0
 15 27  1  0  0  0  0
 16 71  1  0  0  0  0
 17 28  1  0  0  0  0
 18 28  1  0  0  0  0
 18 30  2  0  0  0  0
 18 31  1  0  0  0  0
 19 21  2  0  0  0  0
 19 36  1  0  0  0  0
 20 22  2  0  0  0  0
 20 37  1  0  0  0  0
 21 45  1  0  0  0  0
 22 38  1  0  0  0  0
 23 86  1  0  0  0  0
 24 87  1  0  0  0  0
 25 27  2  0  0  0  0
 25 86  1  0  0  0  0
 26 88  1  0  0  0  0
 27 89  1  0  0  0  0
 28 69  2  0  0  0  0
 29 66  1  0  0  0  0
 29 70  2  0  0  0  0
 30 72  1  0  0  0  0
 30 75  1  0  0  0  0
 31 76  1  0  0  0  0
 31 81  2  0  0  0  0
 32 46  1  0  0  0  0
 32 77  1  0  0  0  0
 32 82  2  0  0  0  0
 33 63  1  0  0  0  0
 33 73  1  0  0  0  0
 33 83  2  0  0  0  0
 34 64  1  0  0  0  0
 34 78  1  0  0  0  0
 34 84  2  0  0  0  0
 35 74  1  0  0  0  0
 35 79  1  0  0  0  0
 35 85  2  0  0  0  0
 36 39  1  0  0  0  0
 37 46  1  0  0  0  0
 38 73  1  0  0  0  0
 39 41  1  0  0  0  0
 40 42  1  0  0  0  0
 40 43  1  0  0  0  0
 41 45  1  0  0  0  0
 42 47  1  0  0  0  0
 43 74  1  0  0  0  0
 44 47  1  0  0  0  0
 44 74  1  0  0  0  0
 45 77  1  0  0  0  0
 46 73  1  0  0  0  0
 47 72  1  0  0  0  0
 48 64  1  0  0  0  0
 49 65  1  0  0  0  0
 50 66  1  0  0  0  0
 51 66  1  0  0  0  0
 52 67  1  0  0  0  0
 53 67  1  0  0  0  0
 54 67  1  0  0  0  0
 55 68  1  0  0  0  0
 56 68  1  0  0  0  0
 57 79  1  0  0  0  0
 58 80  1  0  0  0  0
 59 65  1  0  0  0  0
 59 68  1  0  0  0  0
 60 65  1  0  0  0  0
 60 71  1  0  0  0  0
 61 66  1  0  0  0  0
 61 79  1  0  0  0  0
 62 68  1  0  0  0  0
 62 87  1  0  0  0  0
 63 67  1  0  0  0  0
 63 78  1  0  0  0  0
 64 80  1  0  0  0  0
 69 72  1  0  0  0  0
 70 71  1  0  0  0  0
M  CHG  1  80   1
M  ISO  4  35 100  62 101  79 100  87 101
M  END
> <Batch ID>
0069

> <Smiles>
CNC(C)C(=O)NC(C(=O)N1Cc2cc([101O:1][101CH2:1]C(C)(C)CC(C)Cn3ccc(C(C)(C)C[100N:0](C)[100C:0](=O)N4CCCC(n5nc(-c6ccc(Oc7ccc(F)cc7F)cc6)c(C(N)=O)c5N)C4)n3)ccc2CC1C(=O)NC1CCCc2ccccc21)C(C)(C)C

> <Shape>
0.224

> <Color>
0.041

> <Negative vol penalty>
0.000

$$$$

  -OEChem-04052318173D

 84 92  0     1  0  0  0  0  0999 V2000
  -19.2407  -22.5800   23.3987 C   0  0  0  0  0  0  0  0  0  0  0  0
  -20.5642  -22.2206   23.1654 C   0  0  0  0  0  0  0  0  0  0  0  0
  -26.3280  -13.9525   22.9184 C   0  0  0  0  0  0  0  0  0  0  0  0
  -25.5514  -13.8697   20.6321 C   0  0  0  0  0  0  0  0  0  0  0  0
  -18.7376  -23.7667   22.8670 C   0  0  0  0  0  0  0  0  0  0  0  0
  -21.3853  -23.0473   22.3993 C   0  0  0  0  0  0  0  0  0  0  0  0
  -28.2102  -25.1435   21.8142 C   0  0  0  0  0  0  0  0  0  0  0  0
  -25.4265  -12.9449   23.2612 C   0  0  0  0  0  0  0  0  0  0  0  0
  -24.6499  -12.8620   20.9749 C   0  0  0  0  0  0  0  0  0  0  0  0
  -29.2289  -25.2433   20.8676 C   0  0  0  0  0  0  0  0  0  0  0  0
  -22.3960  -10.0161   21.1709 C   0  0  0  0  0  0  0  0  0  0  0  0
  -22.2990   -8.9148   20.3204 C   0  0  0  0  0  0  0  0  0  0  0  0
  -28.2738  -27.3084   20.0662 C   0  0  0  0  0  0  0  0  0  0  0  0
  -24.6370   -8.4270   20.6855 C   0  0  0  0  0  0  0  0  0  0  0  0
  -28.6829  -24.9163   17.2554 C   0  0  0  0  0  0  0  0  0  0  0  0
  -26.3905  -14.4150   21.6039 C   0  0  0  0  0  0  0  0  0  0  0  0
  -28.6471  -15.2961   20.8045 C   0  0  0  0  0  0  0  0  0  0  0  0
  -19.5557  -24.6131   22.1021 C   0  0  0  0  0  0  0  0  0  0  0  0
  -27.2078  -26.1215   21.8868 C   0  0  0  0  0  0  0  0  0  0  0  0
  -20.8924  -24.2458   21.8557 C   0  0  0  0  0  0  0  0  0  0  0  0
  -27.2449  -27.2201   21.0163 C   0  0  0  0  0  0  0  0  0  0  0  0
  -29.7482  -24.3480   17.9237 C   0  0  0  0  0  0  0  0  0  0  0  0
  -24.5875  -12.3996   22.2894 C   0  0  0  0  0  0  0  0  0  0  0  0
  -29.2592  -26.3243   19.9915 C   0  0  0  0  0  0  0  0  0  0  0  0
  -23.6134  -10.3229   21.7787 C   0  0  0  0  0  0  0  0  0  0  0  0
  -23.4195   -8.1203   20.0777 C   0  0  0  0  0  0  0  0  0  0  0  0
  -24.7339   -9.5284   21.5360 C   0  0  0  0  0  0  0  0  0  0  0  0
  -27.3211  -15.4563   21.2493 C   0  0  0  0  0  0  0  0  0  0  0  0
  -29.7698  -22.9685   17.9490 C   0  0  0  0  0  0  0  0  0  0  0  0
  -29.0991  -16.5774   20.6037 C   0  0  0  0  0  0  0  0  0  0  0  0
  -27.8419  -22.8661   16.7492 C   0  0  0  0  0  0  0  0  0  0  0  0
  -29.4027  -14.0962   20.5918 C   0  0  0  0  0  0  0  0  0  0  0  0
  -24.0516  -26.1307   21.5104 C   0  0  0  0  0  0  0  0  0  0  0  0
  -24.3334  -29.2066   22.5013 C   0  0  0  0  0  0  0  0  0  0  0  0
  -26.3013  -31.9751   22.8320 C   0  0  0  0  0  0  0  0  0  0  0  0
  -26.3162  -21.7421   19.4067 C   0  0  0  0  0  0  0  0  0  0  0  0
  -18.9540  -25.8623   21.5087 C   0  0  0  0  0  0  0  0  0  0  0  0
  -26.1309  -26.0132   22.9312 C   0  0  0  0  0  0  0  0  0  0  0  0
  -26.2038  -28.3073   21.0666 C   0  0  0  0  0  0  0  0  0  0  0  0
  -19.9945  -26.8672   21.0212 C   0  0  0  0  0  0  0  0  0  0  0  0
  -28.4680  -21.0576   22.1595 C   0  0  0  0  0  0  0  0  0  0  0  0
  -21.0731  -26.1644   20.2029 C   0  0  0  0  0  0  0  0  0  0  0  0
  -28.5377  -19.5300   22.1983 C   0  0  0  0  0  0  0  0  0  0  0  0
  -27.0798  -21.5491   21.7553 C   0  0  0  0  0  0  0  0  0  0  0  0
  -26.6352  -19.4559   20.5328 C   0  0  0  0  0  0  0  0  0  0  0  0
  -21.8212  -25.1284   21.0505 C   0  0  1  0  0  0  0  0  0  0  0  0
  -24.8728  -26.7997   22.5760 C   0  0  1  0  0  0  0  0  0  0  0  0
  -28.0313  -18.9120   20.8811 C   0  0  2  0  0  0  0  0  0  0  0  0
  -30.8754  -22.2438   18.6433 C   0  0  0  0  0  0  0  0  0  0  0  0
  -31.9459  -25.5405   17.6208 C   0  0  0  0  0  0  0  0  0  0  0  0
  -26.2415  -34.3488   23.6439 C   0  0  0  0  0  0  0  0  0  0  0  0
  -27.2503  -20.6427   15.5645 C   0  0  0  0  0  0  0  0  0  0  0  0
  -26.2188  -22.7788   14.8372 C   0  0  0  0  0  0  0  0  0  0  0  0
  -22.8026  -30.0239   19.9916 C   0  0  0  0  0  0  0  0  0  0  0  0
  -23.5917  -32.3713   20.3591 C   0  0  0  0  0  0  0  0  0  0  0  0
  -22.1467  -31.2619   22.0631 C   0  0  0  0  0  0  0  0  0  0  0  0
  -28.3920  -31.4558   24.8614 C   0  0  0  0  0  0  0  0  0  0  0  0
  -25.5594  -21.7725   17.0433 C   0  0  0  0  0  0  0  0  0  0  0  0
  -30.8088  -25.2042   18.5772 C   0  0  1  0  0  0  0  0  0  1  0  0
  -24.5554  -30.5340   21.8174 C   0  0  1  0  0  0  0  0  0  0  0  0
  -26.5441  -32.9037   24.0081 C   0  0  2  0  0  0  0  0  0  0  0  0
  -26.7836  -22.0428   16.0962 C   0  0  0  0  0  0  0  0  0  0  0  0
  -23.2928  -31.0265   21.0553 C   0  0  0  0  0  0  0  0  0  0  0  0
  -27.7082  -24.2027   16.6545 N   0  0  0  0  0  0  0  0  0  0  0  0
  -26.9546  -16.7384   21.3269 N   0  0  0  0  0  0  0  0  0  0  0  0
  -28.8294  -22.1933   17.3702 N   0  0  0  0  0  0  0  0  0  0  0  0
  -28.0571  -17.3954   20.9281 N   0  0  0  0  0  0  0  0  0  0  0  0
  -25.1677  -28.1531   22.1011 N   0  0  0  0  0  0  0  0  0  0  0  0
  -26.6592  -20.9266   20.4978 N   0  0  0  0  0  0  0  0  0  0  0  0
  -30.2823  -17.0729   20.1831 N   0  0  0  0  0  0  0  0  0  0  0  0
  -28.7855  -12.8640   20.8469 N   0  0  0  0  0  0  0  0  0  0  0  0
  -22.7783  -25.7810   21.9179 N   0  0  0  0  0  0  0  0  0  0  0  0
  -25.0259  -31.4513   22.8497 N   0  0  0  0  0  0  0  0  0  0  0  0
  -25.9349  -21.0715   18.2510 N   0  0  0  0  0  0  0  0  0  0  0  0
  -27.9645  -32.8181   24.4509 N   0  3  0  0  0  0  0  0  0  0  0  0
  -30.5952  -14.1168   20.2033 O   0  0  0  0  0  0  0  0  0  0  0  0
  -24.5366  -25.9467   20.4002 O   0  0  0  0  0  0  0  0  0  0  0  0
  -23.4570  -29.1098   23.3640 O   0  0  0  0  0  0  0  0  0  0  0  0
  -27.1561  -31.7410   21.9806 O   0  0  0  0  0  0  0  0  0  0  0  0
  -26.3526  -22.9762   19.4571 O   0  0  0  0  0  0  0  0  0  0  0  0
  -23.7079  -11.4161   22.6235 O   0  0  0  0  0  0  0  0  0  0  0  0
  -30.2521  -26.4238   19.0662 O   0  0  0  0  0  0  0  0  0  1  0  0
  -23.3259   -7.0618   19.2622 F   0  0  0  0  0  0  0  0  0  0  0  0
  -25.9059   -9.8175   22.1180 F   0  0  0  0  0  0  0  0  0  0  0  0
  1  2  1  0  0  0  0
  1  5  2  0  0  0  0
  2  6  2  0  0  0  0
  3  8  2  0  0  0  0
  3 16  1  0  0  0  0
  4  9  1  0  0  0  0
  4 16  2  0  0  0  0
  5 18  1  0  0  0  0
  6 20  1  0  0  0  0
  7 10  2  0  0  0  0
  7 19  1  0  0  0  0
  8 23  1  0  0  0  0
  9 23  2  0  0  0  0
 10 24  1  0  0  0  0
 11 12  2  0  0  0  0
 11 25  1  0  0  0  0
 12 26  1  0  0  0  0
 13 21  1  0  0  0  0
 13 24  2  0  0  0  0
 14 26  2  0  0  0  0
 14 27  1  0  0  0  0
 15 22  1  0  0  0  0
 15 64  2  0  0  0  0
 16 28  1  0  0  0  0
 17 28  1  0  0  0  0
 17 30  2  0  0  0  0
 17 32  1  0  0  0  0
 18 20  2  0  0  0  0
 18 37  1  0  0  0  0
 19 21  2  0  0  0  0
 19 38  1  0  0  0  0
 20 46  1  0  0  0  0
 21 39  1  0  0  0  0
 22 29  2  0  0  0  0
 22 59  1  0  0  0  0
 23 81  1  0  0  0  0
 24 82  1  0  0  0  0
 25 27  2  0  0  0  0
 25 81  1  0  0  0  0
 26 83  1  0  0  0  0
 27 84  1  0  0  0  0
 28 65  2  0  0  0  0
 29 49  1  0  0  0  0
 29 66  1  0  0  0  0
 30 67  1  0  0  0  0
 30 70  1  0  0  0  0
 31 62  1  0  0  0  0
 31 64  1  0  0  0  0
 31 66  2  0  0  0  0
 32 71  1  0  0  0  0
 32 76  2  0  0  0  0
 33 47  1  0  0  0  0
 33 72  1  0  0  0  0
 33 77  2  0  0  0  0
 34 60  1  0  0  0  0
 34 68  1  0  0  0  0
 34 78  2  0  0  0  0
 35 61  1  0  0  0  0
 35 73  1  0  0  0  0
 35 79  2  0  0  0  0
 36 69  1  0  0  0  0
 36 74  1  0  0  0  0
 36 80  2  0  0  0  0
 37 40  1  0  0  0  0
 38 47  1  0  0  0  0
 39 68  1  0  0  0  0
 40 42  1  0  0  0  0
 41 43  1  0  0  0  0
 41 44  1  0  0  0  0
 42 46  1  0  0  0  0
 43 48  1  0  0  0  0
 44 69  1  0  0  0  0
 45 48  1  0  0  0  0
 45 69  1  0  0  0  0
 46 72  1  0  0  0  0
 47 68  1  0  0  0  0
 48 67  1  0  0  0  0
 50 59  1  0  0  0  0
 51 61  1  0  0  0  0
 52 62  1  0  0  0  0
 53 62  1  0  0  0  0
 54 63  1  0  0  0  0
 55 63  1  0  0  0  0
 56 63  1  0  0  0  0
 57 75  1  0  0  0  0
 58 62  1  0  0  0  0
 58 74  1  0  0  0  0
 59 82  1  0  0  0  0
 60 63  1  0  0  0  0
 60 73  1  0  0  0  0
 61 75  1  0  0  0  0
 65 67  1  0  0  0  0
M  CHG  1  75   1
M  ISO  4  36 100  59 101  74 100  82 101
M  END
> <Batch ID>
0069

> <Smiles>
CNC(C)C(=O)NC(C(=O)N1Cc2cc([101O:1][101CH:1](C)c3cnc(C(C)(C)C[100NH:0][100C:0](=O)N4CCCC(n5nc(-c6ccc(Oc7ccc(F)cc7F)cc6)c(C(N)=O)c5N)C4)nc3C)ccc2CC1C(=O)NC1CCCc2ccccc21)C(C)(C)C

> <Shape>
0.268

> <Color>
0.054

> <Negative vol penalty>
0.000

$$$$

  -OEChem-04052318173D

 86 94  0     1  0  0  0  0  0999 V2000
  -18.8368  -29.2992   22.6064 C   0  0  0  0  0  0  0  0  0  0  0  0
  -20.1492  -28.8376   22.6035 C   0  0  0  0  0  0  0  0  0  0  0  0
  -26.3640  -12.4792   19.7489 C   0  0  0  0  0  0  0  0  0  0  0  0
  -26.1668  -13.7399   21.8004 C   0  0  0  0  0  0  0  0  0  0  0  0
  -17.7810  -28.3943   22.7088 C   0  0  0  0  0  0  0  0  0  0  0  0
  -20.4065  -27.4708   22.7040 C   0  0  0  0  0  0  0  0  0  0  0  0
  -23.9314  -25.9109   19.4197 C   0  0  0  0  0  0  0  0  0  0  0  0
  -25.1998  -11.7797   20.0667 C   0  0  0  0  0  0  0  0  0  0  0  0
  -25.0026  -13.0405   22.1183 C   0  0  0  0  0  0  0  0  0  0  0  0
  -25.2620  -26.1777   19.7393 C   0  0  0  0  0  0  0  0  0  0  0  0
  -24.3056   -9.2173   22.0814 C   0  0  0  0  0  0  0  0  0  0  0  0
  -24.3129   -7.8338   21.9043 C   0  0  0  0  0  0  0  0  0  0  0  0
  -25.5211  -23.9118   20.5254 C   0  0  0  0  0  0  0  0  0  0  0  0
  -22.4856   -8.0250   20.3353 C   0  0  0  0  0  0  0  0  0  0  0  0
  -30.7725  -24.6602   21.0012 C   0  0  0  0  0  0  0  0  0  0  0  0
  -26.8475  -13.4592   20.6157 C   0  0  0  0  0  0  0  0  0  0  0  0
  -29.3351  -13.6445   20.0817 C   0  0  0  0  0  0  0  0  0  0  0  0
  -18.0253  -27.0150   22.8009 C   0  0  0  0  0  0  0  0  0  0  0  0
  -23.3817  -24.6437   19.6610 C   0  0  0  0  0  0  0  0  0  0  0  0
  -19.3530  -26.5467   22.8091 C   0  0  0  0  0  0  0  0  0  0  0  0
  -24.1840  -23.6308   20.2056 C   0  0  0  0  0  0  0  0  0  0  0  0
  -24.5191  -12.0604   21.2514 C   0  0  0  0  0  0  0  0  0  0  0  0
  -26.0562  -25.1789   20.2949 C   0  0  0  0  0  0  0  0  0  0  0  0
  -23.3883  -10.0047   21.3855 C   0  0  0  0  0  0  0  0  0  0  0  0
  -23.4029   -7.2376   21.0312 C   0  0  0  0  0  0  0  0  0  0  0  0
  -22.4784   -9.4086   20.5125 C   0  0  0  0  0  0  0  0  0  0  0  0
  -28.0504  -14.1817   20.2882 C   0  0  0  0  0  0  0  0  0  0  0  0
  -30.0814  -25.5712   20.2533 C   0  0  0  0  0  0  0  0  0  0  0  0
  -30.1218  -14.7344   19.7997 C   0  0  0  0  0  0  0  0  0  0  0  0
  -30.8343  -23.9983   18.8896 C   0  0  0  0  0  0  0  0  0  0  0  0
  -29.7778  -12.2820   20.1396 C   0  0  0  0  0  0  0  0  0  0  0  0
  -21.0208  -23.5312   21.4756 C   0  0  0  0  0  0  0  0  0  0  0  0
  -21.6864  -20.7452   19.9534 C   0  0  0  0  0  0  0  0  0  0  0  0
  -28.7444  -20.0460   17.5268 C   0  0  0  0  0  0  0  0  0  0  0  0
  -23.9544  -18.8397   18.2586 C   0  0  0  0  0  0  0  0  0  0  0  0
  -16.8530  -26.0791   22.9573 C   0  0  0  0  0  0  0  0  0  0  0  0
  -21.9521  -24.3642   19.2859 C   0  0  0  0  0  0  0  0  0  0  0  0
  -23.6474  -22.2477   20.4655 C   0  0  0  0  0  0  0  0  0  0  0  0
  -17.1993  -24.6179   22.6827 C   0  0  0  0  0  0  0  0  0  0  0  0
  -30.4881  -19.4201   20.6565 C   0  0  0  0  0  0  0  0  0  0  0  0
  -18.4909  -24.2322   23.3967 C   0  0  0  0  0  0  0  0  0  0  0  0
  -30.1474  -17.9519   20.9079 C   0  0  0  0  0  0  0  0  0  0  0  0
  -29.3271  -20.1611   19.9985 C   0  0  0  0  0  0  0  0  0  0  0  0
  -28.5066  -18.0592   18.9820 C   0  0  0  0  0  0  0  0  0  0  0  0
  -19.6719  -25.0697   22.8914 C   0  0  1  0  0  0  0  0  0  0  0  0
  -21.3526  -23.1882   20.0509 C   0  0  1  0  0  0  0  0  0  0  0  0
  -29.6629  -17.2689   19.6170 C   0  0  2  0  0  0  0  0  0  0  0  0
  -32.6516  -23.1742   17.3826 C   0  0  0  0  0  0  0  0  0  0  0  0
  -24.8383  -16.9025   16.9307 C   0  0  0  0  0  0  0  0  0  0  0  0
  -29.9027  -28.1367   19.9983 C   0  0  0  0  0  0  0  0  0  0  0  0
  -29.5064  -27.0540   22.2002 C   0  0  0  0  0  0  0  0  0  0  0  0
  -28.1953  -22.3233   18.3458 C   0  0  0  0  0  0  0  0  0  0  0  0
  -28.8099  -21.9067   15.9584 C   0  0  0  0  0  0  0  0  0  0  0  0
  -21.9595  -19.4528   22.7039 C   0  0  0  0  0  0  0  0  0  0  0  0
  -23.1273  -17.5289   21.6069 C   0  0  0  0  0  0  0  0  0  0  0  0
  -20.7635  -18.0559   21.0090 C   0  0  0  0  0  0  0  0  0  0  0  0
  -29.5331  -25.8036   17.8119 C   0  0  0  0  0  0  0  0  0  0  0  0
  -23.1777  -20.0942   15.6930 C   0  0  0  0  0  0  0  0  0  0  0  0
  -30.6081  -21.7236   17.7034 C   0  0  0  0  0  0  0  0  0  0  0  0
  -27.8388  -26.7525   20.3413 C   0  0  0  0  0  0  0  0  0  1  0  0
  -31.1307  -23.1983   17.6753 C   0  0  1  0  0  0  0  0  0  0  0  0
  -22.6139  -19.5820   20.2096 C   0  0  1  0  0  0  0  0  0  0  0  0
  -23.8417  -18.0507   16.9666 C   0  0  2  0  0  0  0  0  0  0  0  0
  -29.3494  -26.8593   20.6745 C   0  0  0  0  0  0  0  0  0  0  0  0
  -29.0990  -21.5074   17.4160 C   0  0  0  0  0  0  0  0  0  0  0  0
  -22.1260  -18.6814   21.3794 C   0  0  0  0  0  0  0  0  0  0  0  0
  -28.0184  -15.5097   20.1493 N   0  0  0  0  0  0  0  0  0  0  0  0
  -30.1362  -25.1370   18.9508 N   0  0  0  0  0  0  0  0  0  0  0  0
  -29.2928  -15.8162   19.8526 N   0  0  0  0  0  0  0  0  0  0  0  0
  -31.2269  -23.6980   20.1318 N   0  3  0  0  0  0  0  0  0  0  0  0
  -22.2419  -22.0255   20.0876 N   0  0  0  0  0  0  0  0  0  0  0  0
  -28.8770  -19.4639   18.7877 N   0  0  0  0  0  0  0  0  0  0  0  0
  -31.4349  -14.8635   19.5141 N   0  0  0  0  0  0  0  0  0  0  0  0
  -30.2319  -11.7786   21.3663 N   0  0  0  0  0  0  0  0  0  0  0  0
  -20.1285  -24.5778   21.6092 N   0  0  0  0  0  0  0  0  0  0  0  0
  -22.7544  -18.8837   18.9364 N   0  0  0  0  0  0  0  0  0  0  0  0
  -24.1011  -18.9349   15.7953 N   0  3  0  0  0  0  0  0  0  0  0  0
  -29.7864  -11.5380   19.1297 O   0  0  0  0  0  0  0  0  0  0  0  0
  -21.5352  -22.8927   22.3863 O   0  0  0  0  0  0  0  0  0  0  0  0
  -20.5140  -20.5258   19.6386 O   0  0  0  0  0  0  0  0  0  0  0  0
  -28.3639  -19.4409   16.5212 O   0  0  0  0  0  0  0  0  0  0  0  0
  -25.0029  -19.3615   18.6312 O   0  0  0  0  0  0  0  0  0  0  0  0
  -23.3829  -11.3783   21.5618 O   0  0  0  0  0  0  0  0  0  0  0  0
  -27.3551  -25.4368   20.6084 O   0  0  0  0  0  0  0  0  0  1  0  0
  -23.4110   -5.9092   20.8601 F   0  0  0  0  0  0  0  0  0  0  0  0
  -21.5955  -10.1600   19.8403 F   0  0  0  0  0  0  0  0  0  0  0  0
  1  2  1  0  0  0  0
  1  5  2  0  0  0  0
  2  6  2  0  0  0  0
  3  8  2  0  0  0  0
  3 16  1  0  0  0  0
  4  9  1  0  0  0  0
  4 16  2  0  0  0  0
  5 18  1  0  0  0  0
  6 20  1  0  0  0  0
  7 10  2  0  0  0  0
  7 19  1  0  0  0  0
  8 22  1  0  0  0  0
  9 22  2  0  0  0  0
 10 23  1  0  0  0  0
 11 12  2  0  0  0  0
 11 24  1  0  0  0  0
 12 25  1  0  0  0  0
 13 21  1  0  0  0  0
 13 23  2  0  0  0  0
 14 25  2  0  0  0  0
 14 26  1  0  0  0  0
 15 28  2  0  0  0  0
 15 70  1  0  0  0  0
 16 27  1  0  0  0  0
 17 27  1  0  0  0  0
 17 29  2  0  0  0  0
 17 31  1  0  0  0  0
 18 20  2  0  0  0  0
 18 36  1  0  0  0  0
 19 21  2  0  0  0  0
 19 37  1  0  0  0  0
 20 45  1  0  0  0  0
 21 38  1  0  0  0  0
 22 83  1  0  0  0  0
 23 84  1  0  0  0  0
 24 26  2  0  0  0  0
 24 83  1  0  0  0  0
 25 85  1  0  0  0  0
 26 86  1  0  0  0  0
 27 67  2  0  0  0  0
 28 64  1  0  0  0  0
 28 68  1  0  0  0  0
 29 69  1  0  0  0  0
 29 73  1  0  0  0  0
 30 61  1  0  0  0  0
 30 68  1  0  0  0  0
 30 70  2  0  0  0  0
 31 74  1  0  0  0  0
 31 78  2  0  0  0  0
 32 46  1  0  0  0  0
 32 75  1  0  0  0  0
 32 79  2  0  0  0  0
 33 62  1  0  0  0  0
 33 71  1  0  0  0  0
 33 80  2  0  0  0  0
 34 65  1  0  0  0  0
 34 72  1  0  0  0  0
 34 81  2  0  0  0  0
 35 63  1  0  0  0  0
 35 76  1  0  0  0  0
 35 82  2  0  0  0  0
 36 39  1  0  0  0  0
 37 46  1  0  0  0  0
 38 71  1  0  0  0  0
 39 41  1  0  0  0  0
 40 42  1  0  0  0  0
 40 43  1  0  0  0  0
 41 45  1  0  0  0  0
 42 47  1  0  0  0  0
 43 72  1  0  0  0  0
 44 47  1  0  0  0  0
 44 72  1  0  0  0  0
 45 75  1  0  0  0  0
 46 71  1  0  0  0  0
 47 69  1  0  0  0  0
 48 61  1  0  0  0  0
 49 63  1  0  0  0  0
 50 64  1  0  0  0  0
 51 64  1  0  0  0  0
 52 65  1  0  0  0  0
 53 65  1  0  0  0  0
 54 66  1  0  0  0  0
 55 66  1  0  0  0  0
 56 66  1  0  0  0  0
 57 68  1  0  0  0  0
 58 77  1  0  0  0  0
 59 61  1  0  0  0  0
 59 65  1  0  0  0  0
 60 64  1  0  0  0  0
 60 84  1  0  0  0  0
 62 66  1  0  0  0  0
 62 76  1  0  0  0  0
 63 77  1  0  0  0  0
 67 69  1  0  0  0  0
M  CHG  2  70   1  77   1
M  ISO  4  34 100  60 101  65 100  84 101
M  END
> <Batch ID>
0069

> <Smiles>
CNC(C)C(=O)NC(C(=O)N1Cc2cc([101O:1][101CH2:1]C(C)(C)c3cnc(C(C)C[100C:0](C)(C)[100C:0](=O)N4CCCC(n5nc(-c6ccc(Oc7ccc(F)cc7F)cc6)c(C(N)=O)c5N)C4)n3C)ccc2CC1C(=O)NC1CCCc2ccccc21)C(C)(C)C

> <Shape>
0.256

> <Color>
0.054

> <Negative vol penalty>
0.000

$$$$

  -OEChem-04052318173D

 86 94  0     1  0  0  0  0  0999 V2000
  -22.1629  -32.5390   16.2131 C   0  0  0  0  0  0  0  0  0  0  0  0
  -21.4358  -31.4393   16.6575 C   0  0  0  0  0  0  0  0  0  0  0  0
  -30.3379  -23.2265   21.2122 C   0  0  0  0  0  0  0  0  0  0  0  0
  -28.5052  -23.4061   19.6482 C   0  0  0  0  0  0  0  0  0  0  0  0
  -23.4371  -32.7832   16.7236 C   0  0  0  0  0  0  0  0  0  0  0  0
  -21.9831  -30.5825   17.6118 C   0  0  0  0  0  0  0  0  0  0  0  0
  -20.0793  -26.4118   23.1161 C   0  0  0  0  0  0  0  0  0  0  0  0
  -30.8606  -24.4296   20.7379 C   0  0  0  0  0  0  0  0  0  0  0  0
  -29.0279  -24.6092   19.1739 C   0  0  0  0  0  0  0  0  0  0  0  0
  -20.2295  -25.1056   23.5802 C   0  0  0  0  0  0  0  0  0  0  0  0
  -30.2589  -27.7336   21.1303 C   0  0  0  0  0  0  0  0  0  0  0  0
  -30.6967  -28.6658   22.0710 C   0  0  0  0  0  0  0  0  0  0  0  0
  -22.4075  -25.6712   24.4494 C   0  0  0  0  0  0  0  0  0  0  0  0
  -32.9201  -28.5707   21.1304 C   0  0  0  0  0  0  0  0  0  0  0  0
  -22.8023  -14.4486   23.8460 C   0  0  0  0  0  0  0  0  0  0  0  0
  -29.1602  -22.7147   20.6673 C   0  0  0  0  0  0  0  0  0  0  0  0
  -27.7032  -21.2996   22.2107 C   0  0  0  0  0  0  0  0  0  0  0  0
  -23.9964  -31.9344   17.6919 C   0  0  0  0  0  0  0  0  0  0  0  0
  -21.0984  -27.3561   23.3060 C   0  0  0  0  0  0  0  0  0  0  0  0
  -23.2665  -30.8148   18.1348 C   0  0  0  0  0  0  0  0  0  0  0  0
  -22.2668  -26.9893   23.9891 C   0  0  0  0  0  0  0  0  0  0  0  0
  -30.2056  -25.1210   19.7188 C   0  0  0  0  0  0  0  0  0  0  0  0
  -21.3949  -24.7344   24.2443 C   0  0  0  0  0  0  0  0  0  0  0  0
  -31.1516  -27.2199   20.1896 C   0  0  0  0  0  0  0  0  0  0  0  0
  -32.0273  -29.0844   22.0710 C   0  0  0  0  0  0  0  0  0  0  0  0
  -32.4822  -27.6384   20.1897 C   0  0  0  0  0  0  0  0  0  0  0  0
  -28.6201  -21.4717   21.1564 C   0  0  0  0  0  0  0  0  0  0  0  0
  -27.5102  -19.9414   22.2796 C   0  0  0  0  0  0  0  0  0  0  0  0
  -22.0734  -16.2664   22.7500 C   0  0  0  0  0  0  0  0  0  0  0  0
  -23.5107  -14.8581   21.7561 C   0  0  0  0  0  0  0  0  0  0  0  0
  -27.0815  -22.2797   23.0525 C   0  0  0  0  0  0  0  0  0  0  0  0
  -22.9534  -29.0727   21.3783 C   0  0  0  0  0  0  0  0  0  0  0  0
  -23.9178  -30.4351   24.1596 C   0  0  0  0  0  0  0  0  0  0  0  0
  -24.2762  -30.1717   27.5433 C   0  0  0  0  0  0  0  0  0  0  0  0
  -26.6291  -15.0191   19.8017 C   0  0  0  0  0  0  0  0  0  0  0  0
  -25.3963  -32.2123   18.1794 C   0  0  0  0  0  0  0  0  0  0  0  0
  -20.9099  -28.7680   22.8230 C   0  0  0  0  0  0  0  0  0  0  0  0
  -23.3821  -27.9709   24.2363 C   0  0  0  0  0  0  0  0  0  0  0  0
  -25.7531  -31.4679   19.4635 C   0  0  0  0  0  0  0  0  0  0  0  0
  -29.9979  -16.1451   20.0467 C   0  0  0  0  0  0  0  0  0  0  0  0
  -25.3336  -30.0045   19.3662 C   0  0  0  0  0  0  0  0  0  0  0  0
  -29.8638  -17.6179   20.4379 C   0  0  0  0  0  0  0  0  0  0  0  0
  -28.8951  -15.7147   19.0821 C   0  0  0  0  0  0  0  0  0  0  0  0
  -27.3891  -17.4688   19.9357 C   0  0  0  0  0  0  0  0  0  0  0  0
  -23.8161  -29.8764   19.1872 C   0  0  1  0  0  0  0  0  0  0  0  0
  -22.2268  -29.5105   22.6185 C   0  0  1  0  0  0  0  0  0  0  0  0
  -28.4463  -17.9348   20.9513 C   0  0  2  0  0  0  0  0  0  0  0  0
  -25.1311  -31.4323   29.5377 C   0  0  0  0  0  0  0  0  0  0  0  0
  -22.5137  -13.1100   19.3938 C   0  0  0  0  0  0  0  0  0  0  0  0
  -26.7838  -29.7855   23.3387 C   0  0  0  0  0  0  0  0  0  0  0  0
  -27.4789  -30.1800   25.7113 C   0  0  0  0  0  0  0  0  0  0  0  0
  -26.4823  -32.0392   24.3800 C   0  0  0  0  0  0  0  0  0  0  0  0
  -21.6051  -30.1972   28.8175 C   0  0  0  0  0  0  0  0  0  0  0  0
  -21.2350  -17.5194   22.7109 C   0  0  0  0  0  0  0  0  0  0  0  0
  -21.8616  -18.7073   23.4499 C   0  0  0  0  0  0  0  0  0  0  0  0
  -21.0326  -19.9903   23.3336 C   0  0  0  0  0  0  0  0  0  0  0  0
  -21.6776  -21.1378   24.1089 C   0  0  0  0  0  0  0  0  0  0  0  0
  -20.8838  -22.4286   23.9654 C   0  0  0  0  0  0  0  0  0  1  0  0
  -24.3339  -14.4755   20.5735 C   0  0  1  0  0  0  0  0  0  0  0  0
  -25.0014  -30.1489   25.1709 C   0  0  1  0  0  0  0  0  0  0  0  0
  -23.9201  -31.1235   28.6710 C   0  0  2  0  0  0  0  0  0  0  0  0
  -23.5439  -14.2252   19.2577 C   0  0  2  0  0  0  0  0  0  0  0  0
  -26.4166  -30.5192   24.6440 C   0  0  0  0  0  0  0  0  0  0  0  0
  -22.0307  -15.5471   23.8830 N   0  0  0  0  0  0  0  0  0  0  0  0
  -23.5674  -14.0413   22.8204 N   0  0  0  0  0  0  0  0  0  0  0  0
  -28.9844  -20.3153   20.5960 N   0  0  0  0  0  0  0  0  0  0  0  0
  -22.7882  -15.9848   21.6488 N   0  0  0  0  0  0  0  0  0  0  0  0
  -28.2930  -19.4036   21.3008 N   0  0  0  0  0  0  0  0  0  0  0  0
  -23.1531  -29.3377   23.7394 N   0  0  0  0  0  0  0  0  0  0  0  0
  -27.5761  -16.0420   19.6290 N   0  0  0  0  0  0  0  0  0  0  0  0
  -26.7490  -19.1668   23.0815 N   0  0  0  0  0  0  0  0  0  0  0  0
  -27.3912  -23.6309   22.8459 N   0  0  0  0  0  0  0  0  0  0  0  0
  -23.1392  -30.0795   20.4501 N   0  0  0  0  0  0  0  0  0  0  0  0
  -24.6161  -30.8492   26.3914 N   0  0  0  0  0  0  0  0  0  0  0  0
  -25.4068  -15.4142   20.3316 N   0  0  0  0  0  0  0  0  0  0  0  0
  -22.8624  -30.5289   29.5362 N   0  3  0  0  0  0  0  0  0  0  0  0
  -26.2878  -21.9653   23.9716 O   0  0  0  0  0  0  0  0  0  0  0  0
  -23.3196  -27.9081   21.2719 O   0  0  0  0  0  0  0  0  0  0  0  0
  -23.7511  -31.5911   23.7627 O   0  0  0  0  0  0  0  0  0  0  0  0
  -24.2584  -28.9496   27.6724 O   0  0  0  0  0  0  0  0  0  0  0  0
  -26.8579  -13.8402   19.5107 O   0  0  0  0  0  0  0  0  0  0  0  0
  -22.8608  -15.4018   18.8335 O   0  0  0  0  0  0  0  0  0  0  0  0
  -30.7152  -26.2951   19.2559 O   0  0  0  0  0  0  0  0  0  0  0  0
  -21.5443  -23.4600   24.6977 O   0  0  0  0  0  0  0  0  0  1  0  0
  -32.4473  -29.9807   22.9734 F   0  0  0  0  0  0  0  0  0  0  0  0
  -33.3443  -27.1493   19.2877 F   0  0  0  0  0  0  0  0  0  0  0  0
  1  2  1  0  0  0  0
  1  5  2  0  0  0  0
  2  6  2  0  0  0  0
  3  8  2  0  0  0  0
  3 16  1  0  0  0  0
  4  9  1  0  0  0  0
  4 16  2  0  0  0  0
  5 18  1  0  0  0  0
  6 20  1  0  0  0  0
  7 10  2  0  0  0  0
  7 19  1  0  0  0  0
  8 22  1  0  0  0  0
  9 22  2  0  0  0  0
 10 23  1  0  0  0  0
 11 12  2  0  0  0  0
 11 24  1  0  0  0  0
 12 25  1  0  0  0  0
 13 21  1  0  0  0  0
 13 23  2  0  0  0  0
 14 25  2  0  0  0  0
 14 26  1  0  0  0  0
 15 64  2  0  0  0  0
 15 65  1  0  0  0  0
 16 27  1  0  0  0  0
 17 27  1  0  0  0  0
 17 28  2  0  0  0  0
 17 31  1  0  0  0  0
 18 20  2  0  0  0  0
 18 36  1  0  0  0  0
 19 21  2  0  0  0  0
 19 37  1  0  0  0  0
 20 45  1  0  0  0  0
 21 38  1  0  0  0  0
 22 83  1  0  0  0  0
 23 84  1  0  0  0  0
 24 26  2  0  0  0  0
 24 83  1  0  0  0  0
 25 85  1  0  0  0  0
 26 86  1  0  0  0  0
 27 66  2  0  0  0  0
 28 68  1  0  0  0  0
 28 71  1  0  0  0  0
 29 54  1  0  0  0  0
 29 64  1  0  0  0  0
 29 67  2  0  0  0  0
 30 59  1  0  0  0  0
 30 65  2  0  0  0  0
 30 67  1  0  0  0  0
 31 72  1  0  0  0  0
 31 77  2  0  0  0  0
 32 46  1  0  0  0  0
 32 73  1  0  0  0  0
 32 78  2  0  0  0  0
 33 60  1  0  0  0  0
 33 69  1  0  0  0  0
 33 79  2  0  0  0  0
 34 61  1  0  0  0  0
 34 74  1  0  0  0  0
 34 80  2  0  0  0  0
 35 70  1  0  0  0  0
 35 75  1  0  0  0  0
 35 81  2  0  0  0  0
 36 39  1  0  0  0  0
 37 46  1  0  0  0  0
 38 69  1  0  0  0  0
 39 41  1  0  0  0  0
 40 42  1  0  0  0  0
 40 43  1  0  0  0  0
 41 45  1  0  0  0  0
 42 47  1  0  0  0  0
 43 70  1  0  0  0  0
 44 47  1  0  0  0  0
 44 70  1  0  0  0  0
 45 73  1  0  0  0  0
 46 69  1  0  0  0  0
 47 68  1  0  0  0  0
 48 61  1  0  0  0  0
 49 62  1  0  0  0  0
 50 63  1  0  0  0  0
 51 63  1  0  0  0  0
 52 63  1  0  0  0  0
 53 76  1  0  0  0  0
 54 55  1  0  0  0  0
 55 56  1  0  0  0  0
 56 57  1  0  0  0  0
 57 58  1  0  0  0  0
 58 84  1  0  0  0  0
 59 62  1  0  0  0  0
 59 75  1  0  0  0  0
 60 63  1  0  0  0  0
 60 74  1  0  0  0  0
 61 76  1  0  0  0  0
 62 82  1  0  0  0  0
 66 68  1  0  0  0  0
M  CHG  1  76   1
M  ISO  4  35 100  58 101  75 100  84 101
M  END
> <Batch ID>
0069

> <Smiles>
CNC(C)C(=O)NC(C(=O)N1Cc2cc([101O:1][101CH2:1]CCCCc3ncnc(C([100NH:0][100C:0](=O)N4CCCC(n5nc(-c6ccc(Oc7ccc(F)cc7F)cc6)c(C(N)=O)c5N)C4)C(C)O)n3)ccc2CC1C(=O)NC1CCCc2ccccc21)C(C)(C)C

> <Shape>
0.222

> <Color>
0.051

> <Negative vol penalty>
0.000

$$$$

  -OEChem-04052318173D

 81 89  0     1  0  0  0  0  0999 V2000
  -24.5744  -11.2784   20.3932 C   0  0  0  0  0  0  0  0  0  0  0  0
  -24.1726  -12.5693   20.7211 C   0  0  0  0  0  0  0  0  0  0  0  0
  -25.3471  -27.2930   19.9903 C   0  0  0  0  0  0  0  0  0  0  0  0
  -25.8953  -28.9273   21.6831 C   0  0  0  0  0  0  0  0  0  0  0  0
  -25.9316  -10.9623   20.3482 C   0  0  0  0  0  0  0  0  0  0  0  0
  -25.1278  -13.5447   21.0052 C   0  0  0  0  0  0  0  0  0  0  0  0
  -24.1311  -17.9598   18.7341 C   0  0  0  0  0  0  0  0  0  0  0  0
  -26.4008  -27.7558   19.2022 C   0  0  0  0  0  0  0  0  0  0  0  0
  -26.9490  -29.3901   20.8951 C   0  0  0  0  0  0  0  0  0  0  0  0
  -23.1488  -18.7645   19.3097 C   0  0  0  0  0  0  0  0  0  0  0  0
  -30.0075  -30.7628   19.4880 C   0  0  0  0  0  0  0  0  0  0  0  0
  -31.2323  -30.9959   20.1135 C   0  0  0  0  0  0  0  0  0  0  0  0
  -24.8644  -20.1072   20.3456 C   0  0  0  0  0  0  0  0  0  0  0  0
  -31.3341  -28.6755   20.7789 C   0  0  0  0  0  0  0  0  0  0  0  0
  -17.6432  -23.8211   21.9191 C   0  0  0  0  0  0  0  0  0  0  0  0
  -25.0943  -27.8787   21.2307 C   0  0  0  0  0  0  0  0  0  0  0  0
  -24.0526  -26.3818   23.0145 C   0  0  0  0  0  0  0  0  0  0  0  0
  -26.9042  -11.9367   20.6225 C   0  0  0  0  0  0  0  0  0  0  0  0
  -25.4895  -18.2167   18.9691 C   0  0  0  0  0  0  0  0  0  0  0  0
  -26.4993  -13.2409   20.9651 C   0  0  0  0  0  0  0  0  0  0  0  0
  -25.8620  -19.3059   19.7698 C   0  0  0  0  0  0  0  0  0  0  0  0
  -27.2018  -28.8044   19.6546 C   0  0  0  0  0  0  0  0  0  0  0  0
  -23.5153  -19.8366   20.1180 C   0  0  0  0  0  0  0  0  0  0  0  0
  -29.4459  -29.4861   19.5081 C   0  0  0  0  0  0  0  0  0  0  0  0
  -31.8956  -29.9523   20.7589 C   0  0  0  0  0  0  0  0  0  0  0  0
  -30.1092  -28.4425   20.1534 C   0  0  0  0  0  0  0  0  0  0  0  0
  -24.0056  -27.4015   22.0450 C   0  0  0  0  0  0  0  0  0  0  0  0
  -17.6363  -24.7788   22.9093 C   0  0  0  0  0  0  0  0  0  0  0  0
  -18.2894  -23.2058   24.4352 C   0  0  0  0  0  0  0  0  0  0  0  0
  -18.2961  -22.2480   23.4451 C   0  0  0  0  0  0  0  0  0  0  0  0
  -22.7698  -26.3103   23.5001 C   0  0  0  0  0  0  0  0  0  0  0  0
  -25.1571  -25.5717   23.4382 C   0  0  0  0  0  0  0  0  0  0  0  0
  -17.2723  -26.1726   22.6237 C   0  0  0  0  0  0  0  0  0  0  0  0
  -27.8750  -16.6094   20.3217 C   0  0  0  0  0  0  0  0  0  0  0  0
  -29.6467  -19.1082   19.2542 C   0  0  0  0  0  0  0  0  0  0  0  0
  -29.7546  -22.3787   18.2852 C   0  0  0  0  0  0  0  0  0  0  0  0
  -28.3580  -11.5356   20.6075 C   0  0  0  0  0  0  0  0  0  0  0  0
  -26.5375  -17.3555   18.3192 C   0  0  0  0  0  0  0  0  0  0  0  0
  -27.3070  -19.6363   20.0368 C   0  0  0  0  0  0  0  0  0  0  0  0
  -29.3167  -12.7224   20.5557 C   0  0  0  0  0  0  0  0  0  0  0  0
  -18.8097  -29.3866   22.8436 C   0  0  0  0  0  0  0  0  0  0  0  0
  -28.9044  -13.7864   21.5680 C   0  0  0  0  0  0  0  0  0  0  0  0
  -20.3025  -29.0780   22.7155 C   0  0  0  0  0  0  0  0  0  0  0  0
  -17.9654  -28.4554   21.9771 C   0  0  0  0  0  0  0  0  0  0  0  0
  -19.7049  -26.7036   22.0783 C   0  0  0  0  0  0  0  0  0  0  0  0
  -27.5061  -14.3328   21.2555 C   0  0  1  0  0  0  0  0  0  0  0  0
  -27.8796  -17.3986   19.0432 C   0  0  1  0  0  0  0  0  0  0  0  0
  -20.5881  -27.5868   22.9750 C   0  0  1  0  0  0  0  0  0  0  0  0
  -18.6469  -22.8711   25.8430 C   0  0  0  0  0  0  0  0  0  0  0  0
  -31.3512  -24.1501   17.5041 C   0  0  0  0  0  0  0  0  0  0  0  0
  -30.6744  -19.4369   22.1083 C   0  0  0  0  0  0  0  0  0  0  0  0
  -31.4778  -21.7238   21.4813 C   0  0  0  0  0  0  0  0  0  0  0  0
  -32.4147  -19.7166   20.3341 C   0  0  0  0  0  0  0  0  0  0  0  0
  -28.3347  -22.6851   15.7066 C   0  0  0  0  0  0  0  0  0  0  0  0
  -18.6654  -20.8158   23.7388 C   0  0  0  0  0  0  0  0  0  0  0  0
  -19.3428  -20.0981   22.5661 C   0  0  0  0  0  0  0  0  0  0  0  0
  -20.6842  -20.7213   22.1771 C   0  0  0  0  0  0  0  0  0  0  0  0
  -21.3074  -20.0076   20.9852 C   0  0  0  0  0  0  0  0  0  1  0  0
  -30.0510  -20.4495   19.8166 C   0  0  1  0  0  0  0  0  0  0  0  0
  -30.3878  -23.0521   17.0811 C   0  0  2  0  0  0  0  0  0  0  0  0
  -31.1271  -20.3246   20.9318 C   0  0  0  0  0  0  0  0  0  0  0  0
  -17.9734  -22.5385   22.1692 N   0  0  0  0  0  0  0  0  0  0  0  0
  -22.7892  -27.9390   21.9206 N   0  0  0  0  0  0  0  0  0  0  0  0
  -17.9593  -24.4884   24.1851 N   0  0  0  0  0  0  0  0  0  0  0  0
  -22.0600  -27.2544   22.8182 N   0  0  0  0  0  0  0  0  0  0  0  0
  -18.2889  -27.0563   22.2538 N   0  0  0  0  0  0  0  0  0  0  0  0
  -28.2944  -18.7610   19.3839 N   0  0  0  0  0  0  0  0  0  0  0  0
  -22.1911  -25.5324   24.4394 N   0  0  0  0  0  0  0  0  0  0  0  0
  -26.4058  -25.7763   22.8354 N   0  0  0  0  0  0  0  0  0  0  0  0
  -27.5648  -15.2729   20.1568 N   0  0  0  0  0  0  0  0  0  0  0  0
  -30.4628  -21.2624   18.6772 N   0  0  0  0  0  0  0  0  0  0  0  0
  -29.3374  -23.6569   16.2139 N   0  3  0  0  0  0  0  0  0  0  0  0
  -25.0365  -24.6814   24.3136 O   0  0  0  0  0  0  0  0  0  0  0  0
  -16.0824  -26.4596   22.7465 O   0  0  0  0  0  0  0  0  0  0  0  0
  -28.1352  -17.1709   21.3794 O   0  0  0  0  0  0  0  0  0  0  0  0
  -30.4978  -18.3978   18.7133 O   0  0  0  0  0  0  0  0  0  0  0  0
  -28.7358  -22.8027   18.8264 O   0  0  0  0  0  0  0  0  0  0  0  0
  -28.2303  -29.2561   18.8860 O   0  0  0  0  0  0  0  0  0  0  0  0
  -22.5585  -20.6232   20.6816 O   0  0  0  0  0  0  0  0  0  1  0  0
  -33.0725  -30.1759   21.3581 F   0  0  0  0  0  0  0  0  0  0  0  0
  -29.5753  -27.2135   20.1750 F   0  0  0  0  0  0  0  0  0  0  0  0
  1  2  1  0  0  0  0
  1  5  2  0  0  0  0
  2  6  2  0  0  0  0
  3  8  2  0  0  0  0
  3 16  1  0  0  0  0
  4  9  1  0  0  0  0
  4 16  2  0  0  0  0
  5 18  1  0  0  0  0
  6 20  1  0  0  0  0
  7 10  2  0  0  0  0
  7 19  1  0  0  0  0
  8 22  1  0  0  0  0
  9 22  2  0  0  0  0
 10 23  1  0  0  0  0
 11 12  2  0  0  0  0
 11 24  1  0  0  0  0
 12 25  1  0  0  0  0
 13 21  1  0  0  0  0
 13 23  2  0  0  0  0
 14 25  2  0  0  0  0
 14 26  1  0  0  0  0
 15 28  1  0  0  0  0
 15 62  2  0  0  0  0
 16 27  1  0  0  0  0
 17 27  1  0  0  0  0
 17 31  2  0  0  0  0
 17 32  1  0  0  0  0
 18 20  2  0  0  0  0
 18 37  1  0  0  0  0
 19 21  2  0  0  0  0
 19 38  1  0  0  0  0
 20 46  1  0  0  0  0
 21 39  1  0  0  0  0
 22 78  1  0  0  0  0
 23 79  1  0  0  0  0
 24 26  2  0  0  0  0
 24 78  1  0  0  0  0
 25 80  1  0  0  0  0
 26 81  1  0  0  0  0
 27 63  2  0  0  0  0
 28 33  1  0  0  0  0
 28 64  2  0  0  0  0
 29 30  2  0  0  0  0
 29 49  1  0  0  0  0
 29 64  1  0  0  0  0
 30 55  1  0  0  0  0
 30 62  1  0  0  0  0
 31 65  1  0  0  0  0
 31 68  1  0  0  0  0
 32 69  1  0  0  0  0
 32 73  2  0  0  0  0
 33 66  1  0  0  0  0
 33 74  2  0  0  0  0
 34 47  1  0  0  0  0
 34 70  1  0  0  0  0
 34 75  2  0  0  0  0
 35 59  1  0  0  0  0
 35 67  1  0  0  0  0
 35 76  2  0  0  0  0
 36 60  1  0  0  0  0
 36 71  1  0  0  0  0
 36 77  2  0  0  0  0
 37 40  1  0  0  0  0
 38 47  1  0  0  0  0
 39 67  1  0  0  0  0
 40 42  1  0  0  0  0
 41 43  1  0  0  0  0
 41 44  1  0  0  0  0
 42 46  1  0  0  0  0
 43 48  1  0  0  0  0
 44 66  1  0  0  0  0
 45 48  1  0  0  0  0
 45 66  1  0  0  0  0
 46 70  1  0  0  0  0
 47 67  1  0  0  0  0
 48 65  1  0  0  0  0
 50 60  1  0  0  0  0
 51 61  1  0  0  0  0
 52 61  1  0  0  0  0
 53 61  1  0  0  0  0
 54 72  1  0  0  0  0
 55 56  1  0  0  0  0
 56 57  1  0  0  0  0
 57 58  1  0  0  0  0
 58 79  1  0  0  0  0
 59 61  1  0  0  0  0
 59 71  1  0  0  0  0
 60 72  1  0  0  0  0
 63 65  1  0  0  0  0
M  CHG  1  72   1
M  ISO  4  28 100  33 100  58 101  79 101
M  END
> <Batch ID>
0069

> <Smiles>
CNC(C)C(=O)NC(C(=O)N1Cc2cc([101O:1][101CH2:1]CCCc3nc[100c:0]([100C:0](=O)N4CCCC(n5nc(-c6ccc(Oc7ccc(F)cc7F)cc6)c(C(N)=O)c5N)C4)nc3C)ccc2CC1C(=O)NC1CCCc2ccccc21)C(C)(C)C

> <Shape>
0.212

> <Color>
0.071

> <Negative vol penalty>
0.000

$$$$

  -OEChem-04052318173D

 87 95  0     1  0  0  0  0  0999 V2000
  -19.4060  -30.2247   25.7110 C   0  0  0  0  0  0  0  0  0  0  0  0
  -20.7443  -29.9468   25.4516 C   0  0  0  0  0  0  0  0  0  0  0  0
  -22.6781  -13.8227   19.9995 C   0  0  0  0  0  0  0  0  0  0  0  0
  -24.3958  -14.7269   21.4379 C   0  0  0  0  0  0  0  0  0  0  0  0
  -18.4095  -29.6339   24.9353 C   0  0  0  0  0  0  0  0  0  0  0  0
  -21.0867  -29.0770   24.4170 C   0  0  0  0  0  0  0  0  0  0  0  0
  -25.9997  -29.4372   20.7785 C   0  0  0  0  0  0  0  0  0  0  0  0
  -23.3228  -12.5859   20.0070 C   0  0  0  0  0  0  0  0  0  0  0  0
  -25.0405  -13.4900   21.4455 C   0  0  0  0  0  0  0  0  0  0  0  0
  -27.2352  -28.7918   20.8042 C   0  0  0  0  0  0  0  0  0  0  0  0
  -23.6044   -9.9363   22.0886 C   0  0  0  0  0  0  0  0  0  0  0  0
  -22.8206   -8.7978   22.2760 C   0  0  0  0  0  0  0  0  0  0  0  0
  -26.4112  -27.1646   19.2255 C   0  0  0  0  0  0  0  0  0  0  0  0
  -28.5034  -24.2491   22.3894 C   0  0  0  0  0  0  0  0  0  0  0  0
  -23.5378   -7.9509   20.1299 C   0  0  0  0  0  0  0  0  0  0  0  0
  -29.6248  -23.5099   20.5822 C   0  0  0  0  0  0  0  0  0  0  0  0
  -23.2146  -14.8933   20.7149 C   0  0  0  0  0  0  0  0  0  0  0  0
  -21.5619  -16.6213   21.6039 C   0  0  0  0  0  0  0  0  0  0  0  0
  -18.7402  -28.7639   23.8845 C   0  0  0  0  0  0  0  0  0  0  0  0
  -24.9554  -28.9440   19.9831 C   0  0  0  0  0  0  0  0  0  0  0  0
  -20.0936  -28.4729   23.6273 C   0  0  0  0  0  0  0  0  0  0  0  0
  -25.1642  -27.8071   19.1895 C   0  0  0  0  0  0  0  0  0  0  0  0
  -29.5135  -24.5734   21.4504 C   0  0  0  0  0  0  0  0  0  0  0  0
  -24.5040  -12.4195   20.7300 C   0  0  0  0  0  0  0  0  0  0  0  0
  -27.4403  -27.6537   20.0298 C   0  0  0  0  0  0  0  0  0  0  0  0
  -24.3549  -10.0821   20.9219 C   0  0  0  0  0  0  0  0  0  0  0  0
  -22.7873   -7.8051   21.2967 C   0  0  0  0  0  0  0  0  0  0  0  0
  -24.3216   -9.0894   19.9426 C   0  0  0  0  0  0  0  0  0  0  0  0
  -22.5494  -16.1714   20.7071 C   0  0  0  0  0  0  0  0  0  0  0  0
  -28.0284  -22.9971   22.0665 C   0  0  0  0  0  0  0  0  0  0  0  0
  -21.2576  -17.8890   21.1718 C   0  0  0  0  0  0  0  0  0  0  0  0
  -20.9725  -15.9530   22.7271 C   0  0  0  0  0  0  0  0  0  0  0  0
  -22.0402  -27.8143   20.5565 C   0  0  0  0  0  0  0  0  0  0  0  0
  -21.8277  -27.8121   17.3197 C   0  0  0  0  0  0  0  0  0  0  0  0
  -23.4356  -27.7216   14.3108 C   0  0  0  0  0  0  0  0  0  0  0  0
  -24.3212  -22.3167   18.8422 C   0  0  0  0  0  0  0  0  0  0  0  0
  -17.6265  -28.1123   23.1036 C   0  0  0  0  0  0  0  0  0  0  0  0
  -23.6371  -29.6672   19.9461 C   0  0  0  0  0  0  0  0  0  0  0  0
  -24.0819  -27.2491   18.3030 C   0  0  0  0  0  0  0  0  0  0  0  0
  -18.0870  -27.4944   21.7859 C   0  0  0  0  0  0  0  0  0  0  0  0
  -21.7716  -20.3569   16.9315 C   0  0  0  0  0  0  0  0  0  0  0  0
  -19.3553  -26.6733   21.9957 C   0  0  0  0  0  0  0  0  0  0  0  0
  -21.6846  -19.0881   17.7783 C   0  0  0  0  0  0  0  0  0  0  0  0
  -23.1513  -20.9957   17.0347 C   0  0  0  0  0  0  0  0  0  0  0  0
  -23.4895  -20.0350   19.2884 C   0  0  0  0  0  0  0  0  0  0  0  0
  -20.5058  -27.5539   22.4979 C   0  0  1  0  0  0  0  0  0  0  0  0
  -22.4815  -28.7801   19.4934 C   0  0  1  0  0  0  0  0  0  0  0  0
  -22.1059  -19.3663   19.2313 C   0  0  2  0  0  0  0  0  0  0  0  0
  -22.9930  -27.6944   11.8408 C   0  0  0  0  0  0  0  0  0  0  0  0
  -31.3651  -25.9203   20.2519 C   0  0  0  0  0  0  0  0  0  0  0  0
  -31.1324  -26.0139   22.7247 C   0  0  0  0  0  0  0  0  0  0  0  0
  -27.4336  -20.7865   23.2711 C   0  0  0  0  0  0  0  0  0  0  0  0
  -26.4065  -22.9303   23.9735 C   0  0  0  0  0  0  0  0  0  0  0  0
  -21.0170  -24.8761   17.4997 C   0  0  0  0  0  0  0  0  0  0  0  0
  -21.5139  -24.6611   15.0553 C   0  0  0  0  0  0  0  0  0  0  0  0
  -19.7231  -26.2152   15.8302 C   0  0  0  0  0  0  0  0  0  0  0  0
  -28.5292  -21.2873   20.3003 C   0  0  0  0  0  0  0  0  0  0  0  0
  -22.8393  -22.7288   20.8506 C   0  0  0  0  0  0  0  0  0  0  0  0
  -24.8982  -30.2620   13.9032 C   0  0  0  0  0  0  0  0  0  0  0  0
  -25.7325  -21.9050   21.7756 C   0  0  0  0  0  0  0  0  0  0  0  0
  -25.2720  -23.1211   20.9701 C   0  0  0  0  0  0  0  0  0  0  0  0
  -29.3962  -27.1001   21.2643 C   0  0  0  0  0  0  0  0  0  1  0  0
  -22.1457  -26.8190   16.2281 C   0  0  1  0  0  0  0  0  0  0  0  0
  -23.2750  -28.5625   13.0572 C   0  0  2  0  0  0  0  0  0  0  0  0
  -30.3359  -25.8750   21.4069 C   0  0  0  0  0  0  0  0  0  0  0  0
  -26.9770  -22.1860   22.7144 C   0  0  0  0  0  0  0  0  0  0  0  0
  -21.1199  -25.6520   16.1714 C   0  0  0  0  0  0  0  0  0  0  0  0
  -22.8522  -17.0794   19.7755 N   0  0  0  0  0  0  0  0  0  0  0  0
  -28.7175  -22.5574   20.9666 N   0  0  0  0  0  0  0  0  0  0  0  0
  -22.0502  -18.1126   20.0846 N   0  0  0  0  0  0  0  0  0  0  0  0
  -22.8085  -27.9880   18.3061 N   0  0  0  0  0  0  0  0  0  0  0  0
  -23.5409  -21.2228   18.4327 N   0  0  0  0  0  0  0  0  0  0  0  0
  -20.3920  -18.8232   21.6195 N   0  0  0  0  0  0  0  0  0  0  0  0
  -21.4005  -14.6536   23.0315 N   0  0  0  0  0  0  0  0  0  0  0  0
  -21.0726  -28.3161   21.4059 N   0  0  0  0  0  0  0  0  0  0  0  0
  -22.2444  -27.5883   14.9924 N   0  0  0  0  0  0  0  0  0  0  0  0
  -24.1174  -22.7944   20.1456 N   0  0  0  0  0  0  0  0  0  0  0  0
  -24.5152  -29.3470   12.7973 N   0  3  0  0  0  0  0  0  0  0  0  0
  -20.0805  -16.4860   23.4299 O   0  0  0  0  0  0  0  0  0  0  0  0
  -22.5394  -26.6961   20.6018 O   0  0  0  0  0  0  0  0  0  0  0  0
  -20.7519  -28.4151   17.2940 O   0  0  0  0  0  0  0  0  0  0  0  0
  -24.5094  -27.2289   14.6493 O   0  0  0  0  0  0  0  0  0  0  0  0
  -25.1593  -22.8297   18.0897 O   0  0  0  0  0  0  0  0  0  0  0  0
  -25.1332  -11.2126   20.7378 O   0  0  0  0  0  0  0  0  0  0  0  0
  -28.6451  -27.0214   20.0535 O   0  0  0  0  0  0  0  0  0  1  0  0
  -22.0357   -6.7112   21.4774 F   0  0  0  0  0  0  0  0  0  0  0  0
  -25.0413   -9.2233   18.8202 F   0  0  0  0  0  0  0  0  0  0  0  0
  1  2  1  0  0  0  0
  1  5  2  0  0  0  0
  2  6  2  0  0  0  0
  3  8  2  0  0  0  0
  3 17  1  0  0  0  0
  4  9  1  0  0  0  0
  4 17  2  0  0  0  0
  5 19  1  0  0  0  0
  6 21  1  0  0  0  0
  7 10  2  0  0  0  0
  7 20  1  0  0  0  0
  8 24  1  0  0  0  0
  9 24  2  0  0  0  0
 10 25  1  0  0  0  0
 11 12  2  0  0  0  0
 11 26  1  0  0  0  0
 12 27  1  0  0  0  0
 13 22  1  0  0  0  0
 13 25  2  0  0  0  0
 14 23  1  0  0  0  0
 14 30  2  0  0  0  0
 15 27  2  0  0  0  0
 15 28  1  0  0  0  0
 16 23  2  0  0  0  0
 16 69  1  0  0  0  0
 17 29  1  0  0  0  0
 18 29  1  0  0  0  0
 18 31  2  0  0  0  0
 18 32  1  0  0  0  0
 19 21  2  0  0  0  0
 19 37  1  0  0  0  0
 20 22  2  0  0  0  0
 20 38  1  0  0  0  0
 21 46  1  0  0  0  0
 22 39  1  0  0  0  0
 23 65  1  0  0  0  0
 24 84  1  0  0  0  0
 25 85  1  0  0  0  0
 26 28  2  0  0  0  0
 26 84  1  0  0  0  0
 27 86  1  0  0  0  0
 28 87  1  0  0  0  0
 29 68  2  0  0  0  0
 30 66  1  0  0  0  0
 30 69  1  0  0  0  0
 31 70  1  0  0  0  0
 31 73  1  0  0  0  0
 32 74  1  0  0  0  0
 32 79  2  0  0  0  0
 33 47  1  0  0  0  0
 33 75  1  0  0  0  0
 33 80  2  0  0  0  0
 34 63  1  0  0  0  0
 34 71  1  0  0  0  0
 34 81  2  0  0  0  0
 35 64  1  0  0  0  0
 35 76  1  0  0  0  0
 35 82  2  0  0  0  0
 36 72  1  0  0  0  0
 36 77  1  0  0  0  0
 36 83  2  0  0  0  0
 37 40  1  0  0  0  0
 38 47  1  0  0  0  0
 39 71  1  0  0  0  0
 40 42  1  0  0  0  0
 41 43  1  0  0  0  0
 41 44  1  0  0  0  0
 42 46  1  0  0  0  0
 43 48  1  0  0  0  0
 44 72  1  0  0  0  0
 45 48  1  0  0  0  0
 45 72  1  0  0  0  0
 46 75  1  0  0  0  0
 47 71  1  0  0  0  0
 48 70  1  0  0  0  0
 49 64  1  0  0  0  0
 50 65  1  0  0  0  0
 51 65  1  0  0  0  0
 52 66  1  0  0  0  0
 53 66  1  0  0  0  0
 54 67  1  0  0  0  0
 55 67  1  0  0  0  0
 56 67  1  0  0  0  0
 57 69  1  0  0  0  0
 58 77  1  0  0  0  0
 59 78  1  0  0  0  0
 60 61  1  0  0  0  0
 60 66  1  0  0  0  0
 61 77  1  0  0  0  0
 62 65  1  0  0  0  0
 62 85  1  0  0  0  0
 63 67  1  0  0  0  0
 63 76  1  0  0  0  0
 64 78  1  0  0  0  0
 68 70  1  0  0  0  0
M  CHG  1  78   1
M  ISO  4  36 100  62 101  77 100  85 101
M  END
> <Batch ID>
0069

> <Smiles>
CNC(C)C(=O)NC(C(=O)N1Cc2cc([101O:1][101CH2:1]C(C)(C)c3cc(C(C)(C)CC[100N:0](C)[100C:0](=O)N4CCCC(n5nc(-c6ccc(Oc7ccc(F)cc7F)cc6)c(C(N)=O)c5N)C4)n(C)c3)ccc2CC1C(=O)NC1CCCc2ccccc21)C(C)(C)C

> <Shape>
0.202

> <Color>
0.080

> <Negative vol penalty>
0.000

$$$$

  -OEChem-04052318173D

 87 95  0     1  0  0  0  0  0999 V2000
  -16.6694  -30.1491   23.3144 C   0  0  0  0  0  0  0  0  0  0  0  0
  -17.8066  -30.7956   22.8409 C   0  0  0  0  0  0  0  0  0  0  0  0
  -25.0709  -16.4485   22.4111 C   0  0  0  0  0  0  0  0  0  0  0  0
  -25.7489  -16.0495   20.1268 C   0  0  0  0  0  0  0  0  0  0  0  0
  -16.7805  -28.8953   23.9141 C   0  0  0  0  0  0  0  0  0  0  0  0
  -19.0558  -30.1891   22.9678 C   0  0  0  0  0  0  0  0  0  0  0  0
  -25.3679  -29.6548   19.6229 C   0  0  0  0  0  0  0  0  0  0  0  0
  -23.8696  -15.7816   22.1710 C   0  0  0  0  0  0  0  0  0  0  0  0
  -24.5476  -15.3826   19.8867 C   0  0  0  0  0  0  0  0  0  0  0  0
  -26.7323  -29.8054   19.8669 C   0  0  0  0  0  0  0  0  0  0  0  0
  -21.8136  -13.2607   18.7726 C   0  0  0  0  0  0  0  0  0  0  0  0
  -21.8691  -12.0537   18.0757 C   0  0  0  0  0  0  0  0  0  0  0  0
  -26.7935  -27.6028   20.8488 C   0  0  0  0  0  0  0  0  0  0  0  0
  -32.8708  -22.5689   19.3786 C   0  0  0  0  0  0  0  0  0  0  0  0
  -23.2822  -11.1230   19.8003 C   0  0  0  0  0  0  0  0  0  0  0  0
  -33.0540  -24.4409   18.1408 C   0  0  0  0  0  0  0  0  0  0  0  0
  -26.0106  -16.5825   21.3889 C   0  0  0  0  0  0  0  0  0  0  0  0
  -28.4593  -16.7107   22.0924 C   0  0  0  0  0  0  0  0  0  0  0  0
  -18.0305  -28.2689   24.0396 C   0  0  0  0  0  0  0  0  0  0  0  0
  -24.7027  -28.4795   20.0005 C   0  0  0  0  0  0  0  0  0  0  0  0
  -19.1839  -28.9264   23.5709 C   0  0  0  0  0  0  0  0  0  0  0  0
  -25.4212  -27.4388   20.6061 C   0  0  0  0  0  0  0  0  0  0  0  0
  -32.5722  -23.1507   18.1218 C   0  0  0  0  0  0  0  0  0  0  0  0
  -23.6079  -15.2487   20.9088 C   0  0  0  0  0  0  0  0  0  0  0  0
  -27.4447  -28.7804   20.4826 C   0  0  0  0  0  0  0  0  0  0  0  0
  -22.4925  -13.3989   19.9833 C   0  0  0  0  0  0  0  0  0  0  0  0
  -22.6034  -10.9848   18.5896 C   0  0  0  0  0  0  0  0  0  0  0  0
  -23.2268  -12.3301   20.4971 C   0  0  0  0  0  0  0  0  0  0  0  0
  -27.2515  -17.2718   21.6362 C   0  0  0  0  0  0  0  0  0  0  0  0
  -33.5259  -23.5215   20.1275 C   0  0  0  0  0  0  0  0  0  0  0  0
  -29.3264  -17.7735   22.1633 C   0  0  0  0  0  0  0  0  0  0  0  0
  -28.7697  -15.3504   22.4226 C   0  0  0  0  0  0  0  0  0  0  0  0
  -22.3272  -27.7889   21.9964 C   0  0  0  0  0  0  0  0  0  0  0  0
  -22.6313  -24.8248   20.7144 C   0  0  0  0  0  0  0  0  0  0  0  0
  -24.6100  -22.5469   19.1199 C   0  0  0  0  0  0  0  0  0  0  0  0
  -29.5431  -23.0538   19.3486 C   0  0  0  0  0  0  0  0  0  0  0  0
  -18.1067  -26.9341   24.7376 C   0  0  0  0  0  0  0  0  0  0  0  0
  -23.2361  -28.3220   19.7061 C   0  0  0  0  0  0  0  0  0  0  0  0
  -24.7580  -26.1490   21.0125 C   0  0  0  0  0  0  0  0  0  0  0  0
  -19.4201  -26.1945   24.4961 C   0  0  0  0  0  0  0  0  0  0  0  0
  -29.4000  -22.5058   22.8637 C   0  0  0  0  0  0  0  0  0  0  0  0
  -20.6051  -27.1376   24.6783 C   0  0  0  0  0  0  0  0  0  0  0  0
  -28.9421  -21.0517   22.9888 C   0  0  0  0  0  0  0  0  0  0  0  0
  -28.7316  -23.2084   21.6840 C   0  0  0  0  0  0  0  0  0  0  0  0
  -28.4162  -21.0621   20.5146 C   0  0  0  0  0  0  0  0  0  0  0  0
  -20.5535  -28.2899   23.6679 C   0  0  1  0  0  0  0  0  0  0  0  0
  -22.5552  -27.2885   20.5981 C   0  0  1  0  0  0  0  0  0  0  0  0
  -29.1054  -20.2957   21.6565 C   0  0  2  0  0  0  0  0  0  0  0  0
  -34.0585  -23.4442   21.5035 C   0  0  0  0  0  0  0  0  0  0  0  0
  -24.5925  -20.1974   18.2384 C   0  0  0  0  0  0  0  0  0  0  0  0
  -35.5114  -26.2537   18.9204 C   0  0  0  0  0  0  0  0  0  0  0  0
  -32.0626  -20.9361   16.8838 C   0  0  0  0  0  0  0  0  0  0  0  0
  -32.3869  -23.0472   15.6213 C   0  0  0  0  0  0  0  0  0  0  0  0
  -22.8980  -23.7576   23.5605 C   0  0  0  0  0  0  0  0  0  0  0  0
  -23.8096  -21.6313   22.6033 C   0  0  0  0  0  0  0  0  0  0  0  0
  -21.4872  -22.3524   22.0474 C   0  0  0  0  0  0  0  0  0  0  0  0
  -25.1198  -23.4585   16.3507 C   0  0  0  0  0  0  0  0  0  0  0  0
  -31.8841  -26.8602   20.2390 C   0  0  0  0  0  0  0  0  0  0  0  0
  -30.9842  -28.0941   20.2801 C   0  0  0  0  0  0  0  0  0  0  0  0
  -33.3152  -27.1603   19.7720 C   0  0  0  0  0  0  0  0  0  0  0  0
  -30.3160  -22.7404   17.0111 C   0  0  0  0  0  0  0  0  0  0  0  0
  -29.5697  -27.7388   20.7183 C   0  0  0  0  0  0  0  0  0  1  0  0
  -23.4453  -23.5965   21.0424 C   0  0  1  0  0  0  0  0  0  0  0  0
  -24.3568  -21.6638   17.9114 C   0  0  2  0  0  0  0  0  0  0  0  0
  -34.2844  -25.9581   19.7933 C   0  0  1  0  0  0  0  0  0  0  0  0
  -31.8744  -22.4962   16.9987 C   0  0  0  0  0  0  0  0  0  0  0  0
  -22.9224  -22.8594   22.3076 C   0  0  0  0  0  0  0  0  0  0  0  0
  -27.3395  -18.5888   21.4317 N   0  0  0  0  0  0  0  0  0  0  0  0
  -33.6314  -24.6555   19.3651 N   0  0  0  0  0  0  0  0  0  0  0  0
  -28.6130  -18.8641   21.7612 N   0  0  0  0  0  0  0  0  0  0  0  0
  -23.3211  -26.0454   20.7091 N   0  0  0  0  0  0  0  0  0  0  0  0
  -28.9249  -22.4412   20.4511 N   0  0  0  0  0  0  0  0  0  0  0  0
  -30.6219  -17.8722   22.5298 N   0  0  0  0  0  0  0  0  0  0  0  0
  -27.7621  -14.3848   22.2930 N   0  0  0  0  0  0  0  0  0  0  0  0
  -20.9966  -27.8405   22.3655 N   0  0  0  0  0  0  0  0  0  0  0  0
  -23.4539  -22.7779   19.8348 N   0  0  0  0  0  0  0  0  0  0  0  0
  -29.6932  -22.2542   18.2221 N   0  0  0  0  0  0  0  0  0  0  0  0
  -25.2620  -22.0468   16.7911 N   0  3  0  0  0  0  0  0  0  0  0  0
  -29.9022  -15.0043   22.8365 O   0  0  0  0  0  0  0  0  0  0  0  0
  -23.2875  -28.1035   22.6897 O   0  0  0  0  0  0  0  0  0  0  0  0
  -21.4292  -24.7047   20.4649 O   0  0  0  0  0  0  0  0  0  0  0  0
  -25.7229  -22.9847   19.4035 O   0  0  0  0  0  0  0  0  0  0  0  0
  -29.9371  -24.2248   19.3685 O   0  0  0  0  0  0  0  0  0  0  0  0
  -22.4358  -14.5976   20.6743 O   0  0  0  0  0  0  0  0  0  0  0  0
  -28.7764  -28.9250   20.7225 O   0  0  0  0  0  0  0  0  0  1  0  0
  -22.6553   -9.8253   17.9210 F   0  0  0  0  0  0  0  0  0  0  0  0
  -23.8801  -12.4565   21.6603 F   0  0  0  0  0  0  0  0  0  0  0  0
  1  2  1  0  0  0  0
  1  5  2  0  0  0  0
  2  6  2  0  0  0  0
  3  8  2  0  0  0  0
  3 17  1  0  0  0  0
  4  9  1  0  0  0  0
  4 17  2  0  0  0  0
  5 19  1  0  0  0  0
  6 21  1  0  0  0  0
  7 10  2  0  0  0  0
  7 20  1  0  0  0  0
  8 24  1  0  0  0  0
  9 24  2  0  0  0  0
 10 25  1  0  0  0  0
 11 12  2  0  0  0  0
 11 26  1  0  0  0  0
 12 27  1  0  0  0  0
 13 22  1  0  0  0  0
 13 25  2  0  0  0  0
 14 23  1  0  0  0  0
 14 30  2  0  0  0  0
 15 27  2  0  0  0  0
 15 28  1  0  0  0  0
 16 23  2  0  0  0  0
 16 69  1  0  0  0  0
 17 29  1  0  0  0  0
 18 29  1  0  0  0  0
 18 31  2  0  0  0  0
 18 32  1  0  0  0  0
 19 21  2  0  0  0  0
 19 37  1  0  0  0  0
 20 22  2  0  0  0  0
 20 38  1  0  0  0  0
 21 46  1  0  0  0  0
 22 39  1  0  0  0  0
 23 66  1  0  0  0  0
 24 84  1  0  0  0  0
 25 85  1  0  0  0  0
 26 28  2  0  0  0  0
 26 84  1  0  0  0  0
 27 86  1  0  0  0  0
 28 87  1  0  0  0  0
 29 68  2  0  0  0  0
 30 49  1  0  0  0  0
 30 69  1  0  0  0  0
 31 70  1  0  0  0  0
 31 73  1  0  0  0  0
 32 74  1  0  0  0  0
 32 79  2  0  0  0  0
 33 47  1  0  0  0  0
 33 75  1  0  0  0  0
 33 80  2  0  0  0  0
 34 63  1  0  0  0  0
 34 71  1  0  0  0  0
 34 81  2  0  0  0  0
 35 64  1  0  0  0  0
 35 76  1  0  0  0  0
 35 82  2  0  0  0  0
 36 72  1  0  0  0  0
 36 77  1  0  0  0  0
 36 83  2  0  0  0  0
 37 40  1  0  0  0  0
 38 47  1  0  0  0  0
 39 71  1  0  0  0  0
 40 42  1  0  0  0  0
 41 43  1  0  0  0  0
 41 44  1  0  0  0  0
 42 46  1  0  0  0  0
 43 48  1  0  0  0  0
 44 72  1  0  0  0  0
 45 48  1  0  0  0  0
 45 72  1  0  0  0  0
 46 75  1  0  0  0  0
 47 71  1  0  0  0  0
 48 70  1  0  0  0  0
 50 64  1  0  0  0  0
 51 65  1  0  0  0  0
 52 66  1  0  0  0  0
 53 66  1  0  0  0  0
 54 67  1  0  0  0  0
 55 67  1  0  0  0  0
 56 67  1  0  0  0  0
 57 78  1  0  0  0  0
 58 59  1  0  0  0  0
 58 60  1  0  0  0  0
 59 62  1  0  0  0  0
 60 65  1  0  0  0  0
 61 66  1  0  0  0  0
 61 77  1  0  0  0  0
 62 85  1  0  0  0  0
 63 67  1  0  0  0  0
 63 76  1  0  0  0  0
 64 78  1  0  0  0  0
 65 69  1  0  0  0  0
 68 70  1  0  0  0  0
M  CHG  1  78   1
M  ISO  4  36 100  62 101  77 100  85 101
M  END
> <Batch ID>
0069

> <Smiles>
CNC(C)C(=O)NC(C(=O)N1Cc2cc([101O:1][101CH2:1]CCCC(C)n3cc(C(C)(C)C[100NH:0][100C:0](=O)N4CCCC(n5nc(-c6ccc(Oc7ccc(F)cc7F)cc6)c(C(N)=O)c5N)C4)cc3C)ccc2CC1C(=O)NC1CCCc2ccccc21)C(C)(C)C

> <Shape>
0.217

> <Color>
0.071

> <Negative vol penalty>
0.000

$$$$

  -OEChem-04052318173D

 87 95  0     1  0  0  0  0  0999 V2000
  -30.8641  -24.4114   19.2476 C   0  0  0  0  0  0  0  0  0  0  0  0
  -29.4732  -24.4146   19.2188 C   0  0  0  0  0  0  0  0  0  0  0  0
  -24.1518  -16.0468   20.1184 C   0  0  0  0  0  0  0  0  0  0  0  0
  -26.3129  -17.1127   19.9441 C   0  0  0  0  0  0  0  0  0  0  0  0
  -31.5409  -25.0975   20.2552 C   0  0  0  0  0  0  0  0  0  0  0  0
  -28.7583  -25.1030   20.1983 C   0  0  0  0  0  0  0  0  0  0  0  0
  -23.4462  -28.0648   19.4803 C   0  0  0  0  0  0  0  0  0  0  0  0
  -24.7711  -14.8499   20.4783 C   0  0  0  0  0  0  0  0  0  0  0  0
  -26.9323  -15.9158   20.3040 C   0  0  0  0  0  0  0  0  0  0  0  0
  -22.1269  -27.7033   19.7494 C   0  0  0  0  0  0  0  0  0  0  0  0
  -27.7548  -12.9916   18.8195 C   0  0  0  0  0  0  0  0  0  0  0  0
  -28.8681  -12.5904   18.0812 C   0  0  0  0  0  0  0  0  0  0  0  0
  -22.2587  -28.8303   21.8782 C   0  0  0  0  0  0  0  0  0  0  0  0
  -19.7837  -23.0865   22.1782 C   0  0  0  0  0  0  0  0  0  0  0  0
  -30.2165  -12.6441   20.0852 C   0  0  0  0  0  0  0  0  0  0  0  0
  -21.0530  -21.5244   20.9113 C   0  0  0  0  0  0  0  0  0  0  0  0
  -24.9227  -17.1782   19.8513 C   0  0  0  0  0  0  0  0  0  0  0  0
  -23.4553  -18.6413   18.3634 C   0  0  0  0  0  0  0  0  0  0  0  0
  -30.8341  -25.8027   21.2419 C   0  0  0  0  0  0  0  0  0  0  0  0
  -24.1864  -28.8037   20.4144 C   0  0  0  0  0  0  0  0  0  0  0  0
  -29.4263  -25.7981   21.2208 C   0  0  0  0  0  0  0  0  0  0  0  0
  -23.5864  -29.2021   21.6174 C   0  0  0  0  0  0  0  0  0  0  0  0
  -20.7443  -22.0820   22.1416 C   0  0  0  0  0  0  0  0  0  0  0  0
  -19.1698  -23.4970   21.0001 C   0  0  0  0  0  0  0  0  0  0  0  0
  -26.1613  -14.7844   20.5711 C   0  0  0  0  0  0  0  0  0  0  0  0
  -21.5338  -28.0835   20.9497 C   0  0  0  0  0  0  0  0  0  0  0  0
  -27.8723  -13.2192   20.1907 C   0  0  0  0  0  0  0  0  0  0  0  0
  -30.0989  -12.4166   18.7140 C   0  0  0  0  0  0  0  0  0  0  0  0
  -29.1031  -13.0453   20.8235 C   0  0  0  0  0  0  0  0  0  0  0  0
  -24.2836  -18.4147   19.4790 C   0  0  0  0  0  0  0  0  0  0  0  0
  -19.5491  -22.8762   19.8209 C   0  0  0  0  0  0  0  0  0  0  0  0
  -23.1059  -19.9662   18.4586 C   0  0  0  0  0  0  0  0  0  0  0  0
  -23.0389  -17.7351   17.3333 C   0  0  0  0  0  0  0  0  0  0  0  0
  -26.8367  -28.2859   22.0912 C   0  0  0  0  0  0  0  0  0  0  0  0
  -26.4260  -31.3838   22.9610 C   0  0  0  0  0  0  0  0  0  0  0  0
  -22.8191  -23.7133   23.1479 C   0  0  0  0  0  0  0  0  0  0  0  0
  -24.2972  -34.0187   23.3761 C   0  0  0  0  0  0  0  0  0  0  0  0
  -31.6087  -26.4902   22.3382 C   0  0  0  0  0  0  0  0  0  0  0  0
  -25.6000  -29.2086   20.0975 C   0  0  0  0  0  0  0  0  0  0  0  0
  -24.3315  -30.0133   22.6447 C   0  0  0  0  0  0  0  0  0  0  0  0
  -30.7825  -27.5061   23.1228 C   0  0  0  0  0  0  0  0  0  0  0  0
  -24.6896  -24.1541   20.1235 C   0  0  0  0  0  0  0  0  0  0  0  0
  -29.4281  -26.9148   23.5008 C   0  0  0  0  0  0  0  0  0  0  0  0
  -24.7466  -22.7477   19.5285 C   0  0  0  0  0  0  0  0  0  0  0  0
  -24.7426  -24.1181   21.6476 C   0  0  0  0  0  0  0  0  0  0  0  0
  -23.7446  -21.8543   21.6785 C   0  0  0  0  0  0  0  0  0  0  0  0
  -28.6157  -26.5538   22.2513 C   0  0  1  0  0  0  0  0  0  0  0  0
  -26.4251  -29.5215   21.3419 C   0  0  1  0  0  0  0  0  0  0  0  0
  -23.6627  -21.8436   20.1418 C   0  0  2  0  0  0  0  0  0  0  0  0
  -18.9239  -23.2768   18.5247 C   0  0  0  0  0  0  0  0  0  0  0  0
  -16.1947  -22.9320   21.3772 C   0  0  0  0  0  0  0  0  0  0  0  0
  -20.4416  -20.8902   24.3466 C   0  0  0  0  0  0  0  0  0  0  0  0
  -23.5714  -36.3729   23.8539 C   0  0  0  0  0  0  0  0  0  0  0  0
  -23.4846  -22.1318   24.9050 C   0  0  0  0  0  0  0  0  0  0  0  0
  -21.4170  -23.5280   25.1141 C   0  0  0  0  0  0  0  0  0  0  0  0
  -26.5908  -30.4601   25.8643 C   0  0  0  0  0  0  0  0  0  0  0  0
  -25.6047  -32.6579   26.5466 C   0  0  0  0  0  0  0  0  0  0  0  0
  -27.8069  -32.5903   25.3767 C   0  0  0  0  0  0  0  0  0  0  0  0
  -24.6512  -34.8245   20.5505 C   0  0  0  0  0  0  0  0  0  0  0  0
  -16.8871  -24.1935   21.8798 C   0  0  0  0  0  0  0  0  0  0  0  0
  -18.6916  -25.9326   21.5455 C   0  0  0  0  0  0  0  0  0  0  0  0
  -19.7744  -26.5136   20.6403 C   0  0  0  0  0  0  0  0  0  1  0  0
  -21.4200  -21.6210   23.3837 C   0  0  2  0  0  0  0  0  0  0  0  0
  -18.1169  -24.5938   21.0332 C   0  0  1  0  0  0  0  0  0  0  0  0
  -25.6966  -32.0935   24.0760 C   0  0  1  0  0  0  0  0  0  0  0  0
  -24.3980  -35.4720   22.9495 C   0  0  2  0  0  0  0  0  0  0  0  0
  -22.2855  -22.7112   24.1404 C   0  0  0  0  0  0  0  0  0  0  0  0
  -26.4111  -31.9335   25.4476 C   0  0  0  0  0  0  0  0  0  0  0  0
  -20.4781  -21.8969   19.7459 N   0  0  0  0  0  0  0  0  0  0  0  0
  -24.4506  -19.5081   20.2278 N   0  0  0  0  0  0  0  0  0  0  0  0
  -23.7225  -20.4345   19.5815 N   0  0  0  0  0  0  0  0  0  0  0  0
  -25.7130  -30.3793   22.2913 N   0  0  0  0  0  0  0  0  0  0  0  0
  -23.7120  -23.2313   22.1905 N   0  0  0  0  0  0  0  0  0  0  0  0
  -22.3347  -20.7646   17.6905 N   0  0  0  0  0  0  0  0  0  0  0  0
  -23.8317  -17.6212   16.1831 N   0  0  0  0  0  0  0  0  0  0  0  0
  -28.0339  -27.7425   21.6658 N   0  0  0  0  0  0  0  0  0  0  0  0
  -25.5370  -33.4776   23.6433 N   0  0  0  0  0  0  0  0  0  0  0  0
  -23.9111  -35.6362   21.5506 N   0  3  0  0  0  0  0  0  0  0  0  0
  -21.9861  -17.0591   17.4226 O   0  0  0  0  0  0  0  0  0  0  0  0
  -26.1218  -27.8580   22.9899 O   0  0  0  0  0  0  0  0  0  0  0  0
  -27.5832  -31.7136   22.6893 O   0  0  0  0  0  0  0  0  0  0  0  0
  -22.4499  -24.8882   23.2210 O   0  0  0  0  0  0  0  0  0  0  0  0
  -23.2254  -33.4240   23.4672 O   0  0  0  0  0  0  0  0  0  0  0  0
  -26.7659  -13.6167   20.9225 O   0  0  0  0  0  0  0  0  0  0  0  0
  -20.2464  -27.7314   21.2152 O   0  0  0  0  0  0  0  0  0  1  0  0
  -31.1676  -12.0299   18.0051 F   0  0  0  0  0  0  0  0  0  0  0  0
  -29.2220  -13.2613   22.1407 F   0  0  0  0  0  0  0  0  0  0  0  0
  1  2  1  0  0  0  0
  1  5  2  0  0  0  0
  2  6  2  0  0  0  0
  3  8  2  0  0  0  0
  3 17  1  0  0  0  0
  4  9  1  0  0  0  0
  4 17  2  0  0  0  0
  5 19  1  0  0  0  0
  6 21  1  0  0  0  0
  7 10  2  0  0  0  0
  7 20  1  0  0  0  0
  8 25  1  0  0  0  0
  9 25  2  0  0  0  0
 10 26  1  0  0  0  0
 11 12  2  0  0  0  0
 11 27  1  0  0  0  0
 12 28  1  0  0  0  0
 13 22  1  0  0  0  0
 13 26  2  0  0  0  0
 14 23  2  0  0  0  0
 14 24  1  0  0  0  0
 15 28  2  0  0  0  0
 15 29  1  0  0  0  0
 16 23  1  0  0  0  0
 16 69  2  0  0  0  0
 17 30  1  0  0  0  0
 18 30  1  0  0  0  0
 18 32  2  0  0  0  0
 18 33  1  0  0  0  0
 19 21  2  0  0  0  0
 19 38  1  0  0  0  0
 20 22  2  0  0  0  0
 20 39  1  0  0  0  0
 21 47  1  0  0  0  0
 22 40  1  0  0  0  0
 23 63  1  0  0  0  0
 24 31  2  0  0  0  0
 24 64  1  0  0  0  0
 25 84  1  0  0  0  0
 26 85  1  0  0  0  0
 27 29  2  0  0  0  0
 27 84  1  0  0  0  0
 28 86  1  0  0  0  0
 29 87  1  0  0  0  0
 30 70  2  0  0  0  0
 31 50  1  0  0  0  0
 31 69  1  0  0  0  0
 32 71  1  0  0  0  0
 32 74  1  0  0  0  0
 33 75  1  0  0  0  0
 33 79  2  0  0  0  0
 34 48  1  0  0  0  0
 34 76  1  0  0  0  0
 34 80  2  0  0  0  0
 35 65  1  0  0  0  0
 35 72  1  0  0  0  0
 35 81  2  0  0  0  0
 36 67  1  0  0  0  0
 36 73  1  0  0  0  0
 36 82  2  0  0  0  0
 37 66  1  0  0  0  0
 37 77  1  0  0  0  0
 37 83  2  0  0  0  0
 38 41  1  0  0  0  0
 39 48  1  0  0  0  0
 40 72  1  0  0  0  0
 41 43  1  0  0  0  0
 42 44  1  0  0  0  0
 42 45  1  0  0  0  0
 43 47  1  0  0  0  0
 44 49  1  0  0  0  0
 45 73  1  0  0  0  0
 46 49  1  0  0  0  0
 46 73  1  0  0  0  0
 47 76  1  0  0  0  0
 48 72  1  0  0  0  0
 49 71  1  0  0  0  0
 51 60  1  0  0  0  0
 52 63  1  0  0  0  0
 53 66  1  0  0  0  0
 54 67  1  0  0  0  0
 55 67  1  0  0  0  0
 56 68  1  0  0  0  0
 57 68  1  0  0  0  0
 58 68  1  0  0  0  0
 59 78  1  0  0  0  0
 60 64  1  0  0  0  0
 61 62  1  0  0  0  0
 61 64  1  0  0  0  0
 62 85  1  0  0  0  0
 63 67  1  0  0  0  0
 65 68  1  0  0  0  0
 65 77  1  0  0  0  0
 66 78  1  0  0  0  0
 70 71  1  0  0  0  0
M  CHG  1  78   1
M  ISO  4  36 100  62 101  67 100  85 101
M  END
> <Batch ID>
0069

> <Smiles>
CCC(C[101CH2:1][101O:1]c1ccc2c(c1)CN(C(=O)C(NC(=O)C(C)NC)C(C)(C)C)C(C(=O)NC1CCCc3ccccc31)C2)c1cc(C(C)[100C:0](C)(C)[100C:0](=O)N2CCCC(n3nc(-c4ccc(Oc5ccc(F)cc5F)cc4)c(C(N)=O)c3N)C2)cnc1C

> <Shape>
0.237

> <Color>
0.055

> <Negative vol penalty>
0.000

$$$$

  -OEChem-04052318173D

 83 91  0     1  0  0  0  0  0999 V2000
  -17.0064  -30.1181   23.5368 C   0  0  0  0  0  0  0  0  0  0  0  0
  -18.2964  -30.6221   23.4053 C   0  0  0  0  0  0  0  0  0  0  0  0
  -27.7704  -14.9835   20.9073 C   0  0  0  0  0  0  0  0  0  0  0  0
  -26.2904  -15.2218   19.0126 C   0  0  0  0  0  0  0  0  0  0  0  0
  -16.7841  -28.7442   23.4532 C   0  0  0  0  0  0  0  0  0  0  0  0
  -19.3651  -29.7523   23.1913 C   0  0  0  0  0  0  0  0  0  0  0  0
  -25.6879  -29.3948   19.8431 C   0  0  0  0  0  0  0  0  0  0  0  0
  -27.2124  -13.7360   21.1863 C   0  0  0  0  0  0  0  0  0  0  0  0
  -25.7323  -13.9743   19.2917 C   0  0  0  0  0  0  0  0  0  0  0  0
  -27.0236  -29.0839   20.0942 C   0  0  0  0  0  0  0  0  0  0  0  0
  -23.6698  -11.0120   19.7172 C   0  0  0  0  0  0  0  0  0  0  0  0
  -22.2802  -10.8989   19.6731 C   0  0  0  0  0  0  0  0  0  0  0  0
  -26.5096  -26.7360   19.8883 C   0  0  0  0  0  0  0  0  0  0  0  0
  -22.0893  -12.5660   21.4112 C   0  0  0  0  0  0  0  0  0  0  0  0
  -32.0840  -22.2114   23.0760 C   0  0  0  0  0  0  0  0  0  0  0  0
  -27.3094  -15.7264   19.8204 C   0  0  0  0  0  0  0  0  0  0  0  0
  -28.9899  -17.2867   18.7028 C   0  0  0  0  0  0  0  0  0  0  0  0
  -17.8493  -27.8580   23.2284 C   0  0  0  0  0  0  0  0  0  0  0  0
  -24.7493  -28.3764   19.6231 C   0  0  0  0  0  0  0  0  0  0  0  0
  -19.1570  -28.3652   23.1060 C   0  0  0  0  0  0  0  0  0  0  0  0
  -25.1631  -27.0367   19.6320 C   0  0  0  0  0  0  0  0  0  0  0  0
  -26.1933  -13.2313   20.3785 C   0  0  0  0  0  0  0  0  0  0  0  0
  -27.4341  -27.7543   20.1197 C   0  0  0  0  0  0  0  0  0  0  0  0
  -24.2691  -11.9022   20.6084 C   0  0  0  0  0  0  0  0  0  0  0  0
  -21.4900  -11.6759   20.5201 C   0  0  0  0  0  0  0  0  0  0  0  0
  -23.4788  -12.6792   21.4553 C   0  0  0  0  0  0  0  0  0  0  0  0
  -27.8851  -17.0154   19.5320 C   0  0  0  0  0  0  0  0  0  0  0  0
  -29.1351  -18.6513   18.7599 C   0  0  0  0  0  0  0  0  0  0  0  0
  -29.9417  -22.5022   22.8880 C   0  0  0  0  0  0  0  0  0  0  0  0
  -29.8113  -16.3858   17.9483 C   0  0  0  0  0  0  0  0  0  0  0  0
  -28.6090  -23.0042   22.5292 C   0  0  0  0  0  0  0  0  0  0  0  0
  -22.1062  -27.4051   21.0976 C   0  0  0  0  0  0  0  0  0  0  0  0
  -21.8703  -25.4289   18.5361 C   0  0  0  0  0  0  0  0  0  0  0  0
  -23.4403  -23.7870   15.9894 C   0  0  0  0  0  0  0  0  0  0  0  0
  -17.5663  -26.3770   23.1927 C   0  0  0  0  0  0  0  0  0  0  0  0
  -23.3175  -28.7295   19.3271 C   0  0  0  0  0  0  0  0  0  0  0  0
  -24.1987  -25.9072   19.3818 C   0  0  0  0  0  0  0  0  0  0  0  0
  -18.7022  -25.5541   22.5903 C   0  0  0  0  0  0  0  0  0  0  0  0
  -26.1895  -22.4338   19.9675 C   0  0  0  0  0  0  0  0  0  0  0  0
  -20.0430  -25.9870   23.1747 C   0  0  0  0  0  0  0  0  0  0  0  0
  -26.4709  -20.9972   19.5238 C   0  0  0  0  0  0  0  0  0  0  0  0
  -26.4114  -22.6142   21.4671 C   0  0  0  0  0  0  0  0  0  0  0  0
  -28.0265  -20.7448   21.5029 C   0  0  0  0  0  0  0  0  0  0  0  0
  -20.3388  -27.4558   22.8482 C   0  0  1  0  0  0  0  0  0  0  0  0
  -22.3472  -27.5908   19.6262 C   0  0  1  0  0  0  0  0  0  0  0  0
  -27.8638  -20.5324   19.9888 C   0  0  1  0  0  0  0  0  0  0  0  0
  -22.9897  -22.2178   14.0836 C   0  0  0  0  0  0  0  0  0  0  0  0
  -31.0812  -27.5273   18.5982 C   0  0  0  0  0  0  0  0  0  0  0  0
  -21.6326  -23.1100   20.5049 C   0  0  0  0  0  0  0  0  0  0  0  0
  -22.1403  -21.5463   18.6167 C   0  0  0  0  0  0  0  0  0  0  0  0
  -20.0940  -22.9707   18.5382 C   0  0  0  0  0  0  0  0  0  0  0  0
  -32.9586  -25.1664   18.9400 C   0  0  0  0  0  0  0  0  0  0  0  0
  -30.8725  -24.5230   17.7363 C   0  0  0  0  0  0  0  0  0  0  0  0
  -24.3910  -25.7539   13.9928 C   0  0  0  0  0  0  0  0  0  0  0  0
  -31.1700  -23.8388   20.1208 C   0  0  0  0  0  0  0  0  0  0  0  0
  -31.3971  -24.1938   21.5967 C   0  0  0  0  0  0  0  0  0  0  0  0
  -29.2479  -26.2568   19.7682 C   0  0  0  0  0  0  0  0  0  1  0  0
  -22.3614  -24.0394   18.2090 C   0  0  1  0  0  0  0  0  0  0  0  0
  -23.1124  -23.6719   14.5116 C   0  0  2  0  0  0  0  0  0  0  0  0
  -30.7724  -26.3549   19.5496 C   0  0  1  0  0  0  0  0  0  0  0  0
  -21.5751  -22.9376   18.9739 C   0  0  0  0  0  0  0  0  0  0  0  0
  -31.4291  -24.9936   19.1000 C   0  0  0  0  0  0  0  0  0  0  0  0
  -31.4948  -21.2768   23.7871 N   0  0  0  0  0  0  0  0  0  0  0  0
  -27.3654  -18.1190   20.0761 N   0  0  0  0  0  0  0  0  0  0  0  0
  -30.1319  -21.4618   23.6675 N   0  0  0  0  0  0  0  0  0  0  0  0
  -31.1439  -23.0054   22.4924 N   0  0  0  0  0  0  0  0  0  0  0  0
  -28.1472  -19.0970   19.5879 N   0  0  0  0  0  0  0  0  0  0  0  0
  -27.7407  -22.1431   21.8538 N   0  0  0  0  0  0  0  0  0  0  0  0
  -22.8083  -26.3032   19.1032 N   0  0  0  0  0  0  0  0  0  0  0  0
  -30.0104  -19.5014   18.1822 N   0  0  0  0  0  0  0  0  0  0  0  0
  -29.5234  -15.0152   18.0018 N   0  0  0  0  0  0  0  0  0  0  0  0
  -20.7910  -27.5882   21.4799 N   0  0  0  0  0  0  0  0  0  0  0  0
  -22.3019  -23.9168   16.7565 N   0  0  0  0  0  0  0  0  0  0  0  0
  -24.1790  -24.3144   13.6928 N   0  3  0  0  0  0  0  0  0  0  0  0
  -30.7823  -16.7827   17.2605 O   0  0  0  0  0  0  0  0  0  0  0  0
  -28.3626  -24.1668   22.8465 O   0  0  0  0  0  0  0  0  0  0  0  0
  -23.0438  -27.1156   21.8316 O   0  0  0  0  0  0  0  0  0  0  0  0
  -20.6995  -25.7299   18.2907 O   0  0  0  0  0  0  0  0  0  0  0  0
  -24.5909  -23.7603   16.4204 O   0  0  0  0  0  0  0  0  0  0  0  0
  -25.6487  -12.0139   20.6504 O   0  0  0  0  0  0  0  0  0  0  0  0
  -28.7370  -27.4480   20.3652 O   0  0  0  0  0  0  0  0  0  1  0  0
  -20.1556  -11.5682   20.4765 F   0  0  0  0  0  0  0  0  0  0  0  0
  -24.0488  -13.5369   22.3128 F   0  0  0  0  0  0  0  0  0  0  0  0
  1  2  1  0  0  0  0
  1  5  2  0  0  0  0
  2  6  2  0  0  0  0
  3  8  2  0  0  0  0
  3 16  1  0  0  0  0
  4  9  1  0  0  0  0
  4 16  2  0  0  0  0
  5 18  1  0  0  0  0
  6 20  1  0  0  0  0
  7 10  2  0  0  0  0
  7 19  1  0  0  0  0
  8 22  1  0  0  0  0
  9 22  2  0  0  0  0
 10 23  1  0  0  0  0
 11 12  2  0  0  0  0
 11 24  1  0  0  0  0
 12 25  1  0  0  0  0
 13 21  1  0  0  0  0
 13 23  2  0  0  0  0
 14 25  2  0  0  0  0
 14 26  1  0  0  0  0
 15 63  2  0  0  0  0
 15 66  1  0  0  0  0
 16 27  1  0  0  0  0
 17 27  1  0  0  0  0
 17 28  2  0  0  0  0
 17 30  1  0  0  0  0
 18 20  2  0  0  0  0
 18 35  1  0  0  0  0
 19 21  2  0  0  0  0
 19 36  1  0  0  0  0
 20 44  1  0  0  0  0
 21 37  1  0  0  0  0
 22 80  1  0  0  0  0
 23 81  1  0  0  0  0
 24 26  2  0  0  0  0
 24 80  1  0  0  0  0
 25 82  1  0  0  0  0
 26 83  1  0  0  0  0
 27 64  2  0  0  0  0
 28 67  1  0  0  0  0
 28 70  1  0  0  0  0
 29 31  1  0  0  0  0
 29 65  2  0  0  0  0
 29 66  1  0  0  0  0
 30 71  1  0  0  0  0
 30 75  2  0  0  0  0
 31 68  1  0  0  0  0
 31 76  2  0  0  0  0
 32 45  1  0  0  0  0
 32 72  1  0  0  0  0
 32 77  2  0  0  0  0
 33 58  1  0  0  0  0
 33 69  1  0  0  0  0
 33 78  2  0  0  0  0
 34 59  1  0  0  0  0
 34 73  1  0  0  0  0
 34 79  2  0  0  0  0
 35 38  1  0  0  0  0
 36 45  1  0  0  0  0
 37 69  1  0  0  0  0
 38 40  1  0  0  0  0
 39 41  1  0  0  0  0
 39 42  1  0  0  0  0
 40 44  1  0  0  0  0
 41 46  1  0  0  0  0
 42 68  1  0  0  0  0
 43 46  1  0  0  0  0
 43 68  1  0  0  0  0
 44 72  1  0  0  0  0
 45 69  1  0  0  0  0
 46 67  1  0  0  0  0
 47 59  1  0  0  0  0
 48 60  1  0  0  0  0
 49 61  1  0  0  0  0
 50 61  1  0  0  0  0
 51 61  1  0  0  0  0
 52 62  1  0  0  0  0
 53 62  1  0  0  0  0
 54 74  1  0  0  0  0
 55 56  1  0  0  0  0
 55 62  1  0  0  0  0
 56 66  1  0  0  0  0
 57 60  1  0  0  0  0
 57 81  1  0  0  0  0
 58 61  1  0  0  0  0
 58 73  1  0  0  0  0
 59 74  1  0  0  0  0
 60 62  1  0  0  0  0
 63 65  1  0  0  0  0
 64 67  1  0  0  0  0
M  CHG  1  74   1
M  ISO  4  29 100  31 100  57 101  81 101
M  END
> <Batch ID>
0069

> <Smiles>
CNC(C)C(=O)NC(C(=O)N1Cc2cc([101O:1][101CH2:1]C(C)C(C)(C)CCn3cnn[100c:0]3[100C:0](=O)N3CCCC(n4nc(-c5ccc(Oc6ccc(F)cc6F)cc5)c(C(N)=O)c4N)C3)ccc2CC1C(=O)NC1CCCc2ccccc21)C(C)(C)C

> <Shape>
0.253

> <Color>
0.067

> <Negative vol penalty>
0.000

$$$$

  -OEChem-04052318173D

 87 95  0     1  0  0  0  0  0999 V2000
  -26.5664  -17.1492   19.7612 C   0  0  0  0  0  0  0  0  0  0  0  0
  -25.6627  -18.2069   19.7474 C   0  0  0  0  0  0  0  0  0  0  0  0
  -23.6251  -14.2409   19.5347 C   0  0  0  0  0  0  0  0  0  0  0  0
  -24.8999  -14.4250   21.5787 C   0  0  0  0  0  0  0  0  0  0  0  0
  -27.8274  -17.3187   20.3315 C   0  0  0  0  0  0  0  0  0  0  0  0
  -26.0191  -19.4343   20.3049 C   0  0  0  0  0  0  0  0  0  0  0  0
  -24.3430  -24.9909   18.3503 C   0  0  0  0  0  0  0  0  0  0  0  0
  -24.5910  -13.3826   19.0095 C   0  0  0  0  0  0  0  0  0  0  0  0
  -25.8659  -13.5667   21.0535 C   0  0  0  0  0  0  0  0  0  0  0  0
  -23.3458  -25.8710   18.7685 C   0  0  0  0  0  0  0  0  0  0  0  0
  -28.8463  -11.7100   20.1155 C   0  0  0  0  0  0  0  0  0  0  0  0
  -30.1857  -12.0617   20.2823 C   0  0  0  0  0  0  0  0  0  0  0  0
  -24.9561  -27.0370   20.1347 C   0  0  0  0  0  0  0  0  0  0  0  0
  -19.8645  -26.7703   21.0623 C   0  0  0  0  0  0  0  0  0  0  0  0
  -20.7624  -26.4103   23.2642 C   0  0  0  0  0  0  0  0  0  0  0  0
  -29.8001  -14.1097   19.0599 C   0  0  0  0  0  0  0  0  0  0  0  0
  -23.7796  -14.7622   20.8193 C   0  0  0  0  0  0  0  0  0  0  0  0
  -21.6416  -15.2925   22.1060 C   0  0  0  0  0  0  0  0  0  0  0  0
  -28.2029  -18.5517   20.8876 C   0  0  0  0  0  0  0  0  0  0  0  0
  -25.6541  -25.1208   18.8305 C   0  0  0  0  0  0  0  0  0  0  0  0
  -27.2858  -19.6200   20.8843 C   0  0  0  0  0  0  0  0  0  0  0  0
  -25.9687  -26.1588   19.7191 C   0  0  0  0  0  0  0  0  0  0  0  0
  -20.6592  -27.1952   22.1212 C   0  0  0  0  0  0  0  0  0  0  0  0
  -25.7114  -13.0455   19.7689 C   0  0  0  0  0  0  0  0  0  0  0  0
  -23.6517  -26.8925   19.6630 C   0  0  0  0  0  0  0  0  0  0  0  0
  -27.9838  -12.5580   19.4208 C   0  0  0  0  0  0  0  0  0  0  0  0
  -30.6626  -13.2616   19.7545 C   0  0  0  0  0  0  0  0  0  0  0  0
  -28.4607  -13.7579   18.8931 C   0  0  0  0  0  0  0  0  0  0  0  0
  -22.7824  -15.6493   21.3621 C   0  0  0  0  0  0  0  0  0  0  0  0
  -19.1989  -25.5624   21.1949 C   0  0  0  0  0  0  0  0  0  0  0  0
  -20.0564  -25.2185   23.2984 C   0  0  0  0  0  0  0  0  0  0  0  0
  -21.0252  -16.4881   22.3838 C   0  0  0  0  0  0  0  0  0  0  0  0
  -21.1805  -13.9964   22.5098 C   0  0  0  0  0  0  0  0  0  0  0  0
  -27.6122  -23.2836   20.5317 C   0  0  0  0  0  0  0  0  0  0  0  0
  -29.7535  -25.6304   19.8761 C   0  0  0  0  0  0  0  0  0  0  0  0
  -30.3125  -28.8935   19.0474 C   0  0  0  0  0  0  0  0  0  0  0  0
  -22.1414  -21.7938   23.7408 C   0  0  0  0  0  0  0  0  0  0  0  0
  -29.5597  -18.6730   21.5349 C   0  0  0  0  0  0  0  0  0  0  0  0
  -26.7241  -24.1797   18.3490 C   0  0  0  0  0  0  0  0  0  0  0  0
  -27.3652  -26.3537   20.2484 C   0  0  0  0  0  0  0  0  0  0  0  0
  -29.9958  -20.1169   21.7694 C   0  0  0  0  0  0  0  0  0  0  0  0
  -21.1513  -21.0216   20.4400 C   0  0  0  0  0  0  0  0  0  0  0  0
  -28.8599  -20.9235   22.3906 C   0  0  0  0  0  0  0  0  0  0  0  0
  -21.3668  -19.5092   20.4054 C   0  0  0  0  0  0  0  0  0  0  0  0
  -22.2618  -21.7428   21.2061 C   0  0  0  0  0  0  0  0  0  0  0  0
  -22.7014  -19.7036   22.5368 C   0  0  0  0  0  0  0  0  0  0  0  0
  -27.6445  -20.9741   21.4569 C   0  0  1  0  0  0  0  0  0  0  0  0
  -27.9134  -24.0902   19.3003 C   0  0  1  0  0  0  0  0  0  0  0  0
  -21.5679  -18.9496   21.8244 C   0  0  2  0  0  0  0  0  0  0  0  0
  -18.3384  -25.0740   20.0779 C   0  0  0  0  0  0  0  0  0  0  0  0
  -32.1687  -30.5269   18.6190 C   0  0  0  0  0  0  0  0  0  0  0  0
  -21.6326  -29.2214   23.3964 C   0  0  0  0  0  0  0  0  0  0  0  0
  -20.6182  -29.5118   21.1460 C   0  0  0  0  0  0  0  0  0  0  0  0
  -19.3077  -23.0259   24.4508 C   0  0  0  0  0  0  0  0  0  0  0  0
  -19.5964  -25.1116   25.7631 C   0  0  0  0  0  0  0  0  0  0  0  0
  -30.2771  -25.8185   22.8761 C   0  0  0  0  0  0  0  0  0  0  0  0
  -31.3724  -28.0339   22.4755 C   0  0  0  0  0  0  0  0  0  0  0  0
  -32.3247  -25.9698   21.4482 C   0  0  0  0  0  0  0  0  0  0  0  0
  -23.1918  -23.9554   22.9477 C   0  0  0  0  0  0  0  0  0  0  0  0
  -29.4094  -29.3686   16.2693 C   0  0  0  0  0  0  0  0  0  0  0  0
  -21.6186  -23.9338   24.8478 C   0  0  0  0  0  0  0  0  0  0  0  0
  -22.8144  -28.3082   21.3807 C   0  0  0  0  0  0  0  0  0  1  0  0
  -30.1636  -26.9206   20.5441 C   0  0  1  0  0  0  0  0  0  0  0  0
  -31.2065  -29.5270   17.9968 C   0  0  2  0  0  0  0  0  0  0  0  0
  -21.4229  -28.5295   22.0279 C   0  0  0  0  0  0  0  0  0  0  0  0
  -20.1426  -24.3521   24.5102 C   0  0  0  0  0  0  0  0  0  0  0  0
  -31.0076  -26.6811   21.8277 C   0  0  0  0  0  0  0  0  0  0  0  0
  -22.8867  -16.9682   21.1789 N   0  0  0  0  0  0  0  0  0  0  0  0
  -19.2746  -24.7727   22.2896 N   0  0  0  0  0  0  0  0  0  0  0  0
  -21.8036  -17.4507   21.8115 N   0  0  0  0  0  0  0  0  0  0  0  0
  -28.3753  -25.4040   19.7529 N   0  0  0  0  0  0  0  0  0  0  0  0
  -22.4528  -21.1472   22.5356 N   0  0  0  0  0  0  0  0  0  0  0  0
  -19.8986  -16.7993   23.0593 N   0  0  0  0  0  0  0  0  0  0  0  0
  -21.9341  -12.8740   22.1400 N   0  0  0  0  0  0  0  0  0  0  0  0
  -27.8631  -21.9318   20.3941 N   0  0  0  0  0  0  0  0  0  0  0  0
  -30.8409  -27.7118   19.5225 N   0  0  0  0  0  0  0  0  0  0  0  0
  -22.2520  -23.1922   23.7666 N   0  0  0  0  0  0  0  0  0  0  0  0
  -30.3842  -30.2379   16.9773 N   0  3  0  0  0  0  0  0  0  0  0  0
  -20.1226  -13.8369   23.1647 O   0  0  0  0  0  0  0  0  0  0  0  0
  -27.1852  -23.8463   21.5331 O   0  0  0  0  0  0  0  0  0  0  0  0
  -30.6239  -24.8554   19.4718 O   0  0  0  0  0  0  0  0  0  0  0  0
  -29.2533  -29.3984   19.4130 O   0  0  0  0  0  0  0  0  0  0  0  0
  -21.7912  -21.1569   24.7427 O   0  0  0  0  0  0  0  0  0  0  0  0
  -26.6541  -12.2078   19.2568 O   0  0  0  0  0  0  0  0  0  0  0  0
  -22.6801  -27.7525   20.0733 O   0  0  0  0  0  0  0  0  0  1  0  0
  -31.9485  -13.5999   19.9161 F   0  0  0  0  0  0  0  0  0  0  0  0
  -27.6366  -14.5773   18.2258 F   0  0  0  0  0  0  0  0  0  0  0  0
  1  2  1  0  0  0  0
  1  5  2  0  0  0  0
  2  6  2  0  0  0  0
  3  8  2  0  0  0  0
  3 17  1  0  0  0  0
  4  9  1  0  0  0  0
  4 17  2  0  0  0  0
  5 19  1  0  0  0  0
  6 21  1  0  0  0  0
  7 10  2  0  0  0  0
  7 20  1  0  0  0  0
  8 24  1  0  0  0  0
  9 24  2  0  0  0  0
 10 25  1  0  0  0  0
 11 12  2  0  0  0  0
 11 26  1  0  0  0  0
 12 27  1  0  0  0  0
 13 22  1  0  0  0  0
 13 25  2  0  0  0  0
 14 23  1  0  0  0  0
 14 30  2  0  0  0  0
 15 23  2  0  0  0  0
 15 31  1  0  0  0  0
 16 27  2  0  0  0  0
 16 28  1  0  0  0  0
 17 29  1  0  0  0  0
 18 29  1  0  0  0  0
 18 32  2  0  0  0  0
 18 33  1  0  0  0  0
 19 21  2  0  0  0  0
 19 38  1  0  0  0  0
 20 22  2  0  0  0  0
 20 39  1  0  0  0  0
 21 47  1  0  0  0  0
 22 40  1  0  0  0  0
 23 65  1  0  0  0  0
 24 84  1  0  0  0  0
 25 85  1  0  0  0  0
 26 28  2  0  0  0  0
 26 84  1  0  0  0  0
 27 86  1  0  0  0  0
 28 87  1  0  0  0  0
 29 68  2  0  0  0  0
 30 50  1  0  0  0  0
 30 69  1  0  0  0  0
 31 66  1  0  0  0  0
 31 69  2  0  0  0  0
 32 70  1  0  0  0  0
 32 73  1  0  0  0  0
 33 74  1  0  0  0  0
 33 79  2  0  0  0  0
 34 48  1  0  0  0  0
 34 75  1  0  0  0  0
 34 80  2  0  0  0  0
 35 63  1  0  0  0  0
 35 71  1  0  0  0  0
 35 81  2  0  0  0  0
 36 64  1  0  0  0  0
 36 76  1  0  0  0  0
 36 82  2  0  0  0  0
 37 72  1  0  0  0  0
 37 77  1  0  0  0  0
 37 83  2  0  0  0  0
 38 41  1  0  0  0  0
 39 48  1  0  0  0  0
 40 71  1  0  0  0  0
 41 43  1  0  0  0  0
 42 44  1  0  0  0  0
 42 45  1  0  0  0  0
 43 47  1  0  0  0  0
 44 49  1  0  0  0  0
 45 72  1  0  0  0  0
 46 49  1  0  0  0  0
 46 72  1  0  0  0  0
 47 75  1  0  0  0  0
 48 71  1  0  0  0  0
 49 70  1  0  0  0  0
 51 64  1  0  0  0  0
 52 65  1  0  0  0  0
 53 65  1  0  0  0  0
 54 66  1  0  0  0  0
 55 66  1  0  0  0  0
 56 67  1  0  0  0  0
 57 67  1  0  0  0  0
 58 67  1  0  0  0  0
 59 77  1  0  0  0  0
 60 78  1  0  0  0  0
 61 66  1  0  0  0  0
 61 77  1  0  0  0  0
 62 65  1  0  0  0  0
 62 85  1  0  0  0  0
 63 67  1  0  0  0  0
 63 76  1  0  0  0  0
 64 78  1  0  0  0  0
 68 70  1  0  0  0  0
M  CHG  1  78   1
M  ISO  4  37 100  62 101  77 100  85 101
M  END
> <Batch ID>
0069

> <Smiles>
CNC(C)C(=O)NC(C(=O)N1Cc2cc([101O:1][101CH2:1]C(C)(C)c3cc(C)nc(C(C)(C)C[100N:0](C)[100C:0](=O)N4CCCC(n5nc(-c6ccc(Oc7ccc(F)cc7F)cc6)c(C(N)=O)c5N)C4)c3)ccc2CC1C(=O)NC1CCCc2ccccc21)C(C)(C)C

> <Shape>
0.216

> <Color>
0.055

> <Negative vol penalty>
0.000

$$$$

  -OEChem-04052318173D

 87 95  0     1  0  0  0  0  0999 V2000
  -26.4305  -18.5042   24.6133 C   0  0  0  0  0  0  0  0  0  0  0  0
  -27.7807  -18.1703   24.6412 C   0  0  0  0  0  0  0  0  0  0  0  0
  -23.1978   -9.8167   19.9329 C   0  0  0  0  0  0  0  0  0  0  0  0
  -23.5864   -9.9979   22.3106 C   0  0  0  0  0  0  0  0  0  0  0  0
  -25.9260  -19.2763   23.5676 C   0  0  0  0  0  0  0  0  0  0  0  0
  -28.6271  -18.6074   23.6229 C   0  0  0  0  0  0  0  0  0  0  0  0
  -33.0084  -20.4332   25.3881 C   0  0  0  0  0  0  0  0  0  0  0  0
  -22.4376   -8.6666   20.1448 C   0  0  0  0  0  0  0  0  0  0  0  0
  -22.8260   -8.8478   22.5224 C   0  0  0  0  0  0  0  0  0  0  0  0
  -33.9723  -19.5058   25.7813 C   0  0  0  0  0  0  0  0  0  0  0  0
  -23.2406   -5.5030   22.2552 C   0  0  0  0  0  0  0  0  0  0  0  0
  -23.7472   -4.5436   23.1317 C   0  0  0  0  0  0  0  0  0  0  0  0
  -35.1166  -19.8132   23.6801 C   0  0  0  0  0  0  0  0  0  0  0  0
  -34.3168  -12.1639   24.3985 C   0  0  0  0  0  0  0  0  0  0  0  0
  -21.7960   -4.7945   24.5342 C   0  0  0  0  0  0  0  0  0  0  0  0
  -23.7723  -10.4823   21.0158 C   0  0  0  0  0  0  0  0  0  0  0  0
  -24.0988  -13.0005   20.7715 C   0  0  0  0  0  0  0  0  0  0  0  0
  -26.7685  -19.7312   22.5411 C   0  0  0  0  0  0  0  0  0  0  0  0
  -33.0855  -21.0504   24.1313 C   0  0  0  0  0  0  0  0  0  0  0  0
  -28.1332  -19.3852   22.5619 C   0  0  0  0  0  0  0  0  0  0  0  0
  -34.1538  -20.7500   23.2743 C   0  0  0  0  0  0  0  0  0  0  0  0
  -33.2929  -11.8705   23.5047 C   0  0  0  0  0  0  0  0  0  0  0  0
  -31.9898  -12.2566   23.7978 C   0  0  0  0  0  0  0  0  0  0  0  0
  -22.2516   -8.1822   21.4395 C   0  0  0  0  0  0  0  0  0  0  0  0
  -35.0251  -19.1936   24.9261 C   0  0  0  0  0  0  0  0  0  0  0  0
  -22.0116   -6.1083   22.5182 C   0  0  0  0  0  0  0  0  0  0  0  0
  -23.0249   -4.1892   24.2712 C   0  0  0  0  0  0  0  0  0  0  0  0
  -21.2894   -5.7540   23.6577 C   0  0  0  0  0  0  0  0  0  0  0  0
  -24.5582  -11.6701   20.7976 C   0  0  0  0  0  0  0  0  0  0  0  0
  -33.9878  -12.8398   25.5624 C   0  0  0  0  0  0  0  0  0  0  0  0
  -31.7649  -12.9282   24.9887 C   0  0  0  0  0  0  0  0  0  0  0  0
  -25.2257  -13.7482   20.5312 C   0  0  0  0  0  0  0  0  0  0  0  0
  -22.7722  -13.5146   20.9486 C   0  0  0  0  0  0  0  0  0  0  0  0
  -31.2366  -21.1144   21.5464 C   0  0  0  0  0  0  0  0  0  0  0  0
  -31.0503  -12.6641   21.5365 C   0  0  0  0  0  0  0  0  0  0  0  0
  -33.4021  -23.3050   20.5293 C   0  0  0  0  0  0  0  0  0  0  0  0
  -36.5681  -24.5620   20.7370 C   0  0  0  0  0  0  0  0  0  0  0  0
  -26.1682  -20.5235   21.4068 C   0  0  0  0  0  0  0  0  0  0  0  0
  -32.0524  -22.0685   23.7328 C   0  0  0  0  0  0  0  0  0  0  0  0
  -34.2933  -21.3999   21.9228 C   0  0  0  0  0  0  0  0  0  0  0  0
  -27.2050  -21.2616   20.5638 C   0  0  0  0  0  0  0  0  0  0  0  0
  -29.5035  -13.5151   18.4183 C   0  0  0  0  0  0  0  0  0  0  0  0
  -28.3694  -20.3380   20.2205 C   0  0  0  0  0  0  0  0  0  0  0  0
  -28.0219  -13.2323   18.6635 C   0  0  0  0  0  0  0  0  0  0  0  0
  -30.3918  -12.5194   19.1574 C   0  0  0  0  0  0  0  0  0  0  0  0
  -28.6464  -12.1603   20.8739 C   0  0  0  0  0  0  0  0  0  0  0  0
  -29.0879  -19.8613   21.4886 C   0  0  1  0  0  0  0  0  0  0  0  0
  -31.9470  -22.2530   22.2221 C   0  0  1  0  0  0  0  0  0  0  0  0
  -27.7144  -13.1623   20.1699 C   0  0  2  0  0  0  0  0  0  0  0  0
  -33.6176  -11.1404   22.2434 C   0  0  0  0  0  0  0  0  0  0  0  0
  -30.3863  -13.3698   25.3579 C   0  0  0  0  0  0  0  0  0  0  0  0
  -30.6787  -10.4567   22.6005 C   0  0  0  0  0  0  0  0  0  0  0  0
  -38.0543  -26.3293   19.7546 C   0  0  0  0  0  0  0  0  0  0  0  0
  -34.5857  -13.9376   27.8271 C   0  0  0  0  0  0  0  0  0  0  0  0
  -35.7135  -11.8581   27.0881 C   0  0  0  0  0  0  0  0  0  0  0  0
  -33.7384  -21.6178   18.0093 C   0  0  0  0  0  0  0  0  0  0  0  0
  -35.8534  -22.8714   17.5363 C   0  0  0  0  0  0  0  0  0  0  0  0
  -33.6758  -24.0860   17.6115 C   0  0  0  0  0  0  0  0  0  0  0  0
  -36.9294  -25.8813   23.3615 C   0  0  0  0  0  0  0  0  0  0  0  0
  -35.8052  -15.3992   25.3827 C   0  0  0  0  0  0  0  0  0  0  0  0
  -37.0056  -16.1760   24.8410 C   0  0  0  0  0  0  0  0  0  0  0  0
  -36.2328  -14.0216   25.9106 C   0  0  0  0  0  0  0  0  0  0  0  0
  -36.5913  -17.5268   24.2745 C   0  0  0  0  0  0  0  0  0  1  0  0
  -30.8716  -11.9576   22.8567 C   0  0  1  0  0  0  0  0  0  0  0  0
  -34.7024  -23.2476   19.7645 C   0  0  1  0  0  0  0  0  0  0  0  0
  -37.0802  -25.9848   20.8705 C   0  0  2  0  0  0  0  0  0  0  0  0
  -35.0952  -13.1833   26.5753 C   0  0  0  0  0  0  0  0  0  0  0  0
  -34.4891  -22.9418   18.2550 C   0  0  0  0  0  0  0  0  0  0  0  0
  -25.8743  -11.5748   20.5903 N   0  0  0  0  0  0  0  0  0  0  0  0
  -32.7337  -13.2310   25.8816 N   0  0  0  0  0  0  0  0  0  0  0  0
  -26.2515  -12.8549   20.4316 N   0  0  0  0  0  0  0  0  0  0  0  0
  -33.2546  -22.3840   21.5761 N   0  0  0  0  0  0  0  0  0  0  0  0
  -30.0536  -12.4659   20.5808 N   0  0  0  0  0  0  0  0  0  0  0  0
  -25.4292  -15.0760   20.3975 N   0  0  0  0  0  0  0  0  0  0  0  0
  -21.7306  -12.6077   21.1872 N   0  0  0  0  0  0  0  0  0  0  0  0
  -29.9497  -20.9038   22.0034 N   0  0  0  0  0  0  0  0  0  0  0  0
  -35.3868  -24.5088   20.0278 N   0  0  0  0  0  0  0  0  0  0  0  0
  -37.7777  -26.1640   22.1752 N   0  3  0  0  0  0  0  0  0  0  0  0
  -22.5153  -14.7405   20.8806 O   0  0  0  0  0  0  0  0  0  0  0  0
  -31.8129  -20.4753   20.6741 O   0  0  0  0  0  0  0  0  0  0  0  0
  -32.0451  -13.3728   21.3627 O   0  0  0  0  0  0  0  0  0  0  0  0
  -32.5516  -24.1410   20.2142 O   0  0  0  0  0  0  0  0  0  0  0  0
  -37.1589  -23.5942   21.2111 O   0  0  0  0  0  0  0  0  0  0  0  0
  -21.5096   -7.0601   21.6466 O   0  0  0  0  0  0  0  0  0  0  0  0
  -35.9669  -18.2883   25.3073 O   0  0  0  0  0  0  0  0  0  1  0  0
  -23.5109   -3.2667   25.1121 F   0  0  0  0  0  0  0  0  0  0  0  0
  -20.1076   -6.3311   23.9150 F   0  0  0  0  0  0  0  0  0  0  0  0
  1  2  1  0  0  0  0
  1  5  2  0  0  0  0
  2  6  2  0  0  0  0
  3  8  2  0  0  0  0
  3 16  1  0  0  0  0
  4  9  1  0  0  0  0
  4 16  2  0  0  0  0
  5 18  1  0  0  0  0
  6 20  1  0  0  0  0
  7 10  2  0  0  0  0
  7 19  1  0  0  0  0
  8 24  1  0  0  0  0
  9 24  2  0  0  0  0
 10 25  1  0  0  0  0
 11 12  2  0  0  0  0
 11 26  1  0  0  0  0
 12 27  1  0  0  0  0
 13 21  1  0  0  0  0
 13 25  2  0  0  0  0
 14 22  2  0  0  0  0
 14 30  1  0  0  0  0
 15 27  2  0  0  0  0
 15 28  1  0  0  0  0
 16 29  1  0  0  0  0
 17 29  1  0  0  0  0
 17 32  2  0  0  0  0
 17 33  1  0  0  0  0
 18 20  2  0  0  0  0
 18 38  1  0  0  0  0
 19 21  2  0  0  0  0
 19 39  1  0  0  0  0
 20 47  1  0  0  0  0
 21 40  1  0  0  0  0
 22 23  1  0  0  0  0
 22 50  1  0  0  0  0
 23 31  2  0  0  0  0
 23 64  1  0  0  0  0
 24 84  1  0  0  0  0
 25 85  1  0  0  0  0
 26 28  2  0  0  0  0
 26 84  1  0  0  0  0
 27 86  1  0  0  0  0
 28 87  1  0  0  0  0
 29 69  2  0  0  0  0
 30 67  1  0  0  0  0
 30 70  2  0  0  0  0
 31 51  1  0  0  0  0
 31 70  1  0  0  0  0
 32 71  1  0  0  0  0
 32 74  1  0  0  0  0
 33 75  1  0  0  0  0
 33 79  2  0  0  0  0
 34 48  1  0  0  0  0
 34 76  1  0  0  0  0
 34 80  2  0  0  0  0
 35 64  1  0  0  0  0
 35 73  1  0  0  0  0
 35 81  2  0  0  0  0
 36 65  1  0  0  0  0
 36 72  1  0  0  0  0
 36 82  2  0  0  0  0
 37 66  1  0  0  0  0
 37 77  1  0  0  0  0
 37 83  2  0  0  0  0
 38 41  1  0  0  0  0
 39 48  1  0  0  0  0
 40 72  1  0  0  0  0
 41 43  1  0  0  0  0
 42 44  1  0  0  0  0
 42 45  1  0  0  0  0
 43 47  1  0  0  0  0
 44 49  1  0  0  0  0
 45 73  1  0  0  0  0
 46 49  1  0  0  0  0
 46 73  1  0  0  0  0
 47 76  1  0  0  0  0
 48 72  1  0  0  0  0
 49 71  1  0  0  0  0
 52 64  1  0  0  0  0
 53 66  1  0  0  0  0
 54 67  1  0  0  0  0
 55 67  1  0  0  0  0
 56 68  1  0  0  0  0
 57 68  1  0  0  0  0
 58 68  1  0  0  0  0
 59 78  1  0  0  0  0
 60 61  1  0  0  0  0
 60 62  1  0  0  0  0
 61 63  1  0  0  0  0
 62 67  1  0  0  0  0
 63 85  1  0  0  0  0
 65 68  1  0  0  0  0
 65 77  1  0  0  0  0
 66 78  1  0  0  0  0
 69 71  1  0  0  0  0
M  CHG  1  78   1
M  ISO  4  35 100  63 101  64 100  85 101
M  END
> <Batch ID>
0069

> <Smiles>
CNC(C)C(=O)NC(C(=O)N1Cc2cc([101O:1][101CH2:1]CCCC(C)(C)c3cc(C)c([100CH:0](C)[100C:0](=O)N4CCCC(n5nc(-c6ccc(Oc7ccc(F)cc7F)cc6)c(C(N)=O)c5N)C4)c(C)n3)ccc2CC1C(=O)NC1CCCc2ccccc21)C(C)(C)C

> <Shape>
0.161

> <Color>
0.179

> <Negative vol penalty>
0.000

$$$$

  -OEChem-04052318173D

 85 93  0     1  0  0  0  0  0999 V2000
  -17.3603  -30.2044   24.0765 C   0  0  0  0  0  0  0  0  0  0  0  0
  -17.9237  -29.2793   24.9495 C   0  0  0  0  0  0  0  0  0  0  0  0
  -24.9761  -13.7567   21.3689 C   0  0  0  0  0  0  0  0  0  0  0  0
  -26.0719  -13.6109   19.2206 C   0  0  0  0  0  0  0  0  0  0  0  0
  -17.6377  -30.1325   22.7120 C   0  0  0  0  0  0  0  0  0  0  0  0
  -18.7642  -28.2809   24.4582 C   0  0  0  0  0  0  0  0  0  0  0  0
  -24.5088  -24.4156   26.2954 C   0  0  0  0  0  0  0  0  0  0  0  0
  -24.2092  -12.6350   21.0539 C   0  0  0  0  0  0  0  0  0  0  0  0
  -25.3051  -12.4891   18.9057 C   0  0  0  0  0  0  0  0  0  0  0  0
  -24.9358  -23.0906   26.3721 C   0  0  0  0  0  0  0  0  0  0  0  0
  -24.6158   -9.2790   20.9853 C   0  0  0  0  0  0  0  0  0  0  0  0
  -24.4777   -8.2930   21.9622 C   0  0  0  0  0  0  0  0  0  0  0  0
  -25.4071  -23.1119   24.0063 C   0  0  0  0  0  0  0  0  0  0  0  0
  -22.0821   -8.6055   21.9389 C   0  0  0  0  0  0  0  0  0  0  0  0
  -30.6175  -23.3733   23.2424 C   0  0  0  0  0  0  0  0  0  0  0  0
  -25.9074  -14.2447   20.4522 C   0  0  0  0  0  0  0  0  0  0  0  0
  -27.9539  -15.4246   21.4151 C   0  0  0  0  0  0  0  0  0  0  0  0
  -18.4897  -29.1386   22.2051 C   0  0  0  0  0  0  0  0  0  0  0  0
  -24.5174  -25.0964   25.0694 C   0  0  0  0  0  0  0  0  0  0  0  0
  -19.0522  -28.1948   23.0855 C   0  0  0  0  0  0  0  0  0  0  0  0
  -24.9821  -24.4463   23.9172 C   0  0  0  0  0  0  0  0  0  0  0  0
  -24.3738  -12.0011   19.8223 C   0  0  0  0  0  0  0  0  0  0  0  0
  -25.3824  -22.4377   25.2269 C   0  0  0  0  0  0  0  0  0  0  0  0
  -23.4871   -9.9283   20.4852 C   0  0  0  0  0  0  0  0  0  0  0  0
  -23.2109   -7.9563   22.4390 C   0  0  0  0  0  0  0  0  0  0  0  0
  -22.2203   -9.5915   20.9620 C   0  0  0  0  0  0  0  0  0  0  0  0
  -26.6994  -15.4038   20.7768 C   0  0  0  0  0  0  0  0  0  0  0  0
  -28.2792  -16.7569   21.4897 C   0  0  0  0  0  0  0  0  0  0  0  0
  -31.3845  -22.3905   21.5682 C   0  0  0  0  0  0  0  0  0  0  0  0
  -28.7538  -14.3368   21.8975 C   0  0  0  0  0  0  0  0  0  0  0  0
  -22.2958  -26.4308   23.2290 C   0  0  0  0  0  0  0  0  0  0  0  0
  -24.8658  -27.4196   21.5143 C   0  0  0  0  0  0  0  0  0  0  0  0
  -28.1319  -26.9371   20.6504 C   0  0  0  0  0  0  0  0  0  0  0  0
  -28.6119  -21.8225   19.1713 C   0  0  0  0  0  0  0  0  0  0  0  0
  -18.7224  -29.0720   20.7165 C   0  0  0  0  0  0  0  0  0  0  0  0
  -24.0787  -26.5338   25.0085 C   0  0  0  0  0  0  0  0  0  0  0  0
  -25.0303  -25.1390   22.5807 C   0  0  0  0  0  0  0  0  0  0  0  0
  -19.9213  -28.2118   20.3253 C   0  0  0  0  0  0  0  0  0  0  0  0
  -25.4897  -20.8817   20.6006 C   0  0  0  0  0  0  0  0  0  0  0  0
  -19.8964  -26.8865   21.0802 C   0  0  0  0  0  0  0  0  0  0  0  0
  -25.6274  -19.3742   20.8205 C   0  0  0  0  0  0  0  0  0  0  0  0
  -26.1884  -21.3314   19.3194 C   0  0  0  0  0  0  0  0  0  0  0  0
  -27.7407  -19.4204   19.4310 C   0  0  0  0  0  0  0  0  0  0  0  0
  -19.9885  -27.1122   22.5941 C   0  0  1  0  0  0  0  0  0  0  0  0
  -23.6461  -26.9677   23.6114 C   0  0  1  0  0  0  0  0  0  0  0  0
  -27.0997  -18.9280   20.7398 C   0  0  2  0  0  0  0  0  0  0  0  0
  -29.9465  -27.8853   19.1993 C   0  0  0  0  0  0  0  0  0  0  0  0
  -32.6511  -20.5858   20.2135 C   0  0  0  0  0  0  0  0  0  0  0  0
  -33.2455  -22.9845   19.9930 C   0  0  0  0  0  0  0  0  0  0  0  0
  -23.5490  -26.1754   19.0591 C   0  0  0  0  0  0  0  0  0  0  0  0
  -25.7621  -26.3005   17.8951 C   0  0  0  0  0  0  0  0  0  0  0  0
  -24.6325  -28.3922   18.6511 C   0  0  0  0  0  0  0  0  0  0  0  0
  -27.4330  -19.4126   25.6074 C   0  0  0  0  0  0  0  0  0  0  0  0
  -27.4992  -21.5385   26.9363 C   0  0  0  0  0  0  0  0  0  0  0  0
  -29.8589  -27.5104   22.9845 C   0  0  0  0  0  0  0  0  0  0  0  0
  -28.0112  -21.6287   24.4784 C   0  0  0  0  0  0  0  0  0  0  0  0
  -29.5265  -21.4084   24.5904 C   0  0  0  0  0  0  0  0  0  0  0  0
  -31.0683  -22.1560   19.0509 C   0  0  0  0  0  0  0  0  0  0  0  0
  -25.6686  -26.8529   20.3683 C   0  0  1  0  0  0  0  0  0  0  0  0
  -29.3071  -27.8954   20.5791 C   0  0  2  0  0  0  0  0  0  0  0  0
  -32.0269  -22.0369   20.3054 C   0  0  0  0  0  0  0  0  0  0  0  0
  -24.9004  -26.9163   19.0181 C   0  0  0  0  0  0  0  0  0  0  0  0
  -27.1824  -20.9217   25.5699 C   0  0  0  0  0  0  0  0  0  1  0  0
  -31.3029  -23.5956   22.0825 N   0  0  0  0  0  0  0  0  0  0  0  0
  -26.2577  -16.6259   20.4679 N   0  0  0  0  0  0  0  0  0  0  0  0
  -30.7724  -21.4987   22.3927 N   0  0  0  0  0  0  0  0  0  0  0  0
  -30.2700  -22.1064   23.4783 N   0  0  0  0  0  0  0  0  0  0  0  0
  -27.2401  -17.4271   20.9142 N   0  0  0  0  0  0  0  0  0  0  0  0
  -24.5849  -26.5423   22.5713 N   0  0  0  0  0  0  0  0  0  0  0  0
  -27.5813  -20.8777   19.3063 N   0  0  0  0  0  0  0  0  0  0  0  0
  -29.3499  -17.4088   21.9907 N   0  0  0  0  0  0  0  0  0  0  0  0
  -28.2701  -13.0308   21.7402 N   0  0  0  0  0  0  0  0  0  0  0  0
  -21.3518  -27.4085   22.9789 N   0  0  0  0  0  0  0  0  0  0  0  0
  -26.9397  -27.5691   20.3669 N   0  0  0  0  0  0  0  0  0  0  0  0
  -29.9030  -21.3088   19.1748 N   0  0  0  0  0  0  0  0  0  0  0  0
  -30.3444  -27.5184   21.5805 N   0  3  0  0  0  0  0  0  0  0  0  0
  -29.8569  -14.5186   22.4662 O   0  0  0  0  0  0  0  0  0  0  0  0
  -22.1236  -25.2193   23.1641 O   0  0  0  0  0  0  0  0  0  0  0  0
  -24.5073  -28.5993   21.4764 O   0  0  0  0  0  0  0  0  0  0  0  0
  -28.2593  -25.7462   20.9262 O   0  0  0  0  0  0  0  0  0  0  0  0
  -28.3977  -23.0345   19.0616 O   0  0  0  0  0  0  0  0  0  0  0  0
  -23.6258  -10.9063   19.5147 O   0  0  0  0  0  0  0  0  0  0  0  0
  -25.7991  -21.1442   25.2989 O   0  0  0  0  0  0  0  0  0  1  0  0
  -23.0782   -7.0084   23.3761 F   0  0  0  0  0  0  0  0  0  0  0  0
  -21.1321  -10.2110   20.4845 F   0  0  0  0  0  0  0  0  0  0  0  0
  1  2  1  0  0  0  0
  1  5  2  0  0  0  0
  2  6  2  0  0  0  0
  3  8  2  0  0  0  0
  3 16  1  0  0  0  0
  4  9  1  0  0  0  0
  4 16  2  0  0  0  0
  5 18  1  0  0  0  0
  6 20  1  0  0  0  0
  7 10  2  0  0  0  0
  7 19  1  0  0  0  0
  8 22  1  0  0  0  0
  9 22  2  0  0  0  0
 10 23  1  0  0  0  0
 11 12  2  0  0  0  0
 11 24  1  0  0  0  0
 12 25  1  0  0  0  0
 13 21  1  0  0  0  0
 13 23  2  0  0  0  0
 14 25  2  0  0  0  0
 14 26  1  0  0  0  0
 15 64  2  0  0  0  0
 15 67  1  0  0  0  0
 16 27  1  0  0  0  0
 17 27  1  0  0  0  0
 17 28  2  0  0  0  0
 17 30  1  0  0  0  0
 18 20  2  0  0  0  0
 18 35  1  0  0  0  0
 19 21  2  0  0  0  0
 19 36  1  0  0  0  0
 20 44  1  0  0  0  0
 21 37  1  0  0  0  0
 22 82  1  0  0  0  0
 23 83  1  0  0  0  0
 24 26  2  0  0  0  0
 24 82  1  0  0  0  0
 25 84  1  0  0  0  0
 26 85  1  0  0  0  0
 27 65  2  0  0  0  0
 28 68  1  0  0  0  0
 28 71  1  0  0  0  0
 29 61  1  0  0  0  0
 29 64  1  0  0  0  0
 29 66  2  0  0  0  0
 30 72  1  0  0  0  0
 30 77  2  0  0  0  0
 31 45  1  0  0  0  0
 31 73  1  0  0  0  0
 31 78  2  0  0  0  0
 32 59  1  0  0  0  0
 32 69  1  0  0  0  0
 32 79  2  0  0  0  0
 33 60  1  0  0  0  0
 33 74  1  0  0  0  0
 33 80  2  0  0  0  0
 34 70  1  0  0  0  0
 34 75  1  0  0  0  0
 34 81  2  0  0  0  0
 35 38  1  0  0  0  0
 36 45  1  0  0  0  0
 37 69  1  0  0  0  0
 38 40  1  0  0  0  0
 39 41  1  0  0  0  0
 39 42  1  0  0  0  0
 40 44  1  0  0  0  0
 41 46  1  0  0  0  0
 42 70  1  0  0  0  0
 43 46  1  0  0  0  0
 43 70  1  0  0  0  0
 44 73  1  0  0  0  0
 45 69  1  0  0  0  0
 46 68  1  0  0  0  0
 47 60  1  0  0  0  0
 48 61  1  0  0  0  0
 49 61  1  0  0  0  0
 50 62  1  0  0  0  0
 51 62  1  0  0  0  0
 52 62  1  0  0  0  0
 53 63  1  0  0  0  0
 54 63  1  0  0  0  0
 55 76  1  0  0  0  0
 56 57  1  0  0  0  0
 56 63  1  0  0  0  0
 57 67  1  0  0  0  0
 58 61  1  0  0  0  0
 58 75  1  0  0  0  0
 59 62  1  0  0  0  0
 59 74  1  0  0  0  0
 60 76  1  0  0  0  0
 63 83  1  0  0  0  0
 65 68  1  0  0  0  0
 66 67  1  0  0  0  0
M  CHG  1  76   1
M  ISO  4  34 100  63 101  75 100  83 101
M  END
> <Batch ID>
0069

> <Smiles>
CNC(C)C(=O)NC(C(=O)N1Cc2cc([101O:1][101C:1](C)(C)CCn3cnc(C(C)(C)C[100NH:0][100C:0](=O)N4CCCC(n5nc(-c6ccc(Oc7ccc(F)cc7F)cc6)c(C(N)=O)c5N)C4)n3)ccc2CC1C(=O)NC1CCCc2ccccc21)C(C)(C)C

> <Shape>
0.231

> <Color>
0.065

> <Negative vol penalty>
0.000

$$$$

  -OEChem-04052318173D

 95103  0     1  0  0  0  0  0999 V2000
  -32.2665  -16.0957   21.6333 C   0  0  0  0  0  0  0  0  0  0  0  0
  -31.1983  -16.9636   21.8363 C   0  0  0  0  0  0  0  0  0  0  0  0
  -29.9720  -23.6801   20.7970 C   0  0  0  0  0  0  0  0  0  0  0  0
  -29.0596  -23.8446   18.5660 C   0  0  0  0  0  0  0  0  0  0  0  0
  -32.0645  -14.8870   20.9684 C   0  0  0  0  0  0  0  0  0  0  0  0
  -29.9276  -16.6237   21.3734 C   0  0  0  0  0  0  0  0  0  0  0  0
  -26.3057  -17.5372   24.7928 C   0  0  0  0  0  0  0  0  0  0  0  0
  -29.9062  -22.2888   20.7214 C   0  0  0  0  0  0  0  0  0  0  0  0
  -28.9939  -22.4533   18.4903 C   0  0  0  0  0  0  0  0  0  0  0  0
  -25.8898  -18.8595   24.9420 C   0  0  0  0  0  0  0  0  0  0  0  0
  -26.9724  -19.9896   19.6195 C   0  0  0  0  0  0  0  0  0  0  0  0
  -25.8037  -19.4228   19.1112 C   0  0  0  0  0  0  0  0  0  0  0  0
  -23.9612  -18.4015   23.5672 C   0  0  0  0  0  0  0  0  0  0  0  0
  -27.0773  -18.3865   17.3388 C   0  0  0  0  0  0  0  0  0  0  0  0
  -23.2339  -28.0548   22.4763 C   0  0  0  0  0  0  0  0  0  0  0  0
  -29.5486  -24.4580   19.7193 C   0  0  0  0  0  0  0  0  0  0  0  0
  -30.6932  -26.7176   19.4169 C   0  0  0  0  0  0  0  0  0  0  0  0
  -30.7888  -14.5277   20.5057 C   0  0  0  0  0  0  0  0  0  0  0  0
  -25.5570  -16.6384   24.0195 C   0  0  0  0  0  0  0  0  0  0  0  0
  -29.7086  -15.4096   20.7005 C   0  0  0  0  0  0  0  0  0  0  0  0
  -24.3684  -17.0677   23.4119 C   0  0  0  0  0  0  0  0  0  0  0  0
  -29.4172  -21.6754   19.5680 C   0  0  0  0  0  0  0  0  0  0  0  0
  -24.7189  -19.2926   24.3267 C   0  0  0  0  0  0  0  0  0  0  0  0
  -28.1936  -19.7550   18.9874 C   0  0  0  0  0  0  0  0  0  0  0  0
  -25.8561  -18.6212   17.9708 C   0  0  0  0  0  0  0  0  0  0  0  0
  -28.2460  -18.9535   17.8471 C   0  0  0  0  0  0  0  0  0  0  0  0
  -29.6158  -25.8951   19.7971 C   0  0  0  0  0  0  0  0  0  0  0  0
  -22.6115  -29.2432   22.2173 C   0  0  0  0  0  0  0  0  0  0  0  0
  -30.2626  -27.9938   19.6862 C   0  0  0  0  0  0  0  0  0  0  0  0
  -21.0482  -27.7146   22.5635 C   0  0  0  0  0  0  0  0  0  0  0  0
  -31.9691  -26.3601   18.8693 C   0  0  0  0  0  0  0  0  0  0  0  0
  -26.1071  -14.9472   21.3850 C   0  0  0  0  0  0  0  0  0  0  0  0
  -23.1895  -13.6944   22.0484 C   0  0  0  0  0  0  0  0  0  0  0  0
  -24.4837  -29.8619   19.7990 C   0  0  0  0  0  0  0  0  0  0  0  0
  -20.1604  -14.0572   23.5781 C   0  0  0  0  0  0  0  0  0  0  0  0
  -30.6287  -13.2319   19.7507 C   0  0  0  0  0  0  0  0  0  0  0  0
  -26.0051  -15.2084   23.8904 C   0  0  0  0  0  0  0  0  0  0  0  0
  -23.5180  -16.1370   22.5879 C   0  0  0  0  0  0  0  0  0  0  0  0
  -29.1772  -12.7772   19.6220 C   0  0  0  0  0  0  0  0  0  0  0  0
  -26.8437  -30.0441   22.5978 C   0  0  0  0  0  0  0  0  0  0  0  0
  -28.2894  -13.9409   19.1924 C   0  0  0  0  0  0  0  0  0  0  0  0
  -27.7157  -28.8706   22.1394 C   0  0  0  0  0  0  0  0  0  0  0  0
  -26.1693  -30.7966   21.4513 C   0  0  0  0  0  0  0  0  0  0  0  0
  -26.7962  -29.0340   19.8026 C   0  0  0  0  0  0  0  0  0  0  0  0
  -28.3105  -15.0651   20.2351 C   0  0  1  0  0  0  0  0  0  0  0  0
  -25.4364  -14.5130   22.6574 C   0  0  1  0  0  0  0  0  0  0  0  0
  -28.0778  -28.9754   20.6513 C   0  0  2  0  0  0  0  0  0  0  0  0
  -17.9683  -12.8820   23.9109 C   0  0  0  0  0  0  0  0  0  0  0  0
  -22.1890  -31.7410   22.4226 C   0  0  0  0  0  0  0  0  0  0  0  0
  -24.4671  -30.9136   22.7498 C   0  0  0  0  0  0  0  0  0  0  0  0
  -19.5348  -26.4605   24.1391 C   0  0  0  0  0  0  0  0  0  0  0  0
  -19.5222  -25.9143   21.6819 C   0  0  0  0  0  0  0  0  0  0  0  0
  -18.4827  -28.0157   22.5093 C   0  0  0  0  0  0  0  0  0  0  0  0
  -24.0651  -32.2419   20.0926 C   0  0  0  0  0  0  0  0  0  0  0  0
  -22.3640  -14.4343   19.2057 C   0  0  0  0  0  0  0  0  0  0  0  0
  -19.9764  -14.1275   19.8937 C   0  0  0  0  0  0  0  0  0  0  0  0
  -21.5547  -12.1977   19.9782 C   0  0  0  0  0  0  0  0  0  0  0  0
  -22.9402  -25.1799   20.5452 C   0  0  0  0  0  0  0  0  0  0  0  0
  -24.8333  -25.1493   22.1765 C   0  0  0  0  0  0  0  0  0  0  0  0
  -20.5259  -13.9599   26.5133 C   0  0  0  0  0  0  0  0  0  0  0  0
  -23.8542  -22.6496   23.3358 C   0  0  0  0  0  0  0  0  0  0  0  0
  -23.0706  -23.3225   22.2046 C   0  0  0  0  0  0  0  0  0  0  0  0
  -22.4723  -25.6673   23.0096 C   0  0  0  0  0  0  0  0  0  0  0  0
  -23.5693  -21.1532   23.3926 C   0  0  0  0  0  0  0  0  0  1  0  0
  -21.7669  -14.0483   21.6877 C   0  0  1  0  0  0  0  0  0  0  0  0
  -19.3629  -13.1212   24.4682 C   0  0  2  0  0  0  0  0  0  0  0  0
  -23.1496  -30.5733   21.9207 C   0  0  0  0  0  0  0  0  0  0  0  0
  -19.7185  -27.0725   22.7128 C   0  0  0  0  0  0  0  0  0  0  0  0
  -23.4690  -30.8369   20.3391 C   0  0  2  0  0  0  0  0  0  0  0  0
  -21.4323  -13.7202   20.2052 C   0  0  0  0  0  0  0  0  0  0  0  0
  -23.3328  -24.8478   22.0016 C   0  0  0  0  0  0  0  0  0  0  0  0
  -22.2266  -30.7107   19.4322 C   0  0  0  0  0  0  0  0  0  0  0  0
  -28.5788  -26.5904   20.2719 N   0  0  0  0  0  0  0  0  0  0  0  0
  -22.2427  -27.1268   22.6872 N   0  0  0  0  0  0  0  0  0  0  0  0
  -29.0027  -27.8632   20.1919 N   0  0  0  0  0  0  0  0  0  0  0  0
  -21.2599  -29.0033   22.2774 N   0  3  0  0  0  0  0  0  0  0  0  0
  -24.0016  -14.7502   22.4862 N   0  0  0  0  0  0  0  0  0  0  0  0
  -25.7549  -29.8935   20.3749 N   0  0  0  0  0  0  0  0  0  0  0  0
  -30.8426  -29.2037   19.5374 N   0  0  0  0  0  0  0  0  0  0  0  0
  -32.2481  -25.0032   18.6560 N   0  0  0  0  0  0  0  0  0  0  0  0
  -27.4706  -14.7240   21.3632 N   0  0  0  0  0  0  0  0  0  0  0  0
  -20.9179  -13.3646   22.6573 N   0  0  0  0  0  0  0  0  0  0  0  0
  -19.2300  -13.6959   25.8368 N   0  3  0  0  0  0  0  0  0  0  0  0
  -32.8423  -27.2172   18.5931 O   0  0  0  0  0  0  0  0  0  0  0  0
  -25.4370  -15.4464   20.4886 O   0  0  0  0  0  0  0  0  0  0  0  0
  -23.5642  -12.5231   21.9522 O   0  0  0  0  0  0  0  0  0  0  0  0
  -24.1610  -29.0897   18.8922 O   0  0  0  0  0  0  0  0  0  0  0  0
  -20.1131  -15.2806   23.6862 O   0  0  0  0  0  0  0  0  0  0  0  0
  -29.3531  -20.3179   19.4938 O   0  0  0  0  0  0  0  0  0  0  0  0
  -24.3110  -20.5829   24.4701 O   0  0  0  0  0  0  0  0  0  1  0  0
  -24.7340  -18.0757   17.4837 F   0  0  0  0  0  0  0  0  0  0  0  0
  -29.4163  -18.7235   17.2362 F   0  0  0  0  0  0  0  0  0  0  0  0
  -21.7013  -29.4687   19.4308 F   0  0  0  0  0  0  0  0  0  0  0  0
  -22.5365  -31.0047   18.1446 F   0  0  0  0  0  0  0  0  0  0  0  0
  -21.2475  -31.5680   19.7964 F   0  0  0  0  0  0  0  0  0  0  0  0
  1  2  1  0  0  0  0
  1  5  2  0  0  0  0
  2  6  2  0  0  0  0
  3  8  2  0  0  0  0
  3 16  1  0  0  0  0
  4  9  1  0  0  0  0
  4 16  2  0  0  0  0
  5 18  1  0  0  0  0
  6 20  1  0  0  0  0
  7 10  2  0  0  0  0
  7 19  1  0  0  0  0
  8 22  1  0  0  0  0
  9 22  2  0  0  0  0
 10 23  1  0  0  0  0
 11 12  2  0  0  0  0
 11 24  1  0  0  0  0
 12 25  1  0  0  0  0
 13 21  1  0  0  0  0
 13 23  2  0  0  0  0
 14 25  2  0  0  0  0
 14 26  1  0  0  0  0
 15 28  2  0  0  0  0
 15 74  1  0  0  0  0
 16 27  1  0  0  0  0
 17 27  1  0  0  0  0
 17 29  2  0  0  0  0
 17 31  1  0  0  0  0
 18 20  2  0  0  0  0
 18 36  1  0  0  0  0
 19 21  2  0  0  0  0
 19 37  1  0  0  0  0
 20 45  1  0  0  0  0
 21 38  1  0  0  0  0
 22 89  1  0  0  0  0
 23 90  1  0  0  0  0
 24 26  2  0  0  0  0
 24 89  1  0  0  0  0
 25 91  1  0  0  0  0
 26 92  1  0  0  0  0
 27 73  2  0  0  0  0
 28 67  1  0  0  0  0
 28 76  1  0  0  0  0
 29 75  1  0  0  0  0
 29 79  1  0  0  0  0
 30 68  1  0  0  0  0
 30 74  1  0  0  0  0
 30 76  2  0  0  0  0
 31 80  1  0  0  0  0
 31 84  2  0  0  0  0
 32 46  1  0  0  0  0
 32 81  1  0  0  0  0
 32 85  2  0  0  0  0
 33 65  1  0  0  0  0
 33 77  1  0  0  0  0
 33 86  2  0  0  0  0
 34 69  1  0  0  0  0
 34 78  1  0  0  0  0
 34 87  2  0  0  0  0
 35 66  1  0  0  0  0
 35 82  1  0  0  0  0
 35 88  2  0  0  0  0
 36 39  1  0  0  0  0
 37 46  1  0  0  0  0
 38 77  1  0  0  0  0
 39 41  1  0  0  0  0
 40 42  1  0  0  0  0
 40 43  1  0  0  0  0
 41 45  1  0  0  0  0
 42 47  1  0  0  0  0
 43 78  1  0  0  0  0
 44 47  1  0  0  0  0
 44 78  1  0  0  0  0
 45 81  1  0  0  0  0
 46 77  1  0  0  0  0
 47 75  1  0  0  0  0
 48 66  1  0  0  0  0
 49 67  1  0  0  0  0
 50 67  1  0  0  0  0
 51 68  1  0  0  0  0
 52 68  1  0  0  0  0
 53 68  1  0  0  0  0
 54 69  1  0  0  0  0
 55 70  1  0  0  0  0
 56 70  1  0  0  0  0
 57 70  1  0  0  0  0
 58 71  1  0  0  0  0
 59 71  1  0  0  0  0
 60 83  1  0  0  0  0
 61 62  1  0  0  0  0
 61 64  1  0  0  0  0
 62 71  1  0  0  0  0
 63 71  1  0  0  0  0
 63 74  1  0  0  0  0
 64 90  1  0  0  0  0
 65 70  1  0  0  0  0
 65 82  1  0  0  0  0
 66 83  1  0  0  0  0
 67 69  1  0  0  0  0
 69 72  1  0  0  0  0
 72 93  1  0  0  0  0
 72 94  1  0  0  0  0
 72 95  1  0  0  0  0
 73 75  1  0  0  0  0
M  CHG  2  76   1  83   1
M  ISO  4  34 100  64 101  69 100  90 101
M  END
> <Batch ID>
0069

> <Smiles>
CNC(C)C(=O)NC(C(=O)N1Cc2cc([101O:1][101CH2:1]CCC(C)(C)Cn3cc(C(C)(C)[100C:0](C)([100C:0](=O)N4CCCC(n5nc(-c6ccc(Oc7ccc(F)cc7F)cc6)c(C(N)=O)c5N)C4)C(F)(F)F)nc3C(C)(C)C)ccc2CC1C(=O)NC1CCCc2ccccc21)C(C)(C)C

> <Shape>
0.295

> <Color>
0.068

> <Negative vol penalty>
0.000

$$$$

  -OEChem-04052318173D

 90 98  0     1  0  0  0  0  0999 V2000
  -26.4544  -24.1617   16.8602 C   0  0  0  0  0  0  0  0  0  0  0  0
  -25.3412  -24.6301   17.5507 C   0  0  0  0  0  0  0  0  0  0  0  0
  -26.2580  -14.1250   20.2106 C   0  0  0  0  0  0  0  0  0  0  0  0
  -24.3088  -14.0679   21.6370 C   0  0  0  0  0  0  0  0  0  0  0  0
  -27.7342  -24.4028   17.3579 C   0  0  0  0  0  0  0  0  0  0  0  0
  -25.5072  -25.3389   18.7400 C   0  0  0  0  0  0  0  0  0  0  0  0
  -22.5736  -29.4603   18.9710 C   0  0  0  0  0  0  0  0  0  0  0  0
  -26.3777  -12.7395   20.3187 C   0  0  0  0  0  0  0  0  0  0  0  0
  -24.4285  -12.6824   21.7450 C   0  0  0  0  0  0  0  0  0  0  0  0
  -21.2283  -29.2676   19.2821 C   0  0  0  0  0  0  0  0  0  0  0  0
  -23.6911   -9.9667   19.8736 C   0  0  0  0  0  0  0  0  0  0  0  0
  -22.5308   -9.2049   19.7366 C   0  0  0  0  0  0  0  0  0  0  0  0
  -21.6709  -29.9074   21.5655 C   0  0  0  0  0  0  0  0  0  0  0  0
  -22.8441   -8.3269   21.9656 C   0  0  0  0  0  0  0  0  0  0  0  0
  -19.7803  -26.8463   25.8514 C   0  0  0  0  0  0  0  0  0  0  0  0
  -25.2236  -14.7892   20.8698 C   0  0  0  0  0  0  0  0  0  0  0  0
  -24.3708  -16.9383   19.7920 C   0  0  0  0  0  0  0  0  0  0  0  0
  -27.9164  -25.1232   18.5489 C   0  0  0  0  0  0  0  0  0  0  0  0
  -23.4813  -29.8681   19.9591 C   0  0  0  0  0  0  0  0  0  0  0  0
  -26.7906  -25.5886   19.2548 C   0  0  0  0  0  0  0  0  0  0  0  0
  -23.0267  -30.1070   21.2639 C   0  0  0  0  0  0  0  0  0  0  0  0
  -25.4630  -12.0182   21.0858 C   0  0  0  0  0  0  0  0  0  0  0  0
  -20.7773  -29.4884   20.5801 C   0  0  0  0  0  0  0  0  0  0  0  0
  -24.4280   -9.9086   21.0566 C   0  0  0  0  0  0  0  0  0  0  0  0
  -22.1072   -8.3850   20.7826 C   0  0  0  0  0  0  0  0  0  0  0  0
  -24.0044   -9.0888   22.1025 C   0  0  0  0  0  0  0  0  0  0  0  0
  -25.0997  -16.2205   20.7590 C   0  0  0  0  0  0  0  0  0  0  0  0
  -20.5870  -26.5086   26.9189 C   0  0  0  0  0  0  0  0  0  0  0  0
  -20.0692  -26.2118   24.6605 C   0  0  0  0  0  0  0  0  0  0  0  0
  -24.5711  -18.2569   20.1200 C   0  0  0  0  0  0  0  0  0  0  0  0
  -21.7814  -25.0702   25.6260 C   0  0  0  0  0  0  0  0  0  0  0  0
  -23.5830  -16.4563   18.6953 C   0  0  0  0  0  0  0  0  0  0  0  0
  -26.0890  -28.6067   21.2678 C   0  0  0  0  0  0  0  0  0  0  0  0
  -26.2721  -31.4912   22.7403 C   0  0  0  0  0  0  0  0  0  0  0  0
  -24.6918  -22.2167   23.9389 C   0  0  0  0  0  0  0  0  0  0  0  0
  -24.6603  -34.2943   23.8320 C   0  0  0  0  0  0  0  0  0  0  0  0
  -29.3174  -25.3180   19.0724 C   0  0  0  0  0  0  0  0  0  0  0  0
  -24.9242  -30.0973   19.6013 C   0  0  0  0  0  0  0  0  0  0  0  0
  -23.9568  -30.5651   22.3563 C   0  0  0  0  0  0  0  0  0  0  0  0
  -29.4223  -26.4008   20.1433 C   0  0  0  0  0  0  0  0  0  0  0  0
  -27.7902  -20.3997   23.3684 C   0  0  0  0  0  0  0  0  0  0  0  0
  -28.3148  -26.2361   21.1793 C   0  0  0  0  0  0  0  0  0  0  0  0
  -27.2935  -19.1885   22.5802 C   0  0  0  0  0  0  0  0  0  0  0  0
  -26.7744  -20.8405   24.4191 C   0  0  0  0  0  0  0  0  0  0  0  0
  -24.9168  -19.9092   23.0751 C   0  0  0  0  0  0  0  0  0  0  0  0
  -26.9309  -26.3828   20.5354 C   0  0  1  0  0  0  0  0  0  0  0  0
  -25.8582  -30.0174   20.8048 C   0  0  1  0  0  0  0  0  0  0  0  0
  -25.8995  -19.4517   21.9842 C   0  0  2  0  0  0  0  0  0  0  0  0
  -21.1468  -28.4328   28.4257 C   0  0  0  0  0  0  0  0  0  0  0  0
  -25.0685  -36.4595   25.0331 C   0  0  0  0  0  0  0  0  0  0  0  0
  -26.6190  -23.7164   24.0722 C   0  0  0  0  0  0  0  0  0  0  0  0
  -25.6460  -22.7145   26.1254 C   0  0  0  0  0  0  0  0  0  0  0  0
  -26.4328  -29.9879   25.3906 C   0  0  0  0  0  0  0  0  0  0  0  0
  -25.8832  -32.1322   26.5603 C   0  0  0  0  0  0  0  0  0  0  0  0
  -27.9723  -31.9504   25.2094 C   0  0  0  0  0  0  0  0  0  0  0  0
  -24.8510  -25.7101   25.6853 C   0  0  0  0  0  0  0  0  0  0  0  0
  -23.9624  -25.1182   23.4373 C   0  0  0  0  0  0  0  0  0  0  0  0
  -19.4042  -26.9976   20.2111 C   0  0  0  0  0  0  0  0  0  0  0  0
  -17.5703  -28.0160   21.5854 C   0  0  0  0  0  0  0  0  0  0  0  0
  -23.7763  -35.8883   21.5003 C   0  0  0  0  0  0  0  0  0  0  0  0
  -20.3507  -27.1427   28.2486 C   0  0  0  0  0  0  0  0  0  0  0  0
  -19.2402  -26.5149   23.4366 C   0  0  0  0  0  0  0  0  0  0  0  0
  -22.8903  -24.0809   25.5010 C   0  0  0  0  0  0  0  0  0  0  0  0
  -19.8291  -27.6837   22.6339 C   0  0  0  0  0  0  0  0  0  0  0  0
  -25.7396  -32.0693   24.0292 C   0  0  1  0  0  0  0  0  0  0  0  0
  -24.9890  -35.7686   23.6806 C   0  0  2  0  0  0  0  0  0  0  0  0
  -25.2898  -23.3337   24.7566 C   0  0  0  0  0  0  0  0  0  0  0  0
  -26.4896  -31.5244   25.2775 C   0  0  0  0  0  0  0  0  0  0  0  0
  -24.2554  -24.5491   24.8478 C   0  0  0  0  0  0  0  0  0  0  0  0
  -19.0799  -27.9975   21.3230 C   0  0  0  0  0  0  0  0  0  1  0  0
  -25.7172  -17.0170   21.6355 N   0  0  0  0  0  0  0  0  0  0  0  0
  -21.6003  -25.6211   26.8413 N   0  0  0  0  0  0  0  0  0  0  0  0
  -21.0662  -25.3151   24.5115 N   0  0  0  0  0  0  0  0  0  0  0  0
  -25.3768  -18.2490   21.2205 N   0  0  0  0  0  0  0  0  0  0  0  0
  -25.3595  -30.7691   21.9582 N   0  0  0  0  0  0  0  0  0  0  0  0
  -25.4533  -21.0543   23.8162 N   0  0  0  0  0  0  0  0  0  0  0  0
  -24.1351  -19.4108   19.5715 N   0  0  0  0  0  0  0  0  0  0  0  0
  -23.4831  -15.0718   18.5021 N   0  0  0  0  0  0  0  0  0  0  0  0
  -26.6276  -27.7785   20.3016 N   0  0  0  0  0  0  0  0  0  0  0  0
  -25.7998  -33.5195   23.8817 N   0  0  0  0  0  0  0  0  0  0  0  0
  -23.9450  -36.4510   22.8649 N   0  3  0  0  0  0  0  0  0  0  0  0
  -22.9987  -17.2309   17.9002 O   0  0  0  0  0  0  0  0  0  0  0  0
  -25.8011  -28.2932   22.4169 O   0  0  0  0  0  0  0  0  0  0  0  0
  -27.4523  -31.6796   22.4350 O   0  0  0  0  0  0  0  0  0  0  0  0
  -23.5823  -22.3755   23.4232 O   0  0  0  0  0  0  0  0  0  0  0  0
  -23.5081  -33.8726   23.9030 O   0  0  0  0  0  0  0  0  0  0  0  0
  -25.5793  -10.6662   21.1913 O   0  0  0  0  0  0  0  0  0  0  0  0
  -19.4648  -29.3004   20.8866 O   0  0  0  0  0  0  0  0  0  1  0  0
  -20.9921   -7.6546   20.6515 F   0  0  0  0  0  0  0  0  0  0  0  0
  -24.7076   -9.0297   23.2418 F   0  0  0  0  0  0  0  0  0  0  0  0
  1  2  1  0  0  0  0
  1  5  2  0  0  0  0
  2  6  2  0  0  0  0
  3  8  2  0  0  0  0
  3 16  1  0  0  0  0
  4  9  1  0  0  0  0
  4 16  2  0  0  0  0
  5 18  1  0  0  0  0
  6 20  1  0  0  0  0
  7 10  2  0  0  0  0
  7 19  1  0  0  0  0
  8 22  1  0  0  0  0
  9 22  2  0  0  0  0
 10 23  1  0  0  0  0
 11 12  2  0  0  0  0
 11 24  1  0  0  0  0
 12 25  1  0  0  0  0
 13 21  1  0  0  0  0
 13 23  2  0  0  0  0
 14 25  2  0  0  0  0
 14 26  1  0  0  0  0
 15 28  1  0  0  0  0
 15 29  2  0  0  0  0
 16 27  1  0  0  0  0
 17 27  1  0  0  0  0
 17 30  2  0  0  0  0
 17 32  1  0  0  0  0
 18 20  2  0  0  0  0
 18 37  1  0  0  0  0
 19 21  2  0  0  0  0
 19 38  1  0  0  0  0
 20 46  1  0  0  0  0
 21 39  1  0  0  0  0
 22 87  1  0  0  0  0
 23 88  1  0  0  0  0
 24 26  2  0  0  0  0
 24 87  1  0  0  0  0
 25 89  1  0  0  0  0
 26 90  1  0  0  0  0
 27 71  2  0  0  0  0
 28 61  1  0  0  0  0
 28 72  2  0  0  0  0
 29 62  1  0  0  0  0
 29 73  1  0  0  0  0
 30 74  1  0  0  0  0
 30 77  1  0  0  0  0
 31 63  1  0  0  0  0
 31 72  1  0  0  0  0
 31 73  2  0  0  0  0
 32 78  1  0  0  0  0
 32 82  2  0  0  0  0
 33 47  1  0  0  0  0
 33 79  1  0  0  0  0
 33 83  2  0  0  0  0
 34 65  1  0  0  0  0
 34 75  1  0  0  0  0
 34 84  2  0  0  0  0
 35 67  1  0  0  0  0
 35 76  1  0  0  0  0
 35 85  2  0  0  0  0
 36 66  1  0  0  0  0
 36 80  1  0  0  0  0
 36 86  2  0  0  0  0
 37 40  1  0  0  0  0
 38 47  1  0  0  0  0
 39 75  1  0  0  0  0
 40 42  1  0  0  0  0
 41 43  1  0  0  0  0
 41 44  1  0  0  0  0
 42 46  1  0  0  0  0
 43 48  1  0  0  0  0
 44 76  1  0  0  0  0
 45 48  1  0  0  0  0
 45 76  1  0  0  0  0
 46 79  1  0  0  0  0
 47 75  1  0  0  0  0
 48 74  1  0  0  0  0
 49 61  1  0  0  0  0
 50 66  1  0  0  0  0
 51 67  1  0  0  0  0
 52 67  1  0  0  0  0
 53 68  1  0  0  0  0
 54 68  1  0  0  0  0
 55 68  1  0  0  0  0
 56 69  1  0  0  0  0
 57 69  1  0  0  0  0
 58 70  1  0  0  0  0
 59 70  1  0  0  0  0
 60 81  1  0  0  0  0
 62 64  1  0  0  0  0
 63 69  1  0  0  0  0
 64 70  1  0  0  0  0
 65 68  1  0  0  0  0
 65 80  1  0  0  0  0
 66 81  1  0  0  0  0
 67 69  1  0  0  0  0
 70 88  1  0  0  0  0
 71 74  1  0  0  0  0
M  CHG  1  81   1
M  ISO  4  35 100  67 100  70 101  88 101
M  END
> <Batch ID>
0069

> <Smiles>
CCc1cc(CC[101C:1](C)(C)[101O:1]c2ccc3c(c2)CN(C(=O)C(NC(=O)C(C)NC)C(C)(C)C)C(C(=O)NC2CCCc4ccccc42)C3)nc(CC(C)(C)[100C:0](C)(C)[100C:0](=O)N2CCCC(n3nc(-c4ccc(Oc5ccc(F)cc5F)cc4)c(C(N)=O)c3N)C2)n1

> <Shape>
0.275

> <Color>
0.078

> <Negative vol penalty>
0.000

$$$$

  -OEChem-04052318173D

 84 92  0     1  0  0  0  0  0999 V2000
  -30.7702  -35.8710   20.3636 C   0  0  0  0  0  0  0  0  0  0  0  0
  -30.5238  -34.5814   19.9035 C   0  0  0  0  0  0  0  0  0  0  0  0
  -24.4727  -13.2829   19.9329 C   0  0  0  0  0  0  0  0  0  0  0  0
  -26.1848  -13.4141   21.6324 C   0  0  0  0  0  0  0  0  0  0  0  0
  -30.3303  -36.2540   21.6300 C   0  0  0  0  0  0  0  0  0  0  0  0
  -29.8383  -33.6737   20.7101 C   0  0  0  0  0  0  0  0  0  0  0  0
  -25.9421  -29.3231   18.8669 C   0  0  0  0  0  0  0  0  0  0  0  0
  -24.5144  -11.8903   19.9982 C   0  0  0  0  0  0  0  0  0  0  0  0
  -26.2265  -12.0214   21.6979 C   0  0  0  0  0  0  0  0  0  0  0  0
  -26.0987  -27.9551   18.6481 C   0  0  0  0  0  0  0  0  0  0  0  0
  -23.3259   -9.4548   22.0203 C   0  0  0  0  0  0  0  0  0  0  0  0
  -22.1108   -8.7709   22.0578 C   0  0  0  0  0  0  0  0  0  0  0  0
  -25.2610  -27.5107   20.8662 C   0  0  0  0  0  0  0  0  0  0  0  0
  -22.6956   -7.6199   20.0156 C   0  0  0  0  0  0  0  0  0  0  0  0
  -24.7143  -22.8922   23.4684 C   0  0  0  0  0  0  0  0  0  0  0  0
  -25.3079  -14.0449   20.7499 C   0  0  0  0  0  0  0  0  0  0  0  0
  -24.4496  -16.3464   21.4382 C   0  0  0  0  0  0  0  0  0  0  0  0
  -29.6306  -35.3535   22.4486 C   0  0  0  0  0  0  0  0  0  0  0  0
  -25.4531  -29.7965   20.0930 C   0  0  0  0  0  0  0  0  0  0  0  0
  -29.3898  -34.0446   21.9891 C   0  0  0  0  0  0  0  0  0  0  0  0
  -25.0966  -28.8850   21.0971 C   0  0  0  0  0  0  0  0  0  0  0  0
  -24.8171  -23.3031   20.8169 C   0  0  0  0  0  0  0  0  0  0  0  0
  -25.3913  -11.2595   20.8807 C   0  0  0  0  0  0  0  0  0  0  0  0
  -25.7609  -27.0488   19.6489 C   0  0  0  0  0  0  0  0  0  0  0  0
  -24.2258   -9.2213   20.9804 C   0  0  0  0  0  0  0  0  0  0  0  0
  -21.7957   -7.8534   21.0555 C   0  0  0  0  0  0  0  0  0  0  0  0
  -23.9107   -8.3039   19.9781 C   0  0  0  0  0  0  0  0  0  0  0  0
  -25.2657  -15.4835   20.6824 C   0  0  0  0  0  0  0  0  0  0  0  0
  -23.6709  -22.8661   21.4491 C   0  0  0  0  0  0  0  0  0  0  0  0
  -25.9069  -23.5152   21.6363 C   0  0  0  0  0  0  0  0  0  0  0  0
  -24.7858  -17.6052   21.0036 C   0  0  0  0  0  0  0  0  0  0  0  0
  -23.4748  -16.0377   22.4434 C   0  0  0  0  0  0  0  0  0  0  0  0
  -26.6078  -31.6484   22.4039 C   0  0  0  0  0  0  0  0  0  0  0  0
  -23.6049  -31.3653   23.5973 C   0  0  0  0  0  0  0  0  0  0  0  0
  -20.7068  -29.5699   23.7537 C   0  0  0  0  0  0  0  0  0  0  0  0
  -28.6222  -21.3913   19.5569 C   0  0  0  0  0  0  0  0  0  0  0  0
  -29.2163  -35.7985   23.8289 C   0  0  0  0  0  0  0  0  0  0  0  0
  -25.2648  -31.2738   20.3035 C   0  0  0  0  0  0  0  0  0  0  0  0
  -24.5483  -29.3410   22.4237 C   0  0  0  0  0  0  0  0  0  0  0  0
  -28.1690  -34.8930   24.4720 C   0  0  0  0  0  0  0  0  0  0  0  0
  -27.5734  -19.0886   17.0520 C   0  0  0  0  0  0  0  0  0  0  0  0
  -28.5568  -33.4271   24.3066 C   0  0  0  0  0  0  0  0  0  0  0  0
  -26.8181  -18.0141   17.8362 C   0  0  0  0  0  0  0  0  0  0  0  0
  -28.7737  -19.6185   17.8334 C   0  0  0  0  0  0  0  0  0  0  0  0
  -27.7085  -19.0278   19.9759 C   0  0  0  0  0  0  0  0  0  0  0  0
  -28.6278  -33.0390   22.8247 C   0  0  1  0  0  0  0  0  0  0  0  0
  -25.2426  -31.6694   21.7767 C   0  0  1  0  0  0  0  0  0  0  0  0
  -26.4569  -18.5028   19.2518 C   0  0  2  0  0  0  0  0  0  0  0  0
  -22.4277  -22.6029   20.6645 C   0  0  0  0  0  0  0  0  0  0  0  0
  -18.4456  -29.5702   24.8422 C   0  0  0  0  0  0  0  0  0  0  0  0
  -24.8674  -30.4351   26.2147 C   0  0  0  0  0  0  0  0  0  0  0  0
  -22.6245  -29.5633   26.9058 C   0  0  0  0  0  0  0  0  0  0  0  0
  -22.9375  -32.0023   26.4865 C   0  0  0  0  0  0  0  0  0  0  0  0
  -23.5120  -25.7070   19.3241 C   0  0  0  0  0  0  0  0  0  0  0  0
  -24.9320  -25.0875   17.3544 C   0  0  0  0  0  0  0  0  0  0  0  0
  -19.3214  -29.7140   21.1424 C   0  0  0  0  0  0  0  0  0  0  0  0
  -24.8750  -23.5342   19.3240 C   0  0  0  0  0  0  0  0  0  0  0  0
  -27.2025  -23.9888   21.0642 C   0  0  0  0  0  0  0  0  0  0  0  0
  -28.3839  -23.0634   21.3753 C   0  0  0  0  0  0  0  0  0  0  0  0
  -22.9115  -30.4015   24.5297 C   0  0  1  0  0  0  0  0  0  0  0  0
  -19.2536  -29.9895   23.6240 C   0  0  2  0  0  0  0  0  0  0  0  0
  -23.3473  -30.5917   26.0100 C   0  0  0  0  0  0  0  0  0  0  0  0
  -24.8022  -25.0124   18.8809 C   0  0  0  0  0  0  0  0  0  1  0  0
  -23.5839  -22.6495   22.7779 N   0  0  0  0  0  0  0  0  0  0  0  0
  -25.8907  -23.3193   22.9711 N   0  0  0  0  0  0  0  0  0  0  0  0
  -26.0603  -16.1388   19.8320 N   0  0  0  0  0  0  0  0  0  0  0  0
  -25.7452  -17.4267   20.0508 N   0  0  0  0  0  0  0  0  0  0  0  0
  -24.3885  -30.7957   22.5837 N   0  0  0  0  0  0  0  0  0  0  0  0
  -28.3631  -20.0672   19.1660 N   0  0  0  0  0  0  0  0  0  0  0  0
  -24.3513  -18.8363   21.3473 N   0  0  0  0  0  0  0  0  0  0  0  0
  -23.2537  -14.6925   22.7688 N   0  0  0  0  0  0  0  0  0  0  0  0
  -27.2977  -32.8403   22.2901 N   0  0  0  0  0  0  0  0  0  0  0  0
  -21.4805  -30.5711   24.3017 N   0  0  0  0  0  0  0  0  0  0  0  0
  -28.1946  -21.7363   20.8332 N   0  0  0  0  0  0  0  0  0  0  0  0
  -18.6406  -29.3673   22.4165 N   0  3  0  0  0  0  0  0  0  0  0  0
  -22.8076  -16.9274   23.0236 O   0  0  0  0  0  0  0  0  0  0  0  0
  -27.0053  -30.6270   22.9519 O   0  0  0  0  0  0  0  0  0  0  0  0
  -23.4510  -32.5786   23.7579 O   0  0  0  0  0  0  0  0  0  0  0  0
  -21.1140  -28.4632   23.4073 O   0  0  0  0  0  0  0  0  0  0  0  0
  -29.1876  -22.2071   18.8209 O   0  0  0  0  0  0  0  0  0  0  0  0
  -25.4321   -9.9005   20.9450 O   0  0  0  0  0  0  0  0  0  0  0  0
  -25.9134  -25.7130   19.4383 O   0  0  0  0  0  0  0  0  0  1  0  0
  -20.6294   -7.1956   21.0925 F   0  0  0  0  0  0  0  0  0  0  0  0
  -24.7717   -8.0745   18.9772 F   0  0  0  0  0  0  0  0  0  0  0  0
  1  2  1  0  0  0  0
  1  5  2  0  0  0  0
  2  6  2  0  0  0  0
  3  8  2  0  0  0  0
  3 16  1  0  0  0  0
  4  9  1  0  0  0  0
  4 16  2  0  0  0  0
  5 18  1  0  0  0  0
  6 20  1  0  0  0  0
  7 10  2  0  0  0  0
  7 19  1  0  0  0  0
  8 23  1  0  0  0  0
  9 23  2  0  0  0  0
 10 24  1  0  0  0  0
 11 12  2  0  0  0  0
 11 25  1  0  0  0  0
 12 26  1  0  0  0  0
 13 21  1  0  0  0  0
 13 24  2  0  0  0  0
 14 26  2  0  0  0  0
 14 27  1  0  0  0  0
 15 64  1  0  0  0  0
 15 65  2  0  0  0  0
 16 28  1  0  0  0  0
 17 28  1  0  0  0  0
 17 31  2  0  0  0  0
 17 32  1  0  0  0  0
 18 20  2  0  0  0  0
 18 37  1  0  0  0  0
 19 21  2  0  0  0  0
 19 38  1  0  0  0  0
 20 46  1  0  0  0  0
 21 39  1  0  0  0  0
 22 29  1  0  0  0  0
 22 30  2  0  0  0  0
 22 57  1  0  0  0  0
 23 81  1  0  0  0  0
 24 82  1  0  0  0  0
 25 27  2  0  0  0  0
 25 81  1  0  0  0  0
 26 83  1  0  0  0  0
 27 84  1  0  0  0  0
 28 66  2  0  0  0  0
 29 49  1  0  0  0  0
 29 64  2  0  0  0  0
 30 58  1  0  0  0  0
 30 65  1  0  0  0  0
 31 67  1  0  0  0  0
 31 70  1  0  0  0  0
 32 71  1  0  0  0  0
 32 76  2  0  0  0  0
 33 47  1  0  0  0  0
 33 72  1  0  0  0  0
 33 77  2  0  0  0  0
 34 60  1  0  0  0  0
 34 68  1  0  0  0  0
 34 78  2  0  0  0  0
 35 61  1  0  0  0  0
 35 73  1  0  0  0  0
 35 79  2  0  0  0  0
 36 69  1  0  0  0  0
 36 74  1  0  0  0  0
 36 80  2  0  0  0  0
 37 40  1  0  0  0  0
 38 47  1  0  0  0  0
 39 68  1  0  0  0  0
 40 42  1  0  0  0  0
 41 43  1  0  0  0  0
 41 44  1  0  0  0  0
 42 46  1  0  0  0  0
 43 48  1  0  0  0  0
 44 69  1  0  0  0  0
 45 48  1  0  0  0  0
 45 69  1  0  0  0  0
 46 72  1  0  0  0  0
 47 68  1  0  0  0  0
 48 67  1  0  0  0  0
 50 61  1  0  0  0  0
 51 62  1  0  0  0  0
 52 62  1  0  0  0  0
 53 62  1  0  0  0  0
 54 63  1  0  0  0  0
 55 63  1  0  0  0  0
 56 75  1  0  0  0  0
 57 63  1  0  0  0  0
 58 59  1  0  0  0  0
 59 74  1  0  0  0  0
 60 62  1  0  0  0  0
 60 73  1  0  0  0  0
 61 75  1  0  0  0  0
 63 82  1  0  0  0  0
 66 67  1  0  0  0  0
M  CHG  1  75   1
M  ISO  4  36 100  63 101  74 100  82 101
M  END
> <Batch ID>
0069

> <Smiles>
CNC(C)C(=O)NC(C(=O)N1Cc2cc([101O:1][101C:1](C)(C)Cc3c(C)ncnc3CC[100NH:0][100C:0](=O)N3CCCC(n4nc(-c5ccc(Oc6ccc(F)cc6F)cc5)c(C(N)=O)c4N)C3)ccc2CC1C(=O)NC1CCCc2ccccc21)C(C)(C)C

> <Shape>
0.221

> <Color>
0.089

> <Negative vol penalty>
0.000

$$$$

  -OEChem-04052318173D

 84 92  0     1  0  0  0  0  0999 V2000
  -37.5660  -26.5652   30.3204 C   0  0  0  0  0  0  0  0  0  0  0  0
  -36.3287  -25.9653   30.1086 C   0  0  0  0  0  0  0  0  0  0  0  0
  -23.0041   -9.8884   19.9831 C   0  0  0  0  0  0  0  0  0  0  0  0
  -23.7325   -9.9444   22.2860 C   0  0  0  0  0  0  0  0  0  0  0  0
  -38.0427  -27.5148   29.4177 C   0  0  0  0  0  0  0  0  0  0  0  0
  -35.5670  -26.3155   28.9943 C   0  0  0  0  0  0  0  0  0  0  0  0
  -33.5941  -22.2863   26.6454 C   0  0  0  0  0  0  0  0  0  0  0  0
  -30.8559  -18.4266   25.2798 C   0  0  0  0  0  0  0  0  0  0  0  0
  -22.2412   -8.7521   20.2520 C   0  0  0  0  0  0  0  0  0  0  0  0
  -22.9695   -8.8081   22.5550 C   0  0  0  0  0  0  0  0  0  0  0  0
  -32.4678  -21.7011   27.2225 C   0  0  0  0  0  0  0  0  0  0  0  0
  -23.2225   -5.4693   22.0871 C   0  0  0  0  0  0  0  0  0  0  0  0
  -23.8140   -4.4547   22.8397 C   0  0  0  0  0  0  0  0  0  0  0  0
  -31.2912  -17.9846   24.0354 C   0  0  0  0  0  0  0  0  0  0  0  0
  -31.0636  -22.8517   25.6339 C   0  0  0  0  0  0  0  0  0  0  0  0
  -22.0918   -4.6950   24.5171 C   0  0  0  0  0  0  0  0  0  0  0  0
  -23.7498  -10.4845   21.0001 C   0  0  0  0  0  0  0  0  0  0  0  0
  -24.1278  -13.0010   20.8202 C   0  0  0  0  0  0  0  0  0  0  0  0
  -37.2907  -27.8697   28.2866 C   0  0  0  0  0  0  0  0  0  0  0  0
  -33.4624  -23.1685   25.5634 C   0  0  0  0  0  0  0  0  0  0  0  0
  -36.0335  -27.2718   28.0763 C   0  0  0  0  0  0  0  0  0  0  0  0
  -32.1899  -23.4447   25.0433 C   0  0  0  0  0  0  0  0  0  0  0  0
  -29.5351  -18.2198   25.6618 C   0  0  0  0  0  0  0  0  0  0  0  0
  -22.2238   -8.2120   21.5379 C   0  0  0  0  0  0  0  0  0  0  0  0
  -31.2021  -21.9860   26.7186 C   0  0  0  0  0  0  0  0  0  0  0  0
  -22.0657   -6.0968   22.5495 C   0  0  0  0  0  0  0  0  0  0  0  0
  -23.2487   -4.0676   24.0547 C   0  0  0  0  0  0  0  0  0  0  0  0
  -21.5004   -5.7096   23.7645 C   0  0  0  0  0  0  0  0  0  0  0  0
  -24.5386  -11.6580   20.7228 C   0  0  0  0  0  0  0  0  0  0  0  0
  -30.3737  -17.3463   23.2165 C   0  0  0  0  0  0  0  0  0  0  0  0
  -28.6962  -17.5711   24.7700 C   0  0  0  0  0  0  0  0  0  0  0  0
  -25.2350  -13.7262   20.4532 C   0  0  0  0  0  0  0  0  0  0  0  0
  -22.8588  -13.5443   21.2078 C   0  0  0  0  0  0  0  0  0  0  0  0
  -34.1557  -26.2310   25.0691 C   0  0  0  0  0  0  0  0  0  0  0  0
  -33.2626  -25.5393   22.0283 C   0  0  0  0  0  0  0  0  0  0  0  0
  -31.4708  -23.5438   19.9178 C   0  0  0  0  0  0  0  0  0  0  0  0
  -30.7290  -14.6766   20.6927 C   0  0  0  0  0  0  0  0  0  0  0  0
  -37.8264  -28.9359   27.3641 C   0  0  0  0  0  0  0  0  0  0  0  0
  -34.6893  -23.7706   24.9352 C   0  0  0  0  0  0  0  0  0  0  0  0
  -31.9962  -24.3693   23.8702 C   0  0  0  0  0  0  0  0  0  0  0  0
  -37.1254  -28.9768   26.0086 C   0  0  0  0  0  0  0  0  0  0  0  0
  -29.5919  -12.2466   18.3520 C   0  0  0  0  0  0  0  0  0  0  0  0
  -35.6119  -28.9159   26.1883 C   0  0  0  0  0  0  0  0  0  0  0  0
  -28.1447  -11.9834   18.7721 C   0  0  0  0  0  0  0  0  0  0  0  0
  -30.4953  -12.4862   19.5597 C   0  0  0  0  0  0  0  0  0  0  0  0
  -28.5849  -13.2781   20.9001 C   0  0  0  0  0  0  0  0  0  0  0  0
  -35.1890  -27.6071   26.8662 C   0  0  1  0  0  0  0  0  0  0  0  0
  -34.3973  -25.0551   24.1655 C   0  0  1  0  0  0  0  0  0  0  0  0
  -27.6247  -13.0861   19.7137 C   0  0  2  0  0  0  0  0  0  0  0  0
  -26.5992  -16.3312   24.1766 C   0  0  0  0  0  0  0  0  0  0  0  0
  -30.6328  -17.9111   20.7721 C   0  0  0  0  0  0  0  0  0  0  0  0
  -30.6282  -22.6189   17.7425 C   0  0  0  0  0  0  0  0  0  0  0  0
  -31.3277  -27.8927   22.1942 C   0  0  0  0  0  0  0  0  0  0  0  0
  -30.1557  -26.9813   20.1783 C   0  0  0  0  0  0  0  0  0  0  0  0
  -32.5415  -27.6916   20.0169 C   0  0  0  0  0  0  0  0  0  0  0  0
  -33.7182  -21.6274   19.7287 C   0  0  0  0  0  0  0  0  0  0  0  0
  -29.0568  -18.6980   27.0095 C   0  0  0  0  0  0  0  0  0  0  0  0
  -27.2682  -17.3187   25.1279 C   0  0  0  0  0  0  0  0  0  0  0  0
  -28.2138  -19.9735   26.9468 C   0  0  0  0  0  0  0  0  0  0  0  0
  -28.9837  -21.1810   26.4247 C   0  0  0  0  0  0  0  0  0  1  0  0
  -30.8073  -16.8573   21.8749 C   0  0  2  0  0  0  0  0  0  0  0  0
  -31.9617  -25.5696   21.2630 C   0  0  1  0  0  0  0  0  0  0  0  0
  -31.8487  -22.8564   18.6181 C   0  0  2  0  0  0  0  0  0  0  0  0
  -31.4998  -27.0178   20.9365 C   0  0  0  0  0  0  0  0  0  0  0  0
  -25.8077  -11.5346   20.3249 N   0  0  0  0  0  0  0  0  0  0  0  0
  -29.0828  -17.1274   23.5530 N   0  0  0  0  0  0  0  0  0  0  0  0
  -26.2038  -12.8093   20.1691 N   0  0  0  0  0  0  0  0  0  0  0  0
  -33.2260  -24.9382   23.2944 N   0  0  0  0  0  0  0  0  0  0  0  0
  -29.9468  -13.5445   20.4112 N   0  0  0  0  0  0  0  0  0  0  0  0
  -25.4646  -15.0524   20.3491 N   0  0  0  0  0  0  0  0  0  0  0  0
  -21.8300  -12.6577   21.5540 N   0  0  0  0  0  0  0  0  0  0  0  0
  -35.2100  -26.5159   25.9157 N   0  0  0  0  0  0  0  0  0  0  0  0
  -32.1590  -24.7263   20.0890 N   0  0  0  0  0  0  0  0  0  0  0  0
  -30.1311  -15.6348   21.5021 N   0  0  0  0  0  0  0  0  0  0  0  0
  -32.4911  -21.5407   18.8958 N   0  3  0  0  0  0  0  0  0  0  0  0
  -22.6387  -14.7790   21.2302 O   0  0  0  0  0  0  0  0  0  0  0  0
  -33.0921  -26.8360   25.0020 O   0  0  0  0  0  0  0  0  0  0  0  0
  -34.2756  -26.0246   21.5184 O   0  0  0  0  0  0  0  0  0  0  0  0
  -30.6449  -23.0801   20.7009 O   0  0  0  0  0  0  0  0  0  0  0  0
  -31.8734  -14.8252   20.2508 O   0  0  0  0  0  0  0  0  0  0  0  0
  -21.4793   -7.1033   21.8008 O   0  0  0  0  0  0  0  0  0  0  0  0
  -30.1011  -21.4168   27.2804 O   0  0  0  0  0  0  0  0  0  1  0  0
  -23.8159   -3.0922   24.7766 F   0  0  0  0  0  0  0  0  0  0  0  0
  -20.3884   -6.3079   24.2133 F   0  0  0  0  0  0  0  0  0  0  0  0
  1  2  1  0  0  0  0
  1  5  2  0  0  0  0
  2  6  2  0  0  0  0
  3  9  2  0  0  0  0
  3 17  1  0  0  0  0
  4 10  1  0  0  0  0
  4 17  2  0  0  0  0
  5 19  1  0  0  0  0
  6 21  1  0  0  0  0
  7 11  2  0  0  0  0
  7 20  1  0  0  0  0
  8 14  2  0  0  0  0
  8 23  1  0  0  0  0
  9 24  1  0  0  0  0
 10 24  2  0  0  0  0
 11 25  1  0  0  0  0
 12 13  2  0  0  0  0
 12 26  1  0  0  0  0
 13 27  1  0  0  0  0
 14 30  1  0  0  0  0
 15 22  1  0  0  0  0
 15 25  2  0  0  0  0
 16 27  2  0  0  0  0
 16 28  1  0  0  0  0
 17 29  1  0  0  0  0
 18 29  1  0  0  0  0
 18 32  2  0  0  0  0
 18 33  1  0  0  0  0
 19 21  2  0  0  0  0
 19 38  1  0  0  0  0
 20 22  2  0  0  0  0
 20 39  1  0  0  0  0
 21 47  1  0  0  0  0
 22 40  1  0  0  0  0
 23 31  2  0  0  0  0
 23 57  1  0  0  0  0
 24 81  1  0  0  0  0
 25 82  1  0  0  0  0
 26 28  2  0  0  0  0
 26 81  1  0  0  0  0
 27 83  1  0  0  0  0
 28 84  1  0  0  0  0
 29 65  2  0  0  0  0
 30 61  1  0  0  0  0
 30 66  2  0  0  0  0
 31 58  1  0  0  0  0
 31 66  1  0  0  0  0
 32 67  1  0  0  0  0
 32 70  1  0  0  0  0
 33 71  1  0  0  0  0
 33 76  2  0  0  0  0
 34 48  1  0  0  0  0
 34 72  1  0  0  0  0
 34 77  2  0  0  0  0
 35 62  1  0  0  0  0
 35 68  1  0  0  0  0
 35 78  2  0  0  0  0
 36 63  1  0  0  0  0
 36 73  1  0  0  0  0
 36 79  2  0  0  0  0
 37 69  1  0  0  0  0
 37 74  1  0  0  0  0
 37 80  2  0  0  0  0
 38 41  1  0  0  0  0
 39 48  1  0  0  0  0
 40 68  1  0  0  0  0
 41 43  1  0  0  0  0
 42 44  1  0  0  0  0
 42 45  1  0  0  0  0
 43 47  1  0  0  0  0
 44 49  1  0  0  0  0
 45 69  1  0  0  0  0
 46 49  1  0  0  0  0
 46 69  1  0  0  0  0
 47 72  1  0  0  0  0
 48 68  1  0  0  0  0
 49 67  1  0  0  0  0
 50 58  1  0  0  0  0
 51 61  1  0  0  0  0
 52 63  1  0  0  0  0
 53 64  1  0  0  0  0
 54 64  1  0  0  0  0
 55 64  1  0  0  0  0
 56 75  1  0  0  0  0
 57 59  1  0  0  0  0
 59 60  1  0  0  0  0
 60 82  1  0  0  0  0
 61 74  1  0  0  0  0
 62 64  1  0  0  0  0
 62 73  1  0  0  0  0
 63 75  1  0  0  0  0
 65 67  1  0  0  0  0
M  CHG  1  75   1
M  ISO  4  37 100  60 101  74 100  82 101
M  END
> <Batch ID>
0069

> <Smiles>
CCc1nc(C(C)[100NH:0][100C:0](=O)N2CCCC(n3nc(-c4ccc(Oc5ccc(F)cc5F)cc4)c(C(N)=O)c3N)C2)ccc1CC[101CH2:1][101O:1]c1ccc2c(c1)CN(C(=O)C(NC(=O)C(C)NC)C(C)(C)C)C(C(=O)NC1CCCc3ccccc31)C2

> <Shape>
0.210

> <Color>
0.197

> <Negative vol penalty>
0.000

$$$$

  -OEChem-04052318173D

 89 97  0     1  0  0  0  0  0999 V2000
  -29.6325  -12.0660   20.1657 C   0  0  0  0  0  0  0  0  0  0  0  0
  -29.6325  -13.2920   20.8232 C   0  0  0  0  0  0  0  0  0  0  0  0
  -29.2638  -23.8153   21.2839 C   0  0  0  0  0  0  0  0  0  0  0  0
  -29.5870  -24.1064   18.9074 C   0  0  0  0  0  0  0  0  0  0  0  0
  -28.7006  -11.8161   19.1592 C   0  0  0  0  0  0  0  0  0  0  0  0
  -28.7013  -14.2693   20.4738 C   0  0  0  0  0  0  0  0  0  0  0  0
  -24.8654  -19.6015   23.3320 C   0  0  0  0  0  0  0  0  0  0  0  0
  -29.1844  -22.4344   21.1040 C   0  0  0  0  0  0  0  0  0  0  0  0
  -29.5077  -22.7255   18.7275 C   0  0  0  0  0  0  0  0  0  0  0  0
  -24.5927  -20.9552   23.1399 C   0  0  0  0  0  0  0  0  0  0  0  0
  -31.3209  -19.8581   20.6236 C   0  0  0  0  0  0  0  0  0  0  0  0
  -32.0328  -19.0472   21.5074 C   0  0  0  0  0  0  0  0  0  0  0  0
  -22.9793  -20.3829   21.4404 C   0  0  0  0  0  0  0  0  0  0  0  0
  -29.9722  -17.9936   22.2008 C   0  0  0  0  0  0  0  0  0  0  0  0
  -21.5503  -27.8036   21.4034 C   0  0  0  0  0  0  0  0  0  0  0  0
  -29.4651  -24.6513   20.1856 C   0  0  0  0  0  0  0  0  0  0  0  0
  -30.7050  -26.8378   20.6212 C   0  0  0  0  0  0  0  0  0  0  0  0
  -27.7512  -12.7873   18.8039 C   0  0  0  0  0  0  0  0  0  0  0  0
  -24.2039  -18.6272   22.5707 C   0  0  0  0  0  0  0  0  0  0  0  0
  -27.7567  -14.0326   19.4607 C   0  0  0  0  0  0  0  0  0  0  0  0
  -23.2436  -19.0174   21.6265 C   0  0  0  0  0  0  0  0  0  0  0  0
  -29.3063  -21.8895   19.8258 C   0  0  0  0  0  0  0  0  0  0  0  0
  -23.6516  -21.3462   22.1920 C   0  0  0  0  0  0  0  0  0  0  0  0
  -29.9345  -19.7368   20.5284 C   0  0  0  0  0  0  0  0  0  0  0  0
  -31.3585  -18.1150   22.2960 C   0  0  0  0  0  0  0  0  0  0  0  0
  -29.2602  -18.8046   21.3170 C   0  0  0  0  0  0  0  0  0  0  0  0
  -29.5466  -26.0779   20.3707 C   0  0  0  0  0  0  0  0  0  0  0  0
  -22.3496  -26.8614   21.9868 C   0  0  0  0  0  0  0  0  0  0  0  0
  -30.2530  -28.1312   20.7172 C   0  0  0  0  0  0  0  0  0  0  0  0
  -22.3883  -28.6727   23.2589 C   0  0  0  0  0  0  0  0  0  0  0  0
  -32.0677  -26.4125   20.7549 C   0  0  0  0  0  0  0  0  0  0  0  0
  -25.1171  -16.4047   20.4898 C   0  0  0  0  0  0  0  0  0  0  0  0
  -21.9936  -15.5416   20.6339 C   0  0  0  0  0  0  0  0  0  0  0  0
  -18.7673  -16.4387   21.2923 C   0  0  0  0  0  0  0  0  0  0  0  0
  -24.7666  -30.3356   22.1146 C   0  0  0  0  0  0  0  0  0  0  0  0
  -26.7941  -12.4888   17.6772 C   0  0  0  0  0  0  0  0  0  0  0  0
  -24.4900  -17.1698   22.8087 C   0  0  0  0  0  0  0  0  0  0  0  0
  -22.4912  -18.0096   20.7977 C   0  0  0  0  0  0  0  0  0  0  0  0
  -25.6004  -13.4388   17.6243 C   0  0  0  0  0  0  0  0  0  0  0  0
  -26.7849  -31.0254   19.1884 C   0  0  0  0  0  0  0  0  0  0  0  0
  -26.0620  -14.8850   17.7733 C   0  0  0  0  0  0  0  0  0  0  0  0
  -27.7870  -29.8753   19.1477 C   0  0  0  0  0  0  0  0  0  0  0  0
  -25.4415  -30.5666   19.7425 C   0  0  0  0  0  0  0  0  0  0  0  0
  -26.5502  -28.8017   21.0902 C   0  0  0  0  0  0  0  0  0  0  0  0
  -26.7465  -15.1089   19.1271 C   0  0  1  0  0  0  0  0  0  0  0  0
  -24.1304  -16.2879   21.6169 C   0  0  1  0  0  0  0  0  0  0  0  0
  -27.9217  -29.2272   20.5337 C   0  0  1  0  0  0  0  0  0  0  0  0
  -16.4288  -15.5285   21.2838 C   0  0  0  0  0  0  0  0  0  0  0  0
  -21.9486  -31.0176   24.1630 C   0  0  0  0  0  0  0  0  0  0  0  0
  -22.0961  -29.1648   25.7519 C   0  0  0  0  0  0  0  0  0  0  0  0
  -21.9226  -15.7589   17.5912 C   0  0  0  0  0  0  0  0  0  0  0  0
  -19.4225  -15.7834   17.7209 C   0  0  0  0  0  0  0  0  0  0  0  0
  -20.6920  -13.7925   18.5256 C   0  0  0  0  0  0  0  0  0  0  0  0
  -23.7567  -26.7787   24.0673 C   0  0  0  0  0  0  0  0  0  0  0  0
  -18.4519  -16.9034   24.1980 C   0  0  0  0  0  0  0  0  0  0  0  0
  -22.6736  -25.4938   21.5632 C   0  0  0  0  0  0  0  0  0  0  0  0
  -21.7207  -24.3987   22.0970 C   0  0  0  0  0  0  0  0  0  0  0  0
  -22.0666  -23.0088   21.5757 C   0  0  0  0  0  0  0  0  0  1  0  0
  -20.7425  -15.9259   19.8815 C   0  0  1  0  0  0  0  0  0  0  0  0
  -17.6819  -15.7651   22.1123 C   0  0  2  0  0  0  0  0  0  0  0  0
  -22.6989  -29.6711   24.3999 C   0  0  0  0  0  0  0  0  0  0  0  0
  -20.7103  -15.3345   18.4439 C   0  0  0  0  0  0  0  0  0  0  0  0
  -24.2648  -29.9134   24.5908 C   0  0  2  0  0  0  0  0  0  0  0  0
  -24.6640  -31.2999   25.1161 C   0  0  0  0  0  0  0  0  0  0  0  0
  -28.4418  -26.8262   20.3116 N   0  0  0  0  0  0  0  0  0  0  0  0
  -22.8554  -27.4263   23.1327 N   0  0  0  0  0  0  0  0  0  0  0  0
  -28.9039  -28.0698   20.5263 N   0  0  0  0  0  0  0  0  0  0  0  0
  -21.5926  -28.9138   22.2119 N   0  3  0  0  0  0  0  0  0  0  0  0
  -22.8107  -16.5971   21.0628 N   0  0  0  0  0  0  0  0  0  0  0  0
  -25.5830  -29.9122   21.0462 N   0  0  0  0  0  0  0  0  0  0  0  0
  -30.8818  -29.3037   20.9457 N   0  0  0  0  0  0  0  0  0  0  0  0
  -32.3570  -25.0471   20.6277 N   0  0  0  0  0  0  0  0  0  0  0  0
  -25.7598  -15.2213   20.1798 N   0  0  0  0  0  0  0  0  0  0  0  0
  -19.6204  -15.5187   20.7203 N   0  0  0  0  0  0  0  0  0  0  0  0
  -24.9762  -29.6639   23.3156 N   0  0  0  0  0  0  0  0  0  0  0  0
  -17.3178  -16.6109   23.2841 N   0  3  0  0  0  0  0  0  0  0  0  0
  -32.9988  -27.2175   20.9967 O   0  0  0  0  0  0  0  0  0  0  0  0
  -25.2821  -17.4879   19.9410 O   0  0  0  0  0  0  0  0  0  0  0  0
  -22.2332  -14.3492   20.8398 O   0  0  0  0  0  0  0  0  0  0  0  0
  -18.8480  -17.6588   21.1682 O   0  0  0  0  0  0  0  0  0  0  0  0
  -23.9338  -31.2390   21.9961 O   0  0  0  0  0  0  0  0  0  0  0  0
  -24.7174  -28.9513   25.5565 O   0  0  0  0  0  0  0  0  0  0  0  0
  -29.2291  -20.5420   19.6499 O   0  0  0  0  0  0  0  0  0  0  0  0
  -23.3821  -22.6762   22.0007 O   0  0  0  0  0  0  0  0  0  1  0  0
  -32.0426  -17.3353   23.1435 F   0  0  0  0  0  0  0  0  0  0  0  0
  -27.9286  -18.6826   21.2291 F   0  0  0  0  0  0  0  0  0  0  0  0
  -24.1242  -31.5557   26.3276 F   0  0  0  0  0  0  0  0  0  0  0  0
  -24.2359  -32.2795   24.2845 F   0  0  0  0  0  0  0  0  0  0  0  0
  -26.0009  -31.4440   25.2226 F   0  0  0  0  0  0  0  0  0  0  0  0
  1  2  1  0  0  0  0
  1  5  2  0  0  0  0
  2  6  2  0  0  0  0
  3  8  2  0  0  0  0
  3 16  1  0  0  0  0
  4  9  1  0  0  0  0
  4 16  2  0  0  0  0
  5 18  1  0  0  0  0
  6 20  1  0  0  0  0
  7 10  2  0  0  0  0
  7 19  1  0  0  0  0
  8 22  1  0  0  0  0
  9 22  2  0  0  0  0
 10 23  1  0  0  0  0
 11 12  2  0  0  0  0
 11 24  1  0  0  0  0
 12 25  1  0  0  0  0
 13 21  1  0  0  0  0
 13 23  2  0  0  0  0
 14 25  2  0  0  0  0
 14 26  1  0  0  0  0
 15 28  2  0  0  0  0
 15 68  1  0  0  0  0
 16 27  1  0  0  0  0
 17 27  1  0  0  0  0
 17 29  2  0  0  0  0
 17 31  1  0  0  0  0
 18 20  2  0  0  0  0
 18 36  1  0  0  0  0
 19 21  2  0  0  0  0
 19 37  1  0  0  0  0
 20 45  1  0  0  0  0
 21 38  1  0  0  0  0
 22 83  1  0  0  0  0
 23 84  1  0  0  0  0
 24 26  2  0  0  0  0
 24 83  1  0  0  0  0
 25 85  1  0  0  0  0
 26 86  1  0  0  0  0
 27 65  2  0  0  0  0
 28 56  1  0  0  0  0
 28 66  1  0  0  0  0
 29 67  1  0  0  0  0
 29 71  1  0  0  0  0
 30 61  1  0  0  0  0
 30 66  1  0  0  0  0
 30 68  2  0  0  0  0
 31 72  1  0  0  0  0
 31 77  2  0  0  0  0
 32 46  1  0  0  0  0
 32 73  1  0  0  0  0
 32 78  2  0  0  0  0
 33 59  1  0  0  0  0
 33 69  1  0  0  0  0
 33 79  2  0  0  0  0
 34 60  1  0  0  0  0
 34 74  1  0  0  0  0
 34 80  2  0  0  0  0
 35 70  1  0  0  0  0
 35 75  1  0  0  0  0
 35 81  2  0  0  0  0
 36 39  1  0  0  0  0
 37 46  1  0  0  0  0
 38 69  1  0  0  0  0
 39 41  1  0  0  0  0
 40 42  1  0  0  0  0
 40 43  1  0  0  0  0
 41 45  1  0  0  0  0
 42 47  1  0  0  0  0
 43 70  1  0  0  0  0
 44 47  1  0  0  0  0
 44 70  1  0  0  0  0
 45 73  1  0  0  0  0
 46 69  1  0  0  0  0
 47 67  1  0  0  0  0
 48 60  1  0  0  0  0
 49 61  1  0  0  0  0
 50 61  1  0  0  0  0
 51 62  1  0  0  0  0
 52 62  1  0  0  0  0
 53 62  1  0  0  0  0
 54 66  1  0  0  0  0
 55 76  1  0  0  0  0
 56 57  1  0  0  0  0
 57 58  1  0  0  0  0
 58 84  1  0  0  0  0
 59 62  1  0  0  0  0
 59 74  1  0  0  0  0
 60 76  1  0  0  0  0
 61 63  1  0  0  0  0
 63 64  1  0  0  0  0
 63 75  1  0  0  0  0
 63 82  1  0  0  0  0
 64 87  1  0  0  0  0
 64 88  1  0  0  0  0
 64 89  1  0  0  0  0
 65 67  1  0  0  0  0
M  CHG  2  68   1  76   1
M  ISO  4  35 100  58 101  75 100  84 101
M  END
> <Batch ID>
0069

> <Smiles>
CNC(C)C(=O)NC(C(=O)N1Cc2cc([101O:1][101CH2:1]CCc3cnc(C(C)(C)C(O)([100NH:0][100C:0](=O)N4CCCC(n5nc(-c6ccc(Oc7ccc(F)cc7F)cc6)c(C(N)=O)c5N)C4)C(F)(F)F)n3C)ccc2CC1C(=O)NC1CCCc2ccccc21)C(C)(C)C

> <Shape>
0.244

> <Color>
0.096

> <Negative vol penalty>
0.000

$$$$

  -OEChem-04052318173D

 91 99  0     1  0  0  0  0  0999 V2000
  -19.6522  -28.5358   26.2773 C   0  0  0  0  0  0  0  0  0  0  0  0
  -20.0476  -27.2172   26.4783 C   0  0  0  0  0  0  0  0  0  0  0  0
  -23.4443   -9.7014   19.9470 C   0  0  0  0  0  0  0  0  0  0  0  0
  -23.6516  -10.0436   22.3296 C   0  0  0  0  0  0  0  0  0  0  0  0
  -19.4208  -29.0036   24.9844 C   0  0  0  0  0  0  0  0  0  0  0  0
  -20.2108  -26.3653   25.3866 C   0  0  0  0  0  0  0  0  0  0  0  0
  -24.3496  -21.8901   24.7955 C   0  0  0  0  0  0  0  0  0  0  0  0
  -22.7562   -8.5103   20.1778 C   0  0  0  0  0  0  0  0  0  0  0  0
  -22.9634   -8.8524   22.5605 C   0  0  0  0  0  0  0  0  0  0  0  0
  -24.2728  -20.5107   24.9830 C   0  0  0  0  0  0  0  0  0  0  0  0
  -19.6250   -7.5693   21.0396 C   0  0  0  0  0  0  0  0  0  0  0  0
  -18.4732   -7.3303   20.2901 C   0  0  0  0  0  0  0  0  0  0  0  0
  -23.8861  -20.2173   22.6200 C   0  0  0  0  0  0  0  0  0  0  0  0
  -19.4743   -5.3236   19.3913 C   0  0  0  0  0  0  0  0  0  0  0  0
  -30.6757  -16.8975   25.3987 C   0  0  0  0  0  0  0  0  0  0  0  0
  -23.8921  -10.4680   21.0228 C   0  0  0  0  0  0  0  0  0  0  0  0
  -24.0520  -12.9863   20.6482 C   0  0  0  0  0  0  0  0  0  0  0  0
  -19.5907  -28.1596   23.8755 C   0  0  0  0  0  0  0  0  0  0  0  0
  -24.1841  -22.4452   23.5184 C   0  0  0  0  0  0  0  0  0  0  0  0
  -19.9803  -26.8218   24.0777 C   0  0  0  0  0  0  0  0  0  0  0  0
  -23.9638  -21.6038   22.4186 C   0  0  0  0  0  0  0  0  0  0  0  0
  -22.5157   -8.0858   21.4846 C   0  0  0  0  0  0  0  0  0  0  0  0
  -24.0382  -19.6743   23.8956 C   0  0  0  0  0  0  0  0  0  0  0  0
  -20.7016   -6.6854   20.9650 C   0  0  0  0  0  0  0  0  0  0  0  0
  -18.3978   -6.2074   19.4660 C   0  0  0  0  0  0  0  0  0  0  0  0
  -20.6262   -5.5626   20.1408 C   0  0  0  0  0  0  0  0  0  0  0  0
  -24.6034  -11.6982   20.7850 C   0  0  0  0  0  0  0  0  0  0  0  0
  -29.9129  -15.8132   25.0247 C   0  0  0  0  0  0  0  0  0  0  0  0
  -29.1642  -18.3014   24.4119 C   0  0  0  0  0  0  0  0  0  0  0  0
  -28.4017  -17.2171   24.0371 C   0  0  0  0  0  0  0  0  0  0  0  0
  -25.1359  -13.8032   20.4374 C   0  0  0  0  0  0  0  0  0  0  0  0
  -22.6825  -13.4068   20.7064 C   0  0  0  0  0  0  0  0  0  0  0  0
  -22.1040  -24.4535   22.1979 C   0  0  0  0  0  0  0  0  0  0  0  0
  -24.1100  -24.2460   19.6572 C   0  0  0  0  0  0  0  0  0  0  0  0
  -26.4841  -22.4592   17.9786 C   0  0  0  0  0  0  0  0  0  0  0  0
  -30.9299  -13.3423   21.8757 C   0  0  0  0  0  0  0  0  0  0  0  0
  -19.2830  -28.6971   22.5003 C   0  0  0  0  0  0  0  0  0  0  0  0
  -24.2963  -23.9331   23.3288 C   0  0  0  0  0  0  0  0  0  0  0  0
  -23.7993  -22.1482   21.0240 C   0  0  0  0  0  0  0  0  0  0  0  0
  -19.8413  -27.8354   21.3707 C   0  0  0  0  0  0  0  0  0  0  0  0
  -29.5598  -13.7592   18.6160 C   0  0  0  0  0  0  0  0  0  0  0  0
  -19.5340  -26.3624   21.6210 C   0  0  0  0  0  0  0  0  0  0  0  0
  -28.0845  -13.3945   18.7899 C   0  0  0  0  0  0  0  0  0  0  0  0
  -30.4630  -12.8876   19.4858 C   0  0  0  0  0  0  0  0  0  0  0  0
  -28.6338  -12.4999   21.0913 C   0  0  0  0  0  0  0  0  0  0  0  0
  -20.1921  -25.8741   22.9171 C   0  0  1  0  0  0  0  0  0  0  0  0
  -23.6005  -24.4285   22.0648 C   0  0  1  0  0  0  0  0  0  0  0  0
  -27.6796  -13.3895   20.2763 C   0  0  2  0  0  0  0  0  0  0  0  0
  -28.7541  -19.6941   24.0740 C   0  0  0  0  0  0  0  0  0  0  0  0
  -27.4312  -17.4859   21.7620 C   0  0  0  0  0  0  0  0  0  0  0  0
  -27.9081  -22.5289   15.9135 C   0  0  0  0  0  0  0  0  0  0  0  0
  -21.6848  -23.4998   17.9625 C   0  0  0  0  0  0  0  0  0  0  0  0
  -23.2585  -22.6724   16.1998 C   0  0  0  0  0  0  0  0  0  0  0  0
  -23.2819  -25.0777   16.8606 C   0  0  0  0  0  0  0  0  0  0  0  0
  -23.9431  -15.4560   24.5580 C   0  0  0  0  0  0  0  0  0  0  0  0
  -25.9361  -15.7554   26.0137 C   0  0  0  0  0  0  0  0  0  0  0  0
  -28.9846  -22.4212   19.5612 C   0  0  0  0  0  0  0  0  0  0  0  0
  -30.3421  -14.4313   25.3739 C   0  0  0  0  0  0  0  0  0  0  0  0
  -26.0510  -16.2801   23.4974 C   0  0  0  0  0  0  0  0  0  0  0  0
  -24.7304  -17.7705   25.1416 C   0  0  0  0  0  0  0  0  0  1  0  0
  -27.1084  -17.3893   23.2626 C   0  0  1  0  0  0  0  0  0  0  0  0
  -24.2158  -23.3468   18.4492 C   0  0  1  0  0  0  0  0  0  0  0  0
  -27.8248  -22.8657   17.3941 C   0  0  2  0  0  0  0  0  0  0  0  0
  -31.2403  -13.7661   24.3012 C   0  0  1  0  0  0  0  0  0  0  0  0
  -23.1114  -23.6388   17.3945 C   0  0  0  0  0  0  0  0  0  0  0  0
  -25.1920  -16.3378   24.8000 C   0  0  0  0  0  0  0  0  0  0  0  0
  -32.0236  -12.5572   24.8203 C   0  0  0  0  0  0  0  0  0  0  0  0
  -30.3151  -18.1611   25.0991 N   0  0  0  0  0  0  0  0  0  0  0  0
  -25.9342  -11.6922   20.6706 N   0  0  0  0  0  0  0  0  0  0  0  0
  -28.7622  -15.9536   24.3371 N   0  0  0  0  0  0  0  0  0  0  0  0
  -26.2280  -12.9865   20.4596 N   0  0  0  0  0  0  0  0  0  0  0  0
  -23.9111  -23.6102   20.8909 N   0  0  0  0  0  0  0  0  0  0  0  0
  -30.0262  -12.9278   20.8835 N   0  0  0  0  0  0  0  0  0  0  0  0
  -25.2518  -15.1331   20.2371 N   0  0  0  0  0  0  0  0  0  0  0  0
  -21.6951  -12.4378   20.9307 N   0  0  0  0  0  0  0  0  0  0  0  0
  -21.6043  -25.6364   22.7084 N   0  0  0  0  0  0  0  0  0  0  0  0
  -25.5770  -23.4972   17.9463 N   0  0  0  0  0  0  0  0  0  0  0  0
  -30.4331  -13.3574   23.1733 N   0  0  0  0  0  0  0  0  0  0  0  0
  -28.9324  -22.1610   18.0995 N   0  3  0  0  0  0  0  0  0  0  0  0
  -22.3431  -14.6038   20.5475 O   0  0  0  0  0  0  0  0  0  0  0  0
  -21.4510  -23.4728   21.8610 O   0  0  0  0  0  0  0  0  0  0  0  0
  -24.2076  -25.4671   19.5124 O   0  0  0  0  0  0  0  0  0  0  0  0
  -26.2623  -21.3323   18.4162 O   0  0  0  0  0  0  0  0  0  0  0  0
  -32.0916  -13.6793   21.6232 O   0  0  0  0  0  0  0  0  0  0  0  0
  -21.8441   -6.9237   21.7103 O   0  0  0  0  0  0  0  0  0  0  0  0
  -23.9621  -18.3276   24.0759 O   0  0  0  0  0  0  0  0  0  1  0  0
  -17.2910   -5.9772   18.7475 F   0  0  0  0  0  0  0  0  0  0  0  0
  -21.6568   -4.7093   20.0659 F   0  0  0  0  0  0  0  0  0  0  0  0
  -31.1694  -11.6319   25.3275 F   0  0  0  0  0  0  0  0  0  0  0  0
  -32.6721  -11.9602   23.7852 F   0  0  0  0  0  0  0  0  0  0  0  0
  -33.2224  -12.9910   26.0551 Cl  0  0  0  0  0  0  0  0  0  0  0  0
  1  2  1  0  0  0  0
  1  5  2  0  0  0  0
  2  6  2  0  0  0  0
  3  8  2  0  0  0  0
  3 16  1  0  0  0  0
  4  9  1  0  0  0  0
  4 16  2  0  0  0  0
  5 18  1  0  0  0  0
  6 20  1  0  0  0  0
  7 10  2  0  0  0  0
  7 19  1  0  0  0  0
  8 22  1  0  0  0  0
  9 22  2  0  0  0  0
 10 23  1  0  0  0  0
 11 12  2  0  0  0  0
 11 24  1  0  0  0  0
 12 25  1  0  0  0  0
 13 21  1  0  0  0  0
 13 23  2  0  0  0  0
 14 25  2  0  0  0  0
 14 26  1  0  0  0  0
 15 28  1  0  0  0  0
 15 68  2  0  0  0  0
 16 27  1  0  0  0  0
 17 27  1  0  0  0  0
 17 31  2  0  0  0  0
 17 32  1  0  0  0  0
 18 20  2  0  0  0  0
 18 37  1  0  0  0  0
 19 21  2  0  0  0  0
 19 38  1  0  0  0  0
 20 46  1  0  0  0  0
 21 39  1  0  0  0  0
 22 85  1  0  0  0  0
 23 86  1  0  0  0  0
 24 26  2  0  0  0  0
 24 85  1  0  0  0  0
 25 87  1  0  0  0  0
 26 88  1  0  0  0  0
 27 69  2  0  0  0  0
 28 58  1  0  0  0  0
 28 70  2  0  0  0  0
 29 30  2  0  0  0  0
 29 49  1  0  0  0  0
 29 68  1  0  0  0  0
 30 61  1  0  0  0  0
 30 70  1  0  0  0  0
 31 71  1  0  0  0  0
 31 74  1  0  0  0  0
 32 75  1  0  0  0  0
 32 80  2  0  0  0  0
 33 47  1  0  0  0  0
 33 76  1  0  0  0  0
 33 81  2  0  0  0  0
 34 62  1  0  0  0  0
 34 72  1  0  0  0  0
 34 82  2  0  0  0  0
 35 63  1  0  0  0  0
 35 77  1  0  0  0  0
 35 83  2  0  0  0  0
 36 73  1  0  0  0  0
 36 78  1  0  0  0  0
 36 84  2  0  0  0  0
 37 40  1  0  0  0  0
 38 47  1  0  0  0  0
 39 72  1  0  0  0  0
 40 42  1  0  0  0  0
 41 43  1  0  0  0  0
 41 44  1  0  0  0  0
 42 46  1  0  0  0  0
 43 48  1  0  0  0  0
 44 73  1  0  0  0  0
 45 48  1  0  0  0  0
 45 73  1  0  0  0  0
 46 76  1  0  0  0  0
 47 72  1  0  0  0  0
 48 71  1  0  0  0  0
 50 61  1  0  0  0  0
 51 63  1  0  0  0  0
 52 65  1  0  0  0  0
 53 65  1  0  0  0  0
 54 65  1  0  0  0  0
 55 66  1  0  0  0  0
 56 66  1  0  0  0  0
 57 79  1  0  0  0  0
 58 64  1  0  0  0  0
 59 61  1  0  0  0  0
 59 66  1  0  0  0  0
 60 66  1  0  0  0  0
 60 86  1  0  0  0  0
 62 65  1  0  0  0  0
 62 77  1  0  0  0  0
 63 79  1  0  0  0  0
 64 67  1  0  0  0  0
 64 78  1  0  0  0  0
 67 89  1  0  0  0  0
 67 90  1  0  0  0  0
 67 91  1  0  0  0  0
 69 71  1  0  0  0  0
M  CHG  1  79   1
M  ISO  4  36 100  60 101  78 100  86 101
M  END
> <Batch ID>
0069

> <Smiles>
CNC(C)C(=O)NC(C(=O)N1Cc2cc([101O:1][101CH2:1]C(C)(C)CC(C)c3nc(CC([100NH:0][100C:0](=O)N4CCCC(n5nc(-c6ccc(Oc7ccc(F)cc7F)cc6)c(C(N)=O)c5N)C4)C(F)(F)Cl)cnc3C)ccc2CC1C(=O)NC1CCCc2ccccc21)C(C)(C)C

> <Shape>
0.168

> <Color>
0.174

> <Negative vol penalty>
0.000

$$$$

  -OEChem-04052318173D

 86 94  0     1  0  0  0  0  0999 V2000
  -22.3661   -8.4012   20.5917 C   0  0  0  0  0  0  0  0  0  0  0  0
  -22.2445   -9.5692   19.8457 C   0  0  0  0  0  0  0  0  0  0  0  0
  -28.1292  -27.9213   21.2459 C   0  0  0  0  0  0  0  0  0  0  0  0
  -27.1837  -27.2647   19.1218 C   0  0  0  0  0  0  0  0  0  0  0  0
  -23.1204   -8.3996   21.7642 C   0  0  0  0  0  0  0  0  0  0  0  0
  -22.8764  -10.7366   20.2726 C   0  0  0  0  0  0  0  0  0  0  0  0
  -25.3435  -15.0897   16.7414 C   0  0  0  0  0  0  0  0  0  0  0  0
  -29.2299  -27.0976   21.0106 C   0  0  0  0  0  0  0  0  0  0  0  0
  -28.2845  -26.4409   18.8865 C   0  0  0  0  0  0  0  0  0  0  0  0
  -24.8682  -16.3263   16.3070 C   0  0  0  0  0  0  0  0  0  0  0  0
  -30.6720  -23.8892   17.8873 C   0  0  0  0  0  0  0  0  0  0  0  0
  -30.4286  -22.6061   17.3974 C   0  0  0  0  0  0  0  0  0  0  0  0
  -26.0245  -17.4041   18.1292 C   0  0  0  0  0  0  0  0  0  0  0  0
  -29.1206  -22.1029   19.3655 C   0  0  0  0  0  0  0  0  0  0  0  0
  -20.3223  -23.1076   16.1949 C   0  0  0  0  0  0  0  0  0  0  0  0
  -27.1060  -28.0049   20.3015 C   0  0  0  0  0  0  0  0  0  0  0  0
  -25.8282  -30.2098   20.1877 C   0  0  0  0  0  0  0  0  0  0  0  0
  -23.7697   -9.5652   22.2006 C   0  0  0  0  0  0  0  0  0  0  0  0
  -26.1553  -14.9997   17.8812 C   0  0  0  0  0  0  0  0  0  0  0  0
  -23.6390  -10.7510   21.4528 C   0  0  0  0  0  0  0  0  0  0  0  0
  -26.5109  -16.1654   18.5745 C   0  0  0  0  0  0  0  0  0  0  0  0
  -21.8177  -23.8769   18.2882 C   0  0  0  0  0  0  0  0  0  0  0  0
  -29.3076  -26.3574   19.8309 C   0  0  0  0  0  0  0  0  0  0  0  0
  -25.2063  -17.4834   17.0026 C   0  0  0  0  0  0  0  0  0  0  0  0
  -30.1398  -24.2791   19.1163 C   0  0  0  0  0  0  0  0  0  0  0  0
  -29.6529  -21.7129   18.1365 C   0  0  0  0  0  0  0  0  0  0  0  0
  -29.3641  -23.3860   19.8553 C   0  0  0  0  0  0  0  0  0  0  0  0
  -25.9684  -28.8552   20.5442 C   0  0  0  0  0  0  0  0  0  0  0  0
  -22.0090  -22.6666   17.6535 C   0  0  0  0  0  0  0  0  0  0  0  0
  -20.8078  -24.6661   17.7768 C   0  0  0  0  0  0  0  0  0  0  0  0
  -24.5770  -30.5553   20.6368 C   0  0  0  0  0  0  0  0  0  0  0  0
  -26.7467  -31.0781   19.5109 C   0  0  0  0  0  0  0  0  0  0  0  0
  -25.8941  -13.5835   20.7149 C   0  0  0  0  0  0  0  0  0  0  0  0
  -28.9517  -14.6060   21.0723 C   0  0  0  0  0  0  0  0  0  0  0  0
  -31.3897  -16.8197   20.1767 C   0  0  0  0  0  0  0  0  0  0  0  0
  -19.8776  -26.8713   21.7599 C   0  0  0  0  0  0  0  0  0  0  0  0
  -24.5352   -9.5268   23.4996 C   0  0  0  0  0  0  0  0  0  0  0  0
  -26.6818  -13.6612   18.3213 C   0  0  0  0  0  0  0  0  0  0  0  0
  -27.3961  -16.1250   19.7924 C   0  0  0  0  0  0  0  0  0  0  0  0
  -25.4811  -10.7105   23.6843 C   0  0  0  0  0  0  0  0  0  0  0  0
  -21.3622  -29.4753   23.9976 C   0  0  0  0  0  0  0  0  0  0  0  0
  -24.7750  -12.0174   23.3374 C   0  0  0  0  0  0  0  0  0  0  0  0
  -22.7346  -29.6651   23.3535 C   0  0  0  0  0  0  0  0  0  0  0  0
  -20.8364  -28.0631   23.7702 C   0  0  0  0  0  0  0  0  0  0  0  0
  -22.1417  -27.8534   21.6799 C   0  0  0  0  0  0  0  0  0  0  0  0
  -24.3298  -12.0312   21.8700 C   0  0  1  0  0  0  0  0  0  0  0  0
  -27.0801  -13.6305   19.7936 C   0  0  1  0  0  0  0  0  0  0  0  0
  -22.7036  -29.2726   21.8665 C   0  0  2  0  0  0  0  0  0  0  0  0
  -23.7052  -25.3346   19.0623 C   0  0  0  0  0  0  0  0  0  0  0  0
  -33.7740  -17.4293   20.6676 C   0  0  0  0  0  0  0  0  0  0  0  0
  -18.0441  -25.8755   18.9565 C   0  0  0  0  0  0  0  0  0  0  0  0
  -28.0765  -15.9139   23.6864 C   0  0  0  0  0  0  0  0  0  0  0  0
  -30.1843  -17.2642   23.6354 C   0  0  0  0  0  0  0  0  0  0  0  0
  -30.3018  -14.7768   23.7827 C   0  0  0  0  0  0  0  0  0  0  0  0
  -19.6741  -28.3865   19.7444 C   0  0  0  0  0  0  0  0  0  0  0  0
  -32.2220  -16.2866   17.3870 C   0  0  0  0  0  0  0  0  0  0  0  0
  -22.6460  -24.3031   19.4480 C   0  0  0  0  0  0  0  0  0  0  0  0
  -23.0839  -21.7193   18.1234 C   0  0  0  0  0  0  0  0  0  0  0  0
  -20.5086  -25.9980   18.3823 C   0  0  0  0  0  0  0  0  0  0  0  0
  -23.3872  -20.5921   17.1339 C   0  0  0  0  0  0  0  0  0  0  0  0
  -24.5329  -19.6905   17.5784 C   0  0  0  0  0  0  0  0  0  1  0  0
  -29.6048  -15.8579   21.6062 C   0  0  1  0  0  0  0  0  0  0  0  0
  -32.8418  -16.6147   19.7843 C   0  0  2  0  0  0  0  0  0  0  0  0
  -19.4621  -25.9393   19.5154 C   0  0  1  0  0  0  0  0  0  0  0  0
  -29.5236  -15.9541   23.1559 C   0  0  0  0  0  0  0  0  0  0  0  0
  -21.2769  -22.2486   16.6001 N   0  0  0  0  0  0  0  0  0  0  0  0
  -20.0378  -24.3115   16.7272 N   0  0  0  0  0  0  0  0  0  0  0  0
  -24.8924  -28.3731   21.1717 N   0  0  0  0  0  0  0  0  0  0  0  0
  -24.0641  -29.4306   21.2130 N   0  0  0  0  0  0  0  0  0  0  0  0
  -27.8805  -14.7919   20.1869 N   0  0  0  0  0  0  0  0  0  0  0  0
  -20.8456  -27.7037   22.3458 N   0  0  0  0  0  0  0  0  0  0  0  0
  -23.8767  -31.7085   20.5912 N   0  0  0  0  0  0  0  0  0  0  0  0
  -27.9890  -30.5614   19.1185 N   0  0  0  0  0  0  0  0  0  0  0  0
  -25.4556  -12.3051   21.0028 N   0  0  0  0  0  0  0  0  0  0  0  0
  -30.9645  -15.8663   21.0774 N   0  0  0  0  0  0  0  0  0  0  0  0
  -19.5870  -27.0857   20.4042 N   0  0  0  0  0  0  0  0  0  0  0  0
  -33.0586  -17.0247   18.3681 N   0  3  0  0  0  0  0  0  0  0  0  0
  -26.4804  -32.2812   19.2761 O   0  0  0  0  0  0  0  0  0  0  0  0
  -25.4133  -14.6296   21.1348 O   0  0  0  0  0  0  0  0  0  0  0  0
  -29.3808  -13.5037   21.4222 O   0  0  0  0  0  0  0  0  0  0  0  0
  -30.7025  -17.7364   19.7316 O   0  0  0  0  0  0  0  0  0  0  0  0
  -19.3135  -25.9808   22.4086 O   0  0  0  0  0  0  0  0  0  0  0  0
  -30.3817  -25.5536   19.6009 O   0  0  0  0  0  0  0  0  0  0  0  0
  -24.7432  -18.6916   16.5811 O   0  0  0  0  0  0  0  0  0  1  0  0
  -29.4180  -20.4813   17.6652 F   0  0  0  0  0  0  0  0  0  0  0  0
  -28.8491  -23.7553   21.0361 F   0  0  0  0  0  0  0  0  0  0  0  0
  1  2  1  0  0  0  0
  1  5  2  0  0  0  0
  2  6  2  0  0  0  0
  3  8  2  0  0  0  0
  3 16  1  0  0  0  0
  4  9  1  0  0  0  0
  4 16  2  0  0  0  0
  5 18  1  0  0  0  0
  6 20  1  0  0  0  0
  7 10  2  0  0  0  0
  7 19  1  0  0  0  0
  8 23  1  0  0  0  0
  9 23  2  0  0  0  0
 10 24  1  0  0  0  0
 11 12  2  0  0  0  0
 11 25  1  0  0  0  0
 12 26  1  0  0  0  0
 13 21  1  0  0  0  0
 13 24  2  0  0  0  0
 14 26  2  0  0  0  0
 14 27  1  0  0  0  0
 15 66  1  0  0  0  0
 15 67  2  0  0  0  0
 16 28  1  0  0  0  0
 17 28  1  0  0  0  0
 17 31  2  0  0  0  0
 17 32  1  0  0  0  0
 18 20  2  0  0  0  0
 18 37  1  0  0  0  0
 19 21  2  0  0  0  0
 19 38  1  0  0  0  0
 20 46  1  0  0  0  0
 21 39  1  0  0  0  0
 22 29  1  0  0  0  0
 22 30  2  0  0  0  0
 22 57  1  0  0  0  0
 23 83  1  0  0  0  0
 24 84  1  0  0  0  0
 25 27  2  0  0  0  0
 25 83  1  0  0  0  0
 26 85  1  0  0  0  0
 27 86  1  0  0  0  0
 28 68  2  0  0  0  0
 29 58  1  0  0  0  0
 29 66  2  0  0  0  0
 30 59  1  0  0  0  0
 30 67  1  0  0  0  0
 31 69  1  0  0  0  0
 31 72  1  0  0  0  0
 32 73  1  0  0  0  0
 32 78  2  0  0  0  0
 33 47  1  0  0  0  0
 33 74  1  0  0  0  0
 33 79  2  0  0  0  0
 34 62  1  0  0  0  0
 34 70  1  0  0  0  0
 34 80  2  0  0  0  0
 35 63  1  0  0  0  0
 35 75  1  0  0  0  0
 35 81  2  0  0  0  0
 36 71  1  0  0  0  0
 36 76  1  0  0  0  0
 36 82  2  0  0  0  0
 37 40  1  0  0  0  0
 38 47  1  0  0  0  0
 39 70  1  0  0  0  0
 40 42  1  0  0  0  0
 41 43  1  0  0  0  0
 41 44  1  0  0  0  0
 42 46  1  0  0  0  0
 43 48  1  0  0  0  0
 44 71  1  0  0  0  0
 45 48  1  0  0  0  0
 45 71  1  0  0  0  0
 46 74  1  0  0  0  0
 47 70  1  0  0  0  0
 48 69  1  0  0  0  0
 49 57  1  0  0  0  0
 50 63  1  0  0  0  0
 51 64  1  0  0  0  0
 52 65  1  0  0  0  0
 53 65  1  0  0  0  0
 54 65  1  0  0  0  0
 55 76  1  0  0  0  0
 56 77  1  0  0  0  0
 58 60  1  0  0  0  0
 59 64  1  0  0  0  0
 60 61  1  0  0  0  0
 61 84  1  0  0  0  0
 62 65  1  0  0  0  0
 62 75  1  0  0  0  0
 63 77  1  0  0  0  0
 64 76  1  0  0  0  0
 68 69  1  0  0  0  0
M  CHG  1  77   1
M  ISO  4  36 100  61 101  76 100  84 101
M  END
> <Batch ID>
0069

> <Smiles>
CCc1c(CC[101CH2:1][101O:1]c2ccc3c(c2)CN(C(=O)C(NC(=O)C(C)NC)C(C)(C)C)C(C(=O)NC2CCCc4ccccc42)C3)ncnc1CC(C)[100N:0](C)[100C:0](=O)N1CCCC(n2nc(-c3ccc(Oc4ccc(F)cc4F)cc3)c(C(N)=O)c2N)C1

> <Shape>
0.275

> <Color>
0.067

> <Negative vol penalty>
0.000

$$$$

  -OEChem-04052318173D

 87 95  0     1  0  0  0  0  0999 V2000
  -26.1337  -21.7788   31.4771 C   0  0  0  0  0  0  0  0  0  0  0  0
  -27.0332  -20.7817   31.1136 C   0  0  0  0  0  0  0  0  0  0  0  0
  -23.0726   -9.8698   19.9430 C   0  0  0  0  0  0  0  0  0  0  0  0
  -23.8351   -9.8781   22.2355 C   0  0  0  0  0  0  0  0  0  0  0  0
  -25.8754  -22.8351   30.6045 C   0  0  0  0  0  0  0  0  0  0  0  0
  -27.6742  -20.8399   29.8766 C   0  0  0  0  0  0  0  0  0  0  0  0
  -33.3771  -19.0115   28.5959 C   0  0  0  0  0  0  0  0  0  0  0  0
  -29.8071  -14.8474   26.0566 C   0  0  0  0  0  0  0  0  0  0  0  0
  -22.3293   -8.7166   20.1944 C   0  0  0  0  0  0  0  0  0  0  0  0
  -23.0917   -8.7248   22.4869 C   0  0  0  0  0  0  0  0  0  0  0  0
  -33.8821  -17.8425   28.0282 C   0  0  0  0  0  0  0  0  0  0  0  0
  -19.3829   -7.9200   21.6494 C   0  0  0  0  0  0  0  0  0  0  0  0
  -18.0755   -7.8732   21.1656 C   0  0  0  0  0  0  0  0  0  0  0  0
  -31.1170  -14.4285   26.2617 C   0  0  0  0  0  0  0  0  0  0  0  0
  -33.9381  -18.9213   25.8713 C   0  0  0  0  0  0  0  0  0  0  0  0
  -18.6341   -5.9297   19.8436 C   0  0  0  0  0  0  0  0  0  0  0  0
  -23.8255  -10.4505   20.9636 C   0  0  0  0  0  0  0  0  0  0  0  0
  -24.1666  -12.9757   20.8420 C   0  0  0  0  0  0  0  0  0  0  0  0
  -26.5209  -22.9113   29.3602 C   0  0  0  0  0  0  0  0  0  0  0  0
  -33.1381  -20.1426   27.8022 C   0  0  0  0  0  0  0  0  0  0  0  0
  -27.4234  -21.8975   28.9859 C   0  0  0  0  0  0  0  0  0  0  0  0
  -33.4325  -20.1042   26.4318 C   0  0  0  0  0  0  0  0  0  0  0  0
  -29.5336  -15.8072   25.0885 C   0  0  0  0  0  0  0  0  0  0  0  0
  -22.3388   -8.1441   21.4663 C   0  0  0  0  0  0  0  0  0  0  0  0
  -34.1600  -17.7964   26.6652 C   0  0  0  0  0  0  0  0  0  0  0  0
  -20.3160   -6.9717   21.2302 C   0  0  0  0  0  0  0  0  0  0  0  0
  -17.7010   -6.8780   20.2628 C   0  0  0  0  0  0  0  0  0  0  0  0
  -19.9416   -5.9765   20.3274 C   0  0  0  0  0  0  0  0  0  0  0  0
  -24.5940  -11.6415   20.7045 C   0  0  0  0  0  0  0  0  0  0  0  0
  -32.1094  -14.9958   25.4787 C   0  0  0  0  0  0  0  0  0  0  0  0
  -30.5969  -16.3129   24.3582 C   0  0  0  0  0  0  0  0  0  0  0  0
  -25.2582  -13.7253   20.4772 C   0  0  0  0  0  0  0  0  0  0  0  0
  -22.8965  -13.4914   21.2622 C   0  0  0  0  0  0  0  0  0  0  0  0
  -30.5644  -21.8454   27.0407 C   0  0  0  0  0  0  0  0  0  0  0  0
  -32.7442  -23.7758   25.6109 C   0  0  0  0  0  0  0  0  0  0  0  0
  -35.8347  -24.1115   24.2026 C   0  0  0  0  0  0  0  0  0  0  0  0
  -30.7419  -14.7458   20.6588 C   0  0  0  0  0  0  0  0  0  0  0  0
  -26.1739  -24.0473   28.4308 C   0  0  0  0  0  0  0  0  0  0  0  0
  -32.6183  -21.4044   28.4347 C   0  0  0  0  0  0  0  0  0  0  0  0
  -33.2128  -21.2978   25.5398 C   0  0  0  0  0  0  0  0  0  0  0  0
  -27.1768  -24.2331   27.2951 C   0  0  0  0  0  0  0  0  0  0  0  0
  -29.6021  -12.3599   18.2744 C   0  0  0  0  0  0  0  0  0  0  0  0
  -27.5087  -22.8908   26.6510 C   0  0  0  0  0  0  0  0  0  0  0  0
  -28.1653  -12.0660   18.7091 C   0  0  0  0  0  0  0  0  0  0  0  0
  -30.5206  -12.5815   19.4742 C   0  0  0  0  0  0  0  0  0  0  0  0
  -28.6202  -13.3127   20.8626 C   0  0  0  0  0  0  0  0  0  0  0  0
  -28.1572  -21.9386   27.6631 C   0  0  1  0  0  0  0  0  0  0  0  0
  -31.9292  -22.3320   27.4386 C   0  0  1  0  0  0  0  0  0  0  0  0
  -27.6448  -13.1374   19.6862 C   0  0  2  0  0  0  0  0  0  0  0  0
  -37.3189  -25.8007   23.0886 C   0  0  0  0  0  0  0  0  0  0  0  0
  -30.5403  -17.9837   20.8584 C   0  0  0  0  0  0  0  0  0  0  0  0
  -35.5287  -14.7218   27.2150 C   0  0  0  0  0  0  0  0  0  0  0  0
  -31.0946  -23.5362   23.0552 C   0  0  0  0  0  0  0  0  0  0  0  0
  -33.0647  -24.4143   21.7841 C   0  0  0  0  0  0  0  0  0  0  0  0
  -31.9702  -25.8322   23.5203 C   0  0  0  0  0  0  0  0  0  0  0  0
  -37.9033  -23.8508   26.3031 C   0  0  0  0  0  0  0  0  0  0  0  0
  -33.5435  -14.5631   25.6733 C   0  0  0  0  0  0  0  0  0  0  0  0
  -30.3623  -17.3436   23.3030 C   0  0  0  0  0  0  0  0  0  0  0  0
  -33.3678  -23.8514   24.2382 C   0  0  1  0  0  0  0  0  0  0  0  0
  -36.9265  -25.1467   24.4043 C   0  0  2  0  0  0  0  0  0  0  0  0
  -30.8086  -16.8969   21.8947 C   0  0  1  0  0  0  0  0  0  0  0  0
  -34.2717  -15.4213   26.7133 C   0  0  2  0  0  0  0  0  0  1  0  0
  -28.1325  -16.2608   24.8651 C   0  0  0  0  0  0  0  0  0  0  0  0
  -32.3768  -24.3852   23.1656 C   0  0  0  0  0  0  0  0  0  0  0  0
  -25.8584  -11.5458   20.2848 N   0  0  0  0  0  0  0  0  0  0  0  0
  -31.8823  -15.9306   24.5289 N   0  0  0  0  0  0  0  0  0  0  0  0
  -26.2349  -12.8294   20.1554 N   0  0  0  0  0  0  0  0  0  0  0  0
  -32.6971  -22.5063   26.2040 N   0  0  0  0  0  0  0  0  0  0  0  0
  -29.9708  -13.6103   20.3603 N   0  0  0  0  0  0  0  0  0  0  0  0
  -25.4682  -15.0568   20.4033 N   0  0  0  0  0  0  0  0  0  0  0  0
  -21.8852  -12.5822   21.6010 N   0  0  0  0  0  0  0  0  0  0  0  0
  -29.5473  -22.2865   27.8655 N   0  0  0  0  0  0  0  0  0  0  0  0
  -34.5790  -24.6516   24.3835 N   0  0  0  0  0  0  0  0  0  0  0  0
  -30.1435  -15.6748   21.5011 N   0  0  0  0  0  0  0  0  0  0  0  0
  -38.1393  -24.5124   24.9940 N   0  3  0  0  0  0  0  0  0  0  0  0
  -22.6600  -14.7220   21.3192 O   0  0  0  0  0  0  0  0  0  0  0  0
  -30.4430  -21.1245   26.0573 O   0  0  0  0  0  0  0  0  0  0  0  0
  -32.3212  -24.8065   26.1405 O   0  0  0  0  0  0  0  0  0  0  0  0
  -36.0719  -22.9416   23.9100 O   0  0  0  0  0  0  0  0  0  0  0  0
  -31.8773  -14.9213   20.2038 O   0  0  0  0  0  0  0  0  0  0  0  0
  -21.6134   -7.0190   21.7120 O   0  0  0  0  0  0  0  0  0  0  0  0
  -34.6524  -16.6564   26.1085 O   0  0  0  0  0  0  0  0  0  1  0  0
  -16.4451   -6.8323   19.7995 F   0  0  0  0  0  0  0  0  0  0  0  0
  -20.8333   -5.0620   19.9219 F   0  0  0  0  0  0  0  0  0  0  0  0
  -27.2209  -15.6506   25.6803 F   0  0  0  0  0  0  0  0  0  0  0  0
  -27.9501  -17.5997   25.0694 F   0  0  0  0  0  0  0  0  0  0  0  0
  -27.6986  -16.0240   23.5920 F   0  0  0  0  0  0  0  0  0  0  0  0
  1  2  1  0  0  0  0
  1  5  2  0  0  0  0
  2  6  2  0  0  0  0
  3  9  2  0  0  0  0
  3 17  1  0  0  0  0
  4 10  1  0  0  0  0
  4 17  2  0  0  0  0
  5 19  1  0  0  0  0
  6 21  1  0  0  0  0
  7 11  2  0  0  0  0
  7 20  1  0  0  0  0
  8 14  2  0  0  0  0
  8 23  1  0  0  0  0
  9 24  1  0  0  0  0
 10 24  2  0  0  0  0
 11 25  1  0  0  0  0
 12 13  2  0  0  0  0
 12 26  1  0  0  0  0
 13 27  1  0  0  0  0
 14 30  1  0  0  0  0
 15 22  1  0  0  0  0
 15 25  2  0  0  0  0
 16 27  2  0  0  0  0
 16 28  1  0  0  0  0
 17 29  1  0  0  0  0
 18 29  1  0  0  0  0
 18 32  2  0  0  0  0
 18 33  1  0  0  0  0
 19 21  2  0  0  0  0
 19 38  1  0  0  0  0
 20 22  2  0  0  0  0
 20 39  1  0  0  0  0
 21 47  1  0  0  0  0
 22 40  1  0  0  0  0
 23 31  2  0  0  0  0
 23 63  1  0  0  0  0
 24 81  1  0  0  0  0
 25 82  1  0  0  0  0
 26 28  2  0  0  0  0
 26 81  1  0  0  0  0
 27 83  1  0  0  0  0
 28 84  1  0  0  0  0
 29 65  2  0  0  0  0
 30 57  1  0  0  0  0
 30 66  2  0  0  0  0
 31 58  1  0  0  0  0
 31 66  1  0  0  0  0
 32 67  1  0  0  0  0
 32 70  1  0  0  0  0
 33 71  1  0  0  0  0
 33 76  2  0  0  0  0
 34 48  1  0  0  0  0
 34 72  1  0  0  0  0
 34 77  2  0  0  0  0
 35 59  1  0  0  0  0
 35 68  1  0  0  0  0
 35 78  2  0  0  0  0
 36 60  1  0  0  0  0
 36 73  1  0  0  0  0
 36 79  2  0  0  0  0
 37 69  1  0  0  0  0
 37 74  1  0  0  0  0
 37 80  2  0  0  0  0
 38 41  1  0  0  0  0
 39 48  1  0  0  0  0
 40 68  1  0  0  0  0
 41 43  1  0  0  0  0
 42 44  1  0  0  0  0
 42 45  1  0  0  0  0
 43 47  1  0  0  0  0
 44 49  1  0  0  0  0
 45 69  1  0  0  0  0
 46 49  1  0  0  0  0
 46 69  1  0  0  0  0
 47 72  1  0  0  0  0
 48 68  1  0  0  0  0
 49 67  1  0  0  0  0
 50 60  1  0  0  0  0
 51 61  1  0  0  0  0
 52 62  1  0  0  0  0
 53 64  1  0  0  0  0
 54 64  1  0  0  0  0
 55 64  1  0  0  0  0
 56 75  1  0  0  0  0
 57 62  1  0  0  0  0
 58 61  1  0  0  0  0
 59 64  1  0  0  0  0
 59 73  1  0  0  0  0
 60 75  1  0  0  0  0
 61 74  1  0  0  0  0
 62 82  1  0  0  0  0
 63 85  1  0  0  0  0
 63 86  1  0  0  0  0
 63 87  1  0  0  0  0
 65 67  1  0  0  0  0
M  CHG  1  75   1
M  ISO  4  37 100  62 101  74 100  82 101
M  END
> <Batch ID>
0069

> <Smiles>
CNC(C)C(=O)NC(C(=O)N1Cc2cc([101O:1][101CH:1](C)Cc3ccc(C(F)(F)F)c(CC(C)[100NH:0][100C:0](=O)N4CCCC(n5nc(-c6ccc(Oc7ccc(F)cc7F)cc6)c(C(N)=O)c5N)C4)n3)ccc2CC1C(=O)NC1CCCc2ccccc21)C(C)(C)C

> <Shape>
0.148

> <Color>
0.196

> <Negative vol penalty>
0.000

$$$$

  -OEChem-04052318173D

 91 99  0     1  0  0  0  0  0999 V2000
  -28.8046  -36.8657   20.6245 C   0  0  0  0  0  0  0  0  0  0  0  0
  -29.0560  -35.5674   20.1924 C   0  0  0  0  0  0  0  0  0  0  0  0
  -26.6651  -12.9870   22.1012 C   0  0  0  0  0  0  0  0  0  0  0  0
  -25.6781  -14.7394   20.7626 C   0  0  0  0  0  0  0  0  0  0  0  0
  -28.0761  -37.0814   21.7935 C   0  0  0  0  0  0  0  0  0  0  0  0
  -28.5798  -34.4840   20.9299 C   0  0  0  0  0  0  0  0  0  0  0  0
  -26.6060  -29.1186   18.7338 C   0  0  0  0  0  0  0  0  0  0  0  0
  -25.4464  -12.3086   22.1117 C   0  0  0  0  0  0  0  0  0  0  0  0
  -24.4593  -14.0609   20.7730 C   0  0  0  0  0  0  0  0  0  0  0  0
  -27.2221  -27.8748   18.6032 C   0  0  0  0  0  0  0  0  0  0  0  0
  -22.6916   -9.9377   22.1876 C   0  0  0  0  0  0  0  0  0  0  0  0
  -22.7125   -8.5633   21.9509 C   0  0  0  0  0  0  0  0  0  0  0  0
  -26.2385  -27.1750   20.6917 C   0  0  0  0  0  0  0  0  0  0  0  0
  -23.7001   -8.9520   19.7805 C   0  0  0  0  0  0  0  0  0  0  0  0
  -28.9226  -19.8737   17.8280 C   0  0  0  0  0  0  0  0  0  0  0  0
  -26.7809  -14.2024   21.4267 C   0  0  0  0  0  0  0  0  0  0  0  0
  -29.0786  -14.7713   20.4757 C   0  0  0  0  0  0  0  0  0  0  0  0
  -27.5825  -36.0002   22.5404 C   0  0  0  0  0  0  0  0  0  0  0  0
  -25.8090  -29.4043   19.8516 C   0  0  0  0  0  0  0  0  0  0  0  0
  -27.8451  -34.6854   22.1107 C   0  0  0  0  0  0  0  0  0  0  0  0
  -25.6113  -28.4223   20.8329 C   0  0  0  0  0  0  0  0  0  0  0  0
  -24.3435  -12.8455   21.4476 C   0  0  0  0  0  0  0  0  0  0  0  0
  -27.0408  -26.9038   19.5836 C   0  0  0  0  0  0  0  0  0  0  0  0
  -23.1749  -10.8194   21.2207 C   0  0  0  0  0  0  0  0  0  0  0  0
  -23.2167   -8.0704   20.7474 C   0  0  0  0  0  0  0  0  0  0  0  0
  -23.6792  -10.3265   20.0171 C   0  0  0  0  0  0  0  0  0  0  0  0
  -28.0394  -14.9040   21.4160 C   0  0  0  0  0  0  0  0  0  0  0  0
  -28.3515  -20.4112   18.9603 C   0  0  0  0  0  0  0  0  0  0  0  0
  -30.3614  -20.2682   20.0419 C   0  0  0  0  0  0  0  0  0  0  0  0
  -30.9323  -19.7299   18.9097 C   0  0  0  0  0  0  0  0  0  0  0  0
  -30.0455  -15.6464   20.9068 C   0  0  0  0  0  0  0  0  0  0  0  0
  -29.1625  -13.9322   19.3162 C   0  0  0  0  0  0  0  0  0  0  0  0
  -25.9428  -31.5196   22.2204 C   0  0  0  0  0  0  0  0  0  0  0  0
  -23.0406  -30.2799   22.9704 C   0  0  0  0  0  0  0  0  0  0  0  0
  -20.8781  -27.6467   22.7803 C   0  0  0  0  0  0  0  0  0  0  0  0
  -30.0630  -20.9648   23.5141 C   0  0  0  0  0  0  0  0  0  0  0  0
  -26.8405  -36.2824   23.8229 C   0  0  0  0  0  0  0  0  0  0  0  0
  -25.1297  -30.7415   19.9645 C   0  0  0  0  0  0  0  0  0  0  0  0
  -24.7489  -28.6720   22.0421 C   0  0  0  0  0  0  0  0  0  0  0  0
  -26.0505  -35.0853   24.3455 C   0  0  0  0  0  0  0  0  0  0  0  0
  -31.1197  -17.8409   25.1952 C   0  0  0  0  0  0  0  0  0  0  0  0
  -26.9058  -33.8228   24.3060 C   0  0  0  0  0  0  0  0  0  0  0  0
  -30.4631  -16.7617   24.3361 C   0  0  0  0  0  0  0  0  0  0  0  0
  -30.3337  -19.1480   25.1627 C   0  0  0  0  0  0  0  0  0  0  0  0
  -29.4278  -18.5879   22.9312 C   0  0  0  0  0  0  0  0  0  0  0  0
  -27.3241  -33.4845   22.8700 C   0  0  1  0  0  0  0  0  0  0  0  0
  -24.7559  -31.1027   21.3988 C   0  0  1  0  0  0  0  0  0  0  0  0
  -30.2201  -17.2722   22.9051 C   0  0  2  0  0  0  0  0  0  0  0  0
  -18.5955  -26.9146   23.5229 C   0  0  0  0  0  0  0  0  0  0  0  0
  -26.0725  -18.3773   18.4059 C   0  0  0  0  0  0  0  0  0  0  0  0
  -24.4259  -20.0456   19.2782 C   0  0  0  0  0  0  0  0  0  0  0  0
  -26.1701  -19.1211   20.7830 C   0  0  0  0  0  0  0  0  0  0  0  0
  -24.1146  -29.7946   25.7849 C   0  0  0  0  0  0  0  0  0  0  0  0
  -22.1882  -28.2444   26.1774 C   0  0  0  0  0  0  0  0  0  0  0  0
  -21.7684  -30.6561   25.6977 C   0  0  0  0  0  0  0  0  0  0  0  0
  -30.4830  -22.7829   21.9024 C   0  0  0  0  0  0  0  0  0  0  0  0
  -19.9388  -27.3482   19.9897 C   0  0  0  0  0  0  0  0  0  0  0  0
  -31.1573  -20.4925   21.2821 C   0  0  0  0  0  0  0  0  0  0  0  0
  -27.3236  -23.3188   19.2485 C   0  0  0  0  0  0  0  0  0  0  0  0
  -26.6210  -22.0789   19.8170 C   0  0  0  0  0  0  0  0  0  0  0  0
  -26.9732  -24.5711   20.0418 C   0  0  0  0  0  0  0  0  0  1  0  0
  -26.8715  -20.7959   18.9752 C   0  0  2  0  0  0  0  0  0  0  0  0
  -22.5555  -29.1404   23.8336 C   0  0  1  0  0  0  0  0  0  0  0  0
  -19.4053  -27.5768   22.4191 C   0  0  2  0  0  0  0  0  0  0  0  0
  -32.3723  -19.3468   18.8722 C   0  0  0  0  0  0  0  0  0  0  0  0
  -25.9041  -19.5951   19.3337 C   0  0  0  0  0  0  0  0  0  0  0  0
  -22.6745  -29.4545   25.3517 C   0  0  0  0  0  0  0  0  0  0  0  0
  -30.2233  -19.5233   17.7823 N   0  0  0  0  0  0  0  0  0  0  0  0
  -28.3198  -15.7932   22.3724 N   0  0  0  0  0  0  0  0  0  0  0  0
  -29.0607  -20.6182   20.0877 N   0  0  0  0  0  0  0  0  0  0  0  0
  -29.5462  -16.2272   22.0353 N   0  0  0  0  0  0  0  0  0  0  0  0
  -24.1111  -29.9972   22.1103 N   0  0  0  0  0  0  0  0  0  0  0  0
  -30.0794  -19.5877   23.7904 N   0  0  0  0  0  0  0  0  0  0  0  0
  -31.2656  -15.9680   20.4269 N   0  0  0  0  0  0  0  0  0  0  0  0
  -28.0795  -13.0938   19.0185 N   0  0  0  0  0  0  0  0  0  0  0  0
  -26.2258  -32.8706   22.1551 N   0  0  0  0  0  0  0  0  0  0  0  0
  -21.1983  -28.8413   23.3899 N   0  0  0  0  0  0  0  0  0  0  0  0
  -30.4717  -21.3650   22.2329 N   0  0  0  0  0  0  0  0  0  0  0  0
  -19.2163  -26.7955   21.1642 N   0  3  0  0  0  0  0  0  0  0  0  0
  -30.1747  -13.9140   18.5755 O   0  0  0  0  0  0  0  0  0  0  0  0
  -26.5556  -30.6781   22.8670 O   0  0  0  0  0  0  0  0  0  0  0  0
  -22.4853  -31.3785   23.0511 O   0  0  0  0  0  0  0  0  0  0  0  0
  -21.6649  -26.7314   22.5485 O   0  0  0  0  0  0  0  0  0  0  0  0
  -29.7127  -21.7902   24.3673 O   0  0  0  0  0  0  0  0  0  0  0  0
  -23.1542  -12.1836   21.4574 O   0  0  0  0  0  0  0  0  0  0  0  0
  -27.6415  -25.6891   19.4589 O   0  0  0  0  0  0  0  0  0  1  0  0
  -23.2382   -6.7504   20.5210 F   0  0  0  0  0  0  0  0  0  0  0  0
  -24.1459  -11.1685   19.0849 F   0  0  0  0  0  0  0  0  0  0  0  0
  -33.0331  -19.5825   20.0447 F   0  0  0  0  0  0  0  0  0  0  0  0
  -32.5799  -18.0227   18.6074 F   0  0  0  0  0  0  0  0  0  0  0  0
  -33.0722  -20.0248   17.9160 F   0  0  0  0  0  0  0  0  0  0  0  0
  1  2  1  0  0  0  0
  1  5  2  0  0  0  0
  2  6  2  0  0  0  0
  3  8  2  0  0  0  0
  3 16  1  0  0  0  0
  4  9  1  0  0  0  0
  4 16  2  0  0  0  0
  5 18  1  0  0  0  0
  6 20  1  0  0  0  0
  7 10  2  0  0  0  0
  7 19  1  0  0  0  0
  8 22  1  0  0  0  0
  9 22  2  0  0  0  0
 10 23  1  0  0  0  0
 11 12  2  0  0  0  0
 11 24  1  0  0  0  0
 12 25  1  0  0  0  0
 13 21  1  0  0  0  0
 13 23  2  0  0  0  0
 14 25  2  0  0  0  0
 14 26  1  0  0  0  0
 15 28  1  0  0  0  0
 15 68  2  0  0  0  0
 16 27  1  0  0  0  0
 17 27  1  0  0  0  0
 17 31  2  0  0  0  0
 17 32  1  0  0  0  0
 18 20  2  0  0  0  0
 18 37  1  0  0  0  0
 19 21  2  0  0  0  0
 19 38  1  0  0  0  0
 20 46  1  0  0  0  0
 21 39  1  0  0  0  0
 22 85  1  0  0  0  0
 23 86  1  0  0  0  0
 24 26  2  0  0  0  0
 24 85  1  0  0  0  0
 25 87  1  0  0  0  0
 26 88  1  0  0  0  0
 27 69  2  0  0  0  0
 28 62  1  0  0  0  0
 28 70  2  0  0  0  0
 29 30  2  0  0  0  0
 29 58  1  0  0  0  0
 29 70  1  0  0  0  0
 30 65  1  0  0  0  0
 30 68  1  0  0  0  0
 31 71  1  0  0  0  0
 31 74  1  0  0  0  0
 32 75  1  0  0  0  0
 32 80  2  0  0  0  0
 33 47  1  0  0  0  0
 33 76  1  0  0  0  0
 33 81  2  0  0  0  0
 34 63  1  0  0  0  0
 34 72  1  0  0  0  0
 34 82  2  0  0  0  0
 35 64  1  0  0  0  0
 35 77  1  0  0  0  0
 35 83  2  0  0  0  0
 36 73  1  0  0  0  0
 36 78  1  0  0  0  0
 36 84  2  0  0  0  0
 37 40  1  0  0  0  0
 38 47  1  0  0  0  0
 39 72  1  0  0  0  0
 40 42  1  0  0  0  0
 41 43  1  0  0  0  0
 41 44  1  0  0  0  0
 42 46  1  0  0  0  0
 43 48  1  0  0  0  0
 44 73  1  0  0  0  0
 45 48  1  0  0  0  0
 45 73  1  0  0  0  0
 46 76  1  0  0  0  0
 47 72  1  0  0  0  0
 48 71  1  0  0  0  0
 49 64  1  0  0  0  0
 50 66  1  0  0  0  0
 51 66  1  0  0  0  0
 52 66  1  0  0  0  0
 53 67  1  0  0  0  0
 54 67  1  0  0  0  0
 55 67  1  0  0  0  0
 56 78  1  0  0  0  0
 57 79  1  0  0  0  0
 58 78  1  0  0  0  0
 59 60  1  0  0  0  0
 59 61  1  0  0  0  0
 60 62  1  0  0  0  0
 61 86  1  0  0  0  0
 62 66  1  0  0  0  0
 63 67  1  0  0  0  0
 63 77  1  0  0  0  0
 64 79  1  0  0  0  0
 65 89  1  0  0  0  0
 65 90  1  0  0  0  0
 65 91  1  0  0  0  0
 69 71  1  0  0  0  0
M  CHG  1  79   1
M  ISO  4  36 100  61 101  78 100  86 101
M  END
> <Batch ID>
0069

> <Smiles>
CNC(C)C(=O)NC(C(=O)N1Cc2cc([101O:1][101CH2:1]CCC(c3cnc(C(F)(F)F)c(C[100N:0](C)[100C:0](=O)N4CCCC(n5nc(-c6ccc(Oc7ccc(F)cc7F)cc6)c(C(N)=O)c5N)C4)n3)C(C)(C)C)ccc2CC1C(=O)NC1CCCc2ccccc21)C(C)(C)C

> <Shape>
0.284

> <Color>
0.080

> <Negative vol penalty>
0.000

$$$$

  -OEChem-04052318173D

 89 97  0     1  0  0  0  0  0999 V2000
  -32.2933  -30.5848   30.5109 C   0  0  0  0  0  0  0  0  0  0  0  0
  -32.1855  -29.2132   30.3049 C   0  0  0  0  0  0  0  0  0  0  0  0
  -23.2848   -9.8131   19.9290 C   0  0  0  0  0  0  0  0  0  0  0  0
  -23.6646  -10.0195   22.3060 C   0  0  0  0  0  0  0  0  0  0  0  0
  -31.6624  -31.4712   29.6391 C   0  0  0  0  0  0  0  0  0  0  0  0
  -31.4458  -28.7272   29.2273 C   0  0  0  0  0  0  0  0  0  0  0  0
  -32.6373  -23.7246   25.9016 C   0  0  0  0  0  0  0  0  0  0  0  0
  -22.5600   -8.6414   20.1465 C   0  0  0  0  0  0  0  0  0  0  0  0
  -22.9398   -8.8477   22.5235 C   0  0  0  0  0  0  0  0  0  0  0  0
  -32.1310  -22.4264   25.9457 C   0  0  0  0  0  0  0  0  0  0  0  0
  -23.4575   -5.5158   22.2755 C   0  0  0  0  0  0  0  0  0  0  0  0
  -23.9924   -4.5773   23.1579 C   0  0  0  0  0  0  0  0  0  0  0  0
  -29.0871  -15.3439   24.7390 C   0  0  0  0  0  0  0  0  0  0  0  0
  -29.3897  -15.0819   23.3800 C   0  0  0  0  0  0  0  0  0  0  0  0
  -30.5580  -22.9872   24.2049 C   0  0  0  0  0  0  0  0  0  0  0  0
  -22.0327   -4.7758   24.5570 C   0  0  0  0  0  0  0  0  0  0  0  0
  -23.8372  -10.5022   21.0088 C   0  0  0  0  0  0  0  0  0  0  0  0
  -24.0863  -13.0278   20.7506 C   0  0  0  0  0  0  0  0  0  0  0  0
  -30.9227  -30.9961   28.5447 C   0  0  0  0  0  0  0  0  0  0  0  0
  -32.0996  -24.6686   25.0150 C   0  0  0  0  0  0  0  0  0  0  0  0
  -30.8034  -29.6080   28.3408 C   0  0  0  0  0  0  0  0  0  0  0  0
  -31.0610  -24.2960   24.1497 C   0  0  0  0  0  0  0  0  0  0  0  0
  -22.3875   -8.1587   21.4437 C   0  0  0  0  0  0  0  0  0  0  0  0
  -31.0892  -22.0583   25.0994 C   0  0  0  0  0  0  0  0  0  0  0  0
  -22.2102   -6.0844   22.5338 C   0  0  0  0  0  0  0  0  0  0  0  0
  -23.2800   -4.2073   24.2987 C   0  0  0  0  0  0  0  0  0  0  0  0
  -21.4978   -5.7144   23.6745 C   0  0  0  0  0  0  0  0  0  0  0  0
  -24.5864  -11.7123   20.7847 C   0  0  0  0  0  0  0  0  0  0  0  0
  -30.2652  -15.6891   25.3636 C   0  0  0  0  0  0  0  0  0  0  0  0
  -30.7436  -15.2748   23.2155 C   0  0  0  0  0  0  0  0  0  0  0  0
  -25.1898  -13.8085   20.5073 C   0  0  0  0  0  0  0  0  0  0  0  0
  -22.7442  -13.5017   20.9235 C   0  0  0  0  0  0  0  0  0  0  0  0
  -30.6148  -27.4603   25.3400 C   0  0  0  0  0  0  0  0  0  0  0  0
  -30.9642  -12.6261   21.7366 C   0  0  0  0  0  0  0  0  0  0  0  0
  -30.8541  -27.5221   22.1056 C   0  0  0  0  0  0  0  0  0  0  0  0
  -31.1862  -25.7777   19.1912 C   0  0  0  0  0  0  0  0  0  0  0  0
  -30.2192  -31.9917   27.6567 C   0  0  0  0  0  0  0  0  0  0  0  0
  -32.6749  -26.0573   24.9609 C   0  0  0  0  0  0  0  0  0  0  0  0
  -30.4624  -25.2662   23.1654 C   0  0  0  0  0  0  0  0  0  0  0  0
  -29.7652  -31.4041   26.3230 C   0  0  0  0  0  0  0  0  0  0  0  0
  -29.4185  -12.9806   18.2839 C   0  0  0  0  0  0  0  0  0  0  0  0
  -29.0733  -30.0619   26.5389 C   0  0  0  0  0  0  0  0  0  0  0  0
  -27.9926  -13.3970   18.6433 C   0  0  0  0  0  0  0  0  0  0  0  0
  -30.4209  -13.3335   19.3750 C   0  0  0  0  0  0  0  0  0  0  0  0
  -28.6678  -12.3453   20.8643 C   0  0  0  0  0  0  0  0  0  0  0  0
  -30.0304  -29.0428   27.1689 C   0  0  1  0  0  0  0  0  0  0  0  0
  -31.7068  -27.0829   24.3793 C   0  0  1  0  0  0  0  0  0  0  0  0
  -27.6959  -13.2976   20.1519 C   0  0  2  0  0  0  0  0  0  0  0  0
  -33.5046  -14.6812   24.7872 C   0  0  0  0  0  0  0  0  0  0  0  0
  -31.3128  -26.1004   16.7058 C   0  0  0  0  0  0  0  0  0  0  0  0
  -29.1814  -16.0203   27.5964 C   0  0  0  0  0  0  0  0  0  0  0  0
  -31.4846  -15.1057   27.5692 C   0  0  0  0  0  0  0  0  0  0  0  0
  -32.8426  -16.0835   21.9482 C   0  0  0  0  0  0  0  0  0  0  0  0
  -30.7497  -15.5467   20.7285 C   0  0  0  0  0  0  0  0  0  0  0  0
  -27.8422  -28.0023   22.0170 C   0  0  0  0  0  0  0  0  0  0  0  0
  -27.8834  -27.3723   19.5943 C   0  0  0  0  0  0  0  0  0  0  0  0
  -29.1638  -29.3615   20.3859 C   0  0  0  0  0  0  0  0  0  0  0  0
  -33.8960  -24.5953   19.0590 C   0  0  0  0  0  0  0  0  0  0  0  0
  -30.5070  -18.5332   25.9511 C   0  0  0  0  0  0  0  0  0  0  0  0
  -31.0928  -17.5242   26.9462 C   0  0  0  0  0  0  0  0  0  0  0  0
  -32.6599  -15.9393   24.6814 C   0  0  0  0  0  0  0  0  0  0  0  0
  -32.9565  -13.4775   20.5394 C   0  0  0  0  0  0  0  0  0  0  0  0
  -31.1862  -19.8919   26.0756 C   0  0  0  0  0  0  0  0  0  1  0  0
  -32.0856  -13.6348   21.7945 C   0  0  1  0  0  0  0  0  0  0  0  0
  -29.9943  -27.0438   20.9607 C   0  0  1  0  0  0  0  0  0  0  0  0
  -32.1042  -25.9748   17.9984 C   0  0  2  0  0  0  0  0  0  0  0  0
  -30.5279  -16.0730   26.8311 C   0  0  0  0  0  0  0  0  0  0  0  0
  -31.5789  -15.1378   22.0046 C   0  0  0  0  0  0  0  0  0  0  0  0
  -28.7307  -27.9270   20.7593 C   0  0  0  0  0  0  0  0  0  0  0  0
  -25.9050  -11.6565   20.5793 N   0  0  0  0  0  0  0  0  0  0  0  0
  -31.2655  -15.6433   24.4279 N   0  0  0  0  0  0  0  0  0  0  0  0
  -26.2428  -12.9467   20.4138 N   0  0  0  0  0  0  0  0  0  0  0  0
  -31.0549  -26.6139   23.1548 N   0  0  0  0  0  0  0  0  0  0  0  0
  -30.0602  -12.7686   20.6813 N   0  0  0  0  0  0  0  0  0  0  0  0
  -25.3525  -15.1412   20.3664 N   0  0  0  0  0  0  0  0  0  0  0  0
  -21.7307  -12.5645   21.1660 N   0  0  0  0  0  0  0  0  0  0  0  0
  -30.9367  -28.5165   26.1709 N   0  0  0  0  0  0  0  0  0  0  0  0
  -30.8682  -26.9762   19.7944 N   0  0  0  0  0  0  0  0  0  0  0  0
  -33.5721  -12.1224   20.5218 N   0  3  0  0  0  0  0  0  0  0  0  0
  -33.0381  -24.8209   17.8673 N   0  3  0  0  0  0  0  0  0  0  0  0
  -22.4497  -14.7188   20.8483 O   0  0  0  0  0  0  0  0  0  0  0  0
  -29.5580  -26.8401   25.3274 O   0  0  0  0  0  0  0  0  0  0  0  0
  -30.8964  -11.7417   22.5934 O   0  0  0  0  0  0  0  0  0  0  0  0
  -31.3359  -28.6570   22.0671 O   0  0  0  0  0  0  0  0  0  0  0  0
  -30.7878  -24.6717   19.5496 O   0  0  0  0  0  0  0  0  0  0  0  0
  -21.6802   -7.0154   21.6564 O   0  0  0  0  0  0  0  0  0  0  0  0
  -30.5926  -20.7920   25.1408 O   0  0  0  0  0  0  0  0  0  1  0  0
  -23.7931   -3.3049   25.1452 F   0  0  0  0  0  0  0  0  0  0  0  0
  -20.2985   -6.2563   23.9274 F   0  0  0  0  0  0  0  0  0  0  0  0
  1  2  1  0  0  0  0
  1  5  2  0  0  0  0
  2  6  2  0  0  0  0
  3  8  2  0  0  0  0
  3 17  1  0  0  0  0
  4  9  1  0  0  0  0
  4 17  2  0  0  0  0
  5 19  1  0  0  0  0
  6 21  1  0  0  0  0
  7 10  2  0  0  0  0
  7 20  1  0  0  0  0
  8 23  1  0  0  0  0
  9 23  2  0  0  0  0
 10 24  1  0  0  0  0
 11 12  2  0  0  0  0
 11 25  1  0  0  0  0
 12 26  1  0  0  0  0
 13 14  1  0  0  0  0
 13 29  2  0  0  0  0
 14 30  2  0  0  0  0
 15 22  1  0  0  0  0
 15 24  2  0  0  0  0
 16 26  2  0  0  0  0
 16 27  1  0  0  0  0
 17 28  1  0  0  0  0
 18 28  1  0  0  0  0
 18 31  2  0  0  0  0
 18 32  1  0  0  0  0
 19 21  2  0  0  0  0
 19 37  1  0  0  0  0
 20 22  2  0  0  0  0
 20 38  1  0  0  0  0
 21 46  1  0  0  0  0
 22 39  1  0  0  0  0
 23 86  1  0  0  0  0
 24 87  1  0  0  0  0
 25 27  2  0  0  0  0
 25 86  1  0  0  0  0
 26 88  1  0  0  0  0
 27 89  1  0  0  0  0
 28 70  2  0  0  0  0
 29 67  1  0  0  0  0
 29 71  1  0  0  0  0
 30 68  1  0  0  0  0
 30 71  1  0  0  0  0
 31 72  1  0  0  0  0
 31 75  1  0  0  0  0
 32 76  1  0  0  0  0
 32 81  2  0  0  0  0
 33 47  1  0  0  0  0
 33 77  1  0  0  0  0
 33 82  2  0  0  0  0
 34 64  1  0  0  0  0
 34 74  1  0  0  0  0
 34 83  2  0  0  0  0
 35 65  1  0  0  0  0
 35 73  1  0  0  0  0
 35 84  2  0  0  0  0
 36 66  1  0  0  0  0
 36 78  1  0  0  0  0
 36 85  2  0  0  0  0
 37 40  1  0  0  0  0
 38 47  1  0  0  0  0
 39 73  1  0  0  0  0
 40 42  1  0  0  0  0
 41 43  1  0  0  0  0
 41 44  1  0  0  0  0
 42 46  1  0  0  0  0
 43 48  1  0  0  0  0
 44 74  1  0  0  0  0
 45 48  1  0  0  0  0
 45 74  1  0  0  0  0
 46 77  1  0  0  0  0
 47 73  1  0  0  0  0
 48 72  1  0  0  0  0
 49 61  1  0  0  0  0
 50 66  1  0  0  0  0
 51 67  1  0  0  0  0
 52 67  1  0  0  0  0
 53 68  1  0  0  0  0
 54 68  1  0  0  0  0
 55 69  1  0  0  0  0
 56 69  1  0  0  0  0
 57 69  1  0  0  0  0
 58 80  1  0  0  0  0
 59 60  1  0  0  0  0
 59 63  1  0  0  0  0
 60 67  1  0  0  0  0
 61 71  1  0  0  0  0
 62 64  1  0  0  0  0
 62 79  1  0  0  0  0
 63 87  1  0  0  0  0
 64 68  1  0  0  0  0
 65 69  1  0  0  0  0
 65 78  1  0  0  0  0
 66 80  1  0  0  0  0
 70 72  1  0  0  0  0
M  CHG  2  79   1  80   1
M  ISO  4  34 100  63 101  64 100  87 101
M  END
> <Batch ID>
0069

> <Smiles>
CCn1c(C(C)(C)CC[101CH2:1][101O:1]c2ccc3c(c2)CN(C(=O)C(NC(=O)C(C)NC)C(C)(C)C)C(C(=O)NC2CCCc4ccccc42)C3)ccc1C(C)(C)[100CH:0](CN)[100C:0](=O)N1CCCC(n2nc(-c3ccc(Oc4ccc(F)cc4F)cc3)c(C(N)=O)c2N)C1

> <Shape>
0.209

> <Color>
0.191

> <Negative vol penalty>
0.000

$$$$

  -OEChem-04052318173D

 89 97  0     1  0  0  0  0  0999 V2000
  -18.9243  -24.3583   24.7500 C   0  0  0  0  0  0  0  0  0  0  0  0
  -20.2048  -24.8975   24.6796 C   0  0  0  0  0  0  0  0  0  0  0  0
  -24.9653  -12.8819   21.5968 C   0  0  0  0  0  0  0  0  0  0  0  0
  -25.4368  -12.8282   19.2279 C   0  0  0  0  0  0  0  0  0  0  0  0
  -18.3820  -23.7060   23.6435 C   0  0  0  0  0  0  0  0  0  0  0  0
  -20.9443  -24.7836   23.5028 C   0  0  0  0  0  0  0  0  0  0  0  0
  -24.8891  -28.8761   21.2233 C   0  0  0  0  0  0  0  0  0  0  0  0
  -24.0269  -11.8629   21.4332 C   0  0  0  0  0  0  0  0  0  0  0  0
  -24.4984  -11.8092   19.0642 C   0  0  0  0  0  0  0  0  0  0  0  0
  -26.2794  -28.9678   21.2740 C   0  0  0  0  0  0  0  0  0  0  0  0
  -21.7677   -9.0271   21.6967 C   0  0  0  0  0  0  0  0  0  0  0  0
  -21.7833   -7.9776   22.6152 C   0  0  0  0  0  0  0  0  0  0  0  0
  -26.4225  -27.8990   19.1161 C   0  0  0  0  0  0  0  0  0  0  0  0
  -29.7400  -25.5523   21.5716 C   0  0  0  0  0  0  0  0  0  0  0  0
  -24.0533   -7.4521   21.9764 C   0  0  0  0  0  0  0  0  0  0  0  0
  -25.6702  -13.3646   20.4942 C   0  0  0  0  0  0  0  0  0  0  0  0
  -28.0120  -14.2733   20.9388 C   0  0  0  0  0  0  0  0  0  0  0  0
  -19.1114  -23.5926   22.4495 C   0  0  0  0  0  0  0  0  0  0  0  0
  -24.2545  -28.2842   20.1218 C   0  0  0  0  0  0  0  0  0  0  0  0
  -20.4118  -24.1280   22.3798 C   0  0  0  0  0  0  0  0  0  0  0  0
  -25.0240  -27.8032   19.0528 C   0  0  0  0  0  0  0  0  0  0  0  0
  -29.7608  -24.2760   21.0373 C   0  0  0  0  0  0  0  0  0  0  0  0
  -23.7935  -11.3265   20.1669 C   0  0  0  0  0  0  0  0  0  0  0  0
  -27.0464  -28.4766   20.2216 C   0  0  0  0  0  0  0  0  0  0  0  0
  -22.8949   -9.2892   20.9179 C   0  0  0  0  0  0  0  0  0  0  0  0
  -22.9260   -7.1901   22.7551 C   0  0  0  0  0  0  0  0  0  0  0  0
  -24.0377   -8.5017   21.0578 C   0  0  0  0  0  0  0  0  0  0  0  0
  -26.6392  -14.4176   20.6625 C   0  0  0  0  0  0  0  0  0  0  0  0
  -30.4478  -26.5391   20.9153 C   0  0  0  0  0  0  0  0  0  0  0  0
  -30.4877  -24.0710   19.8818 C   0  0  0  0  0  0  0  0  0  0  0  0
  -28.4864  -15.5607   21.0031 C   0  0  0  0  0  0  0  0  0  0  0  0
  -28.7889  -13.0822   21.1208 C   0  0  0  0  0  0  0  0  0  0  0  0
  -22.3811  -25.7500   19.7071 C   0  0  0  0  0  0  0  0  0  0  0  0
  -22.1688  -26.8898   16.6775 C   0  0  0  0  0  0  0  0  0  0  0  0
  -23.5512  -28.7658   14.1843 C   0  0  0  0  0  0  0  0  0  0  0  0
  -27.7593  -20.5907   18.4376 C   0  0  0  0  0  0  0  0  0  0  0  0
  -18.5016  -22.8372   21.2953 C   0  0  0  0  0  0  0  0  0  0  0  0
  -22.7528  -28.2170   20.0703 C   0  0  0  0  0  0  0  0  0  0  0  0
  -24.3904  -27.1772   17.8382 C   0  0  0  0  0  0  0  0  0  0  0  0
  -19.2054  -23.0872   19.9639 C   0  0  0  0  0  0  0  0  0  0  0  0
  -26.4357  -19.9975   21.7533 C   0  0  0  0  0  0  0  0  0  0  0  0
  -20.7181  -22.9868   20.1327 C   0  0  0  0  0  0  0  0  0  0  0  0
  -26.4896  -18.4708   21.8336 C   0  0  0  0  0  0  0  0  0  0  0  0
  -26.0528  -20.4642   20.3520 C   0  0  0  0  0  0  0  0  0  0  0  0
  -26.9874  -18.4178   19.3458 C   0  0  0  0  0  0  0  0  0  0  0  0
  -21.2354  -24.0466   21.1129 C   0  0  1  0  0  0  0  0  0  0  0  0
  -22.2351  -27.1307   19.1325 C   0  0  1  0  0  0  0  0  0  0  0  0
  -27.3913  -17.8832   20.7319 C   0  0  2  0  0  0  0  0  0  0  0  0
  -29.0132  -23.1750   21.7063 C   0  0  0  0  0  0  0  0  0  0  0  0
  -31.9812  -22.1157   19.3502 C   0  0  0  0  0  0  0  0  0  0  0  0
  -23.1645  -29.4780   11.8093 C   0  0  0  0  0  0  0  0  0  0  0  0
  -30.8144  -23.3711   16.7391 C   0  0  0  0  0  0  0  0  0  0  0  0
  -31.2969  -28.9617   20.6175 C   0  0  0  0  0  0  0  0  0  0  0  0
  -31.0751  -27.9691   22.8853 C   0  0  0  0  0  0  0  0  0  0  0  0
  -23.0321  -24.1274   15.7112 C   0  0  0  0  0  0  0  0  0  0  0  0
  -23.5426  -25.1439   13.4808 C   0  0  0  0  0  0  0  0  0  0  0  0
  -21.2093  -25.1819   14.3622 C   0  0  0  0  0  0  0  0  0  0  0  0
  -28.0844  -24.2959   17.9913 C   0  0  0  0  0  0  0  0  0  0  0  0
  -27.9715  -22.6063   16.1804 C   0  0  0  0  0  0  0  0  0  0  0  0
  -23.4479  -31.6263   14.9367 C   0  0  0  0  0  0  0  0  0  0  0  0
  -29.0123  -28.5284   21.5590 C   0  0  0  0  0  0  0  0  0  1  0  0
  -30.5568  -22.7222   19.2492 C   0  0  2  0  0  0  0  0  0  0  0  0
  -22.9519  -26.6895   15.4025 C   0  0  1  0  0  0  0  0  0  0  0  0
  -22.9581  -29.8269   13.2750 C   0  0  2  0  0  0  0  0  0  0  0  0
  -29.9890  -22.5820   17.7736 C   0  0  1  0  0  0  0  0  0  0  0  0
  -30.4586  -27.9768   21.4675 C   0  0  0  0  0  0  0  0  0  0  0  0
  -22.6963  -25.2957   14.7628 C   0  0  0  0  0  0  0  0  0  0  0  0
  -28.4366  -22.8378   17.6319 C   0  0  0  0  0  0  0  0  0  0  0  0
  -26.2656  -15.6957   20.5586 N   0  0  0  0  0  0  0  0  0  0  0  0
  -31.1507  -26.3100   19.7859 N   0  0  0  0  0  0  0  0  0  0  0  0
  -31.1708  -25.0556   19.2606 N   0  0  0  0  0  0  0  0  0  0  0  0
  -27.4107  -16.3664   20.7709 N   0  0  0  0  0  0  0  0  0  0  0  0
  -22.9189  -27.1289   17.8377 N   0  0  0  0  0  0  0  0  0  0  0  0
  -26.9609  -19.8842   19.3524 N   0  0  0  0  0  0  0  0  0  0  0  0
  -29.7145  -16.0707   21.2353 N   0  0  0  0  0  0  0  0  0  0  0  0
  -28.1437  -11.8419   21.0213 N   0  0  0  0  0  0  0  0  0  0  0  0
  -21.3032  -25.3407   20.4686 N   0  0  0  0  0  0  0  0  0  0  0  0
  -22.6170  -27.8149   14.5367 N   0  0  0  0  0  0  0  0  0  0  0  0
  -27.6709  -21.9758   18.5047 N   0  0  0  0  0  0  0  0  0  0  0  0
  -23.5944  -31.1487   13.5376 N   0  3  0  0  0  0  0  0  0  0  0  0
  -30.0156  -13.1169   21.3808 O   0  0  0  0  0  0  0  0  0  0  0  0
  -23.3959  -25.1034   19.4753 O   0  0  0  0  0  0  0  0  0  0  0  0
  -20.9366  -26.8432   16.6440 O   0  0  0  0  0  0  0  0  0  0  0  0
  -24.7267  -28.7772   14.5428 O   0  0  0  0  0  0  0  0  0  0  0  0
  -28.5007  -20.0287   17.6243 O   0  0  0  0  0  0  0  0  0  0  0  0
  -22.8782  -10.3320   20.0069 O   0  0  0  0  0  0  0  0  0  0  0  0
  -28.4036  -28.5644   20.2688 O   0  0  0  0  0  0  0  0  0  1  0  0
  -22.9414   -6.1832   23.6384 F   0  0  0  0  0  0  0  0  0  0  0  0
  -25.1240   -8.7493   20.3132 F   0  0  0  0  0  0  0  0  0  0  0  0
  1  2  1  0  0  0  0
  1  5  2  0  0  0  0
  2  6  2  0  0  0  0
  3  8  2  0  0  0  0
  3 16  1  0  0  0  0
  4  9  1  0  0  0  0
  4 16  2  0  0  0  0
  5 18  1  0  0  0  0
  6 20  1  0  0  0  0
  7 10  2  0  0  0  0
  7 19  1  0  0  0  0
  8 23  1  0  0  0  0
  9 23  2  0  0  0  0
 10 24  1  0  0  0  0
 11 12  2  0  0  0  0
 11 25  1  0  0  0  0
 12 26  1  0  0  0  0
 13 21  1  0  0  0  0
 13 24  2  0  0  0  0
 14 22  2  0  0  0  0
 14 29  1  0  0  0  0
 15 26  2  0  0  0  0
 15 27  1  0  0  0  0
 16 28  1  0  0  0  0
 17 28  1  0  0  0  0
 17 31  2  0  0  0  0
 17 32  1  0  0  0  0
 18 20  2  0  0  0  0
 18 37  1  0  0  0  0
 19 21  2  0  0  0  0
 19 38  1  0  0  0  0
 20 46  1  0  0  0  0
 21 39  1  0  0  0  0
 22 30  1  0  0  0  0
 22 49  1  0  0  0  0
 23 86  1  0  0  0  0
 24 87  1  0  0  0  0
 25 27  2  0  0  0  0
 25 86  1  0  0  0  0
 26 88  1  0  0  0  0
 27 89  1  0  0  0  0
 28 69  2  0  0  0  0
 29 66  1  0  0  0  0
 29 70  2  0  0  0  0
 30 62  1  0  0  0  0
 30 71  2  0  0  0  0
 31 72  1  0  0  0  0
 31 75  1  0  0  0  0
 32 76  1  0  0  0  0
 32 81  2  0  0  0  0
 33 47  1  0  0  0  0
 33 77  1  0  0  0  0
 33 82  2  0  0  0  0
 34 63  1  0  0  0  0
 34 73  1  0  0  0  0
 34 83  2  0  0  0  0
 35 64  1  0  0  0  0
 35 78  1  0  0  0  0
 35 84  2  0  0  0  0
 36 74  1  0  0  0  0
 36 79  1  0  0  0  0
 36 85  2  0  0  0  0
 37 40  1  0  0  0  0
 38 47  1  0  0  0  0
 39 73  1  0  0  0  0
 40 42  1  0  0  0  0
 41 43  1  0  0  0  0
 41 44  1  0  0  0  0
 42 46  1  0  0  0  0
 43 48  1  0  0  0  0
 44 74  1  0  0  0  0
 45 48  1  0  0  0  0
 45 74  1  0  0  0  0
 46 77  1  0  0  0  0
 47 73  1  0  0  0  0
 48 72  1  0  0  0  0
 50 62  1  0  0  0  0
 51 64  1  0  0  0  0
 52 65  1  0  0  0  0
 53 66  1  0  0  0  0
 54 66  1  0  0  0  0
 55 67  1  0  0  0  0
 56 67  1  0  0  0  0
 57 67  1  0  0  0  0
 58 68  1  0  0  0  0
 59 68  1  0  0  0  0
 60 80  1  0  0  0  0
 61 66  1  0  0  0  0
 61 87  1  0  0  0  0
 62 65  1  0  0  0  0
 63 67  1  0  0  0  0
 63 78  1  0  0  0  0
 64 80  1  0  0  0  0
 65 68  1  0  0  0  0
 68 79  1  0  0  0  0
 69 72  1  0  0  0  0
 70 71  1  0  0  0  0
M  CHG  1  80   1
M  ISO  4  36 100  61 101  79 100  87 101
M  END
> <Batch ID>
0069

> <Smiles>
CNC(C)C(=O)NC(C(=O)N1Cc2cc([101O:1][101CH2:1]C(C)(C)c3cc(C)c(C(C)C(C)C(C)(C)[100NH:0][100C:0](=O)N4CCCC(n5nc(-c6ccc(Oc7ccc(F)cc7F)cc6)c(C(N)=O)c5N)C4)nn3)ccc2CC1C(=O)NC1CCCc2ccccc21)C(C)(C)C

> <Shape>
0.221

> <Color>
0.056

> <Negative vol penalty>
0.000

$$$$

  -OEChem-04052318173D

 84 92  0     1  0  0  0  0  0999 V2000
  -24.4421  -16.5430   13.8245 C   0  0  0  0  0  0  0  0  0  0  0  0
  -25.2401  -15.9706   14.8086 C   0  0  0  0  0  0  0  0  0  0  0  0
  -27.2340  -28.3465   20.4512 C   0  0  0  0  0  0  0  0  0  0  0  0
  -25.6846  -26.5489   19.9986 C   0  0  0  0  0  0  0  0  0  0  0  0
  -23.1187  -16.8721   14.1098 C   0  0  0  0  0  0  0  0  0  0  0  0
  -24.7116  -15.7163   16.0747 C   0  0  0  0  0  0  0  0  0  0  0  0
  -27.5500  -13.2159   19.2203 C   0  0  0  0  0  0  0  0  0  0  0  0
  -26.1911  -29.2683   20.3606 C   0  0  0  0  0  0  0  0  0  0  0  0
  -24.6416  -27.4706   19.9081 C   0  0  0  0  0  0  0  0  0  0  0  0
  -28.6765  -13.7721   19.8247 C   0  0  0  0  0  0  0  0  0  0  0  0
  -23.6554  -30.3603   22.3126 C   0  0  0  0  0  0  0  0  0  0  0  0
  -23.5792  -31.3512   23.2913 C   0  0  0  0  0  0  0  0  0  0  0  0
  -27.4382  -14.0333   21.8784 C   0  0  0  0  0  0  0  0  0  0  0  0
  -23.7967  -33.0505   21.5877 C   0  0  0  0  0  0  0  0  0  0  0  0
  -30.0097  -19.5375   20.8558 C   0  0  0  0  0  0  0  0  0  0  0  0
  -28.3390  -17.9051   20.8321 C   0  0  0  0  0  0  0  0  0  0  0  0
  -26.9808  -26.9868   20.2701 C   0  0  0  0  0  0  0  0  0  0  0  0
  -28.8865  -25.7936   21.4753 C   0  0  0  0  0  0  0  0  0  0  0  0
  -22.5781  -16.6328   15.3839 C   0  0  0  0  0  0  0  0  0  0  0  0
  -26.3539  -13.0740   19.9384 C   0  0  0  0  0  0  0  0  0  0  0  0
  -23.3712  -16.0193   16.3749 C   0  0  0  0  0  0  0  0  0  0  0  0
  -26.2987  -13.4727   21.2815 C   0  0  0  0  0  0  0  0  0  0  0  0
  -29.5512  -18.3283   21.3377 C   0  0  0  0  0  0  0  0  0  0  0  0
  -24.8949  -28.8304   20.0891 C   0  0  0  0  0  0  0  0  0  0  0  0
  -28.6199  -14.1836   21.1531 C   0  0  0  0  0  0  0  0  0  0  0  0
  -23.8023  -30.7145   20.9715 C   0  0  0  0  0  0  0  0  0  0  0  0
  -23.6499  -32.6963   22.9289 C   0  0  0  0  0  0  0  0  0  0  0  0
  -23.8729  -32.0596   20.6090 C   0  0  0  0  0  0  0  0  0  0  0  0
  -28.0578  -26.0342   20.3629 C   0  0  0  0  0  0  0  0  0  0  0  0
  -29.7426  -24.8039   21.0581 C   0  0  0  0  0  0  0  0  0  0  0  0
  -28.1745  -19.7637   19.5338 C   0  0  0  0  0  0  0  0  0  0  0  0
  -28.8826  -26.4097   22.7699 C   0  0  0  0  0  0  0  0  0  0  0  0
  -23.4075  -14.2285   19.6390 C   0  0  0  0  0  0  0  0  0  0  0  0
  -22.7836  -12.2041   22.0956 C   0  0  0  0  0  0  0  0  0  0  0  0
  -29.2395  -20.5964   16.7972 C   0  0  0  0  0  0  0  0  0  0  0  0
  -23.9639  -10.4443   24.7708 C   0  0  0  0  0  0  0  0  0  0  0  0
  -21.1374  -17.0014   15.6360 C   0  0  0  0  0  0  0  0  0  0  0  0
  -25.1554  -12.4475   19.2799 C   0  0  0  0  0  0  0  0  0  0  0  0
  -25.0446  -13.3234   22.1022 C   0  0  0  0  0  0  0  0  0  0  0  0
  -20.8012  -17.1052   17.1201 C   0  0  0  0  0  0  0  0  0  0  0  0
  -31.8258  -23.0538   17.1319 C   0  0  0  0  0  0  0  0  0  0  0  0
  -21.2991  -15.8688   17.8535 C   0  0  0  0  0  0  0  0  0  0  0  0
  -31.2172  -24.0890   18.0769 C   0  0  0  0  0  0  0  0  0  0  0  0
  -30.7699  -22.4483   16.2122 C   0  0  0  0  0  0  0  0  0  0  0  0
  -28.9952  -22.8854   17.8799 C   0  0  0  0  0  0  0  0  0  0  0  0
  -22.8269  -15.7616   17.7683 C   0  0  1  0  0  0  0  0  0  0  0  0
  -23.8390  -12.8239   19.9529 C   0  0  1  0  0  0  0  0  0  0  0  0
  -30.0226  -23.4994   18.8473 C   0  0  2  0  0  0  0  0  0  0  0  0
  -25.8755  -20.4853   18.7801 C   0  0  0  0  0  0  0  0  0  0  0  0
  -23.2088   -8.9112   26.6085 C   0  0  0  0  0  0  0  0  0  0  0  0
  -26.9743  -21.1461   16.0237 C   0  0  0  0  0  0  0  0  0  0  0  0
  -27.6104  -18.8094   16.6588 C   0  0  0  0  0  0  0  0  0  0  0  0
  -21.6014  -14.5853   23.5931 C   0  0  0  0  0  0  0  0  0  0  0  0
  -21.7460  -13.2424   25.7011 C   0  0  0  0  0  0  0  0  0  0  0  0
  -20.3035  -12.4599   23.8224 C   0  0  0  0  0  0  0  0  0  0  0  0
  -25.7017   -8.2492   23.8115 C   0  0  0  0  0  0  0  0  0  0  0  0
  -30.3236  -17.5238   22.3525 C   0  0  0  0  0  0  0  0  0  0  0  0
  -31.3044  -16.5271   21.7310 C   0  0  0  0  0  0  0  0  0  0  0  0
  -30.6216  -15.4436   20.9046 C   0  0  0  0  0  0  0  0  0  1  0  0
  -27.4078  -20.5618   18.5345 C   0  0  2  0  0  0  0  0  0  0  0  0
  -22.8174  -12.3077   23.6013 C   0  0  1  0  0  0  0  0  0  0  0  0
  -23.7626   -9.0007   25.1950 C   0  0  2  0  0  0  0  0  0  0  0  0
  -27.7783  -20.2966   17.0187 C   0  0  0  0  0  0  0  0  0  0  0  0
  -21.6403  -13.1535   24.1637 C   0  0  0  0  0  0  0  0  0  0  0  0
  -29.3446  -20.2842   19.9501 N   0  0  0  0  0  0  0  0  0  0  0  0
  -27.6209  -18.6003   19.9258 N   0  0  0  0  0  0  0  0  0  0  0  0
  -28.3603  -25.2598   19.3176 N   0  0  0  0  0  0  0  0  0  0  0  0
  -29.3887  -24.5230   19.7712 N   0  0  0  0  0  0  0  0  0  0  0  0
  -23.8976  -12.7110   21.4117 N   0  0  0  0  0  0  0  0  0  0  0  0
  -29.6417  -21.9194   16.9807 N   0  0  0  0  0  0  0  0  0  0  0  0
  -30.7561  -24.1554   21.6701 N   0  0  0  0  0  0  0  0  0  0  0  0
  -28.0904  -25.8425   23.7774 N   0  0  0  0  0  0  0  0  0  0  0  0
  -23.2399  -14.4774   18.2902 N   0  0  0  0  0  0  0  0  0  0  0  0
  -22.8631  -10.9388   24.1037 N   0  0  0  0  0  0  0  0  0  0  0  0
  -25.0564   -8.2623   25.1495 N   0  3  0  0  0  0  0  0  0  0  0  0
  -29.5489  -27.4424   23.0212 O   0  0  0  0  0  0  0  0  0  0  0  0
  -23.2376  -15.0268   20.5531 O   0  0  0  0  0  0  0  0  0  0  0  0
  -21.8079  -11.6857   21.5469 O   0  0  0  0  0  0  0  0  0  0  0  0
  -29.9997  -19.6801   16.4736 O   0  0  0  0  0  0  0  0  0  0  0  0
  -24.9930  -11.0718   25.0108 O   0  0  0  0  0  0  0  0  0  0  0  0
  -23.8769  -29.7295   20.0009 O   0  0  0  0  0  0  0  0  0  0  0  0
  -29.7179  -14.7274   21.7452 O   0  0  0  0  0  0  0  0  0  1  0  0
  -23.5752  -33.6478   23.8687 F   0  0  0  0  0  0  0  0  0  0  0  0
  -24.0128  -32.4060   19.3221 F   0  0  0  0  0  0  0  0  0  0  0  0
  1  2  1  0  0  0  0
  1  5  2  0  0  0  0
  2  6  2  0  0  0  0
  3  8  2  0  0  0  0
  3 17  1  0  0  0  0
  4  9  1  0  0  0  0
  4 17  2  0  0  0  0
  5 19  1  0  0  0  0
  6 21  1  0  0  0  0
  7 10  2  0  0  0  0
  7 20  1  0  0  0  0
  8 24  1  0  0  0  0
  9 24  2  0  0  0  0
 10 25  1  0  0  0  0
 11 12  2  0  0  0  0
 11 26  1  0  0  0  0
 12 27  1  0  0  0  0
 13 22  1  0  0  0  0
 13 25  2  0  0  0  0
 14 27  2  0  0  0  0
 14 28  1  0  0  0  0
 15 23  1  0  0  0  0
 15 65  2  0  0  0  0
 16 23  2  0  0  0  0
 16 66  1  0  0  0  0
 17 29  1  0  0  0  0
 18 29  1  0  0  0  0
 18 30  2  0  0  0  0
 18 32  1  0  0  0  0
 19 21  2  0  0  0  0
 19 37  1  0  0  0  0
 20 22  2  0  0  0  0
 20 38  1  0  0  0  0
 21 46  1  0  0  0  0
 22 39  1  0  0  0  0
 23 57  1  0  0  0  0
 24 81  1  0  0  0  0
 25 82  1  0  0  0  0
 26 28  2  0  0  0  0
 26 81  1  0  0  0  0
 27 83  1  0  0  0  0
 28 84  1  0  0  0  0
 29 67  2  0  0  0  0
 30 68  1  0  0  0  0
 30 71  1  0  0  0  0
 31 60  1  0  0  0  0
 31 65  1  0  0  0  0
 31 66  2  0  0  0  0
 32 72  1  0  0  0  0
 32 76  2  0  0  0  0
 33 47  1  0  0  0  0
 33 73  1  0  0  0  0
 33 77  2  0  0  0  0
 34 61  1  0  0  0  0
 34 69  1  0  0  0  0
 34 78  2  0  0  0  0
 35 63  1  0  0  0  0
 35 70  1  0  0  0  0
 35 79  2  0  0  0  0
 36 62  1  0  0  0  0
 36 74  1  0  0  0  0
 36 80  2  0  0  0  0
 37 40  1  0  0  0  0
 38 47  1  0  0  0  0
 39 69  1  0  0  0  0
 40 42  1  0  0  0  0
 41 43  1  0  0  0  0
 41 44  1  0  0  0  0
 42 46  1  0  0  0  0
 43 48  1  0  0  0  0
 44 70  1  0  0  0  0
 45 48  1  0  0  0  0
 45 70  1  0  0  0  0
 46 73  1  0  0  0  0
 47 69  1  0  0  0  0
 48 68  1  0  0  0  0
 49 60  1  0  0  0  0
 50 62  1  0  0  0  0
 51 63  1  0  0  0  0
 52 63  1  0  0  0  0
 53 64  1  0  0  0  0
 54 64  1  0  0  0  0
 55 64  1  0  0  0  0
 56 75  1  0  0  0  0
 57 58  1  0  0  0  0
 58 59  1  0  0  0  0
 59 82  1  0  0  0  0
 60 63  1  0  0  0  0
 61 64  1  0  0  0  0
 61 74  1  0  0  0  0
 62 75  1  0  0  0  0
 67 68  1  0  0  0  0
M  CHG  1  75   1
M  ISO  4  35 100  59 101  63 100  82 101
M  END
> <Batch ID>
0069

> <Smiles>
CNC(C)C(=O)NC(C(=O)N1Cc2cc([101O:1][101CH2:1]CCc3cnc(C(C)[100C:0](C)(C)[100C:0](=O)N4CCCC(n5nc(-c6ccc(Oc7ccc(F)cc7F)cc6)c(C(N)=O)c5N)C4)nc3)ccc2CC1C(=O)NC1CCCc2ccccc21)C(C)(C)C

> <Shape>
0.234

> <Color>
0.060

> <Negative vol penalty>
0.000

$$$$

  -OEChem-04052318172D

  0  0  0     0  0  0  0  0  0999 V2000
M  END
$$$$

  -OEChem-04052318173D

 86 94  0     1  0  0  0  0  0999 V2000
  -18.6162  -21.8321   23.2595 C   0  0  0  0  0  0  0  0  0  0  0  0
  -19.9688  -21.5114   23.2037 C   0  0  0  0  0  0  0  0  0  0  0  0
  -27.8262  -13.2370   20.1477 C   0  0  0  0  0  0  0  0  0  0  0  0
  -26.4840  -13.3294   22.1545 C   0  0  0  0  0  0  0  0  0  0  0  0
  -18.1631  -23.0342   22.7177 C   0  0  0  0  0  0  0  0  0  0  0  0
  -20.8689  -22.3921   22.6050 C   0  0  0  0  0  0  0  0  0  0  0  0
  -26.6686  -23.4294   24.2761 C   0  0  0  0  0  0  0  0  0  0  0  0
  -27.4509  -11.9070   19.9579 C   0  0  0  0  0  0  0  0  0  0  0  0
  -26.1086  -11.9995   21.9646 C   0  0  0  0  0  0  0  0  0  0  0  0
  -27.8844  -22.9467   23.7938 C   0  0  0  0  0  0  0  0  0  0  0  0
  -23.9226  -10.2797   20.0452 C   0  0  0  0  0  0  0  0  0  0  0  0
  -22.5754   -9.9583   20.2103 C   0  0  0  0  0  0  0  0  0  0  0  0
  -28.1174  -24.9190   22.4245 C   0  0  0  0  0  0  0  0  0  0  0  0
  -23.1596   -8.4173   21.9770 C   0  0  0  0  0  0  0  0  0  0  0  0
  -27.7618  -19.5208   19.3268 C   0  0  0  0  0  0  0  0  0  0  0  0
  -27.3428  -13.9481   21.2460 C   0  0  0  0  0  0  0  0  0  0  0  0
  -29.0356  -15.8200   21.6181 C   0  0  0  0  0  0  0  0  0  0  0  0
  -19.0595  -23.9345   22.1206 C   0  0  0  0  0  0  0  0  0  0  0  0
  -26.1620  -24.6576   23.8273 C   0  0  0  0  0  0  0  0  0  0  0  0
  -20.4271  -23.6067   22.0534 C   0  0  0  0  0  0  0  0  0  0  0  0
  -26.8962  -25.4163   22.9046 C   0  0  0  0  0  0  0  0  0  0  0  0
  -26.5921  -11.2883   20.8664 C   0  0  0  0  0  0  0  0  0  0  0  0
  -28.6076  -23.6901   22.8657 C   0  0  0  0  0  0  0  0  0  0  0  0
  -24.8884   -9.6699   20.8459 C   0  0  0  0  0  0  0  0  0  0  0  0
  -22.1939   -9.0271   21.1762 C   0  0  0  0  0  0  0  0  0  0  0  0
  -24.5068   -8.7387   21.8118 C   0  0  0  0  0  0  0  0  0  0  0  0
  -27.7307  -15.3218   21.4430 C   0  0  0  0  0  0  0  0  0  0  0  0
  -26.8614  -20.2106   18.5452 C   0  0  0  0  0  0  0  0  0  0  0  0
  -29.1363  -21.3481   19.3563 C   0  0  0  0  0  0  0  0  0  0  0  0
  -28.2364  -22.0378   18.5741 C   0  0  0  0  0  0  0  0  0  0  0  0
  -28.8691  -17.1755   21.7633 C   0  0  0  0  0  0  0  0  0  0  0  0
  -30.2866  -15.1199   21.6467 C   0  0  0  0  0  0  0  0  0  0  0  0
  -23.5512  -25.5690   22.2599 C   0  0  0  0  0  0  0  0  0  0  0  0
  -24.6928  -28.5424   22.8747 C   0  0  0  0  0  0  0  0  0  0  0  0
  -24.5143  -20.9000   19.9531 C   0  0  0  0  0  0  0  0  0  0  0  0
  -27.3788  -30.5260   23.5800 C   0  0  0  0  0  0  0  0  0  0  0  0
  -18.5160  -25.2002   21.5064 C   0  0  0  0  0  0  0  0  0  0  0  0
  -24.8620  -25.1769   24.3774 C   0  0  0  0  0  0  0  0  0  0  0  0
  -26.4059  -26.7504   22.4064 C   0  0  0  0  0  0  0  0  0  0  0  0
  -19.5883  -26.2491   21.2233 C   0  0  0  0  0  0  0  0  0  0  0  0
  -25.7214  -20.4266   23.2936 C   0  0  0  0  0  0  0  0  0  0  0  0
  -20.7919  -25.6104   20.5375 C   0  0  0  0  0  0  0  0  0  0  0  0
  -26.4678  -19.0951   23.2202 C   0  0  0  0  0  0  0  0  0  0  0  0
  -24.4989  -20.4323   22.3811 C   0  0  0  0  0  0  0  0  0  0  0  0
  -25.5492  -18.7691   20.8804 C   0  0  0  0  0  0  0  0  0  0  0  0
  -21.4380  -24.5475   21.4343 C   0  0  1  0  0  0  0  0  0  0  0  0
  -24.1923  -26.1989   23.4639 C   0  0  1  0  0  0  0  0  0  0  0  0
  -26.8086  -18.7319   21.7641 C   0  0  2  0  0  0  0  0  0  0  0  0
  -27.2495  -24.1120   17.5689 C   0  0  0  0  0  0  0  0  0  0  0  0
  -25.5664  -19.3322   16.5640 C   0  0  0  0  0  0  0  0  0  0  0  0
  -28.6395  -32.6096   24.1853 C   0  0  0  0  0  0  0  0  0  0  0  0
  -23.0973  -19.2551   18.8052 C   0  0  0  0  0  0  0  0  0  0  0  0
  -23.8142  -21.3755   17.6837 C   0  0  0  0  0  0  0  0  0  0  0  0
  -24.4705  -29.1100   19.8850 C   0  0  0  0  0  0  0  0  0  0  0  0
  -25.9596  -31.0942   20.2219 C   0  0  0  0  0  0  0  0  0  0  0  0
  -23.7428  -30.9930   21.3613 C   0  0  0  0  0  0  0  0  0  0  0  0
  -27.0735  -30.0081   26.4778 C   0  0  0  0  0  0  0  0  0  0  0  0
  -30.4237  -21.9823   19.8189 C   0  0  0  0  0  0  0  0  0  0  0  0
  -28.4935  -23.4430   18.1487 C   0  0  0  0  0  0  0  0  0  0  0  0
  -30.9061  -21.4750   21.1796 C   0  0  0  0  0  0  0  0  0  0  0  0
  -29.9501  -21.8044   22.3202 C   0  0  0  0  0  0  0  0  0  1  0  0
  -25.5962  -19.5642   18.1010 C   0  0  2  0  0  0  0  0  0  0  0  0
  -25.6186  -29.5001   22.1644 C   0  0  1  0  0  0  0  0  0  0  0  0
  -27.5867  -31.6052   24.6272 C   0  0  2  0  0  0  0  0  0  0  0  0
  -24.2614  -20.2395   18.6212 C   0  0  0  0  0  0  0  0  0  0  0  0
  -24.9565  -30.1483   20.9159 C   0  0  0  0  0  0  0  0  0  0  0  0
  -28.9154  -20.0771   19.7465 N   0  0  0  0  0  0  0  0  0  0  0  0
  -26.8034  -16.2827   21.4740 N   0  0  0  0  0  0  0  0  0  0  0  0
  -27.0825  -21.4815   18.1548 N   0  0  0  0  0  0  0  0  0  0  0  0
  -27.5267  -17.3982   21.6704 N   0  0  0  0  0  0  0  0  0  0  0  0
  -25.1263  -27.2124   22.9692 N   0  0  0  0  0  0  0  0  0  0  0  0
  -24.8606  -20.0606   21.0121 N   0  0  0  0  0  0  0  0  0  0  0  0
  -29.7413  -18.1868   21.9603 N   0  0  0  0  0  0  0  0  0  0  0  0
  -30.7610  -14.6497   22.8789 N   0  0  0  0  0  0  0  0  0  0  0  0
  -22.2425  -25.1738   22.4613 N   0  0  0  0  0  0  0  0  0  0  0  0
  -26.0640  -30.4587   23.1700 N   0  0  0  0  0  0  0  0  0  0  0  0
  -28.0269  -30.9989   25.9154 N   0  3  0  0  0  0  0  0  0  0  0  0
  -30.9716  -14.9318   20.6129 O   0  0  0  0  0  0  0  0  0  0  0  0
  -24.1957  -25.4515   21.2242 O   0  0  0  0  0  0  0  0  0  0  0  0
  -23.6275  -28.9604   23.3352 O   0  0  0  0  0  0  0  0  0  0  0  0
  -24.4096  -22.1257   20.0467 O   0  0  0  0  0  0  0  0  0  0  0  0
  -28.2921  -29.8164   23.1643 O   0  0  0  0  0  0  0  0  0  0  0  0
  -26.2254   -9.9907   20.6813 O   0  0  0  0  0  0  0  0  0  0  0  0
  -29.7943  -23.2210   22.3928 O   0  0  0  0  0  0  0  0  0  1  0  0
  -20.9000   -8.7197   21.3357 F   0  0  0  0  0  0  0  0  0  0  0  0
  -25.4300   -8.1505   22.5849 F   0  0  0  0  0  0  0  0  0  0  0  0
  1  2  1  0  0  0  0
  1  5  2  0  0  0  0
  2  6  2  0  0  0  0
  3  8  2  0  0  0  0
  3 16  1  0  0  0  0
  4  9  1  0  0  0  0
  4 16  2  0  0  0  0
  5 18  1  0  0  0  0
  6 20  1  0  0  0  0
  7 10  2  0  0  0  0
  7 19  1  0  0  0  0
  8 22  1  0  0  0  0
  9 22  2  0  0  0  0
 10 23  1  0  0  0  0
 11 12  2  0  0  0  0
 11 24  1  0  0  0  0
 12 25  1  0  0  0  0
 13 21  1  0  0  0  0
 13 23  2  0  0  0  0
 14 25  2  0  0  0  0
 14 26  1  0  0  0  0
 15 28  1  0  0  0  0
 15 67  2  0  0  0  0
 16 27  1  0  0  0  0
 17 27  1  0  0  0  0
 17 31  2  0  0  0  0
 17 32  1  0  0  0  0
 18 20  2  0  0  0  0
 18 37  1  0  0  0  0
 19 21  2  0  0  0  0
 19 38  1  0  0  0  0
 20 46  1  0  0  0  0
 21 39  1  0  0  0  0
 22 83  1  0  0  0  0
 23 84  1  0  0  0  0
 24 26  2  0  0  0  0
 24 83  1  0  0  0  0
 25 85  1  0  0  0  0
 26 86  1  0  0  0  0
 27 68  2  0  0  0  0
 28 62  1  0  0  0  0
 28 69  2  0  0  0  0
 29 30  2  0  0  0  0
 29 58  1  0  0  0  0
 29 67  1  0  0  0  0
 30 59  1  0  0  0  0
 30 69  1  0  0  0  0
 31 70  1  0  0  0  0
 31 73  1  0  0  0  0
 32 74  1  0  0  0  0
 32 78  2  0  0  0  0
 33 47  1  0  0  0  0
 33 75  1  0  0  0  0
 33 79  2  0  0  0  0
 34 63  1  0  0  0  0
 34 71  1  0  0  0  0
 34 80  2  0  0  0  0
 35 65  1  0  0  0  0
 35 72  1  0  0  0  0
 35 81  2  0  0  0  0
 36 64  1  0  0  0  0
 36 76  1  0  0  0  0
 36 82  2  0  0  0  0
 37 40  1  0  0  0  0
 38 47  1  0  0  0  0
 39 71  1  0  0  0  0
 40 42  1  0  0  0  0
 41 43  1  0  0  0  0
 41 44  1  0  0  0  0
 42 46  1  0  0  0  0
 43 48  1  0  0  0  0
 44 72  1  0  0  0  0
 45 48  1  0  0  0  0
 45 72  1  0  0  0  0
 46 75  1  0  0  0  0
 47 71  1  0  0  0  0
 48 70  1  0  0  0  0
 49 59  1  0  0  0  0
 50 62  1  0  0  0  0
 51 64  1  0  0  0  0
 52 65  1  0  0  0  0
 53 65  1  0  0  0  0
 54 66  1  0  0  0  0
 55 66  1  0  0  0  0
 56 66  1  0  0  0  0
 57 77  1  0  0  0  0
 58 60  1  0  0  0  0
 60 61  1  0  0  0  0
 61 84  1  0  0  0  0
 62 65  1  0  0  0  0
 63 66  1  0  0  0  0
 63 76  1  0  0  0  0
 64 77  1  0  0  0  0
 68 70  1  0  0  0  0
M  CHG  1  77   1
M  ISO  4  35 100  61 101  65 100  84 101
M  END
> <Batch ID>
0069

> <Smiles>
CCc1nc(C(C)[100C:0](C)(C)[100C:0](=O)N2CCCC(n3nc(-c4ccc(Oc5ccc(F)cc5F)cc4)c(C(N)=O)c3N)C2)cnc1CC[101CH2:1][101O:1]c1ccc2c(c1)CN(C(=O)C(NC(=O)C(C)NC)C(C)(C)C)C(C(=O)NC1CCCc3ccccc31)C2

> <Shape>
0.209

> <Color>
0.054

> <Negative vol penalty>
0.000

$$$$

  -OEChem-04052318173D

 85 93  0     1  0  0  0  0  0999 V2000
  -16.8336  -29.5295   24.3941 C   0  0  0  0  0  0  0  0  0  0  0  0
  -17.1782  -28.4701   23.5608 C   0  0  0  0  0  0  0  0  0  0  0  0
  -28.7626  -17.6862   21.2717 C   0  0  0  0  0  0  0  0  0  0  0  0
  -30.6338  -18.7904   22.3284 C   0  0  0  0  0  0  0  0  0  0  0  0
  -17.5805  -30.7065   24.3684 C   0  0  0  0  0  0  0  0  0  0  0  0
  -18.2693  -28.5876   22.7005 C   0  0  0  0  0  0  0  0  0  0  0  0
  -22.1492  -24.1468   21.0478 C   0  0  0  0  0  0  0  0  0  0  0  0
  -29.2046  -16.4605   21.7696 C   0  0  0  0  0  0  0  0  0  0  0  0
  -31.0758  -17.5647   22.8263 C   0  0  0  0  0  0  0  0  0  0  0  0
  -22.2209  -23.3376   19.9148 C   0  0  0  0  0  0  0  0  0  0  0  0
  -30.0405  -12.9902   22.4636 C   0  0  0  0  0  0  0  0  0  0  0  0
  -30.0473  -11.8996   21.5940 C   0  0  0  0  0  0  0  0  0  0  0  0
  -23.8263  -24.8525   18.9417 C   0  0  0  0  0  0  0  0  0  0  0  0
  -31.5733  -13.0733   20.1342 C   0  0  0  0  0  0  0  0  0  0  0  0
  -26.3292  -21.7407   14.5593 C   0  0  0  0  0  0  0  0  0  0  0  0
  -29.4772  -18.8511   21.5510 C   0  0  0  0  0  0  0  0  0  0  0  0
  -28.1379  -21.0196   21.6588 C   0  0  0  0  0  0  0  0  0  0  0  0
  -18.6871  -30.8349   23.5142 C   0  0  0  0  0  0  0  0  0  0  0  0
  -22.9086  -25.3227   21.1318 C   0  0  0  0  0  0  0  0  0  0  0  0
  -19.0308  -29.7679   22.6623 C   0  0  0  0  0  0  0  0  0  0  0  0
  -23.7644  -25.6736   20.0780 C   0  0  0  0  0  0  0  0  0  0  0  0
  -30.3612  -16.3998   22.5469 C   0  0  0  0  0  0  0  0  0  0  0  0
  -23.0574  -23.6919   18.8603 C   0  0  0  0  0  0  0  0  0  0  0  0
  -30.7999  -14.1224   22.1685 C   0  0  0  0  0  0  0  0  0  0  0  0
  -30.8138  -11.9411   20.4293 C   0  0  0  0  0  0  0  0  0  0  0  0
  -31.5664  -14.1639   21.0038 C   0  0  0  0  0  0  0  0  0  0  0  0
  -29.0214  -20.1175   21.0364 C   0  0  0  0  0  0  0  0  0  0  0  0
  -27.6454  -21.4518   14.7852 C   0  0  0  0  0  0  0  0  0  0  0  0
  -28.0270  -22.0604   20.7694 C   0  0  0  0  0  0  0  0  0  0  0  0
  -26.5104  -19.5519   14.8366 C   0  0  0  0  0  0  0  0  0  0  0  0
  -27.4765  -20.9252   22.9274 C   0  0  0  0  0  0  0  0  0  0  0  0
  -28.7728  -22.3913   14.8421 C   0  0  0  0  0  0  0  0  0  0  0  0
  -22.2304  -28.4164   21.4018 C   0  0  0  0  0  0  0  0  0  0  0  0
  -25.4475  -28.6959   21.7094 C   0  0  0  0  0  0  0  0  0  0  0  0
  -28.5404  -27.3872   21.1031 C   0  0  0  0  0  0  0  0  0  0  0  0
  -19.4355  -32.1441   23.4876 C   0  0  0  0  0  0  0  0  0  0  0  0
  -22.8401  -26.1708   22.3722 C   0  0  0  0  0  0  0  0  0  0  0  0
  -24.6156  -26.9152   20.1275 C   0  0  0  0  0  0  0  0  0  0  0  0
  -20.8037  -32.0500   22.8170 C   0  0  0  0  0  0  0  0  0  0  0  0
  -30.4546  -24.3286   17.3240 C   0  0  0  0  0  0  0  0  0  0  0  0
  -20.7016  -31.2861   21.5007 C   0  0  0  0  0  0  0  0  0  0  0  0
  -30.2124  -23.5438   18.6145 C   0  0  0  0  0  0  0  0  0  0  0  0
  -30.6293  -23.4007   16.1244 C   0  0  0  0  0  0  0  0  0  0  0  0
  -29.2843  -21.6443   17.2249 C   0  0  0  0  0  0  0  0  0  0  0  0
  -20.2226  -29.8480   21.7331 C   0  0  1  0  0  0  0  0  0  0  0  0
  -23.2699  -27.6149   22.1330 C   0  0  1  0  0  0  0  0  0  0  0  0
  -29.0524  -22.5439   18.4500 C   0  0  1  0  0  0  0  0  0  0  0  0
  -22.2086  -20.6735   12.7453 C   0  0  0  0  0  0  0  0  0  0  0  0
  -31.0381  -27.1686   21.2099 C   0  0  0  0  0  0  0  0  0  0  0  0
  -25.5470  -17.5528   13.6444 C   0  0  0  0  0  0  0  0  0  0  0  0
  -25.1830  -17.8370   16.1188 C   0  0  0  0  0  0  0  0  0  0  0  0
  -27.4108  -17.1646   15.2437 C   0  0  0  0  0  0  0  0  0  0  0  0
  -25.3601  -30.7435   19.4490 C   0  0  0  0  0  0  0  0  0  0  0  0
  -27.8352  -30.4655   19.1951 C   0  0  0  0  0  0  0  0  0  0  0  0
  -26.8926  -31.3358   21.3345 C   0  0  0  0  0  0  0  0  0  0  0  0
  -28.4098  -25.7789   23.5841 C   0  0  0  0  0  0  0  0  0  0  0  0
  -23.7035  -20.8458   12.9879 C   0  0  0  0  0  0  0  0  0  0  0  0
  -23.7226  -20.7397   16.9027 C   0  0  0  0  0  0  0  0  0  0  0  0
  -23.3338  -21.1326   15.4745 C   0  0  0  0  0  0  0  0  0  0  0  0
  -22.9062  -21.5063   17.9348 C   0  0  0  0  0  0  0  0  0  1  0  0
  -26.5997  -28.8926   20.7541 C   0  0  1  0  0  0  0  0  0  0  0  0
  -29.7430  -27.1838   22.0069 C   0  0  2  0  0  0  0  0  0  0  0  0
  -24.1514  -20.3856   14.3942 C   0  0  2  0  0  0  0  0  0  0  0  0
  -26.1915  -18.1076   14.9558 C   0  0  0  0  0  0  0  0  0  0  0  0
  -26.6545  -30.3369   20.1811 C   0  0  0  0  0  0  0  0  0  0  0  0
  -29.4419  -20.5474   19.8438 N   0  0  0  0  0  0  0  0  0  0  0  0
  -25.6500  -20.5468   14.5966 N   0  0  0  0  0  0  0  0  0  0  0  0
  -28.8197  -21.7310   19.7096 N   0  0  0  0  0  0  0  0  0  0  0  0
  -27.7285  -20.0905   14.9533 N   0  3  0  0  0  0  0  0  0  0  0  0
  -29.5096  -22.4651   16.0267 N   0  0  0  0  0  0  0  0  0  0  0  0
  -24.5089  -27.7151   21.3589 N   0  0  0  0  0  0  0  0  0  0  0  0
  -27.3297  -23.2159   20.7984 N   0  0  0  0  0  0  0  0  0  0  0  0
  -27.7016  -19.7882   23.7153 N   0  0  0  0  0  0  0  0  0  0  0  0
  -21.3072  -29.0278   22.2284 N   0  0  0  0  0  0  0  0  0  0  0  0
  -27.8019  -28.4901   21.4762 N   0  0  0  0  0  0  0  0  0  0  0  0
  -29.6273  -25.8916   22.7402 N   0  3  0  0  0  0  0  0  0  0  0  0
  -26.6959  -21.8151   23.3426 O   0  0  0  0  0  0  0  0  0  0  0  0
  -28.9754  -23.0590   13.8291 O   0  0  0  0  0  0  0  0  0  0  0  0
  -22.2643  -28.4768   20.1783 O   0  0  0  0  0  0  0  0  0  0  0  0
  -25.3864  -29.3820   22.7327 O   0  0  0  0  0  0  0  0  0  0  0  0
  -28.2841  -26.6442   20.1582 O   0  0  0  0  0  0  0  0  0  0  0  0
  -30.7927  -15.2040   23.0332 O   0  0  0  0  0  0  0  0  0  0  0  0
  -23.1288  -22.9041   17.7529 O   0  0  0  0  0  0  0  0  0  1  0  0
  -30.8215  -10.8932   19.5951 F   0  0  0  0  0  0  0  0  0  0  0  0
  -32.2990  -15.2483   20.7155 F   0  0  0  0  0  0  0  0  0  0  0  0
  1  2  1  0  0  0  0
  1  5  2  0  0  0  0
  2  6  2  0  0  0  0
  3  8  2  0  0  0  0
  3 16  1  0  0  0  0
  4  9  1  0  0  0  0
  4 16  2  0  0  0  0
  5 18  1  0  0  0  0
  6 20  1  0  0  0  0
  7 10  2  0  0  0  0
  7 19  1  0  0  0  0
  8 22  1  0  0  0  0
  9 22  2  0  0  0  0
 10 23  1  0  0  0  0
 11 12  2  0  0  0  0
 11 24  1  0  0  0  0
 12 25  1  0  0  0  0
 13 21  1  0  0  0  0
 13 23  2  0  0  0  0
 14 25  2  0  0  0  0
 14 26  1  0  0  0  0
 15 28  2  0  0  0  0
 15 67  1  0  0  0  0
 16 27  1  0  0  0  0
 17 27  1  0  0  0  0
 17 29  2  0  0  0  0
 17 31  1  0  0  0  0
 18 20  2  0  0  0  0
 18 36  1  0  0  0  0
 19 21  2  0  0  0  0
 19 37  1  0  0  0  0
 20 45  1  0  0  0  0
 21 38  1  0  0  0  0
 22 82  1  0  0  0  0
 23 83  1  0  0  0  0
 24 26  2  0  0  0  0
 24 82  1  0  0  0  0
 25 84  1  0  0  0  0
 26 85  1  0  0  0  0
 27 66  2  0  0  0  0
 28 32  1  0  0  0  0
 28 69  1  0  0  0  0
 29 68  1  0  0  0  0
 29 72  1  0  0  0  0
 30 64  1  0  0  0  0
 30 67  1  0  0  0  0
 30 69  2  0  0  0  0
 31 73  1  0  0  0  0
 31 77  2  0  0  0  0
 32 70  1  0  0  0  0
 32 78  2  0  0  0  0
 33 46  1  0  0  0  0
 33 74  1  0  0  0  0
 33 79  2  0  0  0  0
 34 61  1  0  0  0  0
 34 71  1  0  0  0  0
 34 80  2  0  0  0  0
 35 62  1  0  0  0  0
 35 75  1  0  0  0  0
 35 81  2  0  0  0  0
 36 39  1  0  0  0  0
 37 46  1  0  0  0  0
 38 71  1  0  0  0  0
 39 41  1  0  0  0  0
 40 42  1  0  0  0  0
 40 43  1  0  0  0  0
 41 45  1  0  0  0  0
 42 47  1  0  0  0  0
 43 70  1  0  0  0  0
 44 47  1  0  0  0  0
 44 70  1  0  0  0  0
 45 74  1  0  0  0  0
 46 71  1  0  0  0  0
 47 68  1  0  0  0  0
 48 57  1  0  0  0  0
 49 62  1  0  0  0  0
 50 64  1  0  0  0  0
 51 64  1  0  0  0  0
 52 64  1  0  0  0  0
 53 65  1  0  0  0  0
 54 65  1  0  0  0  0
 55 65  1  0  0  0  0
 56 76  1  0  0  0  0
 57 63  1  0  0  0  0
 58 59  1  0  0  0  0
 58 60  1  0  0  0  0
 59 63  1  0  0  0  0
 60 83  1  0  0  0  0
 61 65  1  0  0  0  0
 61 75  1  0  0  0  0
 62 76  1  0  0  0  0
 63 67  1  0  0  0  0
 66 68  1  0  0  0  0
M  CHG  2  69   1  76   1
M  ISO  4  28 100  32 100  60 101  83 101
M  END
> <Batch ID>
0069

> <Smiles>
CCC(CC[101CH2:1][101O:1]c1ccc2c(c1)CN(C(=O)C(NC(=O)C(C)NC)C(C)(C)C)C(C(=O)NC1CCCc3ccccc31)C2)n1c[100c:0]([100C:0](=O)N2CCCC(n3nc(-c4ccc(Oc5ccc(F)cc5F)cc4)c(C(N)=O)c3N)C2)nc1C(C)(C)C

> <Shape>
0.215

> <Color>
0.070

> <Negative vol penalty>
0.000

$$$$

  -OEChem-04052318173D

 87 95  0     1  0  0  0  0  0999 V2000
  -15.5222  -27.3969   26.1530 C   0  0  0  0  0  0  0  0  0  0  0  0
  -16.1379  -26.2739   25.6096 C   0  0  0  0  0  0  0  0  0  0  0  0
  -27.3640  -12.5063   21.6431 C   0  0  0  0  0  0  0  0  0  0  0  0
  -26.8395  -14.0576   19.8668 C   0  0  0  0  0  0  0  0  0  0  0  0
  -15.8368  -28.6659   25.6688 C   0  0  0  0  0  0  0  0  0  0  0  0
  -17.0679  -26.4193   24.5808 C   0  0  0  0  0  0  0  0  0  0  0  0
  -22.0694  -23.0150   23.6311 C   0  0  0  0  0  0  0  0  0  0  0  0
  -26.4545  -11.5914   21.1127 C   0  0  0  0  0  0  0  0  0  0  0  0
  -25.9300  -13.1427   19.3363 C   0  0  0  0  0  0  0  0  0  0  0  0
  -22.3253  -21.9412   22.7795 C   0  0  0  0  0  0  0  0  0  0  0  0
  -24.0058   -8.9914   20.4288 C   0  0  0  0  0  0  0  0  0  0  0  0
  -23.1382   -8.3502   21.3130 C   0  0  0  0  0  0  0  0  0  0  0  0
  -23.2725  -23.4585   21.1608 C   0  0  0  0  0  0  0  0  0  0  0  0
  -26.6563  -19.9498   20.8863 C   0  0  0  0  0  0  0  0  0  0  0  0
  -22.2362  -10.4901   21.9796 C   0  0  0  0  0  0  0  0  0  0  0  0
  -27.5565  -13.7395   21.0202 C   0  0  0  0  0  0  0  0  0  0  0  0
  -29.8648  -14.7980   21.2619 C   0  0  0  0  0  0  0  0  0  0  0  0
  -16.7783  -28.8277   24.6402 C   0  0  0  0  0  0  0  0  0  0  0  0
  -22.4037  -24.3221   23.2487 C   0  0  0  0  0  0  0  0  0  0  0  0
  -17.3945  -27.6916   24.0815 C   0  0  0  0  0  0  0  0  0  0  0  0
  -23.0221  -24.5468   22.0104 C   0  0  0  0  0  0  0  0  0  0  0  0
  -26.2488  -19.5235   19.6272 C   0  0  0  0  0  0  0  0  0  0  0  0
  -27.9716  -20.3542   21.0853 C   0  0  0  0  0  0  0  0  0  0  0  0
  -25.7375  -11.9096   19.9593 C   0  0  0  0  0  0  0  0  0  0  0  0
  -22.9243  -22.1632   21.5429 C   0  0  0  0  0  0  0  0  0  0  0  0
  -23.9887  -10.3820   20.3201 C   0  0  0  0  0  0  0  0  0  0  0  0
  -22.2534   -9.0996   22.0883 C   0  0  0  0  0  0  0  0  0  0  0  0
  -23.1038  -11.1313   21.0954 C   0  0  0  0  0  0  0  0  0  0  0  0
  -28.4954  -14.6852   21.5680 C   0  0  0  0  0  0  0  0  0  0  0  0
  -27.1876  -19.5204   18.6082 C   0  0  0  0  0  0  0  0  0  0  0  0
  -28.8334  -20.3138   20.0011 C   0  0  0  0  0  0  0  0  0  0  0  0
  -30.3060  -15.8400   22.0405 C   0  0  0  0  0  0  0  0  0  0  0  0
  -30.6665  -14.0297   20.3549 C   0  0  0  0  0  0  0  0  0  0  0  0
  -20.7661  -26.9982   22.7383 C   0  0  0  0  0  0  0  0  0  0  0  0
  -23.7254  -28.2851   22.4089 C   0  0  0  0  0  0  0  0  0  0  0  0
  -27.0274  -27.8105   21.6889 C   0  0  0  0  0  0  0  0  0  0  0  0
  -27.0380  -20.3944   24.5136 C   0  0  0  0  0  0  0  0  0  0  0  0
  -17.0509  -30.2158   24.1173 C   0  0  0  0  0  0  0  0  0  0  0  0
  -22.1454  -25.4665   24.1900 C   0  0  0  0  0  0  0  0  0  0  0  0
  -23.4189  -25.9286   21.5614 C   0  0  0  0  0  0  0  0  0  0  0  0
  -18.3245  -30.3126   23.2813 C   0  0  0  0  0  0  0  0  0  0  0  0
  -29.4170  -18.0875   26.1628 C   0  0  0  0  0  0  0  0  0  0  0  0
  -18.3893  -29.1699   22.2729 C   0  0  0  0  0  0  0  0  0  0  0  0
  -29.5042  -16.9315   25.1678 C   0  0  0  0  0  0  0  0  0  0  0  0
  -28.0694  -18.7990   26.0891 C   0  0  0  0  0  0  0  0  0  0  0  0
  -27.7981  -18.1142   23.7287 C   0  0  0  0  0  0  0  0  0  0  0  0
  -18.4269  -27.8104   22.9814 C   0  0  1  0  0  0  0  0  0  0  0  0
  -22.0589  -26.8149   23.4817 C   0  0  1  0  0  0  0  0  0  0  0  0
  -29.1608  -17.4055   23.7448 C   0  0  2  0  0  0  0  0  0  0  0  0
  -26.8077  -19.0717   17.2351 C   0  0  0  0  0  0  0  0  0  0  0  0
  -29.1934  -29.0575   21.4635 C   0  0  0  0  0  0  0  0  0  0  0  0
  -22.8147  -29.3739   19.7080 C   0  0  0  0  0  0  0  0  0  0  0  0
  -25.2200  -29.7617   19.1316 C   0  0  0  0  0  0  0  0  0  0  0  0
  -24.1927  -30.9620   21.0620 C   0  0  0  0  0  0  0  0  0  0  0  0
  -26.5873  -22.3415   23.0695 C   0  0  0  0  0  0  0  0  0  0  0  0
  -28.2893  -26.2437   23.8595 C   0  0  0  0  0  0  0  0  0  0  0  0
  -24.8237  -19.0837   19.4048 C   0  0  0  0  0  0  0  0  0  0  0  0
  -28.4147  -20.8118   22.4320 C   0  0  0  0  0  0  0  0  0  0  0  0
  -23.9659  -20.1201   18.6757 C   0  0  0  0  0  0  0  0  0  0  0  0
  -23.7906  -21.4167   19.4577 C   0  0  0  0  0  0  0  0  0  1  0  0
  -24.6805  -28.4890   21.2577 C   0  0  1  0  0  0  0  0  0  0  0  0
  -28.2890  -28.2691   22.3979 C   0  0  2  0  0  0  0  0  0  0  0  0
  -30.2572  -20.7380   20.1566 C   0  0  0  0  0  0  0  0  0  0  0  0
  -24.2178  -29.6207   20.2972 C   0  0  0  0  0  0  0  0  0  0  0  0
  -28.0931  -15.5837   22.4707 N   0  0  0  0  0  0  0  0  0  0  0  0
  -28.4741  -19.9060   18.7632 N   0  0  0  0  0  0  0  0  0  0  0  0
  -29.2164  -16.2710   22.7386 N   0  0  0  0  0  0  0  0  0  0  0  0
  -23.1398  -27.0156   22.5144 N   0  0  0  0  0  0  0  0  0  0  0  0
  -27.7482  -19.2002   24.7190 N   0  0  0  0  0  0  0  0  0  0  0  0
  -31.5157  -16.4204   22.1892 N   0  0  0  0  0  0  0  0  0  0  0  0
  -30.0543  -12.9957   19.6336 N   0  0  0  0  0  0  0  0  0  0  0  0
  -19.7521  -27.5472   23.4998 N   0  0  0  0  0  0  0  0  0  0  0  0
  -25.9946  -28.7095   21.8517 N   0  0  0  0  0  0  0  0  0  0  0  0
  -27.2907  -21.0920   23.3227 N   0  0  0  0  0  0  0  0  0  0  0  0
  -29.0511  -27.0953   22.9101 N   0  3  0  0  0  0  0  0  0  0  0  0
  -31.8930  -14.2429   20.2011 O   0  0  0  0  0  0  0  0  0  0  0  0
  -20.6942  -26.6675   21.5605 O   0  0  0  0  0  0  0  0  0  0  0  0
  -23.5125  -29.2158   23.1901 O   0  0  0  0  0  0  0  0  0  0  0  0
  -26.9655  -26.7617   21.0512 O   0  0  0  0  0  0  0  0  0  0  0  0
  -26.2314  -20.8181   25.3514 O   0  0  0  0  0  0  0  0  0  0  0  0
  -24.8501  -11.0170   19.4413 O   0  0  0  0  0  0  0  0  0  0  0  0
  -23.1746  -21.1169   20.7095 O   0  0  0  0  0  0  0  0  0  1  0  0
  -21.4192   -8.4836   22.9362 F   0  0  0  0  0  0  0  0  0  0  0  0
  -23.0819  -12.4674   20.9944 F   0  0  0  0  0  0  0  0  0  0  0  0
  -30.5705  -21.1420   21.4223 F   0  0  0  0  0  0  0  0  0  0  0  0
  -31.1542  -19.7519   19.8632 F   0  0  0  0  0  0  0  0  0  0  0  0
  -30.5824  -21.7850   19.3451 F   0  0  0  0  0  0  0  0  0  0  0  0
  1  2  1  0  0  0  0
  1  5  2  0  0  0  0
  2  6  2  0  0  0  0
  3  8  2  0  0  0  0
  3 16  1  0  0  0  0
  4  9  1  0  0  0  0
  4 16  2  0  0  0  0
  5 18  1  0  0  0  0
  6 20  1  0  0  0  0
  7 10  2  0  0  0  0
  7 19  1  0  0  0  0
  8 24  1  0  0  0  0
  9 24  2  0  0  0  0
 10 25  1  0  0  0  0
 11 12  2  0  0  0  0
 11 26  1  0  0  0  0
 12 27  1  0  0  0  0
 13 21  1  0  0  0  0
 13 25  2  0  0  0  0
 14 22  1  0  0  0  0
 14 23  2  0  0  0  0
 15 27  2  0  0  0  0
 15 28  1  0  0  0  0
 16 29  1  0  0  0  0
 17 29  1  0  0  0  0
 17 32  2  0  0  0  0
 17 33  1  0  0  0  0
 18 20  2  0  0  0  0
 18 38  1  0  0  0  0
 19 21  2  0  0  0  0
 19 39  1  0  0  0  0
 20 47  1  0  0  0  0
 21 40  1  0  0  0  0
 22 30  2  0  0  0  0
 22 57  1  0  0  0  0
 23 31  1  0  0  0  0
 23 58  1  0  0  0  0
 24 81  1  0  0  0  0
 25 82  1  0  0  0  0
 26 28  2  0  0  0  0
 26 81  1  0  0  0  0
 27 83  1  0  0  0  0
 28 84  1  0  0  0  0
 29 65  2  0  0  0  0
 30 50  1  0  0  0  0
 30 66  1  0  0  0  0
 31 63  1  0  0  0  0
 31 66  2  0  0  0  0
 32 67  1  0  0  0  0
 32 70  1  0  0  0  0
 33 71  1  0  0  0  0
 33 76  2  0  0  0  0
 34 48  1  0  0  0  0
 34 72  1  0  0  0  0
 34 77  2  0  0  0  0
 35 61  1  0  0  0  0
 35 68  1  0  0  0  0
 35 78  2  0  0  0  0
 36 62  1  0  0  0  0
 36 73  1  0  0  0  0
 36 79  2  0  0  0  0
 37 69  1  0  0  0  0
 37 74  1  0  0  0  0
 37 80  2  0  0  0  0
 38 41  1  0  0  0  0
 39 48  1  0  0  0  0
 40 68  1  0  0  0  0
 41 43  1  0  0  0  0
 42 44  1  0  0  0  0
 42 45  1  0  0  0  0
 43 47  1  0  0  0  0
 44 49  1  0  0  0  0
 45 69  1  0  0  0  0
 46 49  1  0  0  0  0
 46 69  1  0  0  0  0
 47 72  1  0  0  0  0
 48 68  1  0  0  0  0
 49 67  1  0  0  0  0
 51 62  1  0  0  0  0
 52 64  1  0  0  0  0
 53 64  1  0  0  0  0
 54 64  1  0  0  0  0
 55 74  1  0  0  0  0
 56 75  1  0  0  0  0
 57 59  1  0  0  0  0
 58 74  1  0  0  0  0
 59 60  1  0  0  0  0
 60 82  1  0  0  0  0
 61 64  1  0  0  0  0
 61 73  1  0  0  0  0
 62 75  1  0  0  0  0
 63 85  1  0  0  0  0
 63 86  1  0  0  0  0
 63 87  1  0  0  0  0
 65 67  1  0  0  0  0
M  CHG  1  75   1
M  ISO  4  37 100  60 101  74 100  82 101
M  END
> <Batch ID>
0069

> <Smiles>
CNC(C)C(=O)NC(C(=O)N1Cc2cc([101O:1][101CH2:1]CCc3cc(C[100N:0](C)[100C:0](=O)N4CCCC(n5nc(-c6ccc(Oc7ccc(F)cc7F)cc6)c(C(N)=O)c5N)C4)c(C(F)(F)F)nc3C)ccc2CC1C(=O)NC1CCCc2ccccc21)C(C)(C)C

> <Shape>
0.241

> <Color>
0.071

> <Negative vol penalty>
0.000

$$$$

  -OEChem-04052318173D

 91100  0     1  0  0  0  0  0999 V2000
  -26.3563  -20.1847   27.7579 C   0  0  0  0  0  0  0  0  0  0  0  0
  -27.1395  -20.9579   26.9069 C   0  0  0  0  0  0  0  0  0  0  0  0
  -22.3008  -10.8068   22.9561 C   0  0  0  0  0  0  0  0  0  0  0  0
  -21.3119  -10.9418   20.7559 C   0  0  0  0  0  0  0  0  0  0  0  0
  -24.9919  -20.0410   27.5095 C   0  0  0  0  0  0  0  0  0  0  0  0
  -26.5588  -21.5870   25.8062 C   0  0  0  0  0  0  0  0  0  0  0  0
  -28.0930  -27.0233   23.4400 C   0  0  0  0  0  0  0  0  0  0  0  0
  -26.4958  -22.3340   19.6975 C   0  0  0  0  0  0  0  0  0  0  0  0
  -25.2922  -21.8482   19.1867 C   0  0  0  0  0  0  0  0  0  0  0  0
  -21.6223   -9.6103   23.1877 C   0  0  0  0  0  0  0  0  0  0  0  0
  -20.6334   -9.7452   20.9874 C   0  0  0  0  0  0  0  0  0  0  0  0
  -28.8904  -27.3823   22.3542 C   0  0  0  0  0  0  0  0  0  0  0  0
  -20.4322   -6.3342   24.2202 C   0  0  0  0  0  0  0  0  0  0  0  0
  -21.1479   -5.2835   24.7942 C   0  0  0  0  0  0  0  0  0  0  0  0
  -26.9223  -27.5385   20.9682 C   0  0  0  0  0  0  0  0  0  0  0  0
  -27.6097  -20.3060   19.0022 C   0  0  0  0  0  0  0  0  0  0  0  0
  -22.6747   -5.3007   22.9219 C   0  0  0  0  0  0  0  0  0  0  0  0
  -30.8092  -23.9183   17.8528 C   0  0  0  0  0  0  0  0  0  0  0  0
  -29.1293  -24.3922   19.1901 C   0  0  0  0  0  0  0  0  0  0  0  0
  -22.1455  -11.4726   21.7402 C   0  0  0  0  0  0  0  0  0  0  0  0
  -24.1252  -12.8654   20.9349 C   0  0  0  0  0  0  0  0  0  0  0  0
  -24.3924  -20.6765   26.4107 C   0  0  0  0  0  0  0  0  0  0  0  0
  -26.7030  -26.9084   23.2951 C   0  0  0  0  0  0  0  0  0  0  0  0
  -25.1854  -21.4506   25.5421 C   0  0  0  0  0  0  0  0  0  0  0  0
  -26.1092  -27.1804   22.0543 C   0  0  0  0  0  0  0  0  0  0  0  0
  -27.6545  -21.5630   19.6052 C   0  0  0  0  0  0  0  0  0  0  0  0
  -25.2473  -20.5912   18.5837 C   0  0  0  0  0  0  0  0  0  0  0  0
  -26.4061  -19.8200   18.4915 C   0  0  0  0  0  0  0  0  0  0  0  0
  -29.9542  -24.9630   18.2518 C   0  0  0  0  0  0  0  0  0  0  0  0
  -20.7887   -9.0795   22.2034 C   0  0  0  0  0  0  0  0  0  0  0  0
  -28.3054  -27.6372   21.1173 C   0  0  0  0  0  0  0  0  0  0  0  0
  -20.8378   -6.8682   22.9970 C   0  0  0  0  0  0  0  0  0  0  0  0
  -22.2691   -4.7668   24.1451 C   0  0  0  0  0  0  0  0  0  0  0  0
  -21.9590   -6.3514   22.3479 C   0  0  0  0  0  0  0  0  0  0  0  0
  -22.8457  -12.7089   21.5007 C   0  0  0  0  0  0  0  0  0  0  0  0
  -24.3322  -14.2232   20.9243 C   0  0  0  0  0  0  0  0  0  0  0  0
  -25.0445  -11.8723   20.4613 C   0  0  0  0  0  0  0  0  0  0  0  0
  -24.6036  -24.5416   23.6029 C   0  0  0  0  0  0  0  0  0  0  0  0
  -22.4454  -26.9145   23.1194 C   0  0  0  0  0  0  0  0  0  0  0  0
  -21.7774  -30.0065   21.8389 C   0  0  0  0  0  0  0  0  0  0  0  0
  -22.5237  -19.4144   19.9621 C   0  0  0  0  0  0  0  0  0  0  0  0
  -22.9227  -20.4533   26.1560 C   0  0  0  0  0  0  0  0  0  0  0  0
  -25.8541  -26.5462   24.4828 C   0  0  0  0  0  0  0  0  0  0  0  0
  -24.6195  -27.0908   21.8514 C   0  0  0  0  0  0  0  0  0  0  0  0
  -22.3141  -21.4579   25.1810 C   0  0  0  0  0  0  0  0  0  0  0  0
  -21.7322  -17.9671   23.1174 C   0  0  0  0  0  0  0  0  0  0  0  0
  -23.2095  -21.6239   23.9573 C   0  0  0  0  0  0  0  0  0  0  0  0
  -22.0509  -16.4829   22.9292 C   0  0  0  0  0  0  0  0  0  0  0  0
  -21.1489  -18.5844   21.8482 C   0  0  0  0  0  0  0  0  0  0  0  0
  -22.2809  -16.9037   20.4455 C   0  0  0  0  0  0  0  0  0  0  0  0
  -24.5875  -22.1689   24.3518 C   0  0  1  0  0  0  0  0  0  0  0  0
  -24.5013  -25.9582   24.0932 C   0  0  1  0  0  0  0  0  0  0  0  0
  -22.9235  -16.2505   21.6811 C   0  0  2  0  0  0  0  0  0  0  0  0
  -19.9135  -31.6642   21.5639 C   0  0  0  0  0  0  0  0  0  0  0  0
  -21.2723  -25.2188   20.8703 C   0  0  0  0  0  0  0  0  0  0  0  0
  -20.0881  -27.2628   20.0410 C   0  0  0  0  0  0  0  0  0  0  0  0
  -19.5756  -26.3608   22.3096 C   0  0  0  0  0  0  0  0  0  0  0  0
  -23.2098  -32.0549   23.4235 C   0  0  0  0  0  0  0  0  0  0  0  0
  -29.9455  -26.3894   17.7630 C   0  0  0  0  0  0  0  0  0  0  0  0
  -28.9528  -22.0872   20.1568 C   0  0  0  0  0  0  0  0  0  0  0  0
  -23.9470  -20.0916   18.0451 C   0  0  0  0  0  0  0  0  0  0  0  0
  -30.8471  -27.3235   18.5729 C   0  0  0  0  0  0  0  0  0  0  0  0
  -30.4121  -27.4724   20.0262 C   0  0  0  0  0  0  0  0  0  1  0  0
  -21.7829  -27.5267   21.9089 C   0  0  1  0  0  0  0  0  0  0  0  0
  -21.0759  -31.2136   22.4350 C   0  0  2  0  0  0  0  0  0  0  0  0
  -26.3820  -18.4712   17.8505 C   0  0  0  0  0  0  0  0  0  0  0  0
  -20.7080  -26.5922   21.2855 C   0  0  0  0  0  0  0  0  0  0  0  0
  -30.5516  -22.7708   18.4858 N   0  0  0  0  0  0  0  0  0  0  0  0
  -22.2797  -13.8742   21.8260 N   0  0  0  0  0  0  0  0  0  0  0  0
  -29.5253  -23.0911   19.2922 N   0  0  0  0  0  0  0  0  0  0  0  0
  -23.2080  -14.7759   21.4636 N   0  0  0  0  0  0  0  0  0  0  0  0
  -23.8327  -26.7268   23.0414 N   0  0  0  0  0  0  0  0  0  0  0  0
  -22.0251  -18.3297   20.7022 N   0  0  0  0  0  0  0  0  0  0  0  0
  -25.3644  -14.9863   20.5064 N   0  0  0  0  0  0  0  0  0  0  0  0
  -24.6731  -10.5235   20.5463 N   0  0  0  0  0  0  0  0  0  0  0  0
  -24.5150  -23.5923   24.6031 N   0  0  0  0  0  0  0  0  0  0  0  0
  -21.2711  -28.8243   22.3363 N   0  0  0  0  0  0  0  0  0  0  0  0
  -23.3518  -19.0853   18.8960 N   0  0  0  0  0  0  0  0  0  0  0  0
  -22.0289  -32.3511   22.5722 N   0  3  0  0  0  0  0  0  0  0  0  0
  -26.1688  -12.1711   19.9922 O   0  0  0  0  0  0  0  0  0  0  0  0
  -24.7506  -24.3257   22.4056 O   0  0  0  0  0  0  0  0  0  0  0  0
  -21.7584  -26.6203   24.1008 O   0  0  0  0  0  0  0  0  0  0  0  0
  -22.6813  -30.1026   21.0117 O   0  0  0  0  0  0  0  0  0  0  0  0
  -22.2554  -20.5894   20.2347 O   0  0  0  0  0  0  0  0  0  0  0  0
  -20.1267   -7.9118   22.4289 O   0  0  0  0  0  0  0  0  0  0  0  0
  -29.0815  -27.9872   20.0557 O   0  0  0  0  0  0  0  0  0  1  0  0
  -22.9572   -3.7588   24.6971 F   0  0  0  0  0  0  0  0  0  0  0  0
  -22.3542   -6.8610   21.1732 F   0  0  0  0  0  0  0  0  0  0  0  0
  -27.5973  -17.8496   17.8423 F   0  0  0  0  0  0  0  0  0  0  0  0
  -25.5348  -17.5928   18.4619 F   0  0  0  0  0  0  0  0  0  0  0  0
  -25.9844  -18.5189   16.5465 F   0  0  0  0  0  0  0  0  0  0  0  0
  1  2  1  0  0  0  0
  1  5  2  0  0  0  0
  2  6  2  0  0  0  0
  3 10  2  0  0  0  0
  3 20  1  0  0  0  0
  4 11  1  0  0  0  0
  4 20  2  0  0  0  0
  5 22  1  0  0  0  0
  6 24  1  0  0  0  0
  7 12  2  0  0  0  0
  7 23  1  0  0  0  0
  8  9  2  0  0  0  0
  8 26  1  0  0  0  0
  9 27  1  0  0  0  0
 10 30  1  0  0  0  0
 11 30  2  0  0  0  0
 12 31  1  0  0  0  0
 13 14  2  0  0  0  0
 13 32  1  0  0  0  0
 14 33  1  0  0  0  0
 15 25  1  0  0  0  0
 15 31  2  0  0  0  0
 16 26  2  0  0  0  0
 16 28  1  0  0  0  0
 17 33  2  0  0  0  0
 17 34  1  0  0  0  0
 18 29  1  0  0  0  0
 18 68  2  0  0  0  0
 19 29  2  0  0  0  0
 19 70  1  0  0  0  0
 20 35  1  0  0  0  0
 21 35  1  0  0  0  0
 21 36  2  0  0  0  0
 21 37  1  0  0  0  0
 22 24  2  0  0  0  0
 22 42  1  0  0  0  0
 23 25  2  0  0  0  0
 23 43  1  0  0  0  0
 24 51  1  0  0  0  0
 25 44  1  0  0  0  0
 26 60  1  0  0  0  0
 27 28  2  0  0  0  0
 27 61  1  0  0  0  0
 28 66  1  0  0  0  0
 29 59  1  0  0  0  0
 30 85  1  0  0  0  0
 31 86  1  0  0  0  0
 32 34  2  0  0  0  0
 32 85  1  0  0  0  0
 33 87  1  0  0  0  0
 34 88  1  0  0  0  0
 35 69  2  0  0  0  0
 36 71  1  0  0  0  0
 36 74  1  0  0  0  0
 37 75  1  0  0  0  0
 37 80  2  0  0  0  0
 38 52  1  0  0  0  0
 38 76  1  0  0  0  0
 38 81  2  0  0  0  0
 39 64  1  0  0  0  0
 39 72  1  0  0  0  0
 39 82  2  0  0  0  0
 40 65  1  0  0  0  0
 40 77  1  0  0  0  0
 40 83  2  0  0  0  0
 41 73  1  0  0  0  0
 41 78  1  0  0  0  0
 41 84  2  0  0  0  0
 42 45  1  0  0  0  0
 43 52  1  0  0  0  0
 44 72  1  0  0  0  0
 45 47  1  0  0  0  0
 46 48  1  0  0  0  0
 46 49  1  0  0  0  0
 47 51  1  0  0  0  0
 48 53  1  0  0  0  0
 49 73  1  0  0  0  0
 50 53  1  0  0  0  0
 50 73  1  0  0  0  0
 51 76  1  0  0  0  0
 52 72  1  0  0  0  0
 53 71  1  0  0  0  0
 54 65  1  0  0  0  0
 55 67  1  0  0  0  0
 56 67  1  0  0  0  0
 57 67  1  0  0  0  0
 58 79  1  0  0  0  0
 59 62  1  0  0  0  0
 60 70  1  0  0  0  0
 61 78  1  0  0  0  0
 62 63  1  0  0  0  0
 63 86  1  0  0  0  0
 64 67  1  0  0  0  0
 64 77  1  0  0  0  0
 65 79  1  0  0  0  0
 66 89  1  0  0  0  0
 66 90  1  0  0  0  0
 66 91  1  0  0  0  0
 68 70  1  0  0  0  0
 69 71  1  0  0  0  0
M  CHG  1  79   1
M  ISO  4  41 100  63 101  78 100  86 101
M  END
> <Batch ID>
0069

> <Smiles>
CNC(C)C(=O)NC(C(=O)N1Cc2cc([101O:1][101CH2:1]CCc3cnn(Cc4ccc(C[100NH:0][100C:0](=O)N5CCCC(n6nc(-c7ccc(Oc8ccc(F)cc8F)cc7)c(C(N)=O)c6N)C5)c(C(F)(F)F)c4)c3)ccc2CC1C(=O)NC1CCCc2ccccc21)C(C)(C)C

> <Shape>
0.225

> <Color>
0.082

> <Negative vol penalty>
0.000

$$$$

  -OEChem-04052318173D

 86 94  0     1  0  0  0  0  0999 V2000
  -19.1512  -24.2455   23.6319 C   0  0  0  0  0  0  0  0  0  0  0  0
  -20.5268  -24.0843   23.5015 C   0  0  0  0  0  0  0  0  0  0  0  0
  -26.4518  -14.2895   22.0271 C   0  0  0  0  0  0  0  0  0  0  0  0
  -26.2253  -14.0167   19.6372 C   0  0  0  0  0  0  0  0  0  0  0  0
  -18.5475  -25.4330   23.2203 C   0  0  0  0  0  0  0  0  0  0  0  0
  -21.2995  -25.1101   22.9584 C   0  0  0  0  0  0  0  0  0  0  0  0
  -27.0197  -26.6357   24.5263 C   0  0  0  0  0  0  0  0  0  0  0  0
  -28.2252  -25.8540   19.5404 C   0  0  0  0  0  0  0  0  0  0  0  0
  -25.6082  -13.1977   22.2317 C   0  0  0  0  0  0  0  0  0  0  0  0
  -25.3817  -12.9249   19.8418 C   0  0  0  0  0  0  0  0  0  0  0  0
  -28.2586  -26.3370   23.9608 C   0  0  0  0  0  0  0  0  0  0  0  0
  -23.2261  -10.7036   23.3842 C   0  0  0  0  0  0  0  0  0  0  0  0
  -22.2253  -10.8270   24.3480 C   0  0  0  0  0  0  0  0  0  0  0  0
  -27.0943  -25.1757   19.0996 C   0  0  0  0  0  0  0  0  0  0  0  0
  -28.2172  -28.4375   22.7754 C   0  0  0  0  0  0  0  0  0  0  0  0
  -21.2849  -12.6914   23.1328 C   0  0  0  0  0  0  0  0  0  0  0  0
  -26.7603  -14.6990   20.7298 C   0  0  0  0  0  0  0  0  0  0  0  0
  -29.0328  -15.8063   20.3872 C   0  0  0  0  0  0  0  0  0  0  0  0
  -19.3145  -26.4777   22.6808 C   0  0  0  0  0  0  0  0  0  0  0  0
  -26.3641  -27.8347   24.2115 C   0  0  0  0  0  0  0  0  0  0  0  0
  -20.7054  -26.3122   22.5380 C   0  0  0  0  0  0  0  0  0  0  0  0
  -26.9713  -28.7502   23.3401 C   0  0  0  0  0  0  0  0  0  0  0  0
  -29.4831  -25.2916   19.3541 C   0  0  0  0  0  0  0  0  0  0  0  0
  -25.0731  -12.5154   21.1391 C   0  0  0  0  0  0  0  0  0  0  0  0
  -28.8562  -27.2366   23.0830 C   0  0  0  0  0  0  0  0  0  0  0  0
  -23.2563  -11.5741   22.2948 C   0  0  0  0  0  0  0  0  0  0  0  0
  -21.2547  -11.8208   24.2223 C   0  0  0  0  0  0  0  0  0  0  0  0
  -22.2858  -12.5680   22.1690 C   0  0  0  0  0  0  0  0  0  0  0  0
  -27.6313  -15.8271   20.5178 C   0  0  0  0  0  0  0  0  0  0  0  0
  -27.2737  -23.9477   18.4833 C   0  0  0  0  0  0  0  0  0  0  0  0
  -29.5555  -24.0584   18.7266 C   0  0  0  0  0  0  0  0  0  0  0  0
  -29.3801  -17.1224   20.2032 C   0  0  0  0  0  0  0  0  0  0  0  0
  -29.9397  -14.6966   20.4283 C   0  0  0  0  0  0  0  0  0  0  0  0
  -23.6047  -28.5850   22.8236 C   0  0  0  0  0  0  0  0  0  0  0  0
  -24.4431  -31.6004   23.6761 C   0  0  0  0  0  0  0  0  0  0  0  0
  -26.2815  -21.6987   18.0281 C   0  0  0  0  0  0  0  0  0  0  0  0
  -26.9265  -33.8008   24.4747 C   0  0  0  0  0  0  0  0  0  0  0  0
  -18.6111  -27.7245   22.2062 C   0  0  0  0  0  0  0  0  0  0  0  0
  -25.0406  -28.1541   24.8506 C   0  0  0  0  0  0  0  0  0  0  0  0
  -26.3183  -30.0603   22.9855 C   0  0  0  0  0  0  0  0  0  0  0  0
  -19.5503  -28.9078   21.9872 C   0  0  0  0  0  0  0  0  0  0  0  0
  -27.9574  -21.5606   21.2529 C   0  0  0  0  0  0  0  0  0  0  0  0
  -20.7852  -28.4716   21.2051 C   0  0  0  0  0  0  0  0  0  0  0  0
  -28.1646  -20.0565   21.4255 C   0  0  0  0  0  0  0  0  0  0  0  0
  -26.6440  -21.8680   20.5384 C   0  0  0  0  0  0  0  0  0  0  0  0
  -26.7076  -19.6771   19.3893 C   0  0  0  0  0  0  0  0  0  0  0  0
  -21.5807  -27.4116   21.9765 C   0  0  1  0  0  0  0  0  0  0  0  0
  -24.2253  -29.1724   24.0595 C   0  0  1  0  0  0  0  0  0  0  0  0
  -28.0360  -19.3236   20.0787 C   0  0  2  0  0  0  0  0  0  0  0  0
  -30.8802  -23.4078   18.4968 C   0  0  0  0  0  0  0  0  0  0  0  0
  -27.3069  -36.2047   25.0864 C   0  0  0  0  0  0  0  0  0  0  0  0
  -24.0315  -32.4047   20.7617 C   0  0  0  0  0  0  0  0  0  0  0  0
  -25.3102  -34.5049   21.2334 C   0  0  0  0  0  0  0  0  0  0  0  0
  -23.1688  -34.0549   22.4311 C   0  0  0  0  0  0  0  0  0  0  0  0
  -28.0764  -33.0709   27.1021 C   0  0  0  0  0  0  0  0  0  0  0  0
  -30.7131  -26.0218   19.8311 C   0  0  0  0  0  0  0  0  0  0  0  0
  -31.3059  -25.4520   21.1216 C   0  0  0  0  0  0  0  0  0  0  0  0
  -30.3701  -25.5691   22.3191 C   0  0  0  0  0  0  0  0  0  1  0  0
  -25.2281  -32.7153   23.0284 C   0  0  1  0  0  0  0  0  0  0  0  0
  -27.0614  -34.7985   25.6109 C   0  0  2  0  0  0  0  0  0  0  0  0
  -26.0819  -23.1931   17.9964 C   0  0  2  0  0  0  0  0  0  0  0  0
  -24.4463  -33.3945   21.8686 C   0  0  0  0  0  0  0  0  0  0  0  0
  -25.6436  -23.6274   16.5931 C   0  0  0  0  0  0  0  0  0  0  0  0
  -27.1230  -17.0588   20.4249 N   0  0  0  0  0  0  0  0  0  0  0  0
  -28.4795  -23.3696   18.2848 N   0  0  0  0  0  0  0  0  0  0  0  0
  -28.2110  -17.8242   20.2340 N   0  0  0  0  0  0  0  0  0  0  0  0
  -25.0218  -30.3241   23.6312 N   0  0  0  0  0  0  0  0  0  0  0  0
  -26.5481  -21.1295   19.2736 N   0  0  0  0  0  0  0  0  0  0  0  0
  -30.5684  -17.7362   20.0198 N   0  0  0  0  0  0  0  0  0  0  0  0
  -29.4150  -13.4119   20.6254 N   0  0  0  0  0  0  0  0  0  0  0  0
  -22.3564  -28.0296   23.0305 N   0  0  0  0  0  0  0  0  0  0  0  0
  -25.6102  -33.6239   24.1040 N   0  0  0  0  0  0  0  0  0  0  0  0
  -28.1984  -34.4226   26.4979 N   0  3  0  0  0  0  0  0  0  0  0  0
  -31.1801  -14.8417   20.3107 O   0  0  0  0  0  0  0  0  0  0  0  0
  -24.2126  -28.6334   21.7608 O   0  0  0  0  0  0  0  0  0  0  0  0
  -23.3597  -31.8539   24.2088 O   0  0  0  0  0  0  0  0  0  0  0  0
  -26.2052  -21.0587   16.9761 O   0  0  0  0  0  0  0  0  0  0  0  0
  -27.8925  -33.2378   23.9643 O   0  0  0  0  0  0  0  0  0  0  0  0
  -24.9555  -23.3509   18.8775 O   0  0  0  0  0  0  0  0  0  0  0  0
  -24.2501  -11.4498   21.3384 O   0  0  0  0  0  0  0  0  0  0  0  0
  -30.0651  -26.9473   22.5292 O   0  0  0  0  0  0  0  0  0  1  0  0
  -20.2929  -11.9383   25.1471 F   0  0  0  0  0  0  0  0  0  0  0  0
  -22.3089  -13.4065   21.1240 F   0  0  0  0  0  0  0  0  0  0  0  0
  -26.6194  -23.4384   15.6751 F   0  0  0  0  0  0  0  0  0  0  0  0
  -24.5665  -22.9193   16.1842 F   0  0  0  0  0  0  0  0  0  0  0  0
  -25.3081  -24.9360   16.5622 F   0  0  0  0  0  0  0  0  0  0  0  0
  1  2  1  0  0  0  0
  1  5  2  0  0  0  0
  2  6  2  0  0  0  0
  3  9  2  0  0  0  0
  3 17  1  0  0  0  0
  4 10  1  0  0  0  0
  4 17  2  0  0  0  0
  5 19  1  0  0  0  0
  6 21  1  0  0  0  0
  7 11  2  0  0  0  0
  7 20  1  0  0  0  0
  8 14  2  0  0  0  0
  8 23  1  0  0  0  0
  9 24  1  0  0  0  0
 10 24  2  0  0  0  0
 11 25  1  0  0  0  0
 12 13  2  0  0  0  0
 12 26  1  0  0  0  0
 13 27  1  0  0  0  0
 14 30  1  0  0  0  0
 15 22  1  0  0  0  0
 15 25  2  0  0  0  0
 16 27  2  0  0  0  0
 16 28  1  0  0  0  0
 17 29  1  0  0  0  0
 18 29  1  0  0  0  0
 18 32  2  0  0  0  0
 18 33  1  0  0  0  0
 19 21  2  0  0  0  0
 19 38  1  0  0  0  0
 20 22  2  0  0  0  0
 20 39  1  0  0  0  0
 21 47  1  0  0  0  0
 22 40  1  0  0  0  0
 23 31  2  0  0  0  0
 23 56  1  0  0  0  0
 24 80  1  0  0  0  0
 25 81  1  0  0  0  0
 26 28  2  0  0  0  0
 26 80  1  0  0  0  0
 27 82  1  0  0  0  0
 28 83  1  0  0  0  0
 29 64  2  0  0  0  0
 30 61  1  0  0  0  0
 30 65  2  0  0  0  0
 31 50  1  0  0  0  0
 31 65  1  0  0  0  0
 32 66  1  0  0  0  0
 32 69  1  0  0  0  0
 33 70  1  0  0  0  0
 33 74  2  0  0  0  0
 34 48  1  0  0  0  0
 34 71  1  0  0  0  0
 34 75  2  0  0  0  0
 35 59  1  0  0  0  0
 35 67  1  0  0  0  0
 35 76  2  0  0  0  0
 36 61  1  0  0  0  0
 36 68  1  0  0  0  0
 36 77  2  0  0  0  0
 37 60  1  0  0  0  0
 37 72  1  0  0  0  0
 37 78  2  0  0  0  0
 38 41  1  0  0  0  0
 39 48  1  0  0  0  0
 40 67  1  0  0  0  0
 41 43  1  0  0  0  0
 42 44  1  0  0  0  0
 42 45  1  0  0  0  0
 43 47  1  0  0  0  0
 44 49  1  0  0  0  0
 45 68  1  0  0  0  0
 46 49  1  0  0  0  0
 46 68  1  0  0  0  0
 47 71  1  0  0  0  0
 48 67  1  0  0  0  0
 49 66  1  0  0  0  0
 51 60  1  0  0  0  0
 52 62  1  0  0  0  0
 53 62  1  0  0  0  0
 54 62  1  0  0  0  0
 55 73  1  0  0  0  0
 56 57  1  0  0  0  0
 57 58  1  0  0  0  0
 58 81  1  0  0  0  0
 59 62  1  0  0  0  0
 59 72  1  0  0  0  0
 60 73  1  0  0  0  0
 61 63  1  0  0  0  0
 61 79  1  0  0  0  0
 63 84  1  0  0  0  0
 63 85  1  0  0  0  0
 63 86  1  0  0  0  0
 64 66  1  0  0  0  0
M  CHG  1  73   1
M  ISO  4  36 100  58 101  61 100  81 101
M  END
> <Batch ID>
0069

> <Smiles>
CNC(C)C(=O)NC(C(=O)N1Cc2cc([101O:1][101CH2:1]CCc3ccc([100C:0](O)([100C:0](=O)N4CCCC(n5nc(-c6ccc(Oc7ccc(F)cc7F)cc6)c(C(N)=O)c5N)C4)C(F)(F)F)nc3C)ccc2CC1C(=O)NC1CCCc2ccccc21)C(C)(C)C

> <Shape>
0.268

> <Color>
0.089

> <Negative vol penalty>
0.000

$$$$

  -OEChem-04052318173D

 84 92  0     1  0  0  0  0  0999 V2000
  -19.1030  -26.8799   23.1999 C   0  0  0  0  0  0  0  0  0  0  0  0
  -19.9365  -26.3257   22.2338 C   0  0  0  0  0  0  0  0  0  0  0  0
  -23.5792   -9.6419   19.9380 C   0  0  0  0  0  0  0  0  0  0  0  0
  -23.8453   -9.9351   22.3214 C   0  0  0  0  0  0  0  0  0  0  0  0
  -19.0970  -28.2588   23.4059 C   0  0  0  0  0  0  0  0  0  0  0  0
  -20.7639  -27.1502   21.4722 C   0  0  0  0  0  0  0  0  0  0  0  0
  -25.4642  -25.3166   21.0362 C   0  0  0  0  0  0  0  0  0  0  0  0
  -22.9750   -8.4040   20.1578 C   0  0  0  0  0  0  0  0  0  0  0  0
  -23.2411   -8.6973   22.5412 C   0  0  0  0  0  0  0  0  0  0  0  0
  -25.6625  -24.2842   20.1205 C   0  0  0  0  0  0  0  0  0  0  0  0
  -20.1083   -7.4311   22.5950 C   0  0  0  0  0  0  0  0  0  0  0  0
  -19.1421   -7.3523   23.5979 C   0  0  0  0  0  0  0  0  0  0  0  0
  -26.5313  -25.8728   18.5265 C   0  0  0  0  0  0  0  0  0  0  0  0
  -20.4741   -5.6993   24.7513 C   0  0  0  0  0  0  0  0  0  0  0  0
  -28.3845  -17.3709   17.3745 C   0  0  0  0  0  0  0  0  0  0  0  0
  -27.0020  -16.5046   15.8931 C   0  0  0  0  0  0  0  0  0  0  0  0
  -24.0144  -10.4074   21.0198 C   0  0  0  0  0  0  0  0  0  0  0  0
  -24.0041  -12.9396   20.7103 C   0  0  0  0  0  0  0  0  0  0  0  0
  -19.9318  -29.0998   22.6531 C   0  0  0  0  0  0  0  0  0  0  0  0
  -25.7883  -26.6387   20.6994 C   0  0  0  0  0  0  0  0  0  0  0  0
  -20.7681  -28.5419   21.6674 C   0  0  0  0  0  0  0  0  0  0  0  0
  -26.3385  -26.9199   19.4407 C   0  0  0  0  0  0  0  0  0  0  0  0
  -22.8059   -7.9317   21.4593 C   0  0  0  0  0  0  0  0  0  0  0  0
  -26.1934  -24.5626   18.8644 C   0  0  0  0  0  0  0  0  0  0  0  0
  -21.2575   -6.6440   22.6702 C   0  0  0  0  0  0  0  0  0  0  0  0
  -19.3250   -6.4864   24.6760 C   0  0  0  0  0  0  0  0  0  0  0  0
  -21.4404   -5.7781   23.7484 C   0  0  0  0  0  0  0  0  0  0  0  0
  -24.6391  -11.6859   20.7934 C   0  0  0  0  0  0  0  0  0  0  0  0
  -28.6466  -16.0381   17.1612 C   0  0  0  0  0  0  0  0  0  0  0  0
  -25.0271  -13.8286   20.4875 C   0  0  0  0  0  0  0  0  0  0  0  0
  -22.6138  -13.2708   20.8243 C   0  0  0  0  0  0  0  0  0  0  0  0
  -29.6995  -15.2462   17.8102 C   0  0  0  0  0  0  0  0  0  0  0  0
  -24.1489  -29.3468   20.4122 C   0  0  0  0  0  0  0  0  0  0  0  0
  -27.0966  -30.6297   19.9797 C   0  0  0  0  0  0  0  0  0  0  0  0
  -30.3488  -30.1702   19.0529 C   0  0  0  0  0  0  0  0  0  0  0  0
  -19.8559  -30.5890   22.8790 C   0  0  0  0  0  0  0  0  0  0  0  0
  -25.5934  -27.7373   21.7081 C   0  0  0  0  0  0  0  0  0  0  0  0
  -26.7221  -28.3195   19.0375 C   0  0  0  0  0  0  0  0  0  0  0  0
  -21.0367  -31.3555   22.2886 C   0  0  0  0  0  0  0  0  0  0  0  0
  -30.0425  -13.2271   20.7337 C   0  0  0  0  0  0  0  0  0  0  0  0
  -21.3194  -30.8866   20.8648 C   0  0  0  0  0  0  0  0  0  0  0  0
  -28.6190  -12.7313   20.9945 C   0  0  0  0  0  0  0  0  0  0  0  0
  -30.3375  -13.3332   19.2396 C   0  0  0  0  0  0  0  0  0  0  0  0
  -27.9393  -13.6536   18.7389 C   0  0  0  0  0  0  0  0  0  0  0  0
  -21.6981  -29.4009   20.8383 C   0  0  1  0  0  0  0  0  0  0  0  0
  -25.4796  -29.1193   21.0719 C   0  0  1  0  0  0  0  0  0  0  0  0
  -27.5842  -13.5809   20.2331 C   0  0  1  0  0  0  0  0  0  0  0  0
  -32.5100  -31.4131   18.7667 C   0  0  0  0  0  0  0  0  0  0  0  0
  -24.8069  -22.8207   15.6473 C   0  0  0  0  0  0  0  0  0  0  0  0
  -23.1731  -20.6524   17.3508 C   0  0  0  0  0  0  0  0  0  0  0  0
  -26.0462  -31.8550   17.3902 C   0  0  0  0  0  0  0  0  0  0  0  0
  -28.4190  -32.2554   16.6989 C   0  0  0  0  0  0  0  0  0  0  0  0
  -27.5120  -33.3663   18.7400 C   0  0  0  0  0  0  0  0  0  0  0  0
  -24.3988  -17.9366   17.0030 C   0  0  0  0  0  0  0  0  0  0  0  0
  -31.7159  -28.4912   21.0706 C   0  0  0  0  0  0  0  0  0  0  0  0
  -26.6447  -18.9975   16.4076 C   0  0  0  0  0  0  0  0  0  0  0  0
  -25.4995  -22.4420   18.0413 C   0  0  0  0  0  0  0  0  0  1  0  0
  -27.9877  -30.8837   18.7878 C   0  0  1  0  0  0  0  0  0  0  0  0
  -31.6521  -30.5857   19.7112 C   0  0  2  0  0  0  0  0  0  0  0  0
  -25.3601  -21.7956   16.6554 C   0  0  1  0  0  0  0  0  0  0  0  0
  -24.5283  -20.4656   16.6377 C   0  0  1  0  0  0  0  0  0  0  0  0
  -27.4823  -32.0639   17.9108 C   0  0  0  0  0  0  0  0  0  0  0  0
  -25.2938  -19.1830   17.1572 C   0  0  1  0  0  0  0  0  0  0  0  0
  -27.7826  -15.5048   16.2379 N   0  0  0  0  0  0  0  0  0  0  0  0
  -25.9630  -11.7671   20.6361 N   0  0  0  0  0  0  0  0  0  0  0  0
  -27.3284  -17.6552   16.5555 N   0  0  0  0  0  0  0  0  0  0  0  0
  -26.1682  -13.0824   20.4518 N   0  0  0  0  0  0  0  0  0  0  0  0
  -29.3170  -14.1358   18.5665 N   0  0  0  0  0  0  0  0  0  0  0  0
  -26.5065  -29.3602   20.0562 N   0  0  0  0  0  0  0  0  0  0  0  0
  -25.0528  -15.1679   20.3205 N   0  0  0  0  0  0  0  0  0  0  0  0
  -21.6969  -12.2358   21.0533 N   0  0  0  0  0  0  0  0  0  0  0  0
  -23.0692  -29.2211   21.2654 N   0  0  0  0  0  0  0  0  0  0  0  0
  -29.3349  -31.0666   19.3169 N   0  0  0  0  0  0  0  0  0  0  0  0
  -32.4311  -29.3835   20.1222 N   0  3  0  0  0  0  0  0  0  0  0  0
  -22.1951  -14.4477   20.7097 O   0  0  0  0  0  0  0  0  0  0  0  0
  -30.8540  -15.6368   17.6436 O   0  0  0  0  0  0  0  0  0  0  0  0
  -24.1051  -29.6178   19.2179 O   0  0  0  0  0  0  0  0  0  0  0  0
  -26.9360  -31.5224   20.8158 O   0  0  0  0  0  0  0  0  0  0  0  0
  -30.2420  -29.1543   18.3696 O   0  0  0  0  0  0  0  0  0  0  0  0
  -25.5565  -19.3503   18.5534 O   0  0  0  0  0  0  0  0  0  0  0  0
  -22.2162   -6.7240   21.6742 O   0  0  0  0  0  0  0  0  0  0  0  0
  -26.3873  -23.5568   17.9685 O   0  0  0  0  0  0  0  0  0  1  0  0
  -18.3977   -6.4119   25.6398 F   0  0  0  0  0  0  0  0  0  0  0  0
  -22.5428   -5.0203   23.8267 F   0  0  0  0  0  0  0  0  0  0  0  0
  1  2  1  0  0  0  0
  1  5  2  0  0  0  0
  2  6  2  0  0  0  0
  3  8  2  0  0  0  0
  3 17  1  0  0  0  0
  4  9  1  0  0  0  0
  4 17  2  0  0  0  0
  5 19  1  0  0  0  0
  6 21  1  0  0  0  0
  7 10  2  0  0  0  0
  7 20  1  0  0  0  0
  8 23  1  0  0  0  0
  9 23  2  0  0  0  0
 10 24  1  0  0  0  0
 11 12  2  0  0  0  0
 11 25  1  0  0  0  0
 12 26  1  0  0  0  0
 13 22  1  0  0  0  0
 13 24  2  0  0  0  0
 14 26  2  0  0  0  0
 14 27  1  0  0  0  0
 15 29  2  0  0  0  0
 15 66  1  0  0  0  0
 16 64  2  0  0  0  0
 16 66  1  0  0  0  0
 17 28  1  0  0  0  0
 18 28  1  0  0  0  0
 18 30  2  0  0  0  0
 18 31  1  0  0  0  0
 19 21  2  0  0  0  0
 19 36  1  0  0  0  0
 20 22  2  0  0  0  0
 20 37  1  0  0  0  0
 21 45  1  0  0  0  0
 22 38  1  0  0  0  0
 23 81  1  0  0  0  0
 24 82  1  0  0  0  0
 25 27  2  0  0  0  0
 25 81  1  0  0  0  0
 26 83  1  0  0  0  0
 27 84  1  0  0  0  0
 28 65  2  0  0  0  0
 29 32  1  0  0  0  0
 29 64  1  0  0  0  0
 30 67  1  0  0  0  0
 30 70  1  0  0  0  0
 31 71  1  0  0  0  0
 31 75  2  0  0  0  0
 32 68  1  0  0  0  0
 32 76  2  0  0  0  0
 33 46  1  0  0  0  0
 33 72  1  0  0  0  0
 33 77  2  0  0  0  0
 34 58  1  0  0  0  0
 34 69  1  0  0  0  0
 34 78  2  0  0  0  0
 35 59  1  0  0  0  0
 35 73  1  0  0  0  0
 35 79  2  0  0  0  0
 36 39  1  0  0  0  0
 37 46  1  0  0  0  0
 38 69  1  0  0  0  0
 39 41  1  0  0  0  0
 40 42  1  0  0  0  0
 40 43  1  0  0  0  0
 41 45  1  0  0  0  0
 42 47  1  0  0  0  0
 43 68  1  0  0  0  0
 44 47  1  0  0  0  0
 44 68  1  0  0  0  0
 45 72  1  0  0  0  0
 46 69  1  0  0  0  0
 47 67  1  0  0  0  0
 48 59  1  0  0  0  0
 49 60  1  0  0  0  0
 50 61  1  0  0  0  0
 51 62  1  0  0  0  0
 52 62  1  0  0  0  0
 53 62  1  0  0  0  0
 54 63  1  0  0  0  0
 55 74  1  0  0  0  0
 56 63  1  0  0  0  0
 56 66  1  0  0  0  0
 57 60  1  0  0  0  0
 57 82  1  0  0  0  0
 58 62  1  0  0  0  0
 58 73  1  0  0  0  0
 59 74  1  0  0  0  0
 60 61  1  0  0  0  0
 61 63  1  0  0  0  0
 63 80  1  0  0  0  0
 65 67  1  0  0  0  0
M  CHG  1  74   1
M  ISO  4  29 100  32 100  57 101  82 101
M  END
> <Batch ID>
0069

> <Smiles>
CNC(C)C(=O)NC(C(=O)N1Cc2cc([101O:1][101CH2:1]C(C)C(C)C(C)(O)Cn3cn[100c:0]([100C:0](=O)N4CCCC(n5nc(-c6ccc(Oc7ccc(F)cc7F)cc6)c(C(N)=O)c5N)C4)c3)ccc2CC1C(=O)NC1CCCc2ccccc21)C(C)(C)C

> <Shape>
0.248

> <Color>
0.175

> <Negative vol penalty>
0.000

$$$$

  -OEChem-04052318173D

 92100  0     1  0  0  0  0  0999 V2000
  -18.2102  -24.8818   24.7317 C   0  0  0  0  0  0  0  0  0  0  0  0
  -19.3900  -24.3613   24.2095 C   0  0  0  0  0  0  0  0  0  0  0  0
  -22.2493  -10.3308   20.2864 C   0  0  0  0  0  0  0  0  0  0  0  0
  -24.2822   -9.5068   21.2989 C   0  0  0  0  0  0  0  0  0  0  0  0
  -17.7824  -26.1532   24.3520 C   0  0  0  0  0  0  0  0  0  0  0  0
  -20.1421  -25.1117   23.3063 C   0  0  0  0  0  0  0  0  0  0  0  0
  -26.2432  -25.2108   22.7851 C   0  0  0  0  0  0  0  0  0  0  0  0
  -21.6505   -9.0852   20.4747 C   0  0  0  0  0  0  0  0  0  0  0  0
  -23.6834   -8.2611   21.4873 C   0  0  0  0  0  0  0  0  0  0  0  0
  -27.1211  -24.5630   21.9171 C   0  0  0  0  0  0  0  0  0  0  0  0
  -22.5709   -4.9709   22.5620 C   0  0  0  0  0  0  0  0  0  0  0  0
  -22.7412   -4.3490   23.7989 C   0  0  0  0  0  0  0  0  0  0  0  0
  -32.6131  -12.1800   18.7943 C   0  0  0  0  0  0  0  0  0  0  0  0
  -27.1501  -26.5145   20.4994 C   0  0  0  0  0  0  0  0  0  0  0  0
  -21.6747   -6.2234   24.8881 C   0  0  0  0  0  0  0  0  0  0  0  0
  -31.2987  -12.5475   18.9476 C   0  0  0  0  0  0  0  0  0  0  0  0
  -23.5651  -10.5416   20.6984 C   0  0  0  0  0  0  0  0  0  0  0  0
  -24.1815  -12.9167   21.3960 C   0  0  0  0  0  0  0  0  0  0  0  0
  -18.5346  -26.9235   23.4512 C   0  0  0  0  0  0  0  0  0  0  0  0
  -25.8029  -26.5136   22.5106 C   0  0  0  0  0  0  0  0  0  0  0  0
  -19.7232  -26.3942   22.9132 C   0  0  0  0  0  0  0  0  0  0  0  0
  -26.2687  -27.1776   21.3668 C   0  0  0  0  0  0  0  0  0  0  0  0
  -22.3675   -8.0504   21.0752 C   0  0  0  0  0  0  0  0  0  0  0  0
  -27.5724  -25.2137   20.7726 C   0  0  0  0  0  0  0  0  0  0  0  0
  -21.9525   -6.2191   22.4881 C   0  0  0  0  0  0  0  0  0  0  0  0
  -22.2930   -4.9753   24.9619 C   0  0  0  0  0  0  0  0  0  0  0  0
  -21.5044   -6.8453   23.6512 C   0  0  0  0  0  0  0  0  0  0  0  0
  -24.1844  -11.8279   20.5036 C   0  0  0  0  0  0  0  0  0  0  0  0
  -33.3428  -13.2244   19.3931 C   0  0  0  0  0  0  0  0  0  0  0  0
  -24.9001  -13.8925   20.7495 C   0  0  0  0  0  0  0  0  0  0  0  0
  -23.5829  -13.0354   22.6934 C   0  0  0  0  0  0  0  0  0  0  0  0
  -22.9766  -27.8536   21.9446 C   0  0  0  0  0  0  0  0  0  0  0  0
  -24.6985  -30.6012   22.0317 C   0  0  0  0  0  0  0  0  0  0  0  0
  -29.3820  -15.3980   17.7602 C   0  0  0  0  0  0  0  0  0  0  0  0
  -27.7277  -32.1343   21.6840 C   0  0  0  0  0  0  0  0  0  0  0  0
  -18.0073  -28.2736   23.0341 C   0  0  0  0  0  0  0  0  0  0  0  0
  -24.8768  -27.2085   23.4707 C   0  0  0  0  0  0  0  0  0  0  0  0
  -25.8419  -28.5840   21.0373 C   0  0  0  0  0  0  0  0  0  0  0  0
  -19.0556  -29.1552   22.3602 C   0  0  0  0  0  0  0  0  0  0  0  0
  -26.5231  -14.1807   15.9755 C   0  0  0  0  0  0  0  0  0  0  0  0
  -19.8265  -28.3608   21.3108 C   0  0  0  0  0  0  0  0  0  0  0  0
  -25.6743  -13.5231   17.0629 C   0  0  0  0  0  0  0  0  0  0  0  0
  -28.0137  -14.0017   16.2461 C   0  0  0  0  0  0  0  0  0  0  0  0
  -27.6021  -13.8302   18.6798 C   0  0  0  0  0  0  0  0  0  0  0  0
  -20.5793  -27.1876   21.9500 C   0  0  1  0  0  0  0  0  0  0  0  0
  -24.0902  -28.3452   22.8254 C   0  0  1  0  0  0  0  0  0  0  0  0
  -26.0899  -14.0140   18.4610 C   0  0  2  0  0  0  0  0  0  0  0  0
  -34.8060  -13.3432   19.5109 C   0  0  0  0  0  0  0  0  0  0  0  0
  -28.8140  -34.3945   21.7785 C   0  0  0  0  0  0  0  0  0  0  0  0
  -33.8900  -19.8421   17.3270 C   0  0  0  0  0  0  0  0  0  0  0  0
  -32.1427  -18.5334   16.1089 C   0  0  0  0  0  0  0  0  0  0  0  0
  -27.9981  -17.7938   18.9083 C   0  0  0  0  0  0  0  0  0  0  0  0
  -28.4636  -16.9830   21.2233 C   0  0  0  0  0  0  0  0  0  0  0  0
  -31.8826  -16.7368   20.2979 C   0  0  0  0  0  0  0  0  0  0  0  0
  -23.5205  -31.2790   19.2999 C   0  0  0  0  0  0  0  0  0  0  0  0
  -25.3148  -33.0043   19.0317 C   0  0  0  0  0  0  0  0  0  0  0  0
  -23.6573  -33.2087   20.8848 C   0  0  0  0  0  0  0  0  0  0  0  0
  -29.5017  -31.3170   23.9075 C   0  0  0  0  0  0  0  0  0  0  0  0
  -30.2338  -21.3025   19.5073 C   0  0  0  0  0  0  0  0  0  0  0  0
  -29.7602  -22.7220   19.1885 C   0  0  0  0  0  0  0  0  0  0  0  0
  -31.1382  -20.7637   18.3952 C   0  0  0  0  0  0  0  0  0  0  0  0
  -30.5452  -18.3088   18.8165 C   0  0  0  0  0  0  0  0  0  0  0  0
  -30.1178  -14.5653   20.0088 C   0  0  0  0  0  0  0  0  0  0  0  0
  -28.8252  -23.2572   20.2640 C   0  0  0  0  0  0  0  0  0  1  0  0
  -25.4465  -31.4269   21.0130 C   0  0  1  0  0  0  0  0  0  0  0  0
  -28.4540  -33.1399   22.5590 C   0  0  2  0  0  0  0  0  0  0  0  0
  -32.7233  -18.8598   17.4852 C   0  0  0  0  0  0  0  0  0  0  0  0
  -28.4118  -16.5737   19.7419 C   0  0  0  0  0  0  0  0  0  0  0  0
  -30.9443  -16.8208   19.0777 C   0  0  2  0  0  0  0  0  0  0  0  0
  -31.6959  -19.3231   18.5642 C   0  0  1  0  0  0  0  0  0  0  0  0
  -29.6831  -15.8229   19.1754 C   0  0  2  0  0  0  0  0  0  0  0  0
  -24.4915  -32.2025   20.0623 C   0  0  0  0  0  0  0  0  0  0  0  0
  -24.8517  -12.0872   19.3760 N   0  0  0  0  0  0  0  0  0  0  0  0
  -32.5571  -14.1836   19.8897 N   0  0  0  0  0  0  0  0  0  0  0  0
  -31.3200  -13.7434   19.6031 N   0  0  0  0  0  0  0  0  0  0  0  0
  -25.2748  -13.3501   19.5555 N   0  0  0  0  0  0  0  0  0  0  0  0
  -24.9305  -29.2188   22.0038 N   0  0  0  0  0  0  0  0  0  0  0  0
  -28.3642  -14.4589   17.5919 N   0  0  0  0  0  0  0  0  0  0  0  0
  -25.2416  -15.1530   21.0915 N   0  0  0  0  0  0  0  0  0  0  0  0
  -22.8805  -11.9372   23.2081 N   0  0  0  0  0  0  0  0  0  0  0  0
  -21.7804  -27.6560   22.6076 N   0  0  0  0  0  0  0  0  0  0  0  0
  -26.3590  -32.2786   21.7683 N   0  0  0  0  0  0  0  0  0  0  0  0
  -29.7097  -32.5455   23.0984 N   0  3  0  0  0  0  0  0  0  0  0  0
  -23.6544  -14.0898   23.3691 O   0  0  0  0  0  0  0  0  0  0  0  0
  -23.1867  -27.6686   20.7516 O   0  0  0  0  0  0  0  0  0  0  0  0
  -23.9420  -31.1630   22.8278 O   0  0  0  0  0  0  0  0  0  0  0  0
  -30.0309  -15.8893   16.8330 O   0  0  0  0  0  0  0  0  0  0  0  0
  -28.3157  -31.3062   20.9918 O   0  0  0  0  0  0  0  0  0  0  0  0
  -21.7835   -6.8348   21.2593 O   0  0  0  0  0  0  0  0  0  0  0  0
  -28.4352  -24.5787   19.9172 O   0  0  0  0  0  0  0  0  0  1  0  0
  -22.4553   -4.3773   26.1495 F   0  0  0  0  0  0  0  0  0  0  0  0
  -20.9085   -8.0439   23.5864 F   0  0  0  0  0  0  0  0  0  0  0  0
  1  2  1  0  0  0  0
  1  5  2  0  0  0  0
  2  6  2  0  0  0  0
  3  8  2  0  0  0  0
  3 17  1  0  0  0  0
  4  9  1  0  0  0  0
  4 17  2  0  0  0  0
  5 19  1  0  0  0  0
  6 21  1  0  0  0  0
  7 10  2  0  0  0  0
  7 20  1  0  0  0  0
  8 23  1  0  0  0  0
  9 23  2  0  0  0  0
 10 24  1  0  0  0  0
 11 12  2  0  0  0  0
 11 25  1  0  0  0  0
 12 26  1  0  0  0  0
 13 16  2  0  0  0  0
 13 29  1  0  0  0  0
 14 22  1  0  0  0  0
 14 24  2  0  0  0  0
 15 26  2  0  0  0  0
 15 27  1  0  0  0  0
 16 75  1  0  0  0  0
 17 28  1  0  0  0  0
 18 28  1  0  0  0  0
 18 30  2  0  0  0  0
 18 31  1  0  0  0  0
 19 21  2  0  0  0  0
 19 36  1  0  0  0  0
 20 22  2  0  0  0  0
 20 37  1  0  0  0  0
 21 45  1  0  0  0  0
 22 38  1  0  0  0  0
 23 89  1  0  0  0  0
 24 90  1  0  0  0  0
 25 27  2  0  0  0  0
 25 89  1  0  0  0  0
 26 91  1  0  0  0  0
 27 92  1  0  0  0  0
 28 73  2  0  0  0  0
 29 48  1  0  0  0  0
 29 74  2  0  0  0  0
 30 76  1  0  0  0  0
 30 79  1  0  0  0  0
 31 80  1  0  0  0  0
 31 84  2  0  0  0  0
 32 46  1  0  0  0  0
 32 81  1  0  0  0  0
 32 85  2  0  0  0  0
 33 65  1  0  0  0  0
 33 77  1  0  0  0  0
 33 86  2  0  0  0  0
 34 71  1  0  0  0  0
 34 78  1  0  0  0  0
 34 87  2  0  0  0  0
 35 66  1  0  0  0  0
 35 82  1  0  0  0  0
 35 88  2  0  0  0  0
 36 39  1  0  0  0  0
 37 46  1  0  0  0  0
 38 77  1  0  0  0  0
 39 41  1  0  0  0  0
 40 42  1  0  0  0  0
 40 43  1  0  0  0  0
 41 45  1  0  0  0  0
 42 47  1  0  0  0  0
 43 78  1  0  0  0  0
 44 47  1  0  0  0  0
 44 78  1  0  0  0  0
 45 81  1  0  0  0  0
 46 77  1  0  0  0  0
 47 76  1  0  0  0  0
 49 66  1  0  0  0  0
 50 67  1  0  0  0  0
 51 67  1  0  0  0  0
 52 68  1  0  0  0  0
 53 68  1  0  0  0  0
 54 69  1  0  0  0  0
 55 72  1  0  0  0  0
 56 72  1  0  0  0  0
 57 72  1  0  0  0  0
 58 83  1  0  0  0  0
 59 60  1  0  0  0  0
 59 61  1  0  0  0  0
 60 64  1  0  0  0  0
 61 70  1  0  0  0  0
 62 69  1  0  0  0  0
 62 70  1  0  0  0  0
 63 71  1  0  0  0  0
 63 75  1  0  0  0  0
 64 90  1  0  0  0  0
 65 72  1  0  0  0  0
 65 82  1  0  0  0  0
 66 83  1  0  0  0  0
 67 70  1  0  0  0  0
 68 71  1  0  0  0  0
 69 71  1  0  0  0  0
 73 76  1  0  0  0  0
 74 75  1  0  0  0  0
M  CHG  1  83   1
M  ISO  4  34 100  64 101  71 100  90 101
M  END
> <Batch ID>
0069

> <Smiles>
CNC(C)C(=O)NC(C(=O)N1Cc2cc([101O:1][101CH2:1]CCCC(CC(C)[100C:0](Cn3ccc(C)n3)(C(C)C)[100C:0](=O)N3CCCC(n4nc(-c5ccc(Oc6ccc(F)cc6F)cc5)c(C(N)=O)c4N)C3)C(C)C)ccc2CC1C(=O)NC1CCCc2ccccc21)C(C)(C)C

> <Shape>
0.282

> <Color>
0.112

> <Negative vol penalty>
0.000

$$$$

  -OEChem-04052318173D

 84 92  0     1  0  0  0  0  0999 V2000
  -23.1779   -8.3483   21.6043 C   0  0  0  0  0  0  0  0  0  0  0  0
  -23.7532   -9.2271   20.6920 C   0  0  0  0  0  0  0  0  0  0  0  0
  -22.2031  -28.7267   21.3644 C   0  0  0  0  0  0  0  0  0  0  0  0
  -23.3896  -28.8726   23.4640 C   0  0  0  0  0  0  0  0  0  0  0  0
  -22.1378   -8.7805   22.4260 C   0  0  0  0  0  0  0  0  0  0  0  0
  -23.2878  -10.5384   20.6002 C   0  0  0  0  0  0  0  0  0  0  0  0
  -26.5991  -15.5429   19.3770 C   0  0  0  0  0  0  0  0  0  0  0  0
  -21.0443  -29.1903   21.9870 C   0  0  0  0  0  0  0  0  0  0  0  0
  -22.2307  -29.3363   24.0866 C   0  0  0  0  0  0  0  0  0  0  0  0
  -26.8082  -16.2654   18.2032 C   0  0  0  0  0  0  0  0  0  0  0  0
  -17.6778  -29.9940   23.1027 C   0  0  0  0  0  0  0  0  0  0  0  0
  -16.4805  -29.3367   22.8199 C   0  0  0  0  0  0  0  0  0  0  0  0
  -25.0605  -17.8000   18.8436 C   0  0  0  0  0  0  0  0  0  0  0  0
  -17.4068  -27.2785   23.6820 C   0  0  0  0  0  0  0  0  0  0  0  0
  -29.0578  -19.7539   18.5163 C   0  0  0  0  0  0  0  0  0  0  0  0
  -23.3758  -28.5678   22.1029 C   0  0  0  0  0  0  0  0  0  0  0  0
  -25.5736  -28.8615   20.8415 C   0  0  0  0  0  0  0  0  0  0  0  0
  -21.6659  -10.1004   22.3509 C   0  0  0  0  0  0  0  0  0  0  0  0
  -25.6100  -15.9378   20.2893 C   0  0  0  0  0  0  0  0  0  0  0  0
  -22.2394  -10.9882   21.4207 C   0  0  0  0  0  0  0  0  0  0  0  0
  -24.8426  -17.0822   20.0295 C   0  0  0  0  0  0  0  0  0  0  0  0
  -28.8190  -20.5680   17.4279 C   0  0  0  0  0  0  0  0  0  0  0  0
  -21.0580  -29.4951   23.3481 C   0  0  0  0  0  0  0  0  0  0  0  0
  -26.0369  -17.3925   17.9349 C   0  0  0  0  0  0  0  0  0  0  0  0
  -18.7397  -29.2936   23.6751 C   0  0  0  0  0  0  0  0  0  0  0  0
  -16.3450  -27.9790   23.1096 C   0  0  0  0  0  0  0  0  0  0  0  0
  -18.6042  -27.9359   23.9647 C   0  0  0  0  0  0  0  0  0  0  0  0
  -24.5731  -28.0884   21.4604 C   0  0  0  0  0  0  0  0  0  0  0  0
  -29.0280  -21.9164   17.6336 C   0  0  0  0  0  0  0  0  0  0  0  0
  -26.4880  -27.9416   20.3896 C   0  0  0  0  0  0  0  0  0  0  0  0
  -29.6373  -21.5441   19.7917 C   0  0  0  0  0  0  0  0  0  0  0  0
  -25.6680  -30.2840   20.6888 C   0  0  0  0  0  0  0  0  0  0  0  0
  -22.9581  -14.6126   21.4359 C   0  0  0  0  0  0  0  0  0  0  0  0
  -22.9352  -17.2379   23.3410 C   0  0  0  0  0  0  0  0  0  0  0  0
  -29.5754  -23.4849   21.3293 C   0  0  0  0  0  0  0  0  0  0  0  0
  -23.9094  -20.4721   23.8289 C   0  0  0  0  0  0  0  0  0  0  0  0
  -20.5076  -10.5082   23.2266 C   0  0  0  0  0  0  0  0  0  0  0  0
  -25.4150  -15.1631   21.5637 C   0  0  0  0  0  0  0  0  0  0  0  0
  -23.7819  -17.5597   20.9862 C   0  0  0  0  0  0  0  0  0  0  0  0
  -20.3242  -12.0202   23.3291 C   0  0  0  0  0  0  0  0  0  0  0  0
  -26.2194  -22.9098   20.0512 C   0  0  0  0  0  0  0  0  0  0  0  0
  -20.4052  -12.6625   21.9479 C   0  0  0  0  0  0  0  0  0  0  0  0
  -25.5661  -24.2714   20.2843 C   0  0  0  0  0  0  0  0  0  0  0  0
  -27.2113  -22.5661   21.1593 C   0  0  0  0  0  0  0  0  0  0  0  0
  -27.6136  -24.9675   21.6019 C   0  0  0  0  0  0  0  0  0  0  0  0
  -21.7788  -12.4254   21.3088 C   0  0  1  0  0  0  0  0  0  0  0  0
  -24.0316  -15.3589   22.1763 C   0  0  1  0  0  0  0  0  0  0  0  0
  -26.6285  -25.3653   20.4900 C   0  0  2  0  0  0  0  0  0  0  0  0
  -29.3802  -24.2690   16.8413 C   0  0  0  0  0  0  0  0  0  0  0  0
  -24.2198  -22.6548   25.0276 C   0  0  0  0  0  0  0  0  0  0  0  0
  -31.6423  -22.1499   21.1721 C   0  0  0  0  0  0  0  0  0  0  0  0
  -29.6174  -21.3094   22.3668 C   0  0  0  0  0  0  0  0  0  0  0  0
  -20.0837  -17.7528   22.3850 C   0  0  0  0  0  0  0  0  0  0  0  0
  -20.2829  -20.0866   23.2692 C   0  0  0  0  0  0  0  0  0  0  0  0
  -20.4522  -18.1458   24.8272 C   0  0  0  0  0  0  0  0  0  0  0  0
  -26.4637  -19.5821   25.0301 C   0  0  0  0  0  0  0  0  0  0  0  0
  -28.3595  -19.9956   16.1107 C   0  0  0  0  0  0  0  0  0  0  0  0
  -28.8016  -22.8926   16.5267 C   0  0  0  0  0  0  0  0  0  0  0  0
  -26.8696  -20.2073   15.8334 C   0  0  0  0  0  0  0  0  0  0  0  0
  -25.9628  -19.4987   16.8329 C   0  0  0  0  0  0  0  0  0  1  0  0
  -22.3578  -18.6289   23.2375 C   0  0  1  0  0  0  0  0  0  0  0  0
  -24.5328  -21.1665   25.0263 C   0  0  2  0  0  0  0  0  0  0  0  0
  -30.0924  -22.0863   21.1043 C   0  0  0  0  0  0  0  0  0  0  0  0
  -20.8127  -18.6437   23.4106 C   0  0  0  0  0  0  0  0  0  0  0  0
  -29.4693  -20.2100   19.7175 N   0  0  0  0  0  0  0  0  0  0  0  0
  -24.8276  -26.7782   21.4082 N   0  0  0  0  0  0  0  0  0  0  0  0
  -29.4383  -22.4410   18.8070 N   0  0  0  0  0  0  0  0  0  0  0  0
  -25.9985  -26.7210   20.7510 N   0  0  0  0  0  0  0  0  0  0  0  0
  -23.6247  -16.7650   22.2155 N   0  0  0  0  0  0  0  0  0  0  0  0
  -28.1896  -23.6449   21.3426 N   0  0  0  0  0  0  0  0  0  0  0  0
  -27.6549  -28.0659   19.7224 N   0  0  0  0  0  0  0  0  0  0  0  0
  -24.6416  -31.0818   21.2125 N   0  0  0  0  0  0  0  0  0  0  0  0
  -22.7633  -13.3188   21.8805 N   0  0  0  0  0  0  0  0  0  0  0  0
  -23.0761  -19.4426   24.2124 N   0  0  0  0  0  0  0  0  0  0  0  0
  -26.0134  -20.9977   25.0101 N   0  3  0  0  0  0  0  0  0  0  0  0
  -26.6258  -30.8304   20.0908 O   0  0  0  0  0  0  0  0  0  0  0  0
  -22.3503  -15.1698   20.5293 O   0  0  0  0  0  0  0  0  0  0  0  0
  -22.7862  -16.5974   24.3846 O   0  0  0  0  0  0  0  0  0  0  0  0
  -30.3806  -24.4065   21.4856 O   0  0  0  0  0  0  0  0  0  0  0  0
  -24.1360  -20.8114   22.6696 O   0  0  0  0  0  0  0  0  0  0  0  0
  -19.9275  -29.9478   23.9560 O   0  0  0  0  0  0  0  0  0  0  0  0
  -26.2386  -18.0992   16.7896 O   0  0  0  0  0  0  0  0  0  1  0  0
  -15.1946  -27.3483   22.8394 F   0  0  0  0  0  0  0  0  0  0  0  0
  -19.6204  -27.2579   24.5157 F   0  0  0  0  0  0  0  0  0  0  0  0
  1  2  1  0  0  0  0
  1  5  2  0  0  0  0
  2  6  2  0  0  0  0
  3  8  2  0  0  0  0
  3 16  1  0  0  0  0
  4  9  1  0  0  0  0
  4 16  2  0  0  0  0
  5 18  1  0  0  0  0
  6 20  1  0  0  0  0
  7 10  2  0  0  0  0
  7 19  1  0  0  0  0
  8 23  1  0  0  0  0
  9 23  2  0  0  0  0
 10 24  1  0  0  0  0
 11 12  2  0  0  0  0
 11 25  1  0  0  0  0
 12 26  1  0  0  0  0
 13 21  1  0  0  0  0
 13 24  2  0  0  0  0
 14 26  2  0  0  0  0
 14 27  1  0  0  0  0
 15 22  1  0  0  0  0
 15 65  2  0  0  0  0
 16 28  1  0  0  0  0
 17 28  1  0  0  0  0
 17 30  2  0  0  0  0
 17 32  1  0  0  0  0
 18 20  2  0  0  0  0
 18 37  1  0  0  0  0
 19 21  2  0  0  0  0
 19 38  1  0  0  0  0
 20 46  1  0  0  0  0
 21 39  1  0  0  0  0
 22 29  2  0  0  0  0
 22 57  1  0  0  0  0
 23 81  1  0  0  0  0
 24 82  1  0  0  0  0
 25 27  2  0  0  0  0
 25 81  1  0  0  0  0
 26 83  1  0  0  0  0
 27 84  1  0  0  0  0
 28 66  2  0  0  0  0
 29 58  1  0  0  0  0
 29 67  1  0  0  0  0
 30 68  1  0  0  0  0
 30 71  1  0  0  0  0
 31 63  1  0  0  0  0
 31 65  1  0  0  0  0
 31 67  2  0  0  0  0
 32 72  1  0  0  0  0
 32 76  2  0  0  0  0
 33 47  1  0  0  0  0
 33 73  1  0  0  0  0
 33 77  2  0  0  0  0
 34 61  1  0  0  0  0
 34 69  1  0  0  0  0
 34 78  2  0  0  0  0
 35 63  1  0  0  0  0
 35 70  1  0  0  0  0
 35 79  2  0  0  0  0
 36 62  1  0  0  0  0
 36 74  1  0  0  0  0
 36 80  2  0  0  0  0
 37 40  1  0  0  0  0
 38 47  1  0  0  0  0
 39 69  1  0  0  0  0
 40 42  1  0  0  0  0
 41 43  1  0  0  0  0
 41 44  1  0  0  0  0
 42 46  1  0  0  0  0
 43 48  1  0  0  0  0
 44 70  1  0  0  0  0
 45 48  1  0  0  0  0
 45 70  1  0  0  0  0
 46 73  1  0  0  0  0
 47 69  1  0  0  0  0
 48 68  1  0  0  0  0
 49 58  1  0  0  0  0
 50 62  1  0  0  0  0
 51 63  1  0  0  0  0
 52 63  1  0  0  0  0
 53 64  1  0  0  0  0
 54 64  1  0  0  0  0
 55 64  1  0  0  0  0
 56 75  1  0  0  0  0
 57 59  1  0  0  0  0
 59 60  1  0  0  0  0
 60 82  1  0  0  0  0
 61 64  1  0  0  0  0
 61 74  1  0  0  0  0
 62 75  1  0  0  0  0
 66 68  1  0  0  0  0
M  CHG  1  75   1
M  ISO  4  35 100  60 101  63 100  82 101
M  END
> <Batch ID>
0069

> <Smiles>
CCc1nc([100C:0](C)(C)[100C:0](=O)N2CCCC(n3nc(-c4ccc(Oc5ccc(F)cc5F)cc4)c(C(N)=O)c3N)C2)ncc1CC[101CH2:1][101O:1]c1ccc2c(c1)CN(C(=O)C(NC(=O)C(C)NC)C(C)(C)C)C(C(=O)NC1CCCc3ccccc31)C2

> <Shape>
0.212

> <Color>
0.078

> <Negative vol penalty>
0.000

$$$$

  -OEChem-04052318173D

 86 94  0     1  0  0  0  0  0999 V2000
  -22.8170   -7.9645   20.5247 C   0  0  0  0  0  0  0  0  0  0  0  0
  -22.1501   -9.0358   19.9392 C   0  0  0  0  0  0  0  0  0  0  0  0
  -28.2113  -23.4934   21.0563 C   0  0  0  0  0  0  0  0  0  0  0  0
  -27.5489  -24.4145   23.1893 C   0  0  0  0  0  0  0  0  0  0  0  0
  -23.6537   -8.1798   21.6191 C   0  0  0  0  0  0  0  0  0  0  0  0
  -22.3185  -10.3229   20.4484 C   0  0  0  0  0  0  0  0  0  0  0  0
  -22.5355  -17.1705   18.3556 C   0  0  0  0  0  0  0  0  0  0  0  0
  -28.2175  -22.2136   21.6109 C   0  0  0  0  0  0  0  0  0  0  0  0
  -27.5550  -23.1346   23.7439 C   0  0  0  0  0  0  0  0  0  0  0  0
  -21.9611  -18.4059   18.6516 C   0  0  0  0  0  0  0  0  0  0  0  0
  -25.5323  -20.4276   23.7799 C   0  0  0  0  0  0  0  0  0  0  0  0
  -24.4547  -20.0686   24.5894 C   0  0  0  0  0  0  0  0  0  0  0  0
  -23.4932  -18.6698   20.4961 C   0  0  0  0  0  0  0  0  0  0  0  0
  -25.9649  -19.7102   26.4409 C   0  0  0  0  0  0  0  0  0  0  0  0
  -23.0924  -25.9332   19.1792 C   0  0  0  0  0  0  0  0  0  0  0  0
  -27.8770  -24.5939   21.8455 C   0  0  0  0  0  0  0  0  0  0  0  0
  -28.9559  -26.5923   20.6835 C   0  0  0  0  0  0  0  0  0  0  0  0
  -23.8400   -9.4716   22.1359 C   0  0  0  0  0  0  0  0  0  0  0  0
  -23.5877  -16.6697   19.1357 C   0  0  0  0  0  0  0  0  0  0  0  0
  -23.1573  -10.5555   21.5515 C   0  0  0  0  0  0  0  0  0  0  0  0
  -24.0810  -17.4289   20.2064 C   0  0  0  0  0  0  0  0  0  0  0  0
  -27.8893  -22.0341   22.9546 C   0  0  0  0  0  0  0  0  0  0  0  0
  -22.4380  -19.1544   19.7237 C   0  0  0  0  0  0  0  0  0  0  0  0
  -26.8263  -20.4279   24.3008 C   0  0  0  0  0  0  0  0  0  0  0  0
  -24.6709  -19.7099   25.9199 C   0  0  0  0  0  0  0  0  0  0  0  0
  -27.0426  -20.0692   25.6313 C   0  0  0  0  0  0  0  0  0  0  0  0
  -27.8710  -25.9163   21.2734 C   0  0  0  0  0  0  0  0  0  0  0  0
  -22.6491  -25.2328   20.3171 C   0  0  0  0  0  0  0  0  0  0  0  0
  -22.3975  -27.1175   19.2127 C   0  0  0  0  0  0  0  0  0  0  0  0
  -28.4370  -27.8045   20.2992 C   0  0  0  0  0  0  0  0  0  0  0  0
  -30.3113  -26.1628   20.4995 C   0  0  0  0  0  0  0  0  0  0  0  0
  -23.9966  -14.1068   20.9709 C   0  0  0  0  0  0  0  0  0  0  0  0
  -27.0444  -15.2027   21.1498 C   0  0  0  0  0  0  0  0  0  0  0  0
  -22.8314  -29.5419   19.0067 C   0  0  0  0  0  0  0  0  0  0  0  0
  -29.1903  -17.8469   20.9261 C   0  0  0  0  0  0  0  0  0  0  0  0
  -24.7174   -9.6482   23.3499 C   0  0  0  0  0  0  0  0  0  0  0  0
  -24.2143  -15.3475   18.7871 C   0  0  0  0  0  0  0  0  0  0  0  0
  -25.2220  -16.9452   21.0623 C   0  0  0  0  0  0  0  0  0  0  0  0
  -25.1343  -11.0962   23.5946 C   0  0  0  0  0  0  0  0  0  0  0  0
  -25.0422  -30.9650   21.4412 C   0  0  0  0  0  0  0  0  0  0  0  0
  -23.9316  -12.0262   23.4707 C   0  0  0  0  0  0  0  0  0  0  0  0
  -26.1009  -29.8815   21.6416 C   0  0  0  0  0  0  0  0  0  0  0  0
  -23.6653  -30.3599   21.1861 C   0  0  0  0  0  0  0  0  0  0  0  0
  -24.6849  -28.3129   20.2418 C   0  0  0  0  0  0  0  0  0  0  0  0
  -23.3337  -11.9700   22.0598 C   0  0  1  0  0  0  0  0  0  0  0  0
  -24.9395  -14.7013   19.9634 C   0  0  1  0  0  0  0  0  0  0  0  0
  -26.0964  -28.8812   20.4720 C   0  0  2  0  0  0  0  0  0  0  0  0
  -31.6174  -18.4395   21.1610 C   0  0  0  0  0  0  0  0  0  0  0  0
  -21.0047  -28.5464   17.6926 C   0  0  0  0  0  0  0  0  0  0  0  0
  -23.4036  -28.2023   17.0919 C   0  0  0  0  0  0  0  0  0  0  0  0
  -26.7783  -15.0782   24.1868 C   0  0  0  0  0  0  0  0  0  0  0  0
  -28.8048  -16.5389   24.3545 C   0  0  0  0  0  0  0  0  0  0  0  0
  -28.9778  -14.2853   23.2990 C   0  0  0  0  0  0  0  0  0  0  0  0
  -29.3668  -18.7313   18.1072 C   0  0  0  0  0  0  0  0  0  0  0  0
  -23.0799  -23.8635   20.7787 C   0  0  0  0  0  0  0  0  0  0  0  0
  -22.2301  -22.7257   20.2086 C   0  0  0  0  0  0  0  0  0  0  0  0
  -20.6929  -28.0680   20.7954 C   0  0  0  0  0  0  0  0  0  0  0  0
  -22.7253  -21.3417   20.6120 C   0  0  0  0  0  0  0  0  0  1  0  0
  -27.7900  -16.1445   22.0642 C   0  0  1  0  0  0  0  0  0  0  0  0
  -30.5159  -18.0102   20.2045 C   0  0  2  0  0  0  0  0  0  0  0  0
  -22.4140  -28.2761   18.3012 C   0  0  0  0  0  0  0  0  0  0  0  0
  -28.0649  -15.5202   23.4614 C   0  0  0  0  0  0  0  0  0  0  0  0
  -20.5816  -28.0988   22.3038 C   0  0  0  0  0  0  0  0  0  0  0  0
  -26.7479  -26.6391   21.2668 N   0  0  0  0  0  0  0  0  0  0  0  0
  -21.7429  -25.9152   21.0221 N   0  0  0  0  0  0  0  0  0  0  0  0
  -21.6111  -27.0569   20.3254 N   0  0  0  0  0  0  0  0  0  0  0  0
  -27.1242  -27.7820   20.6681 N   0  0  0  0  0  0  0  0  0  0  0  0
  -25.7972  -15.6434   20.6852 N   0  0  0  0  0  0  0  0  0  0  0  0
  -23.7077  -29.3988   20.0826 N   0  0  0  0  0  0  0  0  0  0  0  0
  -28.9804  -28.8770   19.6851 N   0  0  0  0  0  0  0  0  0  0  0  0
  -31.2426  -26.4383   21.5100 N   0  0  0  0  0  0  0  0  0  0  0  0
  -24.1391  -12.7426   21.1384 N   0  0  0  0  0  0  0  0  0  0  0  0
  -28.9923  -16.5475   21.3427 N   0  0  0  0  0  0  0  0  0  0  0  0
  -30.3984  -19.0376   19.1314 N   0  3  0  0  0  0  0  0  0  0  0  0
  -30.6892  -25.5672   19.4622 O   0  0  0  0  0  0  0  0  0  0  0  0
  -23.1998  -14.8323   21.5543 O   0  0  0  0  0  0  0  0  0  0  0  0
  -27.5533  -14.1189   20.8527 O   0  0  0  0  0  0  0  0  0  0  0  0
  -22.3930  -30.6248   18.6100 O   0  0  0  0  0  0  0  0  0  0  0  0
  -28.4103  -18.7796   21.1057 O   0  0  0  0  0  0  0  0  0  0  0  0
  -27.8950  -20.7854   23.4961 O   0  0  0  0  0  0  0  0  0  0  0  0
  -21.8786  -20.3603   20.0151 O   0  0  0  0  0  0  0  0  0  1  0  0
  -23.6358  -19.3666   26.6976 F   0  0  0  0  0  0  0  0  0  0  0  0
  -28.2833  -20.0688   26.1377 F   0  0  0  0  0  0  0  0  0  0  0  0
  -20.1253  -26.9119   22.7637 F   0  0  0  0  0  0  0  0  0  0  0  0
  -19.7224  -29.0530   22.7201 F   0  0  0  0  0  0  0  0  0  0  0  0
  -21.7773  -28.3278   22.8868 F   0  0  0  0  0  0  0  0  0  0  0  0
  1  2  1  0  0  0  0
  1  5  2  0  0  0  0
  2  6  2  0  0  0  0
  3  8  2  0  0  0  0
  3 16  1  0  0  0  0
  4  9  1  0  0  0  0
  4 16  2  0  0  0  0
  5 18  1  0  0  0  0
  6 20  1  0  0  0  0
  7 10  2  0  0  0  0
  7 19  1  0  0  0  0
  8 22  1  0  0  0  0
  9 22  2  0  0  0  0
 10 23  1  0  0  0  0
 11 12  2  0  0  0  0
 11 24  1  0  0  0  0
 12 25  1  0  0  0  0
 13 21  1  0  0  0  0
 13 23  2  0  0  0  0
 14 25  2  0  0  0  0
 14 26  1  0  0  0  0
 15 28  1  0  0  0  0
 15 29  2  0  0  0  0
 16 27  1  0  0  0  0
 17 27  1  0  0  0  0
 17 30  2  0  0  0  0
 17 31  1  0  0  0  0
 18 20  2  0  0  0  0
 18 36  1  0  0  0  0
 19 21  2  0  0  0  0
 19 37  1  0  0  0  0
 20 45  1  0  0  0  0
 21 38  1  0  0  0  0
 22 80  1  0  0  0  0
 23 81  1  0  0  0  0
 24 26  2  0  0  0  0
 24 80  1  0  0  0  0
 25 82  1  0  0  0  0
 26 83  1  0  0  0  0
 27 64  2  0  0  0  0
 28 55  1  0  0  0  0
 28 65  2  0  0  0  0
 29 61  1  0  0  0  0
 29 66  1  0  0  0  0
 30 67  1  0  0  0  0
 30 70  1  0  0  0  0
 31 71  1  0  0  0  0
 31 75  2  0  0  0  0
 32 46  1  0  0  0  0
 32 72  1  0  0  0  0
 32 76  2  0  0  0  0
 33 59  1  0  0  0  0
 33 68  1  0  0  0  0
 33 77  2  0  0  0  0
 34 61  1  0  0  0  0
 34 69  1  0  0  0  0
 34 78  2  0  0  0  0
 35 60  1  0  0  0  0
 35 73  1  0  0  0  0
 35 79  2  0  0  0  0
 36 39  1  0  0  0  0
 37 46  1  0  0  0  0
 38 68  1  0  0  0  0
 39 41  1  0  0  0  0
 40 42  1  0  0  0  0
 40 43  1  0  0  0  0
 41 45  1  0  0  0  0
 42 47  1  0  0  0  0
 43 69  1  0  0  0  0
 44 47  1  0  0  0  0
 44 69  1  0  0  0  0
 45 72  1  0  0  0  0
 46 68  1  0  0  0  0
 47 67  1  0  0  0  0
 48 60  1  0  0  0  0
 49 61  1  0  0  0  0
 50 61  1  0  0  0  0
 51 62  1  0  0  0  0
 52 62  1  0  0  0  0
 53 62  1  0  0  0  0
 54 74  1  0  0  0  0
 55 56  1  0  0  0  0
 56 58  1  0  0  0  0
 57 63  1  0  0  0  0
 57 66  1  0  0  0  0
 58 81  1  0  0  0  0
 59 62  1  0  0  0  0
 59 73  1  0  0  0  0
 60 74  1  0  0  0  0
 63 84  1  0  0  0  0
 63 85  1  0  0  0  0
 63 86  1  0  0  0  0
 64 67  1  0  0  0  0
 65 66  1  0  0  0  0
M  CHG  1  74   1
M  ISO  4  34 100  58 101  61 100  81 101
M  END
> <Batch ID>
0069

> <Smiles>
CNC(C)C(=O)NC(C(=O)N1Cc2cc([101O:1][101CH2:1]CCc3cc([100C:0](C)(C)[100C:0](=O)N4CCCC(n5nc(-c6ccc(Oc7ccc(F)cc7F)cc6)c(C(N)=O)c5N)C4)n(CC(F)(F)F)n3)ccc2CC1C(=O)NC1CCCc2ccccc21)C(C)(C)C

> <Shape>
0.235

> <Color>
0.056

> <Negative vol penalty>
0.000

$$$$

  -OEChem-04052318173D

 88 96  0     1  0  0  0  0  0999 V2000
  -21.5593  -27.0126   21.4810 C   0  0  0  0  0  0  0  0  0  0  0  0
  -21.9467  -26.0205   20.5859 C   0  0  0  0  0  0  0  0  0  0  0  0
  -26.1836  -27.2796   18.9317 C   0  0  0  0  0  0  0  0  0  0  0  0
  -26.8717  -27.4127   21.2438 C   0  0  0  0  0  0  0  0  0  0  0  0
  -21.7930  -26.8486   22.8457 C   0  0  0  0  0  0  0  0  0  0  0  0
  -22.5692  -24.8643   21.0550 C   0  0  0  0  0  0  0  0  0  0  0  0
  -23.1228  -17.8609   19.6538 C   0  0  0  0  0  0  0  0  0  0  0  0
  -25.3510  -28.3834   19.1159 C   0  0  0  0  0  0  0  0  0  0  0  0
  -26.0391  -28.5166   21.4280 C   0  0  0  0  0  0  0  0  0  0  0  0
  -24.0886  -16.8763   19.4501 C   0  0  0  0  0  0  0  0  0  0  0  0
  -26.1080  -31.8269   20.7512 C   0  0  0  0  0  0  0  0  0  0  0  0
  -26.6268  -32.9191   21.4464 C   0  0  0  0  0  0  0  0  0  0  0  0
  -24.3697  -16.6668   21.8368 C   0  0  0  0  0  0  0  0  0  0  0  0
  -24.8898  -32.6857   23.1094 C   0  0  0  0  0  0  0  0  0  0  0  0
  -29.0582  -16.9468   19.4788 C   0  0  0  0  0  0  0  0  0  0  0  0
  -26.9439  -26.7942   19.9957 C   0  0  0  0  0  0  0  0  0  0  0  0
  -29.1529  -25.6635   19.4044 C   0  0  0  0  0  0  0  0  0  0  0  0
  -22.4099  -25.6855   23.3327 C   0  0  0  0  0  0  0  0  0  0  0  0
  -22.7804  -18.2642   20.9525 C   0  0  0  0  0  0  0  0  0  0  0  0
  -22.8126  -24.6852   22.4274 C   0  0  0  0  0  0  0  0  0  0  0  0
  -23.3974  -17.6549   22.0544 C   0  0  0  0  0  0  0  0  0  0  0  0
  -25.2788  -29.0020   20.3640 C   0  0  0  0  0  0  0  0  0  0  0  0
  -24.7143  -16.2811   20.5416 C   0  0  0  0  0  0  0  0  0  0  0  0
  -24.9801  -31.1640   21.2350 C   0  0  0  0  0  0  0  0  0  0  0  0
  -26.0178  -33.3485   22.6255 C   0  0  0  0  0  0  0  0  0  0  0  0
  -24.3710  -31.5934   22.4141 C   0  0  0  0  0  0  0  0  0  0  0  0
  -27.8037  -25.6536   19.8062 C   0  0  0  0  0  0  0  0  0  0  0  0
  -28.7637  -15.7285   20.0503 C   0  0  0  0  0  0  0  0  0  0  0  0
  -30.3890  -17.4633   21.2653 C   0  0  0  0  0  0  0  0  0  0  0  0
  -30.0941  -16.2453   21.8372 C   0  0  0  0  0  0  0  0  0  0  0  0
  -29.5120  -24.3381   19.3747 C   0  0  0  0  0  0  0  0  0  0  0  0
  -30.0053  -26.7717   19.0864 C   0  0  0  0  0  0  0  0  0  0  0  0
  -22.9466  -20.9954   22.5702 C   0  0  0  0  0  0  0  0  0  0  0  0
  -21.3427  -19.3046   24.8266 C   0  0  0  0  0  0  0  0  0  0  0  0
  -20.5542  -16.2589   26.1489 C   0  0  0  0  0  0  0  0  0  0  0  0
  -28.1706  -19.5309   22.5644 C   0  0  0  0  0  0  0  0  0  0  0  0
  -22.6844  -25.5742   24.8115 C   0  0  0  0  0  0  0  0  0  0  0  0
  -21.7173  -19.3087   21.1560 C   0  0  0  0  0  0  0  0  0  0  0  0
  -23.0510  -18.0378   23.4692 C   0  0  0  0  0  0  0  0  0  0  0  0
  -23.0111  -24.1537   25.2652 C   0  0  0  0  0  0  0  0  0  0  0  0
  -27.0749  -20.0571   19.0681 C   0  0  0  0  0  0  0  0  0  0  0  0
  -24.0266  -23.5131   24.3243 C   0  0  0  0  0  0  0  0  0  0  0  0
  -27.2128  -21.5693   18.8999 C   0  0  0  0  0  0  0  0  0  0  0  0
  -26.7982  -19.6706   20.5179 C   0  0  0  0  0  0  0  0  0  0  0  0
  -27.9335  -21.7170   21.3163 C   0  0  0  0  0  0  0  0  0  0  0  0
  -23.4681  -23.4058   22.9002 C   0  0  1  0  0  0  0  0  0  0  0  0
  -21.8168  -20.0068   22.5089 C   0  0  1  0  0  0  0  0  0  0  0  0
  -28.2590  -22.1367   19.8750 C   0  0  2  0  0  0  0  0  0  0  0  0
  -29.7525  -13.7375   17.8847 C   0  0  0  0  0  0  0  0  0  0  0  0
  -31.9768  -15.0651   23.0252 C   0  0  0  0  0  0  0  0  0  0  0  0
  -19.2529  -15.1984   28.0142 C   0  0  0  0  0  0  0  0  0  0  0  0
  -27.6030  -13.4171   20.1198 C   0  0  0  0  0  0  0  0  0  0  0  0
  -23.5190  -20.1184   26.8043 C   0  0  0  0  0  0  0  0  0  0  0  0
  -22.7101  -18.3078   28.3325 C   0  0  0  0  0  0  0  0  0  0  0  0
  -21.1941  -20.1927   27.7227 C   0  0  0  0  0  0  0  0  0  0  0  0
  -29.7521  -19.5697   24.4557 C   0  0  0  0  0  0  0  0  0  0  0  0
  -18.8179  -14.7878   24.2568 C   0  0  0  0  0  0  0  0  0  0  0  0
  -31.2952  -18.4381   21.9366 C   0  0  0  0  0  0  0  0  0  0  0  0
  -28.3701  -14.3836   17.9151 C   0  0  0  0  0  0  0  0  0  0  0  0
  -30.6546  -19.8114   22.1726 C   0  0  0  0  0  0  0  0  0  0  0  0
  -26.4295  -15.4026   19.1480 C   0  0  0  0  0  0  0  0  0  1  0  0
  -30.6674  -15.8457   23.1538 C   0  0  2  0  0  0  0  0  0  0  0  0
  -21.7405  -18.4320   25.9925 C   0  0  1  0  0  0  0  0  0  0  0  0
  -19.2249  -15.6545   26.5637 C   0  0  2  0  0  0  0  0  0  0  0  0
  -27.8238  -14.7360   19.3362 C   0  0  2  0  0  0  0  0  0  0  0  0
  -22.2991  -19.2567   27.1864 C   0  0  0  0  0  0  0  0  0  0  0  0
  -29.8762  -17.8361   20.0761 N   0  0  0  0  0  0  0  0  0  0  0  0
  -27.3374  -24.4198   20.0166 N   0  0  0  0  0  0  0  0  0  0  0  0
  -29.2764  -15.3559   21.2398 N   0  0  0  0  0  0  0  0  0  0  0  0
  -28.3994  -23.6421   19.7458 N   0  0  0  0  0  0  0  0  0  0  0  0
  -22.0099  -19.0684   23.6163 N   0  0  0  0  0  0  0  0  0  0  0  0
  -27.7822  -20.2584   21.4275 N   0  0  0  0  0  0  0  0  0  0  0  0
  -30.6678  -23.7119   19.0675 N   0  0  0  0  0  0  0  0  0  0  0  0
  -29.4760  -28.0668   19.1686 N   0  0  0  0  0  0  0  0  0  0  0  0
  -22.5437  -22.2966   22.8021 N   0  0  0  0  0  0  0  0  0  0  0  0
  -20.5682  -17.6272   26.3187 N   0  0  0  0  0  0  0  0  0  0  0  0
  -29.4776  -19.7289   23.0347 N   0  0  0  0  0  0  0  0  0  0  0  0
  -18.9008  -14.4786   25.7075 N   0  3  0  0  0  0  0  0  0  0  0  0
  -31.1961  -26.6170   18.7239 O   0  0  0  0  0  0  0  0  0  0  0  0
  -24.0989  -20.6061   22.4199 O   0  0  0  0  0  0  0  0  0  0  0  0
  -20.4670  -20.1594   24.9821 O   0  0  0  0  0  0  0  0  0  0  0  0
  -21.4881  -15.5842   25.7209 O   0  0  0  0  0  0  0  0  0  0  0  0
  -27.3966  -18.7418   23.1214 O   0  0  0  0  0  0  0  0  0  0  0  0
  -29.7222  -15.0212   23.8459 O   0  0  0  0  0  0  0  0  0  0  0  0
  -24.4666  -30.0793   20.5441 O   0  0  0  0  0  0  0  0  0  0  0  0
  -25.6578  -15.3203   20.3455 O   0  0  0  0  0  0  0  0  0  1  0  0
  -26.5170  -34.3965   23.2939 F   0  0  0  0  0  0  0  0  0  0  0  0
  -23.2879  -30.9599   22.8845 F   0  0  0  0  0  0  0  0  0  0  0  0
  1  2  1  0  0  0  0
  1  5  2  0  0  0  0
  2  6  2  0  0  0  0
  3  8  2  0  0  0  0
  3 16  1  0  0  0  0
  4  9  1  0  0  0  0
  4 16  2  0  0  0  0
  5 18  1  0  0  0  0
  6 20  1  0  0  0  0
  7 10  2  0  0  0  0
  7 19  1  0  0  0  0
  8 22  1  0  0  0  0
  9 22  2  0  0  0  0
 10 23  1  0  0  0  0
 11 12  2  0  0  0  0
 11 24  1  0  0  0  0
 12 25  1  0  0  0  0
 13 21  1  0  0  0  0
 13 23  2  0  0  0  0
 14 25  2  0  0  0  0
 14 26  1  0  0  0  0
 15 28  1  0  0  0  0
 15 67  2  0  0  0  0
 16 27  1  0  0  0  0
 17 27  1  0  0  0  0
 17 31  2  0  0  0  0
 17 32  1  0  0  0  0
 18 20  2  0  0  0  0
 18 37  1  0  0  0  0
 19 21  2  0  0  0  0
 19 38  1  0  0  0  0
 20 46  1  0  0  0  0
 21 39  1  0  0  0  0
 22 85  1  0  0  0  0
 23 86  1  0  0  0  0
 24 26  2  0  0  0  0
 24 85  1  0  0  0  0
 25 87  1  0  0  0  0
 26 88  1  0  0  0  0
 27 68  2  0  0  0  0
 28 65  1  0  0  0  0
 28 69  2  0  0  0  0
 29 30  2  0  0  0  0
 29 58  1  0  0  0  0
 29 67  1  0  0  0  0
 30 62  1  0  0  0  0
 30 69  1  0  0  0  0
 31 70  1  0  0  0  0
 31 73  1  0  0  0  0
 32 74  1  0  0  0  0
 32 79  2  0  0  0  0
 33 47  1  0  0  0  0
 33 75  1  0  0  0  0
 33 80  2  0  0  0  0
 34 63  1  0  0  0  0
 34 71  1  0  0  0  0
 34 81  2  0  0  0  0
 35 64  1  0  0  0  0
 35 76  1  0  0  0  0
 35 82  2  0  0  0  0
 36 72  1  0  0  0  0
 36 77  1  0  0  0  0
 36 83  2  0  0  0  0
 37 40  1  0  0  0  0
 38 47  1  0  0  0  0
 39 71  1  0  0  0  0
 40 42  1  0  0  0  0
 41 43  1  0  0  0  0
 41 44  1  0  0  0  0
 42 46  1  0  0  0  0
 43 48  1  0  0  0  0
 44 72  1  0  0  0  0
 45 48  1  0  0  0  0
 45 72  1  0  0  0  0
 46 75  1  0  0  0  0
 47 71  1  0  0  0  0
 48 70  1  0  0  0  0
 49 59  1  0  0  0  0
 50 62  1  0  0  0  0
 51 64  1  0  0  0  0
 52 65  1  0  0  0  0
 53 66  1  0  0  0  0
 54 66  1  0  0  0  0
 55 66  1  0  0  0  0
 56 77  1  0  0  0  0
 57 78  1  0  0  0  0
 58 60  1  0  0  0  0
 59 65  1  0  0  0  0
 60 77  1  0  0  0  0
 61 65  1  0  0  0  0
 61 86  1  0  0  0  0
 62 84  1  0  0  0  0
 63 66  1  0  0  0  0
 63 76  1  0  0  0  0
 64 78  1  0  0  0  0
 68 70  1  0  0  0  0
M  CHG  1  78   1
M  ISO  4  36 100  61 101  77 100  86 101
M  END
> <Batch ID>
0069

> <Smiles>
CCC(C)(c1cnc(CC[100N:0](C)[100C:0](=O)N2CCCC(n3nc(-c4ccc(Oc5ccc(F)cc5F)cc4)c(C(N)=O)c3N)C2)c(C(C)O)n1)[101CH2:1][101O:1]c1ccc2c(c1)CN(C(=O)C(NC(=O)C(C)NC)C(C)(C)C)C(C(=O)NC1CCCc3ccccc31)C2

> <Shape>
0.211

> <Color>
0.049

> <Negative vol penalty>
0.000

$$$$

  -OEChem-04052318173D

 88 96  0     1  0  0  0  0  0999 V2000
  -17.4899  -21.8909   24.1580 C   0  0  0  0  0  0  0  0  0  0  0  0
  -18.8607  -21.6533   24.1568 C   0  0  0  0  0  0  0  0  0  0  0  0
  -23.0630   -9.8886   19.9342 C   0  0  0  0  0  0  0  0  0  0  0  0
  -23.8478   -9.8607   22.2190 C   0  0  0  0  0  0  0  0  0  0  0  0
  -16.9424  -22.8118   23.2657 C   0  0  0  0  0  0  0  0  0  0  0  0
  -19.6847  -22.3359   23.2626 C   0  0  0  0  0  0  0  0  0  0  0  0
  -25.4250  -24.2258   24.2538 C   0  0  0  0  0  0  0  0  0  0  0  0
  -22.3188   -8.7339   20.1757 C   0  0  0  0  0  0  0  0  0  0  0  0
  -23.1035   -8.7060   22.4606 C   0  0  0  0  0  0  0  0  0  0  0  0
  -26.6632  -23.6847   23.9104 C   0  0  0  0  0  0  0  0  0  0  0  0
  -19.8799   -7.9080   23.0867 C   0  0  0  0  0  0  0  0  0  0  0  0
  -19.1355   -7.8532   24.2651 C   0  0  0  0  0  0  0  0  0  0  0  0
  -26.7300  -25.0946   21.9541 C   0  0  0  0  0  0  0  0  0  0  0  0
  -20.3796   -5.9022   24.9601 C   0  0  0  0  0  0  0  0  0  0  0  0
  -31.3449  -18.9902   20.5422 C   0  0  0  0  0  0  0  0  0  0  0  0
  -23.8276  -10.4520   20.9558 C   0  0  0  0  0  0  0  0  0  0  0  0
  -24.1750  -12.9777   20.8683 C   0  0  0  0  0  0  0  0  0  0  0  0
  -17.7613  -23.5131   22.3667 C   0  0  0  0  0  0  0  0  0  0  0  0
  -24.8240  -25.1992   23.4427 C   0  0  0  0  0  0  0  0  0  0  0  0
  -19.1474  -23.2661   22.3566 C   0  0  0  0  0  0  0  0  0  0  0  0
  -25.4854  -25.6483   22.2908 C   0  0  0  0  0  0  0  0  0  0  0  0
  -22.3389   -8.1427   21.4389 C   0  0  0  0  0  0  0  0  0  0  0  0
  -27.3145  -24.1170   22.7589 C   0  0  0  0  0  0  0  0  0  0  0  0
  -20.8740   -6.9599   22.8450 C   0  0  0  0  0  0  0  0  0  0  0  0
  -19.3854   -6.8504   25.2018 C   0  0  0  0  0  0  0  0  0  0  0  0
  -21.1238   -5.9570   23.7817 C   0  0  0  0  0  0  0  0  0  0  0  0
  -24.5971  -11.6445   20.7068 C   0  0  0  0  0  0  0  0  0  0  0  0
  -30.5605  -17.9635   20.9863 C   0  0  0  0  0  0  0  0  0  0  0  0
  -25.2652  -13.7295   20.5039 C   0  0  0  0  0  0  0  0  0  0  0  0
  -29.3561  -19.1891   19.5906 C   0  0  0  0  0  0  0  0  0  0  0  0
  -22.9106  -13.4908   21.3084 C   0  0  0  0  0  0  0  0  0  0  0  0
  -22.1268  -25.3712   21.7696 C   0  0  0  0  0  0  0  0  0  0  0  0
  -23.0643  -28.4427   21.3118 C   0  0  0  0  0  0  0  0  0  0  0  0
  -25.6143  -30.7083   21.2055 C   0  0  0  0  0  0  0  0  0  0  0  0
  -30.7535  -14.7315   20.6471 C   0  0  0  0  0  0  0  0  0  0  0  0
  -17.1179  -24.4641   21.3889 C   0  0  0  0  0  0  0  0  0  0  0  0
  -23.5004  -25.7922   23.8413 C   0  0  0  0  0  0  0  0  0  0  0  0
  -24.8921  -26.7057   21.3972 C   0  0  0  0  0  0  0  0  0  0  0  0
  -18.1073  -25.4210   20.7289 C   0  0  0  0  0  0  0  0  0  0  0  0
  -29.5835  -12.3845   18.2390 C   0  0  0  0  0  0  0  0  0  0  0  0
  -19.3408  -24.6644   20.2463 C   0  0  0  0  0  0  0  0  0  0  0  0
  -28.1500  -12.0883   18.6833 C   0  0  0  0  0  0  0  0  0  0  0  0
  -30.5142  -12.5857   19.4328 C   0  0  0  0  0  0  0  0  0  0  0  0
  -28.6296  -13.3017   20.8504 C   0  0  0  0  0  0  0  0  0  0  0  0
  -20.0772  -24.0049   21.4186 C   0  0  1  0  0  0  0  0  0  0  0  0
  -22.7431  -26.4061   22.6678 C   0  0  1  0  0  0  0  0  0  0  0  0
  -27.6423  -13.1466   19.6810 C   0  0  2  0  0  0  0  0  0  0  0  0
  -28.2200  -19.6767   18.7695 C   0  0  0  0  0  0  0  0  0  0  0  0
  -31.7984  -19.6970   16.7833 C   0  0  0  0  0  0  0  0  0  0  0  0
  -26.0755  -33.1360   20.7686 C   0  0  0  0  0  0  0  0  0  0  0  0
  -29.0450  -17.5142   23.6738 C   0  0  0  0  0  0  0  0  0  0  0  0
  -30.8796  -15.9469   24.3041 C   0  0  0  0  0  0  0  0  0  0  0  0
  -22.7479  -27.9611   18.3155 C   0  0  0  0  0  0  0  0  0  0  0  0
  -24.0975  -30.0306   17.9110 C   0  0  0  0  0  0  0  0  0  0  0  0
  -21.9147  -30.1816   19.1089 C   0  0  0  0  0  0  0  0  0  0  0  0
  -32.5150  -21.3878   19.2342 C   0  0  0  0  0  0  0  0  0  0  0  0
  -26.6775  -31.1174   23.9370 C   0  0  0  0  0  0  0  0  0  0  0  0
  -30.9107  -20.7832   17.3857 C   0  0  0  0  0  0  0  0  0  0  0  0
  -29.7705  -22.3447   20.7904 C   0  0  0  0  0  0  0  0  0  0  0  0
  -30.1319  -22.2139   19.3052 C   0  0  0  0  0  0  0  0  0  0  0  0
  -28.8376  -23.5259   21.0306 C   0  0  0  0  0  0  0  0  0  1  0  0
  -30.8387  -16.8640   21.9139 C   0  0  1  0  0  0  0  0  0  0  0  0
  -23.9064  -29.1618   20.2858 C   0  0  1  0  0  0  0  0  0  0  0  0
  -25.7637  -32.0865   21.8241 C   0  0  2  0  0  0  0  0  0  0  0  0
  -30.5173  -17.1538   23.4285 C   0  0  0  0  0  0  0  0  0  0  0  0
  -23.1772  -29.3124   18.9209 C   0  0  0  0  0  0  0  0  0  0  0  0
  -31.0466  -20.9952   18.9326 C   0  0  2  0  0  0  0  0  0  0  0  0
  -25.8571  -11.5514   20.2735 N   0  0  0  0  0  0  0  0  0  0  0  0
  -30.5745  -19.7324   19.6798 N   0  0  0  0  0  0  0  0  0  0  0  0
  -26.2361  -12.8357   20.1594 N   0  0  0  0  0  0  0  0  0  0  0  0
  -29.3355  -18.1115   20.3817 N   0  3  0  0  0  0  0  0  0  0  0  0
  -23.5933  -27.2504   21.8260 N   0  0  0  0  0  0  0  0  0  0  0  0
  -29.9761  -13.6028   20.3394 N   0  0  0  0  0  0  0  0  0  0  0  0
  -25.4785  -15.0613   20.4477 N   0  0  0  0  0  0  0  0  0  0  0  0
  -21.8999  -12.5795   21.6436 N   0  0  0  0  0  0  0  0  0  0  0  0
  -20.8535  -24.9872   22.1446 N   0  0  0  0  0  0  0  0  0  0  0  0
  -24.3005  -30.4273   20.8956 N   0  0  0  0  0  0  0  0  0  0  0  0
  -30.1661  -15.6497   21.5088 N   0  0  0  0  0  0  0  0  0  0  0  0
  -26.8655  -32.0873   22.8275 N   0  3  0  0  0  0  0  0  0  0  0  0
  -22.6784  -14.7210   21.3859 O   0  0  0  0  0  0  0  0  0  0  0  0
  -22.7591  -24.9532   20.8067 O   0  0  0  0  0  0  0  0  0  0  0  0
  -21.9805  -28.9249   21.6500 O   0  0  0  0  0  0  0  0  0  0  0  0
  -26.5683  -29.9577   21.0129 O   0  0  0  0  0  0  0  0  0  0  0  0
  -31.8849  -14.9106   20.1837 O   0  0  0  0  0  0  0  0  0  0  0  0
  -21.6126   -7.0160   21.6750 O   0  0  0  0  0  0  0  0  0  0  0  0
  -28.5228  -23.5900   22.4210 O   0  0  0  0  0  0  0  0  0  1  0  0
  -18.6716   -6.7988   26.3341 F   0  0  0  0  0  0  0  0  0  0  0  0
  -22.0784   -5.0440   23.5556 F   0  0  0  0  0  0  0  0  0  0  0  0
  1  2  1  0  0  0  0
  1  5  2  0  0  0  0
  2  6  2  0  0  0  0
  3  8  2  0  0  0  0
  3 16  1  0  0  0  0
  4  9  1  0  0  0  0
  4 16  2  0  0  0  0
  5 18  1  0  0  0  0
  6 20  1  0  0  0  0
  7 10  2  0  0  0  0
  7 19  1  0  0  0  0
  8 22  1  0  0  0  0
  9 22  2  0  0  0  0
 10 23  1  0  0  0  0
 11 12  2  0  0  0  0
 11 24  1  0  0  0  0
 12 25  1  0  0  0  0
 13 21  1  0  0  0  0
 13 23  2  0  0  0  0
 14 25  2  0  0  0  0
 14 26  1  0  0  0  0
 15 28  2  0  0  0  0
 15 69  1  0  0  0  0
 16 27  1  0  0  0  0
 17 27  1  0  0  0  0
 17 29  2  0  0  0  0
 17 31  1  0  0  0  0
 18 20  2  0  0  0  0
 18 36  1  0  0  0  0
 19 21  2  0  0  0  0
 19 37  1  0  0  0  0
 20 45  1  0  0  0  0
 21 38  1  0  0  0  0
 22 85  1  0  0  0  0
 23 86  1  0  0  0  0
 24 26  2  0  0  0  0
 24 85  1  0  0  0  0
 25 87  1  0  0  0  0
 26 88  1  0  0  0  0
 27 68  2  0  0  0  0
 28 62  1  0  0  0  0
 28 71  1  0  0  0  0
 29 70  1  0  0  0  0
 29 74  1  0  0  0  0
 30 48  1  0  0  0  0
 30 69  1  0  0  0  0
 30 71  2  0  0  0  0
 31 75  1  0  0  0  0
 31 80  2  0  0  0  0
 32 46  1  0  0  0  0
 32 76  1  0  0  0  0
 32 81  2  0  0  0  0
 33 63  1  0  0  0  0
 33 72  1  0  0  0  0
 33 82  2  0  0  0  0
 34 64  1  0  0  0  0
 34 77  1  0  0  0  0
 34 83  2  0  0  0  0
 35 73  1  0  0  0  0
 35 78  1  0  0  0  0
 35 84  2  0  0  0  0
 36 39  1  0  0  0  0
 37 46  1  0  0  0  0
 38 72  1  0  0  0  0
 39 41  1  0  0  0  0
 40 42  1  0  0  0  0
 40 43  1  0  0  0  0
 41 45  1  0  0  0  0
 42 47  1  0  0  0  0
 43 73  1  0  0  0  0
 44 47  1  0  0  0  0
 44 73  1  0  0  0  0
 45 76  1  0  0  0  0
 46 72  1  0  0  0  0
 47 70  1  0  0  0  0
 49 58  1  0  0  0  0
 50 64  1  0  0  0  0
 51 65  1  0  0  0  0
 52 65  1  0  0  0  0
 53 66  1  0  0  0  0
 54 66  1  0  0  0  0
 55 66  1  0  0  0  0
 56 67  1  0  0  0  0
 57 79  1  0  0  0  0
 58 67  1  0  0  0  0
 59 60  1  0  0  0  0
 59 61  1  0  0  0  0
 60 67  1  0  0  0  0
 61 86  1  0  0  0  0
 62 65  1  0  0  0  0
 62 78  1  0  0  0  0
 63 66  1  0  0  0  0
 63 77  1  0  0  0  0
 64 79  1  0  0  0  0
 67 69  1  0  0  0  0
 68 70  1  0  0  0  0
M  CHG  2  71   1  79   1
M  ISO  4  35 100  61 101  78 100  86 101
M  END
> <Batch ID>
0069

> <Smiles>
CCC(C)(CC[101CH2:1][101O:1]c1ccc2c(c1)CN(C(=O)C(NC(=O)C(C)NC)C(C)(C)C)C(C(=O)NC1CCCc3ccccc31)C2)n1cc(C([100NH:0][100C:0](=O)N2CCCC(n3nc(-c4ccc(Oc5ccc(F)cc5F)cc4)c(C(N)=O)c3N)C2)C(C)C)nc1C

> <Shape>
0.311

> <Color>
0.184

> <Negative vol penalty>
0.000

$$$$

  -OEChem-04052318173D

 90 98  0     1  0  0  0  0  0999 V2000
  -31.0661  -25.7732   19.4357 C   0  0  0  0  0  0  0  0  0  0  0  0
  -29.7122  -25.8898   19.7339 C   0  0  0  0  0  0  0  0  0  0  0  0
  -24.1266   -9.5030   21.6926 C   0  0  0  0  0  0  0  0  0  0  0  0
  -22.0842  -10.5499   20.9378 C   0  0  0  0  0  0  0  0  0  0  0  0
  -32.0111  -26.4301   20.2228 C   0  0  0  0  0  0  0  0  0  0  0  0
  -29.3027  -26.6624   20.8200 C   0  0  0  0  0  0  0  0  0  0  0  0
  -25.3586  -29.6385   19.7099 C   0  0  0  0  0  0  0  0  0  0  0  0
  -23.4854   -8.2644   21.7097 C   0  0  0  0  0  0  0  0  0  0  0  0
  -21.4430   -9.3113   20.9548 C   0  0  0  0  0  0  0  0  0  0  0  0
  -24.1002  -29.0395   19.6706 C   0  0  0  0  0  0  0  0  0  0  0  0
  -21.3531   -6.5916   23.7294 C   0  0  0  0  0  0  0  0  0  0  0  0
  -21.5555   -5.7731   24.8406 C   0  0  0  0  0  0  0  0  0  0  0  0
  -23.6380  -29.8797   21.8842 C   0  0  0  0  0  0  0  0  0  0  0  0
  -22.4890   -4.0634   23.4113 C   0  0  0  0  0  0  0  0  0  0  0  0
  -23.4260  -10.6458   21.3067 C   0  0  0  0  0  0  0  0  0  0  0  0
  -24.7837  -12.5083   20.2134 C   0  0  0  0  0  0  0  0  0  0  0  0
  -31.6123  -27.2190   21.3133 C   0  0  0  0  0  0  0  0  0  0  0  0
  -25.7710  -30.3545   20.8428 C   0  0  0  0  0  0  0  0  0  0  0  0
  -30.2433  -27.3293   21.6232 C   0  0  0  0  0  0  0  0  0  0  0  0
  -24.9011  -30.4889   21.9343 C   0  0  0  0  0  0  0  0  0  0  0  0
  -22.1436   -8.1685   21.3407 C   0  0  0  0  0  0  0  0  0  0  0  0
  -23.2408  -29.1576   20.7590 C   0  0  0  0  0  0  0  0  0  0  0  0
  -21.7186   -6.1460   22.4591 C   0  0  0  0  0  0  0  0  0  0  0  0
  -22.1235   -4.5091   24.6816 C   0  0  0  0  0  0  0  0  0  0  0  0
  -22.2865   -4.8819   22.3001 C   0  0  0  0  0  0  0  0  0  0  0  0
  -24.0876  -11.9257   21.2894 C   0  0  0  0  0  0  0  0  0  0  0  0
  -25.2213  -13.7155   20.7010 C   0  0  0  0  0  0  0  0  0  0  0  0
  -21.6835  -22.3596   22.3324 C   0  0  0  0  0  0  0  0  0  0  0  0
  -23.1799  -20.8914   21.7721 C   0  0  0  0  0  0  0  0  0  0  0  0
  -25.0141  -12.0035   18.8914 C   0  0  0  0  0  0  0  0  0  0  0  0
  -28.1234  -30.0454   22.9582 C   0  0  0  0  0  0  0  0  0  0  0  0
  -27.0070  -32.8952   24.0327 C   0  0  0  0  0  0  0  0  0  0  0  0
  -24.3961  -35.0797   24.2724 C   0  0  0  0  0  0  0  0  0  0  0  0
  -24.3232  -18.4239   23.5592 C   0  0  0  0  0  0  0  0  0  0  0  0
  -32.6733  -27.8718   22.1635 C   0  0  0  0  0  0  0  0  0  0  0  0
  -27.1212  -31.0172   20.8588 C   0  0  0  0  0  0  0  0  0  0  0  0
  -25.2883  -31.2640   23.1662 C   0  0  0  0  0  0  0  0  0  0  0  0
  -32.1336  -28.9741   23.0711 C   0  0  0  0  0  0  0  0  0  0  0  0
  -25.2684  -15.5387   25.4191 C   0  0  0  0  0  0  0  0  0  0  0  0
  -30.8683  -28.5072   23.7837 C   0  0  0  0  0  0  0  0  0  0  0  0
  -25.0969  -14.3897   24.4239 C   0  0  0  0  0  0  0  0  0  0  0  0
  -24.1925  -16.6072   25.2382 C   0  0  0  0  0  0  0  0  0  0  0  0
  -23.8969  -15.9863   22.8716 C   0  0  0  0  0  0  0  0  0  0  0  0
  -29.7582  -28.1783   22.7782 C   0  0  1  0  0  0  0  0  0  0  0  0
  -27.6369  -31.2886   22.2687 C   0  0  1  0  0  0  0  0  0  0  0  0
  -24.9918  -14.9110   22.9781 C   0  0  2  0  0  0  0  0  0  0  0  0
  -23.7757  -37.3092   25.2431 C   0  0  0  0  0  0  0  0  0  0  0  0
  -26.5635  -19.2860   20.5940 C   0  0  0  0  0  0  0  0  0  0  0  0
  -25.7438  -21.5844   20.0416 C   0  0  0  0  0  0  0  0  0  0  0  0
  -24.4961  -19.5770   19.2374 C   0  0  0  0  0  0  0  0  0  0  0  0
  -26.8087  -31.6312   26.8027 C   0  0  0  0  0  0  0  0  0  0  0  0
  -25.3333  -33.5340   27.4889 C   0  0  0  0  0  0  0  0  0  0  0  0
  -27.6859  -33.9732   26.7850 C   0  0  0  0  0  0  0  0  0  0  0  0
  -18.5156  -24.8281   24.3559 C   0  0  0  0  0  0  0  0  0  0  0  0
  -17.7813  -25.4973   22.0733 C   0  0  0  0  0  0  0  0  0  0  0  0
  -23.8254  -22.4395   23.6430 C   0  0  0  0  0  0  0  0  0  0  0  0
  -23.8158  -36.2119   21.6002 C   0  0  0  0  0  0  0  0  0  0  0  0
  -21.0147  -23.5042   23.0542 C   0  0  0  0  0  0  0  0  0  0  0  0
  -19.7548  -23.9715   22.3129 C   0  0  0  0  0  0  0  0  0  0  0  0
  -20.5554  -26.9370   21.7484 C   0  0  0  0  0  0  0  0  0  0  0  0
  -19.9181  -26.4516   23.0591 C   0  0  0  0  0  0  0  0  0  0  0  0
  -21.4603  -28.1458   21.9681 C   0  0  0  0  0  0  0  0  0  1  0  0
  -24.4416  -20.1299   21.7607 C   0  0  2  0  0  0  0  0  0  0  0  0
  -25.9715  -33.3253   25.0434 C   0  0  1  0  0  0  0  0  0  0  0  0
  -24.3070  -36.5744   24.0222 C   0  0  2  0  0  0  0  0  0  0  0  0
  -25.3020  -20.1587   20.4228 C   0  0  0  0  0  0  0  0  0  0  0  0
  -26.4430  -33.0996   26.5077 C   0  0  0  0  0  0  0  0  0  0  0  0
  -19.0197  -25.1880   22.9418 C   0  0  0  0  0  0  0  0  0  0  0  0
  -24.0809  -12.6990   22.3784 N   0  0  0  0  0  0  0  0  0  0  0  0
  -21.1848  -21.6426   21.3508 N   0  0  0  0  0  0  0  0  0  0  0  0
  -22.1369  -20.7085   20.9943 N   0  0  0  0  0  0  0  0  0  0  0  0
  -24.7783  -13.7799   21.9893 N   0  0  0  0  0  0  0  0  0  0  0  0
  -22.9380  -21.9210   22.6300 N   0  0  0  0  0  0  0  0  0  0  0  0
  -26.6212  -31.8884   23.1363 N   0  0  0  0  0  0  0  0  0  0  0  0
  -24.1457  -17.0603   23.8460 N   0  0  0  0  0  0  0  0  0  0  0  0
  -25.9381  -14.7175   20.1491 N   0  0  0  0  0  0  0  0  0  0  0  0
  -24.4941  -10.7459   18.5564 N   0  0  0  0  0  0  0  0  0  0  0  0
  -29.1423  -29.3935   22.2900 N   0  0  0  0  0  0  0  0  0  0  0  0
  -25.6443  -34.7116   24.7280 N   0  0  0  0  0  0  0  0  0  0  0  0
  -24.2707  -18.7675   22.2139 N   0  0  0  0  0  0  0  0  0  0  0  0
  -23.3997  -36.8541   22.8735 N   0  3  0  0  0  0  0  0  0  0  0  0
  -25.6758  -12.6414   18.0378 O   0  0  0  0  0  0  0  0  0  0  0  0
  -27.6132  -29.7036   24.0186 O   0  0  0  0  0  0  0  0  0  0  0  0
  -28.1149  -33.4377   24.0336 O   0  0  0  0  0  0  0  0  0  0  0  0
  -23.4515  -34.3158   24.0861 O   0  0  0  0  0  0  0  0  0  0  0  0
  -24.5195  -19.2715   24.4367 O   0  0  0  0  0  0  0  0  0  0  0  0
  -21.5177   -6.9600   21.3570 O   0  0  0  0  0  0  0  0  0  0  0  0
  -22.0122  -28.5735   20.7236 O   0  0  0  0  0  0  0  0  0  1  0  0
  -22.3192   -3.7238   25.7489 F   0  0  0  0  0  0  0  0  0  0  0  0
  -22.6407   -4.4488   21.0824 F   0  0  0  0  0  0  0  0  0  0  0  0
  1  2  1  0  0  0  0
  1  5  2  0  0  0  0
  2  6  2  0  0  0  0
  3  8  2  0  0  0  0
  3 15  1  0  0  0  0
  4  9  1  0  0  0  0
  4 15  2  0  0  0  0
  5 17  1  0  0  0  0
  6 19  1  0  0  0  0
  7 10  2  0  0  0  0
  7 18  1  0  0  0  0
  8 21  1  0  0  0  0
  9 21  2  0  0  0  0
 10 22  1  0  0  0  0
 11 12  2  0  0  0  0
 11 23  1  0  0  0  0
 12 24  1  0  0  0  0
 13 20  1  0  0  0  0
 13 22  2  0  0  0  0
 14 24  2  0  0  0  0
 14 25  1  0  0  0  0
 15 26  1  0  0  0  0
 16 26  1  0  0  0  0
 16 27  2  0  0  0  0
 16 30  1  0  0  0  0
 17 19  2  0  0  0  0
 17 35  1  0  0  0  0
 18 20  2  0  0  0  0
 18 36  1  0  0  0  0
 19 44  1  0  0  0  0
 20 37  1  0  0  0  0
 21 87  1  0  0  0  0
 22 88  1  0  0  0  0
 23 25  2  0  0  0  0
 23 87  1  0  0  0  0
 24 89  1  0  0  0  0
 25 90  1  0  0  0  0
 26 69  2  0  0  0  0
 27 72  1  0  0  0  0
 27 76  1  0  0  0  0
 28 58  1  0  0  0  0
 28 70  2  0  0  0  0
 28 73  1  0  0  0  0
 29 63  1  0  0  0  0
 29 71  2  0  0  0  0
 29 73  1  0  0  0  0
 30 77  1  0  0  0  0
 30 82  2  0  0  0  0
 31 45  1  0  0  0  0
 31 78  1  0  0  0  0
 31 83  2  0  0  0  0
 32 64  1  0  0  0  0
 32 74  1  0  0  0  0
 32 84  2  0  0  0  0
 33 65  1  0  0  0  0
 33 79  1  0  0  0  0
 33 85  2  0  0  0  0
 34 75  1  0  0  0  0
 34 80  1  0  0  0  0
 34 86  2  0  0  0  0
 35 38  1  0  0  0  0
 36 45  1  0  0  0  0
 37 74  1  0  0  0  0
 38 40  1  0  0  0  0
 39 41  1  0  0  0  0
 39 42  1  0  0  0  0
 40 44  1  0  0  0  0
 41 46  1  0  0  0  0
 42 75  1  0  0  0  0
 43 46  1  0  0  0  0
 43 75  1  0  0  0  0
 44 78  1  0  0  0  0
 45 74  1  0  0  0  0
 46 72  1  0  0  0  0
 47 65  1  0  0  0  0
 48 66  1  0  0  0  0
 49 66  1  0  0  0  0
 50 66  1  0  0  0  0
 51 67  1  0  0  0  0
 52 67  1  0  0  0  0
 53 67  1  0  0  0  0
 54 68  1  0  0  0  0
 55 68  1  0  0  0  0
 56 73  1  0  0  0  0
 57 81  1  0  0  0  0
 58 59  1  0  0  0  0
 59 68  1  0  0  0  0
 60 61  1  0  0  0  0
 60 62  1  0  0  0  0
 61 68  1  0  0  0  0
 62 88  1  0  0  0  0
 63 66  1  0  0  0  0
 63 80  1  0  0  0  0
 64 67  1  0  0  0  0
 64 79  1  0  0  0  0
 65 81  1  0  0  0  0
 69 72  1  0  0  0  0
 70 71  1  0  0  0  0
M  CHG  1  81   1
M  ISO  4  34 100  62 101  80 100  88 101
M  END
> <Batch ID>
0069

> <Smiles>
CNC(C)C(=O)NC(C(=O)N1Cc2cc([101O:1][101CH2:1]CCC(C)(C)CCc3nnc(C([100NH:0][100C:0](=O)N4CCCC(n5nc(-c6ccc(Oc7ccc(F)cc7F)cc6)c(C(N)=O)c5N)C4)C(C)(C)C)n3C)ccc2CC1C(=O)NC1CCCc2ccccc21)C(C)(C)C

> <Shape>
0.297

> <Color>
0.101

> <Negative vol penalty>
0.000

$$$$

  -OEChem-04052318173D

 90 98  0     1  0  0  0  0  0999 V2000
  -19.1460  -26.7857   21.4813 C   0  0  0  0  0  0  0  0  0  0  0  0
  -20.0228  -25.7579   21.1493 C   0  0  0  0  0  0  0  0  0  0  0  0
  -26.6521  -25.3434   18.1223 C   0  0  0  0  0  0  0  0  0  0  0  0
  -26.6732  -25.3869   20.5378 C   0  0  0  0  0  0  0  0  0  0  0  0
  -18.4559  -26.7479   22.6922 C   0  0  0  0  0  0  0  0  0  0  0  0
  -20.2109  -24.6922   22.0286 C   0  0  0  0  0  0  0  0  0  0  0  0
  -21.2537  -18.8409   20.5516 C   0  0  0  0  0  0  0  0  0  0  0  0
  -25.6758  -26.3395   18.1129 C   0  0  0  0  0  0  0  0  0  0  0  0
  -25.6969  -26.3831   20.5284 C   0  0  0  0  0  0  0  0  0  0  0  0
  -22.4239  -18.0867   20.4765 C   0  0  0  0  0  0  0  0  0  0  0  0
  -23.4702  -29.1925   21.1340 C   0  0  0  0  0  0  0  0  0  0  0  0
  -23.6461  -30.2822   21.9868 C   0  0  0  0  0  0  0  0  0  0  0  0
  -22.0292  -17.2631   22.7093 C   0  0  0  0  0  0  0  0  0  0  0  0
  -25.7262  -30.8136   20.8785 C   0  0  0  0  0  0  0  0  0  0  0  0
  -30.2589  -13.1778   19.8825 C   0  0  0  0  0  0  0  0  0  0  0  0
  -27.1508  -24.8670   19.3348 C   0  0  0  0  0  0  0  0  0  0  0  0
  -29.5554  -24.0152   19.3299 C   0  0  0  0  0  0  0  0  0  0  0  0
  -18.6284  -25.6763   23.5825 C   0  0  0  0  0  0  0  0  0  0  0  0
  -20.4669  -18.8204   21.7122 C   0  0  0  0  0  0  0  0  0  0  0  0
  -19.5236  -24.6406   23.2532 C   0  0  0  0  0  0  0  0  0  0  0  0
  -20.8481  -18.0160   22.7956 C   0  0  0  0  0  0  0  0  0  0  0  0
  -25.1982  -26.8594   19.3159 C   0  0  0  0  0  0  0  0  0  0  0  0
  -22.8133  -17.2999   21.5565 C   0  0  0  0  0  0  0  0  0  0  0  0
  -24.4222  -28.9133   20.1535 C   0  0  0  0  0  0  0  0  0  0  0  0
  -24.7741  -31.0927   21.8590 C   0  0  0  0  0  0  0  0  0  0  0  0
  -25.5502  -29.7238   20.0257 C   0  0  0  0  0  0  0  0  0  0  0  0
  -28.1590  -23.8376   19.3452 C   0  0  0  0  0  0  0  0  0  0  0  0
  -29.4402  -14.2825   19.8002 C   0  0  0  0  0  0  0  0  0  0  0  0
  -28.4864  -11.8260   19.3726 C   0  0  0  0  0  0  0  0  0  0  0  0
  -27.6674  -12.9305   19.2910 C   0  0  0  0  0  0  0  0  0  0  0  0
  -30.0640  -22.7395   19.3493 C   0  0  0  0  0  0  0  0  0  0  0  0
  -30.3241  -25.2251   19.3009 C   0  0  0  0  0  0  0  0  0  0  0  0
  -19.5625  -20.9940   23.8479 C   0  0  0  0  0  0  0  0  0  0  0  0
  -17.7666  -18.5495   24.9974 C   0  0  0  0  0  0  0  0  0  0  0  0
  -30.0593  -17.6766   21.5046 C   0  0  0  0  0  0  0  0  0  0  0  0
  -17.2945  -15.1807   25.2715 C   0  0  0  0  0  0  0  0  0  0  0  0
  -17.8964  -25.7028   24.9009 C   0  0  0  0  0  0  0  0  0  0  0  0
  -19.1935  -19.6189   21.7673 C   0  0  0  0  0  0  0  0  0  0  0  0
  -20.0278  -17.9434   24.0566 C   0  0  0  0  0  0  0  0  0  0  0  0
  -17.8687  -24.3510   25.6095 C   0  0  0  0  0  0  0  0  0  0  0  0
  -27.7971  -18.2706   18.7196 C   0  0  0  0  0  0  0  0  0  0  0  0
  -19.2556  -23.7160   25.6024 C   0  0  0  0  0  0  0  0  0  0  0  0
  -27.7847  -19.7974   18.6561 C   0  0  0  0  0  0  0  0  0  0  0  0
  -27.9057  -17.7695   20.1573 C   0  0  0  0  0  0  0  0  0  0  0  0
  -29.0709  -19.8443   20.8371 C   0  0  0  0  0  0  0  0  0  0  0  0
  -19.7357  -23.4552   24.1696 C   0  0  1  0  0  0  0  0  0  0  0  0
  -18.7393  -19.9218   23.1918 C   0  0  1  0  0  0  0  0  0  0  0  0
  -28.9930  -20.3905   19.4016 C   0  0  2  0  0  0  0  0  0  0  0  0
  -28.1843   -9.5297   20.3331 C   0  0  0  0  0  0  0  0  0  0  0  0
  -15.7607  -13.4841   26.3042 C   0  0  0  0  0  0  0  0  0  0  0  0
  -24.7834  -11.2743   17.3209 C   0  0  0  0  0  0  0  0  0  0  0  0
  -26.0508  -13.1823   16.3472 C   0  0  0  0  0  0  0  0  0  0  0  0
  -25.3849  -11.9278   19.9740 C   0  0  0  0  0  0  0  0  0  0  0  0
  -31.1551  -15.6272   22.2842 C   0  0  0  0  0  0  0  0  0  0  0  0
  -28.6599  -15.7687   22.2363 C   0  0  0  0  0  0  0  0  0  0  0  0
  -19.0390  -19.0618   27.7229 C   0  0  0  0  0  0  0  0  0  0  0  0
  -18.2233  -16.8091   28.4495 C   0  0  0  0  0  0  0  0  0  0  0  0
  -16.5872  -18.5734   27.7915 C   0  0  0  0  0  0  0  0  0  0  0  0
  -16.5474  -14.0767   22.6292 C   0  0  0  0  0  0  0  0  0  0  0  0
  -29.9857  -15.6466   20.0401 C   0  0  0  0  0  0  0  0  0  0  0  0
  -27.9626  -10.4507   19.1357 C   0  0  0  0  0  0  0  0  0  0  0  0
  -25.0659  -14.7570   20.3267 C   0  0  0  0  0  0  0  0  0  0  0  0
  -25.5008  -14.2235   18.9532 C   0  0  0  0  0  0  0  0  0  0  0  0
  -24.3491  -16.0971   20.1961 C   0  0  0  0  0  0  0  0  0  1  0  0
  -17.9811  -17.4482   26.0074 C   0  0  1  0  0  0  0  0  0  0  0  0
  -16.0633  -14.3163   25.0678 C   0  0  2  0  0  0  0  0  0  0  0  0
  -26.0297  -12.1610   17.4964 C   0  0  0  0  0  0  0  0  0  0  0  0
  -26.1618  -12.7966   18.9489 C   0  0  1  0  0  0  0  0  0  0  0  0
  -29.9464  -16.1729   21.5065 C   0  0  0  0  0  0  0  0  0  0  0  0
  -17.9743  -17.9758   27.4699 C   0  0  0  0  0  0  0  0  0  0  0  0
  -29.7968  -11.9297   19.6701 N   0  0  0  0  0  0  0  0  0  0  0  0
  -27.8031  -22.5505   19.3720 N   0  0  0  0  0  0  0  0  0  0  0  0
  -28.1296  -14.1787   19.5030 N   0  0  0  0  0  0  0  0  0  0  0  0
  -28.9833  -21.9077   19.3736 N   0  0  0  0  0  0  0  0  0  0  0  0
  -18.7944  -18.7472   24.0644 N   0  0  0  0  0  0  0  0  0  0  0  0
  -29.0527  -18.3787   20.8413 N   0  0  0  0  0  0  0  0  0  0  0  0
  -31.3256  -22.2593   19.3476 N   0  0  0  0  0  0  0  0  0  0  0  0
  -29.6424  -26.4496   19.2841 N   0  0  0  0  0  0  0  0  0  0  0  0
  -19.0948  -22.2757   23.6287 N   0  0  0  0  0  0  0  0  0  0  0  0
  -16.9652  -16.4381   25.7318 N   0  0  0  0  0  0  0  0  0  0  0  0
  -16.2645  -13.3915   23.9166 N   0  3  0  0  0  0  0  0  0  0  0  0
  -31.5782  -25.2203   19.2737 O   0  0  0  0  0  0  0  0  0  0  0  0
  -20.5482  -20.6815   24.5055 O   0  0  0  0  0  0  0  0  0  0  0  0
  -16.7224  -19.2054   25.0304 O   0  0  0  0  0  0  0  0  0  0  0  0
  -31.0157  -18.2092   22.0736 O   0  0  0  0  0  0  0  0  0  0  0  0
  -18.4345  -14.7794   25.0484 O   0  0  0  0  0  0  0  0  0  0  0  0
  -24.2457  -27.8316   19.3071 O   0  0  0  0  0  0  0  0  0  0  0  0
  -23.9553  -16.5632   21.4861 O   0  0  0  0  0  0  0  0  0  1  0  0
  -24.9422  -32.1400   22.6770 F   0  0  0  0  0  0  0  0  0  0  0  0
  -26.4676  -29.4613   19.0849 F   0  0  0  0  0  0  0  0  0  0  0  0
  1  2  1  0  0  0  0
  1  5  2  0  0  0  0
  2  6  2  0  0  0  0
  3  8  2  0  0  0  0
  3 16  1  0  0  0  0
  4  9  1  0  0  0  0
  4 16  2  0  0  0  0
  5 18  1  0  0  0  0
  6 20  1  0  0  0  0
  7 10  2  0  0  0  0
  7 19  1  0  0  0  0
  8 22  1  0  0  0  0
  9 22  2  0  0  0  0
 10 23  1  0  0  0  0
 11 12  2  0  0  0  0
 11 24  1  0  0  0  0
 12 25  1  0  0  0  0
 13 21  1  0  0  0  0
 13 23  2  0  0  0  0
 14 25  2  0  0  0  0
 14 26  1  0  0  0  0
 15 28  1  0  0  0  0
 15 71  2  0  0  0  0
 16 27  1  0  0  0  0
 17 27  1  0  0  0  0
 17 31  2  0  0  0  0
 17 32  1  0  0  0  0
 18 20  2  0  0  0  0
 18 37  1  0  0  0  0
 19 21  2  0  0  0  0
 19 38  1  0  0  0  0
 20 46  1  0  0  0  0
 21 39  1  0  0  0  0
 22 87  1  0  0  0  0
 23 88  1  0  0  0  0
 24 26  2  0  0  0  0
 24 87  1  0  0  0  0
 25 89  1  0  0  0  0
 26 90  1  0  0  0  0
 27 72  2  0  0  0  0
 28 60  1  0  0  0  0
 28 73  2  0  0  0  0
 29 30  2  0  0  0  0
 29 61  1  0  0  0  0
 29 71  1  0  0  0  0
 30 68  1  0  0  0  0
 30 73  1  0  0  0  0
 31 74  1  0  0  0  0
 31 77  1  0  0  0  0
 32 78  1  0  0  0  0
 32 82  2  0  0  0  0
 33 47  1  0  0  0  0
 33 79  1  0  0  0  0
 33 83  2  0  0  0  0
 34 65  1  0  0  0  0
 34 75  1  0  0  0  0
 34 84  2  0  0  0  0
 35 69  1  0  0  0  0
 35 76  1  0  0  0  0
 35 85  2  0  0  0  0
 36 66  1  0  0  0  0
 36 80  1  0  0  0  0
 36 86  2  0  0  0  0
 37 40  1  0  0  0  0
 38 47  1  0  0  0  0
 39 75  1  0  0  0  0
 40 42  1  0  0  0  0
 41 43  1  0  0  0  0
 41 44  1  0  0  0  0
 42 46  1  0  0  0  0
 43 48  1  0  0  0  0
 44 76  1  0  0  0  0
 45 48  1  0  0  0  0
 45 76  1  0  0  0  0
 46 79  1  0  0  0  0
 47 75  1  0  0  0  0
 48 74  1  0  0  0  0
 49 61  1  0  0  0  0
 50 66  1  0  0  0  0
 51 67  1  0  0  0  0
 52 67  1  0  0  0  0
 53 68  1  0  0  0  0
 54 69  1  0  0  0  0
 55 69  1  0  0  0  0
 56 70  1  0  0  0  0
 57 70  1  0  0  0  0
 58 70  1  0  0  0  0
 59 81  1  0  0  0  0
 60 69  1  0  0  0  0
 62 63  1  0  0  0  0
 62 64  1  0  0  0  0
 63 68  1  0  0  0  0
 64 88  1  0  0  0  0
 65 70  1  0  0  0  0
 65 80  1  0  0  0  0
 66 81  1  0  0  0  0
 67 68  1  0  0  0  0
 72 74  1  0  0  0  0
M  CHG  1  81   1
M  ISO  4  35 100  64 101  69 100  88 101
M  END
> <Batch ID>
0069

> <Smiles>
CCc1ncc(C[100C:0](C)(C)[100C:0](=O)N2CCCC(n3nc(-c4ccc(Oc5ccc(F)cc5F)cc4)c(C(N)=O)c3N)C2)nc1C(C)(CC[101CH2:1][101O:1]c1ccc2c(c1)CN(C(=O)C(NC(=O)C(C)NC)C(C)(C)C)C(C(=O)NC1CCCc3ccccc31)C2)C(C)C

> <Shape>
0.247

> <Color>
0.045

> <Negative vol penalty>
0.000

$$$$

  -OEChem-04052318173D

 86 94  0     1  0  0  0  0  0999 V2000
  -18.6749  -27.0132   23.0542 C   0  0  0  0  0  0  0  0  0  0  0  0
  -19.9039  -26.4693   23.4136 C   0  0  0  0  0  0  0  0  0  0  0  0
  -27.0201  -12.6616   21.3626 C   0  0  0  0  0  0  0  0  0  0  0  0
  -26.4912  -13.5926   19.1968 C   0  0  0  0  0  0  0  0  0  0  0  0
  -18.4748  -27.4841   21.7573 C   0  0  0  0  0  0  0  0  0  0  0  0
  -20.9332  -26.3951   22.4758 C   0  0  0  0  0  0  0  0  0  0  0  0
  -28.0722  -26.7272   21.9841 C   0  0  0  0  0  0  0  0  0  0  0  0
  -26.2858  -11.5176   21.0502 C   0  0  0  0  0  0  0  0  0  0  0  0
  -25.7570  -12.4486   18.8844 C   0  0  0  0  0  0  0  0  0  0  0  0
  -29.1511  -26.0078   21.4722 C   0  0  0  0  0  0  0  0  0  0  0  0
  -24.2512   -8.5050   20.9605 C   0  0  0  0  0  0  0  0  0  0  0  0
  -23.3839   -8.0040   21.9312 C   0  0  0  0  0  0  0  0  0  0  0  0
  -28.7167  -26.9251   19.2838 C   0  0  0  0  0  0  0  0  0  0  0  0
  -22.1669  -10.0911   21.9211 C   0  0  0  0  0  0  0  0  0  0  0  0
  -27.1228  -13.6992   20.4359 C   0  0  0  0  0  0  0  0  0  0  0  0
  -29.2500  -15.1047   20.5197 C   0  0  0  0  0  0  0  0  0  0  0  0
  -19.5053  -27.4245   20.8059 C   0  0  0  0  0  0  0  0  0  0  0  0
  -27.2993  -27.5438   21.1461 C   0  0  0  0  0  0  0  0  0  0  0  0
  -20.7463  -26.8645   21.1646 C   0  0  0  0  0  0  0  0  0  0  0  0
  -27.6300  -27.6558   19.7881 C   0  0  0  0  0  0  0  0  0  0  0  0
  -25.6543  -11.4110   19.8111 C   0  0  0  0  0  0  0  0  0  0  0  0
  -29.4718  -26.1044   20.1213 C   0  0  0  0  0  0  0  0  0  0  0  0
  -24.0764   -9.7991   20.4701 C   0  0  0  0  0  0  0  0  0  0  0  0
  -22.3418   -8.7970   22.4115 C   0  0  0  0  0  0  0  0  0  0  0  0
  -23.0343  -10.5921   20.9504 C   0  0  0  0  0  0  0  0  0  0  0  0
  -27.8807  -14.8814   20.7583 C   0  0  0  0  0  0  0  0  0  0  0  0
  -28.1047  -22.4144   17.7069 C   0  0  0  0  0  0  0  0  0  0  0  0
  -29.2770  -22.2245   18.3925 C   0  0  0  0  0  0  0  0  0  0  0  0
  -29.4816  -16.3684   21.0055 C   0  0  0  0  0  0  0  0  0  0  0  0
  -27.0983  -20.9310   19.0804 C   0  0  0  0  0  0  0  0  0  0  0  0
  -30.2254  -14.2466   19.9132 C   0  0  0  0  0  0  0  0  0  0  0  0
  -24.2514  -27.5865   20.2450 C   0  0  0  0  0  0  0  0  0  0  0  0
  -25.1154  -30.3717   18.8242 C   0  0  0  0  0  0  0  0  0  0  0  0
  -25.8370  -21.0696   21.8586 C   0  0  0  0  0  0  0  0  0  0  0  0
  -27.6020  -32.3029   17.5074 C   0  0  0  0  0  0  0  0  0  0  0  0
  -19.2266  -27.9029   19.4030 C   0  0  0  0  0  0  0  0  0  0  0  0
  -26.1550  -28.3341   21.7192 C   0  0  0  0  0  0  0  0  0  0  0  0
  -26.8443  -28.5344   18.8504 C   0  0  0  0  0  0  0  0  0  0  0  0
  -20.4888  -28.1307   18.5752 C   0  0  0  0  0  0  0  0  0  0  0  0
  -27.9269  -19.4692   24.2898 C   0  0  0  0  0  0  0  0  0  0  0  0
  -21.4458  -26.9524   18.7256 C   0  0  0  0  0  0  0  0  0  0  0  0
  -28.2531  -18.1201   23.6504 C   0  0  0  0  0  0  0  0  0  0  0  0
  -26.5127  -19.9240   23.9431 C   0  0  0  0  0  0  0  0  0  0  0  0
  -26.5601  -18.6307   21.8344 C   0  0  0  0  0  0  0  0  0  0  0  0
  -21.8953  -26.7893   20.1826 C   0  0  1  0  0  0  0  0  0  0  0  0
  -25.1216  -28.7350   20.6710 C   0  0  1  0  0  0  0  0  0  0  0  0
  -27.9906  -18.1490   22.1342 C   0  0  2  0  0  0  0  0  0  0  0  0
  -26.5804  -23.6506   16.1465 C   0  0  0  0  0  0  0  0  0  0  0  0
  -25.0185  -19.7488   18.2738 C   0  0  0  0  0  0  0  0  0  0  0  0
  -27.9954  -34.5137   16.3873 C   0  0  0  0  0  0  0  0  0  0  0  0
  -23.7595  -20.0625   21.0210 C   0  0  0  0  0  0  0  0  0  0  0  0
  -24.5644  -22.2842   20.1938 C   0  0  0  0  0  0  0  0  0  0  0  0
  -23.9705  -29.2559   16.2253 C   0  0  0  0  0  0  0  0  0  0  0  0
  -25.2159  -31.0429   14.9909 C   0  0  0  0  0  0  0  0  0  0  0  0
  -23.4537  -31.6669   16.6426 C   0  0  0  0  0  0  0  0  0  0  0  0
  -29.3892  -33.2178   19.6818 C   0  0  0  0  0  0  0  0  0  0  0  0
  -28.0220  -23.3549   16.5538 C   0  0  0  0  0  0  0  0  0  0  0  0
  -30.5468  -22.9501   18.0253 C   0  0  0  0  0  0  0  0  0  0  0  0
  -31.4625  -23.2313   19.2186 C   0  0  0  0  0  0  0  0  0  0  0  0
  -30.8394  -24.1631   20.2515 C   0  0  0  0  0  0  0  0  0  1  0  0
  -25.8780  -20.1831   19.4937 C   0  0  2  0  0  0  0  0  0  0  0  0
  -25.6623  -30.7568   17.4708 C   0  0  1  0  0  0  0  0  0  0  0  0
  -27.9564  -33.7649   17.7104 C   0  0  2  0  0  0  0  0  0  0  0  0
  -25.0017  -20.8709   20.6188 C   0  0  0  0  0  0  0  0  0  0  0  0
  -24.5894  -30.6625   16.3494 C   0  0  0  0  0  0  0  0  0  0  0  0
  -27.2843  -15.9199   21.3498 N   0  0  0  0  0  0  0  0  0  0  0  0
  -26.9776  -21.7663   18.0378 N   0  0  0  0  0  0  0  0  0  0  0  0
  -29.3377  -21.3721   19.4316 N   0  0  0  0  0  0  0  0  0  0  0  0
  -28.2213  -20.7043   19.7899 N   0  0  0  0  0  0  0  0  0  0  0  0
  -28.2837  -16.8079   21.4870 N   0  0  0  0  0  0  0  0  0  0  0  0
  -25.7307  -29.2823   19.4571 N   0  0  0  0  0  0  0  0  0  0  0  0
  -26.2961  -19.9164   22.4953 N   0  0  0  0  0  0  0  0  0  0  0  0
  -30.5910  -17.1353   21.0634 N   0  0  0  0  0  0  0  0  0  0  0  0
  -29.8182  -12.9810   19.4694 N   0  0  0  0  0  0  0  0  0  0  0  0
  -22.9080  -27.7693   20.5118 N   0  0  0  0  0  0  0  0  0  0  0  0
  -26.2460  -32.0844   17.6292 N   0  0  0  0  0  0  0  0  0  0  0  0
  -29.2919  -33.8889   18.3600 N   0  3  0  0  0  0  0  0  0  0  0  0
  -31.4262  -14.5854   19.7838 O   0  0  0  0  0  0  0  0  0  0  0  0
  -24.7609  -26.6076   19.7122 O   0  0  0  0  0  0  0  0  0  0  0  0
  -24.1815  -31.0182   19.3053 O   0  0  0  0  0  0  0  0  0  0  0  0
  -26.0757  -22.2163   22.2462 O   0  0  0  0  0  0  0  0  0  0  0  0
  -28.4434  -31.4414   17.2615 O   0  0  0  0  0  0  0  0  0  0  0  0
  -24.9378  -10.2948   19.5057 O   0  0  0  0  0  0  0  0  0  0  0  0
  -30.5240  -25.4028   19.6189 O   0  0  0  0  0  0  0  0  0  1  0  0
  -21.5080   -8.3152   23.3426 F   0  0  0  0  0  0  0  0  0  0  0  0
  -22.8606  -11.8357   20.4822 F   0  0  0  0  0  0  0  0  0  0  0  0
  1  2  1  0  0  0  0
  1  5  2  0  0  0  0
  2  6  2  0  0  0  0
  3  8  2  0  0  0  0
  3 15  1  0  0  0  0
  4  9  1  0  0  0  0
  4 15  2  0  0  0  0
  5 17  1  0  0  0  0
  6 19  1  0  0  0  0
  7 10  2  0  0  0  0
  7 18  1  0  0  0  0
  8 21  1  0  0  0  0
  9 21  2  0  0  0  0
 10 22  1  0  0  0  0
 11 12  2  0  0  0  0
 11 23  1  0  0  0  0
 12 24  1  0  0  0  0
 13 20  1  0  0  0  0
 13 22  2  0  0  0  0
 14 24  2  0  0  0  0
 14 25  1  0  0  0  0
 15 26  1  0  0  0  0
 16 26  1  0  0  0  0
 16 29  2  0  0  0  0
 16 31  1  0  0  0  0
 17 19  2  0  0  0  0
 17 36  1  0  0  0  0
 18 20  2  0  0  0  0
 18 37  1  0  0  0  0
 19 45  1  0  0  0  0
 20 38  1  0  0  0  0
 21 83  1  0  0  0  0
 22 84  1  0  0  0  0
 23 25  2  0  0  0  0
 23 83  1  0  0  0  0
 24 85  1  0  0  0  0
 25 86  1  0  0  0  0
 26 66  2  0  0  0  0
 27 28  2  0  0  0  0
 27 57  1  0  0  0  0
 27 67  1  0  0  0  0
 28 58  1  0  0  0  0
 28 68  1  0  0  0  0
 29 70  1  0  0  0  0
 29 73  1  0  0  0  0
 30 61  1  0  0  0  0
 30 67  2  0  0  0  0
 30 69  1  0  0  0  0
 31 74  1  0  0  0  0
 31 78  2  0  0  0  0
 32 46  1  0  0  0  0
 32 75  1  0  0  0  0
 32 79  2  0  0  0  0
 33 62  1  0  0  0  0
 33 71  1  0  0  0  0
 33 80  2  0  0  0  0
 34 64  1  0  0  0  0
 34 72  1  0  0  0  0
 34 81  2  0  0  0  0
 35 63  1  0  0  0  0
 35 76  1  0  0  0  0
 35 82  2  0  0  0  0
 36 39  1  0  0  0  0
 37 46  1  0  0  0  0
 38 71  1  0  0  0  0
 39 41  1  0  0  0  0
 40 42  1  0  0  0  0
 40 43  1  0  0  0  0
 41 45  1  0  0  0  0
 42 47  1  0  0  0  0
 43 72  1  0  0  0  0
 44 47  1  0  0  0  0
 44 72  1  0  0  0  0
 45 75  1  0  0  0  0
 46 71  1  0  0  0  0
 47 70  1  0  0  0  0
 48 57  1  0  0  0  0
 49 61  1  0  0  0  0
 50 63  1  0  0  0  0
 51 64  1  0  0  0  0
 52 64  1  0  0  0  0
 53 65  1  0  0  0  0
 54 65  1  0  0  0  0
 55 65  1  0  0  0  0
 56 77  1  0  0  0  0
 58 59  1  0  0  0  0
 59 60  1  0  0  0  0
 60 84  1  0  0  0  0
 61 64  1  0  0  0  0
 62 65  1  0  0  0  0
 62 76  1  0  0  0  0
 63 77  1  0  0  0  0
 66 70  1  0  0  0  0
 68 69  2  0  0  0  0
M  CHG  1  77   1
M  ISO  4  34 100  60 101  64 100  84 101
M  END
> <Batch ID>
0069

> <Smiles>
CCc1nc(C(C)[100C:0](C)(C)[100C:0](=O)N2CCCC(n3nc(-c4ccc(Oc5ccc(F)cc5F)cc4)c(C(N)=O)c3N)C2)nnc1CC[101CH2:1][101O:1]c1ccc2c(c1)CN(C(=O)C(NC(=O)C(C)NC)C(C)(C)C)C(C(=O)NC1CCCc3ccccc31)C2

> <Shape>
0.235

> <Color>
0.091

> <Negative vol penalty>
0.000

$$$$

  -OEChem-04052318173D

 87 95  0     1  0  0  0  0  0999 V2000
  -25.5414  -28.3863   24.7711 C   0  0  0  0  0  0  0  0  0  0  0  0
  -25.6775  -27.0505   25.1351 C   0  0  0  0  0  0  0  0  0  0  0  0
  -19.9635  -22.2325   21.4842 C   0  0  0  0  0  0  0  0  0  0  0  0
  -20.8907  -21.6174   23.6288 C   0  0  0  0  0  0  0  0  0  0  0  0
  -25.5189  -28.7414   23.4230 C   0  0  0  0  0  0  0  0  0  0  0  0
  -25.7901  -26.0688   24.1512 C   0  0  0  0  0  0  0  0  0  0  0  0
  -28.9205  -19.7472   22.9045 C   0  0  0  0  0  0  0  0  0  0  0  0
  -19.5193  -23.4402   22.0226 C   0  0  0  0  0  0  0  0  0  0  0  0
  -20.4465  -22.8251   24.1672 C   0  0  0  0  0  0  0  0  0  0  0  0
  -28.6078  -18.4540   22.4880 C   0  0  0  0  0  0  0  0  0  0  0  0
  -20.8414  -26.4487   22.8186 C   0  0  0  0  0  0  0  0  0  0  0  0
  -21.0587  -27.6088   22.0753 C   0  0  0  0  0  0  0  0  0  0  0  0
  -28.6359  -19.1930   20.1919 C   0  0  0  0  0  0  0  0  0  0  0  0
  -18.6766  -28.0045   21.9967 C   0  0  0  0  0  0  0  0  0  0  0  0
  -20.6492  -21.3211   22.2873 C   0  0  0  0  0  0  0  0  0  0  0  0
  -22.3510  -19.8201   21.1219 C   0  0  0  0  0  0  0  0  0  0  0  0
  -25.6410  -27.7646   22.4222 C   0  0  0  0  0  0  0  0  0  0  0  0
  -29.0829  -20.7772   21.9668 C   0  0  0  0  0  0  0  0  0  0  0  0
  -25.7679  -26.4110   22.7885 C   0  0  0  0  0  0  0  0  0  0  0  0
  -28.9533  -20.4979   20.5988 C   0  0  0  0  0  0  0  0  0  0  0  0
  -19.7608  -23.7365   23.3641 C   0  0  0  0  0  0  0  0  0  0  0  0
  -28.4626  -18.1773   21.1317 C   0  0  0  0  0  0  0  0  0  0  0  0
  -19.5417  -26.0665   23.1510 C   0  0  0  0  0  0  0  0  0  0  0  0
  -19.9763  -28.3867   21.6643 C   0  0  0  0  0  0  0  0  0  0  0  0
  -18.4593  -26.8444   22.7400 C   0  0  0  0  0  0  0  0  0  0  0  0
  -21.1078  -20.0732   21.7319 C   0  0  0  0  0  0  0  0  0  0  0  0
  -22.2956  -18.4945   20.7667 C   0  0  0  0  0  0  0  0  0  0  0  0
  -26.4719  -14.7511   19.6882 C   0  0  0  0  0  0  0  0  0  0  0  0
  -24.9296  -13.4151   20.4266 C   0  0  0  0  0  0  0  0  0  0  0  0
  -23.4572  -20.7041   20.8968 C   0  0  0  0  0  0  0  0  0  0  0  0
  -27.6083  -23.5319   21.3827 C   0  0  0  0  0  0  0  0  0  0  0  0
  -30.0058  -23.9110   19.2309 C   0  0  0  0  0  0  0  0  0  0  0  0
  -32.3656  -22.4608   17.2371 C   0  0  0  0  0  0  0  0  0  0  0  0
  -21.0227  -13.1897   21.9434 C   0  0  0  0  0  0  0  0  0  0  0  0
  -25.5637  -28.1916   20.9778 C   0  0  0  0  0  0  0  0  0  0  0  0
  -29.4465  -22.1611   22.4306 C   0  0  0  0  0  0  0  0  0  0  0  0
  -29.1374  -21.5639   19.5509 C   0  0  0  0  0  0  0  0  0  0  0  0
  -26.0652  -27.1308   20.0013 C   0  0  0  0  0  0  0  0  0  0  0  0
  -18.4053  -15.2621   20.7062 C   0  0  0  0  0  0  0  0  0  0  0  0
  -25.4809  -25.7656   20.3499 C   0  0  0  0  0  0  0  0  0  0  0  0
  -18.9752  -16.6773   20.8183 C   0  0  0  0  0  0  0  0  0  0  0  0
  -18.8515  -14.3801   21.8702 C   0  0  0  0  0  0  0  0  0  0  0  0
  -20.8799  -15.7417   22.1951 C   0  0  0  0  0  0  0  0  0  0  0  0
  -25.9176  -25.3199   21.7506 C   0  0  1  0  0  0  0  0  0  0  0  0
  -29.0827  -23.2447   21.4203 C   0  0  1  0  0  0  0  0  0  0  0  0
  -20.5030  -16.6526   21.0141 C   0  0  2  0  0  0  0  0  0  0  0  0
  -27.6201  -11.5959   20.4809 C   0  0  0  0  0  0  0  0  0  0  0  0
  -23.3966  -11.6628   19.5124 C   0  0  0  0  0  0  0  0  0  0  0  0
  -34.1489  -23.0263   15.5646 C   0  0  0  0  0  0  0  0  0  0  0  0
  -27.8620  -24.4153   17.1191 C   0  0  0  0  0  0  0  0  0  0  0  0
  -29.6016  -24.0272   15.3608 C   0  0  0  0  0  0  0  0  0  0  0  0
  -29.8529  -25.9210   16.9648 C   0  0  0  0  0  0  0  0  0  0  0  0
  -24.6946  -10.5138   23.3531 C   0  0  0  0  0  0  0  0  0  0  0  0
  -22.9743  -11.8131   24.5977 C   0  0  0  0  0  0  0  0  0  0  0  0
  -25.0176  -12.9543   23.7173 C   0  0  0  0  0  0  0  0  0  0  0  0
  -34.4885  -21.2813   18.9285 C   0  0  0  0  0  0  0  0  0  0  0  0
  -27.7506  -15.2284   19.0436 C   0  0  0  0  0  0  0  0  0  0  0  0
  -26.9031  -12.3003   19.3420 C   0  0  0  0  0  0  0  0  0  0  0  0
  -28.0228  -16.7034   19.3179 C   0  0  0  0  0  0  0  0  0  1  0  0
  -24.2053  -12.1712   20.7427 C   0  0  2  0  0  0  0  0  0  0  0  0
  -30.2048  -23.5530   17.7779 C   0  0  1  0  0  0  0  0  0  0  0  0
  -33.8376  -22.7691   17.0308 C   0  0  2  0  0  0  0  0  0  0  0  0
  -23.2715  -12.1429   22.0239 C   0  0  1  0  0  0  0  0  0  0  0  0
  -29.3749  -24.4592   16.8252 C   0  0  0  0  0  0  0  0  0  0  0  0
  -23.9579  -11.8759   23.4144 C   0  0  0  0  0  0  0  0  0  0  0  0
  -20.3200  -18.9951   21.7638 N   0  0  0  0  0  0  0  0  0  0  0  0
  -25.5267  -15.4941   20.2181 N   0  0  0  0  0  0  0  0  0  0  0  0
  -24.5454  -14.6441   20.6879 N   0  0  0  0  0  0  0  0  0  0  0  0
  -21.0701  -18.0516   21.1694 N   0  0  0  0  0  0  0  0  0  0  0  0
  -26.1373  -13.4355   19.7976 N   0  0  0  0  0  0  0  0  0  0  0  0
  -29.4859  -22.9027   20.0548 N   0  0  0  0  0  0  0  0  0  0  0  0
  -20.3105  -14.3991   22.0005 N   0  0  0  0  0  0  0  0  0  0  0  0
  -23.1761  -17.6762   20.1521 N   0  0  0  0  0  0  0  0  0  0  0  0
  -23.3474  -22.0341   21.3249 N   0  0  0  0  0  0  0  0  0  0  0  0
  -27.2791  -24.8299   21.7236 N   0  0  0  0  0  0  0  0  0  0  0  0
  -31.6436  -23.5957   17.5403 N   0  0  0  0  0  0  0  0  0  0  0  0
  -22.4023  -13.2976   22.0690 N   0  0  0  0  0  0  0  0  0  0  0  0
  -34.6760  -21.6283   17.4963 N   0  3  0  0  0  0  0  0  0  0  0  0
  -24.5053  -20.3300   20.3179 O   0  0  0  0  0  0  0  0  0  0  0  0
  -26.8273  -22.6421   21.0664 O   0  0  0  0  0  0  0  0  0  0  0  0
  -30.3075  -25.0414   19.6220 O   0  0  0  0  0  0  0  0  0  0  0  0
  -31.9019  -21.3271   17.1355 O   0  0  0  0  0  0  0  0  0  0  0  0
  -20.4705  -12.0955   21.7862 O   0  0  0  0  0  0  0  0  0  0  0  0
  -19.3277  -24.9149   23.8897 O   0  0  0  0  0  0  0  0  0  0  0  0
  -28.1567  -16.9160   20.7226 O   0  0  0  0  0  0  0  0  0  1  0  0
  -20.1852  -29.5015   20.9518 F   0  0  0  0  0  0  0  0  0  0  0  0
  -17.2085  -26.4830   23.0573 F   0  0  0  0  0  0  0  0  0  0  0  0
  1  2  1  0  0  0  0
  1  5  2  0  0  0  0
  2  6  2  0  0  0  0
  3  8  2  0  0  0  0
  3 15  1  0  0  0  0
  4  9  1  0  0  0  0
  4 15  2  0  0  0  0
  5 17  1  0  0  0  0
  6 19  1  0  0  0  0
  7 10  2  0  0  0  0
  7 18  1  0  0  0  0
  8 21  1  0  0  0  0
  9 21  2  0  0  0  0
 10 22  1  0  0  0  0
 11 12  2  0  0  0  0
 11 23  1  0  0  0  0
 12 24  1  0  0  0  0
 13 20  1  0  0  0  0
 13 22  2  0  0  0  0
 14 24  2  0  0  0  0
 14 25  1  0  0  0  0
 15 26  1  0  0  0  0
 16 26  1  0  0  0  0
 16 27  2  0  0  0  0
 16 30  1  0  0  0  0
 17 19  2  0  0  0  0
 17 35  1  0  0  0  0
 18 20  2  0  0  0  0
 18 36  1  0  0  0  0
 19 44  1  0  0  0  0
 20 37  1  0  0  0  0
 21 84  1  0  0  0  0
 22 85  1  0  0  0  0
 23 25  2  0  0  0  0
 23 84  1  0  0  0  0
 24 86  1  0  0  0  0
 25 87  1  0  0  0  0
 26 66  2  0  0  0  0
 27 69  1  0  0  0  0
 27 73  1  0  0  0  0
 28 57  1  0  0  0  0
 28 67  2  0  0  0  0
 28 70  1  0  0  0  0
 29 60  1  0  0  0  0
 29 68  2  0  0  0  0
 29 70  1  0  0  0  0
 30 74  1  0  0  0  0
 30 79  2  0  0  0  0
 31 45  1  0  0  0  0
 31 75  1  0  0  0  0
 31 80  2  0  0  0  0
 32 61  1  0  0  0  0
 32 71  1  0  0  0  0
 32 81  2  0  0  0  0
 33 62  1  0  0  0  0
 33 76  1  0  0  0  0
 33 82  2  0  0  0  0
 34 72  1  0  0  0  0
 34 77  1  0  0  0  0
 34 83  2  0  0  0  0
 35 38  1  0  0  0  0
 36 45  1  0  0  0  0
 37 71  1  0  0  0  0
 38 40  1  0  0  0  0
 39 41  1  0  0  0  0
 39 42  1  0  0  0  0
 40 44  1  0  0  0  0
 41 46  1  0  0  0  0
 42 72  1  0  0  0  0
 43 46  1  0  0  0  0
 43 72  1  0  0  0  0
 44 75  1  0  0  0  0
 45 71  1  0  0  0  0
 46 69  1  0  0  0  0
 47 58  1  0  0  0  0
 48 60  1  0  0  0  0
 49 62  1  0  0  0  0
 50 64  1  0  0  0  0
 51 64  1  0  0  0  0
 52 64  1  0  0  0  0
 53 65  1  0  0  0  0
 54 65  1  0  0  0  0
 55 65  1  0  0  0  0
 56 78  1  0  0  0  0
 57 59  1  0  0  0  0
 58 70  1  0  0  0  0
 59 85  1  0  0  0  0
 60 63  1  0  0  0  0
 61 64  1  0  0  0  0
 61 76  1  0  0  0  0
 62 78  1  0  0  0  0
 63 65  1  0  0  0  0
 63 77  1  0  0  0  0
 66 69  1  0  0  0  0
 67 68  1  0  0  0  0
M  CHG  1  78   1
M  ISO  4  34 100  59 101  77 100  85 101
M  END
> <Batch ID>
0069

> <Smiles>
CCn1c(C[101CH2:1][101O:1]c2ccc3c(c2)CN(C(=O)C(NC(=O)C(C)NC)C(C)(C)C)C(C(=O)NC2CCCc4ccccc42)C3)nnc1C(C)C([100NH:0][100C:0](=O)N1CCCC(n2nc(-c3ccc(Oc4ccc(F)cc4F)cc3)c(C(N)=O)c2N)C1)C(C)(C)C

> <Shape>
0.202

> <Color>
0.062

> <Negative vol penalty>
0.000

$$$$
