
  -OEChem-04052318193D

 84 92  0     1  0  0  0  0  0999 V2000
  -17.7982  -25.9754   22.9474 C   0  0  0  0  0  0  0  0  0  0  0  0
  -19.1025  -25.6375   22.6011 C   0  0  0  0  0  0  0  0  0  0  0  0
  -26.8979  -16.7200   19.6506 C   0  0  0  0  0  0  0  0  0  0  0  0
  -26.7894  -17.0238   17.2562 C   0  0  0  0  0  0  0  0  0  0  0  0
  -17.3602  -27.2918   22.8087 C   0  0  0  0  0  0  0  0  0  0  0  0
  -19.9693  -26.6156   22.1148 C   0  0  0  0  0  0  0  0  0  0  0  0
  -26.0071  -26.9883   23.0699 C   0  0  0  0  0  0  0  0  0  0  0  0
  -27.0204  -15.3423   19.4702 C   0  0  0  0  0  0  0  0  0  0  0  0
  -26.9120  -15.6461   17.0759 C   0  0  0  0  0  0  0  0  0  0  0  0
  -27.1041  -26.6111   22.2965 C   0  0  0  0  0  0  0  0  0  0  0  0
  -29.4503  -13.1465   18.6295 C   0  0  0  0  0  0  0  0  0  0  0  0
  -30.4169  -12.4778   19.3805 C   0  0  0  0  0  0  0  0  0  0  0  0
  -27.2812  -28.8663   21.4586 C   0  0  0  0  0  0  0  0  0  0  0  0
  -28.6943  -11.1096   20.3794 C   0  0  0  0  0  0  0  0  0  0  0  0
  -25.3324  -26.5195   17.5625 C   0  0  0  0  0  0  0  0  0  0  0  0
  -26.7824  -17.5608   18.5436 C   0  0  0  0  0  0  0  0  0  0  0  0
  -27.6968  -19.9282   18.8017 C   0  0  0  0  0  0  0  0  0  0  0  0
  -18.2249  -28.2884   22.3297 C   0  0  0  0  0  0  0  0  0  0  0  0
  -25.5313  -28.3069   23.0350 C   0  0  0  0  0  0  0  0  0  0  0  0
  -19.5420  -27.9462   21.9684 C   0  0  0  0  0  0  0  0  0  0  0  0
  -26.1795  -29.2583   22.2344 C   0  0  0  0  0  0  0  0  0  0  0  0
  -27.0274  -14.8053   18.1829 C   0  0  0  0  0  0  0  0  0  0  0  0
  -27.7395  -27.5495   21.4885 C   0  0  0  0  0  0  0  0  0  0  0  0
  -28.1056  -12.7968   18.7534 C   0  0  0  0  0  0  0  0  0  0  0  0
  -30.0389  -11.4593   20.2555 C   0  0  0  0  0  0  0  0  0  0  0  0
  -27.7276  -11.7783   19.6284 C   0  0  0  0  0  0  0  0  0  0  0  0
  -26.6552  -18.9840   18.7293 C   0  0  0  0  0  0  0  0  0  0  0  0
  -25.1402  -25.4203   16.7549 C   0  0  0  0  0  0  0  0  0  0  0  0
  -27.5944  -26.2006   17.4586 C   0  0  0  0  0  0  0  0  0  0  0  0
  -27.4024  -25.1009   16.6516 C   0  0  0  0  0  0  0  0  0  0  0  0
  -27.0582  -21.1307   18.9824 C   0  0  0  0  0  0  0  0  0  0  0  0
  -29.1148  -19.7356   18.7135 C   0  0  0  0  0  0  0  0  0  0  0  0
  -22.7965  -29.6830   22.1801 C   0  0  0  0  0  0  0  0  0  0  0  0
  -24.2244  -32.3506   23.3496 C   0  0  0  0  0  0  0  0  0  0  0  0
  -22.9509  -24.6650   17.5939 C   0  0  0  0  0  0  0  0  0  0  0  0
  -27.1188  -33.9905   24.1111 C   0  0  0  0  0  0  0  0  0  0  0  0
  -17.6919  -29.6881   22.1524 C   0  0  0  0  0  0  0  0  0  0  0  0
  -24.3634  -28.7042   23.8956 C   0  0  0  0  0  0  0  0  0  0  0  0
  -25.7204  -30.6916   22.1769 C   0  0  0  0  0  0  0  0  0  0  0  0
  -18.7857  -30.7395   21.9834 C   0  0  0  0  0  0  0  0  0  0  0  0
  -22.2394  -22.1780   20.0736 C   0  0  0  0  0  0  0  0  0  0  0  0
  -19.8305  -30.2661   20.9780 C   0  0  0  0  0  0  0  0  0  0  0  0
  -23.3941  -21.1874   19.9301 C   0  0  0  0  0  0  0  0  0  0  0  0
  -21.8390  -22.7680   18.7250 C   0  0  0  0  0  0  0  0  0  0  0  0
  -24.1227  -22.4204   17.8387 C   0  0  0  0  0  0  0  0  0  0  0  0
  -20.5195  -28.9840   21.4607 C   0  0  1  0  0  0  0  0  0  0  0  0
  -23.6458  -29.9520   23.3901 C   0  0  1  0  0  0  0  0  0  0  0  0
  -24.5788  -21.8240   19.1820 C   0  0  2  0  0  0  0  0  0  0  0  0
  -28.1425  -23.3409   15.0264 C   0  0  0  0  0  0  0  0  0  0  0  0
  -27.9675  -36.1711   25.0177 C   0  0  0  0  0  0  0  0  0  0  0  0
  -23.6208  -33.6937   20.6772 C   0  0  0  0  0  0  0  0  0  0  0  0
  -25.2812  -35.4699   21.2741 C   0  0  0  0  0  0  0  0  0  0  0  0
  -23.2474  -35.1428   22.6810 C   0  0  0  0  0  0  0  0  0  0  0  0
  -28.4247  -32.6597   26.4095 C   0  0  0  0  0  0  0  0  0  0  0  0
  -28.9767  -26.6485   17.8614 C   0  0  0  0  0  0  0  0  0  0  0  0
  -28.5522  -24.3028   16.1390 C   0  0  0  0  0  0  0  0  0  0  0  0
  -29.6099  -25.7850   18.9546 C   0  0  0  0  0  0  0  0  0  0  0  0
  -28.8519  -25.8323   20.2762 C   0  0  0  0  0  0  0  0  0  1  0  0
  -25.1062  -33.4315   22.7726 C   0  0  1  0  0  0  0  0  0  0  0  0
  -27.5504  -34.7478   25.3539 C   0  0  2  0  0  0  0  0  0  0  0  0
  -23.7661  -24.9970   16.3695 C   0  0  0  0  0  0  0  0  0  0  0  0
  -24.3216  -34.4071   21.8506 C   0  0  0  0  0  0  0  0  0  0  0  0
  -26.5629  -26.9294   17.9289 N   0  0  0  0  0  0  0  0  0  0  0  0
  -25.4467  -19.5388   18.8539 N   0  0  0  0  0  0  0  0  0  0  0  0
  -26.1719  -24.6912   16.2849 N   0  0  0  0  0  0  0  0  0  0  0  0
  -25.7249  -20.8447   19.0066 N   0  0  0  0  0  0  0  0  0  0  0  0
  -24.5704  -31.0295   23.0318 N   0  0  0  0  0  0  0  0  0  0  0  0
  -22.9959  -23.3428   18.0362 N   0  0  0  0  0  0  0  0  0  0  0  0
  -27.5127  -22.3942   19.1215 N   0  0  0  0  0  0  0  0  0  0  0  0
  -29.6021  -18.4348   18.5271 N   0  0  0  0  0  0  0  0  0  0  0  0
  -21.5047  -29.2910   22.4754 N   0  0  0  0  0  0  0  0  0  0  0  0
  -25.7577  -34.0760   23.9078 N   0  0  0  0  0  0  0  0  0  0  0  0
  -28.7024  -34.0618   26.0045 N   0  3  0  0  0  0  0  0  0  0  0  0
  -29.9265  -20.6867   18.8139 O   0  0  0  0  0  0  0  0  0  0  0  0
  -23.2771  -29.8224   21.0615 O   0  0  0  0  0  0  0  0  0  0  0  0
  -23.2682  -32.6663   24.0621 O   0  0  0  0  0  0  0  0  0  0  0  0
  -22.2966  -25.5563   18.1413 O   0  0  0  0  0  0  0  0  0  0  0  0
  -27.9105  -33.3867   23.3904 O   0  0  0  0  0  0  0  0  0  0  0  0
  -27.1472  -13.4611   18.0065 O   0  0  0  0  0  0  0  0  0  0  0  0
  -28.8101  -27.1838   20.7322 O   0  0  0  0  0  0  0  0  0  1  0  0
  -30.9674  -10.8162   20.9755 F   0  0  0  0  0  0  0  0  0  0  0  0
  -26.4375  -11.4371   19.7508 F   0  0  0  0  0  0  0  0  0  0  0  0
  -23.0969  -25.9580   15.6511 F   0  0  0  0  0  0  0  0  0  0  0  0
  -23.7616  -23.9040   15.5370 F   0  0  0  0  0  0  0  0  0  0  0  0
  1  2  1  0  0  0  0
  1  5  2  0  0  0  0
  2  6  2  0  0  0  0
  3  8  2  0  0  0  0
  3 16  1  0  0  0  0
  4  9  1  0  0  0  0
  4 16  2  0  0  0  0
  5 18  1  0  0  0  0
  6 20  1  0  0  0  0
  7 10  2  0  0  0  0
  7 19  1  0  0  0  0
  8 22  1  0  0  0  0
  9 22  2  0  0  0  0
 10 23  1  0  0  0  0
 11 12  2  0  0  0  0
 11 24  1  0  0  0  0
 12 25  1  0  0  0  0
 13 21  1  0  0  0  0
 13 23  2  0  0  0  0
 14 25  2  0  0  0  0
 14 26  1  0  0  0  0
 15 28  1  0  0  0  0
 15 63  2  0  0  0  0
 16 27  1  0  0  0  0
 17 27  1  0  0  0  0
 17 31  2  0  0  0  0
 17 32  1  0  0  0  0
 18 20  2  0  0  0  0
 18 37  1  0  0  0  0
 19 21  2  0  0  0  0
 19 38  1  0  0  0  0
 20 46  1  0  0  0  0
 21 39  1  0  0  0  0
 22 79  1  0  0  0  0
 23 80  1  0  0  0  0
 24 26  2  0  0  0  0
 24 79  1  0  0  0  0
 25 81  1  0  0  0  0
 26 82  1  0  0  0  0
 27 64  2  0  0  0  0
 28 61  1  0  0  0  0
 28 65  2  0  0  0  0
 29 30  2  0  0  0  0
 29 55  1  0  0  0  0
 29 63  1  0  0  0  0
 30 56  1  0  0  0  0
 30 65  1  0  0  0  0
 31 66  1  0  0  0  0
 31 69  1  0  0  0  0
 32 70  1  0  0  0  0
 32 74  2  0  0  0  0
 33 47  1  0  0  0  0
 33 71  1  0  0  0  0
 33 75  2  0  0  0  0
 34 59  1  0  0  0  0
 34 67  1  0  0  0  0
 34 76  2  0  0  0  0
 35 61  1  0  0  0  0
 35 68  1  0  0  0  0
 35 77  2  0  0  0  0
 36 60  1  0  0  0  0
 36 72  1  0  0  0  0
 36 78  2  0  0  0  0
 37 40  1  0  0  0  0
 38 47  1  0  0  0  0
 39 67  1  0  0  0  0
 40 42  1  0  0  0  0
 41 43  1  0  0  0  0
 41 44  1  0  0  0  0
 42 46  1  0  0  0  0
 43 48  1  0  0  0  0
 44 68  1  0  0  0  0
 45 48  1  0  0  0  0
 45 68  1  0  0  0  0
 46 71  1  0  0  0  0
 47 67  1  0  0  0  0
 48 66  1  0  0  0  0
 49 56  1  0  0  0  0
 50 60  1  0  0  0  0
 51 62  1  0  0  0  0
 52 62  1  0  0  0  0
 53 62  1  0  0  0  0
 54 73  1  0  0  0  0
 55 57  1  0  0  0  0
 57 58  1  0  0  0  0
 58 80  1  0  0  0  0
 59 62  1  0  0  0  0
 59 72  1  0  0  0  0
 60 73  1  0  0  0  0
 61 83  1  0  0  0  0
 61 84  1  0  0  0  0
 64 66  1  0  0  0  0
M  CHG  1  73   1
M  ISO  4  35 100  58 101  61 100  80 101
M  END
> <Batch ID>
0070

> <Smiles>
CCc1nc([100C:0](F)(F)[100C:0](=O)N2CCCC(n3nc(-c4ccc(Oc5ccc(F)cc5F)cc4)c(C(N)=O)c3N)C2)cnc1CC[101CH2:1][101O:1]c1ccc2c(c1)CN(C(=O)C(NC(=O)C(C)NC)C(C)(C)C)C(C(=O)NC1CCCc3ccccc31)C2

> <Shape>
0.238

> <Color>
0.083

> <Negative vol penalty>
0.000

$$$$

  -OEChem-04052318193D

 77 85  0     1  0  0  0  0  0999 V2000
  -19.9895  -34.8627   22.4091 C   0  0  0  0  0  0  0  0  0  0  0  0
  -21.3226  -34.4666   22.3724 C   0  0  0  0  0  0  0  0  0  0  0  0
  -25.3038  -16.0011   21.5456 C   0  0  0  0  0  0  0  0  0  0  0  0
  -25.1824  -15.5667   19.1720 C   0  0  0  0  0  0  0  0  0  0  0  0
  -19.0027  -33.9514   22.7831 C   0  0  0  0  0  0  0  0  0  0  0  0
  -21.6698  -33.1591   22.7108 C   0  0  0  0  0  0  0  0  0  0  0  0
  -26.1681  -29.7956   20.2699 C   0  0  0  0  0  0  0  0  0  0  0  0
  -24.1287  -15.2748   21.7386 C   0  0  0  0  0  0  0  0  0  0  0  0
  -24.0073  -14.8404   19.3651 C   0  0  0  0  0  0  0  0  0  0  0  0
  -27.4670  -29.5175   20.6934 C   0  0  0  0  0  0  0  0  0  0  0  0
  -21.3567  -13.2310   22.9021 C   0  0  0  0  0  0  0  0  0  0  0  0
  -21.3222  -12.3227   23.9600 C   0  0  0  0  0  0  0  0  0  0  0  0
  -26.6990  -27.4506   21.6718 C   0  0  0  0  0  0  0  0  0  0  0  0
  -23.1753  -11.1171   22.9855 C   0  0  0  0  0  0  0  0  0  0  0  0
  -30.8315  -25.1799   21.5027 C   0  0  0  0  0  0  0  0  0  0  0  0
  -25.8306  -16.1472   20.2622 C   0  0  0  0  0  0  0  0  0  0  0  0
  -28.3624  -16.4045   20.0848 C   0  0  0  0  0  0  0  0  0  0  0  0
  -19.3370  -32.6295   23.1169 C   0  0  0  0  0  0  0  0  0  0  0  0
  -25.1212  -28.9070   20.5541 C   0  0  0  0  0  0  0  0  0  0  0  0
  -20.6868  -32.2297   23.0909 C   0  0  0  0  0  0  0  0  0  0  0  0
  -25.3882  -27.7185   21.2485 C   0  0  0  0  0  0  0  0  0  0  0  0
  -23.4805  -14.6944   20.6484 C   0  0  0  0  0  0  0  0  0  0  0  0
  -27.7321  -28.3463   21.3969 C   0  0  0  0  0  0  0  0  0  0  0  0
  -22.3005  -13.0823   21.8857 C   0  0  0  0  0  0  0  0  0  0  0  0
  -22.2315  -11.2657   24.0018 C   0  0  0  0  0  0  0  0  0  0  0  0
  -23.2098  -12.0254   21.9275 C   0  0  0  0  0  0  0  0  0  0  0  0
  -27.0441  -16.8978   20.0621 C   0  0  0  0  0  0  0  0  0  0  0  0
  -30.6585  -24.1667   20.5935 C   0  0  0  0  0  0  0  0  0  0  0  0
  -29.1456  -17.5064   19.8422 C   0  0  0  0  0  0  0  0  0  0  0  0
  -28.8366  -15.0695   20.3053 C   0  0  0  0  0  0  0  0  0  0  0  0
  -30.3950  -22.7524   20.8857 C   0  0  0  0  0  0  0  0  0  0  0  0
  -22.4171  -29.0845   22.2155 C   0  0  0  0  0  0  0  0  0  0  0  0
  -21.9211  -26.1259   20.9813 C   0  0  0  0  0  0  0  0  0  0  0  0
  -23.2565  -23.2763   19.6611 C   0  0  0  0  0  0  0  0  0  0  0  0
  -18.2408  -31.6935   23.5607 C   0  0  0  0  0  0  0  0  0  0  0  0
  -23.7304  -29.2087   20.0671 C   0  0  0  0  0  0  0  0  0  0  0  0
  -24.3031  -26.7219   21.5613 C   0  0  0  0  0  0  0  0  0  0  0  0
  -18.6510  -30.2232   23.5427 C   0  0  0  0  0  0  0  0  0  0  0  0
  -27.9083  -22.1619   18.3099 C   0  0  0  0  0  0  0  0  0  0  0  0
  -20.0187  -30.0425   24.1934 C   0  0  0  0  0  0  0  0  0  0  0  0
  -27.5581  -20.6939   18.5566 C   0  0  0  0  0  0  0  0  0  0  0  0
  -28.1891  -22.8938   19.6187 C   0  0  0  0  0  0  0  0  0  0  0  0
  -28.9023  -20.7900   20.7044 C   0  0  0  0  0  0  0  0  0  0  0  0
  -21.1004  -30.8134   23.4271 C   0  0  1  0  0  0  0  0  0  0  0  0
  -22.6489  -28.4807   20.8592 C   0  0  1  0  0  0  0  0  0  0  0  0
  -28.6349  -20.0004   19.4112 C   0  0  1  0  0  0  0  0  0  0  0  0
  -22.6034  -21.0184   18.7820 C   0  0  0  0  0  0  0  0  0  0  0  0
  -21.4719  -25.1470   23.8362 C   0  0  0  0  0  0  0  0  0  0  0  0
  -21.7723  -22.8042   23.0059 C   0  0  0  0  0  0  0  0  0  0  0  0
  -19.8904  -24.1983   22.1470 C   0  0  0  0  0  0  0  0  0  0  0  0
  -24.3759  -23.8657   16.9855 C   0  0  0  0  0  0  0  0  0  0  0  0
  -31.2969  -27.6933   21.1743 C   0  0  0  0  0  0  0  0  0  0  0  0
  -30.0676  -28.5812   21.0149 C   0  0  0  0  0  0  0  0  0  1  0  0
  -22.2533  -24.7180   21.4131 C   0  0  1  0  0  0  0  0  0  0  0  0
  -22.8902  -22.4694   18.4285 C   0  0  2  0  0  0  0  0  0  0  0  0
  -21.3673  -24.2364   22.5965 C   0  0  0  0  0  0  0  0  0  0  0  0
  -26.9890  -18.2109   19.8241 N   0  0  0  0  0  0  0  0  0  0  0  0
  -30.7676  -24.6645   19.3247 N   0  0  0  0  0  0  0  0  0  0  0  0
  -31.0053  -25.9683   19.4166 N   0  0  0  0  0  0  0  0  0  0  0  0
  -31.0432  -26.2753   20.7235 N   0  0  0  0  0  0  0  0  0  0  0  0
  -28.2824  -18.5521   19.6951 N   0  0  0  0  0  0  0  0  0  0  0  0
  -29.2137  -22.1877   20.3985 N   0  0  0  0  0  0  0  0  0  0  0  0
  -22.9585  -27.0650   21.0694 N   0  0  0  0  0  0  0  0  0  0  0  0
  -30.4815  -17.6732   19.7426 N   0  0  0  0  0  0  0  0  0  0  0  0
  -27.8966  -14.0567   20.5395 N   0  0  0  0  0  0  0  0  0  0  0  0
  -21.4772  -30.0974   22.2272 N   0  0  0  0  0  0  0  0  0  0  0  0
  -22.1534  -23.8897   20.2162 N   0  0  0  0  0  0  0  0  0  0  0  0
  -24.0043  -22.5007   17.4391 N   0  3  0  0  0  0  0  0  0  0  0  0
  -30.0586  -14.7862   20.3113 O   0  0  0  0  0  0  0  0  0  0  0  0
  -31.2553  -22.1640   21.5390 O   0  0  0  0  0  0  0  0  0  0  0  0
  -23.0435  -28.6617   23.1801 O   0  0  0  0  0  0  0  0  0  0  0  0
  -20.7851  -26.3814   20.5740 O   0  0  0  0  0  0  0  0  0  0  0  0
  -24.4055  -23.3515   20.0908 O   0  0  0  0  0  0  0  0  0  0  0  0
  -22.3340  -13.9854   20.8364 O   0  0  0  0  0  0  0  0  0  0  0  0
  -28.9989  -28.0727   21.8120 O   0  0  0  0  0  0  0  0  0  1  0  0
  -22.1992  -10.3944   25.0187 F   0  0  0  0  0  0  0  0  0  0  0  0
  -24.1195  -11.8781   20.9546 F   0  0  0  0  0  0  0  0  0  0  0  0
  1  2  1  0  0  0  0
  1  5  2  0  0  0  0
  2  6  2  0  0  0  0
  3  8  2  0  0  0  0
  3 16  1  0  0  0  0
  4  9  1  0  0  0  0
  4 16  2  0  0  0  0
  5 18  1  0  0  0  0
  6 20  1  0  0  0  0
  7 10  2  0  0  0  0
  7 19  1  0  0  0  0
  8 22  1  0  0  0  0
  9 22  2  0  0  0  0
 10 23  1  0  0  0  0
 11 12  2  0  0  0  0
 11 24  1  0  0  0  0
 12 25  1  0  0  0  0
 13 21  1  0  0  0  0
 13 23  2  0  0  0  0
 14 25  2  0  0  0  0
 14 26  1  0  0  0  0
 15 28  2  0  0  0  0
 15 60  1  0  0  0  0
 16 27  1  0  0  0  0
 17 27  1  0  0  0  0
 17 29  2  0  0  0  0
 17 30  1  0  0  0  0
 18 20  2  0  0  0  0
 18 35  1  0  0  0  0
 19 21  2  0  0  0  0
 19 36  1  0  0  0  0
 20 44  1  0  0  0  0
 21 37  1  0  0  0  0
 22 74  1  0  0  0  0
 23 75  1  0  0  0  0
 24 26  2  0  0  0  0
 24 74  1  0  0  0  0
 25 76  1  0  0  0  0
 26 77  1  0  0  0  0
 27 57  2  0  0  0  0
 28 31  1  0  0  0  0
 28 58  1  0  0  0  0
 29 61  1  0  0  0  0
 29 64  1  0  0  0  0
 30 65  1  0  0  0  0
 30 69  2  0  0  0  0
 31 62  1  0  0  0  0
 31 70  2  0  0  0  0
 32 45  1  0  0  0  0
 32 66  1  0  0  0  0
 32 71  2  0  0  0  0
 33 54  1  0  0  0  0
 33 63  1  0  0  0  0
 33 72  2  0  0  0  0
 34 55  1  0  0  0  0
 34 67  1  0  0  0  0
 34 73  2  0  0  0  0
 35 38  1  0  0  0  0
 36 45  1  0  0  0  0
 37 63  1  0  0  0  0
 38 40  1  0  0  0  0
 39 41  1  0  0  0  0
 39 42  1  0  0  0  0
 40 44  1  0  0  0  0
 41 46  1  0  0  0  0
 42 62  1  0  0  0  0
 43 46  1  0  0  0  0
 43 62  1  0  0  0  0
 44 66  1  0  0  0  0
 45 63  1  0  0  0  0
 46 61  1  0  0  0  0
 47 55  1  0  0  0  0
 48 56  1  0  0  0  0
 49 56  1  0  0  0  0
 50 56  1  0  0  0  0
 51 68  1  0  0  0  0
 52 53  1  0  0  0  0
 52 60  1  0  0  0  0
 53 75  1  0  0  0  0
 54 56  1  0  0  0  0
 54 67  1  0  0  0  0
 55 68  1  0  0  0  0
 57 61  1  0  0  0  0
 58 59  2  0  0  0  0
 59 60  1  0  0  0  0
M  CHG  1  68   1
M  ISO  4  28 100  31 100  53 101  75 101
M  END
> <Batch ID>
0070

> <Smiles>
CNC(C)C(=O)NC(C(=O)N1Cc2cc([101O:1][101CH2:1]Cn3c[100c:0]([100C:0](=O)N4CCCC(n5nc(-c6ccc(Oc7ccc(F)cc7F)cc6)c(C(N)=O)c5N)C4)nn3)ccc2CC1C(=O)NC1CCCc2ccccc21)C(C)(C)C

> <Shape>
0.235

> <Color>
0.093

> <Negative vol penalty>
0.000

$$$$

  -OEChem-04052318193D

 86 94  0     1  0  0  0  0  0999 V2000
  -21.4634  -12.4611   21.6375 C   0  0  0  0  0  0  0  0  0  0  0  0
  -21.9596  -13.4528   22.4775 C   0  0  0  0  0  0  0  0  0  0  0  0
  -19.4401  -23.8621   22.5273 C   0  0  0  0  0  0  0  0  0  0  0  0
  -20.8207  -23.9073   24.5095 C   0  0  0  0  0  0  0  0  0  0  0  0
  -22.2948  -11.8783   20.6819 C   0  0  0  0  0  0  0  0  0  0  0  0
  -23.2878  -13.8617   22.3632 C   0  0  0  0  0  0  0  0  0  0  0  0
  -23.7882  -18.8992   22.4957 C   0  0  0  0  0  0  0  0  0  0  0  0
  -18.8293  -22.6924   22.9794 C   0  0  0  0  0  0  0  0  0  0  0  0
  -20.2099  -22.7377   24.9616 C   0  0  0  0  0  0  0  0  0  0  0  0
  -23.7141  -19.5138   23.7449 C   0  0  0  0  0  0  0  0  0  0  0  0
  -16.6537  -19.8932   23.7833 C   0  0  0  0  0  0  0  0  0  0  0  0
  -15.2648  -19.8079   23.6869 C   0  0  0  0  0  0  0  0  0  0  0  0
  -26.1218  -19.6431   23.8174 C   0  0  0  0  0  0  0  0  0  0  0  0
  -15.0468  -21.7465   25.1121 C   0  0  0  0  0  0  0  0  0  0  0  0
  -28.4070  -26.4557   25.9997 C   0  0  0  0  0  0  0  0  0  0  0  0
  -20.4359  -24.4695   23.2923 C   0  0  0  0  0  0  0  0  0  0  0  0
  -20.6616  -27.0015   23.0784 C   0  0  0  0  0  0  0  0  0  0  0  0
  -23.6313  -12.2870   20.5494 C   0  0  0  0  0  0  0  0  0  0  0  0
  -25.0321  -18.6417   21.9018 C   0  0  0  0  0  0  0  0  0  0  0  0
  -24.1382  -13.2829   21.4059 C   0  0  0  0  0  0  0  0  0  0  0  0
  -26.2089  -19.0275   22.5594 C   0  0  0  0  0  0  0  0  0  0  0  0
  -27.9636  -25.4291   26.7972 C   0  0  0  0  0  0  0  0  0  0  0  0
  -19.2142  -22.1302   24.1966 C   0  0  0  0  0  0  0  0  0  0  0  0
  -24.8811  -19.8832   24.4073 C   0  0  0  0  0  0  0  0  0  0  0  0
  -17.2392  -20.9051   24.5441 C   0  0  0  0  0  0  0  0  0  0  0  0
  -14.4614  -20.7345   24.3513 C   0  0  0  0  0  0  0  0  0  0  0  0
  -16.4357  -21.8318   25.2085 C   0  0  0  0  0  0  0  0  0  0  0  0
  -21.0676  -25.6775   22.8256 C   0  0  0  0  0  0  0  0  0  0  0  0
  -26.5768  -25.3744   26.5618 C   0  0  0  0  0  0  0  0  0  0  0  0
  -21.5847  -27.7756   22.4187 C   0  0  0  0  0  0  0  0  0  0  0  0
  -19.5495  -27.4881   23.8413 C   0  0  0  0  0  0  0  0  0  0  0  0
  -26.5855  -16.0207   20.9955 C   0  0  0  0  0  0  0  0  0  0  0  0
  -28.7032  -18.1629   19.7919 C   0  0  0  0  0  0  0  0  0  0  0  0
  -27.2551  -26.7044   20.7420 C   0  0  0  0  0  0  0  0  0  0  0  0
  -30.0147  -21.3118   19.8957 C   0  0  0  0  0  0  0  0  0  0  0  0
  -24.5048  -11.5946   19.5334 C   0  0  0  0  0  0  0  0  0  0  0  0
  -25.0941  -18.0021   20.5418 C   0  0  0  0  0  0  0  0  0  0  0  0
  -27.5685  -18.7916   21.9558 C   0  0  0  0  0  0  0  0  0  0  0  0
  -25.7962  -12.3482   19.2259 C   0  0  0  0  0  0  0  0  0  0  0  0
  -24.5251  -27.7192   18.6546 C   0  0  0  0  0  0  0  0  0  0  0  0
  -26.4679  -12.8052   20.5169 C   0  0  0  0  0  0  0  0  0  0  0  0
  -23.2911  -27.4046   19.4992 C   0  0  0  0  0  0  0  0  0  0  0  0
  -25.6310  -26.6924   18.8775 C   0  0  0  0  0  0  0  0  0  0  0  0
  -24.7939  -26.2116   21.1556 C   0  0  0  0  0  0  0  0  0  0  0  0
  -25.5665  -13.7707   21.2959 C   0  0  1  0  0  0  0  0  0  0  0  0
  -26.4310  -17.3226   20.2615 C   0  0  1  0  0  0  0  0  0  0  0  0
  -23.6639  -27.2421   20.9835 C   0  0  2  0  0  0  0  0  0  0  0  0
  -28.7692  -24.5829   27.6936 C   0  0  0  0  0  0  0  0  0  0  0  0
  -31.7591  -22.7558   18.8144 C   0  0  0  0  0  0  0  0  0  0  0  0
  -26.4428  -29.1878   24.9866 C   0  0  0  0  0  0  0  0  0  0  0  0
  -29.0029  -26.7667   22.4354 C   0  0  0  0  0  0  0  0  0  0  0  0
  -27.1316  -25.1224   22.6499 C   0  0  0  0  0  0  0  0  0  0  0  0
  -30.8780  -16.7037   21.3574 C   0  0  0  0  0  0  0  0  0  0  0  0
  -32.3593  -18.6935   21.0188 C   0  0  0  0  0  0  0  0  0  0  0  0
  -31.5427  -17.3991   19.0489 C   0  0  0  0  0  0  0  0  0  0  0  0
  -27.9890  -23.2499   18.9477 C   0  0  0  0  0  0  0  0  0  0  0  0
  -25.5720  -24.4308   27.1732 C   0  0  0  0  0  0  0  0  0  0  0  0
  -25.1246  -23.3075   26.2312 C   0  0  0  0  0  0  0  0  0  0  0  0
  -24.0494  -22.4071   26.8414 C   0  0  0  0  0  0  0  0  0  0  0  0
  -26.7164  -27.6297   23.0168 C   0  0  0  0  0  0  0  0  0  0  0  0
  -23.6593  -21.2811   25.8936 C   0  0  0  0  0  0  0  0  0  1  0  0
  -29.9273  -18.8694   20.3220 C   0  0  1  0  0  0  0  0  0  0  0  0
  -30.3023  -22.3199   18.7978 C   0  0  2  0  0  0  0  0  0  0  0  0
  -27.2652  -28.0231   24.4126 C   0  0  2  0  0  0  0  0  0  0  0  0
  -27.4949  -26.5480   22.2226 C   0  0  0  0  0  0  0  0  0  0  0  0
  -31.1515  -17.9193   20.4493 C   0  0  0  0  0  0  0  0  0  0  0  0
  -22.1632  -25.6105   22.0646 N   0  0  0  0  0  0  0  0  0  0  0  0
  -26.1662  -26.2933   25.6837 N   0  0  0  0  0  0  0  0  0  0  0  0
  -27.3018  -26.9351   25.3603 N   0  0  0  0  0  0  0  0  0  0  0  0
  -22.4535  -26.9022   21.8334 N   0  0  0  0  0  0  0  0  0  0  0  0
  -27.5770  -18.1575   20.6271 N   0  0  0  0  0  0  0  0  0  0  0  0
  -25.9404  -26.5510   20.3014 N   0  0  0  0  0  0  0  0  0  0  0  0
  -21.7298  -29.1114   22.2880 N   0  0  0  0  0  0  0  0  0  0  0  0
  -18.7001  -26.5562   24.4533 N   0  0  0  0  0  0  0  0  0  0  0  0
  -25.6070  -15.0900   20.7025 N   0  0  0  0  0  0  0  0  0  0  0  0
  -30.1487  -20.0151   19.4463 N   0  0  0  0  0  0  0  0  0  0  0  0
  -29.4480  -23.5291   18.9682 N   0  3  0  0  0  0  0  0  0  0  0  0
  -19.3064  -28.7128   23.9628 O   0  0  0  0  0  0  0  0  0  0  0  0
  -27.5238  -15.8710   21.7693 O   0  0  0  0  0  0  0  0  0  0  0  0
  -28.7423  -17.6412   18.6747 O   0  0  0  0  0  0  0  0  0  0  0  0
  -28.2085  -26.9582   20.0013 O   0  0  0  0  0  0  0  0  0  0  0  0
  -29.7061  -21.6416   21.0388 O   0  0  0  0  0  0  0  0  0  0  0  0
  -18.6182  -20.9890   24.6382 O   0  0  0  0  0  0  0  0  0  0  0  0
  -24.8116  -20.4827   25.6270 O   0  0  0  0  0  0  0  0  0  1  0  0
  -13.1277  -20.6534   24.2574 F   0  0  0  0  0  0  0  0  0  0  0  0
  -16.9925  -22.8069   25.9400 F   0  0  0  0  0  0  0  0  0  0  0  0
  1  2  1  0  0  0  0
  1  5  2  0  0  0  0
  2  6  2  0  0  0  0
  3  8  2  0  0  0  0
  3 16  1  0  0  0  0
  4  9  1  0  0  0  0
  4 16  2  0  0  0  0
  5 18  1  0  0  0  0
  6 20  1  0  0  0  0
  7 10  2  0  0  0  0
  7 19  1  0  0  0  0
  8 23  1  0  0  0  0
  9 23  2  0  0  0  0
 10 24  1  0  0  0  0
 11 12  2  0  0  0  0
 11 25  1  0  0  0  0
 12 26  1  0  0  0  0
 13 21  1  0  0  0  0
 13 24  2  0  0  0  0
 14 26  2  0  0  0  0
 14 27  1  0  0  0  0
 15 22  2  0  0  0  0
 15 69  1  0  0  0  0
 16 28  1  0  0  0  0
 17 28  1  0  0  0  0
 17 30  2  0  0  0  0
 17 31  1  0  0  0  0
 18 20  2  0  0  0  0
 18 36  1  0  0  0  0
 19 21  2  0  0  0  0
 19 37  1  0  0  0  0
 20 45  1  0  0  0  0
 21 38  1  0  0  0  0
 22 29  1  0  0  0  0
 22 48  1  0  0  0  0
 23 83  1  0  0  0  0
 24 84  1  0  0  0  0
 25 27  2  0  0  0  0
 25 83  1  0  0  0  0
 26 85  1  0  0  0  0
 27 86  1  0  0  0  0
 28 67  2  0  0  0  0
 29 57  1  0  0  0  0
 29 68  2  0  0  0  0
 30 70  1  0  0  0  0
 30 73  1  0  0  0  0
 31 74  1  0  0  0  0
 31 78  2  0  0  0  0
 32 46  1  0  0  0  0
 32 75  1  0  0  0  0
 32 79  2  0  0  0  0
 33 62  1  0  0  0  0
 33 71  1  0  0  0  0
 33 80  2  0  0  0  0
 34 65  1  0  0  0  0
 34 72  1  0  0  0  0
 34 81  2  0  0  0  0
 35 63  1  0  0  0  0
 35 76  1  0  0  0  0
 35 82  2  0  0  0  0
 36 39  1  0  0  0  0
 37 46  1  0  0  0  0
 38 71  1  0  0  0  0
 39 41  1  0  0  0  0
 40 42  1  0  0  0  0
 40 43  1  0  0  0  0
 41 45  1  0  0  0  0
 42 47  1  0  0  0  0
 43 72  1  0  0  0  0
 44 47  1  0  0  0  0
 44 72  1  0  0  0  0
 45 75  1  0  0  0  0
 46 71  1  0  0  0  0
 47 70  1  0  0  0  0
 49 63  1  0  0  0  0
 50 64  1  0  0  0  0
 51 65  1  0  0  0  0
 52 65  1  0  0  0  0
 53 66  1  0  0  0  0
 54 66  1  0  0  0  0
 55 66  1  0  0  0  0
 56 77  1  0  0  0  0
 57 58  1  0  0  0  0
 58 59  1  0  0  0  0
 59 61  1  0  0  0  0
 60 64  1  0  0  0  0
 60 65  1  0  0  0  0
 61 84  1  0  0  0  0
 62 66  1  0  0  0  0
 62 76  1  0  0  0  0
 63 77  1  0  0  0  0
 64 69  1  0  0  0  0
 67 70  1  0  0  0  0
 68 69  1  0  0  0  0
M  CHG  1  77   1
M  ISO  4  34 100  61 101  65 100  84 101
M  END
> <Batch ID>
0070

> <Smiles>
CNC(C)C(=O)NC(C(=O)N1Cc2cc([101O:1][101CH2:1]CCCc3nn(C(C)C[100C:0](C)(C)[100C:0](=O)N4CCCC(n5nc(-c6ccc(Oc7ccc(F)cc7F)cc6)c(C(N)=O)c5N)C4)cc3C)ccc2CC1C(=O)NC1CCCc2ccccc21)C(C)(C)C

> <Shape>
0.188

> <Color>
0.071

> <Negative vol penalty>
0.000

$$$$

  -OEChem-04052318193D

 89 97  0     1  0  0  0  0  0999 V2000
  -18.1834  -32.8881   23.9246 C   0  0  0  0  0  0  0  0  0  0  0  0
  -19.5379  -32.5737   23.9698 C   0  0  0  0  0  0  0  0  0  0  0  0
  -25.0439  -14.5767   19.6221 C   0  0  0  0  0  0  0  0  0  0  0  0
  -26.1913  -13.3775   21.3777 C   0  0  0  0  0  0  0  0  0  0  0  0
  -17.2421  -31.8819   23.7117 C   0  0  0  0  0  0  0  0  0  0  0  0
  -19.9517  -31.2525   23.8032 C   0  0  0  0  0  0  0  0  0  0  0  0
  -23.9138  -30.8373   20.6768 C   0  0  0  0  0  0  0  0  0  0  0  0
  -24.4476  -13.3885   19.2001 C   0  0  0  0  0  0  0  0  0  0  0  0
  -25.5950  -12.1892   20.9558 C   0  0  0  0  0  0  0  0  0  0  0  0
  -25.1686  -31.1577   21.1931 C   0  0  0  0  0  0  0  0  0  0  0  0
  -24.0947   -8.9005   20.5659 C   0  0  0  0  0  0  0  0  0  0  0  0
  -23.5613   -8.0594   21.5424 C   0  0  0  0  0  0  0  0  0  0  0  0
  -25.6351  -28.8108   21.4992 C   0  0  0  0  0  0  0  0  0  0  0  0
  -22.0605   -9.8199   22.2392 C   0  0  0  0  0  0  0  0  0  0  0  0
  -29.6168  -24.0164   18.5039 C   0  0  0  0  0  0  0  0  0  0  0  0
  -28.5539  -25.4022   19.8479 C   0  0  0  0  0  0  0  0  0  0  0  0
  -25.9158  -14.5712   20.7109 C   0  0  0  0  0  0  0  0  0  0  0  0
  -26.0334  -16.7101   22.0962 C   0  0  0  0  0  0  0  0  0  0  0  0
  -17.6452  -30.5492   23.5328 C   0  0  0  0  0  0  0  0  0  0  0  0
  -23.5052  -29.4995   20.5777 C   0  0  0  0  0  0  0  0  0  0  0  0
  -19.0148  -30.2273   23.5890 C   0  0  0  0  0  0  0  0  0  0  0  0
  -24.3756  -28.4760   20.9789 C   0  0  0  0  0  0  0  0  0  0  0  0
  -24.7230  -12.1947   19.8670 C   0  0  0  0  0  0  0  0  0  0  0  0
  -26.0283  -30.1445   21.6071 C   0  0  0  0  0  0  0  0  0  0  0  0
  -23.6111  -10.2015   20.4261 C   0  0  0  0  0  0  0  0  0  0  0  0
  -22.5442   -8.5190   22.3790 C   0  0  0  0  0  0  0  0  0  0  0  0
  -22.5940  -10.6611   21.2627 C   0  0  0  0  0  0  0  0  0  0  0  0
  -26.5326  -15.7983   21.1469 C   0  0  0  0  0  0  0  0  0  0  0  0
  -29.3241  -23.4228   19.7090 C   0  0  0  0  0  0  0  0  0  0  0  0
  -26.9832  -17.7006   22.1533 C   0  0  0  0  0  0  0  0  0  0  0  0
  -24.8199  -16.6656   22.8584 C   0  0  0  0  0  0  0  0  0  0  0  0
  -21.1504  -27.7743   21.8356 C   0  0  0  0  0  0  0  0  0  0  0  0
  -22.2835  -25.4852   19.8359 C   0  0  0  0  0  0  0  0  0  0  0  0
  -24.9073  -24.2499   18.0370 C   0  0  0  0  0  0  0  0  0  0  0  0
  -30.3361  -21.2047   19.2079 C   0  0  0  0  0  0  0  0  0  0  0  0
  -16.5879  -29.4888   23.3526 C   0  0  0  0  0  0  0  0  0  0  0  0
  -22.1590  -29.1694   19.9937 C   0  0  0  0  0  0  0  0  0  0  0  0
  -23.9927  -27.0231   20.8745 C   0  0  0  0  0  0  0  0  0  0  0  0
  -17.1339  -28.1699   22.8117 C   0  0  0  0  0  0  0  0  0  0  0  0
  -31.6547  -17.9206   20.2500 C   0  0  0  0  0  0  0  0  0  0  0  0
  -18.3962  -27.7651   23.5665 C   0  0  0  0  0  0  0  0  0  0  0  0
  -30.3877  -17.1370   20.5888 C   0  0  0  0  0  0  0  0  0  0  0  0
  -31.4012  -18.9685   19.1703 C   0  0  0  0  0  0  0  0  0  0  0  0
  -29.0206  -19.1232   19.8329 C   0  0  0  0  0  0  0  0  0  0  0  0
  -19.5046  -28.8096   23.3880 C   0  0  1  0  0  0  0  0  0  0  0  0
  -21.6445  -27.7969   20.4168 C   0  0  1  0  0  0  0  0  0  0  0  0
  -29.2336  -18.0887   20.9484 C   0  0  1  0  0  0  0  0  0  0  0  0
  -25.5407  -22.3438   16.5326 C   0  0  0  0  0  0  0  0  0  0  0  0
  -32.9354  -27.3807   17.8193 C   0  0  0  0  0  0  0  0  0  0  0  0
  -32.0162  -31.2470   19.7981 C   0  0  0  0  0  0  0  0  0  0  0  0
  -22.4734  -23.6397   22.2583 C   0  0  0  0  0  0  0  0  0  0  0  0
  -23.9599  -22.1407   20.9123 C   0  0  0  0  0  0  0  0  0  0  0  0
  -21.6102  -22.5482   20.1803 C   0  0  0  0  0  0  0  0  0  0  0  0
  -29.4855  -21.6773   21.4933 C   0  0  0  0  0  0  0  0  0  0  0  0
  -25.4951  -26.0733   15.7812 C   0  0  0  0  0  0  0  0  0  0  0  0
  -31.7098  -27.7848   21.2411 C   0  0  0  0  0  0  0  0  0  0  0  0
  -29.3904  -31.4885   21.6534 C   0  0  0  0  0  0  0  0  0  0  0  0
  -29.8673  -30.3317   20.7651 C   0  0  0  0  0  0  0  0  0  0  0  0
  -30.6241  -26.6624   17.1421 C   0  0  0  0  0  0  0  0  0  0  0  0
  -29.1792  -26.3579   17.5504 C   0  0  0  0  0  0  0  0  0  0  0  0
  -30.9573  -28.4699   18.9685 C   0  0  0  0  0  0  0  0  0  0  0  0
  -27.8738  -31.6445   21.6268 C   0  0  0  0  0  0  0  0  0  1  0  0
  -23.3212  -24.3937   19.9391 C   0  0  1  0  0  0  0  0  0  0  0  0
  -25.0053  -23.7655   16.6016 C   0  0  2  0  0  0  0  0  0  0  0  0
  -31.4915  -27.1949   18.3013 C   0  0  2  0  0  0  0  0  0  0  0  0
  -31.3934  -30.1968   20.7086 C   0  0  1  0  0  0  0  0  0  0  0  0
  -22.8479  -23.2079   20.8264 C   0  0  0  0  0  0  0  0  0  0  0  0
  -28.6622  -24.2906   20.5412 N   0  0  0  0  0  0  0  0  0  0  0  0
  -27.7080  -16.1761   20.6374 N   0  0  0  0  0  0  0  0  0  0  0  0
  -29.1169  -25.2839   18.6076 N   0  0  0  0  0  0  0  0  0  0  0  0
  -27.9554  -17.3363   21.2689 N   0  0  0  0  0  0  0  0  0  0  0  0
  -22.6635  -26.7515   20.3028 N   0  0  0  0  0  0  0  0  0  0  0  0
  -30.2706  -19.8310   19.5157 N   0  0  0  0  0  0  0  0  0  0  0  0
  -27.0731  -18.8391   22.8732 N   0  0  0  0  0  0  0  0  0  0  0  0
  -23.9568  -15.5762   22.6774 N   0  0  0  0  0  0  0  0  0  0  0  0
  -20.1279  -28.6683   22.0896 N   0  0  0  0  0  0  0  0  0  0  0  0
  -23.6567  -24.0186   18.5697 N   0  0  0  0  0  0  0  0  0  0  0  0
  -29.6526  -22.0694   20.0900 N   0  0  0  0  0  0  0  0  0  0  0  0
  -25.9146  -24.6486   15.8179 N   0  3  0  0  0  0  0  0  0  0  0  0
  -31.7649  -28.8542   20.1811 N   0  3  1  0  0  0  0  0  0  0  0  0
  -24.5021  -17.5734   23.6637 O   0  0  0  0  0  0  0  0  0  0  0  0
  -21.6583  -27.0018   22.6400 O   0  0  0  0  0  0  0  0  0  0  0  0
  -21.1788  -25.2256   19.3521 O   0  0  0  0  0  0  0  0  0  0  0  0
  -25.8473  -24.7769   18.6278 O   0  0  0  0  0  0  0  0  0  0  0  0
  -30.9791  -21.6263   18.2392 O   0  0  0  0  0  0  0  0  0  0  0  0
  -24.1411  -11.0351   19.4557 O   0  0  0  0  0  0  0  0  0  0  0  0
  -27.2534  -30.4545   22.1120 O   0  0  0  0  0  0  0  0  0  1  0  0
  -22.0310   -7.7106   23.3156 F   0  0  0  0  0  0  0  0  0  0  0  0
  -22.1245  -11.9095   21.1324 F   0  0  0  0  0  0  0  0  0  0  0  0
  1  2  1  0  0  0  0
  1  5  2  0  0  0  0
  2  6  2  0  0  0  0
  3  8  2  0  0  0  0
  3 17  1  0  0  0  0
  4  9  1  0  0  0  0
  4 17  2  0  0  0  0
  5 19  1  0  0  0  0
  6 21  1  0  0  0  0
  7 10  2  0  0  0  0
  7 20  1  0  0  0  0
  8 23  1  0  0  0  0
  9 23  2  0  0  0  0
 10 24  1  0  0  0  0
 11 12  2  0  0  0  0
 11 25  1  0  0  0  0
 12 26  1  0  0  0  0
 13 22  1  0  0  0  0
 13 24  2  0  0  0  0
 14 26  2  0  0  0  0
 14 27  1  0  0  0  0
 15 29  2  0  0  0  0
 15 70  1  0  0  0  0
 16 68  2  0  0  0  0
 16 70  1  0  0  0  0
 17 28  1  0  0  0  0
 18 28  1  0  0  0  0
 18 30  2  0  0  0  0
 18 31  1  0  0  0  0
 19 21  2  0  0  0  0
 19 36  1  0  0  0  0
 20 22  2  0  0  0  0
 20 37  1  0  0  0  0
 21 45  1  0  0  0  0
 22 38  1  0  0  0  0
 23 86  1  0  0  0  0
 24 87  1  0  0  0  0
 25 27  2  0  0  0  0
 25 86  1  0  0  0  0
 26 88  1  0  0  0  0
 27 89  1  0  0  0  0
 28 69  2  0  0  0  0
 29 68  1  0  0  0  0
 29 78  1  0  0  0  0
 30 71  1  0  0  0  0
 30 74  1  0  0  0  0
 31 75  1  0  0  0  0
 31 81  2  0  0  0  0
 32 46  1  0  0  0  0
 32 76  1  0  0  0  0
 32 82  2  0  0  0  0
 33 63  1  0  0  0  0
 33 72  1  0  0  0  0
 33 83  2  0  0  0  0
 34 64  1  0  0  0  0
 34 77  1  0  0  0  0
 34 84  2  0  0  0  0
 35 73  1  0  0  0  0
 35 78  1  0  0  0  0
 35 85  2  0  0  0  0
 36 39  1  0  0  0  0
 37 46  1  0  0  0  0
 38 72  1  0  0  0  0
 39 41  1  0  0  0  0
 40 42  1  0  0  0  0
 40 43  1  0  0  0  0
 41 45  1  0  0  0  0
 42 47  1  0  0  0  0
 43 73  1  0  0  0  0
 44 47  1  0  0  0  0
 44 73  1  0  0  0  0
 45 76  1  0  0  0  0
 46 72  1  0  0  0  0
 47 71  1  0  0  0  0
 48 64  1  0  0  0  0
 49 65  1  0  0  0  0
 50 66  1  0  0  0  0
 51 67  1  0  0  0  0
 52 67  1  0  0  0  0
 53 67  1  0  0  0  0
 54 78  1  0  0  0  0
 55 79  1  0  0  0  0
 56 80  1  0  0  0  0
 57 58  1  0  0  0  0
 57 62  1  0  0  0  0
 58 66  1  0  0  0  0
 59 60  1  0  0  0  0
 59 65  1  0  0  0  0
 60 70  1  0  0  0  0
 61 65  1  0  0  0  0
 61 80  1  0  0  0  0
 62 87  1  0  0  0  0
 63 67  1  0  0  0  0
 63 77  1  0  0  0  0
 64 79  1  0  0  0  0
 66 80  1  0  0  0  0
 69 71  1  0  0  0  0
M  CHG  2  79   1  80   1
M  ISO  4  35 100  62 101  78 100  87 101
M  END
> <Batch ID>
0070

> <Smiles>
CNC(C)C(=O)NC(C(=O)N1Cc2cc([101O:1][101CH2:1]CCC(C)N(C)CC(C)CCn3cnc([100N:0](C)[100C:0](=O)N4CCCC(n5nc(-c6ccc(Oc7ccc(F)cc7F)cc6)c(C(N)=O)c5N)C4)c3)ccc2CC1C(=O)NC1CCCc2ccccc21)C(C)(C)C

> <Shape>
0.269

> <Color>
0.062

> <Negative vol penalty>
0.000

$$$$

  -OEChem-04052318193D

 83 91  0     1  0  0  0  0  0999 V2000
  -26.5032  -15.1069   11.6209 C   0  0  0  0  0  0  0  0  0  0  0  0
  -27.3806  -15.1347   12.7001 C   0  0  0  0  0  0  0  0  0  0  0  0
  -20.2671  -22.6780   20.5352 C   0  0  0  0  0  0  0  0  0  0  0  0
  -21.2773  -24.6956   19.6715 C   0  0  0  0  0  0  0  0  0  0  0  0
  -25.1601  -15.4312   11.8074 C   0  0  0  0  0  0  0  0  0  0  0  0
  -26.9157  -15.4880   13.9664 C   0  0  0  0  0  0  0  0  0  0  0  0
  -28.8281  -13.2649   19.3428 C   0  0  0  0  0  0  0  0  0  0  0  0
  -19.2289  -23.4319   21.0821 C   0  0  0  0  0  0  0  0  0  0  0  0
  -20.2390  -25.4495   20.2184 C   0  0  0  0  0  0  0  0  0  0  0  0
  -29.7250  -13.7508   20.2931 C   0  0  0  0  0  0  0  0  0  0  0  0
  -19.3648  -26.6517   23.2551 C   0  0  0  0  0  0  0  0  0  0  0  0
  -19.7025  -27.8197   23.9387 C   0  0  0  0  0  0  0  0  0  0  0  0
  -27.8856  -14.6879   21.5412 C   0  0  0  0  0  0  0  0  0  0  0  0
  -18.3838  -29.1127   22.3811 C   0  0  0  0  0  0  0  0  0  0  0  0
  -31.0870  -19.5119   21.2529 C   0  0  0  0  0  0  0  0  0  0  0  0
  -21.2914  -23.3098   19.8299 C   0  0  0  0  0  0  0  0  0  0  0  0
  -22.4135  -21.9574   17.9807 C   0  0  0  0  0  0  0  0  0  0  0  0
  -24.6764  -15.7792   13.0785 C   0  0  0  0  0  0  0  0  0  0  0  0
  -27.4518  -13.4965   19.4791 C   0  0  0  0  0  0  0  0  0  0  0  0
  -25.5651  -15.8185   14.1698 C   0  0  0  0  0  0  0  0  0  0  0  0
  -26.9731  -14.2016   20.5926 C   0  0  0  0  0  0  0  0  0  0  0  0
  -19.2148  -24.8177   20.9238 C   0  0  0  0  0  0  0  0  0  0  0  0
  -29.2541  -14.4649   21.3910 C   0  0  0  0  0  0  0  0  0  0  0  0
  -18.5367  -26.7142   22.1343 C   0  0  0  0  0  0  0  0  0  0  0  0
  -19.2120  -29.0502   23.5018 C   0  0  0  0  0  0  0  0  0  0  0  0
  -18.0462  -27.9447   21.6974 C   0  0  0  0  0  0  0  0  0  0  0  0
  -22.3645  -22.5316   19.2651 C   0  0  0  0  0  0  0  0  0  0  0  0
  -31.0945  -18.1365   21.1400 C   0  0  0  0  0  0  0  0  0  0  0  0
  -30.3631  -20.1860   20.2908 C   0  0  0  0  0  0  0  0  0  0  0  0
  -23.6330  -21.3273   17.9326 C   0  0  0  0  0  0  0  0  0  0  0  0
  -29.7781  -18.2311   19.2892 C   0  0  0  0  0  0  0  0  0  0  0  0
  -21.4435  -21.9907   16.9253 C   0  0  0  0  0  0  0  0  0  0  0  0
  -25.2538  -15.0243   17.7650 C   0  0  0  0  0  0  0  0  0  0  0  0
  -23.2264  -13.7636   19.9611 C   0  0  0  0  0  0  0  0  0  0  0  0
  -28.9954  -22.1813   19.7580 C   0  0  0  0  0  0  0  0  0  0  0  0
  -22.7743  -12.5063   23.1014 C   0  0  0  0  0  0  0  0  0  0  0  0
  -23.2262  -16.1677   13.2220 C   0  0  0  0  0  0  0  0  0  0  0  0
  -26.4950  -12.9427   18.4592 C   0  0  0  0  0  0  0  0  0  0  0  0
  -25.5032  -14.4598   20.7958 C   0  0  0  0  0  0  0  0  0  0  0  0
  -22.7358  -16.1678   14.6676 C   0  0  0  0  0  0  0  0  0  0  0  0
  -26.8494  -19.6788   21.2940 C   0  0  0  0  0  0  0  0  0  0  0  0
  -23.7351  -16.8842   15.5703 C   0  0  0  0  0  0  0  0  0  0  0  0
  -25.4678  -20.1296   20.8218 C   0  0  0  0  0  0  0  0  0  0  0  0
  -27.7688  -20.8688   21.5564 C   0  0  0  0  0  0  0  0  0  0  0  0
  -26.5271  -22.2438   19.9157 C   0  0  0  0  0  0  0  0  0  0  0  0
  -25.0935  -16.1726   15.5635 C   0  0  1  0  0  0  0  0  0  0  0  0
  -25.1599  -13.6802   18.4300 C   0  0  1  0  0  0  0  0  0  0  0  0
  -25.5788  -21.0721   19.6106 C   0  0  2  0  0  0  0  0  0  0  0  0
  -29.0479  -17.5202   18.2005 C   0  0  0  0  0  0  0  0  0  0  0  0
  -20.9981  -11.5934   24.6210 C   0  0  0  0  0  0  0  0  0  0  0  0
  -31.4444  -22.3071   19.5008 C   0  0  0  0  0  0  0  0  0  0  0  0
  -30.3519  -22.3236   21.7458 C   0  0  0  0  0  0  0  0  0  0  0  0
  -22.1868  -16.5918   20.4408 C   0  0  0  0  0  0  0  0  0  0  0  0
  -21.1469  -15.7741   22.5665 C   0  0  0  0  0  0  0  0  0  0  0  0
  -20.4166  -14.8264   20.3777 C   0  0  0  0  0  0  0  0  0  0  0  0
  -24.1397   -9.8893   23.3162 C   0  0  0  0  0  0  0  0  0  0  0  0
  -31.8580  -17.3125   22.1458 C   0  0  0  0  0  0  0  0  0  0  0  0
  -31.0278  -16.9041   23.3646 C   0  0  0  0  0  0  0  0  0  0  0  0
  -29.7602  -16.1388   23.0029 C   0  0  0  0  0  0  0  0  0  1  0  0
  -22.6884  -14.2091   21.2994 C   0  0  1  0  0  0  0  0  0  0  0  0
  -22.0677  -11.2562   23.5938 C   0  0  2  0  0  0  0  0  0  0  0  0
  -30.2951  -21.6760   20.3318 C   0  0  0  0  0  0  0  0  0  0  0  0
  -21.6376  -15.3473   21.1665 C   0  0  0  0  0  0  0  0  0  0  0  0
  -23.4652  -22.2877   19.9813 N   0  0  0  0  0  0  0  0  0  0  0  0
  -30.4486  -17.4608   20.1671 N   0  0  0  0  0  0  0  0  0  0  0  0
  -29.6942  -19.5752   19.2909 N   0  0  0  0  0  0  0  0  0  0  0  0
  -24.2173  -21.5532   19.1441 N   0  0  0  0  0  0  0  0  0  0  0  0
  -24.6081  -13.9034   19.7679 N   0  0  0  0  0  0  0  0  0  0  0  0
  -27.8259  -21.7566   20.3890 N   0  0  0  0  0  0  0  0  0  0  0  0
  -24.2517  -20.6074   16.9727 N   0  0  0  0  0  0  0  0  0  0  0  0
  -20.2443  -22.6830   17.1418 N   0  0  0  0  0  0  0  0  0  0  0  0
  -25.0495  -14.9915   16.3987 N   0  0  0  0  0  0  0  0  0  0  0  0
  -22.1880  -13.0078   21.9586 N   0  0  0  0  0  0  0  0  0  0  0  0
  -23.0446  -10.3223   24.2219 N   0  3  0  0  0  0  0  0  0  0  0  0
  -21.6277  -21.4097   15.8290 O   0  0  0  0  0  0  0  0  0  0  0  0
  -25.4923  -16.0178   18.4416 O   0  0  0  0  0  0  0  0  0  0  0  0
  -22.4504  -13.3017   19.1208 O   0  0  0  0  0  0  0  0  0  0  0  0
  -29.0207  -22.9287   18.7767 O   0  0  0  0  0  0  0  0  0  0  0  0
  -23.7468  -12.9916   23.6753 O   0  0  0  0  0  0  0  0  0  0  0  0
  -18.2017  -25.5537   21.4571 O   0  0  0  0  0  0  0  0  0  0  0  0
  -30.1275  -14.9409   22.3198 O   0  0  0  0  0  0  0  0  0  1  0  0
  -19.5351  -30.1715   24.1593 F   0  0  0  0  0  0  0  0  0  0  0  0
  -17.2492  -28.0109   20.6221 F   0  0  0  0  0  0  0  0  0  0  0  0
  1  2  1  0  0  0  0
  1  5  2  0  0  0  0
  2  6  2  0  0  0  0
  3  8  2  0  0  0  0
  3 16  1  0  0  0  0
  4  9  1  0  0  0  0
  4 16  2  0  0  0  0
  5 18  1  0  0  0  0
  6 20  1  0  0  0  0
  7 10  2  0  0  0  0
  7 19  1  0  0  0  0
  8 22  1  0  0  0  0
  9 22  2  0  0  0  0
 10 23  1  0  0  0  0
 11 12  2  0  0  0  0
 11 24  1  0  0  0  0
 12 25  1  0  0  0  0
 13 21  1  0  0  0  0
 13 23  2  0  0  0  0
 14 25  2  0  0  0  0
 14 26  1  0  0  0  0
 15 28  1  0  0  0  0
 15 29  2  0  0  0  0
 16 27  1  0  0  0  0
 17 27  1  0  0  0  0
 17 30  2  0  0  0  0
 17 32  1  0  0  0  0
 18 20  2  0  0  0  0
 18 37  1  0  0  0  0
 19 21  2  0  0  0  0
 19 38  1  0  0  0  0
 20 46  1  0  0  0  0
 21 39  1  0  0  0  0
 22 80  1  0  0  0  0
 23 81  1  0  0  0  0
 24 26  2  0  0  0  0
 24 80  1  0  0  0  0
 25 82  1  0  0  0  0
 26 83  1  0  0  0  0
 27 64  2  0  0  0  0
 28 57  1  0  0  0  0
 28 65  2  0  0  0  0
 29 62  1  0  0  0  0
 29 66  1  0  0  0  0
 30 67  1  0  0  0  0
 30 70  1  0  0  0  0
 31 49  1  0  0  0  0
 31 65  1  0  0  0  0
 31 66  2  0  0  0  0
 32 71  1  0  0  0  0
 32 75  2  0  0  0  0
 33 47  1  0  0  0  0
 33 72  1  0  0  0  0
 33 76  2  0  0  0  0
 34 60  1  0  0  0  0
 34 68  1  0  0  0  0
 34 77  2  0  0  0  0
 35 62  1  0  0  0  0
 35 69  1  0  0  0  0
 35 78  2  0  0  0  0
 36 61  1  0  0  0  0
 36 73  1  0  0  0  0
 36 79  2  0  0  0  0
 37 40  1  0  0  0  0
 38 47  1  0  0  0  0
 39 68  1  0  0  0  0
 40 42  1  0  0  0  0
 41 43  1  0  0  0  0
 41 44  1  0  0  0  0
 42 46  1  0  0  0  0
 43 48  1  0  0  0  0
 44 69  1  0  0  0  0
 45 48  1  0  0  0  0
 45 69  1  0  0  0  0
 46 72  1  0  0  0  0
 47 68  1  0  0  0  0
 48 67  1  0  0  0  0
 50 61  1  0  0  0  0
 51 62  1  0  0  0  0
 52 62  1  0  0  0  0
 53 63  1  0  0  0  0
 54 63  1  0  0  0  0
 55 63  1  0  0  0  0
 56 74  1  0  0  0  0
 57 58  1  0  0  0  0
 58 59  1  0  0  0  0
 59 81  1  0  0  0  0
 60 63  1  0  0  0  0
 60 73  1  0  0  0  0
 61 74  1  0  0  0  0
 64 67  1  0  0  0  0
M  CHG  1  74   1
M  ISO  4  35 100  59 101  62 100  81 101
M  END
> <Batch ID>
0070

> <Smiles>
CNC(C)C(=O)NC(C(=O)N1Cc2cc([101O:1][101CH2:1]CCc3cc([100C:0](C)(C)[100C:0](=O)N4CCCC(n5nc(-c6ccc(Oc7ccc(F)cc7F)cc6)c(C(N)=O)c5N)C4)nc(C)n3)ccc2CC1C(=O)NC1CCCc2ccccc21)C(C)(C)C

> <Shape>
0.194

> <Color>
0.077

> <Negative vol penalty>
0.000

$$$$

  -OEChem-04052318193D

 87 95  0     1  0  0  0  0  0999 V2000
  -26.3153  -28.1085   18.3435 C   0  0  0  0  0  0  0  0  0  0  0  0
  -25.6734  -27.0660   19.0042 C   0  0  0  0  0  0  0  0  0  0  0  0
  -28.9292  -23.6182   17.0530 C   0  0  0  0  0  0  0  0  0  0  0  0
  -26.8235  -22.8002   17.9098 C   0  0  0  0  0  0  0  0  0  0  0  0
  -26.2668  -29.3995   18.8679 C   0  0  0  0  0  0  0  0  0  0  0  0
  -24.9836  -27.3137   20.1905 C   0  0  0  0  0  0  0  0  0  0  0  0
  -20.4591  -25.0426   20.3172 C   0  0  0  0  0  0  0  0  0  0  0  0
  -28.2806  -24.0948   15.9139 C   0  0  0  0  0  0  0  0  0  0  0  0
  -26.1749  -23.2769   16.7706 C   0  0  0  0  0  0  0  0  0  0  0  0
  -20.4396  -23.6774   20.5994 C   0  0  0  0  0  0  0  0  0  0  0  0
  -25.7542  -22.3144   13.5570 C   0  0  0  0  0  0  0  0  0  0  0  0
  -24.8286  -21.4738   12.9388 C   0  0  0  0  0  0  0  0  0  0  0  0
  -19.8466  -24.1647   22.8863 C   0  0  0  0  0  0  0  0  0  0  0  0
  -23.0940  -23.1155   13.3036 C   0  0  0  0  0  0  0  0  0  0  0  0
  -23.1484  -15.5591   20.9784 C   0  0  0  0  0  0  0  0  0  0  0  0
  -28.2007  -22.9708   18.0510 C   0  0  0  0  0  0  0  0  0  0  0  0
  -29.6038  -23.2286   20.1658 C   0  0  0  0  0  0  0  0  0  0  0  0
  -25.5679  -29.6649   20.0561 C   0  0  0  0  0  0  0  0  0  0  0  0
  -20.1827  -25.9811   21.3218 C   0  0  0  0  0  0  0  0  0  0  0  0
  -24.9268  -28.6092   20.7320 C   0  0  0  0  0  0  0  0  0  0  0  0
  -19.8608  -25.5411   22.6137 C   0  0  0  0  0  0  0  0  0  0  0  0
  -26.9034  -23.9242   15.7726 C   0  0  0  0  0  0  0  0  0  0  0  0
  -20.1362  -23.2384   21.8848 C   0  0  0  0  0  0  0  0  0  0  0  0
  -25.3498  -23.5556   14.0485 C   0  0  0  0  0  0  0  0  0  0  0  0
  -23.4985  -21.8743   12.8121 C   0  0  0  0  0  0  0  0  0  0  0  0
  -24.0197  -23.9561   13.9218 C   0  0  0  0  0  0  0  0  0  0  0  0
  -28.8702  -22.4778   19.2277 C   0  0  0  0  0  0  0  0  0  0  0  0
  -24.2356  -14.9681   20.3991 C   0  0  0  0  0  0  0  0  0  0  0  0
  -30.0329  -22.3035   21.0859 C   0  0  0  0  0  0  0  0  0  0  0  0
  -24.9069  -16.8517   21.3488 C   0  0  0  0  0  0  0  0  0  0  0  0
  -29.8731  -24.6363   20.2023 C   0  0  0  0  0  0  0  0  0  0  0  0
  -21.8120  -28.3364   22.7008 C   0  0  0  0  0  0  0  0  0  0  0  0
  -18.9713  -28.9286   24.1507 C   0  0  0  0  0  0  0  0  0  0  0  0
  -27.8879  -16.9146   22.6580 C   0  0  0  0  0  0  0  0  0  0  0  0
  -15.9411  -27.7432   25.1798 C   0  0  0  0  0  0  0  0  0  0  0  0
  -25.5833  -31.0678   20.6094 C   0  0  0  0  0  0  0  0  0  0  0  0
  -20.1816  -27.4492   20.9947 C   0  0  0  0  0  0  0  0  0  0  0  0
  -19.5367  -26.5074   23.7227 C   0  0  0  0  0  0  0  0  0  0  0  0
  -24.5161  -31.3150   21.6726 C   0  0  0  0  0  0  0  0  0  0  0  0
  -31.1918  -17.6884   21.5066 C   0  0  0  0  0  0  0  0  0  0  0  0
  -24.4963  -30.1738   22.6845 C   0  0  0  0  0  0  0  0  0  0  0  0
  -31.0317  -19.0599   20.8518 C   0  0  0  0  0  0  0  0  0  0  0  0
  -29.9525  -16.8231   21.3003 C   0  0  0  0  0  0  0  0  0  0  0  0
  -28.5205  -18.8318   21.1102 C   0  0  0  0  0  0  0  0  0  0  0  0
  -24.1475  -28.8426   22.0081 C   0  0  1  0  0  0  0  0  0  0  0  0
  -20.3885  -28.3345   22.2199 C   0  0  1  0  0  0  0  0  0  0  0  0
  -29.7381  -19.7489   21.3212 C   0  0  2  0  0  0  0  0  0  0  0  0
  -13.8490  -28.4531   26.3700 C   0  0  0  0  0  0  0  0  0  0  0  0
  -23.4828  -13.7115   18.3497 C   0  0  0  0  0  0  0  0  0  0  0  0
  -23.9444  -12.4674   20.4886 C   0  0  0  0  0  0  0  0  0  0  0  0
  -25.8193  -13.3704   19.1283 C   0  0  0  0  0  0  0  0  0  0  0  0
  -25.8887  -16.8372   24.0744 C   0  0  0  0  0  0  0  0  0  0  0  0
  -27.1051  -18.9964   23.7477 C   0  0  0  0  0  0  0  0  0  0  0  0
  -20.4482  -28.8011   26.8176 C   0  0  0  0  0  0  0  0  0  0  0  0
  -18.2306  -28.5624   27.9548 C   0  0  0  0  0  0  0  0  0  0  0  0
  -18.7470  -30.6269   26.6534 C   0  0  0  0  0  0  0  0  0  0  0  0
  -14.2598  -27.1632   22.8143 C   0  0  0  0  0  0  0  0  0  0  0  0
  -25.7783  -17.9627   21.8063 C   0  0  0  0  0  0  0  0  0  0  0  0
  -22.3386  -18.9397   21.5044 C   0  0  0  0  0  0  0  0  0  0  0  0
  -21.3846  -19.8705   22.2547 C   0  0  0  0  0  0  0  0  0  0  0  0
  -22.7284  -17.6991   22.3160 C   0  0  0  0  0  0  0  0  0  0  0  0
  -20.9923  -21.0720   21.4054 C   0  0  0  0  0  0  0  0  0  1  0  0
  -18.3024  -28.4641   25.4218 C   0  0  1  0  0  0  0  0  0  0  0  0
  -14.5365  -28.2971   25.0225 C   0  0  2  0  0  0  0  0  0  0  0  0
  -24.3714  -13.7199   19.6439 C   0  0  0  0  0  0  0  0  0  0  0  0
  -26.6642  -17.6972   23.0631 C   0  0  0  0  0  0  0  0  0  0  0  0
  -18.9400  -29.0952   26.6917 C   0  0  0  0  0  0  0  0  0  0  0  0
  -28.8335  -21.1760   19.5245 N   0  0  0  0  0  0  0  0  0  0  0  0
  -23.5929  -16.7224   21.5591 N   0  0  0  0  0  0  0  0  0  0  0  0
  -29.5494  -21.1016   20.6594 N   0  0  0  0  0  0  0  0  0  0  0  0
  -25.3096  -15.7897   20.6437 N   0  3  0  0  0  0  0  0  0  0  0  0
  -19.5549  -27.9328   23.3547 N   0  0  0  0  0  0  0  0  0  0  0  0
  -28.7425  -17.5217   21.7376 N   0  0  0  0  0  0  0  0  0  0  0  0
  -30.7729  -22.4090   22.2100 N   0  0  0  0  0  0  0  0  0  0  0  0
  -28.9730  -25.4715   20.8780 N   0  0  0  0  0  0  0  0  0  0  0  0
  -22.7249  -28.7618   21.7548 N   0  0  0  0  0  0  0  0  0  0  0  0
  -16.8805  -28.7491   25.2625 N   0  0  0  0  0  0  0  0  0  0  0  0
  -13.7126  -27.3875   24.1771 N   0  3  0  0  0  0  0  0  0  0  0  0
  -30.8735  -25.1407   19.6381 O   0  0  0  0  0  0  0  0  0  0  0  0
  -22.0633  -27.9797   23.8460 O   0  0  0  0  0  0  0  0  0  0  0  0
  -18.9696  -30.1299   23.8706 O   0  0  0  0  0  0  0  0  0  0  0  0
  -28.0784  -15.7986   23.1482 O   0  0  0  0  0  0  0  0  0  0  0  0
  -16.1805  -26.5386   25.2285 O   0  0  0  0  0  0  0  0  0  0  0  0
  -26.2701  -24.3893   14.6613 O   0  0  0  0  0  0  0  0  0  0  0  0
  -20.1171  -21.9064   22.1631 O   0  0  0  0  0  0  0  0  0  1  0  0
  -22.6100  -21.0677   12.2171 F   0  0  0  0  0  0  0  0  0  0  0  0
  -23.6255  -25.1479   14.3910 F   0  0  0  0  0  0  0  0  0  0  0  0
  1  2  1  0  0  0  0
  1  5  2  0  0  0  0
  2  6  2  0  0  0  0
  3  8  2  0  0  0  0
  3 16  1  0  0  0  0
  4  9  1  0  0  0  0
  4 16  2  0  0  0  0
  5 18  1  0  0  0  0
  6 20  1  0  0  0  0
  7 10  2  0  0  0  0
  7 19  1  0  0  0  0
  8 22  1  0  0  0  0
  9 22  2  0  0  0  0
 10 23  1  0  0  0  0
 11 12  2  0  0  0  0
 11 24  1  0  0  0  0
 12 25  1  0  0  0  0
 13 21  1  0  0  0  0
 13 23  2  0  0  0  0
 14 25  2  0  0  0  0
 14 26  1  0  0  0  0
 15 28  2  0  0  0  0
 15 69  1  0  0  0  0
 16 27  1  0  0  0  0
 17 27  1  0  0  0  0
 17 29  2  0  0  0  0
 17 31  1  0  0  0  0
 18 20  2  0  0  0  0
 18 36  1  0  0  0  0
 19 21  2  0  0  0  0
 19 37  1  0  0  0  0
 20 45  1  0  0  0  0
 21 38  1  0  0  0  0
 22 84  1  0  0  0  0
 23 85  1  0  0  0  0
 24 26  2  0  0  0  0
 24 84  1  0  0  0  0
 25 86  1  0  0  0  0
 26 87  1  0  0  0  0
 27 68  2  0  0  0  0
 28 65  1  0  0  0  0
 28 71  1  0  0  0  0
 29 70  1  0  0  0  0
 29 74  1  0  0  0  0
 30 58  1  0  0  0  0
 30 69  1  0  0  0  0
 30 71  2  0  0  0  0
 31 75  1  0  0  0  0
 31 79  2  0  0  0  0
 32 46  1  0  0  0  0
 32 76  1  0  0  0  0
 32 80  2  0  0  0  0
 33 63  1  0  0  0  0
 33 72  1  0  0  0  0
 33 81  2  0  0  0  0
 34 66  1  0  0  0  0
 34 73  1  0  0  0  0
 34 82  2  0  0  0  0
 35 64  1  0  0  0  0
 35 77  1  0  0  0  0
 35 83  2  0  0  0  0
 36 39  1  0  0  0  0
 37 46  1  0  0  0  0
 38 72  1  0  0  0  0
 39 41  1  0  0  0  0
 40 42  1  0  0  0  0
 40 43  1  0  0  0  0
 41 45  1  0  0  0  0
 42 47  1  0  0  0  0
 43 73  1  0  0  0  0
 44 47  1  0  0  0  0
 44 73  1  0  0  0  0
 45 76  1  0  0  0  0
 46 72  1  0  0  0  0
 47 70  1  0  0  0  0
 48 64  1  0  0  0  0
 49 65  1  0  0  0  0
 50 65  1  0  0  0  0
 51 65  1  0  0  0  0
 52 66  1  0  0  0  0
 53 66  1  0  0  0  0
 54 67  1  0  0  0  0
 55 67  1  0  0  0  0
 56 67  1  0  0  0  0
 57 78  1  0  0  0  0
 58 66  1  0  0  0  0
 59 60  1  0  0  0  0
 59 61  1  0  0  0  0
 60 62  1  0  0  0  0
 61 69  1  0  0  0  0
 62 85  1  0  0  0  0
 63 67  1  0  0  0  0
 63 77  1  0  0  0  0
 64 78  1  0  0  0  0
 68 70  1  0  0  0  0
M  CHG  2  71   1  78   1
M  ISO  4  34 100  62 101  66 100  85 101
M  END
> <Batch ID>
0070

> <Smiles>
CNC(C)C(=O)NC(C(=O)N1Cc2cc([101O:1][101CH2:1]CCCn3cc(C(C)(C)C)nc3C[100C:0](C)(C)[100C:0](=O)N3CCCC(n4nc(-c5ccc(Oc6ccc(F)cc6F)cc5)c(C(N)=O)c4N)C3)ccc2CC1C(=O)NC1CCCc2ccccc21)C(C)(C)C

> <Shape>
0.204

> <Color>
0.075

> <Negative vol penalty>
0.000

$$$$

  -OEChem-04052318193D

 85 93  0     1  0  0  0  0  0999 V2000
  -17.7577  -24.4121   25.1970 C   0  0  0  0  0  0  0  0  0  0  0  0
  -18.8475  -23.5769   24.9732 C   0  0  0  0  0  0  0  0  0  0  0  0
  -26.1841  -12.9389   21.3375 C   0  0  0  0  0  0  0  0  0  0  0  0
  -25.5610  -13.7410   19.1454 C   0  0  0  0  0  0  0  0  0  0  0  0
  -17.5744  -25.5445   24.4045 C   0  0  0  0  0  0  0  0  0  0  0  0
  -19.7542  -23.8730   23.9560 C   0  0  0  0  0  0  0  0  0  0  0  0
  -26.7092  -23.3052   22.3367 C   0  0  0  0  0  0  0  0  0  0  0  0
  -25.6645  -11.6826   21.0256 C   0  0  0  0  0  0  0  0  0  0  0  0
  -25.0414  -12.4846   18.8334 C   0  0  0  0  0  0  0  0  0  0  0  0
  -27.5446  -22.8300   21.3268 C   0  0  0  0  0  0  0  0  0  0  0  0
  -22.6237  -10.2160   20.8612 C   0  0  0  0  0  0  0  0  0  0  0  0
  -21.8282   -9.5883   21.8197 C   0  0  0  0  0  0  0  0  0  0  0  0
  -27.1705  -24.8563   20.0723 C   0  0  0  0  0  0  0  0  0  0  0  0
  -23.3799   -7.7380   21.8956 C   0  0  0  0  0  0  0  0  0  0  0  0
  -25.4826  -22.1910   17.4111 C   0  0  0  0  0  0  0  0  0  0  0  0
  -25.9222  -20.2461   16.4726 C   0  0  0  0  0  0  0  0  0  0  0  0
  -26.1323  -13.9681   20.3974 C   0  0  0  0  0  0  0  0  0  0  0  0
  -27.9851  -15.7180   20.5100 C   0  0  0  0  0  0  0  0  0  0  0  0
  -18.4846  -25.8599   23.3833 C   0  0  0  0  0  0  0  0  0  0  0  0
  -26.0885  -24.5569   22.2169 C   0  0  0  0  0  0  0  0  0  0  0  0
  -19.5822  -25.0100   23.1482 C   0  0  0  0  0  0  0  0  0  0  0  0
  -26.3297  -25.3462   21.0833 C   0  0  0  0  0  0  0  0  0  0  0  0
  -25.0932  -11.4554   19.7735 C   0  0  0  0  0  0  0  0  0  0  0  0
  -27.7731  -23.6043   20.1930 C   0  0  0  0  0  0  0  0  0  0  0  0
  -23.7972   -9.6047   20.4198 C   0  0  0  0  0  0  0  0  0  0  0  0
  -22.2063   -8.3493   22.3369 C   0  0  0  0  0  0  0  0  0  0  0  0
  -24.1753   -8.3657   20.9370 C   0  0  0  0  0  0  0  0  0  0  0  0
  -26.6683  -15.2663   20.7193 C   0  0  0  0  0  0  0  0  0  0  0  0
  -24.3762  -21.3746   17.4037 C   0  0  0  0  0  0  0  0  0  0  0  0
  -27.9845  -17.0081   20.9813 C   0  0  0  0  0  0  0  0  0  0  0  0
  -29.1084  -15.0327   19.9405 C   0  0  0  0  0  0  0  0  0  0  0  0
  -23.0763  -25.5633   22.0817 C   0  0  0  0  0  0  0  0  0  0  0  0
  -24.4607  -28.4949   22.1882 C   0  0  0  0  0  0  0  0  0  0  0  0
  -27.2232  -30.4167   21.6206 C   0  0  0  0  0  0  0  0  0  0  0  0
  -23.6644  -21.0969   21.6662 C   0  0  0  0  0  0  0  0  0  0  0  0
  -18.2187  -27.0690   22.5219 C   0  0  0  0  0  0  0  0  0  0  0  0
  -25.2113  -25.0667   23.3274 C   0  0  0  0  0  0  0  0  0  0  0  0
  -25.7034  -26.7056   20.9156 C   0  0  0  0  0  0  0  0  0  0  0  0
  -19.4308  -27.5158   21.7085 C   0  0  0  0  0  0  0  0  0  0  0  0
  -25.8240  -19.8204   24.1928 C   0  0  0  0  0  0  0  0  0  0  0  0
  -20.0911  -26.3182   21.0328 C   0  0  0  0  0  0  0  0  0  0  0  0
  -26.4041  -18.5493   23.5702 C   0  0  0  0  0  0  0  0  0  0  0  0
  -24.3663  -20.0317   23.7897 C   0  0  0  0  0  0  0  0  0  0  0  0
  -24.6974  -18.7459   21.7135 C   0  0  0  0  0  0  0  0  0  0  0  0
  -20.6011  -25.3111   22.0706 C   0  0  1  0  0  0  0  0  0  0  0  0
  -24.2235  -26.1341   22.8664 C   0  0  1  0  0  0  0  0  0  0  0  0
  -26.1822  -18.5197   22.0460 C   0  0  2  0  0  0  0  0  0  0  0  0
  -28.0394  -32.7851   21.7683 C   0  0  0  0  0  0  0  0  0  0  0  0
  -21.9652  -20.5076   17.7669 C   0  0  0  0  0  0  0  0  0  0  0  0
  -22.3825  -22.8825   17.1827 C   0  0  0  0  0  0  0  0  0  0  0  0
  -22.8865  -29.1919   19.6692 C   0  0  0  0  0  0  0  0  0  0  0  0
  -24.4190  -31.1433   19.3354 C   0  0  0  0  0  0  0  0  0  0  0  0
  -22.9878  -31.0182   21.3747 C   0  0  0  0  0  0  0  0  0  0  0  0
  -29.0171  -19.8338   17.4124 C   0  0  0  0  0  0  0  0  0  0  0  0
  -30.3652  -21.9232   17.2071 C   0  0  0  0  0  0  0  0  0  0  0  0
  -29.3392  -29.6893   23.5578 C   0  0  0  0  0  0  0  0  0  0  0  0
  -27.8886  -21.8956   16.5620 C   0  0  0  0  0  0  0  0  0  0  0  0
  -23.0243  -22.0356   19.4598 C   0  0  0  0  0  0  0  0  0  0  0  0
  -28.6494  -21.7287   19.0225 C   0  0  0  0  0  0  0  0  0  1  0  0
  -24.9763  -29.4717   21.1592 C   0  0  1  0  0  0  0  0  0  0  0  0
  -27.9276  -31.4479   22.4838 C   0  0  2  0  0  0  0  0  0  0  0  0
  -23.0312  -21.6597   17.9260 C   0  0  0  0  0  0  0  0  0  0  0  0
  -23.8278  -30.1799   20.3866 C   0  0  0  0  0  0  0  0  0  0  0  0
  -28.9700  -21.3722   17.5541 C   0  0  0  0  0  0  0  0  0  0  0  0
  -24.6565  -20.1653   16.8184 N   0  0  0  0  0  0  0  0  0  0  0  0
  -25.8879  -16.1940   21.2800 N   0  0  0  0  0  0  0  0  0  0  0  0
  -26.4650  -21.4542   16.8117 N   0  0  0  0  0  0  0  0  0  0  0  0
  -26.7169  -17.2415   21.4271 N   0  0  0  0  0  0  0  0  0  0  0  0
  -24.8486  -27.1573   22.0259 N   0  0  0  0  0  0  0  0  0  0  0  0
  -24.2245  -19.9943   22.3322 N   0  0  0  0  0  0  0  0  0  0  0  0
  -28.9447  -17.9542   21.0537 N   0  0  0  0  0  0  0  0  0  0  0  0
  -28.9352  -13.7111   19.5070 N   0  0  0  0  0  0  0  0  0  0  0  0
  -21.8390  -25.7750   22.6593 N   0  0  0  0  0  0  0  0  0  0  0  0
  -25.8676  -30.3816   21.8706 N   0  0  0  0  0  0  0  0  0  0  0  0
  -23.5723  -20.9819   20.2845 N   0  0  0  0  0  0  0  0  0  0  0  0
  -29.3008  -30.9833   22.8291 N   0  3  0  0  0  0  0  0  0  0  0  0
  -30.2366  -15.5706   19.8346 O   0  0  0  0  0  0  0  0  0  0  0  0
  -23.2973  -24.9755   21.0294 O   0  0  0  0  0  0  0  0  0  0  0  0
  -23.7462  -28.9047   23.1065 O   0  0  0  0  0  0  0  0  0  0  0  0
  -27.8156  -29.7154   20.8035 O   0  0  0  0  0  0  0  0  0  0  0  0
  -23.2801  -22.1110   22.2585 O   0  0  0  0  0  0  0  0  0  0  0  0
  -24.5863  -10.2296   19.4687 O   0  0  0  0  0  0  0  0  0  0  0  0
  -28.5876  -23.1426   19.2054 O   0  0  0  0  0  0  0  0  0  1  0  0
  -21.4431   -7.7473   23.2585 F   0  0  0  0  0  0  0  0  0  0  0  0
  -25.3023   -7.7741   20.5178 F   0  0  0  0  0  0  0  0  0  0  0  0
  1  2  1  0  0  0  0
  1  5  2  0  0  0  0
  2  6  2  0  0  0  0
  3  8  2  0  0  0  0
  3 17  1  0  0  0  0
  4  9  1  0  0  0  0
  4 17  2  0  0  0  0
  5 19  1  0  0  0  0
  6 21  1  0  0  0  0
  7 10  2  0  0  0  0
  7 20  1  0  0  0  0
  8 23  1  0  0  0  0
  9 23  2  0  0  0  0
 10 24  1  0  0  0  0
 11 12  2  0  0  0  0
 11 25  1  0  0  0  0
 12 26  1  0  0  0  0
 13 22  1  0  0  0  0
 13 24  2  0  0  0  0
 14 26  2  0  0  0  0
 14 27  1  0  0  0  0
 15 29  2  0  0  0  0
 15 67  1  0  0  0  0
 16 65  2  0  0  0  0
 16 67  1  0  0  0  0
 17 28  1  0  0  0  0
 18 28  1  0  0  0  0
 18 30  2  0  0  0  0
 18 31  1  0  0  0  0
 19 21  2  0  0  0  0
 19 36  1  0  0  0  0
 20 22  2  0  0  0  0
 20 37  1  0  0  0  0
 21 45  1  0  0  0  0
 22 38  1  0  0  0  0
 23 82  1  0  0  0  0
 24 83  1  0  0  0  0
 25 27  2  0  0  0  0
 25 82  1  0  0  0  0
 26 84  1  0  0  0  0
 27 85  1  0  0  0  0
 28 66  2  0  0  0  0
 29 62  1  0  0  0  0
 29 65  1  0  0  0  0
 30 68  1  0  0  0  0
 30 71  1  0  0  0  0
 31 72  1  0  0  0  0
 31 77  2  0  0  0  0
 32 46  1  0  0  0  0
 32 73  1  0  0  0  0
 32 78  2  0  0  0  0
 33 60  1  0  0  0  0
 33 69  1  0  0  0  0
 33 79  2  0  0  0  0
 34 61  1  0  0  0  0
 34 74  1  0  0  0  0
 34 80  2  0  0  0  0
 35 70  1  0  0  0  0
 35 75  1  0  0  0  0
 35 81  2  0  0  0  0
 36 39  1  0  0  0  0
 37 46  1  0  0  0  0
 38 69  1  0  0  0  0
 39 41  1  0  0  0  0
 40 42  1  0  0  0  0
 40 43  1  0  0  0  0
 41 45  1  0  0  0  0
 42 47  1  0  0  0  0
 43 70  1  0  0  0  0
 44 47  1  0  0  0  0
 44 70  1  0  0  0  0
 45 73  1  0  0  0  0
 46 69  1  0  0  0  0
 47 68  1  0  0  0  0
 48 61  1  0  0  0  0
 49 62  1  0  0  0  0
 50 62  1  0  0  0  0
 51 63  1  0  0  0  0
 52 63  1  0  0  0  0
 53 63  1  0  0  0  0
 54 64  1  0  0  0  0
 55 64  1  0  0  0  0
 56 76  1  0  0  0  0
 57 64  1  0  0  0  0
 57 67  1  0  0  0  0
 58 62  1  0  0  0  0
 58 75  1  0  0  0  0
 59 64  1  0  0  0  0
 59 83  1  0  0  0  0
 60 63  1  0  0  0  0
 60 74  1  0  0  0  0
 61 76  1  0  0  0  0
 66 68  1  0  0  0  0
M  CHG  1  76   1
M  ISO  4  35 100  59 101  75 100  83 101
M  END
> <Batch ID>
0070

> <Smiles>
CNC(C)C(=O)NC(C(=O)N1Cc2cc([101O:1][101CH2:1]C(C)(C)Cn3cnc(C(C)(C)C[100NH:0][100C:0](=O)N4CCCC(n5nc(-c6ccc(Oc7ccc(F)cc7F)cc6)c(C(N)=O)c5N)C4)c3)ccc2CC1C(=O)NC1CCCc2ccccc21)C(C)(C)C

> <Shape>
0.195

> <Color>
0.063

> <Negative vol penalty>
0.000

$$$$

  -OEChem-04052318193D

 88 96  0     1  0  0  0  0  0999 V2000
  -27.0854  -34.6917   20.2057 C   0  0  0  0  0  0  0  0  0  0  0  0
  -27.9193  -33.5958   20.4030 C   0  0  0  0  0  0  0  0  0  0  0  0
  -23.3011   -9.8012   19.9146 C   0  0  0  0  0  0  0  0  0  0  0  0
  -23.7417   -9.9522   22.2853 C   0  0  0  0  0  0  0  0  0  0  0  0
  -25.7352  -34.6085   20.5430 C   0  0  0  0  0  0  0  0  0  0  0  0
  -27.4036  -32.4162   20.9388 C   0  0  0  0  0  0  0  0  0  0  0  0
  -29.1067  -26.6960   19.5663 C   0  0  0  0  0  0  0  0  0  0  0  0
  -22.5795   -8.6259   20.1236 C   0  0  0  0  0  0  0  0  0  0  0  0
  -23.0201   -8.7769   22.4943 C   0  0  0  0  0  0  0  0  0  0  0  0
  -29.9640  -25.7956   20.1972 C   0  0  0  0  0  0  0  0  0  0  0  0
  -19.4978   -7.7545   21.2085 C   0  0  0  0  0  0  0  0  0  0  0  0
  -18.2720   -7.6217   20.5563 C   0  0  0  0  0  0  0  0  0  0  0  0
  -28.0742  -24.7754   21.2959 C   0  0  0  0  0  0  0  0  0  0  0  0
  -19.0876   -5.6489   19.4250 C   0  0  0  0  0  0  0  0  0  0  0  0
  -23.8822  -10.4643   20.9955 C   0  0  0  0  0  0  0  0  0  0  0  0
  -24.1302  -12.9948   20.7890 C   0  0  0  0  0  0  0  0  0  0  0  0
  -25.2006  -33.4242   21.0742 C   0  0  0  0  0  0  0  0  0  0  0  0
  -27.7255  -26.6497   19.8042 C   0  0  0  0  0  0  0  0  0  0  0  0
  -26.0452  -32.3175   21.2848 C   0  0  0  0  0  0  0  0  0  0  0  0
  -27.2013  -25.6747   20.6647 C   0  0  0  0  0  0  0  0  0  0  0  0
  -31.0191  -17.7908   22.5516 C   0  0  0  0  0  0  0  0  0  0  0  0
  -22.4390   -8.1138   21.4134 C   0  0  0  0  0  0  0  0  0  0  0  0
  -29.4482  -24.8370   21.0644 C   0  0  0  0  0  0  0  0  0  0  0  0
  -20.5186   -6.8344   20.9689 C   0  0  0  0  0  0  0  0  0  0  0  0
  -18.0669   -6.5689   19.6645 C   0  0  0  0  0  0  0  0  0  0  0  0
  -20.3134   -5.7816   20.0772 C   0  0  0  0  0  0  0  0  0  0  0  0
  -24.6282  -11.6781   20.7802 C   0  0  0  0  0  0  0  0  0  0  0  0
  -30.4151  -17.0493   21.5568 C   0  0  0  0  0  0  0  0  0  0  0  0
  -31.1506  -17.1586   23.7712 C   0  0  0  0  0  0  0  0  0  0  0  0
  -25.2290  -13.7791   20.5357 C   0  0  0  0  0  0  0  0  0  0  0  0
  -30.1563  -15.2815   22.9621 C   0  0  0  0  0  0  0  0  0  0  0  0
  -22.7940  -13.4668   21.0068 C   0  0  0  0  0  0  0  0  0  0  0  0
  -25.5934  -28.6586   21.0381 C   0  0  0  0  0  0  0  0  0  0  0  0
  -23.4837  -26.3780   20.1052 C   0  0  0  0  0  0  0  0  0  0  0  0
  -31.1049  -12.8479   21.3829 C   0  0  0  0  0  0  0  0  0  0  0  0
  -22.9104  -23.1041   19.3309 C   0  0  0  0  0  0  0  0  0  0  0  0
  -23.7449  -33.3973   21.4677 C   0  0  0  0  0  0  0  0  0  0  0  0
  -26.8113  -27.6109   19.0951 C   0  0  0  0  0  0  0  0  0  0  0  0
  -25.7238  -25.5700   20.9382 C   0  0  0  0  0  0  0  0  0  0  0  0
  -23.1975  -31.9884   21.6812 C   0  0  0  0  0  0  0  0  0  0  0  0
  -29.4593  -13.7077   18.3181 C   0  0  0  0  0  0  0  0  0  0  0  0
  -24.1585  -31.1658   22.5337 C   0  0  0  0  0  0  0  0  0  0  0  0
  -27.9928  -13.3775   18.5933 C   0  0  0  0  0  0  0  0  0  0  0  0
  -30.3935  -12.7255   19.0179 C   0  0  0  0  0  0  0  0  0  0  0  0
  -28.7012  -12.2859   20.7685 C   0  0  0  0  0  0  0  0  0  0  0  0
  -25.5178  -31.0125   21.8406 C   0  0  1  0  0  0  0  0  0  0  0  0
  -25.4766  -27.8028   19.8086 C   0  0  1  0  0  0  0  0  0  0  0  0
  -27.7241  -13.2724   20.1049 C   0  0  2  0  0  0  0  0  0  0  0  0
  -30.2188  -17.6294   20.1947 C   0  0  0  0  0  0  0  0  0  0  0  0
  -32.1258  -16.9112   26.0677 C   0  0  0  0  0  0  0  0  0  0  0  0
  -29.0727  -13.7029   24.6077 C   0  0  0  0  0  0  0  0  0  0  0  0
  -21.0776  -21.5344   18.6423 C   0  0  0  0  0  0  0  0  0  0  0  0
  -30.1825  -11.3243   23.0737 C   0  0  0  0  0  0  0  0  0  0  0  0
  -32.0287  -12.9245   23.6206 C   0  0  0  0  0  0  0  0  0  0  0  0
  -22.4188  -26.3707   22.9645 C   0  0  0  0  0  0  0  0  0  0  0  0
  -21.2975  -24.1882   22.4673 C   0  0  0  0  0  0  0  0  0  0  0  0
  -20.6569  -26.2358   21.1948 C   0  0  0  0  0  0  0  0  0  0  0  0
  -24.2727  -22.4445   16.7877 C   0  0  0  0  0  0  0  0  0  0  0  0
  -31.5052  -19.1994   22.3201 C   0  0  0  0  0  0  0  0  0  0  0  0
  -31.7878  -17.8625   24.9237 C   0  0  0  0  0  0  0  0  0  0  0  0
  -30.3841  -20.2440   22.2893 C   0  0  0  0  0  0  0  0  0  0  0  0
  -30.8879  -21.6539   21.9770 C   0  0  0  0  0  0  0  0  0  0  0  0
  -29.7535  -22.6695   21.9942 C   0  0  0  0  0  0  0  0  0  1  0  0
  -29.6797  -13.8869   23.1893 C   0  0  2  0  0  0  0  0  0  0  0  0
  -22.8919  -25.1441   20.7425 C   0  0  1  0  0  0  0  0  0  0  0  0
  -22.1879  -22.4567   18.1633 C   0  0  2  0  0  0  0  0  0  0  0  0
  -30.7164  -12.7444   22.8363 C   0  0  0  0  0  0  0  0  0  0  0  0
  -21.8444  -25.4877   21.8389 C   0  0  0  0  0  0  0  0  0  0  0  0
  -25.9410  -11.6249   20.5401 N   0  0  0  0  0  0  0  0  0  0  0  0
  -29.9701  -15.7871   21.7280 N   0  0  0  0  0  0  0  0  0  0  0  0
  -30.7287  -15.9000   24.0125 N   0  0  0  0  0  0  0  0  0  0  0  0
  -26.2773  -12.9180   20.3956 N   0  0  0  0  0  0  0  0  0  0  0  0
  -24.8715  -26.5363   20.2259 N   0  0  0  0  0  0  0  0  0  0  0  0
  -30.0915  -12.6375   20.4477 N   0  0  0  0  0  0  0  0  0  0  0  0
  -25.3909  -15.1144   20.4213 N   0  0  0  0  0  0  0  0  0  0  0  0
  -21.7850  -12.5259   21.2536 N   0  0  0  0  0  0  0  0  0  0  0  0
  -25.4436  -30.0112   20.7984 N   0  0  0  0  0  0  0  0  0  0  0  0
  -22.3686  -24.3313   19.6498 N   0  0  0  0  0  0  0  0  0  0  0  0
  -23.1415  -21.6576   17.3429 N   0  3  0  0  0  0  0  0  0  0  0  0
  -22.5004  -14.6857   20.9671 O   0  0  0  0  0  0  0  0  0  0  0  0
  -25.8025  -28.1307   22.1241 O   0  0  0  0  0  0  0  0  0  0  0  0
  -22.7427  -27.1687   19.5156 O   0  0  0  0  0  0  0  0  0  0  0  0
  -32.2741  -13.1111   21.0896 O   0  0  0  0  0  0  0  0  0  0  0  0
  -23.8581  -22.5725   19.9053 O   0  0  0  0  0  0  0  0  0  0  0  0
  -21.7347   -6.9671   21.6177 O   0  0  0  0  0  0  0  0  0  0  0  0
  -30.2828  -23.9574   21.6821 O   0  0  0  0  0  0  0  0  0  1  0  0
  -16.8892   -6.4407   19.0395 F   0  0  0  0  0  0  0  0  0  0  0  0
  -21.2899   -4.8940   19.8438 F   0  0  0  0  0  0  0  0  0  0  0  0
  1  2  1  0  0  0  0
  1  5  2  0  0  0  0
  2  6  2  0  0  0  0
  3  8  2  0  0  0  0
  3 15  1  0  0  0  0
  4  9  1  0  0  0  0
  4 15  2  0  0  0  0
  5 17  1  0  0  0  0
  6 19  1  0  0  0  0
  7 10  2  0  0  0  0
  7 18  1  0  0  0  0
  8 22  1  0  0  0  0
  9 22  2  0  0  0  0
 10 23  1  0  0  0  0
 11 12  2  0  0  0  0
 11 24  1  0  0  0  0
 12 25  1  0  0  0  0
 13 20  1  0  0  0  0
 13 23  2  0  0  0  0
 14 25  2  0  0  0  0
 14 26  1  0  0  0  0
 15 27  1  0  0  0  0
 16 27  1  0  0  0  0
 16 30  2  0  0  0  0
 16 32  1  0  0  0  0
 17 19  2  0  0  0  0
 17 37  1  0  0  0  0
 18 20  2  0  0  0  0
 18 38  1  0  0  0  0
 19 46  1  0  0  0  0
 20 39  1  0  0  0  0
 21 28  1  0  0  0  0
 21 29  2  0  0  0  0
 21 59  1  0  0  0  0
 22 85  1  0  0  0  0
 23 86  1  0  0  0  0
 24 26  2  0  0  0  0
 24 85  1  0  0  0  0
 25 87  1  0  0  0  0
 26 88  1  0  0  0  0
 27 69  2  0  0  0  0
 28 49  1  0  0  0  0
 28 70  2  0  0  0  0
 29 60  1  0  0  0  0
 29 71  1  0  0  0  0
 30 72  1  0  0  0  0
 30 75  1  0  0  0  0
 31 64  1  0  0  0  0
 31 70  1  0  0  0  0
 31 71  2  0  0  0  0
 32 76  1  0  0  0  0
 32 80  2  0  0  0  0
 33 47  1  0  0  0  0
 33 77  1  0  0  0  0
 33 81  2  0  0  0  0
 34 65  1  0  0  0  0
 34 73  1  0  0  0  0
 34 82  2  0  0  0  0
 35 67  1  0  0  0  0
 35 74  1  0  0  0  0
 35 83  2  0  0  0  0
 36 66  1  0  0  0  0
 36 78  1  0  0  0  0
 36 84  2  0  0  0  0
 37 40  1  0  0  0  0
 38 47  1  0  0  0  0
 39 73  1  0  0  0  0
 40 42  1  0  0  0  0
 41 43  1  0  0  0  0
 41 44  1  0  0  0  0
 42 46  1  0  0  0  0
 43 48  1  0  0  0  0
 44 74  1  0  0  0  0
 45 48  1  0  0  0  0
 45 74  1  0  0  0  0
 46 77  1  0  0  0  0
 47 73  1  0  0  0  0
 48 72  1  0  0  0  0
 50 60  1  0  0  0  0
 51 64  1  0  0  0  0
 52 66  1  0  0  0  0
 53 67  1  0  0  0  0
 54 67  1  0  0  0  0
 55 68  1  0  0  0  0
 56 68  1  0  0  0  0
 57 68  1  0  0  0  0
 58 79  1  0  0  0  0
 59 61  1  0  0  0  0
 61 62  1  0  0  0  0
 62 63  1  0  0  0  0
 63 86  1  0  0  0  0
 64 67  1  0  0  0  0
 65 68  1  0  0  0  0
 65 78  1  0  0  0  0
 66 79  1  0  0  0  0
 69 72  1  0  0  0  0
M  CHG  1  79   1
M  ISO  4  35 100  63 101  67 100  86 101
M  END
> <Batch ID>
0070

> <Smiles>
CCc1nc(C(C)[100C:0](C)(C)[100C:0](=O)N2CCCC(n3nc(-c4ccc(Oc5ccc(F)cc5F)cc4)c(C(N)=O)c3N)C2)nc(C)c1CCC[101CH2:1][101O:1]c1ccc2c(c1)CN(C(=O)C(NC(=O)C(C)NC)C(C)(C)C)C(C(=O)NC1CCCc3ccccc31)C2

> <Shape>
0.257

> <Color>
0.168

> <Negative vol penalty>
0.000

$$$$

  -OEChem-04052318193D

 88 96  0     1  0  0  0  0  0999 V2000
  -26.8279  -23.6695   17.0441 C   0  0  0  0  0  0  0  0  0  0  0  0
  -25.7216  -24.0444   17.7996 C   0  0  0  0  0  0  0  0  0  0  0  0
  -23.7369  -12.2420   20.2057 C   0  0  0  0  0  0  0  0  0  0  0  0
  -24.8366  -13.9446   21.5205 C   0  0  0  0  0  0  0  0  0  0  0  0
  -28.1053  -24.0686   17.4352 C   0  0  0  0  0  0  0  0  0  0  0  0
  -25.8921  -24.8177   18.9474 C   0  0  0  0  0  0  0  0  0  0  0  0
  -22.5437  -28.6044   19.2539 C   0  0  0  0  0  0  0  0  0  0  0  0
  -24.9599  -11.5989   20.0154 C   0  0  0  0  0  0  0  0  0  0  0  0
  -26.0597  -13.3015   21.3303 C   0  0  0  0  0  0  0  0  0  0  0  0
  -21.2536  -28.2813   19.6719 C   0  0  0  0  0  0  0  0  0  0  0  0
  -28.3876  -13.0467   18.8917 C   0  0  0  0  0  0  0  0  0  0  0  0
  -29.4882  -13.8342   18.5539 C   0  0  0  0  0  0  0  0  0  0  0  0
  -21.7836  -29.0630   21.8917 C   0  0  0  0  0  0  0  0  0  0  0  0
  -30.6299  -13.0947   20.5506 C   0  0  0  0  0  0  0  0  0  0  0  0
  -23.6752  -13.4149   20.9582 C   0  0  0  0  0  0  0  0  0  0  0  0
  -21.4929  -13.8672   22.1993 C   0  0  0  0  0  0  0  0  0  0  0  0
  -28.2907  -24.8552   18.5830 C   0  0  0  0  0  0  0  0  0  0  0  0
  -23.4685  -29.1501   20.1558 C   0  0  0  0  0  0  0  0  0  0  0  0
  -27.1733  -25.2265   19.3550 C   0  0  0  0  0  0  0  0  0  0  0  0
  -23.0841  -29.3946   21.4819 C   0  0  0  0  0  0  0  0  0  0  0  0
  -26.1213  -12.1287   20.5777 C   0  0  0  0  0  0  0  0  0  0  0  0
  -20.8742  -28.5079   20.9917 C   0  0  0  0  0  0  0  0  0  0  0  0
  -28.4081  -12.2832   20.0589 C   0  0  0  0  0  0  0  0  0  0  0  0
  -30.6094  -13.8582   19.3834 C   0  0  0  0  0  0  0  0  0  0  0  0
  -29.5293  -12.3072   20.8884 C   0  0  0  0  0  0  0  0  0  0  0  0
  -22.4122  -14.0799   21.1546 C   0  0  0  0  0  0  0  0  0  0  0  0
  -20.4642  -14.7377   21.9340 C   0  0  0  0  0  0  0  0  0  0  0  0
  -19.8311  -19.4836   23.0512 C   0  0  0  0  0  0  0  0  0  0  0  0
  -20.9252  -19.8519   21.2138 C   0  0  0  0  0  0  0  0  0  0  0  0
  -21.5626  -12.9635   23.3103 C   0  0  0  0  0  0  0  0  0  0  0  0
  -26.2862  -28.2352   21.3078 C   0  0  0  0  0  0  0  0  0  0  0  0
  -26.2527  -31.1835   22.6601 C   0  0  0  0  0  0  0  0  0  0  0  0
  -20.2593  -19.8816   18.8340 C   0  0  0  0  0  0  0  0  0  0  0  0
  -24.4219  -33.8408   23.7709 C   0  0  0  0  0  0  0  0  0  0  0  0
  -29.6950  -25.2226   18.9923 C   0  0  0  0  0  0  0  0  0  0  0  0
  -24.8480  -29.5180   19.6824 C   0  0  0  0  0  0  0  0  0  0  0  0
  -24.0329  -29.9973   22.4844 C   0  0  0  0  0  0  0  0  0  0  0  0
  -29.7552  -26.3555   20.0136 C   0  0  0  0  0  0  0  0  0  0  0  0
  -18.2604  -16.9524   18.3206 C   0  0  0  0  0  0  0  0  0  0  0  0
  -28.7491  -26.1171   21.1352 C   0  0  0  0  0  0  0  0  0  0  0  0
  -19.0298  -15.8586   19.0601 C   0  0  0  0  0  0  0  0  0  0  0  0
  -19.2054  -17.9648   17.6810 C   0  0  0  0  0  0  0  0  0  0  0  0
  -20.9412  -17.4924   19.3797 C   0  0  0  0  0  0  0  0  0  0  0  0
  -27.3152  -26.0857   20.5926 C   0  0  1  0  0  0  0  0  0  0  0  0
  -25.8683  -29.5914   20.8142 C   0  0  1  0  0  0  0  0  0  0  0  0
  -20.0234  -16.4656   20.0664 C   0  0  2  0  0  0  0  0  0  0  0  0
  -18.7539  -19.5180   24.0563 C   0  0  0  0  0  0  0  0  0  0  0  0
  -24.6718  -36.0872   24.8611 C   0  0  0  0  0  0  0  0  0  0  0  0
  -22.6545  -19.8789   19.3968 C   0  0  0  0  0  0  0  0  0  0  0  0
  -21.2330  -21.9117   19.6811 C   0  0  0  0  0  0  0  0  0  0  0  0
  -26.7668  -29.8222   25.3419 C   0  0  0  0  0  0  0  0  0  0  0  0
  -26.0675  -31.9431   26.4736 C   0  0  0  0  0  0  0  0  0  0  0  0
  -28.0627  -31.9297   24.9764 C   0  0  0  0  0  0  0  0  0  0  0  0
  -17.5883  -23.5587   19.9570 C   0  0  0  0  0  0  0  0  0  0  0  0
  -23.2032  -35.2279   21.4580 C   0  0  0  0  0  0  0  0  0  0  0  0
  -18.5292  -25.5463   22.1011 C   0  0  0  0  0  0  0  0  0  0  0  0
  -18.2961  -26.8323   22.9032 C   0  0  0  0  0  0  0  0  0  0  0  0
  -17.3615  -24.5705   22.2770 C   0  0  0  0  0  0  0  0  0  0  0  0
  -18.5822  -22.3442   21.9663 C   0  0  0  0  0  0  0  0  0  0  0  0
  -18.6001  -20.9460   21.3304 C   0  0  0  0  0  0  0  0  0  0  0  0
  -19.4544  -27.8135   22.7688 C   0  0  0  0  0  0  0  0  0  1  0  0
  -25.7524  -31.7559   23.9643 C   0  0  1  0  0  0  0  0  0  0  0  0
  -24.5736  -35.3340   23.5436 C   0  0  2  0  0  0  0  0  0  0  0  0
  -21.2480  -20.3585   19.8680 C   0  0  0  0  0  0  0  0  0  0  0  0
  -26.6448  -31.3496   25.1709 C   0  0  0  0  0  0  0  0  0  0  0  0
  -17.4508  -23.2639   21.4535 C   0  0  2  0  0  0  0  0  0  0  0  0
  -22.0035  -15.0123   20.2900 N   0  0  0  0  0  0  0  0  0  0  0  0
  -20.9855  -18.8636   23.1482 N   0  0  0  0  0  0  0  0  0  0  0  0
  -21.6816  -19.0979   21.9792 N   0  0  0  0  0  0  0  0  0  0  0  0
  -20.8160  -15.3932   20.7909 N   0  0  0  0  0  0  0  0  0  0  0  0
  -19.7507  -20.1189   21.8493 N   0  0  0  0  0  0  0  0  0  0  0  0
  -25.3725  -30.3341   21.9748 N   0  0  0  0  0  0  0  0  0  0  0  0
  -20.1477  -18.5015   18.6646 N   0  0  0  0  0  0  0  0  0  0  0  0
  -19.3020  -14.9987   22.5693 N   0  0  0  0  0  0  0  0  0  0  0  0
  -22.6902  -12.1401   23.4320 N   0  0  0  0  0  0  0  0  0  0  0  0
  -26.8433  -27.4290   20.3335 N   0  0  0  0  0  0  0  0  0  0  0  0
  -25.6408  -33.1964   23.7619 N   0  0  0  0  0  0  0  0  0  0  0  0
  -23.4051  -35.8638   22.7853 N   0  3  0  0  0  0  0  0  0  0  0  0
  -20.6444  -12.8768   24.1605 O   0  0  0  0  0  0  0  0  0  0  0  0
  -26.1172  -27.9424   22.4857 O   0  0  0  0  0  0  0  0  0  0  0  0
  -27.3801  -31.4849   22.2603 O   0  0  0  0  0  0  0  0  0  0  0  0
  -19.6046  -20.7124   18.1990 O   0  0  0  0  0  0  0  0  0  0  0  0
  -23.3314  -33.3006   23.9433 O   0  0  0  0  0  0  0  0  0  0  0  0
  -16.1976  -22.5860   21.6220 O   0  0  0  0  0  0  0  0  0  0  0  0
  -27.3149  -11.5013   20.3924 O   0  0  0  0  0  0  0  0  0  0  0  0
  -19.6157  -28.1928   21.4026 O   0  0  0  0  0  0  0  0  0  1  0  0
  -31.6668  -14.6133   19.0582 F   0  0  0  0  0  0  0  0  0  0  0  0
  -29.5553  -11.5750   22.0104 F   0  0  0  0  0  0  0  0  0  0  0  0
  1  2  1  0  0  0  0
  1  5  2  0  0  0  0
  2  6  2  0  0  0  0
  3  8  2  0  0  0  0
  3 15  1  0  0  0  0
  4  9  1  0  0  0  0
  4 15  2  0  0  0  0
  5 17  1  0  0  0  0
  6 19  1  0  0  0  0
  7 10  2  0  0  0  0
  7 18  1  0  0  0  0
  8 21  1  0  0  0  0
  9 21  2  0  0  0  0
 10 22  1  0  0  0  0
 11 12  2  0  0  0  0
 11 23  1  0  0  0  0
 12 24  1  0  0  0  0
 13 20  1  0  0  0  0
 13 22  2  0  0  0  0
 14 24  2  0  0  0  0
 14 25  1  0  0  0  0
 15 26  1  0  0  0  0
 16 26  1  0  0  0  0
 16 27  2  0  0  0  0
 16 30  1  0  0  0  0
 17 19  2  0  0  0  0
 17 35  1  0  0  0  0
 18 20  2  0  0  0  0
 18 36  1  0  0  0  0
 19 44  1  0  0  0  0
 20 37  1  0  0  0  0
 21 85  1  0  0  0  0
 22 86  1  0  0  0  0
 23 25  2  0  0  0  0
 23 85  1  0  0  0  0
 24 87  1  0  0  0  0
 25 88  1  0  0  0  0
 26 67  2  0  0  0  0
 27 70  1  0  0  0  0
 27 74  1  0  0  0  0
 28 47  1  0  0  0  0
 28 68  2  0  0  0  0
 28 71  1  0  0  0  0
 29 64  1  0  0  0  0
 29 69  2  0  0  0  0
 29 71  1  0  0  0  0
 30 75  1  0  0  0  0
 30 79  2  0  0  0  0
 31 45  1  0  0  0  0
 31 76  1  0  0  0  0
 31 80  2  0  0  0  0
 32 62  1  0  0  0  0
 32 72  1  0  0  0  0
 32 81  2  0  0  0  0
 33 64  1  0  0  0  0
 33 73  1  0  0  0  0
 33 82  2  0  0  0  0
 34 63  1  0  0  0  0
 34 77  1  0  0  0  0
 34 83  2  0  0  0  0
 35 38  1  0  0  0  0
 36 45  1  0  0  0  0
 37 72  1  0  0  0  0
 38 40  1  0  0  0  0
 39 41  1  0  0  0  0
 39 42  1  0  0  0  0
 40 44  1  0  0  0  0
 41 46  1  0  0  0  0
 42 73  1  0  0  0  0
 43 46  1  0  0  0  0
 43 73  1  0  0  0  0
 44 76  1  0  0  0  0
 45 72  1  0  0  0  0
 46 70  1  0  0  0  0
 48 63  1  0  0  0  0
 49 64  1  0  0  0  0
 50 64  1  0  0  0  0
 51 65  1  0  0  0  0
 52 65  1  0  0  0  0
 53 65  1  0  0  0  0
 54 66  1  0  0  0  0
 55 78  1  0  0  0  0
 56 57  1  0  0  0  0
 56 58  1  0  0  0  0
 57 61  1  0  0  0  0
 58 66  1  0  0  0  0
 59 60  1  0  0  0  0
 59 66  1  0  0  0  0
 60 71  1  0  0  0  0
 61 86  1  0  0  0  0
 62 65  1  0  0  0  0
 62 77  1  0  0  0  0
 63 78  1  0  0  0  0
 66 84  1  0  0  0  0
 67 70  1  0  0  0  0
 68 69  1  0  0  0  0
M  CHG  1  78   1
M  ISO  4  33 100  61 101  64 100  86 101
M  END
> <Batch ID>
0070

> <Smiles>
CNC(C)C(=O)NC(C(=O)N1Cc2cc([101O:1][101CH2:1]CCCC(C)(O)CCn3c(C)nnc3[100C:0](C)(C)[100C:0](=O)N3CCCC(n4nc(-c5ccc(Oc6ccc(F)cc6F)cc5)c(C(N)=O)c4N)C3)ccc2CC1C(=O)NC1CCCc2ccccc21)C(C)(C)C

> <Shape>
0.275

> <Color>
0.089

> <Negative vol penalty>
0.000

$$$$

  -OEChem-04052318193D

 89 97  0     1  0  0  0  0  0999 V2000
  -16.6897  -26.3135   23.3061 C   0  0  0  0  0  0  0  0  0  0  0  0
  -17.8834  -25.9072   22.7184 C   0  0  0  0  0  0  0  0  0  0  0  0
  -22.2682  -14.3431   24.0885 C   0  0  0  0  0  0  0  0  0  0  0  0
  -21.7385  -15.4979   22.0335 C   0  0  0  0  0  0  0  0  0  0  0  0
  -16.6230  -27.5364   23.9724 C   0  0  0  0  0  0  0  0  0  0  0  0
  -19.0109  -26.7240   22.7958 C   0  0  0  0  0  0  0  0  0  0  0  0
  -23.2027  -24.1424   23.9825 C   0  0  0  0  0  0  0  0  0  0  0  0
  -21.0967  -14.8330   24.6658 C   0  0  0  0  0  0  0  0  0  0  0  0
  -20.5670  -15.9878   22.6108 C   0  0  0  0  0  0  0  0  0  0  0  0
  -23.8109  -23.4120   22.9625 C   0  0  0  0  0  0  0  0  0  0  0  0
  -19.6856  -18.4537   24.7493 C   0  0  0  0  0  0  0  0  0  0  0  0
  -19.3844  -19.8023   24.5594 C   0  0  0  0  0  0  0  0  0  0  0  0
  -25.4270  -25.1787   22.6692 C   0  0  0  0  0  0  0  0  0  0  0  0
  -17.3172  -19.1873   23.4707 C   0  0  0  0  0  0  0  0  0  0  0  0
  -26.3109  -20.4107   17.9513 C   0  0  0  0  0  0  0  0  0  0  0  0
  -22.5891  -14.6756   22.7724 C   0  0  0  0  0  0  0  0  0  0  0  0
  -23.9567  -12.9686   21.4597 C   0  0  0  0  0  0  0  0  0  0  0  0
  -17.7527  -28.3643   24.0663 C   0  0  0  0  0  0  0  0  0  0  0  0
  -23.6964  -25.4033   24.3468 C   0  0  0  0  0  0  0  0  0  0  0  0
  -18.9588  -27.9598   23.4629 C   0  0  0  0  0  0  0  0  0  0  0  0
  -24.8249  -25.9219   23.6959 C   0  0  0  0  0  0  0  0  0  0  0  0
  -20.2461  -15.6553   23.9269 C   0  0  0  0  0  0  0  0  0  0  0  0
  -24.9214  -23.9313   22.3037 C   0  0  0  0  0  0  0  0  0  0  0  0
  -18.8027  -17.4718   24.2998 C   0  0  0  0  0  0  0  0  0  0  0  0
  -18.2002  -20.1691   23.9202 C   0  0  0  0  0  0  0  0  0  0  0  0
  -17.6184  -17.8386   23.6606 C   0  0  0  0  0  0  0  0  0  0  0  0
  -23.7994  -14.1703   22.1757 C   0  0  0  0  0  0  0  0  0  0  0  0
  -27.4282  -20.4370   18.7372 C   0  0  0  0  0  0  0  0  0  0  0  0
  -25.2839  -12.9505   21.1065 C   0  0  0  0  0  0  0  0  0  0  0  0
  -25.7581  -21.3154   19.8946 C   0  0  0  0  0  0  0  0  0  0  0  0
  -22.9896  -11.9589   21.1420 C   0  0  0  0  0  0  0  0  0  0  0  0
  -22.5271  -28.3590   24.3351 C   0  0  0  0  0  0  0  0  0  0  0  0
  -25.3162  -29.0509   25.8399 C   0  0  0  0  0  0  0  0  0  0  0  0
  -28.5646  -28.2035   26.4541 C   0  0  0  0  0  0  0  0  0  0  0  0
  -29.3509  -17.2725   20.3118 C   0  0  0  0  0  0  0  0  0  0  0  0
  -17.6194  -29.6989   24.7561 C   0  0  0  0  0  0  0  0  0  0  0  0
  -23.0453  -26.1669   25.4673 C   0  0  0  0  0  0  0  0  0  0  0  0
  -25.4061  -27.2620   24.0630 C   0  0  0  0  0  0  0  0  0  0  0  0
  -18.9596  -30.3352   25.1158 C   0  0  0  0  0  0  0  0  0  0  0  0
  -29.5660  -14.5167   22.5560 C   0  0  0  0  0  0  0  0  0  0  0  0
  -19.9198  -30.2623   23.9328 C   0  0  0  0  0  0  0  0  0  0  0  0
  -28.1267  -14.0070   22.6484 C   0  0  0  0  0  0  0  0  0  0  0  0
  -29.6196  -16.0387   22.4430 C   0  0  0  0  0  0  0  0  0  0  0  0
  -27.3673  -16.0980   21.4443 C   0  0  0  0  0  0  0  0  0  0  0  0
  -20.2100  -28.8069   23.5468 C   0  0  1  0  0  0  0  0  0  0  0  0
  -23.3199  -27.6663   25.4071 C   0  0  1  0  0  0  0  0  0  0  0  0
  -27.2598  -14.5646   21.5035 C   0  0  2  0  0  0  0  0  0  0  0  0
  -30.6033  -28.9827   27.6925 C   0  0  0  0  0  0  0  0  0  0  0  0
  -29.0076  -23.1647   23.2907 C   0  0  0  0  0  0  0  0  0  0  0  0
  -30.7158  -23.9723   21.6429 C   0  0  0  0  0  0  0  0  0  0  0  0
  -30.6578  -21.5654   22.3101 C   0  0  0  0  0  0  0  0  0  0  0  0
  -25.7893  -31.1864   23.7126 C   0  0  0  0  0  0  0  0  0  0  0  0
  -28.1907  -31.2571   24.4171 C   0  0  0  0  0  0  0  0  0  0  0  0
  -26.3985  -31.8771   26.0377 C   0  0  0  0  0  0  0  0  0  0  0  0
  -28.6425  -25.7483   28.1047 C   0  0  0  0  0  0  0  0  0  0  0  0
  -24.9507  -21.9502   20.9884 C   0  0  0  0  0  0  0  0  0  1  0  0
  -28.8283  -22.4541   20.8482 C   0  0  0  0  0  0  0  0  0  0  0  0
  -27.9324  -21.2279   21.0687 C   0  0  0  0  0  0  0  0  0  0  0  0
  -28.9269  -18.4562   18.1722 C   0  0  0  0  0  0  0  0  0  0  0  0
  -28.7965  -19.9820   18.4618 C   0  0  1  0  0  0  0  0  0  0  0  0
  -26.7014  -29.4513   25.3929 C   0  0  1  0  0  0  0  0  0  0  0  0
  -29.3554  -28.1152   27.7469 C   0  0  2  0  0  0  0  0  0  0  0  0
  -29.7886  -22.8040   22.0163 C   0  0  0  0  0  0  0  0  0  0  0  0
  -26.7581  -30.9186   24.8816 C   0  0  0  0  0  0  0  0  0  0  0  0
  -29.4716  -20.7619   17.3092 C   0  0  0  0  0  0  0  0  0  0  0  0
  -24.9359  -14.8653   22.2728 N   0  0  0  0  0  0  0  0  0  0  0  0
  -27.0573  -21.0022   19.9335 N   0  0  0  0  0  0  0  0  0  0  0  0
  -25.8201  -14.0977   21.6131 N   0  0  0  0  0  0  0  0  0  0  0  0
  -25.2928  -20.9600   18.6927 N   0  3  0  0  0  0  0  0  0  0  0  0
  -24.7304  -27.9732   25.1608 N   0  0  0  0  0  0  0  0  0  0  0  0
  -28.7778  -16.5028   21.3376 N   0  0  0  0  0  0  0  0  0  0  0  0
  -26.0329  -12.0654   20.4152 N   0  0  0  0  0  0  0  0  0  0  0  0
  -21.6706  -12.1351   21.5819 N   0  0  0  0  0  0  0  0  0  0  0  0
  -21.1588  -28.2192   24.4681 N   0  0  0  0  0  0  0  0  0  0  0  0
  -27.5889  -29.1758   26.5176 N   0  0  0  0  0  0  0  0  0  0  0  0
  -28.4844  -17.6659   19.2993 N   0  0  0  0  0  0  0  0  0  0  0  0
  -29.7723  -26.7077   28.0040 N   0  3  0  0  0  0  0  0  0  0  0  0
  -23.2899  -10.9229   20.5017 O   0  0  0  0  0  0  0  0  0  0  0  0
  -23.1133  -28.9761   23.4535 O   0  0  0  0  0  0  0  0  0  0  0  0
  -24.7769  -29.6668   26.7626 O   0  0  0  0  0  0  0  0  0  0  0  0
  -28.7922  -27.4846   25.4836 O   0  0  0  0  0  0  0  0  0  0  0  0
  -30.5473  -17.5813   20.2965 O   0  0  0  0  0  0  0  0  0  0  0  0
  -19.1028  -16.1334   24.4898 O   0  0  0  0  0  0  0  0  0  0  0  0
  -25.5165  -23.2208   21.3073 O   0  0  0  0  0  0  0  0  0  1  0  0
  -17.9103  -21.4643   23.7393 F   0  0  0  0  0  0  0  0  0  0  0  0
  -16.7657  -16.8999   23.2276 F   0  0  0  0  0  0  0  0  0  0  0  0
  -30.7301  -20.3297   17.0623 F   0  0  0  0  0  0  0  0  0  0  0  0
  -28.7738  -20.6529   16.1591 F   0  0  0  0  0  0  0  0  0  0  0  0
  -29.5566  -22.0747   17.6208 F   0  0  0  0  0  0  0  0  0  0  0  0
  1  2  1  0  0  0  0
  1  5  2  0  0  0  0
  2  6  2  0  0  0  0
  3  8  2  0  0  0  0
  3 16  1  0  0  0  0
  4  9  1  0  0  0  0
  4 16  2  0  0  0  0
  5 18  1  0  0  0  0
  6 20  1  0  0  0  0
  7 10  2  0  0  0  0
  7 19  1  0  0  0  0
  8 22  1  0  0  0  0
  9 22  2  0  0  0  0
 10 23  1  0  0  0  0
 11 12  2  0  0  0  0
 11 24  1  0  0  0  0
 12 25  1  0  0  0  0
 13 21  1  0  0  0  0
 13 23  2  0  0  0  0
 14 25  2  0  0  0  0
 14 26  1  0  0  0  0
 15 28  2  0  0  0  0
 15 69  1  0  0  0  0
 16 27  1  0  0  0  0
 17 27  1  0  0  0  0
 17 29  2  0  0  0  0
 17 31  1  0  0  0  0
 18 20  2  0  0  0  0
 18 36  1  0  0  0  0
 19 21  2  0  0  0  0
 19 37  1  0  0  0  0
 20 45  1  0  0  0  0
 21 38  1  0  0  0  0
 22 83  1  0  0  0  0
 23 84  1  0  0  0  0
 24 26  2  0  0  0  0
 24 83  1  0  0  0  0
 25 85  1  0  0  0  0
 26 86  1  0  0  0  0
 27 66  2  0  0  0  0
 28 60  1  0  0  0  0
 28 67  1  0  0  0  0
 29 68  1  0  0  0  0
 29 72  1  0  0  0  0
 30 56  1  0  0  0  0
 30 67  1  0  0  0  0
 30 69  2  0  0  0  0
 31 73  1  0  0  0  0
 31 78  2  0  0  0  0
 32 46  1  0  0  0  0
 32 74  1  0  0  0  0
 32 79  2  0  0  0  0
 33 61  1  0  0  0  0
 33 70  1  0  0  0  0
 33 80  2  0  0  0  0
 34 62  1  0  0  0  0
 34 75  1  0  0  0  0
 34 81  2  0  0  0  0
 35 71  1  0  0  0  0
 35 76  1  0  0  0  0
 35 82  2  0  0  0  0
 36 39  1  0  0  0  0
 37 46  1  0  0  0  0
 38 70  1  0  0  0  0
 39 41  1  0  0  0  0
 40 42  1  0  0  0  0
 40 43  1  0  0  0  0
 41 45  1  0  0  0  0
 42 47  1  0  0  0  0
 43 71  1  0  0  0  0
 44 47  1  0  0  0  0
 44 71  1  0  0  0  0
 45 74  1  0  0  0  0
 46 70  1  0  0  0  0
 47 68  1  0  0  0  0
 48 62  1  0  0  0  0
 49 63  1  0  0  0  0
 50 63  1  0  0  0  0
 51 63  1  0  0  0  0
 52 64  1  0  0  0  0
 53 64  1  0  0  0  0
 54 64  1  0  0  0  0
 55 77  1  0  0  0  0
 56 84  1  0  0  0  0
 57 58  1  0  0  0  0
 57 63  1  0  0  0  0
 58 67  1  0  0  0  0
 59 60  1  0  0  0  0
 59 76  1  0  0  0  0
 60 65  1  0  0  0  0
 61 64  1  0  0  0  0
 61 75  1  0  0  0  0
 62 77  1  0  0  0  0
 65 87  1  0  0  0  0
 65 88  1  0  0  0  0
 65 89  1  0  0  0  0
 66 68  1  0  0  0  0
M  CHG  2  69   1  77   1
M  ISO  4  35 100  56 101  76 100  84 101
M  END
> <Batch ID>
0070

> <Smiles>
CNC(C)C(=O)NC(C(=O)N1Cc2cc([101O:1][101CH2:1]c3ncc(C(C[100NH:0][100C:0](=O)N4CCCC(n5nc(-c6ccc(Oc7ccc(F)cc7F)cc6)c(C(N)=O)c5N)C4)C(F)(F)F)n3CCC(C)(C)C)ccc2CC1C(=O)NC1CCCc2ccccc21)C(C)(C)C

> <Shape>
0.196

> <Color>
0.075

> <Negative vol penalty>
0.000

$$$$

  -OEChem-04052318193D

 83 91  0     1  0  0  0  0  0999 V2000
  -17.9529  -31.6255   20.1375 C   0  0  0  0  0  0  0  0  0  0  0  0
  -19.2420  -31.3780   19.6769 C   0  0  0  0  0  0  0  0  0  0  0  0
  -25.9055  -15.8469   22.9363 C   0  0  0  0  0  0  0  0  0  0  0  0
  -25.2623  -15.3630   20.6583 C   0  0  0  0  0  0  0  0  0  0  0  0
  -17.6482  -31.4415   21.4856 C   0  0  0  0  0  0  0  0  0  0  0  0
  -20.2276  -30.9473   20.5643 C   0  0  0  0  0  0  0  0  0  0  0  0
  -24.8112  -27.0641   19.3740 C   0  0  0  0  0  0  0  0  0  0  0  0
  -24.8465  -15.0672   23.4010 C   0  0  0  0  0  0  0  0  0  0  0  0
  -24.2032  -14.5832   21.1230 C   0  0  0  0  0  0  0  0  0  0  0  0
  -26.1544  -27.2665   19.0600 C   0  0  0  0  0  0  0  0  0  0  0  0
  -23.7632  -11.4772   22.3798 C   0  0  0  0  0  0  0  0  0  0  0  0
  -23.5592  -10.2372   21.7746 C   0  0  0  0  0  0  0  0  0  0  0  0
  -26.7373  -26.9575   21.3803 C   0  0  0  0  0  0  0  0  0  0  0  0
  -21.3438  -10.9292   21.1035 C   0  0  0  0  0  0  0  0  0  0  0  0
  -32.7914  -23.3349   18.3070 C   0  0  0  0  0  0  0  0  0  0  0  0
  -32.3691  -24.3857   16.4165 C   0  0  0  0  0  0  0  0  0  0  0  0
  -26.1134  -15.9949   21.5650 C   0  0  0  0  0  0  0  0  0  0  0  0
  -28.5188  -16.3736   20.8044 C   0  0  0  0  0  0  0  0  0  0  0  0
  -18.6281  -30.9991   22.3882 C   0  0  0  0  0  0  0  0  0  0  0  0
  -24.4191  -26.8173   20.6975 C   0  0  0  0  0  0  0  0  0  0  0  0
  -19.9361  -30.7585   21.9260 C   0  0  0  0  0  0  0  0  0  0  0  0
  -25.3888  -26.7498   21.7081 C   0  0  0  0  0  0  0  0  0  0  0  0
  -23.9953  -14.4353   22.4944 C   0  0  0  0  0  0  0  0  0  0  0  0
  -27.1174  -27.2161   20.0636 C   0  0  0  0  0  0  0  0  0  0  0  0
  -22.7575  -12.4433   22.3469 C   0  0  0  0  0  0  0  0  0  0  0  0
  -22.3495   -9.9632   21.1365 C   0  0  0  0  0  0  0  0  0  0  0  0
  -21.5478  -12.1693   21.7087 C   0  0  0  0  0  0  0  0  0  0  0  0
  -27.2070  -16.8007   21.0843 C   0  0  0  0  0  0  0  0  0  0  0  0
  -32.7690  -24.6982   18.4836 C   0  0  0  0  0  0  0  0  0  0  0  0
  -29.1661  -17.5081   20.3798 C   0  0  0  0  0  0  0  0  0  0  0  0
  -29.1003  -15.0680   20.9181 C   0  0  0  0  0  0  0  0  0  0  0  0
  -22.5585  -28.3068   22.8007 C   0  0  0  0  0  0  0  0  0  0  0  0
  -23.1192  -25.6574   24.5863 C   0  0  0  0  0  0  0  0  0  0  0  0
  -25.1437  -22.9947   25.2630 C   0  0  0  0  0  0  0  0  0  0  0  0
  -29.3053  -22.1776   17.3265 C   0  0  0  0  0  0  0  0  0  0  0  0
  -18.2634  -30.8601   23.8450 C   0  0  0  0  0  0  0  0  0  0  0  0
  -22.9692  -26.5745   21.0156 C   0  0  0  0  0  0  0  0  0  0  0  0
  -25.0220  -26.4680   23.1415 C   0  0  0  0  0  0  0  0  0  0  0  0
  -19.2702  -30.0418   24.6495 C   0  0  0  0  0  0  0  0  0  0  0  0
  -27.7404  -22.3594   20.5195 C   0  0  0  0  0  0  0  0  0  0  0  0
  -20.6943  -30.4878   24.3338 C   0  0  0  0  0  0  0  0  0  0  0  0
  -27.5649  -20.8948   20.9247 C   0  0  0  0  0  0  0  0  0  0  0  0
  -27.5370  -22.5581   19.0191 C   0  0  0  0  0  0  0  0  0  0  0  0
  -28.1893  -20.2249   18.5667 C   0  0  0  0  0  0  0  0  0  0  0  0
  -21.0263  -30.2665   22.8531 C   0  0  1  0  0  0  0  0  0  0  0  0
  -22.6256  -26.8409   22.4780 C   0  0  1  0  0  0  0  0  0  0  0  0
  -28.4400  -19.9656   20.0621 C   0  0  2  0  0  0  0  0  0  0  0  0
  -25.8914  -20.8500   26.3301 C   0  0  0  0  0  0  0  0  0  0  0  0
  -33.5491  -21.7719   15.2237 C   0  0  0  0  0  0  0  0  0  0  0  0
  -24.0320  -27.5144   26.8287 C   0  0  0  0  0  0  0  0  0  0  0  0
  -25.1019  -25.5394   27.9344 C   0  0  0  0  0  0  0  0  0  0  0  0
  -22.6332  -25.5819   27.5791 C   0  0  0  0  0  0  0  0  0  0  0  0
  -23.7786  -21.3606   23.2074 C   0  0  0  0  0  0  0  0  0  0  0  0
  -32.9890  -25.4783   19.7553 C   0  0  0  0  0  0  0  0  0  0  0  0
  -31.7055  -25.7390   20.5515 C   0  0  0  0  0  0  0  0  0  0  0  0
  -30.6354  -26.4701   19.7397 C   0  0  0  0  0  0  0  0  0  0  0  0
  -31.0715  -21.6375   15.6688 C   0  0  0  0  0  0  0  0  0  0  0  0
  -29.3921  -26.7464   20.5743 C   0  0  0  0  0  0  0  0  0  1  0  0
  -24.1654  -25.2500   25.5955 C   0  0  1  0  0  0  0  0  0  0  0  0
  -24.8370  -21.5216   25.4641 C   0  0  2  0  0  0  0  0  0  0  0  0
  -32.4551  -21.8840   16.2909 C   0  0  2  0  0  0  0  0  0  0  0  0
  -23.9902  -25.9787   26.9578 C   0  0  0  0  0  0  0  0  0  0  0  0
  -32.5053  -25.3466   17.3031 N   0  0  0  0  0  0  0  0  0  0  0  0
  -27.0297  -18.1049   20.8568 N   0  0  0  0  0  0  0  0  0  0  0  0
  -32.5332  -23.1499   16.9780 N   0  0  0  0  0  0  0  0  0  0  0  0
  -28.2388  -18.5070   20.4295 N   0  0  0  0  0  0  0  0  0  0  0  0
  -23.5907  -26.2437   23.4032 N   0  0  0  0  0  0  0  0  0  0  0  0
  -28.3968  -21.6484   18.2581 N   0  0  0  0  0  0  0  0  0  0  0  0
  -30.4323  -17.7388   19.9725 N   0  0  0  0  0  0  0  0  0  0  0  0
  -28.2941  -14.0145   21.3703 N   0  0  0  0  0  0  0  0  0  0  0  0
  -21.3124  -28.8702   22.6025 N   0  0  0  0  0  0  0  0  0  0  0  0
  -24.1028  -23.7951   25.6837 N   0  0  0  0  0  0  0  0  0  0  0  0
  -30.0867  -21.2468   16.6529 N   0  0  0  0  0  0  0  0  0  0  0  0
  -24.7898  -20.8183   24.1510 N   0  3  0  0  0  0  0  0  0  0  0  0
  -30.3038  -14.8455   20.6428 O   0  0  0  0  0  0  0  0  0  0  0  0
  -23.5627  -28.8838   23.2013 O   0  0  0  0  0  0  0  0  0  0  0  0
  -21.9279  -25.4561   24.8354 O   0  0  0  0  0  0  0  0  0  0  0  0
  -26.2024  -23.3953   24.7842 O   0  0  0  0  0  0  0  0  0  0  0  0
  -29.4158  -23.3900   17.1150 O   0  0  0  0  0  0  0  0  0  0  0  0
  -22.9619  -13.6742   22.9475 O   0  0  0  0  0  0  0  0  0  0  0  0
  -28.4290  -27.4140   19.7599 O   0  0  0  0  0  0  0  0  0  1  0  0
  -22.1543   -8.7729   20.5540 F   0  0  0  0  0  0  0  0  0  0  0  0
  -20.5784  -13.0938   21.6729 F   0  0  0  0  0  0  0  0  0  0  0  0
  1  2  1  0  0  0  0
  1  5  2  0  0  0  0
  2  6  2  0  0  0  0
  3  8  2  0  0  0  0
  3 17  1  0  0  0  0
  4  9  1  0  0  0  0
  4 17  2  0  0  0  0
  5 19  1  0  0  0  0
  6 21  1  0  0  0  0
  7 10  2  0  0  0  0
  7 20  1  0  0  0  0
  8 23  1  0  0  0  0
  9 23  2  0  0  0  0
 10 24  1  0  0  0  0
 11 12  2  0  0  0  0
 11 25  1  0  0  0  0
 12 26  1  0  0  0  0
 13 22  1  0  0  0  0
 13 24  2  0  0  0  0
 14 26  2  0  0  0  0
 14 27  1  0  0  0  0
 15 29  2  0  0  0  0
 15 65  1  0  0  0  0
 16 63  2  0  0  0  0
 16 65  1  0  0  0  0
 17 28  1  0  0  0  0
 18 28  1  0  0  0  0
 18 30  2  0  0  0  0
 18 31  1  0  0  0  0
 19 21  2  0  0  0  0
 19 36  1  0  0  0  0
 20 22  2  0  0  0  0
 20 37  1  0  0  0  0
 21 45  1  0  0  0  0
 22 38  1  0  0  0  0
 23 80  1  0  0  0  0
 24 81  1  0  0  0  0
 25 27  2  0  0  0  0
 25 80  1  0  0  0  0
 26 82  1  0  0  0  0
 27 83  1  0  0  0  0
 28 64  2  0  0  0  0
 29 54  1  0  0  0  0
 29 63  1  0  0  0  0
 30 66  1  0  0  0  0
 30 69  1  0  0  0  0
 31 70  1  0  0  0  0
 31 75  2  0  0  0  0
 32 46  1  0  0  0  0
 32 71  1  0  0  0  0
 32 76  2  0  0  0  0
 33 59  1  0  0  0  0
 33 67  1  0  0  0  0
 33 77  2  0  0  0  0
 34 60  1  0  0  0  0
 34 72  1  0  0  0  0
 34 78  2  0  0  0  0
 35 68  1  0  0  0  0
 35 73  1  0  0  0  0
 35 79  2  0  0  0  0
 36 39  1  0  0  0  0
 37 46  1  0  0  0  0
 38 67  1  0  0  0  0
 39 41  1  0  0  0  0
 40 42  1  0  0  0  0
 40 43  1  0  0  0  0
 41 45  1  0  0  0  0
 42 47  1  0  0  0  0
 43 68  1  0  0  0  0
 44 47  1  0  0  0  0
 44 68  1  0  0  0  0
 45 71  1  0  0  0  0
 46 67  1  0  0  0  0
 47 66  1  0  0  0  0
 48 60  1  0  0  0  0
 49 61  1  0  0  0  0
 50 62  1  0  0  0  0
 51 62  1  0  0  0  0
 52 62  1  0  0  0  0
 53 74  1  0  0  0  0
 54 55  1  0  0  0  0
 55 56  1  0  0  0  0
 56 58  1  0  0  0  0
 57 61  1  0  0  0  0
 57 73  1  0  0  0  0
 58 81  1  0  0  0  0
 59 62  1  0  0  0  0
 59 72  1  0  0  0  0
 60 74  1  0  0  0  0
 61 65  1  0  0  0  0
 64 66  1  0  0  0  0
M  CHG  1  74   1
M  ISO  4  35 100  58 101  73 100  81 101
M  END
> <Batch ID>
0070

> <Smiles>
CNC(C)C(=O)NC(C(=O)N1Cc2cc([101O:1][101CH2:1]CCCc3cn(C(C)C[100NH:0][100C:0](=O)N4CCCC(n5nc(-c6ccc(Oc7ccc(F)cc7F)cc6)c(C(N)=O)c5N)C4)cn3)ccc2CC1C(=O)NC1CCCc2ccccc21)C(C)(C)C

> <Shape>
0.206

> <Color>
0.069

> <Negative vol penalty>
0.000

$$$$

  -OEChem-04052318193D

 85 93  0     1  0  0  0  0  0999 V2000
  -30.4445  -23.4478   17.5634 C   0  0  0  0  0  0  0  0  0  0  0  0
  -29.0641  -23.6187   17.5346 C   0  0  0  0  0  0  0  0  0  0  0  0
  -27.8666  -14.8804   21.5386 C   0  0  0  0  0  0  0  0  0  0  0  0
  -26.1249  -15.4470   19.9631 C   0  0  0  0  0  0  0  0  0  0  0  0
  -31.1693  -23.8280   18.6921 C   0  0  0  0  0  0  0  0  0  0  0  0
  -28.4076  -24.1688   18.6350 C   0  0  0  0  0  0  0  0  0  0  0  0
  -23.4861  -27.8125   18.5424 C   0  0  0  0  0  0  0  0  0  0  0  0
  -27.5152  -13.5339   21.4429 C   0  0  0  0  0  0  0  0  0  0  0  0
  -25.7735  -14.1005   19.8673 C   0  0  0  0  0  0  0  0  0  0  0  0
  -22.1279  -27.5592   18.7293 C   0  0  0  0  0  0  0  0  0  0  0  0
  -24.0211  -11.8481   21.6802 C   0  0  0  0  0  0  0  0  0  0  0  0
  -22.6645  -11.5274   21.7273 C   0  0  0  0  0  0  0  0  0  0  0  0
  -22.3334  -28.2001   21.0459 C   0  0  0  0  0  0  0  0  0  0  0  0
  -22.8230  -10.5342   19.5306 C   0  0  0  0  0  0  0  0  0  0  0  0
  -27.1714  -15.8369   20.7988 C   0  0  0  0  0  0  0  0  0  0  0  0
  -28.4719  -17.9204   20.1090 C   0  0  0  0  0  0  0  0  0  0  0  0
  -30.5226  -24.3920   19.8031 C   0  0  0  0  0  0  0  0  0  0  0  0
  -24.2818  -28.2517   19.6103 C   0  0  0  0  0  0  0  0  0  0  0  0
  -29.1244  -24.5557   19.7801 C   0  0  0  0  0  0  0  0  0  0  0  0
  -23.7009  -28.4606   20.8693 C   0  0  0  0  0  0  0  0  0  0  0  0
  -26.4687  -13.1440   20.6072 C   0  0  0  0  0  0  0  0  0  0  0  0
  -21.5520  -27.7502   19.9819 C   0  0  0  0  0  0  0  0  0  0  0  0
  -24.7787  -11.5118   20.5582 C   0  0  0  0  0  0  0  0  0  0  0  0
  -22.0654  -10.8705   20.6525 C   0  0  0  0  0  0  0  0  0  0  0  0
  -24.1796  -10.8549   19.4835 C   0  0  0  0  0  0  0  0  0  0  0  0
  -27.5336  -17.2280   20.8977 C   0  0  0  0  0  0  0  0  0  0  0  0
  -28.4485  -19.2046   20.5956 C   0  0  0  0  0  0  0  0  0  0  0  0
  -18.6805  -25.0259   23.6170 C   0  0  0  0  0  0  0  0  0  0  0  0
  -20.1028  -23.7060   22.4893 C   0  0  0  0  0  0  0  0  0  0  0  0
  -18.8440  -25.2005   21.3854 C   0  0  0  0  0  0  0  0  0  0  0  0
  -29.2914  -17.4451   19.0328 C   0  0  0  0  0  0  0  0  0  0  0  0
  -26.8131  -27.0946   21.1457 C   0  0  0  0  0  0  0  0  0  0  0  0
  -26.7353  -29.9730   22.6393 C   0  0  0  0  0  0  0  0  0  0  0  0
  -24.9099  -32.6951   23.5905 C   0  0  0  0  0  0  0  0  0  0  0  0
  -24.2919  -22.3895   23.4991 C   0  0  0  0  0  0  0  0  0  0  0  0
  -31.3426  -24.7440   21.0190 C   0  0  0  0  0  0  0  0  0  0  0  0
  -25.7397  -28.5460   19.3858 C   0  0  0  0  0  0  0  0  0  0  0  0
  -24.5073  -28.9503   22.0433 C   0  0  0  0  0  0  0  0  0  0  0  0
  -30.6177  -25.6653   21.9967 C   0  0  0  0  0  0  0  0  0  0  0  0
  -27.6004  -21.6752   24.6040 C   0  0  0  0  0  0  0  0  0  0  0  0
  -29.1958  -25.1705   22.2423 C   0  0  0  0  0  0  0  0  0  0  0  0
  -28.0431  -20.5169   23.7083 C   0  0  0  0  0  0  0  0  0  0  0  0
  -26.1190  -21.5776   24.9618 C   0  0  0  0  0  0  0  0  0  0  0  0
  -25.6528  -20.2921   22.9114 C   0  0  0  0  0  0  0  0  0  0  0  0
  -28.3793  -25.1718   20.9443 C   0  0  1  0  0  0  0  0  0  0  0  0
  -26.5636  -28.4975   20.6689 C   0  0  1  0  0  0  0  0  0  0  0  0
  -27.1263  -20.3774   22.4781 C   0  0  2  0  0  0  0  0  0  0  0  0
  -18.0723  -25.4651   24.9053 C   0  0  0  0  0  0  0  0  0  0  0  0
  -20.6567  -21.3846   21.6967 C   0  0  0  0  0  0  0  0  0  0  0  0
  -25.1121  -34.8668   24.8317 C   0  0  0  0  0  0  0  0  0  0  0  0
  -17.3367  -26.9623   20.2438 C   0  0  0  0  0  0  0  0  0  0  0  0
  -17.7997  -24.7857   19.1367 C   0  0  0  0  0  0  0  0  0  0  0  0
  -26.7213  -28.4579   25.2878 C   0  0  0  0  0  0  0  0  0  0  0  0
  -25.9744  -30.5673   26.4106 C   0  0  0  0  0  0  0  0  0  0  0  0
  -28.1833  -30.4866   25.2543 C   0  0  0  0  0  0  0  0  0  0  0  0
  -24.1714  -34.2671   21.1942 C   0  0  0  0  0  0  0  0  0  0  0  0
  -22.5024  -23.0860   21.9270 C   0  0  0  0  0  0  0  0  0  0  0  0
  -19.6339  -26.4934   19.3515 C   0  0  0  0  0  0  0  0  0  1  0  0
  -21.1312  -22.6266   22.4801 C   0  0  1  0  0  0  0  0  0  0  0  0
  -26.0635  -30.5176   23.8767 C   0  0  1  0  0  0  0  0  0  0  0  0
  -25.1859  -34.1834   23.4751 C   0  0  2  0  0  0  0  0  0  0  0  0
  -18.4100  -25.8618   20.0638 C   0  0  0  0  0  0  0  0  0  0  0  0
  -26.7206  -29.9963   25.1859 C   0  0  0  0  0  0  0  0  0  0  0  0
  -26.9562  -18.0078   21.8157 N   0  0  0  0  0  0  0  0  0  0  0  0
  -19.5996  -24.0492   23.6859 N   0  0  0  0  0  0  0  0  0  0  0  0
  -18.2537  -25.6472   22.5057 N   0  0  0  0  0  0  0  0  0  0  0  0
  -19.7741  -24.2359   21.3001 N   0  0  0  0  0  0  0  0  0  0  0  0
  -27.5334  -19.2034   21.6069 N   0  0  0  0  0  0  0  0  0  0  0  0
  -25.9299  -29.2180   21.7750 N   0  0  0  0  0  0  0  0  0  0  0  0
  -25.3044  -21.4490   23.7511 N   0  0  0  0  0  0  0  0  0  0  0  0
  -29.1216  -20.3234   20.2527 N   0  0  0  0  0  0  0  0  0  0  0  0
  -29.1905  -16.0976   18.6609 N   0  0  0  0  0  0  0  0  0  0  0  0
  -27.9511  -26.5151   20.6179 N   0  0  0  0  0  0  0  0  0  0  0  0
  -26.0731  -31.9701   23.7407 N   0  0  0  0  0  0  0  0  0  0  0  0
  -23.5713  -22.1980   22.3267 N   0  0  0  0  0  0  0  0  0  0  0  0
  -24.1911  -34.8260   22.5704 N   0  3  0  0  0  0  0  0  0  0  0  0
  -30.1015  -18.1894   18.4300 O   0  0  0  0  0  0  0  0  0  0  0  0
  -26.0319  -26.5769   21.9352 O   0  0  0  0  0  0  0  0  0  0  0  0
  -27.9290  -30.2148   22.4432 O   0  0  0  0  0  0  0  0  0  0  0  0
  -23.7756  -32.2233   23.5550 O   0  0  0  0  0  0  0  0  0  0  0  0
  -24.0518  -23.3332   24.2599 O   0  0  0  0  0  0  0  0  0  0  0  0
  -26.1257  -11.8302   20.5133 O   0  0  0  0  0  0  0  0  0  0  0  0
  -20.2267  -27.5032   20.1672 O   0  0  0  0  0  0  0  0  0  1  0  0
  -20.7629  -10.5612   20.6985 F   0  0  0  0  0  0  0  0  0  0  0  0
  -24.9026  -10.5282   18.4034 F   0  0  0  0  0  0  0  0  0  0  0  0
  1  2  1  0  0  0  0
  1  5  2  0  0  0  0
  2  6  2  0  0  0  0
  3  8  2  0  0  0  0
  3 15  1  0  0  0  0
  4  9  1  0  0  0  0
  4 15  2  0  0  0  0
  5 17  1  0  0  0  0
  6 19  1  0  0  0  0
  7 10  2  0  0  0  0
  7 18  1  0  0  0  0
  8 21  1  0  0  0  0
  9 21  2  0  0  0  0
 10 22  1  0  0  0  0
 11 12  2  0  0  0  0
 11 23  1  0  0  0  0
 12 24  1  0  0  0  0
 13 20  1  0  0  0  0
 13 22  2  0  0  0  0
 14 24  2  0  0  0  0
 14 25  1  0  0  0  0
 15 26  1  0  0  0  0
 16 26  1  0  0  0  0
 16 27  2  0  0  0  0
 16 31  1  0  0  0  0
 17 19  2  0  0  0  0
 17 36  1  0  0  0  0
 18 20  2  0  0  0  0
 18 37  1  0  0  0  0
 19 45  1  0  0  0  0
 20 38  1  0  0  0  0
 21 82  1  0  0  0  0
 22 83  1  0  0  0  0
 23 25  2  0  0  0  0
 23 82  1  0  0  0  0
 24 84  1  0  0  0  0
 25 85  1  0  0  0  0
 26 64  2  0  0  0  0
 27 68  1  0  0  0  0
 27 71  1  0  0  0  0
 28 48  1  0  0  0  0
 28 65  1  0  0  0  0
 28 66  2  0  0  0  0
 29 59  1  0  0  0  0
 29 65  2  0  0  0  0
 29 67  1  0  0  0  0
 30 62  1  0  0  0  0
 30 66  1  0  0  0  0
 30 67  2  0  0  0  0
 31 72  1  0  0  0  0
 31 77  2  0  0  0  0
 32 46  1  0  0  0  0
 32 73  1  0  0  0  0
 32 78  2  0  0  0  0
 33 60  1  0  0  0  0
 33 69  1  0  0  0  0
 33 79  2  0  0  0  0
 34 61  1  0  0  0  0
 34 74  1  0  0  0  0
 34 80  2  0  0  0  0
 35 70  1  0  0  0  0
 35 75  1  0  0  0  0
 35 81  2  0  0  0  0
 36 39  1  0  0  0  0
 37 46  1  0  0  0  0
 38 69  1  0  0  0  0
 39 41  1  0  0  0  0
 40 42  1  0  0  0  0
 40 43  1  0  0  0  0
 41 45  1  0  0  0  0
 42 47  1  0  0  0  0
 43 70  1  0  0  0  0
 44 47  1  0  0  0  0
 44 70  1  0  0  0  0
 45 73  1  0  0  0  0
 46 69  1  0  0  0  0
 47 68  1  0  0  0  0
 49 59  1  0  0  0  0
 50 61  1  0  0  0  0
 51 62  1  0  0  0  0
 52 62  1  0  0  0  0
 53 63  1  0  0  0  0
 54 63  1  0  0  0  0
 55 63  1  0  0  0  0
 56 76  1  0  0  0  0
 57 59  1  0  0  0  0
 57 75  1  0  0  0  0
 58 62  1  0  0  0  0
 58 83  1  0  0  0  0
 60 63  1  0  0  0  0
 60 74  1  0  0  0  0
 61 76  1  0  0  0  0
 64 68  1  0  0  0  0
M  CHG  1  76   1
M  ISO  4  35 100  58 101  75 100  83 101
M  END
> <Batch ID>
0070

> <Smiles>
CNC(C)C(=O)NC(C(=O)N1Cc2cc([101O:1][101CH2:1]C(C)(C)c3nc(C)nc(C(C)C[100NH:0][100C:0](=O)N4CCCC(n5nc(-c6ccc(Oc7ccc(F)cc7F)cc6)c(C(N)=O)c5N)C4)n3)ccc2CC1C(=O)NC1CCCc2ccccc21)C(C)(C)C

> <Shape>
0.263

> <Color>
0.057

> <Negative vol penalty>
0.000

$$$$

  -OEChem-04052318193D

 88 96  0     1  0  0  0  0  0999 V2000
  -20.7688  -10.9114   23.8160 C   0  0  0  0  0  0  0  0  0  0  0  0
  -21.9644  -11.6163   23.9119 C   0  0  0  0  0  0  0  0  0  0  0  0
  -25.3125  -32.3704   22.9201 C   0  0  0  0  0  0  0  0  0  0  0  0
  -25.9422  -32.6408   20.6033 C   0  0  0  0  0  0  0  0  0  0  0  0
  -20.6557   -9.8521   22.9166 C   0  0  0  0  0  0  0  0  0  0  0  0
  -23.0480  -11.2615   23.1091 C   0  0  0  0  0  0  0  0  0  0  0  0
  -25.3251  -15.2797   21.0322 C   0  0  0  0  0  0  0  0  0  0  0  0
  -25.6814  -33.6913   23.1745 C   0  0  0  0  0  0  0  0  0  0  0  0
  -26.3111  -33.9617   20.8577 C   0  0  0  0  0  0  0  0  0  0  0  0
  -26.1807  -16.0188   21.8479 C   0  0  0  0  0  0  0  0  0  0  0  0
  -28.5374  -35.4247   23.6874 C   0  0  0  0  0  0  0  0  0  0  0  0
  -29.2929  -35.6768   24.8325 C   0  0  0  0  0  0  0  0  0  0  0  0
  -28.0770  -14.8994   20.8629 C   0  0  0  0  0  0  0  0  0  0  0  0
  -27.5530  -37.1349   25.6595 C   0  0  0  0  0  0  0  0  0  0  0  0
  -29.1745  -20.4013   22.7250 C   0  0  0  0  0  0  0  0  0  0  0  0
  -25.4430  -31.8451   21.6345 C   0  0  0  0  0  0  0  0  0  0  0  0
  -23.7962  -30.0129   20.9722 C   0  0  0  0  0  0  0  0  0  0  0  0
  -21.7353   -9.4903   22.0955 C   0  0  0  0  0  0  0  0  0  0  0  0
  -25.8393  -14.3354   20.1320 C   0  0  0  0  0  0  0  0  0  0  0  0
  -22.9496  -10.1954   22.1988 C   0  0  0  0  0  0  0  0  0  0  0  0
  -27.2260  -14.1514   20.0351 C   0  0  0  0  0  0  0  0  0  0  0  0
  -29.8051  -19.4154   21.9938 C   0  0  0  0  0  0  0  0  0  0  0  0
  -26.1807  -34.4870   22.1433 C   0  0  0  0  0  0  0  0  0  0  0  0
  -27.5567  -15.8267   21.7654 C   0  0  0  0  0  0  0  0  0  0  0  0
  -27.2897  -36.0279   23.5282 C   0  0  0  0  0  0  0  0  0  0  0  0
  -28.8007  -36.5318   25.8185 C   0  0  0  0  0  0  0  0  0  0  0  0
  -26.7975  -36.8829   24.5143 C   0  0  0  0  0  0  0  0  0  0  0  0
  -25.0626  -30.4805   21.3712 C   0  0  0  0  0  0  0  0  0  0  0  0
  -29.9443  -19.6694   20.6446 C   0  0  0  0  0  0  0  0  0  0  0  0
  -23.9533  -28.6534   20.8554 C   0  0  0  0  0  0  0  0  0  0  0  0
  -28.9078  -21.6805   20.8650 C   0  0  0  0  0  0  0  0  0  0  0  0
  -22.5860  -30.7422   20.7288 C   0  0  0  0  0  0  0  0  0  0  0  0
  -25.5561  -11.1895   19.7759 C   0  0  0  0  0  0  0  0  0  0  0  0
  -27.2618  -11.7344   17.0710 C   0  0  0  0  0  0  0  0  0  0  0  0
  -28.7846  -25.3712   19.7778 C   0  0  0  0  0  0  0  0  0  0  0  0
  -29.4474  -13.7351   15.3779 C   0  0  0  0  0  0  0  0  0  0  0  0
  -21.5807   -8.3079   21.1721 C   0  0  0  0  0  0  0  0  0  0  0  0
  -24.9045  -13.5653   19.2401 C   0  0  0  0  0  0  0  0  0  0  0  0
  -27.8295  -13.1645   19.0705 C   0  0  0  0  0  0  0  0  0  0  0  0
  -22.6552   -8.2352   20.0904 C   0  0  0  0  0  0  0  0  0  0  0  0
  -26.5080  -25.0085   22.5908 C   0  0  0  0  0  0  0  0  0  0  0  0
  -24.0372   -8.4635   20.6944 C   0  0  0  0  0  0  0  0  0  0  0  0
  -25.7816  -26.3528   22.5714 C   0  0  0  0  0  0  0  0  0  0  0  0
  -27.9698  -25.1544   22.1759 C   0  0  0  0  0  0  0  0  0  0  0  0
  -27.4306  -27.1572   20.8259 C   0  0  0  0  0  0  0  0  0  0  0  0
  -24.1394   -9.8565   21.3273 C   0  0  1  0  0  0  0  0  0  0  0  0
  -25.5081  -12.2623   18.7249 C   0  0  1  0  0  0  0  0  0  0  0  0
  -25.9452  -27.0488   21.2089 C   0  0  2  0  0  0  0  0  0  0  0  0
  -31.8189  -19.2618   19.0303 C   0  0  0  0  0  0  0  0  0  0  0  0
  -30.4279  -16.9533   25.0102 C   0  0  0  0  0  0  0  0  0  0  0  0
  -32.6462  -19.1835   23.2023 C   0  0  0  0  0  0  0  0  0  0  0  0
  -30.6866  -13.9001   13.2019 C   0  0  0  0  0  0  0  0  0  0  0  0
  -30.1645  -23.7254   18.5964 C   0  0  0  0  0  0  0  0  0  0  0  0
  -30.5329  -24.1455   21.0328 C   0  0  0  0  0  0  0  0  0  0  0  0
  -29.2292   -9.6099   18.0332 C   0  0  0  0  0  0  0  0  0  0  0  0
  -30.8779  -10.4795   16.3617 C   0  0  0  0  0  0  0  0  0  0  0  0
  -28.7092   -9.5196   15.5886 C   0  0  0  0  0  0  0  0  0  0  0  0
  -28.1061  -16.2775   14.6735 C   0  0  0  0  0  0  0  0  0  0  0  0
  -30.6113  -18.6736   19.7541 C   0  0  0  0  0  0  0  0  0  0  0  0
  -28.4101  -22.9388   20.2380 C   0  0  0  0  0  0  0  0  0  0  0  0
  -29.9858  -18.1704   24.2023 C   0  0  0  0  0  0  0  0  0  0  0  0
  -31.8768  -18.0367   22.5520 C   0  0  0  0  0  0  0  0  0  0  0  0
  -29.6951  -16.8287   22.0470 C   0  0  0  0  0  0  0  0  0  1  0  0
  -28.7303  -11.7785   16.7238 C   0  0  1  0  0  0  0  0  0  0  0  0
  -29.4244  -14.2793   13.9609 C   0  0  2  0  0  0  0  0  0  0  0  0
  -30.3127  -18.1190   22.6680 C   0  0  0  0  0  0  0  0  0  0  0  0
  -29.4707  -24.0373   19.9324 C   0  0  0  0  0  0  0  0  0  0  0  0
  -29.3755  -10.3642   16.6965 C   0  0  0  0  0  0  0  0  0  0  0  0
  -28.7117  -21.5506   22.1909 N   0  0  0  0  0  0  0  0  0  0  0  0
  -25.9582  -29.4979   21.4994 N   0  0  0  0  0  0  0  0  0  0  0  0
  -29.5056  -20.7955   20.0446 N   0  0  0  0  0  0  0  0  0  0  0  0
  -25.2535  -28.3993   21.1793 N   0  0  0  0  0  0  0  0  0  0  0  0
  -26.8737  -12.4310   18.2243 N   0  0  0  0  0  0  0  0  0  0  0  0
  -28.0839  -25.8465   20.8866 N   0  0  0  0  0  0  0  0  0  0  0  0
  -23.1046  -27.6626   20.5083 N   0  0  0  0  0  0  0  0  0  0  0  0
  -22.5994  -32.1337   20.8956 N   0  0  0  0  0  0  0  0  0  0  0  0
  -24.3216  -10.8641   20.3046 N   0  0  0  0  0  0  0  0  0  0  0  0
  -28.8299  -12.5052   15.4627 N   0  0  0  0  0  0  0  0  0  0  0  0
  -29.3151  -15.7654   13.9784 N   0  3  0  0  0  0  0  0  0  0  0  0
  -21.5198  -30.1748   20.3898 O   0  0  0  0  0  0  0  0  0  0  0  0
  -26.6333  -10.6926   20.0832 O   0  0  0  0  0  0  0  0  0  0  0  0
  -26.4864  -11.1110   16.3418 O   0  0  0  0  0  0  0  0  0  0  0  0
  -28.8678  -25.9700   18.7023 O   0  0  0  0  0  0  0  0  0  0  0  0
  -29.9649  -14.3390   16.3149 O   0  0  0  0  0  0  0  0  0  0  0  0
  -26.5405  -35.7760   22.3912 O   0  0  0  0  0  0  0  0  0  0  0  0
  -28.3941  -16.5464   22.5608 O   0  0  0  0  0  0  0  0  0  1  0  0
  -29.5257  -36.7725   26.9188 F   0  0  0  0  0  0  0  0  0  0  0  0
  -25.5991  -37.4643   24.3676 F   0  0  0  0  0  0  0  0  0  0  0  0
  1  2  1  0  0  0  0
  1  5  2  0  0  0  0
  2  6  2  0  0  0  0
  3  8  2  0  0  0  0
  3 16  1  0  0  0  0
  4  9  1  0  0  0  0
  4 16  2  0  0  0  0
  5 18  1  0  0  0  0
  6 20  1  0  0  0  0
  7 10  2  0  0  0  0
  7 19  1  0  0  0  0
  8 23  1  0  0  0  0
  9 23  2  0  0  0  0
 10 24  1  0  0  0  0
 11 12  2  0  0  0  0
 11 25  1  0  0  0  0
 12 26  1  0  0  0  0
 13 21  1  0  0  0  0
 13 24  2  0  0  0  0
 14 26  2  0  0  0  0
 14 27  1  0  0  0  0
 15 22  1  0  0  0  0
 15 69  2  0  0  0  0
 16 28  1  0  0  0  0
 17 28  1  0  0  0  0
 17 30  2  0  0  0  0
 17 32  1  0  0  0  0
 18 20  2  0  0  0  0
 18 37  1  0  0  0  0
 19 21  2  0  0  0  0
 19 38  1  0  0  0  0
 20 46  1  0  0  0  0
 21 39  1  0  0  0  0
 22 29  2  0  0  0  0
 22 66  1  0  0  0  0
 23 85  1  0  0  0  0
 24 86  1  0  0  0  0
 25 27  2  0  0  0  0
 25 85  1  0  0  0  0
 26 87  1  0  0  0  0
 27 88  1  0  0  0  0
 28 70  2  0  0  0  0
 29 59  1  0  0  0  0
 29 71  1  0  0  0  0
 30 72  1  0  0  0  0
 30 75  1  0  0  0  0
 31 60  1  0  0  0  0
 31 69  1  0  0  0  0
 31 71  2  0  0  0  0
 32 76  1  0  0  0  0
 32 80  2  0  0  0  0
 33 47  1  0  0  0  0
 33 77  1  0  0  0  0
 33 81  2  0  0  0  0
 34 64  1  0  0  0  0
 34 73  1  0  0  0  0
 34 82  2  0  0  0  0
 35 67  1  0  0  0  0
 35 74  1  0  0  0  0
 35 83  2  0  0  0  0
 36 65  1  0  0  0  0
 36 78  1  0  0  0  0
 36 84  2  0  0  0  0
 37 40  1  0  0  0  0
 38 47  1  0  0  0  0
 39 73  1  0  0  0  0
 40 42  1  0  0  0  0
 41 43  1  0  0  0  0
 41 44  1  0  0  0  0
 42 46  1  0  0  0  0
 43 48  1  0  0  0  0
 44 74  1  0  0  0  0
 45 48  1  0  0  0  0
 45 74  1  0  0  0  0
 46 77  1  0  0  0  0
 47 73  1  0  0  0  0
 48 72  1  0  0  0  0
 49 59  1  0  0  0  0
 50 61  1  0  0  0  0
 51 62  1  0  0  0  0
 52 65  1  0  0  0  0
 53 67  1  0  0  0  0
 54 67  1  0  0  0  0
 55 68  1  0  0  0  0
 56 68  1  0  0  0  0
 57 68  1  0  0  0  0
 58 79  1  0  0  0  0
 60 67  1  0  0  0  0
 61 66  1  0  0  0  0
 62 66  1  0  0  0  0
 63 66  1  0  0  0  0
 63 86  1  0  0  0  0
 64 68  1  0  0  0  0
 64 78  1  0  0  0  0
 65 79  1  0  0  0  0
 70 72  1  0  0  0  0
M  CHG  1  79   1
M  ISO  4  35 100  63 101  67 100  86 101
M  END
> <Batch ID>
0070

> <Smiles>
CCc1nc(C[100C:0](C)(C)[100C:0](=O)N2CCCC(n3nc(-c4ccc(Oc5ccc(F)cc5F)cc4)c(C(N)=O)c3N)C2)ncc1C(CC)(CC)[101CH2:1][101O:1]c1ccc2c(c1)CN(C(=O)C(NC(=O)C(C)NC)C(C)(C)C)C(C(=O)NC1CCCc3ccccc31)C2

> <Shape>
0.267

> <Color>
0.055

> <Negative vol penalty>
0.000

$$$$

  -OEChem-04052318193D

 85 93  0     1  0  0  0  0  0999 V2000
  -35.6190  -30.0583   21.1273 C   0  0  0  0  0  0  0  0  0  0  0  0
  -34.6525  -29.1303   21.5018 C   0  0  0  0  0  0  0  0  0  0  0  0
  -23.0742   -9.8689   19.9418 C   0  0  0  0  0  0  0  0  0  0  0  0
  -23.8386   -9.8746   22.2337 C   0  0  0  0  0  0  0  0  0  0  0  0
  -36.5949  -29.7090   20.1949 C   0  0  0  0  0  0  0  0  0  0  0  0
  -34.6608  -27.8527   20.9431 C   0  0  0  0  0  0  0  0  0  0  0  0
  -33.9475  -24.2177   24.3960 C   0  0  0  0  0  0  0  0  0  0  0  0
  -22.3315   -8.7151   20.1924 C   0  0  0  0  0  0  0  0  0  0  0  0
  -23.0959   -8.7208   22.4843 C   0  0  0  0  0  0  0  0  0  0  0  0
  -32.6424  -24.0076   24.8391 C   0  0  0  0  0  0  0  0  0  0  0  0
  -19.8695   -7.9205   23.0926 C   0  0  0  0  0  0  0  0  0  0  0  0
  -19.1149   -7.8792   24.2650 C   0  0  0  0  0  0  0  0  0  0  0  0
  -32.4477  -22.1190   23.3510 C   0  0  0  0  0  0  0  0  0  0  0  0
  -20.3590   -5.9419   24.9974 C   0  0  0  0  0  0  0  0  0  0  0  0
  -28.7726  -17.5008   24.8618 C   0  0  0  0  0  0  0  0  0  0  0  0
  -31.2921  -17.9469   24.1000 C   0  0  0  0  0  0  0  0  0  0  0  0
  -23.8278  -10.4486   20.9625 C   0  0  0  0  0  0  0  0  0  0  0  0
  -24.1678  -12.9741   20.8437 C   0  0  0  0  0  0  0  0  0  0  0  0
  -36.6210  -28.4234   19.6317 C   0  0  0  0  0  0  0  0  0  0  0  0
  -34.5097  -23.3852   23.4176 C   0  0  0  0  0  0  0  0  0  0  0  0
  -35.6372  -27.4863   20.0012 C   0  0  0  0  0  0  0  0  0  0  0  0
  -33.7610  -22.3190   22.8991 C   0  0  0  0  0  0  0  0  0  0  0  0
  -22.3424   -8.1410   21.4636 C   0  0  0  0  0  0  0  0  0  0  0  0
  -31.8912  -22.9599   24.3145 C   0  0  0  0  0  0  0  0  0  0  0  0
  -20.8688   -6.9725   22.8726 C   0  0  0  0  0  0  0  0  0  0  0  0
  -19.3596   -6.8899   25.2174 C   0  0  0  0  0  0  0  0  0  0  0  0
  -21.1135   -5.9832   23.8250 C   0  0  0  0  0  0  0  0  0  0  0  0
  -24.5956  -11.6402   20.7041 C   0  0  0  0  0  0  0  0  0  0  0  0
  -29.6715  -18.1169   25.7044 C   0  0  0  0  0  0  0  0  0  0  0  0
  -30.3936  -17.3301   23.2576 C   0  0  0  0  0  0  0  0  0  0  0  0
  -25.2588  -13.7245   20.4789 C   0  0  0  0  0  0  0  0  0  0  0  0
  -22.8979  -13.4888   21.2656 C   0  0  0  0  0  0  0  0  0  0  0  0
  -35.6305  -23.8219   20.4753 C   0  0  0  0  0  0  0  0  0  0  0  0
  -36.4924  -20.7077   20.7610 C   0  0  0  0  0  0  0  0  0  0  0  0
  -35.9806  -17.6859   22.2622 C   0  0  0  0  0  0  0  0  0  0  0  0
  -30.7423  -14.7468   20.6571 C   0  0  0  0  0  0  0  0  0  0  0  0
  -37.6672  -28.1072   18.5924 C   0  0  0  0  0  0  0  0  0  0  0  0
  -35.9281  -23.6088   22.9697 C   0  0  0  0  0  0  0  0  0  0  0  0
  -34.3253  -21.3844   21.8616 C   0  0  0  0  0  0  0  0  0  0  0  0
  -37.8306  -26.6127   18.3277 C   0  0  0  0  0  0  0  0  0  0  0  0
  -29.6014  -12.3634   18.2707 C   0  0  0  0  0  0  0  0  0  0  0  0
  -36.4679  -25.9481   18.1602 C   0  0  0  0  0  0  0  0  0  0  0  0
  -28.1650  -12.0685   18.7063 C   0  0  0  0  0  0  0  0  0  0  0  0
  -30.5208  -12.5839   19.4700 C   0  0  0  0  0  0  0  0  0  0  0  0
  -28.6213  -13.3127   20.8609 C   0  0  0  0  0  0  0  0  0  0  0  0
  -35.6279  -26.0825   19.4360 C   0  0  1  0  0  0  0  0  0  0  0  0
  -36.2217  -23.0140   21.5959 C   0  0  1  0  0  0  0  0  0  0  0  0
  -27.6449  -13.1384   19.6851 C   0  0  2  0  0  0  0  0  0  0  0  0
  -29.1500  -18.4675   20.7227 C   0  0  0  0  0  0  0  0  0  0  0  0
  -36.8153  -15.3194   22.2613 C   0  0  0  0  0  0  0  0  0  0  0  0
  -35.0022  -20.1856   18.1501 C   0  0  0  0  0  0  0  0  0  0  0  0
  -35.0508  -17.7419   18.6921 C   0  0  0  0  0  0  0  0  0  0  0  0
  -37.1869  -18.9871   18.3619 C   0  0  0  0  0  0  0  0  0  0  0  0
  -36.7978  -17.8505   25.1020 C   0  0  0  0  0  0  0  0  0  0  0  0
  -29.2520  -18.5549   27.0786 C   0  0  0  0  0  0  0  0  0  0  0  0
  -30.5962  -17.9993   20.8300 C   0  0  0  0  0  0  0  0  0  0  0  0
  -28.7088  -19.9806   27.1051 C   0  0  0  0  0  0  0  0  0  0  0  0
  -30.3154  -23.1302   26.0875 C   0  0  0  0  0  0  0  0  0  1  0  0
  -29.2260  -22.2220   26.6242 C   0  0  0  0  0  0  0  0  0  0  0  0
  -30.8093  -16.8964   21.8955 C   0  0  2  0  0  0  0  0  0  0  0  0
  -35.8325  -19.3838   20.4596 C   0  0  1  0  0  0  0  0  0  0  0  0
  -36.9457  -16.6974   22.8913 C   0  0  2  0  0  0  0  0  0  0  0  0
  -35.7565  -19.0932   18.9340 C   0  0  0  0  0  0  0  0  0  0  0  0
  -30.9473  -18.3514   25.3386 N   0  0  0  0  0  0  0  0  0  0  0  0
  -29.1176  -17.0960   23.6234 N   0  0  0  0  0  0  0  0  0  0  0  0
  -25.8597  -11.5454   20.2833 N   0  0  0  0  0  0  0  0  0  0  0  0
  -26.2356  -12.8293   20.1552 N   0  0  0  0  0  0  0  0  0  0  0  0
  -35.7144  -21.6480   21.4512 N   0  0  0  0  0  0  0  0  0  0  0  0
  -29.9713  -13.6114   20.3578 N   0  0  0  0  0  0  0  0  0  0  0  0
  -25.4682  -15.0562   20.4065 N   0  0  0  0  0  0  0  0  0  0  0  0
  -21.8872  -12.5787   21.6042 N   0  0  0  0  0  0  0  0  0  0  0  0
  -36.0688  -25.1317   20.4340 N   0  0  0  0  0  0  0  0  0  0  0  0
  -36.5647  -18.3795   21.2234 N   0  0  0  0  0  0  0  0  0  0  0  0
  -30.1442  -15.6746   21.5011 N   0  0  0  0  0  0  0  0  0  0  0  0
  -36.6808  -16.5731   24.3525 N   0  3  0  0  0  0  0  0  0  0  0  0
  -22.6610  -14.7192   21.3244 O   0  0  0  0  0  0  0  0  0  0  0  0
  -34.8367  -23.2954   19.7044 O   0  0  0  0  0  0  0  0  0  0  0  0
  -37.6576  -20.8978   20.4036 O   0  0  0  0  0  0  0  0  0  0  0  0
  -34.8231  -17.8260   22.6509 O   0  0  0  0  0  0  0  0  0  0  0  0
  -31.8772  -14.9233   20.2013 O   0  0  0  0  0  0  0  0  0  0  0  0
  -21.6176   -7.0153   21.7085 O   0  0  0  0  0  0  0  0  0  0  0  0
  -30.6169  -22.7530   24.7447 O   0  0  0  0  0  0  0  0  0  1  0  0
  -29.6946  -20.8791   26.6157 O   0  0  0  0  0  0  0  0  0  0  0  0
  -18.6360   -6.8513   26.3439 F   0  0  0  0  0  0  0  0  0  0  0  0
  -22.0730   -5.0705   23.6198 F   0  0  0  0  0  0  0  0  0  0  0  0
  1  2  1  0  0  0  0
  1  5  2  0  0  0  0
  2  6  2  0  0  0  0
  3  8  2  0  0  0  0
  3 17  1  0  0  0  0
  4  9  1  0  0  0  0
  4 17  2  0  0  0  0
  5 19  1  0  0  0  0
  6 21  1  0  0  0  0
  7 10  2  0  0  0  0
  7 20  1  0  0  0  0
  8 23  1  0  0  0  0
  9 23  2  0  0  0  0
 10 24  1  0  0  0  0
 11 12  2  0  0  0  0
 11 25  1  0  0  0  0
 12 26  1  0  0  0  0
 13 22  1  0  0  0  0
 13 24  2  0  0  0  0
 14 26  2  0  0  0  0
 14 27  1  0  0  0  0
 15 29  2  0  0  0  0
 15 65  1  0  0  0  0
 16 30  1  0  0  0  0
 16 64  2  0  0  0  0
 17 28  1  0  0  0  0
 18 28  1  0  0  0  0
 18 31  2  0  0  0  0
 18 32  1  0  0  0  0
 19 21  2  0  0  0  0
 19 37  1  0  0  0  0
 20 22  2  0  0  0  0
 20 38  1  0  0  0  0
 21 46  1  0  0  0  0
 22 39  1  0  0  0  0
 23 81  1  0  0  0  0
 24 82  1  0  0  0  0
 25 27  2  0  0  0  0
 25 81  1  0  0  0  0
 26 84  1  0  0  0  0
 27 85  1  0  0  0  0
 28 66  2  0  0  0  0
 29 55  1  0  0  0  0
 29 64  1  0  0  0  0
 30 60  1  0  0  0  0
 30 65  2  0  0  0  0
 31 67  1  0  0  0  0
 31 70  1  0  0  0  0
 32 71  1  0  0  0  0
 32 76  2  0  0  0  0
 33 47  1  0  0  0  0
 33 72  1  0  0  0  0
 33 77  2  0  0  0  0
 34 61  1  0  0  0  0
 34 68  1  0  0  0  0
 34 78  2  0  0  0  0
 35 62  1  0  0  0  0
 35 73  1  0  0  0  0
 35 79  2  0  0  0  0
 36 69  1  0  0  0  0
 36 74  1  0  0  0  0
 36 80  2  0  0  0  0
 37 40  1  0  0  0  0
 38 47  1  0  0  0  0
 39 68  1  0  0  0  0
 40 42  1  0  0  0  0
 41 43  1  0  0  0  0
 41 44  1  0  0  0  0
 42 46  1  0  0  0  0
 43 48  1  0  0  0  0
 44 69  1  0  0  0  0
 45 48  1  0  0  0  0
 45 69  1  0  0  0  0
 46 72  1  0  0  0  0
 47 68  1  0  0  0  0
 48 67  1  0  0  0  0
 49 56  1  0  0  0  0
 50 62  1  0  0  0  0
 51 63  1  0  0  0  0
 52 63  1  0  0  0  0
 53 63  1  0  0  0  0
 54 75  1  0  0  0  0
 55 57  1  0  0  0  0
 56 60  1  0  0  0  0
 57 83  1  0  0  0  0
 58 59  1  0  0  0  0
 58 82  1  0  0  0  0
 59 83  1  0  0  0  0
 60 74  1  0  0  0  0
 61 63  1  0  0  0  0
 61 73  1  0  0  0  0
 62 75  1  0  0  0  0
 66 67  1  0  0  0  0
M  CHG  1  75   1
M  ISO  4  36 100  58 101  74 100  82 101
M  END
> <Batch ID>
0070

> <Smiles>
CCC([100NH:0][100C:0](=O)N1CCCC(n2nc(-c3ccc(Oc4ccc(F)cc4F)cc3)c(C(N)=O)c2N)C1)c1cnc(CCOC[101CH2:1][101O:1]c2ccc3c(c2)CN(C(=O)C(NC(=O)C(C)NC)C(C)(C)C)C(C(=O)NC2CCCc4ccccc42)C3)cn1

> <Shape>
0.176

> <Color>
0.184

> <Negative vol penalty>
0.000

$$$$

  -OEChem-04052318193D

 86 94  0     1  0  0  0  0  0999 V2000
  -31.6093  -32.5227   23.0426 C   0  0  0  0  0  0  0  0  0  0  0  0
  -31.4147  -31.7017   21.9364 C   0  0  0  0  0  0  0  0  0  0  0  0
  -23.6258  -12.0948   19.6996 C   0  0  0  0  0  0  0  0  0  0  0  0
  -24.8140  -12.0014   21.8012 C   0  0  0  0  0  0  0  0  0  0  0  0
  -30.9693  -32.2316   24.2465 C   0  0  0  0  0  0  0  0  0  0  0  0
  -30.5807  -30.5884   22.0340 C   0  0  0  0  0  0  0  0  0  0  0  0
  -26.9543  -28.3100   17.6563 C   0  0  0  0  0  0  0  0  0  0  0  0
  -23.4484  -10.7118   19.7385 C   0  0  0  0  0  0  0  0  0  0  0  0
  -24.6366  -10.6184   21.8400 C   0  0  0  0  0  0  0  0  0  0  0  0
  -27.1138  -27.2518   16.7628 C   0  0  0  0  0  0  0  0  0  0  0  0
  -24.1829   -7.1085   22.6723 C   0  0  0  0  0  0  0  0  0  0  0  0
  -23.7789   -6.5394   23.8800 C   0  0  0  0  0  0  0  0  0  0  0  0
  -25.9004  -25.8074   18.2663 C   0  0  0  0  0  0  0  0  0  0  0  0
  -21.7658   -7.8745   23.8356 C   0  0  0  0  0  0  0  0  0  0  0  0
  -24.3087  -12.7396   20.7310 C   0  0  0  0  0  0  0  0  0  0  0  0
  -23.6348  -15.1509   21.2202 C   0  0  0  0  0  0  0  0  0  0  0  0
  -30.1195  -31.1196   24.3562 C   0  0  0  0  0  0  0  0  0  0  0  0
  -26.2750  -28.1218   18.8685 C   0  0  0  0  0  0  0  0  0  0  0  0
  -29.9298  -30.2814   23.2410 C   0  0  0  0  0  0  0  0  0  0  0  0
  -25.7314  -26.8655   19.1723 C   0  0  0  0  0  0  0  0  0  0  0  0
  -23.9537   -9.9736   20.8086 C   0  0  0  0  0  0  0  0  0  0  0  0
  -26.5893  -25.9995   17.0690 C   0  0  0  0  0  0  0  0  0  0  0  0
  -23.3784   -8.0607   22.0463 C   0  0  0  0  0  0  0  0  0  0  0  0
  -22.5703   -6.9224   24.4616 C   0  0  0  0  0  0  0  0  0  0  0  0
  -22.1699   -8.4436   22.6280 C   0  0  0  0  0  0  0  0  0  0  0  0
  -24.4928  -14.1681   20.6912 C   0  0  0  0  0  0  0  0  0  0  0  0
  -27.0572  -22.0214   18.2002 C   0  0  0  0  0  0  0  0  0  0  0  0
  -28.0267  -22.8822   17.7536 C   0  0  0  0  0  0  0  0  0  0  0  0
  -24.2528  -16.3413   20.9247 C   0  0  0  0  0  0  0  0  0  0  0  0
  -27.6332  -22.5256   20.3248 C   0  0  0  0  0  0  0  0  0  0  0  0
  -22.3905  -15.0010   21.9166 C   0  0  0  0  0  0  0  0  0  0  0  0
  -27.0624  -28.3480   21.9398 C   0  0  0  0  0  0  0  0  0  0  0  0
  -23.8943  -27.8160   22.3894 C   0  0  0  0  0  0  0  0  0  0  0  0
  -20.9706  -26.5383   21.1785 C   0  0  0  0  0  0  0  0  0  0  0  0
  -28.8388  -19.5110   20.6644 C   0  0  0  0  0  0  0  0  0  0  0  0
  -29.4867  -30.8185   25.6917 C   0  0  0  0  0  0  0  0  0  0  0  0
  -26.0883  -29.2803   19.8095 C   0  0  0  0  0  0  0  0  0  0  0  0
  -24.9761  -26.6165   20.4513 C   0  0  0  0  0  0  0  0  0  0  0  0
  -28.3243  -29.8327   25.6065 C   0  0  0  0  0  0  0  0  0  0  0  0
  -28.1891  -17.3483   17.9117 C   0  0  0  0  0  0  0  0  0  0  0  0
  -28.7001  -28.6382   24.7355 C   0  0  0  0  0  0  0  0  0  0  0  0
  -27.1038  -16.4059   18.4351 C   0  0  0  0  0  0  0  0  0  0  0  0
  -29.1959  -17.7101   19.0014 C   0  0  0  0  0  0  0  0  0  0  0  0
  -27.5170  -17.3109   20.7608 C   0  0  0  0  0  0  0  0  0  0  0  0
  -29.0132  -29.0787   23.3004 C   0  0  1  0  0  0  0  0  0  0  0  0
  -25.8248  -28.8453   21.2479 C   0  0  1  0  0  0  0  0  0  0  0  0
  -26.4466  -16.9621   19.7126 C   0  0  2  0  0  0  0  0  0  0  0  0
  -24.9949  -20.6190   17.9423 C   0  0  0  0  0  0  0  0  0  0  0  0
  -18.5578  -26.2186   21.7897 C   0  0  0  0  0  0  0  0  0  0  0  0
  -28.2963  -24.7687   14.3857 C   0  0  0  0  0  0  0  0  0  0  0  0
  -25.9691  -21.9916   22.2332 C   0  0  0  0  0  0  0  0  0  0  0  0
  -27.7729  -23.6641   22.5568 C   0  0  0  0  0  0  0  0  0  0  0  0
  -24.6705  -25.5198   24.2427 C   0  0  0  0  0  0  0  0  0  0  0  0
  -22.3229  -24.6696   24.0583 C   0  0  0  0  0  0  0  0  0  0  0  0
  -22.7598  -26.9147   25.0538 C   0  0  0  0  0  0  0  0  0  0  0  0
  -20.0539  -28.1810   18.8937 C   0  0  0  0  0  0  0  0  0  0  0  0
  -26.1958  -21.2607   17.2513 C   0  0  0  0  0  0  0  0  0  0  0  0
  -28.2807  -23.1118   16.2824 C   0  0  0  0  0  0  0  0  0  0  0  0
  -28.3588  -21.2261   22.3928 C   0  0  0  0  0  0  0  0  0  0  0  0
  -23.0298  -26.5904   22.5610 C   0  0  1  0  0  0  0  0  0  0  0  0
  -19.5710  -27.1215   21.1035 C   0  0  2  0  0  0  0  0  0  0  0  0
  -28.0804  -24.5773   15.8816 C   0  0  2  0  0  0  0  0  0  1  0  0
  -27.4327  -22.3437   21.7898 C   0  0  0  0  0  0  0  0  0  0  0  0
  -23.2116  -25.9275   23.9556 C   0  0  0  0  0  0  0  0  0  0  0  0
  -25.5734  -14.6890   20.1039 N   0  0  0  0  0  0  0  0  0  0  0  0
  -26.8356  -21.8212   19.5082 N   0  0  0  0  0  0  0  0  0  0  0  0
  -28.7975  -23.5625   18.6213 N   0  0  0  0  0  0  0  0  0  0  0  0
  -28.6002  -23.3835   19.9440 N   0  0  0  0  0  0  0  0  0  0  0  0
  -25.3986  -16.0121   20.2621 N   0  0  0  0  0  0  0  0  0  0  0  0
  -24.8255  -27.7791   21.3419 N   0  0  0  0  0  0  0  0  0  0  0  0
  -28.5084  -18.2328   20.1845 N   0  0  0  0  0  0  0  0  0  0  0  0
  -23.9224  -17.6271   21.1694 N   0  0  0  0  0  0  0  0  0  0  0  0
  -21.8992  -13.7069   22.1360 N   0  0  0  0  0  0  0  0  0  0  0  0
  -27.7893  -29.3380   22.5729 N   0  0  0  0  0  0  0  0  0  0  0  0
  -21.6630  -27.0114   22.2731 N   0  0  0  0  0  0  0  0  0  0  0  0
  -28.1355  -19.9327   21.7861 N   0  0  0  0  0  0  0  0  0  0  0  0
  -19.1582  -27.2962   19.6822 N   0  3  0  0  0  0  0  0  0  0  0  0
  -21.7256  -15.9863   22.3175 O   0  0  0  0  0  0  0  0  0  0  0  0
  -27.3367  -27.1542   21.9032 O   0  0  0  0  0  0  0  0  0  0  0  0
  -23.7438  -28.7738   23.1521 O   0  0  0  0  0  0  0  0  0  0  0  0
  -21.4048  -25.7399   20.3512 O   0  0  0  0  0  0  0  0  0  0  0  0
  -29.6931  -20.2257   20.1294 O   0  0  0  0  0  0  0  0  0  0  0  0
  -23.7806   -8.6241   20.8470 O   0  0  0  0  0  0  0  0  0  0  0  0
  -26.7441  -24.9647   16.1989 O   0  0  0  0  0  0  0  0  0  1  0  0
  -22.1817   -6.3746   25.6206 F   0  0  0  0  0  0  0  0  0  0  0  0
  -21.3922   -9.3570   22.0307 F   0  0  0  0  0  0  0  0  0  0  0  0
  1  2  1  0  0  0  0
  1  5  2  0  0  0  0
  2  6  2  0  0  0  0
  3  8  2  0  0  0  0
  3 15  1  0  0  0  0
  4  9  1  0  0  0  0
  4 15  2  0  0  0  0
  5 17  1  0  0  0  0
  6 19  1  0  0  0  0
  7 10  2  0  0  0  0
  7 18  1  0  0  0  0
  8 21  1  0  0  0  0
  9 21  2  0  0  0  0
 10 22  1  0  0  0  0
 11 12  2  0  0  0  0
 11 23  1  0  0  0  0
 12 24  1  0  0  0  0
 13 20  1  0  0  0  0
 13 22  2  0  0  0  0
 14 24  2  0  0  0  0
 14 25  1  0  0  0  0
 15 26  1  0  0  0  0
 16 26  1  0  0  0  0
 16 29  2  0  0  0  0
 16 31  1  0  0  0  0
 17 19  2  0  0  0  0
 17 36  1  0  0  0  0
 18 20  2  0  0  0  0
 18 37  1  0  0  0  0
 19 45  1  0  0  0  0
 20 38  1  0  0  0  0
 21 83  1  0  0  0  0
 22 84  1  0  0  0  0
 23 25  2  0  0  0  0
 23 83  1  0  0  0  0
 24 85  1  0  0  0  0
 25 86  1  0  0  0  0
 26 65  2  0  0  0  0
 27 28  2  0  0  0  0
 27 57  1  0  0  0  0
 27 66  1  0  0  0  0
 28 58  1  0  0  0  0
 28 67  1  0  0  0  0
 29 69  1  0  0  0  0
 29 72  1  0  0  0  0
 30 63  1  0  0  0  0
 30 66  2  0  0  0  0
 30 68  1  0  0  0  0
 31 73  1  0  0  0  0
 31 78  2  0  0  0  0
 32 46  1  0  0  0  0
 32 74  1  0  0  0  0
 32 79  2  0  0  0  0
 33 60  1  0  0  0  0
 33 70  1  0  0  0  0
 33 80  2  0  0  0  0
 34 61  1  0  0  0  0
 34 75  1  0  0  0  0
 34 81  2  0  0  0  0
 35 71  1  0  0  0  0
 35 76  1  0  0  0  0
 35 82  2  0  0  0  0
 36 39  1  0  0  0  0
 37 46  1  0  0  0  0
 38 70  1  0  0  0  0
 39 41  1  0  0  0  0
 40 42  1  0  0  0  0
 40 43  1  0  0  0  0
 41 45  1  0  0  0  0
 42 47  1  0  0  0  0
 43 71  1  0  0  0  0
 44 47  1  0  0  0  0
 44 71  1  0  0  0  0
 45 74  1  0  0  0  0
 46 70  1  0  0  0  0
 47 69  1  0  0  0  0
 48 57  1  0  0  0  0
 49 61  1  0  0  0  0
 50 62  1  0  0  0  0
 51 63  1  0  0  0  0
 52 63  1  0  0  0  0
 53 64  1  0  0  0  0
 54 64  1  0  0  0  0
 55 64  1  0  0  0  0
 56 77  1  0  0  0  0
 58 62  1  0  0  0  0
 59 63  1  0  0  0  0
 59 76  1  0  0  0  0
 60 64  1  0  0  0  0
 60 75  1  0  0  0  0
 61 77  1  0  0  0  0
 62 84  1  0  0  0  0
 65 69  1  0  0  0  0
 67 68  2  0  0  0  0
M  CHG  1  77   1
M  ISO  4  35 100  62 101  76 100  84 101
M  END
> <Batch ID>
0070

> <Smiles>
CCc1nc(C(C)(C)C[100NH:0][100C:0](=O)N2CCCC(n3nc(-c4ccc(Oc5ccc(F)cc5F)cc4)c(C(N)=O)c3N)C2)nnc1C[101CH:1](C)[101O:1]c1ccc2c(c1)CN(C(=O)C(NC(=O)C(C)NC)C(C)(C)C)C(C(=O)NC1CCCc3ccccc31)C2

> <Shape>
0.216

> <Color>
0.083

> <Negative vol penalty>
0.000

$$$$

  -OEChem-04052318193D

 86 94  0     1  0  0  0  0  0999 V2000
  -19.6887  -33.9523   20.9990 C   0  0  0  0  0  0  0  0  0  0  0  0
  -20.9685  -33.5073   20.6836 C   0  0  0  0  0  0  0  0  0  0  0  0
  -24.4734   -8.9450   21.3522 C   0  0  0  0  0  0  0  0  0  0  0  0
  -22.7558  -10.6295   21.5740 C   0  0  0  0  0  0  0  0  0  0  0  0
  -18.9671  -33.3309   22.0173 C   0  0  0  0  0  0  0  0  0  0  0  0
  -21.5280  -32.4413   21.3872 C   0  0  0  0  0  0  0  0  0  0  0  0
  -25.2840  -28.1384   19.1776 C   0  0  0  0  0  0  0  0  0  0  0  0
  -23.8607   -8.1887   22.3513 C   0  0  0  0  0  0  0  0  0  0  0  0
  -22.1431   -9.8733   22.5732 C   0  0  0  0  0  0  0  0  0  0  0  0
  -26.6700  -27.9931   19.2169 C   0  0  0  0  0  0  0  0  0  0  0  0
  -22.5490   -5.6438   24.5914 C   0  0  0  0  0  0  0  0  0  0  0  0
  -22.4068   -4.2736   24.3724 C   0  0  0  0  0  0  0  0  0  0  0  0
  -26.4591  -26.5604   21.1462 C   0  0  0  0  0  0  0  0  0  0  0  0
  -21.0758   -4.7258   22.4074 C   0  0  0  0  0  0  0  0  0  0  0  0
  -23.9209  -10.1654   20.9635 C   0  0  0  0  0  0  0  0  0  0  0  0
  -24.3109  -10.8826   18.5467 C   0  0  0  0  0  0  0  0  0  0  0  0
  -19.5142  -32.2505   22.7273 C   0  0  0  0  0  0  0  0  0  0  0  0
  -24.4745  -27.5035   20.1305 C   0  0  0  0  0  0  0  0  0  0  0  0
  -20.8135  -31.8058   22.4169 C   0  0  0  0  0  0  0  0  0  0  0  0
  -25.0629  -26.6972   21.1152 C   0  0  0  0  0  0  0  0  0  0  0  0
  -22.6956   -8.6528   22.9618 C   0  0  0  0  0  0  0  0  0  0  0  0
  -27.2580  -27.2064   20.2030 C   0  0  0  0  0  0  0  0  0  0  0  0
  -21.9546   -6.5550   23.7184 C   0  0  0  0  0  0  0  0  0  0  0  0
  -21.6702   -3.8146   23.2804 C   0  0  0  0  0  0  0  0  0  0  0  0
  -21.2181   -6.0960   22.6264 C   0  0  0  0  0  0  0  0  0  0  0  0
  -24.5536  -10.9474   19.9318 C   0  0  0  0  0  0  0  0  0  0  0  0
  -25.1579  -11.8187   18.0055 C   0  0  0  0  0  0  0  0  0  0  0  0
  -29.3566  -21.8272   21.4157 C   0  0  0  0  0  0  0  0  0  0  0  0
  -23.4011  -10.0507   17.8146 C   0  0  0  0  0  0  0  0  0  0  0  0
  -22.4527  -28.4945   22.3742 C   0  0  0  0  0  0  0  0  0  0  0  0
  -21.8627  -25.3209   22.6943 C   0  0  0  0  0  0  0  0  0  0  0  0
  -22.9580  -22.1147   22.2850 C   0  0  0  0  0  0  0  0  0  0  0  0
  -27.6312  -16.6350   20.7630 C   0  0  0  0  0  0  0  0  0  0  0  0
  -18.7146  -31.6412   23.8516 C   0  0  0  0  0  0  0  0  0  0  0  0
  -22.9791  -27.6487   20.0583 C   0  0  0  0  0  0  0  0  0  0  0  0
  -24.2368  -25.9781   22.1492 C   0  0  0  0  0  0  0  0  0  0  0  0
  -19.2327  -30.2762   24.2974 C   0  0  0  0  0  0  0  0  0  0  0  0
  -29.3477  -13.9782   18.7664 C   0  0  0  0  0  0  0  0  0  0  0  0
  -20.7483  -30.3099   24.4673 C   0  0  0  0  0  0  0  0  0  0  0  0
  -28.2957  -12.8704   18.7899 C   0  0  0  0  0  0  0  0  0  0  0  0
  -29.2558  -14.8530   20.0108 C   0  0  0  0  0  0  0  0  0  0  0  0
  -26.8469  -14.3494   20.2556 C   0  0  0  0  0  0  0  0  0  0  0  0
  -21.4449  -30.6364   23.1408 C   0  0  1  0  0  0  0  0  0  0  0  0
  -22.2869  -27.3719   21.3893 C   0  0  1  0  0  0  0  0  0  0  0  0
  -26.8886  -13.4524   19.0072 C   0  0  2  0  0  0  0  0  0  0  0  0
  -26.9610  -21.4383   20.7816 C   0  0  0  0  0  0  0  0  0  0  0  0
  -22.2697  -19.7331   22.6744 C   0  0  0  0  0  0  0  0  0  0  0  0
  -22.4593  -25.6376   25.6698 C   0  0  0  0  0  0  0  0  0  0  0  0
  -22.6922  -23.1491   25.8167 C   0  0  0  0  0  0  0  0  0  0  0  0
  -20.5112  -24.1586   25.1480 C   0  0  0  0  0  0  0  0  0  0  0  0
  -30.1271  -16.9968   20.9612 C   0  0  0  0  0  0  0  0  0  0  0  0
  -23.0870  -21.4834   19.3965 C   0  0  0  0  0  0  0  0  0  0  0  0
  -30.2569  -24.8126   19.3529 C   0  0  0  0  0  0  0  0  0  0  0  0
  -31.5376  -23.9792   19.4335 C   0  0  0  0  0  0  0  0  0  0  0  0
  -30.5691  -26.2833   19.0613 C   0  0  0  0  0  0  0  0  0  0  0  0
  -28.6882  -19.7060   20.1527 C   0  0  0  0  0  0  0  0  0  0  0  0
  -31.2285  -22.5176   19.7652 C   0  0  0  0  0  0  0  0  0  0  0  0
  -28.5422  -18.8356   21.4011 C   0  0  0  0  0  0  0  0  0  0  0  0
  -29.3098  -27.1393   19.0023 C   0  0  0  0  0  0  0  0  0  1  0  0
  -28.4546  -21.2303   20.4177 C   0  0  2  0  0  0  0  0  0  0  0  0
  -22.4477  -24.2031   23.5232 C   0  0  1  0  0  0  0  0  0  0  0  0
  -22.2886  -20.8902   21.6877 C   0  0  2  0  0  0  0  0  0  0  0  0
  -22.0436  -24.3021   25.0213 C   0  0  0  0  0  0  0  0  0  0  0  0
  -25.4822  -11.8529   20.2508 N   0  0  0  0  0  0  0  0  0  0  0  0
  -29.1714  -21.9254   22.7120 N   0  0  0  0  0  0  0  0  0  0  0  0
  -30.2927  -22.5572   23.2004 N   0  0  0  0  0  0  0  0  0  0  0  0
  -31.1457  -22.8384   22.2230 N   0  0  0  0  0  0  0  0  0  0  0  0
  -25.8305  -12.3657   19.0584 N   0  0  0  0  0  0  0  0  0  0  0  0
  -30.5582  -22.3812   21.1084 N   0  0  0  0  0  0  0  0  0  0  0  0
  -22.7795  -26.1564   22.0405 N   0  0  0  0  0  0  0  0  0  0  0  0
  -27.8957  -15.3709   20.2107 N   0  0  0  0  0  0  0  0  0  0  0  0
  -25.3856  -12.2190   16.7365 N   0  0  0  0  0  0  0  0  0  0  0  0
  -22.6045   -9.1437   18.5267 N   0  0  0  0  0  0  0  0  0  0  0  0
  -21.4769  -29.4690   22.2861 N   0  0  0  0  0  0  0  0  0  0  0  0
  -22.0427  -22.9599   22.8759 N   0  0  0  0  0  0  0  0  0  0  0  0
  -28.7377  -17.4205   21.1196 N   0  0  0  0  0  0  0  0  0  0  0  0
  -23.0127  -20.4504   20.4616 N   0  3  0  0  0  0  0  0  0  0  0  0
  -23.3094  -10.0984   16.5644 O   0  0  0  0  0  0  0  0  0  0  0  0
  -23.3953  -28.4772   23.1571 O   0  0  0  0  0  0  0  0  0  0  0  0
  -20.6374  -25.4439   22.6235 O   0  0  0  0  0  0  0  0  0  0  0  0
  -24.1718  -22.3010   22.2359 O   0  0  0  0  0  0  0  0  0  0  0  0
  -26.4728  -17.0423   20.9183 O   0  0  0  0  0  0  0  0  0  0  0  0
  -22.0974   -7.9150   23.9367 O   0  0  0  0  0  0  0  0  0  0  0  0
  -28.6107  -27.0634   20.2440 O   0  0  0  0  0  0  0  0  0  1  0  0
  -21.5350   -2.4988   23.0694 F   0  0  0  0  0  0  0  0  0  0  0  0
  -20.6457   -6.9666   21.7836 F   0  0  0  0  0  0  0  0  0  0  0  0
  1  2  1  0  0  0  0
  1  5  2  0  0  0  0
  2  6  2  0  0  0  0
  3  8  2  0  0  0  0
  3 15  1  0  0  0  0
  4  9  1  0  0  0  0
  4 15  2  0  0  0  0
  5 17  1  0  0  0  0
  6 19  1  0  0  0  0
  7 10  2  0  0  0  0
  7 18  1  0  0  0  0
  8 21  1  0  0  0  0
  9 21  2  0  0  0  0
 10 22  1  0  0  0  0
 11 12  2  0  0  0  0
 11 23  1  0  0  0  0
 12 24  1  0  0  0  0
 13 20  1  0  0  0  0
 13 22  2  0  0  0  0
 14 24  2  0  0  0  0
 14 25  1  0  0  0  0
 15 26  1  0  0  0  0
 16 26  1  0  0  0  0
 16 27  2  0  0  0  0
 16 29  1  0  0  0  0
 17 19  2  0  0  0  0
 17 34  1  0  0  0  0
 18 20  2  0  0  0  0
 18 35  1  0  0  0  0
 19 43  1  0  0  0  0
 20 36  1  0  0  0  0
 21 83  1  0  0  0  0
 22 84  1  0  0  0  0
 23 25  2  0  0  0  0
 23 83  1  0  0  0  0
 24 85  1  0  0  0  0
 25 86  1  0  0  0  0
 26 64  2  0  0  0  0
 27 68  1  0  0  0  0
 27 72  1  0  0  0  0
 28 60  1  0  0  0  0
 28 65  2  0  0  0  0
 28 69  1  0  0  0  0
 29 73  1  0  0  0  0
 29 78  2  0  0  0  0
 30 44  1  0  0  0  0
 30 74  1  0  0  0  0
 30 79  2  0  0  0  0
 31 61  1  0  0  0  0
 31 70  1  0  0  0  0
 31 80  2  0  0  0  0
 32 62  1  0  0  0  0
 32 75  1  0  0  0  0
 32 81  2  0  0  0  0
 33 71  1  0  0  0  0
 33 76  1  0  0  0  0
 33 82  2  0  0  0  0
 34 37  1  0  0  0  0
 35 44  1  0  0  0  0
 36 70  1  0  0  0  0
 37 39  1  0  0  0  0
 38 40  1  0  0  0  0
 38 41  1  0  0  0  0
 39 43  1  0  0  0  0
 40 45  1  0  0  0  0
 41 71  1  0  0  0  0
 42 45  1  0  0  0  0
 42 71  1  0  0  0  0
 43 74  1  0  0  0  0
 44 70  1  0  0  0  0
 45 68  1  0  0  0  0
 46 60  1  0  0  0  0
 47 62  1  0  0  0  0
 48 63  1  0  0  0  0
 49 63  1  0  0  0  0
 50 63  1  0  0  0  0
 51 76  1  0  0  0  0
 52 77  1  0  0  0  0
 53 54  1  0  0  0  0
 53 55  1  0  0  0  0
 54 57  1  0  0  0  0
 55 59  1  0  0  0  0
 56 58  1  0  0  0  0
 56 60  1  0  0  0  0
 57 69  1  0  0  0  0
 58 76  1  0  0  0  0
 59 84  1  0  0  0  0
 61 63  1  0  0  0  0
 61 75  1  0  0  0  0
 62 77  1  0  0  0  0
 64 68  1  0  0  0  0
 65 66  1  0  0  0  0
 66 67  2  0  0  0  0
 67 69  1  0  0  0  0
M  CHG  1  77   1
M  ISO  4  33 100  59 101  76 100  84 101
M  END
> <Batch ID>
0070

> <Smiles>
CNC(C)C(=O)NC(C(=O)N1Cc2cc([101O:1][101CH2:1]CCCCn3nnnc3C(C)CC[100N:0](C)[100C:0](=O)N3CCCC(n4nc(-c5ccc(Oc6ccc(F)cc6F)cc5)c(C(N)=O)c4N)C3)ccc2CC1C(=O)NC1CCCc2ccccc21)C(C)(C)C

> <Shape>
0.251

> <Color>
0.103

> <Negative vol penalty>
0.000

$$$$

  -OEChem-04052318193D

 86 94  0     1  0  0  0  0  0999 V2000
  -29.6848  -31.0847   22.4588 C   0  0  0  0  0  0  0  0  0  0  0  0
  -29.0526  -29.9529   22.9636 C   0  0  0  0  0  0  0  0  0  0  0  0
  -23.9391  -10.3471   23.0344 C   0  0  0  0  0  0  0  0  0  0  0  0
  -24.3308  -12.3424   24.3391 C   0  0  0  0  0  0  0  0  0  0  0  0
  -28.9658  -32.2676   22.2924 C   0  0  0  0  0  0  0  0  0  0  0  0
  -27.7011  -30.0037   23.3033 C   0  0  0  0  0  0  0  0  0  0  0  0
  -25.1282  -25.9694   21.6451 C   0  0  0  0  0  0  0  0  0  0  0  0
  -23.4435   -9.7031   24.1681 C   0  0  0  0  0  0  0  0  0  0  0  0
  -23.8351  -11.6985   25.4728 C   0  0  0  0  0  0  0  0  0  0  0  0
  -25.2593  -24.7875   22.3728 C   0  0  0  0  0  0  0  0  0  0  0  0
  -20.5669   -9.6488   25.9444 C   0  0  0  0  0  0  0  0  0  0  0  0
  -19.3899   -8.9127   25.8092 C   0  0  0  0  0  0  0  0  0  0  0  0
  -27.4551  -19.2065   25.2486 C   0  0  0  0  0  0  0  0  0  0  0  0
  -28.0450  -18.3367   24.3484 C   0  0  0  0  0  0  0  0  0  0  0  0
  -23.1483  -25.2266   23.4546 C   0  0  0  0  0  0  0  0  0  0  0  0
  -20.5591   -6.9157   26.5037 C   0  0  0  0  0  0  0  0  0  0  0  0
  -24.3828  -11.6667   23.1199 C   0  0  0  0  0  0  0  0  0  0  0  0
  -24.1651  -13.0882   21.0129 C   0  0  0  0  0  0  0  0  0  0  0  0
  -27.6024  -32.3302   22.6211 C   0  0  0  0  0  0  0  0  0  0  0  0
  -24.0096  -26.7957   21.8249 C   0  0  0  0  0  0  0  0  0  0  0  0
  -26.9635  -31.1890   23.1423 C   0  0  0  0  0  0  0  0  0  0  0  0
  -23.0042  -26.4172   22.7261 C   0  0  0  0  0  0  0  0  0  0  0  0
  -23.3915  -10.3788   25.3872 C   0  0  0  0  0  0  0  0  0  0  0  0
  -24.2707  -24.4174   23.2799 C   0  0  0  0  0  0  0  0  0  0  0  0
  -21.7401   -9.0184   26.3592 C   0  0  0  0  0  0  0  0  0  0  0  0
  -19.3859   -7.5462   26.0889 C   0  0  0  0  0  0  0  0  0  0  0  0
  -21.7361   -7.6519   26.6388 C   0  0  0  0  0  0  0  0  0  0  0  0
  -24.8955  -12.3323   21.9493 C   0  0  0  0  0  0  0  0  0  0  0  0
  -27.6870  -20.5577   25.0880 C   0  0  0  0  0  0  0  0  0  0  0  0
  -28.8273  -18.8757   23.3469 C   0  0  0  0  0  0  0  0  0  0  0  0
  -25.1033  -13.5024   20.0992 C   0  0  0  0  0  0  0  0  0  0  0  0
  -22.7638  -13.3891   20.9725 C   0  0  0  0  0  0  0  0  0  0  0  0
  -23.5626  -29.7798   22.8246 C   0  0  0  0  0  0  0  0  0  0  0  0
  -20.4916  -29.1966   21.9577 C   0  0  0  0  0  0  0  0  0  0  0  0
  -18.0285  -26.9052   21.3839 C   0  0  0  0  0  0  0  0  0  0  0  0
  -31.0193  -14.3620   20.4344 C   0  0  0  0  0  0  0  0  0  0  0  0
  -26.8785  -33.6444   22.4683 C   0  0  0  0  0  0  0  0  0  0  0  0
  -23.8702  -28.0540   21.0127 C   0  0  0  0  0  0  0  0  0  0  0  0
  -21.7740  -27.2591   22.9411 C   0  0  0  0  0  0  0  0  0  0  0  0
  -25.3582  -33.5097   22.5003 C   0  0  0  0  0  0  0  0  0  0  0  0
  -29.2930  -12.2080   18.1857 C   0  0  0  0  0  0  0  0  0  0  0  0
  -24.9260  -32.6137   23.6566 C   0  0  0  0  0  0  0  0  0  0  0  0
  -27.9043  -12.0638   18.8108 C   0  0  0  0  0  0  0  0  0  0  0  0
  -30.3860  -12.2807   19.2496 C   0  0  0  0  0  0  0  0  0  0  0  0
  -28.7918  -13.1728   20.9039 C   0  0  0  0  0  0  0  0  0  0  0  0
  -25.4928  -31.1976   23.4990 C   0  0  1  0  0  0  0  0  0  0  0  0
  -22.9375  -29.0778   21.6523 C   0  0  1  0  0  0  0  0  0  0  0  0
  -27.6513  -13.1516   19.8719 C   0  0  2  0  0  0  0  0  0  0  0  0
  -29.4837  -18.6070   20.9271 C   0  0  0  0  0  0  0  0  0  0  0  0
  -15.6134  -26.7326   20.7241 C   0  0  0  0  0  0  0  0  0  0  0  0
  -19.6656  -30.0717   24.7616 C   0  0  0  0  0  0  0  0  0  0  0  0
  -17.4392  -28.9972   24.3655 C   0  0  0  0  0  0  0  0  0  0  0  0
  -18.1774  -30.8988   22.9297 C   0  0  0  0  0  0  0  0  0  0  0  0
  -31.9507  -18.5282   22.9766 C   0  0  0  0  0  0  0  0  0  0  0  0
  -30.7944  -16.6225   24.0951 C   0  0  0  0  0  0  0  0  0  0  0  0
  -18.6836  -25.3486   18.9535 C   0  0  0  0  0  0  0  0  0  0  0  0
  -27.0699  -21.5483   26.0427 C   0  0  0  0  0  0  0  0  0  0  0  0
  -25.6920  -22.0495   25.6049 C   0  0  0  0  0  0  0  0  0  0  0  0
  -31.5061  -16.4459   21.6912 C   0  0  0  0  0  0  0  0  0  0  0  0
  -25.7213  -22.8302   24.2960 C   0  0  0  0  0  0  0  0  0  1  0  0
  -29.4818  -17.9818   22.3500 C   0  0  1  0  0  0  0  0  0  0  0  0
  -19.2728  -28.6373   22.6511 C   0  0  1  0  0  0  0  0  0  0  0  0
  -17.0526  -26.7424   20.2326 C   0  0  2  0  0  0  0  0  0  0  0  0
  -18.6628  -29.6362   23.6746 C   0  0  0  0  0  0  0  0  0  0  0  0
  -30.9126  -17.4042   22.7641 C   0  0  0  0  0  0  0  0  0  0  0  0
  -26.1973  -12.2682   21.6573 N   0  0  0  0  0  0  0  0  0  0  0  0
  -28.4573  -21.0574   24.0985 N   0  0  0  0  0  0  0  0  0  0  0  0
  -29.0367  -20.2025   23.2135 N   0  0  0  0  0  0  0  0  0  0  0  0
  -26.2922  -12.9891   20.5271 N   0  0  0  0  0  0  0  0  0  0  0  0
  -21.6867  -28.4833   22.1280 N   0  0  0  0  0  0  0  0  0  0  0  0
  -30.0868  -13.3328   20.2240 N   0  0  0  0  0  0  0  0  0  0  0  0
  -25.0189  -14.2519   18.9796 N   0  0  0  0  0  0  0  0  0  0  0  0
  -21.9425  -12.8843   21.9898 N   0  0  0  0  0  0  0  0  0  0  0  0
  -24.7297  -30.4538   22.5198 N   0  0  0  0  0  0  0  0  0  0  0  0
  -18.3537  -28.2285   21.5944 N   0  0  0  0  0  0  0  0  0  0  0  0
  -30.6546  -15.3222   21.3702 N   0  0  0  0  0  0  0  0  0  0  0  0
  -17.3114  -25.4644   19.5109 N   0  3  0  0  0  0  0  0  0  0  0  0
  -22.2525  -14.0714   20.0524 O   0  0  0  0  0  0  0  0  0  0  0  0
  -23.0250  -29.7159   23.9240 O   0  0  0  0  0  0  0  0  0  0  0  0
  -20.3857  -30.2243   21.2838 O   0  0  0  0  0  0  0  0  0  0  0  0
  -18.4564  -25.9540   22.0340 O   0  0  0  0  0  0  0  0  0  0  0  0
  -32.0948  -14.4236   19.8290 O   0  0  0  0  0  0  0  0  0  0  0  0
  -22.9076   -9.7508   26.4936 O   0  0  0  0  0  0  0  0  0  0  0  0
  -24.3964  -23.2645   23.9919 O   0  0  0  0  0  0  0  0  0  1  0  0
  -18.2552   -6.8397   25.9606 F   0  0  0  0  0  0  0  0  0  0  0  0
  -22.8598   -7.0410   27.0388 F   0  0  0  0  0  0  0  0  0  0  0  0
  1  2  1  0  0  0  0
  1  5  2  0  0  0  0
  2  6  2  0  0  0  0
  3  8  2  0  0  0  0
  3 17  1  0  0  0  0
  4  9  1  0  0  0  0
  4 17  2  0  0  0  0
  5 19  1  0  0  0  0
  6 21  1  0  0  0  0
  7 10  2  0  0  0  0
  7 20  1  0  0  0  0
  8 23  1  0  0  0  0
  9 23  2  0  0  0  0
 10 24  1  0  0  0  0
 11 12  2  0  0  0  0
 11 25  1  0  0  0  0
 12 26  1  0  0  0  0
 13 14  2  0  0  0  0
 13 29  1  0  0  0  0
 14 30  1  0  0  0  0
 15 22  1  0  0  0  0
 15 24  2  0  0  0  0
 16 26  2  0  0  0  0
 16 27  1  0  0  0  0
 17 28  1  0  0  0  0
 18 28  1  0  0  0  0
 18 31  2  0  0  0  0
 18 32  1  0  0  0  0
 19 21  2  0  0  0  0
 19 37  1  0  0  0  0
 20 22  2  0  0  0  0
 20 38  1  0  0  0  0
 21 46  1  0  0  0  0
 22 39  1  0  0  0  0
 23 83  1  0  0  0  0
 24 84  1  0  0  0  0
 25 27  2  0  0  0  0
 25 83  1  0  0  0  0
 26 85  1  0  0  0  0
 27 86  1  0  0  0  0
 28 66  2  0  0  0  0
 29 57  1  0  0  0  0
 29 67  2  0  0  0  0
 30 61  1  0  0  0  0
 30 68  2  0  0  0  0
 31 69  1  0  0  0  0
 31 72  1  0  0  0  0
 32 73  1  0  0  0  0
 32 78  2  0  0  0  0
 33 47  1  0  0  0  0
 33 74  1  0  0  0  0
 33 79  2  0  0  0  0
 34 62  1  0  0  0  0
 34 70  1  0  0  0  0
 34 80  2  0  0  0  0
 35 63  1  0  0  0  0
 35 75  1  0  0  0  0
 35 81  2  0  0  0  0
 36 71  1  0  0  0  0
 36 76  1  0  0  0  0
 36 82  2  0  0  0  0
 37 40  1  0  0  0  0
 38 47  1  0  0  0  0
 39 70  1  0  0  0  0
 40 42  1  0  0  0  0
 41 43  1  0  0  0  0
 41 44  1  0  0  0  0
 42 46  1  0  0  0  0
 43 48  1  0  0  0  0
 44 71  1  0  0  0  0
 45 48  1  0  0  0  0
 45 71  1  0  0  0  0
 46 74  1  0  0  0  0
 47 70  1  0  0  0  0
 48 69  1  0  0  0  0
 49 61  1  0  0  0  0
 50 63  1  0  0  0  0
 51 64  1  0  0  0  0
 52 64  1  0  0  0  0
 53 64  1  0  0  0  0
 54 65  1  0  0  0  0
 55 65  1  0  0  0  0
 56 77  1  0  0  0  0
 57 58  1  0  0  0  0
 58 60  1  0  0  0  0
 59 65  1  0  0  0  0
 59 76  1  0  0  0  0
 60 84  1  0  0  0  0
 61 65  1  0  0  0  0
 62 64  1  0  0  0  0
 62 75  1  0  0  0  0
 63 77  1  0  0  0  0
 66 69  1  0  0  0  0
 67 68  1  0  0  0  0
M  CHG  1  77   1
M  ISO  4  36 100  60 101  76 100  84 101
M  END
> <Batch ID>
0070

> <Smiles>
CNC(C)C(=O)NC(C(=O)N1Cc2cc([101O:1][101CH2:1]CCc3ccc(C(C)C(C)(C)C[100NH:0][100C:0](=O)N4CCCC(n5nc(-c6ccc(Oc7ccc(F)cc7F)cc6)c(C(N)=O)c5N)C4)nn3)ccc2CC1C(=O)NC1CCCc2ccccc21)C(C)(C)C

> <Shape>
0.249

> <Color>
0.088

> <Negative vol penalty>
0.000

$$$$

  -OEChem-04052318193D

 82 90  0     1  0  0  0  0  0999 V2000
  -29.3124  -10.3197   16.1901 C   0  0  0  0  0  0  0  0  0  0  0  0
  -28.2346  -11.1579   15.9233 C   0  0  0  0  0  0  0  0  0  0  0  0
  -25.8053  -29.7410   22.0790 C   0  0  0  0  0  0  0  0  0  0  0  0
  -23.6630  -29.7815   20.9626 C   0  0  0  0  0  0  0  0  0  0  0  0
  -29.9933  -10.4259   17.4021 C   0  0  0  0  0  0  0  0  0  0  0  0
  -27.8364  -12.1021   16.8690 C   0  0  0  0  0  0  0  0  0  0  0  0
  -25.5653  -17.6823   15.7693 C   0  0  0  0  0  0  0  0  0  0  0  0
  -25.4049  -30.8060   22.8859 C   0  0  0  0  0  0  0  0  0  0  0  0
  -23.2627  -30.8465   21.7696 C   0  0  0  0  0  0  0  0  0  0  0  0
  -24.2616  -18.1755   15.7408 C   0  0  0  0  0  0  0  0  0  0  0  0
  -23.4800  -31.2679   25.6270 C   0  0  0  0  0  0  0  0  0  0  0  0
  -23.7498  -31.1835   26.9929 C   0  0  0  0  0  0  0  0  0  0  0  0
  -24.5002  -18.9211   18.0225 C   0  0  0  0  0  0  0  0  0  0  0  0
  -25.0837  -33.1931   26.8536 C   0  0  0  0  0  0  0  0  0  0  0  0
  -22.0016  -23.0279   15.3427 C   0  0  0  0  0  0  0  0  0  0  0  0
  -21.5895  -21.0386   14.4887 C   0  0  0  0  0  0  0  0  0  0  0  0
  -24.9343  -29.2288   21.1173 C   0  0  0  0  0  0  0  0  0  0  0  0
  -25.1848  -26.7554   20.5450 C   0  0  0  0  0  0  0  0  0  0  0  0
  -29.6093  -11.3784   18.3591 C   0  0  0  0  0  0  0  0  0  0  0  0
  -26.3438  -17.7953   16.9301 C   0  0  0  0  0  0  0  0  0  0  0  0
  -28.5119  -12.2203   18.0955 C   0  0  0  0  0  0  0  0  0  0  0  0
  -25.8144  -18.4308   18.0623 C   0  0  0  0  0  0  0  0  0  0  0  0
  -24.1336  -31.3587   22.7312 C   0  0  0  0  0  0  0  0  0  0  0  0
  -23.7278  -18.7925   16.8685 C   0  0  0  0  0  0  0  0  0  0  0  0
  -24.0121  -32.3149   24.8744 C   0  0  0  0  0  0  0  0  0  0  0  0
  -24.5517  -32.1461   27.6062 C   0  0  0  0  0  0  0  0  0  0  0  0
  -24.8139  -33.2775   25.4877 C   0  0  0  0  0  0  0  0  0  0  0  0
  -25.3475  -28.1290   20.2831 C   0  0  0  0  0  0  0  0  0  0  0  0
  -22.2846  -22.9895   13.9977 C   0  0  0  0  0  0  0  0  0  0  0  0
  -25.7398  -26.1300   19.4554 C   0  0  0  0  0  0  0  0  0  0  0  0
  -24.5855  -26.1032   21.6724 C   0  0  0  0  0  0  0  0  0  0  0  0
  -27.7117  -15.7313   18.9233 C   0  0  0  0  0  0  0  0  0  0  0  0
  -28.9651  -18.4224   20.2306 C   0  0  0  0  0  0  0  0  0  0  0  0
  -28.7192  -21.7907   20.7215 C   0  0  0  0  0  0  0  0  0  0  0  0
  -26.4563  -25.6900   13.9383 C   0  0  0  0  0  0  0  0  0  0  0  0
  -30.3460  -11.4239   19.6743 C   0  0  0  0  0  0  0  0  0  0  0  0
  -27.7576  -17.2820   16.9360 C   0  0  0  0  0  0  0  0  0  0  0  0
  -26.6159  -18.5954   19.3269 C   0  0  0  0  0  0  0  0  0  0  0  0
  -30.0964  -12.7035   20.4684 C   0  0  0  0  0  0  0  0  0  0  0  0
  -28.5576  -27.9753   15.6816 C   0  0  0  0  0  0  0  0  0  0  0  0
  -28.6067  -13.0303   20.4998 C   0  0  0  0  0  0  0  0  0  0  0  0
  -27.8930  -28.1103   17.0527 C   0  0  0  0  0  0  0  0  0  0  0  0
  -27.5250  -27.8351   14.5653 C   0  0  0  0  0  0  0  0  0  0  0  0
  -25.8771  -26.8888   16.1346 C   0  0  0  0  0  0  0  0  0  0  0  0
  -28.0654  -13.2738   19.0859 C   0  0  1  0  0  0  0  0  0  0  0  0
  -28.2824  -16.9924   18.3389 C   0  0  1  0  0  0  0  0  0  0  0  0
  -26.8791  -26.9767   17.2984 C   0  0  2  0  0  0  0  0  0  0  0  0
  -21.7841  -24.4743   12.0389 C   0  0  0  0  0  0  0  0  0  0  0  0
  -29.8728  -23.7043   21.8638 C   0  0  0  0  0  0  0  0  0  0  0  0
  -27.8619  -17.4817   22.9154 C   0  0  0  0  0  0  0  0  0  0  0  0
  -28.1926  -19.8054   23.7867 C   0  0  0  0  0  0  0  0  0  0  0  0
  -30.1561  -18.4717   23.0194 C   0  0  0  0  0  0  0  0  0  0  0  0
  -29.1851  -23.1923   18.1569 C   0  0  0  0  0  0  0  0  0  0  0  0
  -24.1738  -23.7750   12.4631 C   0  0  0  0  0  0  0  0  0  0  0  0
  -21.1175  -21.2785   17.0001 C   0  0  0  0  0  0  0  0  0  0  0  0
  -25.3124  -23.5410   13.4562 C   0  0  0  0  0  0  0  0  0  0  0  0
  -22.1721  -20.4034   17.6687 C   0  0  0  0  0  0  0  0  0  1  0  0
  -22.7964  -24.0723   13.1440 C   0  0  2  0  0  0  0  0  0  0  0  0
  -28.5351  -19.3875   21.3089 C   0  0  1  0  0  0  0  0  0  0  0  0
  -29.7378  -22.9068   20.5759 C   0  0  2  0  0  0  0  0  0  0  0  0
  -28.6704  -18.7819   22.7346 C   0  0  0  0  0  0  0  0  0  0  0  0
  -22.0257  -21.7485   13.4720 N   0  0  0  0  0  0  0  0  0  0  0  0
  -25.9582  -28.3630   19.1185 N   0  0  0  0  0  0  0  0  0  0  0  0
  -21.5570  -21.7711   15.6427 N   0  0  0  0  0  0  0  0  0  0  0  0
  -26.1842  -27.1281   18.6390 N   0  0  0  0  0  0  0  0  0  0  0  0
  -27.9911  -18.0714   19.2851 N   0  0  0  0  0  0  0  0  0  0  0  0
  -26.5949  -26.7420   14.8587 N   0  0  0  0  0  0  0  0  0  0  0  0
  -25.8863  -24.8292   19.1256 N   0  0  0  0  0  0  0  0  0  0  0  0
  -24.0639  -26.8962   22.7036 N   0  0  0  0  0  0  0  0  0  0  0  0
  -28.4366  -14.5938   18.6230 N   0  0  0  0  0  0  0  0  0  0  0  0
  -29.3118  -20.6048   21.1006 N   0  0  0  0  0  0  0  0  0  0  0  0
  -25.5588  -24.6916   14.2966 N   0  0  0  0  0  0  0  0  0  0  0  0
  -29.3324  -23.8391   19.4862 N   0  3  0  0  0  0  0  0  0  0  0  0
  -24.5292  -24.8538   21.7703 O   0  0  0  0  0  0  0  0  0  0  0  0
  -26.6901  -15.7863   19.5979 O   0  0  0  0  0  0  0  0  0  0  0  0
  -30.1245  -18.0012   20.2233 O   0  0  0  0  0  0  0  0  0  0  0  0
  -27.5176  -21.9554   20.5227 O   0  0  0  0  0  0  0  0  0  0  0  0
  -27.0898  -25.6412   12.8784 O   0  0  0  0  0  0  0  0  0  0  0  0
  -23.7426  -32.3978   23.5186 O   0  0  0  0  0  0  0  0  0  0  0  0
  -22.4553  -19.2742   16.8436 O   0  0  0  0  0  0  0  0  0  1  0  0
  -24.8094  -32.0657   28.9182 F   0  0  0  0  0  0  0  0  0  0  0  0
  -25.3269  -34.2863   24.7701 F   0  0  0  0  0  0  0  0  0  0  0  0
  1  2  1  0  0  0  0
  1  5  2  0  0  0  0
  2  6  2  0  0  0  0
  3  8  2  0  0  0  0
  3 17  1  0  0  0  0
  4  9  1  0  0  0  0
  4 17  2  0  0  0  0
  5 19  1  0  0  0  0
  6 21  1  0  0  0  0
  7 10  2  0  0  0  0
  7 20  1  0  0  0  0
  8 23  1  0  0  0  0
  9 23  2  0  0  0  0
 10 24  1  0  0  0  0
 11 12  2  0  0  0  0
 11 25  1  0  0  0  0
 12 26  1  0  0  0  0
 13 22  1  0  0  0  0
 13 24  2  0  0  0  0
 14 26  2  0  0  0  0
 14 27  1  0  0  0  0
 15 29  2  0  0  0  0
 15 64  1  0  0  0  0
 16 62  2  0  0  0  0
 16 64  1  0  0  0  0
 17 28  1  0  0  0  0
 18 28  1  0  0  0  0
 18 30  2  0  0  0  0
 18 31  1  0  0  0  0
 19 21  2  0  0  0  0
 19 36  1  0  0  0  0
 20 22  2  0  0  0  0
 20 37  1  0  0  0  0
 21 45  1  0  0  0  0
 22 38  1  0  0  0  0
 23 79  1  0  0  0  0
 24 80  1  0  0  0  0
 25 27  2  0  0  0  0
 25 79  1  0  0  0  0
 26 81  1  0  0  0  0
 27 82  1  0  0  0  0
 28 63  2  0  0  0  0
 29 58  1  0  0  0  0
 29 62  1  0  0  0  0
 30 65  1  0  0  0  0
 30 68  1  0  0  0  0
 31 69  1  0  0  0  0
 31 74  2  0  0  0  0
 32 46  1  0  0  0  0
 32 70  1  0  0  0  0
 32 75  2  0  0  0  0
 33 59  1  0  0  0  0
 33 66  1  0  0  0  0
 33 76  2  0  0  0  0
 34 60  1  0  0  0  0
 34 71  1  0  0  0  0
 34 77  2  0  0  0  0
 35 67  1  0  0  0  0
 35 72  1  0  0  0  0
 35 78  2  0  0  0  0
 36 39  1  0  0  0  0
 37 46  1  0  0  0  0
 38 66  1  0  0  0  0
 39 41  1  0  0  0  0
 40 42  1  0  0  0  0
 40 43  1  0  0  0  0
 41 45  1  0  0  0  0
 42 47  1  0  0  0  0
 43 67  1  0  0  0  0
 44 47  1  0  0  0  0
 44 67  1  0  0  0  0
 45 70  1  0  0  0  0
 46 66  1  0  0  0  0
 47 65  1  0  0  0  0
 48 58  1  0  0  0  0
 49 60  1  0  0  0  0
 50 61  1  0  0  0  0
 51 61  1  0  0  0  0
 52 61  1  0  0  0  0
 53 73  1  0  0  0  0
 54 56  1  0  0  0  0
 54 58  1  0  0  0  0
 55 57  1  0  0  0  0
 55 64  1  0  0  0  0
 56 72  1  0  0  0  0
 57 80  1  0  0  0  0
 59 61  1  0  0  0  0
 59 71  1  0  0  0  0
 60 73  1  0  0  0  0
 63 65  1  0  0  0  0
M  CHG  1  73   1
M  ISO  4  35 100  57 101  72 100  80 101
M  END
> <Batch ID>
0070

> <Smiles>
CNC(C)C(=O)NC(C(=O)N1Cc2cc([101O:1][101CH2:1]Cn3cnc(C(C)CC[100NH:0][100C:0](=O)N4CCCC(n5nc(-c6ccc(Oc7ccc(F)cc7F)cc6)c(C(N)=O)c5N)C4)c3)ccc2CC1C(=O)NC1CCCc2ccccc21)C(C)(C)C

> <Shape>
0.200

> <Color>
0.059

> <Negative vol penalty>
0.000

$$$$

  -OEChem-04052318193D

 80 88  0     1  0  0  0  0  0999 V2000
  -27.9548   -9.9904   19.6562 C   0  0  0  0  0  0  0  0  0  0  0  0
  -28.3152  -11.1230   18.9331 C   0  0  0  0  0  0  0  0  0  0  0  0
  -22.6810  -26.3888   22.3843 C   0  0  0  0  0  0  0  0  0  0  0  0
  -22.9419  -28.7444   22.8530 C   0  0  0  0  0  0  0  0  0  0  0  0
  -26.8079  -10.0066   20.4489 C   0  0  0  0  0  0  0  0  0  0  0  0
  -27.5283  -12.2721   19.0015 C   0  0  0  0  0  0  0  0  0  0  0  0
  -29.4659  -18.0783   18.8018 C   0  0  0  0  0  0  0  0  0  0  0  0
  -21.4112  -26.4146   22.9610 C   0  0  0  0  0  0  0  0  0  0  0  0
  -21.6721  -28.7704   23.4297 C   0  0  0  0  0  0  0  0  0  0  0  0
  -29.5235  -19.0129   17.7689 C   0  0  0  0  0  0  0  0  0  0  0  0
  -18.4623  -28.8781   22.3779 C   0  0  0  0  0  0  0  0  0  0  0  0
  -17.6187  -29.9351   22.0365 C   0  0  0  0  0  0  0  0  0  0  0  0
  -27.4139  -19.9328   18.4916 C   0  0  0  0  0  0  0  0  0  0  0  0
  -17.5091  -30.5971   24.3575 C   0  0  0  0  0  0  0  0  0  0  0  0
  -23.4464  -27.5536   22.3303 C   0  0  0  0  0  0  0  0  0  0  0  0
  -25.0845  -27.7600   20.3857 C   0  0  0  0  0  0  0  0  0  0  0  0
  -26.0118  -11.1596   20.5346 C   0  0  0  0  0  0  0  0  0  0  0  0
  -28.3746  -18.0569   19.6822 C   0  0  0  0  0  0  0  0  0  0  0  0
  -26.3689  -12.3033   19.7950 C   0  0  0  0  0  0  0  0  0  0  0  0
  -27.3460  -18.9986   19.5364 C   0  0  0  0  0  0  0  0  0  0  0  0
  -20.9067  -27.6054   23.4836 C   0  0  0  0  0  0  0  0  0  0  0  0
  -28.4960  -19.9385   17.6118 C   0  0  0  0  0  0  0  0  0  0  0  0
  -18.8293  -28.6805   23.7091 C   0  0  0  0  0  0  0  0  0  0  0  0
  -17.1421  -30.7947   23.0263 C   0  0  0  0  0  0  0  0  0  0  0  0
  -18.3527  -29.5401   24.6988 C   0  0  0  0  0  0  0  0  0  0  0  0
  -24.7584  -27.5274   21.7353 C   0  0  0  0  0  0  0  0  0  0  0  0
  -30.2098  -25.0529   18.1975 C   0  0  0  0  0  0  0  0  0  0  0  0
  -30.3723  -23.7494   17.8038 C   0  0  0  0  0  0  0  0  0  0  0  0
  -26.4498  -27.6200   20.3333 C   0  0  0  0  0  0  0  0  0  0  0  0
  -30.8178  -24.4630   20.2909 C   0  0  0  0  0  0  0  0  0  0  0  0
  -24.2297  -28.0746   19.2784 C   0  0  0  0  0  0  0  0  0  0  0  0
  -31.0768  -24.8334   21.6883 C   0  0  0  0  0  0  0  0  0  0  0  0
  -26.1181  -15.9386   20.4066 C   0  0  0  0  0  0  0  0  0  0  0  0
  -25.3410  -18.1244   22.6740 C   0  0  0  0  0  0  0  0  0  0  0  0
  -25.4206  -21.3740   23.7135 C   0  0  0  0  0  0  0  0  0  0  0  0
  -24.7554  -11.1140   21.3676 C   0  0  0  0  0  0  0  0  0  0  0  0
  -28.3404  -17.0596   20.8077 C   0  0  0  0  0  0  0  0  0  0  0  0
  -26.1624  -19.0307   20.4673 C   0  0  0  0  0  0  0  0  0  0  0  0
  -24.1809  -12.4935   21.6795 C   0  0  0  0  0  0  0  0  0  0  0  0
  -29.8793  -27.2453   24.0314 C   0  0  0  0  0  0  0  0  0  0  0  0
  -24.1436  -13.3534   20.4202 C   0  0  0  0  0  0  0  0  0  0  0  0
  -28.4590  -27.5405   23.5459 C   0  0  0  0  0  0  0  0  0  0  0  0
  -30.2548  -25.7811   23.8181 C   0  0  0  0  0  0  0  0  0  0  0  0
  -28.6571  -25.5933   21.9428 C   0  0  0  0  0  0  0  0  0  0  0  0
  -25.5545  -13.5770   19.8628 C   0  0  1  0  0  0  0  0  0  0  0  0
  -26.9317  -16.7985   21.3320 C   0  0  1  0  0  0  0  0  0  0  0  0
  -28.2572  -27.0703   22.0931 C   0  0  1  0  0  0  0  0  0  0  0  0
  -29.7808  -26.1080   17.2363 C   0  0  0  0  0  0  0  0  0  0  0  0
  -24.6697  -22.8607   25.5905 C   0  0  0  0  0  0  0  0  0  0  0  0
  -22.4917  -18.0567   21.5845 C   0  0  0  0  0  0  0  0  0  0  0  0
  -22.0432  -20.1878   22.8196 C   0  0  0  0  0  0  0  0  0  0  0  0
  -22.6534  -18.1230   24.0793 C   0  0  0  0  0  0  0  0  0  0  0  0
  -28.2035  -22.1192   24.3911 C   0  0  0  0  0  0  0  0  0  0  0  0
  -30.1275  -23.3044   16.3841 C   0  0  0  0  0  0  0  0  0  0  0  0
  -28.6454  -23.1778   16.0253 C   0  0  0  0  0  0  0  0  0  0  0  0
  -27.9175  -22.1100   16.8336 C   0  0  0  0  0  0  0  0  0  1  0  0
  -24.4257  -19.3234   22.7340 C   0  0  1  0  0  0  0  0  0  0  0  0
  -25.7963  -21.9963   25.0462 C   0  0  2  0  0  0  0  0  0  0  0  0
  -22.9247  -18.9211   22.7854 C   0  0  0  0  0  0  0  0  0  0  0  0
  -25.8302  -27.2598   22.4860 N   0  0  0  0  0  0  0  0  0  0  0  0
  -30.4308  -25.4439   19.4618 N   0  0  0  0  0  0  0  0  0  0  0  0
  -30.7633  -22.8077   18.6816 N   0  0  0  0  0  0  0  0  0  0  0  0
  -30.9940  -23.1682   19.9612 N   0  0  0  0  0  0  0  0  0  0  0  0
  -26.8431  -27.3233   21.6051 N   0  0  0  0  0  0  0  0  0  0  0  0
  -30.0288  -25.3861   22.4283 N   0  0  0  0  0  0  0  0  0  0  0  0
  -26.1716  -18.0312   21.5483 N   0  0  0  0  0  0  0  0  0  0  0  0
  -27.3403  -27.7229   19.3240 N   0  0  0  0  0  0  0  0  0  0  0  0
  -22.8511  -28.1809   19.5077 N   0  0  0  0  0  0  0  0  0  0  0  0
  -26.2503  -14.5826   20.6368 N   0  0  0  0  0  0  0  0  0  0  0  0
  -24.8703  -20.1198   23.8726 N   0  0  0  0  0  0  0  0  0  0  0  0
  -27.0110  -22.8468   24.8967 N   0  3  0  0  0  0  0  0  0  0  0  0
  -24.6734  -28.2398   18.1168 O   0  0  0  0  0  0  0  0  0  0  0  0
  -32.2188  -24.6354   22.1003 O   0  0  0  0  0  0  0  0  0  0  0  0
  -25.4207  -16.4665   19.5483 O   0  0  0  0  0  0  0  0  0  0  0  0
  -25.3249  -17.3046   23.5956 O   0  0  0  0  0  0  0  0  0  0  0  0
  -25.5943  -21.9450   22.6391 O   0  0  0  0  0  0  0  0  0  0  0  0
  -19.6676  -27.6311   24.0462 O   0  0  0  0  0  0  0  0  0  0  0  0
  -28.5495  -20.8514   16.6041 O   0  0  0  0  0  0  0  0  0  1  0  0
  -16.3331  -31.8106   22.6982 F   0  0  0  0  0  0  0  0  0  0  0  0
  -18.7028  -29.3560   25.9792 F   0  0  0  0  0  0  0  0  0  0  0  0
  1  2  1  0  0  0  0
  1  5  2  0  0  0  0
  2  6  2  0  0  0  0
  3  8  2  0  0  0  0
  3 15  1  0  0  0  0
  4  9  1  0  0  0  0
  4 15  2  0  0  0  0
  5 17  1  0  0  0  0
  6 19  1  0  0  0  0
  7 10  2  0  0  0  0
  7 18  1  0  0  0  0
  8 21  1  0  0  0  0
  9 21  2  0  0  0  0
 10 22  1  0  0  0  0
 11 12  2  0  0  0  0
 11 23  1  0  0  0  0
 12 24  1  0  0  0  0
 13 20  1  0  0  0  0
 13 22  2  0  0  0  0
 14 24  2  0  0  0  0
 14 25  1  0  0  0  0
 15 26  1  0  0  0  0
 16 26  1  0  0  0  0
 16 29  2  0  0  0  0
 16 31  1  0  0  0  0
 17 19  2  0  0  0  0
 17 36  1  0  0  0  0
 18 20  2  0  0  0  0
 18 37  1  0  0  0  0
 19 45  1  0  0  0  0
 20 38  1  0  0  0  0
 21 77  1  0  0  0  0
 22 78  1  0  0  0  0
 23 25  2  0  0  0  0
 23 77  1  0  0  0  0
 24 79  1  0  0  0  0
 25 80  1  0  0  0  0
 26 60  2  0  0  0  0
 27 28  2  0  0  0  0
 27 48  1  0  0  0  0
 27 61  1  0  0  0  0
 28 54  1  0  0  0  0
 28 62  1  0  0  0  0
 29 64  1  0  0  0  0
 29 67  1  0  0  0  0
 30 32  1  0  0  0  0
 30 61  2  0  0  0  0
 30 63  1  0  0  0  0
 31 68  1  0  0  0  0
 31 72  2  0  0  0  0
 32 65  1  0  0  0  0
 32 73  2  0  0  0  0
 33 46  1  0  0  0  0
 33 69  1  0  0  0  0
 33 74  2  0  0  0  0
 34 57  1  0  0  0  0
 34 66  1  0  0  0  0
 34 75  2  0  0  0  0
 35 58  1  0  0  0  0
 35 70  1  0  0  0  0
 35 76  2  0  0  0  0
 36 39  1  0  0  0  0
 37 46  1  0  0  0  0
 38 66  1  0  0  0  0
 39 41  1  0  0  0  0
 40 42  1  0  0  0  0
 40 43  1  0  0  0  0
 41 45  1  0  0  0  0
 42 47  1  0  0  0  0
 43 65  1  0  0  0  0
 44 47  1  0  0  0  0
 44 65  1  0  0  0  0
 45 69  1  0  0  0  0
 46 66  1  0  0  0  0
 47 64  1  0  0  0  0
 49 58  1  0  0  0  0
 50 59  1  0  0  0  0
 51 59  1  0  0  0  0
 52 59  1  0  0  0  0
 53 71  1  0  0  0  0
 54 55  1  0  0  0  0
 55 56  1  0  0  0  0
 56 78  1  0  0  0  0
 57 59  1  0  0  0  0
 57 70  1  0  0  0  0
 58 71  1  0  0  0  0
 60 64  1  0  0  0  0
 62 63  2  0  0  0  0
M  CHG  1  71   1
M  ISO  4  30 100  32 100  56 101  78 101
M  END
> <Batch ID>
0070

> <Smiles>
CNC(C)C(=O)NC(C(=O)N1Cc2cc([101O:1][101CH2:1]CCc3nn[100c:0]([100C:0](=O)N4CCCC(n5nc(-c6ccc(Oc7ccc(F)cc7F)cc6)c(C(N)=O)c5N)C4)nc3C)ccc2CC1C(=O)NC1CCCc2ccccc21)C(C)(C)C

> <Shape>
0.220

> <Color>
0.063

> <Negative vol penalty>
0.000

$$$$

  -OEChem-04052318193D

 84 92  0     1  0  0  0  0  0999 V2000
  -23.1779   -8.3483   21.6043 C   0  0  0  0  0  0  0  0  0  0  0  0
  -23.7532   -9.2271   20.6920 C   0  0  0  0  0  0  0  0  0  0  0  0
  -22.2031  -28.7267   21.3644 C   0  0  0  0  0  0  0  0  0  0  0  0
  -23.3896  -28.8726   23.4640 C   0  0  0  0  0  0  0  0  0  0  0  0
  -22.1378   -8.7805   22.4260 C   0  0  0  0  0  0  0  0  0  0  0  0
  -23.2878  -10.5384   20.6002 C   0  0  0  0  0  0  0  0  0  0  0  0
  -26.5991  -15.5429   19.3770 C   0  0  0  0  0  0  0  0  0  0  0  0
  -21.0443  -29.1903   21.9870 C   0  0  0  0  0  0  0  0  0  0  0  0
  -22.2307  -29.3363   24.0866 C   0  0  0  0  0  0  0  0  0  0  0  0
  -26.8082  -16.2654   18.2032 C   0  0  0  0  0  0  0  0  0  0  0  0
  -17.6778  -29.9940   23.1027 C   0  0  0  0  0  0  0  0  0  0  0  0
  -16.4805  -29.3367   22.8199 C   0  0  0  0  0  0  0  0  0  0  0  0
  -25.0605  -17.8000   18.8436 C   0  0  0  0  0  0  0  0  0  0  0  0
  -17.4068  -27.2785   23.6820 C   0  0  0  0  0  0  0  0  0  0  0  0
  -29.0578  -19.7539   18.5163 C   0  0  0  0  0  0  0  0  0  0  0  0
  -23.3758  -28.5678   22.1029 C   0  0  0  0  0  0  0  0  0  0  0  0
  -25.5736  -28.8615   20.8415 C   0  0  0  0  0  0  0  0  0  0  0  0
  -21.6659  -10.1004   22.3509 C   0  0  0  0  0  0  0  0  0  0  0  0
  -25.6100  -15.9378   20.2893 C   0  0  0  0  0  0  0  0  0  0  0  0
  -22.2394  -10.9882   21.4207 C   0  0  0  0  0  0  0  0  0  0  0  0
  -24.8426  -17.0822   20.0295 C   0  0  0  0  0  0  0  0  0  0  0  0
  -28.8190  -20.5680   17.4279 C   0  0  0  0  0  0  0  0  0  0  0  0
  -21.0580  -29.4951   23.3481 C   0  0  0  0  0  0  0  0  0  0  0  0
  -26.0369  -17.3925   17.9349 C   0  0  0  0  0  0  0  0  0  0  0  0
  -18.7397  -29.2936   23.6751 C   0  0  0  0  0  0  0  0  0  0  0  0
  -16.3450  -27.9790   23.1096 C   0  0  0  0  0  0  0  0  0  0  0  0
  -18.6042  -27.9359   23.9647 C   0  0  0  0  0  0  0  0  0  0  0  0
  -24.5731  -28.0884   21.4604 C   0  0  0  0  0  0  0  0  0  0  0  0
  -29.0280  -21.9164   17.6336 C   0  0  0  0  0  0  0  0  0  0  0  0
  -26.4880  -27.9416   20.3896 C   0  0  0  0  0  0  0  0  0  0  0  0
  -29.6373  -21.5441   19.7917 C   0  0  0  0  0  0  0  0  0  0  0  0
  -25.6680  -30.2840   20.6888 C   0  0  0  0  0  0  0  0  0  0  0  0
  -22.9581  -14.6126   21.4359 C   0  0  0  0  0  0  0  0  0  0  0  0
  -22.9352  -17.2379   23.3410 C   0  0  0  0  0  0  0  0  0  0  0  0
  -29.5754  -23.4849   21.3293 C   0  0  0  0  0  0  0  0  0  0  0  0
  -23.9094  -20.4721   23.8289 C   0  0  0  0  0  0  0  0  0  0  0  0
  -20.5076  -10.5082   23.2266 C   0  0  0  0  0  0  0  0  0  0  0  0
  -25.4150  -15.1631   21.5637 C   0  0  0  0  0  0  0  0  0  0  0  0
  -23.7819  -17.5597   20.9862 C   0  0  0  0  0  0  0  0  0  0  0  0
  -20.3242  -12.0202   23.3291 C   0  0  0  0  0  0  0  0  0  0  0  0
  -26.2194  -22.9098   20.0512 C   0  0  0  0  0  0  0  0  0  0  0  0
  -20.4052  -12.6625   21.9479 C   0  0  0  0  0  0  0  0  0  0  0  0
  -25.5661  -24.2714   20.2843 C   0  0  0  0  0  0  0  0  0  0  0  0
  -27.2113  -22.5661   21.1593 C   0  0  0  0  0  0  0  0  0  0  0  0
  -27.6136  -24.9675   21.6019 C   0  0  0  0  0  0  0  0  0  0  0  0
  -21.7788  -12.4254   21.3088 C   0  0  1  0  0  0  0  0  0  0  0  0
  -24.0316  -15.3589   22.1763 C   0  0  1  0  0  0  0  0  0  0  0  0
  -26.6285  -25.3653   20.4900 C   0  0  2  0  0  0  0  0  0  0  0  0
  -29.3802  -24.2690   16.8413 C   0  0  0  0  0  0  0  0  0  0  0  0
  -24.2198  -22.6548   25.0276 C   0  0  0  0  0  0  0  0  0  0  0  0
  -31.6423  -22.1499   21.1721 C   0  0  0  0  0  0  0  0  0  0  0  0
  -29.6174  -21.3094   22.3668 C   0  0  0  0  0  0  0  0  0  0  0  0
  -20.0837  -17.7528   22.3850 C   0  0  0  0  0  0  0  0  0  0  0  0
  -20.2829  -20.0866   23.2692 C   0  0  0  0  0  0  0  0  0  0  0  0
  -20.4522  -18.1458   24.8272 C   0  0  0  0  0  0  0  0  0  0  0  0
  -26.4637  -19.5821   25.0301 C   0  0  0  0  0  0  0  0  0  0  0  0
  -28.3595  -19.9956   16.1107 C   0  0  0  0  0  0  0  0  0  0  0  0
  -28.8016  -22.8926   16.5267 C   0  0  0  0  0  0  0  0  0  0  0  0
  -26.8696  -20.2073   15.8334 C   0  0  0  0  0  0  0  0  0  0  0  0
  -25.9628  -19.4987   16.8329 C   0  0  0  0  0  0  0  0  0  1  0  0
  -22.3578  -18.6289   23.2375 C   0  0  1  0  0  0  0  0  0  0  0  0
  -24.5328  -21.1665   25.0263 C   0  0  2  0  0  0  0  0  0  0  0  0
  -30.0924  -22.0863   21.1043 C   0  0  0  0  0  0  0  0  0  0  0  0
  -20.8127  -18.6437   23.4106 C   0  0  0  0  0  0  0  0  0  0  0  0
  -29.4693  -20.2100   19.7175 N   0  0  0  0  0  0  0  0  0  0  0  0
  -24.8276  -26.7782   21.4082 N   0  0  0  0  0  0  0  0  0  0  0  0
  -29.4383  -22.4410   18.8070 N   0  0  0  0  0  0  0  0  0  0  0  0
  -25.9985  -26.7210   20.7510 N   0  0  0  0  0  0  0  0  0  0  0  0
  -23.6247  -16.7650   22.2155 N   0  0  0  0  0  0  0  0  0  0  0  0
  -28.1896  -23.6449   21.3426 N   0  0  0  0  0  0  0  0  0  0  0  0
  -27.6549  -28.0659   19.7224 N   0  0  0  0  0  0  0  0  0  0  0  0
  -24.6416  -31.0818   21.2125 N   0  0  0  0  0  0  0  0  0  0  0  0
  -22.7633  -13.3188   21.8805 N   0  0  0  0  0  0  0  0  0  0  0  0
  -23.0761  -19.4426   24.2124 N   0  0  0  0  0  0  0  0  0  0  0  0
  -26.0134  -20.9977   25.0101 N   0  3  0  0  0  0  0  0  0  0  0  0
  -26.6258  -30.8304   20.0908 O   0  0  0  0  0  0  0  0  0  0  0  0
  -22.3503  -15.1698   20.5293 O   0  0  0  0  0  0  0  0  0  0  0  0
  -22.7862  -16.5974   24.3846 O   0  0  0  0  0  0  0  0  0  0  0  0
  -30.3806  -24.4065   21.4856 O   0  0  0  0  0  0  0  0  0  0  0  0
  -24.1360  -20.8114   22.6696 O   0  0  0  0  0  0  0  0  0  0  0  0
  -19.9275  -29.9478   23.9560 O   0  0  0  0  0  0  0  0  0  0  0  0
  -26.2386  -18.0992   16.7896 O   0  0  0  0  0  0  0  0  0  1  0  0
  -15.1946  -27.3483   22.8394 F   0  0  0  0  0  0  0  0  0  0  0  0
  -19.6204  -27.2579   24.5157 F   0  0  0  0  0  0  0  0  0  0  0  0
  1  2  1  0  0  0  0
  1  5  2  0  0  0  0
  2  6  2  0  0  0  0
  3  8  2  0  0  0  0
  3 16  1  0  0  0  0
  4  9  1  0  0  0  0
  4 16  2  0  0  0  0
  5 18  1  0  0  0  0
  6 20  1  0  0  0  0
  7 10  2  0  0  0  0
  7 19  1  0  0  0  0
  8 23  1  0  0  0  0
  9 23  2  0  0  0  0
 10 24  1  0  0  0  0
 11 12  2  0  0  0  0
 11 25  1  0  0  0  0
 12 26  1  0  0  0  0
 13 21  1  0  0  0  0
 13 24  2  0  0  0  0
 14 26  2  0  0  0  0
 14 27  1  0  0  0  0
 15 22  1  0  0  0  0
 15 65  2  0  0  0  0
 16 28  1  0  0  0  0
 17 28  1  0  0  0  0
 17 30  2  0  0  0  0
 17 32  1  0  0  0  0
 18 20  2  0  0  0  0
 18 37  1  0  0  0  0
 19 21  2  0  0  0  0
 19 38  1  0  0  0  0
 20 46  1  0  0  0  0
 21 39  1  0  0  0  0
 22 29  2  0  0  0  0
 22 57  1  0  0  0  0
 23 81  1  0  0  0  0
 24 82  1  0  0  0  0
 25 27  2  0  0  0  0
 25 81  1  0  0  0  0
 26 83  1  0  0  0  0
 27 84  1  0  0  0  0
 28 66  2  0  0  0  0
 29 58  1  0  0  0  0
 29 67  1  0  0  0  0
 30 68  1  0  0  0  0
 30 71  1  0  0  0  0
 31 63  1  0  0  0  0
 31 65  1  0  0  0  0
 31 67  2  0  0  0  0
 32 72  1  0  0  0  0
 32 76  2  0  0  0  0
 33 47  1  0  0  0  0
 33 73  1  0  0  0  0
 33 77  2  0  0  0  0
 34 61  1  0  0  0  0
 34 69  1  0  0  0  0
 34 78  2  0  0  0  0
 35 63  1  0  0  0  0
 35 70  1  0  0  0  0
 35 79  2  0  0  0  0
 36 62  1  0  0  0  0
 36 74  1  0  0  0  0
 36 80  2  0  0  0  0
 37 40  1  0  0  0  0
 38 47  1  0  0  0  0
 39 69  1  0  0  0  0
 40 42  1  0  0  0  0
 41 43  1  0  0  0  0
 41 44  1  0  0  0  0
 42 46  1  0  0  0  0
 43 48  1  0  0  0  0
 44 70  1  0  0  0  0
 45 48  1  0  0  0  0
 45 70  1  0  0  0  0
 46 73  1  0  0  0  0
 47 69  1  0  0  0  0
 48 68  1  0  0  0  0
 49 58  1  0  0  0  0
 50 62  1  0  0  0  0
 51 63  1  0  0  0  0
 52 63  1  0  0  0  0
 53 64  1  0  0  0  0
 54 64  1  0  0  0  0
 55 64  1  0  0  0  0
 56 75  1  0  0  0  0
 57 59  1  0  0  0  0
 59 60  1  0  0  0  0
 60 82  1  0  0  0  0
 61 64  1  0  0  0  0
 61 74  1  0  0  0  0
 62 75  1  0  0  0  0
 66 68  1  0  0  0  0
M  CHG  1  75   1
M  ISO  4  35 100  60 101  63 100  82 101
M  END
> <Batch ID>
0070

> <Smiles>
CCc1nc([100C:0](C)(C)[100C:0](=O)N2CCCC(n3nc(-c4ccc(Oc5ccc(F)cc5F)cc4)c(C(N)=O)c3N)C2)ncc1CC[101CH2:1][101O:1]c1ccc2c(c1)CN(C(=O)C(NC(=O)C(C)NC)C(C)(C)C)C(C(=O)NC1CCCc3ccccc31)C2

> <Shape>
0.212

> <Color>
0.078

> <Negative vol penalty>
0.000

$$$$

  -OEChem-04052318193D

 82 90  0     1  0  0  0  0  0999 V2000
  -32.4097  -12.8025   21.5627 C   0  0  0  0  0  0  0  0  0  0  0  0
  -31.9818  -14.1121   21.7557 C   0  0  0  0  0  0  0  0  0  0  0  0
  -29.4084  -23.6939   21.1051 C   0  0  0  0  0  0  0  0  0  0  0  0
  -29.3485  -23.8005   18.6922 C   0  0  0  0  0  0  0  0  0  0  0  0
  -31.6311  -11.9188   20.8166 C   0  0  0  0  0  0  0  0  0  0  0  0
  -30.7756  -14.5391   21.2016 C   0  0  0  0  0  0  0  0  0  0  0  0
  -25.3119  -18.9926   22.4786 C   0  0  0  0  0  0  0  0  0  0  0  0
  -29.5015  -22.3036   21.0414 C   0  0  0  0  0  0  0  0  0  0  0  0
  -29.4417  -22.4102   18.6285 C   0  0  0  0  0  0  0  0  0  0  0  0
  -24.5932  -20.0188   21.8668 C   0  0  0  0  0  0  0  0  0  0  0  0
  -27.3832  -19.7554   19.0100 C   0  0  0  0  0  0  0  0  0  0  0  0
  -26.5325  -19.0887   18.1283 C   0  0  0  0  0  0  0  0  0  0  0  0
  -23.2928  -18.3822   20.6629 C   0  0  0  0  0  0  0  0  0  0  0  0
  -28.4471  -18.1975   16.9548 C   0  0  0  0  0  0  0  0  0  0  0  0
  -23.5615  -27.2466   17.5356 C   0  0  0  0  0  0  0  0  0  0  0  0
  -25.2526  -27.2173   16.1227 C   0  0  0  0  0  0  0  0  0  0  0  0
  -29.3319  -24.4424   19.9305 C   0  0  0  0  0  0  0  0  0  0  0  0
  -30.2973  -26.8023   20.0099 C   0  0  0  0  0  0  0  0  0  0  0  0
  -30.4100  -12.3324   20.2612 C   0  0  0  0  0  0  0  0  0  0  0  0
  -25.0333  -17.6515   22.1784 C   0  0  0  0  0  0  0  0  0  0  0  0
  -29.9806  -13.6605   20.4462 C   0  0  0  0  0  0  0  0  0  0  0  0
  -24.0076  -17.3408   21.2741 C   0  0  0  0  0  0  0  0  0  0  0  0
  -29.5181  -21.6618   19.8031 C   0  0  0  0  0  0  0  0  0  0  0  0
  -23.5854  -19.7137   20.9567 C   0  0  0  0  0  0  0  0  0  0  0  0
  -28.7659  -19.6433   18.8640 C   0  0  0  0  0  0  0  0  0  0  0  0
  -27.0644  -18.3097   17.1008 C   0  0  0  0  0  0  0  0  0  0  0  0
  -29.2978  -18.8643   17.8364 C   0  0  0  0  0  0  0  0  0  0  0  0
  -29.2351  -25.8785   19.9957 C   0  0  0  0  0  0  0  0  0  0  0  0
  -23.8097  -25.9753   17.0745 C   0  0  0  0  0  0  0  0  0  0  0  0
  -29.6842  -28.0294   20.0785 C   0  0  0  0  0  0  0  0  0  0  0  0
  -31.7117  -26.5718   19.9651 C   0  0  0  0  0  0  0  0  0  0  0  0
  -26.6763  -15.2520   20.8951 C   0  0  0  0  0  0  0  0  0  0  0  0
  -24.0373  -13.5381   21.6828 C   0  0  0  0  0  0  0  0  0  0  0  0
  -24.2014  -29.8722   18.4490 C   0  0  0  0  0  0  0  0  0  0  0  0
  -20.6922  -13.5159   22.3586 C   0  0  0  0  0  0  0  0  0  0  0  0
  -29.6257  -11.3547   19.4224 C   0  0  0  0  0  0  0  0  0  0  0  0
  -25.7996  -16.5556   22.8669 C   0  0  0  0  0  0  0  0  0  0  0  0
  -23.6558  -15.9166   20.9328 C   0  0  0  0  0  0  0  0  0  0  0  0
  -28.1791  -11.7799   19.1841 C   0  0  0  0  0  0  0  0  0  0  0  0
  -25.7203  -30.1591   21.6817 C   0  0  0  0  0  0  0  0  0  0  0  0
  -28.1147  -13.2478   18.7746 C   0  0  0  0  0  0  0  0  0  0  0  0
  -26.8729  -29.1572   21.6270 C   0  0  0  0  0  0  0  0  0  0  0  0
  -24.5120  -29.6637   20.8932 C   0  0  0  0  0  0  0  0  0  0  0  0
  -25.9671  -28.3158   19.4142 C   0  0  0  0  0  0  0  0  0  0  0  0
  -28.6660  -14.1542   19.8819 C   0  0  1  0  0  0  0  0  0  0  0  0
  -25.7774  -15.2375   22.0990 C   0  0  1  0  0  0  0  0  0  0  0  0
  -27.2188  -28.7915   20.1727 C   0  0  2  0  0  0  0  0  0  0  0  0
  -18.8083  -11.9598   22.9303 C   0  0  0  0  0  0  0  0  0  0  0  0
  -23.7737  -30.1872   16.0323 C   0  0  0  0  0  0  0  0  0  0  0  0
  -26.0928  -29.9686   16.9259 C   0  0  0  0  0  0  0  0  0  0  0  0
  -23.9290  -12.6063   18.7793 C   0  0  0  0  0  0  0  0  0  0  0  0
  -21.5711  -11.8651   19.1780 C   0  0  0  0  0  0  0  0  0  0  0  0
  -23.4379  -10.8257   20.4653 C   0  0  0  0  0  0  0  0  0  0  0  0
  -20.2050  -14.8695   24.9450 C   0  0  0  0  0  0  0  0  0  0  0  0
  -23.0863  -24.6987   17.4223 C   0  0  0  0  0  0  0  0  0  0  0  0
  -23.6755  -23.9626   18.6307 C   0  0  0  0  0  0  0  0  0  0  0  0
  -22.9776  -22.6330   18.9204 C   0  0  0  0  0  0  0  0  0  0  0  0
  -23.5628  -21.9507   20.1494 C   0  0  0  0  0  0  0  0  0  1  0  0
  -22.7385  -13.1973   20.9928 C   0  0  1  0  0  0  0  0  0  0  0  0
  -19.8950  -12.8716   23.4784 C   0  0  2  0  0  0  0  0  0  0  0  0
  -24.6464  -29.4576   17.0691 C   0  0  0  0  0  0  0  0  0  0  0  0
  -22.9268  -12.1506   19.8586 C   0  0  0  0  0  0  0  0  0  0  0  0
  -24.8637  -25.9637   16.1956 N   0  0  0  0  0  0  0  0  0  0  0  0
  -28.0380  -26.4683   20.0509 N   0  0  0  0  0  0  0  0  0  0  0  0
  -24.4940  -28.0312   16.9174 N   0  0  0  0  0  0  0  0  0  0  0  0
  -28.3442  -27.7759   20.1007 N   0  0  0  0  0  0  0  0  0  0  0  0
  -24.4378  -14.8806   21.6275 N   0  0  0  0  0  0  0  0  0  0  0  0
  -24.8863  -29.3055   19.5240 N   0  0  0  0  0  0  0  0  0  0  0  0
  -30.1659  -29.2898   20.1215 N   0  0  0  0  0  0  0  0  0  0  0  0
  -32.1713  -25.2496   19.8960 N   0  0  0  0  0  0  0  0  0  0  0  0
  -27.6893  -14.3132   20.9380 N   0  0  0  0  0  0  0  0  0  0  0  0
  -21.8154  -12.7810   22.0429 N   0  0  0  0  0  0  0  0  0  0  0  0
  -19.2501  -13.9166   24.3228 N   0  3  0  0  0  0  0  0  0  0  0  0
  -32.5437  -27.5098   20.0023 O   0  0  0  0  0  0  0  0  0  0  0  0
  -26.4654  -16.0545   19.9933 O   0  0  0  0  0  0  0  0  0  0  0  0
  -24.6694  -12.6473   22.2560 O   0  0  0  0  0  0  0  0  0  0  0  0
  -23.2746  -30.6782   18.5658 O   0  0  0  0  0  0  0  0  0  0  0  0
  -20.3506  -14.5642   21.8156 O   0  0  0  0  0  0  0  0  0  0  0  0
  -29.6092  -20.3052   19.7405 O   0  0  0  0  0  0  0  0  0  0  0  0
  -22.8828  -20.7135   20.3577 O   0  0  0  0  0  0  0  0  0  1  0  0
  -26.2473  -17.6682   16.2552 F   0  0  0  0  0  0  0  0  0  0  0  0
  -30.6253  -18.7518   17.6919 F   0  0  0  0  0  0  0  0  0  0  0  0
  1  2  1  0  0  0  0
  1  5  2  0  0  0  0
  2  6  2  0  0  0  0
  3  8  2  0  0  0  0
  3 17  1  0  0  0  0
  4  9  1  0  0  0  0
  4 17  2  0  0  0  0
  5 19  1  0  0  0  0
  6 21  1  0  0  0  0
  7 10  2  0  0  0  0
  7 20  1  0  0  0  0
  8 23  1  0  0  0  0
  9 23  2  0  0  0  0
 10 24  1  0  0  0  0
 11 12  2  0  0  0  0
 11 25  1  0  0  0  0
 12 26  1  0  0  0  0
 13 22  1  0  0  0  0
 13 24  2  0  0  0  0
 14 26  2  0  0  0  0
 14 27  1  0  0  0  0
 15 29  2  0  0  0  0
 15 65  1  0  0  0  0
 16 63  2  0  0  0  0
 16 65  1  0  0  0  0
 17 28  1  0  0  0  0
 18 28  1  0  0  0  0
 18 30  2  0  0  0  0
 18 31  1  0  0  0  0
 19 21  2  0  0  0  0
 19 36  1  0  0  0  0
 20 22  2  0  0  0  0
 20 37  1  0  0  0  0
 21 45  1  0  0  0  0
 22 38  1  0  0  0  0
 23 79  1  0  0  0  0
 24 80  1  0  0  0  0
 25 27  2  0  0  0  0
 25 79  1  0  0  0  0
 26 81  1  0  0  0  0
 27 82  1  0  0  0  0
 28 64  2  0  0  0  0
 29 55  1  0  0  0  0
 29 63  1  0  0  0  0
 30 66  1  0  0  0  0
 30 69  1  0  0  0  0
 31 70  1  0  0  0  0
 31 74  2  0  0  0  0
 32 46  1  0  0  0  0
 32 71  1  0  0  0  0
 32 75  2  0  0  0  0
 33 59  1  0  0  0  0
 33 67  1  0  0  0  0
 33 76  2  0  0  0  0
 34 61  1  0  0  0  0
 34 68  1  0  0  0  0
 34 77  2  0  0  0  0
 35 60  1  0  0  0  0
 35 72  1  0  0  0  0
 35 78  2  0  0  0  0
 36 39  1  0  0  0  0
 37 46  1  0  0  0  0
 38 67  1  0  0  0  0
 39 41  1  0  0  0  0
 40 42  1  0  0  0  0
 40 43  1  0  0  0  0
 41 45  1  0  0  0  0
 42 47  1  0  0  0  0
 43 68  1  0  0  0  0
 44 47  1  0  0  0  0
 44 68  1  0  0  0  0
 45 71  1  0  0  0  0
 46 67  1  0  0  0  0
 47 66  1  0  0  0  0
 48 60  1  0  0  0  0
 49 61  1  0  0  0  0
 50 61  1  0  0  0  0
 51 62  1  0  0  0  0
 52 62  1  0  0  0  0
 53 62  1  0  0  0  0
 54 73  1  0  0  0  0
 55 56  1  0  0  0  0
 56 57  1  0  0  0  0
 57 58  1  0  0  0  0
 58 80  1  0  0  0  0
 59 62  1  0  0  0  0
 59 72  1  0  0  0  0
 60 73  1  0  0  0  0
 61 65  1  0  0  0  0
 64 66  1  0  0  0  0
M  CHG  1  73   1
M  ISO  4  34 100  58 101  61 100  80 101
M  END
> <Batch ID>
0070

> <Smiles>
CNC(C)C(=O)NC(C(=O)N1Cc2cc([101O:1][101CH2:1]CCCc3cn([100C:0](C)(C)[100C:0](=O)N4CCCC(n5nc(-c6ccc(Oc7ccc(F)cc7F)cc6)c(C(N)=O)c5N)C4)cn3)ccc2CC1C(=O)NC1CCCc2ccccc21)C(C)(C)C

> <Shape>
0.232

> <Color>
0.080

> <Negative vol penalty>
0.000

$$$$

  -OEChem-04052318193D

 88 96  0     1  0  0  0  0  0999 V2000
  -32.2078  -14.9432   20.6115 C   0  0  0  0  0  0  0  0  0  0  0  0
  -31.3072  -15.9661   20.8907 C   0  0  0  0  0  0  0  0  0  0  0  0
  -26.7472  -24.6129   17.9687 C   0  0  0  0  0  0  0  0  0  0  0  0
  -28.4485  -25.8516   19.1553 C   0  0  0  0  0  0  0  0  0  0  0  0
  -31.7525  -13.7462   20.0604 C   0  0  0  0  0  0  0  0  0  0  0  0
  -29.9507  -15.7930   20.6179 C   0  0  0  0  0  0  0  0  0  0  0  0
  -25.2359  -18.0169   23.8320 C   0  0  0  0  0  0  0  0  0  0  0  0
  -27.5063  -23.4495   18.0949 C   0  0  0  0  0  0  0  0  0  0  0  0
  -29.2076  -24.6882   19.2815 C   0  0  0  0  0  0  0  0  0  0  0  0
  -24.4230  -19.1353   23.6528 C   0  0  0  0  0  0  0  0  0  0  0  0
  -28.8297  -20.0793   18.4203 C   0  0  0  0  0  0  0  0  0  0  0  0
  -28.1692  -18.9126   18.8052 C   0  0  0  0  0  0  0  0  0  0  0  0
  -22.7822  -17.7576   22.5443 C   0  0  0  0  0  0  0  0  0  0  0  0
  -27.4927  -19.9756   20.8666 C   0  0  0  0  0  0  0  0  0  0  0  0
  -21.7961  -24.6621   22.7163 C   0  0  0  0  0  0  0  0  0  0  0  0
  -27.2184  -25.8140   18.4988 C   0  0  0  0  0  0  0  0  0  0  0  0
  -26.0211  -27.6357   17.1738 C   0  0  0  0  0  0  0  0  0  0  0  0
  -30.3884  -13.5547   19.7896 C   0  0  0  0  0  0  0  0  0  0  0  0
  -24.8323  -16.7603   23.3581 C   0  0  0  0  0  0  0  0  0  0  0  0
  -29.4769  -14.5928   20.0614 C   0  0  0  0  0  0  0  0  0  0  0  0
  -23.5907  -16.6243   22.7210 C   0  0  0  0  0  0  0  0  0  0  0  0
  -28.7364  -23.4871   18.7513 C   0  0  0  0  0  0  0  0  0  0  0  0
  -23.1972  -19.0063   23.0064 C   0  0  0  0  0  0  0  0  0  0  0  0
  -28.8217  -21.1942   19.2587 C   0  0  0  0  0  0  0  0  0  0  0  0
  -27.5007  -18.8607   20.0283 C   0  0  0  0  0  0  0  0  0  0  0  0
  -28.1532  -21.1423   20.4818 C   0  0  0  0  0  0  0  0  0  0  0  0
  -26.4350  -27.0162   18.3683 C   0  0  0  0  0  0  0  0  0  0  0  0
  -21.6979  -24.6227   21.3540 C   0  0  0  0  0  0  0  0  0  0  0  0
  -25.3091  -28.7355   17.5862 C   0  0  0  0  0  0  0  0  0  0  0  0
  -20.4377  -26.2908   22.0820 C   0  0  0  0  0  0  0  0  0  0  0  0
  -26.2589  -27.2513   15.8132 C   0  0  0  0  0  0  0  0  0  0  0  0
  -25.9730  -14.6932   21.2299 C   0  0  0  0  0  0  0  0  0  0  0  0
  -23.5716  -12.8183   22.3437 C   0  0  0  0  0  0  0  0  0  0  0  0
  -20.5301  -12.6128   23.8781 C   0  0  0  0  0  0  0  0  0  0  0  0
  -22.3223  -30.0076   22.6172 C   0  0  0  0  0  0  0  0  0  0  0  0
  -29.9500  -12.2612   19.1498 C   0  0  0  0  0  0  0  0  0  0  0  0
  -25.7087  -15.5588   23.5830 C   0  0  0  0  0  0  0  0  0  0  0  0
  -23.1022  -15.2937   22.2117 C   0  0  0  0  0  0  0  0  0  0  0  0
  -28.4457  -12.0171   19.2384 C   0  0  0  0  0  0  0  0  0  0  0  0
  -25.0069  -31.8633   21.1940 C   0  0  0  0  0  0  0  0  0  0  0  0
  -27.6768  -13.2755   18.8488 C   0  0  0  0  0  0  0  0  0  0  0  0
  -25.6400  -30.8874   20.2006 C   0  0  0  0  0  0  0  0  0  0  0  0
  -24.5144  -31.1492   22.4507 C   0  0  0  0  0  0  0  0  0  0  0  0
  -24.2390  -29.0383   21.2090 C   0  0  0  0  0  0  0  0  0  0  0  0
  -27.9944  -14.4336   19.8026 C   0  0  1  0  0  0  0  0  0  0  0  0
  -25.4282  -14.4230   22.6039 C   0  0  1  0  0  0  0  0  0  0  0  0
  -24.7004  -29.7038   19.9011 C   0  0  2  0  0  0  0  0  0  0  0  0
  -23.6390  -24.3098   19.7980 C   0  0  0  0  0  0  0  0  0  0  0  0
  -18.8046  -10.9469   24.6160 C   0  0  0  0  0  0  0  0  0  0  0  0
  -22.1301  -26.5748   25.1600 C   0  0  0  0  0  0  0  0  0  0  0  0
  -20.1563  -25.0019   25.3501 C   0  0  0  0  0  0  0  0  0  0  0  0
  -18.1783  -27.2510   22.9004 C   0  0  0  0  0  0  0  0  0  0  0  0
  -19.0465  -27.8048   20.6432 C   0  0  0  0  0  0  0  0  0  0  0  0
  -22.6543  -12.4912   19.4521 C   0  0  0  0  0  0  0  0  0  0  0  0
  -20.4597  -11.6515   20.3165 C   0  0  0  0  0  0  0  0  0  0  0  0
  -22.5579  -10.3998   20.8201 C   0  0  0  0  0  0  0  0  0  0  0  0
  -20.8069  -13.4088   26.7151 C   0  0  0  0  0  0  0  0  0  0  0  0
  -21.2933  -21.5395   21.2386 C   0  0  0  0  0  0  0  0  0  0  0  0
  -22.5881  -22.2761   20.8656 C   0  0  0  0  0  0  0  0  0  0  0  0
  -20.1802  -28.7556   22.6742 C   0  0  0  0  0  0  0  0  0  0  0  0
  -21.5568  -20.1043   21.6799 C   0  0  0  0  0  0  0  0  0  1  0  0
  -22.3348  -23.7013   20.3281 C   0  0  1  0  0  0  0  0  0  0  0  0
  -22.1229  -12.6058   21.9761 C   0  0  1  0  0  0  0  0  0  0  0  0
  -20.0348  -11.7443   25.0203 C   0  0  2  0  0  0  0  0  0  0  0  0
  -20.8227  -26.1018   24.5216 C   0  0  0  0  0  0  0  0  0  0  0  0
  -19.5136  -27.4522   22.0961 C   0  0  0  0  0  0  0  0  0  0  0  0
  -21.9585  -11.8126   20.6489 C   0  0  0  0  0  0  0  0  0  0  0  0
  -26.0206  -27.6684   19.4578 N   0  0  0  0  0  0  0  0  0  0  0  0
  -21.0067  -25.7039   23.1400 N   0  0  0  0  0  0  0  0  0  0  0  0
  -25.3390  -28.7091   18.9495 N   0  0  0  0  0  0  0  0  0  0  0  0
  -20.8510  -25.6413   20.9890 N   0  3  0  0  0  0  0  0  0  0  0  0
  -23.9978  -14.1498   22.4500 N   0  0  0  0  0  0  0  0  0  0  0  0
  -23.6268  -30.0387   22.0974 N   0  0  0  0  0  0  0  0  0  0  0  0
  -24.6668  -29.7129   16.9120 N   0  0  0  0  0  0  0  0  0  0  0  0
  -27.4024  -27.7440   15.1697 N   0  0  0  0  0  0  0  0  0  0  0  0
  -27.2769  -14.2730   21.0491 N   0  0  0  0  0  0  0  0  0  0  0  0
  -21.4971  -11.9728   23.1320 N   0  0  0  0  0  0  0  0  0  0  0  0
  -21.5451  -28.9237   22.2274 N   0  0  0  0  0  0  0  0  0  0  0  0
  -19.6822  -12.5879   26.1972 N   0  3  0  0  0  0  0  0  0  0  0  0
  -25.4718  -26.5064   15.1813 O   0  0  0  0  0  0  0  0  0  0  0  0
  -25.2625  -15.2409   20.3952 O   0  0  0  0  0  0  0  0  0  0  0  0
  -24.2965  -11.8391   22.5367 O   0  0  0  0  0  0  0  0  0  0  0  0
  -20.0995  -13.7443   23.6664 O   0  0  0  0  0  0  0  0  0  0  0  0
  -21.8809  -30.8838   23.3685 O   0  0  0  0  0  0  0  0  0  0  0  0
  -29.4773  -22.3520   18.8748 O   0  0  0  0  0  0  0  0  0  0  0  0
  -22.4021  -20.0964   22.8296 O   0  0  0  0  0  0  0  0  0  1  0  0
  -26.8651  -17.7408   20.3970 F   0  0  0  0  0  0  0  0  0  0  0  0
  -28.1411  -22.2105   21.2909 F   0  0  0  0  0  0  0  0  0  0  0  0
  1  2  1  0  0  0  0
  1  5  2  0  0  0  0
  2  6  2  0  0  0  0
  3  8  2  0  0  0  0
  3 16  1  0  0  0  0
  4  9  1  0  0  0  0
  4 16  2  0  0  0  0
  5 18  1  0  0  0  0
  6 20  1  0  0  0  0
  7 10  2  0  0  0  0
  7 19  1  0  0  0  0
  8 22  1  0  0  0  0
  9 22  2  0  0  0  0
 10 23  1  0  0  0  0
 11 12  2  0  0  0  0
 11 24  1  0  0  0  0
 12 25  1  0  0  0  0
 13 21  1  0  0  0  0
 13 23  2  0  0  0  0
 14 25  2  0  0  0  0
 14 26  1  0  0  0  0
 15 28  2  0  0  0  0
 15 69  1  0  0  0  0
 16 27  1  0  0  0  0
 17 27  1  0  0  0  0
 17 29  2  0  0  0  0
 17 31  1  0  0  0  0
 18 20  2  0  0  0  0
 18 36  1  0  0  0  0
 19 21  2  0  0  0  0
 19 37  1  0  0  0  0
 20 45  1  0  0  0  0
 21 38  1  0  0  0  0
 22 85  1  0  0  0  0
 23 86  1  0  0  0  0
 24 26  2  0  0  0  0
 24 85  1  0  0  0  0
 25 87  1  0  0  0  0
 26 88  1  0  0  0  0
 27 68  2  0  0  0  0
 28 62  1  0  0  0  0
 28 71  1  0  0  0  0
 29 70  1  0  0  0  0
 29 74  1  0  0  0  0
 30 66  1  0  0  0  0
 30 69  1  0  0  0  0
 30 71  2  0  0  0  0
 31 75  1  0  0  0  0
 31 80  2  0  0  0  0
 32 46  1  0  0  0  0
 32 76  1  0  0  0  0
 32 81  2  0  0  0  0
 33 63  1  0  0  0  0
 33 72  1  0  0  0  0
 33 82  2  0  0  0  0
 34 64  1  0  0  0  0
 34 77  1  0  0  0  0
 34 83  2  0  0  0  0
 35 73  1  0  0  0  0
 35 78  1  0  0  0  0
 35 84  2  0  0  0  0
 36 39  1  0  0  0  0
 37 46  1  0  0  0  0
 38 72  1  0  0  0  0
 39 41  1  0  0  0  0
 40 42  1  0  0  0  0
 40 43  1  0  0  0  0
 41 45  1  0  0  0  0
 42 47  1  0  0  0  0
 43 73  1  0  0  0  0
 44 47  1  0  0  0  0
 44 73  1  0  0  0  0
 45 76  1  0  0  0  0
 46 72  1  0  0  0  0
 47 70  1  0  0  0  0
 48 62  1  0  0  0  0
 49 64  1  0  0  0  0
 50 65  1  0  0  0  0
 51 65  1  0  0  0  0
 52 66  1  0  0  0  0
 53 66  1  0  0  0  0
 54 67  1  0  0  0  0
 55 67  1  0  0  0  0
 56 67  1  0  0  0  0
 57 79  1  0  0  0  0
 58 59  1  0  0  0  0
 58 61  1  0  0  0  0
 59 62  1  0  0  0  0
 60 66  1  0  0  0  0
 60 78  1  0  0  0  0
 61 86  1  0  0  0  0
 63 67  1  0  0  0  0
 63 77  1  0  0  0  0
 64 79  1  0  0  0  0
 65 69  1  0  0  0  0
 68 70  1  0  0  0  0
M  CHG  2  71   1  79   1
M  ISO  4  35 100  61 101  78 100  86 101
M  END
> <Batch ID>
0070

> <Smiles>
CNC(C)C(=O)NC(C(=O)N1Cc2cc([101O:1][101CH2:1]CCC(C)c3cn(C(C)C)c(C(C)(C)C[100NH:0][100C:0](=O)N4CCCC(n5nc(-c6ccc(Oc7ccc(F)cc7F)cc6)c(C(N)=O)c5N)C4)n3)ccc2CC1C(=O)NC1CCCc2ccccc21)C(C)(C)C

> <Shape>
0.260

> <Color>
0.073

> <Negative vol penalty>
0.000

$$$$

  -OEChem-04052318193D

 85 93  0     1  0  0  0  0  0999 V2000
  -24.0784  -30.4455   30.9639 C   0  0  0  0  0  0  0  0  0  0  0  0
  -24.5171  -29.1458   30.7319 C   0  0  0  0  0  0  0  0  0  0  0  0
  -23.2222   -9.8408   19.9389 C   0  0  0  0  0  0  0  0  0  0  0  0
  -23.5931  -10.0467   22.3173 C   0  0  0  0  0  0  0  0  0  0  0  0
  -23.5052  -31.1819   29.9281 C   0  0  0  0  0  0  0  0  0  0  0  0
  -24.3818  -28.5814   29.4640 C   0  0  0  0  0  0  0  0  0  0  0  0
  -28.2194  -24.6524   26.7544 C   0  0  0  0  0  0  0  0  0  0  0  0
  -22.4673   -8.6883   20.1563 C   0  0  0  0  0  0  0  0  0  0  0  0
  -22.8381   -8.8942   22.5348 C   0  0  0  0  0  0  0  0  0  0  0  0
  -28.1999  -23.2650   26.6186 C   0  0  0  0  0  0  0  0  0  0  0  0
  -23.2743   -5.5496   22.3021 C   0  0  0  0  0  0  0  0  0  0  0  0
  -23.7805   -4.6015   23.1912 C   0  0  0  0  0  0  0  0  0  0  0  0
  -27.1901  -23.4985   24.4403 C   0  0  0  0  0  0  0  0  0  0  0  0
  -21.8181   -4.8539   24.5777 C   0  0  0  0  0  0  0  0  0  0  0  0
  -26.8809  -18.4669   26.1059 C   0  0  0  0  0  0  0  0  0  0  0  0
  -23.7852  -10.5201   21.0194 C   0  0  0  0  0  0  0  0  0  0  0  0
  -24.0985  -13.0378   20.7534 C   0  0  0  0  0  0  0  0  0  0  0  0
  -23.3715  -30.6296   28.6444 C   0  0  0  0  0  0  0  0  0  0  0  0
  -27.7135  -25.4744   25.7371 C   0  0  0  0  0  0  0  0  0  0  0  0
  -23.8050  -29.3106   28.4103 C   0  0  0  0  0  0  0  0  0  0  0  0
  -27.2066  -24.8962   24.5646 C   0  0  0  0  0  0  0  0  0  0  0  0
  -22.2752   -8.2150   21.4543 C   0  0  0  0  0  0  0  0  0  0  0  0
  -27.6826  -22.6878   25.4626 C   0  0  0  0  0  0  0  0  0  0  0  0
  -22.0400   -6.1499   22.5509 C   0  0  0  0  0  0  0  0  0  0  0  0
  -23.0524   -4.2536   24.3290 C   0  0  0  0  0  0  0  0  0  0  0  0
  -21.3120   -5.8020   23.6887 C   0  0  0  0  0  0  0  0  0  0  0  0
  -24.5656  -11.7104   20.7953 C   0  0  0  0  0  0  0  0  0  0  0  0
  -28.1020  -19.1082   26.0609 C   0  0  0  0  0  0  0  0  0  0  0  0
  -26.8968  -17.1286   25.7700 C   0  0  0  0  0  0  0  0  0  0  0  0
  -25.2225  -13.7899   20.5139 C   0  0  0  0  0  0  0  0  0  0  0  0
  -29.1403  -17.1936   25.4103 C   0  0  0  0  0  0  0  0  0  0  0  0
  -22.7676  -13.5455   20.9166 C   0  0  0  0  0  0  0  0  0  0  0  0
  -25.3486  -27.5880   25.5289 C   0  0  0  0  0  0  0  0  0  0  0  0
  -26.5942  -28.1073   22.5791 C   0  0  0  0  0  0  0  0  0  0  0  0
  -28.4316  -26.9196   19.9599 C   0  0  0  0  0  0  0  0  0  0  0  0
  -31.0448  -12.8694   21.5651 C   0  0  0  0  0  0  0  0  0  0  0  0
  -22.7024  -31.4475   27.5683 C   0  0  0  0  0  0  0  0  0  0  0  0
  -27.7663  -26.9701   25.8877 C   0  0  0  0  0  0  0  0  0  0  0  0
  -26.6701  -25.7350   23.4345 C   0  0  0  0  0  0  0  0  0  0  0  0
  -22.9371  -30.9090   26.1594 C   0  0  0  0  0  0  0  0  0  0  0  0
  -29.5173  -13.5425   18.4201 C   0  0  0  0  0  0  0  0  0  0  0  0
  -22.7129  -29.4007   26.1201 C   0  0  0  0  0  0  0  0  0  0  0  0
  -28.0329  -13.2690   18.6684 C   0  0  0  0  0  0  0  0  0  0  0  0
  -30.4070  -12.5692   19.1903 C   0  0  0  0  0  0  0  0  0  0  0  0
  -28.6532  -12.2238   20.8869 C   0  0  0  0  0  0  0  0  0  0  0  0
  -23.6980  -28.6724   27.0424 C   0  0  1  0  0  0  0  0  0  0  0  0
  -26.7535  -27.6953   25.0070 C   0  0  1  0  0  0  0  0  0  0  0  0
  -27.7170  -13.2155   20.1753 C   0  0  2  0  0  0  0  0  0  0  0  0
  -25.6493  -15.2016   26.8112 C   0  0  0  0  0  0  0  0  0  0  0  0
  -25.2505  -15.8034   24.3959 C   0  0  0  0  0  0  0  0  0  0  0  0
  -29.2447  -27.5592   17.6736 C   0  0  0  0  0  0  0  0  0  0  0  0
  -23.8036  -27.6100   21.4501 C   0  0  0  0  0  0  0  0  0  0  0  0
  -24.8449  -27.3191   19.1920 C   0  0  0  0  0  0  0  0  0  0  0  0
  -25.0392  -29.5033   20.3811 C   0  0  0  0  0  0  0  0  0  0  0  0
  -31.2668  -26.6867   20.7762 C   0  0  0  0  0  0  0  0  0  0  0  0
  -28.1862  -20.5652   26.4096 C   0  0  0  0  0  0  0  0  0  1  0  0
  -31.5465  -14.6296   24.3327 C   0  0  0  0  0  0  0  0  0  0  0  0
  -31.5267  -13.1476   23.9836 C   0  0  0  0  0  0  0  0  0  0  0  0
  -30.1753  -15.1640   24.7282 C   0  0  0  0  0  0  0  0  0  0  0  0
  -25.6235  -16.3511   25.7863 C   0  0  0  0  0  0  0  0  0  0  0  0
  -26.3723  -27.5199   21.2063 C   0  0  1  0  0  0  0  0  0  0  0  0
  -29.5635  -27.5394   19.1604 C   0  0  2  0  0  0  0  0  0  0  0  0
  -25.0232  -27.9719   20.5793 C   0  0  0  0  0  0  0  0  0  0  0  0
  -25.8836  -11.6211   20.5980 N   0  0  0  0  0  0  0  0  0  0  0  0
  -29.2559  -18.5000   25.7162 N   0  0  0  0  0  0  0  0  0  0  0  0
  -28.0125  -16.4577   25.4158 N   0  0  0  0  0  0  0  0  0  0  0  0
  -26.2543  -12.9019   20.4298 N   0  0  0  0  0  0  0  0  0  0  0  0
  -26.7377  -27.1924   23.6318 N   0  0  0  0  0  0  0  0  0  0  0  0
  -30.0573  -12.5674   20.6128 N   0  0  0  0  0  0  0  0  0  0  0  0
  -25.4191  -15.1176   20.3690 N   0  0  0  0  0  0  0  0  0  0  0  0
  -21.7297  -12.6346   21.1565 N   0  0  0  0  0  0  0  0  0  0  0  0
  -25.0020  -28.5849   26.4208 N   0  0  0  0  0  0  0  0  0  0  0  0
  -27.5467  -27.8736   20.4163 N   0  0  0  0  0  0  0  0  0  0  0  0
  -30.6278  -12.8518   22.8904 N   0  0  0  0  0  0  0  0  0  0  0  0
  -30.8224  -26.7674   19.3609 N   0  3  0  0  0  0  0  0  0  0  0  0
  -22.5039  -14.7692   20.8352 O   0  0  0  0  0  0  0  0  0  0  0  0
  -24.6315  -26.6696   25.1492 O   0  0  0  0  0  0  0  0  0  0  0  0
  -26.6458  -29.3327   22.7115 O   0  0  0  0  0  0  0  0  0  0  0  0
  -28.3394  -25.7099   20.1565 O   0  0  0  0  0  0  0  0  0  0  0  0
  -32.2103  -13.1403   21.2566 O   0  0  0  0  0  0  0  0  0  0  0  0
  -21.5385   -7.0904   21.6669 O   0  0  0  0  0  0  0  0  0  0  0  0
  -27.6617  -21.3338   25.3277 O   0  0  0  0  0  0  0  0  0  1  0  0
  -30.2972  -16.5417   25.0507 O   0  0  0  0  0  0  0  0  0  0  0  0
  -23.5380   -3.3420   25.1818 F   0  0  0  0  0  0  0  0  0  0  0  0
  -20.1251   -6.3745   23.9324 F   0  0  0  0  0  0  0  0  0  0  0  0
  1  2  1  0  0  0  0
  1  5  2  0  0  0  0
  2  6  2  0  0  0  0
  3  8  2  0  0  0  0
  3 16  1  0  0  0  0
  4  9  1  0  0  0  0
  4 16  2  0  0  0  0
  5 18  1  0  0  0  0
  6 20  1  0  0  0  0
  7 10  2  0  0  0  0
  7 19  1  0  0  0  0
  8 22  1  0  0  0  0
  9 22  2  0  0  0  0
 10 23  1  0  0  0  0
 11 12  2  0  0  0  0
 11 24  1  0  0  0  0
 12 25  1  0  0  0  0
 13 21  1  0  0  0  0
 13 23  2  0  0  0  0
 14 25  2  0  0  0  0
 14 26  1  0  0  0  0
 15 28  1  0  0  0  0
 15 29  2  0  0  0  0
 16 27  1  0  0  0  0
 17 27  1  0  0  0  0
 17 30  2  0  0  0  0
 17 32  1  0  0  0  0
 18 20  2  0  0  0  0
 18 37  1  0  0  0  0
 19 21  2  0  0  0  0
 19 38  1  0  0  0  0
 20 46  1  0  0  0  0
 21 39  1  0  0  0  0
 22 81  1  0  0  0  0
 23 82  1  0  0  0  0
 24 26  2  0  0  0  0
 24 81  1  0  0  0  0
 25 84  1  0  0  0  0
 26 85  1  0  0  0  0
 27 64  2  0  0  0  0
 28 56  1  0  0  0  0
 28 65  2  0  0  0  0
 29 60  1  0  0  0  0
 29 66  1  0  0  0  0
 30 67  1  0  0  0  0
 30 70  1  0  0  0  0
 31 65  1  0  0  0  0
 31 66  2  0  0  0  0
 31 83  1  0  0  0  0
 32 71  1  0  0  0  0
 32 76  2  0  0  0  0
 33 47  1  0  0  0  0
 33 72  1  0  0  0  0
 33 77  2  0  0  0  0
 34 61  1  0  0  0  0
 34 68  1  0  0  0  0
 34 78  2  0  0  0  0
 35 62  1  0  0  0  0
 35 73  1  0  0  0  0
 35 79  2  0  0  0  0
 36 69  1  0  0  0  0
 36 74  1  0  0  0  0
 36 80  2  0  0  0  0
 37 40  1  0  0  0  0
 38 47  1  0  0  0  0
 39 68  1  0  0  0  0
 40 42  1  0  0  0  0
 41 43  1  0  0  0  0
 41 44  1  0  0  0  0
 42 46  1  0  0  0  0
 43 48  1  0  0  0  0
 44 69  1  0  0  0  0
 45 48  1  0  0  0  0
 45 69  1  0  0  0  0
 46 72  1  0  0  0  0
 47 68  1  0  0  0  0
 48 67  1  0  0  0  0
 49 60  1  0  0  0  0
 50 60  1  0  0  0  0
 51 62  1  0  0  0  0
 52 63  1  0  0  0  0
 53 63  1  0  0  0  0
 54 63  1  0  0  0  0
 55 75  1  0  0  0  0
 56 82  1  0  0  0  0
 57 58  1  0  0  0  0
 57 59  1  0  0  0  0
 58 74  1  0  0  0  0
 59 83  1  0  0  0  0
 61 63  1  0  0  0  0
 61 73  1  0  0  0  0
 62 75  1  0  0  0  0
 64 67  1  0  0  0  0
M  CHG  1  75   1
M  ISO  4  36 100  56 101  74 100  82 101
M  END
> <Batch ID>
0070

> <Smiles>
CNC(C)C(=O)NC(C(=O)N1Cc2cc([101O:1][101CH2:1]c3cc(C(C)C)nc(OCCC[100NH:0][100C:0](=O)N4CCCC(n5nc(-c6ccc(Oc7ccc(F)cc7F)cc6)c(C(N)=O)c5N)C4)n3)ccc2CC1C(=O)NC1CCCc2ccccc21)C(C)(C)C

> <Shape>
0.209

> <Color>
0.182

> <Negative vol penalty>
0.000

$$$$

  -OEChem-04052318193D

 87 95  0     1  0  0  0  0  0999 V2000
  -32.2807  -14.2325   21.1484 C   0  0  0  0  0  0  0  0  0  0  0  0
  -31.3453  -15.2060   21.4840 C   0  0  0  0  0  0  0  0  0  0  0  0
  -28.9984  -27.4668   20.7606 C   0  0  0  0  0  0  0  0  0  0  0  0
  -27.1371  -25.9286   20.8406 C   0  0  0  0  0  0  0  0  0  0  0  0
  -31.8914  -13.1212   20.4020 C   0  0  0  0  0  0  0  0  0  0  0  0
  -30.0200  -15.0692   21.0724 C   0  0  0  0  0  0  0  0  0  0  0  0
  -26.7199  -16.1263   24.7652 C   0  0  0  0  0  0  0  0  0  0  0  0
  -29.8747  -26.4217   21.0529 C   0  0  0  0  0  0  0  0  0  0  0  0
  -28.0134  -24.8834   21.1329 C   0  0  0  0  0  0  0  0  0  0  0  0
  -26.4866  -17.4722   25.0446 C   0  0  0  0  0  0  0  0  0  0  0  0
  -30.1639  -22.8935   19.4488 C   0  0  0  0  0  0  0  0  0  0  0  0
  -29.9923  -21.6937   18.7585 C   0  0  0  0  0  0  0  0  0  0  0  0
  -24.4496  -17.3804   23.7557 C   0  0  0  0  0  0  0  0  0  0  0  0
  -29.6268  -20.5422   20.8508 C   0  0  0  0  0  0  0  0  0  0  0  0
  -21.4215  -26.6878   23.4112 C   0  0  0  0  0  0  0  0  0  0  0  0
  -21.9620  -25.2137   21.8648 C   0  0  0  0  0  0  0  0  0  0  0  0
  -27.6296  -27.2203   20.6545 C   0  0  0  0  0  0  0  0  0  0  0  0
  -26.7270  -29.1171   19.2071 C   0  0  0  0  0  0  0  0  0  0  0  0
  -30.5586  -12.9658   19.9893 C   0  0  0  0  0  0  0  0  0  0  0  0
  -25.8239  -15.3991   23.9686 C   0  0  0  0  0  0  0  0  0  0  0  0
  -29.6127  -13.9554   20.3186 C   0  0  0  0  0  0  0  0  0  0  0  0
  -24.6725  -16.0248   23.4698 C   0  0  0  0  0  0  0  0  0  0  0  0
  -29.3822  -25.1300   21.2390 C   0  0  0  0  0  0  0  0  0  0  0  0
  -25.3528  -18.1002   24.5375 C   0  0  0  0  0  0  0  0  0  0  0  0
  -30.0671  -22.9177   20.8401 C   0  0  0  0  0  0  0  0  0  0  0  0
  -29.7237  -20.5181   19.4595 C   0  0  0  0  0  0  0  0  0  0  0  0
  -29.7985  -21.7421   21.5411 C   0  0  0  0  0  0  0  0  0  0  0  0
  -26.7238  -28.2996   20.3532 C   0  0  0  0  0  0  0  0  0  0  0  0
  -21.0470  -27.1129   22.1584 C   0  0  0  0  0  0  0  0  0  0  0  0
  -25.6766  -29.9811   19.3988 C   0  0  0  0  0  0  0  0  0  0  0  0
  -27.6011  -29.0972   18.0708 C   0  0  0  0  0  0  0  0  0  0  0  0
  -26.0198  -13.8887   21.1786 C   0  0  0  0  0  0  0  0  0  0  0  0
  -23.0007  -12.9572   21.9132 C   0  0  0  0  0  0  0  0  0  0  0  0
  -20.6654  -29.5384   22.6857 C   0  0  0  0  0  0  0  0  0  0  0  0
  -20.1233  -13.5608   23.6460 C   0  0  0  0  0  0  0  0  0  0  0  0
  -30.1951  -11.7710   19.1437 C   0  0  0  0  0  0  0  0  0  0  0  0
  -26.0761  -13.9410   23.6985 C   0  0  0  0  0  0  0  0  0  0  0  0
  -23.6691  -15.2831   22.6262 C   0  0  0  0  0  0  0  0  0  0  0  0
  -28.6923  -11.5143   19.0662 C   0  0  0  0  0  0  0  0  0  0  0  0
  -23.1529  -32.1124   22.8494 C   0  0  0  0  0  0  0  0  0  0  0  0
  -27.9426  -12.8127   18.7854 C   0  0  0  0  0  0  0  0  0  0  0  0
  -24.3600  -31.4901   22.1488 C   0  0  0  0  0  0  0  0  0  0  0  0
  -22.3619  -31.0686   23.6316 C   0  0  0  0  0  0  0  0  0  0  0  0
  -23.1293  -29.2745   22.1103 C   0  0  0  0  0  0  0  0  0  0  0  0
  -28.1605  -13.8302   19.9117 C   0  0  1  0  0  0  0  0  0  0  0  0
  -25.3620  -13.4323   22.4501 C   0  0  1  0  0  0  0  0  0  0  0  0
  -23.9385  -30.2893   21.2835 C   0  0  2  0  0  0  0  0  0  0  0  0
  -17.8164  -12.6441   24.0143 C   0  0  0  0  0  0  0  0  0  0  0  0
  -20.8035  -28.8659   20.3700 C   0  0  0  0  0  0  0  0  0  0  0  0
  -22.1390  -14.0395   19.1936 C   0  0  0  0  0  0  0  0  0  0  0  0
  -19.7686  -13.9746   19.9968 C   0  0  0  0  0  0  0  0  0  0  0  0
  -21.0858  -11.8627   19.8314 C   0  0  0  0  0  0  0  0  0  0  0  0
  -24.4321  -24.2570   26.7627 C   0  0  0  0  0  0  0  0  0  0  0  0
  -26.3649  -24.0160   25.2121 C   0  0  0  0  0  0  0  0  0  0  0  0
  -20.6172  -13.1629   26.5367 C   0  0  0  0  0  0  0  0  0  0  0  0
  -24.8102  -21.6368   23.8656 C   0  0  0  0  0  0  0  0  0  0  0  0
  -24.5186  -22.2739   25.2322 C   0  0  0  0  0  0  0  0  0  0  0  0
  -24.1309  -24.6561   24.2750 C   0  0  0  0  0  0  0  0  0  0  0  0
  -22.5985  -24.5734   24.2675 C   0  0  0  0  0  0  0  0  0  0  0  0
  -24.4094  -20.1642   23.8263 C   0  0  0  0  0  0  0  0  0  1  0  0
  -18.8048  -28.2530   21.7663 C   0  0  0  0  0  0  0  0  0  0  0  0
  -21.6200  -13.5161   21.6680 C   0  0  1  0  0  0  0  0  0  0  0  0
  -19.2560  -12.6577   24.5043 C   0  0  2  0  0  0  0  0  0  0  0  0
  -20.3699  -28.3645   21.7865 C   0  0  1  0  0  0  0  0  0  0  0  0
  -21.1730  -13.3630   20.1867 C   0  0  0  0  0  0  0  0  0  0  0  0
  -24.8440  -23.7896   25.3503 C   0  0  0  0  0  0  0  0  0  0  0  0
  -21.3860  -26.1906   21.2002 N   0  0  0  0  0  0  0  0  0  0  0  0
  -25.7489  -28.6160   21.2096 N   0  0  0  0  0  0  0  0  0  0  0  0
  -22.0059  -25.4696   23.2072 N   0  0  0  0  0  0  0  0  0  0  0  0
  -25.1297  -29.6420   20.6014 N   0  0  0  0  0  0  0  0  0  0  0  0
  -23.9633  -13.8610   22.3848 N   0  0  0  0  0  0  0  0  0  0  0  0
  -21.9998  -29.9340   22.7802 N   0  0  0  0  0  0  0  0  0  0  0  0
  -25.1767  -30.9902   18.6544 N   0  0  0  0  0  0  0  0  0  0  0  0
  -27.2536  -28.2962   16.9745 N   0  0  0  0  0  0  0  0  0  0  0  0
  -27.3402  -13.4996   21.0572 N   0  0  0  0  0  0  0  0  0  0  0  0
  -20.7383  -12.8619   22.6288 N   0  0  0  0  0  0  0  0  0  0  0  0
  -19.2662  -13.1229   25.9201 N   0  3  0  0  0  0  0  0  0  0  0  0
  -28.6673  -29.7571   18.0355 O   0  0  0  0  0  0  0  0  0  0  0  0
  -25.3767  -14.5439   20.3670 O   0  0  0  0  0  0  0  0  0  0  0  0
  -23.2154  -11.7611   21.7010 O   0  0  0  0  0  0  0  0  0  0  0  0
  -19.7362  -30.0880   23.2831 O   0  0  0  0  0  0  0  0  0  0  0  0
  -20.2402  -14.7663   23.8545 O   0  0  0  0  0  0  0  0  0  0  0  0
  -18.3372  -27.8632   23.0544 O   0  0  0  0  0  0  0  0  0  0  0  0
  -30.2370  -24.1099   21.5240 O   0  0  0  0  0  0  0  0  0  0  0  0
  -25.1231  -19.4139   24.8081 O   0  0  0  0  0  0  0  0  0  1  0  0
  -29.5574  -19.3662   18.7963 F   0  0  0  0  0  0  0  0  0  0  0  0
  -29.7032  -21.7593   22.8777 F   0  0  0  0  0  0  0  0  0  0  0  0
  1  2  1  0  0  0  0
  1  5  2  0  0  0  0
  2  6  2  0  0  0  0
  3  8  2  0  0  0  0
  3 17  1  0  0  0  0
  4  9  1  0  0  0  0
  4 17  2  0  0  0  0
  5 19  1  0  0  0  0
  6 21  1  0  0  0  0
  7 10  2  0  0  0  0
  7 20  1  0  0  0  0
  8 23  1  0  0  0  0
  9 23  2  0  0  0  0
 10 24  1  0  0  0  0
 11 12  2  0  0  0  0
 11 25  1  0  0  0  0
 12 26  1  0  0  0  0
 13 22  1  0  0  0  0
 13 24  2  0  0  0  0
 14 26  2  0  0  0  0
 14 27  1  0  0  0  0
 15 29  2  0  0  0  0
 15 69  1  0  0  0  0
 16 67  2  0  0  0  0
 16 69  1  0  0  0  0
 17 28  1  0  0  0  0
 18 28  1  0  0  0  0
 18 30  2  0  0  0  0
 18 31  1  0  0  0  0
 19 21  2  0  0  0  0
 19 36  1  0  0  0  0
 20 22  2  0  0  0  0
 20 37  1  0  0  0  0
 21 45  1  0  0  0  0
 22 38  1  0  0  0  0
 23 84  1  0  0  0  0
 24 85  1  0  0  0  0
 25 27  2  0  0  0  0
 25 84  1  0  0  0  0
 26 86  1  0  0  0  0
 27 87  1  0  0  0  0
 28 68  2  0  0  0  0
 29 64  1  0  0  0  0
 29 67  1  0  0  0  0
 30 70  1  0  0  0  0
 30 73  1  0  0  0  0
 31 74  1  0  0  0  0
 31 78  2  0  0  0  0
 32 46  1  0  0  0  0
 32 75  1  0  0  0  0
 32 79  2  0  0  0  0
 33 62  1  0  0  0  0
 33 71  1  0  0  0  0
 33 80  2  0  0  0  0
 34 64  1  0  0  0  0
 34 72  1  0  0  0  0
 34 81  2  0  0  0  0
 35 63  1  0  0  0  0
 35 76  1  0  0  0  0
 35 82  2  0  0  0  0
 36 39  1  0  0  0  0
 37 46  1  0  0  0  0
 38 71  1  0  0  0  0
 39 41  1  0  0  0  0
 40 42  1  0  0  0  0
 40 43  1  0  0  0  0
 41 45  1  0  0  0  0
 42 47  1  0  0  0  0
 43 72  1  0  0  0  0
 44 47  1  0  0  0  0
 44 72  1  0  0  0  0
 45 75  1  0  0  0  0
 46 71  1  0  0  0  0
 47 70  1  0  0  0  0
 48 63  1  0  0  0  0
 49 64  1  0  0  0  0
 50 65  1  0  0  0  0
 51 65  1  0  0  0  0
 52 65  1  0  0  0  0
 53 66  1  0  0  0  0
 54 66  1  0  0  0  0
 55 77  1  0  0  0  0
 56 57  1  0  0  0  0
 56 60  1  0  0  0  0
 57 66  1  0  0  0  0
 58 59  1  0  0  0  0
 58 66  1  0  0  0  0
 59 69  1  0  0  0  0
 60 85  1  0  0  0  0
 61 64  1  0  0  0  0
 61 83  1  0  0  0  0
 62 65  1  0  0  0  0
 62 76  1  0  0  0  0
 63 77  1  0  0  0  0
 68 70  1  0  0  0  0
M  CHG  1  77   1
M  ISO  4  34 100  60 101  64 100  85 101
M  END
> <Batch ID>
0070

> <Smiles>
CNC(C)C(=O)NC(C(=O)N1Cc2cc([101O:1][101CH2:1]CCC(C)(C)CCn3cnc([100C:0](C)(CO)[100C:0](=O)N4CCCC(n5nc(-c6ccc(Oc7ccc(F)cc7F)cc6)c(C(N)=O)c5N)C4)c3)ccc2CC1C(=O)NC1CCCc2ccccc21)C(C)(C)C

> <Shape>
0.260

> <Color>
0.039

> <Negative vol penalty>
0.000

$$$$

  -OEChem-04052318193D

 87 95  0     1  0  0  0  0  0999 V2000
  -33.0353  -26.4689   18.2317 C   0  0  0  0  0  0  0  0  0  0  0  0
  -31.6886  -26.2303   18.4865 C   0  0  0  0  0  0  0  0  0  0  0  0
  -25.4793  -12.3475   19.6518 C   0  0  0  0  0  0  0  0  0  0  0  0
  -24.3411  -12.9907   21.6835 C   0  0  0  0  0  0  0  0  0  0  0  0
  -33.7893  -27.2270   19.1265 C   0  0  0  0  0  0  0  0  0  0  0  0
  -31.0954  -26.7488   19.6370 C   0  0  0  0  0  0  0  0  0  0  0  0
  -26.5747  -28.8381   18.7190 C   0  0  0  0  0  0  0  0  0  0  0  0
  -25.5545  -11.0323   20.1102 C   0  0  0  0  0  0  0  0  0  0  0  0
  -24.4163  -11.6754   22.1420 C   0  0  0  0  0  0  0  0  0  0  0  0
  -25.4935  -27.9722   18.5605 C   0  0  0  0  0  0  0  0  0  0  0  0
  -23.9877   -8.4144   23.6911 C   0  0  0  0  0  0  0  0  0  0  0  0
  -22.8433   -7.8602   24.2645 C   0  0  0  0  0  0  0  0  0  0  0  0
  -24.8196  -28.4068   20.8356 C   0  0  0  0  0  0  0  0  0  0  0  0
  -21.6410   -8.2045   22.1973 C   0  0  0  0  0  0  0  0  0  0  0  0
  -25.6166  -24.3265   21.1336 C   0  0  0  0  0  0  0  0  0  0  0  0
  -24.8726  -13.3267   20.4384 C   0  0  0  0  0  0  0  0  0  0  0  0
  -23.7615  -15.2630   19.2040 C   0  0  0  0  0  0  0  0  0  0  0  0
  -33.2027  -27.7632   20.2836 C   0  0  0  0  0  0  0  0  0  0  0  0
  -26.7930  -29.4875   19.9426 C   0  0  0  0  0  0  0  0  0  0  0  0
  -31.8426  -27.5137   20.5488 C   0  0  0  0  0  0  0  0  0  0  0  0
  -25.9028  -29.2824   21.0063 C   0  0  0  0  0  0  0  0  0  0  0  0
  -24.6001  -23.6037   20.5433 C   0  0  0  0  0  0  0  0  0  0  0  0
  -25.0230  -10.6963   21.3553 C   0  0  0  0  0  0  0  0  0  0  0  0
  -24.6174  -27.7543   19.6198 C   0  0  0  0  0  0  0  0  0  0  0  0
  -23.9588   -8.8637   22.3709 C   0  0  0  0  0  0  0  0  0  0  0  0
  -21.6699   -7.7553   23.5176 C   0  0  0  0  0  0  0  0  0  0  0  0
  -22.7854   -8.7587   21.6240 C   0  0  0  0  0  0  0  0  0  0  0  0
  -24.7951  -14.6856   19.9656 C   0  0  0  0  0  0  0  0  0  0  0  0
  -24.9494  -22.3522   20.0785 C   0  0  0  0  0  0  0  0  0  0  0  0
  -24.1593  -16.5641   19.0160 C   0  0  0  0  0  0  0  0  0  0  0  0
  -27.0949  -22.6378   20.7728 C   0  0  0  0  0  0  0  0  0  0  0  0
  -22.5501  -14.6758   18.7107 C   0  0  0  0  0  0  0  0  0  0  0  0
  -29.1263  -29.4796   22.1012 C   0  0  0  0  0  0  0  0  0  0  0  0
  -27.3567  -31.8396   23.4508 C   0  0  0  0  0  0  0  0  0  0  0  0
  -27.7564  -20.0371   22.2213 C   0  0  0  0  0  0  0  0  0  0  0  0
  -24.3017  -33.3113   23.8351 C   0  0  0  0  0  0  0  0  0  0  0  0
  -34.0696  -28.5367   21.2453 C   0  0  0  0  0  0  0  0  0  0  0  0
  -27.9487  -30.4390   20.0890 C   0  0  0  0  0  0  0  0  0  0  0  0
  -26.0815  -29.9710   22.3339 C   0  0  0  0  0  0  0  0  0  0  0  0
  -33.2743  -29.3648   22.2513 C   0  0  0  0  0  0  0  0  0  0  0  0
  -28.0758  -19.2791   18.6786 C   0  0  0  0  0  0  0  0  0  0  0  0
  -32.1463  -28.5335   22.8540 C   0  0  0  0  0  0  0  0  0  0  0  0
  -27.1895  -18.0409   18.5499 C   0  0  0  0  0  0  0  0  0  0  0  0
  -28.8023  -19.3123   20.0207 C   0  0  0  0  0  0  0  0  0  0  0  0
  -27.0044  -17.9777   21.0747 C   0  0  0  0  0  0  0  0  0  0  0  0
  -31.1572  -28.0800   21.7734 C   0  0  1  0  0  0  0  0  0  0  0  0
  -28.3688  -30.6498   21.5404 C   0  0  1  0  0  0  0  0  0  0  0  0
  -26.2303  -17.9220   19.7471 C   0  0  2  0  0  0  0  0  0  0  0  0
  -24.0788  -21.4601   17.9030 C   0  0  0  0  0  0  0  0  0  0  0  0
  -23.1616  -35.2006   25.0302 C   0  0  0  0  0  0  0  0  0  0  0  0
  -29.5765  -23.2395   20.8761 C   0  0  0  0  0  0  0  0  0  0  0  0
  -28.8854  -21.2336   19.6422 C   0  0  0  0  0  0  0  0  0  0  0  0
  -28.3833  -22.0055   23.5233 C   0  0  0  0  0  0  0  0  0  0  0  0
  -30.1149  -20.6191   22.4011 C   0  0  0  0  0  0  0  0  0  0  0  0
  -27.4286  -30.2376   26.0467 C   0  0  0  0  0  0  0  0  0  0  0  0
  -25.5381  -31.6474   26.8874 C   0  0  0  0  0  0  0  0  0  0  0  0
  -27.7291  -32.7037   26.3340 C   0  0  0  0  0  0  0  0  0  0  0  0
  -23.5032  -34.5931   21.2899 C   0  0  0  0  0  0  0  0  0  0  0  0
  -23.2069  -24.1684   20.4261 C   0  0  0  0  0  0  0  0  0  0  0  0
  -23.9310  -21.4800   19.4216 C   0  0  0  0  0  0  0  0  0  0  0  0
  -22.8578  -24.6597   19.0196 C   0  0  0  0  0  0  0  0  0  0  0  0
  -23.7239  -25.8247   18.5547 C   0  0  0  0  0  0  0  0  0  1  0  0
  -26.2369  -31.8912   24.4618 C   0  0  1  0  0  0  0  0  0  0  0  0
  -23.8659  -34.7633   23.7553 C   0  0  2  0  0  0  0  0  0  0  0  0
  -28.4804  -22.1009   20.9008 C   0  0  0  0  0  0  0  0  0  0  0  0
  -28.6995  -21.2136   22.2361 C   0  0  0  0  0  0  0  0  0  0  0  0
  -26.7306  -31.6054   25.9082 C   0  0  0  0  0  0  0  0  0  0  0  0
  -26.8803  -23.8725   21.2656 N   0  0  0  0  0  0  0  0  0  0  0  0
  -25.7759  -15.5490   20.2423 N   0  0  0  0  0  0  0  0  0  0  0  0
  -26.1920  -21.8359   20.1769 N   0  0  0  0  0  0  0  0  0  0  0  0
  -25.3603  -16.6822   19.6513 N   0  0  0  0  0  0  0  0  0  0  0  0
  -27.2300  -30.8871   22.4297 N   0  0  0  0  0  0  0  0  0  0  0  0
  -27.8568  -19.1686   21.1342 N   0  0  0  0  0  0  0  0  0  0  0  0
  -23.5954  -17.6072   18.3707 N   0  0  0  0  0  0  0  0  0  0  0  0
  -22.2973  -13.3269   18.9952 N   0  0  0  0  0  0  0  0  0  0  0  0
  -30.2781  -29.1686   21.4040 N   0  0  0  0  0  0  0  0  0  0  0  0
  -25.5960  -33.1911   24.2952 N   0  0  0  0  0  0  0  0  0  0  0  0
  -22.9321  -34.9616   22.6109 N   0  3  0  0  0  0  0  0  0  0  0  0
  -21.7243  -15.3235   18.0236 O   0  0  0  0  0  0  0  0  0  0  0  0
  -28.6982  -28.9025   23.0938 O   0  0  0  0  0  0  0  0  0  0  0  0
  -28.3054  -32.6206   23.5588 O   0  0  0  0  0  0  0  0  0  0  0  0
  -26.9535  -19.8975   23.1475 O   0  0  0  0  0  0  0  0  0  0  0  0
  -23.5662  -32.3770   23.5243 O   0  0  0  0  0  0  0  0  0  0  0  0
  -25.0961   -9.4129   21.8029 O   0  0  0  0  0  0  0  0  0  0  0  0
  -23.5617  -26.9091   19.4680 O   0  0  0  0  0  0  0  0  0  1  0  0
  -20.5714   -7.2216   24.0678 F   0  0  0  0  0  0  0  0  0  0  0  0
  -22.7519   -9.1876   20.3548 F   0  0  0  0  0  0  0  0  0  0  0  0
  1  2  1  0  0  0  0
  1  5  2  0  0  0  0
  2  6  2  0  0  0  0
  3  8  2  0  0  0  0
  3 16  1  0  0  0  0
  4  9  1  0  0  0  0
  4 16  2  0  0  0  0
  5 18  1  0  0  0  0
  6 20  1  0  0  0  0
  7 10  2  0  0  0  0
  7 19  1  0  0  0  0
  8 23  1  0  0  0  0
  9 23  2  0  0  0  0
 10 24  1  0  0  0  0
 11 12  2  0  0  0  0
 11 25  1  0  0  0  0
 12 26  1  0  0  0  0
 13 21  1  0  0  0  0
 13 24  2  0  0  0  0
 14 26  2  0  0  0  0
 14 27  1  0  0  0  0
 15 22  1  0  0  0  0
 15 68  2  0  0  0  0
 16 28  1  0  0  0  0
 17 28  1  0  0  0  0
 17 30  2  0  0  0  0
 17 32  1  0  0  0  0
 18 20  2  0  0  0  0
 18 37  1  0  0  0  0
 19 21  2  0  0  0  0
 19 38  1  0  0  0  0
 20 46  1  0  0  0  0
 21 39  1  0  0  0  0
 22 29  2  0  0  0  0
 22 59  1  0  0  0  0
 23 84  1  0  0  0  0
 24 85  1  0  0  0  0
 25 27  2  0  0  0  0
 25 84  1  0  0  0  0
 26 86  1  0  0  0  0
 27 87  1  0  0  0  0
 28 69  2  0  0  0  0
 29 60  1  0  0  0  0
 29 70  1  0  0  0  0
 30 71  1  0  0  0  0
 30 74  1  0  0  0  0
 31 65  1  0  0  0  0
 31 68  1  0  0  0  0
 31 70  2  0  0  0  0
 32 75  1  0  0  0  0
 32 79  2  0  0  0  0
 33 47  1  0  0  0  0
 33 76  1  0  0  0  0
 33 80  2  0  0  0  0
 34 63  1  0  0  0  0
 34 72  1  0  0  0  0
 34 81  2  0  0  0  0
 35 66  1  0  0  0  0
 35 73  1  0  0  0  0
 35 82  2  0  0  0  0
 36 64  1  0  0  0  0
 36 77  1  0  0  0  0
 36 83  2  0  0  0  0
 37 40  1  0  0  0  0
 38 47  1  0  0  0  0
 39 72  1  0  0  0  0
 40 42  1  0  0  0  0
 41 43  1  0  0  0  0
 41 44  1  0  0  0  0
 42 46  1  0  0  0  0
 43 48  1  0  0  0  0
 44 73  1  0  0  0  0
 45 48  1  0  0  0  0
 45 73  1  0  0  0  0
 46 76  1  0  0  0  0
 47 72  1  0  0  0  0
 48 71  1  0  0  0  0
 49 60  1  0  0  0  0
 50 64  1  0  0  0  0
 51 65  1  0  0  0  0
 52 65  1  0  0  0  0
 53 66  1  0  0  0  0
 54 66  1  0  0  0  0
 55 67  1  0  0  0  0
 56 67  1  0  0  0  0
 57 67  1  0  0  0  0
 58 78  1  0  0  0  0
 59 61  1  0  0  0  0
 61 62  1  0  0  0  0
 62 85  1  0  0  0  0
 63 67  1  0  0  0  0
 63 77  1  0  0  0  0
 64 78  1  0  0  0  0
 65 66  1  0  0  0  0
 69 71  1  0  0  0  0
M  CHG  1  78   1
M  ISO  4  35 100  62 101  66 100  85 101
M  END
> <Batch ID>
0070

> <Smiles>
CCc1nc(C(C)(C)[100C:0](C)(C)[100C:0](=O)N2CCCC(n3nc(-c4ccc(Oc5ccc(F)cc5F)cc4)c(C(N)=O)c3N)C2)ncc1CC[101CH2:1][101O:1]c1ccc2c(c1)CN(C(=O)C(NC(=O)C(C)NC)C(C)(C)C)C(C(=O)NC1CCCc3ccccc31)C2

> <Shape>
0.255

> <Color>
0.073

> <Negative vol penalty>
0.000

$$$$

  -OEChem-04052318193D

 92100  0     1  0  0  0  0  0999 V2000
  -26.5252  -37.9691   23.1914 C   0  0  0  0  0  0  0  0  0  0  0  0
  -27.1333  -37.0959   22.2953 C   0  0  0  0  0  0  0  0  0  0  0  0
  -27.5646   -7.0906   19.7313 C   0  0  0  0  0  0  0  0  0  0  0  0
  -28.1387   -7.5475   22.0332 C   0  0  0  0  0  0  0  0  0  0  0  0
  -25.8676  -37.4679   24.3141 C   0  0  0  0  0  0  0  0  0  0  0  0
  -27.0852  -35.7208   22.5220 C   0  0  0  0  0  0  0  0  0  0  0  0
  -26.7888  -29.4894   19.0009 C   0  0  0  0  0  0  0  0  0  0  0  0
  -27.9125   -5.7518   19.9103 C   0  0  0  0  0  0  0  0  0  0  0  0
  -28.4866   -6.2086   22.2122 C   0  0  0  0  0  0  0  0  0  0  0  0
  -27.4416  -28.2595   18.9314 C   0  0  0  0  0  0  0  0  0  0  0  0
  -28.3071   -2.1383   19.8613 C   0  0  0  0  0  0  0  0  0  0  0  0
  -27.4424   -1.1699   19.3515 C   0  0  0  0  0  0  0  0  0  0  0  0
  -26.2095  -27.5031   20.8625 C   0  0  0  0  0  0  0  0  0  0  0  0
  -25.6697   -2.0107   20.7614 C   0  0  0  0  0  0  0  0  0  0  0  0
  -28.9081  -19.0968   19.7214 C   0  0  0  0  0  0  0  0  0  0  0  0
  -28.1614  -20.6766   21.7398 C   0  0  0  0  0  0  0  0  0  0  0  0
  -27.6778   -7.9885   20.7928 C   0  0  0  0  0  0  0  0  0  0  0  0
  -26.0540   -9.9559   20.8082 C   0  0  0  0  0  0  0  0  0  0  0  0
  -25.8032  -36.0855   24.5495 C   0  0  0  0  0  0  0  0  0  0  0  0
  -25.8478  -29.7397   20.0100 C   0  0  0  0  0  0  0  0  0  0  0  0
  -26.4274  -35.2007   23.6495 C   0  0  0  0  0  0  0  0  0  0  0  0
  -25.5442  -28.7361   20.9411 C   0  0  0  0  0  0  0  0  0  0  0  0
  -28.3734   -5.3108   21.1507 C   0  0  0  0  0  0  0  0  0  0  0  0
  -27.1542  -27.2671   19.8640 C   0  0  0  0  0  0  0  0  0  0  0  0
  -27.8532   -3.0429   20.8212 C   0  0  0  0  0  0  0  0  0  0  0  0
  -26.1237   -1.1060   19.8015 C   0  0  0  0  0  0  0  0  0  0  0  0
  -26.5345   -2.9791   21.2712 C   0  0  0  0  0  0  0  0  0  0  0  0
  -27.3191   -9.3718   20.6084 C   0  0  0  0  0  0  0  0  0  0  0  0
  -27.8991  -18.7225   20.5813 C   0  0  0  0  0  0  0  0  0  0  0  0
  -29.1709  -21.0506   20.8805 C   0  0  0  0  0  0  0  0  0  0  0  0
  -26.2356  -11.2821   20.5005 C   0  0  0  0  0  0  0  0  0  0  0  0
  -24.8245   -9.3535   21.2339 C   0  0  0  0  0  0  0  0  0  0  0  0
  -25.6302  -31.8123   22.4102 C   0  0  0  0  0  0  0  0  0  0  0  0
  -29.2819  -15.9550   20.9176 C   0  0  0  0  0  0  0  0  0  0  0  0
  -22.6808  -30.5070   22.7557 C   0  0  0  0  0  0  0  0  0  0  0  0
  -20.6148  -27.8395   22.2429 C   0  0  0  0  0  0  0  0  0  0  0  0
  -25.1217  -35.5933   25.8017 C   0  0  0  0  0  0  0  0  0  0  0  0
  -25.1327  -31.0622   20.0552 C   0  0  0  0  0  0  0  0  0  0  0  0
  -24.5272  -28.9476   22.0317 C   0  0  0  0  0  0  0  0  0  0  0  0
  -24.7942  -34.1027   25.7713 C   0  0  0  0  0  0  0  0  0  0  0  0
  -30.1072  -13.6586   18.2935 C   0  0  0  0  0  0  0  0  0  0  0  0
  -25.9956  -33.3021   25.2788 C   0  0  0  0  0  0  0  0  0  0  0  0
  -29.3762  -12.3779   18.6942 C   0  0  0  0  0  0  0  0  0  0  0  0
  -30.6166  -14.4164   19.5156 C   0  0  0  0  0  0  0  0  0  0  0  0
  -28.8239  -13.4526   20.9224 C   0  0  0  0  0  0  0  0  0  0  0  0
  -26.3755  -33.7013   23.8478 C   0  0  1  0  0  0  0  0  0  0  0  0
  -24.5687  -31.3897   21.4343 C   0  0  1  0  0  0  0  0  0  0  0  0
  -28.2663  -12.6724   19.7188 C   0  0  2  0  0  0  0  0  0  0  0  0
  -27.8196  -16.5618   22.7925 C   0  0  0  0  0  0  0  0  0  0  0  0
  -18.2704  -27.0528   22.6700 C   0  0  0  0  0  0  0  0  0  0  0  0
  -31.2650  -23.7397   22.8854 C   0  0  0  0  0  0  0  0  0  0  0  0
  -31.5291  -21.2679   22.7792 C   0  0  0  0  0  0  0  0  0  0  0  0
  -27.1154  -16.9132   18.9154 C   0  0  0  0  0  0  0  0  0  0  0  0
  -25.6941  -17.5637   20.8390 C   0  0  0  0  0  0  0  0  0  0  0  0
  -31.0044  -22.6461   20.0015 C   0  0  0  0  0  0  0  0  0  0  0  0
  -23.3898  -29.9882   25.6777 C   0  0  0  0  0  0  0  0  0  0  0  0
  -21.4604  -28.3967   25.7908 C   0  0  0  0  0  0  0  0  0  0  0  0
  -21.0578  -30.8091   25.3000 C   0  0  0  0  0  0  0  0  0  0  0  0
  -26.2741  -24.8556   18.3178 C   0  0  0  0  0  0  0  0  0  0  0  0
  -20.0521  -27.5767   19.3492 C   0  0  0  0  0  0  0  0  0  0  0  0
  -28.8650  -23.5860   20.9418 C   0  0  0  0  0  0  0  0  0  0  0  0
  -27.8558  -16.2748   21.2888 C   0  0  1  0  0  0  0  0  0  0  0  0
  -22.1108  -29.3429   23.5297 C   0  0  1  0  0  0  0  0  0  0  0  0
  -19.2031  -27.7500   21.6919 C   0  0  2  0  0  0  0  0  0  0  0  0
  -30.5496  -22.4279   22.5210 C   0  0  0  0  0  0  0  0  0  0  0  0
  -28.0816  -23.6856   19.6163 C   0  0  2  0  0  0  0  0  0  0  0  0
  -27.1978  -17.4215   20.4029 C   0  0  0  0  0  0  0  0  0  0  0  0
  -29.9003  -22.4045   21.0658 C   0  0  1  0  0  0  0  0  0  0  0  0
  -22.0253  -29.6306   25.0553 C   0  0  0  0  0  0  0  0  0  0  0  0
  -27.0655  -24.8402   19.6222 C   0  0  1  0  0  0  0  0  0  1  0  0
  -27.5074  -19.5058   21.6057 N   0  0  0  0  0  0  0  0  0  0  0  0
  -29.5624  -20.2674   19.8558 N   0  0  0  0  0  0  0  0  0  0  0  0
  -28.2367  -10.2546   20.2048 N   0  0  0  0  0  0  0  0  0  0  0  0
  -27.5473  -11.4068   20.1485 N   0  0  0  0  0  0  0  0  0  0  0  0
  -23.8594  -30.2596   22.0378 N   0  0  0  0  0  0  0  0  0  0  0  0
  -29.5372  -14.6569   20.4749 N   0  0  0  0  0  0  0  0  0  0  0  0
  -25.3996  -12.3421   20.4994 N   0  0  0  0  0  0  0  0  0  0  0  0
  -24.8138   -7.9792   21.5086 N   0  0  0  0  0  0  0  0  0  0  0  0
  -25.4686  -33.0956   22.8964 N   0  0  0  0  0  0  0  0  0  0  0  0
  -20.8290  -29.0280   22.9083 N   0  0  0  0  0  0  0  0  0  0  0  0
  -19.1945  -26.9891   20.4105 N   0  3  0  0  0  0  0  0  0  0  0  0
  -23.7628  -10.0113   21.3510 O   0  0  0  0  0  0  0  0  0  0  0  0
  -26.5284  -31.0313   22.7016 O   0  0  0  0  0  0  0  0  0  0  0  0
  -30.1414  -16.8346   21.0159 O   0  0  0  0  0  0  0  0  0  0  0  0
  -22.0977  -31.5937   22.7812 O   0  0  0  0  0  0  0  0  0  0  0  0
  -21.4434  -26.9430   22.1006 O   0  0  0  0  0  0  0  0  0  0  0  0
  -28.7127   -4.0043   21.3258 O   0  0  0  0  0  0  0  0  0  0  0  0
  -27.7927  -26.0617   19.7986 O   0  0  0  0  0  0  0  0  0  1  0  0
  -25.2929   -0.1770   19.3108 F   0  0  0  0  0  0  0  0  0  0  0  0
  -26.0923   -3.8462   22.1924 F   0  0  0  0  0  0  0  0  0  0  0  0
  -27.3947  -22.5283   19.4143 F   0  0  0  0  0  0  0  0  0  0  0  0
  -26.2244  -24.6353   20.6714 F   0  0  0  0  0  0  0  0  0  0  0  0
  1  2  1  0  0  0  0
  1  5  2  0  0  0  0
  2  6  2  0  0  0  0
  3  8  2  0  0  0  0
  3 17  1  0  0  0  0
  4  9  1  0  0  0  0
  4 17  2  0  0  0  0
  5 19  1  0  0  0  0
  6 21  1  0  0  0  0
  7 10  2  0  0  0  0
  7 20  1  0  0  0  0
  8 23  1  0  0  0  0
  9 23  2  0  0  0  0
 10 24  1  0  0  0  0
 11 12  2  0  0  0  0
 11 25  1  0  0  0  0
 12 26  1  0  0  0  0
 13 22  1  0  0  0  0
 13 24  2  0  0  0  0
 14 26  2  0  0  0  0
 14 27  1  0  0  0  0
 15 29  2  0  0  0  0
 15 72  1  0  0  0  0
 16 30  1  0  0  0  0
 16 71  2  0  0  0  0
 17 28  1  0  0  0  0
 18 28  1  0  0  0  0
 18 31  2  0  0  0  0
 18 32  1  0  0  0  0
 19 21  2  0  0  0  0
 19 37  1  0  0  0  0
 20 22  2  0  0  0  0
 20 38  1  0  0  0  0
 21 46  1  0  0  0  0
 22 39  1  0  0  0  0
 23 87  1  0  0  0  0
 24 88  1  0  0  0  0
 25 27  2  0  0  0  0
 25 87  1  0  0  0  0
 26 89  1  0  0  0  0
 27 90  1  0  0  0  0
 28 73  2  0  0  0  0
 29 67  1  0  0  0  0
 29 71  1  0  0  0  0
 30 68  1  0  0  0  0
 30 72  2  0  0  0  0
 31 74  1  0  0  0  0
 31 77  1  0  0  0  0
 32 78  1  0  0  0  0
 32 82  2  0  0  0  0
 33 47  1  0  0  0  0
 33 79  1  0  0  0  0
 33 83  2  0  0  0  0
 34 62  1  0  0  0  0
 34 76  1  0  0  0  0
 34 84  2  0  0  0  0
 35 63  1  0  0  0  0
 35 75  1  0  0  0  0
 35 85  2  0  0  0  0
 36 64  1  0  0  0  0
 36 80  1  0  0  0  0
 36 86  2  0  0  0  0
 37 40  1  0  0  0  0
 38 47  1  0  0  0  0
 39 75  1  0  0  0  0
 40 42  1  0  0  0  0
 41 43  1  0  0  0  0
 41 44  1  0  0  0  0
 42 46  1  0  0  0  0
 43 48  1  0  0  0  0
 44 76  1  0  0  0  0
 45 48  1  0  0  0  0
 45 76  1  0  0  0  0
 46 79  1  0  0  0  0
 47 75  1  0  0  0  0
 48 74  1  0  0  0  0
 49 62  1  0  0  0  0
 50 64  1  0  0  0  0
 51 65  1  0  0  0  0
 52 65  1  0  0  0  0
 53 67  1  0  0  0  0
 54 67  1  0  0  0  0
 55 68  1  0  0  0  0
 56 69  1  0  0  0  0
 57 69  1  0  0  0  0
 58 69  1  0  0  0  0
 59 70  1  0  0  0  0
 60 81  1  0  0  0  0
 61 66  1  0  0  0  0
 61 68  1  0  0  0  0
 62 67  1  0  0  0  0
 63 69  1  0  0  0  0
 63 80  1  0  0  0  0
 64 81  1  0  0  0  0
 65 68  1  0  0  0  0
 66 70  1  0  0  0  0
 66 91  1  0  0  0  0
 70 88  1  0  0  0  0
 70 92  1  0  0  0  0
 73 74  1  0  0  0  0
M  CHG  1  81   1
M  ISO  4  34 100  62 100  70 101  88 101
M  END
> <Batch ID>
0070

> <Smiles>
CNC(C)C(=O)NC(C(=O)N1Cc2cc([101O:1][101C:1](C)(F)C(F)CC(C)(c3cnc(C(C)(C)[100CH:0](C)[100C:0](=O)N4CCCC(n5nc(-c6ccc(Oc7ccc(F)cc7F)cc6)c(C(N)=O)c5N)C4)cn3)C(C)C)ccc2CC1C(=O)NC1CCCc2ccccc21)C(C)(C)C

> <Shape>
0.307

> <Color>
0.088

> <Negative vol penalty>
0.000

$$$$

  -OEChem-04052318193D

 87 95  0     1  0  0  0  0  0999 V2000
  -24.9076  -35.3641   22.1358 C   0  0  0  0  0  0  0  0  0  0  0  0
  -25.6300  -34.1784   22.0481 C   0  0  0  0  0  0  0  0  0  0  0  0
  -24.5546  -14.9413   19.8983 C   0  0  0  0  0  0  0  0  0  0  0  0
  -26.1832  -15.1549   21.6700 C   0  0  0  0  0  0  0  0  0  0  0  0
  -23.6383  -35.3647   22.7126 C   0  0  0  0  0  0  0  0  0  0  0  0
  -25.0838  -32.9927   22.5382 C   0  0  0  0  0  0  0  0  0  0  0  0
  -25.7235  -29.1004   19.3623 C   0  0  0  0  0  0  0  0  0  0  0  0
  -24.7071  -13.5551   19.9252 C   0  0  0  0  0  0  0  0  0  0  0  0
  -26.3357  -13.7686   21.6970 C   0  0  0  0  0  0  0  0  0  0  0  0
  -26.9820  -28.5010   19.3351 C   0  0  0  0  0  0  0  0  0  0  0  0
  -24.4013   -9.9358   19.7749 C   0  0  0  0  0  0  0  0  0  0  0  0
  -23.2458   -9.1555   19.7389 C   0  0  0  0  0  0  0  0  0  0  0  0
  -26.1624  -26.7299   20.7531 C   0  0  0  0  0  0  0  0  0  0  0  0
  -22.4858  -10.1864   21.7875 C   0  0  0  0  0  0  0  0  0  0  0  0
  -34.3215  -24.3748   19.3072 C   0  0  0  0  0  0  0  0  0  0  0  0
  -25.2927  -15.7412   20.7707 C   0  0  0  0  0  0  0  0  0  0  0  0
  -24.2237  -17.9432   21.4892 C   0  0  0  0  0  0  0  0  0  0  0  0
  -23.0723  -34.1766   23.2013 C   0  0  0  0  0  0  0  0  0  0  0  0
  -24.6762  -28.5239   20.0953 C   0  0  0  0  0  0  0  0  0  0  0  0
  -23.8063  -32.9776   23.1234 C   0  0  0  0  0  0  0  0  0  0  0  0
  -24.8909  -27.3226   20.7859 C   0  0  0  0  0  0  0  0  0  0  0  0
  -25.5977  -12.9687   20.8245 C   0  0  0  0  0  0  0  0  0  0  0  0
  -27.2024  -27.3172   20.0329 C   0  0  0  0  0  0  0  0  0  0  0  0
  -24.5992  -10.8415   20.8172 C   0  0  0  0  0  0  0  0  0  0  0  0
  -22.2880   -9.2808   20.7452 C   0  0  0  0  0  0  0  0  0  0  0  0
  -23.6414  -10.9668   21.8235 C   0  0  0  0  0  0  0  0  0  0  0  0
  -25.1360  -17.1733   20.7431 C   0  0  0  0  0  0  0  0  0  0  0  0
  -33.7380  -23.7858   20.4376 C   0  0  0  0  0  0  0  0  0  0  0  0
  -24.4728  -19.2382   21.1053 C   0  0  0  0  0  0  0  0  0  0  0  0
  -23.2392  -17.5252   22.4440 C   0  0  0  0  0  0  0  0  0  0  0  0
  -22.8952  -29.4408   22.5633 C   0  0  0  0  0  0  0  0  0  0  0  0
  -21.2976  -26.6890   21.9326 C   0  0  0  0  0  0  0  0  0  0  0  0
  -21.3417  -23.5604   20.5700 C   0  0  0  0  0  0  0  0  0  0  0  0
  -29.3052  -21.9668   18.8572 C   0  0  0  0  0  0  0  0  0  0  0  0
  -21.7164  -34.2354   23.8592 C   0  0  0  0  0  0  0  0  0  0  0  0
  -23.3173  -29.1687   20.0927 C   0  0  0  0  0  0  0  0  0  0  0  0
  -23.7943  -26.6525   21.5714 C   0  0  0  0  0  0  0  0  0  0  0  0
  -21.0555  -32.8683   24.0155 C   0  0  0  0  0  0  0  0  0  0  0  0
  -26.0639  -21.8030   17.3930 C   0  0  0  0  0  0  0  0  0  0  0  0
  -22.0501  -31.8551   24.5730 C   0  0  0  0  0  0  0  0  0  0  0  0
  -25.3762  -20.6673   18.1528 C   0  0  0  0  0  0  0  0  0  0  0  0
  -27.5473  -21.5163   17.1709 C   0  0  0  0  0  0  0  0  0  0  0  0
  -27.6171  -20.0540   19.1535 C   0  0  0  0  0  0  0  0  0  0  0  0
  -23.2376  -31.6666   23.6213 C   0  0  1  0  0  0  0  0  0  0  0  0
  -22.4632  -28.7674   21.2914 C   0  0  1  0  0  0  0  0  0  0  0  0
  -26.1318  -20.3227   19.4504 C   0  0  2  0  0  0  0  0  0  0  0  0
  -19.8984  -21.5337   20.2429 C   0  0  0  0  0  0  0  0  0  0  0  0
  -33.6046  -22.0315   22.3269 C   0  0  0  0  0  0  0  0  0  0  0  0
  -34.8348  -21.5257   20.2436 C   0  0  0  0  0  0  0  0  0  0  0  0
  -21.7106  -25.9257   24.8578 C   0  0  0  0  0  0  0  0  0  0  0  0
  -21.1231  -23.5682   24.2532 C   0  0  0  0  0  0  0  0  0  0  0  0
  -19.4436  -25.3875   23.9493 C   0  0  0  0  0  0  0  0  0  0  0  0
  -21.5055  -23.7763   17.6229 C   0  0  0  0  0  0  0  0  0  0  0  0
  -32.0020  -27.8357   20.4430 C   0  0  0  0  0  0  0  0  0  0  0  0
  -30.7573  -26.9533   20.5503 C   0  0  0  0  0  0  0  0  0  0  0  0
  -33.2396  -27.2094   21.0956 C   0  0  0  0  0  0  0  0  0  0  0  0
  -30.9989  -22.3020   20.6399 C   0  0  0  0  0  0  0  0  0  0  0  0
  -29.5585  -27.5912   19.8613 C   0  0  0  0  0  0  0  0  0  1  0  0
  -21.4227  -25.2532   22.3817 C   0  0  1  0  0  0  0  0  0  0  0  0
  -20.3692  -22.8506   19.6454 C   0  0  2  0  0  0  0  0  0  0  0  0
  -33.6126  -22.3633   20.7817 C   0  0  0  0  0  0  0  0  0  0  0  0
  -20.9464  -25.0470   23.8474 C   0  0  0  0  0  0  0  0  0  0  0  0
  -32.3130  -21.6793   20.1807 C   0  0  0  0  0  0  0  0  0  0  0  0
  -34.2218  -25.7047   19.3868 N   0  0  0  0  0  0  0  0  0  0  0  0
  -25.9070  -17.9171   19.9454 N   0  0  0  0  0  0  0  0  0  0  0  0
  -33.2624  -24.7351   21.2484 N   0  0  0  0  0  0  0  0  0  0  0  0
  -25.4797  -19.1679   20.1880 N   0  0  0  0  0  0  0  0  0  0  0  0
  -33.5848  -25.8423   20.5608 N   0  0  0  0  0  0  0  0  0  0  0  0
  -22.4849  -27.3250   21.5433 N   0  0  0  0  0  0  0  0  0  0  0  0
  -28.2058  -21.1983   18.4403 N   0  0  0  0  0  0  0  0  0  0  0  0
  -23.9265  -20.4188   21.4661 N   0  0  0  0  0  0  0  0  0  0  0  0
  -23.1160  -16.1568   22.7211 N   0  0  0  0  0  0  0  0  0  0  0  0
  -22.8637  -30.8211   22.5078 N   0  0  0  0  0  0  0  0  0  0  0  0
  -20.6979  -24.4537   21.3999 N   0  0  0  0  0  0  0  0  0  0  0  0
  -29.8665  -21.6025   20.0750 N   0  0  0  0  0  0  0  0  0  0  0  0
  -21.0156  -22.5668   18.3329 N   0  3  0  0  0  0  0  0  0  0  0  0
  -22.4797  -18.3394   23.0217 O   0  0  0  0  0  0  0  0  0  0  0  0
  -23.2308  -28.7585   23.5243 O   0  0  0  0  0  0  0  0  0  0  0  0
  -20.1863  -27.2243   21.9207 O   0  0  0  0  0  0  0  0  0  0  0  0
  -22.5510  -23.3414   20.5598 O   0  0  0  0  0  0  0  0  0  0  0  0
  -29.7499  -22.9112   18.1960 O   0  0  0  0  0  0  0  0  0  0  0  0
  -25.7465  -11.6161   20.8511 O   0  0  0  0  0  0  0  0  0  0  0  0
  -28.4300  -26.7304   20.0086 O   0  0  0  0  0  0  0  0  0  1  0  0
  -21.1776   -8.5324   20.7096 F   0  0  0  0  0  0  0  0  0  0  0  0
  -23.8253  -11.8359   22.8268 F   0  0  0  0  0  0  0  0  0  0  0  0
  -32.2789  -20.3469   20.4742 F   0  0  0  0  0  0  0  0  0  0  0  0
  -32.3719  -21.7525   18.8220 F   0  0  0  0  0  0  0  0  0  0  0  0
  1  2  1  0  0  0  0
  1  5  2  0  0  0  0
  2  6  2  0  0  0  0
  3  8  2  0  0  0  0
  3 16  1  0  0  0  0
  4  9  1  0  0  0  0
  4 16  2  0  0  0  0
  5 18  1  0  0  0  0
  6 20  1  0  0  0  0
  7 10  2  0  0  0  0
  7 19  1  0  0  0  0
  8 22  1  0  0  0  0
  9 22  2  0  0  0  0
 10 23  1  0  0  0  0
 11 12  2  0  0  0  0
 11 24  1  0  0  0  0
 12 25  1  0  0  0  0
 13 21  1  0  0  0  0
 13 23  2  0  0  0  0
 14 25  2  0  0  0  0
 14 26  1  0  0  0  0
 15 28  1  0  0  0  0
 15 64  2  0  0  0  0
 16 27  1  0  0  0  0
 17 27  1  0  0  0  0
 17 29  2  0  0  0  0
 17 30  1  0  0  0  0
 18 20  2  0  0  0  0
 18 35  1  0  0  0  0
 19 21  2  0  0  0  0
 19 36  1  0  0  0  0
 20 44  1  0  0  0  0
 21 37  1  0  0  0  0
 22 82  1  0  0  0  0
 23 83  1  0  0  0  0
 24 26  2  0  0  0  0
 24 82  1  0  0  0  0
 25 84  1  0  0  0  0
 26 85  1  0  0  0  0
 27 65  2  0  0  0  0
 28 61  1  0  0  0  0
 28 66  2  0  0  0  0
 29 67  1  0  0  0  0
 29 71  1  0  0  0  0
 30 72  1  0  0  0  0
 30 77  2  0  0  0  0
 31 45  1  0  0  0  0
 31 73  1  0  0  0  0
 31 78  2  0  0  0  0
 32 59  1  0  0  0  0
 32 69  1  0  0  0  0
 32 79  2  0  0  0  0
 33 60  1  0  0  0  0
 33 74  1  0  0  0  0
 33 80  2  0  0  0  0
 34 70  1  0  0  0  0
 34 75  1  0  0  0  0
 34 81  2  0  0  0  0
 35 38  1  0  0  0  0
 36 45  1  0  0  0  0
 37 69  1  0  0  0  0
 38 40  1  0  0  0  0
 39 41  1  0  0  0  0
 39 42  1  0  0  0  0
 40 44  1  0  0  0  0
 41 46  1  0  0  0  0
 42 70  1  0  0  0  0
 43 46  1  0  0  0  0
 43 70  1  0  0  0  0
 44 73  1  0  0  0  0
 45 69  1  0  0  0  0
 46 67  1  0  0  0  0
 47 60  1  0  0  0  0
 48 61  1  0  0  0  0
 49 61  1  0  0  0  0
 50 62  1  0  0  0  0
 51 62  1  0  0  0  0
 52 62  1  0  0  0  0
 53 76  1  0  0  0  0
 54 55  1  0  0  0  0
 54 56  1  0  0  0  0
 55 58  1  0  0  0  0
 56 68  1  0  0  0  0
 57 63  1  0  0  0  0
 57 75  1  0  0  0  0
 58 83  1  0  0  0  0
 59 62  1  0  0  0  0
 59 74  1  0  0  0  0
 60 76  1  0  0  0  0
 61 63  1  0  0  0  0
 63 86  1  0  0  0  0
 63 87  1  0  0  0  0
 64 68  1  0  0  0  0
 65 67  1  0  0  0  0
 66 68  1  0  0  0  0
M  CHG  1  76   1
M  ISO  4  34 100  58 101  75 100  83 101
M  END
> <Batch ID>
0070

> <Smiles>
CNC(C)C(=O)NC(C(=O)N1Cc2cc([101O:1][101CH2:1]CCCn3ncc(C(C)(C)C(F)(F)C[100NH:0][100C:0](=O)N4CCCC(n5nc(-c6ccc(Oc7ccc(F)cc7F)cc6)c(C(N)=O)c5N)C4)n3)ccc2CC1C(=O)NC1CCCc2ccccc21)C(C)(C)C

> <Shape>
0.206

> <Color>
0.086

> <Negative vol penalty>
0.000

$$$$

  -OEChem-04052318193D

 85 93  0     1  0  0  0  0  0999 V2000
  -28.4688  -25.1058   16.9590 C   0  0  0  0  0  0  0  0  0  0  0  0
  -27.2999  -25.2278   17.7034 C   0  0  0  0  0  0  0  0  0  0  0  0
  -25.6580  -15.7665   23.4580 C   0  0  0  0  0  0  0  0  0  0  0  0
  -26.7222  -17.1820   21.8145 C   0  0  0  0  0  0  0  0  0  0  0  0
  -29.6397  -25.7240   17.3957 C   0  0  0  0  0  0  0  0  0  0  0  0
  -27.3014  -25.9673   18.8855 C   0  0  0  0  0  0  0  0  0  0  0  0
  -23.2834  -29.0257   19.2691 C   0  0  0  0  0  0  0  0  0  0  0  0
  -25.2285  -14.9113   22.4433 C   0  0  0  0  0  0  0  0  0  0  0  0
  -26.2926  -16.3267   20.7998 C   0  0  0  0  0  0  0  0  0  0  0  0
  -22.0733  -28.4432   19.6436 C   0  0  0  0  0  0  0  0  0  0  0  0
  -24.1591  -12.1622   20.3186 C   0  0  0  0  0  0  0  0  0  0  0  0
  -24.3098  -10.7902   20.5198 C   0  0  0  0  0  0  0  0  0  0  0  0
  -21.4120  -23.6496   23.1822 C   0  0  0  0  0  0  0  0  0  0  0  0
  -22.6953  -23.2324   23.4889 C   0  0  0  0  0  0  0  0  0  0  0  0
  -22.4101  -29.2121   21.9051 C   0  0  0  0  0  0  0  0  0  0  0  0
  -26.6987  -11.0833   20.7299 C   0  0  0  0  0  0  0  0  0  0  0  0
  -26.4049  -16.9019   23.1436 C   0  0  0  0  0  0  0  0  0  0  0  0
  -28.0564  -17.7133   24.9104 C   0  0  0  0  0  0  0  0  0  0  0  0
  -29.6533  -26.4796   18.5787 C   0  0  0  0  0  0  0  0  0  0  0  0
  -24.0725  -29.6974   20.2138 C   0  0  0  0  0  0  0  0  0  0  0  0
  -28.4739  -26.5952   19.3391 C   0  0  0  0  0  0  0  0  0  0  0  0
  -23.6285  -29.8044   21.5396 C   0  0  0  0  0  0  0  0  0  0  0  0
  -25.5458  -15.1913   21.1142 C   0  0  0  0  0  0  0  0  0  0  0  0
  -21.6379  -28.5339   20.9624 C   0  0  0  0  0  0  0  0  0  0  0  0
  -25.2783  -12.9948   20.3230 C   0  0  0  0  0  0  0  0  0  0  0  0
  -25.5796  -10.2508   20.7255 C   0  0  0  0  0  0  0  0  0  0  0  0
  -26.5481  -12.4554   20.5286 C   0  0  0  0  0  0  0  0  0  0  0  0
  -26.8484  -17.7861   24.1913 C   0  0  0  0  0  0  0  0  0  0  0  0
  -21.2642  -24.6368   22.2287 C   0  0  0  0  0  0  0  0  0  0  0  0
  -23.7457  -23.8297   22.8216 C   0  0  0  0  0  0  0  0  0  0  0  0
  -28.0001  -18.7716   25.7842 C   0  0  0  0  0  0  0  0  0  0  0  0
  -29.1332  -16.7732   24.7986 C   0  0  0  0  0  0  0  0  0  0  0  0
  -26.9961  -29.2883   21.3924 C   0  0  0  0  0  0  0  0  0  0  0  0
  -26.3762  -32.1123   22.8632 C   0  0  0  0  0  0  0  0  0  0  0  0
  -24.9913  -23.9701   25.6017 C   0  0  0  0  0  0  0  0  0  0  0  0
  -24.0524  -34.3177   24.0392 C   0  0  0  0  0  0  0  0  0  0  0  0
  -30.9545  -27.0903   19.0352 C   0  0  0  0  0  0  0  0  0  0  0  0
  -25.3624  -30.3434   19.7881 C   0  0  0  0  0  0  0  0  0  0  0  0
  -24.4288  -30.5321   22.5876 C   0  0  0  0  0  0  0  0  0  0  0  0
  -30.7805  -28.1670   20.1032 C   0  0  0  0  0  0  0  0  0  0  0  0
  -24.8953  -21.4918   28.1879 C   0  0  0  0  0  0  0  0  0  0  0  0
  -29.8225  -27.6907   21.1904 C   0  0  0  0  0  0  0  0  0  0  0  0
  -25.4686  -20.2464   27.5131 C   0  0  0  0  0  0  0  0  0  0  0  0
  -24.0771  -22.3299   27.2105 C   0  0  0  0  0  0  0  0  0  0  0  0
  -25.3953  -21.4769   25.2983 C   0  0  0  0  0  0  0  0  0  0  0  0
  -28.4296  -27.4096   20.6139 C   0  0  1  0  0  0  0  0  0  0  0  0
  -26.3326  -30.5601   20.9453 C   0  0  1  0  0  0  0  0  0  0  0  0
  -26.2543  -20.6180   26.2431 C   0  0  2  0  0  0  0  0  0  0  0  0
  -23.8496  -36.5195   25.2259 C   0  0  0  0  0  0  0  0  0  0  0  0
  -26.0999  -23.5708   21.8614 C   0  0  0  0  0  0  0  0  0  0  0  0
  -25.2442  -21.8611   23.4004 C   0  0  0  0  0  0  0  0  0  0  0  0
  -25.8075  -25.7416   24.1325 C   0  0  0  0  0  0  0  0  0  0  0  0
  -27.2510  -23.8013   24.7080 C   0  0  0  0  0  0  0  0  0  0  0  0
  -27.1025  -30.7562   25.4982 C   0  0  0  0  0  0  0  0  0  0  0  0
  -25.9917  -32.6514   26.6993 C   0  0  0  0  0  0  0  0  0  0  0  0
  -27.9743  -33.0870   25.2495 C   0  0  0  0  0  0  0  0  0  0  0  0
  -22.6244  -35.5478   21.7574 C   0  0  0  0  0  0  0  0  0  0  0  0
  -19.8878  -25.1292   21.8589 C   0  0  0  0  0  0  0  0  0  0  0  0
  -19.4061  -26.3069   22.7089 C   0  0  0  0  0  0  0  0  0  0  0  0
  -20.3517  -27.5019   22.6761 C   0  0  0  0  0  0  0  0  0  1  0  0
  -25.7558  -32.5195   24.1778 C   0  0  1  0  0  0  0  0  0  0  0  0
  -23.9176  -35.8210   23.8768 C   0  0  2  0  0  0  0  0  0  0  0  0
  -25.1468  -23.4134   23.1130 C   0  0  0  0  0  0  0  0  0  0  0  0
  -25.8054  -24.2139   24.3560 C   0  0  0  0  0  0  0  0  0  0  0  0
  -26.6917  -32.2381   25.3871 C   0  0  0  0  0  0  0  0  0  0  0  0
  -26.0807  -18.8096   24.5750 N   0  0  0  0  0  0  0  0  0  0  0  0
  -22.3104  -25.2038   21.5914 N   0  0  0  0  0  0  0  0  0  0  0  0
  -23.5715  -24.7934   21.8926 N   0  0  0  0  0  0  0  0  0  0  0  0
  -26.8081  -19.3896   25.5448 N   0  0  0  0  0  0  0  0  0  0  0  0
  -25.6861  -31.1415   22.1235 N   0  0  0  0  0  0  0  0  0  0  0  0
  -24.8510  -22.6430   26.0078 N   0  0  0  0  0  0  0  0  0  0  0  0
  -28.8545  -19.2243   26.7263 N   0  0  0  0  0  0  0  0  0  0  0  0
  -29.0288  -15.7477   23.8490 N   0  0  0  0  0  0  0  0  0  0  0  0
  -27.7122  -28.6480   20.3992 N   0  0  0  0  0  0  0  0  0  0  0  0
  -25.3725  -33.9196   24.0320 N   0  0  0  0  0  0  0  0  0  0  0  0
  -22.6805  -36.1507   23.1140 N   0  3  0  0  0  0  0  0  0  0  0  0
  -30.1501  -16.8309   25.5307 O   0  0  0  0  0  0  0  0  0  0  0  0
  -26.8690  -28.9163   22.5531 O   0  0  0  0  0  0  0  0  0  0  0  0
  -27.4305  -32.6414   22.5024 O   0  0  0  0  0  0  0  0  0  0  0  0
  -24.4980  -24.9321   26.1963 O   0  0  0  0  0  0  0  0  0  0  0  0
  -23.0837  -33.5717   24.1640 O   0  0  0  0  0  0  0  0  0  0  0  0
  -25.1270  -14.3568   20.1239 O   0  0  0  0  0  0  0  0  0  0  0  0
  -20.4575  -27.9657   21.3307 O   0  0  0  0  0  0  0  0  0  1  0  0
  -25.7239   -8.9334   20.9202 F   0  0  0  0  0  0  0  0  0  0  0  0
  -27.6269  -13.2504   20.5351 F   0  0  0  0  0  0  0  0  0  0  0  0
  1  2  1  0  0  0  0
  1  5  2  0  0  0  0
  2  6  2  0  0  0  0
  3  8  2  0  0  0  0
  3 17  1  0  0  0  0
  4  9  1  0  0  0  0
  4 17  2  0  0  0  0
  5 19  1  0  0  0  0
  6 21  1  0  0  0  0
  7 10  2  0  0  0  0
  7 20  1  0  0  0  0
  8 23  1  0  0  0  0
  9 23  2  0  0  0  0
 10 24  1  0  0  0  0
 11 12  2  0  0  0  0
 11 25  1  0  0  0  0
 12 26  1  0  0  0  0
 13 14  2  0  0  0  0
 13 29  1  0  0  0  0
 14 30  1  0  0  0  0
 15 22  1  0  0  0  0
 15 24  2  0  0  0  0
 16 26  2  0  0  0  0
 16 27  1  0  0  0  0
 17 28  1  0  0  0  0
 18 28  1  0  0  0  0
 18 31  2  0  0  0  0
 18 32  1  0  0  0  0
 19 21  2  0  0  0  0
 19 37  1  0  0  0  0
 20 22  2  0  0  0  0
 20 38  1  0  0  0  0
 21 46  1  0  0  0  0
 22 39  1  0  0  0  0
 23 82  1  0  0  0  0
 24 83  1  0  0  0  0
 25 27  2  0  0  0  0
 25 82  1  0  0  0  0
 26 84  1  0  0  0  0
 27 85  1  0  0  0  0
 28 66  2  0  0  0  0
 29 58  1  0  0  0  0
 29 67  2  0  0  0  0
 30 63  1  0  0  0  0
 30 68  2  0  0  0  0
 31 69  1  0  0  0  0
 31 72  1  0  0  0  0
 32 73  1  0  0  0  0
 32 77  2  0  0  0  0
 33 47  1  0  0  0  0
 33 74  1  0  0  0  0
 33 78  2  0  0  0  0
 34 61  1  0  0  0  0
 34 70  1  0  0  0  0
 34 79  2  0  0  0  0
 35 64  1  0  0  0  0
 35 71  1  0  0  0  0
 35 80  2  0  0  0  0
 36 62  1  0  0  0  0
 36 75  1  0  0  0  0
 36 81  2  0  0  0  0
 37 40  1  0  0  0  0
 38 47  1  0  0  0  0
 39 70  1  0  0  0  0
 40 42  1  0  0  0  0
 41 43  1  0  0  0  0
 41 44  1  0  0  0  0
 42 46  1  0  0  0  0
 43 48  1  0  0  0  0
 44 71  1  0  0  0  0
 45 48  1  0  0  0  0
 45 71  1  0  0  0  0
 46 74  1  0  0  0  0
 47 70  1  0  0  0  0
 48 69  1  0  0  0  0
 49 62  1  0  0  0  0
 50 63  1  0  0  0  0
 51 63  1  0  0  0  0
 52 64  1  0  0  0  0
 53 64  1  0  0  0  0
 54 65  1  0  0  0  0
 55 65  1  0  0  0  0
 56 65  1  0  0  0  0
 57 76  1  0  0  0  0
 58 59  1  0  0  0  0
 59 60  1  0  0  0  0
 60 83  1  0  0  0  0
 61 65  1  0  0  0  0
 61 75  1  0  0  0  0
 62 76  1  0  0  0  0
 63 64  1  0  0  0  0
 66 69  1  0  0  0  0
 67 68  1  0  0  0  0
M  CHG  1  76   1
M  ISO  4  35 100  60 101  64 100  83 101
M  END
> <Batch ID>
0070

> <Smiles>
CNC(C)C(=O)NC(C(=O)N1Cc2cc([101O:1][101CH2:1]CCc3ccc(C(C)(C)[100C:0](C)(C)[100C:0](=O)N4CCCC(n5nc(-c6ccc(Oc7ccc(F)cc7F)cc6)c(C(N)=O)c5N)C4)nn3)ccc2CC1C(=O)NC1CCCc2ccccc21)C(C)(C)C

> <Shape>
0.248

> <Color>
0.058

> <Negative vol penalty>
0.000

$$$$

  -OEChem-04052318193D

 85 93  0     1  0  0  0  0  0999 V2000
  -26.0207  -35.3840   23.4686 C   0  0  0  0  0  0  0  0  0  0  0  0
  -26.5786  -34.1420   23.1830 C   0  0  0  0  0  0  0  0  0  0  0  0
  -25.3047  -11.8051   21.4271 C   0  0  0  0  0  0  0  0  0  0  0  0
  -25.0114  -13.3032   23.2997 C   0  0  0  0  0  0  0  0  0  0  0  0
  -24.7265  -35.4644   23.9809 C   0  0  0  0  0  0  0  0  0  0  0  0
  -25.8430  -32.9795   23.4107 C   0  0  0  0  0  0  0  0  0  0  0  0
  -26.1631  -29.6943   19.5701 C   0  0  0  0  0  0  0  0  0  0  0  0
  -25.8107  -10.8299   22.2865 C   0  0  0  0  0  0  0  0  0  0  0  0
  -25.5173  -12.3280   24.1592 C   0  0  0  0  0  0  0  0  0  0  0  0
  -27.3267  -28.9317   19.4799 C   0  0  0  0  0  0  0  0  0  0  0  0
  -26.8428   -7.8164   24.0383 C   0  0  0  0  0  0  0  0  0  0  0  0
  -26.3784   -6.5104   23.8823 C   0  0  0  0  0  0  0  0  0  0  0  0
  -26.1767  -27.0683   20.4921 C   0  0  0  0  0  0  0  0  0  0  0  0
  -24.1244   -7.2590   24.3250 C   0  0  0  0  0  0  0  0  0  0  0  0
  -30.7338  -21.2668   20.3223 C   0  0  0  0  0  0  0  0  0  0  0  0
  -30.0422  -22.2981   18.5076 C   0  0  0  0  0  0  0  0  0  0  0  0
  -24.9051  -13.0418   21.9337 C   0  0  0  0  0  0  0  0  0  0  0  0
  -23.0379  -14.2452   20.6796 C   0  0  0  0  0  0  0  0  0  0  0  0
  -23.9711  -34.3028   24.2059 C   0  0  0  0  0  0  0  0  0  0  0  0
  -24.9986  -29.1523   20.1329 C   0  0  0  0  0  0  0  0  0  0  0  0
  -24.5379  -33.0444   23.9278 C   0  0  0  0  0  0  0  0  0  0  0  0
  -24.9989  -27.8254   20.5860 C   0  0  0  0  0  0  0  0  0  0  0  0
  -31.0647  -22.2995   19.4246 C   0  0  0  0  0  0  0  0  0  0  0  0
  -25.9170  -11.0913   23.6526 C   0  0  0  0  0  0  0  0  0  0  0  0
  -27.3344  -27.6194   19.9436 C   0  0  0  0  0  0  0  0  0  0  0  0
  -25.9480   -8.8437   24.3377 C   0  0  0  0  0  0  0  0  0  0  0  0
  -25.0192   -6.2317   24.0256 C   0  0  0  0  0  0  0  0  0  0  0  0
  -24.5888   -8.5650   24.4811 C   0  0  0  0  0  0  0  0  0  0  0  0
  -24.3829  -14.0498   21.0464 C   0  0  0  0  0  0  0  0  0  0  0  0
  -23.0677  -15.3203   19.8253 C   0  0  0  0  0  0  0  0  0  0  0  0
  -21.8663  -13.5199   21.0757 C   0  0  0  0  0  0  0  0  0  0  0  0
  -23.1931  -29.8468   22.6551 C   0  0  0  0  0  0  0  0  0  0  0  0
  -21.2820  -27.5262   21.4367 C   0  0  0  0  0  0  0  0  0  0  0  0
  -24.8155  -20.4124   18.6878 C   0  0  0  0  0  0  0  0  0  0  0  0
  -20.9924  -24.7336   19.4965 C   0  0  0  0  0  0  0  0  0  0  0  0
  -22.5937  -34.4375   24.8055 C   0  0  0  0  0  0  0  0  0  0  0  0
  -23.7441  -29.9794   20.1985 C   0  0  0  0  0  0  0  0  0  0  0  0
  -23.7693  -27.1900   21.1800 C   0  0  0  0  0  0  0  0  0  0  0  0
  -21.7429  -33.1777   24.6660 C   0  0  0  0  0  0  0  0  0  0  0  0
  -26.9499  -17.6718   17.6105 C   0  0  0  0  0  0  0  0  0  0  0  0
  -22.5488  -31.9432   25.0576 C   0  0  0  0  0  0  0  0  0  0  0  0
  -26.3730  -16.5032   18.4085 C   0  0  0  0  0  0  0  0  0  0  0  0
  -26.8928  -18.9751   18.4030 C   0  0  0  0  0  0  0  0  0  0  0  0
  -24.9460  -18.1551   19.6923 C   0  0  0  0  0  0  0  0  0  0  0  0
  -23.7624  -31.7620   24.1379 C   0  0  1  0  0  0  0  0  0  0  0  0
  -22.7623  -29.4926   21.2599 C   0  0  1  0  0  0  0  0  0  0  0  0
  -24.9572  -16.8274   18.9164 C   0  0  2  0  0  0  0  0  0  0  0  0
  -19.3119  -23.0382   18.7226 C   0  0  0  0  0  0  0  0  0  0  0  0
  -24.5563  -22.6828   17.7902 C   0  0  0  0  0  0  0  0  0  0  0  0
  -21.3835  -26.1801   24.1731 C   0  0  0  0  0  0  0  0  0  0  0  0
  -20.5226  -24.0889   23.0989 C   0  0  0  0  0  0  0  0  0  0  0  0
  -19.1325  -26.1601   23.0835 C   0  0  0  0  0  0  0  0  0  0  0  0
  -21.3878  -25.4668   16.6566 C   0  0  0  0  0  0  0  0  0  0  0  0
  -32.2690  -23.2066   19.4609 C   0  0  0  0  0  0  0  0  0  0  0  0
  -32.0523  -24.4918   20.2677 C   0  0  0  0  0  0  0  0  0  0  0  0
  -30.9645  -25.3943   19.6768 C   0  0  0  0  0  0  0  0  0  0  0  0
  -30.7616  -26.6463   20.5283 C   0  0  0  0  0  0  0  0  0  0  0  0
  -26.8299  -21.9019   18.5489 C   0  0  0  0  0  0  0  0  0  0  0  0
  -27.9672  -20.9190   18.2407 C   0  0  0  0  0  0  0  0  0  0  0  0
  -29.7121  -27.5704   19.9270 C   0  0  0  0  0  0  0  0  0  1  0  0
  -21.1783  -26.0294   21.6038 C   0  0  1  0  0  0  0  0  0  0  0  0
  -19.9984  -24.3591   18.4120 C   0  0  2  0  0  0  0  0  0  0  0  0
  -25.5045  -21.4950   17.8959 C   0  0  1  0  0  0  0  0  0  0  0  0
  -20.5781  -25.6269   22.9804 C   0  0  0  0  0  0  0  0  0  0  0  0
  -29.5903  -20.6541   20.0045 N   0  0  0  0  0  0  0  0  0  0  0  0
  -25.2071  -14.9299   20.4720 N   0  0  0  0  0  0  0  0  0  0  0  0
  -29.1938  -21.3037   18.8969 N   0  0  0  0  0  0  0  0  0  0  0  0
  -24.3778  -15.6888   19.7355 N   0  0  0  0  0  0  0  0  0  0  0  0
  -22.5692  -28.0414   21.2281 N   0  0  0  0  0  0  0  0  0  0  0  0
  -25.5334  -19.2338   18.8924 N   0  0  0  0  0  0  0  0  0  0  0  0
  -22.1009  -15.9768   19.1495 N   0  0  0  0  0  0  0  0  0  0  0  0
  -22.0146  -12.4426   21.9599 N   0  0  0  0  0  0  0  0  0  0  0  0
  -23.3544  -31.2027   22.8670 N   0  0  0  0  0  0  0  0  0  0  0  0
  -20.4208  -25.5420   20.4561 N   0  0  0  0  0  0  0  0  0  0  0  0
  -20.6892  -24.2321   17.0976 N   0  3  0  0  0  0  0  0  0  0  0  0
  -20.7239  -13.8080   20.6452 O   0  0  0  0  0  0  0  0  0  0  0  0
  -23.3650  -28.9559   23.4788 O   0  0  0  0  0  0  0  0  0  0  0  0
  -20.2578  -28.2121   21.4822 O   0  0  0  0  0  0  0  0  0  0  0  0
  -23.6725  -20.6091   19.1086 O   0  0  0  0  0  0  0  0  0  0  0  0
  -22.1582  -24.3445   19.4946 O   0  0  0  0  0  0  0  0  0  0  0  0
  -26.4105  -10.1399   24.4915 O   0  0  0  0  0  0  0  0  0  0  0  0
  -28.4691  -26.8730   19.8573 O   0  0  0  0  0  0  0  0  0  1  0  0
  -24.5732   -4.9778   23.8743 F   0  0  0  0  0  0  0  0  0  0  0  0
  -23.7242   -9.5480   24.7675 F   0  0  0  0  0  0  0  0  0  0  0  0
  -25.7609  -21.0611   16.6290 F   0  0  0  0  0  0  0  0  0  0  0  0
  1  2  1  0  0  0  0
  1  5  2  0  0  0  0
  2  6  2  0  0  0  0
  3  8  2  0  0  0  0
  3 17  1  0  0  0  0
  4  9  1  0  0  0  0
  4 17  2  0  0  0  0
  5 19  1  0  0  0  0
  6 21  1  0  0  0  0
  7 10  2  0  0  0  0
  7 20  1  0  0  0  0
  8 24  1  0  0  0  0
  9 24  2  0  0  0  0
 10 25  1  0  0  0  0
 11 12  2  0  0  0  0
 11 26  1  0  0  0  0
 12 27  1  0  0  0  0
 13 22  1  0  0  0  0
 13 25  2  0  0  0  0
 14 27  2  0  0  0  0
 14 28  1  0  0  0  0
 15 23  1  0  0  0  0
 15 65  2  0  0  0  0
 16 23  2  0  0  0  0
 16 67  1  0  0  0  0
 17 29  1  0  0  0  0
 18 29  1  0  0  0  0
 18 30  2  0  0  0  0
 18 31  1  0  0  0  0
 19 21  2  0  0  0  0
 19 36  1  0  0  0  0
 20 22  2  0  0  0  0
 20 37  1  0  0  0  0
 21 45  1  0  0  0  0
 22 38  1  0  0  0  0
 23 54  1  0  0  0  0
 24 81  1  0  0  0  0
 25 82  1  0  0  0  0
 26 28  2  0  0  0  0
 26 81  1  0  0  0  0
 27 83  1  0  0  0  0
 28 84  1  0  0  0  0
 29 66  2  0  0  0  0
 30 68  1  0  0  0  0
 30 71  1  0  0  0  0
 31 72  1  0  0  0  0
 31 76  2  0  0  0  0
 32 46  1  0  0  0  0
 32 73  1  0  0  0  0
 32 77  2  0  0  0  0
 33 61  1  0  0  0  0
 33 69  1  0  0  0  0
 33 78  2  0  0  0  0
 34 63  1  0  0  0  0
 34 70  1  0  0  0  0
 34 79  2  0  0  0  0
 35 62  1  0  0  0  0
 35 74  1  0  0  0  0
 35 80  2  0  0  0  0
 36 39  1  0  0  0  0
 37 46  1  0  0  0  0
 38 69  1  0  0  0  0
 39 41  1  0  0  0  0
 40 42  1  0  0  0  0
 40 43  1  0  0  0  0
 41 45  1  0  0  0  0
 42 47  1  0  0  0  0
 43 70  1  0  0  0  0
 44 47  1  0  0  0  0
 44 70  1  0  0  0  0
 45 73  1  0  0  0  0
 46 69  1  0  0  0  0
 47 68  1  0  0  0  0
 48 62  1  0  0  0  0
 49 63  1  0  0  0  0
 50 64  1  0  0  0  0
 51 64  1  0  0  0  0
 52 64  1  0  0  0  0
 53 75  1  0  0  0  0
 54 55  1  0  0  0  0
 55 56  1  0  0  0  0
 56 57  1  0  0  0  0
 57 60  1  0  0  0  0
 58 59  1  0  0  0  0
 58 63  1  0  0  0  0
 59 67  1  0  0  0  0
 60 82  1  0  0  0  0
 61 64  1  0  0  0  0
 61 74  1  0  0  0  0
 62 75  1  0  0  0  0
 63 85  1  0  0  0  0
 65 67  1  0  0  0  0
 66 68  1  0  0  0  0
M  CHG  1  75   1
M  ISO  4  34 100  60 101  63 100  82 101
M  END
> <Batch ID>
0070

> <Smiles>
CNC(C)C(=O)NC(C(=O)N1Cc2cc([101O:1][101CH2:1]CCCCc3cnn(CC[100C:0](C)(F)[100C:0](=O)N4CCCC(n5nc(-c6ccc(Oc7ccc(F)cc7F)cc6)c(C(N)=O)c5N)C4)c3)ccc2CC1C(=O)NC1CCCc2ccccc21)C(C)(C)C

> <Shape>
0.223

> <Color>
0.114

> <Negative vol penalty>
0.000

$$$$

  -OEChem-04052318193D

 86 94  0     1  0  0  0  0  0999 V2000
  -29.0873  -12.7102   19.2444 C   0  0  0  0  0  0  0  0  0  0  0  0
  -28.8708  -14.0576   18.9740 C   0  0  0  0  0  0  0  0  0  0  0  0
  -28.7355  -25.2909   18.3808 C   0  0  0  0  0  0  0  0  0  0  0  0
  -27.0435  -23.9585   19.4757 C   0  0  0  0  0  0  0  0  0  0  0  0
  -28.0457  -11.9223   19.7326 C   0  0  0  0  0  0  0  0  0  0  0  0
  -27.6123  -14.6176   19.1906 C   0  0  0  0  0  0  0  0  0  0  0  0
  -24.4997  -20.7602   21.1644 C   0  0  0  0  0  0  0  0  0  0  0  0
  -29.6625  -24.2651   18.5649 C   0  0  0  0  0  0  0  0  0  0  0  0
  -27.9705  -22.9326   19.6599 C   0  0  0  0  0  0  0  0  0  0  0  0
  -23.5187  -21.6555   20.7403 C   0  0  0  0  0  0  0  0  0  0  0  0
  -30.5233  -22.2293   21.7621 C   0  0  0  0  0  0  0  0  0  0  0  0
  -30.5711  -21.6160   23.0140 C   0  0  0  0  0  0  0  0  0  0  0  0
  -21.8157  -20.2165   21.6612 C   0  0  0  0  0  0  0  0  0  0  0  0
  -30.0335  -19.4927   21.9942 C   0  0  0  0  0  0  0  0  0  0  0  0
  -18.7940  -27.4753   21.8154 C   0  0  0  0  0  0  0  0  0  0  0  0
  -27.4260  -25.1376   18.8362 C   0  0  0  0  0  0  0  0  0  0  0  0
  -25.6105  -26.3810   17.5457 C   0  0  0  0  0  0  0  0  0  0  0  0
  -26.7764  -12.4751   19.9644 C   0  0  0  0  0  0  0  0  0  0  0  0
  -24.1447  -19.5790   21.8317 C   0  0  0  0  0  0  0  0  0  0  0  0
  -26.5524  -13.8360   19.6811 C   0  0  0  0  0  0  0  0  0  0  0  0
  -22.7942  -19.3091   22.0950 C   0  0  0  0  0  0  0  0  0  0  0  0
  -19.5450  -28.1990   22.7091 C   0  0  0  0  0  0  0  0  0  0  0  0
  -29.2800  -23.0859   19.2044 C   0  0  0  0  0  0  0  0  0  0  0  0
  -22.1763  -21.3823   20.9860 C   0  0  0  0  0  0  0  0  0  0  0  0
  -30.2306  -21.4744   20.6263 C   0  0  0  0  0  0  0  0  0  0  0  0
  -30.3262  -20.2477   23.1301 C   0  0  0  0  0  0  0  0  0  0  0  0
  -29.9857  -20.1061   20.7424 C   0  0  0  0  0  0  0  0  0  0  0  0
  -26.4681  -26.1972   18.6468 C   0  0  0  0  0  0  0  0  0  0  0  0
  -19.5168  -27.4359   23.8917 C   0  0  0  0  0  0  0  0  0  0  0  0
  -24.9058  -27.5211   17.8459 C   0  0  0  0  0  0  0  0  0  0  0  0
  -25.4638  -25.5917   16.3577 C   0  0  0  0  0  0  0  0  0  0  0  0
  -24.4848  -16.4758   21.2332 C   0  0  0  0  0  0  0  0  0  0  0  0
  -23.2587  -16.1631   24.2201 C   0  0  0  0  0  0  0  0  0  0  0  0
  -21.3887  -17.5058   26.7394 C   0  0  0  0  0  0  0  0  0  0  0  0
  -22.5742  -30.2717   22.3750 C   0  0  0  0  0  0  0  0  0  0  0  0
  -25.6689  -11.5728   20.4482 C   0  0  0  0  0  0  0  0  0  0  0  0
  -25.2165  -18.6366   22.3064 C   0  0  0  0  0  0  0  0  0  0  0  0
  -22.3620  -18.0648   22.8255 C   0  0  0  0  0  0  0  0  0  0  0  0
  -24.4659  -12.3298   21.0049 C   0  0  0  0  0  0  0  0  0  0  0  0
  -25.6170  -31.3593   20.8799 C   0  0  0  0  0  0  0  0  0  0  0  0
  -24.0705  -13.4670   20.0682 C   0  0  0  0  0  0  0  0  0  0  0  0
  -26.0669  -30.1561   20.0493 C   0  0  0  0  0  0  0  0  0  0  0  0
  -24.9557  -30.9273   22.1868 C   0  0  0  0  0  0  0  0  0  0  0  0
  -24.2936  -28.7677   21.2010 C   0  0  0  0  0  0  0  0  0  0  0  0
  -25.2079  -14.4857   19.9265 C   0  0  1  0  0  0  0  0  0  0  0  0
  -24.7088  -17.2143   22.5225 C   0  0  1  0  0  0  0  0  0  0  0  0
  -24.9161  -29.1519   19.8478 C   0  0  2  0  0  0  0  0  0  0  0  0
  -19.5055  -30.3753   21.4348 C   0  0  0  0  0  0  0  0  0  0  0  0
  -20.5335  -16.9984   29.0435 C   0  0  0  0  0  0  0  0  0  0  0  0
  -21.1580  -14.2992   23.0273 C   0  0  0  0  0  0  0  0  0  0  0  0
  -19.8140  -14.5886   25.1196 C   0  0  0  0  0  0  0  0  0  0  0  0
  -22.0822  -13.5562   25.2292 C   0  0  0  0  0  0  0  0  0  0  0  0
  -22.8286  -19.8124   27.9078 C   0  0  0  0  0  0  0  0  0  0  0  0
  -18.1563  -23.8645   22.0593 C   0  0  0  0  0  0  0  0  0  0  0  0
  -19.4368  -23.7213   21.2352 C   0  0  0  0  0  0  0  0  0  0  0  0
  -17.5195  -25.2539   21.9422 C   0  0  0  0  0  0  0  0  0  0  0  0
  -20.0207  -22.3195   21.3482 C   0  0  0  0  0  0  0  0  0  1  0  0
  -20.2225  -29.4847   22.4709 C   0  0  2  0  0  0  0  0  0  0  0  0
  -21.8696  -16.0383   24.7979 C   0  0  1  0  0  0  0  0  0  0  0  0
  -21.6497  -17.6340   28.2294 C   0  0  2  0  0  0  0  0  0  0  0  0
  -20.1621  -27.7429   25.1802 C   0  0  0  0  0  0  0  0  0  0  0  0
  -21.2387  -14.6432   24.5280 C   0  0  0  0  0  0  0  0  0  0  0  0
  -26.3233  -27.1447   19.5770 N   0  0  0  0  0  0  0  0  0  0  0  0
  -18.8042  -26.3134   23.7642 N   0  0  0  0  0  0  0  0  0  0  0  0
  -18.3776  -26.3660   22.4908 N   0  0  0  0  0  0  0  0  0  0  0  0
  -25.3665  -27.9349   19.0611 N   0  0  0  0  0  0  0  0  0  0  0  0
  -23.4468  -17.1713   23.2640 N   0  0  0  0  0  0  0  0  0  0  0  0
  -23.8720  -29.9768   21.9258 N   0  0  0  0  0  0  0  0  0  0  0  0
  -23.9433  -28.2000   17.1863 N   0  0  0  0  0  0  0  0  0  0  0  0
  -26.2662  -24.4522   16.2094 N   0  0  0  0  0  0  0  0  0  0  0  0
  -25.2651  -15.3444   21.0901 N   0  0  0  0  0  0  0  0  0  0  0  0
  -21.9835  -16.3792   26.2118 N   0  0  0  0  0  0  0  0  0  0  0  0
  -21.6050  -29.3206   22.0804 N   0  0  0  0  0  0  0  0  0  0  0  0
  -21.7541  -19.0696   28.6153 N   0  3  0  0  0  0  0  0  0  0  0  0
  -24.6572  -25.8973   15.4471 O   0  0  0  0  0  0  0  0  0  0  0  0
  -23.6637  -16.9002   20.4286 O   0  0  0  0  0  0  0  0  0  0  0  0
  -24.1460  -15.3991   24.6082 O   0  0  0  0  0  0  0  0  0  0  0  0
  -20.7206  -18.3213   26.1077 O   0  0  0  0  0  0  0  0  0  0  0  0
  -22.2986  -31.3085   22.9882 O   0  0  0  0  0  0  0  0  0  0  0  0
  -30.1843  -22.0846   19.3841 O   0  0  0  0  0  0  0  0  0  0  0  0
  -21.2167  -22.2542   20.5725 O   0  0  0  0  0  0  0  0  0  1  0  0
  -30.3736  -19.6586   24.3321 F   0  0  0  0  0  0  0  0  0  0  0  0
  -29.7051  -19.3754   19.6546 F   0  0  0  0  0  0  0  0  0  0  0  0
  -20.8667  -28.9216   25.1932 F   0  0  0  0  0  0  0  0  0  0  0  0
  -19.2906  -27.8567   26.2353 F   0  0  0  0  0  0  0  0  0  0  0  0
  -21.0670  -26.7903   25.5750 F   0  0  0  0  0  0  0  0  0  0  0  0
  1  2  1  0  0  0  0
  1  5  2  0  0  0  0
  2  6  2  0  0  0  0
  3  8  2  0  0  0  0
  3 16  1  0  0  0  0
  4  9  1  0  0  0  0
  4 16  2  0  0  0  0
  5 18  1  0  0  0  0
  6 20  1  0  0  0  0
  7 10  2  0  0  0  0
  7 19  1  0  0  0  0
  8 23  1  0  0  0  0
  9 23  2  0  0  0  0
 10 24  1  0  0  0  0
 11 12  2  0  0  0  0
 11 25  1  0  0  0  0
 12 26  1  0  0  0  0
 13 21  1  0  0  0  0
 13 24  2  0  0  0  0
 14 26  2  0  0  0  0
 14 27  1  0  0  0  0
 15 22  2  0  0  0  0
 15 65  1  0  0  0  0
 16 28  1  0  0  0  0
 17 28  1  0  0  0  0
 17 30  2  0  0  0  0
 17 31  1  0  0  0  0
 18 20  2  0  0  0  0
 18 36  1  0  0  0  0
 19 21  2  0  0  0  0
 19 37  1  0  0  0  0
 20 45  1  0  0  0  0
 21 38  1  0  0  0  0
 22 29  1  0  0  0  0
 22 58  1  0  0  0  0
 23 80  1  0  0  0  0
 24 81  1  0  0  0  0
 25 27  2  0  0  0  0
 25 80  1  0  0  0  0
 26 82  1  0  0  0  0
 27 83  1  0  0  0  0
 28 63  2  0  0  0  0
 29 61  1  0  0  0  0
 29 64  2  0  0  0  0
 30 66  1  0  0  0  0
 30 69  1  0  0  0  0
 31 70  1  0  0  0  0
 31 75  2  0  0  0  0
 32 46  1  0  0  0  0
 32 71  1  0  0  0  0
 32 76  2  0  0  0  0
 33 59  1  0  0  0  0
 33 67  1  0  0  0  0
 33 77  2  0  0  0  0
 34 60  1  0  0  0  0
 34 72  1  0  0  0  0
 34 78  2  0  0  0  0
 35 68  1  0  0  0  0
 35 73  1  0  0  0  0
 35 79  2  0  0  0  0
 36 39  1  0  0  0  0
 37 46  1  0  0  0  0
 38 67  1  0  0  0  0
 39 41  1  0  0  0  0
 40 42  1  0  0  0  0
 40 43  1  0  0  0  0
 41 45  1  0  0  0  0
 42 47  1  0  0  0  0
 43 68  1  0  0  0  0
 44 47  1  0  0  0  0
 44 68  1  0  0  0  0
 45 71  1  0  0  0  0
 46 67  1  0  0  0  0
 47 66  1  0  0  0  0
 48 58  1  0  0  0  0
 49 60  1  0  0  0  0
 50 62  1  0  0  0  0
 51 62  1  0  0  0  0
 52 62  1  0  0  0  0
 53 74  1  0  0  0  0
 54 55  1  0  0  0  0
 54 56  1  0  0  0  0
 55 57  1  0  0  0  0
 56 65  1  0  0  0  0
 57 81  1  0  0  0  0
 58 73  1  0  0  0  0
 59 62  1  0  0  0  0
 59 72  1  0  0  0  0
 60 74  1  0  0  0  0
 61 84  1  0  0  0  0
 61 85  1  0  0  0  0
 61 86  1  0  0  0  0
 63 66  1  0  0  0  0
 64 65  1  0  0  0  0
M  CHG  1  74   1
M  ISO  4  35 100  57 101  73 100  81 101
M  END
> <Batch ID>
0070

> <Smiles>
CNC(C)C(=O)NC(C(=O)N1Cc2cc([101O:1][101CH2:1]CCCn3cc(C(C)[100NH:0][100C:0](=O)N4CCCC(n5nc(-c6ccc(Oc7ccc(F)cc7F)cc6)c(C(N)=O)c5N)C4)c(C(F)(F)F)n3)ccc2CC1C(=O)NC1CCCc2ccccc21)C(C)(C)C

> <Shape>
0.212

> <Color>
0.080

> <Negative vol penalty>
0.000

$$$$

  -OEChem-04052318193D

 83 91  0     1  0  0  0  0  0999 V2000
  -21.4782  -12.2134   19.9728 C   0  0  0  0  0  0  0  0  0  0  0  0
  -21.4229  -13.4599   20.5882 C   0  0  0  0  0  0  0  0  0  0  0  0
  -20.3238  -24.3936   21.4855 C   0  0  0  0  0  0  0  0  0  0  0  0
  -20.4085  -25.7306   23.4960 C   0  0  0  0  0  0  0  0  0  0  0  0
  -22.7077  -11.5822   19.7886 C   0  0  0  0  0  0  0  0  0  0  0  0
  -22.5970  -14.0753   21.0208 C   0  0  0  0  0  0  0  0  0  0  0  0
  -23.8198  -20.0762   21.0312 C   0  0  0  0  0  0  0  0  0  0  0  0
  -19.6422  -23.3937   22.1791 C   0  0  0  0  0  0  0  0  0  0  0  0
  -19.7268  -24.7307   24.1896 C   0  0  0  0  0  0  0  0  0  0  0  0
  -23.7593  -21.0440   22.0329 C   0  0  0  0  0  0  0  0  0  0  0  0
  -20.3945  -20.9051   24.3390 C   0  0  0  0  0  0  0  0  0  0  0  0
  -20.8098  -19.5871   24.1490 C   0  0  0  0  0  0  0  0  0  0  0  0
  -26.1162  -20.7479   22.4531 C   0  0  0  0  0  0  0  0  0  0  0  0
  -18.6137  -19.0146   23.3204 C   0  0  0  0  0  0  0  0  0  0  0  0
  -26.8893  -29.2758   27.3079 C   0  0  0  0  0  0  0  0  0  0  0  0
  -20.7071  -25.5620   22.1439 C   0  0  0  0  0  0  0  0  0  0  0  0
  -20.8496  -27.6806   20.7301 C   0  0  0  0  0  0  0  0  0  0  0  0
  -23.8983  -12.1945   20.2105 C   0  0  0  0  0  0  0  0  0  0  0  0
  -25.0287  -19.4280   20.7399 C   0  0  0  0  0  0  0  0  0  0  0  0
  -23.8434  -13.4511   20.8433 C   0  0  0  0  0  0  0  0  0  0  0  0
  -26.1899  -19.7740   21.4455 C   0  0  0  0  0  0  0  0  0  0  0  0
  -19.3437  -23.5622   23.5312 C   0  0  0  0  0  0  0  0  0  0  0  0
  -24.9069  -21.3780   22.7460 C   0  0  0  0  0  0  0  0  0  0  0  0
  -19.0888  -21.2778   24.0198 C   0  0  0  0  0  0  0  0  0  0  0  0
  -19.9195  -18.6419   23.6397 C   0  0  0  0  0  0  0  0  0  0  0  0
  -18.1984  -20.3326   23.5105 C   0  0  0  0  0  0  0  0  0  0  0  0
  -21.4118  -26.5950   21.4281 C   0  0  0  0  0  0  0  0  0  0  0  0
  -21.9308  -28.3647   20.2306 C   0  0  0  0  0  0  0  0  0  0  0  0
  -27.3906  -30.1111   25.3688 C   0  0  0  0  0  0  0  0  0  0  0  0
  -19.4730  -28.0387   20.5494 C   0  0  0  0  0  0  0  0  0  0  0  0
  -26.0450  -16.4185   20.8559 C   0  0  0  0  0  0  0  0  0  0  0  0
  -28.6943  -17.6695   19.4637 C   0  0  0  0  0  0  0  0  0  0  0  0
  -30.6542  -20.4064   18.9022 C   0  0  0  0  0  0  0  0  0  0  0  0
  -27.6528  -28.7618   21.9487 C   0  0  0  0  0  0  0  0  0  0  0  0
  -25.1991  -11.4522   20.0324 C   0  0  0  0  0  0  0  0  0  0  0  0
  -25.0830  -18.4054   19.6382 C   0  0  0  0  0  0  0  0  0  0  0  0
  -27.5168  -19.1221   21.1574 C   0  0  0  0  0  0  0  0  0  0  0  0
  -26.4322  -12.3396   20.1819 C   0  0  0  0  0  0  0  0  0  0  0  0
  -26.4393  -27.6948   18.7761 C   0  0  0  0  0  0  0  0  0  0  0  0
  -26.3061  -13.2250   21.4176 C   0  0  0  0  0  0  0  0  0  0  0  0
  -24.9625  -27.3899   19.0330 C   0  0  0  0  0  0  0  0  0  0  0  0
  -27.3107  -27.3112   19.9700 C   0  0  0  0  0  0  0  0  0  0  0  0
  -25.4104  -27.5871   21.5148 C   0  0  0  0  0  0  0  0  0  0  0  0
  -25.0974  -14.1619   21.3040 C   0  0  1  0  0  0  0  0  0  0  0  0
  -26.2571  -17.4410   19.7756 C   0  0  1  0  0  0  0  0  0  0  0  0
  -24.4849  -28.0085   20.3606 C   0  0  2  0  0  0  0  0  0  0  0  0
  -27.8017  -31.6267   23.3951 C   0  0  0  0  0  0  0  0  0  0  0  0
  -32.7744  -21.1099   17.7589 C   0  0  0  0  0  0  0  0  0  0  0  0
  -30.3240  -16.3843   21.7003 C   0  0  0  0  0  0  0  0  0  0  0  0
  -32.2358  -17.8719   21.0674 C   0  0  0  0  0  0  0  0  0  0  0  0
  -31.3536  -16.2118   19.4277 C   0  0  0  0  0  0  0  0  0  0  0  0
  -29.2136  -22.3001   17.1422 C   0  0  0  0  0  0  0  0  0  0  0  0
  -26.8952  -25.3387   24.7439 C   0  0  0  0  0  0  0  0  0  0  0  0
  -26.4980  -26.7204   25.2677 C   0  0  0  0  0  0  0  0  0  0  0  0
  -25.6614  -24.4781   24.4567 C   0  0  0  0  0  0  0  0  0  0  0  0
  -27.7312  -27.5660   25.5933 C   0  0  0  0  0  0  0  0  0  0  0  0
  -26.0323  -23.0867   23.9582 C   0  0  0  0  0  0  0  0  0  1  0  0
  -27.8373  -30.1945   23.9668 C   0  0  2  0  0  0  0  0  0  0  0  0
  -29.9854  -18.2681   19.9675 C   0  0  1  0  0  0  0  0  0  0  0  0
  -31.2663  -20.9630   17.6294 C   0  0  2  0  0  0  0  0  0  0  0  0
  -30.9494  -17.1951   20.5477 C   0  0  0  0  0  0  0  0  0  0  0  0
  -26.6592  -30.5682   27.3634 N   0  0  0  0  0  0  0  0  0  0  0  0
  -22.7465  -26.5858   21.3786 N   0  0  0  0  0  0  0  0  0  0  0  0
  -26.9782  -31.0997   26.1298 N   0  0  0  0  0  0  0  0  0  0  0  0
  -27.3509  -28.9444   26.0703 N   0  0  0  0  0  0  0  0  0  0  0  0
  -23.0320  -27.6740   20.6434 N   0  0  0  0  0  0  0  0  0  0  0  0
  -27.5173  -18.1238   20.0754 N   0  0  0  0  0  0  0  0  0  0  0  0
  -26.8050  -27.9316   21.1969 N   0  0  0  0  0  0  0  0  0  0  0  0
  -22.0375  -29.4836   19.4829 N   0  0  0  0  0  0  0  0  0  0  0  0
  -18.4896  -27.2263   21.1301 N   0  0  0  0  0  0  0  0  0  0  0  0
  -25.4003  -15.2736   20.4282 N   0  0  0  0  0  0  0  0  0  0  0  0
  -30.5416  -19.0329   18.8566 N   0  0  0  0  0  0  0  0  0  0  0  0
  -27.0925  -29.3147   23.0938 N   0  0  0  0  0  0  0  0  0  0  0  0
  -30.6886  -22.3013   17.3190 N   0  3  0  0  0  0  0  0  0  0  0  0
  -19.1249  -29.0399   19.8786 O   0  0  0  0  0  0  0  0  0  0  0  0
  -26.4385  -16.6505   21.9930 O   0  0  0  0  0  0  0  0  0  0  0  0
  -28.7284  -16.8351   18.5558 O   0  0  0  0  0  0  0  0  0  0  0  0
  -30.3137  -21.1185   19.8443 O   0  0  0  0  0  0  0  0  0  0  0  0
  -28.8206  -28.9973   21.6208 O   0  0  0  0  0  0  0  0  0  0  0  0
  -18.6783  -22.5869   24.2083 O   0  0  0  0  0  0  0  0  0  0  0  0
  -24.8505  -22.3219   23.7246 O   0  0  0  0  0  0  0  0  0  1  0  0
  -20.3188  -17.3767   23.4558 F   0  0  0  0  0  0  0  0  0  0  0  0
  -16.9432  -20.6850   23.2008 F   0  0  0  0  0  0  0  0  0  0  0  0
  1  2  1  0  0  0  0
  1  5  2  0  0  0  0
  2  6  2  0  0  0  0
  3  8  2  0  0  0  0
  3 16  1  0  0  0  0
  4  9  1  0  0  0  0
  4 16  2  0  0  0  0
  5 18  1  0  0  0  0
  6 20  1  0  0  0  0
  7 10  2  0  0  0  0
  7 19  1  0  0  0  0
  8 22  1  0  0  0  0
  9 22  2  0  0  0  0
 10 23  1  0  0  0  0
 11 12  2  0  0  0  0
 11 24  1  0  0  0  0
 12 25  1  0  0  0  0
 13 21  1  0  0  0  0
 13 23  2  0  0  0  0
 14 25  2  0  0  0  0
 14 26  1  0  0  0  0
 15 62  2  0  0  0  0
 15 65  1  0  0  0  0
 16 27  1  0  0  0  0
 17 27  1  0  0  0  0
 17 28  2  0  0  0  0
 17 30  1  0  0  0  0
 18 20  2  0  0  0  0
 18 35  1  0  0  0  0
 19 21  2  0  0  0  0
 19 36  1  0  0  0  0
 20 44  1  0  0  0  0
 21 37  1  0  0  0  0
 22 80  1  0  0  0  0
 23 81  1  0  0  0  0
 24 26  2  0  0  0  0
 24 80  1  0  0  0  0
 25 82  1  0  0  0  0
 26 83  1  0  0  0  0
 27 63  2  0  0  0  0
 28 66  1  0  0  0  0
 28 69  1  0  0  0  0
 29 58  1  0  0  0  0
 29 64  2  0  0  0  0
 29 65  1  0  0  0  0
 30 70  1  0  0  0  0
 30 75  2  0  0  0  0
 31 45  1  0  0  0  0
 31 71  1  0  0  0  0
 31 76  2  0  0  0  0
 32 59  1  0  0  0  0
 32 67  1  0  0  0  0
 32 77  2  0  0  0  0
 33 60  1  0  0  0  0
 33 72  1  0  0  0  0
 33 78  2  0  0  0  0
 34 68  1  0  0  0  0
 34 73  1  0  0  0  0
 34 79  2  0  0  0  0
 35 38  1  0  0  0  0
 36 45  1  0  0  0  0
 37 67  1  0  0  0  0
 38 40  1  0  0  0  0
 39 41  1  0  0  0  0
 39 42  1  0  0  0  0
 40 44  1  0  0  0  0
 41 46  1  0  0  0  0
 42 68  1  0  0  0  0
 43 46  1  0  0  0  0
 43 68  1  0  0  0  0
 44 71  1  0  0  0  0
 45 67  1  0  0  0  0
 46 66  1  0  0  0  0
 47 58  1  0  0  0  0
 48 60  1  0  0  0  0
 49 61  1  0  0  0  0
 50 61  1  0  0  0  0
 51 61  1  0  0  0  0
 52 74  1  0  0  0  0
 53 54  1  0  0  0  0
 53 55  1  0  0  0  0
 54 56  1  0  0  0  0
 55 57  1  0  0  0  0
 56 65  1  0  0  0  0
 57 81  1  0  0  0  0
 58 73  1  0  0  0  0
 59 61  1  0  0  0  0
 59 72  1  0  0  0  0
 60 74  1  0  0  0  0
 62 64  1  0  0  0  0
 63 66  1  0  0  0  0
M  CHG  1  74   1
M  ISO  4  34 100  57 101  73 100  81 101
M  END
> <Batch ID>
0070

> <Smiles>
CNC(C)C(=O)NC(C(=O)N1Cc2cc([101O:1][101CH2:1]CCCCn3cnnc3C(C)[100NH:0][100C:0](=O)N3CCCC(n4nc(-c5ccc(Oc6ccc(F)cc6F)cc5)c(C(N)=O)c4N)C3)ccc2CC1C(=O)NC1CCCc2ccccc21)C(C)(C)C

> <Shape>
0.201

> <Color>
0.054

> <Negative vol penalty>
0.000

$$$$

  -OEChem-04052318193D

 77 85  0     1  0  0  0  0  0999 V2000
  -28.3491  -10.8255   21.2456 C   0  0  0  0  0  0  0  0  0  0  0  0
  -28.7857  -12.0700   20.8029 C   0  0  0  0  0  0  0  0  0  0  0  0
  -22.4972  -27.5933   20.5268 C   0  0  0  0  0  0  0  0  0  0  0  0
  -22.6005  -28.0068   22.9049 C   0  0  0  0  0  0  0  0  0  0  0  0
  -26.9869  -10.5289   21.2555 C   0  0  0  0  0  0  0  0  0  0  0  0
  -27.8601  -13.0183   20.3687 C   0  0  0  0  0  0  0  0  0  0  0  0
  -28.8091  -17.6417   22.2040 C   0  0  0  0  0  0  0  0  0  0  0  0
  -21.1077  -27.4989   20.6035 C   0  0  0  0  0  0  0  0  0  0  0  0
  -21.2109  -27.9125   22.9816 C   0  0  0  0  0  0  0  0  0  0  0  0
  -29.8304  -18.3707   21.5963 C   0  0  0  0  0  0  0  0  0  0  0  0
  -17.6631  -28.1388   23.7430 C   0  0  0  0  0  0  0  0  0  0  0  0
  -16.9874  -29.1016   24.4926 C   0  0  0  0  0  0  0  0  0  0  0  0
  -28.1879  -19.6110   20.3380 C   0  0  0  0  0  0  0  0  0  0  0  0
  -17.8634  -30.8351   23.0557 C   0  0  0  0  0  0  0  0  0  0  0  0
  -33.4264  -23.0621   20.2929 C   0  0  0  0  0  0  0  0  0  0  0  0
  -23.2436  -27.8471   21.6775 C   0  0  0  0  0  0  0  0  0  0  0  0
  -25.4412  -29.1043   21.3643 C   0  0  0  0  0  0  0  0  0  0  0  0
  -26.0435  -11.4774   20.8303 C   0  0  0  0  0  0  0  0  0  0  0  0
  -27.4679  -17.8847   21.8747 C   0  0  0  0  0  0  0  0  0  0  0  0
  -26.4840  -12.7336   20.3716 C   0  0  0  0  0  0  0  0  0  0  0  0
  -27.1514  -18.8854   20.9448 C   0  0  0  0  0  0  0  0  0  0  0  0
  -20.4645  -27.6586   21.8309 C   0  0  0  0  0  0  0  0  0  0  0  0
  -29.5200  -19.3535   20.6610 C   0  0  0  0  0  0  0  0  0  0  0  0
  -18.4390  -28.5241   22.6498 C   0  0  0  0  0  0  0  0  0  0  0  0
  -17.0875  -30.4498   24.1489 C   0  0  0  0  0  0  0  0  0  0  0  0
  -18.5392  -29.8722   22.3061 C   0  0  0  0  0  0  0  0  0  0  0  0
  -24.6791  -27.9441   21.5990 C   0  0  0  0  0  0  0  0  0  0  0  0
  -26.7438  -28.6692   21.3843 C   0  0  0  0  0  0  0  0  0  0  0  0
  -31.6324  -24.0653   19.9289 C   0  0  0  0  0  0  0  0  0  0  0  0
  -25.0102  -30.4545   21.1478 C   0  0  0  0  0  0  0  0  0  0  0  0
  -30.5548  -25.0517   19.7844 C   0  0  0  0  0  0  0  0  0  0  0  0
  -25.1283  -16.1644   20.5823 C   0  0  0  0  0  0  0  0  0  0  0  0
  -23.3435  -18.7798   21.2868 C   0  0  0  0  0  0  0  0  0  0  0  0
  -23.2365  -22.1362   21.8953 C   0  0  0  0  0  0  0  0  0  0  0  0
  -24.5849  -11.0941   20.8145 C   0  0  0  0  0  0  0  0  0  0  0  0
  -26.3766  -17.1080   22.5590 C   0  0  0  0  0  0  0  0  0  0  0  0
  -25.7263  -19.1990   20.5715 C   0  0  0  0  0  0  0  0  0  0  0  0
  -23.6424  -12.2886   20.6912 C   0  0  0  0  0  0  0  0  0  0  0  0
  -28.7231  -24.2419   22.8103 C   0  0  0  0  0  0  0  0  0  0  0  0
  -24.1197  -13.2340   19.5934 C   0  0  0  0  0  0  0  0  0  0  0  0
  -27.5542  -25.2246   22.7300 C   0  0  0  0  0  0  0  0  0  0  0  0
  -29.1194  -23.7353   21.4268 C   0  0  0  0  0  0  0  0  0  0  0  0
  -28.2731  -25.8033   20.3683 C   0  0  0  0  0  0  0  0  0  0  0  0
  -25.5089  -13.7975   19.9162 C   0  0  1  0  0  0  0  0  0  0  0  0
  -25.0725  -17.0861   21.7676 C   0  0  1  0  0  0  0  0  0  0  0  0
  -27.8515  -26.3639   21.7377 C   0  0  1  0  0  0  0  0  0  0  0  0
  -21.6297  -23.9961   22.4018 C   0  0  0  0  0  0  0  0  0  0  0  0
  -22.4622  -18.8107   18.3658 C   0  0  0  0  0  0  0  0  0  0  0  0
  -21.6629  -21.1591   18.7042 C   0  0  0  0  0  0  0  0  0  0  0  0
  -20.6412  -19.2953   20.0100 C   0  0  0  0  0  0  0  0  0  0  0  0
  -24.5322  -22.7036   24.4949 C   0  0  0  0  0  0  0  0  0  0  0  0
  -32.8306  -20.5967   19.6325 C   0  0  0  0  0  0  0  0  0  0  0  0
  -31.8543  -19.7546   20.4467 C   0  0  0  0  0  0  0  0  0  1  0  0
  -22.9871  -20.0570   20.5651 C   0  0  1  0  0  0  0  0  0  0  0  0
  -22.5548  -22.9407   22.9874 C   0  0  2  0  0  0  0  0  0  0  0  0
  -21.9654  -19.8235   19.4167 C   0  0  0  0  0  0  0  0  0  0  0  0
  -32.8524  -24.2997   20.3533 N   0  0  0  0  0  0  0  0  0  0  0  0
  -25.4346  -26.8539   21.7562 N   0  0  0  0  0  0  0  0  0  0  0  0
  -31.4969  -22.7449   19.6318 N   0  0  0  0  0  0  0  0  0  0  0  0
  -32.6384  -22.0767   19.8577 N   0  0  0  0  0  0  0  0  0  0  0  0
  -26.6851  -27.3272   21.6201 N   0  0  0  0  0  0  0  0  0  0  0  0
  -29.3819  -24.8588   20.5185 N   0  0  0  0  0  0  0  0  0  0  0  0
  -24.6951  -18.4080   21.2633 N   0  0  0  0  0  0  0  0  0  0  0  0
  -27.9223  -29.3076   21.2228 N   0  0  0  0  0  0  0  0  0  0  0  0
  -23.6354  -30.7269   21.1594 N   0  0  0  0  0  0  0  0  0  0  0  0
  -25.4102  -14.8505   20.9041 N   0  0  0  0  0  0  0  0  0  0  0  0
  -22.5319  -20.9911   21.5892 N   0  0  0  0  0  0  0  0  0  0  0  0
  -23.5702  -23.6249   23.8371 N   0  3  0  0  0  0  0  0  0  0  0  0
  -25.8194  -31.3887   20.9337 O   0  0  0  0  0  0  0  0  0  0  0  0
  -30.7781  -25.9914   19.0227 O   0  0  0  0  0  0  0  0  0  0  0  0
  -24.9287  -16.6119   19.4591 O   0  0  0  0  0  0  0  0  0  0  0  0
  -22.4564  -18.1396   21.8567 O   0  0  0  0  0  0  0  0  0  0  0  0
  -24.2867  -22.4902   21.3641 O   0  0  0  0  0  0  0  0  0  0  0  0
  -19.1086  -27.5669   21.9061 O   0  0  0  0  0  0  0  0  0  0  0  0
  -30.5149  -20.0662   20.0658 O   0  0  0  0  0  0  0  0  0  1  0  0
  -16.4374  -31.3742   24.8679 F   0  0  0  0  0  0  0  0  0  0  0  0
  -19.2821  -30.2483   21.2561 F   0  0  0  0  0  0  0  0  0  0  0  0
  1  2  1  0  0  0  0
  1  5  2  0  0  0  0
  2  6  2  0  0  0  0
  3  8  2  0  0  0  0
  3 16  1  0  0  0  0
  4  9  1  0  0  0  0
  4 16  2  0  0  0  0
  5 18  1  0  0  0  0
  6 20  1  0  0  0  0
  7 10  2  0  0  0  0
  7 19  1  0  0  0  0
  8 22  1  0  0  0  0
  9 22  2  0  0  0  0
 10 23  1  0  0  0  0
 11 12  2  0  0  0  0
 11 24  1  0  0  0  0
 12 25  1  0  0  0  0
 13 21  1  0  0  0  0
 13 23  2  0  0  0  0
 14 25  2  0  0  0  0
 14 26  1  0  0  0  0
 15 57  2  0  0  0  0
 15 60  1  0  0  0  0
 16 27  1  0  0  0  0
 17 27  1  0  0  0  0
 17 28  2  0  0  0  0
 17 30  1  0  0  0  0
 18 20  2  0  0  0  0
 18 35  1  0  0  0  0
 19 21  2  0  0  0  0
 19 36  1  0  0  0  0
 20 44  1  0  0  0  0
 21 37  1  0  0  0  0
 22 74  1  0  0  0  0
 23 75  1  0  0  0  0
 24 26  2  0  0  0  0
 24 74  1  0  0  0  0
 25 76  1  0  0  0  0
 26 77  1  0  0  0  0
 27 58  2  0  0  0  0
 28 61  1  0  0  0  0
 28 64  1  0  0  0  0
 29 31  1  0  0  0  0
 29 57  1  0  0  0  0
 29 59  2  0  0  0  0
 30 65  1  0  0  0  0
 30 69  2  0  0  0  0
 31 62  1  0  0  0  0
 31 70  2  0  0  0  0
 32 45  1  0  0  0  0
 32 66  1  0  0  0  0
 32 71  2  0  0  0  0
 33 54  1  0  0  0  0
 33 63  1  0  0  0  0
 33 72  2  0  0  0  0
 34 55  1  0  0  0  0
 34 67  1  0  0  0  0
 34 73  2  0  0  0  0
 35 38  1  0  0  0  0
 36 45  1  0  0  0  0
 37 63  1  0  0  0  0
 38 40  1  0  0  0  0
 39 41  1  0  0  0  0
 39 42  1  0  0  0  0
 40 44  1  0  0  0  0
 41 46  1  0  0  0  0
 42 62  1  0  0  0  0
 43 46  1  0  0  0  0
 43 62  1  0  0  0  0
 44 66  1  0  0  0  0
 45 63  1  0  0  0  0
 46 61  1  0  0  0  0
 47 55  1  0  0  0  0
 48 56  1  0  0  0  0
 49 56  1  0  0  0  0
 50 56  1  0  0  0  0
 51 68  1  0  0  0  0
 52 53  1  0  0  0  0
 52 60  1  0  0  0  0
 53 75  1  0  0  0  0
 54 56  1  0  0  0  0
 54 67  1  0  0  0  0
 55 68  1  0  0  0  0
 58 61  1  0  0  0  0
 59 60  1  0  0  0  0
M  CHG  1  68   1
M  ISO  4  29 100  31 100  53 101  75 101
M  END
> <Batch ID>
0070

> <Smiles>
CNC(C)C(=O)NC(C(=O)N1Cc2cc([101O:1][101CH2:1]Cn3cn[100c:0]([100C:0](=O)N4CCCC(n5nc(-c6ccc(Oc7ccc(F)cc7F)cc6)c(C(N)=O)c5N)C4)n3)ccc2CC1C(=O)NC1CCCc2ccccc21)C(C)(C)C

> <Shape>
0.218

> <Color>
0.067

> <Negative vol penalty>
0.000

$$$$

  -OEChem-04052318193D

 88 96  0     1  0  0  0  0  0999 V2000
  -29.0795  -27.2525   14.0041 C   0  0  0  0  0  0  0  0  0  0  0  0
  -29.1457  -25.8917   14.2858 C   0  0  0  0  0  0  0  0  0  0  0  0
  -23.9106  -24.3072   22.6336 C   0  0  0  0  0  0  0  0  0  0  0  0
  -22.3907  -23.6588   20.8711 C   0  0  0  0  0  0  0  0  0  0  0  0
  -29.7236  -28.1675   14.8358 C   0  0  0  0  0  0  0  0  0  0  0  0
  -29.8570  -25.4451   15.3989 C   0  0  0  0  0  0  0  0  0  0  0  0
  -28.4804  -20.6664   18.9732 C   0  0  0  0  0  0  0  0  0  0  0  0
  -24.0180  -25.5798   22.0728 C   0  0  0  0  0  0  0  0  0  0  0  0
  -22.4981  -24.9314   20.3103 C   0  0  0  0  0  0  0  0  0  0  0  0
  -28.9504  -19.3543   19.0070 C   0  0  0  0  0  0  0  0  0  0  0  0
  -25.6624  -27.0393   19.5057 C   0  0  0  0  0  0  0  0  0  0  0  0
  -26.9377  -27.5939   19.3984 C   0  0  0  0  0  0  0  0  0  0  0  0
  -30.5155  -19.9658   20.7378 C   0  0  0  0  0  0  0  0  0  0  0  0
  -26.2516  -29.4419   20.7953 C   0  0  0  0  0  0  0  0  0  0  0  0
  -23.0970  -23.3466   22.0328 C   0  0  0  0  0  0  0  0  0  0  0  0
  -22.0528  -21.6024   23.5738 C   0  0  0  0  0  0  0  0  0  0  0  0
  -30.4351  -27.7326   15.9651 C   0  0  0  0  0  0  0  0  0  0  0  0
  -29.0329  -21.6423   19.8151 C   0  0  0  0  0  0  0  0  0  0  0  0
  -30.5123  -26.3551   16.2458 C   0  0  0  0  0  0  0  0  0  0  0  0
  -30.0490  -21.2891   20.7145 C   0  0  0  0  0  0  0  0  0  0  0  0
  -23.3118  -25.8919   20.9112 C   0  0  0  0  0  0  0  0  0  0  0  0
  -29.9701  -19.0044   19.8874 C   0  0  0  0  0  0  0  0  0  0  0  0
  -24.6816  -27.6860   20.2577 C   0  0  0  0  0  0  0  0  0  0  0  0
  -27.2323  -28.7952   20.0432 C   0  0  0  0  0  0  0  0  0  0  0  0
  -24.9762  -28.8873   20.9025 C   0  0  0  0  0  0  0  0  0  0  0  0
  -22.9861  -22.0317   22.6113 C   0  0  0  0  0  0  0  0  0  0  0  0
  -29.7932  -13.0927   19.9209 C   0  0  0  0  0  0  0  0  0  0  0  0
  -29.1258  -11.9990   20.4198 C   0  0  0  0  0  0  0  0  0  0  0  0
  -22.3646  -20.2822   23.7895 C   0  0  0  0  0  0  0  0  0  0  0  0
  -27.8141  -13.2337   19.1502 C   0  0  0  0  0  0  0  0  0  0  0  0
  -20.9983  -22.3316   24.2155 C   0  0  0  0  0  0  0  0  0  0  0  0
  -30.6003  -24.3701   19.3611 C   0  0  0  0  0  0  0  0  0  0  0  0
  -30.3201  -24.6150   22.5835 C   0  0  0  0  0  0  0  0  0  0  0  0
  -29.9003  -23.0423   25.5830 C   0  0  0  0  0  0  0  0  0  0  0  0
  -24.9770  -16.2470   20.3620 C   0  0  0  0  0  0  0  0  0  0  0  0
  -31.1546  -28.7556   16.8081 C   0  0  0  0  0  0  0  0  0  0  0  0
  -28.4965  -23.0472   19.7853 C   0  0  0  0  0  0  0  0  0  0  0  0
  -30.6617  -22.2947   21.6536 C   0  0  0  0  0  0  0  0  0  0  0  0
  -31.5742  -28.2294   18.1783 C   0  0  0  0  0  0  0  0  0  0  0  0
  -26.0565  -17.2386   23.6709 C   0  0  0  0  0  0  0  0  0  0  0  0
  -32.2306  -26.8588   18.0457 C   0  0  0  0  0  0  0  0  0  0  0  0
  -25.2922  -18.5502   23.8598 C   0  0  0  0  0  0  0  0  0  0  0  0
  -26.5308  -17.0779   22.2296 C   0  0  0  0  0  0  0  0  0  0  0  0
  -24.6822  -18.4793   21.3975 C   0  0  0  0  0  0  0  0  0  0  0  0
  -31.2534  -25.8336   17.4579 C   0  0  1  0  0  0  0  0  0  0  0  0
  -29.4855  -24.0760   20.3246 C   0  0  1  0  0  0  0  0  0  0  0  0
  -24.1564  -18.6904   22.8290 C   0  0  2  0  0  0  0  0  0  0  0  0
  -29.5603  -10.8987   21.2990 C   0  0  0  0  0  0  0  0  0  0  0  0
  -29.7500  -23.5037   28.0451 C   0  0  0  0  0  0  0  0  0  0  0  0
  -26.3730  -11.1319   21.6302 C   0  0  0  0  0  0  0  0  0  0  0  0
  -27.0671   -9.7889   19.6002 C   0  0  0  0  0  0  0  0  0  0  0  0
  -26.0110  -12.6361   17.3929 C   0  0  0  0  0  0  0  0  0  0  0  0
  -26.8438  -14.9629   17.6121 C   0  0  0  0  0  0  0  0  0  0  0  0
  -33.3429  -25.0162   22.6903 C   0  0  0  0  0  0  0  0  0  0  0  0
  -33.2519  -24.5210   25.1428 C   0  0  0  0  0  0  0  0  0  0  0  0
  -32.0389  -26.4984   24.2256 C   0  0  0  0  0  0  0  0  0  0  0  0
  -27.1565  -21.9440   25.7392 C   0  0  0  0  0  0  0  0  0  0  0  0
  -31.2287  -13.4971   20.1439 C   0  0  0  0  0  0  0  0  0  0  0  0
  -31.4553  -15.0129   20.1230 C   0  0  0  0  0  0  0  0  0  0  0  0
  -30.7186  -15.7439   21.2463 C   0  0  0  0  0  0  0  0  0  0  0  0
  -25.3960  -13.9897   19.4207 C   0  0  0  0  0  0  0  0  0  0  0  0
  -30.9349  -17.2492   21.1696 C   0  0  0  0  0  0  0  0  0  1  0  0
  -31.1508  -24.1765   23.7652 C   0  0  1  0  0  0  0  0  0  0  0  0
  -28.9725  -23.3295   26.7497 C   0  0  2  0  0  0  0  0  0  0  0  0
  -26.7691  -11.1838   20.1533 C   0  0  0  0  0  0  0  0  0  0  0  0
  -26.5877  -13.6574   18.4435 C   0  0  0  0  0  0  0  0  0  0  0  0
  -32.4361  -25.0343   23.9371 C   0  0  0  0  0  0  0  0  0  0  0  0
  -23.8278  -21.0629   22.2411 N   0  0  0  0  0  0  0  0  0  0  0  0
  -28.9711  -13.8575   19.1317 N   0  0  0  0  0  0  0  0  0  0  0  0
  -27.8592  -12.1031   19.9178 N   0  0  0  0  0  0  0  0  0  0  0  0
  -23.4246  -20.0117   22.9750 N   0  0  0  0  0  0  0  0  0  0  0  0
  -30.1076  -23.6568   21.5822 N   0  0  0  0  0  0  0  0  0  0  0  0
  -25.3991  -17.2034   21.3004 N   0  0  0  0  0  0  0  0  0  0  0  0
  -21.8327  -19.3381   24.5945 N   0  0  0  0  0  0  0  0  0  0  0  0
  -20.8164  -23.6796   23.8775 N   0  0  0  0  0  0  0  0  0  0  0  0
  -30.3195  -25.3878   18.4695 N   0  0  0  0  0  0  0  0  0  0  0  0
  -30.2600  -24.1968   24.9204 N   0  0  0  0  0  0  0  0  0  0  0  0
  -25.7134  -15.0691   20.3290 N   0  0  0  0  0  0  0  0  0  0  0  0
  -28.0046  -22.2106   26.9294 N   0  3  0  0  0  0  0  0  0  0  0  0
  -20.2502  -21.8081   25.0756 O   0  0  0  0  0  0  0  0  0  0  0  0
  -31.6389  -23.7226   19.4229 O   0  0  0  0  0  0  0  0  0  0  0  0
  -29.8701  -25.7632   22.5533 O   0  0  0  0  0  0  0  0  0  0  0  0
  -30.2719  -21.9078   25.2910 O   0  0  0  0  0  0  0  0  0  0  0  0
  -24.0114  -16.4271   19.6122 O   0  0  0  0  0  0  0  0  0  0  0  0
  -23.4161  -27.1337   20.3638 O   0  0  0  0  0  0  0  0  0  0  0  0
  -30.4311  -17.7245   19.9220 O   0  0  0  0  0  0  0  0  0  1  0  0
  -28.4575  -29.3269   19.9414 F   0  0  0  0  0  0  0  0  0  0  0  0
  -24.0384  -29.5126   21.6274 F   0  0  0  0  0  0  0  0  0  0  0  0
  1  2  1  0  0  0  0
  1  5  2  0  0  0  0
  2  6  2  0  0  0  0
  3  8  2  0  0  0  0
  3 15  1  0  0  0  0
  4  9  1  0  0  0  0
  4 15  2  0  0  0  0
  5 17  1  0  0  0  0
  6 19  1  0  0  0  0
  7 10  2  0  0  0  0
  7 18  1  0  0  0  0
  8 21  1  0  0  0  0
  9 21  2  0  0  0  0
 10 22  1  0  0  0  0
 11 12  2  0  0  0  0
 11 23  1  0  0  0  0
 12 24  1  0  0  0  0
 13 20  1  0  0  0  0
 13 22  2  0  0  0  0
 14 24  2  0  0  0  0
 14 25  1  0  0  0  0
 15 26  1  0  0  0  0
 16 26  1  0  0  0  0
 16 29  2  0  0  0  0
 16 31  1  0  0  0  0
 17 19  2  0  0  0  0
 17 36  1  0  0  0  0
 18 20  2  0  0  0  0
 18 37  1  0  0  0  0
 19 45  1  0  0  0  0
 20 38  1  0  0  0  0
 21 85  1  0  0  0  0
 22 86  1  0  0  0  0
 23 25  2  0  0  0  0
 23 85  1  0  0  0  0
 24 87  1  0  0  0  0
 25 88  1  0  0  0  0
 26 68  2  0  0  0  0
 27 28  2  0  0  0  0
 27 58  1  0  0  0  0
 27 69  1  0  0  0  0
 28 48  1  0  0  0  0
 28 70  1  0  0  0  0
 29 71  1  0  0  0  0
 29 74  1  0  0  0  0
 30 66  1  0  0  0  0
 30 69  2  0  0  0  0
 30 70  1  0  0  0  0
 31 75  1  0  0  0  0
 31 80  2  0  0  0  0
 32 46  1  0  0  0  0
 32 76  1  0  0  0  0
 32 81  2  0  0  0  0
 33 63  1  0  0  0  0
 33 72  1  0  0  0  0
 33 82  2  0  0  0  0
 34 64  1  0  0  0  0
 34 77  1  0  0  0  0
 34 83  2  0  0  0  0
 35 73  1  0  0  0  0
 35 78  1  0  0  0  0
 35 84  2  0  0  0  0
 36 39  1  0  0  0  0
 37 46  1  0  0  0  0
 38 72  1  0  0  0  0
 39 41  1  0  0  0  0
 40 42  1  0  0  0  0
 40 43  1  0  0  0  0
 41 45  1  0  0  0  0
 42 47  1  0  0  0  0
 43 73  1  0  0  0  0
 44 47  1  0  0  0  0
 44 73  1  0  0  0  0
 45 76  1  0  0  0  0
 46 72  1  0  0  0  0
 47 71  1  0  0  0  0
 49 64  1  0  0  0  0
 50 65  1  0  0  0  0
 51 65  1  0  0  0  0
 52 66  1  0  0  0  0
 53 66  1  0  0  0  0
 54 67  1  0  0  0  0
 55 67  1  0  0  0  0
 56 67  1  0  0  0  0
 57 79  1  0  0  0  0
 58 59  1  0  0  0  0
 59 60  1  0  0  0  0
 60 62  1  0  0  0  0
 61 66  1  0  0  0  0
 61 78  1  0  0  0  0
 62 86  1  0  0  0  0
 63 67  1  0  0  0  0
 63 77  1  0  0  0  0
 64 79  1  0  0  0  0
 65 70  1  0  0  0  0
 68 71  1  0  0  0  0
M  CHG  1  79   1
M  ISO  4  35 100  62 101  78 100  86 101
M  END
> <Batch ID>
0070

> <Smiles>
CNC(C)C(=O)NC(C(=O)N1Cc2cc([101O:1][101CH2:1]CCCc3nc(C(C)(C)C[100NH:0][100C:0](=O)N4CCCC(n5nc(-c6ccc(Oc7ccc(F)cc7F)cc6)c(C(N)=O)c5N)C4)n(C(C)C)c3C)ccc2CC1C(=O)NC1CCCc2ccccc21)C(C)(C)C

> <Shape>
0.190

> <Color>
0.070

> <Negative vol penalty>
0.000

$$$$

  -OEChem-04052318193D

 84 92  0     1  0  0  0  0  0999 V2000
  -25.4170  -34.9232   24.1248 C   0  0  0  0  0  0  0  0  0  0  0  0
  -26.0530  -33.7353   23.7790 C   0  0  0  0  0  0  0  0  0  0  0  0
  -25.4015  -15.2493   21.7200 C   0  0  0  0  0  0  0  0  0  0  0  0
  -27.7389  -14.7280   21.4009 C   0  0  0  0  0  0  0  0  0  0  0  0
  -24.0883  -34.9039   24.5471 C   0  0  0  0  0  0  0  0  0  0  0  0
  -25.3611  -32.5271   23.8564 C   0  0  0  0  0  0  0  0  0  0  0  0
  -26.1033  -29.5996   19.7914 C   0  0  0  0  0  0  0  0  0  0  0  0
  -25.0604  -13.9500   21.3444 C   0  0  0  0  0  0  0  0  0  0  0  0
  -27.3978  -13.4286   21.0254 C   0  0  0  0  0  0  0  0  0  0  0  0
  -27.3062  -28.8980   19.7231 C   0  0  0  0  0  0  0  0  0  0  0  0
  -25.0304  -10.8765   22.7536 C   0  0  0  0  0  0  0  0  0  0  0  0
  -24.0852  -10.2047   23.5288 C   0  0  0  0  0  0  0  0  0  0  0  0
  -26.1818  -26.9073   20.4925 C   0  0  0  0  0  0  0  0  0  0  0  0
  -22.6523   -9.9899   21.5955 C   0  0  0  0  0  0  0  0  0  0  0  0
  -30.8048  -22.9844   21.5504 C   0  0  0  0  0  0  0  0  0  0  0  0
  -26.7407  -15.6383   21.7482 C   0  0  0  0  0  0  0  0  0  0  0  0
  -27.3746  -17.4444   23.4345 C   0  0  0  0  0  0  0  0  0  0  0  0
  -23.3768  -33.6961   24.6205 C   0  0  0  0  0  0  0  0  0  0  0  0
  -24.9309  -28.9620   20.2220 C   0  0  0  0  0  0  0  0  0  0  0  0
  -24.0221  -32.4915   24.2813 C   0  0  0  0  0  0  0  0  0  0  0  0
  -24.9648  -27.6023   20.5630 C   0  0  0  0  0  0  0  0  0  0  0  0
  -26.0585  -13.0396   20.9972 C   0  0  0  0  0  0  0  0  0  0  0  0
  -27.3462  -27.5524   20.0764 C   0  0  0  0  0  0  0  0  0  0  0  0
  -24.7864  -11.1051   21.3994 C   0  0  0  0  0  0  0  0  0  0  0  0
  -22.8962   -9.7614   22.9498 C   0  0  0  0  0  0  0  0  0  0  0  0
  -23.5974  -10.6618   20.8204 C   0  0  0  0  0  0  0  0  0  0  0  0
  -27.0936  -16.9806   22.1354 C   0  0  0  0  0  0  0  0  0  0  0  0
  -31.6146  -22.1060   20.8753 C   0  0  0  0  0  0  0  0  0  0  0  0
  -27.6509  -18.7797   23.2701 C   0  0  0  0  0  0  0  0  0  0  0  0
  -27.3851  -16.7319   24.6787 C   0  0  0  0  0  0  0  0  0  0  0  0
  -22.9252  -29.3599   22.6556 C   0  0  0  0  0  0  0  0  0  0  0  0
  -21.2175  -27.0724   21.1151 C   0  0  0  0  0  0  0  0  0  0  0  0
  -29.6112  -21.9183   18.5352 C   0  0  0  0  0  0  0  0  0  0  0  0
  -21.1980  -24.4464   18.9355 C   0  0  0  0  0  0  0  0  0  0  0  0
  -21.9567  -33.7197   25.1278 C   0  0  0  0  0  0  0  0  0  0  0  0
  -23.6359  -29.7259   20.2646 C   0  0  0  0  0  0  0  0  0  0  0  0
  -23.7299  -26.8664   21.0121 C   0  0  0  0  0  0  0  0  0  0  0  0
  -21.1799  -32.4412   24.8239 C   0  0  0  0  0  0  0  0  0  0  0  0
  -26.6397  -22.5012   20.4511 C   0  0  0  0  0  0  0  0  0  0  0  0
  -22.0164  -31.2134   25.1697 C   0  0  0  0  0  0  0  0  0  0  0  0
  -26.4289  -21.1839   21.1964 C   0  0  0  0  0  0  0  0  0  0  0  0
  -27.2203  -22.2688   19.0597 C   0  0  0  0  0  0  0  0  0  0  0  0
  -28.2786  -20.1582   19.7993 C   0  0  0  0  0  0  0  0  0  0  0  0
  -23.2975  -31.1638   24.3284 C   0  0  1  0  0  0  0  0  0  0  0  0
  -22.6087  -29.1084   21.2085 C   0  0  1  0  0  0  0  0  0  0  0  0
  -27.7220  -20.3498   21.2213 C   0  0  2  0  0  0  0  0  0  0  0  0
  -32.3234  -19.7434   20.3370 C   0  0  0  0  0  0  0  0  0  0  0  0
  -19.6591  -22.7530   17.9051 C   0  0  0  0  0  0  0  0  0  0  0  0
  -30.4794  -19.6935   17.9625 C   0  0  0  0  0  0  0  0  0  0  0  0
  -31.9239  -21.7346   17.8394 C   0  0  0  0  0  0  0  0  0  0  0  0
  -21.1969  -25.5026   23.7314 C   0  0  0  0  0  0  0  0  0  0  0  0
  -20.5146  -23.4760   22.4291 C   0  0  0  0  0  0  0  0  0  0  0  0
  -19.0294  -25.4795   22.4839 C   0  0  0  0  0  0  0  0  0  0  0  0
  -21.7506  -25.4364   16.2018 C   0  0  0  0  0  0  0  0  0  0  0  0
  -30.2993  -26.0813   22.1527 C   0  0  0  0  0  0  0  0  0  0  0  0
  -30.7689  -26.6802   20.8259 C   0  0  0  0  0  0  0  0  0  0  0  0
  -31.3457  -25.1692   22.8030 C   0  0  0  0  0  0  0  0  0  0  0  0
  -29.7189  -27.6069   20.2279 C   0  0  0  0  0  0  0  0  0  1  0  0
  -31.2528  -20.8691   20.1711 C   0  0  2  0  0  0  0  0  0  0  0  0
  -21.1757  -25.5638   21.1503 C   0  0  1  0  0  0  0  0  0  0  0  0
  -20.3000  -24.1240   17.7548 C   0  0  2  0  0  0  0  0  0  0  0  0
  -30.8213  -21.0254   18.6461 C   0  0  0  0  0  0  0  0  0  0  0  0
  -20.5030  -25.0196   22.4421 C   0  0  0  0  0  0  0  0  0  0  0  0
  -27.1830  -17.9431   21.2137 N   0  0  0  0  0  0  0  0  0  0  0  0
  -32.9095  -22.5419   20.9275 N   0  0  0  0  0  0  0  0  0  0  0  0
  -32.9313  -23.6746   21.6214 N   0  0  0  0  0  0  0  0  0  0  0  0
  -31.6684  -23.9381   21.9941 N   0  0  0  0  0  0  0  0  0  0  0  0
  -27.5232  -19.0251   21.9345 N   0  0  0  0  0  0  0  0  0  0  0  0
  -22.4892  -27.6583   21.0433 N   0  0  0  0  0  0  0  0  0  0  0  0
  -28.4349  -21.4540   19.1242 N   0  0  0  0  0  0  0  0  0  0  0  0
  -27.9880  -19.7563   24.1391 N   0  0  0  0  0  0  0  0  0  0  0  0
  -27.0779  -15.3645   24.6682 N   0  0  0  0  0  0  0  0  0  0  0  0
  -23.0052  -30.6984   22.9896 N   0  0  0  0  0  0  0  0  0  0  0  0
  -20.5233  -25.1445   19.9147 N   0  0  0  0  0  0  0  0  0  0  0  0
  -21.0845  -24.1397   16.4879 N   0  3  0  0  0  0  0  0  0  0  0  0
  -27.6427  -17.2949   25.7697 O   0  0  0  0  0  0  0  0  0  0  0  0
  -23.0835  -28.4100   23.4134 O   0  0  0  0  0  0  0  0  0  0  0  0
  -20.1603  -27.7074   21.1427 O   0  0  0  0  0  0  0  0  0  0  0  0
  -29.7111  -22.9971   17.9450 O   0  0  0  0  0  0  0  0  0  0  0  0
  -22.3788  -24.1092   18.9860 O   0  0  0  0  0  0  0  0  0  0  0  0
  -25.7261  -11.7716   20.6309 O   0  0  0  0  0  0  0  0  0  0  0  0
  -28.5191  -26.8654   20.0113 O   0  0  0  0  0  0  0  0  0  1  0  0
  -21.9893   -9.1148   23.6940 F   0  0  0  0  0  0  0  0  0  0  0  0
  -23.3580  -10.8775   19.5196 F   0  0  0  0  0  0  0  0  0  0  0  0
  1  2  1  0  0  0  0
  1  5  2  0  0  0  0
  2  6  2  0  0  0  0
  3  8  2  0  0  0  0
  3 16  1  0  0  0  0
  4  9  1  0  0  0  0
  4 16  2  0  0  0  0
  5 18  1  0  0  0  0
  6 20  1  0  0  0  0
  7 10  2  0  0  0  0
  7 19  1  0  0  0  0
  8 22  1  0  0  0  0
  9 22  2  0  0  0  0
 10 23  1  0  0  0  0
 11 12  2  0  0  0  0
 11 24  1  0  0  0  0
 12 25  1  0  0  0  0
 13 21  1  0  0  0  0
 13 23  2  0  0  0  0
 14 25  2  0  0  0  0
 14 26  1  0  0  0  0
 15 28  2  0  0  0  0
 15 67  1  0  0  0  0
 16 27  1  0  0  0  0
 17 27  1  0  0  0  0
 17 29  2  0  0  0  0
 17 30  1  0  0  0  0
 18 20  2  0  0  0  0
 18 35  1  0  0  0  0
 19 21  2  0  0  0  0
 19 36  1  0  0  0  0
 20 44  1  0  0  0  0
 21 37  1  0  0  0  0
 22 81  1  0  0  0  0
 23 82  1  0  0  0  0
 24 26  2  0  0  0  0
 24 81  1  0  0  0  0
 25 83  1  0  0  0  0
 26 84  1  0  0  0  0
 27 64  2  0  0  0  0
 28 59  1  0  0  0  0
 28 65  1  0  0  0  0
 29 68  1  0  0  0  0
 29 71  1  0  0  0  0
 30 72  1  0  0  0  0
 30 76  2  0  0  0  0
 31 45  1  0  0  0  0
 31 73  1  0  0  0  0
 31 77  2  0  0  0  0
 32 60  1  0  0  0  0
 32 69  1  0  0  0  0
 32 78  2  0  0  0  0
 33 62  1  0  0  0  0
 33 70  1  0  0  0  0
 33 79  2  0  0  0  0
 34 61  1  0  0  0  0
 34 74  1  0  0  0  0
 34 80  2  0  0  0  0
 35 38  1  0  0  0  0
 36 45  1  0  0  0  0
 37 69  1  0  0  0  0
 38 40  1  0  0  0  0
 39 41  1  0  0  0  0
 39 42  1  0  0  0  0
 40 44  1  0  0  0  0
 41 46  1  0  0  0  0
 42 70  1  0  0  0  0
 43 46  1  0  0  0  0
 43 70  1  0  0  0  0
 44 73  1  0  0  0  0
 45 69  1  0  0  0  0
 46 68  1  0  0  0  0
 47 59  1  0  0  0  0
 48 61  1  0  0  0  0
 49 62  1  0  0  0  0
 50 62  1  0  0  0  0
 51 63  1  0  0  0  0
 52 63  1  0  0  0  0
 53 63  1  0  0  0  0
 54 75  1  0  0  0  0
 55 56  1  0  0  0  0
 55 57  1  0  0  0  0
 56 58  1  0  0  0  0
 57 67  1  0  0  0  0
 58 82  1  0  0  0  0
 59 62  1  0  0  0  0
 60 63  1  0  0  0  0
 60 74  1  0  0  0  0
 61 75  1  0  0  0  0
 64 68  1  0  0  0  0
 65 66  2  0  0  0  0
 66 67  1  0  0  0  0
M  CHG  1  75   1
M  ISO  4  33 100  58 101  62 100  82 101
M  END
> <Batch ID>
0070

> <Smiles>
CNC(C)C(=O)NC(C(=O)N1Cc2cc([101O:1][101CH2:1]CCCn3cc(C(C)[100C:0](C)(C)[100C:0](=O)N4CCCC(n5nc(-c6ccc(Oc7ccc(F)cc7F)cc6)c(C(N)=O)c5N)C4)nn3)ccc2CC1C(=O)NC1CCCc2ccccc21)C(C)(C)C

> <Shape>
0.231

> <Color>
0.075

> <Negative vol penalty>
0.000

$$$$

  -OEChem-04052318193D

 86 94  0     1  0  0  0  0  0999 V2000
  -32.2867  -26.3633   19.5838 C   0  0  0  0  0  0  0  0  0  0  0  0
  -31.2701  -25.4248   19.7294 C   0  0  0  0  0  0  0  0  0  0  0  0
  -23.0732   -9.8704   19.9464 C   0  0  0  0  0  0  0  0  0  0  0  0
  -23.8364   -9.8822   22.2386 C   0  0  0  0  0  0  0  0  0  0  0  0
  -33.2265  -26.5343   20.5994 C   0  0  0  0  0  0  0  0  0  0  0  0
  -31.1934  -24.6561   20.8903 C   0  0  0  0  0  0  0  0  0  0  0  0
  -26.4756  -24.3413   22.7037 C   0  0  0  0  0  0  0  0  0  0  0  0
  -22.3291   -8.7182   20.2001 C   0  0  0  0  0  0  0  0  0  0  0  0
  -23.0922   -8.7301   22.4924 C   0  0  0  0  0  0  0  0  0  0  0  0
  -25.6070  -23.4552   22.0682 C   0  0  0  0  0  0  0  0  0  0  0  0
  -19.9426   -5.9795   20.3382 C   0  0  0  0  0  0  0  0  0  0  0  0
  -18.6362   -5.9311   19.8518 C   0  0  0  0  0  0  0  0  0  0  0  0
  -25.9908  -21.8359   23.8145 C   0  0  0  0  0  0  0  0  0  0  0  0
  -18.0740   -7.8774   21.1684 C   0  0  0  0  0  0  0  0  0  0  0  0
  -23.8270  -10.4523   20.9657 C   0  0  0  0  0  0  0  0  0  0  0  0
  -24.1701  -12.9770   20.8393 C   0  0  0  0  0  0  0  0  0  0  0  0
  -33.1556  -25.7741   21.7774 C   0  0  0  0  0  0  0  0  0  0  0  0
  -27.1179  -23.9766   23.8958 C   0  0  0  0  0  0  0  0  0  0  0  0
  -32.1339  -24.8162   21.9220 C   0  0  0  0  0  0  0  0  0  0  0  0
  -26.8651  -22.7202   24.4646 C   0  0  0  0  0  0  0  0  0  0  0  0
  -22.3385   -8.1481   21.4730 C   0  0  0  0  0  0  0  0  0  0  0  0
  -25.3666  -22.2011   22.6220 C   0  0  0  0  0  0  0  0  0  0  0  0
  -20.3147   -6.9768   21.2397 C   0  0  0  0  0  0  0  0  0  0  0  0
  -17.7019   -6.8800   20.2669 C   0  0  0  0  0  0  0  0  0  0  0  0
  -19.3804   -7.9257   21.6547 C   0  0  0  0  0  0  0  0  0  0  0  0
  -24.5964  -11.6422   20.7041 C   0  0  0  0  0  0  0  0  0  0  0  0
  -27.4660  -18.8297   20.4008 C   0  0  0  0  0  0  0  0  0  0  0  0
  -26.3586  -18.9698   21.1972 C   0  0  0  0  0  0  0  0  0  0  0  0
  -25.2621  -13.7250   20.4728 C   0  0  0  0  0  0  0  0  0  0  0  0
  -28.6528  -18.2012   22.2164 C   0  0  0  0  0  0  0  0  0  0  0  0
  -22.9005  -13.4945   21.2589 C   0  0  0  0  0  0  0  0  0  0  0  0
  -30.1452  -23.5953   24.7868 C   0  0  0  0  0  0  0  0  0  0  0  0
  -28.8219  -23.1777   27.7188 C   0  0  0  0  0  0  0  0  0  0  0  0
  -26.0851  -22.3149   29.5661 C   0  0  0  0  0  0  0  0  0  0  0  0
  -30.7467  -14.7414   20.6510 C   0  0  0  0  0  0  0  0  0  0  0  0
  -34.2220  -25.9612   22.8274 C   0  0  0  0  0  0  0  0  0  0  0  0
  -28.0314  -24.9541   24.5831 C   0  0  0  0  0  0  0  0  0  0  0  0
  -27.5139  -22.2881   25.7533 C   0  0  0  0  0  0  0  0  0  0  0  0
  -33.8503  -25.3706   24.1851 C   0  0  0  0  0  0  0  0  0  0  0  0
  -29.6043  -12.3521   18.2713 C   0  0  0  0  0  0  0  0  0  0  0  0
  -33.2846  -23.9639   24.0185 C   0  0  0  0  0  0  0  0  0  0  0  0
  -28.1673  -12.0602   18.7070 C   0  0  0  0  0  0  0  0  0  0  0  0
  -30.5233  -12.5751   19.4704 C   0  0  0  0  0  0  0  0  0  0  0  0
  -28.6240  -13.3105   20.8580 C   0  0  0  0  0  0  0  0  0  0  0  0
  -32.0028  -23.9808   23.1769 C   0  0  1  0  0  0  0  0  0  0  0  0
  -29.0286  -24.2817   25.5215 C   0  0  1  0  0  0  0  0  0  0  0  0
  -27.6480  -13.1337   19.6822 C   0  0  2  0  0  0  0  0  0  0  0  0
  -28.7326  -19.6484   18.3978 C   0  0  0  0  0  0  0  0  0  0  0  0
  -25.3196  -22.0320   31.9391 C   0  0  0  0  0  0  0  0  0  0  0  0
  -23.7415  -21.3792   19.7389 C   0  0  0  0  0  0  0  0  0  0  0  0
  -30.7756  -18.9727   23.2964 C   0  0  0  0  0  0  0  0  0  0  0  0
  -30.3487  -20.5419   27.8946 C   0  0  0  0  0  0  0  0  0  0  0  0
  -28.8475  -19.8787   29.7853 C   0  0  0  0  0  0  0  0  0  0  0  0
  -30.3244  -21.8764   30.0095 C   0  0  0  0  0  0  0  0  0  0  0  0
  -24.0023  -24.3957   29.2645 C   0  0  0  0  0  0  0  0  0  0  0  0
  -27.4112  -19.1059   18.9373 C   0  0  0  0  0  0  0  0  0  0  0  0
  -25.0231  -19.4097   20.6451 C   0  0  0  0  0  0  0  0  0  0  0  0
  -30.8155  -16.8948   21.8828 C   0  0  0  0  0  0  0  0  0  0  0  0
  -28.3012  -21.9942   28.4980 C   0  0  1  0  0  0  0  0  0  0  0  0
  -25.4222  -22.9832   30.7570 C   0  0  2  0  0  0  0  0  0  0  0  0
  -24.8566  -20.9327   20.6760 C   0  0  2  0  0  0  0  0  0  1  0  0
  -29.9412  -17.7634   22.8228 C   0  0  2  0  0  0  0  0  0  0  0  0
  -29.4446  -21.0799   29.0215 C   0  0  0  0  0  0  0  0  0  0  0  0
  -25.8606  -11.5447   20.2842 N   0  0  0  0  0  0  0  0  0  0  0  0
  -28.6499  -18.4384   20.8962 N   0  0  0  0  0  0  0  0  0  0  0  0
  -26.4221  -18.7173   22.5171 N   0  0  0  0  0  0  0  0  0  0  0  0
  -27.5985  -18.3220   23.0468 N   0  0  0  0  0  0  0  0  0  0  0  0
  -26.2380  -12.8277   20.1524 N   0  0  0  0  0  0  0  0  0  0  0  0
  -28.4039  -23.2768   26.3842 N   0  0  0  0  0  0  0  0  0  0  0  0
  -29.9746  -13.6060   20.3548 N   0  0  0  0  0  0  0  0  0  0  0  0
  -25.4732  -15.0562   20.3964 N   0  0  0  0  0  0  0  0  0  0  0  0
  -21.8885  -12.5867   21.5997 N   0  0  0  0  0  0  0  0  0  0  0  0
  -30.8819  -24.4340   23.9724 N   0  0  0  0  0  0  0  0  0  0  0  0
  -27.4453  -22.5400   29.5459 N   0  0  0  0  0  0  0  0  0  0  0  0
  -30.1493  -15.6725   21.4917 N   0  0  0  0  0  0  0  0  0  0  0  0
  -24.0487  -23.4367   30.3981 N   0  3  0  0  0  0  0  0  0  0  0  0
  -22.6650  -14.7254   21.3137 O   0  0  0  0  0  0  0  0  0  0  0  0
  -30.3258  -22.3940   24.9480 O   0  0  0  0  0  0  0  0  0  0  0  0
  -29.5662  -23.9885   28.2760 O   0  0  0  0  0  0  0  0  0  0  0  0
  -25.4595  -21.6557   28.7387 O   0  0  0  0  0  0  0  0  0  0  0  0
  -31.8821  -14.9152   20.1953 O   0  0  0  0  0  0  0  0  0  0  0  0
  -21.6123   -7.0239   21.7210 O   0  0  0  0  0  0  0  0  0  0  0  0
  -24.5197  -21.3340   22.0033 O   0  0  0  0  0  0  0  0  0  1  0  0
  -16.4478   -6.8344   19.7986 F   0  0  0  0  0  0  0  0  0  0  0  0
  -19.7323   -8.8869   22.5197 F   0  0  0  0  0  0  0  0  0  0  0  0
  -29.7717  -16.9950   23.9643 F   0  0  0  0  0  0  0  0  0  0  0  0
  1  2  1  0  0  0  0
  1  5  2  0  0  0  0
  2  6  2  0  0  0  0
  3  8  2  0  0  0  0
  3 15  1  0  0  0  0
  4  9  1  0  0  0  0
  4 15  2  0  0  0  0
  5 17  1  0  0  0  0
  6 19  1  0  0  0  0
  7 10  2  0  0  0  0
  7 18  1  0  0  0  0
  8 21  1  0  0  0  0
  9 21  2  0  0  0  0
 10 22  1  0  0  0  0
 11 12  2  0  0  0  0
 11 23  1  0  0  0  0
 12 24  1  0  0  0  0
 13 20  1  0  0  0  0
 13 22  2  0  0  0  0
 14 24  2  0  0  0  0
 14 25  1  0  0  0  0
 15 26  1  0  0  0  0
 16 26  1  0  0  0  0
 16 29  2  0  0  0  0
 16 31  1  0  0  0  0
 17 19  2  0  0  0  0
 17 36  1  0  0  0  0
 18 20  2  0  0  0  0
 18 37  1  0  0  0  0
 19 45  1  0  0  0  0
 20 38  1  0  0  0  0
 21 82  1  0  0  0  0
 22 83  1  0  0  0  0
 23 25  2  0  0  0  0
 23 82  1  0  0  0  0
 24 84  1  0  0  0  0
 25 85  1  0  0  0  0
 26 64  2  0  0  0  0
 27 28  2  0  0  0  0
 27 56  1  0  0  0  0
 27 65  1  0  0  0  0
 28 57  1  0  0  0  0
 28 66  1  0  0  0  0
 29 68  1  0  0  0  0
 29 71  1  0  0  0  0
 30 62  1  0  0  0  0
 30 65  2  0  0  0  0
 30 67  1  0  0  0  0
 31 72  1  0  0  0  0
 31 77  2  0  0  0  0
 32 46  1  0  0  0  0
 32 73  1  0  0  0  0
 32 78  2  0  0  0  0
 33 59  1  0  0  0  0
 33 69  1  0  0  0  0
 33 79  2  0  0  0  0
 34 60  1  0  0  0  0
 34 74  1  0  0  0  0
 34 80  2  0  0  0  0
 35 70  1  0  0  0  0
 35 75  1  0  0  0  0
 35 81  2  0  0  0  0
 36 39  1  0  0  0  0
 37 46  1  0  0  0  0
 38 69  1  0  0  0  0
 39 41  1  0  0  0  0
 40 42  1  0  0  0  0
 40 43  1  0  0  0  0
 41 45  1  0  0  0  0
 42 47  1  0  0  0  0
 43 70  1  0  0  0  0
 44 47  1  0  0  0  0
 44 70  1  0  0  0  0
 45 73  1  0  0  0  0
 46 69  1  0  0  0  0
 47 68  1  0  0  0  0
 48 56  1  0  0  0  0
 49 60  1  0  0  0  0
 50 61  1  0  0  0  0
 51 62  1  0  0  0  0
 52 63  1  0  0  0  0
 53 63  1  0  0  0  0
 54 63  1  0  0  0  0
 55 76  1  0  0  0  0
 57 61  1  0  0  0  0
 58 62  1  0  0  0  0
 58 75  1  0  0  0  0
 59 63  1  0  0  0  0
 59 74  1  0  0  0  0
 60 76  1  0  0  0  0
 61 83  1  0  0  0  0
 62 86  1  0  0  0  0
 64 68  1  0  0  0  0
 66 67  2  0  0  0  0
M  CHG  1  76   1
M  ISO  4  35 100  61 101  75 100  83 101
M  END
> <Batch ID>
0070

> <Smiles>
CCc1nc(C(C)(F)C[100NH:0][100C:0](=O)N2CCCC(n3nc(-c4ccc(Oc5ccc(F)cc5F)cc4)c(C(N)=O)c3N)C2)nnc1C[101CH:1](C)[101O:1]c1ccc2c(c1)CN(C(=O)C(NC(=O)C(C)NC)C(C)(C)C)C(C(=O)NC1CCCc3ccccc31)C2

> <Shape>
0.180

> <Color>
0.183

> <Negative vol penalty>
0.000

$$$$

  -OEChem-04052318193D

 88 96  0     1  0  0  0  0  0999 V2000
  -26.6157  -38.4751   19.9675 C   0  0  0  0  0  0  0  0  0  0  0  0
  -27.4344  -37.4322   20.3888 C   0  0  0  0  0  0  0  0  0  0  0  0
  -23.7737   -9.4631   19.7897 C   0  0  0  0  0  0  0  0  0  0  0  0
  -24.5201   -9.4779   22.0875 C   0  0  0  0  0  0  0  0  0  0  0  0
  -25.2731  -38.5011   20.3426 C   0  0  0  0  0  0  0  0  0  0  0  0
  -26.9111  -36.4152   21.1865 C   0  0  0  0  0  0  0  0  0  0  0  0
  -27.1327  -29.5398   19.0483 C   0  0  0  0  0  0  0  0  0  0  0  0
  -23.3489   -8.1426   19.9362 C   0  0  0  0  0  0  0  0  0  0  0  0
  -24.0952   -8.1575   22.2341 C   0  0  0  0  0  0  0  0  0  0  0  0
  -27.3261  -28.1798   18.8050 C   0  0  0  0  0  0  0  0  0  0  0  0
  -21.1793   -6.5206   22.7231 C   0  0  0  0  0  0  0  0  0  0  0  0
  -20.4642   -6.1957   23.8757 C   0  0  0  0  0  0  0  0  0  0  0  0
  -26.1075  -27.6349   20.8214 C   0  0  0  0  0  0  0  0  0  0  0  0
  -22.1615   -4.5839   24.4745 C   0  0  0  0  0  0  0  0  0  0  0  0
  -31.4281  -21.6698   19.3288 C   0  0  0  0  0  0  0  0  0  0  0  0
  -29.3725  -21.0211   18.8941 C   0  0  0  0  0  0  0  0  0  0  0  0
  -24.3594  -10.1307   20.8654 C   0  0  0  0  0  0  0  0  0  0  0  0
  -24.0475  -12.6611   20.9513 C   0  0  0  0  0  0  0  0  0  0  0  0
  -24.7308  -37.4788   21.1372 C   0  0  0  0  0  0  0  0  0  0  0  0
  -26.4118  -29.9526   20.1723 C   0  0  0  0  0  0  0  0  0  0  0  0
  -25.5604  -36.4282   21.5737 C   0  0  0  0  0  0  0  0  0  0  0  0
  -25.8999  -28.9954   21.0637 C   0  0  0  0  0  0  0  0  0  0  0  0
  -30.1921  -22.1214   18.8286 C   0  0  0  0  0  0  0  0  0  0  0  0
  -23.5095   -7.4898   21.1584 C   0  0  0  0  0  0  0  0  0  0  0  0
  -26.8149  -27.2298   19.6895 C   0  0  0  0  0  0  0  0  0  0  0  0
  -22.3856   -5.8771   22.4461 C   0  0  0  0  0  0  0  0  0  0  0  0
  -20.9552   -5.2273   24.7514 C   0  0  0  0  0  0  0  0  0  0  0  0
  -22.8766   -4.9088   23.3218 C   0  0  0  0  0  0  0  0  0  0  0  0
  -24.7990  -11.4946   20.7145 C   0  0  0  0  0  0  0  0  0  0  0  0
  -24.9111  -13.6900   20.6650 C   0  0  0  0  0  0  0  0  0  0  0  0
  -22.6900  -12.8021   21.3908 C   0  0  0  0  0  0  0  0  0  0  0  0
  -25.0365  -32.8186   22.1648 C   0  0  0  0  0  0  0  0  0  0  0  0
  -22.8914  -30.6257   22.1607 C   0  0  0  0  0  0  0  0  0  0  0  0
  -29.9944  -15.9824   21.1071 C   0  0  0  0  0  0  0  0  0  0  0  0
  -20.6339  -28.1391   21.5627 C   0  0  0  0  0  0  0  0  0  0  0  0
  -23.2853  -37.5747   21.5565 C   0  0  0  0  0  0  0  0  0  0  0  0
  -26.2319  -31.4084   20.5068 C   0  0  0  0  0  0  0  0  0  0  0  0
  -25.1606  -29.4866   22.2782 C   0  0  0  0  0  0  0  0  0  0  0  0
  -22.7181  -36.2626   22.0924 C   0  0  0  0  0  0  0  0  0  0  0  0
  -29.4372  -13.6738   18.4238 C   0  0  0  0  0  0  0  0  0  0  0  0
  -23.6853  -35.6301   23.0879 C   0  0  0  0  0  0  0  0  0  0  0  0
  -28.1353  -12.9758   18.8153 C   0  0  0  0  0  0  0  0  0  0  0  0
  -30.2829  -14.0061   19.6492 C   0  0  0  0  0  0  0  0  0  0  0  0
  -28.2634  -14.1185   21.0742 C   0  0  0  0  0  0  0  0  0  0  0  0
  -25.0237  -35.2937   22.4192 C   0  0  1  0  0  0  0  0  0  0  0  0
  -24.8735  -31.7134   21.1632 C   0  0  1  0  0  0  0  0  0  0  0  0
  -27.3651  -13.7926   19.8679 C   0  0  2  0  0  0  0  0  0  0  0  0
  -18.2782  -27.4499   22.0853 C   0  0  0  0  0  0  0  0  0  0  0  0
  -28.9881  -24.1823   20.6981 C   0  0  0  0  0  0  0  0  0  0  0  0
  -29.3941  -23.4005   16.8380 C   0  0  0  0  0  0  0  0  0  0  0  0
  -31.0488  -24.5016   18.3124 C   0  0  0  0  0  0  0  0  0  0  0  0
  -28.6223  -16.8400   22.9869 C   0  0  0  0  0  0  0  0  0  0  0  0
  -23.7588  -29.8018   24.9665 C   0  0  0  0  0  0  0  0  0  0  0  0
  -21.7453  -28.3179   25.0765 C   0  0  0  0  0  0  0  0  0  0  0  0
  -21.4630  -30.7842   24.8303 C   0  0  0  0  0  0  0  0  0  0  0  0
  -19.8658  -28.1767   18.7048 C   0  0  0  0  0  0  0  0  0  0  0  0
  -29.7119  -18.6617   19.6665 C   0  0  0  0  0  0  0  0  0  0  0  0
  -28.1885  -25.5370   18.7381 C   0  0  0  0  0  0  0  0  0  1  0  0
  -22.3028  -29.4307   22.8669 C   0  0  1  0  0  0  0  0  0  0  0  0
  -19.1860  -28.1807   21.1083 C   0  0  2  0  0  0  0  0  0  0  0  0
  -28.6569  -24.1393   19.1925 C   0  0  1  0  0  0  0  0  0  0  0  0
  -29.8335  -23.5397   18.3208 C   0  0  0  0  0  0  0  0  0  0  0  0
  -28.9663  -17.0080   21.5136 C   0  0  1  0  0  0  0  0  0  0  0  0
  -22.3365  -29.5807   24.4141 C   0  0  0  0  0  0  0  0  0  0  0  0
  -29.4440  -18.4152   21.1529 C   0  0  0  0  0  0  0  0  0  0  0  0
  -31.4007  -20.3830   19.6859 N   0  0  0  0  0  0  0  0  0  0  0  0
  -26.0443  -11.7569   20.3088 N   0  0  0  0  0  0  0  0  0  0  0  0
  -30.1375  -20.0167   19.4099 N   0  0  0  0  0  0  0  0  0  0  0  0
  -26.0818  -13.1002   20.2884 N   0  0  0  0  0  0  0  0  0  0  0  0
  -24.2684  -30.5965   21.9085 N   0  0  0  0  0  0  0  0  0  0  0  0
  -29.5089  -14.7628   20.6349 N   0  0  0  0  0  0  0  0  0  0  0  0
  -24.7758  -15.0327   20.7010 N   0  0  0  0  0  0  0  0  0  0  0  0
  -21.9444  -11.6418   21.6397 N   0  0  0  0  0  0  0  0  0  0  0  0
  -24.9051  -34.0861   21.6304 N   0  0  0  0  0  0  0  0  0  0  0  0
  -20.9655  -29.2472   22.3134 N   0  0  0  0  0  0  0  0  0  0  0  0
  -19.0451  -27.5430   19.7687 N   0  3  0  0  0  0  0  0  0  0  0  0
  -22.1491  -13.9237   21.5421 O   0  0  0  0  0  0  0  0  0  0  0  0
  -25.2634  -32.5430   23.3371 O   0  0  0  0  0  0  0  0  0  0  0  0
  -22.1537  -31.5635   21.8452 O   0  0  0  0  0  0  0  0  0  0  0  0
  -31.1926  -16.2598   21.2043 O   0  0  0  0  0  0  0  0  0  0  0  0
  -21.3935  -27.2143   21.2831 O   0  0  0  0  0  0  0  0  0  0  0  0
  -23.0948   -6.2014   21.3018 O   0  0  0  0  0  0  0  0  0  0  0  0
  -27.0035  -25.9036   19.4436 O   0  0  0  0  0  0  0  0  0  1  0  0
  -20.2691   -4.9165   25.8590 F   0  0  0  0  0  0  0  0  0  0  0  0
  -24.0355   -4.2881   23.0617 F   0  0  0  0  0  0  0  0  0  0  0  0
  -27.8165  -16.7865   20.8061 F   0  0  0  0  0  0  0  0  0  0  0  0
  -28.5165  -19.3080   21.5968 F   0  0  0  0  0  0  0  0  0  0  0  0
  -30.5824  -18.6699   21.8563 F   0  0  0  0  0  0  0  0  0  0  0  0
  1  2  1  0  0  0  0
  1  5  2  0  0  0  0
  2  6  2  0  0  0  0
  3  8  2  0  0  0  0
  3 17  1  0  0  0  0
  4  9  1  0  0  0  0
  4 17  2  0  0  0  0
  5 19  1  0  0  0  0
  6 21  1  0  0  0  0
  7 10  2  0  0  0  0
  7 20  1  0  0  0  0
  8 24  1  0  0  0  0
  9 24  2  0  0  0  0
 10 25  1  0  0  0  0
 11 12  2  0  0  0  0
 11 26  1  0  0  0  0
 12 27  1  0  0  0  0
 13 22  1  0  0  0  0
 13 25  2  0  0  0  0
 14 27  2  0  0  0  0
 14 28  1  0  0  0  0
 15 23  1  0  0  0  0
 15 66  2  0  0  0  0
 16 23  2  0  0  0  0
 16 68  1  0  0  0  0
 17 29  1  0  0  0  0
 18 29  1  0  0  0  0
 18 30  2  0  0  0  0
 18 31  1  0  0  0  0
 19 21  2  0  0  0  0
 19 36  1  0  0  0  0
 20 22  2  0  0  0  0
 20 37  1  0  0  0  0
 21 45  1  0  0  0  0
 22 38  1  0  0  0  0
 23 62  1  0  0  0  0
 24 82  1  0  0  0  0
 25 83  1  0  0  0  0
 26 28  2  0  0  0  0
 26 82  1  0  0  0  0
 27 84  1  0  0  0  0
 28 85  1  0  0  0  0
 29 67  2  0  0  0  0
 30 69  1  0  0  0  0
 30 72  1  0  0  0  0
 31 73  1  0  0  0  0
 31 77  2  0  0  0  0
 32 46  1  0  0  0  0
 32 74  1  0  0  0  0
 32 78  2  0  0  0  0
 33 59  1  0  0  0  0
 33 70  1  0  0  0  0
 33 79  2  0  0  0  0
 34 63  1  0  0  0  0
 34 71  1  0  0  0  0
 34 80  2  0  0  0  0
 35 60  1  0  0  0  0
 35 75  1  0  0  0  0
 35 81  2  0  0  0  0
 36 39  1  0  0  0  0
 37 46  1  0  0  0  0
 38 70  1  0  0  0  0
 39 41  1  0  0  0  0
 40 42  1  0  0  0  0
 40 43  1  0  0  0  0
 41 45  1  0  0  0  0
 42 47  1  0  0  0  0
 43 71  1  0  0  0  0
 44 47  1  0  0  0  0
 44 71  1  0  0  0  0
 45 74  1  0  0  0  0
 46 70  1  0  0  0  0
 47 69  1  0  0  0  0
 48 60  1  0  0  0  0
 49 61  1  0  0  0  0
 50 62  1  0  0  0  0
 51 62  1  0  0  0  0
 52 63  1  0  0  0  0
 53 64  1  0  0  0  0
 54 64  1  0  0  0  0
 55 64  1  0  0  0  0
 56 76  1  0  0  0  0
 57 65  1  0  0  0  0
 57 68  1  0  0  0  0
 58 61  1  0  0  0  0
 58 83  1  0  0  0  0
 59 64  1  0  0  0  0
 59 75  1  0  0  0  0
 60 76  1  0  0  0  0
 61 62  1  0  0  0  0
 63 65  1  0  0  0  0
 63 86  1  0  0  0  0
 65 87  1  0  0  0  0
 65 88  1  0  0  0  0
 66 68  1  0  0  0  0
 67 69  1  0  0  0  0
M  CHG  1  76   1
M  ISO  4  34 100  58 101  63 100  83 101
M  END
> <Batch ID>
0070

> <Smiles>
CNC(C)C(=O)NC(C(=O)N1Cc2cc([101O:1][101CH2:1]C(C)C(C)(C)c3cnn(CC(F)(F)[100C:0](C)(F)[100C:0](=O)N4CCCC(n5nc(-c6ccc(Oc7ccc(F)cc7F)cc6)c(C(N)=O)c5N)C4)c3)ccc2CC1C(=O)NC1CCCc2ccccc21)C(C)(C)C

> <Shape>
0.378

> <Color>
0.152

> <Negative vol penalty>
0.000

$$$$

  -OEChem-04052318193D

 87 95  0     1  0  0  0  0  0999 V2000
  -25.5671  -34.9575   23.8003 C   0  0  0  0  0  0  0  0  0  0  0  0
  -26.2040  -33.7673   23.4637 C   0  0  0  0  0  0  0  0  0  0  0  0
  -23.1564  -12.5932   20.2846 C   0  0  0  0  0  0  0  0  0  0  0  0
  -23.8113  -13.0758   22.5595 C   0  0  0  0  0  0  0  0  0  0  0  0
  -24.2628  -34.9338   24.2925 C   0  0  0  0  0  0  0  0  0  0  0  0
  -25.5374  -32.5526   23.6202 C   0  0  0  0  0  0  0  0  0  0  0  0
  -26.1153  -29.4910   19.6281 C   0  0  0  0  0  0  0  0  0  0  0  0
  -22.8692  -11.2771   20.6465 C   0  0  0  0  0  0  0  0  0  0  0  0
  -23.5241  -11.7596   22.9214 C   0  0  0  0  0  0  0  0  0  0  0  0
  -27.3246  -28.8053   19.5213 C   0  0  0  0  0  0  0  0  0  0  0  0
  -20.3696   -9.6085   22.1959 C   0  0  0  0  0  0  0  0  0  0  0  0
  -19.1772   -9.0539   21.7310 C   0  0  0  0  0  0  0  0  0  0  0  0
  -26.2753  -26.8273   20.4190 C   0  0  0  0  0  0  0  0  0  0  0  0
  -20.4252   -7.3315   20.5851 C   0  0  0  0  0  0  0  0  0  0  0  0
  -23.6275  -13.4926   21.2412 C   0  0  0  0  0  0  0  0  0  0  0  0
  -23.0453  -15.9510   20.8882 C   0  0  0  0  0  0  0  0  0  0  0  0
  -23.5764  -33.7189   24.4460 C   0  0  0  0  0  0  0  0  0  0  0  0
  -24.9778  -28.8521   20.1422 C   0  0  0  0  0  0  0  0  0  0  0  0
  -24.2232  -32.5125   24.1162 C   0  0  0  0  0  0  0  0  0  0  0  0
  -25.0522  -27.5063   20.5289 C   0  0  0  0  0  0  0  0  0  0  0  0
  -29.8339  -22.5854   19.7188 C   0  0  0  0  0  0  0  0  0  0  0  0
  -23.0531  -10.8603   21.9649 C   0  0  0  0  0  0  0  0  0  0  0  0
  -27.4054  -27.4741   19.9195 C   0  0  0  0  0  0  0  0  0  0  0  0
  -21.5898   -9.0248   21.8554 C   0  0  0  0  0  0  0  0  0  0  0  0
  -19.2050   -7.9154   20.9256 C   0  0  0  0  0  0  0  0  0  0  0  0
  -21.6176   -7.8862   21.0500 C   0  0  0  0  0  0  0  0  0  0  0  0
  -23.9249  -14.8521   20.8679 C   0  0  0  0  0  0  0  0  0  0  0  0
  -31.0002  -22.4060   20.4344 C   0  0  0  0  0  0  0  0  0  0  0  0
  -28.7300  -21.9096   20.1972 C   0  0  0  0  0  0  0  0  0  0  0  0
  -23.8046  -17.0068   20.4465 C   0  0  0  0  0  0  0  0  0  0  0  0
  -29.9476  -21.0235   21.8999 C   0  0  0  0  0  0  0  0  0  0  0  0
  -21.6652  -16.0120   21.2721 C   0  0  0  0  0  0  0  0  0  0  0  0
  -23.0955  -29.3082   22.6626 C   0  0  0  0  0  0  0  0  0  0  0  0
  -21.3482  -26.9412   21.2963 C   0  0  0  0  0  0  0  0  0  0  0  0
  -21.2589  -24.2379   19.2152 C   0  0  0  0  0  0  0  0  0  0  0  0
  -29.6928  -18.0927   20.4858 C   0  0  0  0  0  0  0  0  0  0  0  0
  -22.1845  -33.7399   25.0264 C   0  0  0  0  0  0  0  0  0  0  0  0
  -23.6742  -29.5977   20.2259 C   0  0  0  0  0  0  0  0  0  0  0  0
  -23.8549  -26.7689   21.0683 C   0  0  0  0  0  0  0  0  0  0  0  0
  -21.4144  -32.4398   24.8093 C   0  0  0  0  0  0  0  0  0  0  0  0
  -27.5497  -18.0119   17.6437 C   0  0  0  0  0  0  0  0  0  0  0  0
  -22.2882  -31.2379   25.1539 C   0  0  0  0  0  0  0  0  0  0  0  0
  -26.2983  -17.2920   18.1496 C   0  0  0  0  0  0  0  0  0  0  0  0
  -28.8213  -17.4351   18.2621 C   0  0  0  0  0  0  0  0  0  0  0  0
  -27.5731  -16.6630   20.2419 C   0  0  0  0  0  0  0  0  0  0  0  0
  -23.5243  -31.1768   24.2485 C   0  0  1  0  0  0  0  0  0  0  0  0
  -22.7081  -28.9997   21.2439 C   0  0  1  0  0  0  0  0  0  0  0  0
  -26.2615  -17.2463   19.6890 C   0  0  2  0  0  0  0  0  0  0  0  0
  -32.2596  -23.0880   20.0109 C   0  0  0  0  0  0  0  0  0  0  0  0
  -26.2650  -21.4765   20.3466 C   0  0  0  0  0  0  0  0  0  0  0  0
  -19.6969  -22.4856   18.3280 C   0  0  0  0  0  0  0  0  0  0  0  0
  -28.6818  -20.0619   23.9418 C   0  0  0  0  0  0  0  0  0  0  0  0
  -31.0703  -20.7089   24.1221 C   0  0  0  0  0  0  0  0  0  0  0  0
  -21.4904  -25.4671   23.9640 C   0  0  0  0  0  0  0  0  0  0  0  0
  -20.7751  -23.3848   22.7722 C   0  0  0  0  0  0  0  0  0  0  0  0
  -19.2615  -25.3667   22.8342 C   0  0  0  0  0  0  0  0  0  0  0  0
  -21.6516  -25.1362   16.4228 C   0  0  0  0  0  0  0  0  0  0  0  0
  -29.7701  -23.4642   18.4951 C   0  0  0  0  0  0  0  0  0  0  0  0
  -27.4123  -22.0262   19.5044 C   0  0  0  0  0  0  0  0  0  0  0  0
  -29.7487  -24.9610   18.8122 C   0  0  0  0  0  0  0  0  0  0  0  0
  -30.4336  -18.6822   22.7799 C   0  0  0  0  0  0  0  0  0  0  0  0
  -28.5133  -25.3953   19.5924 C   0  0  0  0  0  0  0  0  0  1  0  0
  -21.3336  -25.4344   21.3871 C   0  0  1  0  0  0  0  0  0  0  0  0
  -20.3061  -23.8596   18.0956 C   0  0  2  0  0  0  0  0  0  0  0  0
  -30.0101  -20.1582   23.1127 C   0  0  0  0  0  0  0  0  0  0  0  0
  -20.7384  -24.9274   22.7310 C   0  0  0  0  0  0  0  0  0  0  0  0
  -25.1493  -15.1794   20.4464 N   0  0  0  0  0  0  0  0  0  0  0  0
  -31.0932  -21.6293   21.5336 N   0  0  0  0  0  0  0  0  0  0  0  0
  -28.7512  -21.1170   21.2888 N   0  0  0  0  0  0  0  0  0  0  0  0
  -25.0445  -16.4960   20.1978 N   0  0  0  0  0  0  0  0  0  0  0  0
  -22.6045  -27.5430   21.1368 N   0  0  0  0  0  0  0  0  0  0  0  0
  -28.7225  -17.4213   19.7236 N   0  0  0  0  0  0  0  0  0  0  0  0
  -23.5260  -18.3131   20.2504 N   0  0  0  0  0  0  0  0  0  0  0  0
  -21.0385  -14.8342   21.7016 N   0  0  0  0  0  0  0  0  0  0  0  0
  -23.1704  -30.6589   22.9442 N   0  0  0  0  0  0  0  0  0  0  0  0
  -20.6246  -24.9609   20.2032 N   0  0  0  0  0  0  0  0  0  0  0  0
  -29.5212  -18.0353   21.8634 N   0  0  0  0  0  0  0  0  0  0  0  0
  -21.0231  -23.8410   16.7893 N   0  3  0  0  0  0  0  0  0  0  0  0
  -21.0028  -17.0760   21.2198 O   0  0  0  0  0  0  0  0  0  0  0  0
  -23.3090  -28.3888   23.4441 O   0  0  0  0  0  0  0  0  0  0  0  0
  -20.2834  -27.5610   21.3571 O   0  0  0  0  0  0  0  0  0  0  0  0
  -22.4462  -23.9203   19.2152 O   0  0  0  0  0  0  0  0  0  0  0  0
  -30.6387  -18.7028   19.9760 O   0  0  0  0  0  0  0  0  0  0  0  0
  -22.7727   -9.5762   22.3184 O   0  0  0  0  0  0  0  0  0  0  0  0
  -28.5847  -26.8027   19.8169 O   0  0  0  0  0  0  0  0  0  1  0  0
  -18.0598   -7.3820   20.4805 F   0  0  0  0  0  0  0  0  0  0  0  0
  -22.7867   -7.3203   20.7204 F   0  0  0  0  0  0  0  0  0  0  0  0
  1  2  1  0  0  0  0
  1  5  2  0  0  0  0
  2  6  2  0  0  0  0
  3  8  2  0  0  0  0
  3 15  1  0  0  0  0
  4  9  1  0  0  0  0
  4 15  2  0  0  0  0
  5 17  1  0  0  0  0
  6 19  1  0  0  0  0
  7 10  2  0  0  0  0
  7 18  1  0  0  0  0
  8 22  1  0  0  0  0
  9 22  2  0  0  0  0
 10 23  1  0  0  0  0
 11 12  2  0  0  0  0
 11 24  1  0  0  0  0
 12 25  1  0  0  0  0
 13 20  1  0  0  0  0
 13 23  2  0  0  0  0
 14 25  2  0  0  0  0
 14 26  1  0  0  0  0
 15 27  1  0  0  0  0
 16 27  1  0  0  0  0
 16 30  2  0  0  0  0
 16 32  1  0  0  0  0
 17 19  2  0  0  0  0
 17 37  1  0  0  0  0
 18 20  2  0  0  0  0
 18 38  1  0  0  0  0
 19 46  1  0  0  0  0
 20 39  1  0  0  0  0
 21 28  1  0  0  0  0
 21 29  2  0  0  0  0
 21 58  1  0  0  0  0
 22 84  1  0  0  0  0
 23 85  1  0  0  0  0
 24 26  2  0  0  0  0
 24 84  1  0  0  0  0
 25 86  1  0  0  0  0
 26 87  1  0  0  0  0
 27 67  2  0  0  0  0
 28 49  1  0  0  0  0
 28 68  2  0  0  0  0
 29 59  1  0  0  0  0
 29 69  1  0  0  0  0
 30 70  1  0  0  0  0
 30 73  1  0  0  0  0
 31 65  1  0  0  0  0
 31 68  1  0  0  0  0
 31 69  2  0  0  0  0
 32 74  1  0  0  0  0
 32 79  2  0  0  0  0
 33 47  1  0  0  0  0
 33 75  1  0  0  0  0
 33 80  2  0  0  0  0
 34 63  1  0  0  0  0
 34 71  1  0  0  0  0
 34 81  2  0  0  0  0
 35 64  1  0  0  0  0
 35 76  1  0  0  0  0
 35 82  2  0  0  0  0
 36 72  1  0  0  0  0
 36 77  1  0  0  0  0
 36 83  2  0  0  0  0
 37 40  1  0  0  0  0
 38 47  1  0  0  0  0
 39 71  1  0  0  0  0
 40 42  1  0  0  0  0
 41 43  1  0  0  0  0
 41 44  1  0  0  0  0
 42 46  1  0  0  0  0
 43 48  1  0  0  0  0
 44 72  1  0  0  0  0
 45 48  1  0  0  0  0
 45 72  1  0  0  0  0
 46 75  1  0  0  0  0
 47 71  1  0  0  0  0
 48 70  1  0  0  0  0
 50 59  1  0  0  0  0
 51 64  1  0  0  0  0
 52 65  1  0  0  0  0
 53 65  1  0  0  0  0
 54 66  1  0  0  0  0
 55 66  1  0  0  0  0
 56 66  1  0  0  0  0
 57 78  1  0  0  0  0
 58 60  1  0  0  0  0
 60 62  1  0  0  0  0
 61 65  1  0  0  0  0
 61 77  1  0  0  0  0
 62 85  1  0  0  0  0
 63 66  1  0  0  0  0
 63 76  1  0  0  0  0
 64 78  1  0  0  0  0
 67 70  1  0  0  0  0
M  CHG  1  78   1
M  ISO  4  36 100  62 101  77 100  85 101
M  END
> <Batch ID>
0070

> <Smiles>
CCc1nc(C(C)(C)C[100NH:0][100C:0](=O)N2CCCC(n3nc(-c4ccc(Oc5ccc(F)cc5F)cc4)c(C(N)=O)c3N)C2)nc(C)c1CC[101CH2:1][101O:1]c1ccc2c(c1)CN(C(=O)C(NC(=O)C(C)NC)C(C)(C)C)C(C(=O)NC1CCCc3ccccc31)C2

> <Shape>
0.261

> <Color>
0.075

> <Negative vol penalty>
0.000

$$$$

  -OEChem-04052318193D

 83 91  0     1  0  0  0  0  0999 V2000
  -29.0424  -23.7306   15.7921 C   0  0  0  0  0  0  0  0  0  0  0  0
  -27.7744  -23.9683   16.3128 C   0  0  0  0  0  0  0  0  0  0  0  0
  -26.6742  -15.4140   21.5573 C   0  0  0  0  0  0  0  0  0  0  0  0
  -26.5819  -15.2224   19.1507 C   0  0  0  0  0  0  0  0  0  0  0  0
  -30.1721  -23.9779   16.5710 C   0  0  0  0  0  0  0  0  0  0  0  0
  -27.6354  -24.4523   17.6131 C   0  0  0  0  0  0  0  0  0  0  0  0
  -24.2482  -28.2029   17.9381 C   0  0  0  0  0  0  0  0  0  0  0  0
  -26.2772  -14.0824   21.6786 C   0  0  0  0  0  0  0  0  0  0  0  0
  -26.1850  -13.8907   19.2719 C   0  0  0  0  0  0  0  0  0  0  0  0
  -22.9005  -27.8458   17.9346 C   0  0  0  0  0  0  0  0  0  0  0  0
  -23.3460  -12.1905   19.9650 C   0  0  0  0  0  0  0  0  0  0  0  0
  -22.2905  -11.7535   19.1648 C   0  0  0  0  0  0  0  0  0  0  0  0
  -22.8386  -28.0794   20.3347 C   0  0  0  0  0  0  0  0  0  0  0  0
  -23.7406  -10.1085   18.1506 C   0  0  0  0  0  0  0  0  0  0  0  0
  -20.6178  -23.8524   16.0031 C   0  0  0  0  0  0  0  0  0  0  0  0
  -26.8265  -15.9841   20.2933 C   0  0  0  0  0  0  0  0  0  0  0  0
  -28.5525  -17.8501   20.0777 C   0  0  0  0  0  0  0  0  0  0  0  0
  -30.0472  -24.4743   17.8781 C   0  0  0  0  0  0  0  0  0  0  0  0
  -24.9051  -28.4908   19.1430 C   0  0  0  0  0  0  0  0  0  0  0  0
  -28.7644  -24.7052   18.4106 C   0  0  0  0  0  0  0  0  0  0  0  0
  -24.1940  -28.4424   20.3506 C   0  0  0  0  0  0  0  0  0  0  0  0
  -26.0327  -13.3207   20.5359 C   0  0  0  0  0  0  0  0  0  0  0  0
  -22.1962  -27.7811   19.1333 C   0  0  0  0  0  0  0  0  0  0  0  0
  -24.5989  -11.5866   19.8580 C   0  0  0  0  0  0  0  0  0  0  0  0
  -22.4878  -10.7124   18.2576 C   0  0  0  0  0  0  0  0  0  0  0  0
  -24.7961  -10.5456   18.9509 C   0  0  0  0  0  0  0  0  0  0  0  0
  -27.2359  -17.3598   20.1674 C   0  0  0  0  0  0  0  0  0  0  0  0
  -21.3482  -22.6494   16.0345 C   0  0  0  0  0  0  0  0  0  0  0  0
  -19.7691  -23.7671   17.0797 C   0  0  0  0  0  0  0  0  0  0  0  0
  -28.4054  -19.2118   19.9741 C   0  0  0  0  0  0  0  0  0  0  0  0
  -29.7970  -17.1383   20.0871 C   0  0  0  0  0  0  0  0  0  0  0  0
  -27.3574  -27.2238   20.7192 C   0  0  0  0  0  0  0  0  0  0  0  0
  -26.9289  -29.7857   22.6623 C   0  0  0  0  0  0  0  0  0  0  0  0
  -24.8279  -32.1924   23.8624 C   0  0  0  0  0  0  0  0  0  0  0  0
  -23.9479  -22.6939   18.0105 C   0  0  0  0  0  0  0  0  0  0  0  0
  -31.2957  -24.6814   18.6984 C   0  0  0  0  0  0  0  0  0  0  0  0
  -26.3523  -28.9004   19.1272 C   0  0  0  0  0  0  0  0  0  0  0  0
  -24.8478  -28.7618   21.6692 C   0  0  0  0  0  0  0  0  0  0  0  0
  -31.0751  -25.5486   19.9351 C   0  0  0  0  0  0  0  0  0  0  0  0
  -25.4609  -22.7666   21.2327 C   0  0  0  0  0  0  0  0  0  0  0  0
  -29.8232  -25.1023   20.6837 C   0  0  0  0  0  0  0  0  0  0  0  0
  -26.2062  -21.4334   21.3170 C   0  0  0  0  0  0  0  0  0  0  0  0
  -24.1398  -22.6280   20.4794 C   0  0  0  0  0  0  0  0  0  0  0  0
  -24.9967  -20.6880   19.2240 C   0  0  0  0  0  0  0  0  0  0  0  0
  -28.5734  -25.2535   19.8081 C   0  0  1  0  0  0  0  0  0  0  0  0
  -27.0524  -28.6726   20.4634 C   0  0  1  0  0  0  0  0  0  0  0  0
  -26.3616  -20.7889   19.9263 C   0  0  2  0  0  0  0  0  0  0  0  0
  -22.1595  -22.7182   13.6552 C   0  0  0  0  0  0  0  0  0  0  0  0
  -24.7528  -34.1196   25.4679 C   0  0  0  0  0  0  0  0  0  0  0  0
  -26.7749  -27.8297   24.9991 C   0  0  0  0  0  0  0  0  0  0  0  0
  -25.7733  -29.6640   26.3777 C   0  0  0  0  0  0  0  0  0  0  0  0
  -28.0816  -29.9106   25.4648 C   0  0  0  0  0  0  0  0  0  0  0  0
  -19.3959  -22.0148   18.8417 C   0  0  0  0  0  0  0  0  0  0  0  0
  -24.2067  -34.1181   21.7026 C   0  0  0  0  0  0  0  0  0  0  0  0
  -18.7291  -24.7271   17.5996 C   0  0  0  0  0  0  0  0  0  0  0  0
  -19.2712  -25.7278   18.6224 C   0  0  0  0  0  0  0  0  0  0  0  0
  -23.8392  -22.6197   15.5323 C   0  0  0  0  0  0  0  0  0  0  0  0
  -20.4433  -26.5504   18.0997 C   0  0  0  0  0  0  0  0  0  1  0  0
  -22.4007  -22.2140   15.1010 C   0  0  1  0  0  0  0  0  0  0  0  0
  -26.1051  -30.0659   23.8959 C   0  0  1  0  0  0  0  0  0  0  0  0
  -25.0042  -33.6908   24.0307 C   0  0  2  0  0  0  0  0  0  0  0  0
  -26.6716  -29.3596   25.1599 C   0  0  0  0  0  0  0  0  0  0  0  0
  -26.3200  -18.3310   20.1248 N   0  0  0  0  0  0  0  0  0  0  0  0
  -20.9946  -21.8579   17.0506 N   0  0  0  0  0  0  0  0  0  0  0  0
  -20.0328  -22.5651   17.6677 N   0  0  0  0  0  0  0  0  0  0  0  0
  -27.0621  -19.4452   20.0072 N   0  0  0  0  0  0  0  0  0  0  0  0
  -26.2661  -29.1510   21.6022 N   0  0  0  0  0  0  0  0  0  0  0  0
  -24.3569  -22.0118   19.1683 N   0  0  0  0  0  0  0  0  0  0  0  0
  -29.2955  -20.2202   19.8590 N   0  0  0  0  0  0  0  0  0  0  0  0
  -29.7671  -15.7417   20.2002 N   0  0  0  0  0  0  0  0  0  0  0  0
  -28.1573  -26.6386   19.7563 N   0  0  0  0  0  0  0  0  0  0  0  0
  -26.0215  -31.5179   24.0098 N   0  0  0  0  0  0  0  0  0  0  0  0
  -24.1967  -22.0423   16.8088 N   0  0  0  0  0  0  0  0  0  0  0  0
  -24.0553  -34.4264   23.1479 N   0  3  0  0  0  0  0  0  0  0  0  0
  -30.9035  -17.7248   20.0144 O   0  0  0  0  0  0  0  0  0  0  0  0
  -26.9022  -26.6776   21.7173 O   0  0  0  0  0  0  0  0  0  0  0  0
  -28.1149  -30.1240   22.6374 O   0  0  0  0  0  0  0  0  0  0  0  0
  -23.7395  -31.6720   23.6277 O   0  0  0  0  0  0  0  0  0  0  0  0
  -23.4062  -23.8040   18.0450 O   0  0  0  0  0  0  0  0  0  0  0  0
  -25.6456  -12.0212   20.6538 O   0  0  0  0  0  0  0  0  0  0  0  0
  -20.8809  -27.4322   19.1328 O   0  0  0  0  0  0  0  0  0  1  0  0
  -21.4737  -10.2918   17.4902 F   0  0  0  0  0  0  0  0  0  0  0  0
  -25.9972   -9.9608   18.8444 F   0  0  0  0  0  0  0  0  0  0  0  0
  1  2  1  0  0  0  0
  1  5  2  0  0  0  0
  2  6  2  0  0  0  0
  3  8  2  0  0  0  0
  3 16  1  0  0  0  0
  4  9  1  0  0  0  0
  4 16  2  0  0  0  0
  5 18  1  0  0  0  0
  6 20  1  0  0  0  0
  7 10  2  0  0  0  0
  7 19  1  0  0  0  0
  8 22  1  0  0  0  0
  9 22  2  0  0  0  0
 10 23  1  0  0  0  0
 11 12  2  0  0  0  0
 11 24  1  0  0  0  0
 12 25  1  0  0  0  0
 13 21  1  0  0  0  0
 13 23  2  0  0  0  0
 14 25  2  0  0  0  0
 14 26  1  0  0  0  0
 15 28  1  0  0  0  0
 15 29  2  0  0  0  0
 16 27  1  0  0  0  0
 17 27  1  0  0  0  0
 17 30  2  0  0  0  0
 17 31  1  0  0  0  0
 18 20  2  0  0  0  0
 18 36  1  0  0  0  0
 19 21  2  0  0  0  0
 19 37  1  0  0  0  0
 20 45  1  0  0  0  0
 21 38  1  0  0  0  0
 22 80  1  0  0  0  0
 23 81  1  0  0  0  0
 24 26  2  0  0  0  0
 24 80  1  0  0  0  0
 25 82  1  0  0  0  0
 26 83  1  0  0  0  0
 27 63  2  0  0  0  0
 28 59  1  0  0  0  0
 28 64  2  0  0  0  0
 29 55  1  0  0  0  0
 29 65  1  0  0  0  0
 30 66  1  0  0  0  0
 30 69  1  0  0  0  0
 31 70  1  0  0  0  0
 31 75  2  0  0  0  0
 32 46  1  0  0  0  0
 32 71  1  0  0  0  0
 32 76  2  0  0  0  0
 33 60  1  0  0  0  0
 33 67  1  0  0  0  0
 33 77  2  0  0  0  0
 34 61  1  0  0  0  0
 34 72  1  0  0  0  0
 34 78  2  0  0  0  0
 35 68  1  0  0  0  0
 35 73  1  0  0  0  0
 35 79  2  0  0  0  0
 36 39  1  0  0  0  0
 37 46  1  0  0  0  0
 38 67  1  0  0  0  0
 39 41  1  0  0  0  0
 40 42  1  0  0  0  0
 40 43  1  0  0  0  0
 41 45  1  0  0  0  0
 42 47  1  0  0  0  0
 43 68  1  0  0  0  0
 44 47  1  0  0  0  0
 44 68  1  0  0  0  0
 45 71  1  0  0  0  0
 46 67  1  0  0  0  0
 47 66  1  0  0  0  0
 48 59  1  0  0  0  0
 49 61  1  0  0  0  0
 50 62  1  0  0  0  0
 51 62  1  0  0  0  0
 52 62  1  0  0  0  0
 53 65  1  0  0  0  0
 54 74  1  0  0  0  0
 55 56  1  0  0  0  0
 56 58  1  0  0  0  0
 57 59  1  0  0  0  0
 57 73  1  0  0  0  0
 58 81  1  0  0  0  0
 60 62  1  0  0  0  0
 60 72  1  0  0  0  0
 61 74  1  0  0  0  0
 63 66  1  0  0  0  0
 64 65  1  0  0  0  0
M  CHG  1  74   1
M  ISO  4  35 100  58 101  73 100  81 101
M  END
> <Batch ID>
0070

> <Smiles>
CNC(C)C(=O)NC(C(=O)N1Cc2cc([101O:1][101CH2:1]CCc3cc(C(C)C[100NH:0][100C:0](=O)N4CCCC(n5nc(-c6ccc(Oc7ccc(F)cc7F)cc6)c(C(N)=O)c5N)C4)nn3C)ccc2CC1C(=O)NC1CCCc2ccccc21)C(C)(C)C

> <Shape>
0.215

> <Color>
0.076

> <Negative vol penalty>
0.000

$$$$

  -OEChem-04052318193D

 83 91  0     1  0  0  0  0  0999 V2000
  -31.9906  -24.3445   18.8355 C   0  0  0  0  0  0  0  0  0  0  0  0
  -31.0804  -23.7841   19.7259 C   0  0  0  0  0  0  0  0  0  0  0  0
  -27.7242  -16.0464   19.0175 C   0  0  0  0  0  0  0  0  0  0  0  0
  -28.2030  -15.7835   21.3709 C   0  0  0  0  0  0  0  0  0  0  0  0
  -32.0545  -25.7291   18.6849 C   0  0  0  0  0  0  0  0  0  0  0  0
  -30.2342  -24.6081   20.4670 C   0  0  0  0  0  0  0  0  0  0  0  0
  -25.4585  -22.9251   20.5404 C   0  0  0  0  0  0  0  0  0  0  0  0
  -28.7710  -16.9614   18.9067 C   0  0  0  0  0  0  0  0  0  0  0  0
  -29.2499  -16.6985   21.2601 C   0  0  0  0  0  0  0  0  0  0  0  0
  -25.1695  -21.8667   21.4007 C   0  0  0  0  0  0  0  0  0  0  0  0
  -31.8190  -19.2357   21.6755 C   0  0  0  0  0  0  0  0  0  0  0  0
  -31.9294  -20.2170   22.6606 C   0  0  0  0  0  0  0  0  0  0  0  0
  -24.2546  -23.4241   22.9996 C   0  0  0  0  0  0  0  0  0  0  0  0
  -29.7300  -21.0377   22.0894 C   0  0  0  0  0  0  0  0  0  0  0  0
  -24.2165  -15.5355   26.3259 C   0  0  0  0  0  0  0  0  0  0  0  0
  -27.4401  -15.4574   20.2496 C   0  0  0  0  0  0  0  0  0  0  0  0
  -26.4272  -13.1168   20.1951 C   0  0  0  0  0  0  0  0  0  0  0  0
  -31.2019  -26.5701   19.4175 C   0  0  0  0  0  0  0  0  0  0  0  0
  -25.1571  -24.2442   20.9086 C   0  0  0  0  0  0  0  0  0  0  0  0
  -30.2876  -26.0053   20.3271 C   0  0  0  0  0  0  0  0  0  0  0  0
  -24.5384  -24.4972   22.1412 C   0  0  0  0  0  0  0  0  0  0  0  0
  -29.5340  -17.2875   20.0280 C   0  0  0  0  0  0  0  0  0  0  0  0
  -24.5701  -22.1164   22.6317 C   0  0  0  0  0  0  0  0  0  0  0  0
  -30.6642  -19.1554   20.8973 C   0  0  0  0  0  0  0  0  0  0  0  0
  -30.8849  -21.1180   22.8676 C   0  0  0  0  0  0  0  0  0  0  0  0
  -29.6197  -20.0564   21.1042 C   0  0  0  0  0  0  0  0  0  0  0  0
  -26.3584  -14.5126   20.3648 C   0  0  0  0  0  0  0  0  0  0  0  0
  -24.7821  -16.7585   26.5525 C   0  0  0  0  0  0  0  0  0  0  0  0
  -25.1422  -12.6812   20.4087 C   0  0  0  0  0  0  0  0  0  0  0  0
  -22.7878  -16.7395   27.5130 C   0  0  0  0  0  0  0  0  0  0  0  0
  -27.5520  -12.2880   19.8732 C   0  0  0  0  0  0  0  0  0  0  0  0
  -26.8627  -26.8806   21.4028 C   0  0  0  0  0  0  0  0  0  0  0  0
  -23.9370  -28.2489   21.7035 C   0  0  0  0  0  0  0  0  0  0  0  0
  -20.6198  -27.8692   22.4095 C   0  0  0  0  0  0  0  0  0  0  0  0
  -20.5338  -14.9336   23.4974 C   0  0  0  0  0  0  0  0  0  0  0  0
  -31.3404  -28.0632   19.2557 C   0  0  0  0  0  0  0  0  0  0  0  0
  -25.4508  -25.3723   19.9580 C   0  0  0  0  0  0  0  0  0  0  0  0
  -24.1761  -25.8933   22.5749 C   0  0  0  0  0  0  0  0  0  0  0  0
  -30.1505  -28.8479   19.8022 C   0  0  0  0  0  0  0  0  0  0  0  0
  -20.5923  -14.1122   20.0335 C   0  0  0  0  0  0  0  0  0  0  0  0
  -29.7638  -28.3363   21.1862 C   0  0  0  0  0  0  0  0  0  0  0  0
  -22.0829  -13.9957   19.7103 C   0  0  0  0  0  0  0  0  0  0  0  0
  -20.3194  -15.2220   21.0464 C   0  0  0  0  0  0  0  0  0  0  0  0
  -22.5956  -15.0145   21.9681 C   0  0  0  0  0  0  0  0  0  0  0  0
  -29.3359  -26.8648   21.1307 C   0  0  1  0  0  0  0  0  0  0  0  0
  -25.5694  -26.7246   20.6540 C   0  0  1  0  0  0  0  0  0  0  0  0
  -22.9268  -13.8717   20.9932 C   0  0  2  0  0  0  0  0  0  0  0  0
  -21.5894  -17.1740   28.2732 C   0  0  0  0  0  0  0  0  0  0  0  0
  -18.4866  -29.1754   22.6112 C   0  0  0  0  0  0  0  0  0  0  0  0
  -24.8621  -29.3389   24.3990 C   0  0  0  0  0  0  0  0  0  0  0  0
  -22.4649  -29.7960   24.9583 C   0  0  0  0  0  0  0  0  0  0  0  0
  -23.5341  -30.9501   23.0224 C   0  0  0  0  0  0  0  0  0  0  0  0
  -19.3281  -26.3157   20.2469 C   0  0  0  0  0  0  0  0  0  0  0  0
  -26.1147  -17.3316   26.1405 C   0  0  0  0  0  0  0  0  0  0  0  0
  -26.0874  -18.0518   24.7878 C   0  0  0  0  0  0  0  0  0  0  0  0
  -25.1738  -19.2783   24.7809 C   0  0  0  0  0  0  0  0  0  0  0  0
  -22.0433  -14.4482   26.9375 C   0  0  0  0  0  0  0  0  0  0  0  0
  -20.9093  -14.6254   25.9311 C   0  0  0  0  0  0  0  0  0  0  0  0
  -25.1414  -19.9435   23.4116 C   0  0  0  0  0  0  0  0  0  1  0  0
  -22.9816  -28.4891   22.8474 C   0  0  1  0  0  0  0  0  0  0  0  0
  -19.3747  -28.3543   21.6893 C   0  0  2  0  0  0  0  0  0  0  0  0
  -23.4692  -29.6173   23.7997 C   0  0  0  0  0  0  0  0  0  0  0  0
  -25.1271  -14.9356   20.6631 N   0  0  0  0  0  0  0  0  0  0  0  0
  -22.9834  -15.5515   26.9317 N   0  0  0  0  0  0  0  0  0  0  0  0
  -24.4103  -13.7990   20.6824 N   0  0  0  0  0  0  0  0  0  0  0  0
  -23.8761  -17.4829   27.2889 N   0  3  0  0  0  0  0  0  0  0  0  0
  -24.4891  -26.9632   21.6133 N   0  0  0  0  0  0  0  0  0  0  0  0
  -21.1500  -15.0451   22.2400 N   0  0  0  0  0  0  0  0  0  0  0  0
  -24.5783  -11.4548   20.3872 N   0  0  0  0  0  0  0  0  0  0  0  0
  -28.7999  -12.8983   19.6867 N   0  0  0  0  0  0  0  0  0  0  0  0
  -27.9892  -26.7492   20.6133 N   0  0  0  0  0  0  0  0  0  0  0  0
  -21.6770  -28.7387   22.2440 N   0  0  0  0  0  0  0  0  0  0  0  0
  -21.3934  -14.7618   24.5755 N   0  0  0  0  0  0  0  0  0  0  0  0
  -18.5843  -27.1963   21.1839 N   0  3  0  0  0  0  0  0  0  0  0  0
  -27.4502  -11.0451   19.7383 O   0  0  0  0  0  0  0  0  0  0  0  0
  -26.8402  -27.1050   22.6073 O   0  0  0  0  0  0  0  0  0  0  0  0
  -24.1788  -29.1660   20.9148 O   0  0  0  0  0  0  0  0  0  0  0  0
  -20.6503  -26.8253   23.0575 O   0  0  0  0  0  0  0  0  0  0  0  0
  -19.3080  -14.9781   23.6474 O   0  0  0  0  0  0  0  0  0  0  0  0
  -30.5558  -18.1801   19.9202 O   0  0  0  0  0  0  0  0  0  0  0  0
  -24.2876  -21.0852   23.4736 O   0  0  0  0  0  0  0  0  0  1  0  0
  -30.9904  -22.0593   23.8146 F   0  0  0  0  0  0  0  0  0  0  0  0
  -28.5073  -19.9835   20.3605 F   0  0  0  0  0  0  0  0  0  0  0  0
  1  2  1  0  0  0  0
  1  5  2  0  0  0  0
  2  6  2  0  0  0  0
  3  8  2  0  0  0  0
  3 16  1  0  0  0  0
  4  9  1  0  0  0  0
  4 16  2  0  0  0  0
  5 18  1  0  0  0  0
  6 20  1  0  0  0  0
  7 10  2  0  0  0  0
  7 19  1  0  0  0  0
  8 22  1  0  0  0  0
  9 22  2  0  0  0  0
 10 23  1  0  0  0  0
 11 12  2  0  0  0  0
 11 24  1  0  0  0  0
 12 25  1  0  0  0  0
 13 21  1  0  0  0  0
 13 23  2  0  0  0  0
 14 25  2  0  0  0  0
 14 26  1  0  0  0  0
 15 28  2  0  0  0  0
 15 64  1  0  0  0  0
 16 27  1  0  0  0  0
 17 27  1  0  0  0  0
 17 29  2  0  0  0  0
 17 31  1  0  0  0  0
 18 20  2  0  0  0  0
 18 36  1  0  0  0  0
 19 21  2  0  0  0  0
 19 37  1  0  0  0  0
 20 45  1  0  0  0  0
 21 38  1  0  0  0  0
 22 80  1  0  0  0  0
 23 81  1  0  0  0  0
 24 26  2  0  0  0  0
 24 80  1  0  0  0  0
 25 82  1  0  0  0  0
 26 83  1  0  0  0  0
 27 63  2  0  0  0  0
 28 54  1  0  0  0  0
 28 66  1  0  0  0  0
 29 65  1  0  0  0  0
 29 69  1  0  0  0  0
 30 48  1  0  0  0  0
 30 64  1  0  0  0  0
 30 66  2  0  0  0  0
 31 70  1  0  0  0  0
 31 75  2  0  0  0  0
 32 46  1  0  0  0  0
 32 71  1  0  0  0  0
 32 76  2  0  0  0  0
 33 60  1  0  0  0  0
 33 67  1  0  0  0  0
 33 77  2  0  0  0  0
 34 61  1  0  0  0  0
 34 72  1  0  0  0  0
 34 78  2  0  0  0  0
 35 68  1  0  0  0  0
 35 73  1  0  0  0  0
 35 79  2  0  0  0  0
 36 39  1  0  0  0  0
 37 46  1  0  0  0  0
 38 67  1  0  0  0  0
 39 41  1  0  0  0  0
 40 42  1  0  0  0  0
 40 43  1  0  0  0  0
 41 45  1  0  0  0  0
 42 47  1  0  0  0  0
 43 68  1  0  0  0  0
 44 47  1  0  0  0  0
 44 68  1  0  0  0  0
 45 71  1  0  0  0  0
 46 67  1  0  0  0  0
 47 65  1  0  0  0  0
 49 61  1  0  0  0  0
 50 62  1  0  0  0  0
 51 62  1  0  0  0  0
 52 62  1  0  0  0  0
 53 74  1  0  0  0  0
 54 55  1  0  0  0  0
 55 56  1  0  0  0  0
 56 59  1  0  0  0  0
 57 58  1  0  0  0  0
 57 64  1  0  0  0  0
 58 73  1  0  0  0  0
 59 81  1  0  0  0  0
 60 62  1  0  0  0  0
 60 72  1  0  0  0  0
 61 74  1  0  0  0  0
 63 65  1  0  0  0  0
M  CHG  2  66   1  74   1
M  ISO  4  35 100  59 101  73 100  81 101
M  END
> <Batch ID>
0070

> <Smiles>
CNC(C)C(=O)NC(C(=O)N1Cc2cc([101O:1][101CH2:1]CCCc3cn(CC[100NH:0][100C:0](=O)N4CCCC(n5nc(-c6ccc(Oc7ccc(F)cc7F)cc6)c(C(N)=O)c5N)C4)c(C)n3)ccc2CC1C(=O)NC1CCCc2ccccc21)C(C)(C)C

> <Shape>
0.222

> <Color>
0.049

> <Negative vol penalty>
0.000

$$$$

  -OEChem-04052318193D

 86 94  0     1  0  0  0  0  0999 V2000
  -32.6382  -26.7314   17.5680 C   0  0  0  0  0  0  0  0  0  0  0  0
  -31.3271  -26.4554   17.9424 C   0  0  0  0  0  0  0  0  0  0  0  0
  -24.1863  -12.8349   21.5171 C   0  0  0  0  0  0  0  0  0  0  0  0
  -26.1268  -12.5680   20.1029 C   0  0  0  0  0  0  0  0  0  0  0  0
  -33.4443  -27.5210   18.3870 C   0  0  0  0  0  0  0  0  0  0  0  0
  -30.8216  -26.9680   19.1367 C   0  0  0  0  0  0  0  0  0  0  0  0
  -26.1758  -28.9117   18.6044 C   0  0  0  0  0  0  0  0  0  0  0  0
  -24.3411  -11.5271   21.9765 C   0  0  0  0  0  0  0  0  0  0  0  0
  -26.2817  -11.2601   20.5623 C   0  0  0  0  0  0  0  0  0  0  0  0
  -25.1119  -28.0124   18.5485 C   0  0  0  0  0  0  0  0  0  0  0  0
  -23.6646   -8.4041   20.8748 C   0  0  0  0  0  0  0  0  0  0  0  0
  -22.5236   -7.6054   20.9512 C   0  0  0  0  0  0  0  0  0  0  0  0
  -24.6275  -28.4503   20.8707 C   0  0  0  0  0  0  0  0  0  0  0  0
  -22.8697   -7.3382   23.3273 C   0  0  0  0  0  0  0  0  0  0  0  0
  -26.7366  -23.9817   21.1316 C   0  0  0  0  0  0  0  0  0  0  0  0
  -25.0791  -13.3554   20.5802 C   0  0  0  0  0  0  0  0  0  0  0  0
  -23.8058  -15.2447   19.4327 C   0  0  0  0  0  0  0  0  0  0  0  0
  -32.9455  -28.0514   19.5872 C   0  0  0  0  0  0  0  0  0  0  0  0
  -26.4808  -29.5800   19.7989 C   0  0  0  0  0  0  0  0  0  0  0  0
  -31.6222  -27.7643   19.9731 C   0  0  0  0  0  0  0  0  0  0  0  0
  -25.6942  -29.3596   20.9385 C   0  0  0  0  0  0  0  0  0  0  0  0
  -25.3888  -10.7396   21.4991 C   0  0  0  0  0  0  0  0  0  0  0  0
  -24.3394  -27.7794   19.6825 C   0  0  0  0  0  0  0  0  0  0  0  0
  -24.4083   -8.6697   22.0247 C   0  0  0  0  0  0  0  0  0  0  0  0
  -22.1261   -7.0725   22.1774 C   0  0  0  0  0  0  0  0  0  0  0  0
  -24.0108   -8.1368   23.2509 C   0  0  0  0  0  0  0  0  0  0  0  0
  -24.9193  -14.7062   20.1049 C   0  0  0  0  0  0  0  0  0  0  0  0
  -27.0407  -22.7313   20.6402 C   0  0  0  0  0  0  0  0  0  0  0  0
  -24.8345  -22.3898   20.1439 C   0  0  0  0  0  0  0  0  0  0  0  0
  -24.5304  -23.6400   20.6361 C   0  0  0  0  0  0  0  0  0  0  0  0
  -24.1461  -16.5548   19.1995 C   0  0  0  0  0  0  0  0  0  0  0  0
  -22.5739  -14.6169   19.0532 C   0  0  0  0  0  0  0  0  0  0  0  0
  -28.9938  -29.6643   21.7435 C   0  0  0  0  0  0  0  0  0  0  0  0
  -27.2781  -31.9843   23.2254 C   0  0  0  0  0  0  0  0  0  0  0  0
  -27.9050  -20.1665   22.0458 C   0  0  0  0  0  0  0  0  0  0  0  0
  -24.2250  -33.3681   23.8661 C   0  0  0  0  0  0  0  0  0  0  0  0
  -33.8694  -28.8605   20.4627 C   0  0  0  0  0  0  0  0  0  0  0  0
  -27.6151  -30.5671   19.8356 C   0  0  0  0  0  0  0  0  0  0  0  0
  -25.9676  -30.0670   22.2398 C   0  0  0  0  0  0  0  0  0  0  0  0
  -33.1405  -29.6749   21.5284 C   0  0  0  0  0  0  0  0  0  0  0  0
  -27.9341  -19.3795   18.4952 C   0  0  0  0  0  0  0  0  0  0  0  0
  -32.0958  -28.8166   22.2346 C   0  0  0  0  0  0  0  0  0  0  0  0
  -27.0777  -18.1146   18.4555 C   0  0  0  0  0  0  0  0  0  0  0  0
  -28.7745  -19.4486   19.7675 C   0  0  0  0  0  0  0  0  0  0  0  0
  -27.1174  -18.0735   20.9872 C   0  0  0  0  0  0  0  0  0  0  0  0
  -31.0300  -28.3226   21.2489 C   0  0  1  0  0  0  0  0  0  0  0  0
  -28.1545  -30.8055   21.2426 C   0  0  1  0  0  0  0  0  0  0  0  0
  -26.2315  -17.9806   19.7337 C   0  0  2  0  0  0  0  0  0  0  0  0
  -23.7791  -21.4948   19.5901 C   0  0  0  0  0  0  0  0  0  0  0  0
  -22.5576  -35.0247   24.7451 C   0  0  0  0  0  0  0  0  0  0  0  0
  -29.5027  -23.4055   20.5182 C   0  0  0  0  0  0  0  0  0  0  0  0
  -28.7654  -21.3671   19.3672 C   0  0  0  0  0  0  0  0  0  0  0  0
  -28.5845  -22.1665   23.2710 C   0  0  0  0  0  0  0  0  0  0  0  0
  -30.2516  -20.8193   22.0118 C   0  0  0  0  0  0  0  0  0  0  0  0
  -27.6268  -30.4123   25.8172 C   0  0  0  0  0  0  0  0  0  0  0  0
  -25.7751  -31.7737   26.8103 C   0  0  0  0  0  0  0  0  0  0  0  0
  -27.8757  -32.8892   26.0579 C   0  0  0  0  0  0  0  0  0  0  0  0
  -24.3912  -35.0131   21.4114 C   0  0  0  0  0  0  0  0  0  0  0  0
  -23.1157  -24.1616   20.6377 C   0  0  0  0  0  0  0  0  0  0  0  0
  -22.6295  -24.6276   19.2636 C   0  0  0  0  0  0  0  0  0  0  0  0
  -23.4153  -25.8130   18.7153 C   0  0  0  0  0  0  0  0  0  1  0  0
  -26.2504  -32.0130   24.3308 C   0  0  1  0  0  0  0  0  0  0  0  0
  -23.7396  -34.8055   23.8137 C   0  0  2  0  0  0  0  0  0  0  0  0
  -28.4448  -22.2370   20.6495 C   0  0  0  0  0  0  0  0  0  0  0  0
  -28.8099  -21.3702   21.9676 C   0  0  0  0  0  0  0  0  0  0  0  0
  -26.8778  -31.7571   25.7302 C   0  0  0  0  0  0  0  0  0  0  0  0
  -25.4760  -24.4585   21.1385 N   0  0  0  0  0  0  0  0  0  0  0  0
  -25.8942  -15.6010   20.2867 N   0  0  0  0  0  0  0  0  0  0  0  0
  -26.0951  -21.9129   20.1374 N   0  0  0  0  0  0  0  0  0  0  0  0
  -25.3943  -16.7150   19.7253 N   0  0  0  0  0  0  0  0  0  0  0  0
  -27.0914  -31.0179   22.2269 N   0  0  0  0  0  0  0  0  0  0  0  0
  -27.9355  -19.2894   20.9613 N   0  0  0  0  0  0  0  0  0  0  0  0
  -23.4964  -17.5738   18.5979 N   0  0  0  0  0  0  0  0  0  0  0  0
  -22.4967  -14.0029   17.7957 N   0  0  0  0  0  0  0  0  0  0  0  0
  -30.0889  -29.3806   20.9499 N   0  0  0  0  0  0  0  0  0  0  0  0
  -25.5578  -33.2914   24.2112 N   0  0  0  0  0  0  0  0  0  0  0  0
  -23.3186  -35.1599   22.4287 N   0  3  0  0  0  0  0  0  0  0  0  0
  -21.5662  -14.6152   19.8002 O   0  0  0  0  0  0  0  0  0  0  0  0
  -28.6725  -29.0850   22.7745 O   0  0  0  0  0  0  0  0  0  0  0  0
  -28.2082  -32.7944   23.2434 O   0  0  0  0  0  0  0  0  0  0  0  0
  -27.1913  -20.0135   23.0404 O   0  0  0  0  0  0  0  0  0  0  0  0
  -23.4940  -32.4091   23.6285 O   0  0  0  0  0  0  0  0  0  0  0  0
  -25.5404   -9.4634   21.9474 O   0  0  0  0  0  0  0  0  0  0  0  0
  -23.3008  -26.9016   19.6308 O   0  0  0  0  0  0  0  0  0  1  0  0
  -21.0295   -6.3069   22.2509 F   0  0  0  0  0  0  0  0  0  0  0  0
  -24.7205   -8.3895   24.3592 F   0  0  0  0  0  0  0  0  0  0  0  0
  1  2  1  0  0  0  0
  1  5  2  0  0  0  0
  2  6  2  0  0  0  0
  3  8  2  0  0  0  0
  3 16  1  0  0  0  0
  4  9  1  0  0  0  0
  4 16  2  0  0  0  0
  5 18  1  0  0  0  0
  6 20  1  0  0  0  0
  7 10  2  0  0  0  0
  7 19  1  0  0  0  0
  8 22  1  0  0  0  0
  9 22  2  0  0  0  0
 10 23  1  0  0  0  0
 11 12  2  0  0  0  0
 11 24  1  0  0  0  0
 12 25  1  0  0  0  0
 13 21  1  0  0  0  0
 13 23  2  0  0  0  0
 14 25  2  0  0  0  0
 14 26  1  0  0  0  0
 15 28  1  0  0  0  0
 15 67  2  0  0  0  0
 16 27  1  0  0  0  0
 17 27  1  0  0  0  0
 17 31  2  0  0  0  0
 17 32  1  0  0  0  0
 18 20  2  0  0  0  0
 18 37  1  0  0  0  0
 19 21  2  0  0  0  0
 19 38  1  0  0  0  0
 20 46  1  0  0  0  0
 21 39  1  0  0  0  0
 22 83  1  0  0  0  0
 23 84  1  0  0  0  0
 24 26  2  0  0  0  0
 24 83  1  0  0  0  0
 25 85  1  0  0  0  0
 26 86  1  0  0  0  0
 27 68  2  0  0  0  0
 28 64  1  0  0  0  0
 28 69  2  0  0  0  0
 29 30  2  0  0  0  0
 29 49  1  0  0  0  0
 29 69  1  0  0  0  0
 30 59  1  0  0  0  0
 30 67  1  0  0  0  0
 31 70  1  0  0  0  0
 31 73  1  0  0  0  0
 32 74  1  0  0  0  0
 32 78  2  0  0  0  0
 33 47  1  0  0  0  0
 33 75  1  0  0  0  0
 33 79  2  0  0  0  0
 34 62  1  0  0  0  0
 34 71  1  0  0  0  0
 34 80  2  0  0  0  0
 35 65  1  0  0  0  0
 35 72  1  0  0  0  0
 35 81  2  0  0  0  0
 36 63  1  0  0  0  0
 36 76  1  0  0  0  0
 36 82  2  0  0  0  0
 37 40  1  0  0  0  0
 38 47  1  0  0  0  0
 39 71  1  0  0  0  0
 40 42  1  0  0  0  0
 41 43  1  0  0  0  0
 41 44  1  0  0  0  0
 42 46  1  0  0  0  0
 43 48  1  0  0  0  0
 44 72  1  0  0  0  0
 45 48  1  0  0  0  0
 45 72  1  0  0  0  0
 46 75  1  0  0  0  0
 47 71  1  0  0  0  0
 48 70  1  0  0  0  0
 50 63  1  0  0  0  0
 51 64  1  0  0  0  0
 52 64  1  0  0  0  0
 53 65  1  0  0  0  0
 54 65  1  0  0  0  0
 55 66  1  0  0  0  0
 56 66  1  0  0  0  0
 57 66  1  0  0  0  0
 58 77  1  0  0  0  0
 59 60  1  0  0  0  0
 60 61  1  0  0  0  0
 61 84  1  0  0  0  0
 62 66  1  0  0  0  0
 62 76  1  0  0  0  0
 63 77  1  0  0  0  0
 64 65  1  0  0  0  0
 68 70  1  0  0  0  0
M  CHG  1  77   1
M  ISO  4  35 100  61 101  65 100  84 101
M  END
> <Batch ID>
0070

> <Smiles>
CNC(C)C(=O)NC(C(=O)N1Cc2cc([101O:1][101CH2:1]CCc3ncc(C(C)(C)[100C:0](C)(C)[100C:0](=O)N4CCCC(n5nc(-c6ccc(Oc7ccc(F)cc7F)cc6)c(C(N)=O)c5N)C4)nc3C)ccc2CC1C(=O)NC1CCCc2ccccc21)C(C)(C)C

> <Shape>
0.263

> <Color>
0.079

> <Negative vol penalty>
0.000

$$$$

  -OEChem-04052318193D

 85 93  0     1  0  0  0  0  0999 V2000
  -28.9579  -36.1434   26.7736 C   0  0  0  0  0  0  0  0  0  0  0  0
  -28.5282  -34.8338   26.9629 C   0  0  0  0  0  0  0  0  0  0  0  0
  -23.8364   -9.7150   22.1340 C   0  0  0  0  0  0  0  0  0  0  0  0
  -22.4165  -10.0876   20.2151 C   0  0  0  0  0  0  0  0  0  0  0  0
  -28.1782  -37.0317   26.0342 C   0  0  0  0  0  0  0  0  0  0  0  0
  -27.3178  -34.4122   26.4137 C   0  0  0  0  0  0  0  0  0  0  0  0
  -26.0191  -28.8529   24.1970 C   0  0  0  0  0  0  0  0  0  0  0  0
  -23.4554   -8.3734   22.1554 C   0  0  0  0  0  0  0  0  0  0  0  0
  -22.0355   -8.7460   20.2365 C   0  0  0  0  0  0  0  0  0  0  0  0
  -25.3608  -27.7540   24.7472 C   0  0  0  0  0  0  0  0  0  0  0  0
  -20.8059   -6.5533   23.2003 C   0  0  0  0  0  0  0  0  0  0  0  0
  -20.4762   -5.9937   24.4347 C   0  0  0  0  0  0  0  0  0  0  0  0
  -22.6985  -20.6035   24.5571 C   0  0  0  0  0  0  0  0  0  0  0  0
  -23.3123  -28.4567   23.6847 C   0  0  0  0  0  0  0  0  0  0  0  0
  -22.2481   -4.3722   24.1727 C   0  0  0  0  0  0  0  0  0  0  0  0
  -23.6497  -20.0626   23.7270 C   0  0  0  0  0  0  0  0  0  0  0  0
  -23.3169  -10.5722   21.1638 C   0  0  0  0  0  0  0  0  0  0  0  0
  -24.7962  -12.5229   20.4469 C   0  0  0  0  0  0  0  0  0  0  0  0
  -26.9623  -36.6180   25.4675 C   0  0  0  0  0  0  0  0  0  0  0  0
  -25.3252  -29.7695   23.3940 C   0  0  0  0  0  0  0  0  0  0  0  0
  -26.5204  -35.2962   25.6671 C   0  0  0  0  0  0  0  0  0  0  0  0
  -23.9647  -29.5650   23.1233 C   0  0  0  0  0  0  0  0  0  0  0  0
  -22.5550   -7.8888   21.2067 C   0  0  0  0  0  0  0  0  0  0  0  0
  -24.0065  -27.5573   24.4935 C   0  0  0  0  0  0  0  0  0  0  0  0
  -21.8566   -6.0224   22.4520 C   0  0  0  0  0  0  0  0  0  0  0  0
  -21.1973   -4.9031   24.9209 C   0  0  0  0  0  0  0  0  0  0  0  0
  -22.5777   -4.9319   22.9383 C   0  0  0  0  0  0  0  0  0  0  0  0
  -23.7097  -11.9583   21.1415 C   0  0  0  0  0  0  0  0  0  0  0  0
  -21.9410  -21.4465   23.7220 C   0  0  0  0  0  0  0  0  0  0  0  0
  -24.7383  -13.8616   20.7487 C   0  0  0  0  0  0  0  0  0  0  0  0
  -25.7706  -11.8936   19.6042 C   0  0  0  0  0  0  0  0  0  0  0  0
  -24.6570  -32.8707   23.5940 C   0  0  0  0  0  0  0  0  0  0  0  0
  -23.4621  -32.4075   20.6141 C   0  0  0  0  0  0  0  0  0  0  0  0
  -22.1671  -30.2420   18.3162 C   0  0  0  0  0  0  0  0  0  0  0  0
  -21.3779  -18.4283   21.1610 C   0  0  0  0  0  0  0  0  0  0  0  0
  -26.1310  -37.6274   24.7160 C   0  0  0  0  0  0  0  0  0  0  0  0
  -26.0560  -30.9352   22.7861 C   0  0  0  0  0  0  0  0  0  0  0  0
  -23.1790  -30.5088   22.2512 C   0  0  0  0  0  0  0  0  0  0  0  0
  -25.0420  -36.9971   23.8516 C   0  0  0  0  0  0  0  0  0  0  0  0
  -22.0007  -16.3677   24.1722 C   0  0  0  0  0  0  0  0  0  0  0  0
  -24.2877  -35.9295   24.6378 C   0  0  0  0  0  0  0  0  0  0  0  0
  -22.5226  -15.0601   23.5789 C   0  0  0  0  0  0  0  0  0  0  0  0
  -21.0622  -17.0916   23.2116 C   0  0  0  0  0  0  0  0  0  0  0  0
  -22.1714  -16.0302   21.2733 C   0  0  0  0  0  0  0  0  0  0  0  0
  -25.2253  -34.7943   25.0663 C   0  0  1  0  0  0  0  0  0  0  0  0
  -25.1310  -32.0864   22.4033 C   0  0  1  0  0  0  0  0  0  0  0  0
  -23.1565  -15.2990   22.1975 C   0  0  2  0  0  0  0  0  0  0  0  0
  -21.2474  -30.1637   15.9827 C   0  0  0  0  0  0  0  0  0  0  0  0
  -19.5113  -21.8590   23.2792 C   0  0  0  0  0  0  0  0  0  0  0  0
  -20.3193  -22.1770   25.6005 C   0  0  0  0  0  0  0  0  0  0  0  0
  -20.8551  -33.6471   21.6026 C   0  0  0  0  0  0  0  0  0  0  0  0
  -19.7178  -32.6913   19.5873 C   0  0  0  0  0  0  0  0  0  0  0  0
  -21.5473  -34.3641   19.3088 C   0  0  0  0  0  0  0  0  0  0  0  0
  -21.9819  -19.6369   19.0985 C   0  0  0  0  0  0  0  0  0  0  0  0
  -24.2860  -28.3807   17.4193 C   0  0  0  0  0  0  0  0  0  0  0  0
  -22.1493  -24.4608   24.5876 C   0  0  0  0  0  0  0  0  0  0  0  0
  -20.9941  -23.8242   23.8054 C   0  0  0  0  0  0  0  0  0  0  0  0
  -24.1591  -20.3235   21.2876 C   0  0  0  0  0  0  0  0  0  0  0  0
  -23.7909  -18.9885   20.6453 C   0  0  0  0  0  0  0  0  0  0  0  0
  -22.2646  -25.9511   24.2901 C   0  0  0  0  0  0  0  0  0  1  0  0
  -22.1177  -32.0153   20.0504 C   0  0  1  0  0  0  0  0  0  0  0  0
  -22.4885  -30.0187   16.8495 C   0  0  2  0  0  0  0  0  0  0  0  0
  -20.7332  -22.3162   24.1155 C   0  0  0  0  0  0  0  0  0  0  0  0
  -21.0735  -33.1625   20.1553 C   0  0  0  0  0  0  0  0  0  0  0  0
  -23.0126  -12.8641   21.8326 N   0  0  0  0  0  0  0  0  0  0  0  0
  -22.3737  -21.4446   22.4584 N   0  0  0  0  0  0  0  0  0  0  0  0
  -23.4135  -20.5939   22.4933 N   0  0  0  0  0  0  0  0  0  0  0  0
  -23.6627  -14.0115   21.5738 N   0  0  0  0  0  0  0  0  0  0  0  0
  -23.9367  -31.6370   21.6851 N   0  0  0  0  0  0  0  0  0  0  0  0
  -21.6734  -17.2670   21.8937 N   0  0  0  0  0  0  0  0  0  0  0  0
  -25.5030  -14.9133   20.3861 N   0  0  0  0  0  0  0  0  0  0  0  0
  -25.6838  -10.5097   19.4006 N   0  0  0  0  0  0  0  0  0  0  0  0
  -25.4928  -33.9115   23.9511 N   0  0  0  0  0  0  0  0  0  0  0  0
  -22.3648  -31.5549   18.6883 N   0  0  0  0  0  0  0  0  0  0  0  0
  -22.3736  -18.9109   20.2982 N   0  0  0  0  0  0  0  0  0  0  0  0
  -23.0483  -28.6530   16.6440 N   0  3  0  0  0  0  0  0  0  0  0  0
  -26.7007  -12.5369   19.0614 O   0  0  0  0  0  0  0  0  0  0  0  0
  -23.6097  -32.5558   24.1470 O   0  0  0  0  0  0  0  0  0  0  0  0
  -24.0720  -33.3579   20.1177 O   0  0  0  0  0  0  0  0  0  0  0  0
  -21.7759  -29.3426   19.0569 O   0  0  0  0  0  0  0  0  0  0  0  0
  -20.2899  -19.0065   21.2788 O   0  0  0  0  0  0  0  0  0  0  0  0
  -22.1832   -6.5797   21.2271 O   0  0  0  0  0  0  0  0  0  0  0  0
  -23.3614  -26.4859   25.0298 O   0  0  0  0  0  0  0  0  0  1  0  0
  -20.8817   -4.3667   26.1070 F   0  0  0  0  0  0  0  0  0  0  0  0
  -23.5889   -4.4183   22.2245 F   0  0  0  0  0  0  0  0  0  0  0  0
  1  2  1  0  0  0  0
  1  5  2  0  0  0  0
  2  6  2  0  0  0  0
  3  8  2  0  0  0  0
  3 17  1  0  0  0  0
  4  9  1  0  0  0  0
  4 17  2  0  0  0  0
  5 19  1  0  0  0  0
  6 21  1  0  0  0  0
  7 10  2  0  0  0  0
  7 20  1  0  0  0  0
  8 23  1  0  0  0  0
  9 23  2  0  0  0  0
 10 24  1  0  0  0  0
 11 12  2  0  0  0  0
 11 25  1  0  0  0  0
 12 26  1  0  0  0  0
 13 16  2  0  0  0  0
 13 29  1  0  0  0  0
 14 22  1  0  0  0  0
 14 24  2  0  0  0  0
 15 26  2  0  0  0  0
 15 27  1  0  0  0  0
 16 67  1  0  0  0  0
 17 28  1  0  0  0  0
 18 28  1  0  0  0  0
 18 30  2  0  0  0  0
 18 31  1  0  0  0  0
 19 21  2  0  0  0  0
 19 36  1  0  0  0  0
 20 22  2  0  0  0  0
 20 37  1  0  0  0  0
 21 45  1  0  0  0  0
 22 38  1  0  0  0  0
 23 82  1  0  0  0  0
 24 83  1  0  0  0  0
 25 27  2  0  0  0  0
 25 82  1  0  0  0  0
 26 84  1  0  0  0  0
 27 85  1  0  0  0  0
 28 65  2  0  0  0  0
 29 63  1  0  0  0  0
 29 66  2  0  0  0  0
 30 68  1  0  0  0  0
 30 71  1  0  0  0  0
 31 72  1  0  0  0  0
 31 77  2  0  0  0  0
 32 46  1  0  0  0  0
 32 73  1  0  0  0  0
 32 78  2  0  0  0  0
 33 61  1  0  0  0  0
 33 69  1  0  0  0  0
 33 79  2  0  0  0  0
 34 62  1  0  0  0  0
 34 74  1  0  0  0  0
 34 80  2  0  0  0  0
 35 70  1  0  0  0  0
 35 75  1  0  0  0  0
 35 81  2  0  0  0  0
 36 39  1  0  0  0  0
 37 46  1  0  0  0  0
 38 69  1  0  0  0  0
 39 41  1  0  0  0  0
 40 42  1  0  0  0  0
 40 43  1  0  0  0  0
 41 45  1  0  0  0  0
 42 47  1  0  0  0  0
 43 70  1  0  0  0  0
 44 47  1  0  0  0  0
 44 70  1  0  0  0  0
 45 73  1  0  0  0  0
 46 69  1  0  0  0  0
 47 68  1  0  0  0  0
 48 62  1  0  0  0  0
 49 63  1  0  0  0  0
 50 63  1  0  0  0  0
 51 64  1  0  0  0  0
 52 64  1  0  0  0  0
 53 64  1  0  0  0  0
 54 75  1  0  0  0  0
 55 76  1  0  0  0  0
 56 57  1  0  0  0  0
 56 60  1  0  0  0  0
 57 63  1  0  0  0  0
 58 59  1  0  0  0  0
 58 67  1  0  0  0  0
 59 75  1  0  0  0  0
 60 83  1  0  0  0  0
 61 64  1  0  0  0  0
 61 74  1  0  0  0  0
 62 76  1  0  0  0  0
 65 68  1  0  0  0  0
 66 67  1  0  0  0  0
M  CHG  1  76   1
M  ISO  4  35 100  60 101  75 100  83 101
M  END
> <Batch ID>
0070

> <Smiles>
CNC(C)C(=O)NC(C(=O)N1Cc2cc([101O:1][101CH2:1]CCC(C)(C)c3ccn(CC[100N:0](C)[100C:0](=O)N4CCCC(n5nc(-c6ccc(Oc7ccc(F)cc7F)cc6)c(C(N)=O)c5N)C4)n3)ccc2CC1C(=O)NC1CCCc2ccccc21)C(C)(C)C

> <Shape>
0.210

> <Color>
0.128

> <Negative vol penalty>
0.000

$$$$

  -OEChem-04052318193D

 87 95  0     1  0  0  0  0  0999 V2000
  -28.5566  -35.3322   22.1538 C   0  0  0  0  0  0  0  0  0  0  0  0
  -29.1925  -34.3314   21.4261 C   0  0  0  0  0  0  0  0  0  0  0  0
  -24.5488  -13.7309   24.1357 C   0  0  0  0  0  0  0  0  0  0  0  0
  -24.0053  -15.6471   22.7684 C   0  0  0  0  0  0  0  0  0  0  0  0
  -27.6071  -34.9954   23.1177 C   0  0  0  0  0  0  0  0  0  0  0  0
  -28.8802  -32.9932   21.6628 C   0  0  0  0  0  0  0  0  0  0  0  0
  -28.3427  -26.7029   18.2776 C   0  0  0  0  0  0  0  0  0  0  0  0
  -24.0671  -14.3979   25.2620 C   0  0  0  0  0  0  0  0  0  0  0  0
  -23.5236  -16.3142   23.8947 C   0  0  0  0  0  0  0  0  0  0  0  0
  -28.7917  -25.3864   18.3733 C   0  0  0  0  0  0  0  0  0  0  0  0
  -25.1487  -16.7883   27.3930 C   0  0  0  0  0  0  0  0  0  0  0  0
  -25.9182  -16.7352   28.5551 C   0  0  0  0  0  0  0  0  0  0  0  0
  -27.0778  -24.9270   20.0075 C   0  0  0  0  0  0  0  0  0  0  0  0
  -24.0836  -15.6814   29.7217 C   0  0  0  0  0  0  0  0  0  0  0  0
  -27.9657  -17.6091   18.7852 C   0  0  0  0  0  0  0  0  0  0  0  0
  -29.7493  -17.8436   20.7578 C   0  0  0  0  0  0  0  0  0  0  0  0
  -24.5179  -14.3555   22.8889 C   0  0  0  0  0  0  0  0  0  0  0  0
  -24.2875  -12.8376   20.8516 C   0  0  0  0  0  0  0  0  0  0  0  0
  -27.2760  -33.6529   23.3595 C   0  0  0  0  0  0  0  0  0  0  0  0
  -27.2629  -27.1449   19.0555 C   0  0  0  0  0  0  0  0  0  0  0  0
  -27.9264  -32.6381   22.6318 C   0  0  0  0  0  0  0  0  0  0  0  0
  -26.6154  -26.2488   19.9180 C   0  0  0  0  0  0  0  0  0  0  0  0
  -23.5545  -15.6896   25.1416 C   0  0  0  0  0  0  0  0  0  0  0  0
  -28.1611  -24.4990   19.2405 C   0  0  0  0  0  0  0  0  0  0  0  0
  -23.8466  -16.2880   27.3952 C   0  0  0  0  0  0  0  0  0  0  0  0
  -25.3857  -16.1818   29.7195 C   0  0  0  0  0  0  0  0  0  0  0  0
  -23.3141  -15.7345   28.5595 C   0  0  0  0  0  0  0  0  0  0  0  0
  -25.0159  -13.6672   21.7251 C   0  0  0  0  0  0  0  0  0  0  0  0
  -29.1578  -16.9198   18.7512 C   0  0  0  0  0  0  0  0  0  0  0  0
  -28.5575  -18.5335   20.7915 C   0  0  0  0  0  0  0  0  0  0  0  0
  -25.2077  -12.4320   19.9161 C   0  0  0  0  0  0  0  0  0  0  0  0
  -22.9029  -12.4667   20.8831 C   0  0  0  0  0  0  0  0  0  0  0  0
  -26.8789  -29.3491   21.3134 C   0  0  0  0  0  0  0  0  0  0  0  0
  -23.7535  -28.5246   21.0401 C   0  0  0  0  0  0  0  0  0  0  0  0
  -30.3643  -14.8791   18.0365 C   0  0  0  0  0  0  0  0  0  0  0  0
  -21.4442  -26.1770   20.1444 C   0  0  0  0  0  0  0  0  0  0  0  0
  -26.2777  -33.3355   24.4446 C   0  0  0  0  0  0  0  0  0  0  0  0
  -26.7737  -28.5609   18.9210 C   0  0  0  0  0  0  0  0  0  0  0  0
  -25.4390  -26.6683   20.7599 C   0  0  0  0  0  0  0  0  0  0  0  0
  -25.7313  -31.9120   24.3722 C   0  0  0  0  0  0  0  0  0  0  0  0
  -29.8770  -11.5875   19.3661 C   0  0  0  0  0  0  0  0  0  0  0  0
  -26.8665  -30.9143   24.1651 C   0  0  0  0  0  0  0  0  0  0  0  0
  -28.5221  -11.6803   20.0667 C   0  0  0  0  0  0  0  0  0  0  0  0
  -30.6560  -12.8940   19.4817 C   0  0  0  0  0  0  0  0  0  0  0  0
  -28.5559  -14.1861   19.6860 C   0  0  0  0  0  0  0  0  0  0  0  0
  -27.5966  -31.1762   22.8422 C   0  0  1  0  0  0  0  0  0  0  0  0
  -25.9923  -29.0415   20.1399 C   0  0  1  0  0  0  0  0  0  0  0  0
  -27.7235  -12.8972   19.5668 C   0  0  2  0  0  0  0  0  0  0  0  0
  -18.9678  -25.7772   20.0713 C   0  0  0  0  0  0  0  0  0  0  0  0
  -30.8918  -22.0997   20.7604 C   0  0  0  0  0  0  0  0  0  0  0  0
  -29.1673  -21.5023   23.3452 C   0  0  0  0  0  0  0  0  0  0  0  0
  -30.2342  -16.7931   16.4890 C   0  0  0  0  0  0  0  0  0  0  0  0
  -28.2698  -15.3158   16.9277 C   0  0  0  0  0  0  0  0  0  0  0  0
  -28.2219  -18.5872   23.2636 C   0  0  0  0  0  0  0  0  0  0  0  0
  -26.7976  -20.0657   21.8903 C   0  0  0  0  0  0  0  0  0  0  0  0
  -23.7423  -28.0579   24.0554 C   0  0  0  0  0  0  0  0  0  0  0  0
  -21.6044  -26.7845   23.7802 C   0  0  0  0  0  0  0  0  0  0  0  0
  -21.7022  -29.2011   23.1691 C   0  0  0  0  0  0  0  0  0  0  0  0
  -21.4663  -25.8515   17.2029 C   0  0  0  0  0  0  0  0  0  0  0  0
  -28.4249  -22.5611   20.5935 C   0  0  0  0  0  0  0  0  0  1  0  0
  -22.8564  -27.5021   21.6949 C   0  0  1  0  0  0  0  0  0  0  0  0
  -20.1836  -26.2734   19.3041 C   0  0  2  0  0  0  0  0  0  0  0  0
  -29.4887  -21.4651   20.7879 C   0  0  2  0  0  0  0  0  0  0  0  0
  -29.3201  -20.6134   22.0968 C   0  0  2  0  0  0  0  0  0  0  0  0
  -29.4800  -16.0228   17.6076 C   0  0  0  0  0  0  0  0  0  0  0  0
  -28.2215  -19.4679   21.9834 C   0  0  0  0  0  0  0  0  0  0  0  0
  -22.4997  -27.8787   23.1606 C   0  0  0  0  0  0  0  0  0  0  0  0
  -30.0709  -17.0244   19.7370 N   0  0  0  0  0  0  0  0  0  0  0  0
  -27.6443  -18.4286   19.8058 N   0  0  0  0  0  0  0  0  0  0  0  0
  -26.2999  -13.7827   21.3757 N   0  0  0  0  0  0  0  0  0  0  0  0
  -26.3855  -13.0202   20.2724 N   0  0  0  0  0  0  0  0  0  0  0  0
  -25.0019  -28.0647   20.5975 N   0  0  0  0  0  0  0  0  0  0  0  0
  -29.8553  -14.0284   19.0180 N   0  0  0  0  0  0  0  0  0  0  0  0
  -25.1162  -11.6332   18.8317 N   0  0  0  0  0  0  0  0  0  0  0  0
  -22.0988  -12.9729   21.9134 N   0  0  0  0  0  0  0  0  0  0  0  0
  -26.8249  -30.6657   21.7294 N   0  0  0  0  0  0  0  0  0  0  0  0
  -21.7000  -27.3526   20.8180 N   0  0  0  0  0  0  0  0  0  0  0  0
  -20.3230  -25.4566   18.0654 N   0  3  0  0  0  0  0  0  0  0  0  0
  -22.3975  -11.6958   20.0324 O   0  0  0  0  0  0  0  0  0  0  0  0
  -27.5603  -28.4576   21.8059 O   0  0  0  0  0  0  0  0  0  0  0  0
  -23.3583  -29.6868   20.9191 O   0  0  0  0  0  0  0  0  0  0  0  0
  -31.4729  -14.7456   17.5116 O   0  0  0  0  0  0  0  0  0  0  0  0
  -22.1310  -25.1593   20.2007 O   0  0  0  0  0  0  0  0  0  0  0  0
  -23.0842  -16.3407   26.2404 O   0  0  0  0  0  0  0  0  0  0  0  0
  -28.5977  -23.2137   19.3363 O   0  0  0  0  0  0  0  0  0  1  0  0
  -26.1253  -16.1295   30.8351 F   0  0  0  0  0  0  0  0  0  0  0  0
  -22.0642  -15.2512   28.5675 F   0  0  0  0  0  0  0  0  0  0  0  0
  1  2  1  0  0  0  0
  1  5  2  0  0  0  0
  2  6  2  0  0  0  0
  3  8  2  0  0  0  0
  3 17  1  0  0  0  0
  4  9  1  0  0  0  0
  4 17  2  0  0  0  0
  5 19  1  0  0  0  0
  6 21  1  0  0  0  0
  7 10  2  0  0  0  0
  7 20  1  0  0  0  0
  8 23  1  0  0  0  0
  9 23  2  0  0  0  0
 10 24  1  0  0  0  0
 11 12  2  0  0  0  0
 11 25  1  0  0  0  0
 12 26  1  0  0  0  0
 13 22  1  0  0  0  0
 13 24  2  0  0  0  0
 14 26  2  0  0  0  0
 14 27  1  0  0  0  0
 15 29  2  0  0  0  0
 15 69  1  0  0  0  0
 16 30  1  0  0  0  0
 16 68  2  0  0  0  0
 17 28  1  0  0  0  0
 18 28  1  0  0  0  0
 18 31  2  0  0  0  0
 18 32  1  0  0  0  0
 19 21  2  0  0  0  0
 19 37  1  0  0  0  0
 20 22  2  0  0  0  0
 20 38  1  0  0  0  0
 21 46  1  0  0  0  0
 22 39  1  0  0  0  0
 23 84  1  0  0  0  0
 24 85  1  0  0  0  0
 25 27  2  0  0  0  0
 25 84  1  0  0  0  0
 26 86  1  0  0  0  0
 27 87  1  0  0  0  0
 28 70  2  0  0  0  0
 29 65  1  0  0  0  0
 29 68  1  0  0  0  0
 30 66  1  0  0  0  0
 30 69  2  0  0  0  0
 31 71  1  0  0  0  0
 31 74  1  0  0  0  0
 32 75  1  0  0  0  0
 32 79  2  0  0  0  0
 33 47  1  0  0  0  0
 33 76  1  0  0  0  0
 33 80  2  0  0  0  0
 34 61  1  0  0  0  0
 34 72  1  0  0  0  0
 34 81  2  0  0  0  0
 35 65  1  0  0  0  0
 35 73  1  0  0  0  0
 35 82  2  0  0  0  0
 36 62  1  0  0  0  0
 36 77  1  0  0  0  0
 36 83  2  0  0  0  0
 37 40  1  0  0  0  0
 38 47  1  0  0  0  0
 39 72  1  0  0  0  0
 40 42  1  0  0  0  0
 41 43  1  0  0  0  0
 41 44  1  0  0  0  0
 42 46  1  0  0  0  0
 43 48  1  0  0  0  0
 44 73  1  0  0  0  0
 45 48  1  0  0  0  0
 45 73  1  0  0  0  0
 46 76  1  0  0  0  0
 47 72  1  0  0  0  0
 48 71  1  0  0  0  0
 49 62  1  0  0  0  0
 50 63  1  0  0  0  0
 51 64  1  0  0  0  0
 52 65  1  0  0  0  0
 53 65  1  0  0  0  0
 54 66  1  0  0  0  0
 55 66  1  0  0  0  0
 56 67  1  0  0  0  0
 57 67  1  0  0  0  0
 58 67  1  0  0  0  0
 59 78  1  0  0  0  0
 60 63  1  0  0  0  0
 60 85  1  0  0  0  0
 61 67  1  0  0  0  0
 61 77  1  0  0  0  0
 62 78  1  0  0  0  0
 63 64  1  0  0  0  0
 64 66  1  0  0  0  0
 70 71  1  0  0  0  0
M  CHG  1  78   1
M  ISO  4  35 100  60 101  65 100  85 101
M  END
> <Batch ID>
0070

> <Smiles>
CNC(C)C(=O)NC(C(=O)N1Cc2cc([101O:1][101CH2:1]C(C)C(C)C(C)(C)c3cnc([100C:0](C)(C)[100C:0](=O)N4CCCC(n5nc(-c6ccc(Oc7ccc(F)cc7F)cc6)c(C(N)=O)c5N)C4)cn3)ccc2CC1C(=O)NC1CCCc2ccccc21)C(C)(C)C

> <Shape>
0.258

> <Color>
0.084

> <Negative vol penalty>
0.000

$$$$

  -OEChem-04052318193D

 87 95  0     1  0  0  0  0  0999 V2000
  -31.7841  -24.1906   17.3342 C   0  0  0  0  0  0  0  0  0  0  0  0
  -30.4610  -24.1428   17.7584 C   0  0  0  0  0  0  0  0  0  0  0  0
  -29.9015  -17.2061   19.1019 C   0  0  0  0  0  0  0  0  0  0  0  0
  -28.0466  -17.6503   20.5849 C   0  0  0  0  0  0  0  0  0  0  0  0
  -32.6731  -25.0791   17.9354 C   0  0  0  0  0  0  0  0  0  0  0  0
  -30.0235  -24.9916   18.7757 C   0  0  0  0  0  0  0  0  0  0  0  0
  -25.2005  -25.0168   19.7460 C   0  0  0  0  0  0  0  0  0  0  0  0
  -30.1123  -18.5771   18.9548 C   0  0  0  0  0  0  0  0  0  0  0  0
  -28.2574  -19.0213   20.4378 C   0  0  0  0  0  0  0  0  0  0  0  0
  -24.5537  -23.9569   20.3801 C   0  0  0  0  0  0  0  0  0  0  0  0
  -28.5335  -22.6340   20.7382 C   0  0  0  0  0  0  0  0  0  0  0  0
  -28.5037  -23.4225   21.8883 C   0  0  0  0  0  0  0  0  0  0  0  0
  -24.4976  -25.2259   22.4308 C   0  0  0  0  0  0  0  0  0  0  0  0
  -30.3411  -22.1511   22.8074 C   0  0  0  0  0  0  0  0  0  0  0  0
  -28.8687  -16.7427   19.9169 C   0  0  0  0  0  0  0  0  0  0  0  0
  -29.5570  -14.3759   20.5742 C   0  0  0  0  0  0  0  0  0  0  0  0
  -32.2485  -25.9301   18.9691 C   0  0  0  0  0  0  0  0  0  0  0  0
  -25.5110  -26.1869   20.4536 C   0  0  0  0  0  0  0  0  0  0  0  0
  -30.8997  -25.9121   19.3787 C   0  0  0  0  0  0  0  0  0  0  0  0
  -25.1461  -26.3002   21.8027 C   0  0  0  0  0  0  0  0  0  0  0  0
  -29.2902  -19.4847   19.6228 C   0  0  0  0  0  0  0  0  0  0  0  0
  -24.2047  -24.0602   21.7234 C   0  0  0  0  0  0  0  0  0  0  0  0
  -29.4670  -21.6040   20.6226 C   0  0  0  0  0  0  0  0  0  0  0  0
  -29.4076  -23.1811   22.9230 C   0  0  0  0  0  0  0  0  0  0  0  0
  -30.3708  -21.3626   21.6572 C   0  0  0  0  0  0  0  0  0  0  0  0
  -28.6501  -15.3267   20.0688 C   0  0  0  0  0  0  0  0  0  0  0  0
  -28.8760  -13.1848   20.5118 C   0  0  0  0  0  0  0  0  0  0  0  0
  -22.9699  -14.0406   21.7321 C   0  0  0  0  0  0  0  0  0  0  0  0
  -22.5473  -15.9486   20.9986 C   0  0  0  0  0  0  0  0  0  0  0  0
  -30.8953  -14.5536   21.0571 C   0  0  0  0  0  0  0  0  0  0  0  0
  -28.2003  -27.6994   21.2176 C   0  0  0  0  0  0  0  0  0  0  0  0
  -26.1550  -29.9489   22.3486 C   0  0  0  0  0  0  0  0  0  0  0  0
  -23.0018  -11.9184   20.4699 C   0  0  0  0  0  0  0  0  0  0  0  0
  -23.0468  -30.7017   23.5399 C   0  0  0  0  0  0  0  0  0  0  0  0
  -33.2508  -26.8778   19.5794 C   0  0  0  0  0  0  0  0  0  0  0  0
  -26.1850  -27.3316   19.7481 C   0  0  0  0  0  0  0  0  0  0  0  0
  -25.4388  -27.5430   22.6017 C   0  0  0  0  0  0  0  0  0  0  0  0
  -32.8105  -27.4153   20.9371 C   0  0  0  0  0  0  0  0  0  0  0  0
  -25.4536  -10.9440   18.0451 C   0  0  0  0  0  0  0  0  0  0  0  0
  -31.3837  -27.9364   20.8520 C   0  0  0  0  0  0  0  0  0  0  0  0
  -26.6226  -11.8900   18.3165 C   0  0  0  0  0  0  0  0  0  0  0  0
  -24.1124  -11.6322   18.2792 C   0  0  0  0  0  0  0  0  0  0  0  0
  -25.1370  -13.1836   19.9117 C   0  0  0  0  0  0  0  0  0  0  0  0
  -30.4087  -26.8043   20.5044 C   0  0  1  0  0  0  0  0  0  0  0  0
  -26.9124  -28.2755   20.7007 C   0  0  1  0  0  0  0  0  0  0  0  0
  -26.5112  -12.5189   19.7167 C   0  0  2  0  0  0  0  0  0  0  0  0
  -22.1002  -17.1250   20.2314 C   0  0  0  0  0  0  0  0  0  0  0  0
  -21.6845  -32.6175   24.4180 C   0  0  0  0  0  0  0  0  0  0  0  0
  -21.7827  -12.0097   22.6031 C   0  0  0  0  0  0  0  0  0  0  0  0
  -24.2769  -11.9484   22.5075 C   0  0  0  0  0  0  0  0  0  0  0  0
  -27.6426  -29.7848   25.0076 C   0  0  0  0  0  0  0  0  0  0  0  0
  -25.7087  -30.9567   26.0822 C   0  0  0  0  0  0  0  0  0  0  0  0
  -27.0246  -32.1023   24.2992 C   0  0  0  0  0  0  0  0  0  0  0  0
  -23.9467  -18.8660   25.5544 C   0  0  0  0  0  0  0  0  0  0  0  0
  -21.6307  -19.6988   25.1789 C   0  0  0  0  0  0  0  0  0  0  0  0
  -21.0702  -30.4506   21.3516 C   0  0  0  0  0  0  0  0  0  0  0  0
  -22.6211  -20.7872   22.3995 C   0  0  0  0  0  0  0  0  0  0  0  0
  -23.4953  -20.3461   23.5826 C   0  0  0  0  0  0  0  0  0  0  0  0
  -22.5452  -17.9309   23.6569 C   0  0  0  0  0  0  0  0  0  0  0  0
  -23.7031  -17.2843   22.8847 C   0  0  0  0  0  0  0  0  0  0  0  0
  -23.3002  -21.8668   21.5604 C   0  0  0  0  0  0  0  0  0  1  0  0
  -25.4742  -30.2065   23.6711 C   0  0  1  0  0  0  0  0  0  0  0  0
  -22.0751  -31.8135   23.1877 C   0  0  2  0  0  0  0  0  0  0  0  0
  -23.0128  -12.5766   21.8266 C   0  0  0  0  0  0  0  0  0  0  0  0
  -26.4586  -30.7383   24.7508 C   0  0  0  0  0  0  0  0  0  0  0  0
  -22.9083  -19.2082   24.4645 C   0  0  0  0  0  0  0  0  0  0  0  0
  -27.4821  -14.7861   19.7114 N   0  0  0  0  0  0  0  0  0  0  0  0
  -22.3515  -14.6854   20.6994 N   0  0  0  0  0  0  0  0  0  0  0  0
  -23.5361  -14.8253   22.6514 N   0  0  0  0  0  0  0  0  0  0  0  0
  -27.6505  -13.4828   19.9926 N   0  0  0  0  0  0  0  0  0  0  0  0
  -23.2514  -16.0404   22.1586 N   0  0  0  0  0  0  0  0  0  0  0  0
  -26.1050  -28.6323   21.8689 N   0  0  0  0  0  0  0  0  0  0  0  0
  -24.0547  -12.2360   19.6117 N   0  0  0  0  0  0  0  0  0  0  0  0
  -29.2120  -11.9220   20.8507 N   0  0  0  0  0  0  0  0  0  0  0  0
  -31.0836  -14.8256   22.4190 N   0  0  0  0  0  0  0  0  0  0  0  0
  -29.1069  -27.3707   20.2279 N   0  0  0  0  0  0  0  0  0  0  0  0
  -24.3576  -31.1017   23.3878 N   0  0  0  0  0  0  0  0  0  0  0  0
  -20.8362  -31.2467   22.5838 N   0  3  0  0  0  0  0  0  0  0  0  0
  -31.8934  -14.4899   20.3000 O   0  0  0  0  0  0  0  0  0  0  0  0
  -28.3602  -27.5646   22.4250 O   0  0  0  0  0  0  0  0  0  0  0  0
  -26.7046  -30.8828   21.7593 O   0  0  0  0  0  0  0  0  0  0  0  0
  -22.0855  -11.1432   20.1843 O   0  0  0  0  0  0  0  0  0  0  0  0
  -22.6799  -29.5907   23.9162 O   0  0  0  0  0  0  0  0  0  0  0  0
  -29.4957  -20.8225   19.4797 O   0  0  0  0  0  0  0  0  0  0  0  0
  -23.5739  -23.0270   22.3449 O   0  0  0  0  0  0  0  0  0  1  0  0
  -29.3799  -23.9394   24.0268 F   0  0  0  0  0  0  0  0  0  0  0  0
  -31.2707  -20.3752   21.5514 F   0  0  0  0  0  0  0  0  0  0  0  0
  1  2  1  0  0  0  0
  1  5  2  0  0  0  0
  2  6  2  0  0  0  0
  3  8  2  0  0  0  0
  3 15  1  0  0  0  0
  4  9  1  0  0  0  0
  4 15  2  0  0  0  0
  5 17  1  0  0  0  0
  6 19  1  0  0  0  0
  7 10  2  0  0  0  0
  7 18  1  0  0  0  0
  8 21  1  0  0  0  0
  9 21  2  0  0  0  0
 10 22  1  0  0  0  0
 11 12  2  0  0  0  0
 11 23  1  0  0  0  0
 12 24  1  0  0  0  0
 13 20  1  0  0  0  0
 13 22  2  0  0  0  0
 14 24  2  0  0  0  0
 14 25  1  0  0  0  0
 15 26  1  0  0  0  0
 16 26  1  0  0  0  0
 16 27  2  0  0  0  0
 16 30  1  0  0  0  0
 17 19  2  0  0  0  0
 17 35  1  0  0  0  0
 18 20  2  0  0  0  0
 18 36  1  0  0  0  0
 19 44  1  0  0  0  0
 20 37  1  0  0  0  0
 21 84  1  0  0  0  0
 22 85  1  0  0  0  0
 23 25  2  0  0  0  0
 23 84  1  0  0  0  0
 24 86  1  0  0  0  0
 25 87  1  0  0  0  0
 26 67  2  0  0  0  0
 27 70  1  0  0  0  0
 27 74  1  0  0  0  0
 28 64  1  0  0  0  0
 28 68  1  0  0  0  0
 28 69  2  0  0  0  0
 29 47  1  0  0  0  0
 29 68  2  0  0  0  0
 29 71  1  0  0  0  0
 30 75  1  0  0  0  0
 30 79  2  0  0  0  0
 31 45  1  0  0  0  0
 31 76  1  0  0  0  0
 31 80  2  0  0  0  0
 32 62  1  0  0  0  0
 32 72  1  0  0  0  0
 32 81  2  0  0  0  0
 33 64  1  0  0  0  0
 33 73  1  0  0  0  0
 33 82  2  0  0  0  0
 34 63  1  0  0  0  0
 34 77  1  0  0  0  0
 34 83  2  0  0  0  0
 35 38  1  0  0  0  0
 36 45  1  0  0  0  0
 37 72  1  0  0  0  0
 38 40  1  0  0  0  0
 39 41  1  0  0  0  0
 39 42  1  0  0  0  0
 40 44  1  0  0  0  0
 41 46  1  0  0  0  0
 42 73  1  0  0  0  0
 43 46  1  0  0  0  0
 43 73  1  0  0  0  0
 44 76  1  0  0  0  0
 45 72  1  0  0  0  0
 46 70  1  0  0  0  0
 48 63  1  0  0  0  0
 49 64  1  0  0  0  0
 50 64  1  0  0  0  0
 51 65  1  0  0  0  0
 52 65  1  0  0  0  0
 53 65  1  0  0  0  0
 54 66  1  0  0  0  0
 55 66  1  0  0  0  0
 56 78  1  0  0  0  0
 57 58  1  0  0  0  0
 57 61  1  0  0  0  0
 58 66  1  0  0  0  0
 59 60  1  0  0  0  0
 59 66  1  0  0  0  0
 60 71  1  0  0  0  0
 61 85  1  0  0  0  0
 62 65  1  0  0  0  0
 62 77  1  0  0  0  0
 63 78  1  0  0  0  0
 67 70  1  0  0  0  0
 69 71  1  0  0  0  0
M  CHG  1  78   1
M  ISO  4  33 100  61 101  64 100  85 101
M  END
> <Batch ID>
0070

> <Smiles>
CNC(C)C(=O)NC(C(=O)N1Cc2cc([101O:1][101CH2:1]CCC(C)(C)CCn3nc([100C:0](C)(C)[100C:0](=O)N4CCCC(n5nc(-c6ccc(Oc7ccc(F)cc7F)cc6)c(C(N)=O)c5N)C4)nc3C)ccc2CC1C(=O)NC1CCCc2ccccc21)C(C)(C)C

> <Shape>
0.286

> <Color>
0.068

> <Negative vol penalty>
0.000

$$$$

  -OEChem-04052318193D

 85 93  0     1  0  0  0  0  0999 V2000
  -32.3357  -14.2277   20.5582 C   0  0  0  0  0  0  0  0  0  0  0  0
  -31.5055  -15.3391   20.6631 C   0  0  0  0  0  0  0  0  0  0  0  0
  -29.0993  -26.6554   20.5865 C   0  0  0  0  0  0  0  0  0  0  0  0
  -27.1889  -25.2656   20.0810 C   0  0  0  0  0  0  0  0  0  0  0  0
  -31.7992  -12.9885   20.2112 C   0  0  0  0  0  0  0  0  0  0  0  0
  -30.1383  -15.2121   20.4201 C   0  0  0  0  0  0  0  0  0  0  0  0
  -27.3193  -17.5979   23.8850 C   0  0  0  0  0  0  0  0  0  0  0  0
  -29.8552  -25.5161   20.8624 C   0  0  0  0  0  0  0  0  0  0  0  0
  -27.9448  -24.1262   20.3567 C   0  0  0  0  0  0  0  0  0  0  0  0
  -27.2040  -18.9824   23.7685 C   0  0  0  0  0  0  0  0  0  0  0  0
  -29.4750  -20.8357   20.5788 C   0  0  0  0  0  0  0  0  0  0  0  0
  -29.3842  -19.7652   19.6891 C   0  0  0  0  0  0  0  0  0  0  0  0
  -25.0413  -18.7094   22.7354 C   0  0  0  0  0  0  0  0  0  0  0  0
  -30.1938  -21.1792   17.9052 C   0  0  0  0  0  0  0  0  0  0  0  0
  -21.4253  -26.2389   23.4308 C   0  0  0  0  0  0  0  0  0  0  0  0
  -27.7661  -26.5302   20.1959 C   0  0  0  0  0  0  0  0  0  0  0  0
  -26.8428  -28.3532   18.6689 C   0  0  0  0  0  0  0  0  0  0  0  0
  -30.4233  -12.8442   19.9732 C   0  0  0  0  0  0  0  0  0  0  0  0
  -26.2995  -16.7569   23.4169 C   0  0  0  0  0  0  0  0  0  0  0  0
  -29.5831  -13.9700   20.0683 C   0  0  0  0  0  0  0  0  0  0  0  0
  -25.1449  -17.3146   22.8494 C   0  0  0  0  0  0  0  0  0  0  0  0
  -29.2780  -24.2515   20.7474 C   0  0  0  0  0  0  0  0  0  0  0  0
  -26.0662  -19.5383   23.1910 C   0  0  0  0  0  0  0  0  0  0  0  0
  -29.9251  -22.0780   20.1316 C   0  0  0  0  0  0  0  0  0  0  0  0
  -29.7436  -19.9370   18.3524 C   0  0  0  0  0  0  0  0  0  0  0  0
  -30.2845  -22.2497   18.7949 C   0  0  0  0  0  0  0  0  0  0  0  0
  -26.9845  -27.7067   19.9114 C   0  0  0  0  0  0  0  0  0  0  0  0
  -21.9861  -25.5398   24.4802 C   0  0  0  0  0  0  0  0  0  0  0  0
  -20.1758  -26.7736   23.6697 C   0  0  0  0  0  0  0  0  0  0  0  0
  -26.0045  -29.4105   18.9256 C   0  0  0  0  0  0  0  0  0  0  0  0
  -20.1673  -25.9390   25.7840 C   0  0  0  0  0  0  0  0  0  0  0  0
  -27.4174  -28.0270   17.3964 C   0  0  0  0  0  0  0  0  0  0  0  0
  -26.1035  -14.4895   21.1978 C   0  0  0  0  0  0  0  0  0  0  0  0
  -23.1244  -14.0958   22.4193 C   0  0  0  0  0  0  0  0  0  0  0  0
  -20.4897  -15.4410   24.1210 C   0  0  0  0  0  0  0  0  0  0  0  0
  -21.8428  -30.3900   23.1174 C   0  0  0  0  0  0  0  0  0  0  0  0
  -29.8966  -11.4944   19.5547 C   0  0  0  0  0  0  0  0  0  0  0  0
  -26.4272  -15.2665   23.5742 C   0  0  0  0  0  0  0  0  0  0  0  0
  -24.0127  -16.4562   22.3498 C   0  0  0  0  0  0  0  0  0  0  0  0
  -28.3805  -11.3667   19.6796 C   0  0  0  0  0  0  0  0  0  0  0  0
  -24.7057  -32.3932   22.4338 C   0  0  0  0  0  0  0  0  0  0  0  0
  -27.6910  -12.5911   19.0863 C   0  0  0  0  0  0  0  0  0  0  0  0
  -25.6016  -31.4776   21.5977 C   0  0  0  0  0  0  0  0  0  0  0  0
  -23.9578  -31.6167   23.5153 C   0  0  0  0  0  0  0  0  0  0  0  0
  -24.0828  -29.5432   22.1891 C   0  0  0  0  0  0  0  0  0  0  0  0
  -28.0911  -13.8673   19.8365 C   0  0  1  0  0  0  0  0  0  0  0  0
  -25.5547  -14.4854   22.5965 C   0  0  1  0  0  0  0  0  0  0  0  0
  -24.8150  -30.2719   21.0493 C   0  0  2  0  0  0  0  0  0  0  0  0
  -19.4697  -25.7759   27.0919 C   0  0  0  0  0  0  0  0  0  0  0  0
  -18.1799  -14.8890   24.9319 C   0  0  0  0  0  0  0  0  0  0  0  0
  -19.0863  -29.7982   21.4998 C   0  0  0  0  0  0  0  0  0  0  0  0
  -22.0537  -14.4162   19.5801 C   0  0  0  0  0  0  0  0  0  0  0  0
  -19.7814  -14.8076   20.5558 C   0  0  0  0  0  0  0  0  0  0  0  0
  -20.9349  -12.6262   20.9211 C   0  0  0  0  0  0  0  0  0  0  0  0
  -21.2576  -15.8564   26.9488 C   0  0  0  0  0  0  0  0  0  0  0  0
  -23.3503  -24.9190   24.3148 C   0  0  0  0  0  0  0  0  0  0  0  0
  -19.4900  -27.5481   22.5944 C   0  0  0  0  0  0  0  0  0  0  0  0
  -23.3163  -23.4834   23.7788 C   0  0  0  0  0  0  0  0  0  0  0  0
  -24.7029  -22.8443   23.6908 C   0  0  0  0  0  0  0  0  0  0  0  0
  -24.6337  -21.4352   23.1178 C   0  0  0  0  0  0  0  0  0  1  0  0
  -21.7645  -14.6849   22.1316 C   0  0  1  0  0  0  0  0  0  0  0  0
  -19.6609  -14.9108   25.2770 C   0  0  2  0  0  0  0  0  0  0  0  0
  -19.8075  -29.0589   22.6225 C   0  0  1  0  0  0  0  0  0  0  0  0
  -21.1556  -14.1501   20.8047 C   0  0  0  0  0  0  0  0  0  0  0  0
  -26.2920  -28.3036   20.8851 N   0  0  0  0  0  0  0  0  0  0  0  0
  -21.3828  -25.3697   25.6750 N   0  0  0  0  0  0  0  0  0  0  0  0
  -19.5152  -26.6424   24.8387 N   0  0  0  0  0  0  0  0  0  0  0  0
  -25.7070  -29.3362   20.2545 N   0  0  0  0  0  0  0  0  0  0  0  0
  -24.1875  -15.0043   22.5202 N   0  0  0  0  0  0  0  0  0  0  0  0
  -23.2313  -30.4877   22.9292 N   0  0  0  0  0  0  0  0  0  0  0  0
  -25.5004  -30.3873   18.1419 N   0  0  0  0  0  0  0  0  0  0  0  0
  -28.2560  -26.9074   17.3092 N   0  0  0  0  0  0  0  0  0  0  0  0
  -27.3759  -13.9613   21.0912 N   0  0  0  0  0  0  0  0  0  0  0  0
  -20.9482  -14.4229   23.3120 N   0  0  0  0  0  0  0  0  0  0  0  0
  -21.2309  -29.2931   22.5232 N   0  0  0  0  0  0  0  0  0  0  0  0
  -19.8496  -15.7643   26.4840 N   0  3  0  0  0  0  0  0  0  0  0  0
  -27.2069  -28.7178   16.3707 O   0  0  0  0  0  0  0  0  0  0  0  0
  -25.4224  -14.9373   20.2828 O   0  0  0  0  0  0  0  0  0  0  0  0
  -23.2379  -12.8752   22.5566 O   0  0  0  0  0  0  0  0  0  0  0  0
  -20.7055  -16.6389   23.9504 O   0  0  0  0  0  0  0  0  0  0  0  0
  -21.1954  -31.2218   23.7624 O   0  0  0  0  0  0  0  0  0  0  0  0
  -30.0154  -23.1395   21.0163 O   0  0  0  0  0  0  0  0  0  0  0  0
  -25.9514  -20.8893   23.0754 O   0  0  0  0  0  0  0  0  0  1  0  0
  -29.6579  -18.9085   17.4985 F   0  0  0  0  0  0  0  0  0  0  0  0
  -30.7188  -23.4404   18.3597 F   0  0  0  0  0  0  0  0  0  0  0  0
  1  2  1  0  0  0  0
  1  5  2  0  0  0  0
  2  6  2  0  0  0  0
  3  8  2  0  0  0  0
  3 16  1  0  0  0  0
  4  9  1  0  0  0  0
  4 16  2  0  0  0  0
  5 18  1  0  0  0  0
  6 20  1  0  0  0  0
  7 10  2  0  0  0  0
  7 19  1  0  0  0  0
  8 22  1  0  0  0  0
  9 22  2  0  0  0  0
 10 23  1  0  0  0  0
 11 12  2  0  0  0  0
 11 24  1  0  0  0  0
 12 25  1  0  0  0  0
 13 21  1  0  0  0  0
 13 23  2  0  0  0  0
 14 25  2  0  0  0  0
 14 26  1  0  0  0  0
 15 28  1  0  0  0  0
 15 29  2  0  0  0  0
 16 27  1  0  0  0  0
 17 27  1  0  0  0  0
 17 30  2  0  0  0  0
 17 32  1  0  0  0  0
 18 20  2  0  0  0  0
 18 37  1  0  0  0  0
 19 21  2  0  0  0  0
 19 38  1  0  0  0  0
 20 46  1  0  0  0  0
 21 39  1  0  0  0  0
 22 82  1  0  0  0  0
 23 83  1  0  0  0  0
 24 26  2  0  0  0  0
 24 82  1  0  0  0  0
 25 84  1  0  0  0  0
 26 85  1  0  0  0  0
 27 65  2  0  0  0  0
 28 56  1  0  0  0  0
 28 66  2  0  0  0  0
 29 57  1  0  0  0  0
 29 67  1  0  0  0  0
 30 68  1  0  0  0  0
 30 71  1  0  0  0  0
 31 49  1  0  0  0  0
 31 66  1  0  0  0  0
 31 67  2  0  0  0  0
 32 72  1  0  0  0  0
 32 77  2  0  0  0  0
 33 47  1  0  0  0  0
 33 73  1  0  0  0  0
 33 78  2  0  0  0  0
 34 61  1  0  0  0  0
 34 69  1  0  0  0  0
 34 79  2  0  0  0  0
 35 62  1  0  0  0  0
 35 74  1  0  0  0  0
 35 80  2  0  0  0  0
 36 70  1  0  0  0  0
 36 75  1  0  0  0  0
 36 81  2  0  0  0  0
 37 40  1  0  0  0  0
 38 47  1  0  0  0  0
 39 69  1  0  0  0  0
 40 42  1  0  0  0  0
 41 43  1  0  0  0  0
 41 44  1  0  0  0  0
 42 46  1  0  0  0  0
 43 48  1  0  0  0  0
 44 70  1  0  0  0  0
 45 48  1  0  0  0  0
 45 70  1  0  0  0  0
 46 73  1  0  0  0  0
 47 69  1  0  0  0  0
 48 68  1  0  0  0  0
 50 62  1  0  0  0  0
 51 63  1  0  0  0  0
 52 64  1  0  0  0  0
 53 64  1  0  0  0  0
 54 64  1  0  0  0  0
 55 76  1  0  0  0  0
 56 58  1  0  0  0  0
 57 63  1  0  0  0  0
 58 59  1  0  0  0  0
 59 60  1  0  0  0  0
 60 83  1  0  0  0  0
 61 64  1  0  0  0  0
 61 74  1  0  0  0  0
 62 76  1  0  0  0  0
 63 75  1  0  0  0  0
 65 68  1  0  0  0  0
M  CHG  1  76   1
M  ISO  4  36 100  60 101  75 100  83 101
M  END
> <Batch ID>
0070

> <Smiles>
CNC(C)C(=O)NC(C(=O)N1Cc2cc([101O:1][101CH2:1]CCCc3cc(CC(C)[100NH:0][100C:0](=O)N4CCCC(n5nc(-c6ccc(Oc7ccc(F)cc7F)cc6)c(C(N)=O)c5N)C4)nc(C)n3)ccc2CC1C(=O)NC1CCCc2ccccc21)C(C)(C)C

> <Shape>
0.240

> <Color>
0.069

> <Negative vol penalty>
0.000

$$$$

  -OEChem-04052318193D

 87 95  0     1  0  0  0  0  0999 V2000
  -31.7854  -17.5099   22.5360 C   0  0  0  0  0  0  0  0  0  0  0  0
  -30.6364  -18.2507   22.2783 C   0  0  0  0  0  0  0  0  0  0  0  0
  -28.5266  -28.2587   20.9751 C   0  0  0  0  0  0  0  0  0  0  0  0
  -27.1434  -27.0949   19.3721 C   0  0  0  0  0  0  0  0  0  0  0  0
  -31.8410  -16.1640   22.1761 C   0  0  0  0  0  0  0  0  0  0  0  0
  -29.5426  -17.6463   21.6596 C   0  0  0  0  0  0  0  0  0  0  0  0
  -23.6203  -18.8286   22.6767 C   0  0  0  0  0  0  0  0  0  0  0  0
  -29.5608  -27.3526   20.7405 C   0  0  0  0  0  0  0  0  0  0  0  0
  -28.1776  -26.1888   19.1375 C   0  0  0  0  0  0  0  0  0  0  0  0
  -22.6916  -19.6176   21.9994 C   0  0  0  0  0  0  0  0  0  0  0  0
  -29.4963  -23.4674   20.6494 C   0  0  0  0  0  0  0  0  0  0  0  0
  -29.1714  -22.1118   20.5994 C   0  0  0  0  0  0  0  0  0  0  0  0
  -21.9111  -17.6685   20.8115 C   0  0  0  0  0  0  0  0  0  0  0  0
  -29.9993  -21.9970   18.3326 C   0  0  0  0  0  0  0  0  0  0  0  0
  -27.3178  -28.1298   20.2909 C   0  0  0  0  0  0  0  0  0  0  0  0
  -26.0108  -30.2774   19.8583 C   0  0  0  0  0  0  0  0  0  0  0  0
  -30.7438  -15.5403   21.5615 C   0  0  0  0  0  0  0  0  0  0  0  0
  -23.7090  -17.4532   22.4181 C   0  0  0  0  0  0  0  0  0  0  0  0
  -29.5841  -16.2911   21.2900 C   0  0  0  0  0  0  0  0  0  0  0  0
  -22.8401  -16.8639   21.4887 C   0  0  0  0  0  0  0  0  0  0  0  0
  -29.3863  -26.3177   19.8218 C   0  0  0  0  0  0  0  0  0  0  0  0
  -21.8387  -19.0381   21.0646 C   0  0  0  0  0  0  0  0  0  0  0  0
  -30.0726  -24.0878   19.5410 C   0  0  0  0  0  0  0  0  0  0  0  0
  -29.4229  -21.3766   19.4410 C   0  0  0  0  0  0  0  0  0  0  0  0
  -30.3242  -23.3526   18.3826 C   0  0  0  0  0  0  0  0  0  0  0  0
  -26.2489  -29.0652   20.5332 C   0  0  0  0  0  0  0  0  0  0  0  0
  -24.8854  -30.7885   20.4571 C   0  0  0  0  0  0  0  0  0  0  0  0
  -18.7748  -23.9052   20.2169 C   0  0  0  0  0  0  0  0  0  0  0  0
  -18.9270  -25.9449   20.9418 C   0  0  0  0  0  0  0  0  0  0  0  0
  -26.7416  -30.8870   18.7858 C   0  0  0  0  0  0  0  0  0  0  0  0
  -25.9696  -15.5240   21.2905 C   0  0  0  0  0  0  0  0  0  0  0  0
  -23.8248  -13.2101   22.0441 C   0  0  0  0  0  0  0  0  0  0  0  0
  -20.5698  -12.3450   22.5946 C   0  0  0  0  0  0  0  0  0  0  0  0
  -20.3408  -28.2608   23.4252 C   0  0  0  0  0  0  0  0  0  0  0  0
  -30.8682  -14.0953   21.1479 C   0  0  0  0  0  0  0  0  0  0  0  0
  -24.6981  -16.6113   23.1765 C   0  0  0  0  0  0  0  0  0  0  0  0
  -22.8813  -15.3883   21.1895 C   0  0  0  0  0  0  0  0  0  0  0  0
  -29.5284  -13.4337   20.8354 C   0  0  0  0  0  0  0  0  0  0  0  0
  -22.5361  -30.7942   24.6250 C   0  0  0  0  0  0  0  0  0  0  0  0
  -28.6822  -14.3367   19.9436 C   0  0  0  0  0  0  0  0  0  0  0  0
  -23.7151  -30.7477   23.6515 C   0  0  0  0  0  0  0  0  0  0  0  0
  -21.9743  -29.4007   24.8980 C   0  0  0  0  0  0  0  0  0  0  0  0
  -22.7887  -28.5864   22.7191 C   0  0  0  0  0  0  0  0  0  0  0  0
  -28.3679  -15.6647   20.6430 C   0  0  1  0  0  0  0  0  0  0  0  0
  -25.0500  -15.3115   22.4596 C   0  0  1  0  0  0  0  0  0  0  0  0
  -23.3534  -29.9739   22.3694 C   0  0  2  0  0  0  0  0  0  0  0  0
  -18.3169  -23.7177   24.9630 C   0  0  0  0  0  0  0  0  0  0  0  0
  -16.4888  -27.8516   21.0127 C   0  0  0  0  0  0  0  0  0  0  0  0
  -19.1235  -10.3722   23.1548 C   0  0  0  0  0  0  0  0  0  0  0  0
  -21.0521  -20.8727   17.6839 C   0  0  0  0  0  0  0  0  0  0  0  0
  -24.0930  -12.2023   19.1767 C   0  0  0  0  0  0  0  0  0  0  0  0
  -21.9881  -10.8896   19.5150 C   0  0  0  0  0  0  0  0  0  0  0  0
  -23.9977  -10.4024   20.9104 C   0  0  0  0  0  0  0  0  0  0  0  0
  -19.6332  -13.5980   25.1069 C   0  0  0  0  0  0  0  0  0  0  0  0
  -18.4660  -22.4293   20.1808 C   0  0  0  0  0  0  0  0  0  0  0  0
  -18.9583  -24.1517   23.6553 C   0  0  0  0  0  0  0  0  0  0  0  0
  -17.9406  -28.2505   21.2474 C   0  0  0  0  0  0  0  0  0  0  0  0
  -19.0650  -21.6958   18.9728 C   0  0  0  0  0  0  0  0  0  0  0  0
  -17.9184  -24.2950   22.5464 C   0  0  0  0  0  0  0  0  0  0  0  0
  -21.2806  -21.1705   20.1716 C   0  0  0  0  0  0  0  0  0  1  0  0
  -18.8206  -27.1122   21.8349 C   0  0  2  0  0  0  0  0  0  0  0  0
  -22.6901  -12.5272   21.3196 C   0  0  1  0  0  0  0  0  0  0  0  0
  -19.9137  -11.5480   23.7077 C   0  0  2  0  0  0  0  0  0  0  0  0
  -20.6080  -21.6992   18.8975 C   0  0  1  0  0  0  0  0  0  0  0  0
  -23.1925  -11.5335   20.2344 C   0  0  0  0  0  0  0  0  0  0  0  0
  -25.3473  -28.8208   21.4879 N   0  0  0  0  0  0  0  0  0  0  0  0
  -19.3181  -24.6243   19.2609 N   0  0  0  0  0  0  0  0  0  0  0  0
  -19.4149  -25.9220   19.7221 N   0  0  0  0  0  0  0  0  0  0  0  0
  -24.5318  -29.8866   21.4172 N   0  0  0  0  0  0  0  0  0  0  0  0
  -18.5122  -24.6963   21.2938 N   0  0  0  0  0  0  0  0  0  0  0  0
  -23.8699  -14.6084   21.9523 N   0  0  0  0  0  0  0  0  0  0  0  0
  -21.6502  -28.7211   23.6414 N   0  0  0  0  0  0  0  0  0  0  0  0
  -24.1736  -31.9169   20.2509 N   0  0  0  0  0  0  0  0  0  0  0  0
  -27.8738  -30.2271   18.2890 N   0  0  0  0  0  0  0  0  0  0  0  0
  -27.3119  -15.4858   21.6163 N   0  0  0  0  0  0  0  0  0  0  0  0
  -21.8571  -11.9160   22.3497 N   0  0  0  0  0  0  0  0  0  0  0  0
  -20.1174  -27.6336   22.2056 N   0  0  0  0  0  0  0  0  0  0  0  0
  -18.9842  -12.4143   24.4865 N   0  3  0  0  0  0  0  0  0  0  0  0
  -26.4101  -31.9923   18.2940 O   0  0  0  0  0  0  0  0  0  0  0  0
  -25.4964  -15.7076   20.1751 O   0  0  0  0  0  0  0  0  0  0  0  0
  -24.6371  -12.5285   22.6744 O   0  0  0  0  0  0  0  0  0  0  0  0
  -19.9962  -13.2544   21.9992 O   0  0  0  0  0  0  0  0  0  0  0  0
  -19.4365  -28.4034   24.2551 O   0  0  0  0  0  0  0  0  0  0  0  0
  -30.3953  -25.4335   19.5924 O   0  0  0  0  0  0  0  0  0  0  0  0
  -20.9317  -19.8060   20.4017 O   0  0  0  0  0  0  0  0  0  1  0  0
  -29.1123  -20.0746   19.3937 F   0  0  0  0  0  0  0  0  0  0  0  0
  -30.8788  -23.9429   17.3150 F   0  0  0  0  0  0  0  0  0  0  0  0
  1  2  1  0  0  0  0
  1  5  2  0  0  0  0
  2  6  2  0  0  0  0
  3  8  2  0  0  0  0
  3 15  1  0  0  0  0
  4  9  1  0  0  0  0
  4 15  2  0  0  0  0
  5 17  1  0  0  0  0
  6 19  1  0  0  0  0
  7 10  2  0  0  0  0
  7 18  1  0  0  0  0
  8 21  1  0  0  0  0
  9 21  2  0  0  0  0
 10 22  1  0  0  0  0
 11 12  2  0  0  0  0
 11 23  1  0  0  0  0
 12 24  1  0  0  0  0
 13 20  1  0  0  0  0
 13 22  2  0  0  0  0
 14 24  2  0  0  0  0
 14 25  1  0  0  0  0
 15 26  1  0  0  0  0
 16 26  1  0  0  0  0
 16 27  2  0  0  0  0
 16 30  1  0  0  0  0
 17 19  2  0  0  0  0
 17 35  1  0  0  0  0
 18 20  2  0  0  0  0
 18 36  1  0  0  0  0
 19 44  1  0  0  0  0
 20 37  1  0  0  0  0
 21 84  1  0  0  0  0
 22 85  1  0  0  0  0
 23 25  2  0  0  0  0
 23 84  1  0  0  0  0
 24 86  1  0  0  0  0
 25 87  1  0  0  0  0
 26 66  2  0  0  0  0
 27 69  1  0  0  0  0
 27 73  1  0  0  0  0
 28 55  1  0  0  0  0
 28 67  2  0  0  0  0
 28 70  1  0  0  0  0
 29 61  1  0  0  0  0
 29 68  2  0  0  0  0
 29 70  1  0  0  0  0
 30 74  1  0  0  0  0
 30 79  2  0  0  0  0
 31 45  1  0  0  0  0
 31 75  1  0  0  0  0
 31 80  2  0  0  0  0
 32 62  1  0  0  0  0
 32 71  1  0  0  0  0
 32 81  2  0  0  0  0
 33 63  1  0  0  0  0
 33 76  1  0  0  0  0
 33 82  2  0  0  0  0
 34 72  1  0  0  0  0
 34 77  1  0  0  0  0
 34 83  2  0  0  0  0
 35 38  1  0  0  0  0
 36 45  1  0  0  0  0
 37 71  1  0  0  0  0
 38 40  1  0  0  0  0
 39 41  1  0  0  0  0
 39 42  1  0  0  0  0
 40 44  1  0  0  0  0
 41 46  1  0  0  0  0
 42 72  1  0  0  0  0
 43 46  1  0  0  0  0
 43 72  1  0  0  0  0
 44 75  1  0  0  0  0
 45 71  1  0  0  0  0
 46 69  1  0  0  0  0
 47 56  1  0  0  0  0
 48 57  1  0  0  0  0
 49 63  1  0  0  0  0
 50 64  1  0  0  0  0
 51 65  1  0  0  0  0
 52 65  1  0  0  0  0
 53 65  1  0  0  0  0
 54 78  1  0  0  0  0
 55 58  1  0  0  0  0
 56 59  1  0  0  0  0
 57 61  1  0  0  0  0
 58 64  1  0  0  0  0
 59 70  1  0  0  0  0
 60 64  1  0  0  0  0
 60 85  1  0  0  0  0
 61 77  1  0  0  0  0
 62 65  1  0  0  0  0
 62 76  1  0  0  0  0
 63 78  1  0  0  0  0
 66 69  1  0  0  0  0
 67 68  1  0  0  0  0
M  CHG  1  78   1
M  ISO  4  34 100  60 101  77 100  85 101
M  END
> <Batch ID>
0070

> <Smiles>
CCCn1c(CCC(C)[101CH2:1][101O:1]c2ccc3c(c2)CN(C(=O)C(NC(=O)C(C)NC)C(C)(C)C)C(C(=O)NC2CCCc4ccccc42)C3)nnc1C(CC)[100NH:0][100C:0](=O)N1CCCC(n2nc(-c3ccc(Oc4ccc(F)cc4F)cc3)c(C(N)=O)c2N)C1

> <Shape>
0.283

> <Color>
0.045

> <Negative vol penalty>
0.000

$$$$

  -OEChem-04052318193D

 86 94  0     1  0  0  0  0  0999 V2000
  -27.4501  -24.3030   16.5171 C   0  0  0  0  0  0  0  0  0  0  0  0
  -26.3822  -25.1267   16.8548 C   0  0  0  0  0  0  0  0  0  0  0  0
  -26.2862  -18.9875   21.3687 C   0  0  0  0  0  0  0  0  0  0  0  0
  -23.8881  -18.6969   21.3300 C   0  0  0  0  0  0  0  0  0  0  0  0
  -28.5374  -24.1886   17.3807 C   0  0  0  0  0  0  0  0  0  0  0  0
  -26.4065  -25.8453   18.0506 C   0  0  0  0  0  0  0  0  0  0  0  0
  -22.7775  -29.0846   18.7856 C   0  0  0  0  0  0  0  0  0  0  0  0
  -26.4542  -17.6486   21.0155 C   0  0  0  0  0  0  0  0  0  0  0  0
  -24.0560  -17.3580   20.9768 C   0  0  0  0  0  0  0  0  0  0  0  0
  -21.4680  -28.6982   19.0682 C   0  0  0  0  0  0  0  0  0  0  0  0
  -27.5189  -14.2138   20.4749 C   0  0  0  0  0  0  0  0  0  0  0  0
  -28.4773  -13.4741   21.1675 C   0  0  0  0  0  0  0  0  0  0  0  0
  -21.8092  -29.2614   21.3889 C   0  0  0  0  0  0  0  0  0  0  0  0
  -27.3053  -13.8944   23.2380 C   0  0  0  0  0  0  0  0  0  0  0  0
  -17.5915  -28.8784   23.4067 C   0  0  0  0  0  0  0  0  0  0  0  0
  -25.0032  -19.5117   21.5261 C   0  0  0  0  0  0  0  0  0  0  0  0
  -24.7095  -21.9950   21.0219 C   0  0  0  0  0  0  0  0  0  0  0  0
  -28.5686  -24.8969   18.5933 C   0  0  0  0  0  0  0  0  0  0  0  0
  -23.6174  -29.5528   19.8062 C   0  0  0  0  0  0  0  0  0  0  0  0
  -27.5057  -25.7617   18.9243 C   0  0  0  0  0  0  0  0  0  0  0  0
  -23.1280  -29.6555   21.1162 C   0  0  0  0  0  0  0  0  0  0  0  0
  -25.3391  -16.8339   20.8195 C   0  0  0  0  0  0  0  0  0  0  0  0
  -20.9846  -28.7838   20.3706 C   0  0  0  0  0  0  0  0  0  0  0  0
  -26.4537  -14.7939   21.1638 C   0  0  0  0  0  0  0  0  0  0  0  0
  -28.3705  -13.3143   22.5491 C   0  0  0  0  0  0  0  0  0  0  0  0
  -26.3469  -14.6342   22.5453 C   0  0  0  0  0  0  0  0  0  0  0  0
  -24.8291  -20.8945   21.8915 C   0  0  0  0  0  0  0  0  0  0  0  0
  -18.4387  -29.0357   24.4671 C   0  0  0  0  0  0  0  0  0  0  0  0
  -24.5641  -23.0770   21.8553 C   0  0  0  0  0  0  0  0  0  0  0  0
  -18.9787  -30.5371   22.9326 C   0  0  0  0  0  0  0  0  0  0  0  0
  -24.7282  -22.0357   19.5888 C   0  0  0  0  0  0  0  0  0  0  0  0
  -26.3625  -28.5764   21.0769 C   0  0  0  0  0  0  0  0  0  0  0  0
  -26.1524  -31.3723   22.7082 C   0  0  0  0  0  0  0  0  0  0  0  0
  -24.1762  -33.8712   23.9318 C   0  0  0  0  0  0  0  0  0  0  0  0
  -22.2779  -25.4979   26.3339 C   0  0  0  0  0  0  0  0  0  0  0  0
  -29.7738  -24.7421   19.4870 C   0  0  0  0  0  0  0  0  0  0  0  0
  -25.0189  -29.9909   19.4801 C   0  0  0  0  0  0  0  0  0  0  0  0
  -23.9830  -30.1707   22.2440 C   0  0  0  0  0  0  0  0  0  0  0  0
  -29.5116  -25.1893   20.9214 C   0  0  0  0  0  0  0  0  0  0  0  0
  -25.1637  -23.4804   26.8617 C   0  0  0  0  0  0  0  0  0  0  0  0
  -28.8646  -26.5662   20.9265 C   0  0  0  0  0  0  0  0  0  0  0  0
  -25.3201  -22.7145   25.5469 C   0  0  0  0  0  0  0  0  0  0  0  0
  -23.6946  -23.6744   27.2307 C   0  0  0  0  0  0  0  0  0  0  0  0
  -23.0249  -23.5291   24.8634 C   0  0  0  0  0  0  0  0  0  0  0  0
  -27.4964  -26.5293   20.2339 C   0  0  1  0  0  0  0  0  0  0  0  0
  -25.9488  -29.9679   20.6894 C   0  0  1  0  0  0  0  0  0  0  0  0
  -24.4881  -23.3576   24.4210 C   0  0  2  0  0  0  0  0  0  0  0  0
  -19.6694  -31.6531   22.2395 C   0  0  0  0  0  0  0  0  0  0  0  0
  -24.2862  -36.0003   25.2554 C   0  0  0  0  0  0  0  0  0  0  0  0
  -15.8101  -30.4361   21.3153 C   0  0  0  0  0  0  0  0  0  0  0  0
  -19.0700  -29.1457   26.9748 C   0  0  0  0  0  0  0  0  0  0  0  0
  -26.4972  -29.7568   25.2736 C   0  0  0  0  0  0  0  0  0  0  0  0
  -25.6609  -31.7401   26.5524 C   0  0  0  0  0  0  0  0  0  0  0  0
  -27.7630  -31.9130   25.2205 C   0  0  0  0  0  0  0  0  0  0  0  0
  -23.1007  -35.4627   21.6803 C   0  0  0  0  0  0  0  0  0  0  0  0
  -19.4135  -27.0030   25.6774 C   0  0  0  0  0  0  0  0  0  0  0  0
  -17.3580  -28.7702   20.2212 C   0  0  0  0  0  0  0  0  0  0  0  0
  -20.8719  -27.2553   25.2882 C   0  0  0  0  0  0  0  0  0  0  0  0
  -18.7419  -28.5646   19.6102 C   0  0  0  0  0  0  0  0  0  1  0  0
  -25.5408  -31.8013   24.0200 C   0  0  1  0  0  0  0  0  0  0  0  0
  -24.3067  -35.3822   23.8661 C   0  0  2  0  0  0  0  0  0  0  0  0
  -17.2722  -30.0146   21.1258 C   0  0  2  0  0  0  0  0  0  0  0  0
  -18.5356  -28.3219   25.7429 C   0  0  2  0  0  0  0  0  0  0  0  0
  -26.3497  -31.2912   25.2459 C   0  0  0  0  0  0  0  0  0  0  0  0
  -24.7653  -21.2452   23.1787 N   0  0  0  0  0  0  0  0  0  0  0  0
  -17.9480  -29.8206   22.4723 N   0  0  0  0  0  0  0  0  0  0  0  0
  -24.6042  -22.5783   23.1241 N   0  0  0  0  0  0  0  0  0  0  0  0
  -19.2864  -30.0685   24.1463 N   0  3  0  0  0  0  0  0  0  0  0  0
  -25.3482  -30.5808   21.8759 N   0  0  0  0  0  0  0  0  0  0  0  0
  -22.9622  -24.2897   26.1213 N   0  0  0  0  0  0  0  0  0  0  0  0
  -24.4073  -24.3969   21.6193 N   0  0  0  0  0  0  0  0  0  0  0  0
  -24.8860  -20.8320   18.8883 N   0  0  0  0  0  0  0  0  0  0  0  0
  -17.1955  -27.8516   26.2405 N   0  0  0  0  0  0  0  0  0  0  0  0
  -27.0118  -27.8825   20.0736 N   0  0  0  0  0  0  0  0  0  0  0  0
  -25.4084  -33.2526   23.9534 N   0  0  0  0  0  0  0  0  0  0  0  0
  -21.6148  -26.0163   25.2284 N   0  0  0  0  0  0  0  0  0  0  0  0
  -23.1857  -35.9650   23.0758 N   0  3  0  0  0  0  0  0  0  0  0  0
  -24.6248  -23.1095   18.9487 O   0  0  0  0  0  0  0  0  0  0  0  0
  -26.1127  -28.1634   22.2032 O   0  0  0  0  0  0  0  0  0  0  0  0
  -27.2987  -31.7323   22.4290 O   0  0  0  0  0  0  0  0  0  0  0  0
  -23.0899  -33.2972   23.9646 O   0  0  0  0  0  0  0  0  0  0  0  0
  -22.2638  -26.0748   27.4266 O   0  0  0  0  0  0  0  0  0  0  0  0
  -25.5026  -15.5274   20.4745 O   0  0  0  0  0  0  0  0  0  0  0  0
  -19.7071  -28.4067   20.6493 O   0  0  0  0  0  0  0  0  0  1  0  0
  -29.2901  -12.6026   23.2139 F   0  0  0  0  0  0  0  0  0  0  0  0
  -25.3251  -15.1881   23.2124 F   0  0  0  0  0  0  0  0  0  0  0  0
  1  2  1  0  0  0  0
  1  5  2  0  0  0  0
  2  6  2  0  0  0  0
  3  8  2  0  0  0  0
  3 16  1  0  0  0  0
  4  9  1  0  0  0  0
  4 16  2  0  0  0  0
  5 18  1  0  0  0  0
  6 20  1  0  0  0  0
  7 10  2  0  0  0  0
  7 19  1  0  0  0  0
  8 22  1  0  0  0  0
  9 22  2  0  0  0  0
 10 23  1  0  0  0  0
 11 12  2  0  0  0  0
 11 24  1  0  0  0  0
 12 25  1  0  0  0  0
 13 21  1  0  0  0  0
 13 23  2  0  0  0  0
 14 25  2  0  0  0  0
 14 26  1  0  0  0  0
 15 28  2  0  0  0  0
 15 66  1  0  0  0  0
 16 27  1  0  0  0  0
 17 27  1  0  0  0  0
 17 29  2  0  0  0  0
 17 31  1  0  0  0  0
 18 20  2  0  0  0  0
 18 36  1  0  0  0  0
 19 21  2  0  0  0  0
 19 37  1  0  0  0  0
 20 45  1  0  0  0  0
 21 38  1  0  0  0  0
 22 83  1  0  0  0  0
 23 84  1  0  0  0  0
 24 26  2  0  0  0  0
 24 83  1  0  0  0  0
 25 85  1  0  0  0  0
 26 86  1  0  0  0  0
 27 65  2  0  0  0  0
 28 63  1  0  0  0  0
 28 68  1  0  0  0  0
 29 67  1  0  0  0  0
 29 71  1  0  0  0  0
 30 48  1  0  0  0  0
 30 66  1  0  0  0  0
 30 68  2  0  0  0  0
 31 72  1  0  0  0  0
 31 78  2  0  0  0  0
 32 46  1  0  0  0  0
 32 74  1  0  0  0  0
 32 79  2  0  0  0  0
 33 60  1  0  0  0  0
 33 69  1  0  0  0  0
 33 80  2  0  0  0  0
 34 61  1  0  0  0  0
 34 75  1  0  0  0  0
 34 81  2  0  0  0  0
 35 70  1  0  0  0  0
 35 76  1  0  0  0  0
 35 82  2  0  0  0  0
 36 39  1  0  0  0  0
 37 46  1  0  0  0  0
 38 69  1  0  0  0  0
 39 41  1  0  0  0  0
 40 42  1  0  0  0  0
 40 43  1  0  0  0  0
 41 45  1  0  0  0  0
 42 47  1  0  0  0  0
 43 70  1  0  0  0  0
 44 47  1  0  0  0  0
 44 70  1  0  0  0  0
 45 74  1  0  0  0  0
 46 69  1  0  0  0  0
 47 67  1  0  0  0  0
 49 61  1  0  0  0  0
 50 62  1  0  0  0  0
 51 63  1  0  0  0  0
 52 64  1  0  0  0  0
 53 64  1  0  0  0  0
 54 64  1  0  0  0  0
 55 77  1  0  0  0  0
 56 58  1  0  0  0  0
 56 63  1  0  0  0  0
 57 59  1  0  0  0  0
 57 62  1  0  0  0  0
 58 76  1  0  0  0  0
 59 84  1  0  0  0  0
 60 64  1  0  0  0  0
 60 75  1  0  0  0  0
 61 77  1  0  0  0  0
 62 66  1  0  0  0  0
 63 73  1  0  0  0  0
 65 67  1  0  0  0  0
M  CHG  2  68   1  77   1
M  ISO  4  35 100  59 101  76 100  84 101
M  END
> <Batch ID>
0070

> <Smiles>
CNC(C)C(=O)NC(C(=O)N1Cc2cc([101O:1][101CH2:1]CC(C)n3cc(C(C)(N)CC[100NH:0][100C:0](=O)N4CCCC(n5nc(-c6ccc(Oc7ccc(F)cc7F)cc6)c(C(N)=O)c5N)C4)nc3C)ccc2CC1C(=O)NC1CCCc2ccccc21)C(C)(C)C

> <Shape>
0.218

> <Color>
0.077

> <Negative vol penalty>
0.000

$$$$

  -OEChem-04052318193D

 89 97  0     1  0  0  0  0  0999 V2000
  -35.9528  -31.9246   28.9693 C   0  0  0  0  0  0  0  0  0  0  0  0
  -35.7358  -30.5505   28.9739 C   0  0  0  0  0  0  0  0  0  0  0  0
  -23.3492   -9.7479   20.3314 C   0  0  0  0  0  0  0  0  0  0  0  0
  -23.9024  -10.1881   22.6416 C   0  0  0  0  0  0  0  0  0  0  0  0
  -35.0979  -32.7618   28.2536 C   0  0  0  0  0  0  0  0  0  0  0  0
  -34.6632  -30.0127   28.2635 C   0  0  0  0  0  0  0  0  0  0  0  0
  -34.5069  -24.6291   25.3483 C   0  0  0  0  0  0  0  0  0  0  0  0
  -22.6643   -8.5950   20.7150 C   0  0  0  0  0  0  0  0  0  0  0  0
  -23.2174   -9.0351   23.0253 C   0  0  0  0  0  0  0  0  0  0  0  0
  -34.0003  -23.3814   25.7092 C   0  0  0  0  0  0  0  0  0  0  0  0
  -19.6592   -7.8116   22.0522 C   0  0  0  0  0  0  0  0  0  0  0  0
  -18.4060   -7.5828   21.4841 C   0  0  0  0  0  0  0  0  0  0  0  0
  -31.9571  -23.8754   24.5259 C   0  0  0  0  0  0  0  0  0  0  0  0
  -30.6680  -16.4854   21.9814 C   0  0  0  0  0  0  0  0  0  0  0  0
  -19.2073   -5.5018   20.5544 C   0  0  0  0  0  0  0  0  0  0  0  0
  -23.9683  -10.5445   21.2947 C   0  0  0  0  0  0  0  0  0  0  0  0
  -24.1513  -13.0357   20.7771 C   0  0  0  0  0  0  0  0  0  0  0  0
  -34.0199  -32.2331   27.5262 C   0  0  0  0  0  0  0  0  0  0  0  0
  -33.7368  -25.5153   24.5814 C   0  0  0  0  0  0  0  0  0  0  0  0
  -33.7923  -30.8437   27.5384 C   0  0  0  0  0  0  0  0  0  0  0  0
  -32.4571  -25.1328   24.1544 C   0  0  0  0  0  0  0  0  0  0  0  0
  -31.2119  -17.7229   22.2776 C   0  0  0  0  0  0  0  0  0  0  0  0
  -22.5984   -8.2386   22.0619 C   0  0  0  0  0  0  0  0  0  0  0  0
  -32.7241  -23.0055   25.3005 C   0  0  0  0  0  0  0  0  0  0  0  0
  -20.6865   -6.8855   21.8713 C   0  0  0  0  0  0  0  0  0  0  0  0
  -18.1800   -6.4279   20.7353 C   0  0  0  0  0  0  0  0  0  0  0  0
  -20.4606   -5.7306   21.1225 C   0  0  0  0  0  0  0  0  0  0  0  0
  -24.6765  -11.7353   20.8990 C   0  0  0  0  0  0  0  0  0  0  0  0
  -30.3778  -15.6390   23.0325 C   0  0  0  0  0  0  0  0  0  0  0  0
  -31.4291  -18.0322   23.6053 C   0  0  0  0  0  0  0  0  0  0  0  0
  -25.2191  -13.8011   20.3766 C   0  0  0  0  0  0  0  0  0  0  0  0
  -22.8175  -13.5095   21.0058 C   0  0  0  0  0  0  0  0  0  0  0  0
  -32.5413  -28.4243   25.0416 C   0  0  0  0  0  0  0  0  0  0  0  0
  -31.6906  -28.1437   21.9239 C   0  0  0  0  0  0  0  0  0  0  0  0
  -31.1483  -13.0694   21.0254 C   0  0  0  0  0  0  0  0  0  0  0  0
  -30.9725  -26.0962   19.2897 C   0  0  0  0  0  0  0  0  0  0  0  0
  -33.0950  -33.1822   26.8061 C   0  0  0  0  0  0  0  0  0  0  0  0
  -34.3081  -26.8469   24.1778 C   0  0  0  0  0  0  0  0  0  0  0  0
  -31.5980  -26.0394   23.3127 C   0  0  0  0  0  0  0  0  0  0  0  0
  -32.2026  -32.4974   25.7741 C   0  0  0  0  0  0  0  0  0  0  0  0
  -29.3359  -13.5310   17.9689 C   0  0  0  0  0  0  0  0  0  0  0  0
  -31.5770  -31.2366   26.3620 C   0  0  0  0  0  0  0  0  0  0  0  0
  -27.8922  -13.2133   18.3561 C   0  0  0  0  0  0  0  0  0  0  0  0
  -30.3244  -12.6542   18.7313 C   0  0  0  0  0  0  0  0  0  0  0  0
  -28.7300  -12.4006   20.6062 C   0  0  0  0  0  0  0  0  0  0  0  0
  -32.6542  -30.2202   26.7599 C   0  0  1  0  0  0  0  0  0  0  0  0
  -33.2369  -27.8754   23.8282 C   0  0  1  0  0  0  0  0  0  0  0  0
  -27.7004  -13.2855   19.8814 C   0  0  2  0  0  0  0  0  0  0  0  0
  -34.8315  -19.7824   19.3325 C   0  0  0  0  0  0  0  0  0  0  0  0
  -28.7414  -13.8947   23.8411 C   0  0  0  0  0  0  0  0  0  0  0  0
  -30.2742  -26.1577   16.8801 C   0  0  0  0  0  0  0  0  0  0  0  0
  -33.0639  -17.3261   19.6848 C   0  0  0  0  0  0  0  0  0  0  0  0
  -30.3431  -11.7446   22.9301 C   0  0  0  0  0  0  0  0  0  0  0  0
  -32.1789  -13.4273   23.1879 C   0  0  0  0  0  0  0  0  0  0  0  0
  -28.8396  -28.8263   22.7700 C   0  0  0  0  0  0  0  0  0  0  0  0
  -28.0493  -27.9549   20.5600 C   0  0  0  0  0  0  0  0  0  0  0  0
  -29.5872  -29.9170   20.6473 C   0  0  0  0  0  0  0  0  0  0  0  0
  -33.4414  -24.7160   18.4186 C   0  0  0  0  0  0  0  0  0  0  0  0
  -31.5430  -18.6742   21.1802 C   0  0  0  0  0  0  0  0  0  0  0  0
  -32.0193  -19.3610   24.0046 C   0  0  0  0  0  0  0  0  0  0  0  0
  -33.4174  -19.8370   19.8950 C   0  0  0  0  0  0  0  0  0  0  0  0
  -32.4945  -19.4120   25.4582 C   0  0  0  0  0  0  0  0  0  0  0  0
  -33.1668  -20.7291   25.8278 C   0  0  0  0  0  0  0  0  0  1  0  0
  -29.7913  -14.2948   22.7675 C   0  0  2  0  0  0  0  0  0  0  0  0
  -30.4825  -27.6154   21.1887 C   0  0  1  0  0  0  0  0  0  0  0  0
  -31.4464  -26.1063   17.8476 C   0  0  2  0  0  0  0  0  0  0  0  0
  -32.9849  -18.5424   20.6149 C   0  0  2  0  0  0  0  0  0  0  0  0
  -30.8339  -13.1343   22.4989 C   0  0  0  0  0  0  0  0  0  0  0  0
  -29.2548  -28.5618   21.3090 C   0  0  0  0  0  0  0  0  0  0  0  0
  -25.9768  -11.6742   20.5998 N   0  0  0  0  0  0  0  0  0  0  0  0
  -30.6009  -15.9679   24.3225 N   0  0  0  0  0  0  0  0  0  0  0  0
  -31.1351  -17.1843   24.6136 N   0  0  0  0  0  0  0  0  0  0  0  0
  -26.2776  -12.9459   20.2860 N   0  0  0  0  0  0  0  0  0  0  0  0
  -32.1986  -27.3335   22.9493 N   0  0  0  0  0  0  0  0  0  0  0  0
  -30.0949  -12.7330   20.1750 N   0  0  0  0  0  0  0  0  0  0  0  0
  -25.3464  -15.1155   20.0964 N   0  0  0  0  0  0  0  0  0  0  0  0
  -21.8423  -12.5892   21.4138 N   0  0  0  0  0  0  0  0  0  0  0  0
  -33.1574  -29.5330   25.5899 N   0  0  0  0  0  0  0  0  0  0  0  0
  -30.9148  -27.3688   19.8173 N   0  0  0  0  0  0  0  0  0  0  0  0
  -32.2435  -24.8814   17.5556 N   0  3  0  0  0  0  0  0  0  0  0  0
  -22.4961  -14.7102   20.8369 O   0  0  0  0  0  0  0  0  0  0  0  0
  -31.5202  -27.8830   25.4492 O   0  0  0  0  0  0  0  0  0  0  0  0
  -32.1703  -29.2317   21.5956 O   0  0  0  0  0  0  0  0  0  0  0  0
  -32.2957  -13.3138   20.6434 O   0  0  0  0  0  0  0  0  0  0  0  0
  -30.6790  -25.0630   19.8871 O   0  0  0  0  0  0  0  0  0  0  0  0
  -21.9299   -7.1137   22.4366 O   0  0  0  0  0  0  0  0  0  0  0  0
  -32.2270  -21.7884   25.6519 O   0  0  0  0  0  0  0  0  0  1  0  0
  -16.9761   -6.2076   20.1911 F   0  0  0  0  0  0  0  0  0  0  0  0
  -21.4433   -4.8367   20.9462 F   0  0  0  0  0  0  0  0  0  0  0  0
  1  2  1  0  0  0  0
  1  5  2  0  0  0  0
  2  6  2  0  0  0  0
  3  8  2  0  0  0  0
  3 16  1  0  0  0  0
  4  9  1  0  0  0  0
  4 16  2  0  0  0  0
  5 18  1  0  0  0  0
  6 20  1  0  0  0  0
  7 10  2  0  0  0  0
  7 19  1  0  0  0  0
  8 23  1  0  0  0  0
  9 23  2  0  0  0  0
 10 24  1  0  0  0  0
 11 12  2  0  0  0  0
 11 25  1  0  0  0  0
 12 26  1  0  0  0  0
 13 21  1  0  0  0  0
 13 24  2  0  0  0  0
 14 22  1  0  0  0  0
 14 29  2  0  0  0  0
 15 26  2  0  0  0  0
 15 27  1  0  0  0  0
 16 28  1  0  0  0  0
 17 28  1  0  0  0  0
 17 31  2  0  0  0  0
 17 32  1  0  0  0  0
 18 20  2  0  0  0  0
 18 37  1  0  0  0  0
 19 21  2  0  0  0  0
 19 38  1  0  0  0  0
 20 46  1  0  0  0  0
 21 39  1  0  0  0  0
 22 30  2  0  0  0  0
 22 59  1  0  0  0  0
 23 86  1  0  0  0  0
 24 87  1  0  0  0  0
 25 27  2  0  0  0  0
 25 86  1  0  0  0  0
 26 88  1  0  0  0  0
 27 89  1  0  0  0  0
 28 70  2  0  0  0  0
 29 64  1  0  0  0  0
 29 71  1  0  0  0  0
 30 60  1  0  0  0  0
 30 72  1  0  0  0  0
 31 73  1  0  0  0  0
 31 76  1  0  0  0  0
 32 77  1  0  0  0  0
 32 81  2  0  0  0  0
 33 47  1  0  0  0  0
 33 78  1  0  0  0  0
 33 82  2  0  0  0  0
 34 65  1  0  0  0  0
 34 74  1  0  0  0  0
 34 83  2  0  0  0  0
 35 68  1  0  0  0  0
 35 75  1  0  0  0  0
 35 84  2  0  0  0  0
 36 66  1  0  0  0  0
 36 79  1  0  0  0  0
 36 85  2  0  0  0  0
 37 40  1  0  0  0  0
 38 47  1  0  0  0  0
 39 74  1  0  0  0  0
 40 42  1  0  0  0  0
 41 43  1  0  0  0  0
 41 44  1  0  0  0  0
 42 46  1  0  0  0  0
 43 48  1  0  0  0  0
 44 75  1  0  0  0  0
 45 48  1  0  0  0  0
 45 75  1  0  0  0  0
 46 78  1  0  0  0  0
 47 74  1  0  0  0  0
 48 73  1  0  0  0  0
 49 61  1  0  0  0  0
 50 64  1  0  0  0  0
 51 66  1  0  0  0  0
 52 67  1  0  0  0  0
 53 68  1  0  0  0  0
 54 68  1  0  0  0  0
 55 69  1  0  0  0  0
 56 69  1  0  0  0  0
 57 69  1  0  0  0  0
 58 80  1  0  0  0  0
 59 67  1  0  0  0  0
 60 62  1  0  0  0  0
 61 67  1  0  0  0  0
 62 63  1  0  0  0  0
 63 87  1  0  0  0  0
 64 68  1  0  0  0  0
 65 69  1  0  0  0  0
 65 79  1  0  0  0  0
 66 80  1  0  0  0  0
 70 73  1  0  0  0  0
 71 72  2  0  0  0  0
M  CHG  1  80   1
M  ISO  4  35 100  63 101  68 100  87 101
M  END
> <Batch ID>
0070

> <Smiles>
CCC(C)Cc1cc(C(C)[100C:0](C)(C)[100C:0](=O)N2CCCC(n3nc(-c4ccc(Oc5ccc(F)cc5F)cc4)c(C(N)=O)c3N)C2)nnc1CC[101CH2:1][101O:1]c1ccc2c(c1)CN(C(=O)C(NC(=O)C(C)NC)C(C)(C)C)C(C(=O)NC1CCCc3ccccc31)C2

> <Shape>
0.193

> <Color>
0.160

> <Negative vol penalty>
0.000

$$$$

  -OEChem-04052318193D

 87 95  0     1  0  0  0  0  0999 V2000
  -24.1859  -19.0861   24.3302 C   0  0  0  0  0  0  0  0  0  0  0  0
  -25.1942  -20.0330   24.1896 C   0  0  0  0  0  0  0  0  0  0  0  0
  -23.5708  -10.3491   19.9837 C   0  0  0  0  0  0  0  0  0  0  0  0
  -24.7470  -10.6398   22.0739 C   0  0  0  0  0  0  0  0  0  0  0  0
  -22.9091  -19.3554   23.8418 C   0  0  0  0  0  0  0  0  0  0  0  0
  -24.9231  -21.2540   23.5712 C   0  0  0  0  0  0  0  0  0  0  0  0
  -28.4893  -24.6421   23.6552 C   0  0  0  0  0  0  0  0  0  0  0  0
  -23.3590   -9.0048   20.2898 C   0  0  0  0  0  0  0  0  0  0  0  0
  -24.5352   -9.2955   22.3800 C   0  0  0  0  0  0  0  0  0  0  0  0
  -29.6491  -24.5347   22.8889 C   0  0  0  0  0  0  0  0  0  0  0  0
  -23.9911   -6.0271   23.8766 C   0  0  0  0  0  0  0  0  0  0  0  0
  -23.5678   -5.7143   25.1683 C   0  0  0  0  0  0  0  0  0  0  0  0
  -28.7742  -26.1703   21.3466 C   0  0  0  0  0  0  0  0  0  0  0  0
  -21.5886   -7.0618   24.8459 C   0  0  0  0  0  0  0  0  0  0  0  0
  -29.8789  -20.4863   18.0518 C   0  0  0  0  0  0  0  0  0  0  0  0
  -24.2648  -11.1666   20.8757 C   0  0  0  0  0  0  0  0  0  0  0  0
  -23.6486  -13.6420   20.8791 C   0  0  0  0  0  0  0  0  0  0  0  0
  -22.6263  -20.5756   23.2062 C   0  0  0  0  0  0  0  0  0  0  0  0
  -27.4569  -25.5077   23.2663 C   0  0  0  0  0  0  0  0  0  0  0  0
  -23.6348  -21.5542   23.0931 C   0  0  0  0  0  0  0  0  0  0  0  0
  -27.6034  -26.2887   22.1110 C   0  0  0  0  0  0  0  0  0  0  0  0
  -28.5571  -20.6827   18.3963 C   0  0  0  0  0  0  0  0  0  0  0  0
  -23.8412   -8.4780   21.4880 C   0  0  0  0  0  0  0  0  0  0  0  0
  -29.7904  -25.2968   21.7328 C   0  0  0  0  0  0  0  0  0  0  0  0
  -23.2133   -6.8574   23.0695 C   0  0  0  0  0  0  0  0  0  0  0  0
  -22.3665   -6.2316   25.6529 C   0  0  0  0  0  0  0  0  0  0  0  0
  -22.0120   -7.3747   23.5542 C   0  0  0  0  0  0  0  0  0  0  0  0
  -24.4844  -12.5551   20.5598 C   0  0  0  0  0  0  0  0  0  0  0  0
  -28.2202  -21.9703   18.7608 C   0  0  0  0  0  0  0  0  0  0  0  0
  -24.2972  -14.7371   20.3628 C   0  0  0  0  0  0  0  0  0  0  0  0
  -30.3559  -22.6760   18.4325 C   0  0  0  0  0  0  0  0  0  0  0  0
  -22.3979  -13.6602   21.5799 C   0  0  0  0  0  0  0  0  0  0  0  0
  -24.4107  -25.1363   22.4377 C   0  0  0  0  0  0  0  0  0  0  0  0
  -24.4185  -28.3801   22.4442 C   0  0  0  0  0  0  0  0  0  0  0  0
  -26.2089  -31.2735   22.1806 C   0  0  0  0  0  0  0  0  0  0  0  0
  -29.2732  -17.4476   19.9043 C   0  0  0  0  0  0  0  0  0  0  0  0
  -21.2251  -20.8180   22.7031 C   0  0  0  0  0  0  0  0  0  0  0  0
  -26.2235  -25.6318   24.1183 C   0  0  0  0  0  0  0  0  0  0  0  0
  -26.5330  -27.2480   21.6613 C   0  0  0  0  0  0  0  0  0  0  0  0
  -21.1481  -21.9440   21.6773 C   0  0  0  0  0  0  0  0  0  0  0  0
  -28.2587  -15.0750   17.2503 C   0  0  0  0  0  0  0  0  0  0  0  0
  -21.8789  -23.1725   22.1982 C   0  0  0  0  0  0  0  0  0  0  0  0
  -27.1667  -14.2555   17.9358 C   0  0  0  0  0  0  0  0  0  0  0  0
  -29.2757  -15.6146   18.2515 C   0  0  0  0  0  0  0  0  0  0  0  0
  -27.5778  -15.5773   20.0487 C   0  0  0  0  0  0  0  0  0  0  0  0
  -23.3710  -22.8770   22.3967 C   0  0  1  0  0  0  0  0  0  0  0  0
  -25.0178  -26.1643   23.3501 C   0  0  1  0  0  0  0  0  0  0  0  0
  -26.5110  -15.0579   19.0732 C   0  0  2  0  0  0  0  0  0  0  0  0
  -26.1913  -23.1162   16.8163 C   0  0  0  0  0  0  0  0  0  0  0  0
  -25.9338  -33.7678   22.1883 C   0  0  0  0  0  0  0  0  0  0  0  0
  -23.3062  -28.2638   19.6053 C   0  0  0  0  0  0  0  0  0  0  0  0
  -23.9432  -30.6695   19.3318 C   0  0  0  0  0  0  0  0  0  0  0  0
  -22.2695  -30.0131   21.0611 C   0  0  0  0  0  0  0  0  0  0  0  0
  -28.9564  -19.2772   21.5265 C   0  0  0  0  0  0  0  0  0  0  0  0
  -27.9437  -31.5737   24.5594 C   0  0  0  0  0  0  0  0  0  0  0  0
  -27.5809  -19.5640   18.3688 C   0  0  0  0  0  0  0  0  0  0  0  0
  -31.3657  -23.7956   18.4521 C   0  0  0  0  0  0  0  0  0  0  0  0
  -26.1529  -23.4135   18.3104 C   0  0  0  0  0  0  0  0  0  0  0  0
  -32.3085  -23.7536   19.6566 C   0  0  0  0  0  0  0  0  0  0  0  0
  -27.2659  -18.9810   19.7545 C   0  0  0  0  0  0  0  0  0  0  0  0
  -31.5928  -23.9344   20.9902 C   0  0  0  0  0  0  0  0  0  1  0  0
  -26.8180  -22.3009   19.1534 C   0  0  2  0  0  0  0  0  0  0  0  0
  -24.7081  -29.4505   21.4198 C   0  0  1  0  0  0  0  0  0  0  0  0
  -26.2188  -32.5327   23.0284 C   0  0  2  0  0  0  0  0  0  0  0  0
  -23.5763  -29.5798   20.3617 C   0  0  0  0  0  0  0  0  0  0  0  0
  -30.8086  -21.4641   18.0587 N   0  0  0  0  0  0  0  0  0  0  0  0
  -25.5802  -12.9260   19.8922 N   0  0  0  0  0  0  0  0  0  0  0  0
  -29.0974  -22.9950   18.7904 N   0  0  0  0  0  0  0  0  0  0  0  0
  -25.4374  -14.2582   19.7877 N   0  0  0  0  0  0  0  0  0  0  0  0
  -25.3430  -27.3290   22.5244 N   0  0  0  0  0  0  0  0  0  0  0  0
  -28.6226  -16.3357   19.3445 N   0  0  0  0  0  0  0  0  0  0  0  0
  -23.9977  -16.0534   20.3491 N   0  0  0  0  0  0  0  0  0  0  0  0
  -21.8738  -12.4456   22.0429 N   0  0  0  0  0  0  0  0  0  0  0  0
  -23.9855  -23.9913   23.0841 N   0  0  0  0  0  0  0  0  0  0  0  0
  -24.9670  -30.6744   22.1704 N   0  0  0  0  0  0  0  0  0  0  0  0
  -28.4626  -18.4703   20.4198 N   0  0  0  0  0  0  0  0  0  0  0  0
  -26.7085  -22.7231   20.5958 N   0  3  0  0  0  0  0  0  0  0  0  0
  -27.5463  -32.7057   23.6832 N   0  3  0  0  0  0  0  0  0  0  0  0
  -21.7558  -14.7200   21.7749 O   0  0  0  0  0  0  0  0  0  0  0  0
  -24.3325  -25.3655   21.2365 O   0  0  0  0  0  0  0  0  0  0  0  0
  -23.4130  -28.4767   23.1522 O   0  0  0  0  0  0  0  0  0  0  0  0
  -27.2023  -30.8645   21.5837 O   0  0  0  0  0  0  0  0  0  0  0  0
  -30.5081  -17.5263   19.9325 O   0  0  0  0  0  0  0  0  0  0  0  0
  -23.6346   -7.1664   21.7871 O   0  0  0  0  0  0  0  0  0  0  0  0
  -30.9212  -25.1935   20.9827 O   0  0  0  0  0  0  0  0  0  1  0  0
  -21.9593   -5.9298   26.8928 F   0  0  0  0  0  0  0  0  0  0  0  0
  -21.2598   -8.1719   22.7832 F   0  0  0  0  0  0  0  0  0  0  0  0
  1  2  1  0  0  0  0
  1  5  2  0  0  0  0
  2  6  2  0  0  0  0
  3  8  2  0  0  0  0
  3 16  1  0  0  0  0
  4  9  1  0  0  0  0
  4 16  2  0  0  0  0
  5 18  1  0  0  0  0
  6 20  1  0  0  0  0
  7 10  2  0  0  0  0
  7 19  1  0  0  0  0
  8 23  1  0  0  0  0
  9 23  2  0  0  0  0
 10 24  1  0  0  0  0
 11 12  2  0  0  0  0
 11 25  1  0  0  0  0
 12 26  1  0  0  0  0
 13 21  1  0  0  0  0
 13 24  2  0  0  0  0
 14 26  2  0  0  0  0
 14 27  1  0  0  0  0
 15 22  1  0  0  0  0
 15 66  2  0  0  0  0
 16 28  1  0  0  0  0
 17 28  1  0  0  0  0
 17 30  2  0  0  0  0
 17 32  1  0  0  0  0
 18 20  2  0  0  0  0
 18 37  1  0  0  0  0
 19 21  2  0  0  0  0
 19 38  1  0  0  0  0
 20 46  1  0  0  0  0
 21 39  1  0  0  0  0
 22 29  2  0  0  0  0
 22 56  1  0  0  0  0
 23 84  1  0  0  0  0
 24 85  1  0  0  0  0
 25 27  2  0  0  0  0
 25 84  1  0  0  0  0
 26 86  1  0  0  0  0
 27 87  1  0  0  0  0
 28 67  2  0  0  0  0
 29 62  1  0  0  0  0
 29 68  1  0  0  0  0
 30 69  1  0  0  0  0
 30 72  1  0  0  0  0
 31 57  1  0  0  0  0
 31 66  1  0  0  0  0
 31 68  2  0  0  0  0
 32 73  1  0  0  0  0
 32 79  2  0  0  0  0
 33 47  1  0  0  0  0
 33 74  1  0  0  0  0
 33 80  2  0  0  0  0
 34 63  1  0  0  0  0
 34 70  1  0  0  0  0
 34 81  2  0  0  0  0
 35 64  1  0  0  0  0
 35 75  1  0  0  0  0
 35 82  2  0  0  0  0
 36 71  1  0  0  0  0
 36 76  1  0  0  0  0
 36 83  2  0  0  0  0
 37 40  1  0  0  0  0
 38 47  1  0  0  0  0
 39 70  1  0  0  0  0
 40 42  1  0  0  0  0
 41 43  1  0  0  0  0
 41 44  1  0  0  0  0
 42 46  1  0  0  0  0
 43 48  1  0  0  0  0
 44 71  1  0  0  0  0
 45 48  1  0  0  0  0
 45 71  1  0  0  0  0
 46 74  1  0  0  0  0
 47 70  1  0  0  0  0
 48 69  1  0  0  0  0
 49 58  1  0  0  0  0
 50 64  1  0  0  0  0
 51 65  1  0  0  0  0
 52 65  1  0  0  0  0
 53 65  1  0  0  0  0
 54 76  1  0  0  0  0
 55 78  1  0  0  0  0
 56 60  1  0  0  0  0
 57 59  1  0  0  0  0
 58 62  1  0  0  0  0
 59 61  1  0  0  0  0
 60 76  1  0  0  0  0
 61 85  1  0  0  0  0
 62 77  1  0  0  0  0
 63 65  1  0  0  0  0
 63 75  1  0  0  0  0
 64 78  1  0  0  0  0
 67 69  1  0  0  0  0
M  CHG  2  77   1  78   1
M  ISO  4  36 100  61 101  76 100  85 101
M  END
> <Batch ID>
0070

> <Smiles>
CCC(N)c1nc(CC[101CH2:1][101O:1]c2ccc3c(c2)CN(C(=O)C(NC(=O)C(C)NC)C(C)(C)C)C(C(=O)NC2CCCc4ccccc42)C3)ncc1CC[100N:0](C)[100C:0](=O)N1CCCC(n2nc(-c3ccc(Oc4ccc(F)cc4F)cc3)c(C(N)=O)c2N)C1

> <Shape>
0.247

> <Color>
0.090

> <Negative vol penalty>
0.000

$$$$

  -OEChem-04052318193D

 82 90  0     1  0  0  0  0  0999 V2000
  -20.4782  -31.1018   22.2915 C   0  0  0  0  0  0  0  0  0  0  0  0
  -21.7342  -30.5366   22.4871 C   0  0  0  0  0  0  0  0  0  0  0  0
  -27.3777  -14.9090   22.1970 C   0  0  0  0  0  0  0  0  0  0  0  0
  -28.7329  -14.3427   20.2787 C   0  0  0  0  0  0  0  0  0  0  0  0
  -19.3498  -30.2853   22.2282 C   0  0  0  0  0  0  0  0  0  0  0  0
  -21.8625  -29.1546   22.6208 C   0  0  0  0  0  0  0  0  0  0  0  0
  -25.7097  -27.2892   19.9069 C   0  0  0  0  0  0  0  0  0  0  0  0
  -26.5304  -13.8376   21.9147 C   0  0  0  0  0  0  0  0  0  0  0  0
  -27.8856  -13.2712   19.9965 C   0  0  0  0  0  0  0  0  0  0  0  0
  -26.9931  -27.4513   20.4268 C   0  0  0  0  0  0  0  0  0  0  0  0
  -24.2156  -11.0346   21.9083 C   0  0  0  0  0  0  0  0  0  0  0  0
  -23.8218  -10.2218   22.9712 C   0  0  0  0  0  0  0  0  0  0  0  0
  -32.2370  -24.5584   20.7384 C   0  0  0  0  0  0  0  0  0  0  0  0
  -26.9463  -25.1789   21.2349 C   0  0  0  0  0  0  0  0  0  0  0  0
  -26.1335   -9.6699   23.4057 C   0  0  0  0  0  0  0  0  0  0  0  0
  -31.9553  -23.5287   19.8742 C   0  0  0  0  0  0  0  0  0  0  0  0
  -28.4790  -15.1616   21.3789 C   0  0  0  0  0  0  0  0  0  0  0  0
  -30.5020  -16.2535   22.4847 C   0  0  0  0  0  0  0  0  0  0  0  0
  -19.4655  -28.8917   22.3515 C   0  0  0  0  0  0  0  0  0  0  0  0
  -25.0295  -26.0721   20.0570 C   0  0  0  0  0  0  0  0  0  0  0  0
  -20.7345  -28.3188   22.5605 C   0  0  0  0  0  0  0  0  0  0  0  0
  -25.6553  -25.0031   20.7138 C   0  0  0  0  0  0  0  0  0  0  0  0
  -26.7843  -13.0187   20.8145 C   0  0  0  0  0  0  0  0  0  0  0  0
  -27.6105  -26.3971   21.0934 C   0  0  0  0  0  0  0  0  0  0  0  0
  -25.5684  -11.1650   21.5940 C   0  0  0  0  0  0  0  0  0  0  0  0
  -24.7807   -9.5394   23.7199 C   0  0  0  0  0  0  0  0  0  0  0  0
  -26.5273  -10.4827   22.3427 C   0  0  0  0  0  0  0  0  0  0  0  0
  -29.3543  -16.2686   21.6697 C   0  0  0  0  0  0  0  0  0  0  0  0
  -31.3392  -25.5796   20.3737 C   0  0  0  0  0  0  0  0  0  0  0  0
  -30.9742  -17.5424   22.4367 C   0  0  0  0  0  0  0  0  0  0  0  0
  -31.0889  -15.1712   23.2194 C   0  0  0  0  0  0  0  0  0  0  0  0
  -22.3380  -25.1680   21.4861 C   0  0  0  0  0  0  0  0  0  0  0  0
  -23.0015  -22.3245   20.0730 C   0  0  0  0  0  0  0  0  0  0  0  0
  -30.3381  -21.7704   18.3142 C   0  0  0  0  0  0  0  0  0  0  0  0
  -25.3405  -20.2290   18.7371 C   0  0  0  0  0  0  0  0  0  0  0  0
  -18.2116  -28.0540   22.3238 C   0  0  0  0  0  0  0  0  0  0  0  0
  -23.6560  -25.9047   19.4671 C   0  0  0  0  0  0  0  0  0  0  0  0
  -24.9759  -23.6696   20.8838 C   0  0  0  0  0  0  0  0  0  0  0  0
  -18.4771  -26.5675   22.0999 C   0  0  0  0  0  0  0  0  0  0  0  0
  -29.5160  -22.0533   21.8457 C   0  0  0  0  0  0  0  0  0  0  0  0
  -19.6096  -26.0858   23.0012 C   0  0  0  0  0  0  0  0  0  0  0  0
  -29.4595  -20.5849   22.2649 C   0  0  0  0  0  0  0  0  0  0  0  0
  -29.0012  -22.2508   20.4222 C   0  0  0  0  0  0  0  0  0  0  0  0
  -29.6440  -19.9371   19.8238 C   0  0  0  0  0  0  0  0  0  0  0  0
  -20.9173  -26.8217   22.6851 C   0  0  1  0  0  0  0  0  0  0  0  0
  -22.8543  -24.7872   20.1274 C   0  0  1  0  0  0  0  0  0  0  0  0
  -30.1832  -19.6909   21.2428 C   0  0  2  0  0  0  0  0  0  0  0  0
  -26.2577  -18.2158   17.5526 C   0  0  0  0  0  0  0  0  0  0  0  0
  -32.0986  -28.0497   20.3422 C   0  0  0  0  0  0  0  0  0  0  0  0
  -31.6163  -26.9021   22.4935 C   0  0  0  0  0  0  0  0  0  0  0  0
  -31.0641  -23.4881   16.6879 C   0  0  0  0  0  0  0  0  0  0  0  0
  -28.8249  -23.5964   17.7830 C   0  0  0  0  0  0  0  0  0  0  0  0
  -22.7475  -21.0383   22.8282 C   0  0  0  0  0  0  0  0  0  0  0  0
  -23.9103  -19.0177   21.9153 C   0  0  0  0  0  0  0  0  0  0  0  0
  -21.7153  -19.7269   20.9657 C   0  0  0  0  0  0  0  0  0  0  0  0
  -25.0672  -21.5193   16.0877 C   0  0  0  0  0  0  0  0  0  0  0  0
  -29.7307  -27.4612   20.9255 C   0  0  0  0  0  0  0  0  0  1  0  0
  -23.7826  -21.0931   20.4636 C   0  0  1  0  0  0  0  0  0  0  0  0
  -25.3629  -19.4404   17.4402 C   0  0  2  0  0  0  0  0  0  0  0  0
  -31.2016  -26.9773   21.0060 C   0  0  0  0  0  0  0  0  0  0  0  0
  -30.3085  -23.2464   18.0069 C   0  0  0  0  0  0  0  0  0  0  0  0
  -23.0512  -20.2446   21.5418 C   0  0  0  0  0  0  0  0  0  0  0  0
  -29.1119  -17.4717   21.1426 N   0  0  0  0  0  0  0  0  0  0  0  0
  -30.5466  -25.2304   19.3569 N   0  0  0  0  0  0  0  0  0  0  0  0
  -30.9454  -23.9783   19.0753 N   0  0  0  0  0  0  0  0  0  0  0  0
  -30.1139  -18.2246   21.6276 N   0  0  0  0  0  0  0  0  0  0  0  0
  -23.6312  -23.5573   20.2951 N   0  0  0  0  0  0  0  0  0  0  0  0
  -29.6964  -21.3618   19.4836 N   0  0  0  0  0  0  0  0  0  0  0  0
  -32.0371  -18.1474   23.0081 N   0  0  0  0  0  0  0  0  0  0  0  0
  -30.4756  -13.9124   23.1587 N   0  0  0  0  0  0  0  0  0  0  0  0
  -21.5228  -26.2837   21.4857 N   0  0  0  0  0  0  0  0  0  0  0  0
  -24.0588  -20.3748   19.2241 N   0  0  0  0  0  0  0  0  0  0  0  0
  -25.8680  -20.2908   16.3255 N   0  3  0  0  0  0  0  0  0  0  0  0
  -32.1171  -15.3199   23.9224 O   0  0  0  0  0  0  0  0  0  0  0  0
  -22.6546  -24.4982   22.4622 O   0  0  0  0  0  0  0  0  0  0  0  0
  -21.8770  -22.1969   19.5822 O   0  0  0  0  0  0  0  0  0  0  0  0
  -30.9171  -21.0055   17.5385 O   0  0  0  0  0  0  0  0  0  0  0  0
  -26.3586  -20.6684   19.2672 O   0  0  0  0  0  0  0  0  0  0  0  0
  -25.9579  -11.9730   20.5389 O   0  0  0  0  0  0  0  0  0  0  0  0
  -28.8629  -26.5528   21.6024 O   0  0  0  0  0  0  0  0  0  1  0  0
  -24.4025   -8.7601   24.7416 F   0  0  0  0  0  0  0  0  0  0  0  0
  -27.8284  -10.6050   22.0463 F   0  0  0  0  0  0  0  0  0  0  0  0
  1  2  1  0  0  0  0
  1  5  2  0  0  0  0
  2  6  2  0  0  0  0
  3  8  2  0  0  0  0
  3 17  1  0  0  0  0
  4  9  1  0  0  0  0
  4 17  2  0  0  0  0
  5 19  1  0  0  0  0
  6 21  1  0  0  0  0
  7 10  2  0  0  0  0
  7 20  1  0  0  0  0
  8 23  1  0  0  0  0
  9 23  2  0  0  0  0
 10 24  1  0  0  0  0
 11 12  2  0  0  0  0
 11 25  1  0  0  0  0
 12 26  1  0  0  0  0
 13 16  2  0  0  0  0
 13 29  1  0  0  0  0
 14 22  1  0  0  0  0
 14 24  2  0  0  0  0
 15 26  2  0  0  0  0
 15 27  1  0  0  0  0
 16 65  1  0  0  0  0
 17 28  1  0  0  0  0
 18 28  1  0  0  0  0
 18 30  2  0  0  0  0
 18 31  1  0  0  0  0
 19 21  2  0  0  0  0
 19 36  1  0  0  0  0
 20 22  2  0  0  0  0
 20 37  1  0  0  0  0
 21 45  1  0  0  0  0
 22 38  1  0  0  0  0
 23 79  1  0  0  0  0
 24 80  1  0  0  0  0
 25 27  2  0  0  0  0
 25 79  1  0  0  0  0
 26 81  1  0  0  0  0
 27 82  1  0  0  0  0
 28 63  2  0  0  0  0
 29 60  1  0  0  0  0
 29 64  2  0  0  0  0
 30 66  1  0  0  0  0
 30 69  1  0  0  0  0
 31 70  1  0  0  0  0
 31 74  2  0  0  0  0
 32 46  1  0  0  0  0
 32 71  1  0  0  0  0
 32 75  2  0  0  0  0
 33 58  1  0  0  0  0
 33 67  1  0  0  0  0
 33 76  2  0  0  0  0
 34 61  1  0  0  0  0
 34 68  1  0  0  0  0
 34 77  2  0  0  0  0
 35 59  1  0  0  0  0
 35 72  1  0  0  0  0
 35 78  2  0  0  0  0
 36 39  1  0  0  0  0
 37 46  1  0  0  0  0
 38 67  1  0  0  0  0
 39 41  1  0  0  0  0
 40 42  1  0  0  0  0
 40 43  1  0  0  0  0
 41 45  1  0  0  0  0
 42 47  1  0  0  0  0
 43 68  1  0  0  0  0
 44 47  1  0  0  0  0
 44 68  1  0  0  0  0
 45 71  1  0  0  0  0
 46 67  1  0  0  0  0
 47 66  1  0  0  0  0
 48 59  1  0  0  0  0
 49 60  1  0  0  0  0
 50 60  1  0  0  0  0
 51 61  1  0  0  0  0
 52 61  1  0  0  0  0
 53 62  1  0  0  0  0
 54 62  1  0  0  0  0
 55 62  1  0  0  0  0
 56 73  1  0  0  0  0
 57 60  1  0  0  0  0
 57 80  1  0  0  0  0
 58 62  1  0  0  0  0
 58 72  1  0  0  0  0
 59 73  1  0  0  0  0
 61 65  1  0  0  0  0
 63 66  1  0  0  0  0
 64 65  1  0  0  0  0
M  CHG  1  73   1
M  ISO  4  34 100  57 101  61 100  80 101
M  END
> <Batch ID>
0070

> <Smiles>
CNC(C)C(=O)NC(C(=O)N1Cc2cc([101O:1][101CH2:1]C(C)(C)c3ccn([100C:0](C)(C)[100C:0](=O)N4CCCC(n5nc(-c6ccc(Oc7ccc(F)cc7F)cc6)c(C(N)=O)c5N)C4)n3)ccc2CC1C(=O)NC1CCCc2ccccc21)C(C)(C)C

> <Shape>
0.236

> <Color>
0.055

> <Negative vol penalty>
0.000

$$$$

  -OEChem-04052318193D

 82 90  0     1  0  0  0  0  0999 V2000
  -19.8675  -26.9244   21.0212 C   0  0  0  0  0  0  0  0  0  0  0  0
  -20.8519  -25.9660   20.8027 C   0  0  0  0  0  0  0  0  0  0  0  0
  -23.2968   -9.7917   19.9033 C   0  0  0  0  0  0  0  0  0  0  0  0
  -23.7240   -9.9302   22.2772 C   0  0  0  0  0  0  0  0  0  0  0  0
  -19.9700  -27.7924   22.1075 C   0  0  0  0  0  0  0  0  0  0  0  0
  -21.9401  -25.8756   21.6699 C   0  0  0  0  0  0  0  0  0  0  0  0
  -23.0105  -21.0950   22.9523 C   0  0  0  0  0  0  0  0  0  0  0  0
  -22.5705   -8.6177   20.1025 C   0  0  0  0  0  0  0  0  0  0  0  0
  -22.9976   -8.7561   22.4764 C   0  0  0  0  0  0  0  0  0  0  0  0
  -23.7006  -20.3243   22.0177 C   0  0  0  0  0  0  0  0  0  0  0  0
  -19.7502   -7.8393   22.6606 C   0  0  0  0  0  0  0  0  0  0  0  0
  -18.8374   -7.8148   23.7151 C   0  0  0  0  0  0  0  0  0  0  0  0
  -25.7549  -20.7165   23.2199 C   0  0  0  0  0  0  0  0  0  0  0  0
  -20.0366   -5.9684   24.7101 C   0  0  0  0  0  0  0  0  0  0  0  0
  -28.7656  -17.1049   17.3978 C   0  0  0  0  0  0  0  0  0  0  0  0
  -23.8737  -10.4479   20.9907 C   0  0  0  0  0  0  0  0  0  0  0  0
  -24.1307  -12.9786   20.7977 C   0  0  0  0  0  0  0  0  0  0  0  0
  -21.0551  -27.7063   22.9940 C   0  0  0  0  0  0  0  0  0  0  0  0
  -23.6904  -21.6922   24.0236 C   0  0  0  0  0  0  0  0  0  0  0  0
  -22.0580  -26.7441   22.7684 C   0  0  0  0  0  0  0  0  0  0  0  0
  -25.0707  -21.4922   24.1683 C   0  0  0  0  0  0  0  0  0  0  0  0
  -22.4208   -8.0999   21.3890 C   0  0  0  0  0  0  0  0  0  0  0  0
  -25.0735  -20.1374   22.1497 C   0  0  0  0  0  0  0  0  0  0  0  0
  -20.8061   -6.9283   22.6309 C   0  0  0  0  0  0  0  0  0  0  0  0
  -18.9806   -6.8794   24.7398 C   0  0  0  0  0  0  0  0  0  0  0  0
  -20.9493   -5.9929   23.6556 C   0  0  0  0  0  0  0  0  0  0  0  0
  -24.6246  -11.6604   20.7855 C   0  0  0  0  0  0  0  0  0  0  0  0
  -28.8908  -15.7303   17.1208 C   0  0  0  0  0  0  0  0  0  0  0  0
  -27.6948  -17.5118   16.6399 C   0  0  0  0  0  0  0  0  0  0  0  0
  -25.2333  -13.7607   20.5546 C   0  0  0  0  0  0  0  0  0  0  0  0
  -22.7947  -13.4537   21.0100 C   0  0  0  0  0  0  0  0  0  0  0  0
  -29.8820  -14.7954   17.6687 C   0  0  0  0  0  0  0  0  0  0  0  0
  -24.1837  -24.6834   24.9792 C   0  0  0  0  0  0  0  0  0  0  0  0
  -25.5347  -23.2285   27.5444 C   0  0  0  0  0  0  0  0  0  0  0  0
  -27.0449  -20.4559   28.8401 C   0  0  0  0  0  0  0  0  0  0  0  0
  -21.1471  -28.6972   24.1272 C   0  0  0  0  0  0  0  0  0  0  0  0
  -22.9271  -22.4986   25.0382 C   0  0  0  0  0  0  0  0  0  0  0  0
  -25.8438  -22.0950   25.3117 C   0  0  0  0  0  0  0  0  0  0  0  0
  -22.1394  -28.2900   25.2134 C   0  0  0  0  0  0  0  0  0  0  0  0
  -30.1555  -12.6020   20.4716 C   0  0  0  0  0  0  0  0  0  0  0  0
  -23.4534  -27.8295   24.5906 C   0  0  0  0  0  0  0  0  0  0  0  0
  -28.7017  -12.2521   20.7945 C   0  0  0  0  0  0  0  0  0  0  0  0
  -30.3784  -12.7526   18.9689 C   0  0  0  0  0  0  0  0  0  0  0  0
  -28.0076  -13.3590   18.6281 C   0  0  0  0  0  0  0  0  0  0  0  0
  -23.2408  -26.5986   23.7010 C   0  0  1  0  0  0  0  0  0  0  0  0
  -23.8061  -23.4842   25.8020 C   0  0  1  0  0  0  0  0  0  0  0  0
  -27.7287  -13.2482   20.1361 C   0  0  1  0  0  0  0  0  0  0  0  0
  -28.0717  -19.5790   30.9553 C   0  0  0  0  0  0  0  0  0  0  0  0
  -25.4480  -14.9588   15.1324 C   0  0  0  0  0  0  0  0  0  0  0  0
  -26.5741  -16.6523   13.6258 C   0  0  0  0  0  0  0  0  0  0  0  0
  -28.0252  -24.9152   27.0318 C   0  0  0  0  0  0  0  0  0  0  0  0
  -29.3012  -23.3577   28.5198 C   0  0  0  0  0  0  0  0  0  0  0  0
  -27.4001  -24.6834   29.4422 C   0  0  0  0  0  0  0  0  0  0  0  0
  -25.0701  -18.2594   29.0253 C   0  0  0  0  0  0  0  0  0  0  0  0
  -27.0469  -18.8647   16.4861 C   0  0  0  0  0  0  0  0  0  0  0  0
  -25.9162  -19.1270   17.4871 C   0  0  0  0  0  0  0  0  0  0  0  0
  -26.3943  -19.1430   18.9397 C   0  0  0  0  0  0  0  0  0  0  0  0
  -25.2390  -19.3664   19.9061 C   0  0  0  0  0  0  0  0  0  1  0  0
  -26.9220  -22.7448   27.8913 C   0  0  1  0  0  0  0  0  0  0  0  0
  -26.8022  -19.6841   30.1246 C   0  0  2  0  0  0  0  0  0  0  0  0
  -26.1531  -16.3145   15.0572 C   0  0  0  0  0  0  0  0  0  0  0  0
  -27.8982  -23.9154   28.1986 C   0  0  0  0  0  0  0  0  0  0  0  0
  -25.9387  -11.6043   20.5529 N   0  0  0  0  0  0  0  0  0  0  0  0
  -27.9730  -15.2931   16.2546 N   0  0  0  0  0  0  0  0  0  0  0  0
  -27.2607  -16.3994   15.9806 N   0  0  0  0  0  0  0  0  0  0  0  0
  -26.2798  -12.8970   20.4165 N   0  0  0  0  0  0  0  0  0  0  0  0
  -29.4192  -13.6958   18.3954 N   0  0  0  0  0  0  0  0  0  0  0  0
  -25.0537  -22.8804   26.2742 N   0  0  0  0  0  0  0  0  0  0  0  0
  -25.4000  -15.0960   20.4474 N   0  0  0  0  0  0  0  0  0  0  0  0
  -21.7813  -12.5148   21.2464 N   0  0  0  0  0  0  0  0  0  0  0  0
  -23.1037  -25.4072   24.5111 N   0  0  0  0  0  0  0  0  0  0  0  0
  -26.7614  -21.7971   28.9888 N   0  0  0  0  0  0  0  0  0  0  0  0
  -26.3253  -18.3058   29.8186 N   0  3  0  0  0  0  0  0  0  0  0  0
  -22.5051  -14.6737   20.9744 O   0  0  0  0  0  0  0  0  0  0  0  0
  -31.0622  -15.0654   17.4510 O   0  0  0  0  0  0  0  0  0  0  0  0
  -25.3673  -24.9344   24.7848 O   0  0  0  0  0  0  0  0  0  0  0  0
  -24.8983  -23.8847   28.3727 O   0  0  0  0  0  0  0  0  0  0  0  0
  -27.4494  -19.9230   27.8092 O   0  0  0  0  0  0  0  0  0  0  0  0
  -21.7119   -6.9545   21.5837 O   0  0  0  0  0  0  0  0  0  0  0  0
  -25.7496  -19.3861   21.2385 O   0  0  0  0  0  0  0  0  0  1  0  0
  -18.1049   -6.8569   25.7532 F   0  0  0  0  0  0  0  0  0  0  0  0
  -21.9624   -5.1160   23.6331 F   0  0  0  0  0  0  0  0  0  0  0  0
  1  2  1  0  0  0  0
  1  5  2  0  0  0  0
  2  6  2  0  0  0  0
  3  8  2  0  0  0  0
  3 16  1  0  0  0  0
  4  9  1  0  0  0  0
  4 16  2  0  0  0  0
  5 18  1  0  0  0  0
  6 20  1  0  0  0  0
  7 10  2  0  0  0  0
  7 19  1  0  0  0  0
  8 22  1  0  0  0  0
  9 22  2  0  0  0  0
 10 23  1  0  0  0  0
 11 12  2  0  0  0  0
 11 24  1  0  0  0  0
 12 25  1  0  0  0  0
 13 21  1  0  0  0  0
 13 23  2  0  0  0  0
 14 25  2  0  0  0  0
 14 26  1  0  0  0  0
 15 28  1  0  0  0  0
 15 29  2  0  0  0  0
 16 27  1  0  0  0  0
 17 27  1  0  0  0  0
 17 30  2  0  0  0  0
 17 31  1  0  0  0  0
 18 20  2  0  0  0  0
 18 36  1  0  0  0  0
 19 21  2  0  0  0  0
 19 37  1  0  0  0  0
 20 45  1  0  0  0  0
 21 38  1  0  0  0  0
 22 79  1  0  0  0  0
 23 80  1  0  0  0  0
 24 26  2  0  0  0  0
 24 79  1  0  0  0  0
 25 81  1  0  0  0  0
 26 82  1  0  0  0  0
 27 63  2  0  0  0  0
 28 32  1  0  0  0  0
 28 64  2  0  0  0  0
 29 55  1  0  0  0  0
 29 65  1  0  0  0  0
 30 66  1  0  0  0  0
 30 69  1  0  0  0  0
 31 70  1  0  0  0  0
 31 74  2  0  0  0  0
 32 67  1  0  0  0  0
 32 75  2  0  0  0  0
 33 46  1  0  0  0  0
 33 71  1  0  0  0  0
 33 76  2  0  0  0  0
 34 59  1  0  0  0  0
 34 68  1  0  0  0  0
 34 77  2  0  0  0  0
 35 60  1  0  0  0  0
 35 72  1  0  0  0  0
 35 78  2  0  0  0  0
 36 39  1  0  0  0  0
 37 46  1  0  0  0  0
 38 68  1  0  0  0  0
 39 41  1  0  0  0  0
 40 42  1  0  0  0  0
 40 43  1  0  0  0  0
 41 45  1  0  0  0  0
 42 47  1  0  0  0  0
 43 67  1  0  0  0  0
 44 47  1  0  0  0  0
 44 67  1  0  0  0  0
 45 71  1  0  0  0  0
 46 68  1  0  0  0  0
 47 66  1  0  0  0  0
 48 60  1  0  0  0  0
 49 61  1  0  0  0  0
 50 61  1  0  0  0  0
 51 62  1  0  0  0  0
 52 62  1  0  0  0  0
 53 62  1  0  0  0  0
 54 73  1  0  0  0  0
 55 56  1  0  0  0  0
 56 57  1  0  0  0  0
 57 58  1  0  0  0  0
 58 80  1  0  0  0  0
 59 62  1  0  0  0  0
 59 72  1  0  0  0  0
 60 73  1  0  0  0  0
 61 65  1  0  0  0  0
 63 66  1  0  0  0  0
 64 65  1  0  0  0  0
M  CHG  1  73   1
M  ISO  4  28 100  32 100  58 101  80 101
M  END
> <Batch ID>
0070

> <Smiles>
CNC(C)C(=O)NC(C(=O)N1Cc2cc([101O:1][101CH2:1]CCCc3c[100c:0]([100C:0](=O)N4CCCC(n5nc(-c6ccc(Oc7ccc(F)cc7F)cc6)c(C(N)=O)c5N)C4)nn3C(C)C)ccc2CC1C(=O)NC1CCCc2ccccc21)C(C)(C)C

> <Shape>
0.175

> <Color>
0.177

> <Negative vol penalty>
0.000

$$$$

  -OEChem-04052318193D

 85 93  0     1  0  0  0  0  0999 V2000
  -27.1453  -35.0759   23.5420 C   0  0  0  0  0  0  0  0  0  0  0  0
  -27.4871  -33.7533   23.2785 C   0  0  0  0  0  0  0  0  0  0  0  0
  -24.2929  -13.6023   19.6926 C   0  0  0  0  0  0  0  0  0  0  0  0
  -25.1444  -13.8838   21.9360 C   0  0  0  0  0  0  0  0  0  0  0  0
  -25.8638  -35.3867   23.9948 C   0  0  0  0  0  0  0  0  0  0  0  0
  -26.5477  -32.7405   23.4688 C   0  0  0  0  0  0  0  0  0  0  0  0
  -26.4561  -29.4308   19.6371 C   0  0  0  0  0  0  0  0  0  0  0  0
  -25.2449  -12.6108   19.4557 C   0  0  0  0  0  0  0  0  0  0  0  0
  -26.0964  -12.8922   21.6991 C   0  0  0  0  0  0  0  0  0  0  0  0
  -27.4692  -28.4739   19.5979 C   0  0  0  0  0  0  0  0  0  0  0  0
  -27.6848  -10.2566   18.1410 C   0  0  0  0  0  0  0  0  0  0  0  0
  -28.3789  -10.2975   16.9318 C   0  0  0  0  0  0  0  0  0  0  0  0
  -25.9627  -26.8486   20.5508 C   0  0  0  0  0  0  0  0  0  0  0  0
  -29.2327  -12.4860   17.4959 C   0  0  0  0  0  0  0  0  0  0  0  0
  -26.5901  -23.8363   24.7523 C   0  0  0  0  0  0  0  0  0  0  0  0
  -24.2427  -14.2389   20.9328 C   0  0  0  0  0  0  0  0  0  0  0  0
  -21.9612  -15.0902   21.6929 C   0  0  0  0  0  0  0  0  0  0  0  0
  -24.9053  -34.3782   24.1815 C   0  0  0  0  0  0  0  0  0  0  0  0
  -25.1897  -29.1063   20.1444 C   0  0  0  0  0  0  0  0  0  0  0  0
  -25.2525  -33.0379   23.9259 C   0  0  0  0  0  0  0  0  0  0  0  0
  -24.9344  -27.8025   20.5930 C   0  0  0  0  0  0  0  0  0  0  0  0
  -26.1466  -12.2557   20.4589 C   0  0  0  0  0  0  0  0  0  0  0  0
  -27.2235  -27.1833   20.0575 C   0  0  0  0  0  0  0  0  0  0  0  0
  -27.7646  -11.3305   19.0277 C   0  0  0  0  0  0  0  0  0  0  0  0
  -29.1528  -11.4122   16.6093 C   0  0  0  0  0  0  0  0  0  0  0  0
  -28.5386  -12.4452   18.7051 C   0  0  0  0  0  0  0  0  0  0  0  0
  -23.2599  -15.2636   21.1780 C   0  0  0  0  0  0  0  0  0  0  0  0
  -26.1873  -22.5830   24.3467 C   0  0  0  0  0  0  0  0  0  0  0  0
  -28.3537  -22.0492   23.8449 C   0  0  0  0  0  0  0  0  0  0  0  0
  -28.7562  -23.3028   24.2498 C   0  0  0  0  0  0  0  0  0  0  0  0
  -21.4360  -16.3586   21.7340 C   0  0  0  0  0  0  0  0  0  0  0  0
  -21.2897  -13.8899   22.0978 C   0  0  0  0  0  0  0  0  0  0  0  0
  -23.4225  -30.1222   22.5834 C   0  0  0  0  0  0  0  0  0  0  0  0
  -21.1884  -28.1700   21.2718 C   0  0  0  0  0  0  0  0  0  0  0  0
  -20.4979  -25.4628   19.3120 C   0  0  0  0  0  0  0  0  0  0  0  0
  -23.9243  -21.7924   22.1003 C   0  0  0  0  0  0  0  0  0  0  0  0
  -23.5476  -34.7575   24.7178 C   0  0  0  0  0  0  0  0  0  0  0  0
  -24.0996  -30.1426   20.1550 C   0  0  0  0  0  0  0  0  0  0  0  0
  -23.5860  -27.3978   21.1282 C   0  0  0  0  0  0  0  0  0  0  0  0
  -22.4946  -33.6674   24.5358 C   0  0  0  0  0  0  0  0  0  0  0  0
  -21.7347  -20.6076   19.5550 C   0  0  0  0  0  0  0  0  0  0  0  0
  -23.0505  -32.3118   24.9601 C   0  0  0  0  0  0  0  0  0  0  0  0
  -21.7601  -19.0880   19.7288 C   0  0  0  0  0  0  0  0  0  0  0  0
  -23.1011  -21.2303   19.8325 C   0  0  0  0  0  0  0  0  0  0  0  0
  -23.7147  -19.3570   21.3117 C   0  0  0  0  0  0  0  0  0  0  0  0
  -24.2536  -31.9140   24.0964 C   0  0  1  0  0  0  0  0  0  0  0  0
  -22.9998  -29.8426   21.1689 C   0  0  1  0  0  0  0  0  0  0  0  0
  -22.3454  -18.6898   21.0970 C   0  0  2  0  0  0  0  0  0  0  0  0
  -29.3315  -21.0451   23.3375 C   0  0  0  0  0  0  0  0  0  0  0  0
  -24.3552  -21.5642   25.7493 C   0  0  0  0  0  0  0  0  0  0  0  0
  -18.5810  -24.0875   18.4569 C   0  0  0  0  0  0  0  0  0  0  0  0
  -20.9253  -26.8413   24.0059 C   0  0  0  0  0  0  0  0  0  0  0  0
  -19.7578  -24.9299   22.8872 C   0  0  0  0  0  0  0  0  0  0  0  0
  -18.7583  -27.2143   22.8144 C   0  0  0  0  0  0  0  0  0  0  0  0
  -21.1458  -26.0999   16.4954 C   0  0  0  0  0  0  0  0  0  0  0  0
  -30.2051  -23.7181   24.1988 C   0  0  0  0  0  0  0  0  0  0  0  0
  -30.6875  -24.1127   22.7983 C   0  0  0  0  0  0  0  0  0  0  0  0
  -29.8600  -25.2414   22.1753 C   0  0  0  0  0  0  0  0  0  0  0  0
  -30.3941  -25.6223   20.7956 C   0  0  0  0  0  0  0  0  0  0  0  0
  -29.5532  -26.7143   20.1497 C   0  0  0  0  0  0  0  0  0  1  0  0
  -24.7512  -22.1954   24.4053 C   0  0  2  0  0  0  0  0  0  0  0  0
  -20.8140  -26.7161   21.4295 C   0  0  1  0  0  0  0  0  0  0  0  0
  -19.5038  -25.2645   18.1820 C   0  0  2  0  0  0  0  0  0  0  0  0
  -20.0899  -26.4332   22.7760 C   0  0  0  0  0  0  0  0  0  0  0  0
  -27.8818  -24.2187   24.7110 N   0  0  0  0  0  0  0  0  0  0  0  0
  -23.5423  -16.5415   20.9110 N   0  0  0  0  0  0  0  0  0  0  0  0
  -27.0619  -21.6669   23.8857 N   0  0  0  0  0  0  0  0  0  0  0  0
  -22.4137  -17.1826   21.2594 N   0  0  0  0  0  0  0  0  0  0  0  0
  -22.5546  -28.4484   21.1239 N   0  0  0  0  0  0  0  0  0  0  0  0
  -23.5993  -20.8144   21.1458 N   0  0  0  0  0  0  0  0  0  0  0  0
  -20.2377  -16.8384   22.1294 N   0  0  0  0  0  0  0  0  0  0  0  0
  -21.9749  -12.6720   21.9897 N   0  0  0  0  0  0  0  0  0  0  0  0
  -23.8114  -31.4292   22.8065 N   0  0  0  0  0  0  0  0  0  0  0  0
  -20.0353  -26.3645   20.2469 N   0  0  0  0  0  0  0  0  0  0  0  0
  -24.3830  -21.3125   23.3210 N   0  0  0  0  0  0  0  0  0  0  0  0
  -20.2204  -25.0106   16.9002 N   0  3  0  0  0  0  0  0  0  0  0  0
  -20.1110  -13.8952   22.5270 O   0  0  0  0  0  0  0  0  0  0  0  0
  -23.3963  -29.2192   23.4114 O   0  0  0  0  0  0  0  0  0  0  0  0
  -20.3007  -29.0266   21.2725 O   0  0  0  0  0  0  0  0  0  0  0  0
  -21.5753  -24.8736   19.3623 O   0  0  0  0  0  0  0  0  0  0  0  0
  -23.8087  -23.0033   21.8828 O   0  0  0  0  0  0  0  0  0  0  0  0
  -27.0755  -11.2880   20.2281 O   0  0  0  0  0  0  0  0  0  0  0  0
  -28.2108  -26.2475   20.0210 O   0  0  0  0  0  0  0  0  0  1  0  0
  -29.8206  -11.4506   15.4487 F   0  0  0  0  0  0  0  0  0  0  0  0
  -28.6200  -13.4793   19.5535 F   0  0  0  0  0  0  0  0  0  0  0  0
  1  2  1  0  0  0  0
  1  5  2  0  0  0  0
  2  6  2  0  0  0  0
  3  8  2  0  0  0  0
  3 16  1  0  0  0  0
  4  9  1  0  0  0  0
  4 16  2  0  0  0  0
  5 18  1  0  0  0  0
  6 20  1  0  0  0  0
  7 10  2  0  0  0  0
  7 19  1  0  0  0  0
  8 22  1  0  0  0  0
  9 22  2  0  0  0  0
 10 23  1  0  0  0  0
 11 12  2  0  0  0  0
 11 24  1  0  0  0  0
 12 25  1  0  0  0  0
 13 21  1  0  0  0  0
 13 23  2  0  0  0  0
 14 25  2  0  0  0  0
 14 26  1  0  0  0  0
 15 28  1  0  0  0  0
 15 65  2  0  0  0  0
 16 27  1  0  0  0  0
 17 27  1  0  0  0  0
 17 31  2  0  0  0  0
 17 32  1  0  0  0  0
 18 20  2  0  0  0  0
 18 37  1  0  0  0  0
 19 21  2  0  0  0  0
 19 38  1  0  0  0  0
 20 46  1  0  0  0  0
 21 39  1  0  0  0  0
 22 82  1  0  0  0  0
 23 83  1  0  0  0  0
 24 26  2  0  0  0  0
 24 82  1  0  0  0  0
 25 84  1  0  0  0  0
 26 85  1  0  0  0  0
 27 66  2  0  0  0  0
 28 61  1  0  0  0  0
 28 67  2  0  0  0  0
 29 30  2  0  0  0  0
 29 49  1  0  0  0  0
 29 67  1  0  0  0  0
 30 56  1  0  0  0  0
 30 65  1  0  0  0  0
 31 68  1  0  0  0  0
 31 71  1  0  0  0  0
 32 72  1  0  0  0  0
 32 77  2  0  0  0  0
 33 47  1  0  0  0  0
 33 73  1  0  0  0  0
 33 78  2  0  0  0  0
 34 62  1  0  0  0  0
 34 69  1  0  0  0  0
 34 79  2  0  0  0  0
 35 63  1  0  0  0  0
 35 74  1  0  0  0  0
 35 80  2  0  0  0  0
 36 70  1  0  0  0  0
 36 75  1  0  0  0  0
 36 81  2  0  0  0  0
 37 40  1  0  0  0  0
 38 47  1  0  0  0  0
 39 69  1  0  0  0  0
 40 42  1  0  0  0  0
 41 43  1  0  0  0  0
 41 44  1  0  0  0  0
 42 46  1  0  0  0  0
 43 48  1  0  0  0  0
 44 70  1  0  0  0  0
 45 48  1  0  0  0  0
 45 70  1  0  0  0  0
 46 73  1  0  0  0  0
 47 69  1  0  0  0  0
 48 68  1  0  0  0  0
 50 61  1  0  0  0  0
 51 63  1  0  0  0  0
 52 64  1  0  0  0  0
 53 64  1  0  0  0  0
 54 64  1  0  0  0  0
 55 76  1  0  0  0  0
 56 57  1  0  0  0  0
 57 58  1  0  0  0  0
 58 59  1  0  0  0  0
 59 60  1  0  0  0  0
 60 83  1  0  0  0  0
 61 75  1  0  0  0  0
 62 64  1  0  0  0  0
 62 74  1  0  0  0  0
 63 76  1  0  0  0  0
 66 68  1  0  0  0  0
M  CHG  1  76   1
M  ISO  4  36 100  60 101  75 100  83 101
M  END
> <Batch ID>
0070

> <Smiles>
CNC(C)C(=O)NC(C(=O)N1Cc2cc([101O:1][101CH2:1]CCCCc3ncc(C(C)[100NH:0][100C:0](=O)N4CCCC(n5nc(-c6ccc(Oc7ccc(F)cc7F)cc6)c(C(N)=O)c5N)C4)nc3C)ccc2CC1C(=O)NC1CCCc2ccccc21)C(C)(C)C

> <Shape>
0.230

> <Color>
0.086

> <Negative vol penalty>
0.000

$$$$

  -OEChem-04052318193D

 93101  0     1  0  0  0  0  0999 V2000
  -21.0890  -27.7365   16.0420 C   0  0  0  0  0  0  0  0  0  0  0  0
  -21.4300  -26.9691   17.1511 C   0  0  0  0  0  0  0  0  0  0  0  0
  -26.2453  -12.5182   21.7261 C   0  0  0  0  0  0  0  0  0  0  0  0
  -25.6484  -13.6513   19.6775 C   0  0  0  0  0  0  0  0  0  0  0  0
  -21.6143  -29.0196   15.8953 C   0  0  0  0  0  0  0  0  0  0  0  0
  -22.2975  -27.4840   18.1138 C   0  0  0  0  0  0  0  0  0  0  0  0
  -20.6913  -26.6195   22.8379 C   0  0  0  0  0  0  0  0  0  0  0  0
  -25.0712  -11.7687   21.6537 C   0  0  0  0  0  0  0  0  0  0  0  0
  -24.4742  -12.9017   19.6050 C   0  0  0  0  0  0  0  0  0  0  0  0
  -20.8902  -25.3396   23.3538 C   0  0  0  0  0  0  0  0  0  0  0  0
  -23.9399   -9.0687   19.9617 C   0  0  0  0  0  0  0  0  0  0  0  0
  -24.0295   -7.6983   20.2058 C   0  0  0  0  0  0  0  0  0  0  0  0
  -22.8285  -26.1304   24.5525 C   0  0  0  0  0  0  0  0  0  0  0  0
  -26.1085  -19.5354   19.3546 C   0  0  0  0  0  0  0  0  0  0  0  0
  -22.4963   -7.9281   22.0588 C   0  0  0  0  0  0  0  0  0  0  0  0
  -25.7419  -20.2083   21.4718 C   0  0  0  0  0  0  0  0  0  0  0  0
  -26.5339  -13.4596   20.7380 C   0  0  0  0  0  0  0  0  0  0  0  0
  -29.0007  -13.9053   20.2647 C   0  0  0  0  0  0  0  0  0  0  0  0
  -22.4811  -29.5542   16.8615 C   0  0  0  0  0  0  0  0  0  0  0  0
  -21.5674  -27.6637   23.1673 C   0  0  0  0  0  0  0  0  0  0  0  0
  -22.8360  -28.7750   17.9792 C   0  0  0  0  0  0  0  0  0  0  0  0
  -22.6371  -27.4232   24.0415 C   0  0  0  0  0  0  0  0  0  0  0  0
  -26.6888  -20.1853   20.4718 C   0  0  0  0  0  0  0  0  0  0  0  0
  -24.1856  -11.9604   20.5932 C   0  0  0  0  0  0  0  0  0  0  0  0
  -21.9605  -25.0942   24.2089 C   0  0  0  0  0  0  0  0  0  0  0  0
  -23.1285   -9.8688   20.7662 C   0  0  0  0  0  0  0  0  0  0  0  0
  -23.3077   -7.1280   21.2543 C   0  0  0  0  0  0  0  0  0  0  0  0
  -22.4067   -9.2985   21.8148 C   0  0  0  0  0  0  0  0  0  0  0  0
  -27.7463  -14.2345   20.8125 C   0  0  0  0  0  0  0  0  0  0  0  0
  -24.8245  -19.1813   19.7060 C   0  0  0  0  0  0  0  0  0  0  0  0
  -29.8128  -14.9580   20.6093 C   0  0  0  0  0  0  0  0  0  0  0  0
  -29.3963  -12.7512   19.5116 C   0  0  0  0  0  0  0  0  0  0  0  0
  -23.5379  -29.5409   21.5251 C   0  0  0  0  0  0  0  0  0  0  0  0
  -23.8910  -31.0196   24.3906 C   0  0  0  0  0  0  0  0  0  0  0  0
  -28.6005  -20.6877   21.9560 C   0  0  0  0  0  0  0  0  0  0  0  0
  -23.7094  -30.8253   27.7930 C   0  0  0  0  0  0  0  0  0  0  0  0
  -23.0611  -30.9280   16.6357 C   0  0  0  0  0  0  0  0  0  0  0  0
  -21.3237  -29.0448   22.6237 C   0  0  0  0  0  0  0  0  0  0  0  0
  -23.5944  -28.5147   24.4423 C   0  0  0  0  0  0  0  0  0  0  0  0
  -23.6780  -31.5423   17.8897 C   0  0  0  0  0  0  0  0  0  0  0  0
  -30.3868  -18.3141   23.9598 C   0  0  0  0  0  0  0  0  0  0  0  0
  -24.5662  -30.5261   18.6004 C   0  0  0  0  0  0  0  0  0  0  0  0
  -30.0036  -16.9672   23.3479 C   0  0  0  0  0  0  0  0  0  0  0  0
  -29.2258  -19.3022   23.9063 C   0  0  0  0  0  0  0  0  0  0  0  0
  -28.2831  -18.1639   21.9221 C   0  0  0  0  0  0  0  0  0  0  0  0
  -23.7544  -29.3080   19.0574 C   0  0  1  0  0  0  0  0  0  0  0  0
  -22.5770  -29.9145   22.6181 C   0  0  1  0  0  0  0  0  0  0  0  0
  -29.4375  -17.1462   21.9281 C   0  0  2  0  0  0  0  0  0  0  0  0
  -20.7399  -20.0064   21.8716 C   0  0  0  0  0  0  0  0  0  0  0  0
  -24.1394  -17.0598   22.6142 C   0  0  0  0  0  0  0  0  0  0  0  0
  -24.1636  -17.0004   18.6308 C   0  0  0  0  0  0  0  0  0  0  0  0
  -24.0951  -32.1843   29.8670 C   0  0  0  0  0  0  0  0  0  0  0  0
  -28.0972  -22.2283   20.1042 C   0  0  0  0  0  0  0  0  0  0  0  0
  -29.1555  -20.0001   19.7181 C   0  0  0  0  0  0  0  0  0  0  0  0
  -22.6561  -20.6181   17.9220 C   0  0  0  0  0  0  0  0  0  0  0  0
  -22.1825  -18.3800   16.9162 C   0  0  0  0  0  0  0  0  0  0  0  0
  -24.4051  -19.4452   16.5885 C   0  0  0  0  0  0  0  0  0  0  0  0
  -26.9030  -30.6553   24.0663 C   0  0  0  0  0  0  0  0  0  0  0  0
  -27.1544  -31.1401   26.5097 C   0  0  0  0  0  0  0  0  0  0  0  0
  -26.2139  -32.8766   24.9857 C   0  0  0  0  0  0  0  0  0  0  0  0
  -20.8751  -30.5926   28.6123 C   0  0  0  0  0  0  0  0  0  0  0  0
  -22.0711  -20.1063   21.1313 C   0  0  0  0  0  0  0  0  0  0  0  0
  -23.0208  -17.8719   21.9670 C   0  0  0  0  0  0  0  0  0  0  0  0
  -23.3658  -21.5046   23.3918 C   0  0  0  0  0  0  0  0  0  0  0  0
  -23.6686  -21.9587   24.8251 C   0  0  0  0  0  0  0  0  0  0  0  0
  -23.5132  -19.9810   23.2554 C   0  0  0  0  0  0  0  0  0  0  0  0
  -23.4994  -23.4631   25.0008 C   0  0  0  0  0  0  0  0  0  1  0  0
  -23.7851  -18.4838   18.9210 C   0  0  2  0  0  0  0  0  0  0  0  0
  -24.8154  -30.8537   25.5725 C   0  0  1  0  0  0  0  0  0  0  0  0
  -23.0803  -31.7467   28.8224 C   0  0  2  0  0  0  0  0  0  0  0  0
  -28.0552  -20.7359   20.5509 C   0  0  0  0  0  0  0  0  0  0  0  0
  -23.2641  -19.2372   17.6113 C   0  0  0  0  0  0  0  0  0  0  0  0
  -26.2550  -31.3602   25.2747 C   0  0  0  0  0  0  0  0  0  0  0  0
  -23.3022  -19.4081   21.8073 C   0  0  0  0  0  0  0  0  0  0  0  0
  -27.7559  -15.4047   21.4563 N   0  0  0  0  0  0  0  0  0  0  0  0
  -24.6126  -19.5956   20.9950 N   0  0  0  0  0  0  0  0  0  0  0  0
  -29.0262  -15.8200   21.3154 N   0  0  0  0  0  0  0  0  0  0  0  0
  -23.3177  -29.8466   23.8795 N   0  0  0  0  0  0  0  0  0  0  0  0
  -28.7017  -19.4272   22.5451 N   0  0  0  0  0  0  0  0  0  0  0  0
  -31.1158  -15.2211   20.3743 N   0  0  0  0  0  0  0  0  0  0  0  0
  -28.4364  -11.7649   19.2468 N   0  0  0  0  0  0  0  0  0  0  0  0
  -23.0028  -29.6216   20.2537 N   0  0  0  0  0  0  0  0  0  0  0  0
  -24.1669  -31.5229   26.6950 N   0  0  0  0  0  0  0  0  0  0  0  0
  -21.9576  -31.0563   29.5180 N   0  3  0  0  0  0  0  0  0  0  0  0
  -30.5705  -12.5913   19.1003 O   0  0  0  0  0  0  0  0  0  0  0  0
  -24.6807  -29.2057   21.8138 O   0  0  0  0  0  0  0  0  0  0  0  0
  -23.6797  -32.1491   23.9420 O   0  0  0  0  0  0  0  0  0  0  0  0
  -28.9288  -21.7396   22.5108 O   0  0  0  0  0  0  0  0  0  0  0  0
  -23.7906  -29.6089   27.9490 O   0  0  0  0  0  0  0  0  0  0  0  0
  -23.0400  -11.2291   20.5221 O   0  0  0  0  0  0  0  0  0  0  0  0
  -22.1588  -23.8363   24.7172 O   0  0  0  0  0  0  0  0  0  1  0  0
  -23.3927   -5.8118   21.4877 F   0  0  0  0  0  0  0  0  0  0  0  0
  -21.6247  -10.0619   22.5903 F   0  0  0  0  0  0  0  0  0  0  0  0
  1  2  1  0  0  0  0
  1  5  2  0  0  0  0
  2  6  2  0  0  0  0
  3  8  2  0  0  0  0
  3 17  1  0  0  0  0
  4  9  1  0  0  0  0
  4 17  2  0  0  0  0
  5 19  1  0  0  0  0
  6 21  1  0  0  0  0
  7 10  2  0  0  0  0
  7 20  1  0  0  0  0
  8 24  1  0  0  0  0
  9 24  2  0  0  0  0
 10 25  1  0  0  0  0
 11 12  2  0  0  0  0
 11 26  1  0  0  0  0
 12 27  1  0  0  0  0
 13 22  1  0  0  0  0
 13 25  2  0  0  0  0
 14 23  1  0  0  0  0
 14 30  2  0  0  0  0
 15 27  2  0  0  0  0
 15 28  1  0  0  0  0
 16 23  2  0  0  0  0
 16 76  1  0  0  0  0
 17 29  1  0  0  0  0
 18 29  1  0  0  0  0
 18 31  2  0  0  0  0
 18 32  1  0  0  0  0
 19 21  2  0  0  0  0
 19 37  1  0  0  0  0
 20 22  2  0  0  0  0
 20 38  1  0  0  0  0
 21 46  1  0  0  0  0
 22 39  1  0  0  0  0
 23 71  1  0  0  0  0
 24 90  1  0  0  0  0
 25 91  1  0  0  0  0
 26 28  2  0  0  0  0
 26 90  1  0  0  0  0
 27 92  1  0  0  0  0
 28 93  1  0  0  0  0
 29 75  2  0  0  0  0
 30 68  1  0  0  0  0
 30 76  1  0  0  0  0
 31 77  1  0  0  0  0
 31 80  1  0  0  0  0
 32 81  1  0  0  0  0
 32 85  2  0  0  0  0
 33 47  1  0  0  0  0
 33 82  1  0  0  0  0
 33 86  2  0  0  0  0
 34 69  1  0  0  0  0
 34 78  1  0  0  0  0
 34 87  2  0  0  0  0
 35 71  1  0  0  0  0
 35 79  1  0  0  0  0
 35 88  2  0  0  0  0
 36 70  1  0  0  0  0
 36 83  1  0  0  0  0
 36 89  2  0  0  0  0
 37 40  1  0  0  0  0
 38 47  1  0  0  0  0
 39 78  1  0  0  0  0
 40 42  1  0  0  0  0
 41 43  1  0  0  0  0
 41 44  1  0  0  0  0
 42 46  1  0  0  0  0
 43 48  1  0  0  0  0
 44 79  1  0  0  0  0
 45 48  1  0  0  0  0
 45 79  1  0  0  0  0
 46 82  1  0  0  0  0
 47 78  1  0  0  0  0
 48 77  1  0  0  0  0
 49 62  1  0  0  0  0
 50 63  1  0  0  0  0
 51 68  1  0  0  0  0
 52 70  1  0  0  0  0
 53 71  1  0  0  0  0
 54 71  1  0  0  0  0
 55 72  1  0  0  0  0
 56 72  1  0  0  0  0
 57 72  1  0  0  0  0
 58 73  1  0  0  0  0
 59 73  1  0  0  0  0
 60 73  1  0  0  0  0
 61 84  1  0  0  0  0
 62 74  1  0  0  0  0
 63 74  1  0  0  0  0
 64 65  1  0  0  0  0
 64 66  1  0  0  0  0
 65 67  1  0  0  0  0
 66 74  1  0  0  0  0
 67 91  1  0  0  0  0
 68 72  1  0  0  0  0
 69 73  1  0  0  0  0
 69 83  1  0  0  0  0
 70 84  1  0  0  0  0
 74 76  1  0  0  0  0
 75 77  1  0  0  0  0
M  CHG  1  84   1
M  ISO  4  35 100  67 101  71 100  91 101
M  END
> <Batch ID>
0070

> <Smiles>
CCC(CC)(CCC[101CH2:1][101O:1]c1ccc2c(c1)CN(C(=O)C(NC(=O)C(C)NC)C(C)(C)C)C(C(=O)NC1CCCc3ccccc31)C2)n1cc([100C:0](C)(C)[100C:0](=O)N2CCCC(n3nc(-c4ccc(Oc5ccc(F)cc5F)cc4)c(C(N)=O)c3N)C2)cc1C(C)C(C)(C)C

> <Shape>
0.246

> <Color>
0.073

> <Negative vol penalty>
0.000

$$$$

  -OEChem-04052318193D

 88 96  0     1  0  0  0  0  0999 V2000
  -21.7964  -11.8617   21.8201 C   0  0  0  0  0  0  0  0  0  0  0  0
  -22.0396  -13.0879   22.4304 C   0  0  0  0  0  0  0  0  0  0  0  0
  -28.7817  -25.7121   24.3776 C   0  0  0  0  0  0  0  0  0  0  0  0
  -27.3642  -24.1117   23.2523 C   0  0  0  0  0  0  0  0  0  0  0  0
  -22.7793  -11.2724   21.0260 C   0  0  0  0  0  0  0  0  0  0  0  0
  -23.2664  -13.7252   22.2479 C   0  0  0  0  0  0  0  0  0  0  0  0
  -22.7621  -18.6714   21.2857 C   0  0  0  0  0  0  0  0  0  0  0  0
  -28.9176  -24.8351   25.4537 C   0  0  0  0  0  0  0  0  0  0  0  0
  -27.5002  -23.2346   24.3284 C   0  0  0  0  0  0  0  0  0  0  0  0
  -22.4975  -19.5072   22.3698 C   0  0  0  0  0  0  0  0  0  0  0  0
  -27.1808  -20.7220   26.9350 C   0  0  0  0  0  0  0  0  0  0  0  0
  -26.0299  -20.0900   27.4057 C   0  0  0  0  0  0  0  0  0  0  0  0
  -24.8251  -20.1363   22.4453 C   0  0  0  0  0  0  0  0  0  0  0  0
  -25.0504  -22.2424   27.9007 C   0  0  0  0  0  0  0  0  0  0  0  0
  -28.0049  -25.3505   23.2769 C   0  0  0  0  0  0  0  0  0  0  0  0
  -28.6824  -26.3341   21.0228 C   0  0  0  0  0  0  0  0  0  0  0  0
  -24.0152  -11.9073   20.8259 C   0  0  0  0  0  0  0  0  0  0  0  0
  -24.0645  -18.5533   20.7794 C   0  0  0  0  0  0  0  0  0  0  0  0
  -24.2672  -13.1432   21.4515 C   0  0  0  0  0  0  0  0  0  0  0  0
  -25.1032  -19.3003   21.3531 C   0  0  0  0  0  0  0  0  0  0  0  0
  -19.0029  -23.3948   22.9951 C   0  0  0  0  0  0  0  0  0  0  0  0
  -20.0921  -24.0647   23.6050 C   0  0  0  0  0  0  0  0  0  0  0  0
  -28.2769  -23.5964   25.4291 C   0  0  0  0  0  0  0  0  0  0  0  0
  -23.5295  -20.2376   22.9516 C   0  0  0  0  0  0  0  0  0  0  0  0
  -27.2666  -22.1142   26.9472 C   0  0  0  0  0  0  0  0  0  0  0  0
  -24.9647  -20.8502   27.8885 C   0  0  0  0  0  0  0  0  0  0  0  0
  -26.2013  -22.8744   27.4300 C   0  0  0  0  0  0  0  0  0  0  0  0
  -27.8636  -26.2562   22.1653 C   0  0  0  0  0  0  0  0  0  0  0  0
  -18.7288  -24.0467   21.8131 C   0  0  0  0  0  0  0  0  0  0  0  0
  -20.4503  -25.1058   22.7772 C   0  0  0  0  0  0  0  0  0  0  0  0
  -28.1324  -27.3460   20.2745 C   0  0  0  0  0  0  0  0  0  0  0  0
  -29.8369  -25.5607   20.6694 C   0  0  0  0  0  0  0  0  0  0  0  0
  -26.1504  -16.1726   20.4876 C   0  0  0  0  0  0  0  0  0  0  0  0
  -27.8733  -18.3983   18.8750 C   0  0  0  0  0  0  0  0  0  0  0  0
  -28.5347  -21.6979   18.3077 C   0  0  0  0  0  0  0  0  0  0  0  0
  -22.6165  -29.6549   19.9669 C   0  0  0  0  0  0  0  0  0  0  0  0
  -25.0643  -11.2090   19.9973 C   0  0  0  0  0  0  0  0  0  0  0  0
  -24.3286  -17.6678   19.5925 C   0  0  0  0  0  0  0  0  0  0  0  0
  -26.5150  -19.2244   20.8340 C   0  0  0  0  0  0  0  0  0  0  0  0
  -26.1986  -12.1277   19.5506 C   0  0  0  0  0  0  0  0  0  0  0  0
  -25.6278  -31.3979   20.7221 C   0  0  0  0  0  0  0  0  0  0  0  0
  -26.6925  -12.9735   20.7200 C   0  0  0  0  0  0  0  0  0  0  0  0
  -26.6162  -30.2848   21.0745 C   0  0  0  0  0  0  0  0  0  0  0  0
  -24.2177  -31.0766   21.2124 C   0  0  0  0  0  0  0  0  0  0  0  0
  -24.6803  -28.6574   21.1255 C   0  0  0  0  0  0  0  0  0  0  0  0
  -25.5763  -13.8773   21.2574 C   0  0  1  0  0  0  0  0  0  0  0  0
  -25.7864  -17.2312   19.4854 C   0  0  1  0  0  0  0  0  0  0  0  0
  -26.1046  -28.9105   20.6025 C   0  0  2  0  0  0  0  0  0  0  0  0
  -18.2913  -22.2138   23.5259 C   0  0  0  0  0  0  0  0  0  0  0  0
  -17.6992  -23.7695   20.7888 C   0  0  0  0  0  0  0  0  0  0  0  0
  -21.5152  -26.1205   22.9280 C   0  0  0  0  0  0  0  0  0  0  0  0
  -30.0217  -23.2058   16.9615 C   0  0  0  0  0  0  0  0  0  0  0  0
  -30.1981  -17.7760   20.7505 C   0  0  0  0  0  0  0  0  0  0  0  0
  -31.2781  -19.9086   20.0065 C   0  0  0  0  0  0  0  0  0  0  0  0
  -30.8453  -18.0896   18.3553 C   0  0  0  0  0  0  0  0  0  0  0  0
  -19.6434  -26.4475   17.5319 C   0  0  0  0  0  0  0  0  0  0  0  0
  -22.1223  -26.1807   17.5065 C   0  0  0  0  0  0  0  0  0  0  0  0
  -26.2265  -22.9387   16.9324 C   0  0  0  0  0  0  0  0  0  0  0  0
  -20.7396  -23.7085   24.9193 C   0  0  0  0  0  0  0  0  0  0  0  0
  -22.0843  -22.9937   24.7698 C   0  0  0  0  0  0  0  0  0  0  0  0
  -20.8056  -25.6875   19.6207 C   0  0  0  0  0  0  0  0  0  0  0  0
  -19.6597  -26.0192   20.5857 C   0  0  0  0  0  0  0  0  0  0  0  0
  -21.1123  -28.1040   18.7457 C   0  0  0  0  0  0  0  0  0  0  0  0
  -21.9743  -21.6386   24.0806 C   0  0  0  0  0  0  0  0  0  1  0  0
  -28.9029  -19.4348   19.2550 C   0  0  1  0  0  0  0  0  0  0  0  0
  -28.6818  -22.4889   17.0205 C   0  0  2  0  0  0  0  0  0  0  0  0
  -30.2800  -18.8024   19.6031 C   0  0  0  0  0  0  0  0  0  0  0  0
  -20.9250  -26.6134   18.3770 C   0  0  0  0  0  0  0  0  0  0  0  0
  -26.8692  -27.1478   22.1487 N   0  0  0  0  0  0  0  0  0  0  0  0
  -19.6146  -25.0853   21.6912 N   0  0  0  0  0  0  0  0  0  0  0  0
  -27.0597  -27.7956   20.9867 N   0  0  0  0  0  0  0  0  0  0  0  0
  -26.7239  -18.3399   19.6758 N   0  0  0  0  0  0  0  0  0  0  0  0
  -23.7918  -29.7611   20.7287 N   0  0  0  0  0  0  0  0  0  0  0  0
  -28.4667  -27.8864   19.0834 N   0  0  0  0  0  0  0  0  0  0  0  0
  -30.2667  -24.5605   21.5521 N   0  0  0  0  0  0  0  0  0  0  0  0
  -25.3916  -15.0218   20.3912 N   0  0  0  0  0  0  0  0  0  0  0  0
  -28.9455  -20.3907   18.1537 N   0  0  0  0  0  0  0  0  0  0  0  0
  -22.2883  -28.3730   19.5429 N   0  0  0  0  0  0  0  0  0  0  0  0
  -27.5989  -23.5070   16.9114 N   0  3  0  0  0  0  0  0  0  0  0  0
  -30.4782  -25.7620   19.6103 O   0  0  0  0  0  0  0  0  0  0  0  0
  -27.0539  -16.3837   21.2882 O   0  0  0  0  0  0  0  0  0  0  0  0
  -28.0779  -17.6721   17.8991 O   0  0  0  0  0  0  0  0  0  0  0  0
  -28.1023  -22.1913   19.3470 O   0  0  0  0  0  0  0  0  0  0  0  0
  -21.9147  -30.6309   19.6810 O   0  0  0  0  0  0  0  0  0  0  0  0
  -28.4096  -22.7402   26.4788 O   0  0  0  0  0  0  0  0  0  0  0  0
  -23.2740  -21.0536   24.0102 O   0  0  0  0  0  0  0  0  0  1  0  0
  -23.8589  -20.2432   28.3390 F   0  0  0  0  0  0  0  0  0  0  0  0
  -26.2774  -24.2122   27.4431 F   0  0  0  0  0  0  0  0  0  0  0  0
  1  2  1  0  0  0  0
  1  5  2  0  0  0  0
  2  6  2  0  0  0  0
  3  8  2  0  0  0  0
  3 15  1  0  0  0  0
  4  9  1  0  0  0  0
  4 15  2  0  0  0  0
  5 17  1  0  0  0  0
  6 19  1  0  0  0  0
  7 10  2  0  0  0  0
  7 18  1  0  0  0  0
  8 23  1  0  0  0  0
  9 23  2  0  0  0  0
 10 24  1  0  0  0  0
 11 12  2  0  0  0  0
 11 25  1  0  0  0  0
 12 26  1  0  0  0  0
 13 20  1  0  0  0  0
 13 24  2  0  0  0  0
 14 26  2  0  0  0  0
 14 27  1  0  0  0  0
 15 28  1  0  0  0  0
 16 28  1  0  0  0  0
 16 31  2  0  0  0  0
 16 32  1  0  0  0  0
 17 19  2  0  0  0  0
 17 37  1  0  0  0  0
 18 20  2  0  0  0  0
 18 38  1  0  0  0  0
 19 46  1  0  0  0  0
 20 39  1  0  0  0  0
 21 22  1  0  0  0  0
 21 29  2  0  0  0  0
 21 49  1  0  0  0  0
 22 30  2  0  0  0  0
 22 59  1  0  0  0  0
 23 85  1  0  0  0  0
 24 86  1  0  0  0  0
 25 27  2  0  0  0  0
 25 85  1  0  0  0  0
 26 87  1  0  0  0  0
 27 88  1  0  0  0  0
 28 69  2  0  0  0  0
 29 50  1  0  0  0  0
 29 70  1  0  0  0  0
 30 51  1  0  0  0  0
 30 70  1  0  0  0  0
 31 71  1  0  0  0  0
 31 74  1  0  0  0  0
 32 75  1  0  0  0  0
 32 80  2  0  0  0  0
 33 47  1  0  0  0  0
 33 76  1  0  0  0  0
 33 81  2  0  0  0  0
 34 65  1  0  0  0  0
 34 72  1  0  0  0  0
 34 82  2  0  0  0  0
 35 66  1  0  0  0  0
 35 77  1  0  0  0  0
 35 83  2  0  0  0  0
 36 73  1  0  0  0  0
 36 78  1  0  0  0  0
 36 84  2  0  0  0  0
 37 40  1  0  0  0  0
 38 47  1  0  0  0  0
 39 72  1  0  0  0  0
 40 42  1  0  0  0  0
 41 43  1  0  0  0  0
 41 44  1  0  0  0  0
 42 46  1  0  0  0  0
 43 48  1  0  0  0  0
 44 73  1  0  0  0  0
 45 48  1  0  0  0  0
 45 73  1  0  0  0  0
 46 76  1  0  0  0  0
 47 72  1  0  0  0  0
 48 71  1  0  0  0  0
 52 66  1  0  0  0  0
 53 67  1  0  0  0  0
 54 67  1  0  0  0  0
 55 67  1  0  0  0  0
 56 68  1  0  0  0  0
 57 68  1  0  0  0  0
 58 79  1  0  0  0  0
 59 60  1  0  0  0  0
 60 64  1  0  0  0  0
 61 62  1  0  0  0  0
 61 68  1  0  0  0  0
 62 70  1  0  0  0  0
 63 68  1  0  0  0  0
 63 78  1  0  0  0  0
 64 86  1  0  0  0  0
 65 67  1  0  0  0  0
 65 77  1  0  0  0  0
 66 79  1  0  0  0  0
 69 71  1  0  0  0  0
M  CHG  1  79   1
M  ISO  4  36 100  64 101  78 100  86 101
M  END
> <Batch ID>
0070

> <Smiles>
CNC(C)C(=O)NC(C(=O)N1Cc2cc([101O:1][101CH2:1]CCc3c(C)c(C)n(CCC(C)(C)C[100NH:0][100C:0](=O)N4CCCC(n5nc(-c6ccc(Oc7ccc(F)cc7F)cc6)c(C(N)=O)c5N)C4)c3C)ccc2CC1C(=O)NC1CCCc2ccccc21)C(C)(C)C

> <Shape>
0.196

> <Color>
0.075

> <Negative vol penalty>
0.000

$$$$

  -OEChem-04052318193D

 85 93  0     1  0  0  0  0  0999 V2000
  -16.8099  -23.1223   30.8731 C   0  0  0  0  0  0  0  0  0  0  0  0
  -17.5615  -23.4668   29.7542 C   0  0  0  0  0  0  0  0  0  0  0  0
  -23.0746   -9.8681   19.9415 C   0  0  0  0  0  0  0  0  0  0  0  0
  -23.8383   -9.8743   22.2336 C   0  0  0  0  0  0  0  0  0  0  0  0
  -17.3310  -22.2371   31.8158 C   0  0  0  0  0  0  0  0  0  0  0  0
  -18.8351  -22.9270   29.5780 C   0  0  0  0  0  0  0  0  0  0  0  0
  -23.3344  -20.8032   24.4241 C   0  0  0  0  0  0  0  0  0  0  0  0
  -22.3322   -8.7142   20.1919 C   0  0  0  0  0  0  0  0  0  0  0  0
  -23.0958   -8.7203   22.4840 C   0  0  0  0  0  0  0  0  0  0  0  0
  -24.6467  -20.9942   23.9940 C   0  0  0  0  0  0  0  0  0  0  0  0
  -19.8694   -7.9192   23.0914 C   0  0  0  0  0  0  0  0  0  0  0  0
  -19.1144   -7.8778   24.2635 C   0  0  0  0  0  0  0  0  0  0  0  0
  -25.4124  -19.4136   25.6477 C   0  0  0  0  0  0  0  0  0  0  0  0
  -20.3587   -5.9410   24.9966 C   0  0  0  0  0  0  0  0  0  0  0  0
  -30.1849  -20.9248   24.9753 C   0  0  0  0  0  0  0  0  0  0  0  0
  -31.7019  -20.7614   23.2719 C   0  0  0  0  0  0  0  0  0  0  0  0
  -23.8277  -10.4482   20.9623 C   0  0  0  0  0  0  0  0  0  0  0  0
  -24.1671  -12.9737   20.8434 C   0  0  0  0  0  0  0  0  0  0  0  0
  -18.6077  -21.6787   31.6462 C   0  0  0  0  0  0  0  0  0  0  0  0
  -23.0519  -19.9226   25.4783 C   0  0  0  0  0  0  0  0  0  0  0  0
  -19.3742  -22.0345   30.5200 C   0  0  0  0  0  0  0  0  0  0  0  0
  -24.0953  -19.2113   26.0876 C   0  0  0  0  0  0  0  0  0  0  0  0
  -22.3427   -8.1403   21.4632 C   0  0  0  0  0  0  0  0  0  0  0  0
  -25.6863  -20.3016   24.6078 C   0  0  0  0  0  0  0  0  0  0  0  0
  -20.8690   -6.9715   22.8718 C   0  0  0  0  0  0  0  0  0  0  0  0
  -19.3591   -6.8888   25.2161 C   0  0  0  0  0  0  0  0  0  0  0  0
  -21.1137   -5.9824   23.8244 C   0  0  0  0  0  0  0  0  0  0  0  0
  -24.5953  -11.6399   20.7041 C   0  0  0  0  0  0  0  0  0  0  0  0
  -29.3200  -20.1056   24.2836 C   0  0  0  0  0  0  0  0  0  0  0  0
  -30.8373  -19.9416   22.5805 C   0  0  0  0  0  0  0  0  0  0  0  0
  -25.2580  -13.7244   20.4788 C   0  0  0  0  0  0  0  0  0  0  0  0
  -22.8968  -13.4881   21.2647 C   0  0  0  0  0  0  0  0  0  0  0  0
  -21.7792  -20.2267   28.3751 C   0  0  0  0  0  0  0  0  0  0  0  0
  -21.9904  -16.9898   28.3816 C   0  0  0  0  0  0  0  0  0  0  0  0
  -23.6601  -13.8746   27.6570 C   0  0  0  0  0  0  0  0  0  0  0  0
  -30.7411  -14.7482   20.6587 C   0  0  0  0  0  0  0  0  0  0  0  0
  -19.1476  -20.7631   32.7161 C   0  0  0  0  0  0  0  0  0  0  0  0
  -21.6280  -19.7075   25.9127 C   0  0  0  0  0  0  0  0  0  0  0  0
  -23.8429  -18.2392   27.2100 C   0  0  0  0  0  0  0  0  0  0  0  0
  -20.3547  -19.9446   32.2652 C   0  0  0  0  0  0  0  0  0  0  0  0
  -29.6017  -12.3643   18.2723 C   0  0  0  0  0  0  0  0  0  0  0  0
  -21.3629  -20.8334   31.5438 C   0  0  0  0  0  0  0  0  0  0  0  0
  -28.1652  -12.0690   18.7074 C   0  0  0  0  0  0  0  0  0  0  0  0
  -30.5206  -12.5851   19.4718 C   0  0  0  0  0  0  0  0  0  0  0  0
  -28.6205  -13.3136   20.8620 C   0  0  0  0  0  0  0  0  0  0  0  0
  -20.7498  -21.4508   30.2811 C   0  0  1  0  0  0  0  0  0  0  0  0
  -21.5120  -19.1737   27.3371 C   0  0  1  0  0  0  0  0  0  0  0  0
  -27.6445  -13.1389   19.6859 C   0  0  2  0  0  0  0  0  0  0  0  0
  -22.9181  -11.5041   28.0145 C   0  0  0  0  0  0  0  0  0  0  0  0
  -32.7546  -19.1751   21.0310 C   0  0  0  0  0  0  0  0  0  0  0  0
  -30.8181  -20.3989   20.1028 C   0  0  0  0  0  0  0  0  0  0  0  0
  -23.5058  -17.2189   31.0200 C   0  0  0  0  0  0  0  0  0  0  0  0
  -24.2722  -14.8564   30.7046 C   0  0  0  0  0  0  0  0  0  0  0  0
  -21.8390  -15.3565   30.9326 C   0  0  0  0  0  0  0  0  0  0  0  0
  -24.0829  -13.1903   24.8089 C   0  0  0  0  0  0  0  0  0  0  0  0
  -27.9842  -19.7446   24.8638 C   0  0  0  0  0  0  0  0  0  1  0  0
  -30.8071  -16.8980   21.8969 C   0  0  0  0  0  0  0  0  0  0  0  0
  -23.0395  -15.9877   28.7990 C   0  0  1  0  0  0  0  0  0  0  0  0
  -23.0474  -12.6430   27.0150 C   0  0  2  0  0  0  0  0  0  0  0  0
  -31.2138  -19.3996   21.2461 C   0  0  0  0  0  0  0  0  0  0  0  0
  -23.1694  -15.8745   30.3442 C   0  0  0  0  0  0  0  0  0  0  0  0
  -30.5030  -18.0280   20.9191 C   0  0  0  0  0  0  0  0  0  0  0  0
  -31.3913  -21.2674   24.4818 N   0  0  0  0  0  0  0  0  0  0  0  0
  -25.8595  -11.5455   20.2836 N   0  0  0  0  0  0  0  0  0  0  0  0
  -29.6307  -19.5993   23.0738 N   0  0  0  0  0  0  0  0  0  0  0  0
  -26.2351  -12.8295   20.1555 N   0  0  0  0  0  0  0  0  0  0  0  0
  -22.4344  -18.0680   27.6032 N   0  0  0  0  0  0  0  0  0  0  0  0
  -29.9706  -13.6125   20.3594 N   0  0  0  0  0  0  0  0  0  0  0  0
  -25.4671  -15.0561   20.4063 N   0  0  0  0  0  0  0  0  0  0  0  0
  -21.8863  -12.5778   21.6031 N   0  0  0  0  0  0  0  0  0  0  0  0
  -20.7080  -20.4769   29.2114 N   0  0  0  0  0  0  0  0  0  0  0  0
  -22.6947  -14.7352   28.1351 N   0  0  0  0  0  0  0  0  0  0  0  0
  -30.1425  -15.6759   21.5024 N   0  0  0  0  0  0  0  0  0  0  0  0
  -23.8913  -12.1772   25.8784 N   0  3  0  0  0  0  0  0  0  0  0  0
  -22.6596  -14.7185   21.3233 O   0  0  0  0  0  0  0  0  0  0  0  0
  -22.8765  -20.7708   28.4153 O   0  0  0  0  0  0  0  0  0  0  0  0
  -20.8188  -16.8182   28.7274 O   0  0  0  0  0  0  0  0  0  0  0  0
  -24.8739  -14.0534   27.7307 O   0  0  0  0  0  0  0  0  0  0  0  0
  -31.8761  -14.9250   20.2034 O   0  0  0  0  0  0  0  0  0  0  0  0
  -21.6182   -7.0143   21.7080 O   0  0  0  0  0  0  0  0  0  0  0  0
  -26.9682  -20.4867   24.1903 O   0  0  0  0  0  0  0  0  0  1  0  0
  -18.6350   -6.8501   26.3424 F   0  0  0  0  0  0  0  0  0  0  0  0
  -22.0735   -5.0699   23.6196 F   0  0  0  0  0  0  0  0  0  0  0  0
  -30.8348  -17.6066   19.6642 F   0  0  0  0  0  0  0  0  0  0  0  0
  -29.1554  -18.2239   20.8941 F   0  0  0  0  0  0  0  0  0  0  0  0
  1  2  1  0  0  0  0
  1  5  2  0  0  0  0
  2  6  2  0  0  0  0
  3  8  2  0  0  0  0
  3 17  1  0  0  0  0
  4  9  1  0  0  0  0
  4 17  2  0  0  0  0
  5 19  1  0  0  0  0
  6 21  1  0  0  0  0
  7 10  2  0  0  0  0
  7 20  1  0  0  0  0
  8 23  1  0  0  0  0
  9 23  2  0  0  0  0
 10 24  1  0  0  0  0
 11 12  2  0  0  0  0
 11 25  1  0  0  0  0
 12 26  1  0  0  0  0
 13 22  1  0  0  0  0
 13 24  2  0  0  0  0
 14 26  2  0  0  0  0
 14 27  1  0  0  0  0
 15 29  1  0  0  0  0
 15 63  2  0  0  0  0
 16 30  2  0  0  0  0
 16 63  1  0  0  0  0
 17 28  1  0  0  0  0
 18 28  1  0  0  0  0
 18 31  2  0  0  0  0
 18 32  1  0  0  0  0
 19 21  2  0  0  0  0
 19 37  1  0  0  0  0
 20 22  2  0  0  0  0
 20 38  1  0  0  0  0
 21 46  1  0  0  0  0
 22 39  1  0  0  0  0
 23 80  1  0  0  0  0
 24 81  1  0  0  0  0
 25 27  2  0  0  0  0
 25 80  1  0  0  0  0
 26 82  1  0  0  0  0
 27 83  1  0  0  0  0
 28 64  2  0  0  0  0
 29 56  1  0  0  0  0
 29 65  2  0  0  0  0
 30 60  1  0  0  0  0
 30 65  1  0  0  0  0
 31 66  1  0  0  0  0
 31 69  1  0  0  0  0
 32 70  1  0  0  0  0
 32 75  2  0  0  0  0
 33 47  1  0  0  0  0
 33 71  1  0  0  0  0
 33 76  2  0  0  0  0
 34 58  1  0  0  0  0
 34 67  1  0  0  0  0
 34 77  2  0  0  0  0
 35 59  1  0  0  0  0
 35 72  1  0  0  0  0
 35 78  2  0  0  0  0
 36 68  1  0  0  0  0
 36 73  1  0  0  0  0
 36 79  2  0  0  0  0
 37 40  1  0  0  0  0
 38 47  1  0  0  0  0
 39 67  1  0  0  0  0
 40 42  1  0  0  0  0
 41 43  1  0  0  0  0
 41 44  1  0  0  0  0
 42 46  1  0  0  0  0
 43 48  1  0  0  0  0
 44 68  1  0  0  0  0
 45 48  1  0  0  0  0
 45 68  1  0  0  0  0
 46 71  1  0  0  0  0
 47 67  1  0  0  0  0
 48 66  1  0  0  0  0
 49 59  1  0  0  0  0
 50 60  1  0  0  0  0
 51 60  1  0  0  0  0
 52 61  1  0  0  0  0
 53 61  1  0  0  0  0
 54 61  1  0  0  0  0
 55 74  1  0  0  0  0
 56 81  1  0  0  0  0
 57 62  1  0  0  0  0
 57 73  1  0  0  0  0
 58 61  1  0  0  0  0
 58 72  1  0  0  0  0
 59 74  1  0  0  0  0
 60 62  1  0  0  0  0
 62 84  1  0  0  0  0
 62 85  1  0  0  0  0
 64 66  1  0  0  0  0
M  CHG  1  74   1
M  ISO  4  36 100  56 101  73 100  81 101
M  END
> <Batch ID>
0070

> <Smiles>
CNC(C)C(=O)NC(C(=O)N1Cc2cc([101O:1][101CH2:1]c3cncc(C(C)(C)C(F)(F)C[100NH:0][100C:0](=O)N4CCCC(n5nc(-c6ccc(Oc7ccc(F)cc7F)cc6)c(C(N)=O)c5N)C4)n3)ccc2CC1C(=O)NC1CCCc2ccccc21)C(C)(C)C

> <Shape>
0.180

> <Color>
0.187

> <Negative vol penalty>
0.000

$$$$

  -OEChem-04052318193D

 84 92  0     1  0  0  0  0  0999 V2000
  -27.2448  -32.5486   27.2161 C   0  0  0  0  0  0  0  0  0  0  0  0
  -27.5692  -31.5508   26.3026 C   0  0  0  0  0  0  0  0  0  0  0  0
  -24.3788  -14.1279   21.9169 C   0  0  0  0  0  0  0  0  0  0  0  0
  -26.6286  -13.9660   21.0513 C   0  0  0  0  0  0  0  0  0  0  0  0
  -25.9133  -32.7617   27.5704 C   0  0  0  0  0  0  0  0  0  0  0  0
  -26.5623  -30.7647   25.7436 C   0  0  0  0  0  0  0  0  0  0  0  0
  -27.1226  -30.1531   20.7479 C   0  0  0  0  0  0  0  0  0  0  0  0
  -24.0270  -12.9727   21.2188 C   0  0  0  0  0  0  0  0  0  0  0  0
  -26.2769  -12.8107   20.3532 C   0  0  0  0  0  0  0  0  0  0  0  0
  -28.0727  -29.2257   20.3226 C   0  0  0  0  0  0  0  0  0  0  0  0
  -24.4063   -9.6321   21.5787 C   0  0  0  0  0  0  0  0  0  0  0  0
  -23.6613   -8.6669   22.2561 C   0  0  0  0  0  0  0  0  0  0  0  0
  -26.3204  -27.6101   19.9504 C   0  0  0  0  0  0  0  0  0  0  0  0
  -31.3395  -26.3967   17.7073 C   0  0  0  0  0  0  0  0  0  0  0  0
  -31.0898  -25.2473   19.8052 C   0  0  0  0  0  0  0  0  0  0  0  0
  -21.8878   -8.8955   20.6314 C   0  0  0  0  0  0  0  0  0  0  0  0
  -25.6795  -14.6246   21.8331 C   0  0  0  0  0  0  0  0  0  0  0  0
  -26.5532  -15.8985   23.8633 C   0  0  0  0  0  0  0  0  0  0  0  0
  -24.8886  -31.9842   27.0081 C   0  0  0  0  0  0  0  0  0  0  0  0
  -25.7631  -29.8118   20.7881 C   0  0  0  0  0  0  0  0  0  0  0  0
  -25.2159  -30.9666   26.0917 C   0  0  0  0  0  0  0  0  0  0  0  0
  -25.3547  -28.5359   20.3742 C   0  0  0  0  0  0  0  0  0  0  0  0
  -30.8165  -26.3434   18.9945 C   0  0  0  0  0  0  0  0  0  0  0  0
  -24.9761  -12.3141   20.4370 C   0  0  0  0  0  0  0  0  0  0  0  0
  -27.6721  -27.9531   19.9265 C   0  0  0  0  0  0  0  0  0  0  0  0
  -23.8921  -10.2291   20.4277 C   0  0  0  0  0  0  0  0  0  0  0  0
  -22.4021   -8.2985   21.7824 C   0  0  0  0  0  0  0  0  0  0  0  0
  -22.6329   -9.8608   19.9540 C   0  0  0  0  0  0  0  0  0  0  0  0
  -26.0433  -15.8182   22.5536 C   0  0  0  0  0  0  0  0  0  0  0  0
  -32.1237  -25.3367   17.2815 C   0  0  0  0  0  0  0  0  0  0  0  0
  -31.8850  -24.2387   19.2854 C   0  0  0  0  0  0  0  0  0  0  0  0
  -26.7340  -17.2427   24.0796 C   0  0  0  0  0  0  0  0  0  0  0  0
  -26.8380  -14.8515   24.8006 C   0  0  0  0  0  0  0  0  0  0  0  0
  -23.5711  -29.5967   23.0800 C   0  0  0  0  0  0  0  0  0  0  0  0
  -21.5727  -29.0666   20.5804 C   0  0  0  0  0  0  0  0  0  0  0  0
  -21.1812  -28.0230   17.3548 C   0  0  0  0  0  0  0  0  0  0  0  0
  -27.6389  -21.8791   20.4003 C   0  0  0  0  0  0  0  0  0  0  0  0
  -23.4684  -32.2202   27.4577 C   0  0  0  0  0  0  0  0  0  0  0  0
  -24.7478  -30.8324   21.2240 C   0  0  0  0  0  0  0  0  0  0  0  0
  -23.9053  -28.1265   20.3793 C   0  0  0  0  0  0  0  0  0  0  0  0
  -22.4256  -31.5923   26.5364 C   0  0  0  0  0  0  0  0  0  0  0  0
  -25.0104  -21.5106   22.7736 C   0  0  0  0  0  0  0  0  0  0  0  0
  -22.8117  -30.1571   26.1931 C   0  0  0  0  0  0  0  0  0  0  0  0
  -25.0231  -20.0172   23.1045 C   0  0  0  0  0  0  0  0  0  0  0  0
  -25.3349  -21.7656   21.3033 C   0  0  0  0  0  0  0  0  0  0  0  0
  -26.6012  -19.6561   21.1608 C   0  0  0  0  0  0  0  0  0  0  0  0
  -24.1495  -30.1096   25.4450 C   0  0  1  0  0  0  0  0  0  0  0  0
  -23.4447  -30.2077   21.7131 C   0  0  1  0  0  0  0  0  0  0  0  0
  -26.3345  -19.3521   22.6449 C   0  0  2  0  0  0  0  0  0  0  0  0
  -32.7031  -25.3604   15.9066 C   0  0  0  0  0  0  0  0  0  0  0  0
  -19.4239  -27.6668   15.5991 C   0  0  0  0  0  0  0  0  0  0  0  0
  -33.1033  -21.9626   19.4484 C   0  0  0  0  0  0  0  0  0  0  0  0
  -32.9925  -23.4851   21.4014 C   0  0  0  0  0  0  0  0  0  0  0  0
  -20.6709  -26.5223   22.0027 C   0  0  0  0  0  0  0  0  0  0  0  0
  -19.6746  -25.7495   19.8397 C   0  0  0  0  0  0  0  0  0  0  0  0
  -18.8268  -27.8270   20.9296 C   0  0  0  0  0  0  0  0  0  0  0  0
  -22.4421  -29.9824   15.5300 C   0  0  0  0  0  0  0  0  0  0  0  0
  -29.9615  -27.4649   19.5071 C   0  0  0  0  0  0  0  0  0  1  0  0
  -30.9033  -22.3037   20.6422 C   0  0  0  0  0  0  0  0  0  0  0  0
  -29.9630  -21.8340   19.5311 C   0  0  0  0  0  0  0  0  0  0  0  0
  -21.1024  -27.8453   19.8280 C   0  0  1  0  0  0  0  0  0  0  0  0
  -20.4407  -28.6369   16.1803 C   0  0  2  0  0  0  0  0  0  0  0  0
  -32.1970  -23.0466   20.1271 C   0  0  0  0  0  0  0  0  0  0  0  0
  -20.0963  -26.9928   20.6516 C   0  0  0  0  0  0  0  0  0  0  0  0
  -25.9087  -17.0161   21.9783 N   0  0  0  0  0  0  0  0  0  0  0  0
  -32.4109  -24.2552   18.0401 N   0  0  0  0  0  0  0  0  0  0  0  0
  -26.3366  -17.8618   22.9311 N   0  0  0  0  0  0  0  0  0  0  0  0
  -22.9511  -29.1576   20.8199 N   0  0  0  0  0  0  0  0  0  0  0  0
  -26.5909  -21.1095   20.9320 N   0  0  0  0  0  0  0  0  0  0  0  0
  -27.1925  -17.9438   25.1382 N   0  0  0  0  0  0  0  0  0  0  0  0
  -26.5939  -13.5260   24.4162 N   0  0  0  0  0  0  0  0  0  0  0  0
  -23.9675  -30.4869   24.0597 N   0  0  0  0  0  0  0  0  0  0  0  0
  -20.5758  -28.3273   18.5557 N   0  0  0  0  0  0  0  0  0  0  0  0
  -28.7965  -21.1800   20.0810 N   0  0  0  0  0  0  0  0  0  0  0  0
  -21.3994  -29.0139   15.1035 N   0  3  0  0  0  0  0  0  0  0  0  0
  -27.2799  -15.0857   25.9510 O   0  0  0  0  0  0  0  0  0  0  0  0
  -23.3256  -28.4061   23.2346 O   0  0  0  0  0  0  0  0  0  0  0  0
  -20.7482  -29.9124   20.9361 O   0  0  0  0  0  0  0  0  0  0  0  0
  -22.1932  -27.3387   17.2201 O   0  0  0  0  0  0  0  0  0  0  0  0
  -27.5513  -23.0996   20.2283 O   0  0  0  0  0  0  0  0  0  0  0  0
  -24.6333  -11.1866   19.7558 O   0  0  0  0  0  0  0  0  0  0  0  0
  -28.5975  -27.0457   19.5115 O   0  0  0  0  0  0  0  0  0  1  0  0
  -21.6874   -7.3705   22.4322 F   0  0  0  0  0  0  0  0  0  0  0  0
  -22.1341  -10.4300   18.8481 F   0  0  0  0  0  0  0  0  0  0  0  0
  1  2  1  0  0  0  0
  1  5  2  0  0  0  0
  2  6  2  0  0  0  0
  3  8  2  0  0  0  0
  3 17  1  0  0  0  0
  4  9  1  0  0  0  0
  4 17  2  0  0  0  0
  5 19  1  0  0  0  0
  6 21  1  0  0  0  0
  7 10  2  0  0  0  0
  7 20  1  0  0  0  0
  8 24  1  0  0  0  0
  9 24  2  0  0  0  0
 10 25  1  0  0  0  0
 11 12  2  0  0  0  0
 11 26  1  0  0  0  0
 12 27  1  0  0  0  0
 13 22  1  0  0  0  0
 13 25  2  0  0  0  0
 14 23  1  0  0  0  0
 14 30  2  0  0  0  0
 15 23  2  0  0  0  0
 15 31  1  0  0  0  0
 16 27  2  0  0  0  0
 16 28  1  0  0  0  0
 17 29  1  0  0  0  0
 18 29  1  0  0  0  0
 18 32  2  0  0  0  0
 18 33  1  0  0  0  0
 19 21  2  0  0  0  0
 19 38  1  0  0  0  0
 20 22  2  0  0  0  0
 20 39  1  0  0  0  0
 21 47  1  0  0  0  0
 22 40  1  0  0  0  0
 23 58  1  0  0  0  0
 24 81  1  0  0  0  0
 25 82  1  0  0  0  0
 26 28  2  0  0  0  0
 26 81  1  0  0  0  0
 27 83  1  0  0  0  0
 28 84  1  0  0  0  0
 29 65  2  0  0  0  0
 30 50  1  0  0  0  0
 30 66  1  0  0  0  0
 31 63  1  0  0  0  0
 31 66  2  0  0  0  0
 32 67  1  0  0  0  0
 32 70  1  0  0  0  0
 33 71  1  0  0  0  0
 33 76  2  0  0  0  0
 34 48  1  0  0  0  0
 34 72  1  0  0  0  0
 34 77  2  0  0  0  0
 35 61  1  0  0  0  0
 35 68  1  0  0  0  0
 35 78  2  0  0  0  0
 36 62  1  0  0  0  0
 36 73  1  0  0  0  0
 36 79  2  0  0  0  0
 37 69  1  0  0  0  0
 37 74  1  0  0  0  0
 37 80  2  0  0  0  0
 38 41  1  0  0  0  0
 39 48  1  0  0  0  0
 40 68  1  0  0  0  0
 41 43  1  0  0  0  0
 42 44  1  0  0  0  0
 42 45  1  0  0  0  0
 43 47  1  0  0  0  0
 44 49  1  0  0  0  0
 45 69  1  0  0  0  0
 46 49  1  0  0  0  0
 46 69  1  0  0  0  0
 47 72  1  0  0  0  0
 48 68  1  0  0  0  0
 49 67  1  0  0  0  0
 51 62  1  0  0  0  0
 52 63  1  0  0  0  0
 53 63  1  0  0  0  0
 54 64  1  0  0  0  0
 55 64  1  0  0  0  0
 56 64  1  0  0  0  0
 57 75  1  0  0  0  0
 58 82  1  0  0  0  0
 59 60  1  0  0  0  0
 59 63  1  0  0  0  0
 60 74  1  0  0  0  0
 61 64  1  0  0  0  0
 61 73  1  0  0  0  0
 62 75  1  0  0  0  0
 65 67  1  0  0  0  0
M  CHG  1  75   1
M  ISO  4  37 100  58 101  74 100  82 101
M  END
> <Batch ID>
0070

> <Smiles>
CNC(C)C(=O)NC(C(=O)N1Cc2cc([101O:1][101CH2:1]c3cc(C)nc(C(C)(C)CC[100NH:0][100C:0](=O)N4CCCC(n5nc(-c6ccc(Oc7ccc(F)cc7F)cc6)c(C(N)=O)c5N)C4)c3)ccc2CC1C(=O)NC1CCCc2ccccc21)C(C)(C)C

> <Shape>
0.262

> <Color>
0.076

> <Negative vol penalty>
0.000

$$$$

  -OEChem-04052318193D

 85 93  0     1  0  0  0  0  0999 V2000
  -17.0426  -31.3435   23.4406 C   0  0  0  0  0  0  0  0  0  0  0  0
  -18.1515  -31.7565   22.7091 C   0  0  0  0  0  0  0  0  0  0  0  0
  -25.1318  -13.5133   19.5136 C   0  0  0  0  0  0  0  0  0  0  0  0
  -23.7691  -14.9466   20.9012 C   0  0  0  0  0  0  0  0  0  0  0  0
  -17.1638  -30.3029   24.3606 C   0  0  0  0  0  0  0  0  0  0  0  0
  -19.3827  -31.1296   22.8979 C   0  0  0  0  0  0  0  0  0  0  0  0
  -25.3074  -29.2718   19.3255 C   0  0  0  0  0  0  0  0  0  0  0  0
  -24.2142  -12.4766   19.6832 C   0  0  0  0  0  0  0  0  0  0  0  0
  -22.8514  -13.9099   21.0708 C   0  0  0  0  0  0  0  0  0  0  0  0
  -26.6941  -29.3953   19.4011 C   0  0  0  0  0  0  0  0  0  0  0  0
  -23.4424  -10.1975   22.0570 C   0  0  0  0  0  0  0  0  0  0  0  0
  -23.9453   -8.9282   22.3422 C   0  0  0  0  0  0  0  0  0  0  0  0
  -26.7669  -27.5560   20.9602 C   0  0  0  0  0  0  0  0  0  0  0  0
  -22.9158   -8.0688   20.3326 C   0  0  0  0  0  0  0  0  0  0  0  0
  -28.2597  -24.1799   19.3411 C   0  0  0  0  0  0  0  0  0  0  0  0
  -24.9093  -14.7483   20.1226 C   0  0  0  0  0  0  0  0  0  0  0  0
  -25.8567  -16.7986   18.9367 C   0  0  0  0  0  0  0  0  0  0  0  0
  -18.3949  -29.6566   24.5537 C   0  0  0  0  0  0  0  0  0  0  0  0
  -24.6379  -28.2948   20.0762 C   0  0  0  0  0  0  0  0  0  0  0  0
  -19.5209  -30.0803   23.8222 C   0  0  0  0  0  0  0  0  0  0  0  0
  -25.3719  -27.4204   20.8903 C   0  0  0  0  0  0  0  0  0  0  0  0
  -23.0740  -12.6749   20.4618 C   0  0  0  0  0  0  0  0  0  0  0  0
  -27.4237  -28.5393   20.2208 C   0  0  0  0  0  0  0  0  0  0  0  0
  -22.6761  -10.4025   20.9096 C   0  0  0  0  0  0  0  0  0  0  0  0
  -23.6820   -7.8638   21.4800 C   0  0  0  0  0  0  0  0  0  0  0  0
  -22.4129   -9.3382   20.0474 C   0  0  0  0  0  0  0  0  0  0  0  0
  -25.8571  -15.8195   19.9481 C   0  0  0  0  0  0  0  0  0  0  0  0
  -26.9543  -17.5771   19.2120 C   0  0  0  0  0  0  0  0  0  0  0  0
  -29.3626  -23.3436   20.9036 C   0  0  0  0  0  0  0  0  0  0  0  0
  -24.9456  -16.9876   17.8459 C   0  0  0  0  0  0  0  0  0  0  0  0
  -22.4466  -28.3459   22.3782 C   0  0  0  0  0  0  0  0  0  0  0  0
  -22.5074  -25.1283   21.9714 C   0  0  0  0  0  0  0  0  0  0  0  0
  -24.2290  -22.3716   20.9304 C   0  0  0  0  0  0  0  0  0  0  0  0
  -30.1735  -20.3435   22.8353 C   0  0  0  0  0  0  0  0  0  0  0  0
  -18.4881  -28.5681   25.5936 C   0  0  0  0  0  0  0  0  0  0  0  0
  -23.1444  -28.1571   19.9630 C   0  0  0  0  0  0  0  0  0  0  0  0
  -24.7028  -26.3417   21.7009 C   0  0  0  0  0  0  0  0  0  0  0  0
  -19.7415  -27.7067   25.4630 C   0  0  0  0  0  0  0  0  0  0  0  0
  -30.7741  -16.8555   22.4484 C   0  0  0  0  0  0  0  0  0  0  0  0
  -20.9744  -28.5838   25.2692 C   0  0  0  0  0  0  0  0  0  0  0  0
  -29.5460  -16.3552   21.6859 C   0  0  0  0  0  0  0  0  0  0  0  0
  -30.4109  -17.9543   23.4448 C   0  0  0  0  0  0  0  0  0  0  0  0
  -28.4421  -18.5921   22.1065 C   0  0  0  0  0  0  0  0  0  0  0  0
  -20.8676  -29.4086   23.9809 C   0  0  1  0  0  0  0  0  0  0  0  0
  -22.5156  -27.4608   21.1660 C   0  0  1  0  0  0  0  0  0  0  0  0
  -28.7671  -17.5223   21.0499 C   0  0  2  0  0  0  0  0  0  0  0  0
  -24.0334  -19.8757   20.7583 C   0  0  0  0  0  0  0  0  0  0  0  0
  -29.8731  -24.8263   23.6235 C   0  0  0  0  0  0  0  0  0  0  0  0
  -27.8201  -23.4110   23.5859 C   0  0  0  0  0  0  0  0  0  0  0  0
  -23.0129  -24.8843   24.9706 C   0  0  0  0  0  0  0  0  0  0  0  0
  -23.7423  -22.5206   24.5848 C   0  0  0  0  0  0  0  0  0  0  0  0
  -21.4059  -23.2071   24.0437 C   0  0  0  0  0  0  0  0  0  0  0  0
  -24.4972  -22.4376   17.9837 C   0  0  0  0  0  0  0  0  0  0  0  0
  -30.8482  -27.0291   19.0212 C   0  0  0  0  0  0  0  0  0  0  0  0
  -30.1140  -26.5204   17.7789 C   0  0  0  0  0  0  0  0  0  0  0  0
  -30.8587  -28.5597   19.0719 C   0  0  0  0  0  0  0  0  0  0  0  0
  -30.1386  -24.9919   17.7068 C   0  0  0  0  0  0  0  0  0  0  0  0
  -29.4529  -29.1440   19.1378 C   0  0  0  0  0  0  0  0  0  1  0  0
  -29.8054  -22.6958   22.1351 C   0  0  1  0  0  0  0  0  0  0  0  0
  -23.3017  -23.9904   22.5657 C   0  0  1  0  0  0  0  0  0  0  0  0
  -23.8235  -21.2043   20.0487 C   0  0  2  0  0  0  0  0  0  0  0  0
  -29.3504  -23.3901   23.4764 C   0  0  0  0  0  0  0  0  0  0  0  0
  -22.8784  -23.6721   24.0275 C   0  0  0  0  0  0  0  0  0  0  0  0
  -28.1170  -23.5560   20.5473 N   0  0  0  0  0  0  0  0  0  0  0  0
  -26.8743  -15.9607   20.8021 N   0  0  0  0  0  0  0  0  0  0  0  0
  -30.2007  -23.8231   19.9457 N   0  0  0  0  0  0  0  0  0  0  0  0
  -29.5152  -24.3668   18.9285 N   0  0  0  0  0  0  0  0  0  0  0  0
  -27.5234  -17.0376   20.3279 N   0  0  0  0  0  0  0  0  0  0  0  0
  -23.2400  -26.2511   21.5612 N   0  0  0  0  0  0  0  0  0  0  0  0
  -29.6754  -19.0314   22.7779 N   0  0  0  0  0  0  0  0  0  0  0  0
  -27.4785  -18.6634   18.6058 N   0  0  0  0  0  0  0  0  0  0  0  0
  -23.8720  -16.0970   17.7101 N   0  0  0  0  0  0  0  0  0  0  0  0
  -21.1620  -28.5851   22.8278 N   0  0  0  0  0  0  0  0  0  0  0  0
  -23.1591  -22.8681   21.6445 N   0  0  0  0  0  0  0  0  0  0  0  0
  -29.4189  -21.3030   22.1714 N   0  0  0  0  0  0  0  0  0  0  0  0
  -24.6275  -21.1992   18.7939 N   0  3  0  0  0  0  0  0  0  0  0  0
  -25.0890  -17.9089   17.0066 O   0  0  0  0  0  0  0  0  0  0  0  0
  -23.4822  -28.7785   22.8702 O   0  0  0  0  0  0  0  0  0  0  0  0
  -21.2828  -25.0218   21.8682 O   0  0  0  0  0  0  0  0  0  0  0  0
  -25.3806  -22.7979   20.9833 O   0  0  0  0  0  0  0  0  0  0  0  0
  -31.2165  -20.6373   23.4294 O   0  0  0  0  0  0  0  0  0  0  0  0
  -22.1782  -11.6635   20.6274 O   0  0  0  0  0  0  0  0  0  0  0  0
  -28.7772  -28.6581   20.2970 O   0  0  0  0  0  0  0  0  0  1  0  0
  -24.1663   -6.6452   21.7532 F   0  0  0  0  0  0  0  0  0  0  0  0
  -21.6783   -9.5292   18.9430 F   0  0  0  0  0  0  0  0  0  0  0  0
  1  2  1  0  0  0  0
  1  5  2  0  0  0  0
  2  6  2  0  0  0  0
  3  8  2  0  0  0  0
  3 16  1  0  0  0  0
  4  9  1  0  0  0  0
  4 16  2  0  0  0  0
  5 18  1  0  0  0  0
  6 20  1  0  0  0  0
  7 10  2  0  0  0  0
  7 19  1  0  0  0  0
  8 22  1  0  0  0  0
  9 22  2  0  0  0  0
 10 23  1  0  0  0  0
 11 12  2  0  0  0  0
 11 24  1  0  0  0  0
 12 25  1  0  0  0  0
 13 21  1  0  0  0  0
 13 23  2  0  0  0  0
 14 25  2  0  0  0  0
 14 26  1  0  0  0  0
 15 64  2  0  0  0  0
 15 67  1  0  0  0  0
 16 27  1  0  0  0  0
 17 27  1  0  0  0  0
 17 28  2  0  0  0  0
 17 30  1  0  0  0  0
 18 20  2  0  0  0  0
 18 35  1  0  0  0  0
 19 21  2  0  0  0  0
 19 36  1  0  0  0  0
 20 44  1  0  0  0  0
 21 37  1  0  0  0  0
 22 82  1  0  0  0  0
 23 83  1  0  0  0  0
 24 26  2  0  0  0  0
 24 82  1  0  0  0  0
 25 84  1  0  0  0  0
 26 85  1  0  0  0  0
 27 65  2  0  0  0  0
 28 68  1  0  0  0  0
 28 71  1  0  0  0  0
 29 59  1  0  0  0  0
 29 64  1  0  0  0  0
 29 66  2  0  0  0  0
 30 72  1  0  0  0  0
 30 77  2  0  0  0  0
 31 45  1  0  0  0  0
 31 73  1  0  0  0  0
 31 78  2  0  0  0  0
 32 60  1  0  0  0  0
 32 69  1  0  0  0  0
 32 79  2  0  0  0  0
 33 61  1  0  0  0  0
 33 74  1  0  0  0  0
 33 80  2  0  0  0  0
 34 70  1  0  0  0  0
 34 75  1  0  0  0  0
 34 81  2  0  0  0  0
 35 38  1  0  0  0  0
 36 45  1  0  0  0  0
 37 69  1  0  0  0  0
 38 40  1  0  0  0  0
 39 41  1  0  0  0  0
 39 42  1  0  0  0  0
 40 44  1  0  0  0  0
 41 46  1  0  0  0  0
 42 70  1  0  0  0  0
 43 46  1  0  0  0  0
 43 70  1  0  0  0  0
 44 73  1  0  0  0  0
 45 69  1  0  0  0  0
 46 68  1  0  0  0  0
 47 61  1  0  0  0  0
 48 62  1  0  0  0  0
 49 62  1  0  0  0  0
 50 63  1  0  0  0  0
 51 63  1  0  0  0  0
 52 63  1  0  0  0  0
 53 76  1  0  0  0  0
 54 55  1  0  0  0  0
 54 56  1  0  0  0  0
 55 57  1  0  0  0  0
 56 58  1  0  0  0  0
 57 67  1  0  0  0  0
 58 83  1  0  0  0  0
 59 62  1  0  0  0  0
 59 75  1  0  0  0  0
 60 63  1  0  0  0  0
 60 74  1  0  0  0  0
 61 76  1  0  0  0  0
 65 68  1  0  0  0  0
 66 67  1  0  0  0  0
M  CHG  1  76   1
M  ISO  4  34 100  58 101  75 100  83 101
M  END
> <Batch ID>
0070

> <Smiles>
CNC(C)C(=O)NC(C(=O)N1Cc2cc([101O:1][101CH2:1]CCCCn3cnc(C([100NH:0][100C:0](=O)N4CCCC(n5nc(-c6ccc(Oc7ccc(F)cc7F)cc6)c(C(N)=O)c5N)C4)C(C)C)n3)ccc2CC1C(=O)NC1CCCc2ccccc21)C(C)(C)C

> <Shape>
0.239

> <Color>
0.068

> <Negative vol penalty>
0.000

$$$$

  -OEChem-04052318193D

 84 92  0     1  0  0  0  0  0999 V2000
  -17.2243  -29.5685   24.8152 C   0  0  0  0  0  0  0  0  0  0  0  0
  -17.9749  -28.4003   24.7286 C   0  0  0  0  0  0  0  0  0  0  0  0
  -29.2157  -18.3079   21.4185 C   0  0  0  0  0  0  0  0  0  0  0  0
  -27.4995  -18.8507   23.0300 C   0  0  0  0  0  0  0  0  0  0  0  0
  -17.2950  -30.5182   23.7968 C   0  0  0  0  0  0  0  0  0  0  0  0
  -18.7958  -28.1807   23.6230 C   0  0  0  0  0  0  0  0  0  0  0  0
  -23.3722  -26.4406   24.9164 C   0  0  0  0  0  0  0  0  0  0  0  0
  -29.4300  -19.6670   21.1889 C   0  0  0  0  0  0  0  0  0  0  0  0
  -27.7138  -20.2098   22.8005 C   0  0  0  0  0  0  0  0  0  0  0  0
  -23.4696  -25.0899   25.2479 C   0  0  0  0  0  0  0  0  0  0  0  0
  -30.1789  -22.9897   19.9151 C   0  0  0  0  0  0  0  0  0  0  0  0
  -30.3003  -23.4142   18.5921 C   0  0  0  0  0  0  0  0  0  0  0  0
  -24.3207  -24.6158   23.0411 C   0  0  0  0  0  0  0  0  0  0  0  0
  -28.0788  -22.5882   18.1231 C   0  0  0  0  0  0  0  0  0  0  0  0
  -22.3377  -15.8897   22.9119 C   0  0  0  0  0  0  0  0  0  0  0  0
  -28.2504  -17.8998   22.3390 C   0  0  0  0  0  0  0  0  0  0  0  0
  -28.6679  -15.6836   23.5314 C   0  0  0  0  0  0  0  0  0  0  0  0
  -18.1245  -30.3145   22.6828 C   0  0  0  0  0  0  0  0  0  0  0  0
  -23.7388  -26.8882   23.6390 C   0  0  0  0  0  0  0  0  0  0  0  0
  -18.8766  -29.1279   22.5882 C   0  0  0  0  0  0  0  0  0  0  0  0
  -24.2295  -25.9731   22.6967 C   0  0  0  0  0  0  0  0  0  0  0  0
  -28.6791  -20.6179   21.8799 C   0  0  0  0  0  0  0  0  0  0  0  0
  -23.9411  -24.1768   24.3093 C   0  0  0  0  0  0  0  0  0  0  0  0
  -29.0074  -22.3643   20.3422 C   0  0  0  0  0  0  0  0  0  0  0  0
  -29.2503  -23.2135   17.6960 C   0  0  0  0  0  0  0  0  0  0  0  0
  -27.9574  -22.1636   19.4462 C   0  0  0  0  0  0  0  0  0  0  0  0
  -28.0282  -16.4961   22.5761 C   0  0  0  0  0  0  0  0  0  0  0  0
  -22.2991  -17.2130   22.5224 C   0  0  0  0  0  0  0  0  0  0  0  0
  -22.2186  -14.9643   21.8951 C   0  0  0  0  0  0  0  0  0  0  0  0
  -28.1087  -14.4415   23.3554 C   0  0  0  0  0  0  0  0  0  0  0  0
  -22.0501  -16.6166   20.3430 C   0  0  0  0  0  0  0  0  0  0  0  0
  -29.6773  -16.0215   24.4919 C   0  0  0  0  0  0  0  0  0  0  0  0
  -22.2151  -28.3045   21.2357 C   0  0  0  0  0  0  0  0  0  0  0  0
  -25.1908  -28.4590   19.9536 C   0  0  0  0  0  0  0  0  0  0  0  0
  -22.8252  -12.7057   21.0787 C   0  0  0  0  0  0  0  0  0  0  0  0
  -28.3601  -27.1995   19.8276 C   0  0  0  0  0  0  0  0  0  0  0  0
  -18.1318  -31.3480   21.5845 C   0  0  0  0  0  0  0  0  0  0  0  0
  -23.6531  -28.3525   23.3059 C   0  0  0  0  0  0  0  0  0  0  0  0
  -24.6551  -26.4056   21.3183 C   0  0  0  0  0  0  0  0  0  0  0  0
  -19.3121  -31.2102   20.6262 C   0  0  0  0  0  0  0  0  0  0  0  0
  -26.0911  -11.6722   20.0270 C   0  0  0  0  0  0  0  0  0  0  0  0
  -19.4914  -29.7548   20.2060 C   0  0  0  0  0  0  0  0  0  0  0  0
  -27.0134  -12.7341   20.6245 C   0  0  0  0  0  0  0  0  0  0  0  0
  -24.7558  -12.2708   19.5961 C   0  0  0  0  0  0  0  0  0  0  0  0
  -24.9623  -14.0708   21.2811 C   0  0  0  0  0  0  0  0  0  0  0  0
  -19.7976  -28.8648   21.4166 C   0  0  1  0  0  0  0  0  0  0  0  0
  -23.5687  -28.6201   21.8063 C   0  0  1  0  0  0  0  0  0  0  0  0
  -26.3106  -13.5023   21.7577 C   0  0  2  0  0  0  0  0  0  0  0  0
  -21.8941  -17.0196   18.9158 C   0  0  0  0  0  0  0  0  0  0  0  0
  -30.5578  -27.5091   18.6564 C   0  0  0  0  0  0  0  0  0  0  0  0
  -20.8213  -12.9682   22.4913 C   0  0  0  0  0  0  0  0  0  0  0  0
  -23.1280  -13.0989   23.4378 C   0  0  0  0  0  0  0  0  0  0  0  0
  -24.0544  -27.1024   17.4680 C   0  0  0  0  0  0  0  0  0  0  0  0
  -26.4005  -26.5872   16.7619 C   0  0  0  0  0  0  0  0  0  0  0  0
  -25.6638  -28.9585   16.9998 C   0  0  0  0  0  0  0  0  0  0  0  0
  -29.7585  -27.8066   22.3643 C   0  0  0  0  0  0  0  0  0  0  0  0
  -22.4222  -18.2977   23.5626 C   0  0  0  0  0  0  0  0  0  0  0  0
  -23.0750  -19.5832   23.0425 C   0  0  0  0  0  0  0  0  0  0  0  0
  -23.2611  -20.6424   24.1298 C   0  0  0  0  0  0  0  0  0  0  0  0
  -23.8748  -21.9179   23.5685 C   0  0  0  0  0  0  0  0  0  1  0  0
  -26.0239  -27.5584   19.0740 C   0  0  1  0  0  0  0  0  0  0  0  0
  -29.7167  -27.8796   19.8680 C   0  0  2  0  0  0  0  0  0  0  0  0
  -22.2510  -13.5082   22.2190 C   0  0  0  0  0  0  0  0  0  0  0  0
  -25.5259  -27.5429   17.6012 C   0  0  0  0  0  0  0  0  0  0  0  0
  -27.1314  -15.8264   21.8473 N   0  0  0  0  0  0  0  0  0  0  0  0
  -22.1560  -17.6136   21.2420 N   0  0  0  0  0  0  0  0  0  0  0  0
  -22.0727  -15.2938   20.5949 N   0  0  0  0  0  0  0  0  0  0  0  0
  -27.2036  -14.5800   22.3446 N   0  0  0  0  0  0  0  0  0  0  0  0
  -24.5467  -27.8469   21.0383 N   0  0  0  0  0  0  0  0  0  0  0  0
  -24.1308  -13.0111   20.6936 N   0  0  0  0  0  0  0  0  0  0  0  0
  -28.3080  -13.2552   23.9682 N   0  0  0  0  0  0  0  0  0  0  0  0
  -30.1399  -17.3437   24.5380 N   0  0  0  0  0  0  0  0  0  0  0  0
  -21.1806  -29.0133   21.8162 N   0  0  0  0  0  0  0  0  0  0  0  0
  -27.4060  -27.9977   19.2328 N   0  0  0  0  0  0  0  0  0  0  0  0
  -30.4601  -27.4800   21.0962 N   0  3  0  0  0  0  0  0  0  0  0  0
  -30.1667  -15.1722   25.2747 O   0  0  0  0  0  0  0  0  0  0  0  0
  -22.1166  -27.4801   20.3343 O   0  0  0  0  0  0  0  0  0  0  0  0
  -25.1200  -29.6625   19.6923 O   0  0  0  0  0  0  0  0  0  0  0  0
  -22.1336  -11.8319   20.5492 O   0  0  0  0  0  0  0  0  0  0  0  0
  -28.1670  -26.0713   20.2754 O   0  0  0  0  0  0  0  0  0  0  0  0
  -28.8881  -21.9441   21.6563 O   0  0  0  0  0  0  0  0  0  0  0  0
  -24.0364  -22.8578   24.6300 O   0  0  0  0  0  0  0  0  0  1  0  0
  -29.3665  -23.6226   16.4259 F   0  0  0  0  0  0  0  0  0  0  0  0
  -26.8291  -21.5645   19.8510 F   0  0  0  0  0  0  0  0  0  0  0  0
  1  2  1  0  0  0  0
  1  5  2  0  0  0  0
  2  6  2  0  0  0  0
  3  8  2  0  0  0  0
  3 16  1  0  0  0  0
  4  9  1  0  0  0  0
  4 16  2  0  0  0  0
  5 18  1  0  0  0  0
  6 20  1  0  0  0  0
  7 10  2  0  0  0  0
  7 19  1  0  0  0  0
  8 22  1  0  0  0  0
  9 22  2  0  0  0  0
 10 23  1  0  0  0  0
 11 12  2  0  0  0  0
 11 24  1  0  0  0  0
 12 25  1  0  0  0  0
 13 21  1  0  0  0  0
 13 23  2  0  0  0  0
 14 25  2  0  0  0  0
 14 26  1  0  0  0  0
 15 28  1  0  0  0  0
 15 29  2  0  0  0  0
 16 27  1  0  0  0  0
 17 27  1  0  0  0  0
 17 30  2  0  0  0  0
 17 32  1  0  0  0  0
 18 20  2  0  0  0  0
 18 37  1  0  0  0  0
 19 21  2  0  0  0  0
 19 38  1  0  0  0  0
 20 46  1  0  0  0  0
 21 39  1  0  0  0  0
 22 81  1  0  0  0  0
 23 82  1  0  0  0  0
 24 26  2  0  0  0  0
 24 81  1  0  0  0  0
 25 83  1  0  0  0  0
 26 84  1  0  0  0  0
 27 65  2  0  0  0  0
 28 57  1  0  0  0  0
 28 66  2  0  0  0  0
 29 63  1  0  0  0  0
 29 67  1  0  0  0  0
 30 68  1  0  0  0  0
 30 71  1  0  0  0  0
 31 49  1  0  0  0  0
 31 66  1  0  0  0  0
 31 67  2  0  0  0  0
 32 72  1  0  0  0  0
 32 76  2  0  0  0  0
 33 47  1  0  0  0  0
 33 73  1  0  0  0  0
 33 77  2  0  0  0  0
 34 61  1  0  0  0  0
 34 69  1  0  0  0  0
 34 78  2  0  0  0  0
 35 63  1  0  0  0  0
 35 70  1  0  0  0  0
 35 79  2  0  0  0  0
 36 62  1  0  0  0  0
 36 74  1  0  0  0  0
 36 80  2  0  0  0  0
 37 40  1  0  0  0  0
 38 47  1  0  0  0  0
 39 69  1  0  0  0  0
 40 42  1  0  0  0  0
 41 43  1  0  0  0  0
 41 44  1  0  0  0  0
 42 46  1  0  0  0  0
 43 48  1  0  0  0  0
 44 70  1  0  0  0  0
 45 48  1  0  0  0  0
 45 70  1  0  0  0  0
 46 73  1  0  0  0  0
 47 69  1  0  0  0  0
 48 68  1  0  0  0  0
 50 62  1  0  0  0  0
 51 63  1  0  0  0  0
 52 63  1  0  0  0  0
 53 64  1  0  0  0  0
 54 64  1  0  0  0  0
 55 64  1  0  0  0  0
 56 75  1  0  0  0  0
 57 58  1  0  0  0  0
 58 59  1  0  0  0  0
 59 60  1  0  0  0  0
 60 82  1  0  0  0  0
 61 64  1  0  0  0  0
 61 74  1  0  0  0  0
 62 75  1  0  0  0  0
 65 68  1  0  0  0  0
M  CHG  1  75   1
M  ISO  4  35 100  60 101  63 100  82 101
M  END
> <Batch ID>
0070

> <Smiles>
CNC(C)C(=O)NC(C(=O)N1Cc2cc([101O:1][101CH2:1]CCCc3cc([100C:0](C)(C)[100C:0](=O)N4CCCC(n5nc(-c6ccc(Oc7ccc(F)cc7F)cc6)c(C(N)=O)c5N)C4)nc(C)n3)ccc2CC1C(=O)NC1CCCc2ccccc21)C(C)(C)C

> <Shape>
0.214

> <Color>
0.067

> <Negative vol penalty>
0.000

$$$$

  -OEChem-04052318193D

 87 95  0     1  0  0  0  0  0999 V2000
  -24.7206  -35.2633   20.6076 C   0  0  0  0  0  0  0  0  0  0  0  0
  -25.4674  -34.0912   20.6707 C   0  0  0  0  0  0  0  0  0  0  0  0
  -26.9172  -13.0340   20.3992 C   0  0  0  0  0  0  0  0  0  0  0  0
  -25.4976  -14.7902   19.5405 C   0  0  0  0  0  0  0  0  0  0  0  0
  -23.5331  -35.3715   21.3300 C   0  0  0  0  0  0  0  0  0  0  0  0
  -25.0276  -33.0270   21.4571 C   0  0  0  0  0  0  0  0  0  0  0  0
  -25.4049  -28.5703   19.0821 C   0  0  0  0  0  0  0  0  0  0  0  0
  -25.9288  -12.0934   20.1096 C   0  0  0  0  0  0  0  0  0  0  0  0
  -24.5092  -13.8496   19.2508 C   0  0  0  0  0  0  0  0  0  0  0  0
  -26.6704  -27.9891   19.0162 C   0  0  0  0  0  0  0  0  0  0  0  0
  -23.6358   -9.2769   19.9268 C   0  0  0  0  0  0  0  0  0  0  0  0
  -23.3479   -8.3169   20.8969 C   0  0  0  0  0  0  0  0  0  0  0  0
  -26.0945  -26.5406   20.8572 C   0  0  0  0  0  0  0  0  0  0  0  0
  -22.7371  -10.0665   22.4470 C   0  0  0  0  0  0  0  0  0  0  0  0
  -28.7700  -21.1151   22.4058 C   0  0  0  0  0  0  0  0  0  0  0  0
  -26.6626  -20.8070   21.4464 C   0  0  0  0  0  0  0  0  0  0  0  0
  -26.7016  -14.3824   20.1147 C   0  0  0  0  0  0  0  0  0  0  0  0
  -28.7628  -15.7826   19.5683 C   0  0  0  0  0  0  0  0  0  0  0  0
  -23.0735  -34.3046   22.1181 C   0  0  0  0  0  0  0  0  0  0  0  0
  -24.4769  -28.1478   20.0448 C   0  0  0  0  0  0  0  0  0  0  0  0
  -23.8334  -33.1216   22.1918 C   0  0  0  0  0  0  0  0  0  0  0  0
  -24.8169  -27.1163   20.9316 C   0  0  0  0  0  0  0  0  0  0  0  0
  -27.4216  -20.8914   22.5958 C   0  0  0  0  0  0  0  0  0  0  0  0
  -24.7248  -12.5012   19.5354 C   0  0  0  0  0  0  0  0  0  0  0  0
  -27.0164  -26.9761   19.9057 C   0  0  0  0  0  0  0  0  0  0  0  0
  -23.4745  -10.6318   20.2169 C   0  0  0  0  0  0  0  0  0  0  0  0
  -22.8984   -8.7117   22.1570 C   0  0  0  0  0  0  0  0  0  0  0  0
  -23.0251  -11.0265   21.4770 C   0  0  0  0  0  0  0  0  0  0  0  0
  -27.7220  -15.3546   20.4141 C   0  0  0  0  0  0  0  0  0  0  0  0
  -29.4533  -16.7065   20.3140 C   0  0  0  0  0  0  0  0  0  0  0  0
  -28.4983  -21.1456   20.1492 C   0  0  0  0  0  0  0  0  0  0  0  0
  -29.0773  -15.3810   18.2284 C   0  0  0  0  0  0  0  0  0  0  0  0
  -22.9837  -29.5374   22.4827 C   0  0  0  0  0  0  0  0  0  0  0  0
  -21.4171  -26.7010   22.6336 C   0  0  0  0  0  0  0  0  0  0  0  0
  -27.8040  -20.1720   24.9381 C   0  0  0  0  0  0  0  0  0  0  0  0
  -21.4012  -23.3595   21.9402 C   0  0  0  0  0  0  0  0  0  0  0  0
  -21.8081  -34.4857   22.9185 C   0  0  0  0  0  0  0  0  0  0  0  0
  -23.1065  -28.7665   20.0855 C   0  0  0  0  0  0  0  0  0  0  0  0
  -23.8497  -26.6127   21.9705 C   0  0  0  0  0  0  0  0  0  0  0  0
  -21.2195  -33.1743   23.4324 C   0  0  0  0  0  0  0  0  0  0  0  0
  -30.5231  -17.8408   24.8293 C   0  0  0  0  0  0  0  0  0  0  0  0
  -22.3100  -32.3061   24.0519 C   0  0  0  0  0  0  0  0  0  0  0  0
  -30.1928  -16.9600   23.6249 C   0  0  0  0  0  0  0  0  0  0  0  0
  -29.2602  -18.2750   25.5666 C   0  0  0  0  0  0  0  0  0  0  0  0
  -27.9234  -18.0815   23.4936 C   0  0  0  0  0  0  0  0  0  0  0  0
  -23.3766  -31.9362   23.0141 C   0  0  1  0  0  0  0  0  0  0  0  0
  -22.4216  -28.6130   21.4400 C   0  0  1  0  0  0  0  0  0  0  0  0
  -29.1696  -17.6460   22.7025 C   0  0  2  0  0  0  0  0  0  0  0  0
  -20.0000  -21.2964   22.2189 C   0  0  0  0  0  0  0  0  0  0  0  0
  -25.5976  -19.7941   24.0464 C   0  0  0  0  0  0  0  0  0  0  0  0
  -22.2147  -26.5595   25.5753 C   0  0  0  0  0  0  0  0  0  0  0  0
  -21.6393  -24.1231   25.5421 C   0  0  0  0  0  0  0  0  0  0  0  0
  -19.8729  -25.8262   25.0930 C   0  0  0  0  0  0  0  0  0  0  0  0
  -21.1921  -22.9658   19.0144 C   0  0  0  0  0  0  0  0  0  0  0  0
  -29.1017  -21.2916   18.7748 C   0  0  0  0  0  0  0  0  0  0  0  0
  -29.8635  -22.6057   18.5692 C   0  0  0  0  0  0  0  0  0  0  0  0
  -28.9662  -23.8424   18.6796 C   0  0  0  0  0  0  0  0  0  0  0  0
  -29.7712  -25.1281   18.4986 C   0  0  0  0  0  0  0  0  0  0  0  0
  -28.8819  -26.3616   18.5647 C   0  0  0  0  0  0  0  0  0  1  0  0
  -21.6466  -25.3895   23.3450 C   0  0  1  0  0  0  0  0  0  0  0  0
  -20.3472  -22.4663   21.3113 C   0  0  2  0  0  0  0  0  0  0  0  0
  -26.8270  -20.7534   23.9474 C   0  0  2  0  0  0  0  0  0  0  0  0
  -21.3625  -25.4852   24.8707 C   0  0  0  0  0  0  0  0  0  0  0  0
  -26.3752  -22.1265   24.5109 C   0  0  0  0  0  0  0  0  0  0  0  0
  -29.3441  -21.2476   21.1921 N   0  0  0  0  0  0  0  0  0  0  0  0
  -27.1700  -20.9300   20.2023 N   0  0  0  0  0  0  0  0  0  0  0  0
  -27.7455  -15.9570   21.6060 N   0  0  0  0  0  0  0  0  0  0  0  0
  -28.8094  -16.7729   21.5145 N   0  0  0  0  0  0  0  0  0  0  0  0
  -22.5243  -27.2536   21.9745 N   0  0  0  0  0  0  0  0  0  0  0  0
  -28.3043  -18.9017   24.6518 N   0  0  0  0  0  0  0  0  0  0  0  0
  -30.5424  -17.4604   20.0535 N   0  0  0  0  0  0  0  0  0  0  0  0
  -28.2645  -14.4208   17.6105 N   0  0  0  0  0  0  0  0  0  0  0  0
  -22.8976  -30.8765   22.1527 N   0  0  0  0  0  0  0  0  0  0  0  0
  -20.8342  -24.3989   22.6470 N   0  0  0  0  0  0  0  0  0  0  0  0
  -20.8359  -21.9241   20.0120 N   0  3  0  0  0  0  0  0  0  0  0  0
  -30.0600  -15.8473   17.6036 O   0  0  0  0  0  0  0  0  0  0  0  0
  -23.4590  -29.0704   23.5112 O   0  0  0  0  0  0  0  0  0  0  0  0
  -20.2948  -27.2127   22.6557 O   0  0  0  0  0  0  0  0  0  0  0  0
  -28.1142  -20.8300   25.9346 O   0  0  0  0  0  0  0  0  0  0  0  0
  -22.6069  -23.1536   21.8199 O   0  0  0  0  0  0  0  0  0  0  0  0
  -23.7601  -11.5836   19.2525 O   0  0  0  0  0  0  0  0  0  0  0  0
  -28.2513  -26.4075   19.8439 O   0  0  0  0  0  0  0  0  0  1  0  0
  -22.6204   -7.7896   23.0879 F   0  0  0  0  0  0  0  0  0  0  0  0
  -22.8671  -12.3266   21.7611 F   0  0  0  0  0  0  0  0  0  0  0  0
  -25.4467  -22.6880   23.7025 F   0  0  0  0  0  0  0  0  0  0  0  0
  -25.8273  -22.0365   25.7455 F   0  0  0  0  0  0  0  0  0  0  0  0
  -27.4121  -22.9892   24.5958 F   0  0  0  0  0  0  0  0  0  0  0  0
  1  2  1  0  0  0  0
  1  5  2  0  0  0  0
  2  6  2  0  0  0  0
  3  8  2  0  0  0  0
  3 17  1  0  0  0  0
  4  9  1  0  0  0  0
  4 17  2  0  0  0  0
  5 19  1  0  0  0  0
  6 21  1  0  0  0  0
  7 10  2  0  0  0  0
  7 20  1  0  0  0  0
  8 24  1  0  0  0  0
  9 24  2  0  0  0  0
 10 25  1  0  0  0  0
 11 12  2  0  0  0  0
 11 26  1  0  0  0  0
 12 27  1  0  0  0  0
 13 22  1  0  0  0  0
 13 25  2  0  0  0  0
 14 27  2  0  0  0  0
 14 28  1  0  0  0  0
 15 23  1  0  0  0  0
 15 65  2  0  0  0  0
 16 23  2  0  0  0  0
 16 66  1  0  0  0  0
 17 29  1  0  0  0  0
 18 29  1  0  0  0  0
 18 30  2  0  0  0  0
 18 32  1  0  0  0  0
 19 21  2  0  0  0  0
 19 37  1  0  0  0  0
 20 22  2  0  0  0  0
 20 38  1  0  0  0  0
 21 46  1  0  0  0  0
 22 39  1  0  0  0  0
 23 62  1  0  0  0  0
 24 81  1  0  0  0  0
 25 82  1  0  0  0  0
 26 28  2  0  0  0  0
 26 81  1  0  0  0  0
 27 83  1  0  0  0  0
 28 84  1  0  0  0  0
 29 67  2  0  0  0  0
 30 68  1  0  0  0  0
 30 71  1  0  0  0  0
 31 55  1  0  0  0  0
 31 65  1  0  0  0  0
 31 66  2  0  0  0  0
 32 72  1  0  0  0  0
 32 76  2  0  0  0  0
 33 47  1  0  0  0  0
 33 73  1  0  0  0  0
 33 77  2  0  0  0  0
 34 60  1  0  0  0  0
 34 69  1  0  0  0  0
 34 78  2  0  0  0  0
 35 62  1  0  0  0  0
 35 70  1  0  0  0  0
 35 79  2  0  0  0  0
 36 61  1  0  0  0  0
 36 74  1  0  0  0  0
 36 80  2  0  0  0  0
 37 40  1  0  0  0  0
 38 47  1  0  0  0  0
 39 69  1  0  0  0  0
 40 42  1  0  0  0  0
 41 43  1  0  0  0  0
 41 44  1  0  0  0  0
 42 46  1  0  0  0  0
 43 48  1  0  0  0  0
 44 70  1  0  0  0  0
 45 48  1  0  0  0  0
 45 70  1  0  0  0  0
 46 73  1  0  0  0  0
 47 69  1  0  0  0  0
 48 68  1  0  0  0  0
 49 61  1  0  0  0  0
 50 62  1  0  0  0  0
 51 63  1  0  0  0  0
 52 63  1  0  0  0  0
 53 63  1  0  0  0  0
 54 75  1  0  0  0  0
 55 56  1  0  0  0  0
 56 57  1  0  0  0  0
 57 58  1  0  0  0  0
 58 59  1  0  0  0  0
 59 82  1  0  0  0  0
 60 63  1  0  0  0  0
 60 74  1  0  0  0  0
 61 75  1  0  0  0  0
 62 64  1  0  0  0  0
 64 85  1  0  0  0  0
 64 86  1  0  0  0  0
 64 87  1  0  0  0  0
 67 68  1  0  0  0  0
M  CHG  1  75   1
M  ISO  4  35 100  59 101  62 100  82 101
M  END
> <Batch ID>
0070

> <Smiles>
CNC(C)C(=O)NC(C(=O)N1Cc2cc([101O:1][101CH2:1]CCCCc3ncc([100C:0](C)([100C:0](=O)N4CCCC(n5nc(-c6ccc(Oc7ccc(F)cc7F)cc6)c(C(N)=O)c5N)C4)C(F)(F)F)cn3)ccc2CC1C(=O)NC1CCCc2ccccc21)C(C)(C)C

> <Shape>
0.224

> <Color>
0.083

> <Negative vol penalty>
0.000

$$$$

  -OEChem-04052318193D

 87 95  0     1  0  0  0  0  0999 V2000
  -33.8901  -31.8806   17.6805 C   0  0  0  0  0  0  0  0  0  0  0  0
  -33.0638  -30.7643   17.5993 C   0  0  0  0  0  0  0  0  0  0  0  0
  -26.8998  -12.5616   21.8068 C   0  0  0  0  0  0  0  0  0  0  0  0
  -26.1893  -14.1656   20.1456 C   0  0  0  0  0  0  0  0  0  0  0  0
  -33.9085  -32.6498   18.8432 C   0  0  0  0  0  0  0  0  0  0  0  0
  -32.2562  -30.4160   18.6814 C   0  0  0  0  0  0  0  0  0  0  0  0
  -26.6663  -27.9248   18.4515 C   0  0  0  0  0  0  0  0  0  0  0  0
  -25.6034  -12.0507   21.8680 C   0  0  0  0  0  0  0  0  0  0  0  0
  -24.8928  -13.6547   20.2068 C   0  0  0  0  0  0  0  0  0  0  0  0
  -26.2191  -26.6105   18.5799 C   0  0  0  0  0  0  0  0  0  0  0  0
  -23.6558   -9.9739   20.0441 C   0  0  0  0  0  0  0  0  0  0  0  0
  -23.5045   -8.5873   20.0378 C   0  0  0  0  0  0  0  0  0  0  0  0
  -25.7489  -27.0049   20.9129 C   0  0  0  0  0  0  0  0  0  0  0  0
  -22.4107   -8.6969   22.1892 C   0  0  0  0  0  0  0  0  0  0  0  0
  -27.1928  -13.6191   20.9456 C   0  0  0  0  0  0  0  0  0  0  0  0
  -29.5721  -13.7281   20.0319 C   0  0  0  0  0  0  0  0  0  0  0  0
  -33.0936  -32.3163   19.9365 C   0  0  0  0  0  0  0  0  0  0  0  0
  -26.6684  -28.7872   19.5572 C   0  0  0  0  0  0  0  0  0  0  0  0
  -32.2647  -31.1807   19.8603 C   0  0  0  0  0  0  0  0  0  0  0  0
  -26.1943  -28.3304   20.7952 C   0  0  0  0  0  0  0  0  0  0  0  0
  -24.5999  -12.5972   21.0680 C   0  0  0  0  0  0  0  0  0  0  0  0
  -25.7630  -26.1495   19.8114 C   0  0  0  0  0  0  0  0  0  0  0  0
  -23.1846  -10.7221   21.1229 C   0  0  0  0  0  0  0  0  0  0  0  0
  -22.8820   -7.9488   21.1104 C   0  0  0  0  0  0  0  0  0  0  0  0
  -22.5620  -10.0836   22.1955 C   0  0  0  0  0  0  0  0  0  0  0  0
  -28.5317  -14.1477   20.8824 C   0  0  0  0  0  0  0  0  0  0  0  0
  -30.6316  -14.5383   20.3598 C   0  0  0  0  0  0  0  0  0  0  0  0
  -29.5136  -20.2739   20.7722 C   0  0  0  0  0  0  0  0  0  0  0  0
  -27.4392  -20.2393   21.4083 C   0  0  0  0  0  0  0  0  0  0  0  0
  -29.5800  -12.6981   19.0345 C   0  0  0  0  0  0  0  0  0  0  0  0
  -28.9106  -30.3568   21.1735 C   0  0  0  0  0  0  0  0  0  0  0  0
  -26.3566  -31.6378   22.7091 C   0  0  0  0  0  0  0  0  0  0  0  0
  -31.6515  -20.0212   21.9859 C   0  0  0  0  0  0  0  0  0  0  0  0
  -23.0837  -31.3442   23.6306 C   0  0  0  0  0  0  0  0  0  0  0  0
  -33.1828  -33.1507   21.1897 C   0  0  0  0  0  0  0  0  0  0  0  0
  -27.1289  -30.2099   19.3958 C   0  0  0  0  0  0  0  0  0  0  0  0
  -26.1570  -29.2223   22.0083 C   0  0  0  0  0  0  0  0  0  0  0  0
  -32.0189  -32.9302   22.1524 C   0  0  0  0  0  0  0  0  0  0  0  0
  -31.8535  -17.2762   24.2803 C   0  0  0  0  0  0  0  0  0  0  0  0
  -31.7506  -31.4395   22.3331 C   0  0  0  0  0  0  0  0  0  0  0  0
  -31.0915  -16.1580   23.5702 C   0  0  0  0  0  0  0  0  0  0  0  0
  -31.2355  -18.6415   23.9952 C   0  0  0  0  0  0  0  0  0  0  0  0
  -30.3476  -17.8426   21.8284 C   0  0  0  0  0  0  0  0  0  0  0  0
  -31.3558  -30.7849   21.0037 C   0  0  1  0  0  0  0  0  0  0  0  0
  -27.5686  -30.8483   20.7098 C   0  0  1  0  0  0  0  0  0  0  0  0
  -30.9576  -16.4497   22.0651 C   0  0  2  0  0  0  0  0  0  0  0  0
  -28.9940  -23.7802   23.9669 C   0  0  0  0  0  0  0  0  0  0  0  0
  -21.2843  -32.5328   24.9138 C   0  0  0  0  0  0  0  0  0  0  0  0
  -31.2331  -22.1000   20.7380 C   0  0  0  0  0  0  0  0  0  0  0  0
  -31.7888  -19.9563   19.5850 C   0  0  0  0  0  0  0  0  0  0  0  0
  -24.9755  -19.8142   21.5463 C   0  0  0  0  0  0  0  0  0  0  0  0
  -26.2401  -19.9041   23.6758 C   0  0  0  0  0  0  0  0  0  0  0  0
  -27.6550  -30.7690   25.3301 C   0  0  0  0  0  0  0  0  0  0  0  0
  -25.4445  -31.1061   26.4562 C   0  0  0  0  0  0  0  0  0  0  0  0
  -26.6056  -33.0383   25.3877 C   0  0  0  0  0  0  0  0  0  0  0  0
  -21.3649  -31.5752   21.2324 C   0  0  0  0  0  0  0  0  0  0  0  0
  -28.6156  -22.9620   22.7433 C   0  0  0  0  0  0  0  0  0  0  0  0
  -25.6965  -22.7509   21.0127 C   0  0  0  0  0  0  0  0  0  0  0  0
  -25.8670  -22.0260   22.3532 C   0  0  0  0  0  0  0  0  0  0  0  0
  -29.0138  -21.4971   22.9090 C   0  0  0  0  0  0  0  0  0  0  0  0
  -25.4950  -24.2480   21.2145 C   0  0  0  0  0  0  0  0  0  1  0  0
  -25.5455  -31.2675   23.9274 C   0  0  1  0  0  0  0  0  0  0  0  0
  -21.9233  -32.3196   23.5504 C   0  0  2  0  0  0  0  0  0  0  0  0
  -30.9581  -20.5657   20.7624 C   0  0  0  0  0  0  0  0  0  0  0  0
  -26.1754  -20.4988   22.2483 C   0  0  0  0  0  0  0  0  0  0  0  0
  -26.3151  -31.5276   25.2531 C   0  0  0  0  0  0  0  0  0  0  0  0
  -28.8973  -15.1468   21.6900 N   0  0  0  0  0  0  0  0  0  0  0  0
  -28.8393  -19.5816   19.8820 N   0  0  0  0  0  0  0  0  0  0  0  0
  -27.5195  -19.5595   20.2867 N   0  0  0  0  0  0  0  0  0  0  0  0
  -30.1792  -15.3616   21.3485 N   0  0  0  0  0  0  0  0  0  0  0  0
  -28.6715  -20.7071   21.7509 N   0  0  0  0  0  0  0  0  0  0  0  0
  -26.6237  -30.6032   21.8013 N   0  0  0  0  0  0  0  0  0  0  0  0
  -31.1047  -18.8711   22.5553 N   0  0  0  0  0  0  0  0  0  0  0  0
  -31.8968  -14.6195   19.8960 N   0  0  0  0  0  0  0  0  0  0  0  0
  -28.4063  -11.9610   18.8259 N   0  0  0  0  0  0  0  0  0  0  0  0
  -29.9771  -31.0854   20.6822 N   0  0  0  0  0  0  0  0  0  0  0  0
  -24.2856  -31.9944   23.8153 N   0  0  0  0  0  0  0  0  0  0  0  0
  -20.8801  -31.8078   22.6173 N   0  3  0  0  0  0  0  0  0  0  0  0
  -30.6026  -12.4280   18.3601 O   0  0  0  0  0  0  0  0  0  0  0  0
  -28.9738  -29.3892   21.9227 O   0  0  0  0  0  0  0  0  0  0  0  0
  -26.7330  -32.8036   22.5647 O   0  0  0  0  0  0  0  0  0  0  0  0
  -32.6509  -20.6005   22.4192 O   0  0  0  0  0  0  0  0  0  0  0  0
  -22.9381  -30.1270   23.5423 O   0  0  0  0  0  0  0  0  0  0  0  0
  -23.3348  -12.0987   21.1273 O   0  0  0  0  0  0  0  0  0  0  0  0
  -25.3266  -24.8669   19.9397 O   0  0  0  0  0  0  0  0  0  1  0  0
  -22.7354   -6.6174   21.1035 F   0  0  0  0  0  0  0  0  0  0  0  0
  -22.1061  -10.7971   23.2342 F   0  0  0  0  0  0  0  0  0  0  0  0
  1  2  1  0  0  0  0
  1  5  2  0  0  0  0
  2  6  2  0  0  0  0
  3  8  2  0  0  0  0
  3 15  1  0  0  0  0
  4  9  1  0  0  0  0
  4 15  2  0  0  0  0
  5 17  1  0  0  0  0
  6 19  1  0  0  0  0
  7 10  2  0  0  0  0
  7 18  1  0  0  0  0
  8 21  1  0  0  0  0
  9 21  2  0  0  0  0
 10 22  1  0  0  0  0
 11 12  2  0  0  0  0
 11 23  1  0  0  0  0
 12 24  1  0  0  0  0
 13 20  1  0  0  0  0
 13 22  2  0  0  0  0
 14 24  2  0  0  0  0
 14 25  1  0  0  0  0
 15 26  1  0  0  0  0
 16 26  1  0  0  0  0
 16 27  2  0  0  0  0
 16 30  1  0  0  0  0
 17 19  2  0  0  0  0
 17 35  1  0  0  0  0
 18 20  2  0  0  0  0
 18 36  1  0  0  0  0
 19 44  1  0  0  0  0
 20 37  1  0  0  0  0
 21 84  1  0  0  0  0
 22 85  1  0  0  0  0
 23 25  2  0  0  0  0
 23 84  1  0  0  0  0
 24 86  1  0  0  0  0
 25 87  1  0  0  0  0
 26 67  2  0  0  0  0
 27 70  1  0  0  0  0
 27 74  1  0  0  0  0
 28 64  1  0  0  0  0
 28 68  2  0  0  0  0
 28 71  1  0  0  0  0
 29 65  1  0  0  0  0
 29 69  2  0  0  0  0
 29 71  1  0  0  0  0
 30 75  1  0  0  0  0
 30 79  2  0  0  0  0
 31 45  1  0  0  0  0
 31 76  1  0  0  0  0
 31 80  2  0  0  0  0
 32 62  1  0  0  0  0
 32 72  1  0  0  0  0
 32 81  2  0  0  0  0
 33 64  1  0  0  0  0
 33 73  1  0  0  0  0
 33 82  2  0  0  0  0
 34 63  1  0  0  0  0
 34 77  1  0  0  0  0
 34 83  2  0  0  0  0
 35 38  1  0  0  0  0
 36 45  1  0  0  0  0
 37 72  1  0  0  0  0
 38 40  1  0  0  0  0
 39 41  1  0  0  0  0
 39 42  1  0  0  0  0
 40 44  1  0  0  0  0
 41 46  1  0  0  0  0
 42 73  1  0  0  0  0
 43 46  1  0  0  0  0
 43 73  1  0  0  0  0
 44 76  1  0  0  0  0
 45 72  1  0  0  0  0
 46 70  1  0  0  0  0
 47 57  1  0  0  0  0
 48 63  1  0  0  0  0
 49 64  1  0  0  0  0
 50 64  1  0  0  0  0
 51 65  1  0  0  0  0
 52 65  1  0  0  0  0
 53 66  1  0  0  0  0
 54 66  1  0  0  0  0
 55 66  1  0  0  0  0
 56 78  1  0  0  0  0
 57 60  1  0  0  0  0
 58 59  1  0  0  0  0
 58 61  1  0  0  0  0
 59 65  1  0  0  0  0
 60 71  1  0  0  0  0
 61 85  1  0  0  0  0
 62 66  1  0  0  0  0
 62 77  1  0  0  0  0
 63 78  1  0  0  0  0
 67 70  1  0  0  0  0
 68 69  1  0  0  0  0
M  CHG  1  78   1
M  ISO  4  33 100  61 101  64 100  85 101
M  END
> <Batch ID>
0070

> <Smiles>
CCCn1c(C(C)(C)CC[101CH2:1][101O:1]c2ccc3c(c2)CN(C(=O)C(NC(=O)C(C)NC)C(C)(C)C)C(C(=O)NC2CCCc4ccccc42)C3)nnc1[100C:0](C)(C)[100C:0](=O)N1CCCC(n2nc(-c3ccc(Oc4ccc(F)cc4F)cc3)c(C(N)=O)c2N)C1

> <Shape>
0.270

> <Color>
0.081

> <Negative vol penalty>
0.000

$$$$

  -OEChem-04052318193D

 85 93  0     1  0  0  0  0  0999 V2000
  -14.6942  -25.1634   23.7518 C   0  0  0  0  0  0  0  0  0  0  0  0
  -15.8900  -24.5206   23.4480 C   0  0  0  0  0  0  0  0  0  0  0  0
  -23.1572   -9.9171   21.4791 C   0  0  0  0  0  0  0  0  0  0  0  0
  -23.8921  -10.7844   23.6110 C   0  0  0  0  0  0  0  0  0  0  0  0
  -14.5864  -26.5443   23.5926 C   0  0  0  0  0  0  0  0  0  0  0  0
  -16.9784  -25.2582   22.9837 C   0  0  0  0  0  0  0  0  0  0  0  0
  -21.3200  -23.9400   25.2328 C   0  0  0  0  0  0  0  0  0  0  0  0
  -22.4374   -8.9177   22.1338 C   0  0  0  0  0  0  0  0  0  0  0  0
  -23.1721   -9.7851   24.2657 C   0  0  0  0  0  0  0  0  0  0  0  0
  -21.9351  -22.7688   24.7926 C   0  0  0  0  0  0  0  0  0  0  0  0
  -20.6966   -5.9204   23.2336 C   0  0  0  0  0  0  0  0  0  0  0  0
  -20.7936   -4.6196   22.7395 C   0  0  0  0  0  0  0  0  0  0  0  0
  -23.4559  -24.0780   23.4537 C   0  0  0  0  0  0  0  0  0  0  0  0
  -23.1778   -4.6493   23.1293 C   0  0  0  0  0  0  0  0  0  0  0  0
  -27.7735  -13.7439   15.2203 C   0  0  0  0  0  0  0  0  0  0  0  0
  -26.5932  -15.6918   15.0121 C   0  0  0  0  0  0  0  0  0  0  0  0
  -23.8847  -10.8504   22.2177 C   0  0  0  0  0  0  0  0  0  0  0  0
  -24.1698  -13.1631   21.1795 C   0  0  0  0  0  0  0  0  0  0  0  0
  -15.6771  -27.3006   23.1353 C   0  0  0  0  0  0  0  0  0  0  0  0
  -21.7619  -25.1905   24.7775 C   0  0  0  0  0  0  0  0  0  0  0  0
  -16.8847  -26.6504   22.8169 C   0  0  0  0  0  0  0  0  0  0  0  0
  -22.8463  -25.2636   23.8917 C   0  0  0  0  0  0  0  0  0  0  0  0
  -22.4448   -8.8517   23.5271 C   0  0  0  0  0  0  0  0  0  0  0  0
  -23.0013  -22.8376   23.9007 C   0  0  0  0  0  0  0  0  0  0  0  0
  -21.8403   -6.5857   23.6754 C   0  0  0  0  0  0  0  0  0  0  0  0
  -22.0342   -3.9840   22.6874 C   0  0  0  0  0  0  0  0  0  0  0  0
  -23.0808   -5.9502   23.6233 C   0  0  0  0  0  0  0  0  0  0  0  0
  -24.6290  -11.8826   21.5420 C   0  0  0  0  0  0  0  0  0  0  0  0
  -28.4711  -14.2800   16.2804 C   0  0  0  0  0  0  0  0  0  0  0  0
  -27.2909  -16.2280   16.0720 C   0  0  0  0  0  0  0  0  0  0  0  0
  -25.2483  -13.7543   20.5682 C   0  0  0  0  0  0  0  0  0  0  0  0
  -22.8834  -13.7644   21.3778 C   0  0  0  0  0  0  0  0  0  0  0  0
  -29.5044  -13.5106   16.9854 C   0  0  0  0  0  0  0  0  0  0  0  0
  -20.4517  -27.5656   23.1204 C   0  0  0  0  0  0  0  0  0  0  0  0
  -23.2435  -29.0668   23.8094 C   0  0  0  0  0  0  0  0  0  0  0  0
  -26.5441  -28.8088   24.6378 C   0  0  0  0  0  0  0  0  0  0  0  0
  -15.4982  -28.7845   22.9341 C   0  0  0  0  0  0  0  0  0  0  0  0
  -21.1050  -26.4458   25.2826 C   0  0  0  0  0  0  0  0  0  0  0  0
  -23.3719  -26.5825   23.3887 C   0  0  0  0  0  0  0  0  0  0  0  0
  -16.8153  -29.5434   22.7935 C   0  0  0  0  0  0  0  0  0  0  0  0
  -30.0915  -12.3229   20.3000 C   0  0  0  0  0  0  0  0  0  0  0  0
  -17.7459  -28.8223   21.8236 C   0  0  0  0  0  0  0  0  0  0  0  0
  -28.6847  -12.1878   20.8855 C   0  0  0  0  0  0  0  0  0  0  0  0
  -30.1207  -11.9677   18.8156 C   0  0  0  0  0  0  0  0  0  0  0  0
  -27.7395  -12.5802   18.5718 C   0  0  0  0  0  0  0  0  0  0  0  0
  -18.0955  -27.4193   22.3344 C   0  0  1  0  0  0  0  0  0  0  0  0
  -21.3053  -27.6400   24.3547 C   0  0  1  0  0  0  0  0  0  0  0  0
  -27.6565  -12.9783   20.0546 C   0  0  1  0  0  0  0  0  0  0  0  0
  -28.5753  -30.2092   25.0965 C   0  0  0  0  0  0  0  0  0  0  0  0
  -23.5561  -29.5883   20.8193 C   0  0  0  0  0  0  0  0  0  0  0  0
  -25.9693  -30.1108   21.2337 C   0  0  0  0  0  0  0  0  0  0  0  0
  -24.1933  -31.5112   22.2859 C   0  0  0  0  0  0  0  0  0  0  0  0
  -22.7542  -19.7533   21.4262 C   0  0  0  0  0  0  0  0  0  0  0  0
  -26.7843  -27.7640   27.3963 C   0  0  0  0  0  0  0  0  0  0  0  0
  -27.0086  -17.6250   16.5407 C   0  0  0  0  0  0  0  0  0  0  0  0
  -25.1654  -18.9407   19.6102 C   0  0  0  0  0  0  0  0  0  0  0  0
  -24.9304  -20.3300   20.2124 C   0  0  0  0  0  0  0  0  0  0  0  0
  -25.9911  -19.0346   18.3341 C   0  0  0  0  0  0  0  0  0  0  0  0
  -24.1767  -21.7182   22.1625 C   0  0  0  0  0  0  0  0  0  1  0  0
  -24.5954  -29.1677   23.1451 C   0  0  1  0  0  0  0  0  0  0  0  0
  -27.3725  -29.5037   25.7033 C   0  0  2  0  0  0  0  0  0  0  0  0
  -24.5676  -30.0694   21.8788 C   0  0  0  0  0  0  0  0  0  0  0  0
  -24.1702  -20.3124   21.5508 C   0  0  1  0  0  0  0  0  0  0  0  0
  -26.8219  -14.4401   14.5672 N   0  0  0  0  0  0  0  0  0  0  0  0
  -25.9001  -11.6720   21.1901 N   0  0  0  0  0  0  0  0  0  0  0  0
  -28.2424  -15.5317   16.7252 N   0  0  0  0  0  0  0  0  0  0  0  0
  -26.2489  -12.8280   20.6001 N   0  0  0  0  0  0  0  0  0  0  0  0
  -29.1159  -12.7347   18.0802 N   0  0  0  0  0  0  0  0  0  0  0  0
  -22.6923  -27.7813   23.9067 N   0  0  0  0  0  0  0  0  0  0  0  0
  -25.4289  -14.9709   20.0117 N   0  0  0  0  0  0  0  0  0  0  0  0
  -21.8890  -13.0172   22.0237 N   0  0  0  0  0  0  0  0  0  0  0  0
  -19.0958  -27.4959   23.3775 N   0  0  0  0  0  0  0  0  0  0  0  0
  -25.5248  -29.6149   24.1769 N   0  0  0  0  0  0  0  0  0  0  0  0
  -27.8634  -28.5149   26.7044 N   0  3  0  0  0  0  0  0  0  0  0  0
  -26.2334  -17.6686   17.8109 N   0  3  0  0  0  0  0  0  0  0  0  0
  -22.6184  -14.9238   20.9789 O   0  0  0  0  0  0  0  0  0  0  0  0
  -30.6520  -13.6213   16.5564 O   0  0  0  0  0  0  0  0  0  0  0  0
  -20.9837  -27.5725   22.0165 O   0  0  0  0  0  0  0  0  0  0  0  0
  -22.6999  -30.0899   24.2329 O   0  0  0  0  0  0  0  0  0  0  0  0
  -26.7801  -27.6666   24.2502 O   0  0  0  0  0  0  0  0  0  0  0  0
  -21.7422   -7.8769   24.1663 O   0  0  0  0  0  0  0  0  0  0  0  0
  -23.6031  -21.6959   23.4689 O   0  0  0  0  0  0  0  0  0  1  0  0
  -22.1269   -2.7343   22.2144 F   0  0  0  0  0  0  0  0  0  0  0  0
  -24.1828   -6.5838   24.0474 F   0  0  0  0  0  0  0  0  0  0  0  0
  -24.8588  -19.4971   22.4070 F   0  0  0  0  0  0  0  0  0  0  0  0
  1  2  1  0  0  0  0
  1  5  2  0  0  0  0
  2  6  2  0  0  0  0
  3  8  2  0  0  0  0
  3 17  1  0  0  0  0
  4  9  1  0  0  0  0
  4 17  2  0  0  0  0
  5 19  1  0  0  0  0
  6 21  1  0  0  0  0
  7 10  2  0  0  0  0
  7 20  1  0  0  0  0
  8 23  1  0  0  0  0
  9 23  2  0  0  0  0
 10 24  1  0  0  0  0
 11 12  2  0  0  0  0
 11 25  1  0  0  0  0
 12 26  1  0  0  0  0
 13 22  1  0  0  0  0
 13 24  2  0  0  0  0
 14 26  2  0  0  0  0
 14 27  1  0  0  0  0
 15 29  2  0  0  0  0
 15 64  1  0  0  0  0
 16 30  1  0  0  0  0
 16 64  2  0  0  0  0
 17 28  1  0  0  0  0
 18 28  1  0  0  0  0
 18 31  2  0  0  0  0
 18 32  1  0  0  0  0
 19 21  2  0  0  0  0
 19 37  1  0  0  0  0
 20 22  2  0  0  0  0
 20 38  1  0  0  0  0
 21 46  1  0  0  0  0
 22 39  1  0  0  0  0
 23 81  1  0  0  0  0
 24 82  1  0  0  0  0
 25 27  2  0  0  0  0
 25 81  1  0  0  0  0
 26 83  1  0  0  0  0
 27 84  1  0  0  0  0
 28 65  2  0  0  0  0
 29 33  1  0  0  0  0
 29 66  1  0  0  0  0
 30 55  1  0  0  0  0
 30 66  2  0  0  0  0
 31 67  1  0  0  0  0
 31 70  1  0  0  0  0
 32 71  1  0  0  0  0
 32 76  2  0  0  0  0
 33 68  1  0  0  0  0
 33 77  2  0  0  0  0
 34 47  1  0  0  0  0
 34 72  1  0  0  0  0
 34 78  2  0  0  0  0
 35 60  1  0  0  0  0
 35 69  1  0  0  0  0
 35 79  2  0  0  0  0
 36 61  1  0  0  0  0
 36 73  1  0  0  0  0
 36 80  2  0  0  0  0
 37 40  1  0  0  0  0
 38 47  1  0  0  0  0
 39 69  1  0  0  0  0
 40 42  1  0  0  0  0
 41 43  1  0  0  0  0
 41 44  1  0  0  0  0
 42 46  1  0  0  0  0
 43 48  1  0  0  0  0
 44 68  1  0  0  0  0
 45 48  1  0  0  0  0
 45 68  1  0  0  0  0
 46 72  1  0  0  0  0
 47 69  1  0  0  0  0
 48 67  1  0  0  0  0
 49 61  1  0  0  0  0
 50 62  1  0  0  0  0
 51 62  1  0  0  0  0
 52 62  1  0  0  0  0
 53 63  1  0  0  0  0
 54 74  1  0  0  0  0
 55 75  1  0  0  0  0
 56 57  1  0  0  0  0
 56 58  1  0  0  0  0
 57 63  1  0  0  0  0
 58 75  1  0  0  0  0
 59 63  1  0  0  0  0
 59 82  1  0  0  0  0
 60 62  1  0  0  0  0
 60 73  1  0  0  0  0
 61 74  1  0  0  0  0
 63 85  1  0  0  0  0
 65 67  1  0  0  0  0
M  CHG  2  74   1  75   1
M  ISO  4  29 100  33 100  59 101  82 101
M  END
> <Batch ID>
0070

> <Smiles>
CNC(C)C(=O)NC(C(=O)N1Cc2cc([101O:1][101CH2:1]C(C)(F)CCCNCc3cnc[100c:0]([100C:0](=O)N4CCCC(n5nc(-c6ccc(Oc7ccc(F)cc7F)cc6)c(C(N)=O)c5N)C4)n3)ccc2CC1C(=O)NC1CCCc2ccccc21)C(C)(C)C

> <Shape>
0.243

> <Color>
0.132

> <Negative vol penalty>
0.000

$$$$

  -OEChem-04052318193D

 85 93  0     1  0  0  0  0  0999 V2000
  -29.6321  -31.4315   24.0371 C   0  0  0  0  0  0  0  0  0  0  0  0
  -29.2281  -30.2632   23.3989 C   0  0  0  0  0  0  0  0  0  0  0  0
  -23.8793  -10.6821   23.1495 C   0  0  0  0  0  0  0  0  0  0  0  0
  -24.4973  -12.6225   24.4494 C   0  0  0  0  0  0  0  0  0  0  0  0
  -28.7366  -32.1266   24.8487 C   0  0  0  0  0  0  0  0  0  0  0  0
  -27.9284  -29.7887   23.5729 C   0  0  0  0  0  0  0  0  0  0  0  0
  -25.7977  -28.3191   19.2204 C   0  0  0  0  0  0  0  0  0  0  0  0
  -23.3741  -10.0733   24.2983 C   0  0  0  0  0  0  0  0  0  0  0  0
  -23.9921  -12.0138   25.5983 C   0  0  0  0  0  0  0  0  0  0  0  0
  -26.1759  -27.0763   18.7140 C   0  0  0  0  0  0  0  0  0  0  0  0
  -20.5767  -10.2555   26.1890 C   0  0  0  0  0  0  0  0  0  0  0  0
  -19.3348   -9.6273   26.0969 C   0  0  0  0  0  0  0  0  0  0  0  0
  -24.1542  -26.1057   19.6028 C   0  0  0  0  0  0  0  0  0  0  0  0
  -20.3495   -7.5285   26.7314 C   0  0  0  0  0  0  0  0  0  0  0  0
  -26.8041  -16.8374   21.6740 C   0  0  0  0  0  0  0  0  0  0  0  0
  -24.4410  -11.9566   23.2251 C   0  0  0  0  0  0  0  0  0  0  0  0
  -24.2663  -13.4120   21.1373 C   0  0  0  0  0  0  0  0  0  0  0  0
  -27.4224  -31.6656   25.0251 C   0  0  0  0  0  0  0  0  0  0  0  0
  -24.5981  -28.4624   19.9324 C   0  0  0  0  0  0  0  0  0  0  0  0
  -27.0149  -30.4775   24.3888 C   0  0  0  0  0  0  0  0  0  0  0  0
  -23.7618  -27.3518   20.1149 C   0  0  0  0  0  0  0  0  0  0  0  0
  -23.4304  -10.7392   25.5227 C   0  0  0  0  0  0  0  0  0  0  0  0
  -25.3555  -25.9688   18.9077 C   0  0  0  0  0  0  0  0  0  0  0  0
  -21.7051   -9.5203   26.5522 C   0  0  0  0  0  0  0  0  0  0  0  0
  -19.2212   -8.2637   26.3682 C   0  0  0  0  0  0  0  0  0  0  0  0
  -21.5915   -8.1568   26.8234 C   0  0  0  0  0  0  0  0  0  0  0  0
  -24.9636  -12.5857   22.0388 C   0  0  0  0  0  0  0  0  0  0  0  0
  -28.1403  -17.2445   21.8488 C   0  0  0  0  0  0  0  0  0  0  0  0
  -26.1116  -18.0073   21.4784 C   0  0  0  0  0  0  0  0  0  0  0  0
  -25.2005  -13.7508   20.1891 C   0  0  0  0  0  0  0  0  0  0  0  0
  -22.8967  -13.8356   21.1553 C   0  0  0  0  0  0  0  0  0  0  0  0
  -23.8380  -29.3232   22.8963 C   0  0  0  0  0  0  0  0  0  0  0  0
  -20.8069  -29.1427   21.7550 C   0  0  0  0  0  0  0  0  0  0  0  0
  -18.6514  -27.8419   19.4510 C   0  0  0  0  0  0  0  0  0  0  0  0
  -31.3073  -13.7343   20.6844 C   0  0  0  0  0  0  0  0  0  0  0  0
  -26.5046  -32.4253   25.9498 C   0  0  0  0  0  0  0  0  0  0  0  0
  -24.1915  -29.8152   20.4491 C   0  0  0  0  0  0  0  0  0  0  0  0
  -22.4541  -27.4569   20.8547 C   0  0  0  0  0  0  0  0  0  0  0  0
  -25.0322  -32.0585   25.7832 C   0  0  0  0  0  0  0  0  0  0  0  0
  -29.1868  -12.1433   18.1010 C   0  0  0  0  0  0  0  0  0  0  0  0
  -24.8619  -30.5435   25.7326 C   0  0  0  0  0  0  0  0  0  0  0  0
  -27.8198  -12.0865   18.7807 C   0  0  0  0  0  0  0  0  0  0  0  0
  -30.3264  -12.1018   19.1145 C   0  0  0  0  0  0  0  0  0  0  0  0
  -28.8671  -13.0923   20.8476 C   0  0  0  0  0  0  0  0  0  0  0  0
  -25.6060  -29.9444   24.5331 C   0  0  1  0  0  0  0  0  0  0  0  0
  -23.1965  -29.7398   21.6030 C   0  0  1  0  0  0  0  0  0  0  0  0
  -27.6964  -13.1791   19.8569 C   0  0  2  0  0  0  0  0  0  0  0  0
  -24.6781  -18.2558   21.2391 C   0  0  0  0  0  0  0  0  0  0  0  0
  -16.2290  -27.8486   18.7957 C   0  0  0  0  0  0  0  0  0  0  0  0
  -20.1738  -27.2779   24.0856 C   0  0  0  0  0  0  0  0  0  0  0  0
  -18.0955  -26.5835   22.8746 C   0  0  0  0  0  0  0  0  0  0  0  0
  -18.3916  -28.9579   23.5799 C   0  0  0  0  0  0  0  0  0  0  0  0
  -32.3408  -15.7416   21.6754 C   0  0  0  0  0  0  0  0  0  0  0  0
  -19.2550  -28.9842   16.7884 C   0  0  0  0  0  0  0  0  0  0  0  0
  -29.3136  -16.3898   22.0970 C   0  0  0  0  0  0  0  0  0  0  0  0
  -26.9195  -22.4828   19.8543 C   0  0  0  0  0  0  0  0  0  0  0  0
  -27.2153  -20.9901   20.0131 C   0  0  0  0  0  0  0  0  0  0  0  0
  -27.3816  -22.9980   18.4880 C   0  0  0  0  0  0  0  0  0  0  0  0
  -26.7907  -20.4841   21.3935 C   0  0  0  0  0  0  0  0  0  0  0  0
  -30.0337  -15.9166   20.8194 C   0  0  0  0  0  0  0  0  0  0  0  0
  -27.1213  -24.4896   18.3162 C   0  0  0  0  0  0  0  0  0  1  0  0
  -19.7641  -28.0554   21.6580 C   0  0  1  0  0  0  0  0  0  0  0  0
  -17.5895  -28.4942   18.5841 C   0  0  2  0  0  0  0  0  0  0  0  0
  -19.1318  -27.7160   23.0372 C   0  0  0  0  0  0  0  0  0  0  0  0
  -26.2421  -12.4101   21.6942 N   0  0  0  0  0  0  0  0  0  0  0  0
  -28.2901  -18.5694   21.7709 N   0  0  0  0  0  0  0  0  0  0  0  0
  -27.0390  -19.0051   21.5450 N   0  0  0  0  0  0  0  0  0  0  0  0
  -26.3554  -13.1306   20.5654 N   0  0  0  0  0  0  0  0  0  0  0  0
  -22.1035  -28.7997   21.3463 N   0  0  0  0  0  0  0  0  0  0  0  0
  -30.1614  -13.1224   20.1501 N   0  0  0  0  0  0  0  0  0  0  0  0
  -25.1384  -14.5155   19.0783 N   0  0  0  0  0  0  0  0  0  0  0  0
  -22.0749  -13.3953   22.2019 N   0  0  0  0  0  0  0  0  0  0  0  0
  -24.8558  -30.1592   23.3143 N   0  0  0  0  0  0  0  0  0  0  0  0
  -18.8038  -28.4994   20.6534 N   0  0  0  0  0  0  0  0  0  0  0  0
  -31.1779  -15.0604   21.1243 N   0  0  0  0  0  0  0  0  0  0  0  0
  -17.9494  -28.3706   17.1432 N   0  3  0  0  0  0  0  0  0  0  0  0
  -22.4115  -14.5690   20.2608 O   0  0  0  0  0  0  0  0  0  0  0  0
  -23.4381  -28.3187   23.4730 O   0  0  0  0  0  0  0  0  0  0  0  0
  -20.4815  -30.2574   22.1712 O   0  0  0  0  0  0  0  0  0  0  0  0
  -19.2799  -26.8463   19.0984 O   0  0  0  0  0  0  0  0  0  0  0  0
  -32.3868  -13.1330   20.7548 O   0  0  0  0  0  0  0  0  0  0  0  0
  -22.9373  -10.1456   26.6439 O   0  0  0  0  0  0  0  0  0  0  0  0
  -25.7226  -24.7546   18.4151 O   0  0  0  0  0  0  0  0  0  1  0  0
  -18.0282   -7.6609   26.2813 F   0  0  0  0  0  0  0  0  0  0  0  0
  -22.6717   -7.4454   27.1740 F   0  0  0  0  0  0  0  0  0  0  0  0
  1  2  1  0  0  0  0
  1  5  2  0  0  0  0
  2  6  2  0  0  0  0
  3  8  2  0  0  0  0
  3 16  1  0  0  0  0
  4  9  1  0  0  0  0
  4 16  2  0  0  0  0
  5 18  1  0  0  0  0
  6 20  1  0  0  0  0
  7 10  2  0  0  0  0
  7 19  1  0  0  0  0
  8 22  1  0  0  0  0
  9 22  2  0  0  0  0
 10 23  1  0  0  0  0
 11 12  2  0  0  0  0
 11 24  1  0  0  0  0
 12 25  1  0  0  0  0
 13 21  1  0  0  0  0
 13 23  2  0  0  0  0
 14 25  2  0  0  0  0
 14 26  1  0  0  0  0
 15 28  1  0  0  0  0
 15 29  2  0  0  0  0
 16 27  1  0  0  0  0
 17 27  1  0  0  0  0
 17 30  2  0  0  0  0
 17 31  1  0  0  0  0
 18 20  2  0  0  0  0
 18 36  1  0  0  0  0
 19 21  2  0  0  0  0
 19 37  1  0  0  0  0
 20 45  1  0  0  0  0
 21 38  1  0  0  0  0
 22 82  1  0  0  0  0
 23 83  1  0  0  0  0
 24 26  2  0  0  0  0
 24 82  1  0  0  0  0
 25 84  1  0  0  0  0
 26 85  1  0  0  0  0
 27 65  2  0  0  0  0
 28 55  1  0  0  0  0
 28 66  2  0  0  0  0
 29 48  1  0  0  0  0
 29 67  1  0  0  0  0
 30 68  1  0  0  0  0
 30 71  1  0  0  0  0
 31 72  1  0  0  0  0
 31 77  2  0  0  0  0
 32 46  1  0  0  0  0
 32 73  1  0  0  0  0
 32 78  2  0  0  0  0
 33 62  1  0  0  0  0
 33 69  1  0  0  0  0
 33 79  2  0  0  0  0
 34 63  1  0  0  0  0
 34 74  1  0  0  0  0
 34 80  2  0  0  0  0
 35 70  1  0  0  0  0
 35 75  1  0  0  0  0
 35 81  2  0  0  0  0
 36 39  1  0  0  0  0
 37 46  1  0  0  0  0
 38 69  1  0  0  0  0
 39 41  1  0  0  0  0
 40 42  1  0  0  0  0
 40 43  1  0  0  0  0
 41 45  1  0  0  0  0
 42 47  1  0  0  0  0
 43 70  1  0  0  0  0
 44 47  1  0  0  0  0
 44 70  1  0  0  0  0
 45 73  1  0  0  0  0
 46 69  1  0  0  0  0
 47 68  1  0  0  0  0
 49 63  1  0  0  0  0
 50 64  1  0  0  0  0
 51 64  1  0  0  0  0
 52 64  1  0  0  0  0
 53 75  1  0  0  0  0
 54 76  1  0  0  0  0
 55 60  1  0  0  0  0
 56 57  1  0  0  0  0
 56 58  1  0  0  0  0
 57 59  1  0  0  0  0
 58 61  1  0  0  0  0
 59 67  1  0  0  0  0
 60 75  1  0  0  0  0
 61 83  1  0  0  0  0
 62 64  1  0  0  0  0
 62 74  1  0  0  0  0
 63 76  1  0  0  0  0
 65 68  1  0  0  0  0
 66 67  1  0  0  0  0
M  CHG  1  76   1
M  ISO  4  35 100  61 101  75 100  83 101
M  END
> <Batch ID>
0070

> <Smiles>
CNC(C)C(=O)NC(C(=O)N1Cc2cc([101O:1][101CH2:1]CCCCn3nc(CC[100N:0](C)[100C:0](=O)N4CCCC(n5nc(-c6ccc(Oc7ccc(F)cc7F)cc6)c(C(N)=O)c5N)C4)cc3C)ccc2CC1C(=O)NC1CCCc2ccccc21)C(C)(C)C

> <Shape>
0.279

> <Color>
0.088

> <Negative vol penalty>
0.000

$$$$

  -OEChem-04052318193D

 88 96  0     1  0  0  0  0  0999 V2000
  -16.7916  -26.7690   22.2766 C   0  0  0  0  0  0  0  0  0  0  0  0
  -18.0074  -26.4023   21.7085 C   0  0  0  0  0  0  0  0  0  0  0  0
  -24.1284   -9.9670   22.6500 C   0  0  0  0  0  0  0  0  0  0  0  0
  -24.3305  -11.8686   24.1265 C   0  0  0  0  0  0  0  0  0  0  0  0
  -16.7229  -27.8790   23.1175 C   0  0  0  0  0  0  0  0  0  0  0  0
  -19.1552  -27.1461   21.9801 C   0  0  0  0  0  0  0  0  0  0  0  0
  -23.1625  -24.2273   23.0132 C   0  0  0  0  0  0  0  0  0  0  0  0
  -23.7037   -9.1806   23.7209 C   0  0  0  0  0  0  0  0  0  0  0  0
  -23.9058  -11.0822   25.1975 C   0  0  0  0  0  0  0  0  0  0  0  0
  -23.8124  -23.6325   21.9327 C   0  0  0  0  0  0  0  0  0  0  0  0
  -22.9107   -6.5816   26.1375 C   0  0  0  0  0  0  0  0  0  0  0  0
  -23.4670   -5.3095   26.2706 C   0  0  0  0  0  0  0  0  0  0  0  0
  -25.5063  -25.3480   22.0150 C   0  0  0  0  0  0  0  0  0  0  0  0
  -25.6652   -6.2917   26.4714 C   0  0  0  0  0  0  0  0  0  0  0  0
  -29.2673  -18.9377   21.2646 C   0  0  0  0  0  0  0  0  0  0  0  0
  -24.4419  -11.3110   22.8528 C   0  0  0  0  0  0  0  0  0  0  0  0
  -24.0758  -12.8842   20.8783 C   0  0  0  0  0  0  0  0  0  0  0  0
  -17.8723  -28.6311   23.4072 C   0  0  0  0  0  0  0  0  0  0  0  0
  -23.6745  -25.3951   23.5968 C   0  0  0  0  0  0  0  0  0  0  0  0
  -19.1016  -28.2680   22.8246 C   0  0  0  0  0  0  0  0  0  0  0  0
  -24.8624  -25.9543   23.1044 C   0  0  0  0  0  0  0  0  0  0  0  0
  -29.2431  -17.7610   20.5441 C   0  0  0  0  0  0  0  0  0  0  0  0
  -23.5924   -9.7382   24.9946 C   0  0  0  0  0  0  0  0  0  0  0  0
  -24.9829  -24.1945   21.4316 C   0  0  0  0  0  0  0  0  0  0  0  0
  -23.7316   -7.7088   26.1712 C   0  0  0  0  0  0  0  0  0  0  0  0
  -24.8442   -5.1645   26.4376 C   0  0  0  0  0  0  0  0  0  0  0  0
  -25.1089   -7.5639   26.3383 C   0  0  0  0  0  0  0  0  0  0  0  0
  -24.8812  -12.1238   21.7471 C   0  0  0  0  0  0  0  0  0  0  0  0
  -29.4300  -17.8904   19.1830 C   0  0  0  0  0  0  0  0  0  0  0  0
  -24.9645  -13.4666   20.0080 C   0  0  0  0  0  0  0  0  0  0  0  0
  -29.6291  -20.1467   19.3740 C   0  0  0  0  0  0  0  0  0  0  0  0
  -22.6517  -13.0494   20.8597 C   0  0  0  0  0  0  0  0  0  0  0  0
  -22.6141  -28.3687   23.9670 C   0  0  0  0  0  0  0  0  0  0  0  0
  -25.3170  -28.6981   25.7299 C   0  0  0  0  0  0  0  0  0  0  0  0
  -30.8037  -14.7897   20.5233 C   0  0  0  0  0  0  0  0  0  0  0  0
  -28.4839  -27.6212   26.4065 C   0  0  0  0  0  0  0  0  0  0  0  0
  -17.7397  -29.8509   24.2843 C   0  0  0  0  0  0  0  0  0  0  0  0
  -22.9761  -26.0095   24.7788 C   0  0  0  0  0  0  0  0  0  0  0  0
  -25.4643  -27.1959   23.7083 C   0  0  0  0  0  0  0  0  0  0  0  0
  -19.0739  -30.3641   24.8197 C   0  0  0  0  0  0  0  0  0  0  0  0
  -29.2435  -12.7826   17.9979 C   0  0  0  0  0  0  0  0  0  0  0  0
  -20.1092  -30.4272   23.7013 C   0  0  0  0  0  0  0  0  0  0  0  0
  -27.8862  -12.4316   18.6060 C   0  0  0  0  0  0  0  0  0  0  0  0
  -30.3325  -12.8498   19.0641 C   0  0  0  0  0  0  0  0  0  0  0  0
  -28.6678  -13.4354   20.7984 C   0  0  0  0  0  0  0  0  0  0  0  0
  -20.3734  -29.0351   23.1149 C   0  0  1  0  0  0  0  0  0  0  0  0
  -23.3071  -27.4868   24.9669 C   0  0  1  0  0  0  0  0  0  0  0  0
  -27.5335  -13.3874   19.7595 C   0  0  2  0  0  0  0  0  0  0  0  0
  -29.4237  -16.6845   18.3025 C   0  0  0  0  0  0  0  0  0  0  0  0
  -28.0029  -16.5522   22.3811 C   0  0  0  0  0  0  0  0  0  0  0  0
  -30.4599  -28.1112   27.8738 C   0  0  0  0  0  0  0  0  0  0  0  0
  -31.3736  -21.8021   18.6769 C   0  0  0  0  0  0  0  0  0  0  0  0
  -29.3728  -21.5746   17.2322 C   0  0  0  0  0  0  0  0  0  0  0  0
  -30.1540  -14.7929   22.8917 C   0  0  0  0  0  0  0  0  0  0  0  0
  -31.5013  -16.6559   21.9006 C   0  0  0  0  0  0  0  0  0  0  0  0
  -26.0091  -31.1067   23.9894 C   0  0  0  0  0  0  0  0  0  0  0  0
  -28.3580  -30.9612   24.8437 C   0  0  0  0  0  0  0  0  0  0  0  0
  -26.4827  -31.4100   26.4262 C   0  0  0  0  0  0  0  0  0  0  0  0
  -28.3624  -24.9439   27.6619 C   0  0  0  0  0  0  0  0  0  0  0  0
  -27.6288  -22.5611   19.5935 C   0  0  0  0  0  0  0  0  0  0  0  0
  -29.1565  -22.6600   19.5051 C   0  0  0  0  0  0  0  0  0  0  0  0
  -27.0362  -23.7690   20.3095 C   0  0  0  0  0  0  0  0  0  1  0  0
  -29.0275  -16.4534   21.2143 C   0  0  2  0  0  0  0  0  0  0  0  0
  -26.7428  -29.0982   25.4364 C   0  0  1  0  0  0  0  0  0  0  0  0
  -29.1813  -27.3029   27.7168 C   0  0  2  0  0  0  0  0  0  0  0  0
  -29.8512  -21.5144   18.7030 C   0  0  0  0  0  0  0  0  0  0  0  0
  -30.3395  -15.6776   21.6503 C   0  0  0  0  0  0  0  0  0  0  0  0
  -26.8860  -30.6217   25.1611 C   0  0  0  0  0  0  0  0  0  0  0  0
  -29.4586  -20.1526   20.7098 N   0  0  0  0  0  0  0  0  0  0  0  0
  -26.1815  -12.2129   21.4552 N   0  0  0  0  0  0  0  0  0  0  0  0
  -29.6263  -19.0721   18.5623 N   0  0  0  0  0  0  0  0  0  0  0  0
  -26.2000  -13.0361   20.3932 N   0  0  0  0  0  0  0  0  0  0  0  0
  -24.7410  -27.7630   24.8583 N   0  0  0  0  0  0  0  0  0  0  0  0
  -29.9498  -13.7505   20.1530 N   0  0  0  0  0  0  0  0  0  0  0  0
  -24.8018  -14.2998   18.9583 N   0  0  0  0  0  0  0  0  0  0  0  0
  -21.8887  -12.3794   21.8258 N   0  0  0  0  0  0  0  0  0  0  0  0
  -21.2358  -28.2726   23.9920 N   0  0  0  0  0  0  0  0  0  0  0  0
  -27.5413  -28.6160   26.5581 N   0  0  0  0  0  0  0  0  0  0  0  0
  -29.5296  -25.8553   27.7799 N   0  3  0  0  0  0  0  0  0  0  0  0
  -22.0716  -13.7568   20.0014 O   0  0  0  0  0  0  0  0  0  0  0  0
  -23.2804  -29.0845   23.2286 O   0  0  0  0  0  0  0  0  0  0  0  0
  -24.7382  -29.1915   26.7011 O   0  0  0  0  0  0  0  0  0  0  0  0
  -31.8916  -15.0163   19.9874 O   0  0  0  0  0  0  0  0  0  0  0  0
  -28.7515  -27.0475   25.3530 O   0  0  0  0  0  0  0  0  0  0  0  0
  -23.1777   -8.9712   26.0397 O   0  0  0  0  0  0  0  0  0  0  0  0
  -25.6190  -23.6163   20.3766 O   0  0  0  0  0  0  0  0  0  1  0  0
  -25.3781   -3.9428   26.5669 F   0  0  0  0  0  0  0  0  0  0  0  0
  -25.9025   -8.6431   26.3727 F   0  0  0  0  0  0  0  0  0  0  0  0
  1  2  1  0  0  0  0
  1  5  2  0  0  0  0
  2  6  2  0  0  0  0
  3  8  2  0  0  0  0
  3 16  1  0  0  0  0
  4  9  1  0  0  0  0
  4 16  2  0  0  0  0
  5 18  1  0  0  0  0
  6 20  1  0  0  0  0
  7 10  2  0  0  0  0
  7 19  1  0  0  0  0
  8 23  1  0  0  0  0
  9 23  2  0  0  0  0
 10 24  1  0  0  0  0
 11 12  2  0  0  0  0
 11 25  1  0  0  0  0
 12 26  1  0  0  0  0
 13 21  1  0  0  0  0
 13 24  2  0  0  0  0
 14 26  2  0  0  0  0
 14 27  1  0  0  0  0
 15 22  1  0  0  0  0
 15 69  2  0  0  0  0
 16 28  1  0  0  0  0
 17 28  1  0  0  0  0
 17 30  2  0  0  0  0
 17 32  1  0  0  0  0
 18 20  2  0  0  0  0
 18 37  1  0  0  0  0
 19 21  2  0  0  0  0
 19 38  1  0  0  0  0
 20 46  1  0  0  0  0
 21 39  1  0  0  0  0
 22 29  2  0  0  0  0
 22 63  1  0  0  0  0
 23 85  1  0  0  0  0
 24 86  1  0  0  0  0
 25 27  2  0  0  0  0
 25 85  1  0  0  0  0
 26 87  1  0  0  0  0
 27 88  1  0  0  0  0
 28 70  2  0  0  0  0
 29 49  1  0  0  0  0
 29 71  1  0  0  0  0
 30 72  1  0  0  0  0
 30 75  1  0  0  0  0
 31 66  1  0  0  0  0
 31 69  1  0  0  0  0
 31 71  2  0  0  0  0
 32 76  1  0  0  0  0
 32 80  2  0  0  0  0
 33 47  1  0  0  0  0
 33 77  1  0  0  0  0
 33 81  2  0  0  0  0
 34 64  1  0  0  0  0
 34 73  1  0  0  0  0
 34 82  2  0  0  0  0
 35 67  1  0  0  0  0
 35 74  1  0  0  0  0
 35 83  2  0  0  0  0
 36 65  1  0  0  0  0
 36 78  1  0  0  0  0
 36 84  2  0  0  0  0
 37 40  1  0  0  0  0
 38 47  1  0  0  0  0
 39 73  1  0  0  0  0
 40 42  1  0  0  0  0
 41 43  1  0  0  0  0
 41 44  1  0  0  0  0
 42 46  1  0  0  0  0
 43 48  1  0  0  0  0
 44 74  1  0  0  0  0
 45 48  1  0  0  0  0
 45 74  1  0  0  0  0
 46 77  1  0  0  0  0
 47 73  1  0  0  0  0
 48 72  1  0  0  0  0
 50 63  1  0  0  0  0
 51 65  1  0  0  0  0
 52 66  1  0  0  0  0
 53 66  1  0  0  0  0
 54 67  1  0  0  0  0
 55 67  1  0  0  0  0
 56 68  1  0  0  0  0
 57 68  1  0  0  0  0
 58 68  1  0  0  0  0
 59 79  1  0  0  0  0
 60 61  1  0  0  0  0
 60 62  1  0  0  0  0
 61 66  1  0  0  0  0
 62 86  1  0  0  0  0
 63 67  1  0  0  0  0
 64 68  1  0  0  0  0
 64 78  1  0  0  0  0
 65 79  1  0  0  0  0
 70 72  1  0  0  0  0
M  CHG  1  79   1
M  ISO  4  35 100  62 101  67 100  86 101
M  END
> <Batch ID>
0070

> <Smiles>
CNC(C)C(=O)NC(C(=O)N1Cc2cc([101O:1][101CH2:1]CCC(C)(C)c3ncc(C(C)[100C:0](C)(C)[100C:0](=O)N4CCCC(n5nc(-c6ccc(Oc7ccc(F)cc7F)cc6)c(C(N)=O)c5N)C4)c(C)n3)ccc2CC1C(=O)NC1CCCc2ccccc21)C(C)(C)C

> <Shape>
0.276

> <Color>
0.131

> <Negative vol penalty>
0.000

$$$$

  -OEChem-04052318193D

 85 93  0     1  0  0  0  0  0999 V2000
  -16.7842  -29.1294   24.2678 C   0  0  0  0  0  0  0  0  0  0  0  0
  -17.1844  -28.3177   23.2112 C   0  0  0  0  0  0  0  0  0  0  0  0
  -28.1463  -17.1025   22.6175 C   0  0  0  0  0  0  0  0  0  0  0  0
  -28.7081  -16.1598   20.4652 C   0  0  0  0  0  0  0  0  0  0  0  0
  -17.5123  -30.2773   24.5780 C   0  0  0  0  0  0  0  0  0  0  0  0
  -18.3123  -28.6540   22.4634 C   0  0  0  0  0  0  0  0  0  0  0  0
  -22.3366  -24.7936   19.9320 C   0  0  0  0  0  0  0  0  0  0  0  0
  -27.5525  -15.8967   22.9907 C   0  0  0  0  0  0  0  0  0  0  0  0
  -28.1145  -14.9540   20.8383 C   0  0  0  0  0  0  0  0  0  0  0  0
  -22.4742  -24.2990   18.6358 C   0  0  0  0  0  0  0  0  0  0  0  0
  -26.4298  -11.7432   21.0889 C   0  0  0  0  0  0  0  0  0  0  0  0
  -25.5948  -11.1179   20.1631 C   0  0  0  0  0  0  0  0  0  0  0  0
  -24.0983  -26.0176   18.1587 C   0  0  0  0  0  0  0  0  0  0  0  0
  -24.1547  -13.0577   20.1516 C   0  0  0  0  0  0  0  0  0  0  0  0
  -24.6442  -24.5756   13.1534 C   0  0  0  0  0  0  0  0  0  0  0  0
  -28.7240  -17.2341   21.3548 C   0  0  0  0  0  0  0  0  0  0  0  0
  -30.6800  -18.8591   21.1527 C   0  0  0  0  0  0  0  0  0  0  0  0
  -18.6553  -30.6227   23.8398 C   0  0  0  0  0  0  0  0  0  0  0  0
  -23.0721  -25.9126   20.3486 C   0  0  0  0  0  0  0  0  0  0  0  0
  -19.0556  -29.8083   22.7633 C   0  0  0  0  0  0  0  0  0  0  0  0
  -23.9702  -26.5229   19.4615 C   0  0  0  0  0  0  0  0  0  0  0  0
  -27.5367  -14.8225   22.1011 C   0  0  0  0  0  0  0  0  0  0  0  0
  -23.3530  -24.9127   17.7481 C   0  0  0  0  0  0  0  0  0  0  0  0
  -26.1272  -13.0258   21.5463 C   0  0  0  0  0  0  0  0  0  0  0  0
  -24.4573  -11.7751   19.6944 C   0  0  0  0  0  0  0  0  0  0  0  0
  -24.9897  -13.6831   21.0776 C   0  0  0  0  0  0  0  0  0  0  0  0
  -29.3370  -18.4795   20.9685 C   0  0  0  0  0  0  0  0  0  0  0  0
  -23.8302  -23.7231   13.8445 C   0  0  0  0  0  0  0  0  0  0  0  0
  -30.7562  -20.1222   20.6185 C   0  0  0  0  0  0  0  0  0  0  0  0
  -25.7564  -22.6913   13.4897 C   0  0  0  0  0  0  0  0  0  0  0  0
  -31.7620  -18.1348   21.7529 C   0  0  0  0  0  0  0  0  0  0  0  0
  -22.3319  -28.8336   21.3602 C   0  0  0  0  0  0  0  0  0  0  0  0
  -25.5262  -29.0382   21.8865 C   0  0  0  0  0  0  0  0  0  0  0  0
  -28.6649  -27.9384   21.1212 C   0  0  0  0  0  0  0  0  0  0  0  0
  -27.5509  -22.9865   16.4505 C   0  0  0  0  0  0  0  0  0  0  0  0
  -19.3828  -31.8985   24.1827 C   0  0  0  0  0  0  0  0  0  0  0  0
  -22.9321  -26.4176   21.7585 C   0  0  0  0  0  0  0  0  0  0  0  0
  -24.7979  -27.7145   19.8660 C   0  0  0  0  0  0  0  0  0  0  0  0
  -20.7820  -31.9831   23.5784 C   0  0  0  0  0  0  0  0  0  0  0  0
  -28.0932  -24.0151   19.8157 C   0  0  0  0  0  0  0  0  0  0  0  0
  -20.7538  -31.5782   22.1080 C   0  0  0  0  0  0  0  0  0  0  0  0
  -28.5947  -22.7473   20.5093 C   0  0  0  0  0  0  0  0  0  0  0  0
  -27.0308  -23.7008   18.7647 C   0  0  0  0  0  0  0  0  0  0  0  0
  -27.9313  -21.4276   18.4558 C   0  0  0  0  0  0  0  0  0  0  0  0
  -20.2878  -30.1264   21.9444 C   0  0  1  0  0  0  0  0  0  0  0  0
  -23.3491  -27.8767   21.9146 C   0  0  1  0  0  0  0  0  0  0  0  0
  -29.0444  -21.6882   19.4850 C   0  0  2  0  0  0  0  0  0  0  0  0
  -23.6634  -20.2771   13.7690 C   0  0  0  0  0  0  0  0  0  0  0  0
  -27.1936  -21.2238   12.0389 C   0  0  0  0  0  0  0  0  0  0  0  0
  -31.1581  -27.7095   21.2918 C   0  0  0  0  0  0  0  0  0  0  0  0
  -21.3855  -22.8883   13.7719 C   0  0  0  0  0  0  0  0  0  0  0  0
  -21.8883  -25.3162   13.9454 C   0  0  0  0  0  0  0  0  0  0  0  0
  -25.5110  -31.5924   20.2175 C   0  0  0  0  0  0  0  0  0  0  0  0
  -27.9995  -31.3976   20.0235 C   0  0  0  0  0  0  0  0  0  0  0  0
  -26.9442  -31.6924   22.2645 C   0  0  0  0  0  0  0  0  0  0  0  0
  -28.4449  -25.7522   23.1039 C   0  0  0  0  0  0  0  0  0  0  0  0
  -24.0643  -21.3830   14.7302 C   0  0  0  0  0  0  0  0  0  0  0  0
  -28.1335  -22.1329   14.1941 C   0  0  0  0  0  0  0  0  0  0  0  0
  -22.3478  -23.8022   15.9008 C   0  0  0  0  0  0  0  0  0  1  0  0
  -26.8382  -21.6756   13.4738 C   0  0  1  0  0  0  0  0  0  0  0  0
  -26.7184  -29.4755   21.0702 C   0  0  1  0  0  0  0  0  0  0  0  0
  -29.8272  -27.5168   22.0020 C   0  0  2  0  0  0  0  0  0  0  0  0
  -22.3893  -23.9120   14.3547 C   0  0  0  0  0  0  0  0  0  0  0  0
  -26.7764  -31.0182   20.8854 C   0  0  0  0  0  0  0  0  0  0  0  0
  -28.6121  -19.4250   20.3647 N   0  0  0  0  0  0  0  0  0  0  0  0
  -24.5437  -22.5649   14.0384 N   0  0  0  0  0  0  0  0  0  0  0  0
  -29.5029  -20.4112   20.1648 N   0  0  0  0  0  0  0  0  0  0  0  0
  -25.8294  -23.9114   12.9479 N   0  3  0  0  0  0  0  0  0  0  0  0
  -24.6210  -28.1750   21.2531 N   0  0  0  0  0  0  0  0  0  0  0  0
  -27.5208  -22.6910   17.8233 N   0  0  0  0  0  0  0  0  0  0  0  0
  -31.7723  -21.0027   20.4973 N   0  0  0  0  0  0  0  0  0  0  0  0
  -31.5103  -16.8491   22.2511 N   0  0  0  0  0  0  0  0  0  0  0  0
  -21.3614  -29.2115   22.2684 N   0  0  0  0  0  0  0  0  0  0  0  0
  -27.8919  -28.9076   21.7248 N   0  0  0  0  0  0  0  0  0  0  0  0
  -28.0354  -21.9766   15.6282 N   0  0  0  0  0  0  0  0  0  0  0  0
  -29.6984  -26.0803   22.3772 N   0  3  0  0  0  0  0  0  0  0  0  0
  -32.9139  -18.6198   21.8595 O   0  0  0  0  0  0  0  0  0  0  0  0
  -22.4218  -29.2029   20.1952 O   0  0  0  0  0  0  0  0  0  0  0  0
  -25.4064  -29.4418   23.0460 O   0  0  0  0  0  0  0  0  0  0  0  0
  -28.4650  -27.4588   20.0074 O   0  0  0  0  0  0  0  0  0  0  0  0
  -27.1789  -24.0721   15.9920 O   0  0  0  0  0  0  0  0  0  0  0  0
  -26.9576  -13.6457   22.4649 O   0  0  0  0  0  0  0  0  0  0  0  0
  -23.4886  -24.4323   16.4821 O   0  0  0  0  0  0  0  0  0  1  0  0
  -23.6564  -11.1751   18.8040 F   0  0  0  0  0  0  0  0  0  0  0  0
  -24.6944  -14.9158   21.5123 F   0  0  0  0  0  0  0  0  0  0  0  0
  1  2  1  0  0  0  0
  1  5  2  0  0  0  0
  2  6  2  0  0  0  0
  3  8  2  0  0  0  0
  3 16  1  0  0  0  0
  4  9  1  0  0  0  0
  4 16  2  0  0  0  0
  5 18  1  0  0  0  0
  6 20  1  0  0  0  0
  7 10  2  0  0  0  0
  7 19  1  0  0  0  0
  8 22  1  0  0  0  0
  9 22  2  0  0  0  0
 10 23  1  0  0  0  0
 11 12  2  0  0  0  0
 11 24  1  0  0  0  0
 12 25  1  0  0  0  0
 13 21  1  0  0  0  0
 13 23  2  0  0  0  0
 14 25  2  0  0  0  0
 14 26  1  0  0  0  0
 15 28  2  0  0  0  0
 15 68  1  0  0  0  0
 16 27  1  0  0  0  0
 17 27  1  0  0  0  0
 17 29  2  0  0  0  0
 17 31  1  0  0  0  0
 18 20  2  0  0  0  0
 18 36  1  0  0  0  0
 19 21  2  0  0  0  0
 19 37  1  0  0  0  0
 20 45  1  0  0  0  0
 21 38  1  0  0  0  0
 22 82  1  0  0  0  0
 23 83  1  0  0  0  0
 24 26  2  0  0  0  0
 24 82  1  0  0  0  0
 25 84  1  0  0  0  0
 26 85  1  0  0  0  0
 27 65  2  0  0  0  0
 28 63  1  0  0  0  0
 28 66  1  0  0  0  0
 29 67  1  0  0  0  0
 29 71  1  0  0  0  0
 30 60  1  0  0  0  0
 30 66  1  0  0  0  0
 30 68  2  0  0  0  0
 31 72  1  0  0  0  0
 31 77  2  0  0  0  0
 32 46  1  0  0  0  0
 32 73  1  0  0  0  0
 32 78  2  0  0  0  0
 33 61  1  0  0  0  0
 33 69  1  0  0  0  0
 33 79  2  0  0  0  0
 34 62  1  0  0  0  0
 34 74  1  0  0  0  0
 34 80  2  0  0  0  0
 35 70  1  0  0  0  0
 35 75  1  0  0  0  0
 35 81  2  0  0  0  0
 36 39  1  0  0  0  0
 37 46  1  0  0  0  0
 38 69  1  0  0  0  0
 39 41  1  0  0  0  0
 40 42  1  0  0  0  0
 40 43  1  0  0  0  0
 41 45  1  0  0  0  0
 42 47  1  0  0  0  0
 43 70  1  0  0  0  0
 44 47  1  0  0  0  0
 44 70  1  0  0  0  0
 45 73  1  0  0  0  0
 46 69  1  0  0  0  0
 47 67  1  0  0  0  0
 48 57  1  0  0  0  0
 49 60  1  0  0  0  0
 50 62  1  0  0  0  0
 51 63  1  0  0  0  0
 52 63  1  0  0  0  0
 53 64  1  0  0  0  0
 54 64  1  0  0  0  0
 55 64  1  0  0  0  0
 56 76  1  0  0  0  0
 57 66  1  0  0  0  0
 58 60  1  0  0  0  0
 58 75  1  0  0  0  0
 59 63  1  0  0  0  0
 59 83  1  0  0  0  0
 61 64  1  0  0  0  0
 61 74  1  0  0  0  0
 62 76  1  0  0  0  0
 65 67  1  0  0  0  0
M  CHG  2  68   1  76   1
M  ISO  4  35 100  59 101  75 100  83 101
M  END
> <Batch ID>
0070

> <Smiles>
CCn1c(C(C)(C)[101CH2:1][101O:1]c2ccc3c(c2)CN(C(=O)C(NC(=O)C(C)NC)C(C)(C)C)C(C(=O)NC2CCCc4ccccc42)C3)cnc1C(C)C[100NH:0][100C:0](=O)N1CCCC(n2nc(-c3ccc(Oc4ccc(F)cc4F)cc3)c(C(N)=O)c2N)C1

> <Shape>
0.217

> <Color>
0.068

> <Negative vol penalty>
0.000

$$$$

  -OEChem-04052318193D

 86 94  0     1  0  0  0  0  0999 V2000
  -29.7453   -5.4485   17.9726 C   0  0  0  0  0  0  0  0  0  0  0  0
  -30.1298   -6.7700   18.1750 C   0  0  0  0  0  0  0  0  0  0  0  0
  -26.6621  -29.2037   20.5765 C   0  0  0  0  0  0  0  0  0  0  0  0
  -25.5674  -27.0759   20.2429 C   0  0  0  0  0  0  0  0  0  0  0  0
  -28.4230   -5.1506   17.6456 C   0  0  0  0  0  0  0  0  0  0  0  0
  -29.1924   -7.7947   18.0496 C   0  0  0  0  0  0  0  0  0  0  0  0
  -28.9503  -12.9809   21.2977 C   0  0  0  0  0  0  0  0  0  0  0  0
  -25.4674  -29.8635   20.2889 C   0  0  0  0  0  0  0  0  0  0  0  0
  -24.3726  -27.7357   19.9553 C   0  0  0  0  0  0  0  0  0  0  0  0
  -29.3829  -14.2783   21.0269 C   0  0  0  0  0  0  0  0  0  0  0  0
  -20.9440  -28.8506   19.4859 C   0  0  0  0  0  0  0  0  0  0  0  0
  -19.7766  -28.3665   20.0762 C   0  0  0  0  0  0  0  0  0  0  0  0
  -31.4455  -22.2408   19.4966 C   0  0  0  0  0  0  0  0  0  0  0  0
  -27.1630  -14.8562   20.2804 C   0  0  0  0  0  0  0  0  0  0  0  0
  -20.7179  -28.7656   22.2652 C   0  0  0  0  0  0  0  0  0  0  0  0
  -30.7771  -21.8724   20.6433 C   0  0  0  0  0  0  0  0  0  0  0  0
  -29.2690  -21.9642   18.9905 C   0  0  0  0  0  0  0  0  0  0  0  0
  -26.7122  -27.8098   20.5535 C   0  0  0  0  0  0  0  0  0  0  0  0
  -28.3976  -26.6973   22.1121 C   0  0  0  0  0  0  0  0  0  0  0  0
  -27.4668   -6.1713   17.5256 C   0  0  0  0  0  0  0  0  0  0  0  0
  -27.6213  -12.6077   21.0513 C   0  0  0  0  0  0  0  0  0  0  0  0
  -27.8564   -7.5104   17.7194 C   0  0  0  0  0  0  0  0  0  0  0  0
  -26.7154  -13.5541   20.5514 C   0  0  0  0  0  0  0  0  0  0  0  0
  -30.4914  -22.2988   18.4509 C   0  0  0  0  0  0  0  0  0  0  0  0
  -24.3226  -29.1296   19.9783 C   0  0  0  0  0  0  0  0  0  0  0  0
  -28.4899  -15.2154   20.5155 C   0  0  0  0  0  0  0  0  0  0  0  0
  -21.9985  -29.2921   20.2853 C   0  0  0  0  0  0  0  0  0  0  0  0
  -19.6635  -28.3241   21.4658 C   0  0  0  0  0  0  0  0  0  0  0  0
  -21.8854  -29.2496   21.6749 C   0  0  0  0  0  0  0  0  0  0  0  0
  -27.9462  -27.1277   20.8500 C   0  0  0  0  0  0  0  0  0  0  0  0
  -29.6135  -26.1103   21.8600 C   0  0  0  0  0  0  0  0  0  0  0  0
  -27.7736  -26.8173   23.3974 C   0  0  0  0  0  0  0  0  0  0  0  0
  -26.2017  -10.4834   19.1602 C   0  0  0  0  0  0  0  0  0  0  0  0
  -23.5356  -11.4374   20.7426 C   0  0  0  0  0  0  0  0  0  0  0  0
  -31.9115  -23.6108   16.9018 C   0  0  0  0  0  0  0  0  0  0  0  0
  -21.9494  -13.8599   22.5487 C   0  0  0  0  0  0  0  0  0  0  0  0
  -26.0601   -5.8046   17.1240 C   0  0  0  0  0  0  0  0  0  0  0  0
  -27.1638  -11.2116   21.3738 C   0  0  0  0  0  0  0  0  0  0  0  0
  -25.2730  -13.2095   20.2883 C   0  0  0  0  0  0  0  0  0  0  0  0
  -25.0448   -6.9159   17.3780 C   0  0  0  0  0  0  0  0  0  0  0  0
  -33.3088  -26.2827   18.8379 C   0  0  0  0  0  0  0  0  0  0  0  0
  -25.5800   -8.2530   16.8753 C   0  0  0  0  0  0  0  0  0  0  0  0
  -32.1262  -26.7817   19.6671 C   0  0  0  0  0  0  0  0  0  0  0  0
  -32.8653  -25.8248   17.4520 C   0  0  0  0  0  0  0  0  0  0  0  0
  -30.6036  -25.2869   18.2988 C   0  0  0  0  0  0  0  0  0  0  0  0
  -26.8631   -8.6475   17.6166 C   0  0  1  0  0  0  0  0  0  0  0  0
  -25.9149  -10.7986   20.6011 C   0  0  1  0  0  0  0  0  0  0  0  0
  -31.0034  -25.7304   19.7172 C   0  0  2  0  0  0  0  0  0  0  0  0
  -19.7629  -14.3664   23.6713 C   0  0  0  0  0  0  0  0  0  0  0  0
  -27.3235  -22.4227   21.4351 C   0  0  0  0  0  0  0  0  0  0  0  0
  -29.5930  -23.3840   16.2944 C   0  0  0  0  0  0  0  0  0  0  0  0
  -22.2679  -11.9841   18.0215 C   0  0  0  0  0  0  0  0  0  0  0  0
  -20.5179  -13.3428   19.1876 C   0  0  0  0  0  0  0  0  0  0  0  0
  -20.7422  -10.9089   19.6861 C   0  0  0  0  0  0  0  0  0  0  0  0
  -23.2362  -14.1058   25.2025 C   0  0  0  0  0  0  0  0  0  0  0  0
  -28.6568  -18.8144   20.7570 C   0  0  0  0  0  0  0  0  0  0  0  0
  -27.6716  -19.9749   20.9198 C   0  0  0  0  0  0  0  0  0  0  0  0
  -27.9435  -17.5255   20.3708 C   0  0  0  0  0  0  0  0  0  1  0  0
  -22.4989  -12.5155   20.5375 C   0  0  1  0  0  0  0  0  0  0  0  0
  -21.1623  -13.7969   23.8452 C   0  0  2  0  0  0  0  0  0  0  0  0
  -28.3621  -21.3026   21.2984 C   0  0  1  0  0  0  0  0  0  0  0  0
  -30.7568  -22.6512   17.0430 C   0  0  2  0  0  0  0  0  0  0  0  0
  -21.5343  -12.1941   19.3612 C   0  0  0  0  0  0  0  0  0  0  0  0
  -31.1124  -21.3986   16.1944 C   0  0  0  0  0  0  0  0  0  0  0  0
  -28.8054  -26.8388   19.8690 N   0  0  0  0  0  0  0  0  0  0  0  0
  -29.4547  -21.7072   20.3238 N   0  0  0  0  0  0  0  0  0  0  0  0
  -29.8090  -26.2208   20.5147 N   0  0  0  0  0  0  0  0  0  0  0  0
  -24.8755  -11.8298   20.6139 N   0  0  0  0  0  0  0  0  0  0  0  0
  -31.7826  -24.8435   17.5420 N   0  0  0  0  0  0  0  0  0  0  0  0
  -30.5238  -25.5157   22.6601 N   0  0  0  0  0  0  0  0  0  0  0  0
  -26.5247  -27.4482   23.4774 N   0  0  0  0  0  0  0  0  0  0  0  0
  -26.5486   -9.1657   18.9308 N   0  0  0  0  0  0  0  0  0  0  0  0
  -21.8341  -12.6925   21.8240 N   0  0  0  0  0  0  0  0  0  0  0  0
  -21.8566  -14.5735   24.9110 N   0  3  0  0  0  0  0  0  0  0  0  0
  -28.3153  -26.3927   24.4461 O   0  0  0  0  0  0  0  0  0  0  0  0
  -26.1134  -11.3698   18.3187 O   0  0  0  0  0  0  0  0  0  0  0  0
  -23.1702  -10.2909   21.0142 O   0  0  0  0  0  0  0  0  0  0  0  0
  -32.8989  -23.2719   16.2442 O   0  0  0  0  0  0  0  0  0  0  0  0
  -22.5983  -14.8474   22.2107 O   0  0  0  0  0  0  0  0  0  0  0  0
  -23.1565  -29.7731   19.6978 O   0  0  0  0  0  0  0  0  0  0  0  0
  -28.9096  -16.4823   20.2497 O   0  0  0  0  0  0  0  0  0  1  0  0
  -18.5418  -27.8606   22.0325 F   0  0  0  0  0  0  0  0  0  0  0  0
  -22.8946  -29.6735   22.4480 F   0  0  0  0  0  0  0  0  0  0  0  0
  -30.0916  -20.5106   16.2149 F   0  0  0  0  0  0  0  0  0  0  0  0
  -31.3644  -21.6871   14.8961 F   0  0  0  0  0  0  0  0  0  0  0  0
  -32.2045  -20.7702   16.6834 F   0  0  0  0  0  0  0  0  0  0  0  0
  1  2  1  0  0  0  0
  1  5  2  0  0  0  0
  2  6  2  0  0  0  0
  3  8  2  0  0  0  0
  3 18  1  0  0  0  0
  4  9  1  0  0  0  0
  4 18  2  0  0  0  0
  5 20  1  0  0  0  0
  6 22  1  0  0  0  0
  7 10  2  0  0  0  0
  7 21  1  0  0  0  0
  8 25  1  0  0  0  0
  9 25  2  0  0  0  0
 10 26  1  0  0  0  0
 11 12  2  0  0  0  0
 11 27  1  0  0  0  0
 12 28  1  0  0  0  0
 13 16  2  0  0  0  0
 13 24  1  0  0  0  0
 14 23  1  0  0  0  0
 14 26  2  0  0  0  0
 15 28  2  0  0  0  0
 15 29  1  0  0  0  0
 16 66  1  0  0  0  0
 17 24  2  0  0  0  0
 17 66  1  0  0  0  0
 18 30  1  0  0  0  0
 19 30  1  0  0  0  0
 19 31  2  0  0  0  0
 19 32  1  0  0  0  0
 20 22  2  0  0  0  0
 20 37  1  0  0  0  0
 21 23  2  0  0  0  0
 21 38  1  0  0  0  0
 22 46  1  0  0  0  0
 23 39  1  0  0  0  0
 24 62  1  0  0  0  0
 25 80  1  0  0  0  0
 26 81  1  0  0  0  0
 27 29  2  0  0  0  0
 27 80  1  0  0  0  0
 28 82  1  0  0  0  0
 29 83  1  0  0  0  0
 30 65  2  0  0  0  0
 31 67  1  0  0  0  0
 31 70  1  0  0  0  0
 32 71  1  0  0  0  0
 32 75  2  0  0  0  0
 33 47  1  0  0  0  0
 33 72  1  0  0  0  0
 33 76  2  0  0  0  0
 34 59  1  0  0  0  0
 34 68  1  0  0  0  0
 34 77  2  0  0  0  0
 35 62  1  0  0  0  0
 35 69  1  0  0  0  0
 35 78  2  0  0  0  0
 36 60  1  0  0  0  0
 36 73  1  0  0  0  0
 36 79  2  0  0  0  0
 37 40  1  0  0  0  0
 38 47  1  0  0  0  0
 39 68  1  0  0  0  0
 40 42  1  0  0  0  0
 41 43  1  0  0  0  0
 41 44  1  0  0  0  0
 42 46  1  0  0  0  0
 43 48  1  0  0  0  0
 44 69  1  0  0  0  0
 45 48  1  0  0  0  0
 45 69  1  0  0  0  0
 46 72  1  0  0  0  0
 47 68  1  0  0  0  0
 48 67  1  0  0  0  0
 49 60  1  0  0  0  0
 50 61  1  0  0  0  0
 51 62  1  0  0  0  0
 52 63  1  0  0  0  0
 53 63  1  0  0  0  0
 54 63  1  0  0  0  0
 55 74  1  0  0  0  0
 56 57  1  0  0  0  0
 56 58  1  0  0  0  0
 57 61  1  0  0  0  0
 58 81  1  0  0  0  0
 59 63  1  0  0  0  0
 59 73  1  0  0  0  0
 60 74  1  0  0  0  0
 61 66  1  0  0  0  0
 62 64  1  0  0  0  0
 64 84  1  0  0  0  0
 64 85  1  0  0  0  0
 64 86  1  0  0  0  0
 65 67  1  0  0  0  0
M  CHG  1  74   1
M  ISO  4  35 100  58 101  62 100  81 101
M  END
> <Batch ID>
0070

> <Smiles>
CNC(C)C(=O)NC(C(=O)N1Cc2cc([101O:1][101CH2:1]CCC(C)n3ccc([100C:0](C)([100C:0](=O)N4CCCC(n5nc(-c6ccc(Oc7ccc(F)cc7F)cc6)c(C(N)=O)c5N)C4)C(F)(F)F)c3)ccc2CC1C(=O)NC1CCCc2ccccc21)C(C)(C)C

> <Shape>
0.254

> <Color>
0.056

> <Negative vol penalty>
0.000

$$$$

  -OEChem-04052318193D

 86 94  0     1  0  0  0  0  0999 V2000
  -31.0412  -32.6079   23.8257 C   0  0  0  0  0  0  0  0  0  0  0  0
  -31.2313  -31.2391   23.6654 C   0  0  0  0  0  0  0  0  0  0  0  0
  -23.1825   -9.8746   19.9358 C   0  0  0  0  0  0  0  0  0  0  0  0
  -23.5851  -10.0279   22.3131 C   0  0  0  0  0  0  0  0  0  0  0  0
  -29.8946  -33.0814   24.4621 C   0  0  0  0  0  0  0  0  0  0  0  0
  -30.2754  -30.3430   24.1425 C   0  0  0  0  0  0  0  0  0  0  0  0
  -28.6668  -24.9937   21.6317 C   0  0  0  0  0  0  0  0  0  0  0  0
  -22.4189   -8.7252   20.1392 C   0  0  0  0  0  0  0  0  0  0  0  0
  -22.8214   -8.8785   22.5165 C   0  0  0  0  0  0  0  0  0  0  0  0
  -29.0363  -23.6784   21.9094 C   0  0  0  0  0  0  0  0  0  0  0  0
  -23.2212   -5.5353   22.2099 C   0  0  0  0  0  0  0  0  0  0  0  0
  -23.7289   -4.5642   23.0729 C   0  0  0  0  0  0  0  0  0  0  0  0
  -27.0670  -23.4206   23.2786 C   0  0  0  0  0  0  0  0  0  0  0  0
  -21.7866   -4.8071   24.4891 C   0  0  0  0  0  0  0  0  0  0  0  0
  -30.6649  -15.9895   22.8449 C   0  0  0  0  0  0  0  0  0  0  0  0
  -23.7657  -10.5259   21.0227 C   0  0  0  0  0  0  0  0  0  0  0  0
  -24.1008  -13.0454   20.8044 C   0  0  0  0  0  0  0  0  0  0  0  0
  -28.9196  -32.1910   24.9386 C   0  0  0  0  0  0  0  0  0  0  0  0
  -27.4983  -25.5367   22.1851 C   0  0  0  0  0  0  0  0  0  0  0  0
  -29.1153  -30.8050   24.7871 C   0  0  0  0  0  0  0  0  0  0  0  0
  -26.6835  -24.7423   23.0043 C   0  0  0  0  0  0  0  0  0  0  0  0
  -22.2383   -8.2272   21.4295 C   0  0  0  0  0  0  0  0  0  0  0  0
  -28.2379  -22.8925   22.7353 C   0  0  0  0  0  0  0  0  0  0  0  0
  -21.9962   -6.1424   22.4865 C   0  0  0  0  0  0  0  0  0  0  0  0
  -23.0117   -4.2001   24.2124 C   0  0  0  0  0  0  0  0  0  0  0  0
  -21.2789   -5.7783   23.6261 C   0  0  0  0  0  0  0  0  0  0  0  0
  -24.5551  -11.7130   20.8132 C   0  0  0  0  0  0  0  0  0  0  0  0
  -30.2570  -15.0432   23.7591 C   0  0  0  0  0  0  0  0  0  0  0  0
  -30.9733  -16.3846   25.4671 C   0  0  0  0  0  0  0  0  0  0  0  0
  -31.3819  -17.3305   24.5529 C   0  0  0  0  0  0  0  0  0  0  0  0
  -25.2292  -13.7913   20.5661 C   0  0  0  0  0  0  0  0  0  0  0  0
  -22.7772  -13.5626   20.9948 C   0  0  0  0  0  0  0  0  0  0  0  0
  -26.8601  -27.9467   24.1571 C   0  0  0  0  0  0  0  0  0  0  0  0
  -23.7839  -27.1955   23.4537 C   0  0  0  0  0  0  0  0  0  0  0  0
  -31.0550  -12.6734   21.5264 C   0  0  0  0  0  0  0  0  0  0  0  0
  -21.5435  -24.8473   22.3986 C   0  0  0  0  0  0  0  0  0  0  0  0
  -27.7192  -32.7482   25.6620 C   0  0  0  0  0  0  0  0  0  0  0  0
  -27.0996  -26.9489   21.8543 C   0  0  0  0  0  0  0  0  0  0  0  0
  -25.4086  -25.2715   23.6069 C   0  0  0  0  0  0  0  0  0  0  0  0
  -26.5756  -31.7472   25.8054 C   0  0  0  0  0  0  0  0  0  0  0  0
  -29.4941  -13.5650   18.4266 C   0  0  0  0  0  0  0  0  0  0  0  0
  -27.1040  -30.3978   26.2818 C   0  0  0  0  0  0  0  0  0  0  0  0
  -28.0128  -13.2853   18.6771 C   0  0  0  0  0  0  0  0  0  0  0  0
  -30.3827  -12.5576   19.1496 C   0  0  0  0  0  0  0  0  0  0  0  0
  -28.6455  -12.1863   20.8719 C   0  0  0  0  0  0  0  0  0  0  0  0
  -28.0894  -29.8024   25.2689 C   0  0  1  0  0  0  0  0  0  0  0  0
  -26.1574  -27.5611   22.8862 C   0  0  1  0  0  0  0  0  0  0  0  0
  -27.7136  -13.1998   20.1842 C   0  0  2  0  0  0  0  0  0  0  0  0
  -31.1411  -16.5972   26.9329 C   0  0  0  0  0  0  0  0  0  0  0  0
  -28.4879  -13.3097   24.2480 C   0  0  0  0  0  0  0  0  0  0  0  0
  -19.0946  -24.5175   21.9609 C   0  0  0  0  0  0  0  0  0  0  0  0
  -30.0525  -11.1929   23.2099 C   0  0  0  0  0  0  0  0  0  0  0  0
  -31.9403  -12.7354   23.7800 C   0  0  0  0  0  0  0  0  0  0  0  0
  -23.2756  -27.0040   26.4562 C   0  0  0  0  0  0  0  0  0  0  0  0
  -21.1537  -25.7761   25.9481 C   0  0  0  0  0  0  0  0  0  0  0  0
  -21.4538  -28.1234   25.1590 C   0  0  0  0  0  0  0  0  0  0  0  0
  -22.0159  -24.2566   19.5373 C   0  0  0  0  0  0  0  0  0  0  0  0
  -32.0180  -18.6253   24.9920 C   0  0  0  0  0  0  0  0  0  0  0  0
  -31.7296  -19.8051   24.0570 C   0  0  0  0  0  0  0  0  0  0  0  0
  -30.2446  -20.1637   23.9860 C   0  0  0  0  0  0  0  0  0  0  0  0
  -29.9925  -21.3123   23.0188 C   0  0  0  0  0  0  0  0  0  1  0  0
  -29.6320  -13.7718   23.3022 C   0  0  2  0  0  0  0  0  0  0  0  0
  -22.7502  -26.2640   24.0391 C   0  0  1  0  0  0  0  0  0  0  0  0
  -20.4371  -24.9053   21.3608 C   0  0  2  0  0  0  0  0  0  0  0  0
  -30.6372  -12.5929   22.9731 C   0  0  0  0  0  0  0  0  0  0  0  0
  -22.1833  -26.7822   25.3910 C   0  0  0  0  0  0  0  0  0  0  0  0
  -31.2347  -17.1501   23.2254 N   0  0  0  0  0  0  0  0  0  0  0  0
  -25.8695  -11.6149   20.5975 N   0  0  0  0  0  0  0  0  0  0  0  0
  -30.4038  -15.2239   25.0866 N   0  0  0  0  0  0  0  0  0  0  0  0
  -26.2509  -12.8952   20.4508 N   0  0  0  0  0  0  0  0  0  0  0  0
  -25.0649  -26.6601   23.2588 N   0  0  0  0  0  0  0  0  0  0  0  0
  -30.0522  -12.4897   20.5742 N   0  0  0  0  0  0  0  0  0  0  0  0
  -25.4372  -15.1197   20.4460 N   0  0  0  0  0  0  0  0  0  0  0  0
  -21.7333  -12.6572   21.2291 N   0  0  0  0  0  0  0  0  0  0  0  0
  -27.3766  -29.2283   24.1478 N   0  0  0  0  0  0  0  0  0  0  0  0
  -21.7415  -26.0707   23.0030 N   0  0  0  0  0  0  0  0  0  0  0  0
  -20.7343  -23.9761   20.2343 N   0  3  0  0  0  0  0  0  0  0  0  0
  -22.5247  -14.7902   20.9418 O   0  0  0  0  0  0  0  0  0  0  0  0
  -26.9274  -27.1415   25.0785 O   0  0  0  0  0  0  0  0  0  0  0  0
  -23.4645  -28.3535   23.1729 O   0  0  0  0  0  0  0  0  0  0  0  0
  -32.2373  -12.8958   21.2527 O   0  0  0  0  0  0  0  0  0  0  0  0
  -22.1670  -23.8187   22.6507 O   0  0  0  0  0  0  0  0  0  0  0  0
  -21.4930   -7.1058   21.6284 O   0  0  0  0  0  0  0  0  0  0  0  0
  -28.5966  -21.6086   23.0085 O   0  0  0  0  0  0  0  0  0  1  0  0
  -23.4986   -3.2664   25.0403 F   0  0  0  0  0  0  0  0  0  0  0  0
  -20.1009   -6.3571   23.8965 F   0  0  0  0  0  0  0  0  0  0  0  0
  1  2  1  0  0  0  0
  1  5  2  0  0  0  0
  2  6  2  0  0  0  0
  3  8  2  0  0  0  0
  3 16  1  0  0  0  0
  4  9  1  0  0  0  0
  4 16  2  0  0  0  0
  5 18  1  0  0  0  0
  6 20  1  0  0  0  0
  7 10  2  0  0  0  0
  7 19  1  0  0  0  0
  8 22  1  0  0  0  0
  9 22  2  0  0  0  0
 10 23  1  0  0  0  0
 11 12  2  0  0  0  0
 11 24  1  0  0  0  0
 12 25  1  0  0  0  0
 13 21  1  0  0  0  0
 13 23  2  0  0  0  0
 14 25  2  0  0  0  0
 14 26  1  0  0  0  0
 15 28  1  0  0  0  0
 15 67  2  0  0  0  0
 16 27  1  0  0  0  0
 17 27  1  0  0  0  0
 17 31  2  0  0  0  0
 17 32  1  0  0  0  0
 18 20  2  0  0  0  0
 18 37  1  0  0  0  0
 19 21  2  0  0  0  0
 19 38  1  0  0  0  0
 20 46  1  0  0  0  0
 21 39  1  0  0  0  0
 22 83  1  0  0  0  0
 23 84  1  0  0  0  0
 24 26  2  0  0  0  0
 24 83  1  0  0  0  0
 25 85  1  0  0  0  0
 26 86  1  0  0  0  0
 27 68  2  0  0  0  0
 28 62  1  0  0  0  0
 28 69  2  0  0  0  0
 29 30  2  0  0  0  0
 29 49  1  0  0  0  0
 29 69  1  0  0  0  0
 30 58  1  0  0  0  0
 30 67  1  0  0  0  0
 31 70  1  0  0  0  0
 31 73  1  0  0  0  0
 32 74  1  0  0  0  0
 32 78  2  0  0  0  0
 33 47  1  0  0  0  0
 33 75  1  0  0  0  0
 33 79  2  0  0  0  0
 34 63  1  0  0  0  0
 34 71  1  0  0  0  0
 34 80  2  0  0  0  0
 35 65  1  0  0  0  0
 35 72  1  0  0  0  0
 35 81  2  0  0  0  0
 36 64  1  0  0  0  0
 36 76  1  0  0  0  0
 36 82  2  0  0  0  0
 37 40  1  0  0  0  0
 38 47  1  0  0  0  0
 39 71  1  0  0  0  0
 40 42  1  0  0  0  0
 41 43  1  0  0  0  0
 41 44  1  0  0  0  0
 42 46  1  0  0  0  0
 43 48  1  0  0  0  0
 44 72  1  0  0  0  0
 45 48  1  0  0  0  0
 45 72  1  0  0  0  0
 46 75  1  0  0  0  0
 47 71  1  0  0  0  0
 48 70  1  0  0  0  0
 50 62  1  0  0  0  0
 51 64  1  0  0  0  0
 52 65  1  0  0  0  0
 53 65  1  0  0  0  0
 54 66  1  0  0  0  0
 55 66  1  0  0  0  0
 56 66  1  0  0  0  0
 57 77  1  0  0  0  0
 58 59  1  0  0  0  0
 59 60  1  0  0  0  0
 60 61  1  0  0  0  0
 61 84  1  0  0  0  0
 62 65  1  0  0  0  0
 63 66  1  0  0  0  0
 63 76  1  0  0  0  0
 64 77  1  0  0  0  0
 68 70  1  0  0  0  0
M  CHG  1  77   1
M  ISO  4  35 100  61 101  65 100  84 101
M  END
> <Batch ID>
0070

> <Smiles>
CNC(C)C(=O)NC(C(=O)N1Cc2cc([101O:1][101CH2:1]CCCc3ncc(C(C)[100C:0](C)(C)[100C:0](=O)N4CCCC(n5nc(-c6ccc(Oc7ccc(F)cc7F)cc6)c(C(N)=O)c5N)C4)nc3C)ccc2CC1C(=O)NC1CCCc2ccccc21)C(C)(C)C

> <Shape>
0.221

> <Color>
0.197

> <Negative vol penalty>
0.000

$$$$

  -OEChem-04052318193D

 86 94  0     1  0  0  0  0  0999 V2000
  -28.2510  -34.1369   22.4192 C   0  0  0  0  0  0  0  0  0  0  0  0
  -28.3124  -32.7511   22.5250 C   0  0  0  0  0  0  0  0  0  0  0  0
  -22.5438  -15.4084   21.5668 C   0  0  0  0  0  0  0  0  0  0  0  0
  -23.1894  -17.2377   20.1267 C   0  0  0  0  0  0  0  0  0  0  0  0
  -27.0426  -34.7984   22.6338 C   0  0  0  0  0  0  0  0  0  0  0  0
  -27.1655  -32.0261   22.8466 C   0  0  0  0  0  0  0  0  0  0  0  0
  -26.5895  -27.9146   19.9468 C   0  0  0  0  0  0  0  0  0  0  0  0
  -21.6644  -16.2524   22.2448 C   0  0  0  0  0  0  0  0  0  0  0  0
  -22.3099  -18.0818   20.8046 C   0  0  0  0  0  0  0  0  0  0  0  0
  -27.3708  -26.8023   20.2568 C   0  0  0  0  0  0  0  0  0  0  0  0
  -20.5007  -20.8081   22.3869 C   0  0  0  0  0  0  0  0  0  0  0  0
  -20.9609  -22.0772   22.7379 C   0  0  0  0  0  0  0  0  0  0  0  0
  -25.4919  -25.8076   21.3968 C   0  0  0  0  0  0  0  0  0  0  0  0
  -22.7136  -21.0746   24.0646 C   0  0  0  0  0  0  0  0  0  0  0  0
  -23.3064  -15.9010   20.5078 C   0  0  0  0  0  0  0  0  0  0  0  0
  -23.9344  -14.2392   18.6770 C   0  0  0  0  0  0  0  0  0  0  0  0
  -25.8782  -34.0803   22.9487 C   0  0  0  0  0  0  0  0  0  0  0  0
  -25.2544  -27.9867   20.3696 C   0  0  0  0  0  0  0  0  0  0  0  0
  -25.9407  -32.6787   23.0669 C   0  0  0  0  0  0  0  0  0  0  0  0
  -24.6950  -26.9208   21.0887 C   0  0  0  0  0  0  0  0  0  0  0  0
  -21.5473  -17.5891   21.8637 C   0  0  0  0  0  0  0  0  0  0  0  0
  -26.8229  -25.7499   20.9844 C   0  0  0  0  0  0  0  0  0  0  0  0
  -21.1468  -19.6722   22.8749 C   0  0  0  0  0  0  0  0  0  0  0  0
  -22.0674  -22.2104   23.5767 C   0  0  0  0  0  0  0  0  0  0  0  0
  -22.2532  -19.8055   23.7137 C   0  0  0  0  0  0  0  0  0  0  0  0
  -24.2155  -15.0297   19.8074 C   0  0  0  0  0  0  0  0  0  0  0  0
  -25.1197  -13.6034   18.3992 C   0  0  0  0  0  0  0  0  0  0  0  0
  -30.2007  -20.8425   19.5631 C   0  0  0  0  0  0  0  0  0  0  0  0
  -31.1830  -18.9233   19.3166 C   0  0  0  0  0  0  0  0  0  0  0  0
  -22.7112  -14.0929   17.9435 C   0  0  0  0  0  0  0  0  0  0  0  0
  -23.6055  -29.9279   22.2714 C   0  0  0  0  0  0  0  0  0  0  0  0
  -21.0844  -28.1749   21.2258 C   0  0  0  0  0  0  0  0  0  0  0  0
  -19.9422  -25.2382   19.9151 C   0  0  0  0  0  0  0  0  0  0  0  0
  -30.8374  -14.9459   19.5639 C   0  0  0  0  0  0  0  0  0  0  0  0
  -24.6055  -34.8433   23.2184 C   0  0  0  0  0  0  0  0  0  0  0  0
  -24.4171  -29.1816   20.0041 C   0  0  0  0  0  0  0  0  0  0  0  0
  -23.2609  -26.9404   21.5485 C   0  0  0  0  0  0  0  0  0  0  0  0
  -23.3537  -33.9702   23.1870 C   0  0  0  0  0  0  0  0  0  0  0  0
  -29.0931  -11.9942   20.5238 C   0  0  0  0  0  0  0  0  0  0  0  0
  -23.5748  -32.6910   23.9879 C   0  0  0  0  0  0  0  0  0  0  0  0
  -27.6199  -12.3661   20.3471 C   0  0  0  0  0  0  0  0  0  0  0  0
  -29.9164  -13.1758   21.0318 C   0  0  0  0  0  0  0  0  0  0  0  0
  -28.3214  -14.7785   20.0516 C   0  0  0  0  0  0  0  0  0  0  0  0
  -24.7128  -31.8552   23.3896 C   0  0  1  0  0  0  0  0  0  0  0  0
  -23.2190  -29.3768   20.9281 C   0  0  1  0  0  0  0  0  0  0  0  0
  -27.4610  -13.6348   19.4876 C   0  0  2  0  0  0  0  0  0  0  0  0
  -33.7179  -21.3034   20.4563 C   0  0  0  0  0  0  0  0  0  0  0  0
  -31.2057  -20.5827   16.0555 C   0  0  0  0  0  0  0  0  0  0  0  0
  -17.8277  -24.0880   19.2058 C   0  0  0  0  0  0  0  0  0  0  0  0
  -20.3730  -27.6835   24.1520 C   0  0  0  0  0  0  0  0  0  0  0  0
  -18.8880  -25.8116   23.4042 C   0  0  0  0  0  0  0  0  0  0  0  0
  -18.4155  -28.1471   22.6662 C   0  0  0  0  0  0  0  0  0  0  0  0
  -20.8831  -24.9794   17.1211 C   0  0  0  0  0  0  0  0  0  0  0  0
  -29.9336  -22.3237   19.4717 C   0  0  0  0  0  0  0  0  0  0  0  0
  -32.1795  -17.9156   18.9126 C   0  0  0  0  0  0  0  0  0  0  0  0
  -33.7367  -20.7541   19.0351 C   0  0  0  0  0  0  0  0  0  0  0  0
  -32.4908  -20.3967   16.8528 C   0  0  0  0  0  0  0  0  0  0  0  0
  -28.8247  -22.8085   20.4080 C   0  0  0  0  0  0  0  0  0  0  0  0
  -31.6066  -16.7659   18.0621 C   0  0  0  0  0  0  0  0  0  0  0  0
  -28.6205  -24.3186   20.3711 C   0  0  0  0  0  0  0  0  0  1  0  0
  -20.3939  -26.9143   21.6875 C   0  0  1  0  0  0  0  0  0  0  0  0
  -18.9993  -24.9495   18.7610 C   0  0  2  0  0  0  0  0  0  0  0  0
  -32.3788  -20.8915   18.3117 C   0  0  0  0  0  0  0  0  0  0  0  0
  -19.5452  -27.1393   22.9706 C   0  0  0  0  0  0  0  0  0  0  0  0
  -25.4802  -14.9086   20.2197 N   0  0  0  0  0  0  0  0  0  0  0  0
  -29.4464  -19.9359   20.1421 N   0  0  0  0  0  0  0  0  0  0  0  0
  -30.0713  -18.7148   19.9853 N   0  0  0  0  0  0  0  0  0  0  0  0
  -26.0042  -14.0346   19.3437 N   0  0  0  0  0  0  0  0  0  0  0  0
  -31.3046  -20.2491   19.0301 N   0  0  0  0  0  0  0  0  0  0  0  0
  -22.4848  -28.1335   21.1719 N   0  0  0  0  0  0  0  0  0  0  0  0
  -29.7225  -14.3459   20.1721 N   0  0  0  0  0  0  0  0  0  0  0  0
  -25.4813  -12.7230   17.4418 N   0  0  0  0  0  0  0  0  0  0  0  0
  -21.5888  -14.8193   18.3642 N   0  0  0  0  0  0  0  0  0  0  0  0
  -24.2550  -31.1463   22.2139 N   0  0  0  0  0  0  0  0  0  0  0  0
  -19.6308  -26.4249   20.5444 N   0  0  0  0  0  0  0  0  0  0  0  0
  -30.5647  -16.0460   18.7600 N   0  0  0  0  0  0  0  0  0  0  0  0
  -19.7201  -24.2353   17.6695 N   0  3  0  0  0  0  0  0  0  0  0  0
  -22.6119  -13.3278   16.9544 O   0  0  0  0  0  0  0  0  0  0  0  0
  -23.3334  -29.2954   23.2850 O   0  0  0  0  0  0  0  0  0  0  0  0
  -20.4058  -29.1578   20.9175 O   0  0  0  0  0  0  0  0  0  0  0  0
  -20.8606  -24.4844   20.2295 O   0  0  0  0  0  0  0  0  0  0  0  0
  -31.9899  -14.5288   19.7212 O   0  0  0  0  0  0  0  0  0  0  0  0
  -20.6891  -18.4130   22.5249 O   0  0  0  0  0  0  0  0  0  0  0  0
  -27.5835  -24.6633   21.2888 O   0  0  0  0  0  0  0  0  0  1  0  0
  -22.5102  -23.4292   23.9125 F   0  0  0  0  0  0  0  0  0  0  0  0
  -22.8788  -18.7179   24.1846 F   0  0  0  0  0  0  0  0  0  0  0  0
  1  2  1  0  0  0  0
  1  5  2  0  0  0  0
  2  6  2  0  0  0  0
  3  8  2  0  0  0  0
  3 15  1  0  0  0  0
  4  9  1  0  0  0  0
  4 15  2  0  0  0  0
  5 17  1  0  0  0  0
  6 19  1  0  0  0  0
  7 10  2  0  0  0  0
  7 18  1  0  0  0  0
  8 21  1  0  0  0  0
  9 21  2  0  0  0  0
 10 22  1  0  0  0  0
 11 12  2  0  0  0  0
 11 23  1  0  0  0  0
 12 24  1  0  0  0  0
 13 20  1  0  0  0  0
 13 22  2  0  0  0  0
 14 24  2  0  0  0  0
 14 25  1  0  0  0  0
 15 26  1  0  0  0  0
 16 26  1  0  0  0  0
 16 27  2  0  0  0  0
 16 30  1  0  0  0  0
 17 19  2  0  0  0  0
 17 35  1  0  0  0  0
 18 20  2  0  0  0  0
 18 36  1  0  0  0  0
 19 44  1  0  0  0  0
 20 37  1  0  0  0  0
 21 83  1  0  0  0  0
 22 84  1  0  0  0  0
 23 25  2  0  0  0  0
 23 83  1  0  0  0  0
 24 85  1  0  0  0  0
 25 86  1  0  0  0  0
 26 65  2  0  0  0  0
 27 68  1  0  0  0  0
 27 72  1  0  0  0  0
 28 54  1  0  0  0  0
 28 66  2  0  0  0  0
 28 69  1  0  0  0  0
 29 55  1  0  0  0  0
 29 67  2  0  0  0  0
 29 69  1  0  0  0  0
 30 73  1  0  0  0  0
 30 78  2  0  0  0  0
 31 45  1  0  0  0  0
 31 74  1  0  0  0  0
 31 79  2  0  0  0  0
 32 61  1  0  0  0  0
 32 70  1  0  0  0  0
 32 80  2  0  0  0  0
 33 62  1  0  0  0  0
 33 75  1  0  0  0  0
 33 81  2  0  0  0  0
 34 71  1  0  0  0  0
 34 76  1  0  0  0  0
 34 82  2  0  0  0  0
 35 38  1  0  0  0  0
 36 45  1  0  0  0  0
 37 70  1  0  0  0  0
 38 40  1  0  0  0  0
 39 41  1  0  0  0  0
 39 42  1  0  0  0  0
 40 44  1  0  0  0  0
 41 46  1  0  0  0  0
 42 71  1  0  0  0  0
 43 46  1  0  0  0  0
 43 71  1  0  0  0  0
 44 74  1  0  0  0  0
 45 70  1  0  0  0  0
 46 68  1  0  0  0  0
 47 56  1  0  0  0  0
 48 57  1  0  0  0  0
 49 62  1  0  0  0  0
 50 64  1  0  0  0  0
 51 64  1  0  0  0  0
 52 64  1  0  0  0  0
 53 77  1  0  0  0  0
 54 58  1  0  0  0  0
 55 59  1  0  0  0  0
 56 63  1  0  0  0  0
 57 63  1  0  0  0  0
 58 60  1  0  0  0  0
 59 76  1  0  0  0  0
 60 84  1  0  0  0  0
 61 64  1  0  0  0  0
 61 75  1  0  0  0  0
 62 77  1  0  0  0  0
 63 69  1  0  0  0  0
 65 68  1  0  0  0  0
 66 67  1  0  0  0  0
M  CHG  1  77   1
M  ISO  4  34 100  60 101  76 100  84 101
M  END
> <Batch ID>
0070

> <Smiles>
CCC(CC)n1c(CC[100NH:0][100C:0](=O)N2CCCC(n3nc(-c4ccc(Oc5ccc(F)cc5F)cc4)c(C(N)=O)c3N)C2)nnc1CC[101CH2:1][101O:1]c1ccc2c(c1)CN(C(=O)C(NC(=O)C(C)NC)C(C)(C)C)C(C(=O)NC1CCCc3ccccc31)C2

> <Shape>
0.224

> <Color>
0.076

> <Negative vol penalty>
0.000

$$$$

  -OEChem-04052318193D

 89 97  0     1  0  0  0  0  0999 V2000
  -24.4120  -31.5647   29.2104 C   0  0  0  0  0  0  0  0  0  0  0  0
  -25.3003  -30.9498   28.3340 C   0  0  0  0  0  0  0  0  0  0  0  0
  -26.5215  -11.5255   20.9070 C   0  0  0  0  0  0  0  0  0  0  0  0
  -24.6609  -12.8960   20.2021 C   0  0  0  0  0  0  0  0  0  0  0  0
  -23.0424  -31.5298   28.9514 C   0  0  0  0  0  0  0  0  0  0  0  0
  -24.8195  -30.2985   27.1986 C   0  0  0  0  0  0  0  0  0  0  0  0
  -27.5336  -29.9653   21.7188 C   0  0  0  0  0  0  0  0  0  0  0  0
  -25.6372  -10.5058   21.2588 C   0  0  0  0  0  0  0  0  0  0  0  0
  -23.7765  -11.8763   20.5539 C   0  0  0  0  0  0  0  0  0  0  0  0
  -28.3083  -28.9762   21.1143 C   0  0  0  0  0  0  0  0  0  0  0  0
  -22.6990   -8.9537   19.2433 C   0  0  0  0  0  0  0  0  0  0  0  0
  -21.6780   -8.6448   18.3446 C   0  0  0  0  0  0  0  0  0  0  0  0
  -26.3463  -28.1344   19.9913 C   0  0  0  0  0  0  0  0  0  0  0  0
  -20.0322   -9.1871   20.0281 C   0  0  0  0  0  0  0  0  0  0  0  0
  -29.9063  -21.5636   19.4777 C   0  0  0  0  0  0  0  0  0  0  0  0
  -26.0334  -12.7206   20.3787 C   0  0  0  0  0  0  0  0  0  0  0  0
  -27.5643  -13.9710   18.7661 C   0  0  0  0  0  0  0  0  0  0  0  0
  -22.5453  -30.8861   27.8073 C   0  0  0  0  0  0  0  0  0  0  0  0
  -26.1552  -30.0398   21.4721 C   0  0  0  0  0  0  0  0  0  0  0  0
  -23.4419  -30.2538   26.9248 C   0  0  0  0  0  0  0  0  0  0  0  0
  -25.5568  -29.1270   20.5919 C   0  0  0  0  0  0  0  0  0  0  0  0
  -29.4133  -22.6029   18.7154 C   0  0  0  0  0  0  0  0  0  0  0  0
  -24.2647  -10.6812   21.0823 C   0  0  0  0  0  0  0  0  0  0  0  0
  -27.7141  -28.0588   20.2527 C   0  0  0  0  0  0  0  0  0  0  0  0
  -22.3867   -9.3792   20.5344 C   0  0  0  0  0  0  0  0  0  0  0  0
  -20.3446   -8.7615   18.7370 C   0  0  0  0  0  0  0  0  0  0  0  0
  -21.0532   -9.4960   20.9268 C   0  0  0  0  0  0  0  0  0  0  0  0
  -26.9464  -13.7746   20.0156 C   0  0  0  0  0  0  0  0  0  0  0  0
  -28.0380  -22.6987   18.6547 C   0  0  0  0  0  0  0  0  0  0  0  0
  -28.3298  -15.0988   18.9351 C   0  0  0  0  0  0  0  0  0  0  0  0
  -27.8017  -20.8797   19.9972 C   0  0  0  0  0  0  0  0  0  0  0  0
  -27.4558  -13.2029   17.5603 C   0  0  0  0  0  0  0  0  0  0  0  0
  -23.5396  -29.7878   23.2606 C   0  0  0  0  0  0  0  0  0  0  0  0
  -22.0486  -30.6482   20.5112 C   0  0  0  0  0  0  0  0  0  0  0  0
  -22.1160  -30.7947   17.1023 C   0  0  0  0  0  0  0  0  0  0  0  0
  -27.6800  -19.5541   23.0904 C   0  0  0  0  0  0  0  0  0  0  0  0
  -21.0531  -30.8339   27.5943 C   0  0  0  0  0  0  0  0  0  0  0  0
  -25.3383  -31.1292   22.1111 C   0  0  0  0  0  0  0  0  0  0  0  0
  -24.0846  -29.1765   20.2781 C   0  0  0  0  0  0  0  0  0  0  0  0
  -20.6539  -30.4456   26.1730 C   0  0  0  0  0  0  0  0  0  0  0  0
  -30.6948  -17.5677   22.2737 C   0  0  0  0  0  0  0  0  0  0  0  0
  -21.4611  -29.2399   25.7023 C   0  0  0  0  0  0  0  0  0  0  0  0
  -30.1088  -16.3519   21.5579 C   0  0  0  0  0  0  0  0  0  0  0  0
  -29.7112  -18.1644   23.2759 C   0  0  0  0  0  0  0  0  0  0  0  0
  -27.8001  -17.2885   21.9742 C   0  0  0  0  0  0  0  0  0  0  0  0
  -22.9607  -29.5587   25.6696 C   0  0  1  0  0  0  0  0  0  0  0  0
  -23.8521  -30.7939   22.1892 C   0  0  1  0  0  0  0  0  0  0  0  0
  -28.7486  -16.6914   20.9238 C   0  0  2  0  0  0  0  0  0  0  0  0
  -23.7395  -25.1008   17.6175 C   0  0  0  0  0  0  0  0  0  0  0  0
  -20.7369  -31.5167   15.1340 C   0  0  0  0  0  0  0  0  0  0  0  0
  -31.8186  -23.1540   18.2907 C   0  0  0  0  0  0  0  0  0  0  0  0
  -30.2110  -23.5618   16.4491 C   0  0  0  0  0  0  0  0  0  0  0  0
  -20.2963  -28.1712   20.8335 C   0  0  0  0  0  0  0  0  0  0  0  0
  -19.6281  -28.4171   18.4332 C   0  0  0  0  0  0  0  0  0  0  0  0
  -19.0790  -30.2180   20.0696 C   0  0  0  0  0  0  0  0  0  0  0  0
  -26.0790  -21.3483   22.5453 C   0  0  0  0  0  0  0  0  0  0  0  0
  -24.1574  -32.7586   16.2451 C   0  0  0  0  0  0  0  0  0  0  0  0
  -27.3917  -23.7847   17.8595 C   0  0  0  0  0  0  0  0  0  0  0  0
  -26.9065  -19.9231   20.7096 C   0  0  0  0  0  0  0  0  0  0  0  0
  -25.2291  -25.0032   17.3294 C   0  0  0  0  0  0  0  0  0  0  0  0
  -25.8934  -23.9165   18.1748 C   0  0  0  0  0  0  0  0  0  0  0  0
  -29.8780  -25.1778   19.9986 C   0  0  0  0  0  0  0  0  0  0  0  0
  -30.1653  -25.0411   18.4985 C   0  0  0  0  0  0  0  0  0  0  0  0
  -29.6099  -26.6285   20.3811 C   0  0  0  0  0  0  0  0  0  1  0  0
  -21.4758  -29.9057   19.3281 C   0  0  1  0  0  0  0  0  0  0  0  0
  -21.8057  -31.9239   16.1363 C   0  0  2  0  0  0  0  0  0  0  0  0
  -30.3587  -23.5775   17.9898 C   0  0  0  0  0  0  0  0  0  0  0  0
  -20.1472  -29.1756   19.6733 C   0  0  0  0  0  0  0  0  0  0  0  0
  -29.1264  -20.6801   20.1345 N   0  0  0  0  0  0  0  0  0  0  0  0
  -27.2898  -14.7030   20.9124 N   0  0  0  0  0  0  0  0  0  0  0  0
  -27.1990  -21.8511   19.2853 N   0  0  0  0  0  0  0  0  0  0  0  0
  -28.1319  -15.4937   20.2255 N   0  0  0  0  0  0  0  0  0  0  0  0
  -23.3272  -30.2562   20.9324 N   0  0  0  0  0  0  0  0  0  0  0  0
  -28.4135  -18.4373   22.6573 N   0  0  0  0  0  0  0  0  0  0  0  0
  -29.1463  -15.7812   18.1044 N   0  0  0  0  0  0  0  0  0  0  0  0
  -26.6254  -12.0738   17.5598 N   0  0  0  0  0  0  0  0  0  0  0  0
  -23.2847  -30.3455   24.4990 N   0  0  0  0  0  0  0  0  0  0  0  0
  -21.3584  -30.8827   18.2510 N   0  0  0  0  0  0  0  0  0  0  0  0
  -26.8508  -20.1796   22.1471 N   0  0  0  0  0  0  0  0  0  0  0  0
  -23.0317  -32.3134   15.3839 N   0  3  0  0  0  0  0  0  0  0  0  0
  -28.0897  -13.4992   16.5192 O   0  0  0  0  0  0  0  0  0  0  0  0
  -23.5289  -28.5941   22.9839 O   0  0  0  0  0  0  0  0  0  0  0  0
  -21.3889  -31.5478   21.0377 O   0  0  0  0  0  0  0  0  0  0  0  0
  -22.9446  -29.9199   16.8603 O   0  0  0  0  0  0  0  0  0  0  0  0
  -27.7689  -19.9741   24.2513 O   0  0  0  0  0  0  0  0  0  0  0  0
  -23.4015   -9.6863   21.4252 O   0  0  0  0  0  0  0  0  0  0  0  0
  -28.4678  -27.0919   19.6619 O   0  0  0  0  0  0  0  0  0  1  0  0
  -19.3641   -8.4662   17.8734 F   0  0  0  0  0  0  0  0  0  0  0  0
  -20.7469   -9.9054   22.1655 F   0  0  0  0  0  0  0  0  0  0  0  0
  1  2  1  0  0  0  0
  1  5  2  0  0  0  0
  2  6  2  0  0  0  0
  3  8  2  0  0  0  0
  3 16  1  0  0  0  0
  4  9  1  0  0  0  0
  4 16  2  0  0  0  0
  5 18  1  0  0  0  0
  6 20  1  0  0  0  0
  7 10  2  0  0  0  0
  7 19  1  0  0  0  0
  8 23  1  0  0  0  0
  9 23  2  0  0  0  0
 10 24  1  0  0  0  0
 11 12  2  0  0  0  0
 11 25  1  0  0  0  0
 12 26  1  0  0  0  0
 13 21  1  0  0  0  0
 13 24  2  0  0  0  0
 14 26  2  0  0  0  0
 14 27  1  0  0  0  0
 15 22  1  0  0  0  0
 15 69  2  0  0  0  0
 16 28  1  0  0  0  0
 17 28  1  0  0  0  0
 17 30  2  0  0  0  0
 17 32  1  0  0  0  0
 18 20  2  0  0  0  0
 18 37  1  0  0  0  0
 19 21  2  0  0  0  0
 19 38  1  0  0  0  0
 20 46  1  0  0  0  0
 21 39  1  0  0  0  0
 22 29  2  0  0  0  0
 22 67  1  0  0  0  0
 23 86  1  0  0  0  0
 24 87  1  0  0  0  0
 25 27  2  0  0  0  0
 25 86  1  0  0  0  0
 26 88  1  0  0  0  0
 27 89  1  0  0  0  0
 28 70  2  0  0  0  0
 29 58  1  0  0  0  0
 29 71  1  0  0  0  0
 30 72  1  0  0  0  0
 30 75  1  0  0  0  0
 31 59  1  0  0  0  0
 31 69  1  0  0  0  0
 31 71  2  0  0  0  0
 32 76  1  0  0  0  0
 32 81  2  0  0  0  0
 33 47  1  0  0  0  0
 33 77  1  0  0  0  0
 33 82  2  0  0  0  0
 34 65  1  0  0  0  0
 34 73  1  0  0  0  0
 34 83  2  0  0  0  0
 35 66  1  0  0  0  0
 35 78  1  0  0  0  0
 35 84  2  0  0  0  0
 36 74  1  0  0  0  0
 36 79  1  0  0  0  0
 36 85  2  0  0  0  0
 37 40  1  0  0  0  0
 38 47  1  0  0  0  0
 39 73  1  0  0  0  0
 40 42  1  0  0  0  0
 41 43  1  0  0  0  0
 41 44  1  0  0  0  0
 42 46  1  0  0  0  0
 43 48  1  0  0  0  0
 44 74  1  0  0  0  0
 45 48  1  0  0  0  0
 45 74  1  0  0  0  0
 46 77  1  0  0  0  0
 47 73  1  0  0  0  0
 48 72  1  0  0  0  0
 49 60  1  0  0  0  0
 50 66  1  0  0  0  0
 51 67  1  0  0  0  0
 52 67  1  0  0  0  0
 53 68  1  0  0  0  0
 54 68  1  0  0  0  0
 55 68  1  0  0  0  0
 56 79  1  0  0  0  0
 57 80  1  0  0  0  0
 58 61  1  0  0  0  0
 59 79  1  0  0  0  0
 60 61  1  0  0  0  0
 62 63  1  0  0  0  0
 62 64  1  0  0  0  0
 63 67  1  0  0  0  0
 64 87  1  0  0  0  0
 65 68  1  0  0  0  0
 65 78  1  0  0  0  0
 66 80  1  0  0  0  0
 70 72  1  0  0  0  0
M  CHG  1  80   1
M  ISO  4  36 100  64 101  79 100  87 101
M  END
> <Batch ID>
0070

> <Smiles>
CCCCc1nc(C[100N:0](C)[100C:0](=O)N2CCCC(n3nc(-c4ccc(Oc5ccc(F)cc5F)cc4)c(C(N)=O)c3N)C2)ncc1C(C)(C)CC[101CH2:1][101O:1]c1ccc2c(c1)CN(C(=O)C(NC(=O)C(C)NC)C(C)(C)C)C(C(=O)NC1CCCc3ccccc31)C2

> <Shape>
0.259

> <Color>
0.076

> <Negative vol penalty>
0.000

$$$$

  -OEChem-04052318193D

 86 95  0     1  0  0  0  0  0999 V2000
  -30.1841  -31.7524   26.1207 C   0  0  0  0  0  0  0  0  0  0  0  0
  -30.3262  -30.7111   25.2092 C   0  0  0  0  0  0  0  0  0  0  0  0
  -22.7827  -10.1655   20.1292 C   0  0  0  0  0  0  0  0  0  0  0  0
  -24.2984   -9.3951   21.8456 C   0  0  0  0  0  0  0  0  0  0  0  0
  -28.9126  -32.1427   26.5388 C   0  0  0  0  0  0  0  0  0  0  0  0
  -29.1968  -30.0587   24.7161 C   0  0  0  0  0  0  0  0  0  0  0  0
  -28.4385  -27.7528   19.0935 C   0  0  0  0  0  0  0  0  0  0  0  0
  -22.0421   -8.9903   20.2557 C   0  0  0  0  0  0  0  0  0  0  0  0
  -23.5577   -8.2199   21.9722 C   0  0  0  0  0  0  0  0  0  0  0  0
  -28.5588  -26.4599   18.5858 C   0  0  0  0  0  0  0  0  0  0  0  0
  -20.6794   -7.2383   23.4460 C   0  0  0  0  0  0  0  0  0  0  0  0
  -20.3857   -6.7949   24.7355 C   0  0  0  0  0  0  0  0  0  0  0  0
  -26.1804  -26.1460   18.8380 C   0  0  0  0  0  0  0  0  0  0  0  0
  -21.5645   -4.7325   24.2946 C   0  0  0  0  0  0  0  0  0  0  0  0
  -28.6774  -17.2603   17.6863 C   0  0  0  0  0  0  0  0  0  0  0  0
  -23.9109  -10.3678   20.9241 C   0  0  0  0  0  0  0  0  0  0  0  0
  -24.2234  -12.8986   20.9956 C   0  0  0  0  0  0  0  0  0  0  0  0
  -27.7666  -31.5011   26.0432 C   0  0  0  0  0  0  0  0  0  0  0  0
  -27.1877  -28.2490   19.4881 C   0  0  0  0  0  0  0  0  0  0  0  0
  -27.9088  -30.4398   25.1290 C   0  0  0  0  0  0  0  0  0  0  0  0
  -26.0465  -27.4464   19.3480 C   0  0  0  0  0  0  0  0  0  0  0  0
  -22.4295   -8.0175   21.1772 C   0  0  0  0  0  0  0  0  0  0  0  0
  -27.4301  -25.6552   18.4607 C   0  0  0  0  0  0  0  0  0  0  0  0
  -21.4155   -6.4288   22.5808 C   0  0  0  0  0  0  0  0  0  0  0  0
  -20.8283   -5.5420   25.1598 C   0  0  0  0  0  0  0  0  0  0  0  0
  -21.8581   -5.1759   23.0051 C   0  0  0  0  0  0  0  0  0  0  0  0
  -24.6768  -11.5813   20.7934 C   0  0  0  0  0  0  0  0  0  0  0  0
  -28.7414  -15.9632   17.2615 C   0  0  0  0  0  0  0  0  0  0  0  0
  -25.3241  -13.6823   20.7490 C   0  0  0  0  0  0  0  0  0  0  0  0
  -26.9651  -16.9003   16.3302 C   0  0  0  0  0  0  0  0  0  0  0  0
  -22.9234  -13.3716   21.3727 C   0  0  0  0  0  0  0  0  0  0  0  0
  -29.7472  -14.9527   17.6138 C   0  0  0  0  0  0  0  0  0  0  0  0
  -25.9417  -29.2672   22.2293 C   0  0  0  0  0  0  0  0  0  0  0  0
  -23.4165  -30.0383   20.3448 C   0  0  0  0  0  0  0  0  0  0  0  0
  -21.6257  -28.5355   17.5967 C   0  0  0  0  0  0  0  0  0  0  0  0
  -26.4153  -31.9268   26.5606 C   0  0  0  0  0  0  0  0  0  0  0  0
  -27.0708  -29.6552   20.0088 C   0  0  0  0  0  0  0  0  0  0  0  0
  -24.6778  -27.9391   19.7383 C   0  0  0  0  0  0  0  0  0  0  0  0
  -25.2520  -31.4321   25.7048 C   0  0  0  0  0  0  0  0  0  0  0  0
  -30.1875  -12.4469   20.1175 C   0  0  0  0  0  0  0  0  0  0  0  0
  -25.4281  -29.9551   25.3670 C   0  0  0  0  0  0  0  0  0  0  0  0
  -28.7559  -12.0900   20.5215 C   0  0  0  0  0  0  0  0  0  0  0  0
  -26.7262  -19.5415   18.7421 C   0  0  0  0  0  0  0  0  0  0  0  0
  -28.1425  -20.2576   16.7612 C   0  0  0  0  0  0  0  0  0  0  0  0
  -26.2553  -20.9860   18.9221 C   0  0  0  0  0  0  0  0  0  0  0  0
  -27.6669  -21.6998   16.9481 C   0  0  0  0  0  0  0  0  0  0  0  0
  -30.2901  -12.7649   18.6279 C   0  0  0  0  0  0  0  0  0  0  0  0
  -27.9177  -13.4517   18.5609 C   0  0  0  0  0  0  0  0  0  0  0  0
  -26.7066  -29.7240   24.5524 C   0  0  1  0  0  0  0  0  0  0  0  0
  -25.8242  -29.8754   20.8603 C   0  0  1  0  0  0  0  0  0  0  0  0
  -27.1051  -19.2496   17.2812 C   0  0  0  0  0  0  0  0  0  0  0  0
  -27.7610  -13.1736   20.0650 C   0  0  1  0  0  0  0  0  0  0  0  0
  -27.2674  -22.0320   18.4033 C   0  0  0  0  0  0  0  0  0  0  0  0
  -28.5126  -22.0770   19.3101 C   0  0  0  0  0  0  0  0  0  0  0  0
  -24.2662  -15.7521   17.1040 C   0  0  0  0  0  0  0  0  0  0  0  0
  -20.3101  -29.5875   15.7367 C   0  0  0  0  0  0  0  0  0  0  0  0
  -21.0197  -29.5995   22.1813 C   0  0  0  0  0  0  0  0  0  0  0  0
  -19.6669  -29.0082   20.1592 C   0  0  0  0  0  0  0  0  0  0  0  0
  -20.6537  -31.2892   20.3742 C   0  0  0  0  0  0  0  0  0  0  0  0
  -23.2260  -27.1525   15.5267 C   0  0  0  0  0  0  0  0  0  0  0  0
  -25.7367  -17.0866   15.5191 C   0  0  0  0  0  0  0  0  0  0  0  0
  -26.6081  -23.4238   18.4351 C   0  0  0  0  0  0  0  0  0  1  0  0
  -24.4601  -17.0743   16.3788 C   0  0  0  0  0  0  0  0  0  0  0  0
  -22.1681  -29.3246   19.8853 C   0  0  1  0  0  0  0  0  0  0  0  0
  -21.6443  -28.9835   16.1465 C   0  0  2  0  0  0  0  0  0  0  0  0
  -20.9010  -29.7911   20.6561 C   0  0  0  0  0  0  0  0  0  0  0  0
  -25.9651  -11.5272   20.4450 N   0  0  0  0  0  0  0  0  0  0  0  0
  -27.5689  -17.8162   17.0947 N   0  0  0  0  0  0  0  0  0  0  0  0
  -26.3306  -12.8203   20.4263 N   0  0  0  0  0  0  0  0  0  0  0  0
  -27.6699  -15.7680   16.4237 N   0  3  0  0  0  0  0  0  0  0  0  0
  -29.3144  -13.7860   18.2485 N   0  0  0  0  0  0  0  0  0  0  0  0
  -24.6160  -29.3189   20.2481 N   0  0  0  0  0  0  0  0  0  0  0  0
  -25.5195  -15.0177   20.7788 N   0  0  0  0  0  0  0  0  0  0  0  0
  -21.9066  -12.4313   21.5873 N   0  0  0  0  0  0  0  0  0  0  0  0
  -26.5026  -30.1076   23.1720 N   0  0  0  0  0  0  0  0  0  0  0  0
  -22.0947  -29.5193   18.4413 N   0  0  0  0  0  0  0  0  0  0  0  0
  -21.9317  -27.8276   15.2508 N   0  3  0  0  0  0  0  0  0  0  0  0
  -22.6668  -14.5930   21.4991 O   0  0  0  0  0  0  0  0  0  0  0  0
  -30.9127  -15.2234   17.3283 O   0  0  0  0  0  0  0  0  0  0  0  0
  -25.5509  -28.1210   22.4168 O   0  0  0  0  0  0  0  0  0  0  0  0
  -23.3315  -31.1942   20.7671 O   0  0  0  0  0  0  0  0  0  0  0  0
  -21.2309  -27.4252   17.9459 O   0  0  0  0  0  0  0  0  0  0  0  0
  -21.7069   -6.8708   21.3012 O   0  0  0  0  0  0  0  0  0  0  0  0
  -27.5449  -24.3927   17.9661 O   0  0  0  0  0  0  0  0  0  1  0  0
  -20.5475   -5.1169   26.3986 F   0  0  0  0  0  0  0  0  0  0  0  0
  -22.5667   -4.3943   22.1789 F   0  0  0  0  0  0  0  0  0  0  0  0
  1  2  1  0  0  0  0
  1  5  2  0  0  0  0
  2  6  2  0  0  0  0
  3  8  2  0  0  0  0
  3 16  1  0  0  0  0
  4  9  1  0  0  0  0
  4 16  2  0  0  0  0
  5 18  1  0  0  0  0
  6 20  1  0  0  0  0
  7 10  2  0  0  0  0
  7 19  1  0  0  0  0
  8 22  1  0  0  0  0
  9 22  2  0  0  0  0
 10 23  1  0  0  0  0
 11 12  2  0  0  0  0
 11 24  1  0  0  0  0
 12 25  1  0  0  0  0
 13 21  1  0  0  0  0
 13 23  2  0  0  0  0
 14 25  2  0  0  0  0
 14 26  1  0  0  0  0
 15 28  2  0  0  0  0
 15 68  1  0  0  0  0
 16 27  1  0  0  0  0
 17 27  1  0  0  0  0
 17 29  2  0  0  0  0
 17 31  1  0  0  0  0
 18 20  2  0  0  0  0
 18 36  1  0  0  0  0
 19 21  2  0  0  0  0
 19 37  1  0  0  0  0
 20 49  1  0  0  0  0
 21 38  1  0  0  0  0
 22 83  1  0  0  0  0
 23 84  1  0  0  0  0
 24 26  2  0  0  0  0
 24 83  1  0  0  0  0
 25 85  1  0  0  0  0
 26 86  1  0  0  0  0
 27 67  2  0  0  0  0
 28 32  1  0  0  0  0
 28 70  1  0  0  0  0
 29 69  1  0  0  0  0
 29 73  1  0  0  0  0
 30 61  1  0  0  0  0
 30 68  1  0  0  0  0
 30 70  2  0  0  0  0
 31 74  1  0  0  0  0
 31 78  2  0  0  0  0
 32 71  1  0  0  0  0
 32 79  2  0  0  0  0
 33 50  1  0  0  0  0
 33 75  1  0  0  0  0
 33 80  2  0  0  0  0
 34 64  1  0  0  0  0
 34 72  1  0  0  0  0
 34 81  2  0  0  0  0
 35 65  1  0  0  0  0
 35 76  1  0  0  0  0
 35 82  2  0  0  0  0
 36 39  1  0  0  0  0
 37 50  1  0  0  0  0
 38 72  1  0  0  0  0
 39 41  1  0  0  0  0
 40 42  1  0  0  0  0
 40 47  1  0  0  0  0
 41 49  1  0  0  0  0
 42 52  1  0  0  0  0
 43 45  1  0  0  0  0
 43 51  1  0  0  0  0
 44 46  1  0  0  0  0
 44 51  1  0  0  0  0
 45 53  1  0  0  0  0
 46 53  1  0  0  0  0
 47 71  1  0  0  0  0
 48 52  1  0  0  0  0
 48 71  1  0  0  0  0
 49 75  1  0  0  0  0
 50 72  1  0  0  0  0
 51 68  1  0  0  0  0
 52 69  1  0  0  0  0
 53 54  1  0  0  0  0
 53 62  1  0  0  0  0
 55 63  1  0  0  0  0
 56 65  1  0  0  0  0
 57 66  1  0  0  0  0
 58 66  1  0  0  0  0
 59 66  1  0  0  0  0
 60 77  1  0  0  0  0
 61 63  1  0  0  0  0
 62 84  1  0  0  0  0
 64 66  1  0  0  0  0
 64 76  1  0  0  0  0
 65 77  1  0  0  0  0
 67 69  1  0  0  0  0
M  CHG  2  70   1  77   1
M  ISO  4  28 100  32 100  62 101  84 101
M  END
> <Batch ID>
0070

> <Smiles>
CCCc1n[100c:0]([100C:0](=O)N2CCCC(n3nc(-c4ccc(Oc5ccc(F)cc5F)cc4)c(C(N)=O)c3N)C2)cn1C1CCC(C)([101CH2:1][101O:1]c2ccc3c(c2)CN(C(=O)C(NC(=O)C(C)NC)C(C)(C)C)C(C(=O)NC2CCCc4ccccc42)C3)CC1

> <Shape>
0.316

> <Color>
0.183

> <Negative vol penalty>
0.000

$$$$

  -OEChem-04052318193D

 87 95  0     1  0  0  0  0  0999 V2000
  -30.0022  -35.6599   19.3013 C   0  0  0  0  0  0  0  0  0  0  0  0
  -30.0085  -34.2904   19.5463 C   0  0  0  0  0  0  0  0  0  0  0  0
  -22.6394  -15.3097   23.1199 C   0  0  0  0  0  0  0  0  0  0  0  0
  -22.6715  -16.1039   20.8384 C   0  0  0  0  0  0  0  0  0  0  0  0
  -29.1155  -36.4861   19.9905 C   0  0  0  0  0  0  0  0  0  0  0  0
  -29.1286  -33.7465   20.4814 C   0  0  0  0  0  0  0  0  0  0  0  0
  -26.8823  -29.5267   18.8106 C   0  0  0  0  0  0  0  0  0  0  0  0
  -21.6194  -16.2125   23.4198 C   0  0  0  0  0  0  0  0  0  0  0  0
  -21.6514  -17.0067   21.1383 C   0  0  0  0  0  0  0  0  0  0  0  0
  -27.6313  -28.3512   18.8425 C   0  0  0  0  0  0  0  0  0  0  0  0
  -21.3521  -20.0138   22.6543 C   0  0  0  0  0  0  0  0  0  0  0  0
  -21.4861  -21.3215   22.1878 C   0  0  0  0  0  0  0  0  0  0  0  0
  -26.5113  -27.6997   20.8772 C   0  0  0  0  0  0  0  0  0  0  0  0
  -19.4397  -21.0812   20.9262 C   0  0  0  0  0  0  0  0  0  0  0  0
  -29.0470  -18.0416   19.9221 C   0  0  0  0  0  0  0  0  0  0  0  0
  -23.1655  -15.2554   21.8292 C   0  0  0  0  0  0  0  0  0  0  0  0
  -24.0767  -13.0014   21.0565 C   0  0  0  0  0  0  0  0  0  0  0  0
  -28.2177  -35.9508   20.9276 C   0  0  0  0  0  0  0  0  0  0  0  0
  -25.9483  -29.8030   19.8195 C   0  0  0  0  0  0  0  0  0  0  0  0
  -28.2300  -34.5666   21.1848 C   0  0  0  0  0  0  0  0  0  0  0  0
  -25.7498  -28.8782   20.8545 C   0  0  0  0  0  0  0  0  0  0  0  0
  -21.1253  -17.0610   22.4291 C   0  0  0  0  0  0  0  0  0  0  0  0
  -27.4480  -27.4389   19.8774 C   0  0  0  0  0  0  0  0  0  0  0  0
  -20.2619  -19.2398   22.2567 C   0  0  0  0  0  0  0  0  0  0  0  0
  -20.5300  -21.8552   21.3238 C   0  0  0  0  0  0  0  0  0  0  0  0
  -19.3057  -19.7735   21.3926 C   0  0  0  0  0  0  0  0  0  0  0  0
  -24.2197  -14.3234   21.5188 C   0  0  0  0  0  0  0  0  0  0  0  0
  -27.9157  -18.8294   19.6368 C   0  0  0  0  0  0  0  0  0  0  0  0
  -29.0068  -17.0330   18.9906 C   0  0  0  0  0  0  0  0  0  0  0  0
  -25.3647  -12.5459   20.9151 C   0  0  0  0  0  0  0  0  0  0  0  0
  -22.8861  -12.2522   20.7794 C   0  0  0  0  0  0  0  0  0  0  0  0
  -25.6197  -32.0844   22.0083 C   0  0  0  0  0  0  0  0  0  0  0  0
  -22.7956  -30.5928   22.5753 C   0  0  0  0  0  0  0  0  0  0  0  0
  -30.5655  -15.4256   20.0373 C   0  0  0  0  0  0  0  0  0  0  0  0
  -20.9423  -27.7328   22.3952 C   0  0  0  0  0  0  0  0  0  0  0  0
  -27.3104  -36.8899   21.6823 C   0  0  0  0  0  0  0  0  0  0  0  0
  -25.1291  -31.0629   19.7563 C   0  0  0  0  0  0  0  0  0  0  0  0
  -24.7452  -29.1182   21.9507 C   0  0  0  0  0  0  0  0  0  0  0  0
  -26.1525  -36.1852   22.3843 C   0  0  0  0  0  0  0  0  0  0  0  0
  -29.7669  -13.1342   22.6738 C   0  0  0  0  0  0  0  0  0  0  0  0
  -26.6527  -34.9556   23.1358 C   0  0  0  0  0  0  0  0  0  0  0  0
  -28.2399  -13.0812   22.6531 C   0  0  0  0  0  0  0  0  0  0  0  0
  -30.2821  -14.5266   22.3232 C   0  0  0  0  0  0  0  0  0  0  0  0
  -28.2482  -14.9994   20.9962 C   0  0  0  0  0  0  0  0  0  0  0  0
  -27.2738  -33.9358   22.1737 C   0  0  1  0  0  0  0  0  0  0  0  0
  -24.5733  -31.4830   21.1135 C   0  0  1  0  0  0  0  0  0  0  0  0
  -27.6868  -13.6024   21.3148 C   0  0  2  0  0  0  0  0  0  0  0  0
  -18.6806  -26.8113   22.9726 C   0  0  0  0  0  0  0  0  0  0  0  0
  -31.0588  -16.2567   17.7743 C   0  0  0  0  0  0  0  0  0  0  0  0
  -29.2566  -14.5826   18.2031 C   0  0  0  0  0  0  0  0  0  0  0  0
  -23.6139  -30.4299   25.5102 C   0  0  0  0  0  0  0  0  0  0  0  0
  -21.8239  -28.7112   25.8418 C   0  0  0  0  0  0  0  0  0  0  0  0
  -21.2145  -31.0223   25.1276 C   0  0  0  0  0  0  0  0  0  0  0  0
  -27.1255  -15.0400   17.5892 C   0  0  0  0  0  0  0  0  0  0  0  0
  -28.4942  -16.4541   16.0059 C   0  0  0  0  0  0  0  0  0  0  0  0
  -26.1221  -17.0214   16.4757 C   0  0  0  0  0  0  0  0  0  0  0  0
  -20.3341  -27.1349   19.5612 C   0  0  0  0  0  0  0  0  0  0  0  0
  -27.4601  -20.0762   20.3522 C   0  0  0  0  0  0  0  0  0  0  0  0
  -28.0363  -21.3711   19.7683 C   0  0  0  0  0  0  0  0  0  0  0  0
  -27.5020  -22.6299   20.4589 C   0  0  0  0  0  0  0  0  0  0  0  0
  -28.1250  -23.8927   19.8663 C   0  0  0  0  0  0  0  0  0  0  0  0
  -27.5694  -25.1515   20.5171 C   0  0  0  0  0  0  0  0  0  1  0  0
  -22.3410  -29.4718   23.4785 C   0  0  1  0  0  0  0  0  0  0  0  0
  -19.5299  -27.4772   21.9010 C   0  0  2  0  0  0  0  0  0  0  0  0
  -29.9094  -15.8900   18.7614 C   0  0  0  0  0  0  0  0  0  0  0  0
  -22.2687  -29.9049   24.9701 C   0  0  0  0  0  0  0  0  0  0  0  0
  -27.4233  -16.4812   17.1192 C   0  0  0  0  0  0  0  0  0  0  0  0
  -25.4977  -14.6842   21.6619 N   0  0  0  0  0  0  0  0  0  0  0  0
  -27.2086  -18.3615   18.6048 N   0  0  0  0  0  0  0  0  0  0  0  0
  -27.8973  -17.2689   18.2333 N   0  0  0  0  0  0  0  0  0  0  0  0
  -26.1695  -13.5823   21.2873 N   0  0  0  0  0  0  0  0  0  0  0  0
  -23.9730  -30.3675   21.8482 N   0  0  0  0  0  0  0  0  0  0  0  0
  -29.7164  -14.9950   21.0568 N   0  0  0  0  0  0  0  0  0  0  0  0
  -25.8761  -11.3640   20.5102 N   0  0  0  0  0  0  0  0  0  0  0  0
  -21.6450  -12.8722   20.9786 N   0  0  0  0  0  0  0  0  0  0  0  0
  -26.2386  -33.2008   21.4790 N   0  0  0  0  0  0  0  0  0  0  0  0
  -21.0747  -28.9957   22.9325 N   0  0  0  0  0  0  0  0  0  0  0  0
  -19.5527  -26.5921   20.7022 N   0  3  0  0  0  0  0  0  0  0  0  0
  -22.9215  -11.0626   20.3831 O   0  0  0  0  0  0  0  0  0  0  0  0
  -25.8478  -31.5743   23.0990 O   0  0  0  0  0  0  0  0  0  0  0  0
  -22.1266  -31.6272   22.5116 O   0  0  0  0  0  0  0  0  0  0  0  0
  -31.7963  -15.4431   20.1222 O   0  0  0  0  0  0  0  0  0  0  0  0
  -21.8376  -26.8945   22.3161 O   0  0  0  0  0  0  0  0  0  0  0  0
  -20.1298  -17.9420   22.7213 O   0  0  0  0  0  0  0  0  0  0  0  0
  -28.1782  -26.2911   19.9112 O   0  0  0  0  0  0  0  0  0  1  0  0
  -20.6580  -23.1115   20.8771 F   0  0  0  0  0  0  0  0  0  0  0  0
  -18.2556  -19.0351   21.0081 F   0  0  0  0  0  0  0  0  0  0  0  0
  1  2  1  0  0  0  0
  1  5  2  0  0  0  0
  2  6  2  0  0  0  0
  3  8  2  0  0  0  0
  3 16  1  0  0  0  0
  4  9  1  0  0  0  0
  4 16  2  0  0  0  0
  5 18  1  0  0  0  0
  6 20  1  0  0  0  0
  7 10  2  0  0  0  0
  7 19  1  0  0  0  0
  8 22  1  0  0  0  0
  9 22  2  0  0  0  0
 10 23  1  0  0  0  0
 11 12  2  0  0  0  0
 11 24  1  0  0  0  0
 12 25  1  0  0  0  0
 13 21  1  0  0  0  0
 13 23  2  0  0  0  0
 14 25  2  0  0  0  0
 14 26  1  0  0  0  0
 15 28  1  0  0  0  0
 15 29  2  0  0  0  0
 16 27  1  0  0  0  0
 17 27  1  0  0  0  0
 17 30  2  0  0  0  0
 17 31  1  0  0  0  0
 18 20  2  0  0  0  0
 18 36  1  0  0  0  0
 19 21  2  0  0  0  0
 19 37  1  0  0  0  0
 20 45  1  0  0  0  0
 21 38  1  0  0  0  0
 22 84  1  0  0  0  0
 23 85  1  0  0  0  0
 24 26  2  0  0  0  0
 24 84  1  0  0  0  0
 25 86  1  0  0  0  0
 26 87  1  0  0  0  0
 27 68  2  0  0  0  0
 28 58  1  0  0  0  0
 28 69  2  0  0  0  0
 29 65  1  0  0  0  0
 29 70  1  0  0  0  0
 30 71  1  0  0  0  0
 30 74  1  0  0  0  0
 31 75  1  0  0  0  0
 31 79  2  0  0  0  0
 32 46  1  0  0  0  0
 32 76  1  0  0  0  0
 32 80  2  0  0  0  0
 33 63  1  0  0  0  0
 33 72  1  0  0  0  0
 33 81  2  0  0  0  0
 34 65  1  0  0  0  0
 34 73  1  0  0  0  0
 34 82  2  0  0  0  0
 35 64  1  0  0  0  0
 35 77  1  0  0  0  0
 35 83  2  0  0  0  0
 36 39  1  0  0  0  0
 37 46  1  0  0  0  0
 38 72  1  0  0  0  0
 39 41  1  0  0  0  0
 40 42  1  0  0  0  0
 40 43  1  0  0  0  0
 41 45  1  0  0  0  0
 42 47  1  0  0  0  0
 43 73  1  0  0  0  0
 44 47  1  0  0  0  0
 44 73  1  0  0  0  0
 45 76  1  0  0  0  0
 46 72  1  0  0  0  0
 47 71  1  0  0  0  0
 48 64  1  0  0  0  0
 49 65  1  0  0  0  0
 50 65  1  0  0  0  0
 51 66  1  0  0  0  0
 52 66  1  0  0  0  0
 53 66  1  0  0  0  0
 54 67  1  0  0  0  0
 55 67  1  0  0  0  0
 56 67  1  0  0  0  0
 57 78  1  0  0  0  0
 58 59  1  0  0  0  0
 59 60  1  0  0  0  0
 60 61  1  0  0  0  0
 61 62  1  0  0  0  0
 62 85  1  0  0  0  0
 63 66  1  0  0  0  0
 63 77  1  0  0  0  0
 64 78  1  0  0  0  0
 67 70  1  0  0  0  0
 68 71  1  0  0  0  0
 69 70  1  0  0  0  0
M  CHG  1  78   1
M  ISO  4  34 100  62 101  65 100  85 101
M  END
> <Batch ID>
0070

> <Smiles>
CNC(C)C(=O)NC(C(=O)N1Cc2cc([101O:1][101CH2:1]CCCCc3cc([100C:0](C)(C)[100C:0](=O)N4CCCC(n5nc(-c6ccc(Oc7ccc(F)cc7F)cc6)c(C(N)=O)c5N)C4)n(C(C)(C)C)n3)ccc2CC1C(=O)NC1CCCc2ccccc21)C(C)(C)C

> <Shape>
0.248

> <Color>
0.096

> <Negative vol penalty>
0.000

$$$$

  -OEChem-04052318193D

 90 98  0     1  0  0  0  0  0999 V2000
  -21.9820  -30.1432   23.9516 C   0  0  0  0  0  0  0  0  0  0  0  0
  -22.5363  -29.0088   24.5357 C   0  0  0  0  0  0  0  0  0  0  0  0
  -29.8292  -23.6794   19.1103 C   0  0  0  0  0  0  0  0  0  0  0  0
  -28.7561  -23.6272   21.2743 C   0  0  0  0  0  0  0  0  0  0  0  0
  -20.9489  -30.0144   23.0243 C   0  0  0  0  0  0  0  0  0  0  0  0
  -22.0570  -27.7448   24.1936 C   0  0  0  0  0  0  0  0  0  0  0  0
  -25.3026  -22.5693   23.7624 C   0  0  0  0  0  0  0  0  0  0  0  0
  -29.4837  -25.0236   18.9714 C   0  0  0  0  0  0  0  0  0  0  0  0
  -28.4107  -24.9715   21.1354 C   0  0  0  0  0  0  0  0  0  0  0  0
  -25.4889  -21.5030   24.6410 C   0  0  0  0  0  0  0  0  0  0  0  0
  -26.0623  -26.7858   19.5155 C   0  0  0  0  0  0  0  0  0  0  0  0
  -24.7614  -27.1588   19.8531 C   0  0  0  0  0  0  0  0  0  0  0  0
  -23.7352  -20.2821   23.5215 C   0  0  0  0  0  0  0  0  0  0  0  0
  -25.6288  -28.6650   21.5312 C   0  0  0  0  0  0  0  0  0  0  0  0
  -27.4241  -13.7971   23.0868 C   0  0  0  0  0  0  0  0  0  0  0  0
  -29.4653  -22.9812   20.2617 C   0  0  0  0  0  0  0  0  0  0  0  0
  -30.9978  -21.0712   20.9765 C   0  0  0  0  0  0  0  0  0  0  0  0
  -20.4632  -28.7477   22.6634 C   0  0  0  0  0  0  0  0  0  0  0  0
  -24.3222  -22.5043   22.7619 C   0  0  0  0  0  0  0  0  0  0  0  0
  -21.0155  -27.5990   23.2616 C   0  0  0  0  0  0  0  0  0  0  0  0
  -23.5402  -21.3480   22.6299 C   0  0  0  0  0  0  0  0  0  0  0  0
  -26.8108  -13.3075   21.9596 C   0  0  0  0  0  0  0  0  0  0  0  0
  -28.7745  -25.6697   19.9840 C   0  0  0  0  0  0  0  0  0  0  0  0
  -24.7031  -20.3603   24.5225 C   0  0  0  0  0  0  0  0  0  0  0  0
  -27.1465  -27.3523   20.1858 C   0  0  0  0  0  0  0  0  0  0  0  0
  -24.5446  -28.0984   20.8609 C   0  0  0  0  0  0  0  0  0  0  0  0
  -26.9298  -28.2919   21.1936 C   0  0  0  0  0  0  0  0  0  0  0  0
  -29.8214  -21.5924   20.4055 C   0  0  0  0  0  0  0  0  0  0  0  0
  -25.4969  -13.8080   22.0283 C   0  0  0  0  0  0  0  0  0  0  0  0
  -30.8550  -19.7090   20.8738 C   0  0  0  0  0  0  0  0  0  0  0  0
  -32.1194  -21.7570   21.5487 C   0  0  0  0  0  0  0  0  0  0  0  0
  -21.6990  -24.1652   22.0807 C   0  0  0  0  0  0  0  0  0  0  0  0
  -21.6763  -22.2982   19.4281 C   0  0  0  0  0  0  0  0  0  0  0  0
  -22.6255  -19.3831   17.9287 C   0  0  0  0  0  0  0  0  0  0  0  0
  -25.7018  -16.5394   20.3108 C   0  0  0  0  0  0  0  0  0  0  0  0
  -19.3130  -28.6611   21.6917 C   0  0  0  0  0  0  0  0  0  0  0  0
  -24.1520  -23.6524   21.8052 C   0  0  0  0  0  0  0  0  0  0  0  0
  -22.4879  -21.2202   21.5599 C   0  0  0  0  0  0  0  0  0  0  0  0
  -19.1163  -27.2662   21.1035 C   0  0  0  0  0  0  0  0  0  0  0  0
  -28.7824  -16.3411   18.1983 C   0  0  0  0  0  0  0  0  0  0  0  0
  -19.1723  -26.2104   22.2031 C   0  0  0  0  0  0  0  0  0  0  0  0
  -29.4557  -17.6696   18.5393 C   0  0  0  0  0  0  0  0  0  0  0  0
  -27.2675  -16.4402   18.3310 C   0  0  0  0  0  0  0  0  0  0  0  0
  -27.4765  -18.2319   20.0230 C   0  0  0  0  0  0  0  0  0  0  0  0
  -20.5394  -26.2094   22.8977 C   0  0  1  0  0  0  0  0  0  0  0  0
  -22.7751  -23.6842   21.1489 C   0  0  1  0  0  0  0  0  0  0  0  0
  -29.0099  -18.1733   19.9225 C   0  0  2  0  0  0  0  0  0  0  0  0
  -23.2022  -12.8332   21.6993 C   0  0  0  0  0  0  0  0  0  0  0  0
  -22.9308  -17.7018   16.0910 C   0  0  0  0  0  0  0  0  0  0  0  0
  -18.8073  -21.5404   20.1384 C   0  0  0  0  0  0  0  0  0  0  0  0
  -18.9957  -19.6159   18.5482 C   0  0  0  0  0  0  0  0  0  0  0  0
  -19.2048  -21.9540   17.7042 C   0  0  0  0  0  0  0  0  0  0  0  0
  -25.4421  -17.0967   27.1830 C   0  0  0  0  0  0  0  0  0  0  0  0
  -27.8759  -17.4835   26.7764 C   0  0  0  0  0  0  0  0  0  0  0  0
  -25.2103  -15.0170   18.3513 C   0  0  0  0  0  0  0  0  0  0  0  0
  -25.2043  -20.5791   17.1050 C   0  0  0  0  0  0  0  0  0  0  0  0
  -26.3409  -16.7712   24.8722 C   0  0  0  0  0  0  0  0  0  0  0  0
  -26.6588  -15.2790   25.0362 C   0  0  0  0  0  0  0  0  0  0  0  0
  -23.8640  -14.8990   20.4152 C   0  0  0  0  0  0  0  0  0  0  0  0
  -26.1966  -19.1247   25.9004 C   0  0  0  0  0  0  0  0  0  1  0  0
  -24.3976  -13.5935   21.0709 C   0  0  1  0  0  0  0  0  0  0  0  0
  -21.0840  -20.9565   19.0701 C   0  0  1  0  0  0  0  0  0  0  0  0
  -23.2582  -19.1051   16.5771 C   0  0  2  0  0  0  0  0  0  0  0  0
  -27.4058  -12.4511   20.9198 C   0  0  0  0  0  0  0  0  0  0  0  0
  -19.5414  -21.0196   18.8867 C   0  0  0  0  0  0  0  0  0  0  0  0
  -26.4720  -17.6285   26.1627 C   0  0  0  0  0  0  0  0  0  0  0  0
  -28.9924  -20.6391   19.9720 N   0  0  0  0  0  0  0  0  0  0  0  0
  -25.2868  -14.5580   23.1134 N   0  0  0  0  0  0  0  0  0  0  0  0
  -26.4770  -14.5322   23.7370 N   0  0  0  0  0  0  0  0  0  0  0  0
  -29.6488  -19.5051   20.2707 N   0  0  0  0  0  0  0  0  0  0  0  0
  -22.3551  -22.3721   20.6527 N   0  0  0  0  0  0  0  0  0  0  0  0
  -26.8707  -16.9516   19.6497 N   0  0  0  0  0  0  0  0  0  0  0  0
  -31.6448  -18.6777   21.2413 N   0  0  0  0  0  0  0  0  0  0  0  0
  -32.1038  -23.1582   21.5740 N   0  0  0  0  0  0  0  0  0  0  0  0
  -21.5228  -25.5357   22.0770 N   0  0  0  0  0  0  0  0  0  0  0  0
  -21.8075  -20.4925   17.8912 N   0  0  0  0  0  0  0  0  0  0  0  0
  -24.9032  -15.5860   19.6615 N   0  0  0  0  0  0  0  0  0  0  0  0
  -24.7400  -19.2395   16.6613 N   0  3  0  0  0  0  0  0  0  0  0  0
  -33.1135  -21.1457   22.0087 O   0  0  0  0  0  0  0  0  0  0  0  0
  -21.0737  -23.3528   22.7522 O   0  0  0  0  0  0  0  0  0  0  0  0
  -21.5476  -23.2439   18.6467 O   0  0  0  0  0  0  0  0  0  0  0  0
  -22.8331  -18.6838   18.9179 O   0  0  0  0  0  0  0  0  0  0  0  0
  -25.3956  -16.9898   21.4223 O   0  0  0  0  0  0  0  0  0  0  0  0
  -28.4375  -26.9815   19.8489 O   0  0  0  0  0  0  0  0  0  0  0  0
  -24.8824  -19.3183   25.3792 O   0  0  0  0  0  0  0  0  0  1  0  0
  -23.2953  -28.4577   21.1840 F   0  0  0  0  0  0  0  0  0  0  0  0
  -27.9674  -28.8405   21.8403 F   0  0  0  0  0  0  0  0  0  0  0  0
  -28.7230  -12.1278   21.1377 F   0  0  0  0  0  0  0  0  0  0  0  0
  -26.7813  -11.2382   20.7604 F   0  0  0  0  0  0  0  0  0  0  0  0
  -27.3880  -13.0197   19.6710 F   0  0  0  0  0  0  0  0  0  0  0  0
  1  2  1  0  0  0  0
  1  5  2  0  0  0  0
  2  6  2  0  0  0  0
  3  8  2  0  0  0  0
  3 16  1  0  0  0  0
  4  9  1  0  0  0  0
  4 16  2  0  0  0  0
  5 18  1  0  0  0  0
  6 20  1  0  0  0  0
  7 10  2  0  0  0  0
  7 19  1  0  0  0  0
  8 23  1  0  0  0  0
  9 23  2  0  0  0  0
 10 24  1  0  0  0  0
 11 12  2  0  0  0  0
 11 25  1  0  0  0  0
 12 26  1  0  0  0  0
 13 21  1  0  0  0  0
 13 24  2  0  0  0  0
 14 26  2  0  0  0  0
 14 27  1  0  0  0  0
 15 22  2  0  0  0  0
 15 69  1  0  0  0  0
 16 28  1  0  0  0  0
 17 28  1  0  0  0  0
 17 30  2  0  0  0  0
 17 31  1  0  0  0  0
 18 20  2  0  0  0  0
 18 36  1  0  0  0  0
 19 21  2  0  0  0  0
 19 37  1  0  0  0  0
 20 45  1  0  0  0  0
 21 38  1  0  0  0  0
 22 29  1  0  0  0  0
 22 64  1  0  0  0  0
 23 84  1  0  0  0  0
 24 85  1  0  0  0  0
 25 27  2  0  0  0  0
 25 84  1  0  0  0  0
 26 86  1  0  0  0  0
 27 87  1  0  0  0  0
 28 67  2  0  0  0  0
 29 61  1  0  0  0  0
 29 68  2  0  0  0  0
 30 70  1  0  0  0  0
 30 73  1  0  0  0  0
 31 74  1  0  0  0  0
 31 79  2  0  0  0  0
 32 46  1  0  0  0  0
 32 75  1  0  0  0  0
 32 80  2  0  0  0  0
 33 62  1  0  0  0  0
 33 71  1  0  0  0  0
 33 81  2  0  0  0  0
 34 63  1  0  0  0  0
 34 76  1  0  0  0  0
 34 82  2  0  0  0  0
 35 72  1  0  0  0  0
 35 77  1  0  0  0  0
 35 83  2  0  0  0  0
 36 39  1  0  0  0  0
 37 46  1  0  0  0  0
 38 71  1  0  0  0  0
 39 41  1  0  0  0  0
 40 42  1  0  0  0  0
 40 43  1  0  0  0  0
 41 45  1  0  0  0  0
 42 47  1  0  0  0  0
 43 72  1  0  0  0  0
 44 47  1  0  0  0  0
 44 72  1  0  0  0  0
 45 75  1  0  0  0  0
 46 71  1  0  0  0  0
 47 70  1  0  0  0  0
 48 61  1  0  0  0  0
 49 63  1  0  0  0  0
 50 65  1  0  0  0  0
 51 65  1  0  0  0  0
 52 65  1  0  0  0  0
 53 66  1  0  0  0  0
 54 66  1  0  0  0  0
 55 77  1  0  0  0  0
 56 78  1  0  0  0  0
 57 58  1  0  0  0  0
 57 66  1  0  0  0  0
 58 69  1  0  0  0  0
 59 61  1  0  0  0  0
 59 77  1  0  0  0  0
 60 66  1  0  0  0  0
 60 85  1  0  0  0  0
 62 65  1  0  0  0  0
 62 76  1  0  0  0  0
 63 78  1  0  0  0  0
 64 88  1  0  0  0  0
 64 89  1  0  0  0  0
 64 90  1  0  0  0  0
 67 70  1  0  0  0  0
 68 69  1  0  0  0  0
M  CHG  1  78   1
M  ISO  4  35 100  60 101  77 100  85 101
M  END
> <Batch ID>
0070

> <Smiles>
CNC(C)C(=O)NC(C(=O)N1Cc2cc([101O:1][101CH2:1]C(C)(C)CCn3cc(C(F)(F)F)c(C(C)C[100N:0](C)[100C:0](=O)N4CCCC(n5nc(-c6ccc(Oc7ccc(F)cc7F)cc6)c(C(N)=O)c5N)C4)n3)ccc2CC1C(=O)NC1CCCc2ccccc21)C(C)(C)C

> <Shape>
0.206

> <Color>
0.058

> <Negative vol penalty>
0.000

$$$$

  -OEChem-04052318193D

 89 97  0     1  0  0  0  0  0999 V2000
  -29.8335  -24.4224   16.7604 C   0  0  0  0  0  0  0  0  0  0  0  0
  -28.6450  -24.3804   17.4823 C   0  0  0  0  0  0  0  0  0  0  0  0
  -26.6616  -13.5805   22.0964 C   0  0  0  0  0  0  0  0  0  0  0  0
  -25.1336  -15.3922   21.6275 C   0  0  0  0  0  0  0  0  0  0  0  0
  -30.8917  -25.2125   17.2073 C   0  0  0  0  0  0  0  0  0  0  0  0
  -28.5145  -25.1277   18.6523 C   0  0  0  0  0  0  0  0  0  0  0  0
  -24.0830  -27.5643   18.9171 C   0  0  0  0  0  0  0  0  0  0  0  0
  -25.5819  -12.7140   22.2671 C   0  0  0  0  0  0  0  0  0  0  0  0
  -24.0539  -14.5258   21.7981 C   0  0  0  0  0  0  0  0  0  0  0  0
  -22.9649  -26.8146   19.2798 C   0  0  0  0  0  0  0  0  0  0  0  0
  -23.4349  -10.9924   20.3025 C   0  0  0  0  0  0  0  0  0  0  0  0
  -23.5097   -9.7369   19.6995 C   0  0  0  0  0  0  0  0  0  0  0  0
  -23.1404  -27.6547   21.5343 C   0  0  0  0  0  0  0  0  0  0  0  0
  -23.3127   -8.6849   21.8655 C   0  0  0  0  0  0  0  0  0  0  0  0
  -24.3855  -20.9919   25.9697 C   0  0  0  0  0  0  0  0  0  0  0  0
  -26.4374  -14.9196   21.7767 C   0  0  0  0  0  0  0  0  0  0  0  0
  -28.2430  -16.0884   20.4049 C   0  0  0  0  0  0  0  0  0  0  0  0
  -30.7707  -25.9774   18.3782 C   0  0  0  0  0  0  0  0  0  0  0  0
  -24.7459  -28.3576   19.8645 C   0  0  0  0  0  0  0  0  0  0  0  0
  -29.5726  -25.9278   19.1161 C   0  0  0  0  0  0  0  0  0  0  0  0
  -24.2652  -28.4154   21.1804 C   0  0  0  0  0  0  0  0  0  0  0  0
  -24.2780  -13.1867   22.1179 C   0  0  0  0  0  0  0  0  0  0  0  0
  -22.4951  -26.8574   20.5892 C   0  0  0  0  0  0  0  0  0  0  0  0
  -23.2991  -11.0942   21.6870 C   0  0  0  0  0  0  0  0  0  0  0  0
  -23.4486   -8.5831   20.4810 C   0  0  0  0  0  0  0  0  0  0  0  0
  -23.2380   -9.9405   22.4685 C   0  0  0  0  0  0  0  0  0  0  0  0
  -27.5524  -15.8152   21.6009 C   0  0  0  0  0  0  0  0  0  0  0  0
  -29.2080  -16.9967   20.7655 C   0  0  0  0  0  0  0  0  0  0  0  0
  -25.9405  -22.3844   25.9769 C   0  0  0  0  0  0  0  0  0  0  0  0
  -28.0310  -15.5677   19.0860 C   0  0  0  0  0  0  0  0  0  0  0  0
  -27.6742  -28.4002   21.1001 C   0  0  0  0  0  0  0  0  0  0  0  0
  -26.6164  -31.1211   22.5144 C   0  0  0  0  0  0  0  0  0  0  0  0
  -23.9705  -32.9747   23.6145 C   0  0  0  0  0  0  0  0  0  0  0  0
  -29.6105  -20.9601   25.2355 C   0  0  0  0  0  0  0  0  0  0  0  0
  -31.9586  -26.7795   18.8473 C   0  0  0  0  0  0  0  0  0  0  0  0
  -25.9346  -29.1812   19.4509 C   0  0  0  0  0  0  0  0  0  0  0  0
  -24.9289  -29.2672   22.2304 C   0  0  0  0  0  0  0  0  0  0  0  0
  -31.6070  -27.8329   19.8948 C   0  0  0  0  0  0  0  0  0  0  0  0
  -31.8906  -18.3272   24.4971 C   0  0  0  0  0  0  0  0  0  0  0  0
  -30.7086  -27.2348   20.9727 C   0  0  0  0  0  0  0  0  0  0  0  0
  -31.0996  -17.4095   23.5632 C   0  0  0  0  0  0  0  0  0  0  0  0
  -30.9994  -18.9375   25.5766 C   0  0  0  0  0  0  0  0  0  0  0  0
  -29.0117  -18.7174   24.1363 C   0  0  0  0  0  0  0  0  0  0  0  0
  -29.3839  -26.7435   20.3767 C   0  0  1  0  0  0  0  0  0  0  0  0
  -26.8395  -29.5541   20.6212 C   0  0  1  0  0  0  0  0  0  0  0  0
  -29.8567  -18.1222   22.9971 C   0  0  2  0  0  0  0  0  0  0  0  0
  -28.3025  -23.2768   22.2716 C   0  0  0  0  0  0  0  0  0  0  0  0
  -23.4224  -35.1380   24.7621 C   0  0  0  0  0  0  0  0  0  0  0  0
  -27.4830  -29.9221   25.1831 C   0  0  0  0  0  0  0  0  0  0  0  0
  -26.0818  -31.6484   26.3342 C   0  0  0  0  0  0  0  0  0  0  0  0
  -28.0066  -32.3526   24.9122 C   0  0  0  0  0  0  0  0  0  0  0  0
  -19.7070  -22.4174   23.8248 C   0  0  0  0  0  0  0  0  0  0  0  0
  -20.1362  -24.6314   24.8729 C   0  0  0  0  0  0  0  0  0  0  0  0
  -20.9971  -23.4139   21.2180 C   0  0  0  0  0  0  0  0  0  0  0  0
  -22.4217  -33.9501   21.2888 C   0  0  0  0  0  0  0  0  0  0  0  0
  -27.2299  -23.0658   26.0509 C   0  0  0  0  0  0  0  0  0  0  0  0
  -27.4446  -23.4360   23.5206 C   0  0  0  0  0  0  0  0  0  0  0  0
  -22.1050  -23.1995   24.1368 C   0  0  0  0  0  0  0  0  0  0  0  0
  -22.2922  -22.4963   25.4911 C   0  0  0  0  0  0  0  0  0  0  0  0
  -21.3418  -25.6698   22.2967 C   0  0  0  0  0  0  0  0  0  1  0  0
  -25.9173  -31.4496   23.8114 C   0  0  1  0  0  0  0  0  0  0  0  0
  -23.6189  -34.4393   23.4257 C   0  0  2  0  0  0  0  0  0  0  0  0
  -28.1294  -22.9005   24.7875 C   0  0  2  0  0  0  0  0  0  0  0  0
  -26.8606  -31.3255   25.0411 C   0  0  0  0  0  0  0  0  0  0  0  0
  -20.6495  -23.6450   23.7970 C   0  0  0  0  0  0  0  0  0  0  0  0
  -20.5793  -24.3336   22.3745 C   0  0  2  0  0  0  0  0  0  0  0  0
  -25.7375  -21.0965   26.1305 N   0  0  0  0  0  0  0  0  0  0  0  0
  -28.0376  -16.4949   22.6433 N   0  0  0  0  0  0  0  0  0  0  0  0
  -24.7565  -23.0088   25.7359 N   0  0  0  0  0  0  0  0  0  0  0  0
  -23.7392  -22.1340   25.7261 N   0  0  0  0  0  0  0  0  0  0  0  0
  -29.0435  -17.2041   22.1035 N   0  0  0  0  0  0  0  0  0  0  0  0
  -26.0914  -30.0493   21.7785 N   0  0  0  0  0  0  0  0  0  0  0  0
  -29.8400  -19.5994   24.9734 N   0  0  0  0  0  0  0  0  0  0  0  0
  -30.1729  -17.6302   20.0655 N   0  0  0  0  0  0  0  0  0  0  0  0
  -26.9958  -14.6432   18.8911 N   0  0  0  0  0  0  0  0  0  0  0  0
  -28.4961  -27.8595   20.1297 N   0  0  0  0  0  0  0  0  0  0  0  0
  -25.3348  -32.7757   23.6366 N   0  0  0  0  0  0  0  0  0  0  0  0
  -28.4935  -21.5113   24.6194 N   0  0  0  0  0  0  0  0  0  0  0  0
  -22.3619  -34.5726   22.6363 N   0  3  0  0  0  0  0  0  0  0  0  0
  -28.7491  -15.8995   18.1125 O   0  0  0  0  0  0  0  0  0  0  0  0
  -27.5807  -28.0289   22.2641 O   0  0  0  0  0  0  0  0  0  0  0  0
  -27.5881  -31.7952   22.1635 O   0  0  0  0  0  0  0  0  0  0  0  0
  -23.1201  -32.0955   23.7343 O   0  0  0  0  0  0  0  0  0  0  0  0
  -30.3494  -21.6353   25.9601 O   0  0  0  0  0  0  0  0  0  0  0  0
  -23.2242  -12.3414   22.2841 O   0  0  0  0  0  0  0  0  0  0  0  0
  -21.4044  -26.1262   20.9460 O   0  0  0  0  0  0  0  0  0  1  0  0
  -23.5189   -7.3775   19.9016 F   0  0  0  0  0  0  0  0  0  0  0  0
  -23.1063  -10.0319   23.7990 F   0  0  0  0  0  0  0  0  0  0  0  0
  -19.2567  -24.6435   22.1487 F   0  0  0  0  0  0  0  0  0  0  0  0
  1  2  1  0  0  0  0
  1  5  2  0  0  0  0
  2  6  2  0  0  0  0
  3  8  2  0  0  0  0
  3 16  1  0  0  0  0
  4  9  1  0  0  0  0
  4 16  2  0  0  0  0
  5 18  1  0  0  0  0
  6 20  1  0  0  0  0
  7 10  2  0  0  0  0
  7 19  1  0  0  0  0
  8 22  1  0  0  0  0
  9 22  2  0  0  0  0
 10 23  1  0  0  0  0
 11 12  2  0  0  0  0
 11 24  1  0  0  0  0
 12 25  1  0  0  0  0
 13 21  1  0  0  0  0
 13 23  2  0  0  0  0
 14 25  2  0  0  0  0
 14 26  1  0  0  0  0
 15 67  2  0  0  0  0
 15 70  1  0  0  0  0
 16 27  1  0  0  0  0
 17 27  1  0  0  0  0
 17 28  2  0  0  0  0
 17 30  1  0  0  0  0
 18 20  2  0  0  0  0
 18 35  1  0  0  0  0
 19 21  2  0  0  0  0
 19 36  1  0  0  0  0
 20 44  1  0  0  0  0
 21 37  1  0  0  0  0
 22 85  1  0  0  0  0
 23 86  1  0  0  0  0
 24 26  2  0  0  0  0
 24 85  1  0  0  0  0
 25 87  1  0  0  0  0
 26 88  1  0  0  0  0
 27 68  2  0  0  0  0
 28 71  1  0  0  0  0
 28 74  1  0  0  0  0
 29 56  1  0  0  0  0
 29 67  1  0  0  0  0
 29 69  2  0  0  0  0
 30 75  1  0  0  0  0
 30 80  2  0  0  0  0
 31 45  1  0  0  0  0
 31 76  1  0  0  0  0
 31 81  2  0  0  0  0
 32 61  1  0  0  0  0
 32 72  1  0  0  0  0
 32 82  2  0  0  0  0
 33 62  1  0  0  0  0
 33 77  1  0  0  0  0
 33 83  2  0  0  0  0
 34 73  1  0  0  0  0
 34 78  1  0  0  0  0
 34 84  2  0  0  0  0
 35 38  1  0  0  0  0
 36 45  1  0  0  0  0
 37 72  1  0  0  0  0
 38 40  1  0  0  0  0
 39 41  1  0  0  0  0
 39 42  1  0  0  0  0
 40 44  1  0  0  0  0
 41 46  1  0  0  0  0
 42 73  1  0  0  0  0
 43 46  1  0  0  0  0
 43 73  1  0  0  0  0
 44 76  1  0  0  0  0
 45 72  1  0  0  0  0
 46 71  1  0  0  0  0
 47 57  1  0  0  0  0
 48 62  1  0  0  0  0
 49 64  1  0  0  0  0
 50 64  1  0  0  0  0
 51 64  1  0  0  0  0
 52 65  1  0  0  0  0
 53 65  1  0  0  0  0
 54 66  1  0  0  0  0
 55 79  1  0  0  0  0
 56 63  1  0  0  0  0
 57 63  1  0  0  0  0
 58 59  1  0  0  0  0
 58 65  1  0  0  0  0
 59 70  1  0  0  0  0
 60 66  1  0  0  0  0
 60 86  1  0  0  0  0
 61 64  1  0  0  0  0
 61 77  1  0  0  0  0
 62 79  1  0  0  0  0
 63 78  1  0  0  0  0
 65 66  1  0  0  0  0
 66 89  1  0  0  0  0
 68 71  1  0  0  0  0
 69 70  1  0  0  0  0
M  CHG  1  79   1
M  ISO  4  34 100  60 101  78 100  86 101
M  END
> <Batch ID>
0070

> <Smiles>
CCC(Cc1ncn(CCC(C)(C)C(C)(F)[101CH2:1][101O:1]c2ccc3c(c2)CN(C(=O)C(NC(=O)C(C)NC)C(C)(C)C)C(C(=O)NC2CCCc4ccccc42)C3)n1)[100NH:0][100C:0](=O)N1CCCC(n2nc(-c3ccc(Oc4ccc(F)cc4F)cc3)c(C(N)=O)c2N)C1

> <Shape>
0.249

> <Color>
0.071

> <Negative vol penalty>
0.000

$$$$

  -OEChem-04052318192D

  0  0  0     0  0  0  0  0  0999 V2000
M  END
$$$$

  -OEChem-04052318193D

 85 93  0     1  0  0  0  0  0999 V2000
  -28.5804  -33.2745   21.7808 C   0  0  0  0  0  0  0  0  0  0  0  0
  -28.5225  -31.8846   21.7959 C   0  0  0  0  0  0  0  0  0  0  0  0
  -24.0912  -13.2881   20.1814 C   0  0  0  0  0  0  0  0  0  0  0  0
  -26.2641  -13.3201   21.2372 C   0  0  0  0  0  0  0  0  0  0  0  0
  -27.5059  -34.0211   22.2626 C   0  0  0  0  0  0  0  0  0  0  0  0
  -27.3905  -31.2404   22.2940 C   0  0  0  0  0  0  0  0  0  0  0  0
  -25.8725  -27.4182   19.3391 C   0  0  0  0  0  0  0  0  0  0  0  0
  -24.1335  -11.8947   20.1365 C   0  0  0  0  0  0  0  0  0  0  0  0
  -26.3064  -11.9266   21.1923 C   0  0  0  0  0  0  0  0  0  0  0  0
  -26.5837  -26.2225   19.4292 C   0  0  0  0  0  0  0  0  0  0  0  0
  -23.5104   -8.3138   20.0714 C   0  0  0  0  0  0  0  0  0  0  0  0
  -22.3634   -7.6175   20.4524 C   0  0  0  0  0  0  0  0  0  0  0  0
  -24.8640  -25.3141   20.8563 C   0  0  0  0  0  0  0  0  0  0  0  0
  -22.4841   -8.6197   22.6475 C   0  0  0  0  0  0  0  0  0  0  0  0
  -30.6223  -19.3649   21.9675 C   0  0  0  0  0  0  0  0  0  0  0  0
  -25.1565  -14.0009   20.7317 C   0  0  0  0  0  0  0  0  0  0  0  0
  -24.5988  -16.2427   21.8137 C   0  0  0  0  0  0  0  0  0  0  0  0
  -26.3563  -33.3858   22.7579 C   0  0  0  0  0  0  0  0  0  0  0  0
  -24.6549  -27.5750   20.0169 C   0  0  0  0  0  0  0  0  0  0  0  0
  -26.3003  -31.9792   22.7841 C   0  0  0  0  0  0  0  0  0  0  0  0
  -24.1380  -26.5119   20.7711 C   0  0  0  0  0  0  0  0  0  0  0  0
  -25.2411  -11.2139   20.6419 C   0  0  0  0  0  0  0  0  0  0  0  0
  -26.0810  -25.1712   20.1902 C   0  0  0  0  0  0  0  0  0  0  0  0
  -24.1444   -9.1630   20.9785 C   0  0  0  0  0  0  0  0  0  0  0  0
  -21.8502   -7.7705   21.7404 C   0  0  0  0  0  0  0  0  0  0  0  0
  -23.6312   -9.3159   22.2665 C   0  0  0  0  0  0  0  0  0  0  0  0
  -25.1137  -15.4404   20.7779 C   0  0  0  0  0  0  0  0  0  0  0  0
  -30.3178  -18.1603   21.3670 C   0  0  0  0  0  0  0  0  0  0  0  0
  -30.6666  -20.4573   21.1255 C   0  0  0  0  0  0  0  0  0  0  0  0
  -24.7922  -17.5310   21.3786 C   0  0  0  0  0  0  0  0  0  0  0  0
  -30.1469  -19.1601   19.3327 C   0  0  0  0  0  0  0  0  0  0  0  0
  -23.9994  -15.8579   23.0580 C   0  0  0  0  0  0  0  0  0  0  0  0
  -23.5954  -29.5075   22.3074 C   0  0  0  0  0  0  0  0  0  0  0  0
  -20.7608  -28.0617   21.6772 C   0  0  0  0  0  0  0  0  0  0  0  0
  -28.7018  -19.9057   17.4814 C   0  0  0  0  0  0  0  0  0  0  0  0
  -19.1059  -25.3394   20.4536 C   0  0  0  0  0  0  0  0  0  0  0  0
  -25.2394  -34.2346   23.3118 C   0  0  0  0  0  0  0  0  0  0  0  0
  -23.8868  -28.8617   19.8879 C   0  0  0  0  0  0  0  0  0  0  0  0
  -22.8254  -26.6223   21.5015 C   0  0  0  0  0  0  0  0  0  0  0  0
  -23.9237  -33.4783   23.4764 C   0  0  0  0  0  0  0  0  0  0  0  0
  -25.1270  -20.1327   17.3864 C   0  0  0  0  0  0  0  0  0  0  0  0
  -24.1636  -32.1295   24.1471 C   0  0  0  0  0  0  0  0  0  0  0  0
  -24.6711  -19.0098   18.3172 C   0  0  0  0  0  0  0  0  0  0  0  0
  -26.3889  -19.7462   16.6215 C   0  0  0  0  0  0  0  0  0  0  0  0
  -27.0701  -18.1990   18.4281 C   0  0  0  0  0  0  0  0  0  0  0  0
  -25.0795  -31.2440   23.2936 C   0  0  1  0  0  0  0  0  0  0  0  0
  -22.9097  -29.0920   21.0366 C   0  0  1  0  0  0  0  0  0  0  0  0
  -25.8155  -18.5602   19.2428 C   0  0  2  0  0  0  0  0  0  0  0  0
  -28.8449  -16.6747   22.7491 C   0  0  0  0  0  0  0  0  0  0  0  0
  -16.7919  -24.4324   20.1068 C   0  0  0  0  0  0  0  0  0  0  0  0
  -20.5685  -27.4207   24.6541 C   0  0  0  0  0  0  0  0  0  0  0  0
  -18.7906  -25.7449   24.1073 C   0  0  0  0  0  0  0  0  0  0  0  0
  -18.4220  -28.1604   23.6055 C   0  0  0  0  0  0  0  0  0  0  0  0
  -19.4727  -25.2053   17.5199 C   0  0  0  0  0  0  0  0  0  0  0  0
  -30.2461  -16.9224   22.1969 C   0  0  0  0  0  0  0  0  0  0  0  0
  -30.9896  -21.8177   21.6903 C   0  0  0  0  0  0  0  0  0  0  0  0
  -30.3362  -22.9757   20.9277 C   0  0  0  0  0  0  0  0  0  0  0  0
  -28.8081  -22.9405   20.9804 C   0  0  0  0  0  0  0  0  0  0  0  0
  -28.1948  -24.0815   20.1801 C   0  0  0  0  0  0  0  0  0  1  0  0
  -20.0479  -26.8354   22.1940 C   0  0  1  0  0  0  0  0  0  0  0  0
  -17.9384  -25.2191   19.4908 C   0  0  2  0  0  0  0  0  0  0  0  0
  -29.8795  -19.0477   17.8700 C   0  0  0  0  0  0  0  0  0  0  0  0
  -19.4830  -27.0386   23.6282 C   0  0  0  0  0  0  0  0  0  0  0  0
  -25.5976  -16.1588   19.7612 N   0  0  0  0  0  0  0  0  0  0  0  0
  -30.0735  -18.0211   20.0474 N   0  0  0  0  0  0  0  0  0  0  0  0
  -30.4336  -20.3908   19.7983 N   0  0  0  0  0  0  0  0  0  0  0  0
  -25.3876  -17.4261   20.1560 N   0  0  0  0  0  0  0  0  0  0  0  0
  -22.1147  -27.9027   21.3495 N   0  0  0  0  0  0  0  0  0  0  0  0
  -27.4445  -19.3037   17.5343 N   0  0  0  0  0  0  0  0  0  0  0  0
  -24.5092  -18.7320   21.9262 N   0  0  0  0  0  0  0  0  0  0  0  0
  -23.8782  -14.4918   23.3471 N   0  0  0  0  0  0  0  0  0  0  0  0
  -24.3402  -30.6657   22.1921 N   0  0  0  0  0  0  0  0  0  0  0  0
  -19.0382  -26.4993   21.1960 N   0  0  0  0  0  0  0  0  0  0  0  0
  -18.3659  -24.5269   18.2422 N   0  3  0  0  0  0  0  0  0  0  0  0
  -23.5687  -16.7002   23.8817 O   0  0  0  0  0  0  0  0  0  0  0  0
  -23.4577  -28.8284   23.3181 O   0  0  0  0  0  0  0  0  0  0  0  0
  -20.1374  -29.1198   21.5615 O   0  0  0  0  0  0  0  0  0  0  0  0
  -28.8953  -21.0765   17.1441 O   0  0  0  0  0  0  0  0  0  0  0  0
  -19.9876  -24.4876   20.5411 O   0  0  0  0  0  0  0  0  0  0  0  0
  -25.2826   -9.8541   20.5985 O   0  0  0  0  0  0  0  0  0  0  0  0
  -26.7735  -24.0033   20.2803 O   0  0  0  0  0  0  0  0  0  1  0  0
  -20.7478   -7.1030   22.1056 F   0  0  0  0  0  0  0  0  0  0  0  0
  -24.2352  -10.1312   23.1419 F   0  0  0  0  0  0  0  0  0  0  0  0
  -30.9584  -19.4178   17.1061 F   0  0  0  0  0  0  0  0  0  0  0  0
  -29.6256  -17.7568   17.4776 F   0  0  0  0  0  0  0  0  0  0  0  0
  1  2  1  0  0  0  0
  1  5  2  0  0  0  0
  2  6  2  0  0  0  0
  3  8  2  0  0  0  0
  3 16  1  0  0  0  0
  4  9  1  0  0  0  0
  4 16  2  0  0  0  0
  5 18  1  0  0  0  0
  6 20  1  0  0  0  0
  7 10  2  0  0  0  0
  7 19  1  0  0  0  0
  8 22  1  0  0  0  0
  9 22  2  0  0  0  0
 10 23  1  0  0  0  0
 11 12  2  0  0  0  0
 11 24  1  0  0  0  0
 12 25  1  0  0  0  0
 13 21  1  0  0  0  0
 13 23  2  0  0  0  0
 14 25  2  0  0  0  0
 14 26  1  0  0  0  0
 15 28  1  0  0  0  0
 15 29  2  0  0  0  0
 16 27  1  0  0  0  0
 17 27  1  0  0  0  0
 17 30  2  0  0  0  0
 17 32  1  0  0  0  0
 18 20  2  0  0  0  0
 18 37  1  0  0  0  0
 19 21  2  0  0  0  0
 19 38  1  0  0  0  0
 20 46  1  0  0  0  0
 21 39  1  0  0  0  0
 22 80  1  0  0  0  0
 23 81  1  0  0  0  0
 24 26  2  0  0  0  0
 24 80  1  0  0  0  0
 25 82  1  0  0  0  0
 26 83  1  0  0  0  0
 27 64  2  0  0  0  0
 28 55  1  0  0  0  0
 28 65  2  0  0  0  0
 29 56  1  0  0  0  0
 29 66  1  0  0  0  0
 30 67  1  0  0  0  0
 30 70  1  0  0  0  0
 31 62  1  0  0  0  0
 31 65  1  0  0  0  0
 31 66  2  0  0  0  0
 32 71  1  0  0  0  0
 32 75  2  0  0  0  0
 33 47  1  0  0  0  0
 33 72  1  0  0  0  0
 33 76  2  0  0  0  0
 34 60  1  0  0  0  0
 34 68  1  0  0  0  0
 34 77  2  0  0  0  0
 35 62  1  0  0  0  0
 35 69  1  0  0  0  0
 35 78  2  0  0  0  0
 36 61  1  0  0  0  0
 36 73  1  0  0  0  0
 36 79  2  0  0  0  0
 37 40  1  0  0  0  0
 38 47  1  0  0  0  0
 39 68  1  0  0  0  0
 40 42  1  0  0  0  0
 41 43  1  0  0  0  0
 41 44  1  0  0  0  0
 42 46  1  0  0  0  0
 43 48  1  0  0  0  0
 44 69  1  0  0  0  0
 45 48  1  0  0  0  0
 45 69  1  0  0  0  0
 46 72  1  0  0  0  0
 47 68  1  0  0  0  0
 48 67  1  0  0  0  0
 49 55  1  0  0  0  0
 50 61  1  0  0  0  0
 51 63  1  0  0  0  0
 52 63  1  0  0  0  0
 53 63  1  0  0  0  0
 54 74  1  0  0  0  0
 56 57  1  0  0  0  0
 57 58  1  0  0  0  0
 58 59  1  0  0  0  0
 59 81  1  0  0  0  0
 60 63  1  0  0  0  0
 60 73  1  0  0  0  0
 61 74  1  0  0  0  0
 62 84  1  0  0  0  0
 62 85  1  0  0  0  0
 64 67  1  0  0  0  0
M  CHG  1  74   1
M  ISO  4  35 100  59 101  62 100  81 101
M  END
> <Batch ID>
0070

> <Smiles>
CCc1cc(CCC[101CH2:1][101O:1]c2ccc3c(c2)CN(C(=O)C(NC(=O)C(C)NC)C(C)(C)C)C(C(=O)NC2CCCc4ccccc42)C3)nc([100C:0](F)(F)[100C:0](=O)N2CCCC(n3nc(-c4ccc(Oc5ccc(F)cc5F)cc4)c(C(N)=O)c3N)C2)n1

> <Shape>
0.270

> <Color>
0.076

> <Negative vol penalty>
0.000

$$$$

  -OEChem-04052318193D

 86 94  0     1  0  0  0  0  0999 V2000
  -27.3831  -33.2541   26.5896 C   0  0  0  0  0  0  0  0  0  0  0  0
  -27.4376  -31.8662   26.5103 C   0  0  0  0  0  0  0  0  0  0  0  0
  -23.6948   -9.9809   22.0122 C   0  0  0  0  0  0  0  0  0  0  0  0
  -24.3233  -11.3011   23.9356 C   0  0  0  0  0  0  0  0  0  0  0  0
  -26.2864  -33.9385   26.0675 C   0  0  0  0  0  0  0  0  0  0  0  0
  -26.3948  -31.1618   25.9097 C   0  0  0  0  0  0  0  0  0  0  0  0
  -26.8442  -26.0228   22.6090 C   0  0  0  0  0  0  0  0  0  0  0  0
  -23.1339   -9.0209   22.8544 C   0  0  0  0  0  0  0  0  0  0  0  0
  -23.7622  -10.3411   24.7778 C   0  0  0  0  0  0  0  0  0  0  0  0
  -26.6466  -24.6809   22.9311 C   0  0  0  0  0  0  0  0  0  0  0  0
  -20.2803   -8.6214   24.6237 C   0  0  0  0  0  0  0  0  0  0  0  0
  -19.0249   -8.1165   24.2854 C   0  0  0  0  0  0  0  0  0  0  0  0
  -24.3934  -24.8147   22.0799 C   0  0  0  0  0  0  0  0  0  0  0  0
  -19.9575   -5.8921   24.1449 C   0  0  0  0  0  0  0  0  0  0  0  0
  -28.5997  -16.9316   20.9894 C   0  0  0  0  0  0  0  0  0  0  0  0
  -29.0545  -15.5700   23.2402 C   0  0  0  0  0  0  0  0  0  0  0  0
  -24.2896  -11.1210   22.5528 C   0  0  0  0  0  0  0  0  0  0  0  0
  -24.2272  -13.2336   21.1243 C   0  0  0  0  0  0  0  0  0  0  0  0
  -25.2341  -33.2428   25.4516 C   0  0  0  0  0  0  0  0  0  0  0  0
  -25.8126  -26.7750   22.0289 C   0  0  0  0  0  0  0  0  0  0  0  0
  -25.2823  -31.8375   25.3800 C   0  0  0  0  0  0  0  0  0  0  0  0
  -24.5813  -26.1653   21.7490 C   0  0  0  0  0  0  0  0  0  0  0  0
  -23.1675   -9.2010   24.2372 C   0  0  0  0  0  0  0  0  0  0  0  0
  -25.4201  -24.0773   22.6692 C   0  0  0  0  0  0  0  0  0  0  0  0
  -21.3744   -7.7618   24.7226 C   0  0  0  0  0  0  0  0  0  0  0  0
  -18.8634   -6.7518   24.0461 C   0  0  0  0  0  0  0  0  0  0  0  0
  -21.2129   -6.3972   24.4832 C   0  0  0  0  0  0  0  0  0  0  0  0
  -24.8698  -12.1127   21.6834 C   0  0  0  0  0  0  0  0  0  0  0  0
  -27.8199  -17.1268   22.1080 C   0  0  0  0  0  0  0  0  0  0  0  0
  -29.8338  -15.3743   22.1214 C   0  0  0  0  0  0  0  0  0  0  0  0
  -25.2023  -13.8532   20.3814 C   0  0  0  0  0  0  0  0  0  0  0  0
  -22.8703  -13.6751   21.2640 C   0  0  0  0  0  0  0  0  0  0  0  0
  -24.1621  -29.3532   22.8847 C   0  0  0  0  0  0  0  0  0  0  0  0
  -22.9266  -29.0748   19.8983 C   0  0  0  0  0  0  0  0  0  0  0  0
  -31.1980  -13.7924   20.7813 C   0  0  0  0  0  0  0  0  0  0  0  0
  -22.2314  -27.0694   17.2259 C   0  0  0  0  0  0  0  0  0  0  0  0
  -24.0472  -34.0227   24.9439 C   0  0  0  0  0  0  0  0  0  0  0  0
  -26.0506  -28.2144   21.6629 C   0  0  0  0  0  0  0  0  0  0  0  0
  -23.4483  -26.9236   21.1088 C   0  0  0  0  0  0  0  0  0  0  0  0
  -23.1595  -33.2283   23.9893 C   0  0  0  0  0  0  0  0  0  0  0  0
  -29.2001  -12.9420   17.9308 C   0  0  0  0  0  0  0  0  0  0  0  0
  -22.8828  -31.8372   24.5505 C   0  0  0  0  0  0  0  0  0  0  0  0
  -27.8111  -12.7070   18.5232 C   0  0  0  0  0  0  0  0  0  0  0  0
  -30.2988  -12.4846   18.8852 C   0  0  0  0  0  0  0  0  0  0  0  0
  -28.8294  -12.8660   20.8389 C   0  0  0  0  0  0  0  0  0  0  0  0
  -24.1823  -31.0397   24.7140 C   0  0  1  0  0  0  0  0  0  0  0  0
  -24.7617  -29.0224   21.5473 C   0  0  1  0  0  0  0  0  0  0  0  0
  -27.6910  -13.3426   19.9196 C   0  0  2  0  0  0  0  0  0  0  0  0
  -21.1833  -27.1182   14.9463 C   0  0  0  0  0  0  0  0  0  0  0  0
  -30.7347  -13.1506   23.0589 C   0  0  0  0  0  0  0  0  0  0  0  0
  -20.1560  -29.1205   21.1758 C   0  0  0  0  0  0  0  0  0  0  0  0
  -19.2278  -28.2276   19.0288 C   0  0  0  0  0  0  0  0  0  0  0  0
  -20.3552  -30.4525   19.0685 C   0  0  0  0  0  0  0  0  0  0  0  0
  -24.7618  -26.2658   15.9181 C   0  0  0  0  0  0  0  0  0  0  0  0
  -26.6856  -18.1201   22.0869 C   0  0  0  0  0  0  0  0  0  0  0  0
  -27.0939  -19.5354   22.5106 C   0  0  0  0  0  0  0  0  0  0  0  0
  -25.9161  -20.5097   22.5571 C   0  0  0  0  0  0  0  0  0  0  0  0
  -26.3658  -21.9124   22.9426 C   0  0  0  0  0  0  0  0  0  1  0  0
  -21.7469  -28.3536   19.2924 C   0  0  1  0  0  0  0  0  0  0  0  0
  -22.4744  -27.2528   15.7387 C   0  0  2  0  0  0  0  0  0  0  0  0
  -30.9540  -14.3939   22.1424 C   0  0  2  0  0  0  0  0  0  0  0  0
  -20.3920  -29.0245   19.6552 C   0  0  0  0  0  0  0  0  0  0  0  0
  -32.2776  -15.0636   22.5897 C   0  0  0  0  0  0  0  0  0  0  0  0
  -28.0335  -16.4497   23.2536 N   0  0  0  0  0  0  0  0  0  0  0  0
  -29.6205  -16.0516   20.9759 N   0  0  0  0  0  0  0  0  0  0  0  0
  -26.1537  -12.0230   21.3262 N   0  0  0  0  0  0  0  0  0  0  0  0
  -26.3257  -13.0952   20.5345 N   0  0  0  0  0  0  0  0  0  0  0  0
  -23.7279  -28.3300   20.7753 N   0  0  0  0  0  0  0  0  0  0  0  0
  -30.1365  -13.0929   20.2068 N   0  0  0  0  0  0  0  0  0  0  0  0
  -25.1996  -14.9671   19.6187 N   0  0  0  0  0  0  0  0  0  0  0  0
  -22.0014  -12.9212   22.0645 N   0  0  0  0  0  0  0  0  0  0  0  0
  -24.6283  -30.5324   23.4341 N   0  0  0  0  0  0  0  0  0  0  0  0
  -22.0093  -28.2737   17.8595 N   0  0  0  0  0  0  0  0  0  0  0  0
  -23.4395  -26.2318   15.2417 N   0  3  0  0  0  0  0  0  0  0  0  0
  -22.4368  -14.6987   20.6826 O   0  0  0  0  0  0  0  0  0  0  0  0
  -23.3365  -28.5956   23.3807 O   0  0  0  0  0  0  0  0  0  0  0  0
  -23.1337  -30.2534   19.5989 O   0  0  0  0  0  0  0  0  0  0  0  0
  -32.2988  -13.9434   20.2450 O   0  0  0  0  0  0  0  0  0  0  0  0
  -22.2344  -25.9675   17.7704 O   0  0  0  0  0  0  0  0  0  0  0  0
  -22.6200   -8.2646   25.0593 O   0  0  0  0  0  0  0  0  0  0  0  0
  -25.2243  -22.7678   22.9833 O   0  0  0  0  0  0  0  0  0  1  0  0
  -17.6575   -6.2668   23.7227 F   0  0  0  0  0  0  0  0  0  0  0  0
  -22.2600   -5.5662   24.5778 F   0  0  0  0  0  0  0  0  0  0  0  0
  -32.1522  -15.5817   23.8335 F   0  0  0  0  0  0  0  0  0  0  0  0
  -33.3183  -14.1985   22.6209 F   0  0  0  0  0  0  0  0  0  0  0  0
  -32.6239  -16.0756   21.7635 F   0  0  0  0  0  0  0  0  0  0  0  0
  1  2  1  0  0  0  0
  1  5  2  0  0  0  0
  2  6  2  0  0  0  0
  3  8  2  0  0  0  0
  3 17  1  0  0  0  0
  4  9  1  0  0  0  0
  4 17  2  0  0  0  0
  5 19  1  0  0  0  0
  6 21  1  0  0  0  0
  7 10  2  0  0  0  0
  7 20  1  0  0  0  0
  8 23  1  0  0  0  0
  9 23  2  0  0  0  0
 10 24  1  0  0  0  0
 11 12  2  0  0  0  0
 11 25  1  0  0  0  0
 12 26  1  0  0  0  0
 13 22  1  0  0  0  0
 13 24  2  0  0  0  0
 14 26  2  0  0  0  0
 14 27  1  0  0  0  0
 15 29  1  0  0  0  0
 15 65  2  0  0  0  0
 16 30  2  0  0  0  0
 16 64  1  0  0  0  0
 17 28  1  0  0  0  0
 18 28  1  0  0  0  0
 18 31  2  0  0  0  0
 18 32  1  0  0  0  0
 19 21  2  0  0  0  0
 19 37  1  0  0  0  0
 20 22  2  0  0  0  0
 20 38  1  0  0  0  0
 21 46  1  0  0  0  0
 22 39  1  0  0  0  0
 23 80  1  0  0  0  0
 24 81  1  0  0  0  0
 25 27  2  0  0  0  0
 25 80  1  0  0  0  0
 26 82  1  0  0  0  0
 27 83  1  0  0  0  0
 28 66  2  0  0  0  0
 29 55  1  0  0  0  0
 29 64  2  0  0  0  0
 30 61  1  0  0  0  0
 30 65  1  0  0  0  0
 31 67  1  0  0  0  0
 31 70  1  0  0  0  0
 32 71  1  0  0  0  0
 32 75  2  0  0  0  0
 33 47  1  0  0  0  0
 33 72  1  0  0  0  0
 33 76  2  0  0  0  0
 34 59  1  0  0  0  0
 34 68  1  0  0  0  0
 34 77  2  0  0  0  0
 35 61  1  0  0  0  0
 35 69  1  0  0  0  0
 35 78  2  0  0  0  0
 36 60  1  0  0  0  0
 36 73  1  0  0  0  0
 36 79  2  0  0  0  0
 37 40  1  0  0  0  0
 38 47  1  0  0  0  0
 39 68  1  0  0  0  0
 40 42  1  0  0  0  0
 41 43  1  0  0  0  0
 41 44  1  0  0  0  0
 42 46  1  0  0  0  0
 43 48  1  0  0  0  0
 44 69  1  0  0  0  0
 45 48  1  0  0  0  0
 45 69  1  0  0  0  0
 46 72  1  0  0  0  0
 47 68  1  0  0  0  0
 48 67  1  0  0  0  0
 49 60  1  0  0  0  0
 50 61  1  0  0  0  0
 51 62  1  0  0  0  0
 52 62  1  0  0  0  0
 53 62  1  0  0  0  0
 54 74  1  0  0  0  0
 55 56  1  0  0  0  0
 56 57  1  0  0  0  0
 57 58  1  0  0  0  0
 58 81  1  0  0  0  0
 59 62  1  0  0  0  0
 59 73  1  0  0  0  0
 60 74  1  0  0  0  0
 61 63  1  0  0  0  0
 63 84  1  0  0  0  0
 63 85  1  0  0  0  0
 63 86  1  0  0  0  0
 66 67  1  0  0  0  0
M  CHG  1  74   1
M  ISO  4  35 100  58 101  61 100  81 101
M  END
> <Batch ID>
0070

> <Smiles>
CNC(C)C(=O)NC(C(=O)N1Cc2cc([101O:1][101CH2:1]CCCc3cnc([100C:0](C)([100C:0](=O)N4CCCC(n5nc(-c6ccc(Oc7ccc(F)cc7F)cc6)c(C(N)=O)c5N)C4)C(F)(F)F)cn3)ccc2CC1C(=O)NC1CCCc2ccccc21)C(C)(C)C

> <Shape>
0.236

> <Color>
0.133

> <Negative vol penalty>
0.000

$$$$

  -OEChem-04052318193D

 88 96  0     1  0  0  0  0  0999 V2000
  -29.5157  -32.0035   26.4318 C   0  0  0  0  0  0  0  0  0  0  0  0
  -29.2244  -30.8783   25.6673 C   0  0  0  0  0  0  0  0  0  0  0  0
  -24.4348   -9.0927   21.0160 C   0  0  0  0  0  0  0  0  0  0  0  0
  -25.0255   -9.8901   23.2188 C   0  0  0  0  0  0  0  0  0  0  0  0
  -28.4922  -32.8706   26.8120 C   0  0  0  0  0  0  0  0  0  0  0  0
  -27.9092  -30.6190   25.2834 C   0  0  0  0  0  0  0  0  0  0  0  0
  -27.5372  -29.2608   20.4190 C   0  0  0  0  0  0  0  0  0  0  0  0
  -24.2133   -7.8178   21.5369 C   0  0  0  0  0  0  0  0  0  0  0  0
  -24.8040   -8.6153   23.7397 C   0  0  0  0  0  0  0  0  0  0  0  0
  -27.8824  -27.9493   20.0960 C   0  0  0  0  0  0  0  0  0  0  0  0
  -21.7825   -6.2185   23.2592 C   0  0  0  0  0  0  0  0  0  0  0  0
  -20.6296   -5.5449   22.8561 C   0  0  0  0  0  0  0  0  0  0  0  0
  -25.5461  -27.3499   20.0584 C   0  0  0  0  0  0  0  0  0  0  0  0
  -21.9873   -3.7655   21.9465 C   0  0  0  0  0  0  0  0  0  0  0  0
  -30.0310  -17.8063   21.9985 C   0  0  0  0  0  0  0  0  0  0  0  0
  -32.1726  -19.3617   22.3473 C   0  0  0  0  0  0  0  0  0  0  0  0
  -24.8410  -10.1288   21.8570 C   0  0  0  0  0  0  0  0  0  0  0  0
  -24.1326  -12.4881   21.1938 C   0  0  0  0  0  0  0  0  0  0  0  0
  -27.1652  -32.6270   26.4244 C   0  0  0  0  0  0  0  0  0  0  0  0
  -26.1920  -29.6249   20.5752 C   0  0  0  0  0  0  0  0  0  0  0  0
  -26.8668  -31.4830   25.6598 C   0  0  0  0  0  0  0  0  0  0  0  0
  -25.1863  -28.6673   20.3810 C   0  0  0  0  0  0  0  0  0  0  0  0
  -24.3978   -7.5791   22.8988 C   0  0  0  0  0  0  0  0  0  0  0  0
  -26.8869  -26.9929   19.9184 C   0  0  0  0  0  0  0  0  0  0  0  0
  -23.0379   -5.6657   23.0059 C   0  0  0  0  0  0  0  0  0  0  0  0
  -20.7319   -4.3184   22.1998 C   0  0  0  0  0  0  0  0  0  0  0  0
  -23.1403   -4.4392   22.3496 C   0  0  0  0  0  0  0  0  0  0  0  0
  -25.0705  -11.4458   21.3194 C   0  0  0  0  0  0  0  0  0  0  0  0
  -31.2167  -17.2879   22.4706 C   0  0  0  0  0  0  0  0  0  0  0  0
  -30.9872  -19.8801   21.8746 C   0  0  0  0  0  0  0  0  0  0  0  0
  -24.8409  -13.5213   20.6306 C   0  0  0  0  0  0  0  0  0  0  0  0
  -22.7452  -12.5194   21.5540 C   0  0  0  0  0  0  0  0  0  0  0  0
  -24.4369  -30.7511   22.9742 C   0  0  0  0  0  0  0  0  0  0  0  0
  -22.1523  -30.9765   20.6825 C   0  0  0  0  0  0  0  0  0  0  0  0
  -20.9477  -29.8995   17.6765 C   0  0  0  0  0  0  0  0  0  0  0  0
  -30.6604  -14.9295   20.5894 C   0  0  0  0  0  0  0  0  0  0  0  0
  -26.0859  -33.5675   26.8993 C   0  0  0  0  0  0  0  0  0  0  0  0
  -25.8349  -31.0500   20.8975 C   0  0  0  0  0  0  0  0  0  0  0  0
  -23.7264  -29.0118   20.5173 C   0  0  0  0  0  0  0  0  0  0  0  0
  -24.7723  -33.4226   26.1352 C   0  0  0  0  0  0  0  0  0  0  0  0
  -28.5715  -14.3767   17.7597 C   0  0  0  0  0  0  0  0  0  0  0  0
  -24.3944  -31.9512   25.9974 C   0  0  0  0  0  0  0  0  0  0  0  0
  -27.3527  -13.6569   18.3398 C   0  0  0  0  0  0  0  0  0  0  0  0
  -29.8621  -13.9531   18.4574 C   0  0  0  0  0  0  0  0  0  0  0  0
  -28.6253  -13.3649   20.5063 C   0  0  0  0  0  0  0  0  0  0  0  0
  -25.4561  -31.1810   25.2029 C   0  0  1  0  0  0  0  0  0  0  0  0
  -24.4572  -31.1907   21.5375 C   0  0  1  0  0  0  0  0  0  0  0  0
  -27.2933  -13.8010   19.8724 C   0  0  2  0  0  0  0  0  0  0  0  0
  -19.0413  -30.2425   16.0811 C   0  0  0  0  0  0  0  0  0  0  0  0
  -32.7537  -15.2275   22.6100 C   0  0  0  0  0  0  0  0  0  0  0  0
  -20.3284  -29.3597   22.5181 C   0  0  0  0  0  0  0  0  0  0  0  0
  -18.8445  -28.9282   20.5483 C   0  0  0  0  0  0  0  0  0  0  0  0
  -19.2070  -31.2636   21.3466 C   0  0  0  0  0  0  0  0  0  0  0  0
  -22.7637  -30.7900   15.5160 C   0  0  0  0  0  0  0  0  0  0  0  0
  -28.4022  -23.7244   20.3006 C   0  0  0  0  0  0  0  0  0  0  0  0
  -29.7169  -23.1685   20.8368 C   0  0  0  0  0  0  0  0  0  0  0  0
  -28.4748  -25.2304   20.0865 C   0  0  0  0  0  0  0  0  0  1  0  0
  -29.6315  -21.6703   21.0916 C   0  0  0  0  0  0  0  0  0  0  0  0
  -21.0792  -30.0586   20.1487 C   0  0  1  0  0  0  0  0  0  0  0  0
  -20.4543  -30.6592   16.4584 C   0  0  2  0  0  0  0  0  0  0  0  0
  -31.3307  -15.8401   22.7986 C   0  0  1  0  0  0  0  0  0  0  0  0
  -19.8923  -29.8953   21.1397 C   0  0  0  0  0  0  0  0  0  0  0  0
  -30.9218  -15.5759   24.2723 C   0  0  0  0  0  0  0  0  0  0  0  0
  -32.3087  -18.0563   22.6538 N   0  0  0  0  0  0  0  0  0  0  0  0
  -29.8950  -19.1117   21.6917 N   0  0  0  0  0  0  0  0  0  0  0  0
  -26.2822  -11.7858   20.8719 N   0  0  0  0  0  0  0  0  0  0  0  0
  -26.1105  -13.0533   20.4595 N   0  0  0  0  0  0  0  0  0  0  0  0
  -23.4282  -30.4170   20.8397 N   0  0  0  0  0  0  0  0  0  0  0  0
  -29.7404  -14.1157   19.9081 N   0  0  0  0  0  0  0  0  0  0  0  0
  -24.4954  -14.7755   20.2700 N   0  0  0  0  0  0  0  0  0  0  0  0
  -22.1761  -11.3712   22.1215 N   0  0  0  0  0  0  0  0  0  0  0  0
  -25.3155  -31.4423   23.7864 N   0  0  0  0  0  0  0  0  0  0  0  0
  -20.6995  -30.5898   18.8440 N   0  0  0  0  0  0  0  0  0  0  0  0
  -30.4697  -15.0345   21.9618 N   0  0  0  0  0  0  0  0  0  0  0  0
  -21.3467  -30.4042   15.2924 N   0  3  0  0  0  0  0  0  0  0  0  0
  -22.0272  -13.5301   21.3627 O   0  0  0  0  0  0  0  0  0  0  0  0
  -23.6791  -29.8525   23.3204 O   0  0  0  0  0  0  0  0  0  0  0  0
  -21.8705  -32.1488   20.9433 O   0  0  0  0  0  0  0  0  0  0  0  0
  -21.4949  -28.8016   17.6002 O   0  0  0  0  0  0  0  0  0  0  0  0
  -31.5802  -15.5232   20.0163 O   0  0  0  0  0  0  0  0  0  0  0  0
  -24.1815   -6.3354   23.4075 O   0  0  0  0  0  0  0  0  0  0  0  0
  -27.2212  -25.7119   19.6037 O   0  0  0  0  0  0  0  0  0  1  0  0
  -30.8877  -21.2137   21.5738 O   0  0  0  0  0  0  0  0  0  0  0  0
  -19.6246   -3.6708   21.8141 F   0  0  0  0  0  0  0  0  0  0  0  0
  -24.3435   -3.9025   22.1045 F   0  0  0  0  0  0  0  0  0  0  0  0
  -29.6450  -15.9535   24.5044 F   0  0  0  0  0  0  0  0  0  0  0  0
  -31.7127  -16.2740   25.1192 F   0  0  0  0  0  0  0  0  0  0  0  0
  -31.0200  -14.2706   24.6178 F   0  0  0  0  0  0  0  0  0  0  0  0
  1  2  1  0  0  0  0
  1  5  2  0  0  0  0
  2  6  2  0  0  0  0
  3  8  2  0  0  0  0
  3 17  1  0  0  0  0
  4  9  1  0  0  0  0
  4 17  2  0  0  0  0
  5 19  1  0  0  0  0
  6 21  1  0  0  0  0
  7 10  2  0  0  0  0
  7 20  1  0  0  0  0
  8 23  1  0  0  0  0
  9 23  2  0  0  0  0
 10 24  1  0  0  0  0
 11 12  2  0  0  0  0
 11 25  1  0  0  0  0
 12 26  1  0  0  0  0
 13 22  1  0  0  0  0
 13 24  2  0  0  0  0
 14 26  2  0  0  0  0
 14 27  1  0  0  0  0
 15 29  2  0  0  0  0
 15 65  1  0  0  0  0
 16 30  1  0  0  0  0
 16 64  2  0  0  0  0
 17 28  1  0  0  0  0
 18 28  1  0  0  0  0
 18 31  2  0  0  0  0
 18 32  1  0  0  0  0
 19 21  2  0  0  0  0
 19 37  1  0  0  0  0
 20 22  2  0  0  0  0
 20 38  1  0  0  0  0
 21 46  1  0  0  0  0
 22 39  1  0  0  0  0
 23 81  1  0  0  0  0
 24 82  1  0  0  0  0
 25 27  2  0  0  0  0
 25 81  1  0  0  0  0
 26 84  1  0  0  0  0
 27 85  1  0  0  0  0
 28 66  2  0  0  0  0
 29 61  1  0  0  0  0
 29 64  1  0  0  0  0
 30 65  2  0  0  0  0
 30 83  1  0  0  0  0
 31 67  1  0  0  0  0
 31 70  1  0  0  0  0
 32 71  1  0  0  0  0
 32 76  2  0  0  0  0
 33 47  1  0  0  0  0
 33 72  1  0  0  0  0
 33 77  2  0  0  0  0
 34 59  1  0  0  0  0
 34 68  1  0  0  0  0
 34 78  2  0  0  0  0
 35 60  1  0  0  0  0
 35 73  1  0  0  0  0
 35 79  2  0  0  0  0
 36 69  1  0  0  0  0
 36 74  1  0  0  0  0
 36 80  2  0  0  0  0
 37 40  1  0  0  0  0
 38 47  1  0  0  0  0
 39 68  1  0  0  0  0
 40 42  1  0  0  0  0
 41 43  1  0  0  0  0
 41 44  1  0  0  0  0
 42 46  1  0  0  0  0
 43 48  1  0  0  0  0
 44 69  1  0  0  0  0
 45 48  1  0  0  0  0
 45 69  1  0  0  0  0
 46 72  1  0  0  0  0
 47 68  1  0  0  0  0
 48 67  1  0  0  0  0
 49 60  1  0  0  0  0
 50 61  1  0  0  0  0
 51 62  1  0  0  0  0
 52 62  1  0  0  0  0
 53 62  1  0  0  0  0
 54 75  1  0  0  0  0
 55 56  1  0  0  0  0
 55 57  1  0  0  0  0
 56 58  1  0  0  0  0
 57 82  1  0  0  0  0
 58 83  1  0  0  0  0
 59 62  1  0  0  0  0
 59 73  1  0  0  0  0
 60 75  1  0  0  0  0
 61 63  1  0  0  0  0
 61 74  1  0  0  0  0
 63 86  1  0  0  0  0
 63 87  1  0  0  0  0
 63 88  1  0  0  0  0
 66 67  1  0  0  0  0
M  CHG  1  75   1
M  ISO  4  36 100  57 101  74 100  82 101
M  END
> <Batch ID>
0070

> <Smiles>
CNC(C)C(=O)NC(C(=O)N1Cc2cc([101O:1][101CH2:1]CCCOc3cnc(C(C)([100NH:0][100C:0](=O)N4CCCC(n5nc(-c6ccc(Oc7ccc(F)cc7F)cc6)c(C(N)=O)c5N)C4)C(F)(F)F)cn3)ccc2CC1C(=O)NC1CCCc2ccccc21)C(C)(C)C

> <Shape>
0.335

> <Color>
0.115

> <Negative vol penalty>
0.000

$$$$

  -OEChem-04052318193D

 89 97  0     1  0  0  0  0  0999 V2000
  -20.6043  -28.8366   27.4233 C   0  0  0  0  0  0  0  0  0  0  0  0
  -20.3546  -29.8854   26.5454 C   0  0  0  0  0  0  0  0  0  0  0  0
  -26.1449  -14.4486   21.6746 C   0  0  0  0  0  0  0  0  0  0  0  0
  -26.0866  -15.3985   19.4539 C   0  0  0  0  0  0  0  0  0  0  0  0
  -21.9177  -28.4816   27.7234 C   0  0  0  0  0  0  0  0  0  0  0  0
  -21.4181  -30.5718   25.9582 C   0  0  0  0  0  0  0  0  0  0  0  0
  -26.6088  -29.7685   20.3309 C   0  0  0  0  0  0  0  0  0  0  0  0
  -24.7512  -14.3926   21.6872 C   0  0  0  0  0  0  0  0  0  0  0  0
  -24.6929  -15.3425   19.4665 C   0  0  0  0  0  0  0  0  0  0  0  0
  -27.2266  -28.6064   19.8708 C   0  0  0  0  0  0  0  0  0  0  0  0
  -22.3264  -12.4091   20.4148 C   0  0  0  0  0  0  0  0  0  0  0  0
  -21.7289  -11.2367   20.8775 C   0  0  0  0  0  0  0  0  0  0  0  0
  -25.1130  -27.4484   19.9757 C   0  0  0  0  0  0  0  0  0  0  0  0
  -20.6225  -12.4890   22.6224 C   0  0  0  0  0  0  0  0  0  0  0  0
  -29.2255  -24.8487   17.1313 C   0  0  0  0  0  0  0  0  0  0  0  0
  -26.8126  -14.9516   20.5580 C   0  0  0  0  0  0  0  0  0  0  0  0
  -29.1394  -14.0141   20.0949 C   0  0  0  0  0  0  0  0  0  0  0  0
  -22.9972  -29.1726   27.1488 C   0  0  0  0  0  0  0  0  0  0  0  0
  -25.2383  -29.7763   20.6277 C   0  0  0  0  0  0  0  0  0  0  0  0
  -22.7507  -30.2129   26.2299 C   0  0  0  0  0  0  0  0  0  0  0  0
  -24.4797  -28.6126   20.4370 C   0  0  0  0  0  0  0  0  0  0  0  0
  -28.9455  -25.0459   18.4681 C   0  0  0  0  0  0  0  0  0  0  0  0
  -24.0252  -14.8395   20.5832 C   0  0  0  0  0  0  0  0  0  0  0  0
  -26.4793  -27.4454   19.6958 C   0  0  0  0  0  0  0  0  0  0  0  0
  -22.0720  -13.6215   21.0560 C   0  0  0  0  0  0  0  0  0  0  0  0
  -20.8769  -11.2766   21.9812 C   0  0  0  0  0  0  0  0  0  0  0  0
  -21.2200  -13.6615   22.1597 C   0  0  0  0  0  0  0  0  0  0  0  0
  -28.2522  -15.0103   20.5446 C   0  0  0  0  0  0  0  0  0  0  0  0
  -29.1230  -23.9470   19.2837 C   0  0  0  0  0  0  0  0  0  0  0  0
  -30.3878  -14.5520   20.2914 C   0  0  0  0  0  0  0  0  0  0  0  0
  -29.7816  -22.6785   17.5162 C   0  0  0  0  0  0  0  0  0  0  0  0
  -28.8601  -12.7183   19.5484 C   0  0  0  0  0  0  0  0  0  0  0  0
  -23.5140  -30.2808   23.2500 C   0  0  0  0  0  0  0  0  0  0  0  0
  -21.0236  -30.0718   21.1819 C   0  0  0  0  0  0  0  0  0  0  0  0
  -19.8186  -28.9163   18.2054 C   0  0  0  0  0  0  0  0  0  0  0  0
  -32.3931  -20.1834   20.6349 C   0  0  0  0  0  0  0  0  0  0  0  0
  -24.3987  -28.7415   27.5026 C   0  0  0  0  0  0  0  0  0  0  0  0
  -24.5815  -31.0452   21.0978 C   0  0  0  0  0  0  0  0  0  0  0  0
  -23.0012  -28.5741   20.7219 C   0  0  0  0  0  0  0  0  0  0  0  0
  -25.4459  -29.8033   27.1828 C   0  0  0  0  0  0  0  0  0  0  0  0
  -32.7378  -17.6342   23.0965 C   0  0  0  0  0  0  0  0  0  0  0  0
  -25.2554  -30.3095   25.7608 C   0  0  0  0  0  0  0  0  0  0  0  0
  -31.7074  -16.5828   22.6811 C   0  0  0  0  0  0  0  0  0  0  0  0
  -32.2353  -19.0519   22.8330 C   0  0  0  0  0  0  0  0  0  0  0  0
  -30.7508  -18.2499   21.0366 C   0  0  0  0  0  0  0  0  0  0  0  0
  -23.8916  -30.9937   25.6028 C   0  0  1  0  0  0  0  0  0  0  0  0
  -23.2824  -30.7992   21.8588 C   0  0  1  0  0  0  0  0  0  0  0  0
  -31.2349  -16.8029   21.2314 C   0  0  2  0  0  0  0  0  0  0  0  0
  -28.8508  -24.0428   20.7487 C   0  0  0  0  0  0  0  0  0  0  0  0
  -17.7350  -28.8721   16.8075 C   0  0  0  0  0  0  0  0  0  0  0  0
  -19.8395  -27.9424   23.0186 C   0  0  0  0  0  0  0  0  0  0  0  0
  -18.3133  -27.2776   21.1486 C   0  0  0  0  0  0  0  0  0  0  0  0
  -18.1787  -29.5760   22.1088 C   0  0  0  0  0  0  0  0  0  0  0  0
  -32.4971  -22.1889   16.0783 C   0  0  0  0  0  0  0  0  0  0  0  0
  -21.1381  -30.3617   15.9854 C   0  0  0  0  0  0  0  0  0  0  0  0
  -28.4791  -26.3786   18.9758 C   0  0  0  0  0  0  0  0  0  1  0  0
  -32.4452  -21.2069   18.3747 C   0  0  0  0  0  0  0  0  0  0  0  0
  -20.1562  -28.9505   20.6629 C   0  0  1  0  0  0  0  0  0  0  0  0
  -19.0359  -29.6030   17.1008 C   0  0  2  0  0  0  0  0  0  0  0  0
  -30.2467  -21.3637   16.9877 C   0  0  0  0  0  0  0  0  0  0  0  0
  -19.1501  -28.4365   21.7311 C   0  0  0  0  0  0  0  0  0  0  0  0
  -31.8078  -21.1251   16.9626 C   0  0  1  0  0  0  0  0  0  0  0  0
  -32.1169  -19.7453   16.3385 C   0  0  0  0  0  0  0  0  0  0  0  0
  -29.6472  -23.6738   16.6192 N   0  0  0  0  0  0  0  0  0  0  0  0
  -28.8834  -16.0986   20.9931 N   0  0  0  0  0  0  0  0  0  0  0  0
  -29.5412  -22.7435   18.8396 N   0  0  0  0  0  0  0  0  0  0  0  0
  -30.1805  -15.7894   20.8263 N   0  0  0  0  0  0  0  0  0  0  0  0
  -22.4062  -29.8385   21.1855 N   0  0  0  0  0  0  0  0  0  0  0  0
  -31.8041  -19.1947   21.4403 N   0  0  0  0  0  0  0  0  0  0  0  0
  -31.6317  -14.0826   20.0572 N   0  0  0  0  0  0  0  0  0  0  0  0
  -27.5219  -12.3236   19.4155 N   0  0  0  0  0  0  0  0  0  0  0  0
  -23.6621  -31.2712   24.2021 N   0  0  0  0  0  0  0  0  0  0  0  0
  -19.5298  -29.4499   19.4436 N   0  0  0  0  0  0  0  0  0  0  0  0
  -31.9314  -20.2467   19.3259 N   0  0  0  0  0  0  0  0  0  0  0  0
  -19.8412  -29.6502   15.8477 N   0  3  0  0  0  0  0  0  0  0  0  0
  -29.7707  -11.9273   19.2039 O   0  0  0  0  0  0  0  0  0  0  0  0
  -23.5537  -29.0717   23.4453 O   0  0  0  0  0  0  0  0  0  0  0  0
  -20.4945  -31.1188   21.5632 O   0  0  0  0  0  0  0  0  0  0  0  0
  -20.6045  -27.9958   17.9917 O   0  0  0  0  0  0  0  0  0  0  0  0
  -33.2695  -20.9492   21.0501 O   0  0  0  0  0  0  0  0  0  0  0  0
  -22.6653  -14.7847   20.5950 O   0  0  0  0  0  0  0  0  0  0  0  0
  -27.0799  -26.3096   19.2475 O   0  0  0  0  0  0  0  0  0  1  0  0
  -20.3020  -10.1509   22.4244 F   0  0  0  0  0  0  0  0  0  0  0  0
  -20.9709  -14.8234   22.7791 F   0  0  0  0  0  0  0  0  0  0  0  0
  -29.7982  -21.1556   15.6996 F   0  0  0  0  0  0  0  0  0  0  0  0
  -29.6899  -20.3126   17.6841 F   0  0  0  0  0  0  0  0  0  0  0  0
  -33.4439  -19.4958   16.2886 F   0  0  0  0  0  0  0  0  0  0  0  0
  -31.5475  -18.7421   17.0449 F   0  0  0  0  0  0  0  0  0  0  0  0
  -31.6451  -19.6596   15.0732 F   0  0  0  0  0  0  0  0  0  0  0  0
  1  2  1  0  0  0  0
  1  5  2  0  0  0  0
  2  6  2  0  0  0  0
  3  8  2  0  0  0  0
  3 16  1  0  0  0  0
  4  9  1  0  0  0  0
  4 16  2  0  0  0  0
  5 18  1  0  0  0  0
  6 20  1  0  0  0  0
  7 10  2  0  0  0  0
  7 19  1  0  0  0  0
  8 23  1  0  0  0  0
  9 23  2  0  0  0  0
 10 24  1  0  0  0  0
 11 12  2  0  0  0  0
 11 25  1  0  0  0  0
 12 26  1  0  0  0  0
 13 21  1  0  0  0  0
 13 24  2  0  0  0  0
 14 26  2  0  0  0  0
 14 27  1  0  0  0  0
 15 22  1  0  0  0  0
 15 64  2  0  0  0  0
 16 28  1  0  0  0  0
 17 28  1  0  0  0  0
 17 30  2  0  0  0  0
 17 32  1  0  0  0  0
 18 20  2  0  0  0  0
 18 37  1  0  0  0  0
 19 21  2  0  0  0  0
 19 38  1  0  0  0  0
 20 46  1  0  0  0  0
 21 39  1  0  0  0  0
 22 29  2  0  0  0  0
 22 56  1  0  0  0  0
 23 81  1  0  0  0  0
 24 82  1  0  0  0  0
 25 27  2  0  0  0  0
 25 81  1  0  0  0  0
 26 83  1  0  0  0  0
 27 84  1  0  0  0  0
 28 65  2  0  0  0  0
 29 49  1  0  0  0  0
 29 66  1  0  0  0  0
 30 67  1  0  0  0  0
 30 70  1  0  0  0  0
 31 60  1  0  0  0  0
 31 64  1  0  0  0  0
 31 66  2  0  0  0  0
 32 71  1  0  0  0  0
 32 76  2  0  0  0  0
 33 47  1  0  0  0  0
 33 72  1  0  0  0  0
 33 77  2  0  0  0  0
 34 58  1  0  0  0  0
 34 68  1  0  0  0  0
 34 78  2  0  0  0  0
 35 59  1  0  0  0  0
 35 73  1  0  0  0  0
 35 79  2  0  0  0  0
 36 69  1  0  0  0  0
 36 74  1  0  0  0  0
 36 80  2  0  0  0  0
 37 40  1  0  0  0  0
 38 47  1  0  0  0  0
 39 68  1  0  0  0  0
 40 42  1  0  0  0  0
 41 43  1  0  0  0  0
 41 44  1  0  0  0  0
 42 46  1  0  0  0  0
 43 48  1  0  0  0  0
 44 69  1  0  0  0  0
 45 48  1  0  0  0  0
 45 69  1  0  0  0  0
 46 72  1  0  0  0  0
 47 68  1  0  0  0  0
 48 67  1  0  0  0  0
 50 59  1  0  0  0  0
 51 61  1  0  0  0  0
 52 61  1  0  0  0  0
 53 61  1  0  0  0  0
 54 62  1  0  0  0  0
 55 75  1  0  0  0  0
 56 82  1  0  0  0  0
 57 62  1  0  0  0  0
 57 74  1  0  0  0  0
 58 61  1  0  0  0  0
 58 73  1  0  0  0  0
 59 75  1  0  0  0  0
 60 62  1  0  0  0  0
 60 85  1  0  0  0  0
 60 86  1  0  0  0  0
 62 63  1  0  0  0  0
 63 87  1  0  0  0  0
 63 88  1  0  0  0  0
 63 89  1  0  0  0  0
 65 67  1  0  0  0  0
M  CHG  1  75   1
M  ISO  4  36 100  56 101  74 100  82 101
M  END
> <Batch ID>
0070

> <Smiles>
CNC(C)C(=O)NC(C(=O)N1Cc2cc([101O:1][101CH2:1]c3cnc(C(F)(F)C(C)(C[100NH:0][100C:0](=O)N4CCCC(n5nc(-c6ccc(Oc7ccc(F)cc7F)cc6)c(C(N)=O)c5N)C4)C(F)(F)F)nc3C)ccc2CC1C(=O)NC1CCCc2ccccc21)C(C)(C)C

> <Shape>
0.262

> <Color>
0.086

> <Negative vol penalty>
0.000

$$$$

  -OEChem-04052318193D

 91100  0     1  0  0  0  0  0999 V2000
  -24.2412  -29.5153   23.1642 C   0  0  0  0  0  0  0  0  0  0  0  0
  -24.3961  -28.1546   23.4091 C   0  0  0  0  0  0  0  0  0  0  0  0
  -23.1192  -23.1136   21.8155 C   0  0  0  0  0  0  0  0  0  0  0  0
  -20.7676  -22.6676   22.1441 C   0  0  0  0  0  0  0  0  0  0  0  0
  -24.7297  -30.0696   21.9818 C   0  0  0  0  0  0  0  0  0  0  0  0
  -25.0385  -27.3472   22.4712 C   0  0  0  0  0  0  0  0  0  0  0  0
  -28.6132  -22.5073   23.6129 C   0  0  0  0  0  0  0  0  0  0  0  0
  -22.8181  -24.4214   21.4353 C   0  0  0  0  0  0  0  0  0  0  0  0
  -20.4664  -23.9755   21.7639 C   0  0  0  0  0  0  0  0  0  0  0  0
  -28.3657  -21.1353   23.6030 C   0  0  0  0  0  0  0  0  0  0  0  0
  -19.1062  -27.3041   21.2269 C   0  0  0  0  0  0  0  0  0  0  0  0
  -18.1829  -28.0085   21.9995 C   0  0  0  0  0  0  0  0  0  0  0  0
  -29.2177  -21.0039   21.3500 C   0  0  0  0  0  0  0  0  0  0  0  0
  -29.3546  -15.8927   21.3404 C   0  0  0  0  0  0  0  0  0  0  0  0
  -19.6102  -27.7591   23.9328 C   0  0  0  0  0  0  0  0  0  0  0  0
  -27.0846  -16.5083   21.6938 C   0  0  0  0  0  0  0  0  0  0  0  0
  -25.6963  -12.8322   19.9442 C   0  0  0  0  0  0  0  0  0  0  0  0
  -25.0800  -11.8447   21.8097 C   0  0  0  0  0  0  0  0  0  0  0  0
  -22.0939  -22.2367   22.1698 C   0  0  0  0  0  0  0  0  0  0  0  0
  -22.6743  -20.4185   23.8624 C   0  0  0  0  0  0  0  0  0  0  0  0
  -25.3871  -29.2703   21.0333 C   0  0  0  0  0  0  0  0  0  0  0  0
  -29.1556  -23.1408   22.4855 C   0  0  0  0  0  0  0  0  0  0  0  0
  -25.5351  -27.8911   21.2744 C   0  0  0  0  0  0  0  0  0  0  0  0
  -29.4735  -22.3836   21.3490 C   0  0  0  0  0  0  0  0  0  0  0  0
  -28.3912  -16.8907   21.4362 C   0  0  0  0  0  0  0  0  0  0  0  0
  -28.9871  -14.5616   21.5029 C   0  0  0  0  0  0  0  0  0  0  0  0
  -21.4917  -24.8524   21.4095 C   0  0  0  0  0  0  0  0  0  0  0  0
  -28.6653  -20.3838   22.4705 C   0  0  0  0  0  0  0  0  0  0  0  0
  -20.2815  -26.8271   21.8073 C   0  0  0  0  0  0  0  0  0  0  0  0
  -26.1011  -12.5883   21.2702 C   0  0  0  0  0  0  0  0  0  0  0  0
  -18.4349  -28.2361   23.3524 C   0  0  0  0  0  0  0  0  0  0  0  0
  -20.5335  -27.0546   23.1602 C   0  0  0  0  0  0  0  0  0  0  0  0
  -22.4043  -20.8854   22.5621 C   0  0  0  0  0  0  0  0  0  0  0  0
  -27.6539  -14.2834   21.7578 C   0  0  0  0  0  0  0  0  0  0  0  0
  -22.9062  -19.0741   23.7032 C   0  0  0  0  0  0  0  0  0  0  0  0
  -22.7122  -21.1358   25.1032 C   0  0  0  0  0  0  0  0  0  0  0  0
  -28.1671  -25.4165   20.4986 C   0  0  0  0  0  0  0  0  0  0  0  0
  -31.1693  -25.1343   19.3029 C   0  0  0  0  0  0  0  0  0  0  0  0
  -33.9501  -23.2014   18.8815 C   0  0  0  0  0  0  0  0  0  0  0  0
  -21.7165  -14.2314   21.6798 C   0  0  0  0  0  0  0  0  0  0  0  0
  -25.8563  -29.9059   19.7486 C   0  0  0  0  0  0  0  0  0  0  0  0
  -29.4415  -24.6171   22.5217 C   0  0  0  0  0  0  0  0  0  0  0  0
  -30.0760  -23.0124   20.1202 C   0  0  0  0  0  0  0  0  0  0  0  0
  -26.8566  -29.0503   18.9755 C   0  0  0  0  0  0  0  0  0  0  0  0
  -23.5989  -16.3113   19.5344 C   0  0  0  0  0  0  0  0  0  0  0  0
  -26.3733  -27.6057   18.8949 C   0  0  0  0  0  0  0  0  0  0  0  0
  -23.4717  -17.6632   20.2353 C   0  0  0  0  0  0  0  0  0  0  0  0
  -22.2900  -15.5202   19.5699 C   0  0  0  0  0  0  0  0  0  0  0  0
  -21.6019  -16.7046   21.6306 C   0  0  0  0  0  0  0  0  0  0  0  0
  -26.2483  -26.9870   20.2925 C   0  0  1  0  0  0  0  0  0  0  0  0
  -29.5181  -25.2450   21.1334 C   0  0  1  0  0  0  0  0  0  0  0  0
  -22.9199  -17.4937   21.6614 C   0  0  2  0  0  0  0  0  0  0  0  0
  -36.2280  -23.2300   17.8289 C   0  0  0  0  0  0  0  0  0  0  0  0
  -31.4270  -14.0712   21.1129 C   0  0  0  0  0  0  0  0  0  0  0  0
  -29.6725  -12.4839   20.2537 C   0  0  0  0  0  0  0  0  0  0  0  0
  -30.1832  -12.5995   22.6842 C   0  0  0  0  0  0  0  0  0  0  0  0
  -29.9028  -24.7280   16.5569 C   0  0  0  0  0  0  0  0  0  0  0  0
  -32.0991  -23.8346   15.7531 C   0  0  0  0  0  0  0  0  0  0  0  0
  -31.9332  -26.1880   16.5635 C   0  0  0  0  0  0  0  0  0  0  0  0
  -20.8207  -12.9473   19.6914 C   0  0  0  0  0  0  0  0  0  0  0  0
  -35.2894  -22.8266   21.4939 C   0  0  0  0  0  0  0  0  0  0  0  0
  -28.7551  -18.3361   21.2643 C   0  0  0  0  0  0  0  0  0  1  0  0
  -22.9114  -10.9777   20.9000 C   0  0  0  0  0  0  0  0  0  0  0  0
  -21.8194  -11.7690   21.6150 C   0  0  0  0  0  0  0  0  0  0  0  0
  -31.8186  -24.2917   18.2317 C   0  0  1  0  0  0  0  0  0  0  0  0
  -35.4241  -23.4976   19.0917 C   0  0  2  0  0  0  0  0  0  0  0  0
  -30.0102  -13.4840   21.4038 C   0  0  0  0  0  0  0  0  0  0  0  0
  -31.4253  -24.7487   16.7986 C   0  0  0  0  0  0  0  0  0  0  0  0
  -26.6897  -15.2258   21.8576 N   0  0  0  0  0  0  0  0  0  0  0  0
  -24.5107  -12.2875   19.6585 N   0  0  0  0  0  0  0  0  0  0  0  0
  -22.4593  -19.9164   21.6445 N   0  0  0  0  0  0  0  0  0  0  0  0
  -24.1617  -11.6939   20.8126 N   0  0  0  0  0  0  0  0  0  0  0  0
  -22.7667  -18.8272   22.3691 N   0  0  0  0  0  0  0  0  0  0  0  0
  -30.3310  -24.4601   20.2022 N   0  0  0  0  0  0  0  0  0  0  0  0
  -21.7739  -15.4230   20.9421 N   0  0  0  0  0  0  0  0  0  0  0  0
  -23.2138  -18.0909   24.5756 N   0  0  0  0  0  0  0  0  0  0  0  0
  -22.4497  -22.5124   25.0874 N   0  0  0  0  0  0  0  0  0  0  0  0
  -27.5522  -26.6167   20.7997 N   0  0  0  0  0  0  0  0  0  0  0  0
  -33.2526  -24.3272   18.4978 N   0  0  0  0  0  0  0  0  0  0  0  0
  -21.5379  -13.0395   20.9616 N   0  0  0  0  0  0  0  0  0  0  0  0
  -35.9721  -22.6480   20.1866 N   0  3  0  0  0  0  0  0  0  0  0  0
  -22.9872  -20.5757   26.1915 O   0  0  0  0  0  0  0  0  0  0  0  0
  -27.7166  -24.5264   19.7869 O   0  0  0  0  0  0  0  0  0  0  0  0
  -31.4030  -26.3447   19.3447 O   0  0  0  0  0  0  0  0  0  0  0  0
  -33.4667  -22.0823   19.0381 O   0  0  0  0  0  0  0  0  0  0  0  0
  -21.8115  -14.2316   22.9139 O   0  0  0  0  0  0  0  0  0  0  0  0
  -21.1975  -26.1285   21.0388 O   0  0  0  0  0  0  0  0  0  0  0  0
  -27.2514  -12.9835   21.9228 O   0  0  0  0  0  0  0  0  0  0  0  0
  -28.4241  -19.0446   22.4580 O   0  0  0  0  0  0  0  0  0  1  0  0
  -17.5489  -28.9139   24.0938 F   0  0  0  0  0  0  0  0  0  0  0  0
  -21.6614  -26.5998   23.7231 F   0  0  0  0  0  0  0  0  0  0  0  0
  1  2  1  0  0  0  0
  1  5  2  0  0  0  0
  2  6  2  0  0  0  0
  3  8  2  0  0  0  0
  3 19  1  0  0  0  0
  4  9  1  0  0  0  0
  4 19  2  0  0  0  0
  5 21  1  0  0  0  0
  6 23  1  0  0  0  0
  7 10  2  0  0  0  0
  7 22  1  0  0  0  0
  8 27  1  0  0  0  0
  9 27  2  0  0  0  0
 10 28  1  0  0  0  0
 11 12  2  0  0  0  0
 11 29  1  0  0  0  0
 12 31  1  0  0  0  0
 13 24  1  0  0  0  0
 13 28  2  0  0  0  0
 14 25  2  0  0  0  0
 14 26  1  0  0  0  0
 15 31  2  0  0  0  0
 15 32  1  0  0  0  0
 16 25  1  0  0  0  0
 16 69  2  0  0  0  0
 17 30  1  0  0  0  0
 17 70  2  0  0  0  0
 18 30  2  0  0  0  0
 18 72  1  0  0  0  0
 19 33  1  0  0  0  0
 20 33  1  0  0  0  0
 20 35  2  0  0  0  0
 20 36  1  0  0  0  0
 21 23  2  0  0  0  0
 21 41  1  0  0  0  0
 22 24  2  0  0  0  0
 22 42  1  0  0  0  0
 23 50  1  0  0  0  0
 24 43  1  0  0  0  0
 25 62  1  0  0  0  0
 26 34  2  0  0  0  0
 26 67  1  0  0  0  0
 27 87  1  0  0  0  0
 28 89  1  0  0  0  0
 29 32  2  0  0  0  0
 29 87  1  0  0  0  0
 30 88  1  0  0  0  0
 31 90  1  0  0  0  0
 32 91  1  0  0  0  0
 33 71  2  0  0  0  0
 34 69  1  0  0  0  0
 34 88  1  0  0  0  0
 35 73  1  0  0  0  0
 35 76  1  0  0  0  0
 36 77  1  0  0  0  0
 36 82  2  0  0  0  0
 37 51  1  0  0  0  0
 37 78  1  0  0  0  0
 37 83  2  0  0  0  0
 38 65  1  0  0  0  0
 38 74  1  0  0  0  0
 38 84  2  0  0  0  0
 39 66  1  0  0  0  0
 39 79  1  0  0  0  0
 39 85  2  0  0  0  0
 40 75  1  0  0  0  0
 40 80  1  0  0  0  0
 40 86  2  0  0  0  0
 41 44  1  0  0  0  0
 42 51  1  0  0  0  0
 43 74  1  0  0  0  0
 44 46  1  0  0  0  0
 45 47  1  0  0  0  0
 45 48  1  0  0  0  0
 46 50  1  0  0  0  0
 47 52  1  0  0  0  0
 48 75  1  0  0  0  0
 49 52  1  0  0  0  0
 49 75  1  0  0  0  0
 50 78  1  0  0  0  0
 51 74  1  0  0  0  0
 52 73  1  0  0  0  0
 53 66  1  0  0  0  0
 54 67  1  0  0  0  0
 55 67  1  0  0  0  0
 56 67  1  0  0  0  0
 57 68  1  0  0  0  0
 58 68  1  0  0  0  0
 59 68  1  0  0  0  0
 60 80  1  0  0  0  0
 61 81  1  0  0  0  0
 62 89  1  0  0  0  0
 63 64  1  0  0  0  0
 63 72  1  0  0  0  0
 64 80  1  0  0  0  0
 65 68  1  0  0  0  0
 65 79  1  0  0  0  0
 66 81  1  0  0  0  0
 70 72  1  0  0  0  0
 71 73  1  0  0  0  0
M  CHG  1  81   1
M  ISO  4  40 100  62 101  80 100  89 101
M  END
> <Batch ID>
0070

> <Smiles>
CNC(C)C(=O)NC(C(=O)N1Cc2cc([101O:1][101CH2:1]c3cnc(Oc4cnn(CC[100N:0](C)[100C:0](=O)N5CCCC(n6nc(-c7ccc(Oc8ccc(F)cc8F)cc7)c(C(N)=O)c6N)C5)c4)c(C(C)(C)C)c3)ccc2CC1C(=O)NC1CCCc2ccccc21)C(C)(C)C

> <Shape>
0.227

> <Color>
0.057

> <Negative vol penalty>
0.000

$$$$

  -OEChem-04052318193D

 87 95  0     1  0  0  0  0  0999 V2000
  -21.8931  -11.8206   19.4131 C   0  0  0  0  0  0  0  0  0  0  0  0
  -21.6975  -13.0982   19.9277 C   0  0  0  0  0  0  0  0  0  0  0  0
  -25.6604  -27.3377   19.3992 C   0  0  0  0  0  0  0  0  0  0  0  0
  -25.4291  -28.9115   21.2177 C   0  0  0  0  0  0  0  0  0  0  0  0
  -23.1513  -11.2249   19.4888 C   0  0  0  0  0  0  0  0  0  0  0  0
  -22.7600  -13.7804   20.5195 C   0  0  0  0  0  0  0  0  0  0  0  0
  -23.0348  -18.6134   19.0323 C   0  0  0  0  0  0  0  0  0  0  0  0
  -26.8595  -27.9449   19.0263 C   0  0  0  0  0  0  0  0  0  0  0  0
  -26.6282  -29.5187   20.8447 C   0  0  0  0  0  0  0  0  0  0  0  0
  -22.1424  -19.5111   19.6166 C   0  0  0  0  0  0  0  0  0  0  0  0
  -30.1643  -28.8538   17.8148 C   0  0  0  0  0  0  0  0  0  0  0  0
  -31.2431  -28.0246   17.5081 C   0  0  0  0  0  0  0  0  0  0  0  0
  -23.8821  -20.2583   21.1114 C   0  0  0  0  0  0  0  0  0  0  0  0
  -31.1637  -27.0967   19.7374 C   0  0  0  0  0  0  0  0  0  0  0  0
  -16.5526  -23.9299   22.8202 C   0  0  0  0  0  0  0  0  0  0  0  0
  -24.9451  -27.8211   20.4949 C   0  0  0  0  0  0  0  0  0  0  0  0
  -23.5378  -26.1275   21.7828 C   0  0  0  0  0  0  0  0  0  0  0  0
  -24.2321  -11.9039   20.0731 C   0  0  0  0  0  0  0  0  0  0  0  0
  -24.3568  -18.5235   19.4912 C   0  0  0  0  0  0  0  0  0  0  0  0
  -24.0336  -13.1927   20.6043 C   0  0  0  0  0  0  0  0  0  0  0  0
  -24.7900  -19.3604   20.5295 C   0  0  0  0  0  0  0  0  0  0  0  0
  -17.4187  -23.2649   23.6640 C   0  0  0  0  0  0  0  0  0  0  0  0
  -27.3434  -29.0353   19.7490 C   0  0  0  0  0  0  0  0  0  0  0  0
  -22.5651  -20.3317   20.6583 C   0  0  0  0  0  0  0  0  0  0  0  0
  -29.5851  -28.8045   19.0828 C   0  0  0  0  0  0  0  0  0  0  0  0
  -31.7428  -27.1460   18.4694 C   0  0  0  0  0  0  0  0  0  0  0  0
  -30.0848  -27.9259   20.0441 C   0  0  0  0  0  0  0  0  0  0  0  0
  -23.7061  -27.1947   20.8803 C   0  0  0  0  0  0  0  0  0  0  0  0
  -18.2364  -24.0672   24.4333 C   0  0  0  0  0  0  0  0  0  0  0  0
  -22.1825  -25.9057   21.8034 C   0  0  0  0  0  0  0  0  0  0  0  0
  -17.3304  -25.9452   23.5280 C   0  0  0  0  0  0  0  0  0  0  0  0
  -24.5188  -25.4015   22.5353 C   0  0  0  0  0  0  0  0  0  0  0  0
  -26.1217  -16.2340   20.8129 C   0  0  0  0  0  0  0  0  0  0  0  0
  -16.9706  -27.9208   22.0601 C   0  0  0  0  0  0  0  0  0  0  0  0
  -28.4971  -18.4198   20.4938 C   0  0  0  0  0  0  0  0  0  0  0  0
  -29.3966  -21.6986   20.1981 C   0  0  0  0  0  0  0  0  0  0  0  0
  -25.5623  -11.2004   20.1745 C   0  0  0  0  0  0  0  0  0  0  0  0
  -25.3144  -17.5689   18.8324 C   0  0  0  0  0  0  0  0  0  0  0  0
  -26.2044  -19.3171   21.0452 C   0  0  0  0  0  0  0  0  0  0  0  0
  -26.7262  -12.1393   20.4810 C   0  0  0  0  0  0  0  0  0  0  0  0
  -18.5027  -27.6743   18.8302 C   0  0  0  0  0  0  0  0  0  0  0  0
  -26.3600  -13.0906   21.6158 C   0  0  0  0  0  0  0  0  0  0  0  0
  -19.9830  -27.4702   19.1497 C   0  0  0  0  0  0  0  0  0  0  0  0
  -17.8347  -28.5976   19.8443 C   0  0  0  0  0  0  0  0  0  0  0  0
  -19.4696  -27.9506   21.5850 C   0  0  0  0  0  0  0  0  0  0  0  0
  -25.1673  -13.9746   21.2315 C   0  0  1  0  0  0  0  0  0  0  0  0
  -26.4962  -17.1983   19.7231 C   0  0  1  0  0  0  0  0  0  0  0  0
  -20.1752  -26.9995   20.6023 C   0  0  2  0  0  0  0  0  0  0  0  0
  -19.7900  -24.4815   26.3572 C   0  0  0  0  0  0  0  0  0  0  0  0
  -31.4140  -23.1770   19.9935 C   0  0  0  0  0  0  0  0  0  0  0  0
  -29.0668  -18.0500   23.4684 C   0  0  0  0  0  0  0  0  0  0  0  0
  -30.3906  -20.1741   23.4078 C   0  0  0  0  0  0  0  0  0  0  0  0
  -31.1049  -18.2216   22.0294 C   0  0  0  0  0  0  0  0  0  0  0  0
  -28.5234  -22.7214   17.5618 C   0  0  0  0  0  0  0  0  0  0  0  0
  -17.4495  -21.7584   23.7220 C   0  0  0  0  0  0  0  0  0  0  0  0
  -19.2139  -23.4578   25.3834 C   0  0  0  0  0  0  0  0  0  0  0  0
  -18.1659  -21.1076   22.5335 C   0  0  0  0  0  0  0  0  0  0  0  0
  -19.6485  -21.4745   22.4542 C   0  0  0  0  0  0  0  0  0  0  0  0
  -20.3166  -20.8427   21.2405 C   0  0  0  0  0  0  0  0  0  1  0  0
  -17.2809  -27.4338   23.4531 C   0  0  1  0  0  0  0  0  0  0  0  0
  -29.0503  -19.5306   21.3534 C   0  0  1  0  0  0  0  0  0  0  0  0
  -30.3436  -22.4010   19.2420 C   0  0  2  0  0  0  0  0  0  0  0  0
  -29.8759  -18.9938   22.5566 C   0  0  0  0  0  0  0  0  0  0  0  0
  -16.2942  -28.0596   24.4404 C   0  0  0  0  0  0  0  0  0  0  0  0
  -16.4816  -25.2740   22.7263 N   0  0  0  0  0  0  0  0  0  0  0  0
  -22.5501  -27.6212   20.3647 N   0  0  0  0  0  0  0  0  0  0  0  0
  -18.2189  -25.4156   24.3904 N   0  0  0  0  0  0  0  0  0  0  0  0
  -21.6424  -26.8179   20.9451 N   0  0  0  0  0  0  0  0  0  0  0  0
  -27.1014  -18.3627   20.3728 N   0  0  0  0  0  0  0  0  0  0  0  0
  -18.0592  -28.1286   21.2128 N   0  0  0  0  0  0  0  0  0  0  0  0
  -21.4119  -25.0214   22.4717 N   0  0  0  0  0  0  0  0  0  0  0  0
  -25.8668  -25.7593   22.3962 N   0  0  0  0  0  0  0  0  0  0  0  0
  -25.5926  -15.0431   20.3530 N   0  0  0  0  0  0  0  0  0  0  0  0
  -29.7991  -20.4056   20.4578 N   0  0  0  0  0  0  0  0  0  0  0  0
  -29.5930  -23.3538   18.3761 N   0  3  0  0  0  0  0  0  0  0  0  0
  -24.2108  -24.4526   23.2957 O   0  0  0  0  0  0  0  0  0  0  0  0
  -26.3009  -16.5465   21.9841 O   0  0  0  0  0  0  0  0  0  0  0  0
  -15.7950  -28.1075   21.7355 O   0  0  0  0  0  0  0  0  0  0  0  0
  -29.2749  -17.6361   19.9439 O   0  0  0  0  0  0  0  0  0  0  0  0
  -28.4016  -22.2437   20.6706 O   0  0  0  0  0  0  0  0  0  0  0  0
  -28.5136  -29.6279   19.3856 O   0  0  0  0  0  0  0  0  0  0  0  0
  -21.6959  -21.2083   21.2309 O   0  0  0  0  0  0  0  0  0  1  0  0
  -32.7778  -26.3486   18.1742 F   0  0  0  0  0  0  0  0  0  0  0  0
  -29.5319  -27.8733   21.2637 F   0  0  0  0  0  0  0  0  0  0  0  0
  -16.2591  -29.4069   24.3169 F   0  0  0  0  0  0  0  0  0  0  0  0
  -15.0368  -27.6022   24.2645 F   0  0  0  0  0  0  0  0  0  0  0  0
  -16.6581  -27.7872   25.7141 F   0  0  0  0  0  0  0  0  0  0  0  0
  1  2  1  0  0  0  0
  1  5  2  0  0  0  0
  2  6  2  0  0  0  0
  3  8  2  0  0  0  0
  3 16  1  0  0  0  0
  4  9  1  0  0  0  0
  4 16  2  0  0  0  0
  5 18  1  0  0  0  0
  6 20  1  0  0  0  0
  7 10  2  0  0  0  0
  7 19  1  0  0  0  0
  8 23  1  0  0  0  0
  9 23  2  0  0  0  0
 10 24  1  0  0  0  0
 11 12  2  0  0  0  0
 11 25  1  0  0  0  0
 12 26  1  0  0  0  0
 13 21  1  0  0  0  0
 13 24  2  0  0  0  0
 14 26  2  0  0  0  0
 14 27  1  0  0  0  0
 15 22  1  0  0  0  0
 15 65  2  0  0  0  0
 16 28  1  0  0  0  0
 17 28  1  0  0  0  0
 17 30  2  0  0  0  0
 17 32  1  0  0  0  0
 18 20  2  0  0  0  0
 18 37  1  0  0  0  0
 19 21  2  0  0  0  0
 19 38  1  0  0  0  0
 20 46  1  0  0  0  0
 21 39  1  0  0  0  0
 22 29  2  0  0  0  0
 22 55  1  0  0  0  0
 23 81  1  0  0  0  0
 24 82  1  0  0  0  0
 25 27  2  0  0  0  0
 25 81  1  0  0  0  0
 26 83  1  0  0  0  0
 27 84  1  0  0  0  0
 28 66  2  0  0  0  0
 29 56  1  0  0  0  0
 29 67  1  0  0  0  0
 30 68  1  0  0  0  0
 30 71  1  0  0  0  0
 31 60  1  0  0  0  0
 31 65  1  0  0  0  0
 31 67  2  0  0  0  0
 32 72  1  0  0  0  0
 32 76  2  0  0  0  0
 33 47  1  0  0  0  0
 33 73  1  0  0  0  0
 33 77  2  0  0  0  0
 34 60  1  0  0  0  0
 34 70  1  0  0  0  0
 34 78  2  0  0  0  0
 35 61  1  0  0  0  0
 35 69  1  0  0  0  0
 35 79  2  0  0  0  0
 36 62  1  0  0  0  0
 36 74  1  0  0  0  0
 36 80  2  0  0  0  0
 37 40  1  0  0  0  0
 38 47  1  0  0  0  0
 39 69  1  0  0  0  0
 40 42  1  0  0  0  0
 41 43  1  0  0  0  0
 41 44  1  0  0  0  0
 42 46  1  0  0  0  0
 43 48  1  0  0  0  0
 44 70  1  0  0  0  0
 45 48  1  0  0  0  0
 45 70  1  0  0  0  0
 46 73  1  0  0  0  0
 47 69  1  0  0  0  0
 48 68  1  0  0  0  0
 49 56  1  0  0  0  0
 50 62  1  0  0  0  0
 51 63  1  0  0  0  0
 52 63  1  0  0  0  0
 53 63  1  0  0  0  0
 54 75  1  0  0  0  0
 55 57  1  0  0  0  0
 57 58  1  0  0  0  0
 58 59  1  0  0  0  0
 59 82  1  0  0  0  0
 60 64  1  0  0  0  0
 61 63  1  0  0  0  0
 61 74  1  0  0  0  0
 62 75  1  0  0  0  0
 64 85  1  0  0  0  0
 64 86  1  0  0  0  0
 64 87  1  0  0  0  0
 66 68  1  0  0  0  0
M  CHG  1  75   1
M  ISO  4  34 100  59 101  60 100  82 101
M  END
> <Batch ID>
0070

> <Smiles>
CCc1nc([100CH:0]([100C:0](=O)N2CCCC(n3nc(-c4ccc(Oc5ccc(F)cc5F)cc4)c(C(N)=O)c3N)C2)C(F)(F)F)ncc1CCC[101CH2:1][101O:1]c1ccc2c(c1)CN(C(=O)C(NC(=O)C(C)NC)C(C)(C)C)C(C(=O)NC1CCCc3ccccc31)C2

> <Shape>
0.211

> <Color>
0.061

> <Negative vol penalty>
0.000

$$$$

  -OEChem-04052318193D

 82 90  0     1  0  0  0  0  0999 V2000
  -23.4956  -33.6220   19.2604 C   0  0  0  0  0  0  0  0  0  0  0  0
  -23.6227  -32.2537   19.0431 C   0  0  0  0  0  0  0  0  0  0  0  0
  -26.3864  -12.5935   21.6613 C   0  0  0  0  0  0  0  0  0  0  0  0
  -25.8885  -13.5784   19.5121 C   0  0  0  0  0  0  0  0  0  0  0  0
  -23.2266  -34.1011   20.5417 C   0  0  0  0  0  0  0  0  0  0  0  0
  -23.4819  -31.3639   20.1074 C   0  0  0  0  0  0  0  0  0  0  0  0
  -21.0496  -25.7468   19.9125 C   0  0  0  0  0  0  0  0  0  0  0  0
  -25.1618  -11.9260   21.6391 C   0  0  0  0  0  0  0  0  0  0  0  0
  -24.6640  -12.9108   19.4898 C   0  0  0  0  0  0  0  0  0  0  0  0
  -21.6230  -24.4788   19.8282 C   0  0  0  0  0  0  0  0  0  0  0  0
  -23.8519   -9.1728   20.1772 C   0  0  0  0  0  0  0  0  0  0  0  0
  -23.8406   -7.8268   20.5431 C   0  0  0  0  0  0  0  0  0  0  0  0
  -21.4785  -24.2606   22.2263 C   0  0  0  0  0  0  0  0  0  0  0  0
  -22.3137   -8.3299   22.3466 C   0  0  0  0  0  0  0  0  0  0  0  0
  -26.6627  -21.1489   24.4149 C   0  0  0  0  0  0  0  0  0  0  0  0
  -26.7497  -13.4198   20.5978 C   0  0  0  0  0  0  0  0  0  0  0  0
  -29.2458  -13.6449   20.1218 C   0  0  0  0  0  0  0  0  0  0  0  0
  -23.0728  -33.2160   21.6205 C   0  0  0  0  0  0  0  0  0  0  0  0
  -20.6958  -26.2866   21.1575 C   0  0  0  0  0  0  0  0  0  0  0  0
  -23.2119  -31.8317   21.4046 C   0  0  0  0  0  0  0  0  0  0  0  0
  -20.8985  -25.5347   22.3235 C   0  0  0  0  0  0  0  0  0  0  0  0
  -24.3007  -12.0846   20.5533 C   0  0  0  0  0  0  0  0  0  0  0  0
  -21.8402  -23.7366   20.9855 C   0  0  0  0  0  0  0  0  0  0  0  0
  -23.0942  -10.0973   20.8961 C   0  0  0  0  0  0  0  0  0  0  0  0
  -23.0715   -7.4053   21.6277 C   0  0  0  0  0  0  0  0  0  0  0  0
  -22.3251   -9.6759   21.9808 C   0  0  0  0  0  0  0  0  0  0  0  0
  -28.0142  -14.1101   20.6205 C   0  0  0  0  0  0  0  0  0  0  0  0
  -30.1290  -14.6637   20.3832 C   0  0  0  0  0  0  0  0  0  0  0  0
  -28.2811  -21.6449   23.0571 C   0  0  0  0  0  0  0  0  0  0  0  0
  -29.5630  -12.4028   19.4796 C   0  0  0  0  0  0  0  0  0  0  0  0
  -21.5917  -28.8342   22.8340 C   0  0  0  0  0  0  0  0  0  0  0  0
  -19.1976  -27.8917   24.8094 C   0  0  0  0  0  0  0  0  0  0  0  0
  -29.2467  -20.4939   21.0949 C   0  0  0  0  0  0  0  0  0  0  0  0
  -17.2079  -25.3643   25.9495 C   0  0  0  0  0  0  0  0  0  0  0  0
  -22.8295  -33.7839   22.9964 C   0  0  0  0  0  0  0  0  0  0  0  0
  -20.0537  -27.6449   21.2290 C   0  0  0  0  0  0  0  0  0  0  0  0
  -20.5176  -26.0606   23.6825 C   0  0  0  0  0  0  0  0  0  0  0  0
  -22.3231  -32.7516   24.0005 C   0  0  0  0  0  0  0  0  0  0  0  0
  -30.9152  -18.2592   23.4292 C   0  0  0  0  0  0  0  0  0  0  0  0
  -23.1530  -31.4744   23.9175 C   0  0  0  0  0  0  0  0  0  0  0  0
  -30.4420  -16.8927   22.9355 C   0  0  0  0  0  0  0  0  0  0  0  0
  -29.8285  -19.3196   23.2731 C   0  0  0  0  0  0  0  0  0  0  0  0
  -28.8246  -18.0734   21.3853 C   0  0  0  0  0  0  0  0  0  0  0  0
  -23.0414  -30.8333   22.5290 C   0  0  1  0  0  0  0  0  0  0  0  0
  -20.2053  -28.3063   22.5954 C   0  0  1  0  0  0  0  0  0  0  0  0
  -29.9023  -16.9820   21.4973 C   0  0  2  0  0  0  0  0  0  0  0  0
  -15.3708  -24.8918   27.5925 C   0  0  0  0  0  0  0  0  0  0  0  0
  -30.4606  -22.3988   22.0702 C   0  0  0  0  0  0  0  0  0  0  0  0
  -28.3946  -22.7091   20.7031 C   0  0  0  0  0  0  0  0  0  0  0  0
  -21.2250  -27.9489   27.0890 C   0  0  0  0  0  0  0  0  0  0  0  0
  -19.6247  -26.5903   28.4534 C   0  0  0  0  0  0  0  0  0  0  0  0
  -18.9734  -28.8680   27.6721 C   0  0  0  0  0  0  0  0  0  0  0  0
  -15.3433  -24.5400   23.8042 C   0  0  0  0  0  0  0  0  0  0  0  0
  -25.1105  -21.6779   21.4979 C   0  0  0  0  0  0  0  0  0  0  0  0
  -24.3278  -21.2202   20.2662 C   0  0  0  0  0  0  0  0  0  0  0  0
  -26.1713  -20.6656   21.9450 C   0  0  0  0  0  0  0  0  0  0  0  0
  -23.3090  -22.2650   19.8310 C   0  0  0  0  0  0  0  0  0  1  0  0
  -19.0956  -26.9730   26.0030 C   0  0  1  0  0  0  0  0  0  0  0  0
  -15.7070  -25.2814   26.1614 C   0  0  2  0  0  0  0  0  0  0  0  0
  -29.0424  -21.8080   21.8057 C   0  0  0  0  0  0  0  0  0  0  0  0
  -19.7388  -27.5857   27.2791 C   0  0  0  0  0  0  0  0  0  0  0  0
  -27.6492  -21.6315   25.1362 N   0  0  0  0  0  0  0  0  0  0  0  0
  -28.1032  -15.3295   21.1581 N   0  0  0  0  0  0  0  0  0  0  0  0
  -28.6789  -21.9470   24.2723 N   0  0  0  0  0  0  0  0  0  0  0  0
  -27.0173  -21.1392   23.1000 N   0  0  0  0  0  0  0  0  0  0  0  0
  -29.4012  -15.6392   20.9988 N   0  0  0  0  0  0  0  0  0  0  0  0
  -19.8988  -27.3964   23.7009 N   0  0  0  0  0  0  0  0  0  0  0  0
  -29.3215  -19.3542   21.8960 N   0  0  0  0  0  0  0  0  0  0  0  0
  -31.4494  -14.8114   20.1442 N   0  0  0  0  0  0  0  0  0  0  0  0
  -28.5365  -11.4676   19.2897 N   0  0  0  0  0  0  0  0  0  0  0  0
  -21.7831  -30.1308   22.3963 N   0  0  0  0  0  0  0  0  0  0  0  0
  -17.6814  -26.6444   26.1455 N   0  0  0  0  0  0  0  0  0  0  0  0
  -15.1098  -24.2684   25.2459 N   0  3  0  0  0  0  0  0  0  0  0  0
  -30.7257  -12.1236   19.1007 O   0  0  0  0  0  0  0  0  0  0  0  0
  -22.4256  -28.1187   23.3765 O   0  0  0  0  0  0  0  0  0  0  0  0
  -18.6684  -29.0050   24.8562 O   0  0  0  0  0  0  0  0  0  0  0  0
  -29.3396  -20.4830   19.8647 O   0  0  0  0  0  0  0  0  0  0  0  0
  -17.8923  -24.3901   25.6446 O   0  0  0  0  0  0  0  0  0  0  0  0
  -23.1058  -11.4331   20.5312 O   0  0  0  0  0  0  0  0  0  0  0  0
  -22.4003  -22.4990   20.9061 O   0  0  0  0  0  0  0  0  0  1  0  0
  -23.0596   -6.1125   21.9780 F   0  0  0  0  0  0  0  0  0  0  0  0
  -21.5941  -10.5592   22.6745 F   0  0  0  0  0  0  0  0  0  0  0  0
  1  2  1  0  0  0  0
  1  5  2  0  0  0  0
  2  6  2  0  0  0  0
  3  8  2  0  0  0  0
  3 16  1  0  0  0  0
  4  9  1  0  0  0  0
  4 16  2  0  0  0  0
  5 18  1  0  0  0  0
  6 20  1  0  0  0  0
  7 10  2  0  0  0  0
  7 19  1  0  0  0  0
  8 22  1  0  0  0  0
  9 22  2  0  0  0  0
 10 23  1  0  0  0  0
 11 12  2  0  0  0  0
 11 24  1  0  0  0  0
 12 25  1  0  0  0  0
 13 21  1  0  0  0  0
 13 23  2  0  0  0  0
 14 25  2  0  0  0  0
 14 26  1  0  0  0  0
 15 62  2  0  0  0  0
 15 65  1  0  0  0  0
 16 27  1  0  0  0  0
 17 27  1  0  0  0  0
 17 28  2  0  0  0  0
 17 30  1  0  0  0  0
 18 20  2  0  0  0  0
 18 35  1  0  0  0  0
 19 21  2  0  0  0  0
 19 36  1  0  0  0  0
 20 44  1  0  0  0  0
 21 37  1  0  0  0  0
 22 79  1  0  0  0  0
 23 80  1  0  0  0  0
 24 26  2  0  0  0  0
 24 79  1  0  0  0  0
 25 81  1  0  0  0  0
 26 82  1  0  0  0  0
 27 63  2  0  0  0  0
 28 66  1  0  0  0  0
 28 69  1  0  0  0  0
 29 60  1  0  0  0  0
 29 64  2  0  0  0  0
 29 65  1  0  0  0  0
 30 70  1  0  0  0  0
 30 74  2  0  0  0  0
 31 45  1  0  0  0  0
 31 71  1  0  0  0  0
 31 75  2  0  0  0  0
 32 58  1  0  0  0  0
 32 67  1  0  0  0  0
 32 76  2  0  0  0  0
 33 60  1  0  0  0  0
 33 68  1  0  0  0  0
 33 77  2  0  0  0  0
 34 59  1  0  0  0  0
 34 72  1  0  0  0  0
 34 78  2  0  0  0  0
 35 38  1  0  0  0  0
 36 45  1  0  0  0  0
 37 67  1  0  0  0  0
 38 40  1  0  0  0  0
 39 41  1  0  0  0  0
 39 42  1  0  0  0  0
 40 44  1  0  0  0  0
 41 46  1  0  0  0  0
 42 68  1  0  0  0  0
 43 46  1  0  0  0  0
 43 68  1  0  0  0  0
 44 71  1  0  0  0  0
 45 67  1  0  0  0  0
 46 66  1  0  0  0  0
 47 59  1  0  0  0  0
 48 60  1  0  0  0  0
 49 60  1  0  0  0  0
 50 61  1  0  0  0  0
 51 61  1  0  0  0  0
 52 61  1  0  0  0  0
 53 73  1  0  0  0  0
 54 55  1  0  0  0  0
 54 56  1  0  0  0  0
 55 57  1  0  0  0  0
 56 65  1  0  0  0  0
 57 80  1  0  0  0  0
 58 61  1  0  0  0  0
 58 72  1  0  0  0  0
 59 73  1  0  0  0  0
 62 64  1  0  0  0  0
 63 66  1  0  0  0  0
M  CHG  1  73   1
M  ISO  4  33 100  57 101  60 100  80 101
M  END
> <Batch ID>
0070

> <Smiles>
CNC(C)C(=O)NC(C(=O)N1Cc2cc([101O:1][101CH2:1]CCCn3cnnc3[100C:0](C)(C)[100C:0](=O)N3CCCC(n4nc(-c5ccc(Oc6ccc(F)cc6F)cc5)c(C(N)=O)c4N)C3)ccc2CC1C(=O)NC1CCCc2ccccc21)C(C)(C)C

> <Shape>
0.227

> <Color>
0.086

> <Negative vol penalty>
0.000

$$$$

  -OEChem-04052318193D

 87 95  0     1  0  0  0  0  0999 V2000
  -17.2899  -11.8592   22.0328 C   0  0  0  0  0  0  0  0  0  0  0  0
  -17.8395  -13.1264   21.8669 C   0  0  0  0  0  0  0  0  0  0  0  0
  -23.9220  -31.3576   22.5304 C   0  0  0  0  0  0  0  0  0  0  0  0
  -24.1389  -29.0844   23.3194 C   0  0  0  0  0  0  0  0  0  0  0  0
  -18.0631  -10.8298   22.5680 C   0  0  0  0  0  0  0  0  0  0  0  0
  -19.1625  -13.3652   22.2371 C   0  0  0  0  0  0  0  0  0  0  0  0
  -23.1289  -17.1399   19.4938 C   0  0  0  0  0  0  0  0  0  0  0  0
  -22.5448  -31.3002   22.7437 C   0  0  0  0  0  0  0  0  0  0  0  0
  -22.7617  -29.0270   23.5328 C   0  0  0  0  0  0  0  0  0  0  0  0
  -23.5375  -18.4415   19.7815 C   0  0  0  0  0  0  0  0  0  0  0  0
  -19.9692  -28.5916   21.6772 C   0  0  0  0  0  0  0  0  0  0  0  0
  -19.2935  -27.4503   21.2454 C   0  0  0  0  0  0  0  0  0  0  0  0
  -25.4568  -17.5726   20.9566 C   0  0  0  0  0  0  0  0  0  0  0  0
  -18.5794  -27.0155   23.5121 C   0  0  0  0  0  0  0  0  0  0  0  0
  -29.9736  -26.7259   22.6666 C   0  0  0  0  0  0  0  0  0  0  0  0
  -29.1509  -26.4007   21.6140 C   0  0  0  0  0  0  0  0  0  0  0  0
  -31.2424  -26.6347   20.9601 C   0  0  0  0  0  0  0  0  0  0  0  0
  -24.7191  -30.2496   22.8182 C   0  0  0  0  0  0  0  0  0  0  0  0
  -27.1279  -30.7200   23.5138 C   0  0  0  0  0  0  0  0  0  0  0  0
  -19.3992  -11.0537   22.9359 C   0  0  0  0  0  0  0  0  0  0  0  0
  -23.8765  -16.0429   19.9454 C   0  0  0  0  0  0  0  0  0  0  0  0
  -19.9540  -12.3382   22.7788 C   0  0  0  0  0  0  0  0  0  0  0  0
  -25.0569  -16.2582   20.6711 C   0  0  0  0  0  0  0  0  0  0  0  0
  -21.9646  -30.1349   23.2449 C   0  0  0  0  0  0  0  0  0  0  0  0
  -24.7001  -18.6579   20.5155 C   0  0  0  0  0  0  0  0  0  0  0  0
  -19.9501  -28.9448   23.0265 C   0  0  0  0  0  0  0  0  0  0  0  0
  -18.5986  -26.6622   22.1628 C   0  0  0  0  0  0  0  0  0  0  0  0
  -19.2552  -28.1568   23.9439 C   0  0  0  0  0  0  0  0  0  0  0  0
  -26.1418  -30.3081   22.5975 C   0  0  0  0  0  0  0  0  0  0  0  0
  -28.3100  -30.5932   22.8260 C   0  0  0  0  0  0  0  0  0  0  0  0
  -26.9880  -31.1764   24.8657 C   0  0  0  0  0  0  0  0  0  0  0  0
  -23.3141  -13.5934   21.8915 C   0  0  0  0  0  0  0  0  0  0  0  0
  -26.2456  -12.6296   20.8915 C   0  0  0  0  0  0  0  0  0  0  0  0
  -29.8844  -27.1604   18.1517 C   0  0  0  0  0  0  0  0  0  0  0  0
  -29.2857  -13.4745   19.5912 C   0  0  0  0  0  0  0  0  0  0  0  0
  -20.1813   -9.9219   23.5540 C   0  0  0  0  0  0  0  0  0  0  0  0
  -23.4366  -14.6457   19.6038 C   0  0  0  0  0  0  0  0  0  0  0  0
  -25.9060  -15.1150   21.1615 C   0  0  0  0  0  0  0  0  0  0  0  0
  -21.6887  -10.1621   23.5727 C   0  0  0  0  0  0  0  0  0  0  0  0
  -30.1113  -30.7276   18.4038 C   0  0  0  0  0  0  0  0  0  0  0  0
  -21.9989  -11.5695   24.0724 C   0  0  0  0  0  0  0  0  0  0  0  0
  -29.1866  -31.0644   19.5729 C   0  0  0  0  0  0  0  0  0  0  0  0
  -29.5800  -29.5499   17.5929 C   0  0  0  0  0  0  0  0  0  0  0  0
  -28.3965  -28.6559   19.5733 C   0  0  0  0  0  0  0  0  0  0  0  0
  -21.3929  -12.6302   23.1454 C   0  0  1  0  0  0  0  0  0  0  0  0
  -23.9989  -13.5930   20.5540 C   0  0  1  0  0  0  0  0  0  0  0  0
  -28.9124  -29.8207   20.4368 C   0  0  2  0  0  0  0  0  0  0  0  0
  -30.6422  -23.2627   16.3897 C   0  0  0  0  0  0  0  0  0  0  0  0
  -31.4882  -12.4756   18.9217 C   0  0  0  0  0  0  0  0  0  0  0  0
  -30.9788  -23.5228   20.7326 C   0  0  0  0  0  0  0  0  0  0  0  0
  -28.0182  -25.9562   18.9510 C   0  0  0  0  0  0  0  0  0  0  0  0
  -27.0410  -12.4201   23.8298 C   0  0  0  0  0  0  0  0  0  0  0  0
  -29.4366  -12.3585   23.1048 C   0  0  0  0  0  0  0  0  0  0  0  0
  -27.8716  -10.5528   22.3885 C   0  0  0  0  0  0  0  0  0  0  0  0
  -28.9469  -14.3238   16.7765 C   0  0  0  0  0  0  0  0  0  0  0  0
  -29.8780  -24.4163   17.0279 C   0  0  0  0  0  0  0  0  0  0  0  0
  -28.6099  -23.2227   19.8341 C   0  0  0  0  0  0  0  0  0  0  0  0
  -28.2842  -21.7553   20.1428 C   0  0  0  0  0  0  0  0  0  0  0  0
  -26.5034  -20.1511   20.9333 C   0  0  0  0  0  0  0  0  0  1  0  0
  -27.6625  -12.8536   21.3617 C   0  0  1  0  0  0  0  0  0  0  0  0
  -30.0971  -12.8766   18.4561 C   0  0  2  0  0  0  0  0  0  0  0  0
  -30.0988  -23.4658   19.4771 C   0  0  1  0  0  0  0  0  0  0  0  0
  -30.2533  -24.7052   18.5080 C   0  0  2  0  0  0  0  0  0  0  0  0
  -26.8159  -21.5818   20.5259 C   0  0  1  0  0  0  0  0  0  0  0  0
  -29.5641  -26.0204   19.0853 C   0  0  1  0  0  0  0  0  0  0  0  0
  -27.9861  -12.0680   22.6638 C   0  0  0  0  0  0  0  0  0  0  0  0
  -31.2742  -26.8704   22.2529 N   0  0  0  0  0  0  0  0  0  0  0  0
  -26.6529  -29.9468   21.4176 N   0  0  0  0  0  0  0  0  0  0  0  0
  -29.9779  -26.3463   20.5275 N   0  0  0  0  0  0  0  0  0  0  0  0
  -27.9732  -30.1314   21.5877 N   0  0  0  0  0  0  0  0  0  0  0  0
  -25.4306  -13.7674   20.8074 N   0  0  0  0  0  0  0  0  0  0  0  0
  -29.3109  -28.3959   18.4527 N   0  0  0  0  0  0  0  0  0  0  0  0
  -29.5944  -30.8330   23.1657 N   0  0  0  0  0  0  0  0  0  0  0  0
  -25.7015  -31.2460   25.4176 N   0  0  0  0  0  0  0  0  0  0  0  0
  -22.1992  -12.7792   21.9529 N   0  0  0  0  0  0  0  0  0  0  0  0
  -28.5246  -12.5204   20.2329 N   0  0  0  0  0  0  0  0  0  0  0  0
  -30.2385  -13.8607   17.3460 N   0  3  0  0  0  0  0  0  0  0  0  0
  -27.9730  -31.5282   25.5582 O   0  0  0  0  0  0  0  0  0  0  0  0
  -23.7646  -14.2802   22.8008 O   0  0  0  0  0  0  0  0  0  0  0  0
  -25.8776  -11.4883   20.6026 O   0  0  0  0  0  0  0  0  0  0  0  0
  -30.6249  -26.9577   17.1858 O   0  0  0  0  0  0  0  0  0  0  0  0
  -29.3260  -14.6679   19.8822 O   0  0  0  0  0  0  0  0  0  0  0  0
  -20.6208  -30.0787   23.4534 O   0  0  0  0  0  0  0  0  0  0  0  0
  -25.1036  -19.9360   20.8002 O   0  0  0  0  0  0  0  0  0  1  0  0
  -17.9485  -25.5671   21.7478 F   0  0  0  0  0  0  0  0  0  0  0  0
  -19.2322  -28.4918   25.2413 F   0  0  0  0  0  0  0  0  0  0  0  0
  -26.5577  -22.3858   21.5983 F   0  0  0  0  0  0  0  0  0  0  0  0
  1  2  1  0  0  0  0
  1  5  2  0  0  0  0
  2  6  2  0  0  0  0
  3  8  2  0  0  0  0
  3 18  1  0  0  0  0
  4  9  1  0  0  0  0
  4 18  2  0  0  0  0
  5 20  1  0  0  0  0
  6 22  1  0  0  0  0
  7 10  2  0  0  0  0
  7 21  1  0  0  0  0
  8 24  1  0  0  0  0
  9 24  2  0  0  0  0
 10 25  1  0  0  0  0
 11 12  2  0  0  0  0
 11 26  1  0  0  0  0
 12 27  1  0  0  0  0
 13 23  1  0  0  0  0
 13 25  2  0  0  0  0
 14 27  2  0  0  0  0
 14 28  1  0  0  0  0
 15 16  2  0  0  0  0
 15 67  1  0  0  0  0
 16 69  1  0  0  0  0
 17 67  2  0  0  0  0
 17 69  1  0  0  0  0
 18 29  1  0  0  0  0
 19 29  1  0  0  0  0
 19 30  2  0  0  0  0
 19 31  1  0  0  0  0
 20 22  2  0  0  0  0
 20 36  1  0  0  0  0
 21 23  2  0  0  0  0
 21 37  1  0  0  0  0
 22 45  1  0  0  0  0
 23 38  1  0  0  0  0
 24 83  1  0  0  0  0
 25 84  1  0  0  0  0
 26 28  2  0  0  0  0
 26 83  1  0  0  0  0
 27 85  1  0  0  0  0
 28 86  1  0  0  0  0
 29 68  2  0  0  0  0
 30 70  1  0  0  0  0
 30 73  1  0  0  0  0
 31 74  1  0  0  0  0
 31 78  2  0  0  0  0
 32 46  1  0  0  0  0
 32 75  1  0  0  0  0
 32 79  2  0  0  0  0
 33 60  1  0  0  0  0
 33 71  1  0  0  0  0
 33 80  2  0  0  0  0
 34 65  1  0  0  0  0
 34 72  1  0  0  0  0
 34 81  2  0  0  0  0
 35 61  1  0  0  0  0
 35 76  1  0  0  0  0
 35 82  2  0  0  0  0
 36 39  1  0  0  0  0
 37 46  1  0  0  0  0
 38 71  1  0  0  0  0
 39 41  1  0  0  0  0
 40 42  1  0  0  0  0
 40 43  1  0  0  0  0
 41 45  1  0  0  0  0
 42 47  1  0  0  0  0
 43 72  1  0  0  0  0
 44 47  1  0  0  0  0
 44 72  1  0  0  0  0
 45 75  1  0  0  0  0
 46 71  1  0  0  0  0
 47 70  1  0  0  0  0
 48 56  1  0  0  0  0
 49 61  1  0  0  0  0
 50 62  1  0  0  0  0
 51 65  1  0  0  0  0
 52 66  1  0  0  0  0
 53 66  1  0  0  0  0
 54 66  1  0  0  0  0
 55 77  1  0  0  0  0
 56 63  1  0  0  0  0
 57 58  1  0  0  0  0
 57 62  1  0  0  0  0
 58 64  1  0  0  0  0
 59 64  1  0  0  0  0
 59 84  1  0  0  0  0
 60 66  1  0  0  0  0
 60 76  1  0  0  0  0
 61 77  1  0  0  0  0
 62 63  1  0  0  0  0
 63 65  1  0  0  0  0
 64 87  1  0  0  0  0
 65 69  1  0  0  0  0
 68 70  1  0  0  0  0
M  CHG  1  77   1
M  ISO  4  34 100  59 101  65 100  84 101
M  END
> <Batch ID>
0070

> <Smiles>
CCC(C(C)CCC(F)[101CH2:1][101O:1]c1ccc2c(c1)CN(C(=O)C(NC(=O)C(C)NC)C(C)(C)C)C(C(=O)NC1CCCc3ccccc31)C2)[100C:0](C)([100C:0](=O)N1CCCC(n2nc(-c3ccc(Oc4ccc(F)cc4F)cc3)c(C(N)=O)c2N)C1)n1ccnc1

> <Shape>
0.297

> <Color>
0.053

> <Negative vol penalty>
0.000

$$$$

  -OEChem-04052318193D

 86 94  0     1  0  0  0  0  0999 V2000
  -29.7789  -12.1065   20.2937 C   0  0  0  0  0  0  0  0  0  0  0  0
  -29.7435  -13.3869   20.8365 C   0  0  0  0  0  0  0  0  0  0  0  0
  -28.3669  -26.3039   18.9177 C   0  0  0  0  0  0  0  0  0  0  0  0
  -26.5418  -25.2278   20.0788 C   0  0  0  0  0  0  0  0  0  0  0  0
  -28.8598  -11.7416   19.3108 C   0  0  0  0  0  0  0  0  0  0  0  0
  -28.7895  -14.3036   20.3959 C   0  0  0  0  0  0  0  0  0  0  0  0
  -24.8006  -19.7721   22.7413 C   0  0  0  0  0  0  0  0  0  0  0  0
  -28.9169  -25.0558   18.6255 C   0  0  0  0  0  0  0  0  0  0  0  0
  -27.0917  -23.9797   19.7865 C   0  0  0  0  0  0  0  0  0  0  0  0
  -24.4943  -21.0950   22.4255 C   0  0  0  0  0  0  0  0  0  0  0  0
  -28.2036  -20.5218   19.6565 C   0  0  0  0  0  0  0  0  0  0  0  0
  -28.2547  -19.5793   20.6834 C   0  0  0  0  0  0  0  0  0  0  0  0
  -22.9064  -20.3280   20.7794 C   0  0  0  0  0  0  0  0  0  0  0  0
  -29.6342  -21.0743   21.9868 C   0  0  0  0  0  0  0  0  0  0  0  0
  -20.5509  -28.8884   23.5118 C   0  0  0  0  0  0  0  0  0  0  0  0
  -27.1794  -26.3899   19.6445 C   0  0  0  0  0  0  0  0  0  0  0  0
  -25.6886  -28.4049   19.1702 C   0  0  0  0  0  0  0  0  0  0  0  0
  -27.8879  -12.6511   18.8649 C   0  0  0  0  0  0  0  0  0  0  0  0
  -24.1690  -18.7154   22.0698 C   0  0  0  0  0  0  0  0  0  0  0  0
  -27.8574  -13.9509   19.4052 C   0  0  0  0  0  0  0  0  0  0  0  0
  -23.2046  -18.9926   21.0904 C   0  0  0  0  0  0  0  0  0  0  0  0
  -28.2793  -23.8937   19.0598 C   0  0  0  0  0  0  0  0  0  0  0  0
  -23.5492  -21.3732   21.4424 C   0  0  0  0  0  0  0  0  0  0  0  0
  -28.8678  -21.7406   19.7947 C   0  0  0  0  0  0  0  0  0  0  0  0
  -28.9700  -19.8555   21.8486 C   0  0  0  0  0  0  0  0  0  0  0  0
  -29.5831  -22.0168   20.9599 C   0  0  0  0  0  0  0  0  0  0  0  0
  -26.6111  -27.6789   19.9472 C   0  0  0  0  0  0  0  0  0  0  0  0
  -20.5297  -29.8600   24.4916 C   0  0  0  0  0  0  0  0  0  0  0  0
  -21.4445  -27.8564   23.7136 C   0  0  0  0  0  0  0  0  0  0  0  0
  -25.4657  -29.5549   19.8874 C   0  0  0  0  0  0  0  0  0  0  0  0
  -22.1442  -28.7778   25.6703 C   0  0  0  0  0  0  0  0  0  0  0  0
  -25.0869  -28.0697   17.9128 C   0  0  0  0  0  0  0  0  0  0  0  0
  -25.1516  -16.3371   20.2039 C   0  0  0  0  0  0  0  0  0  0  0  0
  -22.0504  -15.4093   20.4148 C   0  0  0  0  0  0  0  0  0  0  0  0
  -18.7983  -16.2779   20.9768 C   0  0  0  0  0  0  0  0  0  0  0  0
  -25.9330  -30.8866   25.7063 C   0  0  0  0  0  0  0  0  0  0  0  0
  -26.9456  -12.2262   17.7667 C   0  0  0  0  0  0  0  0  0  0  0  0
  -24.4911  -17.2938   22.4409 C   0  0  0  0  0  0  0  0  0  0  0  0
  -22.4833  -17.8941   20.3544 C   0  0  0  0  0  0  0  0  0  0  0  0
  -25.7281  -13.1358   17.6229 C   0  0  0  0  0  0  0  0  0  0  0  0
  -27.5950  -32.4980   23.0011 C   0  0  0  0  0  0  0  0  0  0  0  0
  -26.1515  -14.6012   17.6409 C   0  0  0  0  0  0  0  0  0  0  0  0
  -27.4480  -31.5112   21.8415 C   0  0  0  0  0  0  0  0  0  0  0  0
  -27.7922  -31.7781   24.3333 C   0  0  0  0  0  0  0  0  0  0  0  0
  -26.6173  -29.7823   23.4907 C   0  0  0  0  0  0  0  0  0  0  0  0
  -26.8218  -14.9655   18.9711 C   0  0  1  0  0  0  0  0  0  0  0  0
  -24.1614  -16.2978   21.3334 C   0  0  1  0  0  0  0  0  0  0  0  0
  -26.3602  -30.4603   22.1340 C   0  0  2  0  0  0  0  0  0  0  0  0
  -19.5955  -31.0157   24.3609 C   0  0  0  0  0  0  0  0  0  0  0  0
  -16.4840  -15.3099   21.0430 C   0  0  0  0  0  0  0  0  0  0  0  0
  -22.2016  -28.6718   28.1710 C   0  0  0  0  0  0  0  0  0  0  0  0
  -21.9922  -15.3463   17.3648 C   0  0  0  0  0  0  0  0  0  0  0  0
  -19.4915  -15.3170   17.4826 C   0  0  0  0  0  0  0  0  0  0  0  0
  -20.8069  -13.4417   18.4704 C   0  0  0  0  0  0  0  0  0  0  0  0
  -18.4535  -16.9972   23.8268 C   0  0  0  0  0  0  0  0  0  0  0  0
  -22.3881  -24.7660   21.9446 C   0  0  0  0  0  0  0  0  0  0  0  0
  -24.0410  -29.8858   26.9624 C   0  0  0  0  0  0  0  0  0  0  0  0
  -23.3700  -23.6283   22.1762 C   0  0  0  0  0  0  0  0  0  1  0  0
  -22.4628  -25.8145   23.0434 C   0  0  0  0  0  0  0  0  0  0  0  0
  -20.7944  -15.6904   19.6259 C   0  0  1  0  0  0  0  0  0  0  0  0
  -17.7256  -15.6537   21.8510 C   0  0  2  0  0  0  0  0  0  0  0  0
  -23.0289  -28.7163   26.8690 C   0  0  2  0  0  0  0  0  0  0  0  0
  -20.7861  -14.9698   18.2482 C   0  0  0  0  0  0  0  0  0  0  0  0
  -26.9511  -28.3144   21.0717 N   0  0  0  0  0  0  0  0  0  0  0  0
  -21.3155  -29.8360   25.5881 N   0  0  0  0  0  0  0  0  0  0  0  0
  -22.2594  -27.7692   24.7853 N   0  0  0  0  0  0  0  0  0  0  0  0
  -26.2384  -29.4520   21.0065 N   0  0  0  0  0  0  0  0  0  0  0  0
  -22.8375  -16.5205   20.7486 N   0  0  0  0  0  0  0  0  0  0  0  0
  -26.7267  -30.7966   24.5508 N   0  0  0  0  0  0  0  0  0  0  0  0
  -24.6861  -30.6340   19.6635 N   0  0  0  0  0  0  0  0  0  0  0  0
  -25.4266  -26.8490   17.3138 N   0  0  0  0  0  0  0  0  0  0  0  0
  -25.8262  -15.1476   20.0056 N   0  0  0  0  0  0  0  0  0  0  0  0
  -19.6782  -15.3322   20.4944 N   0  0  0  0  0  0  0  0  0  0  0  0
  -24.9418  -29.9210   25.8318 N   0  0  0  0  0  0  0  0  0  0  0  0
  -17.3329  -16.5931   22.9393 N   0  3  0  0  0  0  0  0  0  0  0  0
  -24.2846  -28.8376   17.3294 O   0  0  0  0  0  0  0  0  0  0  0  0
  -25.2919  -17.3696   19.5590 O   0  0  0  0  0  0  0  0  0  0  0  0
  -22.3194  -14.2473   20.7296 O   0  0  0  0  0  0  0  0  0  0  0  0
  -18.8483  -17.4833   20.7421 O   0  0  0  0  0  0  0  0  0  0  0  0
  -26.0923  -31.7657   26.5599 O   0  0  0  0  0  0  0  0  0  0  0  0
  -28.8155  -22.6756   18.7745 O   0  0  0  0  0  0  0  0  0  0  0  0
  -23.2488  -22.6636   21.1317 O   0  0  0  0  0  0  0  0  0  1  0  0
  -21.5260  -26.8515   22.7851 O   0  0  0  0  0  0  0  0  0  0  0  0
  -29.0177  -18.9509   22.8353 F   0  0  0  0  0  0  0  0  0  0  0  0
  -30.2223  -23.1864   21.0989 F   0  0  0  0  0  0  0  0  0  0  0  0
  -23.8032  -27.5677   26.9135 F   0  0  0  0  0  0  0  0  0  0  0  0
  1  2  1  0  0  0  0
  1  5  2  0  0  0  0
  2  6  2  0  0  0  0
  3  8  2  0  0  0  0
  3 16  1  0  0  0  0
  4  9  1  0  0  0  0
  4 16  2  0  0  0  0
  5 18  1  0  0  0  0
  6 20  1  0  0  0  0
  7 10  2  0  0  0  0
  7 19  1  0  0  0  0
  8 22  1  0  0  0  0
  9 22  2  0  0  0  0
 10 23  1  0  0  0  0
 11 12  2  0  0  0  0
 11 24  1  0  0  0  0
 12 25  1  0  0  0  0
 13 21  1  0  0  0  0
 13 23  2  0  0  0  0
 14 25  2  0  0  0  0
 14 26  1  0  0  0  0
 15 28  2  0  0  0  0
 15 29  1  0  0  0  0
 16 27  1  0  0  0  0
 17 27  1  0  0  0  0
 17 30  2  0  0  0  0
 17 32  1  0  0  0  0
 18 20  2  0  0  0  0
 18 37  1  0  0  0  0
 19 21  2  0  0  0  0
 19 38  1  0  0  0  0
 20 46  1  0  0  0  0
 21 39  1  0  0  0  0
 22 81  1  0  0  0  0
 23 82  1  0  0  0  0
 24 26  2  0  0  0  0
 24 81  1  0  0  0  0
 25 84  1  0  0  0  0
 26 85  1  0  0  0  0
 27 64  2  0  0  0  0
 28 49  1  0  0  0  0
 28 65  1  0  0  0  0
 29 66  2  0  0  0  0
 29 83  1  0  0  0  0
 30 67  1  0  0  0  0
 30 70  1  0  0  0  0
 31 62  1  0  0  0  0
 31 65  2  0  0  0  0
 31 66  1  0  0  0  0
 32 71  1  0  0  0  0
 32 76  2  0  0  0  0
 33 47  1  0  0  0  0
 33 72  1  0  0  0  0
 33 77  2  0  0  0  0
 34 60  1  0  0  0  0
 34 68  1  0  0  0  0
 34 78  2  0  0  0  0
 35 61  1  0  0  0  0
 35 73  1  0  0  0  0
 35 79  2  0  0  0  0
 36 69  1  0  0  0  0
 36 74  1  0  0  0  0
 36 80  2  0  0  0  0
 37 40  1  0  0  0  0
 38 47  1  0  0  0  0
 39 68  1  0  0  0  0
 40 42  1  0  0  0  0
 41 43  1  0  0  0  0
 41 44  1  0  0  0  0
 42 46  1  0  0  0  0
 43 48  1  0  0  0  0
 44 69  1  0  0  0  0
 45 48  1  0  0  0  0
 45 69  1  0  0  0  0
 46 72  1  0  0  0  0
 47 68  1  0  0  0  0
 48 67  1  0  0  0  0
 50 61  1  0  0  0  0
 51 62  1  0  0  0  0
 52 63  1  0  0  0  0
 53 63  1  0  0  0  0
 54 63  1  0  0  0  0
 55 75  1  0  0  0  0
 56 58  1  0  0  0  0
 56 59  1  0  0  0  0
 57 62  1  0  0  0  0
 57 74  1  0  0  0  0
 58 82  1  0  0  0  0
 59 83  1  0  0  0  0
 60 63  1  0  0  0  0
 60 73  1  0  0  0  0
 61 75  1  0  0  0  0
 62 86  1  0  0  0  0
 64 67  1  0  0  0  0
M  CHG  1  75   1
M  ISO  4  36 100  58 101  74 100  82 101
M  END
> <Batch ID>
0070

> <Smiles>
CNC(C)C(=O)NC(C(=O)N1Cc2cc([101O:1][101CH2:1]CCOc3cc(C)nc(C(C)(F)C[100NH:0][100C:0](=O)N4CCCC(n5nc(-c6ccc(Oc7ccc(F)cc7F)cc6)c(C(N)=O)c5N)C4)n3)ccc2CC1C(=O)NC1CCCc2ccccc21)C(C)(C)C

> <Shape>
0.231

> <Color>
0.078

> <Negative vol penalty>
0.000

$$$$

  -OEChem-04052318193D

 84 92  0     1  0  0  0  0  0999 V2000
  -23.3838   -7.9179   22.1328 C   0  0  0  0  0  0  0  0  0  0  0  0
  -24.0974   -8.8355   21.3684 C   0  0  0  0  0  0  0  0  0  0  0  0
  -25.0016  -31.5486   22.4079 C   0  0  0  0  0  0  0  0  0  0  0  0
  -27.1004  -31.4202   21.2182 C   0  0  0  0  0  0  0  0  0  0  0  0
  -22.0934   -8.2244   22.5626 C   0  0  0  0  0  0  0  0  0  0  0  0
  -23.5205  -10.0597   21.0325 C   0  0  0  0  0  0  0  0  0  0  0  0
  -26.7047  -13.9464   21.6644 C   0  0  0  0  0  0  0  0  0  0  0  0
  -25.2178  -32.9063   22.6429 C   0  0  0  0  0  0  0  0  0  0  0  0
  -27.3166  -32.7780   21.4531 C   0  0  0  0  0  0  0  0  0  0  0  0
  -27.6740  -14.1417   20.6816 C   0  0  0  0  0  0  0  0  0  0  0  0
  -27.0461  -34.8077   24.7563 C   0  0  0  0  0  0  0  0  0  0  0  0
  -26.7994  -35.2895   26.0418 C   0  0  0  0  0  0  0  0  0  0  0  0
  -26.3240  -15.8864   19.7054 C   0  0  0  0  0  0  0  0  0  0  0  0
  -25.1424  -36.8077   25.1549 C   0  0  0  0  0  0  0  0  0  0  0  0
  -29.2310  -19.3441   18.2675 C   0  0  0  0  0  0  0  0  0  0  0  0
  -30.7566  -19.2661   20.0347 C   0  0  0  0  0  0  0  0  0  0  0  0
  -25.9429  -30.8055   21.6956 C   0  0  0  0  0  0  0  0  0  0  0  0
  -25.0610  -28.8246   20.3517 C   0  0  0  0  0  0  0  0  0  0  0  0
  -21.5040   -9.4569   22.2399 C   0  0  0  0  0  0  0  0  0  0  0  0
  -25.5308  -14.7135   21.6688 C   0  0  0  0  0  0  0  0  0  0  0  0
  -22.2205  -10.3824   21.4573 C   0  0  0  0  0  0  0  0  0  0  0  0
  -25.3425  -15.7007   20.6909 C   0  0  0  0  0  0  0  0  0  0  0  0
  -29.8349  -20.0028   19.3191 C   0  0  0  0  0  0  0  0  0  0  0  0
  -26.3753  -33.5211   22.1655 C   0  0  0  0  0  0  0  0  0  0  0  0
  -27.4825  -15.1098   19.7001 C   0  0  0  0  0  0  0  0  0  0  0  0
  -26.3410  -35.3260   23.6700 C   0  0  0  0  0  0  0  0  0  0  0  0
  -25.8476  -36.2895   26.2411 C   0  0  0  0  0  0  0  0  0  0  0  0
  -25.3891  -36.3259   23.8693 C   0  0  0  0  0  0  0  0  0  0  0  0
  -25.7204  -29.4027   21.4530 C   0  0  0  0  0  0  0  0  0  0  0  0
  -25.1146  -27.4730   20.5903 C   0  0  0  0  0  0  0  0  0  0  0  0
  -30.4157  -17.4541   18.7052 C   0  0  0  0  0  0  0  0  0  0  0  0
  -24.4544  -29.4530   19.2147 C   0  0  0  0  0  0  0  0  0  0  0  0
  -22.4302  -14.0708   21.3911 C   0  0  0  0  0  0  0  0  0  0  0  0
  -22.1138  -17.2298   22.0568 C   0  0  0  0  0  0  0  0  0  0  0  0
  -23.5040  -20.3466   22.0449 C   0  0  0  0  0  0  0  0  0  0  0  0
  -27.9252  -22.9172   22.1685 C   0  0  0  0  0  0  0  0  0  0  0  0
  -20.0887   -9.7240   22.6873 C   0  0  0  0  0  0  0  0  0  0  0  0
  -24.5070  -14.5089   22.7516 C   0  0  0  0  0  0  0  0  0  0  0  0
  -24.1090  -16.5645   20.6633 C   0  0  0  0  0  0  0  0  0  0  0  0
  -19.6912  -11.1956   22.6046 C   0  0  0  0  0  0  0  0  0  0  0  0
  -26.4745  -24.9129   24.7355 C   0  0  0  0  0  0  0  0  0  0  0  0
  -20.1155  -11.7887   21.2648 C   0  0  0  0  0  0  0  0  0  0  0  0
  -26.1007  -26.2127   24.0210 C   0  0  0  0  0  0  0  0  0  0  0  0
  -27.7796  -24.3291   24.1987 C   0  0  0  0  0  0  0  0  0  0  0  0
  -27.4427  -25.4356   22.0225 C   0  0  0  0  0  0  0  0  0  0  0  0
  -21.6382  -11.7310   21.0933 C   0  0  1  0  0  0  0  0  0  0  0  0
  -23.1155  -14.9947   22.3578 C   0  0  1  0  0  0  0  0  0  0  0  0
  -26.1047  -26.0328   22.4910 C   0  0  2  0  0  0  0  0  0  0  0  0
  -29.8863  -22.3870   18.5211 C   0  0  0  0  0  0  0  0  0  0  0  0
  -23.7088  -22.8065   22.4965 C   0  0  0  0  0  0  0  0  0  0  0  0
  -32.1974  -15.5822   18.7080 C   0  0  0  0  0  0  0  0  0  0  0  0
  -30.5786  -15.7846   16.8329 C   0  0  0  0  0  0  0  0  0  0  0  0
  -20.4261  -17.4661   19.5259 C   0  0  0  0  0  0  0  0  0  0  0  0
  -20.7434  -19.9474   19.6297 C   0  0  0  0  0  0  0  0  0  0  0  0
  -19.5620  -18.7643   21.4810 C   0  0  0  0  0  0  0  0  0  0  0  0
  -24.7240  -19.8755   24.6999 C   0  0  0  0  0  0  0  0  0  0  0  0
  -28.0266  -21.6334   20.0470 C   0  0  0  0  0  0  0  0  0  0  0  0
  -29.7813  -15.0299   19.0961 C   0  0  0  0  0  0  0  0  0  1  0  0
  -29.5121  -21.4097   19.6593 C   0  0  1  0  0  0  0  0  0  0  0  0
  -22.0639  -18.4956   21.2357 C   0  0  1  0  0  0  0  0  0  0  0  0
  -23.5724  -21.4230   23.1131 C   0  0  2  0  0  0  0  0  0  0  0  0
  -30.7469  -15.9911   18.3559 C   0  0  0  0  0  0  0  0  0  0  0  0
  -20.7213  -18.6510   20.4672 C   0  0  0  0  0  0  0  0  0  0  0  0
  -29.4986  -18.0652   17.9313 N   0  0  0  0  0  0  0  0  0  0  0  0
  -31.0723  -17.9847   19.7545 N   0  0  0  0  0  0  0  0  0  0  0  0
  -26.1604  -28.4929   22.3263 N   0  0  0  0  0  0  0  0  0  0  0  0
  -25.7767  -27.3294   21.7740 N   0  0  0  0  0  0  0  0  0  0  0  0
  -23.1342  -16.3220   21.7396 N   0  0  0  0  0  0  0  0  0  0  0  0
  -27.7173  -24.1822   22.7425 N   0  0  0  0  0  0  0  0  0  0  0  0
  -24.6594  -26.4053   19.9009 N   0  0  0  0  0  0  0  0  0  0  0  0
  -24.4891  -30.8514   19.1266 N   0  0  0  0  0  0  0  0  0  0  0  0
  -22.2734  -12.7808   21.8608 N   0  0  0  0  0  0  0  0  0  0  0  0
  -22.3564  -19.5902   22.1549 N   0  0  0  0  0  0  0  0  0  0  0  0
  -27.8425  -22.8647   20.7824 N   0  0  0  0  0  0  0  0  0  0  0  0
  -24.7406  -21.1905   24.0088 N   0  3  0  0  0  0  0  0  0  0  0  0
  -23.8837  -28.7950   18.3121 O   0  0  0  0  0  0  0  0  0  0  0  0
  -22.0691  -14.4972   20.3005 O   0  0  0  0  0  0  0  0  0  0  0  0
  -21.2826  -17.0562   22.9515 O   0  0  0  0  0  0  0  0  0  0  0  0
  -24.3791  -20.1944   21.1955 O   0  0  0  0  0  0  0  0  0  0  0  0
  -28.1613  -21.9082   22.8417 O   0  0  0  0  0  0  0  0  0  0  0  0
  -26.5865  -34.8461   22.3944 O   0  0  0  0  0  0  0  0  0  0  0  0
  -28.4267  -15.3021   18.7392 O   0  0  0  0  0  0  0  0  0  1  0  0
  -25.6097  -36.7509   27.4759 F   0  0  0  0  0  0  0  0  0  0  0  0
  -24.7078  -36.8269   22.8298 F   0  0  0  0  0  0  0  0  0  0  0  0
  1  2  1  0  0  0  0
  1  5  2  0  0  0  0
  2  6  2  0  0  0  0
  3  8  2  0  0  0  0
  3 17  1  0  0  0  0
  4  9  1  0  0  0  0
  4 17  2  0  0  0  0
  5 19  1  0  0  0  0
  6 21  1  0  0  0  0
  7 10  2  0  0  0  0
  7 20  1  0  0  0  0
  8 24  1  0  0  0  0
  9 24  2  0  0  0  0
 10 25  1  0  0  0  0
 11 12  2  0  0  0  0
 11 26  1  0  0  0  0
 12 27  1  0  0  0  0
 13 22  1  0  0  0  0
 13 25  2  0  0  0  0
 14 27  2  0  0  0  0
 14 28  1  0  0  0  0
 15 23  1  0  0  0  0
 15 64  2  0  0  0  0
 16 23  2  0  0  0  0
 16 65  1  0  0  0  0
 17 29  1  0  0  0  0
 18 29  1  0  0  0  0
 18 30  2  0  0  0  0
 18 32  1  0  0  0  0
 19 21  2  0  0  0  0
 19 37  1  0  0  0  0
 20 22  2  0  0  0  0
 20 38  1  0  0  0  0
 21 46  1  0  0  0  0
 22 39  1  0  0  0  0
 23 59  1  0  0  0  0
 24 81  1  0  0  0  0
 25 82  1  0  0  0  0
 26 28  2  0  0  0  0
 26 81  1  0  0  0  0
 27 83  1  0  0  0  0
 28 84  1  0  0  0  0
 29 66  2  0  0  0  0
 30 67  1  0  0  0  0
 30 70  1  0  0  0  0
 31 62  1  0  0  0  0
 31 64  1  0  0  0  0
 31 65  2  0  0  0  0
 32 71  1  0  0  0  0
 32 76  2  0  0  0  0
 33 47  1  0  0  0  0
 33 72  1  0  0  0  0
 33 77  2  0  0  0  0
 34 60  1  0  0  0  0
 34 68  1  0  0  0  0
 34 78  2  0  0  0  0
 35 61  1  0  0  0  0
 35 73  1  0  0  0  0
 35 79  2  0  0  0  0
 36 69  1  0  0  0  0
 36 74  1  0  0  0  0
 36 80  2  0  0  0  0
 37 40  1  0  0  0  0
 38 47  1  0  0  0  0
 39 68  1  0  0  0  0
 40 42  1  0  0  0  0
 41 43  1  0  0  0  0
 41 44  1  0  0  0  0
 42 46  1  0  0  0  0
 43 48  1  0  0  0  0
 44 69  1  0  0  0  0
 45 48  1  0  0  0  0
 45 69  1  0  0  0  0
 46 72  1  0  0  0  0
 47 68  1  0  0  0  0
 48 67  1  0  0  0  0
 49 59  1  0  0  0  0
 50 61  1  0  0  0  0
 51 62  1  0  0  0  0
 52 62  1  0  0  0  0
 53 63  1  0  0  0  0
 54 63  1  0  0  0  0
 55 63  1  0  0  0  0
 56 75  1  0  0  0  0
 57 59  1  0  0  0  0
 57 74  1  0  0  0  0
 58 62  1  0  0  0  0
 58 82  1  0  0  0  0
 60 63  1  0  0  0  0
 60 73  1  0  0  0  0
 61 75  1  0  0  0  0
 66 67  1  0  0  0  0
M  CHG  1  75   1
M  ISO  4  36 100  58 101  74 100  82 101
M  END
> <Batch ID>
0070

> <Smiles>
CNC(C)C(=O)NC(C(=O)N1Cc2cc([101O:1][101CH2:1]C(C)(C)c3ncc(C(C)C[100NH:0][100C:0](=O)N4CCCC(n5nc(-c6ccc(Oc7ccc(F)cc7F)cc6)c(C(N)=O)c5N)C4)cn3)ccc2CC1C(=O)NC1CCCc2ccccc21)C(C)(C)C

> <Shape>
0.217

> <Color>
0.075

> <Negative vol penalty>
0.000

$$$$

  -OEChem-04052318193D

 83 91  0     1  0  0  0  0  0999 V2000
  -19.1154  -28.3689   26.4873 C   0  0  0  0  0  0  0  0  0  0  0  0
  -20.5013  -28.3502   26.3673 C   0  0  0  0  0  0  0  0  0  0  0  0
  -27.0006  -14.9677   21.8331 C   0  0  0  0  0  0  0  0  0  0  0  0
  -26.2225  -15.3535   19.5787 C   0  0  0  0  0  0  0  0  0  0  0  0
  -18.3167  -28.1569   25.3643 C   0  0  0  0  0  0  0  0  0  0  0  0
  -21.0893  -28.1184   25.1243 C   0  0  0  0  0  0  0  0  0  0  0  0
  -26.2913  -30.5547   23.0008 C   0  0  0  0  0  0  0  0  0  0  0  0
  -26.6300  -13.6268   21.7316 C   0  0  0  0  0  0  0  0  0  0  0  0
  -25.8519  -14.0126   19.4771 C   0  0  0  0  0  0  0  0  0  0  0  0
  -27.5970  -30.0700   22.9382 C   0  0  0  0  0  0  0  0  0  0  0  0
  -23.7881  -11.8072   21.9226 C   0  0  0  0  0  0  0  0  0  0  0  0
  -23.1027  -11.2418   22.9979 C   0  0  0  0  0  0  0  0  0  0  0  0
  -27.2168  -29.3563   20.6655 C   0  0  0  0  0  0  0  0  0  0  0  0
  -24.8707   -9.6178   23.2707 C   0  0  0  0  0  0  0  0  0  0  0  0
  -29.0965  -24.7607   19.2993 C   0  0  0  0  0  0  0  0  0  0  0  0
  -26.7968  -15.8311   20.7567 C   0  0  0  0  0  0  0  0  0  0  0  0
  -28.4241  -17.7823   20.5280 C   0  0  0  0  0  0  0  0  0  0  0  0
  -18.8952  -27.9319   24.1052 C   0  0  0  0  0  0  0  0  0  0  0  0
  -25.4336  -30.4339   21.8980 C   0  0  0  0  0  0  0  0  0  0  0  0
  -20.2976  -27.9018   23.9837 C   0  0  0  0  0  0  0  0  0  0  0  0
  -25.9014  -29.8426   20.7157 C   0  0  0  0  0  0  0  0  0  0  0  0
  -26.0557  -13.1492   20.5536 C   0  0  0  0  0  0  0  0  0  0  0  0
  -28.0590  -29.4681   21.7714 C   0  0  0  0  0  0  0  0  0  0  0  0
  -25.0147  -11.2779   21.5213 C   0  0  0  0  0  0  0  0  0  0  0  0
  -23.6440  -10.1471   23.6720 C   0  0  0  0  0  0  0  0  0  0  0  0
  -25.5560  -10.1832   22.1954 C   0  0  0  0  0  0  0  0  0  0  0  0
  -27.1788  -17.2164   20.8611 C   0  0  0  0  0  0  0  0  0  0  0  0
  -28.2016  -23.7846   19.6593 C   0  0  0  0  0  0  0  0  0  0  0  0
  -28.2789  -19.1195   20.8060 C   0  0  0  0  0  0  0  0  0  0  0  0
  -29.6062  -17.1553   20.0131 C   0  0  0  0  0  0  0  0  0  0  0  0
  -22.6710  -28.9581   21.3561 C   0  0  0  0  0  0  0  0  0  0  0  0
  -22.8469  -30.5091   18.5125 C   0  0  0  0  0  0  0  0  0  0  0  0
  -25.2349  -23.8030   20.5096 C   0  0  0  0  0  0  0  0  0  0  0  0
  -24.7960  -32.0057   16.1444 C   0  0  0  0  0  0  0  0  0  0  0  0
  -17.9911  -27.6609   22.9289 C   0  0  0  0  0  0  0  0  0  0  0  0
  -24.0364  -30.9858   21.9725 C   0  0  0  0  0  0  0  0  0  0  0  0
  -25.0268  -29.7067   19.4971 C   0  0  0  0  0  0  0  0  0  0  0  0
  -18.6913  -27.7944   21.5790 C   0  0  0  0  0  0  0  0  0  0  0  0
  -24.6379  -21.6019   23.2734 C   0  0  0  0  0  0  0  0  0  0  0  0
  -20.0334  -27.0697   21.5997 C   0  0  0  0  0  0  0  0  0  0  0  0
  -25.3219  -20.3022   22.8515 C   0  0  0  0  0  0  0  0  0  0  0  0
  -24.0240  -22.3235   22.0777 C   0  0  0  0  0  0  0  0  0  0  0  0
  -25.6758  -21.2979   20.5475 C   0  0  0  0  0  0  0  0  0  0  0  0
  -20.9728  -27.6782   22.6479 C   0  0  1  0  0  0  0  0  0  0  0  0
  -23.0871  -30.3474   20.9632 C   0  0  1  0  0  0  0  0  0  0  0  0
  -26.3359  -20.5529   21.7212 C   0  0  2  0  0  0  0  0  0  0  0  0
  -27.4443  -23.0491   17.3659 C   0  0  0  0  0  0  0  0  0  0  0  0
  -24.6587  -33.1465   13.9135 C   0  0  0  0  0  0  0  0  0  0  0  0
  -24.5660  -23.2616   18.2094 C   0  0  0  0  0  0  0  0  0  0  0  0
  -25.7450  -25.4001   18.7616 C   0  0  0  0  0  0  0  0  0  0  0  0
  -22.4650  -27.8033   17.1552 C   0  0  0  0  0  0  0  0  0  0  0  0
  -23.2749  -28.8366   15.0234 C   0  0  0  0  0  0  0  0  0  0  0  0
  -21.1942  -29.6849   16.1068 C   0  0  0  0  0  0  0  0  0  0  0  0
  -25.9035  -34.5246   17.2342 C   0  0  0  0  0  0  0  0  0  0  0  0
  -30.7285  -27.0639   21.4170 C   0  0  0  0  0  0  0  0  0  0  0  0
  -31.0586  -25.8207   20.5880 C   0  0  0  0  0  0  0  0  0  0  0  0
  -29.5673  -27.8748   20.8537 C   0  0  0  0  0  0  0  0  0  1  0  0
  -27.0968  -23.2103   18.8805 C   0  0  2  0  0  0  0  0  0  0  0  0
  -23.4359  -30.1956   17.1584 C   0  0  1  0  0  0  0  0  0  0  0  0
  -24.6624  -33.3345   15.4226 C   0  0  2  0  0  0  0  0  0  0  0  0
  -25.6706  -23.8936   19.0688 C   0  0  0  0  0  0  0  0  0  0  0  0
  -22.6086  -29.1308   16.3844 C   0  0  0  0  0  0  0  0  0  0  0  0
  -26.3069  -18.1202   21.3162 N   0  0  0  0  0  0  0  0  0  0  0  0
  -28.4708  -23.3610   20.9311 N   0  0  0  0  0  0  0  0  0  0  0  0
  -29.5147  -24.0503   21.3786 N   0  0  0  0  0  0  0  0  0  0  0  0
  -29.8882  -24.8891   20.3988 N   0  0  0  0  0  0  0  0  0  0  0  0
  -27.0053  -19.2675   21.2710 N   0  0  0  0  0  0  0  0  0  0  0  0
  -23.6666  -30.2561   19.6215 N   0  0  0  0  0  0  0  0  0  0  0  0
  -25.0132  -22.5226   21.0170 N   0  0  0  0  0  0  0  0  0  0  0  0
  -29.1178  -20.1714   20.6957 N   0  0  0  0  0  0  0  0  0  0  0  0
  -29.5838  -15.7726   19.7851 N   0  0  0  0  0  0  0  0  0  0  0  0
  -21.5458  -28.9131   22.1569 N   0  0  0  0  0  0  0  0  0  0  0  0
  -23.5654  -31.4722   16.4641 N   0  0  0  0  0  0  0  0  0  0  0  0
  -25.7945  -34.2349   15.7812 N   0  3  0  0  0  0  0  0  0  0  0  0
  -30.6567  -17.7993   19.7783 O   0  0  0  0  0  0  0  0  0  0  0  0
  -23.3216  -27.9979   20.9606 O   0  0  0  0  0  0  0  0  0  0  0  0
  -21.7043  -30.9685   18.5833 O   0  0  0  0  0  0  0  0  0  0  0  0
  -25.0990  -24.8402   21.1637 O   0  0  0  0  0  0  0  0  0  0  0  0
  -25.8832  -31.4907   16.3960 O   0  0  0  0  0  0  0  0  0  0  0  0
  -25.6942  -11.8408   20.4541 O   0  0  0  0  0  0  0  0  0  0  0  0
  -29.3329  -28.9936   21.7079 O   0  0  0  0  0  0  0  0  0  1  0  0
  -22.9865   -9.6052   24.7055 F   0  0  0  0  0  0  0  0  0  0  0  0
  -26.7346   -9.6711   21.8153 F   0  0  0  0  0  0  0  0  0  0  0  0
  1  2  1  0  0  0  0
  1  5  2  0  0  0  0
  2  6  2  0  0  0  0
  3  8  2  0  0  0  0
  3 16  1  0  0  0  0
  4  9  1  0  0  0  0
  4 16  2  0  0  0  0
  5 18  1  0  0  0  0
  6 20  1  0  0  0  0
  7 10  2  0  0  0  0
  7 19  1  0  0  0  0
  8 22  1  0  0  0  0
  9 22  2  0  0  0  0
 10 23  1  0  0  0  0
 11 12  2  0  0  0  0
 11 24  1  0  0  0  0
 12 25  1  0  0  0  0
 13 21  1  0  0  0  0
 13 23  2  0  0  0  0
 14 25  2  0  0  0  0
 14 26  1  0  0  0  0
 15 28  2  0  0  0  0
 15 66  1  0  0  0  0
 16 27  1  0  0  0  0
 17 27  1  0  0  0  0
 17 29  2  0  0  0  0
 17 30  1  0  0  0  0
 18 20  2  0  0  0  0
 18 35  1  0  0  0  0
 19 21  2  0  0  0  0
 19 36  1  0  0  0  0
 20 44  1  0  0  0  0
 21 37  1  0  0  0  0
 22 80  1  0  0  0  0
 23 81  1  0  0  0  0
 24 26  2  0  0  0  0
 24 80  1  0  0  0  0
 25 82  1  0  0  0  0
 26 83  1  0  0  0  0
 27 63  2  0  0  0  0
 28 58  1  0  0  0  0
 28 64  1  0  0  0  0
 29 67  1  0  0  0  0
 29 70  1  0  0  0  0
 30 71  1  0  0  0  0
 30 75  2  0  0  0  0
 31 45  1  0  0  0  0
 31 72  1  0  0  0  0
 31 76  2  0  0  0  0
 32 59  1  0  0  0  0
 32 68  1  0  0  0  0
 32 77  2  0  0  0  0
 33 61  1  0  0  0  0
 33 69  1  0  0  0  0
 33 78  2  0  0  0  0
 34 60  1  0  0  0  0
 34 73  1  0  0  0  0
 34 79  2  0  0  0  0
 35 38  1  0  0  0  0
 36 45  1  0  0  0  0
 37 68  1  0  0  0  0
 38 40  1  0  0  0  0
 39 41  1  0  0  0  0
 39 42  1  0  0  0  0
 40 44  1  0  0  0  0
 41 46  1  0  0  0  0
 42 69  1  0  0  0  0
 43 46  1  0  0  0  0
 43 69  1  0  0  0  0
 44 72  1  0  0  0  0
 45 68  1  0  0  0  0
 46 67  1  0  0  0  0
 47 58  1  0  0  0  0
 48 60  1  0  0  0  0
 49 61  1  0  0  0  0
 50 61  1  0  0  0  0
 51 62  1  0  0  0  0
 52 62  1  0  0  0  0
 53 62  1  0  0  0  0
 54 74  1  0  0  0  0
 55 56  1  0  0  0  0
 55 57  1  0  0  0  0
 56 66  1  0  0  0  0
 57 81  1  0  0  0  0
 58 61  1  0  0  0  0
 59 62  1  0  0  0  0
 59 73  1  0  0  0  0
 60 74  1  0  0  0  0
 63 67  1  0  0  0  0
 64 65  2  0  0  0  0
 65 66  1  0  0  0  0
M  CHG  1  74   1
M  ISO  4  33 100  57 101  61 100  81 101
M  END
> <Batch ID>
0070

> <Smiles>
CNC(C)C(=O)NC(C(=O)N1Cc2cc([101O:1][101CH2:1]CCn3cc(C(C)[100C:0](C)(C)[100C:0](=O)N4CCCC(n5nc(-c6ccc(Oc7ccc(F)cc7F)cc6)c(C(N)=O)c5N)C4)nn3)ccc2CC1C(=O)NC1CCCc2ccccc21)C(C)(C)C

> <Shape>
0.232

> <Color>
0.094

> <Negative vol penalty>
0.000

$$$$

  -OEChem-04052318193D

 85 93  0     1  0  0  0  0  0999 V2000
  -24.4556  -11.0536   20.4147 C   0  0  0  0  0  0  0  0  0  0  0  0
  -23.6553  -12.1358   20.0630 C   0  0  0  0  0  0  0  0  0  0  0  0
  -28.6393  -27.4380   18.8849 C   0  0  0  0  0  0  0  0  0  0  0  0
  -28.1658  -29.0820   20.5908 C   0  0  0  0  0  0  0  0  0  0  0  0
  -25.6353  -11.2632   21.1278 C   0  0  0  0  0  0  0  0  0  0  0  0
  -24.0336  -13.4282   20.4250 C   0  0  0  0  0  0  0  0  0  0  0  0
  -23.1201  -18.5658   17.2194 C   0  0  0  0  0  0  0  0  0  0  0  0
  -29.8943  -28.0113   18.6806 C   0  0  0  0  0  0  0  0  0  0  0  0
  -29.4209  -29.6554   20.3865 C   0  0  0  0  0  0  0  0  0  0  0  0
  -22.1527  -19.5660   17.3061 C   0  0  0  0  0  0  0  0  0  0  0  0
  -33.3648  -28.8209   17.9625 C   0  0  0  0  0  0  0  0  0  0  0  0
  -34.4596  -27.9635   17.8544 C   0  0  0  0  0  0  0  0  0  0  0  0
  -23.6512  -20.8902   18.6553 C   0  0  0  0  0  0  0  0  0  0  0  0
  -34.0189  -27.1208   20.0754 C   0  0  0  0  0  0  0  0  0  0  0  0
  -27.7750  -27.9734   19.8400 C   0  0  0  0  0  0  0  0  0  0  0  0
  -26.1503  -26.3519   20.9530 C   0  0  0  0  0  0  0  0  0  0  0  0
  -26.0332  -12.5597   21.4904 C   0  0  0  0  0  0  0  0  0  0  0  0
  -24.3584  -18.7159   17.8602 C   0  0  0  0  0  0  0  0  0  0  0  0
  -25.2190  -13.6551   21.1447 C   0  0  0  0  0  0  0  0  0  0  0  0
  -24.6336  -19.8915   18.5731 C   0  0  0  0  0  0  0  0  0  0  0  0
  -30.2852  -29.1200   19.4314 C   0  0  0  0  0  0  0  0  0  0  0  0
  -22.4171  -20.7271   18.0265 C   0  0  0  0  0  0  0  0  0  0  0  0
  -32.5970  -28.8283   19.1271 C   0  0  0  0  0  0  0  0  0  0  0  0
  -34.7867  -27.1134   18.9108 C   0  0  0  0  0  0  0  0  0  0  0  0
  -32.9241  -27.9783   20.1835 C   0  0  0  0  0  0  0  0  0  0  0  0
  -26.4782  -27.3819   20.0511 C   0  0  0  0  0  0  0  0  0  0  0  0
  -24.8034  -26.1530   20.7720 C   0  0  0  0  0  0  0  0  0  0  0  0
  -19.1726  -26.4362   22.4012 C   0  0  0  0  0  0  0  0  0  0  0  0
  -20.5491  -27.8787   23.0190 C   0  0  0  0  0  0  0  0  0  0  0  0
  -26.9882  -25.6388   21.8722 C   0  0  0  0  0  0  0  0  0  0  0  0
  -25.8997  -17.1501   20.1573 C   0  0  0  0  0  0  0  0  0  0  0  0
  -20.0073  -29.2247   19.6277 C   0  0  0  0  0  0  0  0  0  0  0  0
  -28.3018  -19.1950   19.4022 C   0  0  0  0  0  0  0  0  0  0  0  0
  -29.5987  -22.4359   18.4899 C   0  0  0  0  0  0  0  0  0  0  0  0
  -27.2926  -12.7322   22.3019 C   0  0  0  0  0  0  0  0  0  0  0  0
  -25.4013  -17.6393   17.7348 C   0  0  0  0  0  0  0  0  0  0  0  0
  -25.9549  -20.1102   19.2623 C   0  0  0  0  0  0  0  0  0  0  0  0
  -27.8126  -14.1673   22.3218 C   0  0  0  0  0  0  0  0  0  0  0  0
  -21.5784  -27.1441   17.1696 C   0  0  0  0  0  0  0  0  0  0  0  0
  -26.6740  -15.1439   22.5982 C   0  0  0  0  0  0  0  0  0  0  0  0
  -22.9808  -26.9189   17.7333 C   0  0  0  0  0  0  0  0  0  0  0  0
  -21.0623  -28.5415   17.4983 C   0  0  0  0  0  0  0  0  0  0  0  0
  -22.4817  -28.6439   19.5222 C   0  0  0  0  0  0  0  0  0  0  0  0
  -25.6082  -15.0743   21.4978 C   0  0  1  0  0  0  0  0  0  0  0  0
  -26.4356  -17.6758   18.8557 C   0  0  1  0  0  0  0  0  0  0  0  0
  -23.0285  -27.2335   19.2390 C   0  0  2  0  0  0  0  0  0  0  0  0
  -21.5693  -28.6853   23.7125 C   0  0  0  0  0  0  0  0  0  0  0  0
  -19.2525  -30.6173   21.5425 C   0  0  0  0  0  0  0  0  0  0  0  0
  -31.9411  -23.1670   17.9647 C   0  0  0  0  0  0  0  0  0  0  0  0
  -18.6161  -24.2084   23.5923 C   0  0  0  0  0  0  0  0  0  0  0  0
  -16.8387  -25.5331   22.4841 C   0  0  0  0  0  0  0  0  0  0  0  0
  -28.4192  -19.9502   22.3561 C   0  0  0  0  0  0  0  0  0  0  0  0
  -29.7428  -21.9760   21.7139 C   0  0  0  0  0  0  0  0  0  0  0  0
  -30.6501  -19.6983   21.2543 C   0  0  0  0  0  0  0  0  0  0  0  0
  -28.7913  -23.5315   15.8619 C   0  0  0  0  0  0  0  0  0  0  0  0
  -19.9750  -23.8314   20.8338 C   0  0  0  0  0  0  0  0  0  0  0  0
  -20.0529  -22.9800   19.5662 C   0  0  0  0  0  0  0  0  0  0  0  0
  -18.5454  -24.3414   21.0684 C   0  0  0  0  0  0  0  0  0  0  0  0
  -21.4729  -22.5025   19.2964 C   0  0  0  0  0  0  0  0  0  1  0  0
  -20.1698  -29.4780   21.1054 C   0  0  1  0  0  0  0  0  0  0  0  0
  -28.7232  -20.5679   19.8677 C   0  0  1  0  0  0  0  0  0  0  0  0
  -30.6004  -22.7371   17.3898 C   0  0  2  0  0  0  0  0  0  0  0  0
  -18.3357  -25.1439   22.3916 C   0  0  0  0  0  0  0  0  0  0  0  0
  -29.3581  -20.5434   21.2868 C   0  0  0  0  0  0  0  0  0  0  0  0
  -25.4246  -27.8075   19.3491 N   0  0  0  0  0  0  0  0  0  0  0  0
  -20.0744  -26.7120   23.3888 N   0  0  0  0  0  0  0  0  0  0  0  0
  -19.0595  -27.3590   21.4435 N   0  0  0  0  0  0  0  0  0  0  0  0
  -24.4214  -27.0411   19.8099 N   0  0  0  0  0  0  0  0  0  0  0  0
  -19.9504  -28.2706   21.8624 N   0  0  0  0  0  0  0  0  0  0  0  0
  -26.9398  -19.0258   19.1157 N   0  0  0  0  0  0  0  0  0  0  0  0
  -21.1449  -28.8099   18.9351 N   0  0  0  0  0  0  0  0  0  0  0  0
  -23.9204  -25.3068   21.3435 N   0  0  0  0  0  0  0  0  0  0  0  0
  -28.3490  -25.9693   21.9303 N   0  0  0  0  0  0  0  0  0  0  0  0
  -26.0520  -15.7862   20.3185 N   0  0  0  0  0  0  0  0  0  0  0  0
  -29.5999  -21.0996   18.8299 N   0  0  0  0  0  0  0  0  0  0  0  0
  -30.0932  -23.8297   16.5123 N   0  3  0  0  0  0  0  0  0  0  0  0
  -26.5467  -24.7240   22.6082 O   0  0  0  0  0  0  0  0  0  0  0  0
  -25.3873  -17.9247   20.9567 O   0  0  0  0  0  0  0  0  0  0  0  0
  -18.9008  -29.3884   19.1070 O   0  0  0  0  0  0  0  0  0  0  0  0
  -29.1512  -18.3075   19.2897 O   0  0  0  0  0  0  0  0  0  0  0  0
  -28.8890  -23.3003   18.9995 O   0  0  0  0  0  0  0  0  0  0  0  0
  -31.5098  -29.6796   19.2325 O   0  0  0  0  0  0  0  0  0  0  0  0
  -21.4743  -21.7047   18.1133 O   0  0  0  0  0  0  0  0  0  1  0  0
  -35.8372  -26.2890   18.8063 F   0  0  0  0  0  0  0  0  0  0  0  0
  -32.1895  -27.9800   21.3043 F   0  0  0  0  0  0  0  0  0  0  0  0
  1  2  1  0  0  0  0
  1  5  2  0  0  0  0
  2  6  2  0  0  0  0
  3  8  2  0  0  0  0
  3 15  1  0  0  0  0
  4  9  1  0  0  0  0
  4 15  2  0  0  0  0
  5 17  1  0  0  0  0
  6 19  1  0  0  0  0
  7 10  2  0  0  0  0
  7 18  1  0  0  0  0
  8 21  1  0  0  0  0
  9 21  2  0  0  0  0
 10 22  1  0  0  0  0
 11 12  2  0  0  0  0
 11 23  1  0  0  0  0
 12 24  1  0  0  0  0
 13 20  1  0  0  0  0
 13 22  2  0  0  0  0
 14 24  2  0  0  0  0
 14 25  1  0  0  0  0
 15 26  1  0  0  0  0
 16 26  1  0  0  0  0
 16 27  2  0  0  0  0
 16 30  1  0  0  0  0
 17 19  2  0  0  0  0
 17 35  1  0  0  0  0
 18 20  2  0  0  0  0
 18 36  1  0  0  0  0
 19 44  1  0  0  0  0
 20 37  1  0  0  0  0
 21 82  1  0  0  0  0
 22 83  1  0  0  0  0
 23 25  2  0  0  0  0
 23 82  1  0  0  0  0
 24 84  1  0  0  0  0
 25 85  1  0  0  0  0
 26 65  2  0  0  0  0
 27 68  1  0  0  0  0
 27 72  1  0  0  0  0
 28 63  1  0  0  0  0
 28 66  1  0  0  0  0
 28 67  2  0  0  0  0
 29 47  1  0  0  0  0
 29 66  2  0  0  0  0
 29 69  1  0  0  0  0
 30 73  1  0  0  0  0
 30 77  2  0  0  0  0
 31 45  1  0  0  0  0
 31 74  1  0  0  0  0
 31 78  2  0  0  0  0
 32 60  1  0  0  0  0
 32 71  1  0  0  0  0
 32 79  2  0  0  0  0
 33 61  1  0  0  0  0
 33 70  1  0  0  0  0
 33 80  2  0  0  0  0
 34 62  1  0  0  0  0
 34 75  1  0  0  0  0
 34 81  2  0  0  0  0
 35 38  1  0  0  0  0
 36 45  1  0  0  0  0
 37 70  1  0  0  0  0
 38 40  1  0  0  0  0
 39 41  1  0  0  0  0
 39 42  1  0  0  0  0
 40 44  1  0  0  0  0
 41 46  1  0  0  0  0
 42 71  1  0  0  0  0
 43 46  1  0  0  0  0
 43 71  1  0  0  0  0
 44 74  1  0  0  0  0
 45 70  1  0  0  0  0
 46 68  1  0  0  0  0
 48 60  1  0  0  0  0
 49 62  1  0  0  0  0
 50 63  1  0  0  0  0
 51 63  1  0  0  0  0
 52 64  1  0  0  0  0
 53 64  1  0  0  0  0
 54 64  1  0  0  0  0
 55 76  1  0  0  0  0
 56 57  1  0  0  0  0
 56 58  1  0  0  0  0
 57 59  1  0  0  0  0
 58 63  1  0  0  0  0
 59 83  1  0  0  0  0
 60 69  1  0  0  0  0
 61 64  1  0  0  0  0
 61 75  1  0  0  0  0
 62 76  1  0  0  0  0
 65 68  1  0  0  0  0
 67 69  1  0  0  0  0
M  CHG  1  76   1
M  ISO  4  32 100  59 101  60 100  83 101
M  END
> <Batch ID>
0070

> <Smiles>
CNC(C)C(=O)NC(C(=O)N1Cc2cc([101O:1][101CH2:1]CCCC(C)(C)c3nc(C)n([100CH:0](C)[100C:0](=O)N4CCCC(n5nc(-c6ccc(Oc7ccc(F)cc7F)cc6)c(C(N)=O)c5N)C4)n3)ccc2CC1C(=O)NC1CCCc2ccccc21)C(C)(C)C

> <Shape>
0.198

> <Color>
0.058

> <Negative vol penalty>
0.000

$$$$

  -OEChem-04052318193D

 84 92  0     1  0  0  0  0  0999 V2000
  -21.4509  -12.7031   19.5065 C   0  0  0  0  0  0  0  0  0  0  0  0
  -21.5380  -14.0622   19.7905 C   0  0  0  0  0  0  0  0  0  0  0  0
  -22.7778  -23.8553   22.2450 C   0  0  0  0  0  0  0  0  0  0  0  0
  -23.0517  -24.3903   24.5850 C   0  0  0  0  0  0  0  0  0  0  0  0
  -22.5367  -11.8673   19.7641 C   0  0  0  0  0  0  0  0  0  0  0  0
  -22.7108  -14.5861   20.3332 C   0  0  0  0  0  0  0  0  0  0  0  0
  -26.7097  -20.5296   20.2984 C   0  0  0  0  0  0  0  0  0  0  0  0
  -22.9498  -22.5017   22.5343 C   0  0  0  0  0  0  0  0  0  0  0  0
  -23.2236  -23.0366   24.8744 C   0  0  0  0  0  0  0  0  0  0  0  0
  -27.2994  -21.4361   21.1782 C   0  0  0  0  0  0  0  0  0  0  0  0
  -25.6898  -20.7348   24.6502 C   0  0  0  0  0  0  0  0  0  0  0  0
  -26.7309  -20.3828   25.5093 C   0  0  0  0  0  0  0  0  0  0  0  0
  -29.1390  -19.9108   21.5074 C   0  0  0  0  0  0  0  0  0  0  0  0
  -25.1374  -19.4053   27.0398 C   0  0  0  0  0  0  0  0  0  0  0  0
  -28.1772  -28.8769   24.4737 C   0  0  0  0  0  0  0  0  0  0  0  0
  -22.8288  -24.7997   23.2704 C   0  0  0  0  0  0  0  0  0  0  0  0
  -21.4411  -26.9161   22.9499 C   0  0  0  0  0  0  0  0  0  0  0  0
  -23.7268  -12.3829   20.3012 C   0  0  0  0  0  0  0  0  0  0  0  0
  -27.3259  -19.3001   20.0244 C   0  0  0  0  0  0  0  0  0  0  0  0
  -23.8131  -13.7562   20.5994 C   0  0  0  0  0  0  0  0  0  0  0  0
  -28.5563  -18.9914   20.6217 C   0  0  0  0  0  0  0  0  0  0  0  0
  -23.1726  -22.0923   23.8489 C   0  0  0  0  0  0  0  0  0  0  0  0
  -28.5128  -21.1256   21.7851 C   0  0  0  0  0  0  0  0  0  0  0  0
  -24.3725  -20.4221   24.9859 C   0  0  0  0  0  0  0  0  0  0  0  0
  -26.4546  -19.7181   26.7040 C   0  0  0  0  0  0  0  0  0  0  0  0
  -24.0963  -19.7573   26.1807 C   0  0  0  0  0  0  0  0  0  0  0  0
  -22.6519  -26.1982   22.9721 C   0  0  0  0  0  0  0  0  0  0  0  0
  -28.1642  -27.7039   25.1857 C   0  0  0  0  0  0  0  0  0  0  0  0
  -21.8074  -28.1968   22.6151 C   0  0  0  0  0  0  0  0  0  0  0  0
  -20.1048  -26.4656   23.2088 C   0  0  0  0  0  0  0  0  0  0  0  0
  -26.5347  -16.2508   20.4481 C   0  0  0  0  0  0  0  0  0  0  0  0
  -29.2643  -15.7154   18.7793 C   0  0  0  0  0  0  0  0  0  0  0  0
  -26.9878  -31.1794   23.2314 C   0  0  0  0  0  0  0  0  0  0  0  0
  -32.3265  -16.8529   17.7914 C   0  0  0  0  0  0  0  0  0  0  0  0
  -24.8571  -11.4322   20.6066 C   0  0  0  0  0  0  0  0  0  0  0  0
  -26.6900  -18.3444   19.0523 C   0  0  0  0  0  0  0  0  0  0  0  0
  -29.2686  -17.6935   20.3453 C   0  0  0  0  0  0  0  0  0  0  0  0
  -26.1956  -12.1303   20.8334 C   0  0  0  0  0  0  0  0  0  0  0  0
  -25.1345  -30.6411   20.2122 C   0  0  0  0  0  0  0  0  0  0  0  0
  -26.0241  -13.3224   21.7695 C   0  0  0  0  0  0  0  0  0  0  0  0
  -24.1977  -29.4871   20.5669 C   0  0  0  0  0  0  0  0  0  0  0  0
  -26.4845  -30.4986   20.9081 C   0  0  0  0  0  0  0  0  0  0  0  0
  -25.4545  -29.2074   22.7503 C   0  0  0  0  0  0  0  0  0  0  0  0
  -25.0770  -14.3663   21.1655 C   0  0  1  0  0  0  0  0  0  0  0  0
  -27.1514  -16.9029   19.2431 C   0  0  1  0  0  0  0  0  0  0  0  0
  -24.0686  -29.3288   22.0923 C   0  0  2  0  0  0  0  0  0  0  0  0
  -34.3448  -16.1758   16.4628 C   0  0  0  0  0  0  0  0  0  0  0  0
  -27.5833  -31.9783   25.4963 C   0  0  0  0  0  0  0  0  0  0  0  0
  -25.2687  -31.2253   24.9486 C   0  0  0  0  0  0  0  0  0  0  0  0
  -30.1591  -13.9043   21.0661 C   0  0  0  0  0  0  0  0  0  0  0  0
  -32.4897  -14.0287   20.1601 C   0  0  0  0  0  0  0  0  0  0  0  0
  -30.6688  -13.0273   18.7802 C   0  0  0  0  0  0  0  0  0  0  0  0
  -29.3838  -23.4277   25.1884 C   0  0  0  0  0  0  0  0  0  0  0  0
  -30.5734  -24.4130   23.2131 C   0  0  0  0  0  0  0  0  0  0  0  0
  -31.9740  -19.0968   15.8941 C   0  0  0  0  0  0  0  0  0  0  0  0
  -29.0344  -26.4814   25.0197 C   0  0  0  0  0  0  0  0  0  0  0  0
  -28.4082  -25.4783   24.0409 C   0  0  0  0  0  0  0  0  0  0  0  0
  -28.3979  -23.2340   22.8794 C   0  0  0  0  0  0  0  0  0  1  0  0
  -30.7185  -15.5294   19.1395 C   0  0  1  0  0  0  0  0  0  0  0  0
  -32.9989  -16.8831   16.4308 C   0  0  2  0  0  0  0  0  0  0  0  0
  -26.7636  -30.9443   24.7039 C   0  0  0  0  0  0  0  0  0  0  0  0
  -30.9949  -14.1461   19.7934 C   0  0  0  0  0  0  0  0  0  0  0  0
  -29.1933  -24.1502   23.8417 C   0  0  0  0  0  0  0  0  0  0  0  0
  -23.7083  -26.9595   22.6749 N   0  0  0  0  0  0  0  0  0  0  0  0
  -27.1970  -27.7627   26.1504 N   0  0  0  0  0  0  0  0  0  0  0  0
  -26.6012  -28.9467   26.0595 N   0  0  0  0  0  0  0  0  0  0  0  0
  -27.1903  -29.6132   25.0534 N   0  0  0  0  0  0  0  0  0  0  0  0
  -23.1625  -28.1691   22.4627 N   0  0  0  0  0  0  0  0  0  0  0  0
  -28.6037  -16.7893   19.3925 N   0  0  0  0  0  0  0  0  0  0  0  0
  -26.3179  -30.3280   22.3526 N   0  0  0  0  0  0  0  0  0  0  0  0
  -21.0994  -29.3326   22.4390 N   0  0  0  0  0  0  0  0  0  0  0  0
  -19.9063  -25.1181   23.5393 N   0  0  0  0  0  0  0  0  0  0  0  0
  -25.7607  -15.1442   20.1547 N   0  0  0  0  0  0  0  0  0  0  0  0
  -31.4763  -15.7747   17.9172 N   0  0  0  0  0  0  0  0  0  0  0  0
  -33.2179  -18.2905   15.9923 N   0  3  0  0  0  0  0  0  0  0  0  0
  -19.1143  -27.2314   23.1328 O   0  0  0  0  0  0  0  0  0  0  0  0
  -26.7466  -16.7161   21.5618 O   0  0  0  0  0  0  0  0  0  0  0  0
  -28.7360  -14.9407   17.9778 O   0  0  0  0  0  0  0  0  0  0  0  0
  -27.7340  -32.0950   22.8747 O   0  0  0  0  0  0  0  0  0  0  0  0
  -32.5373  -17.6990   18.6576 O   0  0  0  0  0  0  0  0  0  0  0  0
  -23.3402  -20.7715   24.1316 O   0  0  0  0  0  0  0  0  0  0  0  0
  -29.0902  -22.0084   22.6448 O   0  0  0  0  0  0  0  0  0  1  0  0
  -27.4546  -19.3788   27.5282 F   0  0  0  0  0  0  0  0  0  0  0  0
  -22.8330  -19.4532   26.5081 F   0  0  0  0  0  0  0  0  0  0  0  0
  1  2  1  0  0  0  0
  1  5  2  0  0  0  0
  2  6  2  0  0  0  0
  3  8  2  0  0  0  0
  3 16  1  0  0  0  0
  4  9  1  0  0  0  0
  4 16  2  0  0  0  0
  5 18  1  0  0  0  0
  6 20  1  0  0  0  0
  7 10  2  0  0  0  0
  7 19  1  0  0  0  0
  8 22  1  0  0  0  0
  9 22  2  0  0  0  0
 10 23  1  0  0  0  0
 11 12  2  0  0  0  0
 11 24  1  0  0  0  0
 12 25  1  0  0  0  0
 13 21  1  0  0  0  0
 13 23  2  0  0  0  0
 14 25  2  0  0  0  0
 14 26  1  0  0  0  0
 15 28  2  0  0  0  0
 15 67  1  0  0  0  0
 16 27  1  0  0  0  0
 17 27  1  0  0  0  0
 17 29  2  0  0  0  0
 17 30  1  0  0  0  0
 18 20  2  0  0  0  0
 18 35  1  0  0  0  0
 19 21  2  0  0  0  0
 19 36  1  0  0  0  0
 20 44  1  0  0  0  0
 21 37  1  0  0  0  0
 22 81  1  0  0  0  0
 23 82  1  0  0  0  0
 24 26  2  0  0  0  0
 24 81  1  0  0  0  0
 25 83  1  0  0  0  0
 26 84  1  0  0  0  0
 27 64  2  0  0  0  0
 28 56  1  0  0  0  0
 28 65  1  0  0  0  0
 29 68  1  0  0  0  0
 29 71  1  0  0  0  0
 30 72  1  0  0  0  0
 30 76  2  0  0  0  0
 31 45  1  0  0  0  0
 31 73  1  0  0  0  0
 31 77  2  0  0  0  0
 32 59  1  0  0  0  0
 32 69  1  0  0  0  0
 32 78  2  0  0  0  0
 33 61  1  0  0  0  0
 33 70  1  0  0  0  0
 33 79  2  0  0  0  0
 34 60  1  0  0  0  0
 34 74  1  0  0  0  0
 34 80  2  0  0  0  0
 35 38  1  0  0  0  0
 36 45  1  0  0  0  0
 37 69  1  0  0  0  0
 38 40  1  0  0  0  0
 39 41  1  0  0  0  0
 39 42  1  0  0  0  0
 40 44  1  0  0  0  0
 41 46  1  0  0  0  0
 42 70  1  0  0  0  0
 43 46  1  0  0  0  0
 43 70  1  0  0  0  0
 44 73  1  0  0  0  0
 45 69  1  0  0  0  0
 46 68  1  0  0  0  0
 47 60  1  0  0  0  0
 48 61  1  0  0  0  0
 49 61  1  0  0  0  0
 50 62  1  0  0  0  0
 51 62  1  0  0  0  0
 52 62  1  0  0  0  0
 53 63  1  0  0  0  0
 54 63  1  0  0  0  0
 55 75  1  0  0  0  0
 56 57  1  0  0  0  0
 57 63  1  0  0  0  0
 58 63  1  0  0  0  0
 58 82  1  0  0  0  0
 59 62  1  0  0  0  0
 59 74  1  0  0  0  0
 60 75  1  0  0  0  0
 61 67  1  0  0  0  0
 64 68  1  0  0  0  0
 65 66  2  0  0  0  0
 66 67  1  0  0  0  0
M  CHG  1  75   1
M  ISO  4  33 100  58 101  61 100  82 101
M  END
> <Batch ID>
0070

> <Smiles>
CNC(C)C(=O)NC(C(=O)N1Cc2cc([101O:1][101CH2:1]C(C)(C)CCc3cn([100C:0](C)(C)[100C:0](=O)N4CCCC(n5nc(-c6ccc(Oc7ccc(F)cc7F)cc6)c(C(N)=O)c5N)C4)nn3)ccc2CC1C(=O)NC1CCCc2ccccc21)C(C)(C)C

> <Shape>
0.217

> <Color>
0.076

> <Negative vol penalty>
0.000

$$$$

  -OEChem-04052318193D

 80 88  0     1  0  0  0  0  0999 V2000
  -22.8421  -13.4841   18.2560 C   0  0  0  0  0  0  0  0  0  0  0  0
  -23.0891  -14.8423   18.4283 C   0  0  0  0  0  0  0  0  0  0  0  0
  -21.5770  -24.2851   19.7249 C   0  0  0  0  0  0  0  0  0  0  0  0
  -22.5507  -23.7320   21.8657 C   0  0  0  0  0  0  0  0  0  0  0  0
  -23.6217  -12.5441   18.9287 C   0  0  0  0  0  0  0  0  0  0  0  0
  -24.1153  -15.2613   19.2743 C   0  0  0  0  0  0  0  0  0  0  0  0
  -27.7173  -20.1605   18.5468 C   0  0  0  0  0  0  0  0  0  0  0  0
  -21.5097  -22.9291   19.4051 C   0  0  0  0  0  0  0  0  0  0  0  0
  -22.4834  -22.3759   21.5459 C   0  0  0  0  0  0  0  0  0  0  0  0
  -27.6777  -21.4431   19.0919 C   0  0  0  0  0  0  0  0  0  0  0  0
  -20.1349  -19.9468   21.4835 C   0  0  0  0  0  0  0  0  0  0  0  0
  -19.6563  -19.0748   22.4614 C   0  0  0  0  0  0  0  0  0  0  0  0
  -29.2521  -20.7640   20.7888 C   0  0  0  0  0  0  0  0  0  0  0  0
  -21.7547  -17.8779   22.4209 C   0  0  0  0  0  0  0  0  0  0  0  0
  -27.0694  -25.4550   22.0432 C   0  0  0  0  0  0  0  0  0  0  0  0
  -28.4847  -27.4037   20.8913 C   0  0  0  0  0  0  0  0  0  0  0  0
  -22.0975  -24.6866   20.9552 C   0  0  0  0  0  0  0  0  0  0  0  0
  -21.1837  -26.8583   21.9330 C   0  0  0  0  0  0  0  0  0  0  0  0
  -24.6642  -12.9516   19.7759 C   0  0  0  0  0  0  0  0  0  0  0  0
  -28.5176  -19.1654   19.1261 C   0  0  0  0  0  0  0  0  0  0  0  0
  -24.9087  -14.3259   19.9601 C   0  0  0  0  0  0  0  0  0  0  0  0
  -29.3021  -19.4703   20.2476 C   0  0  0  0  0  0  0  0  0  0  0  0
  -21.9629  -21.9745   20.3156 C   0  0  0  0  0  0  0  0  0  0  0  0
  -28.4429  -21.7443   20.2148 C   0  0  0  0  0  0  0  0  0  0  0  0
  -21.4233  -19.7843   20.9742 C   0  0  0  0  0  0  0  0  0  0  0  0
  -20.4662  -18.0404   22.9301 C   0  0  0  0  0  0  0  0  0  0  0  0
  -22.2332  -18.7499   21.4430 C   0  0  0  0  0  0  0  0  0  0  0  0
  -22.1678  -26.0872   21.2859 C   0  0  0  0  0  0  0  0  0  0  0  0
  -27.6787  -25.2647   20.8225 C   0  0  0  0  0  0  0  0  0  0  0  0
  -27.8749  -27.5943   22.1116 C   0  0  0  0  0  0  0  0  0  0  0  0
  -21.7294  -28.1164   22.0108 C   0  0  0  0  0  0  0  0  0  0  0  0
  -19.8918  -26.4720   22.4203 C   0  0  0  0  0  0  0  0  0  0  0  0
  -27.9597  -16.3443   20.4803 C   0  0  0  0  0  0  0  0  0  0  0  0
  -31.1981  -16.1597   20.5186 C   0  0  0  0  0  0  0  0  0  0  0  0
  -27.4270  -30.0266   21.9946 C   0  0  0  0  0  0  0  0  0  0  0  0
  -34.1936  -17.7948   20.4991 C   0  0  0  0  0  0  0  0  0  0  0  0
  -25.4494  -11.8997   20.5185 C   0  0  0  0  0  0  0  0  0  0  0  0
  -28.5698  -17.7941   18.5101 C   0  0  0  0  0  0  0  0  0  0  0  0
  -30.1933  -18.4432   20.8950 C   0  0  0  0  0  0  0  0  0  0  0  0
  -26.7594  -12.4187   21.1057 C   0  0  0  0  0  0  0  0  0  0  0  0
  -24.7936  -31.0219   19.7777 C   0  0  0  0  0  0  0  0  0  0  0  0
  -26.5342  -13.7464   21.8223 C   0  0  0  0  0  0  0  0  0  0  0  0
  -23.7446  -29.9242   19.9508 C   0  0  0  0  0  0  0  0  0  0  0  0
  -26.2091  -30.4638   19.8875 C   0  0  0  0  0  0  0  0  0  0  0  0
  -25.4209  -28.6121   21.3268 C   0  0  0  0  0  0  0  0  0  0  0  0
  -26.0288  -14.8192   20.8501 C   0  0  1  0  0  0  0  0  0  0  0  0
  -29.0257  -16.7164   19.4888 C   0  0  1  0  0  0  0  0  0  0  0  0
  -23.9766  -29.1384   21.2535 C   0  0  2  0  0  0  0  0  0  0  0  0
  -36.6667  -17.3764   20.5761 C   0  0  0  0  0  0  0  0  0  0  0  0
  -29.4786  -29.2427   23.1133 C   0  0  0  0  0  0  0  0  0  0  0  0
  -27.2294  -29.0156   24.1732 C   0  0  0  0  0  0  0  0  0  0  0  0
  -31.0050  -15.5830   23.5086 C   0  0  0  0  0  0  0  0  0  0  0  0
  -33.4439  -16.1158   23.6980 C   0  0  0  0  0  0  0  0  0  0  0  0
  -32.6934  -14.2009   22.2865 C   0  0  0  0  0  0  0  0  0  0  0  0
  -34.6064  -19.0545   17.8531 C   0  0  0  0  0  0  0  0  0  0  0  0
  -27.5606  -23.9502   20.1087 C   0  0  0  0  0  0  0  0  0  1  0  0
  -32.2805  -16.5646   21.4898 C   0  0  1  0  0  0  0  0  0  0  0  0
  -35.4539  -17.5784   19.6811 C   0  0  2  0  0  0  0  0  0  0  0  0
  -27.9924  -28.8983   22.8200 C   0  0  0  0  0  0  0  0  0  0  0  0
  -32.3375  -15.6351   22.7349 C   0  0  0  0  0  0  0  0  0  0  0  0
  -28.3975  -26.2355   20.2247 N   0  0  0  0  0  0  0  0  0  0  0  0
  -27.1563  -26.6233   22.7095 N   0  0  0  0  0  0  0  0  0  0  0  0
  -23.2562  -26.7961   20.9746 N   0  0  0  0  0  0  0  0  0  0  0  0
  -22.9592  -28.0259   21.4280 N   0  0  0  0  0  0  0  0  0  0  0  0
  -30.2052  -17.1152   20.2595 N   0  0  0  0  0  0  0  0  0  0  0  0
  -26.3824  -29.7054   21.1276 N   0  0  0  0  0  0  0  0  0  0  0  0
  -21.2725  -29.2800   22.5202 N   0  0  0  0  0  0  0  0  0  0  0  0
  -19.4879  -25.1396   22.2589 N   0  0  0  0  0  0  0  0  0  0  0  0
  -27.1213  -15.3329   20.0519 N   0  0  0  0  0  0  0  0  0  0  0  0
  -33.5204  -16.6123   20.7225 N   0  0  0  0  0  0  0  0  0  0  0  0
  -35.7092  -18.7546   18.8022 N   0  3  0  0  0  0  0  0  0  0  0  0
  -19.1119  -27.2879   22.9675 O   0  0  0  0  0  0  0  0  0  0  0  0
  -27.9031  -16.9303   21.5550 O   0  0  0  0  0  0  0  0  0  0  0  0
  -31.2361  -15.0397   20.0031 O   0  0  0  0  0  0  0  0  0  0  0  0
  -27.8990  -31.1596   22.1202 O   0  0  0  0  0  0  0  0  0  0  0  0
  -33.8434  -18.9014   20.9030 O   0  0  0  0  0  0  0  0  0  0  0  0
  -21.8972  -20.6512   20.0039 O   0  0  0  0  0  0  0  0  0  0  0  0
  -28.4056  -22.9952   20.7492 O   0  0  0  0  0  0  0  0  0  1  0  0
  -20.0071  -17.2041   23.8703 F   0  0  0  0  0  0  0  0  0  0  0  0
  -23.4722  -18.5895   20.9584 F   0  0  0  0  0  0  0  0  0  0  0  0
  1  2  1  0  0  0  0
  1  5  2  0  0  0  0
  2  6  2  0  0  0  0
  3  8  2  0  0  0  0
  3 17  1  0  0  0  0
  4  9  1  0  0  0  0
  4 17  2  0  0  0  0
  5 19  1  0  0  0  0
  6 21  1  0  0  0  0
  7 10  2  0  0  0  0
  7 20  1  0  0  0  0
  8 23  1  0  0  0  0
  9 23  2  0  0  0  0
 10 24  1  0  0  0  0
 11 12  2  0  0  0  0
 11 25  1  0  0  0  0
 12 26  1  0  0  0  0
 13 22  1  0  0  0  0
 13 24  2  0  0  0  0
 14 26  2  0  0  0  0
 14 27  1  0  0  0  0
 15 29  1  0  0  0  0
 15 62  2  0  0  0  0
 16 30  2  0  0  0  0
 16 61  1  0  0  0  0
 17 28  1  0  0  0  0
 18 28  1  0  0  0  0
 18 31  2  0  0  0  0
 18 32  1  0  0  0  0
 19 21  2  0  0  0  0
 19 37  1  0  0  0  0
 20 22  2  0  0  0  0
 20 38  1  0  0  0  0
 21 46  1  0  0  0  0
 22 39  1  0  0  0  0
 23 77  1  0  0  0  0
 24 78  1  0  0  0  0
 25 27  2  0  0  0  0
 25 77  1  0  0  0  0
 26 79  1  0  0  0  0
 27 80  1  0  0  0  0
 28 63  2  0  0  0  0
 29 56  1  0  0  0  0
 29 61  2  0  0  0  0
 30 59  1  0  0  0  0
 30 62  1  0  0  0  0
 31 64  1  0  0  0  0
 31 67  1  0  0  0  0
 32 68  1  0  0  0  0
 32 72  2  0  0  0  0
 33 47  1  0  0  0  0
 33 69  1  0  0  0  0
 33 73  2  0  0  0  0
 34 57  1  0  0  0  0
 34 65  1  0  0  0  0
 34 74  2  0  0  0  0
 35 59  1  0  0  0  0
 35 66  1  0  0  0  0
 35 75  2  0  0  0  0
 36 58  1  0  0  0  0
 36 70  1  0  0  0  0
 36 76  2  0  0  0  0
 37 40  1  0  0  0  0
 38 47  1  0  0  0  0
 39 65  1  0  0  0  0
 40 42  1  0  0  0  0
 41 43  1  0  0  0  0
 41 44  1  0  0  0  0
 42 46  1  0  0  0  0
 43 48  1  0  0  0  0
 44 66  1  0  0  0  0
 45 48  1  0  0  0  0
 45 66  1  0  0  0  0
 46 69  1  0  0  0  0
 47 65  1  0  0  0  0
 48 64  1  0  0  0  0
 49 58  1  0  0  0  0
 50 59  1  0  0  0  0
 51 59  1  0  0  0  0
 52 60  1  0  0  0  0
 53 60  1  0  0  0  0
 54 60  1  0  0  0  0
 55 71  1  0  0  0  0
 56 78  1  0  0  0  0
 57 60  1  0  0  0  0
 57 70  1  0  0  0  0
 58 71  1  0  0  0  0
 63 64  1  0  0  0  0
M  CHG  1  71   1
M  ISO  4  35 100  56 101  59 100  78 101
M  END
> <Batch ID>
0070

> <Smiles>
CNC(C)C(=O)NC(C(=O)N1Cc2cc([101O:1][101CH2:1]c3cnc([100C:0](C)(C)[100C:0](=O)N4CCCC(n5nc(-c6ccc(Oc7ccc(F)cc7F)cc6)c(C(N)=O)c5N)C4)cn3)ccc2CC1C(=O)NC1CCCc2ccccc21)C(C)(C)C

> <Shape>
0.213

> <Color>
0.068

> <Negative vol penalty>
0.000

$$$$

  -OEChem-04052318193D

 81 89  0     1  0  0  0  0  0999 V2000
  -19.4983  -34.1466   21.4799 C   0  0  0  0  0  0  0  0  0  0  0  0
  -20.4452  -33.4094   20.7780 C   0  0  0  0  0  0  0  0  0  0  0  0
  -25.7302  -14.0103   19.7720 C   0  0  0  0  0  0  0  0  0  0  0  0
  -25.0635  -15.3594   21.6621 C   0  0  0  0  0  0  0  0  0  0  0  0
  -19.1244  -33.7521   22.7628 C   0  0  0  0  0  0  0  0  0  0  0  0
  -21.0097  -32.2707   21.3539 C   0  0  0  0  0  0  0  0  0  0  0  0
  -25.4075  -28.5721   19.3273 C   0  0  0  0  0  0  0  0  0  0  0  0
  -24.6884  -13.1220   20.0386 C   0  0  0  0  0  0  0  0  0  0  0  0
  -24.0216  -14.4711   21.9286 C   0  0  0  0  0  0  0  0  0  0  0  0
  -26.7939  -28.4680   19.4317 C   0  0  0  0  0  0  0  0  0  0  0  0
  -24.0609  -10.5939   22.1925 C   0  0  0  0  0  0  0  0  0  0  0  0
  -24.3473   -9.2294   22.1517 C   0  0  0  0  0  0  0  0  0  0  0  0
  -26.5333  -26.8781   21.2271 C   0  0  0  0  0  0  0  0  0  0  0  0
  -22.7117   -8.9386   20.3974 C   0  0  0  0  0  0  0  0  0  0  0  0
  -30.2875  -23.6589   17.8432 C   0  0  0  0  0  0  0  0  0  0  0  0
  -28.4924  -24.9287   17.8589 C   0  0  0  0  0  0  0  0  0  0  0  0
  -25.9178  -15.1290   20.5838 C   0  0  0  0  0  0  0  0  0  0  0  0
  -28.3718  -15.7583   20.2849 C   0  0  0  0  0  0  0  0  0  0  0  0
  -19.6943  -32.6150   23.3588 C   0  0  0  0  0  0  0  0  0  0  0  0
  -24.5723  -27.8369   20.1808 C   0  0  0  0  0  0  0  0  0  0  0  0
  -20.6278  -31.8427   22.6382 C   0  0  0  0  0  0  0  0  0  0  0  0
  -25.1367  -26.9727   21.1298 C   0  0  0  0  0  0  0  0  0  0  0  0
  -29.8247  -24.9417   18.1924 C   0  0  0  0  0  0  0  0  0  0  0  0
  -23.8341  -13.3523   21.1168 C   0  0  0  0  0  0  0  0  0  0  0  0
  -27.3570  -27.6231   20.3836 C   0  0  0  0  0  0  0  0  0  0  0  0
  -23.0998  -11.1308   21.3358 C   0  0  0  0  0  0  0  0  0  0  0  0
  -23.6727   -8.4018   21.2541 C   0  0  0  0  0  0  0  0  0  0  0  0
  -22.4253  -10.3032   20.4383 C   0  0  0  0  0  0  0  0  0  0  0  0
  -26.9942  -16.0467   20.3094 C   0  0  0  0  0  0  0  0  0  0  0  0
  -28.9682  -16.9570   19.9785 C   0  0  0  0  0  0  0  0  0  0  0  0
  -29.0517  -14.5177   20.5181 C   0  0  0  0  0  0  0  0  0  0  0  0
  -22.4009  -28.5788   22.3804 C   0  0  0  0  0  0  0  0  0  0  0  0
  -21.9094  -25.3727   22.4155 C   0  0  0  0  0  0  0  0  0  0  0  0
  -26.8960  -21.7068   17.0766 C   0  0  0  0  0  0  0  0  0  0  0  0
  -23.1393  -22.2463   21.8155 C   0  0  0  0  0  0  0  0  0  0  0  0
  -19.2474  -32.2288   24.7467 C   0  0  0  0  0  0  0  0  0  0  0  0
  -23.0785  -27.9401   20.0376 C   0  0  0  0  0  0  0  0  0  0  0  0
  -24.2837  -26.1465   22.0563 C   0  0  0  0  0  0  0  0  0  0  0  0
  -20.2168  -31.2771   25.4401 C   0  0  0  0  0  0  0  0  0  0  0  0
  -28.3498  -21.6745   20.4102 C   0  0  0  0  0  0  0  0  0  0  0  0
  -20.5583  -30.1183   24.5155 C   0  0  0  0  0  0  0  0  0  0  0  0
  -28.2626  -20.1913   20.7672 C   0  0  0  0  0  0  0  0  0  0  0  0
  -27.1552  -22.1210   19.5712 C   0  0  0  0  0  0  0  0  0  0  0  0
  -26.8662  -19.8280   18.6862 C   0  0  0  0  0  0  0  0  0  0  0  0
  -21.2778  -30.6180   23.2563 C   0  0  1  0  0  0  0  0  0  0  0  0
  -22.3277  -27.5349   21.3022 C   0  0  1  0  0  0  0  0  0  0  0  0
  -28.0680  -19.3307   19.5067 C   0  0  2  0  0  0  0  0  0  0  0  0
  -23.1379  -19.7468   21.5928 C   0  0  0  0  0  0  0  0  0  0  0  0
  -26.8609  -23.4818   15.3530 C   0  0  0  0  0  0  0  0  0  0  0  0
  -25.7463  -23.7918   17.5636 C   0  0  0  0  0  0  0  0  0  0  0  0
  -22.3367  -25.4664   25.4352 C   0  0  0  0  0  0  0  0  0  0  0  0
  -22.6509  -22.9828   25.3977 C   0  0  0  0  0  0  0  0  0  0  0  0
  -20.4733  -23.9736   24.6912 C   0  0  0  0  0  0  0  0  0  0  0  0
  -22.2666  -22.3824   18.9908 C   0  0  0  0  0  0  0  0  0  0  0  0
  -30.6118  -26.0758   18.7991 C   0  0  0  0  0  0  0  0  0  0  0  0
  -30.6167  -26.0727   20.3293 C   0  0  0  0  0  0  0  0  0  0  0  0
  -29.2335  -26.2713   20.9380 C   0  0  0  0  0  0  0  0  0  1  0  0
  -22.4898  -24.2105   23.1846 C   0  0  1  0  0  0  0  0  0  0  0  0
  -22.5468  -21.0535   21.0870 C   0  0  2  0  0  0  0  0  0  0  0  0
  -26.9815  -23.1968   16.8608 C   0  0  0  0  0  0  0  0  0  0  0  0
  -22.0040  -24.1752   24.6612 C   0  0  0  0  0  0  0  0  0  0  0  0
  -29.3271  -22.8870   17.3274 N   0  0  0  0  0  0  0  0  0  0  0  0
  -26.7308  -17.3282   20.0402 N   0  0  0  0  0  0  0  0  0  0  0  0
  -28.2476  -23.6871   17.3502 N   0  0  0  0  0  0  0  0  0  0  0  0
  -27.9512  -17.8557   19.8437 N   0  0  0  0  0  0  0  0  0  0  0  0
  -22.8286  -26.2868   21.8816 N   0  0  0  0  0  0  0  0  0  0  0  0
  -26.9874  -21.2593   18.3948 N   0  0  0  0  0  0  0  0  0  0  0  0
  -30.2582  -17.3195   19.8140 N   0  0  0  0  0  0  0  0  0  0  0  0
  -29.4460  -14.2076   21.8268 N   0  0  0  0  0  0  0  0  0  0  0  0
  -21.3967  -29.5258   22.3157 N   0  0  0  0  0  0  0  0  0  0  0  0
  -22.1643  -23.0116   22.4197 N   0  0  0  0  0  0  0  0  0  0  0  0
  -22.8136  -21.1550   19.6243 N   0  3  0  0  0  0  0  0  0  0  0  0
  -29.3166  -13.7156   19.5908 O   0  0  0  0  0  0  0  0  0  0  0  0
  -23.3009  -28.5280   23.2105 O   0  0  0  0  0  0  0  0  0  0  0  0
  -20.6858  -25.4621   22.2870 O   0  0  0  0  0  0  0  0  0  0  0  0
  -26.7550  -20.9644   16.1014 O   0  0  0  0  0  0  0  0  0  0  0  0
  -24.3466  -22.4742   21.8485 O   0  0  0  0  0  0  0  0  0  0  0  0
  -22.8172  -12.4858   21.3771 O   0  0  0  0  0  0  0  0  0  0  0  0
  -28.7099  -27.5202   20.4880 O   0  0  0  0  0  0  0  0  0  1  0  0
  -23.9489   -7.0917   21.2139 F   0  0  0  0  0  0  0  0  0  0  0  0
  -21.5019  -10.8134   19.6120 F   0  0  0  0  0  0  0  0  0  0  0  0
  1  2  1  0  0  0  0
  1  5  2  0  0  0  0
  2  6  2  0  0  0  0
  3  8  2  0  0  0  0
  3 17  1  0  0  0  0
  4  9  1  0  0  0  0
  4 17  2  0  0  0  0
  5 19  1  0  0  0  0
  6 21  1  0  0  0  0
  7 10  2  0  0  0  0
  7 20  1  0  0  0  0
  8 24  1  0  0  0  0
  9 24  2  0  0  0  0
 10 25  1  0  0  0  0
 11 12  2  0  0  0  0
 11 26  1  0  0  0  0
 12 27  1  0  0  0  0
 13 22  1  0  0  0  0
 13 25  2  0  0  0  0
 14 27  2  0  0  0  0
 14 28  1  0  0  0  0
 15 23  1  0  0  0  0
 15 62  2  0  0  0  0
 16 23  2  0  0  0  0
 16 64  1  0  0  0  0
 17 29  1  0  0  0  0
 18 29  1  0  0  0  0
 18 30  2  0  0  0  0
 18 31  1  0  0  0  0
 19 21  2  0  0  0  0
 19 36  1  0  0  0  0
 20 22  2  0  0  0  0
 20 37  1  0  0  0  0
 21 45  1  0  0  0  0
 22 38  1  0  0  0  0
 23 55  1  0  0  0  0
 24 78  1  0  0  0  0
 25 79  1  0  0  0  0
 26 28  2  0  0  0  0
 26 78  1  0  0  0  0
 27 80  1  0  0  0  0
 28 81  1  0  0  0  0
 29 63  2  0  0  0  0
 30 65  1  0  0  0  0
 30 68  1  0  0  0  0
 31 69  1  0  0  0  0
 31 73  2  0  0  0  0
 32 46  1  0  0  0  0
 32 70  1  0  0  0  0
 32 74  2  0  0  0  0
 33 58  1  0  0  0  0
 33 66  1  0  0  0  0
 33 75  2  0  0  0  0
 34 60  1  0  0  0  0
 34 67  1  0  0  0  0
 34 76  2  0  0  0  0
 35 59  1  0  0  0  0
 35 71  1  0  0  0  0
 35 77  2  0  0  0  0
 36 39  1  0  0  0  0
 37 46  1  0  0  0  0
 38 66  1  0  0  0  0
 39 41  1  0  0  0  0
 40 42  1  0  0  0  0
 40 43  1  0  0  0  0
 41 45  1  0  0  0  0
 42 47  1  0  0  0  0
 43 67  1  0  0  0  0
 44 47  1  0  0  0  0
 44 67  1  0  0  0  0
 45 70  1  0  0  0  0
 46 66  1  0  0  0  0
 47 65  1  0  0  0  0
 48 59  1  0  0  0  0
 49 60  1  0  0  0  0
 50 60  1  0  0  0  0
 51 61  1  0  0  0  0
 52 61  1  0  0  0  0
 53 61  1  0  0  0  0
 54 72  1  0  0  0  0
 55 56  1  0  0  0  0
 56 57  1  0  0  0  0
 57 79  1  0  0  0  0
 58 61  1  0  0  0  0
 58 71  1  0  0  0  0
 59 72  1  0  0  0  0
 60 64  1  0  0  0  0
 62 64  1  0  0  0  0
 63 65  1  0  0  0  0
M  CHG  1  72   1
M  ISO  4  34 100  57 101  60 100  79 101
M  END
> <Batch ID>
0070

> <Smiles>
CNC(C)C(=O)NC(C(=O)N1Cc2cc([101O:1][101CH2:1]CCc3cnn([100C:0](C)(C)[100C:0](=O)N4CCCC(n5nc(-c6ccc(Oc7ccc(F)cc7F)cc6)c(C(N)=O)c5N)C4)c3)ccc2CC1C(=O)NC1CCCc2ccccc21)C(C)(C)C

> <Shape>
0.243

> <Color>
0.094

> <Negative vol penalty>
0.000

$$$$

  -OEChem-04052318193D

 83 91  0     1  0  0  0  0  0999 V2000
  -24.0001  -23.4968   16.4112 C   0  0  0  0  0  0  0  0  0  0  0  0
  -24.7443  -22.3415   16.1951 C   0  0  0  0  0  0  0  0  0  0  0  0
  -26.6810  -28.1402   18.8265 C   0  0  0  0  0  0  0  0  0  0  0  0
  -26.5116  -27.1861   21.0397 C   0  0  0  0  0  0  0  0  0  0  0  0
  -23.5515  -23.8059   17.6946 C   0  0  0  0  0  0  0  0  0  0  0  0
  -25.0412  -21.4949   17.2627 C   0  0  0  0  0  0  0  0  0  0  0  0
  -25.4842  -15.3888   17.1061 C   0  0  0  0  0  0  0  0  0  0  0  0
  -25.4888  -28.8339   19.0343 C   0  0  0  0  0  0  0  0  0  0  0  0
  -25.3194  -27.8798   21.2475 C   0  0  0  0  0  0  0  0  0  0  0  0
  -26.5787  -14.5297   17.0178 C   0  0  0  0  0  0  0  0  0  0  0  0
  -22.0685  -27.5637   20.3742 C   0  0  0  0  0  0  0  0  0  0  0  0
  -21.0036  -26.8659   20.9440 C   0  0  0  0  0  0  0  0  0  0  0  0
  -26.5734  -14.2861   19.4178 C   0  0  0  0  0  0  0  0  0  0  0  0
  -20.9776  -28.4176   22.7957 C   0  0  0  0  0  0  0  0  0  0  0  0
  -32.1472  -14.0859   21.8209 C   0  0  0  0  0  0  0  0  0  0  0  0
  -32.1385  -16.3723   21.7777 C   0  0  0  0  0  0  0  0  0  0  0  0
  -27.1924  -27.3163   19.8292 C   0  0  0  0  0  0  0  0  0  0  0  0
  -29.7275  -27.0427   19.9062 C   0  0  0  0  0  0  0  0  0  0  0  0
  -23.8348  -22.9577   18.7767 C   0  0  0  0  0  0  0  0  0  0  0  0
  -24.9320  -15.7121   18.3539 C   0  0  0  0  0  0  0  0  0  0  0  0
  -24.5970  -21.7936   18.5620 C   0  0  0  0  0  0  0  0  0  0  0  0
  -25.4703  -15.1475   19.5190 C   0  0  0  0  0  0  0  0  0  0  0  0
  -24.8081  -28.7037   20.2447 C   0  0  0  0  0  0  0  0  0  0  0  0
  -27.1253  -13.9805   18.1740 C   0  0  0  0  0  0  0  0  0  0  0  0
  -22.5881  -28.6884   21.0152 C   0  0  0  0  0  0  0  0  0  0  0  0
  -20.4581  -27.2929   22.1547 C   0  0  0  0  0  0  0  0  0  0  0  0
  -22.0426  -29.1154   22.2259 C   0  0  0  0  0  0  0  0  0  0  0  0
  -28.4236  -26.5991   19.6150 C   0  0  0  0  0  0  0  0  0  0  0  0
  -31.7595  -14.0594   20.4994 C   0  0  0  0  0  0  0  0  0  0  0  0
  -31.7515  -16.3459   20.4560 C   0  0  0  0  0  0  0  0  0  0  0  0
  -30.5380  -26.0029   19.5209 C   0  0  0  0  0  0  0  0  0  0  0  0
  -30.1669  -28.2836   20.4743 C   0  0  0  0  0  0  0  0  0  0  0  0
  -24.5617  -18.3966   20.0153 C   0  0  0  0  0  0  0  0  0  0  0  0
  -22.8941  -16.4665   22.0193 C   0  0  0  0  0  0  0  0  0  0  0  0
  -22.3110  -13.3131   23.1866 C   0  0  0  0  0  0  0  0  0  0  0  0
  -29.5427  -20.2017   19.0615 C   0  0  0  0  0  0  0  0  0  0  0  0
  -23.3686  -23.3579   20.1541 C   0  0  0  0  0  0  0  0  0  0  0  0
  -23.7346  -16.6193   18.4300 C   0  0  0  0  0  0  0  0  0  0  0  0
  -24.9016  -15.4468   20.8811 C   0  0  0  0  0  0  0  0  0  0  0  0
  -23.4069  -22.2155   21.1659 C   0  0  0  0  0  0  0  0  0  0  0  0
  -30.7408  -22.3641   16.4184 C   0  0  0  0  0  0  0  0  0  0  0  0
  -24.7330  -21.4670   21.0761 C   0  0  0  0  0  0  0  0  0  0  0  0
  -30.4002  -23.7463   16.9784 C   0  0  0  0  0  0  0  0  0  0  0  0
  -29.6594  -21.3452   16.7655 C   0  0  0  0  0  0  0  0  0  0  0  0
  -29.0260  -22.6097   18.7838 C   0  0  0  0  0  0  0  0  0  0  0  0
  -24.9184  -20.8374   19.6902 C   0  0  1  0  0  0  0  0  0  0  0  0
  -23.5752  -17.2852   19.7933 C   0  0  1  0  0  0  0  0  0  0  0  0
  -30.0920  -23.6797   18.4860 C   0  0  2  0  0  0  0  0  0  0  0  0
  -32.5198  -17.7642   18.5267 C   0  0  0  0  0  0  0  0  0  0  0  0
  -20.9164  -12.0552   24.8510 C   0  0  0  0  0  0  0  0  0  0  0  0
  -24.6852  -17.4715   24.2759 C   0  0  0  0  0  0  0  0  0  0  0  0
  -23.9081  -15.5359   25.6608 C   0  0  0  0  0  0  0  0  0  0  0  0
  -22.2693  -17.2479   24.8824 C   0  0  0  0  0  0  0  0  0  0  0  0
  -21.0205  -11.7044   21.0639 C   0  0  0  0  0  0  0  0  0  0  0  0
  -31.5491  -12.7460   19.7892 C   0  0  0  0  0  0  0  0  0  0  0  0
  -30.4950  -12.8067   18.6816 C   0  0  0  0  0  0  0  0  0  0  0  0
  -30.0863  -17.7837   19.1839 C   0  0  0  0  0  0  0  0  0  0  0  0
  -29.0968  -13.1289   19.1958 C   0  0  0  0  0  0  0  0  0  1  0  0
  -31.5348  -17.6135   19.7061 C   0  0  1  0  0  0  0  0  0  0  0  0
  -23.2398  -15.6132   23.2157 C   0  0  1  0  0  0  0  0  0  0  0  0
  -21.0210  -12.5462   23.4155 C   0  0  2  0  0  0  0  0  0  0  0  0
  -23.5377  -16.4628   24.4833 C   0  0  0  0  0  0  0  0  0  0  0  0
  -32.3436  -15.2428   22.4839 N   0  0  0  0  0  0  0  0  0  0  0  0
  -28.4022  -25.3731   19.0854 N   0  0  0  0  0  0  0  0  0  0  0  0
  -31.5548  -15.1889   19.7932 N   0  0  0  0  0  0  0  0  0  0  0  0
  -29.7028  -25.0375   19.0407 N   0  0  0  0  0  0  0  0  0  0  0  0
  -23.7348  -16.3444   20.9040 N   0  0  0  0  0  0  0  0  0  0  0  0
  -29.4273  -21.3180   18.2165 N   0  0  0  0  0  0  0  0  0  0  0  0
  -31.8764  -25.8294   19.5493 N   0  0  0  0  0  0  0  0  0  0  0  0
  -29.2020  -29.2421   20.8129 N   0  0  0  0  0  0  0  0  0  0  0  0
  -24.1271  -19.6314   19.5729 N   0  0  0  0  0  0  0  0  0  0  0  0
  -22.1398  -14.6683   23.3747 N   0  0  0  0  0  0  0  0  0  0  0  0
  -29.9204  -19.0153   18.4446 N   0  0  0  0  0  0  0  0  0  0  0  0
  -20.9524  -11.3655   22.5087 N   0  3  0  0  0  0  0  0  0  0  0  0
  -31.3803  -28.5415   20.6606 O   0  0  0  0  0  0  0  0  0  0  0  0
  -25.6370  -18.1521   20.5498 O   0  0  0  0  0  0  0  0  0  0  0  0
  -21.9100  -17.2086   22.0699 O   0  0  0  0  0  0  0  0  0  0  0  0
  -23.3659  -12.7643   22.8759 O   0  0  0  0  0  0  0  0  0  0  0  0
  -29.3300  -20.2590   20.2775 O   0  0  0  0  0  0  0  0  0  0  0  0
  -23.6448  -29.3805   20.4479 O   0  0  0  0  0  0  0  0  0  0  0  0
  -28.1940  -13.1422   18.0907 O   0  0  0  0  0  0  0  0  0  1  0  0
  -19.4345  -26.6236   22.7009 F   0  0  0  0  0  0  0  0  0  0  0  0
  -22.5366  -30.1959   22.8458 F   0  0  0  0  0  0  0  0  0  0  0  0
  1  2  1  0  0  0  0
  1  5  2  0  0  0  0
  2  6  2  0  0  0  0
  3  8  2  0  0  0  0
  3 17  1  0  0  0  0
  4  9  1  0  0  0  0
  4 17  2  0  0  0  0
  5 19  1  0  0  0  0
  6 21  1  0  0  0  0
  7 10  2  0  0  0  0
  7 20  1  0  0  0  0
  8 23  1  0  0  0  0
  9 23  2  0  0  0  0
 10 24  1  0  0  0  0
 11 12  2  0  0  0  0
 11 25  1  0  0  0  0
 12 26  1  0  0  0  0
 13 22  1  0  0  0  0
 13 24  2  0  0  0  0
 14 26  2  0  0  0  0
 14 27  1  0  0  0  0
 15 29  1  0  0  0  0
 15 63  2  0  0  0  0
 16 30  2  0  0  0  0
 16 63  1  0  0  0  0
 17 28  1  0  0  0  0
 18 28  1  0  0  0  0
 18 31  2  0  0  0  0
 18 32  1  0  0  0  0
 19 21  2  0  0  0  0
 19 37  1  0  0  0  0
 20 22  2  0  0  0  0
 20 38  1  0  0  0  0
 21 46  1  0  0  0  0
 22 39  1  0  0  0  0
 23 80  1  0  0  0  0
 24 81  1  0  0  0  0
 25 27  2  0  0  0  0
 25 80  1  0  0  0  0
 26 82  1  0  0  0  0
 27 83  1  0  0  0  0
 28 64  2  0  0  0  0
 29 55  1  0  0  0  0
 29 65  2  0  0  0  0
 30 59  1  0  0  0  0
 30 65  1  0  0  0  0
 31 66  1  0  0  0  0
 31 69  1  0  0  0  0
 32 70  1  0  0  0  0
 32 75  2  0  0  0  0
 33 47  1  0  0  0  0
 33 71  1  0  0  0  0
 33 76  2  0  0  0  0
 34 60  1  0  0  0  0
 34 67  1  0  0  0  0
 34 77  2  0  0  0  0
 35 61  1  0  0  0  0
 35 72  1  0  0  0  0
 35 78  2  0  0  0  0
 36 68  1  0  0  0  0
 36 73  1  0  0  0  0
 36 79  2  0  0  0  0
 37 40  1  0  0  0  0
 38 47  1  0  0  0  0
 39 67  1  0  0  0  0
 40 42  1  0  0  0  0
 41 43  1  0  0  0  0
 41 44  1  0  0  0  0
 42 46  1  0  0  0  0
 43 48  1  0  0  0  0
 44 68  1  0  0  0  0
 45 48  1  0  0  0  0
 45 68  1  0  0  0  0
 46 71  1  0  0  0  0
 47 67  1  0  0  0  0
 48 66  1  0  0  0  0
 49 59  1  0  0  0  0
 50 61  1  0  0  0  0
 51 62  1  0  0  0  0
 52 62  1  0  0  0  0
 53 62  1  0  0  0  0
 54 74  1  0  0  0  0
 55 56  1  0  0  0  0
 56 58  1  0  0  0  0
 57 59  1  0  0  0  0
 57 73  1  0  0  0  0
 58 81  1  0  0  0  0
 60 62  1  0  0  0  0
 60 72  1  0  0  0  0
 61 74  1  0  0  0  0
 64 66  1  0  0  0  0
M  CHG  1  74   1
M  ISO  4  36 100  58 101  73 100  81 101
M  END
> <Batch ID>
0070

> <Smiles>
CNC(C)C(=O)NC(C(=O)N1Cc2cc([101O:1][101CH2:1]CCc3cncc(C(C)C[100NH:0][100C:0](=O)N4CCCC(n5nc(-c6ccc(Oc7ccc(F)cc7F)cc6)c(C(N)=O)c5N)C4)n3)ccc2CC1C(=O)NC1CCCc2ccccc21)C(C)(C)C

> <Shape>
0.232

> <Color>
0.052

> <Negative vol penalty>
0.000

$$$$

  -OEChem-04052318193D

 81 89  0     1  0  0  0  0  0999 V2000
  -22.2035  -11.8398   19.2762 C   0  0  0  0  0  0  0  0  0  0  0  0
  -21.9503  -13.1952   19.4618 C   0  0  0  0  0  0  0  0  0  0  0  0
  -29.3165  -28.7659   21.9235 C   0  0  0  0  0  0  0  0  0  0  0  0
  -28.3543  -26.6205   22.4788 C   0  0  0  0  0  0  0  0  0  0  0  0
  -23.4220  -11.2974   19.6823 C   0  0  0  0  0  0  0  0  0  0  0  0
  -22.9152  -14.0087   20.0546 C   0  0  0  0  0  0  0  0  0  0  0  0
  -23.5139  -18.4061   17.6154 C   0  0  0  0  0  0  0  0  0  0  0  0
  -30.3568  -28.5322   22.8228 C   0  0  0  0  0  0  0  0  0  0  0  0
  -29.3947  -26.3867   23.3781 C   0  0  0  0  0  0  0  0  0  0  0  0
  -22.5550  -19.3934   17.8381 C   0  0  0  0  0  0  0  0  0  0  0  0
  -32.6257  -25.4053   23.2460 C   0  0  0  0  0  0  0  0  0  0  0  0
  -33.2272  -24.1470   23.2260 C   0  0  0  0  0  0  0  0  0  0  0  0
  -24.0433  -20.4790   19.3955 C   0  0  0  0  0  0  0  0  0  0  0  0
  -32.5938  -23.8075   25.5327 C   0  0  0  0  0  0  0  0  0  0  0  0
  -21.0255  -24.7146   19.7332 C   0  0  0  0  0  0  0  0  0  0  0  0
  -19.0666  -23.9810   20.4268 C   0  0  0  0  0  0  0  0  0  0  0  0
  -28.3153  -27.8101   21.7515 C   0  0  0  0  0  0  0  0  0  0  0  0
  -27.2047  -27.7133   19.4569 C   0  0  0  0  0  0  0  0  0  0  0  0
  -24.4061  -12.1067   20.2716 C   0  0  0  0  0  0  0  0  0  0  0  0
  -24.7425  -18.4419   18.2905 C   0  0  0  0  0  0  0  0  0  0  0  0
  -24.1476  -13.4764   20.4702 C   0  0  0  0  0  0  0  0  0  0  0  0
  -25.0171  -19.4923   19.1777 C   0  0  0  0  0  0  0  0  0  0  0  0
  -30.3959  -27.3426   23.5500 C   0  0  0  0  0  0  0  0  0  0  0  0
  -22.8185  -20.4284   18.7304 C   0  0  0  0  0  0  0  0  0  0  0  0
  -32.0084  -25.8648   24.4094 C   0  0  0  0  0  0  0  0  0  0  0  0
  -33.2112  -23.3480   24.3693 C   0  0  0  0  0  0  0  0  0  0  0  0
  -31.9923  -25.0659   25.5527 C   0  0  0  0  0  0  0  0  0  0  0  0
  -27.2401  -28.0513   20.8231 C   0  0  0  0  0  0  0  0  0  0  0  0
  -21.0602  -23.3669   20.0035 C   0  0  0  0  0  0  0  0  0  0  0  0
  -25.9763  -28.1518   19.0264 C   0  0  0  0  0  0  0  0  0  0  0  0
  -28.1937  -27.0612   18.6493 C   0  0  0  0  0  0  0  0  0  0  0  0
  -26.2288  -16.5269   20.3465 C   0  0  0  0  0  0  0  0  0  0  0  0
  -28.6636  -18.6329   19.9476 C   0  0  0  0  0  0  0  0  0  0  0  0
  -29.6580  -21.7842   19.0947 C   0  0  0  0  0  0  0  0  0  0  0  0
  -20.7800  -29.1263   21.8371 C   0  0  0  0  0  0  0  0  0  0  0  0
  -25.6895  -11.4659   20.7375 C   0  0  0  0  0  0  0  0  0  0  0  0
  -25.7767  -17.3840   18.0191 C   0  0  0  0  0  0  0  0  0  0  0  0
  -26.3285  -19.5876   19.9123 C   0  0  0  0  0  0  0  0  0  0  0  0
  -26.8052  -12.4697   21.0163 C   0  0  0  0  0  0  0  0  0  0  0  0
  -22.6586  -31.4773   19.9343 C   0  0  0  0  0  0  0  0  0  0  0  0
  -26.2776  -13.6386   21.8423 C   0  0  0  0  0  0  0  0  0  0  0  0
  -24.0426  -30.8354   19.8230 C   0  0  0  0  0  0  0  0  0  0  0  0
  -22.0165  -31.2026   21.2923 C   0  0  0  0  0  0  0  0  0  0  0  0
  -23.3331  -29.1362   21.5574 C   0  0  0  0  0  0  0  0  0  0  0  0
  -25.1789  -14.3962   21.0870 C   0  0  1  0  0  0  0  0  0  0  0  0
  -26.7920  -17.2374   19.1482 C   0  0  1  0  0  0  0  0  0  0  0  0
  -23.9971  -29.3386   20.1847 C   0  0  2  0  0  0  0  0  0  0  0  0
  -31.7082  -23.2185   18.9021 C   0  0  0  0  0  0  0  0  0  0  0  0
  -18.0972  -26.4612   18.8216 C   0  0  0  0  0  0  0  0  0  0  0  0
  -28.7380  -18.9299   22.9834 C   0  0  0  0  0  0  0  0  0  0  0  0
  -30.0922  -21.0132   22.6767 C   0  0  0  0  0  0  0  0  0  0  0  0
  -30.9848  -18.8205   21.8905 C   0  0  0  0  0  0  0  0  0  0  0  0
  -29.2411  -22.1928   16.1933 C   0  0  0  0  0  0  0  0  0  0  0  0
  -22.2206  -22.4242   19.8774 C   0  0  0  0  0  0  0  0  0  1  0  0
  -18.6673  -26.9878   21.2253 C   0  0  0  0  0  0  0  0  0  0  0  0
  -19.6824  -26.9650   22.3688 C   0  0  0  0  0  0  0  0  0  0  0  0
  -29.0904  -19.9140   20.6226 C   0  0  1  0  0  0  0  0  0  0  0  0
  -30.7596  -22.2784   18.1746 C   0  0  2  0  0  0  0  0  0  0  0  0
  -19.1997  -26.4250   19.8879 C   0  0  1  0  0  0  0  0  0  0  0  0
  -29.7008  -19.6668   22.0311 C   0  0  0  0  0  0  0  0  0  0  0  0
  -19.8376  -22.9163   20.4346 N   0  0  0  0  0  0  0  0  0  0  0  0
  -26.1230  -28.6579   21.2333 N   0  0  0  0  0  0  0  0  0  0  0  0
  -19.7420  -25.0938   20.0087 N   0  0  0  0  0  0  0  0  0  0  0  0
  -25.3742  -28.7046   20.1183 N   0  0  0  0  0  0  0  0  0  0  0  0
  -27.3050  -18.5259   19.6179 N   0  0  0  0  0  0  0  0  0  0  0  0
  -22.0031  -29.7651   21.5741 N   0  0  0  0  0  0  0  0  0  0  0  0
  -25.3634  -28.1148   17.8242 N   0  0  0  0  0  0  0  0  0  0  0  0
  -29.3999  -26.6767   19.2507 N   0  0  0  0  0  0  0  0  0  0  0  0
  -25.7597  -15.2553   20.0776 N   0  0  0  0  0  0  0  0  0  0  0  0
  -29.9899  -20.5861   19.6912 N   0  0  0  0  0  0  0  0  0  0  0  0
  -20.8558  -27.7617   22.0879 N   0  0  0  0  0  0  0  0  0  0  0  0
  -30.1762  -23.0063   17.0124 N   0  3  0  0  0  0  0  0  0  0  0  0
  -28.0198  -26.8411   17.4267 O   0  0  0  0  0  0  0  0  0  0  0  0
  -26.2219  -17.0902   21.4348 O   0  0  0  0  0  0  0  0  0  0  0  0
  -29.5059  -17.7623   19.7148 O   0  0  0  0  0  0  0  0  0  0  0  0
  -28.6096  -22.4012   19.2699 O   0  0  0  0  0  0  0  0  0  0  0  0
  -19.6999  -29.7266   21.8424 O   0  0  0  0  0  0  0  0  0  0  0  0
  -31.4110  -27.1140   24.4275 O   0  0  0  0  0  0  0  0  0  0  0  0
  -21.8841  -21.3931   18.9501 O   0  0  0  0  0  0  0  0  0  1  0  0
  -33.7874  -22.1390   24.3494 F   0  0  0  0  0  0  0  0  0  0  0  0
  -31.3997  -25.5014   26.6729 F   0  0  0  0  0  0  0  0  0  0  0  0
  1  2  1  0  0  0  0
  1  5  2  0  0  0  0
  2  6  2  0  0  0  0
  3  8  2  0  0  0  0
  3 17  1  0  0  0  0
  4  9  1  0  0  0  0
  4 17  2  0  0  0  0
  5 19  1  0  0  0  0
  6 21  1  0  0  0  0
  7 10  2  0  0  0  0
  7 20  1  0  0  0  0
  8 23  1  0  0  0  0
  9 23  2  0  0  0  0
 10 24  1  0  0  0  0
 11 12  2  0  0  0  0
 11 25  1  0  0  0  0
 12 26  1  0  0  0  0
 13 22  1  0  0  0  0
 13 24  2  0  0  0  0
 14 26  2  0  0  0  0
 14 27  1  0  0  0  0
 15 29  2  0  0  0  0
 15 63  1  0  0  0  0
 16 61  2  0  0  0  0
 16 63  1  0  0  0  0
 17 28  1  0  0  0  0
 18 28  1  0  0  0  0
 18 30  2  0  0  0  0
 18 31  1  0  0  0  0
 19 21  2  0  0  0  0
 19 36  1  0  0  0  0
 20 22  2  0  0  0  0
 20 37  1  0  0  0  0
 21 45  1  0  0  0  0
 22 38  1  0  0  0  0
 23 78  1  0  0  0  0
 24 79  1  0  0  0  0
 25 27  2  0  0  0  0
 25 78  1  0  0  0  0
 26 80  1  0  0  0  0
 27 81  1  0  0  0  0
 28 62  2  0  0  0  0
 29 54  1  0  0  0  0
 29 61  1  0  0  0  0
 30 64  1  0  0  0  0
 30 67  1  0  0  0  0
 31 68  1  0  0  0  0
 31 73  2  0  0  0  0
 32 46  1  0  0  0  0
 32 69  1  0  0  0  0
 32 74  2  0  0  0  0
 33 57  1  0  0  0  0
 33 65  1  0  0  0  0
 33 75  2  0  0  0  0
 34 58  1  0  0  0  0
 34 70  1  0  0  0  0
 34 76  2  0  0  0  0
 35 66  1  0  0  0  0
 35 71  1  0  0  0  0
 35 77  2  0  0  0  0
 36 39  1  0  0  0  0
 37 46  1  0  0  0  0
 38 65  1  0  0  0  0
 39 41  1  0  0  0  0
 40 42  1  0  0  0  0
 40 43  1  0  0  0  0
 41 45  1  0  0  0  0
 42 47  1  0  0  0  0
 43 66  1  0  0  0  0
 44 47  1  0  0  0  0
 44 66  1  0  0  0  0
 45 69  1  0  0  0  0
 46 65  1  0  0  0  0
 47 64  1  0  0  0  0
 48 58  1  0  0  0  0
 49 59  1  0  0  0  0
 50 60  1  0  0  0  0
 51 60  1  0  0  0  0
 52 60  1  0  0  0  0
 53 72  1  0  0  0  0
 54 79  1  0  0  0  0
 55 56  1  0  0  0  0
 55 59  1  0  0  0  0
 56 71  1  0  0  0  0
 57 60  1  0  0  0  0
 57 70  1  0  0  0  0
 58 72  1  0  0  0  0
 59 63  1  0  0  0  0
 62 64  1  0  0  0  0
M  CHG  1  72   1
M  ISO  4  35 100  54 101  71 100  79 101
M  END
> <Batch ID>
0070

> <Smiles>
CNC(C)C(=O)NC(C(=O)N1Cc2cc([101O:1][101CH2:1]c3cn(C(C)CC[100NH:0][100C:0](=O)N4CCCC(n5nc(-c6ccc(Oc7ccc(F)cc7F)cc6)c(C(N)=O)c5N)C4)cn3)ccc2CC1C(=O)NC1CCCc2ccccc21)C(C)(C)C

> <Shape>
0.213

> <Color>
0.069

> <Negative vol penalty>
0.000

$$$$

  -OEChem-04052318193D

 88 96  0     1  0  0  0  0  0999 V2000
  -21.4359  -20.4196   21.3708 C   0  0  0  0  0  0  0  0  0  0  0  0
  -22.6336  -20.8401   21.9381 C   0  0  0  0  0  0  0  0  0  0  0  0
  -26.1158  -14.9767   21.6651 C   0  0  0  0  0  0  0  0  0  0  0  0
  -25.9521  -15.1609   19.2617 C   0  0  0  0  0  0  0  0  0  0  0  0
  -20.7496  -21.2609   20.4976 C   0  0  0  0  0  0  0  0  0  0  0  0
  -23.1392  -22.1063   21.6418 C   0  0  0  0  0  0  0  0  0  0  0  0
  -28.3685  -24.7676   23.2847 C   0  0  0  0  0  0  0  0  0  0  0  0
  -24.7359  -14.7895   21.7447 C   0  0  0  0  0  0  0  0  0  0  0  0
  -24.5722  -14.9736   19.3413 C   0  0  0  0  0  0  0  0  0  0  0  0
  -29.6625  -24.8921   22.7808 C   0  0  0  0  0  0  0  0  0  0  0  0
  -22.5309  -12.2740   21.2518 C   0  0  0  0  0  0  0  0  0  0  0  0
  -22.0617  -11.2562   22.0821 C   0  0  0  0  0  0  0  0  0  0  0  0
  -29.0808  -27.0325   21.8324 C   0  0  0  0  0  0  0  0  0  0  0  0
  -20.8335  -12.8817   23.3807 C   0  0  0  0  0  0  0  0  0  0  0  0
  -29.9720  -24.5979   18.3764 C   0  0  0  0  0  0  0  0  0  0  0  0
  -26.7239  -15.1625   20.4235 C   0  0  0  0  0  0  0  0  0  0  0  0
  -29.1356  -14.3624   20.1971 C   0  0  0  0  0  0  0  0  0  0  0  0
  -21.2541  -22.5330   20.1813 C   0  0  0  0  0  0  0  0  0  0  0  0
  -27.4162  -25.7713   23.0565 C   0  0  0  0  0  0  0  0  0  0  0  0
  -22.4490  -22.9793   20.7815 C   0  0  0  0  0  0  0  0  0  0  0  0
  -27.7762  -26.9195   22.3366 C   0  0  0  0  0  0  0  0  0  0  0  0
  -23.9641  -14.7879   20.5829 C   0  0  0  0  0  0  0  0  0  0  0  0
  -30.0180  -26.0234   22.0521 C   0  0  0  0  0  0  0  0  0  0  0  0
  -22.1515  -13.5957   21.4859 C   0  0  0  0  0  0  0  0  0  0  0  0
  -21.2130  -11.5600   23.1465 C   0  0  0  0  0  0  0  0  0  0  0  0
  -21.3028  -13.8996   22.5503 C   0  0  0  0  0  0  0  0  0  0  0  0
  -28.1493  -15.3565   20.3407 C   0  0  0  0  0  0  0  0  0  0  0  0
  -31.3091  -24.8064   18.1879 C   0  0  0  0  0  0  0  0  0  0  0  0
  -30.3207  -15.0561   20.1687 C   0  0  0  0  0  0  0  0  0  0  0  0
  -30.6743  -23.1750   16.8328 C   0  0  0  0  0  0  0  0  0  0  0  0
  -28.9933  -12.9392   20.0982 C   0  0  0  0  0  0  0  0  0  0  0  0
  -24.6132  -25.9063   21.5636 C   0  0  0  0  0  0  0  0  0  0  0  0
  -24.5399  -28.9047   22.7991 C   0  0  0  0  0  0  0  0  0  0  0  0
  -26.2747  -31.5823   24.0107 C   0  0  0  0  0  0  0  0  0  0  0  0
  -31.7211  -20.6744   18.6440 C   0  0  0  0  0  0  0  0  0  0  0  0
  -20.4663  -23.4057   19.2362 C   0  0  0  0  0  0  0  0  0  0  0  0
  -26.0323  -25.6342   23.6295 C   0  0  0  0  0  0  0  0  0  0  0  0
  -26.7968  -28.0349   22.0813 C   0  0  0  0  0  0  0  0  0  0  0  0
  -21.2967  -24.5382   18.6409 C   0  0  0  0  0  0  0  0  0  0  0  0
  -32.3391  -19.0874   21.7707 C   0  0  0  0  0  0  0  0  0  0  0  0
  -22.0406  -25.2735   19.7457 C   0  0  0  0  0  0  0  0  0  0  0  0
  -31.4244  -17.8615   21.7458 C   0  0  0  0  0  0  0  0  0  0  0  0
  -31.6890  -20.2905   21.0911 C   0  0  0  0  0  0  0  0  0  0  0  0
  -30.2931  -18.8159   19.6944 C   0  0  0  0  0  0  0  0  0  0  0  0
  -23.0338  -24.3404   20.4500 C   0  0  1  0  0  0  0  0  0  0  0  0
  -24.9960  -26.4816   22.8979 C   0  0  1  0  0  0  0  0  0  0  0  0
  -30.9277  -17.5614   20.3187 C   0  0  2  0  0  0  0  0  0  0  0  0
  -31.1058  -22.6416   14.4135 C   0  0  0  0  0  0  0  0  0  0  0  0
  -25.9427  -33.9023   24.9077 C   0  0  0  0  0  0  0  0  0  0  0  0
  -25.6811  -21.9201   18.7773 C   0  0  0  0  0  0  0  0  0  0  0  0
  -26.7450  -19.6504   18.7343 C   0  0  0  0  0  0  0  0  0  0  0  0
  -26.3273  -20.8794   16.5997 C   0  0  0  0  0  0  0  0  0  0  0  0
  -24.0334  -29.9241   19.9682 C   0  0  0  0  0  0  0  0  0  0  0  0
  -24.6534  -32.2176   20.7578 C   0  0  0  0  0  0  0  0  0  0  0  0
  -22.6788  -31.0532   21.7414 C   0  0  0  0  0  0  0  0  0  0  0  0
  -27.4799  -30.8715   26.6187 C   0  0  0  0  0  0  0  0  0  0  0  0
  -32.2659  -25.7793   18.8294 C   0  0  0  0  0  0  0  0  0  0  0  0
  -32.9439  -25.2364   20.0893 C   0  0  0  0  0  0  0  0  0  0  0  0
  -28.1366  -21.6980   18.1262 C   0  0  0  0  0  0  0  0  0  0  0  0
  -28.2666  -23.0433   17.3995 C   0  0  0  0  0  0  0  0  0  0  0  0
  -31.6593  -20.9263   16.1759 C   0  0  0  0  0  0  0  0  0  0  0  0
  -31.9668  -24.9424   21.2217 C   0  0  0  0  0  0  0  0  0  1  0  0
  -30.7165  -22.1018   15.8085 C   0  0  1  0  0  0  0  0  0  0  0  0
  -25.0060  -30.2637   22.3356 C   0  0  1  0  0  0  0  0  0  0  0  0
  -26.0806  -32.4284   25.2560 C   0  0  2  0  0  0  0  0  0  0  0  0
  -26.7313  -21.0410   18.0785 C   0  0  0  0  0  0  0  0  0  0  0  0
  -24.1110  -30.8429   21.2037 C   0  0  0  0  0  0  0  0  0  0  0  0
  -28.6631  -16.5880   20.3995 N   0  0  0  0  0  0  0  0  0  0  0  0
  -29.6058  -23.5835   17.5249 N   0  0  0  0  0  0  0  0  0  0  0  0
  -29.9853  -16.3723   20.2925 N   0  0  0  0  0  0  0  0  0  0  0  0
  -31.7174  -23.9122   17.2277 N   0  3  0  0  0  0  0  0  0  0  0  0
  -25.4541  -27.8513   22.6568 N   0  0  0  0  0  0  0  0  0  0  0  0
  -31.2417  -19.9396   19.7410 N   0  0  0  0  0  0  0  0  0  0  0  0
  -31.6066  -14.6625   20.0503 N   0  0  0  0  0  0  0  0  0  0  0  0
  -27.7039  -12.3918   20.1448 N   0  0  0  0  0  0  0  0  0  0  0  0
  -23.5633  -25.0096   21.6178 N   0  0  0  0  0  0  0  0  0  0  0  0
  -25.0762  -31.1001   23.5289 N   0  0  0  0  0  0  0  0  0  0  0  0
  -31.2521  -20.2722   17.3994 N   0  0  0  0  0  0  0  0  0  0  0  0
  -27.2419  -32.2696   26.1764 N   0  3  0  0  0  0  0  0  0  0  0  0
  -29.9814  -12.1742   19.9887 O   0  0  0  0  0  0  0  0  0  0  0  0
  -25.2242  -26.2517   20.5590 O   0  0  0  0  0  0  0  0  0  0  0  0
  -23.4090  -28.7837   23.2767 O   0  0  0  0  0  0  0  0  0  0  0  0
  -27.3788  -31.3732   23.5129 O   0  0  0  0  0  0  0  0  0  0  0  0
  -32.5128  -21.6155   18.7644 O   0  0  0  0  0  0  0  0  0  0  0  0
  -22.6176  -14.6050   20.6602 O   0  0  0  0  0  0  0  0  0  0  0  0
  -31.2802  -26.1471   21.5587 O   0  0  0  0  0  0  0  0  0  1  0  0
  -20.7612  -10.5823   23.9429 F   0  0  0  0  0  0  0  0  0  0  0  0
  -20.9339  -15.1673   22.7795 F   0  0  0  0  0  0  0  0  0  0  0  0
  1  2  1  0  0  0  0
  1  5  2  0  0  0  0
  2  6  2  0  0  0  0
  3  8  2  0  0  0  0
  3 16  1  0  0  0  0
  4  9  1  0  0  0  0
  4 16  2  0  0  0  0
  5 18  1  0  0  0  0
  6 20  1  0  0  0  0
  7 10  2  0  0  0  0
  7 19  1  0  0  0  0
  8 22  1  0  0  0  0
  9 22  2  0  0  0  0
 10 23  1  0  0  0  0
 11 12  2  0  0  0  0
 11 24  1  0  0  0  0
 12 25  1  0  0  0  0
 13 21  1  0  0  0  0
 13 23  2  0  0  0  0
 14 25  2  0  0  0  0
 14 26  1  0  0  0  0
 15 28  2  0  0  0  0
 15 69  1  0  0  0  0
 16 27  1  0  0  0  0
 17 27  1  0  0  0  0
 17 29  2  0  0  0  0
 17 31  1  0  0  0  0
 18 20  2  0  0  0  0
 18 36  1  0  0  0  0
 19 21  2  0  0  0  0
 19 37  1  0  0  0  0
 20 45  1  0  0  0  0
 21 38  1  0  0  0  0
 22 85  1  0  0  0  0
 23 86  1  0  0  0  0
 24 26  2  0  0  0  0
 24 85  1  0  0  0  0
 25 87  1  0  0  0  0
 26 88  1  0  0  0  0
 27 68  2  0  0  0  0
 28 57  1  0  0  0  0
 28 71  1  0  0  0  0
 29 70  1  0  0  0  0
 29 74  1  0  0  0  0
 30 63  1  0  0  0  0
 30 69  1  0  0  0  0
 30 71  2  0  0  0  0
 31 75  1  0  0  0  0
 31 80  2  0  0  0  0
 32 46  1  0  0  0  0
 32 76  1  0  0  0  0
 32 81  2  0  0  0  0
 33 64  1  0  0  0  0
 33 72  1  0  0  0  0
 33 82  2  0  0  0  0
 34 65  1  0  0  0  0
 34 77  1  0  0  0  0
 34 83  2  0  0  0  0
 35 73  1  0  0  0  0
 35 78  1  0  0  0  0
 35 84  2  0  0  0  0
 36 39  1  0  0  0  0
 37 46  1  0  0  0  0
 38 72  1  0  0  0  0
 39 41  1  0  0  0  0
 40 42  1  0  0  0  0
 40 43  1  0  0  0  0
 41 45  1  0  0  0  0
 42 47  1  0  0  0  0
 43 73  1  0  0  0  0
 44 47  1  0  0  0  0
 44 73  1  0  0  0  0
 45 76  1  0  0  0  0
 46 72  1  0  0  0  0
 47 70  1  0  0  0  0
 48 63  1  0  0  0  0
 49 65  1  0  0  0  0
 50 66  1  0  0  0  0
 51 66  1  0  0  0  0
 52 66  1  0  0  0  0
 53 67  1  0  0  0  0
 54 67  1  0  0  0  0
 55 67  1  0  0  0  0
 56 79  1  0  0  0  0
 57 58  1  0  0  0  0
 58 62  1  0  0  0  0
 59 60  1  0  0  0  0
 59 66  1  0  0  0  0
 60 69  1  0  0  0  0
 61 63  1  0  0  0  0
 61 78  1  0  0  0  0
 62 86  1  0  0  0  0
 64 67  1  0  0  0  0
 64 77  1  0  0  0  0
 65 79  1  0  0  0  0
 68 70  1  0  0  0  0
M  CHG  2  71   1  79   1
M  ISO  4  35 100  62 101  78 100  86 101
M  END
> <Batch ID>
0070

> <Smiles>
CNC(C)C(=O)NC(C(=O)N1Cc2cc([101O:1][101CH2:1]CCc3cn(CCC(C)(C)C)c(C(C)C[100NH:0][100C:0](=O)N4CCCC(n5nc(-c6ccc(Oc7ccc(F)cc7F)cc6)c(C(N)=O)c5N)C4)n3)ccc2CC1C(=O)NC1CCCc2ccccc21)C(C)(C)C

> <Shape>
0.230

> <Color>
0.053

> <Negative vol penalty>
0.000

$$$$

  -OEChem-04052318193D

 81 89  0     1  0  0  0  0  0999 V2000
  -19.3223  -31.2109   24.7916 C   0  0  0  0  0  0  0  0  0  0  0  0
  -20.6591  -30.9126   24.5482 C   0  0  0  0  0  0  0  0  0  0  0  0
  -24.4388  -14.8661   20.6808 C   0  0  0  0  0  0  0  0  0  0  0  0
  -26.4955  -14.7931   21.9464 C   0  0  0  0  0  0  0  0  0  0  0  0
  -18.3240  -30.3439   24.3491 C   0  0  0  0  0  0  0  0  0  0  0  0
  -20.9986  -29.7465   23.8631 C   0  0  0  0  0  0  0  0  0  0  0  0
  -25.6711  -28.9872   19.9776 C   0  0  0  0  0  0  0  0  0  0  0  0
  -24.5616  -13.5048   20.4027 C   0  0  0  0  0  0  0  0  0  0  0  0
  -26.6183  -13.4317   21.6683 C   0  0  0  0  0  0  0  0  0  0  0  0
  -26.9446  -28.4427   20.1371 C   0  0  0  0  0  0  0  0  0  0  0  0
  -24.1450   -9.9704   19.6613 C   0  0  0  0  0  0  0  0  0  0  0  0
  -23.0067   -9.1757   19.7962 C   0  0  0  0  0  0  0  0  0  0  0  0
  -32.6126  -23.6301   21.2900 C   0  0  0  0  0  0  0  0  0  0  0  0
  -26.1399  -26.3296   19.2968 C   0  0  0  0  0  0  0  0  0  0  0  0
  -22.8614   -9.7801   22.1309 C   0  0  0  0  0  0  0  0  0  0  0  0
  -33.0487  -22.7763   20.2592 C   0  0  0  0  0  0  0  0  0  0  0  0
  -25.4058  -15.5103   21.4526 C   0  0  0  0  0  0  0  0  0  0  0  0
  -24.6248  -17.5045   22.8385 C   0  0  0  0  0  0  0  0  0  0  0  0
  -18.6510  -29.1715   23.6497 C   0  0  0  0  0  0  0  0  0  0  0  0
  -24.6180  -28.2025   19.4860 C   0  0  0  0  0  0  0  0  0  0  0  0
  -20.0038  -28.8623   23.4120 C   0  0  0  0  0  0  0  0  0  0  0  0
  -24.8545  -26.8672   19.1296 C   0  0  0  0  0  0  0  0  0  0  0  0
  -25.6513  -12.7876   20.8964 C   0  0  0  0  0  0  0  0  0  0  0  0
  -27.1785  -27.1129   19.7994 C   0  0  0  0  0  0  0  0  0  0  0  0
  -24.6416  -10.6700   20.7612 C   0  0  0  0  0  0  0  0  0  0  0  0
  -22.3648   -9.0806   21.0310 C   0  0  0  0  0  0  0  0  0  0  0  0
  -23.9997  -10.5749   21.9960 C   0  0  0  0  0  0  0  0  0  0  0  0
  -25.2798  -16.9166   21.7398 C   0  0  0  0  0  0  0  0  0  0  0  0
  -31.3344  -23.2102   21.5659 C   0  0  0  0  0  0  0  0  0  0  0  0
  -24.7880  -18.8556   22.6528 C   0  0  0  0  0  0  0  0  0  0  0  0
  -23.9309  -16.8848   23.9294 C   0  0  0  0  0  0  0  0  0  0  0  0
  -21.8163  -27.2347   20.6338 C   0  0  0  0  0  0  0  0  0  0  0  0
  -21.4266  -26.0751   17.6295 C   0  0  0  0  0  0  0  0  0  0  0  0
  -28.9169  -22.0227   19.6472 C   0  0  0  0  0  0  0  0  0  0  0  0
  -22.8688  -24.9864   14.7344 C   0  0  0  0  0  0  0  0  0  0  0  0
  -17.5395  -28.2413   23.2325 C   0  0  0  0  0  0  0  0  0  0  0  0
  -23.2564  -28.8123   19.2946 C   0  0  0  0  0  0  0  0  0  0  0  0
  -23.7627  -25.9882   18.5784 C   0  0  0  0  0  0  0  0  0  0  0  0
  -17.9650  -27.2147   22.1859 C   0  0  0  0  0  0  0  0  0  0  0  0
  -25.3606  -22.1293   19.2215 C   0  0  0  0  0  0  0  0  0  0  0  0
  -19.2925  -26.5728   22.5766 C   0  0  0  0  0  0  0  0  0  0  0  0
  -24.8799  -20.8440   19.8939 C   0  0  0  0  0  0  0  0  0  0  0  0
  -26.7094  -21.9306   18.5370 C   0  0  0  0  0  0  0  0  0  0  0  0
  -27.2981  -20.1165   20.1130 C   0  0  0  0  0  0  0  0  0  0  0  0
  -20.4108  -27.6195   22.6505 C   0  0  1  0  0  0  0  0  0  0  0  0
  -22.1362  -27.7769   19.2695 C   0  0  1  0  0  0  0  0  0  0  0  0
  -25.9533  -20.2817   20.8427 C   0  0  2  0  0  0  0  0  0  0  0  0
  -22.2935  -24.0665   12.4716 C   0  0  0  0  0  0  0  0  0  0  0  0
  -20.8149  -23.3644   18.8896 C   0  0  0  0  0  0  0  0  0  0  0  0
  -21.1891  -22.3156   16.6473 C   0  0  0  0  0  0  0  0  0  0  0  0
  -19.3487  -23.9709   16.9565 C   0  0  0  0  0  0  0  0  0  0  0  0
  -24.1426  -27.2729   13.3528 C   0  0  0  0  0  0  0  0  0  0  0  0
  -30.3217  -23.7092   22.5656 C   0  0  0  0  0  0  0  0  0  0  0  0
  -29.4052  -24.8106   22.0213 C   0  0  0  0  0  0  0  0  0  0  0  0
  -30.1739  -26.0241   21.4965 C   0  0  0  0  0  0  0  0  0  0  0  0
  -29.2306  -27.1120   21.0014 C   0  0  0  0  0  0  0  0  0  1  0  0
  -21.7463  -24.7727   16.9364 C   0  0  1  0  0  0  0  0  0  0  0  0
  -29.8791  -21.3919   20.6220 C   0  0  2  0  0  0  0  0  0  0  0  0
  -22.5865  -25.3204   13.2807 C   0  0  2  0  0  0  0  0  0  0  0  0
  -20.7951  -23.6217   17.3696 C   0  0  0  0  0  0  0  0  0  0  0  0
  -32.1228  -21.8814   19.9044 N   0  0  0  0  0  0  0  0  0  0  0  0
  -25.8188  -17.8201   20.9169 N   0  0  0  0  0  0  0  0  0  0  0  0
  -31.0921  -22.1706   20.7169 N   0  0  0  0  0  0  0  0  0  0  0  0
  -25.5027  -18.9896   21.4989 N   0  0  0  0  0  0  0  0  0  0  0  0
  -22.4470  -26.6286   18.4157 N   0  0  0  0  0  0  0  0  0  0  0  0
  -27.6952  -21.3743   19.4654 N   0  0  0  0  0  0  0  0  0  0  0  0
  -24.3884  -19.9302   23.3655 N   0  0  0  0  0  0  0  0  0  0  0  0
  -23.8578  -15.4857   23.9662 N   0  0  0  0  0  0  0  0  0  0  0  0
  -20.8671  -27.9663   21.3216 N   0  0  0  0  0  0  0  0  0  0  0  0
  -21.7279  -25.0565   15.5054 N   0  0  0  0  0  0  0  0  0  0  0  0
  -23.7581  -26.0104   12.6707 N   0  3  0  0  0  0  0  0  0  0  0  0
  -23.3777  -17.5526   24.8358 O   0  0  0  0  0  0  0  0  0  0  0  0
  -22.3873  -26.2262   21.0322 O   0  0  0  0  0  0  0  0  0  0  0  0
  -20.3149  -26.5863   17.4731 O   0  0  0  0  0  0  0  0  0  0  0  0
  -29.2421  -23.0623   19.0678 O   0  0  0  0  0  0  0  0  0  0  0  0
  -23.9888  -24.6892   15.1441 O   0  0  0  0  0  0  0  0  0  0  0  0
  -25.7713  -11.4592   20.6255 O   0  0  0  0  0  0  0  0  0  0  0  0
  -28.4205  -26.5788   19.9547 O   0  0  0  0  0  0  0  0  0  1  0  0
  -21.2708   -8.3186   21.1600 F   0  0  0  0  0  0  0  0  0  0  0  0
  -24.4714  -11.2455   23.0559 F   0  0  0  0  0  0  0  0  0  0  0  0
  -30.1132  -20.0961   20.2638 F   0  0  0  0  0  0  0  0  0  0  0  0
  1  2  1  0  0  0  0
  1  5  2  0  0  0  0
  2  6  2  0  0  0  0
  3  8  2  0  0  0  0
  3 17  1  0  0  0  0
  4  9  1  0  0  0  0
  4 17  2  0  0  0  0
  5 19  1  0  0  0  0
  6 21  1  0  0  0  0
  7 10  2  0  0  0  0
  7 20  1  0  0  0  0
  8 23  1  0  0  0  0
  9 23  2  0  0  0  0
 10 24  1  0  0  0  0
 11 12  2  0  0  0  0
 11 25  1  0  0  0  0
 12 26  1  0  0  0  0
 13 16  1  0  0  0  0
 13 29  2  0  0  0  0
 14 22  1  0  0  0  0
 14 24  2  0  0  0  0
 15 26  2  0  0  0  0
 15 27  1  0  0  0  0
 16 61  2  0  0  0  0
 17 28  1  0  0  0  0
 18 28  1  0  0  0  0
 18 30  2  0  0  0  0
 18 31  1  0  0  0  0
 19 21  2  0  0  0  0
 19 36  1  0  0  0  0
 20 22  2  0  0  0  0
 20 37  1  0  0  0  0
 21 45  1  0  0  0  0
 22 38  1  0  0  0  0
 23 77  1  0  0  0  0
 24 78  1  0  0  0  0
 25 27  2  0  0  0  0
 25 77  1  0  0  0  0
 26 79  1  0  0  0  0
 27 80  1  0  0  0  0
 28 62  2  0  0  0  0
 29 53  1  0  0  0  0
 29 63  1  0  0  0  0
 30 64  1  0  0  0  0
 30 67  1  0  0  0  0
 31 68  1  0  0  0  0
 31 72  2  0  0  0  0
 32 46  1  0  0  0  0
 32 69  1  0  0  0  0
 32 73  2  0  0  0  0
 33 57  1  0  0  0  0
 33 65  1  0  0  0  0
 33 74  2  0  0  0  0
 34 58  1  0  0  0  0
 34 66  1  0  0  0  0
 34 75  2  0  0  0  0
 35 59  1  0  0  0  0
 35 70  1  0  0  0  0
 35 76  2  0  0  0  0
 36 39  1  0  0  0  0
 37 46  1  0  0  0  0
 38 65  1  0  0  0  0
 39 41  1  0  0  0  0
 40 42  1  0  0  0  0
 40 43  1  0  0  0  0
 41 45  1  0  0  0  0
 42 47  1  0  0  0  0
 43 66  1  0  0  0  0
 44 47  1  0  0  0  0
 44 66  1  0  0  0  0
 45 69  1  0  0  0  0
 46 65  1  0  0  0  0
 47 64  1  0  0  0  0
 48 59  1  0  0  0  0
 49 60  1  0  0  0  0
 50 60  1  0  0  0  0
 51 60  1  0  0  0  0
 52 71  1  0  0  0  0
 53 54  1  0  0  0  0
 54 55  1  0  0  0  0
 55 56  1  0  0  0  0
 56 78  1  0  0  0  0
 57 60  1  0  0  0  0
 57 70  1  0  0  0  0
 58 63  1  0  0  0  0
 58 81  1  0  0  0  0
 59 71  1  0  0  0  0
 61 63  1  0  0  0  0
 62 64  1  0  0  0  0
M  CHG  1  71   1
M  ISO  4  34 100  56 101  58 100  78 101
M  END
> <Batch ID>
0070

> <Smiles>
CNC(C)C(=O)NC(C(=O)N1Cc2cc([101O:1][101CH2:1]CCCc3ccnn3[100CH:0](F)[100C:0](=O)N3CCCC(n4nc(-c5ccc(Oc6ccc(F)cc6F)cc5)c(C(N)=O)c4N)C3)ccc2CC1C(=O)NC1CCCc2ccccc21)C(C)(C)C

> <Shape>
0.215

> <Color>
0.096

> <Negative vol penalty>
0.000

$$$$

  -OEChem-04052318193D

 83 91  0     1  0  0  0  0  0999 V2000
  -21.2910  -23.0222   21.8409 C   0  0  0  0  0  0  0  0  0  0  0  0
  -22.6263  -23.4126   21.8399 C   0  0  0  0  0  0  0  0  0  0  0  0
  -26.4336  -14.5842   22.9005 C   0  0  0  0  0  0  0  0  0  0  0  0
  -25.5493  -14.3794   20.6615 C   0  0  0  0  0  0  0  0  0  0  0  0
  -20.2922  -23.9575   21.5732 C   0  0  0  0  0  0  0  0  0  0  0  0
  -22.9637  -24.7384   21.5703 C   0  0  0  0  0  0  0  0  0  0  0  0
  -26.4483  -26.5455   24.7697 C   0  0  0  0  0  0  0  0  0  0  0  0
  -25.5371  -13.6119   23.3436 C   0  0  0  0  0  0  0  0  0  0  0  0
  -24.6528  -13.4070   21.1046 C   0  0  0  0  0  0  0  0  0  0  0  0
  -27.7726  -26.1708   24.5469 C   0  0  0  0  0  0  0  0  0  0  0  0
  -24.7249  -10.1135   21.8583 C   0  0  0  0  0  0  0  0  0  0  0  0
  -24.5783   -8.9661   21.0789 C   0  0  0  0  0  0  0  0  0  0  0  0
  -28.1874  -28.2937   23.4791 C   0  0  0  0  0  0  0  0  0  0  0  0
  -22.2312   -9.4616   20.7909 C   0  0  0  0  0  0  0  0  0  0  0  0
  -28.9082  -25.7595   20.2493 C   0  0  0  0  0  0  0  0  0  0  0  0
  -26.4397  -14.9681   21.5595 C   0  0  0  0  0  0  0  0  0  0  0  0
  -28.6667  -15.7672   20.6059 C   0  0  0  0  0  0  0  0  0  0  0  0
  -20.6170  -25.2975   21.3096 C   0  0  0  0  0  0  0  0  0  0  0  0
  -25.9800  -27.7950   24.3385 C   0  0  0  0  0  0  0  0  0  0  0  0
  -21.9684  -25.6922   21.2975 C   0  0  0  0  0  0  0  0  0  0  0  0
  -26.8574  -28.6830   23.7000 C   0  0  0  0  0  0  0  0  0  0  0  0
  -30.1314  -25.1390   20.4014 C   0  0  0  0  0  0  0  0  0  0  0  0
  -24.6467  -13.0232   22.4456 C   0  0  0  0  0  0  0  0  0  0  0  0
  -28.6416  -27.0437   23.8990 C   0  0  0  0  0  0  0  0  0  0  0  0
  -23.6246  -10.9349   22.1042 C   0  0  0  0  0  0  0  0  0  0  0  0
  -23.3315   -8.6401   20.5452 C   0  0  0  0  0  0  0  0  0  0  0  0
  -22.3778  -10.6090   21.5704 C   0  0  0  0  0  0  0  0  0  0  0  0
  -27.3652  -15.9729   21.1013 C   0  0  0  0  0  0  0  0  0  0  0  0
  -30.2686  -23.9247   19.7604 C   0  0  0  0  0  0  0  0  0  0  0  0
  -29.1243  -17.0278   20.3090 C   0  0  0  0  0  0  0  0  0  0  0  0
  -28.1478  -24.0543   18.9527 C   0  0  0  0  0  0  0  0  0  0  0  0
  -29.3969  -14.5459   20.4297 C   0  0  0  0  0  0  0  0  0  0  0  0
  -23.7535  -28.7712   22.2907 C   0  0  0  0  0  0  0  0  0  0  0  0
  -24.5187  -31.6996   23.4574 C   0  0  0  0  0  0  0  0  0  0  0  0
  -27.1110  -21.9457   18.1695 C   0  0  0  0  0  0  0  0  0  0  0  0
  -26.8269  -33.6983   24.9820 C   0  0  0  0  0  0  0  0  0  0  0  0
  -19.5058  -26.2623   20.9792 C   0  0  0  0  0  0  0  0  0  0  0  0
  -24.5557  -28.1949   24.6103 C   0  0  0  0  0  0  0  0  0  0  0  0
  -26.4094  -30.0439   23.2355 C   0  0  0  0  0  0  0  0  0  0  0  0
  -19.9236  -27.7276   21.0724 C   0  0  0  0  0  0  0  0  0  0  0  0
  -27.9088  -21.6044   21.7013 C   0  0  0  0  0  0  0  0  0  0  0  0
  -21.2601  -27.9473   20.3708 C   0  0  0  0  0  0  0  0  0  0  0  0
  -27.9446  -20.0851   21.8612 C   0  0  0  0  0  0  0  0  0  0  0  0
  -26.8453  -22.0381   20.6959 C   0  0  0  0  0  0  0  0  0  0  0  0
  -27.0187  -19.8708   19.5139 C   0  0  0  0  0  0  0  0  0  0  0  0
  -22.3728  -27.1265   21.0340 C   0  0  1  0  0  0  0  0  0  0  0  0
  -24.0517  -29.2859   23.6705 C   0  0  1  0  0  0  0  0  0  0  0  0
  -28.0991  -19.3902   20.4971 C   0  0  2  0  0  0  0  0  0  0  0  0
  -31.5490  -23.1623   19.8543 C   0  0  0  0  0  0  0  0  0  0  0  0
  -27.1788  -36.0549   25.7693 C   0  0  0  0  0  0  0  0  0  0  0  0
  -27.1360  -23.8971   16.6627 C   0  0  0  0  0  0  0  0  0  0  0  0
  -25.5988  -23.7666   18.6259 C   0  0  0  0  0  0  0  0  0  0  0  0
  -24.9646  -32.5936   20.5744 C   0  0  0  0  0  0  0  0  0  0  0  0
  -26.1980  -34.5859   21.4564 C   0  0  0  0  0  0  0  0  0  0  0  0
  -23.7880  -34.2654   22.0149 C   0  0  0  0  0  0  0  0  0  0  0  0
  -27.1727  -32.8315   27.7906 C   0  0  0  0  0  0  0  0  0  0  0  0
  -31.2297  -25.7686   21.2205 C   0  0  0  0  0  0  0  0  0  0  0  0
  -31.4131  -25.1302   22.5990 C   0  0  0  0  0  0  0  0  0  0  0  0
  -30.1970  -25.2885   23.5044 C   0  0  0  0  0  0  0  0  0  1  0  0
  -25.5191  -32.7689   23.0899 C   0  0  1  0  0  0  0  0  0  0  0  0
  -26.7117  -34.6591   26.1517 C   0  0  2  0  0  0  0  0  0  0  0  0
  -27.0464  -23.4521   18.1475 C   0  0  0  0  0  0  0  0  0  0  0  0
  -25.1257  -33.5271   21.7908 C   0  0  0  0  0  0  0  0  0  0  0  0
  -27.8903  -25.2437   19.5294 N   0  0  0  0  0  0  0  0  0  0  0  0
  -27.0183  -17.2626   21.1198 N   0  0  0  0  0  0  0  0  0  0  0  0
  -29.2937  -23.3507   19.0252 N   0  0  0  0  0  0  0  0  0  0  0  0
  -28.1087  -17.8787   20.6323 N   0  0  0  0  0  0  0  0  0  0  0  0
  -25.0058  -30.3863   23.5188 N   0  0  0  0  0  0  0  0  0  0  0  0
  -27.0104  -21.3334   19.4190 N   0  0  0  0  0  0  0  0  0  0  0  0
  -30.2923  -17.4802   19.8055 N   0  0  0  0  0  0  0  0  0  0  0  0
  -28.7775  -13.3400   20.7854 N   0  0  0  0  0  0  0  0  0  0  0  0
  -22.8091  -27.7630   22.2583 N   0  0  0  0  0  0  0  0  0  0  0  0
  -25.6520  -33.6244   24.2641 N   0  0  0  0  0  0  0  0  0  0  0  0
  -27.5394  -34.1835   27.2961 N   0  3  0  0  0  0  0  0  0  0  0  0
  -30.5699  -14.5260   19.9858 O   0  0  0  0  0  0  0  0  0  0  0  0
  -24.3359  -29.2541   21.3267 O   0  0  0  0  0  0  0  0  0  0  0  0
  -23.3499  -32.0188   23.6887 O   0  0  0  0  0  0  0  0  0  0  0  0
  -27.2495  -21.3335   17.1073 O   0  0  0  0  0  0  0  0  0  0  0  0
  -27.8574  -33.0784   24.7282 O   0  0  0  0  0  0  0  0  0  0  0  0
  -23.7719  -12.0741   22.8776 O   0  0  0  0  0  0  0  0  0  0  0  0
  -29.9345  -26.6802   23.6796 O   0  0  0  0  0  0  0  0  0  1  0  0
  -23.1912   -7.5391   19.7954 F   0  0  0  0  0  0  0  0  0  0  0  0
  -21.3174  -11.3949   21.8022 F   0  0  0  0  0  0  0  0  0  0  0  0
  1  2  1  0  0  0  0
  1  5  2  0  0  0  0
  2  6  2  0  0  0  0
  3  8  2  0  0  0  0
  3 16  1  0  0  0  0
  4  9  1  0  0  0  0
  4 16  2  0  0  0  0
  5 18  1  0  0  0  0
  6 20  1  0  0  0  0
  7 10  2  0  0  0  0
  7 19  1  0  0  0  0
  8 23  1  0  0  0  0
  9 23  2  0  0  0  0
 10 24  1  0  0  0  0
 11 12  2  0  0  0  0
 11 25  1  0  0  0  0
 12 26  1  0  0  0  0
 13 21  1  0  0  0  0
 13 24  2  0  0  0  0
 14 26  2  0  0  0  0
 14 27  1  0  0  0  0
 15 22  1  0  0  0  0
 15 64  2  0  0  0  0
 16 28  1  0  0  0  0
 17 28  1  0  0  0  0
 17 30  2  0  0  0  0
 17 32  1  0  0  0  0
 18 20  2  0  0  0  0
 18 37  1  0  0  0  0
 19 21  2  0  0  0  0
 19 38  1  0  0  0  0
 20 46  1  0  0  0  0
 21 39  1  0  0  0  0
 22 29  2  0  0  0  0
 22 57  1  0  0  0  0
 23 80  1  0  0  0  0
 24 81  1  0  0  0  0
 25 27  2  0  0  0  0
 25 80  1  0  0  0  0
 26 82  1  0  0  0  0
 27 83  1  0  0  0  0
 28 65  2  0  0  0  0
 29 49  1  0  0  0  0
 29 66  1  0  0  0  0
 30 67  1  0  0  0  0
 30 70  1  0  0  0  0
 31 62  1  0  0  0  0
 31 64  1  0  0  0  0
 31 66  2  0  0  0  0
 32 71  1  0  0  0  0
 32 75  2  0  0  0  0
 33 47  1  0  0  0  0
 33 72  1  0  0  0  0
 33 76  2  0  0  0  0
 34 60  1  0  0  0  0
 34 68  1  0  0  0  0
 34 77  2  0  0  0  0
 35 62  1  0  0  0  0
 35 69  1  0  0  0  0
 35 78  2  0  0  0  0
 36 61  1  0  0  0  0
 36 73  1  0  0  0  0
 36 79  2  0  0  0  0
 37 40  1  0  0  0  0
 38 47  1  0  0  0  0
 39 68  1  0  0  0  0
 40 42  1  0  0  0  0
 41 43  1  0  0  0  0
 41 44  1  0  0  0  0
 42 46  1  0  0  0  0
 43 48  1  0  0  0  0
 44 69  1  0  0  0  0
 45 48  1  0  0  0  0
 45 69  1  0  0  0  0
 46 72  1  0  0  0  0
 47 68  1  0  0  0  0
 48 67  1  0  0  0  0
 50 61  1  0  0  0  0
 51 62  1  0  0  0  0
 52 62  1  0  0  0  0
 53 63  1  0  0  0  0
 54 63  1  0  0  0  0
 55 63  1  0  0  0  0
 56 74  1  0  0  0  0
 57 58  1  0  0  0  0
 58 59  1  0  0  0  0
 59 81  1  0  0  0  0
 60 63  1  0  0  0  0
 60 73  1  0  0  0  0
 61 74  1  0  0  0  0
 65 67  1  0  0  0  0
M  CHG  1  74   1
M  ISO  4  35 100  59 101  62 100  81 101
M  END
> <Batch ID>
0070

> <Smiles>
CNC(C)C(=O)NC(C(=O)N1Cc2cc([101O:1][101CH2:1]CCc3cnc([100C:0](C)(C)[100C:0](=O)N4CCCC(n5nc(-c6ccc(Oc7ccc(F)cc7F)cc6)c(C(N)=O)c5N)C4)nc3C)ccc2CC1C(=O)NC1CCCc2ccccc21)C(C)(C)C

> <Shape>
0.242

> <Color>
0.089

> <Negative vol penalty>
0.000

$$$$

  -OEChem-04052318193D

 86 94  0     1  0  0  0  0  0999 V2000
  -39.2548  -28.2562   18.7544 C   0  0  0  0  0  0  0  0  0  0  0  0
  -39.0393  -26.8820   18.7790 C   0  0  0  0  0  0  0  0  0  0  0  0
  -23.1684   -9.7922   19.9700 C   0  0  0  0  0  0  0  0  0  0  0  0
  -23.6429   -9.9980   22.3299 C   0  0  0  0  0  0  0  0  0  0  0  0
  -38.4252  -29.1039   19.4872 C   0  0  0  0  0  0  0  0  0  0  0  0
  -37.9947  -26.3547   19.5374 C   0  0  0  0  0  0  0  0  0  0  0  0
  -35.3653  -22.8248   17.0333 C   0  0  0  0  0  0  0  0  0  0  0  0
  -22.4281   -8.6366   20.2196 C   0  0  0  0  0  0  0  0  0  0  0  0
  -22.9025   -8.8425   22.5796 C   0  0  0  0  0  0  0  0  0  0  0  0
  -35.9315  -21.5539   16.9426 C   0  0  0  0  0  0  0  0  0  0  0  0
  -23.3405   -5.4997   22.3254 C   0  0  0  0  0  0  0  0  0  0  0  0
  -23.8889   -4.5530   23.1905 C   0  0  0  0  0  0  0  0  0  0  0  0
  -34.5157  -20.8013   18.7450 C   0  0  0  0  0  0  0  0  0  0  0  0
  -21.9885   -4.7972   24.6624 C   0  0  0  0  0  0  0  0  0  0  0  0
  -32.0767  -16.2510   18.3771 C   0  0  0  0  0  0  0  0  0  0  0  0
  -23.7758  -10.4728   21.0251 C   0  0  0  0  0  0  0  0  0  0  0  0
  -24.0678  -12.9918   20.7476 C   0  0  0  0  0  0  0  0  0  0  0  0
  -37.3639  -28.5875   20.2473 C   0  0  0  0  0  0  0  0  0  0  0  0
  -34.3762  -23.0968   17.9893 C   0  0  0  0  0  0  0  0  0  0  0  0
  -37.1510  -27.1962   20.2822 C   0  0  0  0  0  0  0  0  0  0  0  0
  -33.9368  -22.0757   18.8440 C   0  0  0  0  0  0  0  0  0  0  0  0
  -22.2951   -8.1618   21.5244 C   0  0  0  0  0  0  0  0  0  0  0  0
  -35.5088  -20.5427   17.8004 C   0  0  0  0  0  0  0  0  0  0  0  0
  -22.1161   -6.0953   22.6287 C   0  0  0  0  0  0  0  0  0  0  0  0
  -23.2129   -4.2017   24.3590 C   0  0  0  0  0  0  0  0  0  0  0  0
  -21.4402   -5.7440   23.7972 C   0  0  0  0  0  0  0  0  0  0  0  0
  -24.5412  -11.6662   20.7678 C   0  0  0  0  0  0  0  0  0  0  0  0
  -32.7627  -15.1850   17.8671 C   0  0  0  0  0  0  0  0  0  0  0  0
  -25.1773  -13.7483   20.4593 C   0  0  0  0  0  0  0  0  0  0  0  0
  -32.2922  -14.7448   19.9850 C   0  0  0  0  0  0  0  0  0  0  0  0
  -22.7435  -13.4945   20.9695 C   0  0  0  0  0  0  0  0  0  0  0  0
  -34.1400  -25.0632   20.4755 C   0  0  0  0  0  0  0  0  0  0  0  0
  -31.0876  -23.9684   20.5550 C   0  0  0  0  0  0  0  0  0  0  0  0
  -30.7727  -13.8251   21.6850 C   0  0  0  0  0  0  0  0  0  0  0  0
  -28.8766  -21.4913   19.7662 C   0  0  0  0  0  0  0  0  0  0  0  0
  -36.5230  -29.5394   21.0606 C   0  0  0  0  0  0  0  0  0  0  0  0
  -33.7565  -24.4657   18.0565 C   0  0  0  0  0  0  0  0  0  0  0  0
  -32.8636  -22.3108   19.8742 C   0  0  0  0  0  0  0  0  0  0  0  0
  -35.2072  -28.9321   21.5404 C   0  0  0  0  0  0  0  0  0  0  0  0
  -29.5701  -12.8616   18.3907 C   0  0  0  0  0  0  0  0  0  0  0  0
  -35.4427  -27.5442   22.1278 C   0  0  0  0  0  0  0  0  0  0  0  0
  -28.1017  -12.5527   18.6797 C   0  0  0  0  0  0  0  0  0  0  0  0
  -30.4678  -12.4643   19.5597 C   0  0  0  0  0  0  0  0  0  0  0  0
  -28.5992  -12.7696   21.1532 C   0  0  0  0  0  0  0  0  0  0  0  0
  -36.0130  -26.5883   21.0730 C   0  0  1  0  0  0  0  0  0  0  0  0
  -33.1220  -24.7686   19.4104 C   0  0  1  0  0  0  0  0  0  0  0  0
  -27.6567  -13.1835   20.0108 C   0  0  2  0  0  0  0  0  0  0  0  0
  -31.9440  -17.9470   21.1280 C   0  0  0  0  0  0  0  0  0  0  0  0
  -26.4576  -20.8638   19.9945 C   0  0  0  0  0  0  0  0  0  0  0  0
  -32.7987  -12.5947   21.3371 C   0  0  0  0  0  0  0  0  0  0  0  0
  -31.5507  -23.2592   23.4863 C   0  0  0  0  0  0  0  0  0  0  0  0
  -29.5089  -21.8137   23.3869 C   0  0  0  0  0  0  0  0  0  0  0  0
  -29.3160  -24.2702   22.9981 C   0  0  0  0  0  0  0  0  0  0  0  0
  -28.5009  -21.4097   16.8317 C   0  0  0  0  0  0  0  0  0  0  0  0
  -33.3314  -14.9309   16.4937 C   0  0  0  0  0  0  0  0  0  0  0  0
  -34.7746  -15.4178   16.3209 C   0  0  0  0  0  0  0  0  0  0  0  0
  -34.9173  -16.9355   16.4725 C   0  0  0  0  0  0  0  0  0  0  0  0
  -36.3737  -17.3719   16.3234 C   0  0  0  0  0  0  0  0  0  0  0  0
  -31.0786  -16.8129   20.6059 C   0  0  0  0  0  0  0  0  0  0  0  0
  -32.8481  -14.8618   22.4642 C   0  0  0  0  0  0  0  0  0  0  0  0
  -36.5210  -18.8831   16.4305 C   0  0  0  0  0  0  0  0  0  1  0  0
  -30.3826  -22.8150   21.2270 C   0  0  1  0  0  0  0  0  0  0  0  0
  -27.5043  -21.5347   19.1186 C   0  0  2  0  0  0  0  0  0  0  0  0
  -32.2117  -14.0441   21.2909 C   0  0  1  0  0  0  0  0  0  0  0  0
  -30.2112  -23.0353   22.7566 C   0  0  0  0  0  0  0  0  0  0  0  0
  -25.8495  -11.5820   20.5126 N   0  0  0  0  0  0  0  0  0  0  0  0
  -31.7980  -15.9513   19.6888 N   0  0  0  0  0  0  0  0  0  0  0  0
  -26.2077  -12.8642   20.3292 N   0  0  0  0  0  0  0  0  0  0  0  0
  -32.8819  -14.2683   18.8838 N   0  3  0  0  0  0  0  0  0  0  0  0
  -32.2929  -23.6676   19.9050 N   0  0  0  0  0  0  0  0  0  0  0  0
  -29.9944  -13.0631   20.8134 N   0  0  0  0  0  0  0  0  0  0  0  0
  -25.3624  -15.0768   20.3070 N   0  0  0  0  0  0  0  0  0  0  0  0
  -21.7206  -12.5796   21.2543 N   0  0  0  0  0  0  0  0  0  0  0  0
  -34.9653  -26.1326   20.1847 N   0  0  0  0  0  0  0  0  0  0  0  0
  -29.1283  -22.6273   20.5061 N   0  0  0  0  0  0  0  0  0  0  0  0
  -34.2895  -15.1201   22.2154 N   0  3  0  0  0  0  0  0  0  0  0  0
  -27.5310  -20.8385   17.8012 N   0  3  0  0  0  0  0  0  0  0  0  0
  -22.4719  -14.7172   20.9008 O   0  0  0  0  0  0  0  0  0  0  0  0
  -34.1733  -24.3723   21.4871 O   0  0  0  0  0  0  0  0  0  0  0  0
  -30.5836  -25.0935   20.5989 O   0  0  0  0  0  0  0  0  0  0  0  0
  -30.3542  -14.3197   22.7349 O   0  0  0  0  0  0  0  0  0  0  0  0
  -29.6467  -20.5429   19.6323 O   0  0  0  0  0  0  0  0  0  0  0  0
  -21.5726   -7.0344   21.7684 O   0  0  0  0  0  0  0  0  0  0  0  0
  -36.0601  -19.3016   17.7145 O   0  0  0  0  0  0  0  0  0  1  0  0
  -23.7389   -3.2914   25.1890 F   0  0  0  0  0  0  0  0  0  0  0  0
  -20.2630   -6.3119   24.0934 F   0  0  0  0  0  0  0  0  0  0  0  0
  1  2  1  0  0  0  0
  1  5  2  0  0  0  0
  2  6  2  0  0  0  0
  3  8  2  0  0  0  0
  3 16  1  0  0  0  0
  4  9  1  0  0  0  0
  4 16  2  0  0  0  0
  5 18  1  0  0  0  0
  6 20  1  0  0  0  0
  7 10  2  0  0  0  0
  7 19  1  0  0  0  0
  8 22  1  0  0  0  0
  9 22  2  0  0  0  0
 10 23  1  0  0  0  0
 11 12  2  0  0  0  0
 11 24  1  0  0  0  0
 12 25  1  0  0  0  0
 13 21  1  0  0  0  0
 13 23  2  0  0  0  0
 14 25  2  0  0  0  0
 14 26  1  0  0  0  0
 15 28  2  0  0  0  0
 15 67  1  0  0  0  0
 16 27  1  0  0  0  0
 17 27  1  0  0  0  0
 17 29  2  0  0  0  0
 17 31  1  0  0  0  0
 18 20  2  0  0  0  0
 18 36  1  0  0  0  0
 19 21  2  0  0  0  0
 19 37  1  0  0  0  0
 20 45  1  0  0  0  0
 21 38  1  0  0  0  0
 22 83  1  0  0  0  0
 23 84  1  0  0  0  0
 24 26  2  0  0  0  0
 24 83  1  0  0  0  0
 25 85  1  0  0  0  0
 26 86  1  0  0  0  0
 27 66  2  0  0  0  0
 28 55  1  0  0  0  0
 28 69  1  0  0  0  0
 29 68  1  0  0  0  0
 29 72  1  0  0  0  0
 30 64  1  0  0  0  0
 30 67  1  0  0  0  0
 30 69  2  0  0  0  0
 31 73  1  0  0  0  0
 31 78  2  0  0  0  0
 32 46  1  0  0  0  0
 32 74  1  0  0  0  0
 32 79  2  0  0  0  0
 33 62  1  0  0  0  0
 33 70  1  0  0  0  0
 33 80  2  0  0  0  0
 34 64  1  0  0  0  0
 34 71  1  0  0  0  0
 34 81  2  0  0  0  0
 35 63  1  0  0  0  0
 35 75  1  0  0  0  0
 35 82  2  0  0  0  0
 36 39  1  0  0  0  0
 37 46  1  0  0  0  0
 38 70  1  0  0  0  0
 39 41  1  0  0  0  0
 40 42  1  0  0  0  0
 40 43  1  0  0  0  0
 41 45  1  0  0  0  0
 42 47  1  0  0  0  0
 43 71  1  0  0  0  0
 44 47  1  0  0  0  0
 44 71  1  0  0  0  0
 45 74  1  0  0  0  0
 46 70  1  0  0  0  0
 47 68  1  0  0  0  0
 48 59  1  0  0  0  0
 49 63  1  0  0  0  0
 50 64  1  0  0  0  0
 51 65  1  0  0  0  0
 52 65  1  0  0  0  0
 53 65  1  0  0  0  0
 54 77  1  0  0  0  0
 55 56  1  0  0  0  0
 56 57  1  0  0  0  0
 57 58  1  0  0  0  0
 58 61  1  0  0  0  0
 59 67  1  0  0  0  0
 60 64  1  0  0  0  0
 60 76  1  0  0  0  0
 61 84  1  0  0  0  0
 62 65  1  0  0  0  0
 62 75  1  0  0  0  0
 63 77  1  0  0  0  0
 66 68  1  0  0  0  0
M  CHG  3  69   1  76   1  77   1
M  ISO  4  34 100  61 101  64 100  84 101
M  END
> <Batch ID>
0070

> <Smiles>
CCn1cc(CCCC[101CH2:1][101O:1]c2ccc3c(c2)CN(C(=O)C(NC(=O)C(C)NC)C(C)(C)C)C(C(=O)NC2CCCc4ccccc42)C3)nc1[100C:0](C)(CN)[100C:0](=O)N1CCCC(n2nc(-c3ccc(Oc4ccc(F)cc4F)cc3)c(C(N)=O)c2N)C1

> <Shape>
0.202

> <Color>
0.192

> <Negative vol penalty>
0.000

$$$$

  -OEChem-04052318193D

 84 92  0     1  0  0  0  0  0999 V2000
  -32.4466  -11.9501   21.2373 C   0  0  0  0  0  0  0  0  0  0  0  0
  -32.1726  -13.2135   21.7512 C   0  0  0  0  0  0  0  0  0  0  0  0
  -28.3017  -25.6474   21.2296 C   0  0  0  0  0  0  0  0  0  0  0  0
  -26.6136  -24.5964   19.8574 C   0  0  0  0  0  0  0  0  0  0  0  0
  -31.5689  -11.3641   20.3261 C   0  0  0  0  0  0  0  0  0  0  0  0
  -31.0212  -13.8921   21.3534 C   0  0  0  0  0  0  0  0  0  0  0  0
  -26.1095  -18.4815   23.8292 C   0  0  0  0  0  0  0  0  0  0  0  0
  -28.9085  -24.4080   21.4324 C   0  0  0  0  0  0  0  0  0  0  0  0
  -27.2205  -23.3570   20.0601 C   0  0  0  0  0  0  0  0  0  0  0  0
  -25.5110  -19.6978   23.5035 C   0  0  0  0  0  0  0  0  0  0  0  0
  -29.8882  -21.6654   18.8589 C   0  0  0  0  0  0  0  0  0  0  0  0
  -30.0560  -20.8383   17.7484 C   0  0  0  0  0  0  0  0  0  0  0  0
  -24.0268  -18.5539   21.9843 C   0  0  0  0  0  0  0  0  0  0  0  0
  -20.7870  -26.5490   22.9790 C   0  0  0  0  0  0  0  0  0  0  0  0
  -28.7004  -19.1417   18.8071 C   0  0  0  0  0  0  0  0  0  0  0  0
  -27.1541  -25.7417   20.4421 C   0  0  0  0  0  0  0  0  0  0  0  0
  -26.7933  -27.9406   19.2002 C   0  0  0  0  0  0  0  0  0  0  0  0
  -30.4013  -12.0318   19.9243 C   0  0  0  0  0  0  0  0  0  0  0  0
  -25.6777  -17.2916   23.2257 C   0  0  0  0  0  0  0  0  0  0  0  0
  -30.1278  -13.3151   20.4350 C   0  0  0  0  0  0  0  0  0  0  0  0
  -24.6198  -17.3235   22.3059 C   0  0  0  0  0  0  0  0  0  0  0  0
  -21.1693  -25.2434   23.2324 C   0  0  0  0  0  0  0  0  0  0  0  0
  -28.3680  -23.2628   20.8476 C   0  0  0  0  0  0  0  0  0  0  0  0
  -24.4715  -19.7346   22.5788 C   0  0  0  0  0  0  0  0  0  0  0  0
  -29.1265  -21.2306   19.9436 C   0  0  0  0  0  0  0  0  0  0  0  0
  -29.4621  -19.5765   17.7224 C   0  0  0  0  0  0  0  0  0  0  0  0
  -28.5326  -19.9688   19.9176 C   0  0  0  0  0  0  0  0  0  0  0  0
  -26.5264  -27.0216   20.2327 C   0  0  0  0  0  0  0  0  0  0  0  0
  -20.6509  -26.9381   21.6616 C   0  0  0  0  0  0  0  0  0  0  0  0
  -21.3900  -24.4134   22.1517 C   0  0  0  0  0  0  0  0  0  0  0  0
  -25.9405  -28.9890   19.4448 C   0  0  0  0  0  0  0  0  0  0  0  0
  -27.7285  -27.8541   18.1169 C   0  0  0  0  0  0  0  0  0  0  0  0
  -27.0297  -15.1062   21.3548 C   0  0  0  0  0  0  0  0  0  0  0  0
  -24.2144  -13.5552   21.7918 C   0  0  0  0  0  0  0  0  0  0  0  0
  -20.7109  -29.3049   22.3882 C   0  0  0  0  0  0  0  0  0  0  0  0
  -20.8914  -13.7403   22.5471 C   0  0  0  0  0  0  0  0  0  0  0  0
  -29.5069  -11.3781   18.9009 C   0  0  0  0  0  0  0  0  0  0  0  0
  -26.3158  -15.9842   23.6077 C   0  0  0  0  0  0  0  0  0  0  0  0
  -24.1056  -16.0715   21.6450 C   0  0  0  0  0  0  0  0  0  0  0  0
  -28.1177  -12.0053   18.8167 C   0  0  0  0  0  0  0  0  0  0  0  0
  -23.6711  -31.2287   23.0018 C   0  0  0  0  0  0  0  0  0  0  0  0
  -28.2206  -13.5266   18.7725 C   0  0  0  0  0  0  0  0  0  0  0  0
  -24.7678  -30.4363   22.2915 C   0  0  0  0  0  0  0  0  0  0  0  0
  -22.6168  -30.3057   23.6049 C   0  0  0  0  0  0  0  0  0  0  0  0
  -23.0983  -28.5672   21.9116 C   0  0  0  0  0  0  0  0  0  0  0  0
  -28.8765  -14.0724   20.0467 C   0  0  1  0  0  0  0  0  0  0  0  0
  -26.1396  -14.9011   22.5479 C   0  0  1  0  0  0  0  0  0  0  0  0
  -24.1677  -29.4629   21.2615 C   0  0  2  0  0  0  0  0  0  0  0  0
  -22.6322  -25.2590   25.2687 C   0  0  0  0  0  0  0  0  0  0  0  0
  -18.8436  -12.3101   22.7886 C   0  0  0  0  0  0  0  0  0  0  0  0
  -18.6960  -28.4551   21.2500 C   0  0  0  0  0  0  0  0  0  0  0  0
  -20.8126  -28.9219   20.0107 C   0  0  0  0  0  0  0  0  0  0  0  0
  -23.9890  -13.3693   18.7546 C   0  0  0  0  0  0  0  0  0  0  0  0
  -21.5631  -12.8189   19.0381 C   0  0  0  0  0  0  0  0  0  0  0  0
  -23.3032  -11.3000   19.9802 C   0  0  0  0  0  0  0  0  0  0  0  0
  -20.5725  -14.4752   25.3962 C   0  0  0  0  0  0  0  0  0  0  0  0
  -21.3300  -24.7724   24.6364 C   0  0  0  0  0  0  0  0  0  0  0  0
  -21.8096  -22.9787   22.3498 C   0  0  0  0  0  0  0  0  0  0  0  0
  -22.3249  -22.3062   21.0756 C   0  0  0  0  0  0  0  0  0  0  0  0
  -22.8264  -20.8849   21.3035 C   0  0  0  0  0  0  0  0  0  1  0  0
  -22.8825  -13.5366   21.0814 C   0  0  1  0  0  0  0  0  0  0  0  0
  -20.0298  -12.9370   23.5046 C   0  0  2  0  0  0  0  0  0  0  0  0
  -20.2418  -28.3334   21.3346 C   0  0  0  0  0  0  0  0  0  0  0  0
  -22.9452  -12.7802   19.7244 C   0  0  0  0  0  0  0  0  0  0  0  0
  -25.5783  -27.4488   21.0710 N   0  0  0  0  0  0  0  0  0  0  0  0
  -20.8735  -26.1044   20.6236 N   0  0  0  0  0  0  0  0  0  0  0  0
  -21.2489  -24.8212   20.8728 N   0  0  0  0  0  0  0  0  0  0  0  0
  -25.2421  -28.6478   20.5655 N   0  0  0  0  0  0  0  0  0  0  0  0
  -24.7662  -14.8187   22.0468 N   0  0  0  0  0  0  0  0  0  0  0  0
  -22.0876  -29.3818   22.6001 N   0  0  0  0  0  0  0  0  0  0  0  0
  -25.7274  -30.1604   18.8085 N   0  0  0  0  0  0  0  0  0  0  0  0
  -28.5274  -26.7072   18.0138 N   0  0  0  0  0  0  0  0  0  0  0  0
  -27.9285  -14.0788   21.1402 N   0  0  0  0  0  0  0  0  0  0  0  0
  -21.9217  -12.9838   22.0298 N   0  0  0  0  0  0  0  0  0  0  0  0
  -19.5123  -13.8120   24.5943 N   0  3  0  0  0  0  0  0  0  0  0  0
  -27.8635  -28.7741   17.2749 O   0  0  0  0  0  0  0  0  0  0  0  0
  -26.9089  -16.1208   20.6782 O   0  0  0  0  0  0  0  0  0  0  0  0
  -24.7423  -12.4882   22.1152 O   0  0  0  0  0  0  0  0  0  0  0  0
  -19.8773  -29.9767   23.0015 O   0  0  0  0  0  0  0  0  0  0  0  0
  -20.6703  -14.9197   22.2816 O   0  0  0  0  0  0  0  0  0  0  0  0
  -28.9601  -22.0533   21.0451 O   0  0  0  0  0  0  0  0  0  0  0  0
  -23.8860  -20.9206   22.2586 O   0  0  0  0  0  0  0  0  0  1  0  0
  -29.6221  -18.7829   16.6552 F   0  0  0  0  0  0  0  0  0  0  0  0
  -27.7987  -19.5461   20.9562 F   0  0  0  0  0  0  0  0  0  0  0  0
  1  2  1  0  0  0  0
  1  5  2  0  0  0  0
  2  6  2  0  0  0  0
  3  8  2  0  0  0  0
  3 16  1  0  0  0  0
  4  9  1  0  0  0  0
  4 16  2  0  0  0  0
  5 18  1  0  0  0  0
  6 20  1  0  0  0  0
  7 10  2  0  0  0  0
  7 19  1  0  0  0  0
  8 23  1  0  0  0  0
  9 23  2  0  0  0  0
 10 24  1  0  0  0  0
 11 12  2  0  0  0  0
 11 25  1  0  0  0  0
 12 26  1  0  0  0  0
 13 21  1  0  0  0  0
 13 24  2  0  0  0  0
 14 22  1  0  0  0  0
 14 29  2  0  0  0  0
 15 26  2  0  0  0  0
 15 27  1  0  0  0  0
 16 28  1  0  0  0  0
 17 28  1  0  0  0  0
 17 31  2  0  0  0  0
 17 32  1  0  0  0  0
 18 20  2  0  0  0  0
 18 37  1  0  0  0  0
 19 21  2  0  0  0  0
 19 38  1  0  0  0  0
 20 46  1  0  0  0  0
 21 39  1  0  0  0  0
 22 30  2  0  0  0  0
 22 57  1  0  0  0  0
 23 81  1  0  0  0  0
 24 82  1  0  0  0  0
 25 27  2  0  0  0  0
 25 81  1  0  0  0  0
 26 83  1  0  0  0  0
 27 84  1  0  0  0  0
 28 65  2  0  0  0  0
 29 63  1  0  0  0  0
 29 66  1  0  0  0  0
 30 58  1  0  0  0  0
 30 67  1  0  0  0  0
 31 68  1  0  0  0  0
 31 71  1  0  0  0  0
 32 72  1  0  0  0  0
 32 76  2  0  0  0  0
 33 47  1  0  0  0  0
 33 73  1  0  0  0  0
 33 77  2  0  0  0  0
 34 61  1  0  0  0  0
 34 69  1  0  0  0  0
 34 78  2  0  0  0  0
 35 63  1  0  0  0  0
 35 70  1  0  0  0  0
 35 79  2  0  0  0  0
 36 62  1  0  0  0  0
 36 74  1  0  0  0  0
 36 80  2  0  0  0  0
 37 40  1  0  0  0  0
 38 47  1  0  0  0  0
 39 69  1  0  0  0  0
 40 42  1  0  0  0  0
 41 43  1  0  0  0  0
 41 44  1  0  0  0  0
 42 46  1  0  0  0  0
 43 48  1  0  0  0  0
 44 70  1  0  0  0  0
 45 48  1  0  0  0  0
 45 70  1  0  0  0  0
 46 73  1  0  0  0  0
 47 69  1  0  0  0  0
 48 68  1  0  0  0  0
 49 57  1  0  0  0  0
 50 62  1  0  0  0  0
 51 63  1  0  0  0  0
 52 63  1  0  0  0  0
 53 64  1  0  0  0  0
 54 64  1  0  0  0  0
 55 64  1  0  0  0  0
 56 75  1  0  0  0  0
 58 59  1  0  0  0  0
 59 60  1  0  0  0  0
 60 82  1  0  0  0  0
 61 64  1  0  0  0  0
 61 74  1  0  0  0  0
 62 75  1  0  0  0  0
 65 68  1  0  0  0  0
 66 67  2  0  0  0  0
M  CHG  1  75   1
M  ISO  4  35 100  60 101  63 100  82 101
M  END
> <Batch ID>
0070

> <Smiles>
CCc1cc([100C:0](C)(C)[100C:0](=O)N2CCCC(n3nc(-c4ccc(Oc5ccc(F)cc5F)cc4)c(C(N)=O)c3N)C2)nnc1CC[101CH2:1][101O:1]c1ccc2c(c1)CN(C(=O)C(NC(=O)C(C)NC)C(C)(C)C)C(C(=O)NC1CCCc3ccccc31)C2

> <Shape>
0.242

> <Color>
0.054

> <Negative vol penalty>
0.000

$$$$

  -OEChem-04052318193D

 87 95  0     1  0  0  0  0  0999 V2000
  -29.1763  -31.8105   26.8122 C   0  0  0  0  0  0  0  0  0  0  0  0
  -29.2070  -31.0658   25.6375 C   0  0  0  0  0  0  0  0  0  0  0  0
  -26.9822  -13.4216   21.3471 C   0  0  0  0  0  0  0  0  0  0  0  0
  -26.8552  -13.7256   18.9537 C   0  0  0  0  0  0  0  0  0  0  0  0
  -28.0148  -31.8474   27.5826 C   0  0  0  0  0  0  0  0  0  0  0  0
  -28.0765  -30.3566   25.2331 C   0  0  0  0  0  0  0  0  0  0  0  0
  -27.0974  -30.9127   20.2958 C   0  0  0  0  0  0  0  0  0  0  0  0
  -26.2105  -12.2645   21.2412 C   0  0  0  0  0  0  0  0  0  0  0  0
  -26.0834  -12.5685   18.8477 C   0  0  0  0  0  0  0  0  0  0  0  0
  -27.8724  -30.1708   19.4055 C   0  0  0  0  0  0  0  0  0  0  0  0
  -23.9709   -9.4276   21.6409 C   0  0  0  0  0  0  0  0  0  0  0  0
  -22.9324   -9.2529   22.5555 C   0  0  0  0  0  0  0  0  0  0  0  0
  -26.0863  -28.5623   19.2006 C   0  0  0  0  0  0  0  0  0  0  0  0
  -21.9054  -11.2976   21.7798 C   0  0  0  0  0  0  0  0  0  0  0  0
  -32.5295  -23.9334   19.2033 C   0  0  0  0  0  0  0  0  0  0  0  0
  -27.3046  -14.1521   20.2034 C   0  0  0  0  0  0  0  0  0  0  0  0
  -29.5045  -15.4428   20.2497 C   0  0  0  0  0  0  0  0  0  0  0  0
  -26.8665  -31.1461   27.1825 C   0  0  0  0  0  0  0  0  0  0  0  0
  -25.8131  -30.4786   20.6542 C   0  0  0  0  0  0  0  0  0  0  0  0
  -26.8990  -30.3831   25.9996 C   0  0  0  0  0  0  0  0  0  0  0  0
  -25.2961  -29.3019   20.0937 C   0  0  0  0  0  0  0  0  0  0  0  0
  -25.7610  -11.8380   19.9915 C   0  0  0  0  0  0  0  0  0  0  0  0
  -27.3680  -28.9939   18.8600 C   0  0  0  0  0  0  0  0  0  0  0  0
  -23.9768  -10.5373   20.7957 C   0  0  0  0  0  0  0  0  0  0  0  0
  -21.8996  -10.1879   22.6249 C   0  0  0  0  0  0  0  0  0  0  0  0
  -22.9440  -11.4723   20.8652 C   0  0  0  0  0  0  0  0  0  0  0  0
  -28.1013  -15.3477   20.3123 C   0  0  0  0  0  0  0  0  0  0  0  0
  -31.9620  -24.4752   18.0345 C   0  0  0  0  0  0  0  0  0  0  0  0
  -31.7801  -22.8115   19.4607 C   0  0  0  0  0  0  0  0  0  0  0  0
  -29.7651  -16.7824   20.4051 C   0  0  0  0  0  0  0  0  0  0  0  0
  -30.4846  -14.4125   20.0672 C   0  0  0  0  0  0  0  0  0  0  0  0
  -24.4171  -29.6086   23.3742 C   0  0  0  0  0  0  0  0  0  0  0  0
  -28.6048  -22.1010   19.1184 C   0  0  0  0  0  0  0  0  0  0  0  0
  -21.7549  -29.5124   21.5233 C   0  0  0  0  0  0  0  0  0  0  0  0
  -20.4034  -29.1889   18.4063 C   0  0  0  0  0  0  0  0  0  0  0  0
  -25.6494  -31.1780   28.0727 C   0  0  0  0  0  0  0  0  0  0  0  0
  -24.9794  -31.3043   21.5953 C   0  0  0  0  0  0  0  0  0  0  0  0
  -23.9153  -28.8031   20.4304 C   0  0  0  0  0  0  0  0  0  0  0  0
  -24.3755  -30.7009   27.3800 C   0  0  0  0  0  0  0  0  0  0  0  0
  -26.7525  -20.5925   21.7893 C   0  0  0  0  0  0  0  0  0  0  0  0
  -24.6366  -29.4082   26.6136 C   0  0  0  0  0  0  0  0  0  0  0  0
  -27.0293  -19.0992   21.6194 C   0  0  0  0  0  0  0  0  0  0  0  0
  -26.6744  -21.3027   20.4415 C   0  0  0  0  0  0  0  0  0  0  0  0
  -28.1584  -19.6135   19.4091 C   0  0  0  0  0  0  0  0  0  0  0  0
  -25.6851  -29.6204   25.5149 C   0  0  1  0  0  0  0  0  0  0  0  0
  -23.8842  -30.4984   22.2871 C   0  0  1  0  0  0  0  0  0  0  0  0
  -28.2756  -18.8637   20.7479 C   0  0  2  0  0  0  0  0  0  0  0  0
  -30.5501  -21.0250   15.9654 C   0  0  0  0  0  0  0  0  0  0  0  0
  -31.6334  -22.4174   21.9460 C   0  0  0  0  0  0  0  0  0  0  0  0
  -33.2115  -21.0409   20.5424 C   0  0  0  0  0  0  0  0  0  0  0  0
  -18.1965  -29.1128   17.2143 C   0  0  0  0  0  0  0  0  0  0  0  0
  -33.9207  -25.9374   17.4912 C   0  0  0  0  0  0  0  0  0  0  0  0
  -32.1741  -25.6750   15.7525 C   0  0  0  0  0  0  0  0  0  0  0  0
  -21.3207  -26.6595   22.5144 C   0  0  0  0  0  0  0  0  0  0  0  0
  -19.7150  -26.3212   20.6235 C   0  0  0  0  0  0  0  0  0  0  0  0
  -19.2410  -28.0406   22.3675 C   0  0  0  0  0  0  0  0  0  0  0  0
  -21.0568  -31.5872   16.8001 C   0  0  0  0  0  0  0  0  0  0  0  0
  -29.4041  -21.5197   16.8385 C   0  0  0  0  0  0  0  0  0  0  0  0
  -30.1462  -27.0149   17.6717 C   0  0  0  0  0  0  0  0  0  0  0  0
  -31.6705  -27.0117   17.8384 C   0  0  0  0  0  0  0  0  0  0  0  0
  -29.5390  -28.3267   18.1546 C   0  0  0  0  0  0  0  0  0  1  0  0
  -31.8710  -21.8132   20.5418 C   0  0  0  0  0  0  0  0  0  0  0  0
  -29.8215  -21.7473   18.3007 C   0  0  1  0  0  0  0  0  0  0  0  0
  -21.0764  -28.4600   20.6801 C   0  0  1  0  0  0  0  0  0  0  0  0
  -19.3435  -29.9965   17.6792 C   0  0  2  0  0  0  0  0  0  0  0  0
  -32.3971  -25.7462   17.2826 C   0  0  0  0  0  0  0  0  0  0  0  0
  -20.3651  -27.3784   21.5414 C   0  0  0  0  0  0  0  0  0  0  0  0
  -27.5118  -16.5324   20.4935 N   0  0  0  0  0  0  0  0  0  0  0  0
  -30.9317  -23.7566   17.5806 N   0  0  0  0  0  0  0  0  0  0  0  0
  -30.8459  -22.7517   18.4688 N   0  0  0  0  0  0  0  0  0  0  0  0
  -28.5495  -17.3847   20.5463 N   0  0  0  0  0  0  0  0  0  0  0  0
  -23.1413  -29.6422   21.3601 N   0  0  0  0  0  0  0  0  0  0  0  0
  -27.8665  -21.0359   19.6347 N   0  0  0  0  0  0  0  0  0  0  0  0
  -30.9131  -17.4920   20.4336 N   0  0  0  0  0  0  0  0  0  0  0  0
  -30.0446  -13.0896   19.9233 N   0  0  0  0  0  0  0  0  0  0  0  0
  -25.0932  -30.2833   24.3727 N   0  0  0  0  0  0  0  0  0  0  0  0
  -20.1904  -29.1759   19.7686 N   0  0  0  0  0  0  0  0  0  0  0  0
  -19.9320  -30.6688   16.4865 N   0  3  0  0  0  0  0  0  0  0  0  0
  -31.7151  -14.6555   20.0492 O   0  0  0  0  0  0  0  0  0  0  0  0
  -24.2275  -28.3995   23.3124 O   0  0  0  0  0  0  0  0  0  0  0  0
  -28.3224  -23.2891   19.2945 O   0  0  0  0  0  0  0  0  0  0  0  0
  -21.0784  -30.1992   22.2931 O   0  0  0  0  0  0  0  0  0  0  0  0
  -21.3258  -28.6229   17.8238 O   0  0  0  0  0  0  0  0  0  0  0  0
  -25.0081  -10.7089   19.8877 O   0  0  0  0  0  0  0  0  0  0  0  0
  -28.1226  -28.2675   17.9912 O   0  0  0  0  0  0  0  0  0  1  0  0
  -20.9016  -10.0192   23.5022 F   0  0  0  0  0  0  0  0  0  0  0  0
  -22.9435  -12.5397   20.0551 F   0  0  0  0  0  0  0  0  0  0  0  0
  1  2  1  0  0  0  0
  1  5  2  0  0  0  0
  2  6  2  0  0  0  0
  3  8  2  0  0  0  0
  3 16  1  0  0  0  0
  4  9  1  0  0  0  0
  4 16  2  0  0  0  0
  5 18  1  0  0  0  0
  6 20  1  0  0  0  0
  7 10  2  0  0  0  0
  7 19  1  0  0  0  0
  8 22  1  0  0  0  0
  9 22  2  0  0  0  0
 10 23  1  0  0  0  0
 11 12  2  0  0  0  0
 11 24  1  0  0  0  0
 12 25  1  0  0  0  0
 13 21  1  0  0  0  0
 13 23  2  0  0  0  0
 14 25  2  0  0  0  0
 14 26  1  0  0  0  0
 15 28  1  0  0  0  0
 15 29  2  0  0  0  0
 16 27  1  0  0  0  0
 17 27  1  0  0  0  0
 17 30  2  0  0  0  0
 17 31  1  0  0  0  0
 18 20  2  0  0  0  0
 18 36  1  0  0  0  0
 19 21  2  0  0  0  0
 19 37  1  0  0  0  0
 20 45  1  0  0  0  0
 21 38  1  0  0  0  0
 22 84  1  0  0  0  0
 23 85  1  0  0  0  0
 24 26  2  0  0  0  0
 24 84  1  0  0  0  0
 25 86  1  0  0  0  0
 26 87  1  0  0  0  0
 27 68  2  0  0  0  0
 28 66  1  0  0  0  0
 28 69  2  0  0  0  0
 29 62  1  0  0  0  0
 29 70  1  0  0  0  0
 30 71  1  0  0  0  0
 30 74  1  0  0  0  0
 31 75  1  0  0  0  0
 31 79  2  0  0  0  0
 32 46  1  0  0  0  0
 32 76  1  0  0  0  0
 32 80  2  0  0  0  0
 33 63  1  0  0  0  0
 33 73  1  0  0  0  0
 33 81  2  0  0  0  0
 34 64  1  0  0  0  0
 34 72  1  0  0  0  0
 34 82  2  0  0  0  0
 35 65  1  0  0  0  0
 35 77  1  0  0  0  0
 35 83  2  0  0  0  0
 36 39  1  0  0  0  0
 37 46  1  0  0  0  0
 38 72  1  0  0  0  0
 39 41  1  0  0  0  0
 40 42  1  0  0  0  0
 40 43  1  0  0  0  0
 41 45  1  0  0  0  0
 42 47  1  0  0  0  0
 43 73  1  0  0  0  0
 44 47  1  0  0  0  0
 44 73  1  0  0  0  0
 45 76  1  0  0  0  0
 46 72  1  0  0  0  0
 47 71  1  0  0  0  0
 48 58  1  0  0  0  0
 49 62  1  0  0  0  0
 50 62  1  0  0  0  0
 51 65  1  0  0  0  0
 52 66  1  0  0  0  0
 53 66  1  0  0  0  0
 54 67  1  0  0  0  0
 55 67  1  0  0  0  0
 56 67  1  0  0  0  0
 57 78  1  0  0  0  0
 58 63  1  0  0  0  0
 59 60  1  0  0  0  0
 59 61  1  0  0  0  0
 60 66  1  0  0  0  0
 61 85  1  0  0  0  0
 63 70  1  0  0  0  0
 64 67  1  0  0  0  0
 64 77  1  0  0  0  0
 65 78  1  0  0  0  0
 68 71  1  0  0  0  0
 69 70  1  0  0  0  0
M  CHG  1  78   1
M  ISO  4  33 100  61 101  63 100  85 101
M  END
> <Batch ID>
0070

> <Smiles>
CC[100CH:0]([100C:0](=O)N1CCCC(n2nc(-c3ccc(Oc4ccc(F)cc4F)cc3)c(C(N)=O)c2N)C1)n1nc(C(C)(C)CC[101CH2:1][101O:1]c2ccc3c(c2)CN(C(=O)C(NC(=O)C(C)NC)C(C)(C)C)C(C(=O)NC2CCCc4ccccc42)C3)cc1C(C)C

> <Shape>
0.291

> <Color>
0.074

> <Negative vol penalty>
0.000

$$$$

  -OEChem-04052318193D

 85 93  0     1  0  0  0  0  0999 V2000
  -30.6969  -26.0599   13.2267 C   0  0  0  0  0  0  0  0  0  0  0  0
  -30.3935  -25.2364   14.3061 C   0  0  0  0  0  0  0  0  0  0  0  0
  -26.0100  -11.7284   21.1051 C   0  0  0  0  0  0  0  0  0  0  0  0
  -25.7719  -13.5865   19.5793 C   0  0  0  0  0  0  0  0  0  0  0  0
  -30.7652  -27.4413   13.4029 C   0  0  0  0  0  0  0  0  0  0  0  0
  -30.1594  -25.7937   15.5627 C   0  0  0  0  0  0  0  0  0  0  0  0
  -26.2174  -23.7928   19.8009 C   0  0  0  0  0  0  0  0  0  0  0  0
  -24.6481  -11.7953   21.3991 C   0  0  0  0  0  0  0  0  0  0  0  0
  -24.4100  -13.6534   19.8733 C   0  0  0  0  0  0  0  0  0  0  0  0
  -26.3846  -23.0093   20.9420 C   0  0  0  0  0  0  0  0  0  0  0  0
  -21.7405  -10.8303   19.9681 C   0  0  0  0  0  0  0  0  0  0  0  0
  -21.0253   -9.6333   20.0025 C   0  0  0  0  0  0  0  0  0  0  0  0
  -26.5329  -25.0076   22.2851 C   0  0  0  0  0  0  0  0  0  0  0  0
  -20.4471  -10.0452   22.3119 C   0  0  0  0  0  0  0  0  0  0  0  0
  -26.5719  -12.6240   20.1953 C   0  0  0  0  0  0  0  0  0  0  0  0
  -28.5934  -11.8002   18.8752 C   0  0  0  0  0  0  0  0  0  0  0  0
  -30.5223  -28.0166   14.6602 C   0  0  0  0  0  0  0  0  0  0  0  0
  -26.2176  -25.1921   19.8921 C   0  0  0  0  0  0  0  0  0  0  0  0
  -30.2259  -27.1840   15.7562 C   0  0  0  0  0  0  0  0  0  0  0  0
  -26.3630  -25.8066   21.1441 C   0  0  0  0  0  0  0  0  0  0  0  0
  -23.8481  -12.7577   20.7832 C   0  0  0  0  0  0  0  0  0  0  0  0
  -26.5453  -23.6167   22.1839 C   0  0  0  0  0  0  0  0  0  0  0  0
  -21.8092  -11.6347   21.1056 C   0  0  0  0  0  0  0  0  0  0  0  0
  -20.3785   -9.2408   21.1744 C   0  0  0  0  0  0  0  0  0  0  0  0
  -21.1625  -11.2422   22.2775 C   0  0  0  0  0  0  0  0  0  0  0  0
  -27.9788  -12.5558   19.8916 C   0  0  0  0  0  0  0  0  0  0  0  0
  -29.9324  -12.0778   19.0030 C   0  0  0  0  0  0  0  0  0  0  0  0
  -29.3093  -19.5528   22.1764 C   0  0  0  0  0  0  0  0  0  0  0  0
  -29.8142  -19.5216   20.1512 C   0  0  0  0  0  0  0  0  0  0  0  0
  -28.0064  -10.9256   17.9025 C   0  0  0  0  0  0  0  0  0  0  0  0
  -28.0394  -27.5163   18.7162 C   0  0  0  0  0  0  0  0  0  0  0  0
  -25.7885  -29.4284   20.0576 C   0  0  0  0  0  0  0  0  0  0  0  0
  -23.3449  -29.8180   22.4079 C   0  0  0  0  0  0  0  0  0  0  0  0
  -32.9324  -16.7344   21.2761 C   0  0  0  0  0  0  0  0  0  0  0  0
  -30.6541  -29.5113   14.8122 C   0  0  0  0  0  0  0  0  0  0  0  0
  -26.0093  -26.0228   18.6555 C   0  0  0  0  0  0  0  0  0  0  0  0
  -26.3502  -27.3047   21.2985 C   0  0  0  0  0  0  0  0  0  0  0  0
  -30.0243  -30.0510   16.0937 C   0  0  0  0  0  0  0  0  0  0  0  0
  -33.2034  -13.3247   22.2645 C   0  0  0  0  0  0  0  0  0  0  0  0
  -30.4319  -29.1967   17.2899 C   0  0  0  0  0  0  0  0  0  0  0  0
  -31.9506  -12.6728   21.6767 C   0  0  0  0  0  0  0  0  0  0  0  0
  -32.9248  -14.7448   22.7519 C   0  0  0  0  0  0  0  0  0  0  0  0
  -31.0577  -14.9827   21.1610 C   0  0  0  0  0  0  0  0  0  0  0  0
  -29.9412  -27.7528   17.1293 C   0  0  1  0  0  0  0  0  0  0  0  0
  -26.5406  -27.4460   18.7952 C   0  0  1  0  0  0  0  0  0  0  0  0
  -31.3022  -13.5695   20.6048 C   0  0  2  0  0  0  0  0  0  0  0  0
  -29.8414  -19.4421   18.6797 C   0  0  0  0  0  0  0  0  0  0  0  0
  -21.7079  -31.5049   23.2867 C   0  0  0  0  0  0  0  0  0  0  0  0
  -28.7396  -22.3818   24.4886 C   0  0  0  0  0  0  0  0  0  0  0  0
  -28.0552  -30.8714   21.5031 C   0  0  0  0  0  0  0  0  0  0  0  0
  -26.3481  -31.8659   23.0409 C   0  0  0  0  0  0  0  0  0  0  0  0
  -26.2711  -32.3732   20.5998 C   0  0  0  0  0  0  0  0  0  0  0  0
  -32.4745  -21.1510   19.5343 C   0  0  0  0  0  0  0  0  0  0  0  0
  -33.1810  -20.1701   21.7010 C   0  0  0  0  0  0  0  0  0  0  0  0
  -21.0317  -28.1086   21.7107 C   0  0  0  0  0  0  0  0  0  0  0  0
  -28.4752  -19.4884   23.4308 C   0  0  0  0  0  0  0  0  0  0  0  0
  -27.3517  -20.5341   23.4818 C   0  0  0  0  0  0  0  0  0  0  0  0
  -32.8083  -18.6661   19.7229 C   0  0  0  0  0  0  0  0  0  0  0  0
  -25.6015  -30.0736   21.4095 C   0  0  1  0  0  0  0  0  0  0  0  0
  -21.9305  -30.3606   22.3100 C   0  0  2  0  0  0  0  0  0  0  0  0
  -27.8373  -21.9807   23.3285 C   0  0  1  0  0  0  0  0  0  1  0  0
  -26.5712  -31.2678   21.6355 C   0  0  0  0  0  0  0  0  0  0  0  0
  -32.2844  -19.9268   20.4632 C   0  0  0  0  0  0  0  0  0  0  0  0
  -28.8554  -13.2604   20.6121 N   0  0  0  0  0  0  0  0  0  0  0  0
  -28.7663  -19.4003   20.9327 N   0  0  0  0  0  0  0  0  0  0  0  0
  -30.6272  -19.7608   22.2135 N   0  0  0  0  0  0  0  0  0  0  0  0
  -30.0345  -12.9486   20.0477 N   0  0  0  0  0  0  0  0  0  0  0  0
  -30.9253  -19.7363   20.9055 N   0  0  0  0  0  0  0  0  0  0  0  0
  -26.1497  -28.0737   20.0591 N   0  0  0  0  0  0  0  0  0  0  0  0
  -32.3118  -15.5434   21.6877 N   0  0  0  0  0  0  0  0  0  0  0  0
  -31.0208  -11.6594   18.3226 N   0  0  0  0  0  0  0  0  0  0  0  0
  -26.6154  -10.7539   17.9115 N   0  0  0  0  0  0  0  0  0  0  0  0
  -28.5289  -27.6623   17.4323 N   0  0  0  0  0  0  0  0  0  0  0  0
  -24.1887  -30.4254   21.5021 N   0  0  0  0  0  0  0  0  0  0  0  0
  -32.2889  -17.4272   20.2579 N   0  0  0  0  0  0  0  0  0  0  0  0
  -20.9418  -29.2869   22.6109 N   0  3  0  0  0  0  0  0  0  0  0  0
  -28.6965  -10.3018   17.0610 O   0  0  0  0  0  0  0  0  0  0  0  0
  -28.7027  -27.4450   19.7442 O   0  0  0  0  0  0  0  0  0  0  0  0
  -25.6132  -30.0998   19.0377 O   0  0  0  0  0  0  0  0  0  0  0  0
  -23.6696  -28.9456   23.2103 O   0  0  0  0  0  0  0  0  0  0  0  0
  -33.9849  -17.1469   21.7752 O   0  0  0  0  0  0  0  0  0  0  0  0
  -22.5191  -12.8231   21.0696 O   0  0  0  0  0  0  0  0  0  0  0  0
  -26.7094  -22.8543   23.2991 O   0  0  0  0  0  0  0  0  0  1  0  0
  -19.6904   -8.0920   21.2068 F   0  0  0  0  0  0  0  0  0  0  0  0
  -21.2239  -12.0114   23.3731 F   0  0  0  0  0  0  0  0  0  0  0  0
  1  2  1  0  0  0  0
  1  5  2  0  0  0  0
  2  6  2  0  0  0  0
  3  8  2  0  0  0  0
  3 15  1  0  0  0  0
  4  9  1  0  0  0  0
  4 15  2  0  0  0  0
  5 17  1  0  0  0  0
  6 19  1  0  0  0  0
  7 10  2  0  0  0  0
  7 18  1  0  0  0  0
  8 21  1  0  0  0  0
  9 21  2  0  0  0  0
 10 22  1  0  0  0  0
 11 12  2  0  0  0  0
 11 23  1  0  0  0  0
 12 24  1  0  0  0  0
 13 20  1  0  0  0  0
 13 22  2  0  0  0  0
 14 24  2  0  0  0  0
 14 25  1  0  0  0  0
 15 26  1  0  0  0  0
 16 26  1  0  0  0  0
 16 27  2  0  0  0  0
 16 30  1  0  0  0  0
 17 19  2  0  0  0  0
 17 35  1  0  0  0  0
 18 20  2  0  0  0  0
 18 36  1  0  0  0  0
 19 44  1  0  0  0  0
 20 37  1  0  0  0  0
 21 82  1  0  0  0  0
 22 83  1  0  0  0  0
 23 25  2  0  0  0  0
 23 82  1  0  0  0  0
 24 84  1  0  0  0  0
 25 85  1  0  0  0  0
 26 64  2  0  0  0  0
 27 67  1  0  0  0  0
 27 71  1  0  0  0  0
 28 56  1  0  0  0  0
 28 65  1  0  0  0  0
 28 66  2  0  0  0  0
 29 47  1  0  0  0  0
 29 65  2  0  0  0  0
 29 68  1  0  0  0  0
 30 72  1  0  0  0  0
 30 77  2  0  0  0  0
 31 45  1  0  0  0  0
 31 73  1  0  0  0  0
 31 78  2  0  0  0  0
 32 59  1  0  0  0  0
 32 69  1  0  0  0  0
 32 79  2  0  0  0  0
 33 60  1  0  0  0  0
 33 74  1  0  0  0  0
 33 80  2  0  0  0  0
 34 70  1  0  0  0  0
 34 75  1  0  0  0  0
 34 81  2  0  0  0  0
 35 38  1  0  0  0  0
 36 45  1  0  0  0  0
 37 69  1  0  0  0  0
 38 40  1  0  0  0  0
 39 41  1  0  0  0  0
 39 42  1  0  0  0  0
 40 44  1  0  0  0  0
 41 46  1  0  0  0  0
 42 70  1  0  0  0  0
 43 46  1  0  0  0  0
 43 70  1  0  0  0  0
 44 73  1  0  0  0  0
 45 69  1  0  0  0  0
 46 67  1  0  0  0  0
 48 60  1  0  0  0  0
 49 61  1  0  0  0  0
 50 62  1  0  0  0  0
 51 62  1  0  0  0  0
 52 62  1  0  0  0  0
 53 63  1  0  0  0  0
 54 63  1  0  0  0  0
 55 76  1  0  0  0  0
 56 57  1  0  0  0  0
 57 61  1  0  0  0  0
 58 63  1  0  0  0  0
 58 75  1  0  0  0  0
 59 62  1  0  0  0  0
 59 74  1  0  0  0  0
 60 76  1  0  0  0  0
 61 83  1  0  0  0  0
 63 68  1  0  0  0  0
 64 67  1  0  0  0  0
 66 68  1  0  0  0  0
M  CHG  1  76   1
M  ISO  4  34 100  61 101  75 100  83 101
M  END
> <Batch ID>
0070

> <Smiles>
CNC(C)C(=O)NC(C(=O)N1Cc2cc([101O:1][101CH:1](C)CCc3nc(C)n(C(C)(C)C[100NH:0][100C:0](=O)N4CCCC(n5nc(-c6ccc(Oc7ccc(F)cc7F)cc6)c(C(N)=O)c5N)C4)n3)ccc2CC1C(=O)NC1CCCc2ccccc21)C(C)(C)C

> <Shape>
0.233

> <Color>
0.082

> <Negative vol penalty>
0.000

$$$$

  -OEChem-04052318193D

 82 90  0     1  0  0  0  0  0999 V2000
  -32.4340  -14.0746   20.0383 C   0  0  0  0  0  0  0  0  0  0  0  0
  -31.6776  -15.0517   20.6756 C   0  0  0  0  0  0  0  0  0  0  0  0
  -29.5880  -23.9172   21.2867 C   0  0  0  0  0  0  0  0  0  0  0  0
  -29.1771  -23.4972   18.9433 C   0  0  0  0  0  0  0  0  0  0  0  0
  -31.7971  -13.0290   19.3734 C   0  0  0  0  0  0  0  0  0  0  0  0
  -30.2844  -14.9771   20.6583 C   0  0  0  0  0  0  0  0  0  0  0  0
  -26.0839  -18.8333   22.8061 C   0  0  0  0  0  0  0  0  0  0  0  0
  -29.6069  -22.5438   21.5296 C   0  0  0  0  0  0  0  0  0  0  0  0
  -29.1961  -22.1238   19.1861 C   0  0  0  0  0  0  0  0  0  0  0  0
  -25.3420  -19.9147   22.3329 C   0  0  0  0  0  0  0  0  0  0  0  0
  -31.5146  -19.7134   19.6711 C   0  0  0  0  0  0  0  0  0  0  0  0
  -32.2366  -18.9106   18.7881 C   0  0  0  0  0  0  0  0  0  0  0  0
  -23.4908  -18.4369   21.8762 C   0  0  0  0  0  0  0  0  0  0  0  0
  -30.2198  -17.6978   18.2416 C   0  0  0  0  0  0  0  0  0  0  0  0
  -23.4739  -26.9054   17.7121 C   0  0  0  0  0  0  0  0  0  0  0  0
  -29.3731  -24.3939   19.9936 C   0  0  0  0  0  0  0  0  0  0  0  0
  -30.4467  -26.6315   19.4034 C   0  0  0  0  0  0  0  0  0  0  0  0
  -30.3952  -12.9491   19.3378 C   0  0  0  0  0  0  0  0  0  0  0  0
  -25.5379  -17.5417   22.8077 C   0  0  0  0  0  0  0  0  0  0  0  0
  -29.6233  -13.9165   20.0128 C   0  0  0  0  0  0  0  0  0  0  0  0
  -24.2270  -17.3412   22.3523 C   0  0  0  0  0  0  0  0  0  0  0  0
  -29.4109  -21.6471   20.4793 C   0  0  0  0  0  0  0  0  0  0  0  0
  -24.0462  -19.7161   21.8652 C   0  0  0  0  0  0  0  0  0  0  0  0
  -30.1451  -19.5084   19.8395 C   0  0  0  0  0  0  0  0  0  0  0  0
  -31.5893  -17.9028   18.0733 C   0  0  0  0  0  0  0  0  0  0  0  0
  -29.4978  -18.5007   19.1247 C   0  0  0  0  0  0  0  0  0  0  0  0
  -29.3529  -25.8125   19.7422 C   0  0  0  0  0  0  0  0  0  0  0  0
  -24.3230  -27.5661   16.8603 C   0  0  0  0  0  0  0  0  0  0  0  0
  -29.9072  -27.8878   19.2720 C   0  0  0  0  0  0  0  0  0  0  0  0
  -31.8269  -26.2874   19.2236 C   0  0  0  0  0  0  0  0  0  0  0  0
  -26.2798  -14.7910   21.3982 C   0  0  0  0  0  0  0  0  0  0  0  0
  -23.8825  -13.6409   23.2563 C   0  0  0  0  0  0  0  0  0  0  0  0
  -24.3340  -29.7500   18.0135 C   0  0  0  0  0  0  0  0  0  0  0  0
  -21.0218  -14.2650   25.0095 C   0  0  0  0  0  0  0  0  0  0  0  0
  -29.7579  -11.7916   18.6101 C   0  0  0  0  0  0  0  0  0  0  0  0
  -26.3417  -16.3900   23.3463 C   0  0  0  0  0  0  0  0  0  0  0  0
  -23.5874  -15.9776   22.3518 C   0  0  0  0  0  0  0  0  0  0  0  0
  -28.2917  -12.0380   18.2698 C   0  0  0  0  0  0  0  0  0  0  0  0
  -26.3255  -30.6187   20.8630 C   0  0  0  0  0  0  0  0  0  0  0  0
  -27.5469  -12.5267   19.5031 C   0  0  0  0  0  0  0  0  0  0  0  0
  -27.4102  -29.5425   20.8844 C   0  0  0  0  0  0  0  0  0  0  0  0
  -24.9925  -30.0583   20.3769 C   0  0  0  0  0  0  0  0  0  0  0  0
  -26.1498  -28.3102   19.0630 C   0  0  0  0  0  0  0  0  0  0  0  0
  -28.1062  -13.8726   19.9813 C   0  0  1  0  0  0  0  0  0  0  0  0
  -25.8710  -15.0365   22.8230 C   0  0  1  0  0  0  0  0  0  0  0  0
  -27.5203  -28.8414   19.5188 C   0  0  2  0  0  0  0  0  0  0  0  0
  -19.2686  -13.1186   26.3913 C   0  0  0  0  0  0  0  0  0  0  0  0
  -23.5803  -29.6486   15.6752 C   0  0  0  0  0  0  0  0  0  0  0  0
  -25.9913  -29.4597   16.2962 C   0  0  0  0  0  0  0  0  0  0  0  0
  -22.6304  -12.5013   20.7179 C   0  0  0  0  0  0  0  0  0  0  0  0
  -20.4879  -12.2230   21.9831 C   0  0  0  0  0  0  0  0  0  0  0  0
  -22.5295  -10.9836   22.7030 C   0  0  0  0  0  0  0  0  0  0  0  0
  -21.6680  -15.8964   27.3927 C   0  0  0  0  0  0  0  0  0  0  0  0
  -23.8852  -23.6712   19.0714 C   0  0  0  0  0  0  0  0  0  0  0  0
  -23.1611  -22.5141   19.7615 C   0  0  0  0  0  0  0  0  0  0  0  0
  -23.0145  -24.3916   18.0357 C   0  0  0  0  0  0  0  0  0  0  0  0
  -24.0439  -21.8459   20.8069 C   0  0  0  0  0  0  0  0  0  1  0  0
  -22.3903  -13.4772   23.0962 C   0  0  1  0  0  0  0  0  0  0  0  0
  -20.5919  -13.8678   26.4102 C   0  0  2  0  0  0  0  0  0  0  0  0
  -24.5508  -29.0099   16.7176 C   0  0  0  0  0  0  0  0  0  0  0  0
  -22.0220  -12.3218   22.1231 C   0  0  0  0  0  0  0  0  0  0  0  0
  -28.2053  -26.4915   19.8211 N   0  0  0  0  0  0  0  0  0  0  0  0
  -24.9988  -26.6601   16.0909 N   0  0  0  0  0  0  0  0  0  0  0  0
  -24.5922  -25.4444   16.4399 N   0  0  0  0  0  0  0  0  0  0  0  0
  -23.6778  -25.5937   17.4120 N   0  0  0  0  0  0  0  0  0  0  0  0
  -28.5751  -27.7503   19.5303 N   0  0  0  0  0  0  0  0  0  0  0  0
  -24.4160  -14.8824   22.8824 N   0  0  0  0  0  0  0  0  0  0  0  0
  -25.1436  -29.3809   19.0879 N   0  0  0  0  0  0  0  0  0  0  0  0
  -30.4472  -29.0856   18.9619 N   0  0  0  0  0  0  0  0  0  0  0  0
  -32.2102  -24.9505   19.3968 N   0  0  0  0  0  0  0  0  0  0  0  0
  -27.5209  -14.1985   21.2630 N   0  0  0  0  0  0  0  0  0  0  0  0
  -21.8502  -13.3199   24.4422 N   0  0  0  0  0  0  0  0  0  0  0  0
  -20.4350  -15.0774   27.2664 N   0  3  0  0  0  0  0  0  0  0  0  0
  -32.6973  -27.1431   18.9345 O   0  0  0  0  0  0  0  0  0  0  0  0
  -25.5245  -15.1137   20.4887 O   0  0  0  0  0  0  0  0  0  0  0  0
  -24.5491  -12.7043   23.7036 O   0  0  0  0  0  0  0  0  0  0  0  0
  -23.4725  -30.6316   18.0665 O   0  0  0  0  0  0  0  0  0  0  0  0
  -20.6561  -15.3074   24.4709 O   0  0  0  0  0  0  0  0  0  0  0  0
  -29.4296  -20.3068   20.7159 O   0  0  0  0  0  0  0  0  0  0  0  0
  -23.3201  -20.7698   21.4021 O   0  0  0  0  0  0  0  0  0  1  0  0
  -32.2825  -17.1330   17.2243 F   0  0  0  0  0  0  0  0  0  0  0  0
  -28.1821  -18.2997   19.2813 F   0  0  0  0  0  0  0  0  0  0  0  0
  1  2  1  0  0  0  0
  1  5  2  0  0  0  0
  2  6  2  0  0  0  0
  3  8  2  0  0  0  0
  3 16  1  0  0  0  0
  4  9  1  0  0  0  0
  4 16  2  0  0  0  0
  5 18  1  0  0  0  0
  6 20  1  0  0  0  0
  7 10  2  0  0  0  0
  7 19  1  0  0  0  0
  8 22  1  0  0  0  0
  9 22  2  0  0  0  0
 10 23  1  0  0  0  0
 11 12  2  0  0  0  0
 11 24  1  0  0  0  0
 12 25  1  0  0  0  0
 13 21  1  0  0  0  0
 13 23  2  0  0  0  0
 14 25  2  0  0  0  0
 14 26  1  0  0  0  0
 15 28  2  0  0  0  0
 15 65  1  0  0  0  0
 16 27  1  0  0  0  0
 17 27  1  0  0  0  0
 17 29  2  0  0  0  0
 17 30  1  0  0  0  0
 18 20  2  0  0  0  0
 18 35  1  0  0  0  0
 19 21  2  0  0  0  0
 19 36  1  0  0  0  0
 20 44  1  0  0  0  0
 21 37  1  0  0  0  0
 22 79  1  0  0  0  0
 23 80  1  0  0  0  0
 24 26  2  0  0  0  0
 24 79  1  0  0  0  0
 25 81  1  0  0  0  0
 26 82  1  0  0  0  0
 27 62  2  0  0  0  0
 28 60  1  0  0  0  0
 28 63  1  0  0  0  0
 29 66  1  0  0  0  0
 29 69  1  0  0  0  0
 30 70  1  0  0  0  0
 30 74  2  0  0  0  0
 31 45  1  0  0  0  0
 31 71  1  0  0  0  0
 31 75  2  0  0  0  0
 32 58  1  0  0  0  0
 32 67  1  0  0  0  0
 32 76  2  0  0  0  0
 33 60  1  0  0  0  0
 33 68  1  0  0  0  0
 33 77  2  0  0  0  0
 34 59  1  0  0  0  0
 34 72  1  0  0  0  0
 34 78  2  0  0  0  0
 35 38  1  0  0  0  0
 36 45  1  0  0  0  0
 37 67  1  0  0  0  0
 38 40  1  0  0  0  0
 39 41  1  0  0  0  0
 39 42  1  0  0  0  0
 40 44  1  0  0  0  0
 41 46  1  0  0  0  0
 42 68  1  0  0  0  0
 43 46  1  0  0  0  0
 43 68  1  0  0  0  0
 44 71  1  0  0  0  0
 45 67  1  0  0  0  0
 46 66  1  0  0  0  0
 47 59  1  0  0  0  0
 48 60  1  0  0  0  0
 49 60  1  0  0  0  0
 50 61  1  0  0  0  0
 51 61  1  0  0  0  0
 52 61  1  0  0  0  0
 53 73  1  0  0  0  0
 54 55  1  0  0  0  0
 54 56  1  0  0  0  0
 55 57  1  0  0  0  0
 56 65  1  0  0  0  0
 57 80  1  0  0  0  0
 58 61  1  0  0  0  0
 58 72  1  0  0  0  0
 59 73  1  0  0  0  0
 62 66  1  0  0  0  0
 63 64  2  0  0  0  0
 64 65  1  0  0  0  0
M  CHG  1  73   1
M  ISO  4  33 100  57 101  60 100  80 101
M  END
> <Batch ID>
0070

> <Smiles>
CNC(C)C(=O)NC(C(=O)N1Cc2cc([101O:1][101CH2:1]CCCn3cc([100C:0](C)(C)[100C:0](=O)N4CCCC(n5nc(-c6ccc(Oc7ccc(F)cc7F)cc6)c(C(N)=O)c5N)C4)nn3)ccc2CC1C(=O)NC1CCCc2ccccc21)C(C)(C)C

> <Shape>
0.211

> <Color>
0.067

> <Negative vol penalty>
0.000

$$$$

  -OEChem-04052318193D

 84 92  0     1  0  0  0  0  0999 V2000
  -21.0952  -34.1865   19.6693 C   0  0  0  0  0  0  0  0  0  0  0  0
  -22.3276  -33.5627   19.8353 C   0  0  0  0  0  0  0  0  0  0  0  0
  -23.0586  -13.5540   22.5979 C   0  0  0  0  0  0  0  0  0  0  0  0
  -22.3149  -13.3359   20.3096 C   0  0  0  0  0  0  0  0  0  0  0  0
  -20.0230  -33.8386   20.4898 C   0  0  0  0  0  0  0  0  0  0  0  0
  -22.4887  -32.5913   20.8227 C   0  0  0  0  0  0  0  0  0  0  0  0
  -24.9998  -28.5226   19.1539 C   0  0  0  0  0  0  0  0  0  0  0  0
  -21.7798  -13.2219   23.0452 C   0  0  0  0  0  0  0  0  0  0  0  0
  -21.0361  -13.0037   20.7569 C   0  0  0  0  0  0  0  0  0  0  0  0
  -26.3855  -28.6304   19.0439 C   0  0  0  0  0  0  0  0  0  0  0  0
  -18.8042  -12.0790   24.7929 C   0  0  0  0  0  0  0  0  0  0  0  0
  -18.7008  -11.1601   25.8372 C   0  0  0  0  0  0  0  0  0  0  0  0
  -26.6364  -27.4663   21.1418 C   0  0  0  0  0  0  0  0  0  0  0  0
  -19.8253   -9.5007   24.4886 C   0  0  0  0  0  0  0  0  0  0  0  0
  -29.4752  -21.5625   21.3568 C   0  0  0  0  0  0  0  0  0  0  0  0
  -30.7632  -20.9659   19.6711 C   0  0  0  0  0  0  0  0  0  0  0  0
  -23.3261  -13.6111   21.2301 C   0  0  0  0  0  0  0  0  0  0  0  0
  -25.7119  -13.0725   20.5052 C   0  0  0  0  0  0  0  0  0  0  0  0
  -20.1684  -32.8556   21.4813 C   0  0  0  0  0  0  0  0  0  0  0  0
  -24.4207  -27.8944   20.2658 C   0  0  0  0  0  0  0  0  0  0  0  0
  -21.4178  -32.2309   21.6581 C   0  0  0  0  0  0  0  0  0  0  0  0
  -25.2432  -27.3495   21.2622 C   0  0  0  0  0  0  0  0  0  0  0  0
  -20.7686  -12.9467   22.1247 C   0  0  0  0  0  0  0  0  0  0  0  0
  -27.2039  -28.1048   20.0394 C   0  0  0  0  0  0  0  0  0  0  0  0
  -19.4181  -11.7087   23.5964 C   0  0  0  0  0  0  0  0  0  0  0  0
  -19.2113   -9.8710   25.6851 C   0  0  0  0  0  0  0  0  0  0  0  0
  -19.9287  -10.4196   23.4442 C   0  0  0  0  0  0  0  0  0  0  0  0
  -24.6467  -13.9547   20.7675 C   0  0  0  0  0  0  0  0  0  0  0  0
  -29.0441  -20.3884   20.7855 C   0  0  0  0  0  0  0  0  0  0  0  0
  -26.7385  -13.8866   20.0931 C   0  0  0  0  0  0  0  0  0  0  0  0
  -25.7683  -11.6447   20.6234 C   0  0  0  0  0  0  0  0  0  0  0  0
  -27.8825  -19.5949   21.2052 C   0  0  0  0  0  0  0  0  0  0  0  0
  -22.4716  -28.8172   22.6010 C   0  0  0  0  0  0  0  0  0  0  0  0
  -22.5292  -25.6655   23.3661 C   0  0  0  0  0  0  0  0  0  0  0  0
  -24.1698  -22.6768   23.2144 C   0  0  0  0  0  0  0  0  0  0  0  0
  -18.9936  -32.5468   22.3753 C   0  0  0  0  0  0  0  0  0  0  0  0
  -22.9251  -27.7627   20.3564 C   0  0  0  0  0  0  0  0  0  0  0  0
  -24.6718  -26.6476   22.4660 C   0  0  0  0  0  0  0  0  0  0  0  0
  -19.1447  -31.2403   23.1503 C   0  0  0  0  0  0  0  0  0  0  0  0
  -27.5723  -18.0678   17.9283 C   0  0  0  0  0  0  0  0  0  0  0  0
  -20.5322  -31.1490   23.7773 C   0  0  0  0  0  0  0  0  0  0  0  0
  -26.8630  -16.7569   18.2700 C   0  0  0  0  0  0  0  0  0  0  0  0
  -27.0870  -19.2100   18.8157 C   0  0  0  0  0  0  0  0  0  0  0  0
  -26.5022  -17.6281   20.6237 C   0  0  0  0  0  0  0  0  0  0  0  0
  -21.6252  -31.1548   22.7017 C   0  0  1  0  0  0  0  0  0  0  0  0
  -22.4288  -27.5568   21.7842 C   0  0  1  0  0  0  0  0  0  0  0  0
  -26.9760  -16.4375   19.7720 C   0  0  1  0  0  0  0  0  0  0  0  0
  -23.9874  -20.2892   23.9650 C   0  0  0  0  0  0  0  0  0  0  0  0
  -23.3367  -26.4939   26.1895 C   0  0  0  0  0  0  0  0  0  0  0  0
  -24.0514  -24.1304   26.6036 C   0  0  0  0  0  0  0  0  0  0  0  0
  -21.6646  -24.6372   26.0852 C   0  0  0  0  0  0  0  0  0  0  0  0
  -31.8430  -26.0061   21.9474 C   0  0  0  0  0  0  0  0  0  0  0  0
  -32.9073  -25.6007   19.7344 C   0  0  0  0  0  0  0  0  0  0  0  0
  -31.4813  -28.3214   19.9193 C   0  0  0  0  0  0  0  0  0  0  0  0
  -30.4118  -26.7697   18.3039 C   0  0  0  0  0  0  0  0  0  0  0  0
  -24.1394  -21.6815   20.4274 C   0  0  0  0  0  0  0  0  0  0  0  0
  -30.7502  -24.4094   20.3013 C   0  0  0  0  0  0  0  0  0  0  0  0
  -31.4330  -23.1454   20.8518 C   0  0  0  0  0  0  0  0  0  0  0  0
  -29.3344  -27.1720   20.5363 C   0  0  0  0  0  0  0  0  0  1  0  0
  -23.3927  -24.7946   24.2465 C   0  0  1  0  0  0  0  0  0  0  0  0
  -23.6915  -21.2824   22.8520 C   0  0  2  0  0  0  0  0  0  0  0  0
  -23.1224  -25.0289   25.7596 C   0  0  0  0  0  0  0  0  0  0  0  0
  -31.5400  -25.7581   20.4483 C   0  0  0  0  0  0  0  0  0  0  0  0
  -30.7018  -26.9839   19.8140 C   0  0  0  0  0  0  0  0  0  0  0  0
  -29.8502  -20.0225   19.7368 N   0  0  0  0  0  0  0  0  0  0  0  0
  -24.9670  -15.2315   20.5411 N   0  0  0  0  0  0  0  0  0  0  0  0
  -30.5770  -21.9203   20.6321 N   0  0  0  0  0  0  0  0  0  0  0  0
  -26.2451  -15.1575   20.1324 N   0  0  0  0  0  0  0  0  0  0  0  0
  -27.2067  -18.8513   20.2346 N   0  0  0  0  0  0  0  0  0  0  0  0
  -23.2035  -26.5498   22.5122 N   0  0  0  0  0  0  0  0  0  0  0  0
  -28.0061  -13.6321   19.7046 N   0  0  0  0  0  0  0  0  0  0  0  0
  -24.6236  -10.9648   21.0611 N   0  0  0  0  0  0  0  0  0  0  0  0
  -21.7246  -29.8540   22.0752 N   0  0  0  0  0  0  0  0  0  0  0  0
  -23.1714  -23.4217   23.8055 N   0  0  0  0  0  0  0  0  0  0  0  0
  -24.3652  -20.8103   21.6094 N   0  3  0  0  0  0  0  0  0  0  0  0
  -26.8083  -10.9928   20.3648 O   0  0  0  0  0  0  0  0  0  0  0  0
  -27.5978  -19.6407   22.4011 O   0  0  0  0  0  0  0  0  0  0  0  0
  -23.1323  -28.8465   23.6327 O   0  0  0  0  0  0  0  0  0  0  0  0
  -21.3018  -25.5598   23.4285 O   0  0  0  0  0  0  0  0  0  0  0  0
  -25.3157  -23.0650   22.9983 O   0  0  0  0  0  0  0  0  0  0  0  0
  -19.5208  -12.6223   22.5608 O   0  0  0  0  0  0  0  0  0  0  0  0
  -28.5646  -28.2098   19.9342 O   0  0  0  0  0  0  0  0  0  1  0  0
  -19.1133   -8.9892   26.6886 F   0  0  0  0  0  0  0  0  0  0  0  0
  -20.5206  -10.0584   22.2975 F   0  0  0  0  0  0  0  0  0  0  0  0
  1  2  1  0  0  0  0
  1  5  2  0  0  0  0
  2  6  2  0  0  0  0
  3  8  2  0  0  0  0
  3 17  1  0  0  0  0
  4  9  1  0  0  0  0
  4 17  2  0  0  0  0
  5 19  1  0  0  0  0
  6 21  1  0  0  0  0
  7 10  2  0  0  0  0
  7 20  1  0  0  0  0
  8 23  1  0  0  0  0
  9 23  2  0  0  0  0
 10 24  1  0  0  0  0
 11 12  2  0  0  0  0
 11 25  1  0  0  0  0
 12 26  1  0  0  0  0
 13 22  1  0  0  0  0
 13 24  2  0  0  0  0
 14 26  2  0  0  0  0
 14 27  1  0  0  0  0
 15 29  2  0  0  0  0
 15 67  1  0  0  0  0
 16 65  2  0  0  0  0
 16 67  1  0  0  0  0
 17 28  1  0  0  0  0
 18 28  1  0  0  0  0
 18 30  2  0  0  0  0
 18 31  1  0  0  0  0
 19 21  2  0  0  0  0
 19 36  1  0  0  0  0
 20 22  2  0  0  0  0
 20 37  1  0  0  0  0
 21 45  1  0  0  0  0
 22 38  1  0  0  0  0
 23 81  1  0  0  0  0
 24 82  1  0  0  0  0
 25 27  2  0  0  0  0
 25 81  1  0  0  0  0
 26 83  1  0  0  0  0
 27 84  1  0  0  0  0
 28 66  2  0  0  0  0
 29 32  1  0  0  0  0
 29 65  1  0  0  0  0
 30 68  1  0  0  0  0
 30 71  1  0  0  0  0
 31 72  1  0  0  0  0
 31 76  2  0  0  0  0
 32 69  1  0  0  0  0
 32 77  2  0  0  0  0
 33 46  1  0  0  0  0
 33 73  1  0  0  0  0
 33 78  2  0  0  0  0
 34 60  1  0  0  0  0
 34 70  1  0  0  0  0
 34 79  2  0  0  0  0
 35 61  1  0  0  0  0
 35 74  1  0  0  0  0
 35 80  2  0  0  0  0
 36 39  1  0  0  0  0
 37 46  1  0  0  0  0
 38 70  1  0  0  0  0
 39 41  1  0  0  0  0
 40 42  1  0  0  0  0
 40 43  1  0  0  0  0
 41 45  1  0  0  0  0
 42 47  1  0  0  0  0
 43 69  1  0  0  0  0
 44 47  1  0  0  0  0
 44 69  1  0  0  0  0
 45 73  1  0  0  0  0
 46 70  1  0  0  0  0
 47 68  1  0  0  0  0
 48 61  1  0  0  0  0
 49 62  1  0  0  0  0
 50 62  1  0  0  0  0
 51 62  1  0  0  0  0
 52 63  1  0  0  0  0
 53 63  1  0  0  0  0
 54 64  1  0  0  0  0
 55 64  1  0  0  0  0
 56 75  1  0  0  0  0
 57 58  1  0  0  0  0
 57 63  1  0  0  0  0
 58 67  1  0  0  0  0
 59 64  1  0  0  0  0
 59 82  1  0  0  0  0
 60 62  1  0  0  0  0
 60 74  1  0  0  0  0
 61 75  1  0  0  0  0
 63 64  1  0  0  0  0
 66 68  1  0  0  0  0
M  CHG  1  75   1
M  ISO  4  29 100  32 100  59 101  82 101
M  END
> <Batch ID>
0070

> <Smiles>
CNC(C)C(=O)NC(C(=O)N1Cc2cc([101O:1][101CH2:1]C(C)(C)C(C)(C)CCn3cn[100c:0]([100C:0](=O)N4CCCC(n5nc(-c6ccc(Oc7ccc(F)cc7F)cc6)c(C(N)=O)c5N)C4)c3)ccc2CC1C(=O)NC1CCCc2ccccc21)C(C)(C)C

> <Shape>
0.201

> <Color>
0.080

> <Negative vol penalty>
0.000

$$$$

  -OEChem-04052318193D

 88 96  0     1  0  0  0  0  0999 V2000
  -27.7808  -23.3098   24.6417 C   0  0  0  0  0  0  0  0  0  0  0  0
  -27.7141  -22.0911   23.9742 C   0  0  0  0  0  0  0  0  0  0  0  0
  -27.6662  -23.4038   20.7044 C   0  0  0  0  0  0  0  0  0  0  0  0
  -29.1280  -23.3959   18.7808 C   0  0  0  0  0  0  0  0  0  0  0  0
  -26.8632  -23.6023   25.6498 C   0  0  0  0  0  0  0  0  0  0  0  0
  -26.7302  -21.1636   24.3151 C   0  0  0  0  0  0  0  0  0  0  0  0
  -23.8422  -17.3036   20.5381 C   0  0  0  0  0  0  0  0  0  0  0  0
  -27.6974  -24.7982   20.7223 C   0  0  0  0  0  0  0  0  0  0  0  0
  -29.1591  -24.7904   18.7987 C   0  0  0  0  0  0  0  0  0  0  0  0
  -24.0387  -15.9547   20.2455 C   0  0  0  0  0  0  0  0  0  0  0  0
  -26.2395  -27.3442   19.0413 C   0  0  0  0  0  0  0  0  0  0  0  0
  -25.0302  -28.0173   19.2146 C   0  0  0  0  0  0  0  0  0  0  0  0
  -22.3400  -15.3648   21.8536 C   0  0  0  0  0  0  0  0  0  0  0  0
  -25.8897  -29.0436   21.2259 C   0  0  0  0  0  0  0  0  0  0  0  0
  -28.3816  -22.7027   19.7336 C   0  0  0  0  0  0  0  0  0  0  0  0
  -27.4387  -20.4407   19.0253 C   0  0  0  0  0  0  0  0  0  0  0  0
  -25.8616  -22.6820   25.9967 C   0  0  0  0  0  0  0  0  0  0  0  0
  -22.8993  -17.6933   21.5001 C   0  0  0  0  0  0  0  0  0  0  0  0
  -25.7991  -21.4436   25.3297 C   0  0  0  0  0  0  0  0  0  0  0  0
  -22.1317  -16.7194   22.1547 C   0  0  0  0  0  0  0  0  0  0  0  0
  -28.4438  -25.4915   19.7695 C   0  0  0  0  0  0  0  0  0  0  0  0
  -23.2896  -14.9849   20.9054 C   0  0  0  0  0  0  0  0  0  0  0  0
  -27.2739  -27.5206   19.9604 C   0  0  0  0  0  0  0  0  0  0  0  0
  -24.8553  -28.8671   20.3068 C   0  0  0  0  0  0  0  0  0  0  0  0
  -27.0990  -28.3703   21.0526 C   0  0  0  0  0  0  0  0  0  0  0  0
  -28.3503  -21.2623   19.7149 C   0  0  0  0  0  0  0  0  0  0  0  0
  -27.8326  -19.1604   19.3289 C   0  0  0  0  0  0  0  0  0  0  0  0
  -28.4651  -11.9761   20.2640 C   0  0  0  0  0  0  0  0  0  0  0  0
  -29.2896  -13.6596   19.1708 C   0  0  0  0  0  0  0  0  0  0  0  0
  -26.3345  -20.8024   18.1853 C   0  0  0  0  0  0  0  0  0  0  0  0
  -23.0340  -19.2288   24.2800 C   0  0  0  0  0  0  0  0  0  0  0  0
  -19.8005  -19.0543   24.0892 C   0  0  0  0  0  0  0  0  0  0  0  0
  -17.3494  -16.5950   23.1088 C   0  0  0  0  0  0  0  0  0  0  0  0
  -32.2357  -15.5875   19.7355 C   0  0  0  0  0  0  0  0  0  0  0  0
  -24.9213  -23.0234   27.1254 C   0  0  0  0  0  0  0  0  0  0  0  0
  -22.6804  -19.1539   21.7849 C   0  0  0  0  0  0  0  0  0  0  0  0
  -21.0924  -17.0866   23.1811 C   0  0  0  0  0  0  0  0  0  0  0  0
  -23.6771  -22.1401   27.1700 C   0  0  0  0  0  0  0  0  0  0  0  0
  -31.1240  -17.4324   22.7459 C   0  0  0  0  0  0  0  0  0  0  0  0
  -24.0586  -20.6720   27.0094 C   0  0  0  0  0  0  0  0  0  0  0  0
  -30.2879  -18.5650   22.1526 C   0  0  0  0  0  0  0  0  0  0  0  0
  -32.2114  -16.9656   21.7829 C   0  0  0  0  0  0  0  0  0  0  0  0
  -30.8644  -17.7089   19.8471 C   0  0  0  0  0  0  0  0  0  0  0  0
  -24.7309  -20.4218   25.6540 C   0  0  1  0  0  0  0  0  0  0  0  0
  -22.0562  -19.4088   23.1534 C   0  0  1  0  0  0  0  0  0  0  0  0
  -29.7299  -18.1709   20.7739 C   0  0  2  0  0  0  0  0  0  0  0  0
  -27.3663  -15.8135   24.3049 C   0  0  0  0  0  0  0  0  0  0  0  0
  -29.4453  -15.6228   17.5950 C   0  0  0  0  0  0  0  0  0  0  0  0
  -15.0251  -16.8779   22.2061 C   0  0  0  0  0  0  0  0  0  0  0  0
  -18.9463  -18.7816   27.0057 C   0  0  0  0  0  0  0  0  0  0  0  0
  -16.9698  -17.4549   26.2301 C   0  0  0  0  0  0  0  0  0  0  0  0
  -17.2361  -19.8287   25.5113 C   0  0  0  0  0  0  0  0  0  0  0  0
  -31.9387  -13.7614   18.1056 C   0  0  0  0  0  0  0  0  0  0  0  0
  -17.9520  -14.9532   20.7212 C   0  0  0  0  0  0  0  0  0  0  0  0
  -28.0425  -11.1003   21.4166 C   0  0  0  0  0  0  0  0  0  0  0  0
  -28.5680  -15.1473   23.6541 C   0  0  0  0  0  0  0  0  0  0  0  0
  -26.5545  -10.7321   21.4018 C   0  0  0  0  0  0  0  0  0  0  0  0
  -25.6345  -11.9487   21.5440 C   0  0  0  0  0  0  0  0  0  0  0  0
  -28.1864  -14.4621   22.3429 C   0  0  0  0  0  0  0  0  0  0  0  0
  -24.1637  -11.5390   21.4934 C   0  0  0  0  0  0  0  0  0  0  0  0
  -29.4063  -13.8296   21.6750 C   0  0  0  0  0  0  0  0  0  0  0  0
  -23.2408  -12.7355   21.6760 C   0  0  0  0  0  0  0  0  0  1  0  0
  -29.9323  -14.9576   18.8987 C   0  0  2  0  0  0  0  0  0  0  0  0
  -18.7554  -18.0599   24.5341 C   0  0  1  0  0  0  0  0  0  0  0  0
  -16.4840  -16.6214   21.8619 C   0  0  2  0  0  0  0  0  0  0  0  0
  -18.0033  -18.5231   25.8137 C   0  0  0  0  0  0  0  0  0  0  0  0
  -29.2552  -20.5627   20.4048 N   0  0  0  0  0  0  0  0  0  0  0  0
  -28.3225  -11.7227   18.9827 N   0  0  0  0  0  0  0  0  0  0  0  0
  -28.8469  -12.7938   18.2871 N   0  0  0  0  0  0  0  0  0  0  0  0
  -28.9140  -19.2880   20.1502 N   0  0  0  0  0  0  0  0  0  0  0  0
  -29.0695  -13.1855   20.4283 N   0  0  0  0  0  0  0  0  0  0  0  0
  -20.9199  -18.5275   23.4294 N   0  0  0  0  0  0  0  0  0  0  0  0
  -31.6597  -16.6388   20.4676 N   0  0  0  0  0  0  0  0  0  0  0  0
  -27.3561  -17.9492   18.9708 N   0  0  0  0  0  0  0  0  0  0  0  0
  -26.0695  -22.1632   17.9792 N   0  0  0  0  0  0  0  0  0  0  0  0
  -23.7405  -20.3724   24.6000 N   0  0  0  0  0  0  0  0  0  0  0  0
  -17.8903  -17.8337   23.3814 N   0  0  0  0  0  0  0  0  0  0  0  0
  -31.3907  -14.8678   18.8772 N   0  0  0  0  0  0  0  0  0  0  0  0
  -16.5749  -15.3204   21.1406 N   0  3  0  0  0  0  0  0  0  0  0  0
  -25.5945  -19.9444   17.6469 O   0  0  0  0  0  0  0  0  0  0  0  0
  -23.1387  -18.1337   24.8200 O   0  0  0  0  0  0  0  0  0  0  0  0
  -19.6266  -20.2549   24.3123 O   0  0  0  0  0  0  0  0  0  0  0  0
  -17.5248  -15.5781   23.7765 O   0  0  0  0  0  0  0  0  0  0  0  0
  -33.4345  -15.3021   19.8501 O   0  0  0  0  0  0  0  0  0  0  0  0
  -28.4741  -26.8521   19.7865 O   0  0  0  0  0  0  0  0  0  0  0  0
  -23.4798  -13.6675   20.6222 O   0  0  0  0  0  0  0  0  0  1  0  0
  -23.6945  -29.5147   20.4722 F   0  0  0  0  0  0  0  0  0  0  0  0
  -28.0895  -28.5448   21.9382 F   0  0  0  0  0  0  0  0  0  0  0  0
  1  2  1  0  0  0  0
  1  5  2  0  0  0  0
  2  6  2  0  0  0  0
  3  8  2  0  0  0  0
  3 15  1  0  0  0  0
  4  9  1  0  0  0  0
  4 15  2  0  0  0  0
  5 17  1  0  0  0  0
  6 19  1  0  0  0  0
  7 10  2  0  0  0  0
  7 18  1  0  0  0  0
  8 21  1  0  0  0  0
  9 21  2  0  0  0  0
 10 22  1  0  0  0  0
 11 12  2  0  0  0  0
 11 23  1  0  0  0  0
 12 24  1  0  0  0  0
 13 20  1  0  0  0  0
 13 22  2  0  0  0  0
 14 24  2  0  0  0  0
 14 25  1  0  0  0  0
 15 26  1  0  0  0  0
 16 26  1  0  0  0  0
 16 27  2  0  0  0  0
 16 30  1  0  0  0  0
 17 19  2  0  0  0  0
 17 35  1  0  0  0  0
 18 20  2  0  0  0  0
 18 36  1  0  0  0  0
 19 44  1  0  0  0  0
 20 37  1  0  0  0  0
 21 85  1  0  0  0  0
 22 86  1  0  0  0  0
 23 25  2  0  0  0  0
 23 85  1  0  0  0  0
 24 87  1  0  0  0  0
 25 88  1  0  0  0  0
 26 67  2  0  0  0  0
 27 70  1  0  0  0  0
 27 74  1  0  0  0  0
 28 55  1  0  0  0  0
 28 68  2  0  0  0  0
 28 71  1  0  0  0  0
 29 63  1  0  0  0  0
 29 69  2  0  0  0  0
 29 71  1  0  0  0  0
 30 75  1  0  0  0  0
 30 80  2  0  0  0  0
 31 45  1  0  0  0  0
 31 76  1  0  0  0  0
 31 81  2  0  0  0  0
 32 64  1  0  0  0  0
 32 72  1  0  0  0  0
 32 82  2  0  0  0  0
 33 65  1  0  0  0  0
 33 77  1  0  0  0  0
 33 83  2  0  0  0  0
 34 73  1  0  0  0  0
 34 78  1  0  0  0  0
 34 84  2  0  0  0  0
 35 38  1  0  0  0  0
 36 45  1  0  0  0  0
 37 72  1  0  0  0  0
 38 40  1  0  0  0  0
 39 41  1  0  0  0  0
 39 42  1  0  0  0  0
 40 44  1  0  0  0  0
 41 46  1  0  0  0  0
 42 73  1  0  0  0  0
 43 46  1  0  0  0  0
 43 73  1  0  0  0  0
 44 76  1  0  0  0  0
 45 72  1  0  0  0  0
 46 70  1  0  0  0  0
 47 56  1  0  0  0  0
 48 63  1  0  0  0  0
 49 65  1  0  0  0  0
 50 66  1  0  0  0  0
 51 66  1  0  0  0  0
 52 66  1  0  0  0  0
 53 78  1  0  0  0  0
 54 79  1  0  0  0  0
 55 57  1  0  0  0  0
 56 59  1  0  0  0  0
 57 58  1  0  0  0  0
 58 60  1  0  0  0  0
 59 61  1  0  0  0  0
 60 62  1  0  0  0  0
 61 71  1  0  0  0  0
 62 86  1  0  0  0  0
 63 78  1  0  0  0  0
 64 66  1  0  0  0  0
 64 77  1  0  0  0  0
 65 79  1  0  0  0  0
 67 70  1  0  0  0  0
 68 69  1  0  0  0  0
M  CHG  1  79   1
M  ISO  4  34 100  62 101  78 100  86 101
M  END
> <Batch ID>
0070

> <Smiles>
CCCCn1c(CCCC[101CH2:1][101O:1]c2ccc3c(c2)CN(C(=O)C(NC(=O)C(C)NC)C(C)(C)C)C(C(=O)NC2CCCc4ccccc42)C3)nnc1C(C)[100N:0](C)[100C:0](=O)N1CCCC(n2nc(-c3ccc(Oc4ccc(F)cc4F)cc3)c(C(N)=O)c2N)C1

> <Shape>
0.201

> <Color>
0.071

> <Negative vol penalty>
0.000

$$$$
