
  -OEChem-04052318223D

 86 94  0     1  0  0  0  0  0999 V2000
  -21.0904  -29.3507   26.3555 C   0  0  0  0  0  0  0  0  0  0  0  0
  -22.4630  -29.1288   26.3079 C   0  0  0  0  0  0  0  0  0  0  0  0
  -25.3930  -10.8662   22.0093 C   0  0  0  0  0  0  0  0  0  0  0  0
  -24.7144  -11.7947   24.1340 C   0  0  0  0  0  0  0  0  0  0  0  0
  -20.2612  -28.7935   25.3830 C   0  0  0  0  0  0  0  0  0  0  0  0
  -23.0070  -28.3486   25.2882 C   0  0  0  0  0  0  0  0  0  0  0  0
  -28.9012  -27.7423   21.2624 C   0  0  0  0  0  0  0  0  0  0  0  0
  -25.1242   -9.5826   22.4843 C   0  0  0  0  0  0  0  0  0  0  0  0
  -24.4454  -10.5110   24.6090 C   0  0  0  0  0  0  0  0  0  0  0  0
  -29.8523  -26.7970   20.8808 C   0  0  0  0  0  0  0  0  0  0  0  0
  -24.2738   -6.0885   23.0160 C   0  0  0  0  0  0  0  0  0  0  0  0
  -23.5745   -5.2201   22.1779 C   0  0  0  0  0  0  0  0  0  0  0  0
  -28.3321  -25.9509   19.2098 C   0  0  0  0  0  0  0  0  0  0  0  0
  -21.7109   -6.7573   22.1402 C   0  0  0  0  0  0  0  0  0  0  0  0
  -30.7933  -20.9843   19.2955 C   0  0  0  0  0  0  0  0  0  0  0  0
  -25.1882  -11.9723   22.8342 C   0  0  0  0  0  0  0  0  0  0  0  0
  -24.5755  -14.1641   21.6817 C   0  0  0  0  0  0  0  0  0  0  0  0
  -20.7964  -28.0141   24.3454 C   0  0  0  0  0  0  0  0  0  0  0  0
  -27.6522  -27.7919   20.6269 C   0  0  0  0  0  0  0  0  0  0  0  0
  -22.1840  -27.7794   24.3016 C   0  0  0  0  0  0  0  0  0  0  0  0
  -27.3678  -26.8994   19.5836 C   0  0  0  0  0  0  0  0  0  0  0  0
  -24.6503   -9.4050   23.7841 C   0  0  0  0  0  0  0  0  0  0  0  0
  -29.5668  -25.8993   19.8563 C   0  0  0  0  0  0  0  0  0  0  0  0
  -23.6917   -7.2912   23.4164 C   0  0  0  0  0  0  0  0  0  0  0  0
  -22.2931   -5.5545   21.7400 C   0  0  0  0  0  0  0  0  0  0  0  0
  -22.4103   -7.6257   22.9784 C   0  0  0  0  0  0  0  0  0  0  0  0
  -25.4663  -13.2985   22.3443 C   0  0  0  0  0  0  0  0  0  0  0  0
  -29.6886  -20.1573   19.3070 C   0  0  0  0  0  0  0  0  0  0  0  0
  -30.7120  -22.1003   20.1031 C   0  0  0  0  0  0  0  0  0  0  0  0
  -25.3178  -15.2914   21.4272 C   0  0  0  0  0  0  0  0  0  0  0  0
  -28.6271  -21.5121   20.7918 C   0  0  0  0  0  0  0  0  0  0  0  0
  -23.2001  -13.9669   21.3281 C   0  0  0  0  0  0  0  0  0  0  0  0
  -24.6404  -27.4056   21.5667 C   0  0  0  0  0  0  0  0  0  0  0  0
  -23.9831  -28.3348   18.5291 C   0  0  0  0  0  0  0  0  0  0  0  0
  -25.0327  -28.6153   15.2939 C   0  0  0  0  0  0  0  0  0  0  0  0
  -28.9657  -19.1874   23.0578 C   0  0  0  0  0  0  0  0  0  0  0  0
  -19.8550  -27.3936   23.3437 C   0  0  0  0  0  0  0  0  0  0  0  0
  -26.6472  -28.8350   21.0323 C   0  0  0  0  0  0  0  0  0  0  0  0
  -26.0494  -26.9245   18.8557 C   0  0  0  0  0  0  0  0  0  0  0  0
  -20.5528  -26.8890   22.0833 C   0  0  0  0  0  0  0  0  0  0  0  0
  -30.2915  -16.1191   21.8311 C   0  0  0  0  0  0  0  0  0  0  0  0
  -21.7992  -26.0885   22.4473 C   0  0  0  0  0  0  0  0  0  0  0  0
  -29.0826  -15.1821   21.8067 C   0  0  0  0  0  0  0  0  0  0  0  0
  -30.2466  -17.0672   23.0274 C   0  0  0  0  0  0  0  0  0  0  0  0
  -27.7896  -16.9054   23.1323 C   0  0  0  0  0  0  0  0  0  0  0  0
  -22.8146  -26.9593   23.1971 C   0  0  1  0  0  0  0  0  0  0  0  0
  -25.2151  -28.4600   20.6636 C   0  0  1  0  0  0  0  0  0  0  0  0
  -27.7619  -15.9679   21.9130 C   0  0  2  0  0  0  0  0  0  0  0  0
  -29.6840  -18.9250   18.4657 C   0  0  0  0  0  0  0  0  0  0  0  0
  -24.2605  -29.3787   13.0316 C   0  0  0  0  0  0  0  0  0  0  0  0
  -32.7104  -23.1508   18.8454 C   0  0  0  0  0  0  0  0  0  0  0  0
  -32.8725  -22.6355   21.2714 C   0  0  0  0  0  0  0  0  0  0  0  0
  -26.0626  -21.2822   21.0510 C   0  0  0  0  0  0  0  0  0  0  0  0
  -27.2289  -23.3479   21.7779 C   0  0  0  0  0  0  0  0  0  0  0  0
  -22.3009  -25.8043   18.2521 C   0  0  0  0  0  0  0  0  0  0  0  0
  -22.3507  -26.1266   15.7698 C   0  0  0  0  0  0  0  0  0  0  0  0
  -21.2870  -27.8482   17.2282 C   0  0  0  0  0  0  0  0  0  0  0  0
  -27.1648  -30.6613   15.1283 C   0  0  0  0  0  0  0  0  0  0  0  0
  -27.5456  -21.2226   23.0806 C   0  0  0  0  0  0  0  0  0  0  0  0
  -31.3925  -24.5128   20.4890 C   0  0  0  0  0  0  0  0  0  1  0  0
  -23.8052  -27.6248   17.2088 C   0  0  1  0  0  0  0  0  0  0  0  0
  -24.9770  -29.7731   14.3137 C   0  0  2  0  0  0  0  0  0  0  0  0
  -31.8960  -23.0837   20.1598 C   0  0  0  0  0  0  0  0  0  0  0  0
  -27.4258  -21.8039   21.6258 C   0  0  0  0  0  0  0  0  0  0  0  0
  -22.4602  -26.8490   17.1296 C   0  0  0  0  0  0  0  0  0  0  0  0
  -26.6816  -13.8302   22.5007 N   0  0  0  0  0  0  0  0  0  0  0  0
  -28.5844  -20.3916   20.0460 N   0  0  0  0  0  0  0  0  0  0  0  0
  -29.6400  -22.3963   20.8671 N   0  0  0  0  0  0  0  0  0  0  0  0
  -26.5597  -15.0420   21.9327 N   0  0  0  0  0  0  0  0  0  0  0  0
  -25.0971  -27.9587   19.2929 N   0  0  0  0  0  0  0  0  0  0  0  0
  -28.9690  -17.7828   23.0694 N   0  0  0  0  0  0  0  0  0  0  0  0
  -25.0227  -16.4617   20.8224 N   0  0  0  0  0  0  0  0  0  0  0  0
  -22.5916  -12.7500   21.6646 N   0  0  0  0  0  0  0  0  0  0  0  0
  -23.5257  -27.8162   22.2728 N   0  0  0  0  0  0  0  0  0  0  0  0
  -23.9715  -28.6397   16.1740 N   0  0  0  0  0  0  0  0  0  0  0  0
  -27.7125  -19.7863   23.0934 N   0  0  0  0  0  0  0  0  0  0  0  0
  -26.3542  -30.2220   13.9634 N   0  3  0  0  0  0  0  0  0  0  0  0
  -22.5353  -14.8374   20.7168 O   0  0  0  0  0  0  0  0  0  0  0  0
  -25.1682  -26.3009   21.6180 O   0  0  0  0  0  0  0  0  0  0  0  0
  -23.1677  -29.1965   18.8670 O   0  0  0  0  0  0  0  0  0  0  0  0
  -25.9261  -27.7715   15.2780 O   0  0  0  0  0  0  0  0  0  0  0  0
  -30.0027  -19.8579   23.0132 O   0  0  0  0  0  0  0  0  0  0  0  0
  -24.3876   -8.1526   24.2478 O   0  0  0  0  0  0  0  0  0  0  0  0
  -30.4931  -24.9752   19.4822 O   0  0  0  0  0  0  0  0  0  1  0  0
  -21.6222   -4.7213   20.9339 F   0  0  0  0  0  0  0  0  0  0  0  0
  -21.8463   -8.7803   23.3587 F   0  0  0  0  0  0  0  0  0  0  0  0
  1  2  1  0  0  0  0
  1  5  2  0  0  0  0
  2  6  2  0  0  0  0
  3  8  2  0  0  0  0
  3 16  1  0  0  0  0
  4  9  1  0  0  0  0
  4 16  2  0  0  0  0
  5 18  1  0  0  0  0
  6 20  1  0  0  0  0
  7 10  2  0  0  0  0
  7 19  1  0  0  0  0
  8 22  1  0  0  0  0
  9 22  2  0  0  0  0
 10 23  1  0  0  0  0
 11 12  2  0  0  0  0
 11 24  1  0  0  0  0
 12 25  1  0  0  0  0
 13 21  1  0  0  0  0
 13 23  2  0  0  0  0
 14 25  2  0  0  0  0
 14 26  1  0  0  0  0
 15 28  2  0  0  0  0
 15 29  1  0  0  0  0
 16 27  1  0  0  0  0
 17 27  1  0  0  0  0
 17 30  2  0  0  0  0
 17 32  1  0  0  0  0
 18 20  2  0  0  0  0
 18 37  1  0  0  0  0
 19 21  2  0  0  0  0
 19 38  1  0  0  0  0
 20 46  1  0  0  0  0
 21 39  1  0  0  0  0
 22 83  1  0  0  0  0
 23 84  1  0  0  0  0
 24 26  2  0  0  0  0
 24 83  1  0  0  0  0
 25 85  1  0  0  0  0
 26 86  1  0  0  0  0
 27 66  2  0  0  0  0
 28 49  1  0  0  0  0
 28 67  1  0  0  0  0
 29 63  1  0  0  0  0
 29 68  2  0  0  0  0
 30 69  1  0  0  0  0
 30 72  1  0  0  0  0
 31 64  1  0  0  0  0
 31 67  2  0  0  0  0
 31 68  1  0  0  0  0
 32 73  1  0  0  0  0
 32 78  2  0  0  0  0
 33 47  1  0  0  0  0
 33 74  1  0  0  0  0
 33 79  2  0  0  0  0
 34 61  1  0  0  0  0
 34 70  1  0  0  0  0
 34 80  2  0  0  0  0
 35 62  1  0  0  0  0
 35 75  1  0  0  0  0
 35 81  2  0  0  0  0
 36 71  1  0  0  0  0
 36 76  1  0  0  0  0
 36 82  2  0  0  0  0
 37 40  1  0  0  0  0
 38 47  1  0  0  0  0
 39 70  1  0  0  0  0
 40 42  1  0  0  0  0
 41 43  1  0  0  0  0
 41 44  1  0  0  0  0
 42 46  1  0  0  0  0
 43 48  1  0  0  0  0
 44 71  1  0  0  0  0
 45 48  1  0  0  0  0
 45 71  1  0  0  0  0
 46 74  1  0  0  0  0
 47 70  1  0  0  0  0
 48 69  1  0  0  0  0
 50 62  1  0  0  0  0
 51 63  1  0  0  0  0
 52 63  1  0  0  0  0
 53 64  1  0  0  0  0
 54 64  1  0  0  0  0
 55 65  1  0  0  0  0
 56 65  1  0  0  0  0
 57 65  1  0  0  0  0
 58 77  1  0  0  0  0
 59 64  1  0  0  0  0
 59 76  1  0  0  0  0
 60 63  1  0  0  0  0
 60 84  1  0  0  0  0
 61 65  1  0  0  0  0
 61 75  1  0  0  0  0
 62 77  1  0  0  0  0
 66 69  1  0  0  0  0
M  CHG  1  77   1
M  ISO  4  36 100  60 101  76 100  84 101
M  END
> <Batch ID>
0071

> <Smiles>
CNC(C)C(=O)NC(C(=O)N1Cc2cc([101O:1][101CH2:1]C(C)(C)c3cc(C)nc(C(C)(C)C[100NH:0][100C:0](=O)N4CCCC(n5nc(-c6ccc(Oc7ccc(F)cc7F)cc6)c(C(N)=O)c5N)C4)n3)ccc2CC1C(=O)NC1CCCc2ccccc21)C(C)(C)C

> <Shape>
0.226

> <Color>
0.075

> <Negative vol penalty>
0.000

$$$$

  -OEChem-04052318223D

 82 90  0     1  0  0  0  0  0999 V2000
  -23.0995  -31.1363   21.3325 C   0  0  0  0  0  0  0  0  0  0  0  0
  -23.2414  -29.7529   21.2938 C   0  0  0  0  0  0  0  0  0  0  0  0
  -23.0653   -9.7504   20.2397 C   0  0  0  0  0  0  0  0  0  0  0  0
  -23.7781  -10.0550   22.5279 C   0  0  0  0  0  0  0  0  0  0  0  0
  -24.1849  -31.9560   21.0261 C   0  0  0  0  0  0  0  0  0  0  0  0
  -24.4686  -29.1884   20.9477 C   0  0  0  0  0  0  0  0  0  0  0  0
  -26.8920  -24.0128   23.1491 C   0  0  0  0  0  0  0  0  0  0  0  0
  -22.3076   -8.6438   20.6230 C   0  0  0  0  0  0  0  0  0  0  0  0
  -23.0203   -8.9484   22.9113 C   0  0  0  0  0  0  0  0  0  0  0  0
  -26.9336  -22.7109   22.6520 C   0  0  0  0  0  0  0  0  0  0  0  0
  -19.3242   -8.0595   22.1031 C   0  0  0  0  0  0  0  0  0  0  0  0
  -18.0272   -7.9563   21.6004 C   0  0  0  0  0  0  0  0  0  0  0  0
  -29.1262  -23.1355   21.7403 C   0  0  0  0  0  0  0  0  0  0  0  0
  -18.5989   -5.8536   20.5569 C   0  0  0  0  0  0  0  0  0  0  0  0
  -26.9463  -18.1282   19.6993 C   0  0  0  0  0  0  0  0  0  0  0  0
  -27.3976  -17.7583   18.4638 C   0  0  0  0  0  0  0  0  0  0  0  0
  -23.8006  -10.4560   21.1922 C   0  0  0  0  0  0  0  0  0  0  0  0
  -24.1642  -12.9417   20.7489 C   0  0  0  0  0  0  0  0  0  0  0  0
  -25.4287  -31.4013   20.6855 C   0  0  0  0  0  0  0  0  0  0  0  0
  -27.9645  -24.8907   22.9358 C   0  0  0  0  0  0  0  0  0  0  0  0
  -25.5713  -30.0015   20.6352 C   0  0  0  0  0  0  0  0  0  0  0  0
  -29.0969  -24.4472   22.2379 C   0  0  0  0  0  0  0  0  0  0  0  0
  -22.2851   -8.2428   21.9588 C   0  0  0  0  0  0  0  0  0  0  0  0
  -28.0496  -22.2730   21.9450 C   0  0  0  0  0  0  0  0  0  0  0  0
  -20.2586   -7.0597   21.8327 C   0  0  0  0  0  0  0  0  0  0  0  0
  -17.6645   -6.8534   20.8273 C   0  0  0  0  0  0  0  0  0  0  0  0
  -19.8959   -5.9568   21.0597 C   0  0  0  0  0  0  0  0  0  0  0  0
  -24.5839  -11.5988   20.7967 C   0  0  0  0  0  0  0  0  0  0  0  0
  -25.2693  -13.6315   20.3137 C   0  0  0  0  0  0  0  0  0  0  0  0
  -29.1520  -17.9693   19.7972 C   0  0  0  0  0  0  0  0  0  0  0  0
  -22.8894  -13.5144   21.0693 C   0  0  0  0  0  0  0  0  0  0  0  0
  -28.3239  -27.6702   21.4360 C   0  0  0  0  0  0  0  0  0  0  0  0
  -31.2976  -27.5372   22.7251 C   0  0  0  0  0  0  0  0  0  0  0  0
  -33.8238  -25.6231   23.9905 C   0  0  0  0  0  0  0  0  0  0  0  0
  -30.7558  -14.6393   20.4835 C   0  0  0  0  0  0  0  0  0  0  0  0
  -26.5601  -32.3277   20.3163 C   0  0  0  0  0  0  0  0  0  0  0  0
  -27.9155  -26.2835   23.5015 C   0  0  0  0  0  0  0  0  0  0  0  0
  -30.2831  -25.3441   21.9993 C   0  0  0  0  0  0  0  0  0  0  0  0
  -27.9285  -31.6512   20.3238 C   0  0  0  0  0  0  0  0  0  0  0  0
  -29.6489  -11.9675   18.4068 C   0  0  0  0  0  0  0  0  0  0  0  0
  -27.8662  -30.3127   19.5948 C   0  0  0  0  0  0  0  0  0  0  0  0
  -28.2007  -11.7403   18.8438 C   0  0  0  0  0  0  0  0  0  0  0  0
  -30.5430  -12.3397   19.5876 C   0  0  0  0  0  0  0  0  0  0  0  0
  -28.6189  -13.2561   20.8253 C   0  0  0  0  0  0  0  0  0  0  0  0
  -26.8932  -29.3515   20.2884 C   0  0  1  0  0  0  0  0  0  0  0  0
  -28.8468  -27.2540   22.7817 C   0  0  1  0  0  0  0  0  0  0  0  0
  -27.6677  -12.9330   19.6603 C   0  0  2  0  0  0  0  0  0  0  0  0
  -36.1453  -25.7945   24.9279 C   0  0  0  0  0  0  0  0  0  0  0  0
  -31.0692  -19.3634   20.8352 C   0  0  0  0  0  0  0  0  0  0  0  0
  -31.5463  -17.6279   19.1275 C   0  0  0  0  0  0  0  0  0  0  0  0
  -32.4002  -27.9572   19.9112 C   0  0  0  0  0  0  0  0  0  0  0  0
  -34.6297  -27.1803   20.7441 C   0  0  0  0  0  0  0  0  0  0  0  0
  -33.5907  -29.2369   21.6999 C   0  0  0  0  0  0  0  0  0  0  0  0
  -32.9835  -24.4834   26.5894 C   0  0  0  0  0  0  0  0  0  0  0  0
  -28.0273  -18.6421   21.9620 C   0  0  0  0  0  0  0  0  0  0  0  0
  -30.8128  -16.9335   21.4284 C   0  0  0  0  0  0  0  0  0  0  0  0
  -27.3790  -20.0040   22.1857 C   0  0  0  0  0  0  0  0  0  1  0  0
  -32.6282  -26.9741   22.2876 C   0  0  1  0  0  0  0  0  0  0  0  0
  -34.6594  -25.7628   25.2502 C   0  0  2  0  0  0  0  0  0  0  0  0
  -30.5533  -17.9841   20.2855 C   0  0  0  0  0  0  0  0  0  0  0  0
  -33.2892  -27.8206   21.1634 C   0  0  0  0  0  0  0  0  0  0  0  0
  -25.8563  -11.4426   20.4217 N   0  0  0  0  0  0  0  0  0  0  0  0
  -28.0529  -18.2510   20.5044 N   0  0  0  0  0  0  0  0  0  0  0  0
  -26.2456  -12.6963   20.1340 N   0  0  0  0  0  0  0  0  0  0  0  0
  -28.7658  -17.6678   18.5533 N   0  3  0  0  0  0  0  0  0  0  0  0
  -30.1848  -26.6990   22.5669 N   0  0  0  0  0  0  0  0  0  0  0  0
  -29.9823  -13.4784   20.3189 N   0  0  0  0  0  0  0  0  0  0  0  0
  -25.4914  -14.9408   20.0710 N   0  0  0  0  0  0  0  0  0  0  0  0
  -21.8639  -12.6625   21.5014 N   0  0  0  0  0  0  0  0  0  0  0  0
  -27.5028  -28.7811   21.4705 N   0  0  0  0  0  0  0  0  0  0  0  0
  -33.4363  -26.8505   23.4960 N   0  0  0  0  0  0  0  0  0  0  0  0
  -30.1467  -15.6737   21.1833 N   0  0  0  0  0  0  0  0  0  0  0  0
  -34.4026  -24.6199   26.1715 N   0  3  0  0  0  0  0  0  0  0  0  0
  -22.6616  -14.7430   20.9595 O   0  0  0  0  0  0  0  0  0  0  0  0
  -28.6429  -27.0316   20.4399 O   0  0  0  0  0  0  0  0  0  0  0  0
  -31.2484  -28.6760   23.1966 O   0  0  0  0  0  0  0  0  0  0  0  0
  -33.5460  -24.5343   23.4928 O   0  0  0  0  0  0  0  0  0  0  0  0
  -31.9021  -14.7480   20.0351 O   0  0  0  0  0  0  0  0  0  0  0  0
  -21.5456   -7.1632   22.3332 O   0  0  0  0  0  0  0  0  0  0  0  0
  -28.0924  -21.0029   21.4581 O   0  0  0  0  0  0  0  0  0  1  0  0
  -16.4185   -6.7537   20.3459 F   0  0  0  0  0  0  0  0  0  0  0  0
  -20.7888   -4.9925   20.7975 F   0  0  0  0  0  0  0  0  0  0  0  0
  1  2  1  0  0  0  0
  1  5  2  0  0  0  0
  2  6  2  0  0  0  0
  3  8  2  0  0  0  0
  3 17  1  0  0  0  0
  4  9  1  0  0  0  0
  4 17  2  0  0  0  0
  5 19  1  0  0  0  0
  6 21  1  0  0  0  0
  7 10  2  0  0  0  0
  7 20  1  0  0  0  0
  8 23  1  0  0  0  0
  9 23  2  0  0  0  0
 10 24  1  0  0  0  0
 11 12  2  0  0  0  0
 11 25  1  0  0  0  0
 12 26  1  0  0  0  0
 13 22  1  0  0  0  0
 13 24  2  0  0  0  0
 14 26  2  0  0  0  0
 14 27  1  0  0  0  0
 15 16  2  0  0  0  0
 15 63  1  0  0  0  0
 16 65  1  0  0  0  0
 17 28  1  0  0  0  0
 18 28  1  0  0  0  0
 18 29  2  0  0  0  0
 18 31  1  0  0  0  0
 19 21  2  0  0  0  0
 19 36  1  0  0  0  0
 20 22  2  0  0  0  0
 20 37  1  0  0  0  0
 21 45  1  0  0  0  0
 22 38  1  0  0  0  0
 23 79  1  0  0  0  0
 24 80  1  0  0  0  0
 25 27  2  0  0  0  0
 25 79  1  0  0  0  0
 26 81  1  0  0  0  0
 27 82  1  0  0  0  0
 28 62  2  0  0  0  0
 29 64  1  0  0  0  0
 29 68  1  0  0  0  0
 30 60  1  0  0  0  0
 30 63  1  0  0  0  0
 30 65  2  0  0  0  0
 31 69  1  0  0  0  0
 31 74  2  0  0  0  0
 32 46  1  0  0  0  0
 32 70  1  0  0  0  0
 32 75  2  0  0  0  0
 33 58  1  0  0  0  0
 33 66  1  0  0  0  0
 33 76  2  0  0  0  0
 34 59  1  0  0  0  0
 34 71  1  0  0  0  0
 34 77  2  0  0  0  0
 35 67  1  0  0  0  0
 35 72  1  0  0  0  0
 35 78  2  0  0  0  0
 36 39  1  0  0  0  0
 37 46  1  0  0  0  0
 38 66  1  0  0  0  0
 39 41  1  0  0  0  0
 40 42  1  0  0  0  0
 40 43  1  0  0  0  0
 41 45  1  0  0  0  0
 42 47  1  0  0  0  0
 43 67  1  0  0  0  0
 44 47  1  0  0  0  0
 44 67  1  0  0  0  0
 45 70  1  0  0  0  0
 46 66  1  0  0  0  0
 47 64  1  0  0  0  0
 48 59  1  0  0  0  0
 49 60  1  0  0  0  0
 50 60  1  0  0  0  0
 51 61  1  0  0  0  0
 52 61  1  0  0  0  0
 53 61  1  0  0  0  0
 54 73  1  0  0  0  0
 55 57  1  0  0  0  0
 55 63  1  0  0  0  0
 56 60  1  0  0  0  0
 56 72  1  0  0  0  0
 57 80  1  0  0  0  0
 58 61  1  0  0  0  0
 58 71  1  0  0  0  0
 59 73  1  0  0  0  0
 62 64  1  0  0  0  0
M  CHG  2  65   1  73   1
M  ISO  4  35 100  57 101  72 100  80 101
M  END
> <Batch ID>
0071

> <Smiles>
CNC(C)C(=O)NC(C(=O)N1Cc2cc([101O:1][101CH2:1]Cn3ccnc3C(C)(C)C[100NH:0][100C:0](=O)N3CCCC(n4nc(-c5ccc(Oc6ccc(F)cc6F)cc5)c(C(N)=O)c4N)C3)ccc2CC1C(=O)NC1CCCc2ccccc21)C(C)(C)C

> <Shape>
0.269

> <Color>
0.206

> <Negative vol penalty>
0.000

$$$$

  -OEChem-04052318223D

 86 94  0     1  0  0  0  0  0999 V2000
  -15.9979  -26.2977   24.1332 C   0  0  0  0  0  0  0  0  0  0  0  0
  -16.8291  -26.1448   23.0281 C   0  0  0  0  0  0  0  0  0  0  0  0
  -27.0648  -13.0126   21.0527 C   0  0  0  0  0  0  0  0  0  0  0  0
  -26.9537  -13.5085   18.6908 C   0  0  0  0  0  0  0  0  0  0  0  0
  -15.9383  -27.5235   24.7948 C   0  0  0  0  0  0  0  0  0  0  0  0
  -17.6003  -27.2180   22.5834 C   0  0  0  0  0  0  0  0  0  0  0  0
  -22.3619  -25.8732   21.5045 C   0  0  0  0  0  0  0  0  0  0  0  0
  -26.3718  -11.8218   20.8353 C   0  0  0  0  0  0  0  0  0  0  0  0
  -26.2608  -12.3177   18.4734 C   0  0  0  0  0  0  0  0  0  0  0  0
  -22.5804  -25.2226   20.2909 C   0  0  0  0  0  0  0  0  0  0  0  0
  -23.1717  -10.8598   20.3271 C   0  0  0  0  0  0  0  0  0  0  0  0
  -22.1325  -10.5464   21.2031 C   0  0  0  0  0  0  0  0  0  0  0  0
  -23.3387  -27.2975   19.3220 C   0  0  0  0  0  0  0  0  0  0  0  0
  -23.2748   -8.5120   21.8303 C   0  0  0  0  0  0  0  0  0  0  0  0
  -27.7371  -22.6899   15.4848 C   0  0  0  0  0  0  0  0  0  0  0  0
  -29.0488  -23.0708   15.4510 C   0  0  0  0  0  0  0  0  0  0  0  0
  -27.3557  -13.8560   19.9805 C   0  0  0  0  0  0  0  0  0  0  0  0
  -29.4658  -15.2759   20.1785 C   0  0  0  0  0  0  0  0  0  0  0  0
  -16.7165  -28.6094   24.3638 C   0  0  0  0  0  0  0  0  0  0  0  0
  -22.6203  -27.2454   21.6331 C   0  0  0  0  0  0  0  0  0  0  0  0
  -17.5501  -28.4598   23.2391 C   0  0  0  0  0  0  0  0  0  0  0  0
  -23.1251  -27.9626   20.5390 C   0  0  0  0  0  0  0  0  0  0  0  0
  -25.9698  -11.4743   19.5457 C   0  0  0  0  0  0  0  0  0  0  0  0
  -23.0661  -25.9354   19.1986 C   0  0  0  0  0  0  0  0  0  0  0  0
  -24.2625   -9.9993   20.2026 C   0  0  0  0  0  0  0  0  0  0  0  0
  -22.1840   -9.3725   21.9547 C   0  0  0  0  0  0  0  0  0  0  0  0
  -24.3140   -8.8254   20.9543 C   0  0  0  0  0  0  0  0  0  0  0  0
  -28.0710  -15.0866   20.2045 C   0  0  0  0  0  0  0  0  0  0  0  0
  -29.6361  -16.6115   20.4500 C   0  0  0  0  0  0  0  0  0  0  0  0
  -28.1963  -23.7275   17.3856 C   0  0  0  0  0  0  0  0  0  0  0  0
  -30.5137  -14.3293   19.9309 C   0  0  0  0  0  0  0  0  0  0  0  0
  -20.8596  -29.8069   22.2980 C   0  0  0  0  0  0  0  0  0  0  0  0
  -28.2346  -21.8479   19.5046 C   0  0  0  0  0  0  0  0  0  0  0  0
  -23.7374  -31.3036   22.2972 C   0  0  0  0  0  0  0  0  0  0  0  0
  -26.9812  -31.3450   21.2374 C   0  0  0  0  0  0  0  0  0  0  0  0
  -16.5828  -29.9288   25.0823 C   0  0  0  0  0  0  0  0  0  0  0  0
  -22.4047  -27.9268   22.9565 C   0  0  0  0  0  0  0  0  0  0  0  0
  -23.4378  -29.4331   20.6309 C   0  0  0  0  0  0  0  0  0  0  0  0
  -17.7140  -30.9068   24.7754 C   0  0  0  0  0  0  0  0  0  0  0  0
  -26.3620  -20.0935   22.0817 C   0  0  0  0  0  0  0  0  0  0  0  0
  -17.9794  -30.9619   23.2743 C   0  0  0  0  0  0  0  0  0  0  0  0
  -26.7367  -18.6399   21.7958 C   0  0  0  0  0  0  0  0  0  0  0  0
  -26.2565  -20.9093   20.7959 C   0  0  0  0  0  0  0  0  0  0  0  0
  -27.8626  -19.4069   19.6611 C   0  0  0  0  0  0  0  0  0  0  0  0
  -18.4206  -29.5933   22.7415 C   0  0  1  0  0  0  0  0  0  0  0  0
  -22.2154  -29.4352   22.8282 C   0  0  1  0  0  0  0  0  0  0  0  0
  -28.0091  -18.5572   20.9344 C   0  0  2  0  0  0  0  0  0  0  0  0
  -28.2867  -23.5878   21.2343 C   0  0  0  0  0  0  0  0  0  0  0  0
  -29.0790  -32.7159   21.3685 C   0  0  0  0  0  0  0  0  0  0  0  0
  -27.0066  -25.4838   18.8564 C   0  0  0  0  0  0  0  0  0  0  0  0
  -29.4268  -25.0277   19.1368 C   0  0  0  0  0  0  0  0  0  0  0  0
  -22.5687  -33.2798   20.2876 C   0  0  0  0  0  0  0  0  0  0  0  0
  -24.9034  -34.0065   19.7497 C   0  0  0  0  0  0  0  0  0  0  0  0
  -24.0030  -34.3151   22.0555 C   0  0  0  0  0  0  0  0  0  0  0  0
  -22.4640  -24.0639   15.5023 C   0  0  0  0  0  0  0  0  0  0  0  0
  -22.9189  -21.8399   16.5440 C   0  0  0  0  0  0  0  0  0  0  0  0
  -28.4708  -29.1515   22.5521 C   0  0  0  0  0  0  0  0  0  0  0  0
  -24.8059  -23.5133   16.1852 C   0  0  0  0  0  0  0  0  0  0  0  0
  -25.8155  -22.8984   17.1635 C   0  0  0  0  0  0  0  0  0  0  0  0
  -22.9845  -23.9078   17.9583 C   0  0  0  0  0  0  0  0  0  1  0  0
  -27.7483  -23.2341   19.8452 C   0  0  1  0  0  0  0  0  0  0  0  0
  -24.5856  -31.9893   21.2535 C   0  0  1  0  0  0  0  0  0  0  0  0
  -28.2821  -31.5766   21.9846 C   0  0  2  0  0  0  0  0  0  0  0  0
  -28.0742  -24.3304   18.7361 C   0  0  0  0  0  0  0  0  0  0  0  0
  -24.0075  -33.3704   20.8340 C   0  0  0  0  0  0  0  0  0  0  0  0
  -23.3094  -23.3284   16.5647 C   0  0  0  0  0  0  0  0  0  0  0  0
  -27.4028  -16.2118   20.4717 N   0  0  0  0  0  0  0  0  0  0  0  0
  -27.2345  -23.1085   16.6932 N   0  0  0  0  0  0  0  0  0  0  0  0
  -28.3819  -17.1210   20.6161 N   0  0  0  0  0  0  0  0  0  0  0  0
  -29.3056  -23.7108   16.6396 N   0  3  0  0  0  0  0  0  0  0  0  0
  -23.2043  -30.0557   21.9444 N   0  0  0  0  0  0  0  0  0  0  0  0
  -27.4772  -20.7821   19.9908 N   0  0  0  0  0  0  0  0  0  0  0  0
  -30.7348  -17.3880   20.5607 N   0  0  0  0  0  0  0  0  0  0  0  0
  -30.1631  -12.9979   19.6686 N   0  0  0  0  0  0  0  0  0  0  0  0
  -19.8087  -29.3471   23.0686 N   0  0  0  0  0  0  0  0  0  0  0  0
  -25.9370  -32.0482   21.7999 N   0  0  0  0  0  0  0  0  0  0  0  0
  -29.1222  -30.3460   21.9557 N   0  3  0  0  0  0  0  0  0  0  0  0
  -31.7258  -14.6510   19.9581 O   0  0  0  0  0  0  0  0  0  0  0  0
  -20.7732  -30.4636   21.2670 O   0  0  0  0  0  0  0  0  0  0  0  0
  -29.2587  -21.7184   18.8288 O   0  0  0  0  0  0  0  0  0  0  0  0
  -23.5606  -31.8515   23.3882 O   0  0  0  0  0  0  0  0  0  0  0  0
  -26.9002  -30.6164   20.2510 O   0  0  0  0  0  0  0  0  0  0  0  0
  -25.2938  -10.3122   19.3331 O   0  0  0  0  0  0  0  0  0  0  0  0
  -23.2796  -25.3029   18.0127 O   0  0  0  0  0  0  0  0  0  1  0  0
  -21.1867   -9.0724   22.7970 F   0  0  0  0  0  0  0  0  0  0  0  0
  -25.3599   -7.9953   20.8399 F   0  0  0  0  0  0  0  0  0  0  0  0
  1  2  1  0  0  0  0
  1  5  2  0  0  0  0
  2  6  2  0  0  0  0
  3  8  2  0  0  0  0
  3 17  1  0  0  0  0
  4  9  1  0  0  0  0
  4 17  2  0  0  0  0
  5 19  1  0  0  0  0
  6 21  1  0  0  0  0
  7 10  2  0  0  0  0
  7 20  1  0  0  0  0
  8 23  1  0  0  0  0
  9 23  2  0  0  0  0
 10 24  1  0  0  0  0
 11 12  2  0  0  0  0
 11 25  1  0  0  0  0
 12 26  1  0  0  0  0
 13 22  1  0  0  0  0
 13 24  2  0  0  0  0
 14 26  2  0  0  0  0
 14 27  1  0  0  0  0
 15 16  2  0  0  0  0
 15 68  1  0  0  0  0
 16 70  1  0  0  0  0
 17 28  1  0  0  0  0
 18 28  1  0  0  0  0
 18 29  2  0  0  0  0
 18 31  1  0  0  0  0
 19 21  2  0  0  0  0
 19 36  1  0  0  0  0
 20 22  2  0  0  0  0
 20 37  1  0  0  0  0
 21 45  1  0  0  0  0
 22 38  1  0  0  0  0
 23 83  1  0  0  0  0
 24 84  1  0  0  0  0
 25 27  2  0  0  0  0
 25 83  1  0  0  0  0
 26 85  1  0  0  0  0
 27 86  1  0  0  0  0
 28 67  2  0  0  0  0
 29 69  1  0  0  0  0
 29 73  1  0  0  0  0
 30 64  1  0  0  0  0
 30 68  1  0  0  0  0
 30 70  2  0  0  0  0
 31 74  1  0  0  0  0
 31 78  2  0  0  0  0
 32 46  1  0  0  0  0
 32 75  1  0  0  0  0
 32 79  2  0  0  0  0
 33 61  1  0  0  0  0
 33 72  1  0  0  0  0
 33 80  2  0  0  0  0
 34 62  1  0  0  0  0
 34 71  1  0  0  0  0
 34 81  2  0  0  0  0
 35 63  1  0  0  0  0
 35 76  1  0  0  0  0
 35 82  2  0  0  0  0
 36 39  1  0  0  0  0
 37 46  1  0  0  0  0
 38 71  1  0  0  0  0
 39 41  1  0  0  0  0
 40 42  1  0  0  0  0
 40 43  1  0  0  0  0
 41 45  1  0  0  0  0
 42 47  1  0  0  0  0
 43 72  1  0  0  0  0
 44 47  1  0  0  0  0
 44 72  1  0  0  0  0
 45 75  1  0  0  0  0
 46 71  1  0  0  0  0
 47 69  1  0  0  0  0
 48 61  1  0  0  0  0
 49 63  1  0  0  0  0
 50 64  1  0  0  0  0
 51 64  1  0  0  0  0
 52 65  1  0  0  0  0
 53 65  1  0  0  0  0
 54 65  1  0  0  0  0
 55 66  1  0  0  0  0
 56 66  1  0  0  0  0
 57 77  1  0  0  0  0
 58 59  1  0  0  0  0
 58 66  1  0  0  0  0
 59 68  1  0  0  0  0
 60 66  1  0  0  0  0
 60 84  1  0  0  0  0
 61 64  1  0  0  0  0
 62 65  1  0  0  0  0
 62 76  1  0  0  0  0
 63 77  1  0  0  0  0
 67 69  1  0  0  0  0
M  CHG  2  70   1  77   1
M  ISO  4  33 100  60 101  61 100  84 101
M  END
> <Batch ID>
0071

> <Smiles>
CNC(C)C(=O)NC(C(=O)N1Cc2cc([101O:1][101CH2:1]C(C)(C)CCn3ccnc3C(C)(C)[100CH:0](C)[100C:0](=O)N3CCCC(n4nc(-c5ccc(Oc6ccc(F)cc6F)cc5)c(C(N)=O)c4N)C3)ccc2CC1C(=O)NC1CCCc2ccccc21)C(C)(C)C

> <Shape>
0.270

> <Color>
0.077

> <Negative vol penalty>
0.000

$$$$

  -OEChem-04052318223D

 84 92  0     1  0  0  0  0  0999 V2000
  -19.1878  -31.2669   17.1194 C   0  0  0  0  0  0  0  0  0  0  0  0
  -20.5640  -31.0980   17.0058 C   0  0  0  0  0  0  0  0  0  0  0  0
  -25.3465  -13.9974   21.7831 C   0  0  0  0  0  0  0  0  0  0  0  0
  -24.8458  -14.7854   19.5548 C   0  0  0  0  0  0  0  0  0  0  0  0
  -18.6374  -31.7054   18.3230 C   0  0  0  0  0  0  0  0  0  0  0  0
  -21.3908  -31.3687   18.0956 C   0  0  0  0  0  0  0  0  0  0  0  0
  -24.9018  -27.7893   18.8067 C   0  0  0  0  0  0  0  0  0  0  0  0
  -24.4076  -12.9768   21.6332 C   0  0  0  0  0  0  0  0  0  0  0  0
  -23.9069  -13.7647   19.4048 C   0  0  0  0  0  0  0  0  0  0  0  0
  -26.0140  -27.8125   17.9664 C   0  0  0  0  0  0  0  0  0  0  0  0
  -22.4016   -9.9459   21.7020 C   0  0  0  0  0  0  0  0  0  0  0  0
  -22.7654   -8.6643   22.1150 C   0  0  0  0  0  0  0  0  0  0  0  0
  -27.2951  -28.8927   19.7017 C   0  0  0  0  0  0  0  0  0  0  0  0
  -24.5937   -8.6743   20.5356 C   0  0  0  0  0  0  0  0  0  0  0  0
  -25.5655  -14.9017   20.7439 C   0  0  0  0  0  0  0  0  0  0  0  0
  -27.9037  -15.9075   20.5732 C   0  0  0  0  0  0  0  0  0  0  0  0
  -19.4569  -31.9723   19.4310 C   0  0  0  0  0  0  0  0  0  0  0  0
  -24.9749  -28.3284   20.0992 C   0  0  0  0  0  0  0  0  0  0  0  0
  -20.8510  -31.8125   19.3147 C   0  0  0  0  0  0  0  0  0  0  0  0
  -26.1832  -28.8728   20.5574 C   0  0  0  0  0  0  0  0  0  0  0  0
  -23.6878  -12.8604   20.4441 C   0  0  0  0  0  0  0  0  0  0  0  0
  -27.2101  -28.3669   18.4127 C   0  0  0  0  0  0  0  0  0  0  0  0
  -23.1337  -10.5918   20.7057 C   0  0  0  0  0  0  0  0  0  0  0  0
  -23.8614   -8.0285   21.5318 C   0  0  0  0  0  0  0  0  0  0  0  0
  -24.2298   -9.9560   20.1226 C   0  0  0  0  0  0  0  0  0  0  0  0
  -26.5348  -15.9565   20.8984 C   0  0  0  0  0  0  0  0  0  0  0  0
  -28.3803  -17.1521   20.9054 C   0  0  0  0  0  0  0  0  0  0  0  0
  -29.5095  -23.5993   19.2704 C   0  0  0  0  0  0  0  0  0  0  0  0
  -30.1014  -25.2734   18.0229 C   0  0  0  0  0  0  0  0  0  0  0  0
  -28.6754  -14.8330   20.0204 C   0  0  0  0  0  0  0  0  0  0  0  0
  -23.5099  -30.7000   21.6267 C   0  0  0  0  0  0  0  0  0  0  0  0
  -27.8005  -22.7152   20.8291 C   0  0  0  0  0  0  0  0  0  0  0  0
  -25.1518  -29.5510   24.1774 C   0  0  0  0  0  0  0  0  0  0  0  0
  -27.8385  -27.7991   25.3433 C   0  0  0  0  0  0  0  0  0  0  0  0
  -18.8206  -32.4896   20.6967 C   0  0  0  0  0  0  0  0  0  0  0  0
  -23.7739  -28.2716   21.0029 C   0  0  0  0  0  0  0  0  0  0  0  0
  -26.3196  -29.4462   21.9434 C   0  0  0  0  0  0  0  0  0  0  0  0
  -19.7308  -32.3954   21.9186 C   0  0  0  0  0  0  0  0  0  0  0  0
  -26.2474  -20.9164   23.5109 C   0  0  0  0  0  0  0  0  0  0  0  0
  -21.1264  -32.9134   21.5858 C   0  0  0  0  0  0  0  0  0  0  0  0
  -26.2689  -19.4660   23.0302 C   0  0  0  0  0  0  0  0  0  0  0  0
  -26.0377  -21.8857   22.3518 C   0  0  0  0  0  0  0  0  0  0  0  0
  -27.0541  -20.2842   20.7632 C   0  0  0  0  0  0  0  0  0  0  0  0
  -21.7785  -32.0720   20.4820 C   0  0  1  0  0  0  0  0  0  0  0  0
  -23.8147  -29.3128   22.1171 C   0  0  1  0  0  0  0  0  0  0  0  0
  -27.2944  -19.2738   21.8989 C   0  0  2  0  0  0  0  0  0  0  0  0
  -28.9334  -27.0609   27.4772 C   0  0  0  0  0  0  0  0  0  0  0  0
  -28.3382  -23.9182   14.6226 C   0  0  0  0  0  0  0  0  0  0  0  0
  -30.2723  -22.9463   15.8659 C   0  0  0  0  0  0  0  0  0  0  0  0
  -28.1016  -21.7009   15.7444 C   0  0  0  0  0  0  0  0  0  0  0  0
  -26.2217  -32.3766   24.6030 C   0  0  0  0  0  0  0  0  0  0  0  0
  -27.9870  -31.4090   26.0915 C   0  0  0  0  0  0  0  0  0  0  0  0
  -25.5794  -31.1773   26.7014 C   0  0  0  0  0  0  0  0  0  0  0  0
  -27.5185  -24.9388   24.6540 C   0  0  0  0  0  0  0  0  0  0  0  0
  -28.7894  -22.4004   19.7349 C   0  0  0  0  0  0  0  0  0  0  0  0
  -30.1384  -26.2388   16.8652 C   0  0  0  0  0  0  0  0  0  0  0  0
  -30.5564  -27.6571   17.2590 C   0  0  0  0  0  0  0  0  0  0  0  0
  -28.2361  -23.8527   17.1195 C   0  0  0  0  0  0  0  0  0  0  0  0
  -29.5799  -28.3306   18.2163 C   0  0  0  0  0  0  0  0  0  1  0  0
  -26.5086  -29.8171   24.7835 C   0  0  1  0  0  0  0  0  0  0  0  0
  -27.9483  -26.6940   26.3782 C   0  0  2  0  0  0  0  0  0  0  0  0
  -28.7416  -23.0941   15.8619 C   0  0  0  0  0  0  0  0  0  0  0  0
  -26.5714  -31.1860   25.5180 C   0  0  0  0  0  0  0  0  0  0  0  0
  -26.1657  -17.1387   21.3988 N   0  0  0  0  0  0  0  0  0  0  0  0
  -30.4850  -24.2264   19.8882 N   0  0  0  0  0  0  0  0  0  0  0  0
  -30.8615  -25.2915   19.0945 N   0  0  0  0  0  0  0  0  0  0  0  0
  -27.3097  -17.8439   21.3907 N   0  0  0  0  0  0  0  0  0  0  0  0
  -29.2355  -24.2245   18.0919 N   0  0  0  0  0  0  0  0  0  0  0  0
  -25.1153  -29.3729   22.7872 N   0  0  0  0  0  0  0  0  0  0  0  0
  -27.0172  -21.6562   21.2883 N   0  0  0  0  0  0  0  0  0  0  0  0
  -29.6065  -17.7113   20.8268 N   0  0  0  0  0  0  0  0  0  0  0  0
  -28.0285  -13.6221   19.7383 N   0  0  0  0  0  0  0  0  0  0  0  0
  -22.2731  -30.8243   21.0231 N   0  0  0  0  0  0  0  0  0  0  0  0
  -26.8087  -28.6692   25.6324 N   0  0  0  0  0  0  0  0  0  0  0  0
  -28.4077  -25.4289   25.7385 N   0  3  0  0  0  0  0  0  0  0  0  0
  -29.9056  -14.9381   19.7988 O   0  0  0  0  0  0  0  0  0  0  0  0
  -24.3352  -31.5918   21.7854 O   0  0  0  0  0  0  0  0  0  0  0  0
  -27.7300  -23.8678   21.2634 O   0  0  0  0  0  0  0  0  0  0  0  0
  -24.1619  -29.4958   24.9114 O   0  0  0  0  0  0  0  0  0  0  0  0
  -28.5934  -27.8842   24.3771 O   0  0  0  0  0  0  0  0  0  0  0  0
  -22.7718  -11.8645   20.2973 O   0  0  0  0  0  0  0  0  0  0  0  0
  -28.2970  -28.3914   17.5943 O   0  0  0  0  0  0  0  0  0  1  0  0
  -24.2116   -6.7983   21.9296 F   0  0  0  0  0  0  0  0  0  0  0  0
  -24.9378  -10.5719   19.1659 F   0  0  0  0  0  0  0  0  0  0  0  0
  1  2  1  0  0  0  0
  1  5  2  0  0  0  0
  2  6  2  0  0  0  0
  3  8  2  0  0  0  0
  3 15  1  0  0  0  0
  4  9  1  0  0  0  0
  4 15  2  0  0  0  0
  5 17  1  0  0  0  0
  6 19  1  0  0  0  0
  7 10  2  0  0  0  0
  7 18  1  0  0  0  0
  8 21  1  0  0  0  0
  9 21  2  0  0  0  0
 10 22  1  0  0  0  0
 11 12  2  0  0  0  0
 11 23  1  0  0  0  0
 12 24  1  0  0  0  0
 13 20  1  0  0  0  0
 13 22  2  0  0  0  0
 14 24  2  0  0  0  0
 14 25  1  0  0  0  0
 15 26  1  0  0  0  0
 16 26  1  0  0  0  0
 16 27  2  0  0  0  0
 16 30  1  0  0  0  0
 17 19  2  0  0  0  0
 17 35  1  0  0  0  0
 18 20  2  0  0  0  0
 18 36  1  0  0  0  0
 19 44  1  0  0  0  0
 20 37  1  0  0  0  0
 21 81  1  0  0  0  0
 22 82  1  0  0  0  0
 23 25  2  0  0  0  0
 23 81  1  0  0  0  0
 24 83  1  0  0  0  0
 25 84  1  0  0  0  0
 26 64  2  0  0  0  0
 27 67  1  0  0  0  0
 27 71  1  0  0  0  0
 28 55  1  0  0  0  0
 28 65  2  0  0  0  0
 28 68  1  0  0  0  0
 29 56  1  0  0  0  0
 29 66  2  0  0  0  0
 29 68  1  0  0  0  0
 30 72  1  0  0  0  0
 30 76  2  0  0  0  0
 31 45  1  0  0  0  0
 31 73  1  0  0  0  0
 31 77  2  0  0  0  0
 32 55  1  0  0  0  0
 32 70  1  0  0  0  0
 32 78  2  0  0  0  0
 33 60  1  0  0  0  0
 33 69  1  0  0  0  0
 33 79  2  0  0  0  0
 34 61  1  0  0  0  0
 34 74  1  0  0  0  0
 34 80  2  0  0  0  0
 35 38  1  0  0  0  0
 36 45  1  0  0  0  0
 37 69  1  0  0  0  0
 38 40  1  0  0  0  0
 39 41  1  0  0  0  0
 39 42  1  0  0  0  0
 40 44  1  0  0  0  0
 41 46  1  0  0  0  0
 42 70  1  0  0  0  0
 43 46  1  0  0  0  0
 43 70  1  0  0  0  0
 44 73  1  0  0  0  0
 45 69  1  0  0  0  0
 46 67  1  0  0  0  0
 47 61  1  0  0  0  0
 48 62  1  0  0  0  0
 49 62  1  0  0  0  0
 50 62  1  0  0  0  0
 51 63  1  0  0  0  0
 52 63  1  0  0  0  0
 53 63  1  0  0  0  0
 54 75  1  0  0  0  0
 56 57  1  0  0  0  0
 57 59  1  0  0  0  0
 58 62  1  0  0  0  0
 58 68  1  0  0  0  0
 59 82  1  0  0  0  0
 60 63  1  0  0  0  0
 60 74  1  0  0  0  0
 61 75  1  0  0  0  0
 64 67  1  0  0  0  0
 65 66  1  0  0  0  0
M  CHG  1  75   1
M  ISO  4  32 100  55 100  59 101  82 101
M  END
> <Batch ID>
0071

> <Smiles>
CNC(C)C(=O)NC(C(=O)N1Cc2cc([101O:1][101CH2:1]CCc3nnc([100CH2:0][100C:0](=O)N4CCCC(n5nc(-c6ccc(Oc7ccc(F)cc7F)cc6)c(C(N)=O)c5N)C4)n3CC(C)(C)C)ccc2CC1C(=O)NC1CCCc2ccccc21)C(C)(C)C

> <Shape>
0.251

> <Color>
0.078

> <Negative vol penalty>
0.000

$$$$

  -OEChem-04052318223D

 86 94  0     1  0  0  0  0  0999 V2000
  -16.9724  -27.6245   23.2493 C   0  0  0  0  0  0  0  0  0  0  0  0
  -17.8924  -26.9044   22.4941 C   0  0  0  0  0  0  0  0  0  0  0  0
  -26.6284  -12.8154   20.6847 C   0  0  0  0  0  0  0  0  0  0  0  0
  -25.0700  -14.5077   19.9465 C   0  0  0  0  0  0  0  0  0  0  0  0
  -17.2016  -28.9717   23.5260 C   0  0  0  0  0  0  0  0  0  0  0  0
  -19.0418  -27.5313   22.0142 C   0  0  0  0  0  0  0  0  0  0  0  0
  -24.5902  -25.0290   21.3366 C   0  0  0  0  0  0  0  0  0  0  0  0
  -25.6986  -11.8234   20.3735 C   0  0  0  0  0  0  0  0  0  0  0  0
  -24.1402  -13.5156   19.6352 C   0  0  0  0  0  0  0  0  0  0  0  0
  -25.2510  -24.4982   20.2296 C   0  0  0  0  0  0  0  0  0  0  0  0
  -23.5980   -8.8668   20.1089 C   0  0  0  0  0  0  0  0  0  0  0  0
  -23.4024   -7.8448   21.0377 C   0  0  0  0  0  0  0  0  0  0  0  0
  -26.3623  -26.6118   19.8871 C   0  0  0  0  0  0  0  0  0  0  0  0
  -22.7166   -9.4735   22.6852 C   0  0  0  0  0  0  0  0  0  0  0  0
  -29.7265  -23.1262   19.4800 C   0  0  0  0  0  0  0  0  0  0  0  0
  -26.3141  -14.1576   20.4713 C   0  0  0  0  0  0  0  0  0  0  0  0
  -28.2599  -15.7210   19.9445 C   0  0  0  0  0  0  0  0  0  0  0  0
  -18.3591  -29.6130   23.0574 C   0  0  0  0  0  0  0  0  0  0  0  0
  -24.8026  -26.3606   21.7213 C   0  0  0  0  0  0  0  0  0  0  0  0
  -19.2861  -28.8887   22.2837 C   0  0  0  0  0  0  0  0  0  0  0  0
  -25.7049  -27.1563   21.0009 C   0  0  0  0  0  0  0  0  0  0  0  0
  -24.4545  -12.1734   19.8487 C   0  0  0  0  0  0  0  0  0  0  0  0
  -26.1350  -25.2905   19.5029 C   0  0  0  0  0  0  0  0  0  0  0  0
  -23.3531  -10.1922   20.4682 C   0  0  0  0  0  0  0  0  0  0  0  0
  -22.9616   -8.1481   22.3259 C   0  0  0  0  0  0  0  0  0  0  0  0
  -22.9123  -10.4955   21.7563 C   0  0  0  0  0  0  0  0  0  0  0  0
  -27.2739  -15.1829   20.7931 C   0  0  0  0  0  0  0  0  0  0  0  0
  -29.8645  -21.9530   20.1934 C   0  0  0  0  0  0  0  0  0  0  0  0
  -29.1326  -23.0048   18.2403 C   0  0  0  0  0  0  0  0  0  0  0  0
  -28.9061  -16.6544   20.7175 C   0  0  0  0  0  0  0  0  0  0  0  0
  -28.8934  -20.7615   18.5187 C   0  0  0  0  0  0  0  0  0  0  0  0
  -28.5644  -15.4052   18.5795 C   0  0  0  0  0  0  0  0  0  0  0  0
  -22.9672  -28.9440   21.9690 C   0  0  0  0  0  0  0  0  0  0  0  0
  -25.6458  -30.2461   23.2543 C   0  0  0  0  0  0  0  0  0  0  0  0
  -29.0468  -30.1933   23.5320 C   0  0  0  0  0  0  0  0  0  0  0  0
  -27.2986  -20.4603   24.9619 C   0  0  0  0  0  0  0  0  0  0  0  0
  -18.5403  -31.0829   23.3420 C   0  0  0  0  0  0  0  0  0  0  0  0
  -24.1024  -26.9102   22.9338 C   0  0  0  0  0  0  0  0  0  0  0  0
  -25.9833  -28.5858   21.3848 C   0  0  0  0  0  0  0  0  0  0  0  0
  -19.9667  -31.5763   23.1131 C   0  0  0  0  0  0  0  0  0  0  0  0
  -29.3836  -17.4615   25.5633 C   0  0  0  0  0  0  0  0  0  0  0  0
  -20.5032  -31.0595   21.7820 C   0  0  0  0  0  0  0  0  0  0  0  0
  -29.0792  -16.5940   24.3431 C   0  0  0  0  0  0  0  0  0  0  0  0
  -28.2141  -18.3758   25.9151 C   0  0  0  0  0  0  0  0  0  0  0  0
  -27.4485  -18.3587   23.5640 C   0  0  0  0  0  0  0  0  0  0  0  0
  -20.5569  -29.5271   21.7664 C   0  0  1  0  0  0  0  0  0  0  0  0
  -24.0043  -28.4326   22.9284 C   0  0  1  0  0  0  0  0  0  0  0  0
  -28.6242  -17.4590   23.1548 C   0  0  2  0  0  0  0  0  0  0  0  0
  -28.4272  -19.4490   17.9857 C   0  0  0  0  0  0  0  0  0  0  0  0
  -30.9532  -31.4062   24.6237 C   0  0  0  0  0  0  0  0  0  0  0  0
  -28.2550  -23.9673   16.0082 C   0  0  0  0  0  0  0  0  0  0  0  0
  -30.3120  -24.8846   17.0594 C   0  0  0  0  0  0  0  0  0  0  0  0
  -25.3834  -32.4947   21.2085 C   0  0  0  0  0  0  0  0  0  0  0  0
  -27.7563  -33.1242   21.6997 C   0  0  0  0  0  0  0  0  0  0  0  0
  -26.0373  -33.2433   23.5034 C   0  0  0  0  0  0  0  0  0  0  0  0
  -27.0365  -22.7539   24.0959 C   0  0  0  0  0  0  0  0  0  0  0  0
  -29.8707  -27.7823   25.0379 C   0  0  0  0  0  0  0  0  0  0  0  0
  -30.4948  -21.9843   21.5453 C   0  0  0  0  0  0  0  0  0  0  0  0
  -29.5044  -22.2047   22.7055 C   0  0  0  0  0  0  0  0  0  0  0  0
  -28.3937  -21.1600   22.7908 C   0  0  0  0  0  0  0  0  0  0  0  0
  -28.0714  -25.3052   18.1223 C   0  0  0  0  0  0  0  0  0  1  0  0
  -26.8444  -30.9833   22.7076 C   0  0  1  0  0  0  0  0  0  0  0  0
  -29.9597  -30.2610   24.7430 C   0  0  2  0  0  0  0  0  0  0  0  0
  -28.9325  -24.2589   17.3688 C   0  0  0  0  0  0  0  0  0  0  0  0
  -26.4988  -32.4351   22.2712 C   0  0  0  0  0  0  0  0  0  0  0  0
  -27.2888  -15.7290   22.0120 N   0  0  0  0  0  0  0  0  0  0  0  0
  -29.4576  -20.7486   19.7414 N   0  0  0  0  0  0  0  0  0  0  0  0
  -28.7027  -21.8336   17.7265 N   0  0  0  0  0  0  0  0  0  0  0  0
  -28.2920  -16.6199   21.9349 N   0  0  0  0  0  0  0  0  0  0  0  0
  -25.2695  -29.0792   22.5742 N   0  0  0  0  0  0  0  0  0  0  0  0
  -27.7740  -19.1546   24.7571 N   0  0  0  0  0  0  0  0  0  0  0  0
  -29.9340  -17.4932   20.4679 N   0  0  0  0  0  0  0  0  0  0  0  0
  -27.8021  -14.4212   17.9353 N   0  0  0  0  0  0  0  0  0  0  0  0
  -21.7022  -29.0539   22.5140 N   0  0  0  0  0  0  0  0  0  0  0  0
  -27.8787  -30.8978   23.7330 N   0  0  0  0  0  0  0  0  0  0  0  0
  -27.5013  -21.3846   23.9260 N   0  0  0  0  0  0  0  0  0  0  0  0
  -30.7234  -28.9895   24.8877 N   0  3  0  0  0  0  0  0  0  0  0  0
  -29.4958  -15.9671   17.9548 O   0  0  0  0  0  0  0  0  0  0  0  0
  -23.2911  -29.2199   20.8198 O   0  0  0  0  0  0  0  0  0  0  0  0
  -25.0691  -30.6854   24.2523 O   0  0  0  0  0  0  0  0  0  0  0  0
  -29.3421  -29.5800   22.5087 O   0  0  0  0  0  0  0  0  0  0  0  0
  -26.7342  -20.7840   26.0148 O   0  0  0  0  0  0  0  0  0  0  0  0
  -23.5471  -11.2056   19.5446 O   0  0  0  0  0  0  0  0  0  0  0  0
  -26.7807  -24.7751   18.4216 O   0  0  0  0  0  0  0  0  0  1  0  0
  -22.7723   -7.1664   23.2173 F   0  0  0  0  0  0  0  0  0  0  0  0
  -22.6742  -11.7668   22.1070 F   0  0  0  0  0  0  0  0  0  0  0  0
  1  2  1  0  0  0  0
  1  5  2  0  0  0  0
  2  6  2  0  0  0  0
  3  8  2  0  0  0  0
  3 16  1  0  0  0  0
  4  9  1  0  0  0  0
  4 16  2  0  0  0  0
  5 18  1  0  0  0  0
  6 20  1  0  0  0  0
  7 10  2  0  0  0  0
  7 19  1  0  0  0  0
  8 22  1  0  0  0  0
  9 22  2  0  0  0  0
 10 23  1  0  0  0  0
 11 12  2  0  0  0  0
 11 24  1  0  0  0  0
 12 25  1  0  0  0  0
 13 21  1  0  0  0  0
 13 23  2  0  0  0  0
 14 25  2  0  0  0  0
 14 26  1  0  0  0  0
 15 28  2  0  0  0  0
 15 29  1  0  0  0  0
 16 27  1  0  0  0  0
 17 27  1  0  0  0  0
 17 30  2  0  0  0  0
 17 32  1  0  0  0  0
 18 20  2  0  0  0  0
 18 37  1  0  0  0  0
 19 21  2  0  0  0  0
 19 38  1  0  0  0  0
 20 46  1  0  0  0  0
 21 39  1  0  0  0  0
 22 83  1  0  0  0  0
 23 84  1  0  0  0  0
 24 26  2  0  0  0  0
 24 83  1  0  0  0  0
 25 85  1  0  0  0  0
 26 86  1  0  0  0  0
 27 66  2  0  0  0  0
 28 58  1  0  0  0  0
 28 67  1  0  0  0  0
 29 64  1  0  0  0  0
 29 68  2  0  0  0  0
 30 69  1  0  0  0  0
 30 72  1  0  0  0  0
 31 49  1  0  0  0  0
 31 67  2  0  0  0  0
 31 68  1  0  0  0  0
 32 73  1  0  0  0  0
 32 78  2  0  0  0  0
 33 47  1  0  0  0  0
 33 74  1  0  0  0  0
 33 79  2  0  0  0  0
 34 62  1  0  0  0  0
 34 70  1  0  0  0  0
 34 80  2  0  0  0  0
 35 63  1  0  0  0  0
 35 75  1  0  0  0  0
 35 81  2  0  0  0  0
 36 71  1  0  0  0  0
 36 76  1  0  0  0  0
 36 82  2  0  0  0  0
 37 40  1  0  0  0  0
 38 47  1  0  0  0  0
 39 70  1  0  0  0  0
 40 42  1  0  0  0  0
 41 43  1  0  0  0  0
 41 44  1  0  0  0  0
 42 46  1  0  0  0  0
 43 48  1  0  0  0  0
 44 71  1  0  0  0  0
 45 48  1  0  0  0  0
 45 71  1  0  0  0  0
 46 74  1  0  0  0  0
 47 70  1  0  0  0  0
 48 69  1  0  0  0  0
 50 63  1  0  0  0  0
 51 64  1  0  0  0  0
 52 64  1  0  0  0  0
 53 65  1  0  0  0  0
 54 65  1  0  0  0  0
 55 65  1  0  0  0  0
 56 76  1  0  0  0  0
 57 77  1  0  0  0  0
 58 59  1  0  0  0  0
 59 60  1  0  0  0  0
 60 76  1  0  0  0  0
 61 64  1  0  0  0  0
 61 84  1  0  0  0  0
 62 65  1  0  0  0  0
 62 75  1  0  0  0  0
 63 77  1  0  0  0  0
 66 69  1  0  0  0  0
M  CHG  1  77   1
M  ISO  4  36 100  61 101  76 100  84 101
M  END
> <Batch ID>
0071

> <Smiles>
CNC(C)C(=O)NC(C(=O)N1Cc2cc([101O:1][101CH2:1]C(C)(C)c3cc(CCC[100N:0](C)[100C:0](=O)N4CCCC(n5nc(-c6ccc(Oc7ccc(F)cc7F)cc6)c(C(N)=O)c5N)C4)nc(C)n3)ccc2CC1C(=O)NC1CCCc2ccccc21)C(C)(C)C

> <Shape>
0.275

> <Color>
0.082

> <Negative vol penalty>
0.000

$$$$

  -OEChem-04052318223D

 84 92  0     1  0  0  0  0  0999 V2000
  -19.8507  -15.0023   16.5816 C   0  0  0  0  0  0  0  0  0  0  0  0
  -20.7231  -16.0490   16.8624 C   0  0  0  0  0  0  0  0  0  0  0  0
  -25.1859  -29.2491   22.1050 C   0  0  0  0  0  0  0  0  0  0  0  0
  -23.4738  -30.0613   20.6063 C   0  0  0  0  0  0  0  0  0  0  0  0
  -20.0151  -13.7707   17.2142 C   0  0  0  0  0  0  0  0  0  0  0  0
  -21.7597  -15.8651   17.7767 C   0  0  0  0  0  0  0  0  0  0  0  0
  -27.3515  -18.3524   17.5523 C   0  0  0  0  0  0  0  0  0  0  0  0
  -24.9424  -30.3208   22.9639 C   0  0  0  0  0  0  0  0  0  0  0  0
  -23.2303  -31.1330   21.4653 C   0  0  0  0  0  0  0  0  0  0  0  0
  -27.9117  -19.4598   18.1877 C   0  0  0  0  0  0  0  0  0  0  0  0
  -25.7234  -33.6050   23.1317 C   0  0  0  0  0  0  0  0  0  0  0  0
  -26.8267  -34.2852   23.6471 C   0  0  0  0  0  0  0  0  0  0  0  0
  -28.8214  -18.0145   19.8914 C   0  0  0  0  0  0  0  0  0  0  0  0
  -26.1257  -33.7231   25.8898 C   0  0  0  0  0  0  0  0  0  0  0  0
  -27.4557  -23.4316   20.9813 C   0  0  0  0  0  0  0  0  0  0  0  0
  -24.4516  -29.1194   20.9261 C   0  0  0  0  0  0  0  0  0  0  0  0
  -25.9133  -27.7010   19.3901 C   0  0  0  0  0  0  0  0  0  0  0  0
  -21.0600  -13.5686   18.1295 C   0  0  0  0  0  0  0  0  0  0  0  0
  -27.5131  -17.0669   18.0886 C   0  0  0  0  0  0  0  0  0  0  0  0
  -21.9373  -14.6300   18.4232 C   0  0  0  0  0  0  0  0  0  0  0  0
  -28.2644  -16.8922   19.2596 C   0  0  0  0  0  0  0  0  0  0  0  0
  -27.7563  -22.2600   21.7015 C   0  0  0  0  0  0  0  0  0  0  0  0
  -23.9646  -31.2627   22.6441 C   0  0  0  0  0  0  0  0  0  0  0  0
  -28.6443  -19.2913   19.3590 C   0  0  0  0  0  0  0  0  0  0  0  0
  -24.8211  -32.9840   23.9954 C   0  0  0  0  0  0  0  0  0  0  0  0
  -27.0279  -34.3442   25.0261 C   0  0  0  0  0  0  0  0  0  0  0  0
  -25.0223  -33.0430   25.3744 C   0  0  0  0  0  0  0  0  0  0  0  0
  -24.7031  -28.0129   20.0381 C   0  0  0  0  0  0  0  0  0  0  0  0
  -26.5305  -21.7352   22.0307 C   0  0  0  0  0  0  0  0  0  0  0  0
  -25.6335  -26.5668   18.6677 C   0  0  0  0  0  0  0  0  0  0  0  0
  -27.1773  -28.3760   19.4370 C   0  0  0  0  0  0  0  0  0  0  0  0
  -25.5414  -14.8400   19.2099 C   0  0  0  0  0  0  0  0  0  0  0  0
  -28.2548  -13.0689   19.3628 C   0  0  0  0  0  0  0  0  0  0  0  0
  -31.6597  -12.9979   19.5815 C   0  0  0  0  0  0  0  0  0  0  0  0
  -21.1717  -22.4701   19.5884 C   0  0  0  0  0  0  0  0  0  0  0  0
  -21.1690  -12.2342   18.8238 C   0  0  0  0  0  0  0  0  0  0  0  0
  -26.9250  -15.8796   17.3766 C   0  0  0  0  0  0  0  0  0  0  0  0
  -28.4843  -15.5307   19.8649 C   0  0  0  0  0  0  0  0  0  0  0  0
  -22.5192  -12.0072   19.4988 C   0  0  0  0  0  0  0  0  0  0  0  0
  -22.0406  -24.2934   16.4864 C   0  0  0  0  0  0  0  0  0  0  0  0
  -22.9287  -13.2383   20.3009 C   0  0  0  0  0  0  0  0  0  0  0  0
  -22.8662  -25.4674   17.0102 C   0  0  0  0  0  0  0  0  0  0  0  0
  -21.0279  -23.8069   17.5186 C   0  0  0  0  0  0  0  0  0  0  0  0
  -22.4540  -24.6372   19.3600 C   0  0  0  0  0  0  0  0  0  0  0  0
  -23.0888  -14.4618   19.3905 C   0  0  1  0  0  0  0  0  0  0  0  0
  -26.7191  -14.6761   18.2913 C   0  0  1  0  0  0  0  0  0  0  0  0
  -23.5159  -25.1215   18.3613 C   0  0  2  0  0  0  0  0  0  0  0  0
  -26.1613  -20.5203   22.7817 C   0  0  0  0  0  0  0  0  0  0  0  0
  -33.9709  -12.0207   19.6167 C   0  0  0  0  0  0  0  0  0  0  0  0
  -29.4137  -21.5701   23.5606 C   0  0  0  0  0  0  0  0  0  0  0  0
  -30.2297  -22.6484   21.4751 C   0  0  0  0  0  0  0  0  0  0  0  0
  -27.5915  -12.5341   22.2927 C   0  0  0  0  0  0  0  0  0  0  0  0
  -29.9553  -11.7753   22.6170 C   0  0  0  0  0  0  0  0  0  0  0  0
  -28.4593  -10.5507   21.0406 C   0  0  0  0  0  0  0  0  0  0  0  0
  -21.6289  -20.6890   21.2309 C   0  0  0  0  0  0  0  0  0  0  0  0
  -31.9104  -13.1879   16.6387 C   0  0  0  0  0  0  0  0  0  0  0  0
  -24.1688  -22.4715   21.5886 C   0  0  0  0  0  0  0  0  0  0  0  0
  -23.5408  -21.9411   20.3023 C   0  0  0  0  0  0  0  0  0  0  0  0
  -29.3355  -20.2986   21.3995 C   0  0  0  0  0  0  0  0  0  1  0  0
  -29.3243  -12.8392   20.4031 C   0  0  1  0  0  0  0  0  0  0  0  0
  -32.7033  -12.2198   18.8004 C   0  0  2  0  0  0  0  0  0  0  0  0
  -29.1496  -21.6979   22.0410 C   0  0  0  0  0  0  0  0  0  0  0  0
  -28.8270  -11.9508   21.5783 C   0  0  0  0  0  0  0  0  0  0  0  0
  -26.1418  -23.6392   20.8595 N   0  0  0  0  0  0  0  0  0  0  0  0
  -23.7271  -27.1469   19.7525 N   0  0  0  0  0  0  0  0  0  0  0  0
  -25.6061  -22.5908   21.5076 N   0  0  0  0  0  0  0  0  0  0  0  0
  -24.3237  -26.2797   18.9169 N   0  0  0  0  0  0  0  0  0  0  0  0
  -27.8839  -14.4017   19.1352 N   0  0  0  0  0  0  0  0  0  0  0  0
  -21.6653  -23.5268   18.8056 N   0  0  0  0  0  0  0  0  0  0  0  0
  -26.3826  -25.7971   17.8499 N   0  0  0  0  0  0  0  0  0  0  0  0
  -27.4310  -29.3853   18.4982 N   0  0  0  0  0  0  0  0  0  0  0  0
  -24.3457  -14.3989   18.6758 N   0  0  0  0  0  0  0  0  0  0  0  0
  -30.4768  -12.2979   19.6910 N   0  0  0  0  0  0  0  0  0  0  0  0
  -22.0904  -21.7989   20.4093 N   0  0  0  0  0  0  0  0  0  0  0  0
  -33.0598  -12.9446   17.5480 N   0  3  0  0  0  0  0  0  0  0  0  0
  -28.0621  -28.0814   20.2759 O   0  0  0  0  0  0  0  0  0  0  0  0
  -25.7057  -15.3289   20.3215 O   0  0  0  0  0  0  0  0  0  0  0  0
  -27.7713  -12.1019   18.7688 O   0  0  0  0  0  0  0  0  0  0  0  0
  -31.8739  -14.1133   20.0510 O   0  0  0  0  0  0  0  0  0  0  0  0
  -19.9797  -22.1391   19.5481 O   0  0  0  0  0  0  0  0  0  0  0  0
  -23.7266  -32.3084   23.4822 O   0  0  0  0  0  0  0  0  0  0  0  0
  -29.1916  -20.3705   19.9815 O   0  0  0  0  0  0  0  0  0  1  0  0
  -28.0883  -34.9960   25.5208 F   0  0  0  0  0  0  0  0  0  0  0  0
  -24.1595  -32.4472   26.2091 F   0  0  0  0  0  0  0  0  0  0  0  0
  1  2  1  0  0  0  0
  1  5  2  0  0  0  0
  2  6  2  0  0  0  0
  3  8  2  0  0  0  0
  3 16  1  0  0  0  0
  4  9  1  0  0  0  0
  4 16  2  0  0  0  0
  5 18  1  0  0  0  0
  6 20  1  0  0  0  0
  7 10  2  0  0  0  0
  7 19  1  0  0  0  0
  8 23  1  0  0  0  0
  9 23  2  0  0  0  0
 10 24  1  0  0  0  0
 11 12  2  0  0  0  0
 11 25  1  0  0  0  0
 12 26  1  0  0  0  0
 13 21  1  0  0  0  0
 13 24  2  0  0  0  0
 14 26  2  0  0  0  0
 14 27  1  0  0  0  0
 15 22  1  0  0  0  0
 15 64  2  0  0  0  0
 16 28  1  0  0  0  0
 17 28  1  0  0  0  0
 17 30  2  0  0  0  0
 17 31  1  0  0  0  0
 18 20  2  0  0  0  0
 18 36  1  0  0  0  0
 19 21  2  0  0  0  0
 19 37  1  0  0  0  0
 20 45  1  0  0  0  0
 21 38  1  0  0  0  0
 22 29  2  0  0  0  0
 22 62  1  0  0  0  0
 23 81  1  0  0  0  0
 24 82  1  0  0  0  0
 25 27  2  0  0  0  0
 25 81  1  0  0  0  0
 26 83  1  0  0  0  0
 27 84  1  0  0  0  0
 28 65  2  0  0  0  0
 29 48  1  0  0  0  0
 29 66  1  0  0  0  0
 30 67  1  0  0  0  0
 30 70  1  0  0  0  0
 31 71  1  0  0  0  0
 31 76  2  0  0  0  0
 32 46  1  0  0  0  0
 32 72  1  0  0  0  0
 32 77  2  0  0  0  0
 33 60  1  0  0  0  0
 33 68  1  0  0  0  0
 33 78  2  0  0  0  0
 34 61  1  0  0  0  0
 34 73  1  0  0  0  0
 34 79  2  0  0  0  0
 35 69  1  0  0  0  0
 35 74  1  0  0  0  0
 35 80  2  0  0  0  0
 36 39  1  0  0  0  0
 37 46  1  0  0  0  0
 38 68  1  0  0  0  0
 39 41  1  0  0  0  0
 40 42  1  0  0  0  0
 40 43  1  0  0  0  0
 41 45  1  0  0  0  0
 42 47  1  0  0  0  0
 43 69  1  0  0  0  0
 44 47  1  0  0  0  0
 44 69  1  0  0  0  0
 45 72  1  0  0  0  0
 46 68  1  0  0  0  0
 47 67  1  0  0  0  0
 49 61  1  0  0  0  0
 50 62  1  0  0  0  0
 51 62  1  0  0  0  0
 52 63  1  0  0  0  0
 53 63  1  0  0  0  0
 54 63  1  0  0  0  0
 55 74  1  0  0  0  0
 56 75  1  0  0  0  0
 57 58  1  0  0  0  0
 57 66  1  0  0  0  0
 58 74  1  0  0  0  0
 59 62  1  0  0  0  0
 59 82  1  0  0  0  0
 60 63  1  0  0  0  0
 60 73  1  0  0  0  0
 61 75  1  0  0  0  0
 64 66  1  0  0  0  0
 65 67  1  0  0  0  0
M  CHG  1  75   1
M  ISO  4  35 100  59 101  74 100  82 101
M  END
> <Batch ID>
0071

> <Smiles>
CNC(C)C(=O)NC(C(=O)N1Cc2cc([101O:1][101CH2:1]C(C)(C)c3cnn(CC[100N:0](C)[100C:0](=O)N4CCCC(n5nc(-c6ccc(Oc7ccc(F)cc7F)cc6)c(C(N)=O)c5N)C4)c3C)ccc2CC1C(=O)NC1CCCc2ccccc21)C(C)(C)C

> <Shape>
0.223

> <Color>
0.079

> <Negative vol penalty>
0.000

$$$$

  -OEChem-04052318223D

 86 94  0     1  0  0  0  0  0999 V2000
  -31.7177  -32.5708   24.9173 C   0  0  0  0  0  0  0  0  0  0  0  0
  -31.4969  -31.8227   23.7653 C   0  0  0  0  0  0  0  0  0  0  0  0
  -22.8537  -17.9395   22.6120 C   0  0  0  0  0  0  0  0  0  0  0  0
  -24.7713  -16.8932   23.6440 C   0  0  0  0  0  0  0  0  0  0  0  0
  -30.8484  -32.4530   26.0009 C   0  0  0  0  0  0  0  0  0  0  0  0
  -30.4071  -30.9555   23.6968 C   0  0  0  0  0  0  0  0  0  0  0  0
  -27.0438  -29.6535   18.7472 C   0  0  0  0  0  0  0  0  0  0  0  0
  -22.5430  -16.7394   21.9726 C   0  0  0  0  0  0  0  0  0  0  0  0
  -24.4606  -15.6931   23.0047 C   0  0  0  0  0  0  0  0  0  0  0  0
  -27.0698  -28.5871   17.8495 C   0  0  0  0  0  0  0  0  0  0  0  0
  -24.3795  -12.4519   21.3622 C   0  0  0  0  0  0  0  0  0  0  0  0
  -25.4228  -11.7495   20.7591 C   0  0  0  0  0  0  0  0  0  0  0  0
  -25.3189  -27.4982   19.1015 C   0  0  0  0  0  0  0  0  0  0  0  0
  -25.8652  -13.6406   19.3220 C   0  0  0  0  0  0  0  0  0  0  0  0
  -28.8797  -25.2708   19.1316 C   0  0  0  0  0  0  0  0  0  0  0  0
  -23.9679  -18.0165   23.4476 C   0  0  0  0  0  0  0  0  0  0  0  0
  -23.8444  -19.6864   25.3722 C   0  0  0  0  0  0  0  0  0  0  0  0
  -29.7419  -31.5911   25.9421 C   0  0  0  0  0  0  0  0  0  0  0  0
  -26.1612  -29.6451   19.8369 C   0  0  0  0  0  0  0  0  0  0  0  0
  -29.5229  -30.8250   24.7812 C   0  0  0  0  0  0  0  0  0  0  0  0
  -25.2818  -28.5668   20.0102 C   0  0  0  0  0  0  0  0  0  0  0  0
  -23.3464  -15.6162   22.1690 C   0  0  0  0  0  0  0  0  0  0  0  0
  -26.2093  -27.5079   18.0282 C   0  0  0  0  0  0  0  0  0  0  0  0
  -24.0789  -13.7486   20.9452 C   0  0  0  0  0  0  0  0  0  0  0  0
  -26.1657  -12.3438   19.7391 C   0  0  0  0  0  0  0  0  0  0  0  0
  -24.8218  -14.3430   19.9251 C   0  0  0  0  0  0  0  0  0  0  0  0
  -24.2898  -19.2560   24.1079 C   0  0  0  0  0  0  0  0  0  0  0  0
  -28.6978  -24.1080   18.4160 C   0  0  0  0  0  0  0  0  0  0  0  0
  -29.5083  -22.8967   20.1784 C   0  0  0  0  0  0  0  0  0  0  0  0
  -29.6909  -24.0597   20.8936 C   0  0  0  0  0  0  0  0  0  0  0  0
  -24.4273  -20.9186   25.5404 C   0  0  0  0  0  0  0  0  0  0  0  0
  -22.9812  -19.0308   26.3106 C   0  0  0  0  0  0  0  0  0  0  0  0
  -26.4991  -29.6728   22.9974 C   0  0  0  0  0  0  0  0  0  0  0  0
  -23.2681  -29.9567   22.9499 C   0  0  0  0  0  0  0  0  0  0  0  0
  -29.3731  -23.2367   23.2078 C   0  0  0  0  0  0  0  0  0  0  0  0
  -20.3399  -29.4534   21.2708 C   0  0  0  0  0  0  0  0  0  0  0  0
  -28.8569  -31.4620   27.1564 C   0  0  0  0  0  0  0  0  0  0  0  0
  -26.1268  -30.8155   20.7811 C   0  0  0  0  0  0  0  0  0  0  0  0
  -24.3012  -28.5189   21.1524 C   0  0  0  0  0  0  0  0  0  0  0  0
  -27.5128  -30.8004   26.8630 C   0  0  0  0  0  0  0  0  0  0  0  0
  -26.0365  -24.6772   23.0691 C   0  0  0  0  0  0  0  0  0  0  0  0
  -27.7083  -29.5478   26.0147 C   0  0  0  0  0  0  0  0  0  0  0  0
  -25.1671  -23.4680   23.4110 C   0  0  0  0  0  0  0  0  0  0  0  0
  -27.2599  -24.2751   22.2496 C   0  0  0  0  0  0  0  0  0  0  0  0
  -27.2271  -22.0056   23.2359 C   0  0  0  0  0  0  0  0  0  0  0  0
  -28.3377  -29.8920   24.6594 C   0  0  1  0  0  0  0  0  0  0  0  0
  -25.5458  -30.4641   22.1473 C   0  0  1  0  0  0  0  0  0  0  0  0
  -25.9984  -22.3644   24.0882 C   0  0  2  0  0  0  0  0  0  0  0  0
  -28.9427  -20.4550   20.2446 C   0  0  0  0  0  0  0  0  0  0  0  0
  -17.8593  -29.7529   21.5033 C   0  0  0  0  0  0  0  0  0  0  0  0
  -30.3353  -25.4795   22.8587 C   0  0  0  0  0  0  0  0  0  0  0  0
  -31.6531  -23.3999   22.4432 C   0  0  0  0  0  0  0  0  0  0  0  0
  -23.1538  -27.5432   24.8133 C   0  0  0  0  0  0  0  0  0  0  0  0
  -20.7255  -27.3111   24.2500 C   0  0  0  0  0  0  0  0  0  0  0  0
  -21.5498  -29.3762   25.3807 C   0  0  0  0  0  0  0  0  0  0  0  0
  -26.1565  -24.1112   15.3933 C   0  0  0  0  0  0  0  0  0  0  0  0
  -26.1516  -22.6846   17.4361 C   0  0  0  0  0  0  0  0  0  0  0  0
  -20.2233  -31.2687   18.9363 C   0  0  0  0  0  0  0  0  0  0  0  0
  -28.1356  -24.1504   17.0143 C   0  0  0  0  0  0  0  0  0  0  0  0
  -29.8559  -21.5670   20.7552 C   0  0  0  0  0  0  0  0  0  0  0  0
  -25.8852  -25.1798   17.6662 C   0  0  0  0  0  0  0  0  0  1  0  0
  -22.1098  -28.9885   22.9459 C   0  0  1  0  0  0  0  0  0  0  0  0
  -19.1584  -30.3700   21.0092 C   0  0  2  0  0  0  0  0  0  0  0  0
  -30.2445  -24.0424   22.2775 C   0  0  0  0  0  0  0  0  0  0  0  0
  -21.9044  -28.3044   24.3269 C   0  0  0  0  0  0  0  0  0  0  0  0
  -26.5878  -24.0557   16.8717 C   0  0  0  0  0  0  0  0  0  0  0  0
  -29.3796  -25.2676   20.3833 N   0  0  0  0  0  0  0  0  0  0  0  0
  -25.0934  -20.1429   23.5149 N   0  0  0  0  0  0  0  0  0  0  0  0
  -29.0088  -22.9000   18.9266 N   0  0  0  0  0  0  0  0  0  0  0  0
  -25.1576  -21.1429   24.4105 N   0  0  0  0  0  0  0  0  0  0  0  0
  -24.3101  -29.6841   22.0523 N   0  0  0  0  0  0  0  0  0  0  0  0
  -28.0095  -23.2029   22.9151 N   0  0  0  0  0  0  0  0  0  0  0  0
  -24.3812  -21.8214   26.5430 N   0  0  0  0  0  0  0  0  0  0  0  0
  -22.4699  -17.7686   25.9793 N   0  0  0  0  0  0  0  0  0  0  0  0
  -27.3437  -30.4494   23.7675 N   0  0  0  0  0  0  0  0  0  0  0  0
  -20.9518  -29.7394   22.4729 N   0  0  0  0  0  0  0  0  0  0  0  0
  -19.0253  -30.6397   19.5496 N   0  3  0  0  0  0  0  0  0  0  0  0
  -22.6592  -19.5561   27.4033 O   0  0  0  0  0  0  0  0  0  0  0  0
  -26.4696  -28.4484   22.9587 O   0  0  0  0  0  0  0  0  0  0  0  0
  -23.2457  -30.9232   23.7160 O   0  0  0  0  0  0  0  0  0  0  0  0
  -29.8902  -22.6579   24.1667 O   0  0  0  0  0  0  0  0  0  0  0  0
  -20.6832  -28.5695   20.4889 O   0  0  0  0  0  0  0  0  0  0  0  0
  -23.0433  -14.4449   21.5454 O   0  0  0  0  0  0  0  0  0  0  0  0
  -26.2331  -26.4654   17.1538 O   0  0  0  0  0  0  0  0  0  1  0  0
  -27.1686  -11.6698   19.1611 F   0  0  0  0  0  0  0  0  0  0  0  0
  -24.5386  -15.5889   19.5210 F   0  0  0  0  0  0  0  0  0  0  0  0
  1  2  1  0  0  0  0
  1  5  2  0  0  0  0
  2  6  2  0  0  0  0
  3  8  2  0  0  0  0
  3 16  1  0  0  0  0
  4  9  1  0  0  0  0
  4 16  2  0  0  0  0
  5 18  1  0  0  0  0
  6 20  1  0  0  0  0
  7 10  2  0  0  0  0
  7 19  1  0  0  0  0
  8 22  1  0  0  0  0
  9 22  2  0  0  0  0
 10 23  1  0  0  0  0
 11 12  2  0  0  0  0
 11 24  1  0  0  0  0
 12 25  1  0  0  0  0
 13 21  1  0  0  0  0
 13 23  2  0  0  0  0
 14 25  2  0  0  0  0
 14 26  1  0  0  0  0
 15 28  1  0  0  0  0
 15 67  2  0  0  0  0
 16 27  1  0  0  0  0
 17 27  1  0  0  0  0
 17 31  2  0  0  0  0
 17 32  1  0  0  0  0
 18 20  2  0  0  0  0
 18 37  1  0  0  0  0
 19 21  2  0  0  0  0
 19 38  1  0  0  0  0
 20 46  1  0  0  0  0
 21 39  1  0  0  0  0
 22 83  1  0  0  0  0
 23 84  1  0  0  0  0
 24 26  2  0  0  0  0
 24 83  1  0  0  0  0
 25 85  1  0  0  0  0
 26 86  1  0  0  0  0
 27 68  2  0  0  0  0
 28 59  1  0  0  0  0
 28 69  2  0  0  0  0
 29 30  2  0  0  0  0
 29 60  1  0  0  0  0
 29 69  1  0  0  0  0
 30 64  1  0  0  0  0
 30 67  1  0  0  0  0
 31 70  1  0  0  0  0
 31 73  1  0  0  0  0
 32 74  1  0  0  0  0
 32 78  2  0  0  0  0
 33 47  1  0  0  0  0
 33 75  1  0  0  0  0
 33 79  2  0  0  0  0
 34 62  1  0  0  0  0
 34 71  1  0  0  0  0
 34 80  2  0  0  0  0
 35 64  1  0  0  0  0
 35 72  1  0  0  0  0
 35 81  2  0  0  0  0
 36 63  1  0  0  0  0
 36 76  1  0  0  0  0
 36 82  2  0  0  0  0
 37 40  1  0  0  0  0
 38 47  1  0  0  0  0
 39 71  1  0  0  0  0
 40 42  1  0  0  0  0
 41 43  1  0  0  0  0
 41 44  1  0  0  0  0
 42 46  1  0  0  0  0
 43 48  1  0  0  0  0
 44 72  1  0  0  0  0
 45 48  1  0  0  0  0
 45 72  1  0  0  0  0
 46 75  1  0  0  0  0
 47 71  1  0  0  0  0
 48 70  1  0  0  0  0
 49 60  1  0  0  0  0
 50 63  1  0  0  0  0
 51 64  1  0  0  0  0
 52 64  1  0  0  0  0
 53 65  1  0  0  0  0
 54 65  1  0  0  0  0
 55 65  1  0  0  0  0
 56 66  1  0  0  0  0
 57 66  1  0  0  0  0
 58 77  1  0  0  0  0
 59 66  1  0  0  0  0
 61 66  1  0  0  0  0
 61 84  1  0  0  0  0
 62 65  1  0  0  0  0
 62 76  1  0  0  0  0
 63 77  1  0  0  0  0
 68 70  1  0  0  0  0
M  CHG  1  77   1
M  ISO  4  35 100  61 101  64 100  84 101
M  END
> <Batch ID>
0071

> <Smiles>
CCc1nc(CC(C)(C)[101CH2:1][101O:1]c2ccc3c(c2)CN(C(=O)C(NC(=O)C(C)NC)C(C)(C)C)C(C(=O)NC2CCCc4ccccc42)C3)cnc1[100C:0](C)(C)[100C:0](=O)N1CCCC(n2nc(-c3ccc(Oc4ccc(F)cc4F)cc3)c(C(N)=O)c2N)C1

> <Shape>
0.185

> <Color>
0.071

> <Negative vol penalty>
0.000

$$$$

  -OEChem-04052318223D

 87 95  0     1  0  0  0  0  0999 V2000
  -31.0967  -11.0879   20.1319 C   0  0  0  0  0  0  0  0  0  0  0  0
  -30.9883  -12.4440   19.8413 C   0  0  0  0  0  0  0  0  0  0  0  0
  -26.4331  -31.8360   20.3050 C   0  0  0  0  0  0  0  0  0  0  0  0
  -26.7827  -31.2230   22.6156 C   0  0  0  0  0  0  0  0  0  0  0  0
  -29.9961  -10.2492   19.9604 C   0  0  0  0  0  0  0  0  0  0  0  0
  -29.7794  -12.9622   19.3780 C   0  0  0  0  0  0  0  0  0  0  0  0
  -28.5212  -17.3009   21.6666 C   0  0  0  0  0  0  0  0  0  0  0  0
  -26.3796  -33.1812   20.6699 C   0  0  0  0  0  0  0  0  0  0  0  0
  -26.7293  -32.5682   22.9806 C   0  0  0  0  0  0  0  0  0  0  0  0
  -29.1722  -18.4577   21.2403 C   0  0  0  0  0  0  0  0  0  0  0  0
  -24.3529  -34.9173   23.4958 C   0  0  0  0  0  0  0  0  0  0  0  0
  -23.5896  -35.2558   24.6131 C   0  0  0  0  0  0  0  0  0  0  0  0
  -27.2516  -19.0375   19.9006 C   0  0  0  0  0  0  0  0  0  0  0  0
  -25.5594  -36.1518   25.6875 C   0  0  0  0  0  0  0  0  0  0  0  0
  -27.3105  -21.6784   22.7247 C   0  0  0  0  0  0  0  0  0  0  0  0
  -25.4833  -21.5263   21.5020 C   0  0  0  0  0  0  0  0  0  0  0  0
  -26.6346  -30.8569   21.2779 C   0  0  0  0  0  0  0  0  0  0  0  0
  -27.8311  -28.7303   20.5336 C   0  0  0  0  0  0  0  0  0  0  0  0
  -28.7704  -10.7591   19.5040 C   0  0  0  0  0  0  0  0  0  0  0  0
  -27.2327  -16.9976   21.2038 C   0  0  0  0  0  0  0  0  0  0  0  0
  -28.6618  -12.1294   19.1990 C   0  0  0  0  0  0  0  0  0  0  0  0
  -26.5855  -17.8775   20.3246 C   0  0  0  0  0  0  0  0  0  0  0  0
  -26.5278  -33.5473   22.0077 C   0  0  0  0  0  0  0  0  0  0  0  0
  -28.5385  -19.3248   20.3549 C   0  0  0  0  0  0  0  0  0  0  0  0
  -25.7196  -35.1959   23.4744 C   0  0  0  0  0  0  0  0  0  0  0  0
  -24.1928  -35.8731   25.7089 C   0  0  0  0  0  0  0  0  0  0  0  0
  -26.3228  -35.8132   24.5702 C   0  0  0  0  0  0  0  0  0  0  0  0
  -26.6893  -29.4671   20.9016 C   0  0  0  0  0  0  0  0  0  0  0  0
  -27.6068  -21.6118   21.3836 C   0  0  0  0  0  0  0  0  0  0  0  0
  -27.3558  -27.4686   20.2716 C   0  0  0  0  0  0  0  0  0  0  0  0
  -29.1989  -29.1491   20.4372 C   0  0  0  0  0  0  0  0  0  0  0  0
  -25.9554  -14.6246   19.5183 C   0  0  0  0  0  0  0  0  0  0  0  0
  -23.1765  -16.1470   20.2131 C   0  0  0  0  0  0  0  0  0  0  0  0
  -21.5981  -19.0503   21.0653 C   0  0  0  0  0  0  0  0  0  0  0  0
  -22.5267  -24.4613   22.1390 C   0  0  0  0  0  0  0  0  0  0  0  0
  -27.6221   -9.8052   19.2892 C   0  0  0  0  0  0  0  0  0  0  0  0
  -26.5335  -15.7594   21.6941 C   0  0  0  0  0  0  0  0  0  0  0  0
  -25.1944  -17.6079   19.8141 C   0  0  0  0  0  0  0  0  0  0  0  0
  -26.2703  -10.5006   19.1510 C   0  0  0  0  0  0  0  0  0  0  0  0
  -23.4295  -25.1829   18.7714 C   0  0  0  0  0  0  0  0  0  0  0  0
  -26.3737  -11.6833   18.1932 C   0  0  0  0  0  0  0  0  0  0  0  0
  -24.4704  -26.2962   18.9023 C   0  0  0  0  0  0  0  0  0  0  0  0
  -22.3285  -25.3134   19.8215 C   0  0  0  0  0  0  0  0  0  0  0  0
  -23.8485  -26.5151   21.3444 C   0  0  0  0  0  0  0  0  0  0  0  0
  -27.3603  -12.7335   18.7180 C   0  0  1  0  0  0  0  0  0  0  0  0
  -25.4251  -15.2886   20.7575 C   0  0  1  0  0  0  0  0  0  0  0  0
  -25.0091  -26.3937   20.3422 C   0  0  2  0  0  0  0  0  0  0  0  0
  -19.7169  -20.5639   21.7489 C   0  0  0  0  0  0  0  0  0  0  0  0
  -26.5683  -22.9863   25.6754 C   0  0  0  0  0  0  0  0  0  0  0  0
  -25.3386  -20.3831   24.8256 C   0  0  0  0  0  0  0  0  0  0  0  0
  -29.1040  -22.8275   19.7619 C   0  0  0  0  0  0  0  0  0  0  0  0
  -30.1021  -21.6597   21.7641 C   0  0  0  0  0  0  0  0  0  0  0  0
  -22.5791  -16.1565   17.2209 C   0  0  0  0  0  0  0  0  0  0  0  0
  -20.8286  -17.8950   17.6467 C   0  0  0  0  0  0  0  0  0  0  0  0
  -20.6134  -15.6327   18.6755 C   0  0  0  0  0  0  0  0  0  0  0  0
  -23.5503  -22.5588   26.5797 C   0  0  0  0  0  0  0  0  0  0  0  0
  -24.2909  -24.8981   26.1649 C   0  0  0  0  0  0  0  0  0  0  0  0
  -22.0707  -18.5309   23.9404 C   0  0  0  0  0  0  0  0  0  0  0  0
  -22.8420  -23.7192   24.4862 C   0  0  0  0  0  0  0  0  0  0  0  0
  -22.3600  -17.2341   19.5569 C   0  0  1  0  0  0  0  0  0  0  0  0
  -20.5611  -19.3579   22.1304 C   0  0  2  0  0  0  0  0  0  0  0  0
  -25.3351  -23.0115   24.7513 C   0  0  1  0  0  0  0  0  0  0  0  0
  -25.1421  -21.6533   23.9818 C   0  0  1  0  0  0  0  0  0  0  0  0
  -28.9802  -21.6333   20.7173 C   0  0  0  0  0  0  0  0  0  1  0  0
  -21.6222  -16.7340   18.2829 C   0  0  0  0  0  0  0  0  0  0  0  0
  -24.0257  -23.5334   25.4815 C   0  0  0  0  0  0  0  0  0  0  0  0
  -26.4651  -21.5176   20.6279 N   0  0  0  0  0  0  0  0  0  0  0  0
  -25.5728  -28.7344   20.8767 N   0  0  0  0  0  0  0  0  0  0  0  0
  -25.9465  -21.6229   22.7847 N   0  0  0  0  0  0  0  0  0  0  0  0
  -26.0106  -27.5242   20.4898 N   0  0  0  0  0  0  0  0  0  0  0  0
  -24.5549  -16.3810   20.3176 N   0  0  0  0  0  0  0  0  0  0  0  0
  -22.9060  -25.3996   21.1650 N   0  0  0  0  0  0  0  0  0  0  0  0
  -27.9615  -26.3281   19.8782 N   0  0  0  0  0  0  0  0  0  0  0  0
  -29.5132  -30.4805   20.7421 N   0  0  0  0  0  0  0  0  0  0  0  0
  -26.7493  -13.5213   19.7670 N   0  0  0  0  0  0  0  0  0  0  0  0
  -21.4762  -17.7613   20.5910 N   0  0  0  0  0  0  0  0  0  0  0  0
  -23.1259  -24.6108   23.3838 N   0  0  0  0  0  0  0  0  0  0  0  0
  -21.2257  -19.6427   23.4335 N   0  3  0  0  0  0  0  0  0  0  0  0
  -30.1130  -28.3700   20.0751 O   0  0  0  0  0  0  0  0  0  0  0  0
  -25.6645  -15.0788   18.4179 O   0  0  0  0  0  0  0  0  0  0  0  0
  -22.6110  -15.1307   20.6244 O   0  0  0  0  0  0  0  0  0  0  0  0
  -22.4305  -19.8725   20.6889 O   0  0  0  0  0  0  0  0  0  0  0  0
  -21.7183  -23.5541   21.9144 O   0  0  0  0  0  0  0  0  0  0  0  0
  -26.4759  -34.8599   22.3641 O   0  0  0  0  0  0  0  0  0  0  0  0
  -29.1719  -20.4543   19.9367 O   0  0  0  0  0  0  0  0  0  1  0  0
  -23.4593  -36.1996   26.7811 F   0  0  0  0  0  0  0  0  0  0  0  0
  -27.6350  -36.0844   24.5549 F   0  0  0  0  0  0  0  0  0  0  0  0
  1  2  1  0  0  0  0
  1  5  2  0  0  0  0
  2  6  2  0  0  0  0
  3  8  2  0  0  0  0
  3 17  1  0  0  0  0
  4  9  1  0  0  0  0
  4 17  2  0  0  0  0
  5 19  1  0  0  0  0
  6 21  1  0  0  0  0
  7 10  2  0  0  0  0
  7 20  1  0  0  0  0
  8 23  1  0  0  0  0
  9 23  2  0  0  0  0
 10 24  1  0  0  0  0
 11 12  2  0  0  0  0
 11 25  1  0  0  0  0
 12 26  1  0  0  0  0
 13 22  1  0  0  0  0
 13 24  2  0  0  0  0
 14 26  2  0  0  0  0
 14 27  1  0  0  0  0
 15 29  2  0  0  0  0
 15 69  1  0  0  0  0
 16 67  2  0  0  0  0
 16 69  1  0  0  0  0
 17 28  1  0  0  0  0
 18 28  1  0  0  0  0
 18 30  2  0  0  0  0
 18 31  1  0  0  0  0
 19 21  2  0  0  0  0
 19 36  1  0  0  0  0
 20 22  2  0  0  0  0
 20 37  1  0  0  0  0
 21 45  1  0  0  0  0
 22 38  1  0  0  0  0
 23 84  1  0  0  0  0
 24 85  1  0  0  0  0
 25 27  2  0  0  0  0
 25 84  1  0  0  0  0
 26 86  1  0  0  0  0
 27 87  1  0  0  0  0
 28 68  2  0  0  0  0
 29 64  1  0  0  0  0
 29 67  1  0  0  0  0
 30 70  1  0  0  0  0
 30 73  1  0  0  0  0
 31 74  1  0  0  0  0
 31 79  2  0  0  0  0
 32 46  1  0  0  0  0
 32 75  1  0  0  0  0
 32 80  2  0  0  0  0
 33 60  1  0  0  0  0
 33 71  1  0  0  0  0
 33 81  2  0  0  0  0
 34 61  1  0  0  0  0
 34 76  1  0  0  0  0
 34 82  2  0  0  0  0
 35 72  1  0  0  0  0
 35 77  1  0  0  0  0
 35 83  2  0  0  0  0
 36 39  1  0  0  0  0
 37 46  1  0  0  0  0
 38 71  1  0  0  0  0
 39 41  1  0  0  0  0
 40 42  1  0  0  0  0
 40 43  1  0  0  0  0
 41 45  1  0  0  0  0
 42 47  1  0  0  0  0
 43 72  1  0  0  0  0
 44 47  1  0  0  0  0
 44 72  1  0  0  0  0
 45 75  1  0  0  0  0
 46 71  1  0  0  0  0
 47 70  1  0  0  0  0
 48 61  1  0  0  0  0
 49 62  1  0  0  0  0
 50 63  1  0  0  0  0
 51 64  1  0  0  0  0
 52 64  1  0  0  0  0
 53 65  1  0  0  0  0
 54 65  1  0  0  0  0
 55 65  1  0  0  0  0
 56 66  1  0  0  0  0
 57 66  1  0  0  0  0
 58 78  1  0  0  0  0
 59 66  1  0  0  0  0
 59 77  1  0  0  0  0
 60 65  1  0  0  0  0
 60 76  1  0  0  0  0
 61 78  1  0  0  0  0
 62 63  1  0  0  0  0
 62 66  1  0  0  0  0
 63 69  1  0  0  0  0
 64 85  1  0  0  0  0
 68 70  1  0  0  0  0
M  CHG  1  78   1
M  ISO  4  35 100  64 101  77 100  85 101
M  END
> <Batch ID>
0071

> <Smiles>
CNC(C)C(=O)NC(C(=O)N1Cc2cc([101O:1][101C:1](C)(C)c3cn(C(C)C(C)C(C)(C)C[100NH:0][100C:0](=O)N4CCCC(n5nc(-c6ccc(Oc7ccc(F)cc7F)cc6)c(C(N)=O)c5N)C4)cn3)ccc2CC1C(=O)NC1CCCc2ccccc21)C(C)(C)C

> <Shape>
0.218

> <Color>
0.073

> <Negative vol penalty>
0.000

$$$$

  -OEChem-04052318223D

 92101  0     1  0  0  0  0  0999 V2000
  -28.0860  -24.5164   16.5288 C   0  0  0  0  0  0  0  0  0  0  0  0
  -26.9577  -24.6212   17.3360 C   0  0  0  0  0  0  0  0  0  0  0  0
  -27.0425  -13.8594   20.1539 C   0  0  0  0  0  0  0  0  0  0  0  0
  -25.1032  -14.2613   21.5377 C   0  0  0  0  0  0  0  0  0  0  0  0
  -29.2742  -25.1387   16.9094 C   0  0  0  0  0  0  0  0  0  0  0  0
  -27.0174  -25.3475   18.5248 C   0  0  0  0  0  0  0  0  0  0  0  0
  -23.0043  -28.3707   19.1579 C   0  0  0  0  0  0  0  0  0  0  0  0
  -23.7705  -20.6931   25.2747 C   0  0  0  0  0  0  0  0  0  0  0  0
  -26.8613  -12.4841   20.2993 C   0  0  0  0  0  0  0  0  0  0  0  0
  -24.9219  -12.8859   21.6830 C   0  0  0  0  0  0  0  0  0  0  0  0
  -21.8202  -27.7749   19.5898 C   0  0  0  0  0  0  0  0  0  0  0  0
  -23.6513  -10.3367   19.8644 C   0  0  0  0  0  0  0  0  0  0  0  0
  -22.3572   -9.8364   19.7209 C   0  0  0  0  0  0  0  0  0  0  0  0
  -24.8727  -21.4172   24.8342 C   0  0  0  0  0  0  0  0  0  0  0  0
  -22.2721  -28.5210   21.8389 C   0  0  0  0  0  0  0  0  0  0  0  0
  -22.4390   -8.9773   21.9775 C   0  0  0  0  0  0  0  0  0  0  0  0
  -18.1873  -21.5801   22.8995 C   0  0  0  0  0  0  0  0  0  0  0  0
  -26.1635  -14.7481   20.7731 C   0  0  0  0  0  0  0  0  0  0  0  0
  -25.8080  -16.9972   19.6231 C   0  0  0  0  0  0  0  0  0  0  0  0
  -29.3458  -25.8810   18.0987 C   0  0  0  0  0  0  0  0  0  0  0  0
  -23.8381  -29.0379   20.0668 C   0  0  0  0  0  0  0  0  0  0  0  0
  -28.2081  -25.9792   18.9223 C   0  0  0  0  0  0  0  0  0  0  0  0
  -23.4650  -29.1266   21.4155 C   0  0  0  0  0  0  0  0  0  0  0  0
  -22.7096  -20.4563   24.4077 C   0  0  0  0  0  0  0  0  0  0  0  0
  -25.8010  -11.9973   21.0639 C   0  0  0  0  0  0  0  0  0  0  0  0
  -21.4553  -27.8475   20.9310 C   0  0  0  0  0  0  0  0  0  0  0  0
  -24.3393  -10.1573   21.0645 C   0  0  0  0  0  0  0  0  0  0  0  0
  -21.7510   -9.1567   20.7774 C   0  0  0  0  0  0  0  0  0  0  0  0
  -23.7331   -9.4776   22.1211 C   0  0  0  0  0  0  0  0  0  0  0  0
  -26.3505  -16.1689   20.6238 C   0  0  0  0  0  0  0  0  0  0  0  0
  -24.8654  -21.8790   23.5278 C   0  0  0  0  0  0  0  0  0  0  0  0
  -22.7990  -20.9612   23.1205 C   0  0  0  0  0  0  0  0  0  0  0  0
  -18.8534  -22.6062   23.5082 C   0  0  0  0  0  0  0  0  0  0  0  0
  -26.2804  -18.2517   19.9223 C   0  0  0  0  0  0  0  0  0  0  0  0
  -20.3547  -21.2841   22.5603 C   0  0  0  0  0  0  0  0  0  0  0  0
  -24.9532  -16.6626   18.5217 C   0  0  0  0  0  0  0  0  0  0  0  0
  -26.8234  -28.6379   21.0826 C   0  0  0  0  0  0  0  0  0  0  0  0
  -26.2634  -31.4405   22.6169 C   0  0  0  0  0  0  0  0  0  0  0  0
  -27.3095  -22.2403   23.7067 C   0  0  0  0  0  0  0  0  0  0  0  0
  -23.9905  -33.6149   23.9408 C   0  0  0  0  0  0  0  0  0  0  0  0
  -30.6653  -26.4966   18.4919 C   0  0  0  0  0  0  0  0  0  0  0  0
  -25.0988  -29.6983   19.5802 C   0  0  0  0  0  0  0  0  0  0  0  0
  -24.3152  -29.8487   22.4276 C   0  0  0  0  0  0  0  0  0  0  0  0
  -30.5412  -27.5600   19.5800 C   0  0  0  0  0  0  0  0  0  0  0  0
  -29.8326  -19.7499   23.1850 C   0  0  0  0  0  0  0  0  0  0  0  0
  -29.6461  -27.0642   20.7113 C   0  0  0  0  0  0  0  0  0  0  0  0
  -29.0992  -18.6514   22.4166 C   0  0  0  0  0  0  0  0  0  0  0  0
  -28.9174  -20.4276   24.2000 C   0  0  0  0  0  0  0  0  0  0  0  0
  -26.9229  -19.8791   22.8425 C   0  0  0  0  0  0  0  0  0  0  0  0
  -28.2264  -26.7790   20.2069 C   0  0  1  0  0  0  0  0  0  0  0  0
  -26.1280  -29.9095   20.6863 C   0  0  1  0  0  0  0  0  0  0  0  0
  -27.8031  -19.1895   21.7851 C   0  0  2  0  0  0  0  0  0  0  0  0
  -21.5255  -19.6823   24.8743 C   0  0  0  0  0  0  0  0  0  0  0  0
  -22.0229  -21.1573   20.6693 C   0  0  0  0  0  0  0  0  0  0  0  0
  -23.8361  -35.8017   25.1620 C   0  0  0  0  0  0  0  0  0  0  0  0
  -25.8424  -24.1763   23.2828 C   0  0  0  0  0  0  0  0  0  0  0  0
  -26.3560  -22.4976   21.5074 C   0  0  0  0  0  0  0  0  0  0  0  0
  -27.1392  -30.0607   25.1935 C   0  0  0  0  0  0  0  0  0  0  0  0
  -26.0810  -31.9339   26.4741 C   0  0  0  0  0  0  0  0  0  0  0  0
  -27.9801  -32.4007   24.9254 C   0  0  0  0  0  0  0  0  0  0  0  0
  -18.8679  -19.5698   21.5672 C   0  0  0  0  0  0  0  0  0  0  0  0
  -22.4338  -34.8594   21.7530 C   0  0  0  0  0  0  0  0  0  0  0  0
  -18.3529  -23.7893   24.2978 C   0  0  0  0  0  0  0  0  0  0  0  0
  -19.2499  -25.0277   24.1932 C   0  0  0  0  0  0  0  0  0  0  0  0
  -19.3405  -25.5829   22.7710 C   0  0  0  0  0  0  0  0  0  0  0  0
  -20.2701  -26.7867   22.6990 C   0  0  0  0  0  0  0  0  0  1  0  0
  -21.6569  -20.7281   22.1150 C   0  0  1  0  0  0  0  0  0  0  0  0
  -25.7115  -31.8283   23.9674 C   0  0  1  0  0  0  0  0  0  0  0  0
  -23.8366  -35.1188   23.8032 C   0  0  2  0  0  0  0  0  0  0  0  0
  -26.0330  -22.6582   23.0213 C   0  0  0  0  0  0  0  0  0  0  0  0
  -26.7127  -31.5406   25.1217 C   0  0  0  0  0  0  0  0  0  0  0  0
  -27.1097  -16.8406   21.4935 N   0  0  0  0  0  0  0  0  0  0  0  0
  -23.8533  -21.6689   22.6565 N   0  0  0  0  0  0  0  0  0  0  0  0
  -19.1408  -20.7777   22.3207 N   0  0  0  0  0  0  0  0  0  0  0  0
  -27.0476  -18.1042   21.0402 N   0  0  0  0  0  0  0  0  0  0  0  0
  -20.1926  -22.3974   23.2824 N   0  3  0  0  0  0  0  0  0  0  0  0
  -25.5415  -30.4728   21.9040 N   0  0  0  0  0  0  0  0  0  0  0  0
  -27.6876  -20.9050   23.5653 N   0  0  0  0  0  0  0  0  0  0  0  0
  -26.1103  -19.4555   19.3355 N   0  0  0  0  0  0  0  0  0  0  0  0
  -24.5626  -15.3262   18.3611 N   0  0  0  0  0  0  0  0  0  0  0  0
  -27.4898  -28.0142   20.0452 N   0  0  0  0  0  0  0  0  0  0  0  0
  -25.3111  -33.2270   23.8585 N   0  0  0  0  0  0  0  0  0  0  0  0
  -22.5582  -35.4476   23.1115 N   0  3  0  0  0  0  0  0  0  0  0  0
  -24.5612  -17.5204   17.6946 O   0  0  0  0  0  0  0  0  0  0  0  0
  -26.7612  -28.2520   22.2441 O   0  0  0  0  0  0  0  0  0  0  0  0
  -27.2931  -31.9817   22.2064 O   0  0  0  0  0  0  0  0  0  0  0  0
  -27.9517  -23.0777   24.3459 O   0  0  0  0  0  0  0  0  0  0  0  0
  -23.0351  -32.8601   24.1086 O   0  0  0  0  0  0  0  0  0  0  0  0
  -25.6237  -10.6553   21.2058 O   0  0  0  0  0  0  0  0  0  0  0  0
  -20.3003  -27.2662   21.3553 O   0  0  0  0  0  0  0  0  0  1  0  0
  -20.5077   -8.6777   20.6400 F   0  0  0  0  0  0  0  0  0  0  0  0
  -24.3886   -9.3032   23.2768 F   0  0  0  0  0  0  0  0  0  0  0  0
  1  2  1  0  0  0  0
  1  5  2  0  0  0  0
  2  6  2  0  0  0  0
  3  9  2  0  0  0  0
  3 18  1  0  0  0  0
  4 10  1  0  0  0  0
  4 18  2  0  0  0  0
  5 20  1  0  0  0  0
  6 22  1  0  0  0  0
  7 11  2  0  0  0  0
  7 21  1  0  0  0  0
  8 14  2  0  0  0  0
  8 24  1  0  0  0  0
  9 25  1  0  0  0  0
 10 25  2  0  0  0  0
 11 26  1  0  0  0  0
 12 13  2  0  0  0  0
 12 27  1  0  0  0  0
 13 28  1  0  0  0  0
 14 31  1  0  0  0  0
 15 23  1  0  0  0  0
 15 26  2  0  0  0  0
 16 28  2  0  0  0  0
 16 29  1  0  0  0  0
 17 33  2  0  0  0  0
 17 74  1  0  0  0  0
 18 30  1  0  0  0  0
 19 30  1  0  0  0  0
 19 34  2  0  0  0  0
 19 36  1  0  0  0  0
 20 22  2  0  0  0  0
 20 41  1  0  0  0  0
 21 23  2  0  0  0  0
 21 42  1  0  0  0  0
 22 50  1  0  0  0  0
 23 43  1  0  0  0  0
 24 32  2  0  0  0  0
 24 53  1  0  0  0  0
 25 89  1  0  0  0  0
 26 90  1  0  0  0  0
 27 29  2  0  0  0  0
 27 89  1  0  0  0  0
 28 91  1  0  0  0  0
 29 92  1  0  0  0  0
 30 72  2  0  0  0  0
 31 70  1  0  0  0  0
 31 73  2  0  0  0  0
 32 67  1  0  0  0  0
 32 73  1  0  0  0  0
 33 63  1  0  0  0  0
 33 76  1  0  0  0  0
 34 75  1  0  0  0  0
 34 79  1  0  0  0  0
 35 67  1  0  0  0  0
 35 74  1  0  0  0  0
 35 76  2  0  0  0  0
 36 80  1  0  0  0  0
 36 84  2  0  0  0  0
 37 51  1  0  0  0  0
 37 81  1  0  0  0  0
 37 85  2  0  0  0  0
 38 68  1  0  0  0  0
 38 77  1  0  0  0  0
 38 86  2  0  0  0  0
 39 70  1  0  0  0  0
 39 78  1  0  0  0  0
 39 87  2  0  0  0  0
 40 69  1  0  0  0  0
 40 82  1  0  0  0  0
 40 88  2  0  0  0  0
 41 44  1  0  0  0  0
 42 51  1  0  0  0  0
 43 77  1  0  0  0  0
 44 46  1  0  0  0  0
 45 47  1  0  0  0  0
 45 48  1  0  0  0  0
 46 50  1  0  0  0  0
 47 52  1  0  0  0  0
 48 78  1  0  0  0  0
 49 52  1  0  0  0  0
 49 78  1  0  0  0  0
 50 81  1  0  0  0  0
 51 77  1  0  0  0  0
 52 75  1  0  0  0  0
 54 67  1  0  0  0  0
 55 69  1  0  0  0  0
 56 70  1  0  0  0  0
 57 70  1  0  0  0  0
 58 71  1  0  0  0  0
 59 71  1  0  0  0  0
 60 71  1  0  0  0  0
 61 74  1  0  0  0  0
 62 83  1  0  0  0  0
 63 64  1  0  0  0  0
 64 65  1  0  0  0  0
 65 66  1  0  0  0  0
 66 90  1  0  0  0  0
 68 71  1  0  0  0  0
 68 82  1  0  0  0  0
 69 83  1  0  0  0  0
 72 75  1  0  0  0  0
M  CHG  2  76   1  83   1
M  ISO  4  39 100  66 101  70 100  90 101
M  END
> <Batch ID>
0071

> <Smiles>
CNC(C)C(=O)NC(C(=O)N1Cc2cc([101O:1][101CH2:1]CCCc3cn(C)c(C(C)c4nc([100C:0](C)(C)[100C:0](=O)N5CCCC(n6nc(-c7ccc(Oc8ccc(F)cc8F)cc7)c(C(N)=O)c6N)C5)ccc4C)n3)ccc2CC1C(=O)NC1CCCc2ccccc21)C(C)(C)C

> <Shape>
0.266

> <Color>
0.072

> <Negative vol penalty>
0.000

$$$$

  -OEChem-04052318223D

 87 95  0     1  0  0  0  0  0999 V2000
  -17.9860  -26.5691   22.5954 C   0  0  0  0  0  0  0  0  0  0  0  0
  -19.1918  -25.8753   22.5885 C   0  0  0  0  0  0  0  0  0  0  0  0
  -26.4679  -13.7495   21.5254 C   0  0  0  0  0  0  0  0  0  0  0  0
  -26.4029  -13.6397   19.1128 C   0  0  0  0  0  0  0  0  0  0  0  0
  -17.9852  -27.9633   22.5801 C   0  0  0  0  0  0  0  0  0  0  0  0
  -20.3976  -26.5753   22.5650 C   0  0  0  0  0  0  0  0  0  0  0  0
  -25.6410  -24.9682   25.2908 C   0  0  0  0  0  0  0  0  0  0  0  0
  -25.7109  -12.5803   21.5991 C   0  0  0  0  0  0  0  0  0  0  0  0
  -25.6459  -12.4704   19.1864 C   0  0  0  0  0  0  0  0  0  0  0  0
  -26.7911  -24.3397   24.8153 C   0  0  0  0  0  0  0  0  0  0  0  0
  -22.4659  -11.6902   21.2798 C   0  0  0  0  0  0  0  0  0  0  0  0
  -21.4040  -11.6624   22.1838 C   0  0  0  0  0  0  0  0  0  0  0  0
  -27.8289  -26.4938   24.4959 C   0  0  0  0  0  0  0  0  0  0  0  0
  -22.4255   -9.7946   23.3262 C   0  0  0  0  0  0  0  0  0  0  0  0
  -26.7832  -24.8490   19.5057 C   0  0  0  0  0  0  0  0  0  0  0  0
  -26.8139  -14.2792   20.2823 C   0  0  0  0  0  0  0  0  0  0  0  0
  -28.9987  -15.5907   20.1629 C   0  0  0  0  0  0  0  0  0  0  0  0
  -19.1917  -28.6808   22.5662 C   0  0  0  0  0  0  0  0  0  0  0  0
  -25.5721  -26.3670   25.3622 C   0  0  0  0  0  0  0  0  0  0  0  0
  -20.4129  -27.9803   22.5481 C   0  0  0  0  0  0  0  0  0  0  0  0
  -26.6777  -27.1375   24.9750 C   0  0  0  0  0  0  0  0  0  0  0  0
  -25.2999  -11.9407   20.4296 C   0  0  0  0  0  0  0  0  0  0  0  0
  -27.8842  -25.1026   24.4150 C   0  0  0  0  0  0  0  0  0  0  0  0
  -23.5075  -10.7702   21.3989 C   0  0  0  0  0  0  0  0  0  0  0  0
  -21.3838  -10.7146   23.2070 C   0  0  0  0  0  0  0  0  0  0  0  0
  -23.4874   -9.8224   22.4221 C   0  0  0  0  0  0  0  0  0  0  0  0
  -27.5954  -15.4873   20.2056 C   0  0  0  0  0  0  0  0  0  0  0  0
  -27.2242  -23.7697   18.7933 C   0  0  0  0  0  0  0  0  0  0  0  0
  -29.2415  -16.9408   20.0941 C   0  0  0  0  0  0  0  0  0  0  0  0
  -28.7376  -24.2310   20.3416 C   0  0  0  0  0  0  0  0  0  0  0  0
  -29.9937  -14.5587   20.1835 C   0  0  0  0  0  0  0  0  0  0  0  0
  -23.7477  -28.5947   24.0158 C   0  0  0  0  0  0  0  0  0  0  0  0
  -25.3579  -30.5714   26.0213 C   0  0  0  0  0  0  0  0  0  0  0  0
  -26.9907  -21.6004   17.6367 C   0  0  0  0  0  0  0  0  0  0  0  0
  -28.1581  -31.1568   27.8822 C   0  0  0  0  0  0  0  0  0  0  0  0
  -19.1399  -30.1868   22.5022 C   0  0  0  0  0  0  0  0  0  0  0  0
  -24.3341  -27.0287   25.9026 C   0  0  0  0  0  0  0  0  0  0  0  0
  -26.6619  -28.6417   25.0512 C   0  0  0  0  0  0  0  0  0  0  0  0
  -20.4648  -30.8573   22.8563 C   0  0  0  0  0  0  0  0  0  0  0  0
  -26.6859  -21.0125   21.2128 C   0  0  0  0  0  0  0  0  0  0  0  0
  -21.6195  -30.1746   22.1300 C   0  0  0  0  0  0  0  0  0  0  0  0
  -26.9981  -19.5195   21.3048 C   0  0  0  0  0  0  0  0  0  0  0  0
  -25.9271  -21.3494   19.9318 C   0  0  0  0  0  0  0  0  0  0  0  0
  -26.9309  -19.4050   18.7759 C   0  0  0  0  0  0  0  0  0  0  0  0
  -21.7418  -28.7043   22.5478 C   0  0  1  0  0  0  0  0  0  0  0  0
  -24.1845  -28.4775   25.4487 C   0  0  1  0  0  0  0  0  0  0  0  0
  -27.7226  -19.0282   20.0393 C   0  0  2  0  0  0  0  0  0  0  0  0
  -29.2026  -32.8761   29.3823 C   0  0  0  0  0  0  0  0  0  0  0  0
  -27.0557  -23.6584   16.2929 C   0  0  0  0  0  0  0  0  0  0  0  0
  -25.0452  -23.0124   17.6249 C   0  0  0  0  0  0  0  0  0  0  0  0
  -32.0933  -21.2429   18.0345 C   0  0  0  0  0  0  0  0  0  0  0  0
  -31.5817  -21.9890   15.6963 C   0  0  0  0  0  0  0  0  0  0  0  0
  -30.1313  -20.2903   16.8156 C   0  0  0  0  0  0  0  0  0  0  0  0
  -26.0585  -32.2686   23.5844 C   0  0  0  0  0  0  0  0  0  0  0  0
  -27.8333  -33.3807   24.9560 C   0  0  0  0  0  0  0  0  0  0  0  0
  -25.4377  -33.5770   25.6233 C   0  0  0  0  0  0  0  0  0  0  0  0
  -28.2208  -29.2868   30.1752 C   0  0  0  0  0  0  0  0  0  0  0  0
  -29.9729  -24.1898   21.2053 C   0  0  0  0  0  0  0  0  0  0  0  0
  -29.9524  -23.0784   22.2569 C   0  0  0  0  0  0  0  0  0  0  0  0
  -30.0242  -22.6677   17.5970 C   0  0  0  0  0  0  0  0  0  0  0  0
  -29.2657  -22.3069   18.8813 C   0  0  0  0  0  0  0  0  0  0  0  0
  -28.8389  -23.2404   23.2851 C   0  0  0  0  0  0  0  0  0  1  0  0
  -26.6348  -31.3722   25.9360 C   0  0  1  0  0  0  0  0  0  0  0  0
  -28.3356  -31.6286   29.3141 C   0  0  2  0  0  0  0  0  0  0  0  0
  -26.6111  -23.0595   17.6643 C   0  0  0  0  0  0  0  0  0  0  0  0
  -30.9659  -21.5667   17.0404 C   0  0  0  0  0  0  0  0  0  0  0  0
  -26.4910  -32.6214   25.0216 C   0  0  0  0  0  0  0  0  0  0  0  0
  -26.9893  -16.6770   20.1673 N   0  0  0  0  0  0  0  0  0  0  0  0
  -28.4357  -23.4085   19.3317 N   0  0  0  0  0  0  0  0  0  0  0  0
  -28.0167  -17.5407   20.0999 N   0  0  0  0  0  0  0  0  0  0  0  0
  -27.7389  -25.1123   20.4571 N   0  3  0  0  0  0  0  0  0  0  0  0
  -25.4263  -29.2422   25.5805 N   0  0  0  0  0  0  0  0  0  0  0  0
  -26.6359  -20.8405   18.7515 N   0  0  0  0  0  0  0  0  0  0  0  0
  -30.3812  -17.6615   20.0298 N   0  0  0  0  0  0  0  0  0  0  0  0
  -29.5710  -13.2244   20.2564 N   0  0  0  0  0  0  0  0  0  0  0  0
  -22.3766  -28.5983   23.8441 N   0  0  0  0  0  0  0  0  0  0  0  0
  -27.0171  -31.6785   27.3103 N   0  0  0  0  0  0  0  0  0  0  0  0
  -28.9790  -30.5637   30.1344 N   0  3  0  0  0  0  0  0  0  0  0  0
  -31.2218  -14.8129   20.1552 O   0  0  0  0  0  0  0  0  0  0  0  0
  -24.5922  -28.6772   23.1316 O   0  0  0  0  0  0  0  0  0  0  0  0
  -24.3392  -31.1035   26.4694 O   0  0  0  0  0  0  0  0  0  0  0  0
  -27.5870  -21.1520   16.6541 O   0  0  0  0  0  0  0  0  0  0  0  0
  -28.9543  -30.4040   27.3254 O   0  0  0  0  0  0  0  0  0  0  0  0
  -24.5614  -10.7996   20.5011 O   0  0  0  0  0  0  0  0  0  0  0  0
  -29.0078  -24.4918   23.9499 O   0  0  0  0  0  0  0  0  0  1  0  0
  -20.3648  -10.6890   24.0760 F   0  0  0  0  0  0  0  0  0  0  0  0
  -24.4859   -8.9368   22.5423 F   0  0  0  0  0  0  0  0  0  0  0  0
  1  2  1  0  0  0  0
  1  5  2  0  0  0  0
  2  6  2  0  0  0  0
  3  8  2  0  0  0  0
  3 16  1  0  0  0  0
  4  9  1  0  0  0  0
  4 16  2  0  0  0  0
  5 18  1  0  0  0  0
  6 20  1  0  0  0  0
  7 10  2  0  0  0  0
  7 19  1  0  0  0  0
  8 22  1  0  0  0  0
  9 22  2  0  0  0  0
 10 23  1  0  0  0  0
 11 12  2  0  0  0  0
 11 24  1  0  0  0  0
 12 25  1  0  0  0  0
 13 21  1  0  0  0  0
 13 23  2  0  0  0  0
 14 25  2  0  0  0  0
 14 26  1  0  0  0  0
 15 28  2  0  0  0  0
 15 71  1  0  0  0  0
 16 27  1  0  0  0  0
 17 27  1  0  0  0  0
 17 29  2  0  0  0  0
 17 31  1  0  0  0  0
 18 20  2  0  0  0  0
 18 36  1  0  0  0  0
 19 21  2  0  0  0  0
 19 37  1  0  0  0  0
 20 45  1  0  0  0  0
 21 38  1  0  0  0  0
 22 84  1  0  0  0  0
 23 85  1  0  0  0  0
 24 26  2  0  0  0  0
 24 84  1  0  0  0  0
 25 86  1  0  0  0  0
 26 87  1  0  0  0  0
 27 68  2  0  0  0  0
 28 65  1  0  0  0  0
 28 69  1  0  0  0  0
 29 70  1  0  0  0  0
 29 74  1  0  0  0  0
 30 58  1  0  0  0  0
 30 69  1  0  0  0  0
 30 71  2  0  0  0  0
 31 75  1  0  0  0  0
 31 79  2  0  0  0  0
 32 46  1  0  0  0  0
 32 76  1  0  0  0  0
 32 80  2  0  0  0  0
 33 63  1  0  0  0  0
 33 72  1  0  0  0  0
 33 81  2  0  0  0  0
 34 65  1  0  0  0  0
 34 73  1  0  0  0  0
 34 82  2  0  0  0  0
 35 64  1  0  0  0  0
 35 77  1  0  0  0  0
 35 83  2  0  0  0  0
 36 39  1  0  0  0  0
 37 46  1  0  0  0  0
 38 72  1  0  0  0  0
 39 41  1  0  0  0  0
 40 42  1  0  0  0  0
 40 43  1  0  0  0  0
 41 45  1  0  0  0  0
 42 47  1  0  0  0  0
 43 73  1  0  0  0  0
 44 47  1  0  0  0  0
 44 73  1  0  0  0  0
 45 76  1  0  0  0  0
 46 72  1  0  0  0  0
 47 70  1  0  0  0  0
 48 64  1  0  0  0  0
 49 65  1  0  0  0  0
 50 65  1  0  0  0  0
 51 66  1  0  0  0  0
 52 66  1  0  0  0  0
 53 66  1  0  0  0  0
 54 67  1  0  0  0  0
 55 67  1  0  0  0  0
 56 67  1  0  0  0  0
 57 78  1  0  0  0  0
 58 59  1  0  0  0  0
 59 62  1  0  0  0  0
 60 61  1  0  0  0  0
 60 66  1  0  0  0  0
 61 69  1  0  0  0  0
 62 85  1  0  0  0  0
 63 67  1  0  0  0  0
 63 77  1  0  0  0  0
 64 78  1  0  0  0  0
 68 70  1  0  0  0  0
M  CHG  2  71   1  78   1
M  ISO  4  34 100  62 101  65 100  85 101
M  END
> <Batch ID>
0071

> <Smiles>
CNC(C)C(=O)NC(C(=O)N1Cc2cc([101O:1][101CH2:1]CCc3ncc([100C:0](C)(C)[100C:0](=O)N4CCCC(n5nc(-c6ccc(Oc7ccc(F)cc7F)cc6)c(C(N)=O)c5N)C4)n3CCC(C)(C)C)ccc2CC1C(=O)NC1CCCc2ccccc21)C(C)(C)C

> <Shape>
0.254

> <Color>
0.063

> <Negative vol penalty>
0.000

$$$$

  -OEChem-04052318223D

 84 92  0     1  0  0  0  0  0999 V2000
  -33.3541   -9.1689   24.1889 C   0  0  0  0  0  0  0  0  0  0  0  0
  -33.4043  -10.5003   23.7883 C   0  0  0  0  0  0  0  0  0  0  0  0
  -24.9635  -30.6795   21.0986 C   0  0  0  0  0  0  0  0  0  0  0  0
  -24.8128  -29.1002   22.9207 C   0  0  0  0  0  0  0  0  0  0  0  0
  -32.5228   -8.2717   23.5197 C   0  0  0  0  0  0  0  0  0  0  0  0
  -32.6241  -10.9349   22.7174 C   0  0  0  0  0  0  0  0  0  0  0  0
  -29.9683  -16.4167   22.0833 C   0  0  0  0  0  0  0  0  0  0  0  0
  -24.2257  -31.6036   21.8385 C   0  0  0  0  0  0  0  0  0  0  0  0
  -24.0750  -30.0242   23.6606 C   0  0  0  0  0  0  0  0  0  0  0  0
  -30.3401  -17.5637   21.3834 C   0  0  0  0  0  0  0  0  0  0  0  0
  -22.6907  -34.5115   23.3885 C   0  0  0  0  0  0  0  0  0  0  0  0
  -23.1403  -35.8317   23.4107 C   0  0  0  0  0  0  0  0  0  0  0  0
  -28.9501  -16.8788   19.5346 C   0  0  0  0  0  0  0  0  0  0  0  0
  -25.2275  -35.1044   24.3863 C   0  0  0  0  0  0  0  0  0  0  0  0
  -27.3628  -20.6496   21.1686 C   0  0  0  0  0  0  0  0  0  0  0  0
  -25.2570  -29.4278   21.6397 C   0  0  0  0  0  0  0  0  0  0  0  0
  -27.4179  -28.3194   20.8588 C   0  0  0  0  0  0  0  0  0  0  0  0
  -31.7248   -8.6976   22.4462 C   0  0  0  0  0  0  0  0  0  0  0  0
  -29.0917  -15.4851   21.5087 C   0  0  0  0  0  0  0  0  0  0  0  0
  -31.7824  -10.0422   22.0323 C   0  0  0  0  0  0  0  0  0  0  0  0
  -28.5668  -15.7220   20.2303 C   0  0  0  0  0  0  0  0  0  0  0  0
  -23.7815  -31.2759   23.1195 C   0  0  0  0  0  0  0  0  0  0  0  0
  -29.8332  -17.7935   20.1077 C   0  0  0  0  0  0  0  0  0  0  0  0
  -23.5094  -33.4877   23.8653 C   0  0  0  0  0  0  0  0  0  0  0  0
  -24.4087  -36.1281   23.9095 C   0  0  0  0  0  0  0  0  0  0  0  0
  -24.7778  -33.7842   24.3642 C   0  0  0  0  0  0  0  0  0  0  0  0
  -26.0186  -28.4726   20.8756 C   0  0  0  0  0  0  0  0  0  0  0  0
  -27.9055  -21.5774   20.3250 C   0  0  0  0  0  0  0  0  0  0  0  0
  -27.6396  -27.2856   19.9821 C   0  0  0  0  0  0  0  0  0  0  0  0
  -25.8019  -22.1502   20.7082 C   0  0  0  0  0  0  0  0  0  0  0  0
  -28.4271  -29.0465   21.5719 C   0  0  0  0  0  0  0  0  0  0  0  0
  -29.2991  -12.4225   20.6833 C   0  0  0  0  0  0  0  0  0  0  0  0
  -26.1330  -12.7758   20.0721 C   0  0  0  0  0  0  0  0  0  0  0  0
  -24.1572  -22.7280   18.1896 C   0  0  0  0  0  0  0  0  0  0  0  0
  -23.5448  -14.8660   19.3113 C   0  0  0  0  0  0  0  0  0  0  0  0
  -30.8774   -7.6807   21.7233 C   0  0  0  0  0  0  0  0  0  0  0  0
  -28.6795  -14.2660   22.2875 C   0  0  0  0  0  0  0  0  0  0  0  0
  -27.6065  -14.7630   19.5771 C   0  0  0  0  0  0  0  0  0  0  0  0
  -29.8011   -8.3036   20.8380 C   0  0  0  0  0  0  0  0  0  0  0  0
  -25.7750  -25.1704   16.1263 C   0  0  0  0  0  0  0  0  0  0  0  0
  -30.3882   -9.4345   19.9994 C   0  0  0  0  0  0  0  0  0  0  0  0
  -26.1226  -26.2925   17.1036 C   0  0  0  0  0  0  0  0  0  0  0  0
  -24.4539  -24.5009   16.4916 C   0  0  0  0  0  0  0  0  0  0  0  0
  -24.7483  -25.1061   18.8725 C   0  0  0  0  0  0  0  0  0  0  0  0
  -30.9325  -10.5571   20.8910 C   0  0  1  0  0  0  0  0  0  0  0  0
  -28.1832  -13.1293   21.3994 C   0  0  1  0  0  0  0  0  0  0  0  0
  -26.0912  -25.7887   18.5575 C   0  0  2  0  0  0  0  0  0  0  0  0
  -23.8000  -22.8444   22.0809 C   0  0  0  0  0  0  0  0  0  0  0  0
  -21.0807  -14.8582   18.8364 C   0  0  0  0  0  0  0  0  0  0  0  0
  -22.1786  -23.2381   19.5521 C   0  0  0  0  0  0  0  0  0  0  0  0
  -23.2120  -20.9578   19.5458 C   0  0  0  0  0  0  0  0  0  0  0  0
  -26.6775  -11.6773   17.2781 C   0  0  0  0  0  0  0  0  0  0  0  0
  -24.4480  -12.5687   16.5689 C   0  0  0  0  0  0  0  0  0  0  0  0
  -24.5834  -10.8226   18.3453 C   0  0  0  0  0  0  0  0  0  0  0  0
  -27.0541  -23.6567   19.1995 C   0  0  0  0  0  0  0  0  0  0  0  0
  -22.9735  -16.6064   21.6359 C   0  0  0  0  0  0  0  0  0  0  0  0
  -29.2928  -21.6759   19.7425 C   0  0  0  0  0  0  0  0  0  0  0  0
  -29.4513  -20.9529   18.4032 C   0  0  0  0  0  0  0  0  0  0  0  0
  -29.2436  -19.4461   18.5023 C   0  0  0  0  0  0  0  0  0  1  0  0
  -24.5031  -22.8682   20.6927 C   0  0  2  0  0  0  0  0  0  0  0  0
  -25.3152  -13.1849   18.8710 C   0  0  1  0  0  0  0  0  0  0  0  0
  -22.1540  -15.0041   19.9038 C   0  0  2  0  0  0  0  0  0  0  0  0
  -23.5071  -22.4684   19.5253 C   0  0  0  0  0  0  0  0  0  0  0  0
  -25.2756  -12.0807   17.7771 C   0  0  0  0  0  0  0  0  0  0  0  0
  -25.3953  -27.6056   20.0732 N   0  0  0  0  0  0  0  0  0  0  0  0
  -26.9174  -22.4936   20.0562 N   0  0  0  0  0  0  0  0  0  0  0  0
  -26.4076  -26.8977   19.5440 N   0  0  0  0  0  0  0  0  0  0  0  0
  -26.0607  -21.0291   21.3889 N   0  3  0  0  0  0  0  0  0  0  0  0
  -27.2387  -13.5825   20.3762 N   0  0  0  0  0  0  0  0  0  0  0  0
  -24.4557  -24.0566   17.8865 N   0  0  0  0  0  0  0  0  0  0  0  0
  -28.7662  -26.6796   19.5510 N   0  0  0  0  0  0  0  0  0  0  0  0
  -28.0256  -30.0779   22.4318 N   0  0  0  0  0  0  0  0  0  0  0  0
  -29.8485  -11.3730   21.3947 N   0  0  0  0  0  0  0  0  0  0  0  0
  -24.0032  -13.5675   19.3816 N   0  0  0  0  0  0  0  0  0  0  0  0
  -21.9962  -16.3379   20.5497 N   0  3  0  0  0  0  0  0  0  0  0  0
  -29.6497  -28.8000   21.4378 O   0  0  0  0  0  0  0  0  0  0  0  0
  -29.6358  -12.8004   19.5672 O   0  0  0  0  0  0  0  0  0  0  0  0
  -25.7988  -11.7814   20.7211 O   0  0  0  0  0  0  0  0  0  0  0  0
  -24.3945  -21.7768   17.4405 O   0  0  0  0  0  0  0  0  0  0  0  0
  -24.1612  -15.8144   18.8306 O   0  0  0  0  0  0  0  0  0  0  0  0
  -23.0618  -32.1775   23.8419 O   0  0  0  0  0  0  0  0  0  0  0  0
  -30.1950  -18.9120   19.4221 O   0  0  0  0  0  0  0  0  0  1  0  0
  -24.8410  -37.3958   23.9294 F   0  0  0  0  0  0  0  0  0  0  0  0
  -25.5693  -32.8047   24.8225 F   0  0  0  0  0  0  0  0  0  0  0  0
  1  2  1  0  0  0  0
  1  5  2  0  0  0  0
  2  6  2  0  0  0  0
  3  8  2  0  0  0  0
  3 16  1  0  0  0  0
  4  9  1  0  0  0  0
  4 16  2  0  0  0  0
  5 18  1  0  0  0  0
  6 20  1  0  0  0  0
  7 10  2  0  0  0  0
  7 19  1  0  0  0  0
  8 22  1  0  0  0  0
  9 22  2  0  0  0  0
 10 23  1  0  0  0  0
 11 12  2  0  0  0  0
 11 24  1  0  0  0  0
 12 25  1  0  0  0  0
 13 21  1  0  0  0  0
 13 23  2  0  0  0  0
 14 25  2  0  0  0  0
 14 26  1  0  0  0  0
 15 28  2  0  0  0  0
 15 68  1  0  0  0  0
 16 27  1  0  0  0  0
 17 27  1  0  0  0  0
 17 29  2  0  0  0  0
 17 31  1  0  0  0  0
 18 20  2  0  0  0  0
 18 36  1  0  0  0  0
 19 21  2  0  0  0  0
 19 37  1  0  0  0  0
 20 45  1  0  0  0  0
 21 38  1  0  0  0  0
 22 81  1  0  0  0  0
 23 82  1  0  0  0  0
 24 26  2  0  0  0  0
 24 81  1  0  0  0  0
 25 83  1  0  0  0  0
 26 84  1  0  0  0  0
 27 65  2  0  0  0  0
 28 57  1  0  0  0  0
 28 66  1  0  0  0  0
 29 67  1  0  0  0  0
 29 71  1  0  0  0  0
 30 60  1  0  0  0  0
 30 66  1  0  0  0  0
 30 68  2  0  0  0  0
 31 72  1  0  0  0  0
 31 76  2  0  0  0  0
 32 46  1  0  0  0  0
 32 73  1  0  0  0  0
 32 77  2  0  0  0  0
 33 61  1  0  0  0  0
 33 69  1  0  0  0  0
 33 78  2  0  0  0  0
 34 63  1  0  0  0  0
 34 70  1  0  0  0  0
 34 79  2  0  0  0  0
 35 62  1  0  0  0  0
 35 74  1  0  0  0  0
 35 80  2  0  0  0  0
 36 39  1  0  0  0  0
 37 46  1  0  0  0  0
 38 69  1  0  0  0  0
 39 41  1  0  0  0  0
 40 42  1  0  0  0  0
 40 43  1  0  0  0  0
 41 45  1  0  0  0  0
 42 47  1  0  0  0  0
 43 70  1  0  0  0  0
 44 47  1  0  0  0  0
 44 70  1  0  0  0  0
 45 73  1  0  0  0  0
 46 69  1  0  0  0  0
 47 67  1  0  0  0  0
 48 60  1  0  0  0  0
 49 62  1  0  0  0  0
 50 63  1  0  0  0  0
 51 63  1  0  0  0  0
 52 64  1  0  0  0  0
 53 64  1  0  0  0  0
 54 64  1  0  0  0  0
 55 66  1  0  0  0  0
 56 75  1  0  0  0  0
 57 58  1  0  0  0  0
 58 59  1  0  0  0  0
 59 82  1  0  0  0  0
 60 63  1  0  0  0  0
 61 64  1  0  0  0  0
 61 74  1  0  0  0  0
 62 75  1  0  0  0  0
 65 67  1  0  0  0  0
M  CHG  2  68   1  75   1
M  ISO  4  34 100  59 101  63 100  82 101
M  END
> <Batch ID>
0071

> <Smiles>
CNC(C)C(=O)NC(C(=O)N1Cc2cc([101O:1][101CH2:1]CCc3cnc(C(C)[100C:0](C)(C)[100C:0](=O)N4CCCC(n5nc(-c6ccc(Oc7ccc(F)cc7F)cc6)c(C(N)=O)c5N)C4)n3C)ccc2CC1C(=O)NC1CCCc2ccccc21)C(C)(C)C

> <Shape>
0.238

> <Color>
0.063

> <Negative vol penalty>
0.000

$$$$

  -OEChem-04052318223D

 89 97  0     1  0  0  0  0  0999 V2000
  -31.5136  -31.4199   17.7418 C   0  0  0  0  0  0  0  0  0  0  0  0
  -31.0564  -30.1598   17.3696 C   0  0  0  0  0  0  0  0  0  0  0  0
  -23.1038   -9.8715   19.9286 C   0  0  0  0  0  0  0  0  0  0  0  0
  -23.7116   -9.9471   22.2656 C   0  0  0  0  0  0  0  0  0  0  0  0
  -32.8800  -31.6967   17.7274 C   0  0  0  0  0  0  0  0  0  0  0  0
  -31.9653  -29.1761   16.9816 C   0  0  0  0  0  0  0  0  0  0  0  0
  -30.9630  -24.6728   19.0697 C   0  0  0  0  0  0  0  0  0  0  0  0
  -22.3509   -8.7206   20.1616 C   0  0  0  0  0  0  0  0  0  0  0  0
  -22.9587   -8.7962   22.4987 C   0  0  0  0  0  0  0  0  0  0  0  0
  -29.9273  -23.9270   18.5085 C   0  0  0  0  0  0  0  0  0  0  0  0
  -23.3022   -5.4621   22.0549 C   0  0  0  0  0  0  0  0  0  0  0  0
  -23.8744   -4.4613   22.8400 C   0  0  0  0  0  0  0  0  0  0  0  0
  -31.5432  -22.5969   17.3090 C   0  0  0  0  0  0  0  0  0  0  0  0
  -22.0639   -4.6704   24.4261 C   0  0  0  0  0  0  0  0  0  0  0  0
  -31.9509  -17.3263   18.2985 C   0  0  0  0  0  0  0  0  0  0  0  0
  -23.7842  -10.4847   20.9806 C   0  0  0  0  0  0  0  0  0  0  0  0
  -24.1205  -13.0078   20.8124 C   0  0  0  0  0  0  0  0  0  0  0  0
  -33.8069  -30.7129   17.3482 C   0  0  0  0  0  0  0  0  0  0  0  0
  -32.2983  -24.3927   18.7458 C   0  0  0  0  0  0  0  0  0  0  0  0
  -33.3453  -29.4404   16.9608 C   0  0  0  0  0  0  0  0  0  0  0  0
  -32.5941  -23.3389   17.8695 C   0  0  0  0  0  0  0  0  0  0  0  0
  -22.2783   -8.1830   21.4466 C   0  0  0  0  0  0  0  0  0  0  0  0
  -30.2172  -22.8908   17.6257 C   0  0  0  0  0  0  0  0  0  0  0  0
  -22.1108   -6.0672   22.4554 C   0  0  0  0  0  0  0  0  0  0  0  0
  -23.2553   -4.0654   24.0256 C   0  0  0  0  0  0  0  0  0  0  0  0
  -21.4917   -5.6713   23.6410 C   0  0  0  0  0  0  0  0  0  0  0  0
  -24.5625  -11.6732   20.7404 C   0  0  0  0  0  0  0  0  0  0  0  0
  -31.3525  -16.1156   18.5695 C   0  0  0  0  0  0  0  0  0  0  0  0
  -29.3741  -16.9079   17.7399 C   0  0  0  0  0  0  0  0  0  0  0  0
  -29.9725  -18.1189   17.4696 C   0  0  0  0  0  0  0  0  0  0  0  0
  -25.2304  -13.7544   20.5005 C   0  0  0  0  0  0  0  0  0  0  0  0
  -22.8227  -13.5263   21.1327 C   0  0  0  0  0  0  0  0  0  0  0  0
  -34.6533  -26.0065   17.3482 C   0  0  0  0  0  0  0  0  0  0  0  0
  -36.4054  -23.4070   18.1820 C   0  0  0  0  0  0  0  0  0  0  0  0
  -30.5886  -14.7880   21.2068 C   0  0  0  0  0  0  0  0  0  0  0  0
  -36.4687  -20.0871   18.9702 C   0  0  0  0  0  0  0  0  0  0  0  0
  -35.2706  -31.0735   17.3029 C   0  0  0  0  0  0  0  0  0  0  0  0
  -33.4053  -25.1891   19.3805 C   0  0  0  0  0  0  0  0  0  0  0  0
  -34.0119  -22.9848   17.5049 C   0  0  0  0  0  0  0  0  0  0  0  0
  -36.1951  -29.8604   17.2385 C   0  0  0  0  0  0  0  0  0  0  0  0
  -29.7137  -12.3813   18.6242 C   0  0  0  0  0  0  0  0  0  0  0  0
  -35.6968  -28.8642   16.1963 C   0  0  0  0  0  0  0  0  0  0  0  0
  -28.2591  -12.0715   18.9753 C   0  0  0  0  0  0  0  0  0  0  0  0
  -30.5539  -12.6227   19.8756 C   0  0  0  0  0  0  0  0  0  0  0  0
  -28.5553  -13.3809   21.1226 C   0  0  0  0  0  0  0  0  0  0  0  0
  -34.3019  -28.3393   16.5575 C   0  0  1  0  0  0  0  0  0  0  0  0
  -34.7041  -25.1493   18.5812 C   0  0  1  0  0  0  0  0  0  0  0  0
  -27.6672  -13.1610   19.8865 C   0  0  2  0  0  0  0  0  0  0  0  0
  -27.9363  -16.6654   17.4307 C   0  0  0  0  0  0  0  0  0  0  0  0
  -38.0521  -18.2339   19.5665 C   0  0  0  0  0  0  0  0  0  0  0  0
  -30.3863  -19.5252   14.6220 C   0  0  0  0  0  0  0  0  0  0  0  0
  -33.6650  -15.0501   18.7891 C   0  0  0  0  0  0  0  0  0  0  0  0
  -31.6938  -13.5982   18.6147 C   0  0  0  0  0  0  0  0  0  0  0  0
  -32.4994  -16.2893   21.4466 C   0  0  0  0  0  0  0  0  0  0  0  0
  -32.8084  -13.8229   21.4799 C   0  0  0  0  0  0  0  0  0  0  0  0
  -37.2660  -23.2058   15.2616 C   0  0  0  0  0  0  0  0  0  0  0  0
  -38.0340  -20.8677   15.7215 C   0  0  0  0  0  0  0  0  0  0  0  0
  -39.0912  -22.7840   16.9184 C   0  0  0  0  0  0  0  0  0  0  0  0
  -28.0632  -21.5420   15.0913 C   0  0  0  0  0  0  0  0  0  0  0  0
  -30.3417  -22.5877   15.0155 C   0  0  0  0  0  0  0  0  0  0  0  0
  -35.1829  -19.6797   21.6045 C   0  0  0  0  0  0  0  0  0  0  0  0
  -29.1991  -19.2588   16.8469 C   0  0  0  0  0  0  0  0  0  0  0  0
  -36.7385  -22.0877   17.5282 C   0  0  1  0  0  0  0  0  0  0  0  0
  -37.1462  -19.3328   20.0999 C   0  0  2  0  0  0  0  0  0  0  0  0
  -30.0636  -20.1980   15.9706 C   0  0  2  0  0  0  0  0  0  0  0  0
  -32.1339  -15.0075   19.1838 C   0  0  0  0  0  0  0  0  0  0  0  0
  -32.0291  -14.9689   20.7992 C   0  0  0  0  0  0  0  0  0  0  0  0
  -37.7555  -22.2440   16.3626 C   0  0  0  0  0  0  0  0  0  0  0  0
  -29.4346  -21.6152   15.7774 C   0  0  0  0  0  0  0  0  0  1  0  0
  -31.2717  -18.3497   17.7438 N   0  0  0  0  0  0  0  0  0  0  0  0
  -25.8526  -11.5745   20.4086 N   0  0  0  0  0  0  0  0  0  0  0  0
  -30.0533  -15.8846   18.2950 N   0  0  0  0  0  0  0  0  0  0  0  0
  -26.2306  -12.8566   20.2692 N   0  0  0  0  0  0  0  0  0  0  0  0
  -35.0591  -23.7968   18.1466 N   0  0  0  0  0  0  0  0  0  0  0  0
  -29.9422  -13.6473   20.7302 N   0  0  0  0  0  0  0  0  0  0  0  0
  -25.4384  -15.0848   20.4041 N   0  0  0  0  0  0  0  0  0  0  0  0
  -21.7954  -12.6200   21.4285 N   0  0  0  0  0  0  0  0  0  0  0  0
  -34.3924  -27.3398   17.6002 N   0  0  0  0  0  0  0  0  0  0  0  0
  -37.1874  -21.2036   18.5984 N   0  0  0  0  0  0  0  0  0  0  0  0
  -36.1271  -18.7103   20.9915 N   0  3  0  0  0  0  0  0  0  0  0  0
  -22.5770  -14.7564   21.1400 O   0  0  0  0  0  0  0  0  0  0  0  0
  -34.8387  -25.4962   16.2495 O   0  0  0  0  0  0  0  0  0  0  0  0
  -37.3055  -24.0640   18.7110 O   0  0  0  0  0  0  0  0  0  0  0  0
  -30.0549  -15.6375   21.9248 O   0  0  0  0  0  0  0  0  0  0  0  0
  -35.4098  -19.7204   18.4653 O   0  0  0  0  0  0  0  0  0  0  0  0
  -21.5436   -7.0602   21.6744 O   0  0  0  0  0  0  0  0  0  0  0  0
  -29.2081  -22.1617   17.0760 O   0  0  0  0  0  0  0  0  0  1  0  0
  -23.8041   -3.1032   24.7787 F   0  0  0  0  0  0  0  0  0  0  0  0
  -20.3465   -6.2481   24.0303 F   0  0  0  0  0  0  0  0  0  0  0  0
  1  2  1  0  0  0  0
  1  5  2  0  0  0  0
  2  6  2  0  0  0  0
  3  8  2  0  0  0  0
  3 16  1  0  0  0  0
  4  9  1  0  0  0  0
  4 16  2  0  0  0  0
  5 18  1  0  0  0  0
  6 20  1  0  0  0  0
  7 10  2  0  0  0  0
  7 19  1  0  0  0  0
  8 22  1  0  0  0  0
  9 22  2  0  0  0  0
 10 23  1  0  0  0  0
 11 12  2  0  0  0  0
 11 24  1  0  0  0  0
 12 25  1  0  0  0  0
 13 21  1  0  0  0  0
 13 23  2  0  0  0  0
 14 25  2  0  0  0  0
 14 26  1  0  0  0  0
 15 28  1  0  0  0  0
 15 70  2  0  0  0  0
 16 27  1  0  0  0  0
 17 27  1  0  0  0  0
 17 31  2  0  0  0  0
 17 32  1  0  0  0  0
 18 20  2  0  0  0  0
 18 37  1  0  0  0  0
 19 21  2  0  0  0  0
 19 38  1  0  0  0  0
 20 46  1  0  0  0  0
 21 39  1  0  0  0  0
 22 86  1  0  0  0  0
 23 87  1  0  0  0  0
 24 26  2  0  0  0  0
 24 86  1  0  0  0  0
 25 88  1  0  0  0  0
 26 89  1  0  0  0  0
 27 71  2  0  0  0  0
 28 66  1  0  0  0  0
 28 72  2  0  0  0  0
 29 30  2  0  0  0  0
 29 49  1  0  0  0  0
 29 72  1  0  0  0  0
 30 62  1  0  0  0  0
 30 70  1  0  0  0  0
 31 73  1  0  0  0  0
 31 76  1  0  0  0  0
 32 77  1  0  0  0  0
 32 81  2  0  0  0  0
 33 47  1  0  0  0  0
 33 78  1  0  0  0  0
 33 82  2  0  0  0  0
 34 63  1  0  0  0  0
 34 74  1  0  0  0  0
 34 83  2  0  0  0  0
 35 67  1  0  0  0  0
 35 75  1  0  0  0  0
 35 84  2  0  0  0  0
 36 64  1  0  0  0  0
 36 79  1  0  0  0  0
 36 85  2  0  0  0  0
 37 40  1  0  0  0  0
 38 47  1  0  0  0  0
 39 74  1  0  0  0  0
 40 42  1  0  0  0  0
 41 43  1  0  0  0  0
 41 44  1  0  0  0  0
 42 46  1  0  0  0  0
 43 48  1  0  0  0  0
 44 75  1  0  0  0  0
 45 48  1  0  0  0  0
 45 75  1  0  0  0  0
 46 78  1  0  0  0  0
 47 74  1  0  0  0  0
 48 73  1  0  0  0  0
 50 64  1  0  0  0  0
 51 65  1  0  0  0  0
 52 66  1  0  0  0  0
 53 66  1  0  0  0  0
 54 67  1  0  0  0  0
 55 67  1  0  0  0  0
 56 68  1  0  0  0  0
 57 68  1  0  0  0  0
 58 68  1  0  0  0  0
 59 69  1  0  0  0  0
 60 69  1  0  0  0  0
 61 80  1  0  0  0  0
 62 65  1  0  0  0  0
 63 68  1  0  0  0  0
 63 79  1  0  0  0  0
 64 80  1  0  0  0  0
 65 69  1  0  0  0  0
 66 67  1  0  0  0  0
 69 87  1  0  0  0  0
 71 73  1  0  0  0  0
M  CHG  1  80   1
M  ISO  4  35 100  67 100  69 101  87 101
M  END
> <Batch ID>
0071

> <Smiles>
CNC(C)C(=O)NC(C(=O)N1Cc2cc([101O:1][101C:1](C)(C)C(C)Cc3ncc(C(C)(C)[100C:0](C)(C)[100C:0](=O)N4CCCC(n5nc(-c6ccc(Oc7ccc(F)cc7F)cc6)c(C(N)=O)c5N)C4)nc3C)ccc2CC1C(=O)NC1CCCc2ccccc21)C(C)(C)C

> <Shape>
0.200

> <Color>
0.166

> <Negative vol penalty>
0.000

$$$$

  -OEChem-04052318223D

 83 91  0     1  0  0  0  0  0999 V2000
  -37.7231  -13.6927   23.2659 C   0  0  0  0  0  0  0  0  0  0  0  0
  -36.9955  -14.8533   23.0227 C   0  0  0  0  0  0  0  0  0  0  0  0
  -19.8889  -26.8341   18.9137 C   0  0  0  0  0  0  0  0  0  0  0  0
  -20.2531  -25.1597   20.6169 C   0  0  0  0  0  0  0  0  0  0  0  0
  -37.3555  -12.4984   22.6476 C   0  0  0  0  0  0  0  0  0  0  0  0
  -35.9004  -14.8203   22.1601 C   0  0  0  0  0  0  0  0  0  0  0  0
  -30.7352  -18.0752   22.6419 C   0  0  0  0  0  0  0  0  0  0  0  0
  -18.9317  -26.0158   18.3139 C   0  0  0  0  0  0  0  0  0  0  0  0
  -19.2958  -24.3414   20.0172 C   0  0  0  0  0  0  0  0  0  0  0  0
  -30.3077  -19.2523   22.0292 C   0  0  0  0  0  0  0  0  0  0  0  0
  -15.6943  -25.1835   18.8234 C   0  0  0  0  0  0  0  0  0  0  0  0
  -14.4956  -25.7740   18.4235 C   0  0  0  0  0  0  0  0  0  0  0  0
  -29.1211  -17.9546   20.3778 C   0  0  0  0  0  0  0  0  0  0  0  0
  -14.9309  -25.1121   16.1411 C   0  0  0  0  0  0  0  0  0  0  0  0
  -20.5497  -26.4060   20.0652 C   0  0  0  0  0  0  0  0  0  0  0  0
  -21.3246  -28.2194   21.6835 C   0  0  0  0  0  0  0  0  0  0  0  0
  -36.2495  -12.4487   21.7845 C   0  0  0  0  0  0  0  0  0  0  0  0
  -30.3672  -16.8268   22.1199 C   0  0  0  0  0  0  0  0  0  0  0  0
  -35.5184  -13.6245   21.5286 C   0  0  0  0  0  0  0  0  0  0  0  0
  -29.5431  -16.7632   20.9873 C   0  0  0  0  0  0  0  0  0  0  0  0
  -18.6351  -24.7695   18.8657 C   0  0  0  0  0  0  0  0  0  0  0  0
  -29.5029  -19.1921   20.8953 C   0  0  0  0  0  0  0  0  0  0  0  0
  -16.5115  -24.5574   17.8821 C   0  0  0  0  0  0  0  0  0  0  0  0
  -14.1139  -25.7383   17.0823 C   0  0  0  0  0  0  0  0  0  0  0  0
  -16.1297  -24.5216   16.5410 C   0  0  0  0  0  0  0  0  0  0  0  0
  -21.5390  -27.2505   20.6849 C   0  0  0  0  0  0  0  0  0  0  0  0
  -22.5714  -28.7402   21.9300 C   0  0  0  0  0  0  0  0  0  0  0  0
  -28.5863  -25.4617   17.0947 C   0  0  0  0  0  0  0  0  0  0  0  0
  -29.2081  -26.0648   19.0843 C   0  0  0  0  0  0  0  0  0  0  0  0
  -20.1072  -28.6134   22.3304 C   0  0  0  0  0  0  0  0  0  0  0  0
  -31.9467  -14.3454   20.9152 C   0  0  0  0  0  0  0  0  0  0  0  0
  -29.0055  -12.9774   20.9011 C   0  0  0  0  0  0  0  0  0  0  0  0
  -27.9813  -26.3993   21.2034 C   0  0  0  0  0  0  0  0  0  0  0  0
  -25.6183  -13.3906   20.8468 C   0  0  0  0  0  0  0  0  0  0  0  0
  -35.9190  -11.1448   21.1024 C   0  0  0  0  0  0  0  0  0  0  0  0
  -30.8147  -15.5665   22.8082 C   0  0  0  0  0  0  0  0  0  0  0  0
  -29.1034  -15.4480   20.3994 C   0  0  0  0  0  0  0  0  0  0  0  0
  -34.5192  -11.1132   20.4942 C   0  0  0  0  0  0  0  0  0  0  0  0
  -26.7846  -29.5456   19.8267 C   0  0  0  0  0  0  0  0  0  0  0  0
  -34.2502  -12.3918   19.7070 C   0  0  0  0  0  0  0  0  0  0  0  0
  -25.2712  -29.3817   19.9602 C   0  0  0  0  0  0  0  0  0  0  0  0
  -27.4666  -28.2186   19.5043 C   0  0  0  0  0  0  0  0  0  0  0  0
  -25.6454  -26.9644   20.6154 C   0  0  0  0  0  0  0  0  0  0  0  0
  -34.3093  -13.6236   20.6186 C   0  0  1  0  0  0  0  0  0  0  0  0
  -30.8034  -14.3481   21.8902 C   0  0  1  0  0  0  0  0  0  0  0  0
  -24.9230  -28.2747   20.9706 C   0  0  2  0  0  0  0  0  0  0  0  0
  -27.8925  -24.7323   16.0184 C   0  0  0  0  0  0  0  0  0  0  0  0
  -23.4751  -12.0860   20.8031 C   0  0  0  0  0  0  0  0  0  0  0  0
  -30.2952  -27.2174   21.0292 C   0  0  0  0  0  0  0  0  0  0  0  0
  -29.7669  -24.7884   21.2627 C   0  0  0  0  0  0  0  0  0  0  0  0
  -29.4440  -12.3607   17.9452 C   0  0  0  0  0  0  0  0  0  0  0  0
  -26.9837  -11.9457   17.7384 C   0  0  0  0  0  0  0  0  0  0  0  0
  -28.3652  -10.5176   19.2466 C   0  0  0  0  0  0  0  0  0  0  0  0
  -24.7292  -14.5426   23.4239 C   0  0  0  0  0  0  0  0  0  0  0  0
  -28.0859  -22.7221   18.9645 C   0  0  0  0  0  0  0  0  0  0  0  0
  -27.2021  -21.6869   19.6621 C   0  0  0  0  0  0  0  0  0  0  0  0
  -27.5048  -24.1396   19.0164 C   0  0  0  0  0  0  0  0  0  0  0  0
  -27.8275  -20.2990   19.6210 C   0  0  0  0  0  0  0  0  0  1  0  0
  -27.8652  -12.9042   19.9145 C   0  0  1  0  0  0  0  0  0  0  0  0
  -24.5139  -12.7667   21.6807 C   0  0  2  0  0  0  0  0  0  0  0  0
  -29.3103  -26.1063   20.5538 C   0  0  0  0  0  0  0  0  0  0  0  0
  -28.1742  -11.9570   18.7209 C   0  0  0  0  0  0  0  0  0  0  0  0
  -22.8212  -27.1593   20.3218 N   0  0  0  0  0  0  0  0  0  0  0  0
  -29.4479  -26.4442   16.9580 N   0  0  0  0  0  0  0  0  0  0  0  0
  -29.8435  -26.8280   18.2239 N   0  0  0  0  0  0  0  0  0  0  0  0
  -23.4236  -28.0776   21.0964 N   0  0  0  0  0  0  0  0  0  0  0  0
  -28.4056  -25.1900   18.4169 N   0  0  0  0  0  0  0  0  0  0  0  0
  -29.5721  -14.2437   21.1046 N   0  0  0  0  0  0  0  0  0  0  0  0
  -27.0877  -27.1835   20.4735 N   0  0  0  0  0  0  0  0  0  0  0  0
  -23.0109  -29.6956   22.7764 N   0  0  0  0  0  0  0  0  0  0  0  0
  -18.9159  -27.9761   21.9575 N   0  0  0  0  0  0  0  0  0  0  0  0
  -33.0922  -13.7380   21.3932 N   0  0  0  0  0  0  0  0  0  0  0  0
  -26.6833  -12.5302   20.6837 N   0  0  0  0  0  0  0  0  0  0  0  0
  -23.8294  -13.8089   22.4970 N   0  3  0  0  0  0  0  0  0  0  0  0
  -20.0742  -29.5156   23.2012 O   0  0  0  0  0  0  0  0  0  0  0  0
  -31.8000  -14.8552   19.8106 O   0  0  0  0  0  0  0  0  0  0  0  0
  -29.3750  -11.9502   21.4756 O   0  0  0  0  0  0  0  0  0  0  0  0
  -27.7474  -25.9462   22.3268 O   0  0  0  0  0  0  0  0  0  0  0  0
  -25.5421  -14.5263   20.3831 O   0  0  0  0  0  0  0  0  0  0  0  0
  -17.7009  -23.9709   18.2808 O   0  0  0  0  0  0  0  0  0  0  0  0
  -29.0847  -20.3395   20.2948 O   0  0  0  0  0  0  0  0  0  1  0  0
  -12.9619  -26.3040   16.6987 F   0  0  0  0  0  0  0  0  0  0  0  0
  -16.9100  -23.9205   15.6323 F   0  0  0  0  0  0  0  0  0  0  0  0
  1  2  1  0  0  0  0
  1  5  2  0  0  0  0
  2  6  2  0  0  0  0
  3  8  2  0  0  0  0
  3 15  1  0  0  0  0
  4  9  1  0  0  0  0
  4 15  2  0  0  0  0
  5 17  1  0  0  0  0
  6 19  1  0  0  0  0
  7 10  2  0  0  0  0
  7 18  1  0  0  0  0
  8 21  1  0  0  0  0
  9 21  2  0  0  0  0
 10 22  1  0  0  0  0
 11 12  2  0  0  0  0
 11 23  1  0  0  0  0
 12 24  1  0  0  0  0
 13 20  1  0  0  0  0
 13 22  2  0  0  0  0
 14 24  2  0  0  0  0
 14 25  1  0  0  0  0
 15 26  1  0  0  0  0
 16 26  1  0  0  0  0
 16 27  2  0  0  0  0
 16 30  1  0  0  0  0
 17 19  2  0  0  0  0
 17 35  1  0  0  0  0
 18 20  2  0  0  0  0
 18 36  1  0  0  0  0
 19 44  1  0  0  0  0
 20 37  1  0  0  0  0
 21 80  1  0  0  0  0
 22 81  1  0  0  0  0
 23 25  2  0  0  0  0
 23 80  1  0  0  0  0
 24 82  1  0  0  0  0
 25 83  1  0  0  0  0
 26 63  2  0  0  0  0
 27 66  1  0  0  0  0
 27 70  1  0  0  0  0
 28 47  1  0  0  0  0
 28 64  2  0  0  0  0
 28 67  1  0  0  0  0
 29 61  1  0  0  0  0
 29 65  2  0  0  0  0
 29 67  1  0  0  0  0
 30 71  1  0  0  0  0
 30 75  2  0  0  0  0
 31 45  1  0  0  0  0
 31 72  1  0  0  0  0
 31 76  2  0  0  0  0
 32 59  1  0  0  0  0
 32 68  1  0  0  0  0
 32 77  2  0  0  0  0
 33 61  1  0  0  0  0
 33 69  1  0  0  0  0
 33 78  2  0  0  0  0
 34 60  1  0  0  0  0
 34 73  1  0  0  0  0
 34 79  2  0  0  0  0
 35 38  1  0  0  0  0
 36 45  1  0  0  0  0
 37 68  1  0  0  0  0
 38 40  1  0  0  0  0
 39 41  1  0  0  0  0
 39 42  1  0  0  0  0
 40 44  1  0  0  0  0
 41 46  1  0  0  0  0
 42 69  1  0  0  0  0
 43 46  1  0  0  0  0
 43 69  1  0  0  0  0
 44 72  1  0  0  0  0
 45 68  1  0  0  0  0
 46 66  1  0  0  0  0
 48 60  1  0  0  0  0
 49 61  1  0  0  0  0
 50 61  1  0  0  0  0
 51 62  1  0  0  0  0
 52 62  1  0  0  0  0
 53 62  1  0  0  0  0
 54 74  1  0  0  0  0
 55 56  1  0  0  0  0
 55 57  1  0  0  0  0
 56 58  1  0  0  0  0
 57 67  1  0  0  0  0
 58 81  1  0  0  0  0
 59 62  1  0  0  0  0
 59 73  1  0  0  0  0
 60 74  1  0  0  0  0
 63 66  1  0  0  0  0
 64 65  1  0  0  0  0
M  CHG  1  74   1
M  ISO  4  33 100  58 101  61 100  81 101
M  END
> <Batch ID>
0071

> <Smiles>
CNC(C)C(=O)NC(C(=O)N1Cc2cc([101O:1][101CH2:1]CCCn3c(C)nnc3[100C:0](C)(C)[100C:0](=O)N3CCCC(n4nc(-c5ccc(Oc6ccc(F)cc6F)cc5)c(C(N)=O)c4N)C3)ccc2CC1C(=O)NC1CCCc2ccccc21)C(C)(C)C

> <Shape>
0.252

> <Color>
0.071

> <Negative vol penalty>
0.000

$$$$

  -OEChem-04052318223D

 85 93  0     1  0  0  0  0  0999 V2000
  -29.2347  -23.7247   17.8097 C   0  0  0  0  0  0  0  0  0  0  0  0
  -27.9528  -23.9841   18.2839 C   0  0  0  0  0  0  0  0  0  0  0  0
  -28.3488  -15.0837   21.3516 C   0  0  0  0  0  0  0  0  0  0  0  0
  -26.2123  -15.7311   20.4279 C   0  0  0  0  0  0  0  0  0  0  0  0
  -30.3427  -24.2379   18.4826 C   0  0  0  0  0  0  0  0  0  0  0  0
  -27.7782  -24.7560   19.4319 C   0  0  0  0  0  0  0  0  0  0  0  0
  -24.1068  -28.2053   18.9139 C   0  0  0  0  0  0  0  0  0  0  0  0
  -27.9126  -13.7614   21.4337 C   0  0  0  0  0  0  0  0  0  0  0  0
  -25.7761  -14.4087   20.5099 C   0  0  0  0  0  0  0  0  0  0  0  0
  -22.7914  -27.7565   19.0244 C   0  0  0  0  0  0  0  0  0  0  0  0
  -27.5149  -11.1353   19.3412 C   0  0  0  0  0  0  0  0  0  0  0  0
  -28.3865  -10.1371   18.9059 C   0  0  0  0  0  0  0  0  0  0  0  0
  -22.7153  -28.5580   21.2984 C   0  0  0  0  0  0  0  0  0  0  0  0
  -28.3609   -9.1527   21.1122 C   0  0  0  0  0  0  0  0  0  0  0  0
  -19.2573  -25.4846   22.7851 C   0  0  0  0  0  0  0  0  0  0  0  0
  -27.4986  -16.0686   20.8488 C   0  0  0  0  0  0  0  0  0  0  0  0
  -28.6031  -18.0489   19.6798 C   0  0  0  0  0  0  0  0  0  0  0  0
  -30.1813  -25.0246   19.6340 C   0  0  0  0  0  0  0  0  0  0  0  0
  -24.7410  -28.8250   20.0003 C   0  0  0  0  0  0  0  0  0  0  0  0
  -28.8852  -25.2792   20.1216 C   0  0  0  0  0  0  0  0  0  0  0  0
  -24.0379  -29.0159   21.1984 C   0  0  0  0  0  0  0  0  0  0  0  0
  -26.6263  -13.4239   21.0128 C   0  0  0  0  0  0  0  0  0  0  0  0
  -22.0964  -27.9302   20.2177 C   0  0  0  0  0  0  0  0  0  0  0  0
  -27.0664  -11.1423   20.6620 C   0  0  0  0  0  0  0  0  0  0  0  0
  -28.8095   -9.1457   19.7914 C   0  0  0  0  0  0  0  0  0  0  0  0
  -27.4894  -10.1510   21.5475 C   0  0  0  0  0  0  0  0  0  0  0  0
  -27.9483  -17.4349   20.7644 C   0  0  0  0  0  0  0  0  0  0  0  0
  -19.7928  -24.9871   23.9556 C   0  0  0  0  0  0  0  0  0  0  0  0
  -19.8847  -25.0829   21.6235 C   0  0  0  0  0  0  0  0  0  0  0  0
  -28.8148  -19.3413   20.0937 C   0  0  0  0  0  0  0  0  0  0  0  0
  -21.3813  -23.8419   22.8014 C   0  0  0  0  0  0  0  0  0  0  0  0
  -28.9855  -17.5000   18.4117 C   0  0  0  0  0  0  0  0  0  0  0  0
  -27.2881  -28.1667   21.7843 C   0  0  0  0  0  0  0  0  0  0  0  0
  -26.6624  -31.0821   23.0616 C   0  0  0  0  0  0  0  0  0  0  0  0
  -24.3804  -33.5406   23.6899 C   0  0  0  0  0  0  0  0  0  0  0  0
  -26.0577  -22.8471   24.0885 C   0  0  0  0  0  0  0  0  0  0  0  0
  -31.4110  -25.5182   20.3543 C   0  0  0  0  0  0  0  0  0  0  0  0
  -26.1514  -29.3274   19.8564 C   0  0  0  0  0  0  0  0  0  0  0  0
  -24.6667  -29.6934   22.3875 C   0  0  0  0  0  0  0  0  0  0  0  0
  -31.1248  -26.6392   21.3501 C   0  0  0  0  0  0  0  0  0  0  0  0
  -29.5007  -21.9410   24.0511 C   0  0  0  0  0  0  0  0  0  0  0  0
  -29.9132  -26.2932   22.2098 C   0  0  0  0  0  0  0  0  0  0  0  0
  -29.5524  -20.7388   23.1067 C   0  0  0  0  0  0  0  0  0  0  0  0
  -28.2230  -21.9473   24.8874 C   0  0  0  0  0  0  0  0  0  0  0  0
  -27.0249  -20.6543   23.1651 C   0  0  0  0  0  0  0  0  0  0  0  0
  -28.6540  -26.1329   21.3495 C   0  0  1  0  0  0  0  0  0  0  0  0
  -26.8695  -29.4832   21.1933 C   0  0  1  0  0  0  0  0  0  0  0  0
  -28.2691  -20.6348   22.2607 C   0  0  2  0  0  0  0  0  0  0  0  0
  -19.1812  -25.3653   25.2630 C   0  0  0  0  0  0  0  0  0  0  0  0
  -24.1565  -35.7873   24.7852 C   0  0  0  0  0  0  0  0  0  0  0  0
  -24.2197  -24.7387   22.1890 C   0  0  0  0  0  0  0  0  0  0  0  0
  -26.6668  -29.7431   25.8033 C   0  0  0  0  0  0  0  0  0  0  0  0
  -25.5261  -31.7745   26.7200 C   0  0  0  0  0  0  0  0  0  0  0  0
  -27.8064  -31.9680   25.7271 C   0  0  0  0  0  0  0  0  0  0  0  0
  -23.6060  -34.8342   21.1431 C   0  0  0  0  0  0  0  0  0  0  0  0
  -22.5587  -22.9267   22.8095 C   0  0  0  0  0  0  0  0  0  0  0  0
  -20.4441  -26.3566   19.5473 C   0  0  0  0  0  0  0  0  0  1  0  0
  -25.8212  -31.5887   24.2081 C   0  0  1  0  0  0  0  0  0  0  0  0
  -24.4385  -35.0442   23.4887 C   0  0  2  0  0  0  0  0  0  0  0  0
  -23.8845  -23.6273   23.1786 C   0  0  1  0  0  0  0  0  0  0  0  0
  -19.3699  -25.5734   20.2931 C   0  0  0  0  0  0  0  0  0  0  0  0
  -26.4436  -31.2540   25.5930 C   0  0  0  0  0  0  0  0  0  0  0  0
  -27.7569  -18.2687   21.7901 N   0  0  0  0  0  0  0  0  0  0  0  0
  -20.8581  -24.1605   24.0007 N   0  0  0  0  0  0  0  0  0  0  0  0
  -20.9531  -24.2594   21.5948 N   0  0  0  0  0  0  0  0  0  0  0  0
  -28.2946  -19.4198   21.3520 N   0  0  0  0  0  0  0  0  0  0  0  0
  -26.0499  -30.1615   22.1995 N   0  0  0  0  0  0  0  0  0  0  0  0
  -27.0429  -21.8479   24.0252 N   0  0  0  0  0  0  0  0  0  0  0  0
  -29.3935  -20.4069   19.5003 N   0  0  0  0  0  0  0  0  0  0  0  0
  -28.6919  -16.1548   18.1500 N   0  0  0  0  0  0  0  0  0  0  0  0
  -28.1299  -27.4287   20.9742 N   0  0  0  0  0  0  0  0  0  0  0  0
  -25.6236  -33.0145   23.9706 N   0  0  0  0  0  0  0  0  0  0  0  0
  -24.9753  -22.6797   23.2334 N   0  0  0  0  0  0  0  0  0  0  0  0
  -23.4331  -35.4703   22.4745 N   0  3  0  0  0  0  0  0  0  0  0  0
  -29.5850  -18.1778   17.5430 O   0  0  0  0  0  0  0  0  0  0  0  0
  -26.8789  -27.8450   22.8937 O   0  0  0  0  0  0  0  0  0  0  0  0
  -27.8180  -31.4935   22.9314 O   0  0  0  0  0  0  0  0  0  0  0  0
  -23.3360  -32.8978   23.6099 O   0  0  0  0  0  0  0  0  0  0  0  0
  -26.1394  -23.8194   24.8468 O   0  0  0  0  0  0  0  0  0  0  0  0
  -26.2005  -12.1336   21.0924 O   0  0  0  0  0  0  0  0  0  0  0  0
  -20.8126  -27.4926   20.3284 O   0  0  0  0  0  0  0  0  0  1  0  0
  -29.6453   -8.1863   19.3728 F   0  0  0  0  0  0  0  0  0  0  0  0
  -27.0609  -10.1518   22.8172 F   0  0  0  0  0  0  0  0  0  0  0  0
  -18.9590  -24.5481   19.4904 F   0  0  0  0  0  0  0  0  0  0  0  0
  -18.2764  -26.3796   20.4301 F   0  0  0  0  0  0  0  0  0  0  0  0
  1  2  1  0  0  0  0
  1  5  2  0  0  0  0
  2  6  2  0  0  0  0
  3  8  2  0  0  0  0
  3 16  1  0  0  0  0
  4  9  1  0  0  0  0
  4 16  2  0  0  0  0
  5 18  1  0  0  0  0
  6 20  1  0  0  0  0
  7 10  2  0  0  0  0
  7 19  1  0  0  0  0
  8 22  1  0  0  0  0
  9 22  2  0  0  0  0
 10 23  1  0  0  0  0
 11 12  2  0  0  0  0
 11 24  1  0  0  0  0
 12 25  1  0  0  0  0
 13 21  1  0  0  0  0
 13 23  2  0  0  0  0
 14 25  2  0  0  0  0
 14 26  1  0  0  0  0
 15 28  2  0  0  0  0
 15 29  1  0  0  0  0
 16 27  1  0  0  0  0
 17 27  1  0  0  0  0
 17 30  2  0  0  0  0
 17 32  1  0  0  0  0
 18 20  2  0  0  0  0
 18 37  1  0  0  0  0
 19 21  2  0  0  0  0
 19 38  1  0  0  0  0
 20 46  1  0  0  0  0
 21 39  1  0  0  0  0
 22 80  1  0  0  0  0
 23 81  1  0  0  0  0
 24 26  2  0  0  0  0
 24 80  1  0  0  0  0
 25 82  1  0  0  0  0
 26 83  1  0  0  0  0
 27 63  2  0  0  0  0
 28 49  1  0  0  0  0
 28 64  1  0  0  0  0
 29 61  1  0  0  0  0
 29 65  2  0  0  0  0
 30 66  1  0  0  0  0
 30 69  1  0  0  0  0
 31 56  1  0  0  0  0
 31 64  2  0  0  0  0
 31 65  1  0  0  0  0
 32 70  1  0  0  0  0
 32 75  2  0  0  0  0
 33 47  1  0  0  0  0
 33 71  1  0  0  0  0
 33 76  2  0  0  0  0
 34 58  1  0  0  0  0
 34 67  1  0  0  0  0
 34 77  2  0  0  0  0
 35 59  1  0  0  0  0
 35 72  1  0  0  0  0
 35 78  2  0  0  0  0
 36 68  1  0  0  0  0
 36 73  1  0  0  0  0
 36 79  2  0  0  0  0
 37 40  1  0  0  0  0
 38 47  1  0  0  0  0
 39 67  1  0  0  0  0
 40 42  1  0  0  0  0
 41 43  1  0  0  0  0
 41 44  1  0  0  0  0
 42 46  1  0  0  0  0
 43 48  1  0  0  0  0
 44 68  1  0  0  0  0
 45 48  1  0  0  0  0
 45 68  1  0  0  0  0
 46 71  1  0  0  0  0
 47 67  1  0  0  0  0
 48 66  1  0  0  0  0
 50 59  1  0  0  0  0
 51 60  1  0  0  0  0
 52 62  1  0  0  0  0
 53 62  1  0  0  0  0
 54 62  1  0  0  0  0
 55 74  1  0  0  0  0
 56 60  1  0  0  0  0
 57 61  1  0  0  0  0
 57 81  1  0  0  0  0
 58 62  1  0  0  0  0
 58 72  1  0  0  0  0
 59 74  1  0  0  0  0
 60 73  1  0  0  0  0
 61 84  1  0  0  0  0
 61 85  1  0  0  0  0
 63 66  1  0  0  0  0
M  CHG  1  74   1
M  ISO  4  36 100  57 101  73 100  81 101
M  END
> <Batch ID>
0071

> <Smiles>
CNC(C)C(=O)NC(C(=O)N1Cc2cc([101O:1][101CH2:1]C(F)(F)c3cc(C)nc(CC(C)[100NH:0][100C:0](=O)N4CCCC(n5nc(-c6ccc(Oc7ccc(F)cc7F)cc6)c(C(N)=O)c5N)C4)n3)ccc2CC1C(=O)NC1CCCc2ccccc21)C(C)(C)C

> <Shape>
0.266

> <Color>
0.066

> <Negative vol penalty>
0.000

$$$$

  -OEChem-04052318223D

 87 96  0     1  0  0  0  0  0999 V2000
  -31.9144  -25.5970   21.1811 C   0  0  0  0  0  0  0  0  0  0  0  0
  -30.6795  -25.4247   20.5642 C   0  0  0  0  0  0  0  0  0  0  0  0
  -23.5987  -14.3964   19.9046 C   0  0  0  0  0  0  0  0  0  0  0  0
  -25.1760  -14.9503   21.6488 C   0  0  0  0  0  0  0  0  0  0  0  0
  -31.9937  -26.2535   22.4086 C   0  0  0  0  0  0  0  0  0  0  0  0
  -29.5228  -25.9079   21.1751 C   0  0  0  0  0  0  0  0  0  0  0  0
  -23.1138  -28.6859   19.5862 C   0  0  0  0  0  0  0  0  0  0  0  0
  -24.0384  -13.0729   19.9273 C   0  0  0  0  0  0  0  0  0  0  0  0
  -25.6157  -13.6267   21.6715 C   0  0  0  0  0  0  0  0  0  0  0  0
  -21.7602  -28.4986   19.8628 C   0  0  0  0  0  0  0  0  0  0  0  0
  -24.4945   -9.4694   19.7779 C   0  0  0  0  0  0  0  0  0  0  0  0
  -23.5274   -8.4644   19.7605 C   0  0  0  0  0  0  0  0  0  0  0  0
  -22.0275  -29.6866   21.9451 C   0  0  0  0  0  0  0  0  0  0  0  0
  -22.6029   -9.3183   21.8229 C   0  0  0  0  0  0  0  0  0  0  0  0
  -21.3036  -24.2741   20.6768 C   0  0  0  0  0  0  0  0  0  0  0  0
  -24.1675  -15.3351   20.7654 C   0  0  0  0  0  0  0  0  0  0  0  0
  -22.6735  -17.2663   21.5044 C   0  0  0  0  0  0  0  0  0  0  0  0
  -30.8386  -26.7535   23.0301 C   0  0  0  0  0  0  0  0  0  0  0  0
  -23.9382  -29.3666   20.4937 C   0  0  0  0  0  0  0  0  0  0  0  0
  -29.5865  -26.5705   22.4126 C   0  0  0  0  0  0  0  0  0  0  0  0
  -23.3907  -29.8835   21.6766 C   0  0  0  0  0  0  0  0  0  0  0  0
  -25.0469  -12.6880   20.8107 C   0  0  0  0  0  0  0  0  0  0  0  0
  -21.2175  -28.9965   21.0437 C   0  0  0  0  0  0  0  0  0  0  0  0
  -24.5158  -10.3989   20.8178 C   0  0  0  0  0  0  0  0  0  0  0  0
  -22.5816   -8.3888   20.7830 C   0  0  0  0  0  0  0  0  0  0  0  0
  -23.5700  -10.3233   21.8403 C   0  0  0  0  0  0  0  0  0  0  0  0
  -23.7141  -16.7026   20.7421 C   0  0  0  0  0  0  0  0  0  0  0  0
  -21.2055  -23.6949   21.9105 C   0  0  0  0  0  0  0  0  0  0  0  0
  -22.6395  -18.5838   21.1179 C   0  0  0  0  0  0  0  0  0  0  0  0
  -19.3380  -25.8752   23.0540 C   0  0  0  0  0  0  0  0  0  0  0  0
  -23.3412  -23.7040   21.3280 C   0  0  0  0  0  0  0  0  0  0  0  0
  -19.5339  -27.6727   22.0110 C   0  0  0  0  0  0  0  0  0  1  0  0
  -21.8144  -16.6537   22.4752 C   0  0  0  0  0  0  0  0  0  0  0  0
  -26.5052  -28.5990   22.2039 C   0  0  0  0  0  0  0  0  0  0  0  0
  -26.4742  -31.7566   22.9461 C   0  0  0  0  0  0  0  0  0  0  0  0
  -25.3481  -23.3334   19.9371 C   0  0  0  0  0  0  0  0  0  0  0  0
  -24.6815  -34.6453   23.2438 C   0  0  0  0  0  0  0  0  0  0  0  0
  -30.9686  -27.4146   24.3795 C   0  0  0  0  0  0  0  0  0  0  0  0
  -25.3905  -29.5835   20.1682 C   0  0  0  0  0  0  0  0  0  0  0  0
  -24.2286  -30.6391   22.6743 C   0  0  0  0  0  0  0  0  0  0  0  0
  -29.7400  -28.2270   24.7806 C   0  0  0  0  0  0  0  0  0  0  0  0
  -24.9175  -20.9600   17.2874 C   0  0  0  0  0  0  0  0  0  0  0  0
  -28.4653  -27.4301   24.5221 C   0  0  0  0  0  0  0  0  0  0  0  0
  -24.5101  -19.6795   18.0151 C   0  0  0  0  0  0  0  0  0  0  0  0
  -25.9162  -21.7732   18.1049 C   0  0  0  0  0  0  0  0  0  0  0  0
  -25.0385  -20.8237   20.2143 C   0  0  0  0  0  0  0  0  0  0  0  0
  -28.3122  -27.1024   23.0319 C   0  0  1  0  0  0  0  0  0  0  0  0
  -26.2472  -29.8441   21.4033 C   0  0  1  0  0  0  0  0  0  0  0  0
  -24.0068  -19.9877   19.4364 C   0  0  2  0  0  0  0  0  0  0  0  0
  -24.9219  -37.0533   23.9081 C   0  0  0  0  0  0  0  0  0  0  0  0
  -25.5654  -24.6937   21.9828 C   0  0  0  0  0  0  0  0  0  0  0  0
  -26.5245  -30.9382   25.8851 C   0  0  0  0  0  0  0  0  0  0  0  0
  -25.8129  -33.2654   26.4733 C   0  0  0  0  0  0  0  0  0  0  0  0
  -27.9908  -32.8833   25.3186 C   0  0  0  0  0  0  0  0  0  0  0  0
  -22.8475  -22.7065   23.5359 C   0  0  0  0  0  0  0  0  0  0  0  0
  -16.8131  -25.7838   23.4301 C   0  0  0  0  0  0  0  0  0  0  0  0
  -23.8856  -35.5875   20.5535 C   0  0  0  0  0  0  0  0  0  0  0  0
  -19.9965  -23.4333   22.7752 C   0  0  0  0  0  0  0  0  0  0  0  0
  -19.6731  -24.6022   23.7335 C   0  0  0  0  0  0  0  0  0  0  0  0
  -25.8362  -32.5943   24.0278 C   0  0  1  0  0  0  0  0  0  0  0  0
  -24.9586  -36.0571   22.7596 C   0  0  2  0  0  0  0  0  0  0  0  0
  -24.8130  -23.5144   21.3353 C   0  0  1  0  0  0  0  0  0  0  0  0
  -26.5255  -32.4045   25.4085 C   0  0  0  0  0  0  0  0  0  0  0  0
  -24.2988  -17.5894   19.9323 N   0  0  0  0  0  0  0  0  0  0  0  0
  -20.2692  -26.6890   22.4751 N   0  0  0  0  0  0  0  0  0  0  0  0
  -18.2258  -27.4448   22.3056 N   0  0  0  0  0  0  0  0  0  0  0  0
  -22.4810  -23.3515   22.2889 N   0  0  0  0  0  0  0  0  0  0  0  0
  -23.6233  -18.7237   20.1836 N   0  0  0  0  0  0  0  0  0  0  0  0
  -18.0727  -26.2933   22.9773 N   0  0  0  0  0  0  0  0  0  0  0  0
  -22.6361  -24.2667   20.3413 N   0  3  0  0  0  0  0  0  0  0  0  0
  -25.6445  -30.8198   22.3137 N   0  0  0  0  0  0  0  0  0  0  0  0
  -25.4109  -22.0258   19.4555 N   0  0  0  0  0  0  0  0  0  0  0  0
  -21.8643  -19.6248   21.4893 N   0  0  0  0  0  0  0  0  0  0  0  0
  -21.9850  -15.2906   22.7528 N   0  0  0  0  0  0  0  0  0  0  0  0
  -27.8415  -28.2620   22.3051 N   0  0  0  0  0  0  0  0  0  0  0  0
  -25.8462  -33.9689   23.5390 N   0  0  0  0  0  0  0  0  0  0  0  0
  -23.9425  -36.4670   21.7494 N   0  3  0  0  0  0  0  0  0  0  0  0
  -20.9111  -17.2923   23.0666 O   0  0  0  0  0  0  0  0  0  0  0  0
  -25.5618  -27.9900   22.6948 O   0  0  0  0  0  0  0  0  0  0  0  0
  -27.6629  -31.9320   22.6675 O   0  0  0  0  0  0  0  0  0  0  0  0
  -25.6966  -24.3262   19.2927 O   0  0  0  0  0  0  0  0  0  0  0  0
  -23.5454  -34.1895   23.3530 O   0  0  0  0  0  0  0  0  0  0  0  0
  -25.4760  -11.3966   20.8332 O   0  0  0  0  0  0  0  0  0  0  0  0
  -19.8967  -28.8145   21.3164 O   0  0  0  0  0  0  0  0  0  1  0  0
  -21.6521   -7.4246   20.7653 F   0  0  0  0  0  0  0  0  0  0  0  0
  -23.5847  -11.2141   22.8413 F   0  0  0  0  0  0  0  0  0  0  0  0
  -25.2148  -22.4063   22.0592 F   0  0  0  0  0  0  0  0  0  0  0  0
  1  2  1  0  0  0  0
  1  5  2  0  0  0  0
  2  6  2  0  0  0  0
  3  8  2  0  0  0  0
  3 16  1  0  0  0  0
  4  9  1  0  0  0  0
  4 16  2  0  0  0  0
  5 18  1  0  0  0  0
  6 20  1  0  0  0  0
  7 10  2  0  0  0  0
  7 19  1  0  0  0  0
  8 22  1  0  0  0  0
  9 22  2  0  0  0  0
 10 23  1  0  0  0  0
 11 12  2  0  0  0  0
 11 24  1  0  0  0  0
 12 25  1  0  0  0  0
 13 21  1  0  0  0  0
 13 23  2  0  0  0  0
 14 25  2  0  0  0  0
 14 26  1  0  0  0  0
 15 28  2  0  0  0  0
 15 70  1  0  0  0  0
 16 27  1  0  0  0  0
 17 27  1  0  0  0  0
 17 29  2  0  0  0  0
 17 33  1  0  0  0  0
 18 20  2  0  0  0  0
 18 38  1  0  0  0  0
 19 21  2  0  0  0  0
 19 39  1  0  0  0  0
 20 47  1  0  0  0  0
 21 40  1  0  0  0  0
 22 83  1  0  0  0  0
 23 84  1  0  0  0  0
 24 26  2  0  0  0  0
 24 83  1  0  0  0  0
 25 85  1  0  0  0  0
 26 86  1  0  0  0  0
 27 64  2  0  0  0  0
 28 58  1  0  0  0  0
 28 67  1  0  0  0  0
 29 68  1  0  0  0  0
 29 73  1  0  0  0  0
 30 59  1  0  0  0  0
 30 65  2  0  0  0  0
 30 69  1  0  0  0  0
 31 62  1  0  0  0  0
 31 67  1  0  0  0  0
 31 70  2  0  0  0  0
 32 65  1  0  0  0  0
 32 66  2  0  0  0  0
 32 84  1  0  0  0  0
 33 74  1  0  0  0  0
 33 78  2  0  0  0  0
 34 48  1  0  0  0  0
 34 75  1  0  0  0  0
 34 79  2  0  0  0  0
 35 60  1  0  0  0  0
 35 71  1  0  0  0  0
 35 80  2  0  0  0  0
 36 62  1  0  0  0  0
 36 72  1  0  0  0  0
 36 81  2  0  0  0  0
 37 61  1  0  0  0  0
 37 76  1  0  0  0  0
 37 82  2  0  0  0  0
 38 41  1  0  0  0  0
 39 48  1  0  0  0  0
 40 71  1  0  0  0  0
 41 43  1  0  0  0  0
 42 44  1  0  0  0  0
 42 45  1  0  0  0  0
 43 47  1  0  0  0  0
 44 49  1  0  0  0  0
 45 72  1  0  0  0  0
 46 49  1  0  0  0  0
 46 72  1  0  0  0  0
 47 75  1  0  0  0  0
 48 71  1  0  0  0  0
 49 68  1  0  0  0  0
 50 61  1  0  0  0  0
 51 62  1  0  0  0  0
 52 63  1  0  0  0  0
 53 63  1  0  0  0  0
 54 63  1  0  0  0  0
 55 67  1  0  0  0  0
 56 69  1  0  0  0  0
 57 77  1  0  0  0  0
 58 59  1  0  0  0  0
 60 63  1  0  0  0  0
 60 76  1  0  0  0  0
 61 77  1  0  0  0  0
 62 87  1  0  0  0  0
 64 68  1  0  0  0  0
 66 69  1  0  0  0  0
M  CHG  2  70   1  77   1
M  ISO  4  32 101  36 100  62 100  84 101
M  END
> <Batch ID>
0071

> <Smiles>
CNC(C)C(=O)NC(C(=O)N1Cc2cc([101O:1][101c:1]3nc(CCc4cnc([100C:0](C)(F)[100C:0](=O)N5CCCC(n6nc(-c7ccc(Oc8ccc(F)cc8F)cc7)c(C(N)=O)c6N)C5)n4C)n(C)n3)ccc2CC1C(=O)NC1CCCc2ccccc21)C(C)(C)C

> <Shape>
0.240

> <Color>
0.069

> <Negative vol penalty>
0.000

$$$$

  -OEChem-04052318223D

 85 93  0     1  0  0  0  0  0999 V2000
  -31.7321  -30.5648   21.1421 C   0  0  0  0  0  0  0  0  0  0  0  0
  -31.5101  -29.1977   21.2737 C   0  0  0  0  0  0  0  0  0  0  0  0
  -23.9645  -10.0721   22.6045 C   0  0  0  0  0  0  0  0  0  0  0  0
  -24.3970  -11.8181   24.2173 C   0  0  0  0  0  0  0  0  0  0  0  0
  -30.9910  -31.4668   21.9044 C   0  0  0  0  0  0  0  0  0  0  0  0
  -30.5476  -28.7318   22.1686 C   0  0  0  0  0  0  0  0  0  0  0  0
  -26.9510  -23.8229   21.4810 C   0  0  0  0  0  0  0  0  0  0  0  0
  -23.4956   -9.2453   23.6253 C   0  0  0  0  0  0  0  0  0  0  0  0
  -23.9280  -10.9913   25.2382 C   0  0  0  0  0  0  0  0  0  0  0  0
  -27.0395  -22.5196   21.9681 C   0  0  0  0  0  0  0  0  0  0  0  0
  -20.6651   -8.8895   25.4406 C   0  0  0  0  0  0  0  0  0  0  0  0
  -19.4823   -8.1862   25.2133 C   0  0  0  0  0  0  0  0  0  0  0  0
  -25.5773  -23.1092   23.7939 C   0  0  0  0  0  0  0  0  0  0  0  0
  -28.2683  -16.0382   22.2895 C   0  0  0  0  0  0  0  0  0  0  0  0
  -20.6612   -6.1012   25.5294 C   0  0  0  0  0  0  0  0  0  0  0  0
  -28.1502  -17.5688   20.6422 C   0  0  0  0  0  0  0  0  0  0  0  0
  -24.4153  -11.3585   22.9005 C   0  0  0  0  0  0  0  0  0  0  0  0
  -24.1491  -13.1159   21.0707 C   0  0  0  0  0  0  0  0  0  0  0  0
  -30.0122  -31.0121   22.8020 C   0  0  0  0  0  0  0  0  0  0  0  0
  -26.1824  -24.7836   22.1538 C   0  0  0  0  0  0  0  0  0  0  0  0
  -29.7936  -29.6285   22.9446 C   0  0  0  0  0  0  0  0  0  0  0  0
  -25.4786  -24.4233   23.3118 C   0  0  0  0  0  0  0  0  0  0  0  0
  -27.4363  -17.0086   21.6785 C   0  0  0  0  0  0  0  0  0  0  0  0
  -23.4773   -9.7049   24.9421 C   0  0  0  0  0  0  0  0  0  0  0  0
  -26.3549  -22.1633   23.1264 C   0  0  0  0  0  0  0  0  0  0  0  0
  -21.8461   -8.1987   25.7122 C   0  0  0  0  0  0  0  0  0  0  0  0
  -19.4803   -6.7921   25.2577 C   0  0  0  0  0  0  0  0  0  0  0  0
  -21.8441   -6.8046   25.7567 C   0  0  0  0  0  0  0  0  0  0  0  0
  -24.9003  -12.2129   21.8465 C   0  0  0  0  0  0  0  0  0  0  0  0
  -29.4654  -16.0351   21.6080 C   0  0  0  0  0  0  0  0  0  0  0  0
  -25.0652  -13.6793   20.2164 C   0  0  0  0  0  0  0  0  0  0  0  0
  -22.7484  -13.4185   21.1180 C   0  0  0  0  0  0  0  0  0  0  0  0
  -26.8040  -27.5534   23.5841 C   0  0  0  0  0  0  0  0  0  0  0  0
  -23.5741  -27.6966   23.8478 C   0  0  0  0  0  0  0  0  0  0  0  0
  -31.0193  -14.3870   20.6168 C   0  0  0  0  0  0  0  0  0  0  0  0
  -20.5997  -26.0272   23.9616 C   0  0  0  0  0  0  0  0  0  0  0  0
  -29.2692  -32.0230   23.6391 C   0  0  0  0  0  0  0  0  0  0  0  0
  -26.0757  -26.1782   21.6006 C   0  0  0  0  0  0  0  0  0  0  0  0
  -24.6235  -25.4121   24.0600 C   0  0  0  0  0  0  0  0  0  0  0  0
  -28.0069  -31.4643   24.2909 C   0  0  0  0  0  0  0  0  0  0  0  0
  -29.1948  -12.7529   18.0012 C   0  0  0  0  0  0  0  0  0  0  0  0
  -28.2926  -30.1112   24.9345 C   0  0  0  0  0  0  0  0  0  0  0  0
  -27.8278  -12.4858   18.6298 C   0  0  0  0  0  0  0  0  0  0  0  0
  -30.3158  -12.6275   19.0282 C   0  0  0  0  0  0  0  0  0  0  0  0
  -28.7688  -13.2269   20.8638 C   0  0  0  0  0  0  0  0  0  0  0  0
  -28.7411  -29.0855   23.8866 C   0  0  1  0  0  0  0  0  0  0  0  0
  -25.6769  -27.2093   22.6519 C   0  0  1  0  0  0  0  0  0  0  0  0
  -27.6054  -13.3735   19.8671 C   0  0  2  0  0  0  0  0  0  0  0  0
  -18.1336  -26.4118   24.2221 C   0  0  0  0  0  0  0  0  0  0  0  0
  -26.7229  -18.1295   24.4784 C   0  0  0  0  0  0  0  0  0  0  0  0
  -25.3507  -16.0946   22.7033 C   0  0  0  0  0  0  0  0  0  0  0  0
  -25.0953  -17.7631   20.8936 C   0  0  0  0  0  0  0  0  0  0  0  0
  -30.4944  -14.2326   23.0168 C   0  0  0  0  0  0  0  0  0  0  0  0
  -32.0027  -16.0017   22.1060 C   0  0  0  0  0  0  0  0  0  0  0  0
  -23.9637  -28.1524   26.8395 C   0  0  0  0  0  0  0  0  0  0  0  0
  -21.5484  -27.5825   27.1702 C   0  0  0  0  0  0  0  0  0  0  0  0
  -22.1835  -29.5627   25.7925 C   0  0  0  0  0  0  0  0  0  0  0  0
  -30.4239  -17.2874   19.6570 C   0  0  0  0  0  0  0  0  0  0  0  0
  -20.0206  -24.8722   21.2990 C   0  0  0  0  0  0  0  0  0  0  0  0
  -26.6413  -19.8511   22.6492 C   0  0  0  0  0  0  0  0  0  1  0  0
  -22.5637  -27.2390   24.8719 C   0  0  1  0  0  0  0  0  0  0  0  0
  -19.2849  -26.2615   23.2399 C   0  0  2  0  0  0  0  0  0  0  0  0
  -26.0202  -18.5379   23.1677 C   0  0  1  0  0  0  0  0  0  0  0  0
  -25.9906  -17.3730   22.0971 C   0  0  0  0  0  0  0  0  0  0  0  0
  -30.6785  -15.2202   21.8265 C   0  0  0  0  0  0  0  0  0  0  0  0
  -22.5824  -28.1158   26.1557 C   0  0  0  0  0  0  0  0  0  0  0  0
  -26.1940  -12.1999   21.5144 N   0  0  0  0  0  0  0  0  0  0  0  0
  -29.3823  -16.9696   20.6091 N   0  0  0  0  0  0  0  0  0  0  0  0
  -26.2628  -13.1017   20.5204 N   0  0  0  0  0  0  0  0  0  0  0  0
  -24.5562  -26.7648   23.4829 N   0  0  0  0  0  0  0  0  0  0  0  0
  -30.0563  -13.4687   20.1979 N   0  0  0  0  0  0  0  0  0  0  0  0
  -24.9552  -14.6073   19.2422 N   0  0  0  0  0  0  0  0  0  0  0  0
  -21.9515  -12.7483   22.0561 N   0  0  0  0  0  0  0  0  0  0  0  0
  -27.6020  -28.5917   23.1429 N   0  0  0  0  0  0  0  0  0  0  0  0
  -21.2752  -27.2077   24.1884 N   0  0  0  0  0  0  0  0  0  0  0  0
  -18.9818  -25.1194   22.3318 N   0  3  0  0  0  0  0  0  0  0  0  0
  -22.2163  -14.2463   20.3401 O   0  0  0  0  0  0  0  0  0  0  0  0
  -26.9388  -26.9245   24.6272 O   0  0  0  0  0  0  0  0  0  0  0  0
  -23.4907  -28.8363   23.3833 O   0  0  0  0  0  0  0  0  0  0  0  0
  -32.1082  -14.5508   20.0603 O   0  0  0  0  0  0  0  0  0  0  0  0
  -20.9869  -24.9092   24.2944 O   0  0  0  0  0  0  0  0  0  0  0  0
  -23.0195   -8.8984   25.9385 O   0  0  0  0  0  0  0  0  0  0  0  0
  -26.4401  -20.8921   23.6044 O   0  0  0  0  0  0  0  0  0  1  0  0
  -18.3439   -6.1168   25.0410 F   0  0  0  0  0  0  0  0  0  0  0  0
  -22.9753   -6.1354   26.0184 F   0  0  0  0  0  0  0  0  0  0  0  0
  1  2  1  0  0  0  0
  1  5  2  0  0  0  0
  2  6  2  0  0  0  0
  3  8  2  0  0  0  0
  3 17  1  0  0  0  0
  4  9  1  0  0  0  0
  4 17  2  0  0  0  0
  5 19  1  0  0  0  0
  6 21  1  0  0  0  0
  7 10  2  0  0  0  0
  7 20  1  0  0  0  0
  8 24  1  0  0  0  0
  9 24  2  0  0  0  0
 10 25  1  0  0  0  0
 11 12  2  0  0  0  0
 11 26  1  0  0  0  0
 12 27  1  0  0  0  0
 13 22  1  0  0  0  0
 13 25  2  0  0  0  0
 14 23  1  0  0  0  0
 14 30  2  0  0  0  0
 15 27  2  0  0  0  0
 15 28  1  0  0  0  0
 16 23  2  0  0  0  0
 16 68  1  0  0  0  0
 17 29  1  0  0  0  0
 18 29  1  0  0  0  0
 18 31  2  0  0  0  0
 18 32  1  0  0  0  0
 19 21  2  0  0  0  0
 19 37  1  0  0  0  0
 20 22  2  0  0  0  0
 20 38  1  0  0  0  0
 21 46  1  0  0  0  0
 22 39  1  0  0  0  0
 23 64  1  0  0  0  0
 24 82  1  0  0  0  0
 25 83  1  0  0  0  0
 26 28  2  0  0  0  0
 26 82  1  0  0  0  0
 27 84  1  0  0  0  0
 28 85  1  0  0  0  0
 29 67  2  0  0  0  0
 30 65  1  0  0  0  0
 30 68  1  0  0  0  0
 31 69  1  0  0  0  0
 31 72  1  0  0  0  0
 32 73  1  0  0  0  0
 32 77  2  0  0  0  0
 33 47  1  0  0  0  0
 33 74  1  0  0  0  0
 33 78  2  0  0  0  0
 34 61  1  0  0  0  0
 34 70  1  0  0  0  0
 34 79  2  0  0  0  0
 35 65  1  0  0  0  0
 35 71  1  0  0  0  0
 35 80  2  0  0  0  0
 36 62  1  0  0  0  0
 36 75  1  0  0  0  0
 36 81  2  0  0  0  0
 37 40  1  0  0  0  0
 38 47  1  0  0  0  0
 39 70  1  0  0  0  0
 40 42  1  0  0  0  0
 41 43  1  0  0  0  0
 41 44  1  0  0  0  0
 42 46  1  0  0  0  0
 43 48  1  0  0  0  0
 44 71  1  0  0  0  0
 45 48  1  0  0  0  0
 45 71  1  0  0  0  0
 46 74  1  0  0  0  0
 47 70  1  0  0  0  0
 48 69  1  0  0  0  0
 49 62  1  0  0  0  0
 50 63  1  0  0  0  0
 51 64  1  0  0  0  0
 52 64  1  0  0  0  0
 53 65  1  0  0  0  0
 54 65  1  0  0  0  0
 55 66  1  0  0  0  0
 56 66  1  0  0  0  0
 57 66  1  0  0  0  0
 58 68  1  0  0  0  0
 59 76  1  0  0  0  0
 60 63  1  0  0  0  0
 60 83  1  0  0  0  0
 61 66  1  0  0  0  0
 61 75  1  0  0  0  0
 62 76  1  0  0  0  0
 63 64  1  0  0  0  0
 67 69  1  0  0  0  0
M  CHG  1  76   1
M  ISO  4  35 100  60 101  65 100  83 101
M  END
> <Batch ID>
0071

> <Smiles>
CNC(C)C(=O)NC(C(=O)N1Cc2cc([101O:1][101CH2:1]C(C)C(C)(C)c3cc([100C:0](C)(C)[100C:0](=O)N4CCCC(n5nc(-c6ccc(Oc7ccc(F)cc7F)cc6)c(C(N)=O)c5N)C4)n(C)c3)ccc2CC1C(=O)NC1CCCc2ccccc21)C(C)(C)C

> <Shape>
0.186

> <Color>
0.120

> <Negative vol penalty>
0.000

$$$$

  -OEChem-04052318223D

 89 97  0     1  0  0  0  0  0999 V2000
  -27.9293  -34.5529   25.0067 C   0  0  0  0  0  0  0  0  0  0  0  0
  -28.1105  -33.2495   24.5552 C   0  0  0  0  0  0  0  0  0  0  0  0
  -23.3430  -14.3118   20.4178 C   0  0  0  0  0  0  0  0  0  0  0  0
  -25.5867  -14.9096   21.0852 C   0  0  0  0  0  0  0  0  0  0  0  0
  -26.6528  -35.0017   25.3431 C   0  0  0  0  0  0  0  0  0  0  0  0
  -27.0155  -32.3938   24.4410 C   0  0  0  0  0  0  0  0  0  0  0  0
  -27.0287  -29.7913   20.0968 C   0  0  0  0  0  0  0  0  0  0  0  0
  -23.7482  -12.9889   20.2406 C   0  0  0  0  0  0  0  0  0  0  0  0
  -25.9919  -13.5867   20.9080 C   0  0  0  0  0  0  0  0  0  0  0  0
  -27.8853  -28.6944   20.0143 C   0  0  0  0  0  0  0  0  0  0  0  0
  -24.1076   -9.3824   19.9597 C   0  0  0  0  0  0  0  0  0  0  0  0
  -23.2830   -8.3781   20.4666 C   0  0  0  0  0  0  0  0  0  0  0  0
  -26.0299  -27.2194   20.4629 C   0  0  0  0  0  0  0  0  0  0  0  0
  -23.5437   -9.2864   22.6901 C   0  0  0  0  0  0  0  0  0  0  0  0
  -27.8841  -18.7257   16.7778 C   0  0  0  0  0  0  0  0  0  0  0  0
  -24.2623  -15.2722   20.8401 C   0  0  0  0  0  0  0  0  0  0  0  0
  -23.3390  -17.2233   22.1996 C   0  0  0  0  0  0  0  0  0  0  0  0
  -25.5402  -34.1540   25.2237 C   0  0  0  0  0  0  0  0  0  0  0  0
  -25.6660  -29.6109   20.3742 C   0  0  0  0  0  0  0  0  0  0  0  0
  -25.7231  -32.8313   24.7774 C   0  0  0  0  0  0  0  0  0  0  0  0
  -25.1576  -28.3154   20.5458 C   0  0  0  0  0  0  0  0  0  0  0  0
  -25.0726  -12.6263   20.4857 C   0  0  0  0  0  0  0  0  0  0  0  0
  -27.3865  -27.4084   20.2002 C   0  0  0  0  0  0  0  0  0  0  0  0
  -24.6504  -10.3386   20.8180 C   0  0  0  0  0  0  0  0  0  0  0  0
  -23.0010   -8.3301   21.8318 C   0  0  0  0  0  0  0  0  0  0  0  0
  -24.3684  -10.2906   22.1832 C   0  0  0  0  0  0  0  0  0  0  0  0
  -23.8445  -16.6390   21.0228 C   0  0  0  0  0  0  0  0  0  0  0  0
  -28.4515  -18.6206   18.0163 C   0  0  0  0  0  0  0  0  0  0  0  0
  -23.0938  -18.5303   21.8560 C   0  0  0  0  0  0  0  0  0  0  0  0
  -27.3169  -20.5201   17.9436 C   0  0  0  0  0  0  0  0  0  0  0  0
  -23.1114  -16.6370   23.4881 C   0  0  0  0  0  0  0  0  0  0  0  0
  -23.7141  -30.5162   22.7140 C   0  0  0  0  0  0  0  0  0  0  0  0
  -21.4461  -29.2025   20.8029 C   0  0  0  0  0  0  0  0  0  0  0  0
  -25.4125  -22.0575   17.5788 C   0  0  0  0  0  0  0  0  0  0  0  0
  -20.6757  -26.9937   18.3180 C   0  0  0  0  0  0  0  0  0  0  0  0
  -24.1866  -34.6693   25.6442 C   0  0  0  0  0  0  0  0  0  0  0  0
  -24.7501  -30.8026   20.4335 C   0  0  0  0  0  0  0  0  0  0  0  0
  -23.6988  -28.0666   20.8258 C   0  0  0  0  0  0  0  0  0  0  0  0
  -23.0261  -33.8163   25.1385 C   0  0  0  0  0  0  0  0  0  0  0  0
  -21.9568  -21.2773   18.1171 C   0  0  0  0  0  0  0  0  0  0  0  0
  -23.3068  -32.3364   25.3792 C   0  0  0  0  0  0  0  0  0  0  0  0
  -22.0035  -20.0357   19.0068 C   0  0  0  0  0  0  0  0  0  0  0  0
  -23.1078  -21.2904   17.1160 C   0  0  0  0  0  0  0  0  0  0  0  0
  -24.5080  -19.9259   18.6323 C   0  0  0  0  0  0  0  0  0  0  0  0
  -24.5566  -31.8808   24.6164 C   0  0  1  0  0  0  0  0  0  0  0  0
  -23.4764  -30.5383   21.2305 C   0  0  1  0  0  0  0  0  0  0  0  0
  -23.3802  -19.8886   19.6787 C   0  0  2  0  0  0  0  0  0  0  0  0
  -18.7320  -26.1156   16.9957 C   0  0  0  0  0  0  0  0  0  0  0  0
  -29.5594  -16.4026   17.5706 C   0  0  0  0  0  0  0  0  0  0  0  0
  -28.6502  -16.9163   19.8609 C   0  0  0  0  0  0  0  0  0  0  0  0
  -30.7347  -18.0095   19.0600 C   0  0  0  0  0  0  0  0  0  0  0  0
  -27.6546  -23.0057   17.9562 C   0  0  0  0  0  0  0  0  0  0  0  0
  -26.3165  -22.0034   19.8106 C   0  0  0  0  0  0  0  0  0  0  0  0
  -20.5770  -27.5251   23.1989 C   0  0  0  0  0  0  0  0  0  0  0  0
  -19.3280  -26.0395   21.6175 C   0  0  0  0  0  0  0  0  0  0  0  0
  -18.6956  -28.4431   21.8307 C   0  0  0  0  0  0  0  0  0  0  0  0
  -29.9199  -21.4236   21.7563 C   0  0  0  0  0  0  0  0  0  0  0  0
  -30.2719  -21.6818   19.2955 C   0  0  0  0  0  0  0  0  0  0  0  0
  -21.8325  -27.9459   15.7657 C   0  0  0  0  0  0  0  0  0  0  0  0
  -28.7377  -23.9928   20.2130 C   0  0  0  0  0  0  0  0  0  0  0  0
  -28.1730  -22.5818   20.4044 C   0  0  0  0  0  0  0  0  0  0  0  0
  -28.4813  -20.0640   20.1401 C   0  0  0  0  0  0  0  0  0  0  0  0
  -27.6422  -25.0471   20.3219 C   0  0  0  0  0  0  0  0  0  1  0  0
  -20.8439  -27.8268   20.6487 C   0  0  1  0  0  0  0  0  0  0  0  0
  -19.8479  -27.1472   17.0548 C   0  0  2  0  0  0  0  0  0  0  0  0
  -29.2983  -17.5671   18.5890 C   0  0  0  0  0  0  0  0  0  0  0  0
  -26.7093  -21.8230   18.3118 C   0  0  0  0  0  0  0  0  0  0  0  0
  -19.8890  -27.4631   21.8206 C   0  0  0  0  0  0  0  0  0  0  0  0
  -29.2131  -21.4181   20.3829 C   0  0  0  0  0  0  0  0  0  0  0  0
  -23.9166  -17.5038   20.0075 N   0  0  0  0  0  0  0  0  0  0  0  0
  -28.0844  -19.7446   18.7163 N   0  0  0  0  0  0  0  0  0  0  0  0
  -23.4530  -18.6449   20.5453 N   0  0  0  0  0  0  0  0  0  0  0  0
  -27.1879  -19.9102   16.7609 N   0  3  0  0  0  0  0  0  0  0  0  0
  -22.8447  -29.2645   20.8804 N   0  0  0  0  0  0  0  0  0  0  0  0
  -24.3962  -21.1257   17.7912 N   0  0  0  0  0  0  0  0  0  0  0  0
  -22.6080  -19.5813   22.5502 N   0  0  0  0  0  0  0  0  0  0  0  0
  -23.4181  -15.2814   23.6689 N   0  0  0  0  0  0  0  0  0  0  0  0
  -24.2509  -31.6868   23.2152 N   0  0  0  0  0  0  0  0  0  0  0  0
  -20.2122  -27.8027   19.3338 N   0  0  0  0  0  0  0  0  0  0  0  0
  -20.7071  -26.9797   15.8488 N   0  3  0  0  0  0  0  0  0  0  0  0
  -22.6345  -17.2917   24.4460 O   0  0  0  0  0  0  0  0  0  0  0  0
  -23.4302  -29.5122   23.3566 O   0  0  0  0  0  0  0  0  0  0  0  0
  -20.7034  -30.1864   20.8456 O   0  0  0  0  0  0  0  0  0  0  0  0
  -25.3067  -23.0416   16.8422 O   0  0  0  0  0  0  0  0  0  0  0  0
  -21.6351  -26.2296   18.3969 O   0  0  0  0  0  0  0  0  0  0  0  0
  -25.4683  -11.3355   20.3131 O   0  0  0  0  0  0  0  0  0  0  0  0
  -28.2205  -26.3360   20.1209 O   0  0  0  0  0  0  0  0  0  1  0  0
  -22.2078   -7.3665   22.3182 F   0  0  0  0  0  0  0  0  0  0  0  0
  -24.8859  -11.2073   23.0125 F   0  0  0  0  0  0  0  0  0  0  0  0
  1  2  1  0  0  0  0
  1  5  2  0  0  0  0
  2  6  2  0  0  0  0
  3  8  2  0  0  0  0
  3 16  1  0  0  0  0
  4  9  1  0  0  0  0
  4 16  2  0  0  0  0
  5 18  1  0  0  0  0
  6 20  1  0  0  0  0
  7 10  2  0  0  0  0
  7 19  1  0  0  0  0
  8 22  1  0  0  0  0
  9 22  2  0  0  0  0
 10 23  1  0  0  0  0
 11 12  2  0  0  0  0
 11 24  1  0  0  0  0
 12 25  1  0  0  0  0
 13 21  1  0  0  0  0
 13 23  2  0  0  0  0
 14 25  2  0  0  0  0
 14 26  1  0  0  0  0
 15 28  2  0  0  0  0
 15 73  1  0  0  0  0
 16 27  1  0  0  0  0
 17 27  1  0  0  0  0
 17 29  2  0  0  0  0
 17 31  1  0  0  0  0
 18 20  2  0  0  0  0
 18 36  1  0  0  0  0
 19 21  2  0  0  0  0
 19 37  1  0  0  0  0
 20 45  1  0  0  0  0
 21 38  1  0  0  0  0
 22 86  1  0  0  0  0
 23 87  1  0  0  0  0
 24 26  2  0  0  0  0
 24 86  1  0  0  0  0
 25 88  1  0  0  0  0
 26 89  1  0  0  0  0
 27 70  2  0  0  0  0
 28 66  1  0  0  0  0
 28 71  1  0  0  0  0
 29 72  1  0  0  0  0
 29 76  1  0  0  0  0
 30 67  1  0  0  0  0
 30 71  1  0  0  0  0
 30 73  2  0  0  0  0
 31 77  1  0  0  0  0
 31 81  2  0  0  0  0
 32 46  1  0  0  0  0
 32 78  1  0  0  0  0
 32 82  2  0  0  0  0
 33 64  1  0  0  0  0
 33 74  1  0  0  0  0
 33 83  2  0  0  0  0
 34 67  1  0  0  0  0
 34 75  1  0  0  0  0
 34 84  2  0  0  0  0
 35 65  1  0  0  0  0
 35 79  1  0  0  0  0
 35 85  2  0  0  0  0
 36 39  1  0  0  0  0
 37 46  1  0  0  0  0
 38 74  1  0  0  0  0
 39 41  1  0  0  0  0
 40 42  1  0  0  0  0
 40 43  1  0  0  0  0
 41 45  1  0  0  0  0
 42 47  1  0  0  0  0
 43 75  1  0  0  0  0
 44 47  1  0  0  0  0
 44 75  1  0  0  0  0
 45 78  1  0  0  0  0
 46 74  1  0  0  0  0
 47 72  1  0  0  0  0
 48 65  1  0  0  0  0
 49 66  1  0  0  0  0
 50 66  1  0  0  0  0
 51 66  1  0  0  0  0
 52 67  1  0  0  0  0
 53 67  1  0  0  0  0
 54 68  1  0  0  0  0
 55 68  1  0  0  0  0
 56 68  1  0  0  0  0
 57 69  1  0  0  0  0
 58 69  1  0  0  0  0
 59 80  1  0  0  0  0
 60 61  1  0  0  0  0
 60 63  1  0  0  0  0
 61 69  1  0  0  0  0
 62 69  1  0  0  0  0
 62 71  1  0  0  0  0
 63 87  1  0  0  0  0
 64 68  1  0  0  0  0
 64 79  1  0  0  0  0
 65 80  1  0  0  0  0
 70 72  1  0  0  0  0
M  CHG  2  73   1  80   1
M  ISO  4  34 100  63 101  67 100  87 101
M  END
> <Batch ID>
0071

> <Smiles>
CNC(C)C(=O)NC(C(=O)N1Cc2cc([101O:1][101CH2:1]CCC(C)(C)Cn3c(C(C)(C)C)cnc3[100C:0](C)(C)[100C:0](=O)N3CCCC(n4nc(-c5ccc(Oc6ccc(F)cc6F)cc5)c(C(N)=O)c4N)C3)ccc2CC1C(=O)NC1CCCc2ccccc21)C(C)(C)C

> <Shape>
0.278

> <Color>
0.075

> <Negative vol penalty>
0.000

$$$$

  -OEChem-04052318223D

 94103  0     1  0  0  0  0  0999 V2000
  -31.9879  -26.7999   15.3160 C   0  0  0  0  0  0  0  0  0  0  0  0
  -31.1738  -26.0566   16.1645 C   0  0  0  0  0  0  0  0  0  0  0  0
  -22.6488  -15.7123   18.8715 C   0  0  0  0  0  0  0  0  0  0  0  0
  -24.2742  -14.8685   17.2957 C   0  0  0  0  0  0  0  0  0  0  0  0
  -32.4013  -28.0776   15.6909 C   0  0  0  0  0  0  0  0  0  0  0  0
  -30.7735  -26.5901   17.3891 C   0  0  0  0  0  0  0  0  0  0  0  0
  -25.8530  -25.8378   18.3207 C   0  0  0  0  0  0  0  0  0  0  0  0
  -26.0646  -19.7782   19.9539 C   0  0  0  0  0  0  0  0  0  0  0  0
  -27.0170  -19.2832   19.0632 C   0  0  0  0  0  0  0  0  0  0  0  0
  -21.9279  -16.2828   17.8225 C   0  0  0  0  0  0  0  0  0  0  0  0
  -23.5532  -15.4389   16.2466 C   0  0  0  0  0  0  0  0  0  0  0  0
  -25.4745  -24.5692   18.7579 C   0  0  0  0  0  0  0  0  0  0  0  0
  -19.7548  -15.2546   15.4447 C   0  0  0  0  0  0  0  0  0  0  0  0
  -18.3702  -15.0866   15.4431 C   0  0  0  0  0  0  0  0  0  0  0  0
  -25.4012  -25.3802   21.0286 C   0  0  0  0  0  0  0  0  0  0  0  0
  -27.7833  -21.0391   21.0911 C   0  0  0  0  0  0  0  0  0  0  0  0
  -18.0792  -17.4837   15.5225 C   0  0  0  0  0  0  0  0  0  0  0  0
  -30.0381  -15.5771   18.4010 C   0  0  0  0  0  0  0  0  0  0  0  0
  -23.8220  -15.0053   18.6081 C   0  0  0  0  0  0  0  0  0  0  0  0
  -24.4134  -13.1227   20.2248 C   0  0  0  0  0  0  0  0  0  0  0  0
  -31.9980  -28.6308   16.9164 C   0  0  0  0  0  0  0  0  0  0  0  0
  -26.0194  -26.8862   19.2371 C   0  0  0  0  0  0  0  0  0  0  0  0
  -31.1830  -27.8758   17.7813 C   0  0  0  0  0  0  0  0  0  0  0  0
  -25.7795  -26.6618   20.6002 C   0  0  0  0  0  0  0  0  0  0  0  0
  -26.4477  -20.6562   20.9679 C   0  0  0  0  0  0  0  0  0  0  0  0
  -28.3526  -19.6661   19.1864 C   0  0  0  0  0  0  0  0  0  0  0  0
  -22.3801  -16.1460   16.5101 C   0  0  0  0  0  0  0  0  0  0  0  0
  -25.2513  -24.3395   20.1123 C   0  0  0  0  0  0  0  0  0  0  0  0
  -20.3018  -16.5372   15.4854 C   0  0  0  0  0  0  0  0  0  0  0  0
  -28.7358  -20.5440   20.2004 C   0  0  0  0  0  0  0  0  0  0  0  0
  -17.5324  -16.2011   15.4819 C   0  0  0  0  0  0  0  0  0  0  0  0
  -19.4640  -17.6517   15.5242 C   0  0  0  0  0  0  0  0  0  0  0  0
  -24.5675  -14.4163   19.6914 C   0  0  0  0  0  0  0  0  0  0  0  0
  -30.3824  -16.1032   19.6606 C   0  0  0  0  0  0  0  0  0  0  0  0
  -29.5999  -16.6632   17.6834 C   0  0  0  0  0  0  0  0  0  0  0  0
  -25.3494  -13.0509   21.2274 C   0  0  0  0  0  0  0  0  0  0  0  0
  -23.5054  -12.0791   19.8477 C   0  0  0  0  0  0  0  0  0  0  0  0
  -28.4580  -28.7191   20.1300 C   0  0  0  0  0  0  0  0  0  0  0  0
  -26.1690  -30.2608   21.8346 C   0  0  0  0  0  0  0  0  0  0  0  0
  -30.5006  -16.0119   22.1270 C   0  0  0  0  0  0  0  0  0  0  0  0
  -23.1140  -30.1439   23.3512 C   0  0  0  0  0  0  0  0  0  0  0  0
  -32.5090  -29.9972   17.2992 C   0  0  0  0  0  0  0  0  0  0  0  0
  -26.4022  -28.2555   18.7463 C   0  0  0  0  0  0  0  0  0  0  0  0
  -25.9247  -27.7587   21.6220 C   0  0  0  0  0  0  0  0  0  0  0  0
  -31.7341  -30.6375   18.4480 C   0  0  0  0  0  0  0  0  0  0  0  0
  -27.7084  -15.7780   24.3606 C   0  0  0  0  0  0  0  0  0  0  0  0
  -31.5306  -29.6345   19.5791 C   0  0  0  0  0  0  0  0  0  0  0  0
  -26.5657  -15.3121   23.4592 C   0  0  0  0  0  0  0  0  0  0  0  0
  -28.6582  -16.7137   23.6195 C   0  0  0  0  0  0  0  0  0  0  0  0
  -28.0712  -15.6742   21.4523 C   0  0  0  0  0  0  0  0  0  0  0  0
  -30.7076  -28.4299   19.1069 C   0  0  1  0  0  0  0  0  0  0  0  0
  -27.0420  -29.1206   19.8278 C   0  0  1  0  0  0  0  0  0  0  0  0
  -27.1053  -14.7025   22.1532 C   0  0  2  0  0  0  0  0  0  0  0  0
  -25.7120  -20.7529   23.3722 C   0  0  0  0  0  0  0  0  0  0  0  0
  -21.5272  -31.5479   24.6959 C   0  0  0  0  0  0  0  0  0  0  0  0
  -32.4694  -15.3309   20.8184 C   0  0  0  0  0  0  0  0  0  0  0  0
  -30.4383  -13.8898   20.9964 C   0  0  0  0  0  0  0  0  0  0  0  0
  -29.0914  -15.3857   15.5727 C   0  0  0  0  0  0  0  0  0  0  0  0
  -29.9862  -17.7345   15.4362 C   0  0  0  0  0  0  0  0  0  0  0  0
  -27.6370  -17.3215   16.1377 C   0  0  0  0  0  0  0  0  0  0  0  0
  -27.9248  -29.8789   24.3006 C   0  0  0  0  0  0  0  0  0  0  0  0
  -25.9319  -30.4178   25.7171 C   0  0  0  0  0  0  0  0  0  0  0  0
  -26.8329  -32.1227   24.1347 C   0  0  0  0  0  0  0  0  0  0  0  0
  -21.0018  -29.9395   21.2881 C   0  0  0  0  0  0  0  0  0  0  0  0
  -30.3389  -21.8290   21.3981 C   0  0  0  0  0  0  0  0  0  0  0  0
  -29.3585  -19.1251   18.2250 C   0  0  0  0  0  0  0  0  0  0  0  0
  -25.2862  -22.7239   21.8572 C   0  0  0  0  0  0  0  0  0  1  0  0
  -25.4089  -21.1961   21.9382 C   0  0  1  0  0  0  0  0  0  0  0  0
  -25.5913  -30.1184   23.2220 C   0  0  1  0  0  0  0  0  0  0  0  0
  -21.9281  -31.0904   23.3021 C   0  0  2  0  0  0  0  0  0  0  0  0
  -30.9105  -15.3719   20.8246 C   0  0  0  0  0  0  0  0  0  0  0  0
  -29.1014  -16.7729   16.3003 C   0  0  0  0  0  0  0  0  0  0  0  0
  -26.5693  -30.6131   24.3248 C   0  0  0  0  0  0  0  0  0  0  0  0
  -25.5259  -15.1160   20.3045 N   0  0  0  0  0  0  0  0  0  0  0  0
  -30.1805  -17.4211   19.7417 N   0  0  0  0  0  0  0  0  0  0  0  0
  -29.7046  -17.7322   18.5239 N   0  0  0  0  0  0  0  0  0  0  0  0
  -25.9824  -14.2590   21.2336 N   0  0  0  0  0  0  0  0  0  0  0  0
  -26.3069  -29.0786   21.0935 N   0  0  0  0  0  0  0  0  0  0  0  0
  -29.1309  -16.1073   22.3736 N   0  0  0  0  0  0  0  0  0  0  0  0
  -25.6845  -12.0730   22.0956 N   0  0  0  0  0  0  0  0  0  0  0  0
  -22.6102  -12.3199   18.7965 N   0  0  0  0  0  0  0  0  0  0  0  0
  -29.3033  -28.7729   19.0382 N   0  0  0  0  0  0  0  0  0  0  0  0
  -24.3095  -30.8149   23.2039 N   0  0  0  0  0  0  0  0  0  0  0  0
  -20.7558  -30.4197   22.6722 N   0  3  0  0  0  0  0  0  0  0  0  0
  -23.4772  -10.9719   20.4366 O   0  0  0  0  0  0  0  0  0  0  0  0
  -28.7616  -28.3866   21.2697 O   0  0  0  0  0  0  0  0  0  0  0  0
  -26.4796  -31.3806   21.4208 O   0  0  0  0  0  0  0  0  0  0  0  0
  -31.3733  -16.4118   22.9022 O   0  0  0  0  0  0  0  0  0  0  0  0
  -22.9921  -28.9311   23.5084 O   0  0  0  0  0  0  0  0  0  0  0  0
  -21.6767  -16.7023   15.4862 O   0  0  0  0  0  0  0  0  0  0  0  0
  -30.0358  -20.9291   20.3341 O   0  0  0  0  0  0  0  0  0  0  0  0
  -24.8823  -23.1020   20.5418 O   0  0  0  0  0  0  0  0  0  1  0  0
  -16.2027  -16.0397   15.4788 F   0  0  0  0  0  0  0  0  0  0  0  0
  -19.9835  -18.8864   15.5621 F   0  0  0  0  0  0  0  0  0  0  0  0
  1  2  1  0  0  0  0
  1  5  2  0  0  0  0
  2  6  2  0  0  0  0
  3 10  2  0  0  0  0
  3 19  1  0  0  0  0
  4 11  1  0  0  0  0
  4 19  2  0  0  0  0
  5 21  1  0  0  0  0
  6 23  1  0  0  0  0
  7 12  2  0  0  0  0
  7 22  1  0  0  0  0
  8  9  2  0  0  0  0
  8 25  1  0  0  0  0
  9 26  1  0  0  0  0
 10 27  1  0  0  0  0
 11 27  2  0  0  0  0
 12 28  1  0  0  0  0
 13 14  2  0  0  0  0
 13 29  1  0  0  0  0
 14 31  1  0  0  0  0
 15 24  1  0  0  0  0
 15 28  2  0  0  0  0
 16 25  2  0  0  0  0
 16 30  1  0  0  0  0
 17 31  2  0  0  0  0
 17 32  1  0  0  0  0
 18 34  1  0  0  0  0
 18 35  2  0  0  0  0
 19 33  1  0  0  0  0
 20 33  1  0  0  0  0
 20 36  2  0  0  0  0
 20 37  1  0  0  0  0
 21 23  2  0  0  0  0
 21 42  1  0  0  0  0
 22 24  2  0  0  0  0
 22 43  1  0  0  0  0
 23 51  1  0  0  0  0
 24 44  1  0  0  0  0
 25 68  1  0  0  0  0
 26 30  2  0  0  0  0
 26 66  1  0  0  0  0
 27 90  1  0  0  0  0
 28 92  1  0  0  0  0
 29 32  2  0  0  0  0
 29 90  1  0  0  0  0
 30 91  1  0  0  0  0
 31 93  1  0  0  0  0
 32 94  1  0  0  0  0
 33 74  2  0  0  0  0
 34 71  1  0  0  0  0
 34 75  2  0  0  0  0
 35 72  1  0  0  0  0
 35 76  1  0  0  0  0
 36 77  1  0  0  0  0
 36 80  1  0  0  0  0
 37 81  1  0  0  0  0
 37 85  2  0  0  0  0
 38 52  1  0  0  0  0
 38 82  1  0  0  0  0
 38 86  2  0  0  0  0
 39 69  1  0  0  0  0
 39 78  1  0  0  0  0
 39 87  2  0  0  0  0
 40 71  1  0  0  0  0
 40 79  1  0  0  0  0
 40 88  2  0  0  0  0
 41 70  1  0  0  0  0
 41 83  1  0  0  0  0
 41 89  2  0  0  0  0
 42 45  1  0  0  0  0
 43 52  1  0  0  0  0
 44 78  1  0  0  0  0
 45 47  1  0  0  0  0
 46 48  1  0  0  0  0
 46 49  1  0  0  0  0
 47 51  1  0  0  0  0
 48 53  1  0  0  0  0
 49 79  1  0  0  0  0
 50 53  1  0  0  0  0
 50 79  1  0  0  0  0
 51 82  1  0  0  0  0
 52 78  1  0  0  0  0
 53 77  1  0  0  0  0
 54 68  1  0  0  0  0
 55 70  1  0  0  0  0
 56 71  1  0  0  0  0
 57 71  1  0  0  0  0
 58 72  1  0  0  0  0
 59 72  1  0  0  0  0
 60 72  1  0  0  0  0
 61 73  1  0  0  0  0
 62 73  1  0  0  0  0
 63 73  1  0  0  0  0
 64 84  1  0  0  0  0
 65 91  1  0  0  0  0
 66 76  1  0  0  0  0
 67 68  1  0  0  0  0
 67 92  1  0  0  0  0
 69 73  1  0  0  0  0
 69 83  1  0  0  0  0
 70 84  1  0  0  0  0
 74 77  1  0  0  0  0
 75 76  1  0  0  0  0
M  CHG  1  84   1
M  ISO  4  40 100  67 101  71 100  92 101
M  END
> <Batch ID>
0071

> <Smiles>
CNC(C)C(=O)NC(C(=O)N1Cc2cc([101O:1][101CH2:1]C(C)c3ccc(Cn4nc([100C:0](C)(C)[100C:0](=O)N5CCCC(n6nc(-c7ccc(Oc8ccc(F)cc8F)cc7)c(C(N)=O)c6N)C5)cc4C(C)(C)C)c(OC)c3)ccc2CC1C(=O)NC1CCCc2ccccc21)C(C)(C)C

> <Shape>
0.226

> <Color>
0.087

> <Negative vol penalty>
0.000

$$$$

  -OEChem-04052318223D

 92100  0     1  0  0  0  0  0999 V2000
  -28.7257  -32.4951   26.1175 C   0  0  0  0  0  0  0  0  0  0  0  0
  -28.6079  -31.2677   25.4733 C   0  0  0  0  0  0  0  0  0  0  0  0
  -24.4973   -9.2583   22.0031 C   0  0  0  0  0  0  0  0  0  0  0  0
  -23.2532   -9.8704   20.0245 C   0  0  0  0  0  0  0  0  0  0  0  0
  -27.5823  -33.2274   26.4342 C   0  0  0  0  0  0  0  0  0  0  0  0
  -27.3465  -30.7713   25.1464 C   0  0  0  0  0  0  0  0  0  0  0  0
  -27.1561  -28.8925   20.4476 C   0  0  0  0  0  0  0  0  0  0  0  0
  -23.3114   -8.8784   22.6313 C   0  0  0  0  0  0  0  0  0  0  0  0
  -22.0672   -9.4905   20.6527 C   0  0  0  0  0  0  0  0  0  0  0  0
  -27.6993  -27.6244   20.2464 C   0  0  0  0  0  0  0  0  0  0  0  0
  -20.6512   -7.4091   24.6263 C   0  0  0  0  0  0  0  0  0  0  0  0
  -20.6451   -6.2014   25.3242 C   0  0  0  0  0  0  0  0  0  0  0  0
  -25.4848  -26.6706   20.3204 C   0  0  0  0  0  0  0  0  0  0  0  0
  -21.2013   -5.0229   23.2898 C   0  0  0  0  0  0  0  0  0  0  0  0
  -24.4683   -9.7544   20.6997 C   0  0  0  0  0  0  0  0  0  0  0  0
  -26.5383   -9.3380   19.2682 C   0  0  0  0  0  0  0  0  0  0  0  0
  -26.3067  -32.7442   26.1024 C   0  0  0  0  0  0  0  0  0  0  0  0
  -25.7717  -29.0582   20.5978 C   0  0  0  0  0  0  0  0  0  0  0  0
  -26.1849  -31.4972   25.4601 C   0  0  0  0  0  0  0  0  0  0  0  0
  -24.9263  -27.9422   20.5208 C   0  0  0  0  0  0  0  0  0  0  0  0
  -22.0963   -8.9944   21.9562 C   0  0  0  0  0  0  0  0  0  0  0  0
  -26.8639  -26.5128   20.1857 C   0  0  0  0  0  0  0  0  0  0  0  0
  -20.9323   -7.4237   23.2601 C   0  0  0  0  0  0  0  0  0  0  0  0
  -20.9201   -5.0083   24.6560 C   0  0  0  0  0  0  0  0  0  0  0  0
  -21.2074   -6.2306   22.5919 C   0  0  0  0  0  0  0  0  0  0  0  0
  -25.6930  -10.1475   20.0504 C   0  0  0  0  0  0  0  0  0  0  0  0
  -27.5576  -10.1752   18.8852 C   0  0  0  0  0  0  0  0  0  0  0  0
  -30.3347  -20.8602   20.5405 C   0  0  0  0  0  0  0  0  0  0  0  0
  -29.9404  -19.0969   19.3387 C   0  0  0  0  0  0  0  0  0  0  0  0
  -26.4133   -7.9530   18.9189 C   0  0  0  0  0  0  0  0  0  0  0  0
  -23.8797  -30.1340   22.9144 C   0  0  0  0  0  0  0  0  0  0  0  0
  -21.5715  -29.7736   20.6639 C   0  0  0  0  0  0  0  0  0  0  0  0
  -27.7188  -16.0792   18.2594 C   0  0  0  0  0  0  0  0  0  0  0  0
  -20.5282  -28.2283   17.8055 C   0  0  0  0  0  0  0  0  0  0  0  0
  -25.0974  -33.5494   26.5074 C   0  0  0  0  0  0  0  0  0  0  0  0
  -25.1991  -30.4361   20.7875 C   0  0  0  0  0  0  0  0  0  0  0  0
  -23.4315  -28.0690   20.6558 C   0  0  0  0  0  0  0  0  0  0  0  0
  -23.8171  -33.1277   25.7911 C   0  0  0  0  0  0  0  0  0  0  0  0
  -29.9538  -14.0596   20.2971 C   0  0  0  0  0  0  0  0  0  0  0  0
  -23.6722  -31.6093   25.8062 C   0  0  0  0  0  0  0  0  0  0  0  0
  -29.1663  -12.7552   20.4136 C   0  0  0  0  0  0  0  0  0  0  0  0
  -29.0293  -15.2741   20.2833 C   0  0  0  0  0  0  0  0  0  0  0  0
  -27.1898  -13.9158   19.3369 C   0  0  0  0  0  0  0  0  0  0  0  0
  -24.8353  -30.9368   25.0669 C   0  0  1  0  0  0  0  0  0  0  0  0
  -23.8209  -30.4255   21.4416 C   0  0  1  0  0  0  0  0  0  0  0  0
  -28.0840  -12.6648   19.3236 C   0  0  2  0  0  0  0  0  0  0  0  0
  -30.5286  -18.4151   22.6694 C   0  0  0  0  0  0  0  0  0  0  0  0
  -30.4774  -17.1220   17.8989 C   0  0  0  0  0  0  0  0  0  0  0  0
  -18.5802  -28.1115   16.2278 C   0  0  0  0  0  0  0  0  0  0  0  0
  -20.0353  -28.0863   22.6894 C   0  0  0  0  0  0  0  0  0  0  0  0
  -18.6228  -27.2359   20.8053 C   0  0  0  0  0  0  0  0  0  0  0  0
  -18.6223  -29.6672   21.3633 C   0  0  0  0  0  0  0  0  0  0  0  0
  -22.1677  -29.1681   15.5279 C   0  0  0  0  0  0  0  0  0  0  0  0
  -30.4273  -21.7713   21.7385 C   0  0  0  0  0  0  0  0  0  0  0  0
  -30.2362  -23.2549   21.4043 C   0  0  0  0  0  0  0  0  0  0  0  0
  -28.8474  -23.5688   20.8461 C   0  0  0  0  0  0  0  0  0  0  0  0
  -29.3910  -18.8904   21.7820 C   0  0  0  0  0  0  0  0  0  0  0  0
  -28.7083  -25.0424   20.4891 C   0  0  0  0  0  0  0  0  0  1  0  0
  -29.5253  -17.7312   18.9721 C   0  0  2  0  0  0  0  0  0  0  0  0
  -20.6509  -28.6522   20.2468 C   0  0  1  0  0  0  0  0  0  0  0  0
  -19.9137  -28.7771   16.5305 C   0  0  2  0  0  0  0  0  0  0  0  0
  -27.9825  -17.5227   18.6068 C   0  0  0  0  0  0  0  0  0  0  0  0
  -19.5111  -28.4075   21.2756 C   0  0  0  0  0  0  0  0  0  0  0  0
  -27.0334  -17.8870   19.7645 C   0  0  0  0  0  0  0  0  0  0  0  0
  -27.6018  -18.3805   17.3845 C   0  0  0  0  0  0  0  0  0  0  0  0
  -26.1368  -11.4026   20.1590 N   0  0  0  0  0  0  0  0  0  0  0  0
  -30.6759  -21.1415   19.3032 N   0  0  0  0  0  0  0  0  0  0  0  0
  -30.4251  -20.0196   18.5386 N   0  0  0  0  0  0  0  0  0  0  0  0
  -27.2721  -11.3880   19.4401 N   0  0  0  0  0  0  0  0  0  0  0  0
  -29.8664  -19.5832   20.6087 N   0  0  0  0  0  0  0  0  0  0  0  0
  -22.9202  -29.4364   20.8462 N   0  0  0  0  0  0  0  0  0  0  0  0
  -27.9961  -15.1367   19.2498 N   0  0  0  0  0  0  0  0  0  0  0  0
  -28.6613   -9.9849   18.1315 N   0  0  0  0  0  0  0  0  0  0  0  0
  -25.3047   -7.2409   19.3966 N   0  0  0  0  0  0  0  0  0  0  0  0
  -24.6456  -31.0303   23.6352 N   0  0  0  0  0  0  0  0  0  0  0  0
  -20.1838  -28.9852   18.9054 N   0  0  0  0  0  0  0  0  0  0  0  0
  -20.8265  -28.5477   15.3751 N   0  3  0  0  0  0  0  0  0  0  0  0
  -27.2681   -7.3603   18.2179 O   0  0  0  0  0  0  0  0  0  0  0  0
  -23.2738  -29.1683   23.3638 O   0  0  0  0  0  0  0  0  0  0  0  0
  -21.1123  -30.9084   20.8153 O   0  0  0  0  0  0  0  0  0  0  0  0
  -27.2821  -15.7995   17.1399 O   0  0  0  0  0  0  0  0  0  0  0  0
  -21.2393  -27.2261   17.8245 O   0  0  0  0  0  0  0  0  0  0  0  0
  -20.9388   -8.6236   22.5688 O   0  0  0  0  0  0  0  0  0  0  0  0
  -27.3916  -25.2738   19.9901 O   0  0  0  0  0  0  0  0  0  1  0  0
  -20.9157   -3.8489   25.3266 F   0  0  0  0  0  0  0  0  0  0  0  0
  -21.4793   -6.2385   21.2797 F   0  0  0  0  0  0  0  0  0  0  0  0
  -27.2340  -17.1216   20.8592 F   0  0  0  0  0  0  0  0  0  0  0  0
  -25.7358  -17.7274   19.4134 F   0  0  0  0  0  0  0  0  0  0  0  0
  -27.1914  -19.1775   20.1373 F   0  0  0  0  0  0  0  0  0  0  0  0
  -26.3019  -18.2459   17.0424 F   0  0  0  0  0  0  0  0  0  0  0  0
  -27.8075  -19.6980   17.6170 F   0  0  0  0  0  0  0  0  0  0  0  0
  -28.3421  -18.0448   16.3032 F   0  0  0  0  0  0  0  0  0  0  0  0
  1  2  1  0  0  0  0
  1  5  2  0  0  0  0
  2  6  2  0  0  0  0
  3  8  2  0  0  0  0
  3 15  1  0  0  0  0
  4  9  1  0  0  0  0
  4 15  2  0  0  0  0
  5 17  1  0  0  0  0
  6 19  1  0  0  0  0
  7 10  2  0  0  0  0
  7 18  1  0  0  0  0
  8 21  1  0  0  0  0
  9 21  2  0  0  0  0
 10 22  1  0  0  0  0
 11 12  2  0  0  0  0
 11 23  1  0  0  0  0
 12 24  1  0  0  0  0
 13 20  1  0  0  0  0
 13 22  2  0  0  0  0
 14 24  2  0  0  0  0
 14 25  1  0  0  0  0
 15 26  1  0  0  0  0
 16 26  1  0  0  0  0
 16 27  2  0  0  0  0
 16 30  1  0  0  0  0
 17 19  2  0  0  0  0
 17 35  1  0  0  0  0
 18 20  2  0  0  0  0
 18 36  1  0  0  0  0
 19 44  1  0  0  0  0
 20 37  1  0  0  0  0
 21 83  1  0  0  0  0
 22 84  1  0  0  0  0
 23 25  2  0  0  0  0
 23 83  1  0  0  0  0
 24 85  1  0  0  0  0
 25 86  1  0  0  0  0
 26 66  2  0  0  0  0
 27 69  1  0  0  0  0
 27 73  1  0  0  0  0
 28 54  1  0  0  0  0
 28 67  2  0  0  0  0
 28 70  1  0  0  0  0
 29 59  1  0  0  0  0
 29 68  2  0  0  0  0
 29 70  1  0  0  0  0
 30 74  1  0  0  0  0
 30 78  2  0  0  0  0
 31 45  1  0  0  0  0
 31 75  1  0  0  0  0
 31 79  2  0  0  0  0
 32 60  1  0  0  0  0
 32 71  1  0  0  0  0
 32 80  2  0  0  0  0
 33 62  1  0  0  0  0
 33 72  1  0  0  0  0
 33 81  2  0  0  0  0
 34 61  1  0  0  0  0
 34 76  1  0  0  0  0
 34 82  2  0  0  0  0
 35 38  1  0  0  0  0
 36 45  1  0  0  0  0
 37 71  1  0  0  0  0
 38 40  1  0  0  0  0
 39 41  1  0  0  0  0
 39 42  1  0  0  0  0
 40 44  1  0  0  0  0
 41 46  1  0  0  0  0
 42 72  1  0  0  0  0
 43 46  1  0  0  0  0
 43 72  1  0  0  0  0
 44 75  1  0  0  0  0
 45 71  1  0  0  0  0
 46 69  1  0  0  0  0
 47 57  1  0  0  0  0
 48 59  1  0  0  0  0
 49 61  1  0  0  0  0
 50 63  1  0  0  0  0
 51 63  1  0  0  0  0
 52 63  1  0  0  0  0
 53 77  1  0  0  0  0
 54 55  1  0  0  0  0
 55 56  1  0  0  0  0
 56 58  1  0  0  0  0
 57 70  1  0  0  0  0
 58 84  1  0  0  0  0
 59 62  1  0  0  0  0
 60 63  1  0  0  0  0
 60 76  1  0  0  0  0
 61 77  1  0  0  0  0
 62 64  1  0  0  0  0
 62 65  1  0  0  0  0
 64 87  1  0  0  0  0
 64 88  1  0  0  0  0
 64 89  1  0  0  0  0
 65 90  1  0  0  0  0
 65 91  1  0  0  0  0
 65 92  1  0  0  0  0
 66 69  1  0  0  0  0
 67 68  1  0  0  0  0
M  CHG  1  77   1
M  ISO  4  33 100  58 101  62 100  84 101
M  END
> <Batch ID>
0071

> <Smiles>
CCn1c(CCC[101CH2:1][101O:1]c2ccc3c(c2)CN(C(=O)C(NC(=O)C(C)NC)C(C)(C)C)C(C(=O)NC2CCCc4ccccc42)C3)nnc1C(C)[100C:0]([100C:0](=O)N1CCCC(n2nc(-c3ccc(Oc4ccc(F)cc4F)cc3)c(C(N)=O)c2N)C1)(C(F)(F)F)C(F)(F)F

> <Shape>
0.322

> <Color>
0.080

> <Negative vol penalty>
0.000

$$$$

  -OEChem-04052318223D

 86 94  0     1  0  0  0  0  0999 V2000
  -12.7064  -22.7638   21.6524 C   0  0  0  0  0  0  0  0  0  0  0  0
  -13.8307  -22.3559   22.3630 C   0  0  0  0  0  0  0  0  0  0  0  0
  -23.0733   -9.8710   19.9415 C   0  0  0  0  0  0  0  0  0  0  0  0
  -23.8396   -9.8741   22.2327 C   0  0  0  0  0  0  0  0  0  0  0  0
  -12.7591  -22.8616   20.2626 C   0  0  0  0  0  0  0  0  0  0  0  0
  -15.0081  -22.0443   21.6840 C   0  0  0  0  0  0  0  0  0  0  0  0
  -22.1268  -22.3327   22.4310 C   0  0  0  0  0  0  0  0  0  0  0  0
  -22.3303   -8.7173   20.1915 C   0  0  0  0  0  0  0  0  0  0  0  0
  -23.0965   -8.7204   22.4828 C   0  0  0  0  0  0  0  0  0  0  0  0
  -23.2535  -21.5168   22.3378 C   0  0  0  0  0  0  0  0  0  0  0  0
  -21.1158   -5.9806   23.8201 C   0  0  0  0  0  0  0  0  0  0  0  0
  -20.3628   -5.9349   24.9934 C   0  0  0  0  0  0  0  0  0  0  0  0
  -23.2517  -21.7983   19.9420 C   0  0  0  0  0  0  0  0  0  0  0  0
  -19.1159   -7.8732   24.2687 C   0  0  0  0  0  0  0  0  0  0  0  0
  -26.9766  -18.3744   20.7974 C   0  0  0  0  0  0  0  0  0  0  0  0
  -23.8280  -10.4494   20.9621 C   0  0  0  0  0  0  0  0  0  0  0  0
  -24.1691  -12.9748   20.8455 C   0  0  0  0  0  0  0  0  0  0  0  0
  -13.9407  -22.5604   19.5670 C   0  0  0  0  0  0  0  0  0  0  0  0
  -21.5466  -22.8796   21.2774 C   0  0  0  0  0  0  0  0  0  0  0  0
  -15.0763  -22.1368   20.2835 C   0  0  0  0  0  0  0  0  0  0  0  0
  -22.1192  -22.6229   20.0235 C   0  0  0  0  0  0  0  0  0  0  0  0
  -22.3419   -8.1420   21.4621 C   0  0  0  0  0  0  0  0  0  0  0  0
  -23.8144  -21.2472   21.0929 C   0  0  0  0  0  0  0  0  0  0  0  0
  -20.8689   -6.9727   22.8712 C   0  0  0  0  0  0  0  0  0  0  0  0
  -19.3628   -6.8812   25.2176 C   0  0  0  0  0  0  0  0  0  0  0  0
  -19.8689   -7.9190   23.0954 C   0  0  0  0  0  0  0  0  0  0  0  0
  -24.5961  -11.6408   20.7043 C   0  0  0  0  0  0  0  0  0  0  0  0
  -26.6575  -19.1028   21.9085 C   0  0  0  0  0  0  0  0  0  0  0  0
  -25.2601  -13.7251   20.4805 C   0  0  0  0  0  0  0  0  0  0  0  0
  -28.6416  -18.1798   22.2433 C   0  0  0  0  0  0  0  0  0  0  0  0
  -22.8997  -13.4897   21.2688 C   0  0  0  0  0  0  0  0  0  0  0  0
  -18.7132  -22.6319   19.8582 C   0  0  0  0  0  0  0  0  0  0  0  0
  -19.9175  -24.9381   17.9209 C   0  0  0  0  0  0  0  0  0  0  0  0
  -22.6678  -26.4742   16.6081 C   0  0  0  0  0  0  0  0  0  0  0  0
  -30.7442  -14.7447   20.6553 C   0  0  0  0  0  0  0  0  0  0  0  0
  -13.9355  -22.6353   18.0607 C   0  0  0  0  0  0  0  0  0  0  0  0
  -20.3473  -23.7794   21.3973 C   0  0  0  0  0  0  0  0  0  0  0  0
  -21.5465  -23.2022   18.7566 C   0  0  0  0  0  0  0  0  0  0  0  0
  -15.3330  -22.6477   17.4466 C   0  0  0  0  0  0  0  0  0  0  0  0
  -29.6003  -12.3642   18.2676 C   0  0  0  0  0  0  0  0  0  0  0  0
  -16.2045  -21.5685   18.0812 C   0  0  0  0  0  0  0  0  0  0  0  0
  -28.1641  -12.0695   18.7040 C   0  0  0  0  0  0  0  0  0  0  0  0
  -30.5207  -12.5831   19.4663 C   0  0  0  0  0  0  0  0  0  0  0  0
  -28.6227  -13.3114   20.8595 C   0  0  0  0  0  0  0  0  0  0  0  0
  -16.3793  -21.8141   19.5848 C   0  0  1  0  0  0  0  0  0  0  0  0
  -19.5336  -23.8653   20.1097 C   0  0  1  0  0  0  0  0  0  0  0  0
  -27.6453  -13.1387   19.6842 C   0  0  2  0  0  0  0  0  0  0  0  0
  -23.3349  -28.3027   15.0242 C   0  0  0  0  0  0  0  0  0  0  0  0
  -29.8258  -16.9800   24.2066 C   0  0  0  0  0  0  0  0  0  0  0  0
  -30.7939  -19.0352   23.2094 C   0  0  0  0  0  0  0  0  0  0  0  0
  -25.5948  -19.5502   25.2960 C   0  0  0  0  0  0  0  0  0  0  0  0
  -26.7870  -17.3825   24.9631 C   0  0  0  0  0  0  0  0  0  0  0  0
  -27.6633  -19.0604   26.6045 C   0  0  0  0  0  0  0  0  0  0  0  0
  -19.2178  -23.1416   15.5560 C   0  0  0  0  0  0  0  0  0  0  0  0
  -20.7278  -24.5434   14.1337 C   0  0  0  0  0  0  0  0  0  0  0  0
  -18.7217  -25.5676   15.2057 C   0  0  0  0  0  0  0  0  0  0  0  0
  -24.0679  -27.9713   18.7429 C   0  0  0  0  0  0  0  0  0  0  0  0
  -25.4405  -19.9246   22.2165 C   0  0  0  0  0  0  0  0  0  1  0  0
  -27.7910  -19.5711   24.1020 C   0  0  0  0  0  0  0  0  0  0  0  0
  -30.8131  -16.8931   21.8958 C   0  0  0  0  0  0  0  0  0  0  0  0
  -20.7117  -24.9486   16.6370 C   0  0  1  0  0  0  0  0  0  0  0  0
  -23.0325  -27.9413   16.4701 C   0  0  2  0  0  0  0  0  0  0  0  0
  -29.9318  -17.7761   22.8555 C   0  0  0  0  0  0  0  0  0  0  0  0
  -26.9836  -18.8829   25.2366 C   0  0  0  0  0  0  0  0  0  0  0  0
  -19.8546  -24.5377   15.4066 C   0  0  0  0  0  0  0  0  0  0  0  0
  -25.8598  -11.5459   20.2823 N   0  0  0  0  0  0  0  0  0  0  0  0
  -27.7051  -18.9641   22.7868 N   0  0  0  0  0  0  0  0  0  0  0  0
  -26.2362  -12.8298   20.1551 N   0  0  0  0  0  0  0  0  0  0  0  0
  -28.2093  -17.8145   21.0321 N   0  3  0  0  0  0  0  0  0  0  0  0
  -20.3698  -24.0708   18.9254 N   0  0  0  0  0  0  0  0  0  0  0  0
  -29.9725  -13.6099   20.3556 N   0  0  0  0  0  0  0  0  0  0  0  0
  -25.4701  -15.0567   20.4092 N   0  0  0  0  0  0  0  0  0  0  0  0
  -21.8888  -12.5797   21.6073 N   0  0  0  0  0  0  0  0  0  0  0  0
  -17.3511  -22.8611   19.8163 N   0  0  0  0  0  0  0  0  0  0  0  0
  -21.3050  -26.2775   16.5350 N   0  0  0  0  0  0  0  0  0  0  0  0
  -30.1472  -15.6720   21.5007 N   0  0  0  0  0  0  0  0  0  0  0  0
  -24.2334  -28.2563   17.2943 N   0  3  0  0  0  0  0  0  0  0  0  0
  -22.6634  -14.7201   21.3290 O   0  0  0  0  0  0  0  0  0  0  0  0
  -19.2744  -21.5525   19.7115 O   0  0  0  0  0  0  0  0  0  0  0  0
  -18.9364  -25.6776   18.0311 O   0  0  0  0  0  0  0  0  0  0  0  0
  -23.5082  -25.5905   16.7614 O   0  0  0  0  0  0  0  0  0  0  0  0
  -31.8788  -14.9212   20.1989 O   0  0  0  0  0  0  0  0  0  0  0  0
  -21.6168   -7.0163   21.7065 O   0  0  0  0  0  0  0  0  0  0  0  0
  -24.9137  -20.4506   20.9990 O   0  0  0  0  0  0  0  0  0  1  0  0
  -18.6388   -6.8362   26.3436 F   0  0  0  0  0  0  0  0  0  0  0  0
  -19.6263   -8.8737   22.1869 F   0  0  0  0  0  0  0  0  0  0  0  0
  1  2  1  0  0  0  0
  1  5  2  0  0  0  0
  2  6  2  0  0  0  0
  3  8  2  0  0  0  0
  3 16  1  0  0  0  0
  4  9  1  0  0  0  0
  4 16  2  0  0  0  0
  5 18  1  0  0  0  0
  6 20  1  0  0  0  0
  7 10  2  0  0  0  0
  7 19  1  0  0  0  0
  8 22  1  0  0  0  0
  9 22  2  0  0  0  0
 10 23  1  0  0  0  0
 11 12  2  0  0  0  0
 11 24  1  0  0  0  0
 12 25  1  0  0  0  0
 13 21  1  0  0  0  0
 13 23  2  0  0  0  0
 14 25  2  0  0  0  0
 14 26  1  0  0  0  0
 15 28  2  0  0  0  0
 15 69  1  0  0  0  0
 16 27  1  0  0  0  0
 17 27  1  0  0  0  0
 17 29  2  0  0  0  0
 17 31  1  0  0  0  0
 18 20  2  0  0  0  0
 18 36  1  0  0  0  0
 19 21  2  0  0  0  0
 19 37  1  0  0  0  0
 20 45  1  0  0  0  0
 21 38  1  0  0  0  0
 22 83  1  0  0  0  0
 23 84  1  0  0  0  0
 24 26  2  0  0  0  0
 24 83  1  0  0  0  0
 25 85  1  0  0  0  0
 26 86  1  0  0  0  0
 27 66  2  0  0  0  0
 28 58  1  0  0  0  0
 28 67  1  0  0  0  0
 29 68  1  0  0  0  0
 29 72  1  0  0  0  0
 30 63  1  0  0  0  0
 30 67  1  0  0  0  0
 30 69  2  0  0  0  0
 31 73  1  0  0  0  0
 31 78  2  0  0  0  0
 32 46  1  0  0  0  0
 32 74  1  0  0  0  0
 32 79  2  0  0  0  0
 33 61  1  0  0  0  0
 33 70  1  0  0  0  0
 33 80  2  0  0  0  0
 34 62  1  0  0  0  0
 34 75  1  0  0  0  0
 34 81  2  0  0  0  0
 35 71  1  0  0  0  0
 35 76  1  0  0  0  0
 35 82  2  0  0  0  0
 36 39  1  0  0  0  0
 37 46  1  0  0  0  0
 38 70  1  0  0  0  0
 39 41  1  0  0  0  0
 40 42  1  0  0  0  0
 40 43  1  0  0  0  0
 41 45  1  0  0  0  0
 42 47  1  0  0  0  0
 43 71  1  0  0  0  0
 44 47  1  0  0  0  0
 44 71  1  0  0  0  0
 45 74  1  0  0  0  0
 46 70  1  0  0  0  0
 47 68  1  0  0  0  0
 48 62  1  0  0  0  0
 49 63  1  0  0  0  0
 50 63  1  0  0  0  0
 51 64  1  0  0  0  0
 52 64  1  0  0  0  0
 53 64  1  0  0  0  0
 54 65  1  0  0  0  0
 55 65  1  0  0  0  0
 56 65  1  0  0  0  0
 57 77  1  0  0  0  0
 58 84  1  0  0  0  0
 59 64  1  0  0  0  0
 59 67  1  0  0  0  0
 60 63  1  0  0  0  0
 60 76  1  0  0  0  0
 61 65  1  0  0  0  0
 61 75  1  0  0  0  0
 62 77  1  0  0  0  0
 66 68  1  0  0  0  0
M  CHG  2  69   1  77   1
M  ISO  4  35 100  58 101  76 100  84 101
M  END
> <Batch ID>
0071

> <Smiles>
CNC(C)C(=O)NC(C(=O)N1Cc2cc([101O:1][101CH2:1]c3cnc(C(C)(C)C[100NH:0][100C:0](=O)N4CCCC(n5nc(-c6ccc(Oc7ccc(F)cc7F)cc6)c(C(N)=O)c5N)C4)n3CC(C)(C)C)ccc2CC1C(=O)NC1CCCc2ccccc21)C(C)(C)C

> <Shape>
0.175

> <Color>
0.184

> <Negative vol penalty>
0.000

$$$$

  -OEChem-04052318223D

 85 93  0     1  0  0  0  0  0999 V2000
  -26.8654  -25.6170   15.3584 C   0  0  0  0  0  0  0  0  0  0  0  0
  -25.7334  -25.8471   16.1338 C   0  0  0  0  0  0  0  0  0  0  0  0
  -26.2468  -14.5362   19.5007 C   0  0  0  0  0  0  0  0  0  0  0  0
  -24.0829  -14.6264   20.5714 C   0  0  0  0  0  0  0  0  0  0  0  0
  -28.1330  -25.8422   15.8935 C   0  0  0  0  0  0  0  0  0  0  0  0
  -25.8685  -26.3015   17.4451 C   0  0  0  0  0  0  0  0  0  0  0  0
  -22.6513  -30.0555   18.5415 C   0  0  0  0  0  0  0  0  0  0  0  0
  -26.4335  -13.2423   19.9870 C   0  0  0  0  0  0  0  0  0  0  0  0
  -24.2695  -13.3325   21.0577 C   0  0  0  0  0  0  0  0  0  0  0  0
  -21.3288  -29.7033   18.8074 C   0  0  0  0  0  0  0  0  0  0  0  0
  -24.0511  -10.1737   19.8766 C   0  0  0  0  0  0  0  0  0  0  0  0
  -20.5126  -25.3705   22.7421 C   0  0  0  0  0  0  0  0  0  0  0  0
  -22.9845   -9.2815   19.7668 C   0  0  0  0  0  0  0  0  0  0  0  0
  -21.6251  -25.0208   23.4993 C   0  0  0  0  0  0  0  0  0  0  0  0
  -21.7634  -29.8818   21.1735 C   0  0  0  0  0  0  0  0  0  0  0  0
  -22.9521   -9.0245   22.1689 C   0  0  0  0  0  0  0  0  0  0  0  0
  -25.0715  -15.2283   19.7929 C   0  0  0  0  0  0  0  0  0  0  0  0
  -24.2885  -16.9373   18.0684 C   0  0  0  0  0  0  0  0  0  0  0  0
  -28.2834  -26.3088   17.2089 C   0  0  0  0  0  0  0  0  0  0  0  0
  -23.5441  -30.3133   19.5916 C   0  0  0  0  0  0  0  0  0  0  0  0
  -27.1394  -26.5319   17.9988 C   0  0  0  0  0  0  0  0  0  0  0  0
  -23.0960  -30.2395   20.9182 C   0  0  0  0  0  0  0  0  0  0  0  0
  -25.4449  -12.6404   20.7655 C   0  0  0  0  0  0  0  0  0  0  0  0
  -20.8854  -29.6136   20.1236 C   0  0  0  0  0  0  0  0  0  0  0  0
  -24.5682  -10.4912   21.1326 C   0  0  0  0  0  0  0  0  0  0  0  0
  -20.6200  -25.4586   21.3586 C   0  0  0  0  0  0  0  0  0  0  0  0
  -22.4350   -8.7070   20.9129 C   0  0  0  0  0  0  0  0  0  0  0  0
  -24.0188   -9.9166   22.2787 C   0  0  0  0  0  0  0  0  0  0  0  0
  -24.8782  -16.5651   19.2913 C   0  0  0  0  0  0  0  0  0  0  0  0
  -22.8125  -24.7710   22.8304 C   0  0  0  0  0  0  0  0  0  0  0  0
  -21.8524  -25.1894   20.7855 C   0  0  0  0  0  0  0  0  0  0  0  0
  -24.3428  -18.3097   18.0646 C   0  0  0  0  0  0  0  0  0  0  0  0
  -23.7404  -16.1158   17.0289 C   0  0  0  0  0  0  0  0  0  0  0  0
  -26.2576  -29.0016   20.6018 C   0  0  0  0  0  0  0  0  0  0  0  0
  -26.2585  -31.5196   22.6469 C   0  0  0  0  0  0  0  0  0  0  0  0
  -24.4688  -33.9054   24.3056 C   0  0  0  0  0  0  0  0  0  0  0  0
  -24.5143  -22.2516   22.4562 C   0  0  0  0  0  0  0  0  0  0  0  0
  -29.6755  -26.4926   17.7593 C   0  0  0  0  0  0  0  0  0  0  0  0
  -24.9605  -30.7180   19.2874 C   0  0  0  0  0  0  0  0  0  0  0  0
  -24.0094  -30.5262   22.0809 C   0  0  0  0  0  0  0  0  0  0  0  0
  -29.7209  -27.3319   19.0336 C   0  0  0  0  0  0  0  0  0  0  0  0
  -26.9247  -21.9599   19.7725 C   0  0  0  0  0  0  0  0  0  0  0  0
  -28.6460  -26.8728   20.0137 C   0  0  0  0  0  0  0  0  0  0  0  0
  -26.6079  -20.5653   19.2294 C   0  0  0  0  0  0  0  0  0  0  0  0
  -26.7894  -22.0054   21.2917 C   0  0  0  0  0  0  0  0  0  0  0  0
  -25.1429  -20.1719   21.2638 C   0  0  0  0  0  0  0  0  0  0  0  0
  -27.2442  -27.0486   19.4173 C   0  0  1  0  0  0  0  0  0  0  0  0
  -25.9184  -30.4571   20.4458 C   0  0  1  0  0  0  0  0  0  0  0  0
  -25.2399  -20.0661   19.7310 C   0  0  2  0  0  0  0  0  0  0  0  0
  -22.0211  -25.2707   19.3036 C   0  0  0  0  0  0  0  0  0  0  0  0
  -24.7411  -35.7953   25.9339 C   0  0  0  0  0  0  0  0  0  0  0  0
  -23.7622  -23.6223   24.9392 C   0  0  0  0  0  0  0  0  0  0  0  0
  -24.8433  -25.6589   23.9956 C   0  0  0  0  0  0  0  0  0  0  0  0
  -26.5720  -29.5109   24.9222 C   0  0  0  0  0  0  0  0  0  0  0  0
  -25.8902  -31.3163   26.5170 C   0  0  0  0  0  0  0  0  0  0  0  0
  -27.9635  -31.5759   25.1545 C   0  0  0  0  0  0  0  0  0  0  0  0
  -23.4328  -35.8825   22.3623 C   0  0  0  0  0  0  0  0  0  0  0  0
  -17.9251  -27.5428   20.1599 C   0  0  0  0  0  0  0  0  0  0  0  0
  -18.9474  -28.4132   19.4460 C   0  0  0  0  0  0  0  0  0  1  0  0
  -18.5699  -26.6551   21.2128 C   0  0  0  0  0  0  0  0  0  0  0  0
  -25.7081  -31.7742   24.0294 C   0  0  1  0  0  0  0  0  0  0  0  0
  -24.6882  -35.3989   24.4667 C   0  0  2  0  0  0  0  0  0  0  0  0
  -24.0264  -24.3928   23.6114 C   0  0  0  0  0  0  0  0  0  0  0  0
  -26.5165  -31.0370   25.1341 C   0  0  0  0  0  0  0  0  0  0  0  0
  -25.2781  -17.6163   20.0119 N   0  0  0  0  0  0  0  0  0  0  0  0
  -22.9553  -24.8466   21.4882 N   0  0  0  0  0  0  0  0  0  0  0  0
  -24.9390  -18.6624   19.2394 N   0  0  0  0  0  0  0  0  0  0  0  0
  -25.3868  -30.9119   21.7322 N   0  0  0  0  0  0  0  0  0  0  0  0
  -25.4587  -21.5354   21.7022 N   0  0  0  0  0  0  0  0  0  0  0  0
  -23.9385  -19.2371   17.1708 N   0  0  0  0  0  0  0  0  0  0  0  0
  -23.7649  -14.7243   17.1941 N   0  0  0  0  0  0  0  0  0  0  0  0
  -26.8376  -28.4360   19.4824 N   0  0  0  0  0  0  0  0  0  0  0  0
  -25.6616  -33.2235   24.1896 N   0  0  0  0  0  0  0  0  0  0  0  0
  -24.8939  -23.5328   22.8376 N   0  0  0  0  0  0  0  0  0  0  0  0
  -23.5842  -36.1580   23.8142 N   0  3  0  0  0  0  0  0  0  0  0  0
  -23.2584  -16.6008   15.9772 O   0  0  0  0  0  0  0  0  0  0  0  0
  -26.0127  -28.4342   21.6600 O   0  0  0  0  0  0  0  0  0  0  0  0
  -27.4168  -31.8542   22.3860 O   0  0  0  0  0  0  0  0  0  0  0  0
  -23.3512  -33.3944   24.2884 O   0  0  0  0  0  0  0  0  0  0  0  0
  -23.4116  -21.7857   22.7627 O   0  0  0  0  0  0  0  0  0  0  0  0
  -25.6266  -11.3777   21.2400 O   0  0  0  0  0  0  0  0  0  0  0  0
  -19.5952  -29.2694   20.3860 O   0  0  0  0  0  0  0  0  0  1  0  0
  -19.5294  -25.8023   20.6029 O   0  0  0  0  0  0  0  0  0  0  0  0
  -21.4098   -7.8514   20.8073 F   0  0  0  0  0  0  0  0  0  0  0  0
  -24.5106  -10.2187   23.4881 F   0  0  0  0  0  0  0  0  0  0  0  0
  1  2  1  0  0  0  0
  1  5  2  0  0  0  0
  2  6  2  0  0  0  0
  3  8  2  0  0  0  0
  3 17  1  0  0  0  0
  4  9  1  0  0  0  0
  4 17  2  0  0  0  0
  5 19  1  0  0  0  0
  6 21  1  0  0  0  0
  7 10  2  0  0  0  0
  7 20  1  0  0  0  0
  8 23  1  0  0  0  0
  9 23  2  0  0  0  0
 10 24  1  0  0  0  0
 11 13  2  0  0  0  0
 11 25  1  0  0  0  0
 12 14  2  0  0  0  0
 12 26  1  0  0  0  0
 13 27  1  0  0  0  0
 14 30  1  0  0  0  0
 15 22  1  0  0  0  0
 15 24  2  0  0  0  0
 16 27  2  0  0  0  0
 16 28  1  0  0  0  0
 17 29  1  0  0  0  0
 18 29  1  0  0  0  0
 18 32  2  0  0  0  0
 18 33  1  0  0  0  0
 19 21  2  0  0  0  0
 19 38  1  0  0  0  0
 20 22  2  0  0  0  0
 20 39  1  0  0  0  0
 21 47  1  0  0  0  0
 22 40  1  0  0  0  0
 23 81  1  0  0  0  0
 24 82  1  0  0  0  0
 25 28  2  0  0  0  0
 25 81  1  0  0  0  0
 26 31  2  0  0  0  0
 26 83  1  0  0  0  0
 27 84  1  0  0  0  0
 28 85  1  0  0  0  0
 29 65  2  0  0  0  0
 30 63  1  0  0  0  0
 30 66  2  0  0  0  0
 31 50  1  0  0  0  0
 31 66  1  0  0  0  0
 32 67  1  0  0  0  0
 32 70  1  0  0  0  0
 33 71  1  0  0  0  0
 33 76  2  0  0  0  0
 34 48  1  0  0  0  0
 34 72  1  0  0  0  0
 34 77  2  0  0  0  0
 35 61  1  0  0  0  0
 35 68  1  0  0  0  0
 35 78  2  0  0  0  0
 36 62  1  0  0  0  0
 36 73  1  0  0  0  0
 36 79  2  0  0  0  0
 37 69  1  0  0  0  0
 37 74  1  0  0  0  0
 37 80  2  0  0  0  0
 38 41  1  0  0  0  0
 39 48  1  0  0  0  0
 40 68  1  0  0  0  0
 41 43  1  0  0  0  0
 42 44  1  0  0  0  0
 42 45  1  0  0  0  0
 43 47  1  0  0  0  0
 44 49  1  0  0  0  0
 45 69  1  0  0  0  0
 46 49  1  0  0  0  0
 46 69  1  0  0  0  0
 47 72  1  0  0  0  0
 48 68  1  0  0  0  0
 49 67  1  0  0  0  0
 51 62  1  0  0  0  0
 52 63  1  0  0  0  0
 53 63  1  0  0  0  0
 54 64  1  0  0  0  0
 55 64  1  0  0  0  0
 56 64  1  0  0  0  0
 57 75  1  0  0  0  0
 58 59  1  0  0  0  0
 58 60  1  0  0  0  0
 59 82  1  0  0  0  0
 60 83  1  0  0  0  0
 61 64  1  0  0  0  0
 61 73  1  0  0  0  0
 62 75  1  0  0  0  0
 63 74  1  0  0  0  0
 65 67  1  0  0  0  0
M  CHG  1  75   1
M  ISO  4  37 100  59 101  74 100  82 101
M  END
> <Batch ID>
0071

> <Smiles>
CNC(C)C(=O)NC(C(=O)N1Cc2cc([101O:1][101CH2:1]CCOc3ccc(C(C)(C)[100NH:0][100C:0](=O)N4CCCC(n5nc(-c6ccc(Oc7ccc(F)cc7F)cc6)c(C(N)=O)c5N)C4)nc3C)ccc2CC1C(=O)NC1CCCc2ccccc21)C(C)(C)C

> <Shape>
0.258

> <Color>
0.069

> <Negative vol penalty>
0.000

$$$$

  -OEChem-04052318223D

 84 92  0     1  0  0  0  0  0999 V2000
  -33.4836  -29.9218   14.3450 C   0  0  0  0  0  0  0  0  0  0  0  0
  -33.4135  -28.5449   14.5309 C   0  0  0  0  0  0  0  0  0  0  0  0
  -23.5817   -9.6401   21.0027 C   0  0  0  0  0  0  0  0  0  0  0  0
  -24.2100  -10.4121   23.2041 C   0  0  0  0  0  0  0  0  0  0  0  0
  -33.1720  -30.7828   15.3965 C   0  0  0  0  0  0  0  0  0  0  0  0
  -33.0329  -28.0281   15.7688 C   0  0  0  0  0  0  0  0  0  0  0  0
  -29.5446  -22.4848   18.6706 C   0  0  0  0  0  0  0  0  0  0  0  0
  -23.0043   -8.5024   21.5665 C   0  0  0  0  0  0  0  0  0  0  0  0
  -23.6325   -9.2744   23.7679 C   0  0  0  0  0  0  0  0  0  0  0  0
  -29.7120  -21.4930   19.6361 C   0  0  0  0  0  0  0  0  0  0  0  0
  -20.1336   -7.6953   23.1604 C   0  0  0  0  0  0  0  0  0  0  0  0
  -18.8754   -7.3099   22.6979 C   0  0  0  0  0  0  0  0  0  0  0  0
  -29.1200  -23.0767   21.3568 C   0  0  0  0  0  0  0  0  0  0  0  0
  -19.7853   -5.1857   21.9928 C   0  0  0  0  0  0  0  0  0  0  0  0
  -30.4914  -18.0373   24.6692 C   0  0  0  0  0  0  0  0  0  0  0  0
  -24.1846  -10.5949   21.8215 C   0  0  0  0  0  0  0  0  0  0  0  0
  -24.1553  -13.0049   20.9856 C   0  0  0  0  0  0  0  0  0  0  0  0
  -32.7780  -30.2764   16.6450 C   0  0  0  0  0  0  0  0  0  0  0  0
  -29.1737  -23.7850   19.0426 C   0  0  0  0  0  0  0  0  0  0  0  0
  -32.7171  -28.8831   16.8384 C   0  0  0  0  0  0  0  0  0  0  0  0
  -28.9462  -24.0825   20.3938 C   0  0  0  0  0  0  0  0  0  0  0  0
  -23.0296   -8.3196   22.9490 C   0  0  0  0  0  0  0  0  0  0  0  0
  -29.5025  -21.7897   20.9797 C   0  0  0  0  0  0  0  0  0  0  0  0
  -21.2177   -6.8259   23.0391 C   0  0  0  0  0  0  0  0  0  0  0  0
  -18.7012   -6.0551   22.1141 C   0  0  0  0  0  0  0  0  0  0  0  0
  -21.0435   -5.5711   22.4553 C   0  0  0  0  0  0  0  0  0  0  0  0
  -24.7818  -11.7701   21.2397 C   0  0  0  0  0  0  0  0  0  0  0  0
  -30.1517  -18.6038   22.6458 C   0  0  0  0  0  0  0  0  0  0  0  0
  -29.9342  -17.2469   22.6890 C   0  0  0  0  0  0  0  0  0  0  0  0
  -25.1424  -13.7832   20.4319 C   0  0  0  0  0  0  0  0  0  0  0  0
  -22.8022  -13.4121   21.2285 C   0  0  0  0  0  0  0  0  0  0  0  0
  -30.5150  -26.6565   18.7996 C   0  0  0  0  0  0  0  0  0  0  0  0
  -27.6600  -27.6592   19.9681 C   0  0  0  0  0  0  0  0  0  0  0  0
  -24.8395  -26.9297   21.7456 C   0  0  0  0  0  0  0  0  0  0  0  0
  -31.1174  -13.6626   20.7995 C   0  0  0  0  0  0  0  0  0  0  0  0
  -32.4966  -31.2458   17.7656 C   0  0  0  0  0  0  0  0  0  0  0  0
  -28.9713  -24.8367   17.9865 C   0  0  0  0  0  0  0  0  0  0  0  0
  -28.5271  -25.4576   20.8434 C   0  0  0  0  0  0  0  0  0  0  0  0
  -31.7400  -30.6217   18.9353 C   0  0  0  0  0  0  0  0  0  0  0  0
  -29.1503  -13.4633   17.8386 C   0  0  0  0  0  0  0  0  0  0  0  0
  -32.3621  -29.2831   19.3202 C   0  0  0  0  0  0  0  0  0  0  0  0
  -27.7511  -13.1182   18.3516 C   0  0  0  0  0  0  0  0  0  0  0  0
  -30.2382  -12.7754   18.6603 C   0  0  0  0  0  0  0  0  0  0  0  0
  -28.7576  -12.6636   20.6273 C   0  0  0  0  0  0  0  0  0  0  0  0
  -32.2843  -28.2844   18.1592 C   0  0  1  0  0  0  0  0  0  0  0  0
  -29.0921  -26.2579   18.5276 C   0  0  1  0  0  0  0  0  0  0  0  0
  -27.6287  -13.3784   19.8650 C   0  0  2  0  0  0  0  0  0  0  0  0
  -29.5472  -16.2795   21.6467 C   0  0  0  0  0  0  0  0  0  0  0  0
  -22.7041  -27.9633   22.5636 C   0  0  0  0  0  0  0  0  0  0  0  0
  -29.4484  -15.6611   25.9785 C   0  0  0  0  0  0  0  0  0  0  0  0
  -29.2099  -29.1336   22.1438 C   0  0  0  0  0  0  0  0  0  0  0  0
  -27.0733  -29.3329   23.4335 C   0  0  0  0  0  0  0  0  0  0  0  0
  -27.2800  -30.4080   21.1921 C   0  0  0  0  0  0  0  0  0  0  0  0
  -32.5545  -15.3318   25.2593 C   0  0  0  0  0  0  0  0  0  0  0  0
  -31.1225  -13.3078   25.0873 C   0  0  0  0  0  0  0  0  0  0  0  0
  -23.1878  -25.0063   20.2188 C   0  0  0  0  0  0  0  0  0  0  0  0
  -30.0528  -19.5281   21.4680 C   0  0  0  0  0  0  0  0  0  1  0  0
  -31.8511  -14.5241   23.0083 C   0  0  0  0  0  0  0  0  0  0  0  0
  -27.0913  -27.8916   21.3470 C   0  0  1  0  0  0  0  0  0  0  0  0
  -23.3708  -27.1725   21.4487 C   0  0  2  0  0  0  0  0  0  0  0  0
  -30.0564  -15.5769   24.5648 C   0  0  2  0  0  0  0  0  0  0  0  0
  -27.6734  -29.1660   22.0212 C   0  0  0  0  0  0  0  0  0  0  0  0
  -31.3764  -14.7094   24.4776 C   0  0  0  0  0  0  0  0  0  0  0  0
  -30.4985  -19.0897   23.8816 N   0  0  0  0  0  0  0  0  0  0  0  0
  -26.0672  -11.7597   20.8771 N   0  0  0  0  0  0  0  0  0  0  0  0
  -30.1560  -16.8982   23.9915 N   0  0  0  0  0  0  0  0  0  0  0  0
  -26.2565  -12.9976   20.3894 N   0  0  0  0  0  0  0  0  0  0  0  0
  -28.3483  -26.4533   19.7738 N   0  0  0  0  0  0  0  0  0  0  0  0
  -30.0660  -13.0636   20.0862 N   0  0  0  0  0  0  0  0  0  0  0  0
  -25.1572  -15.0559   19.9821 N   0  0  0  0  0  0  0  0  0  0  0  0
  -21.9194  -12.4880   21.8037 N   0  0  0  0  0  0  0  0  0  0  0  0
  -30.9495  -27.7353   18.0534 N   0  0  0  0  0  0  0  0  0  0  0  0
  -25.6406  -27.9066   21.1931 N   0  0  0  0  0  0  0  0  0  0  0  0
  -30.8691  -13.9073   22.1446 N   0  0  0  0  0  0  0  0  0  0  0  0
  -22.6517  -25.8760   21.2972 N   0  3  0  0  0  0  0  0  0  0  0  0
  -22.3840  -14.5561   20.9287 O   0  0  0  0  0  0  0  0  0  0  0  0
  -31.1698  -26.0324   19.6263 O   0  0  0  0  0  0  0  0  0  0  0  0
  -27.4932  -28.5130   19.0934 O   0  0  0  0  0  0  0  0  0  0  0  0
  -25.2362  -25.9714   22.4051 O   0  0  0  0  0  0  0  0  0  0  0  0
  -32.1955  -13.9624   20.2752 O   0  0  0  0  0  0  0  0  0  0  0  0
  -22.4661   -7.2096   23.4995 O   0  0  0  0  0  0  0  0  0  0  0  0
  -29.6657  -20.8237   21.9242 O   0  0  0  0  0  0  0  0  0  1  0  0
  -17.4926   -5.6846   21.6713 F   0  0  0  0  0  0  0  0  0  0  0  0
  -22.0810   -4.7311   22.3371 F   0  0  0  0  0  0  0  0  0  0  0  0
  1  2  1  0  0  0  0
  1  5  2  0  0  0  0
  2  6  2  0  0  0  0
  3  8  2  0  0  0  0
  3 16  1  0  0  0  0
  4  9  1  0  0  0  0
  4 16  2  0  0  0  0
  5 18  1  0  0  0  0
  6 20  1  0  0  0  0
  7 10  2  0  0  0  0
  7 19  1  0  0  0  0
  8 22  1  0  0  0  0
  9 22  2  0  0  0  0
 10 23  1  0  0  0  0
 11 12  2  0  0  0  0
 11 24  1  0  0  0  0
 12 25  1  0  0  0  0
 13 21  1  0  0  0  0
 13 23  2  0  0  0  0
 14 25  2  0  0  0  0
 14 26  1  0  0  0  0
 15 64  2  0  0  0  0
 15 66  1  0  0  0  0
 16 27  1  0  0  0  0
 17 27  1  0  0  0  0
 17 30  2  0  0  0  0
 17 31  1  0  0  0  0
 18 20  2  0  0  0  0
 18 36  1  0  0  0  0
 19 21  2  0  0  0  0
 19 37  1  0  0  0  0
 20 45  1  0  0  0  0
 21 38  1  0  0  0  0
 22 81  1  0  0  0  0
 23 82  1  0  0  0  0
 24 26  2  0  0  0  0
 24 81  1  0  0  0  0
 25 83  1  0  0  0  0
 26 84  1  0  0  0  0
 27 65  2  0  0  0  0
 28 29  2  0  0  0  0
 28 57  1  0  0  0  0
 28 64  1  0  0  0  0
 29 48  1  0  0  0  0
 29 66  1  0  0  0  0
 30 67  1  0  0  0  0
 30 70  1  0  0  0  0
 31 71  1  0  0  0  0
 31 76  2  0  0  0  0
 32 46  1  0  0  0  0
 32 72  1  0  0  0  0
 32 77  2  0  0  0  0
 33 59  1  0  0  0  0
 33 68  1  0  0  0  0
 33 78  2  0  0  0  0
 34 60  1  0  0  0  0
 34 73  1  0  0  0  0
 34 79  2  0  0  0  0
 35 69  1  0  0  0  0
 35 74  1  0  0  0  0
 35 80  2  0  0  0  0
 36 39  1  0  0  0  0
 37 46  1  0  0  0  0
 38 68  1  0  0  0  0
 39 41  1  0  0  0  0
 40 42  1  0  0  0  0
 40 43  1  0  0  0  0
 41 45  1  0  0  0  0
 42 47  1  0  0  0  0
 43 69  1  0  0  0  0
 44 47  1  0  0  0  0
 44 69  1  0  0  0  0
 45 72  1  0  0  0  0
 46 68  1  0  0  0  0
 47 67  1  0  0  0  0
 49 60  1  0  0  0  0
 50 61  1  0  0  0  0
 51 62  1  0  0  0  0
 52 62  1  0  0  0  0
 53 62  1  0  0  0  0
 54 63  1  0  0  0  0
 55 63  1  0  0  0  0
 56 75  1  0  0  0  0
 57 82  1  0  0  0  0
 58 63  1  0  0  0  0
 58 74  1  0  0  0  0
 59 62  1  0  0  0  0
 59 73  1  0  0  0  0
 60 75  1  0  0  0  0
 61 63  1  0  0  0  0
 61 66  1  0  0  0  0
 65 67  1  0  0  0  0
M  CHG  1  75   1
M  ISO  4  35 100  57 101  74 100  82 101
M  END
> <Batch ID>
0071

> <Smiles>
CNC(C)C(=O)NC(C(=O)N1Cc2cc([101O:1][101CH2:1]c3ncn(C(C)C(C)(C)C[100NH:0][100C:0](=O)N4CCCC(n5nc(-c6ccc(Oc7ccc(F)cc7F)cc6)c(C(N)=O)c5N)C4)c3C)ccc2CC1C(=O)NC1CCCc2ccccc21)C(C)(C)C

> <Shape>
0.275

> <Color>
0.144

> <Negative vol penalty>
0.000

$$$$

  -OEChem-04052318223D

 85 93  0     1  0  0  0  0  0999 V2000
  -32.9239  -25.9402   16.3483 C   0  0  0  0  0  0  0  0  0  0  0  0
  -31.9337  -25.2471   17.0373 C   0  0  0  0  0  0  0  0  0  0  0  0
  -26.5927  -12.8437   21.5933 C   0  0  0  0  0  0  0  0  0  0  0  0
  -26.1296  -13.7838   19.4165 C   0  0  0  0  0  0  0  0  0  0  0  0
  -33.3909  -27.1585   16.8397 C   0  0  0  0  0  0  0  0  0  0  0  0
  -31.4108  -25.7715   18.2188 C   0  0  0  0  0  0  0  0  0  0  0  0
  -26.3605  -25.4558   18.4166 C   0  0  0  0  0  0  0  0  0  0  0  0
  -25.3190  -12.2756   21.6190 C   0  0  0  0  0  0  0  0  0  0  0  0
  -24.8559  -13.2157   19.4421 C   0  0  0  0  0  0  0  0  0  0  0  0
  -25.8121  -24.2138   18.7337 C   0  0  0  0  0  0  0  0  0  0  0  0
  -23.7653   -9.5829   20.2894 C   0  0  0  0  0  0  0  0  0  0  0  0
  -23.6553   -8.2568   20.7076 C   0  0  0  0  0  0  0  0  0  0  0  0
  -25.4861  -24.9454   21.0091 C   0  0  0  0  0  0  0  0  0  0  0  0
  -22.2109   -8.9474   22.5170 C   0  0  0  0  0  0  0  0  0  0  0  0
  -27.2201  -20.4081   20.3621 C   0  0  0  0  0  0  0  0  0  0  0  0
  -26.3192  -19.3158   18.6734 C   0  0  0  0  0  0  0  0  0  0  0  0
  -26.9979  -13.5979   20.4921 C   0  0  0  0  0  0  0  0  0  0  0  0
  -29.4935  -13.6050   19.9633 C   0  0  0  0  0  0  0  0  0  0  0  0
  -32.8666  -27.7028   18.0227 C   0  0  0  0  0  0  0  0  0  0  0  0
  -26.4860  -26.4498   19.3978 C   0  0  0  0  0  0  0  0  0  0  0  0
  -31.8723  -26.9976   18.7272 C   0  0  0  0  0  0  0  0  0  0  0  0
  -26.0340  -26.2000   20.7014 C   0  0  0  0  0  0  0  0  0  0  0  0
  -24.4506  -12.4616   20.5434 C   0  0  0  0  0  0  0  0  0  0  0  0
  -25.3774  -23.9574   20.0308 C   0  0  0  0  0  0  0  0  0  0  0  0
  -23.0982  -10.5913   20.9850 C   0  0  0  0  0  0  0  0  0  0  0  0
  -22.8780   -7.9390   21.8215 C   0  0  0  0  0  0  0  0  0  0  0  0
  -22.3209  -10.2735   22.0988 C   0  0  0  0  0  0  0  0  0  0  0  0
  -28.3133  -14.1854   20.4653 C   0  0  0  0  0  0  0  0  0  0  0  0
  -28.1497  -20.1351   19.3865 C   0  0  0  0  0  0  0  0  0  0  0  0
  -30.4598  -14.5592   20.1689 C   0  0  0  0  0  0  0  0  0  0  0  0
  -29.6981  -12.3184   19.3646 C   0  0  0  0  0  0  0  0  0  0  0  0
  -28.9241  -28.0098   20.7114 C   0  0  0  0  0  0  0  0  0  0  0  0
  -26.5601  -29.6989   22.1539 C   0  0  0  0  0  0  0  0  0  0  0  0
  -30.1395  -20.5300   20.7684 C   0  0  0  0  0  0  0  0  0  0  0  0
  -23.3209  -29.8173   23.2218 C   0  0  0  0  0  0  0  0  0  0  0  0
  -33.4366  -28.9998   18.5399 C   0  0  0  0  0  0  0  0  0  0  0  0
  -27.0552  -27.7936   19.0333 C   0  0  0  0  0  0  0  0  0  0  0  0
  -26.1278  -27.2405   21.7863 C   0  0  0  0  0  0  0  0  0  0  0  0
  -32.5647  -29.6687   19.5995 C   0  0  0  0  0  0  0  0  0  0  0  0
  -31.5934  -18.1895   23.0593 C   0  0  0  0  0  0  0  0  0  0  0  0
  -32.1129  -28.6492   20.6404 C   0  0  0  0  0  0  0  0  0  0  0  0
  -31.0021  -16.8486   22.6261 C   0  0  0  0  0  0  0  0  0  0  0  0
  -30.5912  -19.3256   22.8802 C   0  0  0  0  0  0  0  0  0  0  0  0
  -29.4501  -18.0986   21.0597 C   0  0  0  0  0  0  0  0  0  0  0  0
  -31.2626  -27.5459   19.9992 C   0  0  1  0  0  0  0  0  0  0  0  0
  -27.6074  -28.5544   20.2348 C   0  0  1  0  0  0  0  0  0  0  0  0
  -30.4404  -16.9285   21.1955 C   0  0  2  0  0  0  0  0  0  0  0  0
  -25.1781  -17.7199   21.8579 C   0  0  0  0  0  0  0  0  0  0  0  0
  -21.6885  -31.3158   24.3995 C   0  0  0  0  0  0  0  0  0  0  0  0
  -22.8891  -19.9477   18.7210 C   0  0  0  0  0  0  0  0  0  0  0  0
  -30.5444  -19.4593   18.6679 C   0  0  0  0  0  0  0  0  0  0  0  0
  -27.9031  -29.0633   24.8189 C   0  0  0  0  0  0  0  0  0  0  0  0
  -25.7834  -29.7370   25.9683 C   0  0  0  0  0  0  0  0  0  0  0  0
  -27.0497  -31.4050   24.6130 C   0  0  0  0  0  0  0  0  0  0  0  0
  -21.5169  -29.8888   20.8767 C   0  0  0  0  0  0  0  0  0  0  0  0
  -24.1918  -18.4905   20.9860 C   0  0  0  0  0  0  0  0  0  0  0  0
  -29.8725  -21.8990   18.7619 C   0  0  0  0  0  0  0  0  0  0  0  0
  -24.1558  -22.0513   19.3025 C   0  0  0  0  0  0  0  0  0  1  0  0
  -25.7790  -29.5618   23.4384 C   0  0  1  0  0  0  0  0  0  0  0  0
  -22.2431  -30.8731   23.0544 C   0  0  2  0  0  0  0  0  0  0  0  0
  -23.6071  -20.7175   19.8376 C   0  0  2  0  0  0  0  0  0  0  0  0
  -24.7016  -19.9005   20.5957 C   0  0  2  0  0  0  0  0  0  0  0  0
  -29.5793  -20.4804   19.3692 C   0  0  1  0  0  0  0  0  0  0  0  0
  -26.6287  -29.9213   24.6899 C   0  0  0  0  0  0  0  0  0  0  0  0
  -27.5825  -19.4552   18.3378 N   0  0  0  0  0  0  0  0  0  0  0  0
  -28.5096  -15.4132   20.9532 N   0  0  0  0  0  0  0  0  0  0  0  0
  -26.0523  -19.8776   19.8909 N   0  0  0  0  0  0  0  0  0  0  0  0
  -29.8244  -15.6120   20.7589 N   0  0  0  0  0  0  0  0  0  0  0  0
  -26.6975  -28.5365   21.3819 N   0  0  0  0  0  0  0  0  0  0  0  0
  -30.0642  -19.3538   21.5146 N   0  0  0  0  0  0  0  0  0  0  0  0
  -31.7825  -14.5920   19.9009 N   0  0  0  0  0  0  0  0  0  0  0  0
  -28.5972  -11.4616   19.2296 N   0  0  0  0  0  0  0  0  0  0  0  0
  -29.9187  -28.0227   19.7522 N   0  0  0  0  0  0  0  0  0  0  0  0
  -24.5799  -30.3768   23.2760 N   0  0  0  0  0  0  0  0  0  0  0  0
  -29.4049  -21.9792   17.3544 N   0  3  0  0  0  0  0  0  0  0  0  0
  -21.1184  -30.3398   22.2349 N   0  3  0  0  0  0  0  0  0  0  0  0
  -30.8270  -11.9332   18.9762 O   0  0  0  0  0  0  0  0  0  0  0  0
  -29.0304  -27.6090   21.8646 O   0  0  0  0  0  0  0  0  0  0  0  0
  -27.0249  -30.7984   21.8431 O   0  0  0  0  0  0  0  0  0  0  0  0
  -30.6316  -21.5827   21.1829 O   0  0  0  0  0  0  0  0  0  0  0  0
  -23.0707  -28.6166   23.3005 O   0  0  0  0  0  0  0  0  0  0  0  0
  -23.2078  -11.9072   20.5680 O   0  0  0  0  0  0  0  0  0  0  0  0
  -24.8424  -22.7458   20.3431 O   0  0  0  0  0  0  0  0  0  1  0  0
  -22.7712   -6.6654   22.2221 F   0  0  0  0  0  0  0  0  0  0  0  0
  -21.6768  -11.2378   22.7703 F   0  0  0  0  0  0  0  0  0  0  0  0
  1  2  1  0  0  0  0
  1  5  2  0  0  0  0
  2  6  2  0  0  0  0
  3  8  2  0  0  0  0
  3 17  1  0  0  0  0
  4  9  1  0  0  0  0
  4 17  2  0  0  0  0
  5 19  1  0  0  0  0
  6 21  1  0  0  0  0
  7 10  2  0  0  0  0
  7 20  1  0  0  0  0
  8 23  1  0  0  0  0
  9 23  2  0  0  0  0
 10 24  1  0  0  0  0
 11 12  2  0  0  0  0
 11 25  1  0  0  0  0
 12 26  1  0  0  0  0
 13 22  1  0  0  0  0
 13 24  2  0  0  0  0
 14 26  2  0  0  0  0
 14 27  1  0  0  0  0
 15 29  2  0  0  0  0
 15 67  1  0  0  0  0
 16 65  2  0  0  0  0
 16 67  1  0  0  0  0
 17 28  1  0  0  0  0
 18 28  1  0  0  0  0
 18 30  2  0  0  0  0
 18 31  1  0  0  0  0
 19 21  2  0  0  0  0
 19 36  1  0  0  0  0
 20 22  2  0  0  0  0
 20 37  1  0  0  0  0
 21 45  1  0  0  0  0
 22 38  1  0  0  0  0
 23 82  1  0  0  0  0
 24 83  1  0  0  0  0
 25 27  2  0  0  0  0
 25 82  1  0  0  0  0
 26 84  1  0  0  0  0
 27 85  1  0  0  0  0
 28 66  2  0  0  0  0
 29 63  1  0  0  0  0
 29 65  1  0  0  0  0
 30 68  1  0  0  0  0
 30 71  1  0  0  0  0
 31 72  1  0  0  0  0
 31 77  2  0  0  0  0
 32 46  1  0  0  0  0
 32 73  1  0  0  0  0
 32 78  2  0  0  0  0
 33 59  1  0  0  0  0
 33 69  1  0  0  0  0
 33 79  2  0  0  0  0
 34 63  1  0  0  0  0
 34 70  1  0  0  0  0
 34 80  2  0  0  0  0
 35 60  1  0  0  0  0
 35 74  1  0  0  0  0
 35 81  2  0  0  0  0
 36 39  1  0  0  0  0
 37 46  1  0  0  0  0
 38 69  1  0  0  0  0
 39 41  1  0  0  0  0
 40 42  1  0  0  0  0
 40 43  1  0  0  0  0
 41 45  1  0  0  0  0
 42 47  1  0  0  0  0
 43 70  1  0  0  0  0
 44 47  1  0  0  0  0
 44 70  1  0  0  0  0
 45 73  1  0  0  0  0
 46 69  1  0  0  0  0
 47 68  1  0  0  0  0
 48 56  1  0  0  0  0
 49 60  1  0  0  0  0
 50 61  1  0  0  0  0
 51 63  1  0  0  0  0
 52 64  1  0  0  0  0
 53 64  1  0  0  0  0
 54 64  1  0  0  0  0
 55 76  1  0  0  0  0
 56 62  1  0  0  0  0
 57 63  1  0  0  0  0
 57 75  1  0  0  0  0
 58 61  1  0  0  0  0
 58 83  1  0  0  0  0
 59 64  1  0  0  0  0
 59 74  1  0  0  0  0
 60 76  1  0  0  0  0
 61 62  1  0  0  0  0
 62 67  1  0  0  0  0
 66 68  1  0  0  0  0
M  CHG  2  75   1  76   1
M  ISO  4  34 100  58 101  63 100  83 101
M  END
> <Batch ID>
0071

> <Smiles>
CCC(C(C)[101CH2:1][101O:1]c1ccc2c(c1)CN(C(=O)C(NC(=O)C(C)NC)C(C)(C)C)C(C(=O)NC1CCCc3ccccc31)C2)n1cnc([100C:0](C)(CN)[100C:0](=O)N2CCCC(n3nc(-c4ccc(Oc5ccc(F)cc5F)cc4)c(C(N)=O)c3N)C2)c1

> <Shape>
0.301

> <Color>
0.076

> <Negative vol penalty>
0.000

$$$$

  -OEChem-04052318223D

 89 97  0     1  0  0  0  0  0999 V2000
  -30.3677  -28.9614   26.2146 C   0  0  0  0  0  0  0  0  0  0  0  0
  -29.6892  -27.9487   25.5442 C   0  0  0  0  0  0  0  0  0  0  0  0
  -22.8638  -10.8085   19.4042 C   0  0  0  0  0  0  0  0  0  0  0  0
  -23.4389   -9.7349   21.4908 C   0  0  0  0  0  0  0  0  0  0  0  0
  -29.7837  -30.2205   26.3480 C   0  0  0  0  0  0  0  0  0  0  0  0
  -28.4257  -28.1942   25.0077 C   0  0  0  0  0  0  0  0  0  0  0  0
  -27.9151  -26.3525   20.3181 C   0  0  0  0  0  0  0  0  0  0  0  0
  -21.9109   -9.8200   19.1582 C   0  0  0  0  0  0  0  0  0  0  0  0
  -22.4860   -8.7464   21.2448 C   0  0  0  0  0  0  0  0  0  0  0  0
  -27.6940  -24.9816   20.1930 C   0  0  0  0  0  0  0  0  0  0  0  0
  -22.2252   -5.9512   19.3607 C   0  0  0  0  0  0  0  0  0  0  0  0
  -22.5939   -4.6251   19.5866 C   0  0  0  0  0  0  0  0  0  0  0  0
  -25.3370  -25.3957   19.8892 C   0  0  0  0  0  0  0  0  0  0  0  0
  -28.1661  -18.1159   18.3528 C   0  0  0  0  0  0  0  0  0  0  0  0
  -20.8271   -4.4122   21.2206 C   0  0  0  0  0  0  0  0  0  0  0  0
  -23.6278  -10.7659   20.5705 C   0  0  0  0  0  0  0  0  0  0  0  0
  -24.4192  -13.0039   21.5049 C   0  0  0  0  0  0  0  0  0  0  0  0
  -28.5166  -30.4843   25.8045 C   0  0  0  0  0  0  0  0  0  0  0  0
  -26.8455  -27.2560   20.2404 C   0  0  0  0  0  0  0  0  0  0  0  0
  -27.8237  -29.4575   25.1351 C   0  0  0  0  0  0  0  0  0  0  0  0
  -25.5476  -26.7776   20.0110 C   0  0  0  0  0  0  0  0  0  0  0  0
  -28.7802  -16.9706   17.7884 C   0  0  0  0  0  0  0  0  0  0  0  0
  -21.7220   -8.7890   20.0785 C   0  0  0  0  0  0  0  0  0  0  0  0
  -26.4044  -24.5028   19.9814 C   0  0  0  0  0  0  0  0  0  0  0  0
  -21.1575   -6.5079   20.0648 C   0  0  0  0  0  0  0  0  0  0  0  0
  -21.8949   -3.8556   20.5165 C   0  0  0  0  0  0  0  0  0  0  0  0
  -20.4584   -5.7384   20.9947 C   0  0  0  0  0  0  0  0  0  0  0  0
  -24.6127  -11.7864   20.8249 C   0  0  0  0  0  0  0  0  0  0  0  0
  -29.4582  -16.3269   18.8001 C   0  0  0  0  0  0  0  0  0  0  0  0
  -28.4872  -18.1370   19.6922 C   0  0  0  0  0  0  0  0  0  0  0  0
  -25.6509  -13.6111   21.4788 C   0  0  0  0  0  0  0  0  0  0  0  0
  -23.2323  -13.5380   22.1063 C   0  0  0  0  0  0  0  0  0  0  0  0
  -30.2501  -15.0932   18.7111 C   0  0  0  0  0  0  0  0  0  0  0  0
  -25.5455  -29.3692   22.2274 C   0  0  0  0  0  0  0  0  0  0  0  0
  -23.7735  -30.1437   19.6231 C   0  0  0  0  0  0  0  0  0  0  0  0
  -22.4786  -29.1919   16.6124 C   0  0  0  0  0  0  0  0  0  0  0  0
  -27.9058  -31.8471   26.0151 C   0  0  0  0  0  0  0  0  0  0  0  0
  -27.1044  -28.7335   20.3507 C   0  0  0  0  0  0  0  0  0  0  0  0
  -24.3679  -27.7074   19.8997 C   0  0  0  0  0  0  0  0  0  0  0  0
  -26.7240  -32.1340   25.0924 C   0  0  0  0  0  0  0  0  0  0  0  0
  -30.1904  -11.8248   20.1449 C   0  0  0  0  0  0  0  0  0  0  0  0
  -25.7680  -30.9458   25.0641 C   0  0  0  0  0  0  0  0  0  0  0  0
  -28.7150  -11.6125   20.4888 C   0  0  0  0  0  0  0  0  0  0  0  0
  -30.3590  -12.6282   18.8577 C   0  0  0  0  0  0  0  0  0  0  0  0
  -28.1624  -13.7104   19.1872 C   0  0  0  0  0  0  0  0  0  0  0  0
  -26.4620  -29.6922   24.5179 C   0  0  1  0  0  0  0  0  0  0  0  0
  -25.8702  -29.5268   20.7688 C   0  0  1  0  0  0  0  0  0  0  0  0
  -27.9483  -12.9483   20.5053 C   0  0  1  0  0  0  0  0  0  0  0  0
  -28.7000  -16.5558   16.3730 C   0  0  0  0  0  0  0  0  0  0  0  0
  -21.0397  -30.0277   14.7340 C   0  0  0  0  0  0  0  0  0  0  0  0
  -31.2382  -17.4426   23.8678 C   0  0  0  0  0  0  0  0  0  0  0  0
  -33.4196  -17.0401   22.7101 C   0  0  0  0  0  0  0  0  0  0  0  0
  -21.2893  -29.7322   21.3462 C   0  0  0  0  0  0  0  0  0  0  0  0
  -19.9320  -29.6396   19.2445 C   0  0  0  0  0  0  0  0  0  0  0  0
  -21.1875  -31.7153   19.8258 C   0  0  0  0  0  0  0  0  0  0  0  0
  -27.2910  -19.8087   23.6919 C   0  0  0  0  0  0  0  0  0  0  0  0
  -24.9656  -19.1278   23.1207 C   0  0  0  0  0  0  0  0  0  0  0  0
  -24.6732  -28.9026   14.6480 C   0  0  0  0  0  0  0  0  0  0  0  0
  -28.1019  -19.1271   20.7644 C   0  0  0  0  0  0  0  0  0  0  0  0
  -26.7914  -18.7224   21.4528 C   0  0  0  0  0  0  0  0  0  0  0  0
  -25.0618  -21.2382   20.7946 C   0  0  0  0  0  0  0  0  0  0  0  0
  -26.0214  -21.1417   21.9902 C   0  0  0  0  0  0  0  0  0  0  0  0
  -31.3086  -17.0567   21.3484 C   0  0  0  0  0  0  0  0  0  0  0  0
  -29.8241  -16.7005   21.2467 C   0  0  0  0  0  0  0  0  0  0  0  0
  -24.9186  -22.6721   20.2930 C   0  0  0  0  0  0  0  0  0  1  0  0
  -22.4599  -29.6746   19.0457 C   0  0  1  0  0  0  0  0  0  0  0  0
  -22.4589  -29.8825   15.2607 C   0  0  2  0  0  0  0  0  0  0  0  0
  -31.9253  -16.7091   22.7152 C   0  0  0  0  0  0  0  0  0  0  0  0
  -21.2389  -30.1725   19.8696 C   0  0  0  0  0  0  0  0  0  0  0  0
  -26.2718  -19.7077   22.5367 C   0  0  0  0  0  0  0  0  0  0  0  0
  -25.8683  -11.6281   20.3980 N   0  0  0  0  0  0  0  0  0  0  0  0
  -29.2731  -17.0448   19.9528 N   0  0  0  0  0  0  0  0  0  0  0  0
  -26.4750  -12.7541   20.8106 N   0  0  0  0  0  0  0  0  0  0  0  0
  -29.5988  -13.8757   18.9231 N   0  0  0  0  0  0  0  0  0  0  0  0
  -24.6714  -29.1430   20.0206 N   0  0  0  0  0  0  0  0  0  0  0  0
  -26.0985  -14.7893   21.9625 N   0  0  0  0  0  0  0  0  0  0  0  0
  -22.0531  -12.7833   22.0421 N   0  0  0  0  0  0  0  0  0  0  0  0
  -26.5642  -29.7589   23.0758 N   0  0  0  0  0  0  0  0  0  0  0  0
  -22.4524  -30.0995   17.6501 N   0  0  0  0  0  0  0  0  0  0  0  0
  -23.2508  -29.1018   14.2685 N   0  3  0  0  0  0  0  0  0  0  0  0
  -23.2140  -14.6588   22.6691 O   0  0  0  0  0  0  0  0  0  0  0  0
  -31.4472  -15.2324   18.4647 O   0  0  0  0  0  0  0  0  0  0  0  0
  -24.4512  -28.9282   22.5585 O   0  0  0  0  0  0  0  0  0  0  0  0
  -23.9976  -31.3535   19.7112 O   0  0  0  0  0  0  0  0  0  0  0  0
  -22.5100  -27.9694   16.7354 O   0  0  0  0  0  0  0  0  0  0  0  0
  -20.7921   -7.8244   19.8388 O   0  0  0  0  0  0  0  0  0  0  0  0
  -26.1857  -23.1652   19.8596 O   0  0  0  0  0  0  0  0  0  1  0  0
  -22.2481   -2.5817   20.7322 F   0  0  0  0  0  0  0  0  0  0  0  0
  -19.4310   -6.2673   21.6734 F   0  0  0  0  0  0  0  0  0  0  0  0
  1  2  1  0  0  0  0
  1  5  2  0  0  0  0
  2  6  2  0  0  0  0
  3  8  2  0  0  0  0
  3 16  1  0  0  0  0
  4  9  1  0  0  0  0
  4 16  2  0  0  0  0
  5 18  1  0  0  0  0
  6 20  1  0  0  0  0
  7 10  2  0  0  0  0
  7 19  1  0  0  0  0
  8 23  1  0  0  0  0
  9 23  2  0  0  0  0
 10 24  1  0  0  0  0
 11 12  2  0  0  0  0
 11 25  1  0  0  0  0
 12 26  1  0  0  0  0
 13 21  1  0  0  0  0
 13 24  2  0  0  0  0
 14 22  1  0  0  0  0
 14 30  2  0  0  0  0
 15 26  2  0  0  0  0
 15 27  1  0  0  0  0
 16 28  1  0  0  0  0
 17 28  1  0  0  0  0
 17 31  2  0  0  0  0
 17 32  1  0  0  0  0
 18 20  2  0  0  0  0
 18 37  1  0  0  0  0
 19 21  2  0  0  0  0
 19 38  1  0  0  0  0
 20 46  1  0  0  0  0
 21 39  1  0  0  0  0
 22 29  2  0  0  0  0
 22 49  1  0  0  0  0
 23 86  1  0  0  0  0
 24 87  1  0  0  0  0
 25 27  2  0  0  0  0
 25 86  1  0  0  0  0
 26 88  1  0  0  0  0
 27 89  1  0  0  0  0
 28 71  2  0  0  0  0
 29 33  1  0  0  0  0
 29 72  1  0  0  0  0
 30 59  1  0  0  0  0
 30 72  1  0  0  0  0
 31 73  1  0  0  0  0
 31 76  1  0  0  0  0
 32 77  1  0  0  0  0
 32 81  2  0  0  0  0
 33 74  1  0  0  0  0
 33 82  2  0  0  0  0
 34 47  1  0  0  0  0
 34 78  1  0  0  0  0
 34 83  2  0  0  0  0
 35 66  1  0  0  0  0
 35 75  1  0  0  0  0
 35 84  2  0  0  0  0
 36 67  1  0  0  0  0
 36 79  1  0  0  0  0
 36 85  2  0  0  0  0
 37 40  1  0  0  0  0
 38 47  1  0  0  0  0
 39 75  1  0  0  0  0
 40 42  1  0  0  0  0
 41 43  1  0  0  0  0
 41 44  1  0  0  0  0
 42 46  1  0  0  0  0
 43 48  1  0  0  0  0
 44 74  1  0  0  0  0
 45 48  1  0  0  0  0
 45 74  1  0  0  0  0
 46 78  1  0  0  0  0
 47 75  1  0  0  0  0
 48 73  1  0  0  0  0
 50 67  1  0  0  0  0
 51 68  1  0  0  0  0
 52 68  1  0  0  0  0
 53 69  1  0  0  0  0
 54 69  1  0  0  0  0
 55 69  1  0  0  0  0
 56 70  1  0  0  0  0
 57 70  1  0  0  0  0
 58 80  1  0  0  0  0
 59 60  1  0  0  0  0
 60 70  1  0  0  0  0
 61 62  1  0  0  0  0
 61 65  1  0  0  0  0
 62 70  1  0  0  0  0
 63 64  1  0  0  0  0
 63 68  1  0  0  0  0
 64 72  1  0  0  0  0
 65 87  1  0  0  0  0
 66 69  1  0  0  0  0
 66 79  1  0  0  0  0
 67 80  1  0  0  0  0
 71 73  1  0  0  0  0
M  CHG  1  80   1
M  ISO  4  29 100  33 100  65 101  87 101
M  END
> <Batch ID>
0071

> <Smiles>
CNC(C)C(=O)NC(C(=O)N1Cc2cc([101O:1][101CH2:1]CCC(C)(C)CCc3cc(C)[100c:0]([100C:0](=O)N4CCCC(n5nc(-c6ccc(Oc7ccc(F)cc7F)cc6)c(C(N)=O)c5N)C4)n3CCC(C)C)ccc2CC1C(=O)NC1CCCc2ccccc21)C(C)(C)C

> <Shape>
0.276

> <Color>
0.105

> <Negative vol penalty>
0.000

$$$$

  -OEChem-04052318222D

  0  0  0     0  0  0  0  0  0999 V2000
M  END
$$$$

  -OEChem-04052318223D

 85 93  0     1  0  0  0  0  0999 V2000
  -43.7007  -20.1597   30.7154 C   0  0  0  0  0  0  0  0  0  0  0  0
  -42.3879  -19.7561   30.9369 C   0  0  0  0  0  0  0  0  0  0  0  0
  -23.1869   -9.8189   19.9322 C   0  0  0  0  0  0  0  0  0  0  0  0
  -23.5633   -9.9996   22.3119 C   0  0  0  0  0  0  0  0  0  0  0  0
  -44.0428  -20.7893   29.5193 C   0  0  0  0  0  0  0  0  0  0  0  0
  -41.4162  -19.9828   29.9628 C   0  0  0  0  0  0  0  0  0  0  0  0
  -36.6431  -16.3892   28.6175 C   0  0  0  0  0  0  0  0  0  0  0  0
  -22.4188   -8.6735   20.1407 C   0  0  0  0  0  0  0  0  0  0  0  0
  -22.7951   -8.8541   22.5203 C   0  0  0  0  0  0  0  0  0  0  0  0
  -35.2994  -16.4376   28.9859 C   0  0  0  0  0  0  0  0  0  0  0  0
  -23.1916   -5.5068   22.2578 C   0  0  0  0  0  0  0  0  0  0  0  0
  -23.6877   -4.5450   23.1378 C   0  0  0  0  0  0  0  0  0  0  0  0
  -34.7828  -17.5854   26.9280 C   0  0  0  0  0  0  0  0  0  0  0  0
  -21.7303   -4.8084   24.5292 C   0  0  0  0  0  0  0  0  0  0  0  0
  -31.5592  -17.3223   24.5437 C   0  0  0  0  0  0  0  0  0  0  0  0
  -23.7593  -10.4820   21.0178 C   0  0  0  0  0  0  0  0  0  0  0  0
  -24.1019  -12.9980   20.7735 C   0  0  0  0  0  0  0  0  0  0  0  0
  -43.0768  -21.0153   28.5262 C   0  0  0  0  0  0  0  0  0  0  0  0
  -37.0693  -16.9491   27.4045 C   0  0  0  0  0  0  0  0  0  0  0  0
  -41.7454  -20.6173   28.7529 C   0  0  0  0  0  0  0  0  0  0  0  0
  -36.1321  -17.5405   26.5453 C   0  0  0  0  0  0  0  0  0  0  0  0
  -22.2229   -8.1911   21.4347 C   0  0  0  0  0  0  0  0  0  0  0  0
  -34.3694  -17.0383   28.1424 C   0  0  0  0  0  0  0  0  0  0  0  0
  -21.9648   -6.1194   22.5135 C   0  0  0  0  0  0  0  0  0  0  0  0
  -22.9571   -4.1958   24.2735 C   0  0  0  0  0  0  0  0  0  0  0  0
  -21.2341   -5.7702   23.6492 C   0  0  0  0  0  0  0  0  0  0  0  0
  -24.5533  -11.6650   20.8031 C   0  0  0  0  0  0  0  0  0  0  0  0
  -31.3886  -17.0600   23.1997 C   0  0  0  0  0  0  0  0  0  0  0  0
  -31.1365  -16.3295   25.4040 C   0  0  0  0  0  0  0  0  0  0  0  0
  -25.2343  -13.7390   20.5390 C   0  0  0  0  0  0  0  0  0  0  0  0
  -30.4758  -15.0298   23.6601 C   0  0  0  0  0  0  0  0  0  0  0  0
  -22.7772  -13.5200   20.9429 C   0  0  0  0  0  0  0  0  0  0  0  0
  -39.0576  -19.2920   26.5914 C   0  0  0  0  0  0  0  0  0  0  0  0
  -38.4514  -18.2361   23.5847 C   0  0  0  0  0  0  0  0  0  0  0  0
  -36.3456  -16.5928   21.4607 C   0  0  0  0  0  0  0  0  0  0  0  0
  -31.0735  -12.1999   21.5753 C   0  0  0  0  0  0  0  0  0  0  0  0
  -43.4843  -21.7420   27.2690 C   0  0  0  0  0  0  0  0  0  0  0  0
  -38.5181  -16.8650   27.0095 C   0  0  0  0  0  0  0  0  0  0  0  0
  -36.5352  -18.1382   25.2229 C   0  0  0  0  0  0  0  0  0  0  0  0
  -42.4731  -21.6085   26.1333 C   0  0  0  0  0  0  0  0  0  0  0  0
  -29.5306  -13.4784   18.4630 C   0  0  0  0  0  0  0  0  0  0  0  0
  -41.0582  -21.8565   26.6463 C   0  0  0  0  0  0  0  0  0  0  0  0
  -28.0454  -13.2006   18.6890 C   0  0  0  0  0  0  0  0  0  0  0  0
  -30.4138  -12.4869   19.2144 C   0  0  0  0  0  0  0  0  0  0  0  0
  -28.6386  -12.1283   20.8979 C   0  0  0  0  0  0  0  0  0  0  0  0
  -40.6681  -20.8234   27.7103 C   0  0  1  0  0  0  0  0  0  0  0  0
  -38.9211  -17.9231   25.9870 C   0  0  1  0  0  0  0  0  0  0  0  0
  -27.7214  -13.1382   20.1919 C   0  0  2  0  0  0  0  0  0  0  0  0
  -31.8159  -18.0744   22.1927 C   0  0  0  0  0  0  0  0  0  0  0  0
  -28.8502  -13.1642   24.1484 C   0  0  0  0  0  0  0  0  0  0  0  0
  -36.1029  -15.9230   19.0544 C   0  0  0  0  0  0  0  0  0  0  0  0
  -37.6896  -21.1021   22.8664 C   0  0  0  0  0  0  0  0  0  0  0  0
  -36.5790  -20.2162   20.8048 C   0  0  0  0  0  0  0  0  0  0  0  0
  -39.0342  -19.9124   21.1253 C   0  0  0  0  0  0  0  0  0  0  0  0
  -31.9257  -12.5726   23.8588 C   0  0  0  0  0  0  0  0  0  0  0  0
  -36.3126  -13.7136   22.1448 C   0  0  0  0  0  0  0  0  0  0  0  0
  -31.0872  -15.8079   29.0504 C   0  0  0  0  0  0  0  0  0  0  0  0
  -32.5674  -16.0276   29.3202 C   0  0  0  0  0  0  0  0  0  1  0  0
  -30.8199  -15.4595   27.5946 C   0  0  0  0  0  0  0  0  0  0  0  0
  -29.8743  -13.7567   23.1694 C   0  0  2  0  0  0  0  0  0  0  0  0
  -37.4242  -18.5565   22.5259 C   0  0  1  0  0  0  0  0  0  0  0  0
  -36.5995  -15.5072   20.4304 C   0  0  2  0  0  0  0  0  0  0  0  0
  -37.6741  -19.9373   21.8563 C   0  0  0  0  0  0  0  0  0  0  0  0
  -25.8699  -11.5619   20.6032 N   0  0  0  0  0  0  0  0  0  0  0  0
  -30.8485  -15.9201   22.7210 N   0  0  0  0  0  0  0  0  0  0  0  0
  -30.5882  -15.1666   24.9951 N   0  0  0  0  0  0  0  0  0  0  0  0
  -26.2555  -12.8396   20.4456 N   0  0  0  0  0  0  0  0  0  0  0  0
  -37.9644  -18.0368   24.8843 N   0  0  0  0  0  0  0  0  0  0  0  0
  -30.0560  -12.4158   20.6315 N   0  0  0  0  0  0  0  0  0  0  0  0
  -25.4463  -15.0655   20.4055 N   0  0  0  0  0  0  0  0  0  0  0  0
  -21.7291  -12.6193   21.1764 N   0  0  0  0  0  0  0  0  0  0  0  0
  -40.3180  -19.5646   27.0880 N   0  0  0  0  0  0  0  0  0  0  0  0
  -37.4313  -17.4318   21.5967 N   0  0  0  0  0  0  0  0  0  0  0  0
  -30.8931  -12.7592   22.8495 N   0  0  0  0  0  0  0  0  0  0  0  0
  -35.9028  -14.2491   20.8211 N   0  3  0  0  0  0  0  0  0  0  0  0
  -22.5279  -14.7473   20.8726 O   0  0  0  0  0  0  0  0  0  0  0  0
  -38.0914  -20.0457   26.6048 O   0  0  0  0  0  0  0  0  0  0  0  0
  -39.6414  -18.1583   23.2690 O   0  0  0  0  0  0  0  0  0  0  0  0
  -35.2884  -16.6892   22.0799 O   0  0  0  0  0  0  0  0  0  0  0  0
  -32.0899  -11.5528   21.2922 O   0  0  0  0  0  0  0  0  0  0  0  0
  -21.4732   -7.0735   21.6385 O   0  0  0  0  0  0  0  0  0  0  0  0
  -33.0573  -17.0875   28.4998 O   0  0  0  0  0  0  0  0  0  1  0  0
  -31.2716  -16.5138   26.7555 O   0  0  0  0  0  0  0  0  0  0  0  0
  -23.4330   -3.2711   25.1177 F   0  0  0  0  0  0  0  0  0  0  0  0
  -20.0544   -6.3544   23.8996 F   0  0  0  0  0  0  0  0  0  0  0  0
  1  2  1  0  0  0  0
  1  5  2  0  0  0  0
  2  6  2  0  0  0  0
  3  8  2  0  0  0  0
  3 16  1  0  0  0  0
  4  9  1  0  0  0  0
  4 16  2  0  0  0  0
  5 18  1  0  0  0  0
  6 20  1  0  0  0  0
  7 10  2  0  0  0  0
  7 19  1  0  0  0  0
  8 22  1  0  0  0  0
  9 22  2  0  0  0  0
 10 23  1  0  0  0  0
 11 12  2  0  0  0  0
 11 24  1  0  0  0  0
 12 25  1  0  0  0  0
 13 21  1  0  0  0  0
 13 23  2  0  0  0  0
 14 25  2  0  0  0  0
 14 26  1  0  0  0  0
 15 28  2  0  0  0  0
 15 29  1  0  0  0  0
 16 27  1  0  0  0  0
 17 27  1  0  0  0  0
 17 30  2  0  0  0  0
 17 32  1  0  0  0  0
 18 20  2  0  0  0  0
 18 37  1  0  0  0  0
 19 21  2  0  0  0  0
 19 38  1  0  0  0  0
 20 46  1  0  0  0  0
 21 39  1  0  0  0  0
 22 81  1  0  0  0  0
 23 82  1  0  0  0  0
 24 26  2  0  0  0  0
 24 81  1  0  0  0  0
 25 84  1  0  0  0  0
 26 85  1  0  0  0  0
 27 64  2  0  0  0  0
 28 49  1  0  0  0  0
 28 65  1  0  0  0  0
 29 66  2  0  0  0  0
 29 83  1  0  0  0  0
 30 67  1  0  0  0  0
 30 70  1  0  0  0  0
 31 60  1  0  0  0  0
 31 65  2  0  0  0  0
 31 66  1  0  0  0  0
 32 71  1  0  0  0  0
 32 76  2  0  0  0  0
 33 47  1  0  0  0  0
 33 72  1  0  0  0  0
 33 77  2  0  0  0  0
 34 61  1  0  0  0  0
 34 68  1  0  0  0  0
 34 78  2  0  0  0  0
 35 62  1  0  0  0  0
 35 73  1  0  0  0  0
 35 79  2  0  0  0  0
 36 69  1  0  0  0  0
 36 74  1  0  0  0  0
 36 80  2  0  0  0  0
 37 40  1  0  0  0  0
 38 47  1  0  0  0  0
 39 68  1  0  0  0  0
 40 42  1  0  0  0  0
 41 43  1  0  0  0  0
 41 44  1  0  0  0  0
 42 46  1  0  0  0  0
 43 48  1  0  0  0  0
 44 69  1  0  0  0  0
 45 48  1  0  0  0  0
 45 69  1  0  0  0  0
 46 72  1  0  0  0  0
 47 68  1  0  0  0  0
 48 67  1  0  0  0  0
 50 60  1  0  0  0  0
 51 62  1  0  0  0  0
 52 63  1  0  0  0  0
 53 63  1  0  0  0  0
 54 63  1  0  0  0  0
 55 74  1  0  0  0  0
 56 75  1  0  0  0  0
 57 58  1  0  0  0  0
 57 59  1  0  0  0  0
 58 82  1  0  0  0  0
 59 83  1  0  0  0  0
 60 74  1  0  0  0  0
 61 63  1  0  0  0  0
 61 73  1  0  0  0  0
 62 75  1  0  0  0  0
 64 67  1  0  0  0  0
M  CHG  1  75   1
M  ISO  4  36 100  58 101  74 100  82 101
M  END
> <Batch ID>
0071

> <Smiles>
CNC(C)C(=O)NC(C(=O)N1Cc2cc([101O:1][101CH2:1]CCOc3cc(C)nc(C(C)[100N:0](C)[100C:0](=O)N4CCCC(n5nc(-c6ccc(Oc7ccc(F)cc7F)cc6)c(C(N)=O)c5N)C4)n3)ccc2CC1C(=O)NC1CCCc2ccccc21)C(C)(C)C

> <Shape>
0.153

> <Color>
0.182

> <Negative vol penalty>
0.000

$$$$

  -OEChem-04052318223D

 85 93  0     1  0  0  0  0  0999 V2000
  -29.7725  -35.2973   17.5432 C   0  0  0  0  0  0  0  0  0  0  0  0
  -30.0796  -33.9987   17.9367 C   0  0  0  0  0  0  0  0  0  0  0  0
  -23.2769  -10.0732   22.2063 C   0  0  0  0  0  0  0  0  0  0  0  0
  -23.5708   -9.5276   19.8711 C   0  0  0  0  0  0  0  0  0  0  0  0
  -28.7723  -36.0071   18.2062 C   0  0  0  0  0  0  0  0  0  0  0  0
  -29.3873  -33.4096   18.9941 C   0  0  0  0  0  0  0  0  0  0  0  0
  -27.8582  -27.5063   19.5590 C   0  0  0  0  0  0  0  0  0  0  0  0
  -22.4985   -8.9283   22.3759 C   0  0  0  0  0  0  0  0  0  0  0  0
  -22.7924   -8.3826   20.0407 C   0  0  0  0  0  0  0  0  0  0  0  0
  -28.4403  -26.4493   20.2572 C   0  0  0  0  0  0  0  0  0  0  0  0
  -23.0033   -5.6062   22.7521 C   0  0  0  0  0  0  0  0  0  0  0  0
  -23.2536   -4.8121   23.8712 C   0  0  0  0  0  0  0  0  0  0  0  0
  -26.9197  -26.8307   22.0906 C   0  0  0  0  0  0  0  0  0  0  0  0
  -20.9853   -5.1614   24.6264 C   0  0  0  0  0  0  0  0  0  0  0  0
  -26.5944  -20.8395   24.4915 C   0  0  0  0  0  0  0  0  0  0  0  0
  -28.1482  -19.1509   23.1270 C   0  0  0  0  0  0  0  0  0  0  0  0
  -23.8131  -10.3729   20.9539 C   0  0  0  0  0  0  0  0  0  0  0  0
  -26.0123  -11.6654   20.9277 C   0  0  0  0  0  0  0  0  0  0  0  0
  -28.0608  -35.4230   19.2659 C   0  0  0  0  0  0  0  0  0  0  0  0
  -26.8079  -28.2417   20.1269 C   0  0  0  0  0  0  0  0  0  0  0  0
  -28.3775  -34.1128   19.6727 C   0  0  0  0  0  0  0  0  0  0  0  0
  -26.3242  -27.8950   21.3965 C   0  0  0  0  0  0  0  0  0  0  0  0
  -22.2563   -8.0830   21.2931 C   0  0  0  0  0  0  0  0  0  0  0  0
  -27.9730  -26.1132   21.5244 C   0  0  0  0  0  0  0  0  0  0  0  0
  -21.7441   -6.1780   22.5702 C   0  0  0  0  0  0  0  0  0  0  0  0
  -22.2446   -4.5896   24.8083 C   0  0  0  0  0  0  0  0  0  0  0  0
  -20.7351   -5.9556   23.5073 C   0  0  0  0  0  0  0  0  0  0  0  0
  -24.6168  -11.5558   20.7779 C   0  0  0  0  0  0  0  0  0  0  0  0
  -27.9482  -20.7647   24.7348 C   0  0  0  0  0  0  0  0  0  0  0  0
  -26.7944  -19.2250   22.8841 C   0  0  0  0  0  0  0  0  0  0  0  0
  -26.2846  -12.9833   20.6532 C   0  0  0  0  0  0  0  0  0  0  0  0
  -26.9762  -10.6653   21.2832 C   0  0  0  0  0  0  0  0  0  0  0  0
  -26.3964  -31.2779   20.9732 C   0  0  0  0  0  0  0  0  0  0  0  0
  -23.3550  -30.3017   21.5383 C   0  0  0  0  0  0  0  0  0  0  0  0
  -21.2210  -27.7356   22.2509 C   0  0  0  0  0  0  0  0  0  0  0  0
  -24.8477  -18.3946   21.5740 C   0  0  0  0  0  0  0  0  0  0  0  0
  -27.0204  -36.2466   19.9830 C   0  0  0  0  0  0  0  0  0  0  0  0
  -26.1729  -29.3621   19.3497 C   0  0  0  0  0  0  0  0  0  0  0  0
  -25.1855  -28.6401   22.0420 C   0  0  0  0  0  0  0  0  0  0  0  0
  -26.0773  -35.4161   20.8496 C   0  0  0  0  0  0  0  0  0  0  0  0
  -23.3877  -16.6215   18.6871 C   0  0  0  0  0  0  0  0  0  0  0  0
  -26.8656  -34.4162   21.6896 C   0  0  0  0  0  0  0  0  0  0  0  0
  -23.6382  -15.1533   19.0271 C   0  0  0  0  0  0  0  0  0  0  0  0
  -23.2271  -17.4745   19.9420 C   0  0  0  0  0  0  0  0  0  0  0  0
  -24.6161  -15.8871   21.2385 C   0  0  0  0  0  0  0  0  0  0  0  0
  -27.6319  -33.4306   20.7990 C   0  0  1  0  0  0  0  0  0  0  0  0
  -25.4509  -30.3710   20.2375 C   0  0  1  0  0  0  0  0  0  0  0  0
  -24.8250  -15.0091   19.9954 C   0  0  1  0  0  0  0  0  0  0  0  0
  -18.7982  -27.2530   22.6917 C   0  0  0  0  0  0  0  0  0  0  0  0
  -28.8423  -24.1556   26.5688 C   0  0  0  0  0  0  0  0  0  0  0  0
  -30.1322  -21.4363   25.9389 C   0  0  0  0  0  0  0  0  0  0  0  0
  -27.9984  -21.2496   27.1801 C   0  0  0  0  0  0  0  0  0  0  0  0
  -23.6372  -31.4623   24.3460 C   0  0  0  0  0  0  0  0  0  0  0  0
  -21.6189  -30.1425   25.0190 C   0  0  0  0  0  0  0  0  0  0  0  0
  -21.4290  -31.8960   23.2550 C   0  0  0  0  0  0  0  0  0  0  0  0
  -27.1383  -17.6388   20.9809 C   0  0  0  0  0  0  0  0  0  0  0  0
  -21.0334  -25.9365   19.9084 C   0  0  0  0  0  0  0  0  0  0  0  0
  -28.7911  -23.6222   24.0963 C   0  0  0  0  0  0  0  0  0  0  0  0
  -28.0114  -24.7925   23.5019 C   0  0  0  0  0  0  0  0  0  1  0  0
  -22.6192  -29.7292   22.7256 C   0  0  1  0  0  0  0  0  0  0  0  0
  -19.8923  -27.3308   21.6384 C   0  0  2  0  0  0  0  0  0  0  0  0
  -28.2954  -23.1906   25.5010 C   0  0  1  0  0  0  0  0  0  0  0  0
  -28.6045  -21.6646   25.8118 C   0  0  0  0  0  0  0  0  0  0  0  0
  -22.3488  -30.7945   23.8253 C   0  0  0  0  0  0  0  0  0  0  0  0
  -28.7495  -19.9194   24.0568 N   0  0  0  0  0  0  0  0  0  0  0  0
  -25.9931  -20.0707   23.5620 N   0  0  0  0  0  0  0  0  0  0  0  0
  -24.0426  -12.7119   20.4350 N   0  0  0  0  0  0  0  0  0  0  0  0
  -25.0825  -13.5606   20.3671 N   0  0  0  0  0  0  0  0  0  0  0  0
  -24.6019  -29.7316   21.2448 N   0  0  0  0  0  0  0  0  0  0  0  0
  -24.3460  -17.2842   20.8658 N   0  0  0  0  0  0  0  0  0  0  0  0
  -27.4327  -13.6931   20.6311 N   0  0  0  0  0  0  0  0  0  0  0  0
  -26.5257   -9.3616   21.5319 N   0  0  0  0  0  0  0  0  0  0  0  0
  -26.7366  -32.4212   20.2756 N   0  0  0  0  0  0  0  0  0  0  0  0
  -21.4149  -29.0996   22.1946 N   0  0  0  0  0  0  0  0  0  0  0  0
  -26.2277  -18.3669   21.8706 N   0  0  0  0  0  0  0  0  0  0  0  0
  -20.0090  -25.9977   20.9826 N   0  3  0  0  0  0  0  0  0  0  0  0
  -28.1987  -10.9239   21.3935 O   0  0  0  0  0  0  0  0  0  0  0  0
  -26.7871  -30.9644   22.0915 O   0  0  0  0  0  0  0  0  0  0  0  0
  -22.8392  -31.2161   20.8907 O   0  0  0  0  0  0  0  0  0  0  0  0
  -22.0065  -26.9234   22.7345 O   0  0  0  0  0  0  0  0  0  0  0  0
  -24.1256  -19.3479   21.8894 O   0  0  0  0  0  0  0  0  0  0  0  0
  -21.4969   -6.9655   21.4583 O   0  0  0  0  0  0  0  0  0  0  0  0
  -28.5399  -25.0823   22.2083 O   0  0  0  0  0  0  0  0  0  1  0  0
  -22.4846   -3.8257   25.8821 F   0  0  0  0  0  0  0  0  0  0  0  0
  -19.5230   -6.5012   23.3373 F   0  0  0  0  0  0  0  0  0  0  0  0
  1  2  1  0  0  0  0
  1  5  2  0  0  0  0
  2  6  2  0  0  0  0
  3  8  2  0  0  0  0
  3 17  1  0  0  0  0
  4  9  1  0  0  0  0
  4 17  2  0  0  0  0
  5 19  1  0  0  0  0
  6 21  1  0  0  0  0
  7 10  2  0  0  0  0
  7 20  1  0  0  0  0
  8 23  1  0  0  0  0
  9 23  2  0  0  0  0
 10 24  1  0  0  0  0
 11 12  2  0  0  0  0
 11 25  1  0  0  0  0
 12 26  1  0  0  0  0
 13 22  1  0  0  0  0
 13 24  2  0  0  0  0
 14 26  2  0  0  0  0
 14 27  1  0  0  0  0
 15 29  1  0  0  0  0
 15 66  2  0  0  0  0
 16 30  2  0  0  0  0
 16 65  1  0  0  0  0
 17 28  1  0  0  0  0
 18 28  1  0  0  0  0
 18 31  2  0  0  0  0
 18 32  1  0  0  0  0
 19 21  2  0  0  0  0
 19 37  1  0  0  0  0
 20 22  2  0  0  0  0
 20 38  1  0  0  0  0
 21 46  1  0  0  0  0
 22 39  1  0  0  0  0
 23 82  1  0  0  0  0
 24 83  1  0  0  0  0
 25 27  2  0  0  0  0
 25 82  1  0  0  0  0
 26 84  1  0  0  0  0
 27 85  1  0  0  0  0
 28 67  2  0  0  0  0
 29 63  1  0  0  0  0
 29 65  2  0  0  0  0
 30 66  1  0  0  0  0
 30 75  1  0  0  0  0
 31 68  1  0  0  0  0
 31 71  1  0  0  0  0
 32 72  1  0  0  0  0
 32 77  2  0  0  0  0
 33 47  1  0  0  0  0
 33 73  1  0  0  0  0
 33 78  2  0  0  0  0
 34 60  1  0  0  0  0
 34 69  1  0  0  0  0
 34 79  2  0  0  0  0
 35 61  1  0  0  0  0
 35 74  1  0  0  0  0
 35 80  2  0  0  0  0
 36 70  1  0  0  0  0
 36 75  1  0  0  0  0
 36 81  2  0  0  0  0
 37 40  1  0  0  0  0
 38 47  1  0  0  0  0
 39 69  1  0  0  0  0
 40 42  1  0  0  0  0
 41 43  1  0  0  0  0
 41 44  1  0  0  0  0
 42 46  1  0  0  0  0
 43 48  1  0  0  0  0
 44 70  1  0  0  0  0
 45 48  1  0  0  0  0
 45 70  1  0  0  0  0
 46 73  1  0  0  0  0
 47 69  1  0  0  0  0
 48 68  1  0  0  0  0
 49 61  1  0  0  0  0
 50 62  1  0  0  0  0
 51 63  1  0  0  0  0
 52 63  1  0  0  0  0
 53 64  1  0  0  0  0
 54 64  1  0  0  0  0
 55 64  1  0  0  0  0
 56 75  1  0  0  0  0
 57 76  1  0  0  0  0
 58 59  1  0  0  0  0
 58 62  1  0  0  0  0
 59 83  1  0  0  0  0
 60 64  1  0  0  0  0
 60 74  1  0  0  0  0
 61 76  1  0  0  0  0
 62 63  1  0  0  0  0
 67 68  1  0  0  0  0
M  CHG  1  76   1
M  ISO  4  36 100  59 101  75 100  83 101
M  END
> <Batch ID>
0071

> <Smiles>
CNC(C)C(=O)NC(C(=O)N1Cc2cc([101O:1][101CH2:1]CC(C)C(C)(C)c3cnc([100N:0](C)[100C:0](=O)N4CCCC(n5nc(-c6ccc(Oc7ccc(F)cc7F)cc6)c(C(N)=O)c5N)C4)cn3)ccc2CC1C(=O)NC1CCCc2ccccc21)C(C)(C)C

> <Shape>
0.230

> <Color>
0.100

> <Negative vol penalty>
0.000

$$$$

  -OEChem-04052318223D

 85 94  0     1  0  0  0  0  0999 V2000
  -25.7095  -33.1596   26.6497 C   0  0  0  0  0  0  0  0  0  0  0  0
  -26.2685  -32.2492   25.7585 C   0  0  0  0  0  0  0  0  0  0  0  0
  -24.4395  -14.5893   20.6982 C   0  0  0  0  0  0  0  0  0  0  0  0
  -26.6038  -14.4797   21.7662 C   0  0  0  0  0  0  0  0  0  0  0  0
  -24.5074  -32.8593   27.2889 C   0  0  0  0  0  0  0  0  0  0  0  0
  -25.6260  -31.0375   25.5066 C   0  0  0  0  0  0  0  0  0  0  0  0
  -25.4889  -29.8997   20.5740 C   0  0  0  0  0  0  0  0  0  0  0  0
  -24.4946  -13.2186   20.4457 C   0  0  0  0  0  0  0  0  0  0  0  0
  -26.6589  -13.1089   21.5138 C   0  0  0  0  0  0  0  0  0  0  0  0
  -26.6558  -29.3909   20.0052 C   0  0  0  0  0  0  0  0  0  0  0  0
  -24.0020  -10.3477   22.1627 C   0  0  0  0  0  0  0  0  0  0  0  0
  -22.8594   -9.5931   22.4285 C   0  0  0  0  0  0  0  0  0  0  0  0
  -25.7543  -27.1592   20.1668 C   0  0  0  0  0  0  0  0  0  0  0  0
  -22.7598   -8.9267   20.1084 C   0  0  0  0  0  0  0  0  0  0  0  0
  -29.1887  -25.6848   21.3626 C   0  0  0  0  0  0  0  0  0  0  0  0
  -25.4941  -15.2199   21.3584 C   0  0  0  0  0  0  0  0  0  0  0  0
  -24.9080  -17.2702   22.7585 C   0  0  0  0  0  0  0  0  0  0  0  0
  -23.8449  -31.6474   27.0374 C   0  0  0  0  0  0  0  0  0  0  0  0
  -24.4487  -29.0395   20.9541 C   0  0  0  0  0  0  0  0  0  0  0  0
  -24.4145  -30.7202   26.1440 C   0  0  0  0  0  0  0  0  0  0  0  0
  -24.5743  -27.6598   20.7378 C   0  0  0  0  0  0  0  0  0  0  0  0
  -29.7293  -26.4382   20.3307 C   0  0  0  0  0  0  0  0  0  0  0  0
  -25.6043  -12.4784   20.8535 C   0  0  0  0  0  0  0  0  0  0  0  0
  -26.7898  -28.0203   19.8042 C   0  0  0  0  0  0  0  0  0  0  0  0
  -24.5235  -10.3918   20.8697 C   0  0  0  0  0  0  0  0  0  0  0  0
  -22.2383   -8.8826   21.4014 C   0  0  0  0  0  0  0  0  0  0  0  0
  -23.9024   -9.6813   19.8425 C   0  0  0  0  0  0  0  0  0  0  0  0
  -25.4380  -16.6358   21.6190 C   0  0  0  0  0  0  0  0  0  0  0  0
  -30.8030  -25.8564   19.6618 C   0  0  0  0  0  0  0  0  0  0  0  0
  -25.0932  -18.6105   22.5227 C   0  0  0  0  0  0  0  0  0  0  0  0
  -30.6934  -24.0213   21.0237 C   0  0  0  0  0  0  0  0  0  0  0  0
  -24.3025  -16.6988   23.9258 C   0  0  0  0  0  0  0  0  0  0  0  0
  -23.0252  -28.3190   23.7033 C   0  0  0  0  0  0  0  0  0  0  0  0
  -21.0484  -26.6087   21.7825 C   0  0  0  0  0  0  0  0  0  0  0  0
  -20.5811  -24.9820   18.8191 C   0  0  0  0  0  0  0  0  0  0  0  0
  -28.9825  -21.6561   19.1392 C   0  0  0  0  0  0  0  0  0  0  0  0
  -22.5718  -31.3467   27.7880 C   0  0  0  0  0  0  0  0  0  0  0  0
  -23.1856  -29.6066   21.5417 C   0  0  0  0  0  0  0  0  0  0  0  0
  -23.4784  -26.6959   21.1098 C   0  0  0  0  0  0  0  0  0  0  0  0
  -31.5113  -26.5828   18.5493 C   0  0  0  0  0  0  0  0  0  0  0  0
  -21.7632  -30.2025   27.1820 C   0  0  0  0  0  0  0  0  0  0  0  0
  -30.6821  -27.7145   17.9450 C   0  0  0  0  0  0  0  0  0  0  0  0
  -25.4292  -21.7721   18.9475 C   0  0  0  0  0  0  0  0  0  0  0  0
  -22.6708  -29.0195   26.8602 C   0  0  0  0  0  0  0  0  0  0  0  0
  -30.0874  -28.5859   19.0500 C   0  0  0  0  0  0  0  0  0  0  0  0
  -24.9807  -20.5262   19.7132 C   0  0  0  0  0  0  0  0  0  0  0  0
  -26.7119  -21.5184   18.1586 C   0  0  0  0  0  0  0  0  0  0  0  0
  -27.3825  -19.7325   19.7188 C   0  0  0  0  0  0  0  0  0  0  0  0
  -23.7350  -29.4059   25.8259 C   0  0  1  0  0  0  0  0  0  0  0  0
  -29.1501  -27.7670   19.9436 C   0  0  1  0  0  0  0  0  0  1  0  0
  -22.4001  -28.5897   22.3640 C   0  0  1  0  0  0  0  0  0  0  0  0
  -26.1236  -19.9555   20.5742 C   0  0  2  0  0  0  0  0  0  0  0  0
  -18.8741  -23.6491   17.5513 C   0  0  0  0  0  0  0  0  0  0  0  0
  -30.5019  -21.9796   22.6020 C   0  0  0  0  0  0  0  0  0  0  0  0
  -32.7221  -22.8103   21.8695 C   0  0  0  0  0  0  0  0  0  0  0  0
  -21.6259  -24.1908   23.5517 C   0  0  0  0  0  0  0  0  0  0  0  0
  -20.6985  -22.7318   21.7408 C   0  0  0  0  0  0  0  0  0  0  0  0
  -19.2370  -24.4224   22.8491 C   0  0  0  0  0  0  0  0  0  0  0  0
  -20.5038  -26.9578   16.6170 C   0  0  0  0  0  0  0  0  0  0  0  0
  -31.2199  -21.6639   20.2131 C   0  0  0  0  0  0  0  0  0  0  0  0
  -21.0345  -25.1967   21.2486 C   0  0  1  0  0  0  0  0  0  0  0  0
  -19.4487  -25.0333   17.8094 C   0  0  2  0  0  0  0  0  0  0  0  0
  -31.2333  -22.6852   21.4070 C   0  0  0  0  0  0  0  0  0  0  0  0
  -20.6706  -24.1531   22.3422 C   0  0  0  0  0  0  0  0  0  0  0  0
  -29.6478  -24.4735   21.7365 N   0  0  0  0  0  0  0  0  0  0  0  0
  -25.9233  -17.5020   20.7256 N   0  0  0  0  0  0  0  0  0  0  0  0
  -31.3067  -24.6461   20.0011 N   0  0  0  0  0  0  0  0  0  0  0  0
  -25.6989  -18.6943   21.3036 N   0  0  0  0  0  0  0  0  0  0  0  0
  -22.2654  -27.2983   21.6869 N   0  0  0  0  0  0  0  0  0  0  0  0
  -27.7561  -20.9795   19.0333 N   0  0  0  0  0  0  0  0  0  0  0  0
  -24.7953  -19.7138   23.2413 N   0  0  0  0  0  0  0  0  0  0  0  0
  -24.1913  -15.3040   24.0062 N   0  0  0  0  0  0  0  0  0  0  0  0
  -23.1601  -29.4412   24.4982 N   0  0  0  0  0  0  0  0  0  0  0  0
  -20.1306  -25.2022   20.1035 N   0  0  0  0  0  0  0  0  0  0  0  0
  -29.9147  -21.0813   19.9944 N   0  0  0  0  0  0  0  0  0  0  0  0
  -19.9338  -25.5898   16.5148 N   0  3  0  0  0  0  0  0  0  0  0  0
  -23.8579  -17.4051   24.8624 O   0  0  0  0  0  0  0  0  0  0  0  0
  -23.3589  -27.1765   23.9944 O   0  0  0  0  0  0  0  0  0  0  0  0
  -20.0155  -27.0848   22.2602 O   0  0  0  0  0  0  0  0  0  0  0  0
  -21.7480  -24.7643   18.5006 O   0  0  0  0  0  0  0  0  0  0  0  0
  -29.2266  -22.6982   18.5217 O   0  0  0  0  0  0  0  0  0  0  0  0
  -25.6583  -11.1408   20.6075 O   0  0  0  0  0  0  0  0  0  0  0  0
  -27.9279  -27.5210   19.2499 O   0  0  0  0  0  0  0  0  0  1  0  0
  -21.1420   -8.1568   21.6571 F   0  0  0  0  0  0  0  0  0  0  0  0
  -24.3994   -9.7189   18.5986 F   0  0  0  0  0  0  0  0  0  0  0  0
  1  2  1  0  0  0  0
  1  5  2  0  0  0  0
  2  6  2  0  0  0  0
  3  8  2  0  0  0  0
  3 16  1  0  0  0  0
  4  9  1  0  0  0  0
  4 16  2  0  0  0  0
  5 18  1  0  0  0  0
  6 20  1  0  0  0  0
  7 10  2  0  0  0  0
  7 19  1  0  0  0  0
  8 23  1  0  0  0  0
  9 23  2  0  0  0  0
 10 24  1  0  0  0  0
 11 12  2  0  0  0  0
 11 25  1  0  0  0  0
 12 26  1  0  0  0  0
 13 21  1  0  0  0  0
 13 24  2  0  0  0  0
 14 26  2  0  0  0  0
 14 27  1  0  0  0  0
 15 22  1  0  0  0  0
 15 65  2  0  0  0  0
 16 28  1  0  0  0  0
 17 28  1  0  0  0  0
 17 30  2  0  0  0  0
 17 32  1  0  0  0  0
 18 20  2  0  0  0  0
 18 37  1  0  0  0  0
 19 21  2  0  0  0  0
 19 38  1  0  0  0  0
 20 49  1  0  0  0  0
 21 39  1  0  0  0  0
 22 29  2  0  0  0  0
 22 50  1  0  0  0  0
 23 82  1  0  0  0  0
 24 83  1  0  0  0  0
 25 27  2  0  0  0  0
 25 82  1  0  0  0  0
 26 84  1  0  0  0  0
 27 85  1  0  0  0  0
 28 66  2  0  0  0  0
 29 40  1  0  0  0  0
 29 67  1  0  0  0  0
 30 68  1  0  0  0  0
 30 71  1  0  0  0  0
 31 63  1  0  0  0  0
 31 65  1  0  0  0  0
 31 67  2  0  0  0  0
 32 72  1  0  0  0  0
 32 77  2  0  0  0  0
 33 51  1  0  0  0  0
 33 73  1  0  0  0  0
 33 78  2  0  0  0  0
 34 61  1  0  0  0  0
 34 69  1  0  0  0  0
 34 79  2  0  0  0  0
 35 62  1  0  0  0  0
 35 74  1  0  0  0  0
 35 80  2  0  0  0  0
 36 70  1  0  0  0  0
 36 75  1  0  0  0  0
 36 81  2  0  0  0  0
 37 41  1  0  0  0  0
 38 51  1  0  0  0  0
 39 69  1  0  0  0  0
 40 42  1  0  0  0  0
 41 44  1  0  0  0  0
 42 45  1  0  0  0  0
 43 46  1  0  0  0  0
 43 47  1  0  0  0  0
 44 49  1  0  0  0  0
 45 50  1  0  0  0  0
 46 52  1  0  0  0  0
 47 70  1  0  0  0  0
 48 52  1  0  0  0  0
 48 70  1  0  0  0  0
 49 73  1  0  0  0  0
 50 83  1  0  0  0  0
 51 69  1  0  0  0  0
 52 68  1  0  0  0  0
 53 62  1  0  0  0  0
 54 63  1  0  0  0  0
 55 63  1  0  0  0  0
 56 64  1  0  0  0  0
 57 64  1  0  0  0  0
 58 64  1  0  0  0  0
 59 76  1  0  0  0  0
 60 63  1  0  0  0  0
 60 75  1  0  0  0  0
 61 64  1  0  0  0  0
 61 74  1  0  0  0  0
 62 76  1  0  0  0  0
 66 68  1  0  0  0  0
M  CHG  1  76   1
M  ISO  4  36 100  50 101  75 100  83 101
M  END
> <Batch ID>
0071

> <Smiles>
CNC(C)C(=O)NC(C(=O)N1Cc2cc([101O:1][101CH:1]3CCCc4nc(C(C)(C)C[100NH:0][100C:0](=O)N5CCCC(n6nc(-c7ccc(Oc8ccc(F)cc8F)cc7)c(C(N)=O)c6N)C5)ncc43)ccc2CC1C(=O)NC1CCCc2ccccc21)C(C)(C)C

> <Shape>
0.233

> <Color>
0.071

> <Negative vol penalty>
0.000

$$$$

  -OEChem-04052318223D

 84 92  0     1  0  0  0  0  0999 V2000
  -23.3608  -27.3370   29.8575 C   0  0  0  0  0  0  0  0  0  0  0  0
  -23.6396  -26.1821   29.1337 C   0  0  0  0  0  0  0  0  0  0  0  0
  -27.0839  -23.4640   20.6292 C   0  0  0  0  0  0  0  0  0  0  0  0
  -28.7355  -23.3228   18.8715 C   0  0  0  0  0  0  0  0  0  0  0  0
  -22.2354  -28.0989   29.5460 C   0  0  0  0  0  0  0  0  0  0  0  0
  -22.7926  -25.7879   28.0985 C   0  0  0  0  0  0  0  0  0  0  0  0
  -24.4017  -23.0272   22.8741 C   0  0  0  0  0  0  0  0  0  0  0  0
  -27.2928  -24.8404   20.7149 C   0  0  0  0  0  0  0  0  0  0  0  0
  -28.9444  -24.6992   18.9572 C   0  0  0  0  0  0  0  0  0  0  0  0
  -24.3813  -21.6919   22.4739 C   0  0  0  0  0  0  0  0  0  0  0  0
  -26.3705  -27.6108   19.0097 C   0  0  0  0  0  0  0  0  0  0  0  0
  -25.2467  -28.4334   19.0860 C   0  0  0  0  0  0  0  0  0  0  0  0
  -22.2434  -22.0481   21.4148 C   0  0  0  0  0  0  0  0  0  0  0  0
  -26.0045  -29.2707   21.2218 C   0  0  0  0  0  0  0  0  0  0  0  0
  -24.0805  -14.3294   18.7432 C   0  0  0  0  0  0  0  0  0  0  0  0
  -27.8053  -22.7051   19.7075 C   0  0  0  0  0  0  0  0  0  0  0  0
  -26.6619  -20.6131   18.8000 C   0  0  0  0  0  0  0  0  0  0  0  0
  -21.3795  -27.7190   28.5002 C   0  0  0  0  0  0  0  0  0  0  0  0
  -23.3362  -23.8818   22.5565 C   0  0  0  0  0  0  0  0  0  0  0  0
  -21.6540  -26.5447   27.7736 C   0  0  0  0  0  0  0  0  0  0  0  0
  -22.2539  -23.3946   21.8099 C   0  0  0  0  0  0  0  0  0  0  0  0
  -28.2230  -25.4581   19.8789 C   0  0  0  0  0  0  0  0  0  0  0  0
  -23.3008  -21.2014   21.7466 C   0  0  0  0  0  0  0  0  0  0  0  0
  -27.3113  -27.6180   20.0396 C   0  0  0  0  0  0  0  0  0  0  0  0
  -25.0637  -29.2634   20.1920 C   0  0  0  0  0  0  0  0  0  0  0  0
  -27.1283  -28.4480   21.1456 C   0  0  0  0  0  0  0  0  0  0  0  0
  -27.5904  -21.2831   19.6189 C   0  0  0  0  0  0  0  0  0  0  0  0
  -24.2813  -14.9213   20.0046 C   0  0  0  0  0  0  0  0  0  0  0  0
  -25.3192  -13.8569   18.3844 C   0  0  0  0  0  0  0  0  0  0  0  0
  -26.8512  -19.2826   19.0836 C   0  0  0  0  0  0  0  0  0  0  0  0
  -25.7131  -21.1458   17.8662 C   0  0  0  0  0  0  0  0  0  0  0  0
  -21.2190  -25.5493   24.2419 C   0  0  0  0  0  0  0  0  0  0  0  0
  -20.3811  -26.6939   21.3247 C   0  0  0  0  0  0  0  0  0  0  0  0
  -20.3083  -26.2346   17.9438 C   0  0  0  0  0  0  0  0  0  0  0  0
  -30.6837  -15.1428   19.7847 C   0  0  0  0  0  0  0  0  0  0  0  0
  -20.1492  -28.5490   28.2313 C   0  0  0  0  0  0  0  0  0  0  0  0
  -23.3858  -25.3264   22.9725 C   0  0  0  0  0  0  0  0  0  0  0  0
  -21.0946  -24.2761   21.4259 C   0  0  0  0  0  0  0  0  0  0  0  0
  -19.5078  -28.2657   26.8753 C   0  0  0  0  0  0  0  0  0  0  0  0
  -29.4946  -17.0220   22.7438 C   0  0  0  0  0  0  0  0  0  0  0  0
  -19.3909  -26.7625   26.6436 C   0  0  0  0  0  0  0  0  0  0  0  0
  -28.8824  -18.2746   22.1191 C   0  0  0  0  0  0  0  0  0  0  0  0
  -30.6121  -16.4454   21.8799 C   0  0  0  0  0  0  0  0  0  0  0  0
  -29.5942  -17.4236   19.8498 C   0  0  0  0  0  0  0  0  0  0  0  0
  -20.7727  -26.0977   26.6275 C   0  0  1  0  0  0  0  0  0  0  0  0
  -22.0076  -25.9774   23.0367 C   0  0  1  0  0  0  0  0  0  0  0  0
  -28.4337  -18.0029   20.6727 C   0  0  2  0  0  0  0  0  0  0  0  0
  -25.7700  -13.1400   17.1775 C   0  0  0  0  0  0  0  0  0  0  0  0
  -19.5249  -27.3256   15.8240 C   0  0  0  0  0  0  0  0  0  0  0  0
  -17.5129  -25.8734   21.9652 C   0  0  0  0  0  0  0  0  0  0  0  0
  -16.9795  -26.0948   19.5291 C   0  0  0  0  0  0  0  0  0  0  0  0
  -17.7345  -28.0882   20.8249 C   0  0  0  0  0  0  0  0  0  0  0  0
  -30.3348  -13.4259   18.0498 C   0  0  0  0  0  0  0  0  0  0  0  0
  -23.0623  -26.3961   16.8724 C   0  0  0  0  0  0  0  0  0  0  0  0
  -23.2552  -15.6049   20.8727 C   0  0  0  0  0  0  0  0  0  0  0  0
  -23.1221  -17.1085   20.6068 C   0  0  0  0  0  0  0  0  0  0  0  0
  -22.1335  -17.7977   21.5483 C   0  0  0  0  0  0  0  0  0  0  0  0
  -27.5671  -13.8966   19.5067 C   0  0  0  0  0  0  0  0  0  0  0  0
  -28.4246  -14.8531   18.6822 C   0  0  0  0  0  0  0  0  0  0  0  0
  -21.9980  -19.2803   21.2287 C   0  0  0  0  0  0  0  0  0  1  0  0
  -19.4030  -26.2767   20.2532 C   0  0  1  0  0  0  0  0  0  0  0  0
  -20.6831  -27.1524   16.7943 C   0  0  2  0  0  0  0  0  0  0  0  0
  -17.9283  -26.5659   20.6518 C   0  0  0  0  0  0  0  0  0  0  0  0
  -28.3156  -20.4473   20.3669 N   0  0  0  0  0  0  0  0  0  0  0  0
  -25.5480  -14.8338   20.4194 N   0  0  0  0  0  0  0  0  0  0  0  0
  -26.1542  -14.1815   19.4129 N   0  0  0  0  0  0  0  0  0  0  0  0
  -27.8427  -19.2383   20.0191 N   0  0  0  0  0  0  0  0  0  0  0  0
  -21.1865  -25.6794   21.8614 N   0  0  0  0  0  0  0  0  0  0  0  0
  -30.1712  -16.2376   20.5001 N   0  0  0  0  0  0  0  0  0  0  0  0
  -26.2645  -18.1580   18.6217 N   0  0  0  0  0  0  0  0  0  0  0  0
  -25.6505  -22.5356   17.6968 N   0  0  0  0  0  0  0  0  0  0  0  0
  -21.4316  -26.3323   25.3605 N   0  0  0  0  0  0  0  0  0  0  0  0
  -19.8321  -26.9417   19.0276 N   0  0  0  0  0  0  0  0  0  0  0  0
  -29.8526  -14.5702   18.8100 N   0  0  0  0  0  0  0  0  0  0  0  0
  -21.8449  -26.5960   16.0448 N   0  3  0  0  0  0  0  0  0  0  0  0
  -24.9324  -20.4120   17.2140 O   0  0  0  0  0  0  0  0  0  0  0  0
  -20.4719  -24.5812   24.1625 O   0  0  0  0  0  0  0  0  0  0  0  0
  -20.4338  -27.8777   21.6677 O   0  0  0  0  0  0  0  0  0  0  0  0
  -20.4227  -25.0123   17.8848 O   0  0  0  0  0  0  0  0  0  0  0  0
  -31.8156  -14.6964   20.0113 O   0  0  0  0  0  0  0  0  0  0  0  0
  -28.4269  -26.8012   19.9621 O   0  0  0  0  0  0  0  0  0  0  0  0
  -23.2780  -19.8982   21.3554 O   0  0  0  0  0  0  0  0  0  1  0  0
  -23.9852  -30.0546   20.2643 F   0  0  0  0  0  0  0  0  0  0  0  0
  -28.0293  -28.4602   22.1375 F   0  0  0  0  0  0  0  0  0  0  0  0
  1  2  1  0  0  0  0
  1  5  2  0  0  0  0
  2  6  2  0  0  0  0
  3  8  2  0  0  0  0
  3 16  1  0  0  0  0
  4  9  1  0  0  0  0
  4 16  2  0  0  0  0
  5 18  1  0  0  0  0
  6 20  1  0  0  0  0
  7 10  2  0  0  0  0
  7 19  1  0  0  0  0
  8 22  1  0  0  0  0
  9 22  2  0  0  0  0
 10 23  1  0  0  0  0
 11 12  2  0  0  0  0
 11 24  1  0  0  0  0
 12 25  1  0  0  0  0
 13 21  1  0  0  0  0
 13 23  2  0  0  0  0
 14 25  2  0  0  0  0
 14 26  1  0  0  0  0
 15 28  1  0  0  0  0
 15 29  2  0  0  0  0
 16 27  1  0  0  0  0
 17 27  1  0  0  0  0
 17 30  2  0  0  0  0
 17 31  1  0  0  0  0
 18 20  2  0  0  0  0
 18 36  1  0  0  0  0
 19 21  2  0  0  0  0
 19 37  1  0  0  0  0
 20 45  1  0  0  0  0
 21 38  1  0  0  0  0
 22 81  1  0  0  0  0
 23 82  1  0  0  0  0
 24 26  2  0  0  0  0
 24 81  1  0  0  0  0
 25 83  1  0  0  0  0
 26 84  1  0  0  0  0
 27 64  2  0  0  0  0
 28 55  1  0  0  0  0
 28 65  2  0  0  0  0
 29 48  1  0  0  0  0
 29 66  1  0  0  0  0
 30 67  1  0  0  0  0
 30 70  1  0  0  0  0
 31 71  1  0  0  0  0
 31 76  2  0  0  0  0
 32 46  1  0  0  0  0
 32 72  1  0  0  0  0
 32 77  2  0  0  0  0
 33 61  1  0  0  0  0
 33 68  1  0  0  0  0
 33 78  2  0  0  0  0
 34 62  1  0  0  0  0
 34 73  1  0  0  0  0
 34 79  2  0  0  0  0
 35 69  1  0  0  0  0
 35 74  1  0  0  0  0
 35 80  2  0  0  0  0
 36 39  1  0  0  0  0
 37 46  1  0  0  0  0
 38 68  1  0  0  0  0
 39 41  1  0  0  0  0
 40 42  1  0  0  0  0
 40 43  1  0  0  0  0
 41 45  1  0  0  0  0
 42 47  1  0  0  0  0
 43 69  1  0  0  0  0
 44 47  1  0  0  0  0
 44 69  1  0  0  0  0
 45 72  1  0  0  0  0
 46 68  1  0  0  0  0
 47 67  1  0  0  0  0
 49 62  1  0  0  0  0
 50 63  1  0  0  0  0
 51 63  1  0  0  0  0
 52 63  1  0  0  0  0
 53 74  1  0  0  0  0
 54 75  1  0  0  0  0
 55 56  1  0  0  0  0
 56 57  1  0  0  0  0
 57 60  1  0  0  0  0
 58 59  1  0  0  0  0
 58 66  1  0  0  0  0
 59 74  1  0  0  0  0
 60 82  1  0  0  0  0
 61 63  1  0  0  0  0
 61 73  1  0  0  0  0
 62 75  1  0  0  0  0
 64 67  1  0  0  0  0
 65 66  1  0  0  0  0
M  CHG  1  75   1
M  ISO  4  35 100  60 101  74 100  82 101
M  END
> <Batch ID>
0071

> <Smiles>
CNC(C)C(=O)NC(C(=O)N1Cc2cc([101O:1][101CH2:1]CCCc3cc(C)n(CC[100N:0](C)[100C:0](=O)N4CCCC(n5nc(-c6ccc(Oc7ccc(F)cc7F)cc6)c(C(N)=O)c5N)C4)n3)ccc2CC1C(=O)NC1CCCc2ccccc21)C(C)(C)C

> <Shape>
0.190

> <Color>
0.082

> <Negative vol penalty>
0.000

$$$$

  -OEChem-04052318223D

 88 96  0     1  0  0  0  0  0999 V2000
  -25.0928  -35.4528   15.0551 C   0  0  0  0  0  0  0  0  0  0  0  0
  -25.1735  -34.0681   15.1628 C   0  0  0  0  0  0  0  0  0  0  0  0
  -21.8576   -9.9191   20.2498 C   0  0  0  0  0  0  0  0  0  0  0  0
  -23.2308   -9.7527   22.2306 C   0  0  0  0  0  0  0  0  0  0  0  0
  -25.5311  -36.2591   16.1047 C   0  0  0  0  0  0  0  0  0  0  0  0
  -25.6935  -33.4890   16.3198 C   0  0  0  0  0  0  0  0  0  0  0  0
  -23.9304  -28.2307   18.9173 C   0  0  0  0  0  0  0  0  0  0  0  0
  -21.7499   -8.5291   20.2075 C   0  0  0  0  0  0  0  0  0  0  0  0
  -23.1231   -8.3626   22.1884 C   0  0  0  0  0  0  0  0  0  0  0  0
  -24.4500  -26.9380   18.8648 C   0  0  0  0  0  0  0  0  0  0  0  0
  -22.9117   -4.7868   22.8109 C   0  0  0  0  0  0  0  0  0  0  0  0
  -22.6438   -4.1198   24.0062 C   0  0  0  0  0  0  0  0  0  0  0  0
  -25.6458  -27.3416   20.9206 C   0  0  0  0  0  0  0  0  0  0  0  0
  -27.0029  -21.2755   19.2158 C   0  0  0  0  0  0  0  0  0  0  0  0
  -20.5739   -5.3461   24.2267 C   0  0  0  0  0  0  0  0  0  0  0  0
  -22.5981  -10.5309   21.2612 C   0  0  0  0  0  0  0  0  0  0  0  0
  -21.8571  -12.8661   21.9723 C   0  0  0  0  0  0  0  0  0  0  0  0
  -26.0478  -35.6894   17.2790 C   0  0  0  0  0  0  0  0  0  0  0  0
  -24.2738  -29.0937   19.9679 C   0  0  0  0  0  0  0  0  0  0  0  0
  -26.1403  -34.2885   17.3855 C   0  0  0  0  0  0  0  0  0  0  0  0
  -25.1272  -28.6439   20.9855 C   0  0  0  0  0  0  0  0  0  0  0  0
  -26.5462  -22.5813   19.1816 C   0  0  0  0  0  0  0  0  0  0  0  0
  -22.3827   -7.7508   21.1768 C   0  0  0  0  0  0  0  0  0  0  0  0
  -25.3102  -26.4943   19.8649 C   0  0  0  0  0  0  0  0  0  0  0  0
  -22.0106   -5.7336   22.3234 C   0  0  0  0  0  0  0  0  0  0  0  0
  -21.4749   -4.3994   24.7141 C   0  0  0  0  0  0  0  0  0  0  0  0
  -20.8417   -6.0132   23.0313 C   0  0  0  0  0  0  0  0  0  0  0  0
  -22.7102  -11.9668   21.3051 C   0  0  0  0  0  0  0  0  0  0  0  0
  -28.3676  -21.0686   19.2310 C   0  0  0  0  0  0  0  0  0  0  0  0
  -27.4844  -23.5938   19.1652 C   0  0  0  0  0  0  0  0  0  0  0  0
  -22.3894  -14.1044   21.7084 C   0  0  0  0  0  0  0  0  0  0  0  0
  -20.6880  -12.6054   22.7604 C   0  0  0  0  0  0  0  0  0  0  0  0
  -25.7623  -31.8946   20.1746 C   0  0  0  0  0  0  0  0  0  0  0  0
  -24.8944  -31.6851   23.2932 C   0  0  0  0  0  0  0  0  0  0  0  0
  -24.0182  -29.7033   25.9298 C   0  0  0  0  0  0  0  0  0  0  0  0
  -27.7433  -15.9782   20.5116 C   0  0  0  0  0  0  0  0  0  0  0  0
  -26.5529  -36.6029   18.3677 C   0  0  0  0  0  0  0  0  0  0  0  0
  -23.6836  -30.4760   20.0243 C   0  0  0  0  0  0  0  0  0  0  0  0
  -25.5108  -29.5244   22.1457 C   0  0  0  0  0  0  0  0  0  0  0  0
  -26.7438  -35.9025   19.7106 C   0  0  0  0  0  0  0  0  0  0  0  0
  -24.9312  -16.4776   18.4344 C   0  0  0  0  0  0  0  0  0  0  0  0
  -27.4795  -34.5795   19.5228 C   0  0  0  0  0  0  0  0  0  0  0  0
  -23.9517  -15.4495   18.9988 C   0  0  0  0  0  0  0  0  0  0  0  0
  -26.3623  -15.9396   18.3825 C   0  0  0  0  0  0  0  0  0  0  0  0
  -25.8698  -14.3816   20.2407 C   0  0  0  0  0  0  0  0  0  0  0  0
  -26.6754  -33.6224   18.6346 C   0  0  1  0  0  0  0  0  0  0  0  0
  -24.5078  -31.4437   20.8679 C   0  0  1  0  0  0  0  0  0  0  0  0
  -24.4350  -14.9183   20.3594 C   0  0  2  0  0  0  0  0  0  0  0  0
  -25.0830  -22.8596   19.1645 C   0  0  0  0  0  0  0  0  0  0  0  0
  -30.1916  -19.5399   18.3975 C   0  0  0  0  0  0  0  0  0  0  0  0
  -23.4044  -29.8161   28.3604 C   0  0  0  0  0  0  0  0  0  0  0  0
  -28.0903  -25.9473   19.8313 C   0  0  0  0  0  0  0  0  0  0  0  0
  -26.8316  -25.5311   17.6840 C   0  0  0  0  0  0  0  0  0  0  0  0
  -27.8253  -32.1396   24.0097 C   0  0  0  0  0  0  0  0  0  0  0  0
  -27.3181  -31.3080   26.3161 C   0  0  0  0  0  0  0  0  0  0  0  0
  -26.1952  -33.3638   25.4584 C   0  0  0  0  0  0  0  0  0  0  0  0
  -30.0803  -19.8379   21.5900 C   0  0  0  0  0  0  0  0  0  0  0  0
  -27.7240  -19.0321   21.4546 C   0  0  0  0  0  0  0  0  0  0  0  0
  -29.2938  -16.3557   18.5473 C   0  0  0  0  0  0  0  0  0  0  0  0
  -21.3482  -28.5288   25.4294 C   0  0  0  0  0  0  0  0  0  0  0  0
  -29.6148  -17.5755   20.6675 C   0  0  0  0  0  0  0  0  0  0  0  0
  -28.9113  -19.6815   19.2672 C   0  0  1  0  0  0  0  0  0  0  0  0
  -25.5190  -31.1073   24.5402 C   0  0  1  0  0  0  0  0  0  0  0  0
  -22.8826  -29.8042   26.9320 C   0  0  2  0  0  0  0  0  0  0  0  0
  -27.0567  -25.0589   19.1266 C   0  0  0  0  0  0  0  0  0  1  0  0
  -26.7089  -31.9635   25.0583 C   0  0  0  0  0  0  0  0  0  0  0  0
  -29.0862  -19.0382   20.7190 C   0  0  0  0  0  0  0  0  0  0  0  0
  -23.7086  -12.5815   20.6652 N   0  0  0  0  0  0  0  0  0  0  0  0
  -29.2630  -22.0787   19.2142 N   0  0  0  0  0  0  0  0  0  0  0  0
  -28.8141  -23.3620   19.1810 N   0  0  0  0  0  0  0  0  0  0  0  0
  -23.4861  -13.8803   20.9291 N   0  0  0  0  0  0  0  0  0  0  0  0
  -24.9128  -30.8697   22.1527 N   0  0  0  0  0  0  0  0  0  0  0  0
  -26.7665  -15.3997   19.6878 N   0  0  0  0  0  0  0  0  0  0  0  0
  -22.0217  -15.3522   22.0691 N   0  0  0  0  0  0  0  0  0  0  0  0
  -20.2799  -11.2754   22.9306 N   0  0  0  0  0  0  0  0  0  0  0  0
  -25.5974  -33.0188   19.3882 N   0  0  0  0  0  0  0  0  0  0  0  0
  -24.4347  -30.9465   25.5029 N   0  0  0  0  0  0  0  0  0  0  0  0
  -28.7860  -16.6732   19.8806 N   0  0  0  0  0  0  0  0  0  0  0  0
  -21.9539  -28.6485   26.7806 N   0  3  0  0  0  0  0  0  0  0  0  0
  -20.0155  -13.5257   23.2840 O   0  0  0  0  0  0  0  0  0  0  0  0
  -26.8031  -31.2698   20.3420 O   0  0  0  0  0  0  0  0  0  0  0  0
  -24.4018  -32.8153   23.3315 O   0  0  0  0  0  0  0  0  0  0  0  0
  -24.4913  -28.6292   25.5650 O   0  0  0  0  0  0  0  0  0  0  0  0
  -27.6922  -15.8735   21.7439 O   0  0  0  0  0  0  0  0  0  0  0  0
  -22.2776   -6.3944   21.1361 O   0  0  0  0  0  0  0  0  0  0  0  0
  -25.8193  -25.2332   19.8157 O   0  0  0  0  0  0  0  0  0  1  0  0
  -21.2171   -3.7576   25.8612 F   0  0  0  0  0  0  0  0  0  0  0  0
  -19.9718   -6.9208   22.5674 F   0  0  0  0  0  0  0  0  0  0  0  0
  1  2  1  0  0  0  0
  1  5  2  0  0  0  0
  2  6  2  0  0  0  0
  3  8  2  0  0  0  0
  3 16  1  0  0  0  0
  4  9  1  0  0  0  0
  4 16  2  0  0  0  0
  5 18  1  0  0  0  0
  6 20  1  0  0  0  0
  7 10  2  0  0  0  0
  7 19  1  0  0  0  0
  8 23  1  0  0  0  0
  9 23  2  0  0  0  0
 10 24  1  0  0  0  0
 11 12  2  0  0  0  0
 11 25  1  0  0  0  0
 12 26  1  0  0  0  0
 13 21  1  0  0  0  0
 13 24  2  0  0  0  0
 14 22  1  0  0  0  0
 14 29  2  0  0  0  0
 15 26  2  0  0  0  0
 15 27  1  0  0  0  0
 16 28  1  0  0  0  0
 17 28  1  0  0  0  0
 17 31  2  0  0  0  0
 17 32  1  0  0  0  0
 18 20  2  0  0  0  0
 18 37  1  0  0  0  0
 19 21  2  0  0  0  0
 19 38  1  0  0  0  0
 20 46  1  0  0  0  0
 21 39  1  0  0  0  0
 22 30  2  0  0  0  0
 22 49  1  0  0  0  0
 23 85  1  0  0  0  0
 24 86  1  0  0  0  0
 25 27  2  0  0  0  0
 25 85  1  0  0  0  0
 26 87  1  0  0  0  0
 27 88  1  0  0  0  0
 28 68  2  0  0  0  0
 29 62  1  0  0  0  0
 29 69  1  0  0  0  0
 30 65  1  0  0  0  0
 30 70  1  0  0  0  0
 31 71  1  0  0  0  0
 31 74  1  0  0  0  0
 32 75  1  0  0  0  0
 32 80  2  0  0  0  0
 33 47  1  0  0  0  0
 33 76  1  0  0  0  0
 33 81  2  0  0  0  0
 34 63  1  0  0  0  0
 34 72  1  0  0  0  0
 34 82  2  0  0  0  0
 35 64  1  0  0  0  0
 35 77  1  0  0  0  0
 35 83  2  0  0  0  0
 36 73  1  0  0  0  0
 36 78  1  0  0  0  0
 36 84  2  0  0  0  0
 37 40  1  0  0  0  0
 38 47  1  0  0  0  0
 39 72  1  0  0  0  0
 40 42  1  0  0  0  0
 41 43  1  0  0  0  0
 41 44  1  0  0  0  0
 42 46  1  0  0  0  0
 43 48  1  0  0  0  0
 44 73  1  0  0  0  0
 45 48  1  0  0  0  0
 45 73  1  0  0  0  0
 46 76  1  0  0  0  0
 47 72  1  0  0  0  0
 48 71  1  0  0  0  0
 50 62  1  0  0  0  0
 51 64  1  0  0  0  0
 52 65  1  0  0  0  0
 53 65  1  0  0  0  0
 54 66  1  0  0  0  0
 55 66  1  0  0  0  0
 56 66  1  0  0  0  0
 57 67  1  0  0  0  0
 58 67  1  0  0  0  0
 59 78  1  0  0  0  0
 60 79  1  0  0  0  0
 61 67  1  0  0  0  0
 61 78  1  0  0  0  0
 62 67  1  0  0  0  0
 63 66  1  0  0  0  0
 63 77  1  0  0  0  0
 64 79  1  0  0  0  0
 65 86  1  0  0  0  0
 68 71  1  0  0  0  0
 69 70  2  0  0  0  0
M  CHG  1  79   1
M  ISO  4  36 100  65 101  78 100  86 101
M  END
> <Batch ID>
0071

> <Smiles>
CNC(C)C(=O)NC(C(=O)N1Cc2cc([101O:1][101C:1](C)(C)c3nnc(C(C)C(C)(C)C[100N:0](C)[100C:0](=O)N4CCCC(n5nc(-c6ccc(Oc7ccc(F)cc7F)cc6)c(C(N)=O)c5N)C4)cc3C)ccc2CC1C(=O)NC1CCCc2ccccc21)C(C)(C)C

> <Shape>
0.294

> <Color>
0.097

> <Negative vol penalty>
0.000

$$$$

  -OEChem-04052318223D

 84 92  0     1  0  0  0  0  0999 V2000
  -17.8073  -14.1510   22.2008 C   0  0  0  0  0  0  0  0  0  0  0  0
  -18.6834  -15.2306   22.2505 C   0  0  0  0  0  0  0  0  0  0  0  0
  -26.9802  -28.8590   19.4608 C   0  0  0  0  0  0  0  0  0  0  0  0
  -25.6938  -27.0551   20.4241 C   0  0  0  0  0  0  0  0  0  0  0  0
  -18.2612  -12.8713   22.5171 C   0  0  0  0  0  0  0  0  0  0  0  0
  -20.0137  -15.0311   22.6177 C   0  0  0  0  0  0  0  0  0  0  0  0
  -24.9106  -18.0273   20.4847 C   0  0  0  0  0  0  0  0  0  0  0  0
  -25.9697  -29.7596   19.7978 C   0  0  0  0  0  0  0  0  0  0  0  0
  -24.6833  -27.9556   20.7612 C   0  0  0  0  0  0  0  0  0  0  0  0
  -25.6510  -19.0947   20.9908 C   0  0  0  0  0  0  0  0  0  0  0  0
  -23.8887  -32.5918   20.7269 C   0  0  0  0  0  0  0  0  0  0  0  0
  -24.2663  -33.8030   21.3065 C   0  0  0  0  0  0  0  0  0  0  0  0
  -27.2382  -17.5401   21.9308 C   0  0  0  0  0  0  0  0  0  0  0  0
  -25.2869  -32.6070   23.1410 C   0  0  0  0  0  0  0  0  0  0  0  0
  -28.2126  -19.0667   17.0866 C   0  0  0  0  0  0  0  0  0  0  0  0
  -26.8422  -27.5067   19.7739 C   0  0  0  0  0  0  0  0  0  0  0  0
  -28.9926  -26.2063   20.2124 C   0  0  0  0  0  0  0  0  0  0  0  0
  -19.6001  -12.6545   22.8790 C   0  0  0  0  0  0  0  0  0  0  0  0
  -25.3232  -16.7057   20.7075 C   0  0  0  0  0  0  0  0  0  0  0  0
  -20.4857  -13.7474   22.9405 C   0  0  0  0  0  0  0  0  0  0  0  0
  -26.5026  -16.4578   21.4243 C   0  0  0  0  0  0  0  0  0  0  0  0
  -24.8213  -29.3079   20.4481 C   0  0  0  0  0  0  0  0  0  0  0  0
  -26.8134  -18.8511   21.7165 C   0  0  0  0  0  0  0  0  0  0  0  0
  -24.2101  -31.3881   21.3544 C   0  0  0  0  0  0  0  0  0  0  0  0
  -24.9654  -33.8106   22.5135 C   0  0  0  0  0  0  0  0  0  0  0  0
  -24.9092  -31.3958   22.5614 C   0  0  0  0  0  0  0  0  0  0  0  0
  -27.8854  -26.5759   19.4255 C   0  0  0  0  0  0  0  0  0  0  0  0
  -27.8053  -20.3694   17.0241 C   0  0  0  0  0  0  0  0  0  0  0  0
  -29.6781  -25.3027   19.4378 C   0  0  0  0  0  0  0  0  0  0  0  0
  -28.9529  -20.1016   18.8981 C   0  0  0  0  0  0  0  0  0  0  0  0
  -29.3679  -26.6409   21.5262 C   0  0  0  0  0  0  0  0  0  0  0  0
  -24.0776  -14.1873   22.1941 C   0  0  0  0  0  0  0  0  0  0  0  0
  -26.6575  -12.6660   20.9483 C   0  0  0  0  0  0  0  0  0  0  0  0
  -27.9133  -21.7010   14.9629 C   0  0  0  0  0  0  0  0  0  0  0  0
  -29.8388  -12.8799   19.7313 C   0  0  0  0  0  0  0  0  0  0  0  0
  -20.0331  -11.2604   23.2582 C   0  0  0  0  0  0  0  0  0  0  0  0
  -24.5278  -15.5662   20.1320 C   0  0  0  0  0  0  0  0  0  0  0  0
  -26.9995  -15.0581   21.6738 C   0  0  0  0  0  0  0  0  0  0  0  0
  -21.5484  -11.0765   23.2746 C   0  0  0  0  0  0  0  0  0  0  0  0
  -30.5274  -24.1504   14.8805 C   0  0  0  0  0  0  0  0  0  0  0  0
  -22.2185  -12.2320   24.0113 C   0  0  0  0  0  0  0  0  0  0  0  0
  -30.2303  -25.0334   16.0918 C   0  0  0  0  0  0  0  0  0  0  0  0
  -29.2435  -23.6506   14.2255 C   0  0  0  0  0  0  0  0  0  0  0  0
  -28.0249  -23.8157   16.3724 C   0  0  0  0  0  0  0  0  0  0  0  0
  -21.9420  -13.5675   23.3103 C   0  0  1  0  0  0  0  0  0  0  0  0
  -24.7639  -14.2457   20.8587 C   0  0  1  0  0  0  0  0  0  0  0  0
  -29.2952  -24.3169   17.0821 C   0  0  2  0  0  0  0  0  0  0  0  0
  -31.0394  -17.6923   18.4951 C   0  0  0  0  0  0  0  0  0  0  0  0
  -31.9795  -12.1209   18.6643 C   0  0  0  0  0  0  0  0  0  0  0  0
  -26.9030  -22.2004   22.3694 C   0  0  0  0  0  0  0  0  0  0  0  0
  -27.3061  -11.7170   23.7747 C   0  0  0  0  0  0  0  0  0  0  0  0
  -29.6094  -11.1432   22.9786 C   0  0  0  0  0  0  0  0  0  0  0  0
  -27.6283   -9.9901   21.9948 C   0  0  0  0  0  0  0  0  0  0  0  0
  -28.8216  -13.4521   17.0116 C   0  0  0  0  0  0  0  0  0  0  0  0
  -29.6232  -20.3946   20.2166 C   0  0  0  0  0  0  0  0  0  0  0  0
  -28.9212  -21.4848   21.0393 C   0  0  0  0  0  0  0  0  0  0  0  0
  -29.5368  -17.7011   18.7180 C   0  0  0  0  0  0  0  0  0  0  0  0
  -28.0722  -12.4089   21.4082 C   0  0  1  0  0  0  0  0  0  0  0  0
  -30.4806  -12.3022   18.4828 C   0  0  2  0  0  0  0  0  0  0  0  0
  -27.4996  -21.1160   21.4810 C   0  0  1  0  0  0  0  0  0  1  0  0
  -27.0237  -21.0920   16.0173 C   0  0  0  0  0  0  0  0  0  0  0  0
  -28.1439  -11.3412   22.5362 C   0  0  0  0  0  0  0  0  0  0  0  0
  -27.8648  -25.9577   18.2417 N   0  0  0  0  0  0  0  0  0  0  0  0
  -28.9209  -18.9293   18.2561 N   0  0  0  0  0  0  0  0  0  0  0  0
  -28.9677  -25.1906   18.2789 N   0  0  0  0  0  0  0  0  0  0  0  0
  -28.2770  -20.9862   18.1578 N   0  3  0  0  0  0  0  0  0  0  0  0
  -26.1837  -13.9773   21.0961 N   0  0  0  0  0  0  0  0  0  0  0  0
  -28.3726  -22.9961   15.2034 N   0  0  0  0  0  0  0  0  0  0  0  0
  -30.8133  -24.6012   19.6416 N   0  0  0  0  0  0  0  0  0  0  0  0
  -28.5512  -27.5735   22.1801 N   0  0  0  0  0  0  0  0  0  0  0  0
  -22.7827  -13.7079   22.1407 N   0  0  0  0  0  0  0  0  0  0  0  0
  -28.8344  -12.0667   20.2122 N   0  0  0  0  0  0  0  0  0  0  0  0
  -30.2539  -13.2049   17.3188 N   0  3  0  0  0  0  0  0  0  0  0  0
  -30.4057  -26.2273   22.0965 O   0  0  0  0  0  0  0  0  0  0  0  0
  -24.6789  -14.5489   23.1987 O   0  0  0  0  0  0  0  0  0  0  0  0
  -25.9997  -11.7393   20.4687 O   0  0  0  0  0  0  0  0  0  0  0  0
  -28.1928  -21.0427   13.9575 O   0  0  0  0  0  0  0  0  0  0  0  0
  -30.1954  -13.9441   20.2321 O   0  0  0  0  0  0  0  0  0  0  0  0
  -23.8352  -30.1864   20.7773 O   0  0  0  0  0  0  0  0  0  0  0  0
  -27.5377  -19.8912   22.2122 O   0  0  0  0  0  0  0  0  0  1  0  0
  -25.3293  -34.9738   23.0692 F   0  0  0  0  0  0  0  0  0  0  0  0
  -25.2219  -30.2426   23.1683 F   0  0  0  0  0  0  0  0  0  0  0  0
  -26.0925  -20.3025   15.3675 F   0  0  0  0  0  0  0  0  0  0  0  0
  -26.2490  -22.1099   16.5433 F   0  0  0  0  0  0  0  0  0  0  0  0
  1  2  1  0  0  0  0
  1  5  2  0  0  0  0
  2  6  2  0  0  0  0
  3  8  2  0  0  0  0
  3 16  1  0  0  0  0
  4  9  1  0  0  0  0
  4 16  2  0  0  0  0
  5 18  1  0  0  0  0
  6 20  1  0  0  0  0
  7 10  2  0  0  0  0
  7 19  1  0  0  0  0
  8 22  1  0  0  0  0
  9 22  2  0  0  0  0
 10 23  1  0  0  0  0
 11 12  2  0  0  0  0
 11 24  1  0  0  0  0
 12 25  1  0  0  0  0
 13 21  1  0  0  0  0
 13 23  2  0  0  0  0
 14 25  2  0  0  0  0
 14 26  1  0  0  0  0
 15 28  2  0  0  0  0
 15 64  1  0  0  0  0
 16 27  1  0  0  0  0
 17 27  1  0  0  0  0
 17 29  2  0  0  0  0
 17 31  1  0  0  0  0
 18 20  2  0  0  0  0
 18 36  1  0  0  0  0
 19 21  2  0  0  0  0
 19 37  1  0  0  0  0
 20 45  1  0  0  0  0
 21 38  1  0  0  0  0
 22 79  1  0  0  0  0
 23 80  1  0  0  0  0
 24 26  2  0  0  0  0
 24 79  1  0  0  0  0
 25 81  1  0  0  0  0
 26 82  1  0  0  0  0
 27 63  2  0  0  0  0
 28 61  1  0  0  0  0
 28 66  1  0  0  0  0
 29 65  1  0  0  0  0
 29 69  1  0  0  0  0
 30 55  1  0  0  0  0
 30 64  1  0  0  0  0
 30 66  2  0  0  0  0
 31 70  1  0  0  0  0
 31 74  2  0  0  0  0
 32 46  1  0  0  0  0
 32 71  1  0  0  0  0
 32 75  2  0  0  0  0
 33 58  1  0  0  0  0
 33 67  1  0  0  0  0
 33 76  2  0  0  0  0
 34 61  1  0  0  0  0
 34 68  1  0  0  0  0
 34 77  2  0  0  0  0
 35 59  1  0  0  0  0
 35 72  1  0  0  0  0
 35 78  2  0  0  0  0
 36 39  1  0  0  0  0
 37 46  1  0  0  0  0
 38 67  1  0  0  0  0
 39 41  1  0  0  0  0
 40 42  1  0  0  0  0
 40 43  1  0  0  0  0
 41 45  1  0  0  0  0
 42 47  1  0  0  0  0
 43 68  1  0  0  0  0
 44 47  1  0  0  0  0
 44 68  1  0  0  0  0
 45 71  1  0  0  0  0
 46 67  1  0  0  0  0
 47 65  1  0  0  0  0
 48 57  1  0  0  0  0
 49 59  1  0  0  0  0
 50 60  1  0  0  0  0
 51 62  1  0  0  0  0
 52 62  1  0  0  0  0
 53 62  1  0  0  0  0
 54 73  1  0  0  0  0
 55 56  1  0  0  0  0
 56 60  1  0  0  0  0
 57 64  1  0  0  0  0
 58 62  1  0  0  0  0
 58 72  1  0  0  0  0
 59 73  1  0  0  0  0
 60 80  1  0  0  0  0
 61 83  1  0  0  0  0
 61 84  1  0  0  0  0
 63 65  1  0  0  0  0
M  CHG  2  66   1  73   1
M  ISO  4  34 100  60 101  61 100  80 101
M  END
> <Batch ID>
0071

> <Smiles>
CCn1cc([100C:0](F)(F)[100C:0](=O)N2CCCC(n3nc(-c4ccc(Oc5ccc(F)cc5F)cc4)c(C(N)=O)c3N)C2)nc1CC[101CH:1](C)[101O:1]c1ccc2c(c1)CN(C(=O)C(NC(=O)C(C)NC)C(C)(C)C)C(C(=O)NC1CCCc3ccccc31)C2

> <Shape>
0.244

> <Color>
0.054

> <Negative vol penalty>
0.000

$$$$

  -OEChem-04052318223D

 91 99  0     1  0  0  0  0  0999 V2000
  -17.0046  -30.1052   24.7783 C   0  0  0  0  0  0  0  0  0  0  0  0
  -17.3613  -28.8670   24.2539 C   0  0  0  0  0  0  0  0  0  0  0  0
  -26.8011  -11.9587   21.7300 C   0  0  0  0  0  0  0  0  0  0  0  0
  -25.9205  -13.7472   20.3651 C   0  0  0  0  0  0  0  0  0  0  0  0
  -17.5987  -31.2666   24.2864 C   0  0  0  0  0  0  0  0  0  0  0  0
  -18.3116  -28.7896   23.2363 C   0  0  0  0  0  0  0  0  0  0  0  0
  -23.5242  -24.5354   20.7773 C   0  0  0  0  0  0  0  0  0  0  0  0
  -25.5473  -11.3478   21.7386 C   0  0  0  0  0  0  0  0  0  0  0  0
  -24.6666  -13.1361   20.3736 C   0  0  0  0  0  0  0  0  0  0  0  0
  -23.9442  -23.9164   19.6008 C   0  0  0  0  0  0  0  0  0  0  0  0
  -23.6894   -9.4446   19.6507 C   0  0  0  0  0  0  0  0  0  0  0  0
  -23.6370   -8.0691   19.4253 C   0  0  0  0  0  0  0  0  0  0  0  0
  -24.9622  -25.9826   18.8841 C   0  0  0  0  0  0  0  0  0  0  0  0
  -22.6144   -7.7532   21.5913 C   0  0  0  0  0  0  0  0  0  0  0  0
  -26.9827  -20.9057   16.9226 C   0  0  0  0  0  0  0  0  0  0  0  0
  -26.9877  -13.1585   21.0434 C   0  0  0  0  0  0  0  0  0  0  0  0
  -29.3197  -13.5909   20.1038 C   0  0  0  0  0  0  0  0  0  0  0  0
  -18.5639  -31.2027   23.2691 C   0  0  0  0  0  0  0  0  0  0  0  0
  -23.8112  -25.8879   21.0116 C   0  0  0  0  0  0  0  0  0  0  0  0
  -18.9182  -29.9514   22.7294 C   0  0  0  0  0  0  0  0  0  0  0  0
  -24.5470  -26.6158   20.0655 C   0  0  0  0  0  0  0  0  0  0  0  0
  -24.4800  -11.9364   21.0603 C   0  0  0  0  0  0  0  0  0  0  0  0
  -24.6607  -24.6407   18.6527 C   0  0  0  0  0  0  0  0  0  0  0  0
  -23.2044   -9.9745   20.8464 C   0  0  0  0  0  0  0  0  0  0  0  0
  -23.0995   -7.2234   20.3956 C   0  0  0  0  0  0  0  0  0  0  0  0
  -22.6668   -9.1288   21.8166 C   0  0  0  0  0  0  0  0  0  0  0  0
  -28.2826  -13.7904   21.0347 C   0  0  0  0  0  0  0  0  0  0  0  0
  -27.3358  -22.2245   16.9761 C   0  0  0  0  0  0  0  0  0  0  0  0
  -30.3297  -14.4169   20.5328 C   0  0  0  0  0  0  0  0  0  0  0  0
  -28.3195  -21.1848   18.6648 C   0  0  0  0  0  0  0  0  0  0  0  0
  -29.3658  -12.7355   18.9540 C   0  0  0  0  0  0  0  0  0  0  0  0
  -22.0659  -28.5101   21.4381 C   0  0  0  0  0  0  0  0  0  0  0  0
  -24.9512  -29.8603   22.0499 C   0  0  0  0  0  0  0  0  0  0  0  0
  -28.3370  -29.7757   21.6303 C   0  0  0  0  0  0  0  0  0  0  0  0
  -30.3836  -19.4352   23.7985 C   0  0  0  0  0  0  0  0  0  0  0  0
  -19.1439  -32.4891   22.7368 C   0  0  0  0  0  0  0  0  0  0  0  0
  -23.3743  -26.5339   22.2977 C   0  0  0  0  0  0  0  0  0  0  0  0
  -24.8984  -28.0648   20.2783 C   0  0  0  0  0  0  0  0  0  0  0  0
  -20.4162  -32.2904   21.9171 C   0  0  0  0  0  0  0  0  0  0  0  0
  -32.1105  -16.4027   24.5047 C   0  0  0  0  0  0  0  0  0  0  0  0
  -20.2365  -31.1496   20.9205 C   0  0  0  0  0  0  0  0  0  0  0  0
  -31.4189  -15.3714   23.6114 C   0  0  0  0  0  0  0  0  0  0  0  0
  -31.1213  -17.4296   25.0515 C   0  0  0  0  0  0  0  0  0  0  0  0
  -29.6125  -17.0769   23.1350 C   0  0  0  0  0  0  0  0  0  0  0  0
  -19.9632  -29.8245   21.6422 C   0  0  1  0  0  0  0  0  0  0  0  0
  -23.2774  -28.0533   22.2005 C   0  0  1  0  0  0  0  0  0  0  0  0
  -30.5786  -16.0530   22.5148 C   0  0  2  0  0  0  0  0  0  0  0  0
  -30.6628  -21.1149   19.5938 C   0  0  0  0  0  0  0  0  0  0  0  0
  -30.4268  -31.0349   22.2174 C   0  0  0  0  0  0  0  0  0  0  0  0
  -29.1646  -15.6751   16.7534 C   0  0  0  0  0  0  0  0  0  0  0  0
  -26.8370  -16.0408   17.5958 C   0  0  0  0  0  0  0  0  0  0  0  0
  -26.0198  -23.0372   14.9057 C   0  0  0  0  0  0  0  0  0  0  0  0
  -28.2487  -23.9963   15.4442 C   0  0  0  0  0  0  0  0  0  0  0  0
  -24.2758  -31.9596   19.9412 C   0  0  0  0  0  0  0  0  0  0  0  0
  -26.6991  -32.5866   19.8896 C   0  0  0  0  0  0  0  0  0  0  0  0
  -25.3860  -32.8613   21.9927 C   0  0  0  0  0  0  0  0  0  0  0  0
  -28.7273  -23.2256   21.0458 C   0  0  0  0  0  0  0  0  0  0  0  0
  -27.2211  -21.3017   21.5456 C   0  0  0  0  0  0  0  0  0  0  0  0
  -29.4513  -27.4671   23.1094 C   0  0  0  0  0  0  0  0  0  0  0  0
  -28.3711  -18.0176   17.3733 C   0  0  0  0  0  0  0  0  0  0  0  0
  -27.5031  -18.8755   18.2962 C   0  0  0  0  0  0  0  0  0  0  0  0
  -29.5704  -21.3444   22.4373 C   0  0  0  0  0  0  0  0  0  0  0  0
  -26.2734  -24.5265   16.9085 C   0  0  0  0  0  0  0  0  0  1  0  0
  -29.1424  -20.9350   19.8745 C   0  0  1  0  0  0  0  0  0  0  0  0
  -26.0126  -30.5379   21.2173 C   0  0  1  0  0  0  0  0  0  0  0  0
  -29.4786  -29.9165   22.6210 C   0  0  2  0  0  0  0  0  0  0  0  0
  -28.2900  -16.5129   17.6872 C   0  0  0  0  0  0  0  0  0  0  0  0
  -26.9617  -23.4156   16.0740 C   0  0  0  0  0  0  0  0  0  0  0  0
  -25.5853  -31.9596   20.7550 C   0  0  0  0  0  0  0  0  0  0  0  0
  -28.6811  -21.6900   21.2079 C   0  0  0  0  0  0  0  0  0  0  0  0
  -28.6043  -14.6737   21.9835 N   0  0  0  0  0  0  0  0  0  0  0  0
  -27.6060  -20.2861   17.9789 N   0  0  0  0  0  0  0  0  0  0  0  0
  -29.8549  -15.0365   21.6512 N   0  0  0  0  0  0  0  0  0  0  0  0
  -28.1629  -22.3687   18.0638 N   0  3  0  0  0  0  0  0  0  0  0  0
  -24.4434  -28.6534   21.5488 N   0  0  0  0  0  0  0  0  0  0  0  0
  -30.3575  -18.0402   23.9607 N   0  0  0  0  0  0  0  0  0  0  0  0
  -31.5689  -14.6662   20.0587 N   0  0  0  0  0  0  0  0  0  0  0  0
  -28.2409  -11.9540   18.6572 N   0  0  0  0  0  0  0  0  0  0  0  0
  -21.1910  -29.2798   22.1808 N   0  0  0  0  0  0  0  0  0  0  0  0
  -27.2350  -30.5107   22.0132 N   0  0  0  0  0  0  0  0  0  0  0  0
  -29.6375  -19.9313   22.7364 N   0  0  0  0  0  0  0  0  0  0  0  0
  -30.2555  -28.6472   22.6998 N   0  3  0  0  0  0  0  0  0  0  0  0
  -30.3807  -12.6540   18.2213 O   0  0  0  0  0  0  0  0  0  0  0  0
  -21.9353  -28.1893   20.2627 O   0  0  0  0  0  0  0  0  0  0  0  0
  -24.5913  -30.3790   23.1097 O   0  0  0  0  0  0  0  0  0  0  0  0
  -28.4163  -29.0859   20.6162 O   0  0  0  0  0  0  0  0  0  0  0  0
  -31.0286  -20.1826   24.5416 O   0  0  0  0  0  0  0  0  0  0  0  0
  -23.2564  -11.3404   21.0682 O   0  0  0  0  0  0  0  0  0  0  0  0
  -25.0712  -24.0391   17.5032 O   0  0  0  0  0  0  0  0  0  1  0  0
  -23.0478   -5.9027   20.1784 F   0  0  0  0  0  0  0  0  0  0  0  0
  -22.1981   -9.6321   22.9668 F   0  0  0  0  0  0  0  0  0  0  0  0
  1  2  1  0  0  0  0
  1  5  2  0  0  0  0
  2  6  2  0  0  0  0
  3  8  2  0  0  0  0
  3 16  1  0  0  0  0
  4  9  1  0  0  0  0
  4 16  2  0  0  0  0
  5 18  1  0  0  0  0
  6 20  1  0  0  0  0
  7 10  2  0  0  0  0
  7 19  1  0  0  0  0
  8 22  1  0  0  0  0
  9 22  2  0  0  0  0
 10 23  1  0  0  0  0
 11 12  2  0  0  0  0
 11 24  1  0  0  0  0
 12 25  1  0  0  0  0
 13 21  1  0  0  0  0
 13 23  2  0  0  0  0
 14 25  2  0  0  0  0
 14 26  1  0  0  0  0
 15 28  2  0  0  0  0
 15 72  1  0  0  0  0
 16 27  1  0  0  0  0
 17 27  1  0  0  0  0
 17 29  2  0  0  0  0
 17 31  1  0  0  0  0
 18 20  2  0  0  0  0
 18 36  1  0  0  0  0
 19 21  2  0  0  0  0
 19 37  1  0  0  0  0
 20 45  1  0  0  0  0
 21 38  1  0  0  0  0
 22 88  1  0  0  0  0
 23 89  1  0  0  0  0
 24 26  2  0  0  0  0
 24 88  1  0  0  0  0
 25 90  1  0  0  0  0
 26 91  1  0  0  0  0
 27 71  2  0  0  0  0
 28 68  1  0  0  0  0
 28 74  1  0  0  0  0
 29 73  1  0  0  0  0
 29 77  1  0  0  0  0
 30 64  1  0  0  0  0
 30 72  1  0  0  0  0
 30 74  2  0  0  0  0
 31 78  1  0  0  0  0
 31 83  2  0  0  0  0
 32 46  1  0  0  0  0
 32 79  1  0  0  0  0
 32 84  2  0  0  0  0
 33 65  1  0  0  0  0
 33 75  1  0  0  0  0
 33 85  2  0  0  0  0
 34 66  1  0  0  0  0
 34 80  1  0  0  0  0
 34 86  2  0  0  0  0
 35 76  1  0  0  0  0
 35 81  1  0  0  0  0
 35 87  2  0  0  0  0
 36 39  1  0  0  0  0
 37 46  1  0  0  0  0
 38 75  1  0  0  0  0
 39 41  1  0  0  0  0
 40 42  1  0  0  0  0
 40 43  1  0  0  0  0
 41 45  1  0  0  0  0
 42 47  1  0  0  0  0
 43 76  1  0  0  0  0
 44 47  1  0  0  0  0
 44 76  1  0  0  0  0
 45 79  1  0  0  0  0
 46 75  1  0  0  0  0
 47 73  1  0  0  0  0
 48 64  1  0  0  0  0
 49 66  1  0  0  0  0
 50 67  1  0  0  0  0
 51 67  1  0  0  0  0
 52 68  1  0  0  0  0
 53 68  1  0  0  0  0
 54 69  1  0  0  0  0
 55 69  1  0  0  0  0
 56 69  1  0  0  0  0
 57 70  1  0  0  0  0
 58 70  1  0  0  0  0
 59 82  1  0  0  0  0
 60 61  1  0  0  0  0
 60 67  1  0  0  0  0
 61 72  1  0  0  0  0
 62 70  1  0  0  0  0
 62 81  1  0  0  0  0
 63 68  1  0  0  0  0
 63 89  1  0  0  0  0
 64 70  1  0  0  0  0
 65 69  1  0  0  0  0
 65 80  1  0  0  0  0
 66 82  1  0  0  0  0
 71 73  1  0  0  0  0
M  CHG  2  74   1  82   1
M  ISO  4  35 100  63 101  81 100  89 101
M  END
> <Batch ID>
0071

> <Smiles>
CNC(C)C(=O)NC(C(=O)N1Cc2cc([101O:1][101CH2:1]C(C)(C)c3cn(CCC(C)C)c(C(C)C(C)(C)C[100NH:0][100C:0](=O)N4CCCC(n5nc(-c6ccc(Oc7ccc(F)cc7F)cc6)c(C(N)=O)c5N)C4)n3)ccc2CC1C(=O)NC1CCCc2ccccc21)C(C)(C)C

> <Shape>
0.272

> <Color>
0.065

> <Negative vol penalty>
0.000

$$$$

  -OEChem-04052318223D

 86 94  0     1  0  0  0  0  0999 V2000
  -18.7922  -10.2766   27.8323 C   0  0  0  0  0  0  0  0  0  0  0  0
  -19.7060   -9.8752   26.8631 C   0  0  0  0  0  0  0  0  0  0  0  0
  -23.2860   -9.7968   19.9086 C   0  0  0  0  0  0  0  0  0  0  0  0
  -23.7219   -9.9374   22.2808 C   0  0  0  0  0  0  0  0  0  0  0  0
  -19.2377  -10.6267   29.1063 C   0  0  0  0  0  0  0  0  0  0  0  0
  -21.0659   -9.8249   27.1670 C   0  0  0  0  0  0  0  0  0  0  0  0
  -27.0012   -6.1285   25.6093 C   0  0  0  0  0  0  0  0  0  0  0  0
  -22.5540   -8.6271   20.1123 C   0  0  0  0  0  0  0  0  0  0  0  0
  -22.9898   -8.7677   22.4846 C   0  0  0  0  0  0  0  0  0  0  0  0
  -28.3131   -6.3279   25.1815 C   0  0  0  0  0  0  0  0  0  0  0  0
  -19.7380   -7.8687   22.6813 C   0  0  0  0  0  0  0  0  0  0  0  0
  -18.8287   -7.8511   23.7388 C   0  0  0  0  0  0  0  0  0  0  0  0
  -28.9591   -6.8795   27.4393 C   0  0  0  0  0  0  0  0  0  0  0  0
  -20.0212   -6.0001   24.7333 C   0  0  0  0  0  0  0  0  0  0  0  0
  -29.7089  -10.3084   25.4136 C   0  0  0  0  0  0  0  0  0  0  0  0
  -23.8700  -10.4519   20.9928 C   0  0  0  0  0  0  0  0  0  0  0  0
  -24.1400  -12.9808   20.7942 C   0  0  0  0  0  0  0  0  0  0  0  0
  -20.6028  -10.5713   29.4288 C   0  0  0  0  0  0  0  0  0  0  0  0
  -26.6556   -6.3140   26.9557 C   0  0  0  0  0  0  0  0  0  0  0  0
  -21.5302  -10.1759   28.4460 C   0  0  0  0  0  0  0  0  0  0  0  0
  -27.6427   -6.6793   27.8821 C   0  0  0  0  0  0  0  0  0  0  0  0
  -22.4058   -8.1126   21.4003 C   0  0  0  0  0  0  0  0  0  0  0  0
  -29.2917   -6.7063   26.0960 C   0  0  0  0  0  0  0  0  0  0  0  0
  -20.7889   -6.9520   22.6497 C   0  0  0  0  0  0  0  0  0  0  0  0
  -18.9702   -6.9168   24.7648 C   0  0  0  0  0  0  0  0  0  0  0  0
  -20.9305   -6.0178   23.6758 C   0  0  0  0  0  0  0  0  0  0  0  0
  -24.6268  -11.6600   20.7829 C   0  0  0  0  0  0  0  0  0  0  0  0
  -30.9639  -10.4116   24.8491 C   0  0  0  0  0  0  0  0  0  0  0  0
  -28.8029  -11.2783   25.0360 C   0  0  0  0  0  0  0  0  0  0  0  0
  -25.2460  -13.7565   20.5460 C   0  0  0  0  0  0  0  0  0  0  0  0
  -30.3462  -12.2683   23.6924 C   0  0  0  0  0  0  0  0  0  0  0  0
  -22.8073  -13.4635   21.0100 C   0  0  0  0  0  0  0  0  0  0  0  0
  -24.6906   -8.2629   28.5191 C   0  0  0  0  0  0  0  0  0  0  0  0
  -25.5359   -6.4393   31.0652 C   0  0  0  0  0  0  0  0  0  0  0  0
  -31.1117  -12.7731   21.4053 C   0  0  0  0  0  0  0  0  0  0  0  0
  -27.8219   -4.3529   32.5031 C   0  0  0  0  0  0  0  0  0  0  0  0
  -21.0417  -11.0047   30.8051 C   0  0  0  0  0  0  0  0  0  0  0  0
  -25.2416   -6.0690   27.4060 C   0  0  0  0  0  0  0  0  0  0  0  0
  -27.3275   -6.8717   29.3423 C   0  0  0  0  0  0  0  0  0  0  0  0
  -22.4601  -10.5649   31.1587 C   0  0  0  0  0  0  0  0  0  0  0  0
  -29.4812  -13.6555   18.3389 C   0  0  0  0  0  0  0  0  0  0  0  0
  -23.4136  -10.8596   30.0052 C   0  0  0  0  0  0  0  0  0  0  0  0
  -28.0113  -13.3370   18.6093 C   0  0  0  0  0  0  0  0  0  0  0  0
  -30.4053  -12.6634   19.0381 C   0  0  0  0  0  0  0  0  0  0  0  0
  -28.7049  -12.2332   20.7832 C   0  0  0  0  0  0  0  0  0  0  0  0
  -23.0110  -10.0846   28.7447 C   0  0  1  0  0  0  0  0  0  0  0  0
  -24.8961   -6.7864   28.7073 C   0  0  1  0  0  0  0  0  0  0  0  0
  -27.7378  -13.2299   20.1200 C   0  0  2  0  0  0  0  0  0  0  0  0
  -28.2535   -3.0526   34.6055 C   0  0  0  0  0  0  0  0  0  0  0  0
  -27.4337  -11.3634   27.1488 C   0  0  0  0  0  0  0  0  0  0  0  0
  -26.6908   -9.9183   25.2263 C   0  0  0  0  0  0  0  0  0  0  0  0
  -26.4722  -12.3916   25.0994 C   0  0  0  0  0  0  0  0  0  0  0  0
  -26.2967   -9.0209   32.5028 C   0  0  0  0  0  0  0  0  0  0  0  0
  -27.5721   -7.6414   34.1577 C   0  0  0  0  0  0  0  0  0  0  0  0
  -25.1059   -7.3455   33.9274 C   0  0  0  0  0  0  0  0  0  0  0  0
  -27.8564   -1.7793   31.0422 C   0  0  0  0  0  0  0  0  0  0  0  0
  -32.0224   -9.3968   25.2005 C   0  0  0  0  0  0  0  0  0  0  0  0
  -32.0391   -8.1785   24.2748 C   0  0  0  0  0  0  0  0  0  0  0  0
  -30.7593   -7.3531   24.3400 C   0  0  0  0  0  0  0  0  0  1  0  0
  -26.6324   -6.4926   32.1014 C   0  0  1  0  0  0  0  0  0  0  0  0
  -27.6643   -3.0157   33.2040 C   0  0  2  0  0  0  0  0  0  0  0  0
  -27.4190  -11.2482   25.5931 C   0  0  0  0  0  0  0  0  0  0  0  0
  -30.6983  -13.3549   22.7336 C   0  0  0  0  0  0  0  0  0  0  0  0
  -26.4076   -7.6234   33.1445 C   0  0  0  0  0  0  0  0  0  0  0  0
  -25.9397  -11.5963   20.5459 N   0  0  0  0  0  0  0  0  0  0  0  0
  -31.3182  -11.3823   23.9816 N   0  0  0  0  0  0  0  0  0  0  0  0
  -29.0888  -12.2765   24.1745 N   0  0  0  0  0  0  0  0  0  0  0  0
  -26.2874  -12.8869   20.4061 N   0  0  0  0  0  0  0  0  0  0  0  0
  -25.9293   -6.6263   29.7325 N   0  0  0  0  0  0  0  0  0  0  0  0
  -30.0989  -12.5739   20.4669 N   0  0  0  0  0  0  0  0  0  0  0  0
  -25.4196  -15.0907   20.4358 N   0  0  0  0  0  0  0  0  0  0  0  0
  -21.7897  -12.5305   21.2515 N   0  0  0  0  0  0  0  0  0  0  0  0
  -23.4223   -8.7010   28.8492 N   0  0  0  0  0  0  0  0  0  0  0  0
  -26.7142   -5.1551   32.6783 N   0  0  0  0  0  0  0  0  0  0  0  0
  -28.3529   -1.9423   32.4328 N   0  3  0  0  0  0  0  0  0  0  0  0
  -22.5242  -14.6850   20.9731 O   0  0  0  0  0  0  0  0  0  0  0  0
  -25.6149   -8.9538   28.1065 O   0  0  0  0  0  0  0  0  0  0  0  0
  -24.3741   -6.2321   31.4243 O   0  0  0  0  0  0  0  0  0  0  0  0
  -32.3002  -12.5070   21.2083 O   0  0  0  0  0  0  0  0  0  0  0  0
  -28.8287   -4.6571   31.8672 O   0  0  0  0  0  0  0  0  0  0  0  0
  -21.6914   -6.9713   21.5996 O   0  0  0  0  0  0  0  0  0  0  0  0
  -30.5728   -6.9022   25.6809 O   0  0  0  0  0  0  0  0  0  1  0  0
  -18.0978   -6.9010   25.7811 F   0  0  0  0  0  0  0  0  0  0  0  0
  -21.9388   -5.1353   23.6515 F   0  0  0  0  0  0  0  0  0  0  0  0
  -29.6609  -14.2288   22.5220 F   0  0  0  0  0  0  0  0  0  0  0  0
  -31.7146  -14.1553   23.1932 F   0  0  0  0  0  0  0  0  0  0  0  0
  1  2  1  0  0  0  0
  1  5  2  0  0  0  0
  2  6  2  0  0  0  0
  3  8  2  0  0  0  0
  3 16  1  0  0  0  0
  4  9  1  0  0  0  0
  4 16  2  0  0  0  0
  5 18  1  0  0  0  0
  6 20  1  0  0  0  0
  7 10  2  0  0  0  0
  7 19  1  0  0  0  0
  8 22  1  0  0  0  0
  9 22  2  0  0  0  0
 10 23  1  0  0  0  0
 11 12  2  0  0  0  0
 11 24  1  0  0  0  0
 12 25  1  0  0  0  0
 13 21  1  0  0  0  0
 13 23  2  0  0  0  0
 14 25  2  0  0  0  0
 14 26  1  0  0  0  0
 15 28  1  0  0  0  0
 15 29  2  0  0  0  0
 16 27  1  0  0  0  0
 17 27  1  0  0  0  0
 17 30  2  0  0  0  0
 17 32  1  0  0  0  0
 18 20  2  0  0  0  0
 18 37  1  0  0  0  0
 19 21  2  0  0  0  0
 19 38  1  0  0  0  0
 20 46  1  0  0  0  0
 21 39  1  0  0  0  0
 22 81  1  0  0  0  0
 23 82  1  0  0  0  0
 24 26  2  0  0  0  0
 24 81  1  0  0  0  0
 25 83  1  0  0  0  0
 26 84  1  0  0  0  0
 27 65  2  0  0  0  0
 28 57  1  0  0  0  0
 28 66  2  0  0  0  0
 29 62  1  0  0  0  0
 29 67  1  0  0  0  0
 30 68  1  0  0  0  0
 30 71  1  0  0  0  0
 31 63  1  0  0  0  0
 31 66  1  0  0  0  0
 31 67  2  0  0  0  0
 32 72  1  0  0  0  0
 32 76  2  0  0  0  0
 33 47  1  0  0  0  0
 33 73  1  0  0  0  0
 33 77  2  0  0  0  0
 34 60  1  0  0  0  0
 34 69  1  0  0  0  0
 34 78  2  0  0  0  0
 35 63  1  0  0  0  0
 35 70  1  0  0  0  0
 35 79  2  0  0  0  0
 36 61  1  0  0  0  0
 36 74  1  0  0  0  0
 36 80  2  0  0  0  0
 37 40  1  0  0  0  0
 38 47  1  0  0  0  0
 39 69  1  0  0  0  0
 40 42  1  0  0  0  0
 41 43  1  0  0  0  0
 41 44  1  0  0  0  0
 42 46  1  0  0  0  0
 43 48  1  0  0  0  0
 44 70  1  0  0  0  0
 45 48  1  0  0  0  0
 45 70  1  0  0  0  0
 46 73  1  0  0  0  0
 47 69  1  0  0  0  0
 48 68  1  0  0  0  0
 49 61  1  0  0  0  0
 50 62  1  0  0  0  0
 51 62  1  0  0  0  0
 52 62  1  0  0  0  0
 53 64  1  0  0  0  0
 54 64  1  0  0  0  0
 55 64  1  0  0  0  0
 56 75  1  0  0  0  0
 57 58  1  0  0  0  0
 58 59  1  0  0  0  0
 59 82  1  0  0  0  0
 60 64  1  0  0  0  0
 60 74  1  0  0  0  0
 61 75  1  0  0  0  0
 63 85  1  0  0  0  0
 63 86  1  0  0  0  0
 65 68  1  0  0  0  0
M  CHG  1  75   1
M  ISO  4  35 100  59 101  63 100  82 101
M  END
> <Batch ID>
0071

> <Smiles>
CNC(C)C(=O)NC(C(=O)N1Cc2cc([101O:1][101CH2:1]CCc3cc(C(C)(C)C)nc([100C:0](F)(F)[100C:0](=O)N4CCCC(n5nc(-c6ccc(Oc7ccc(F)cc7F)cc6)c(C(N)=O)c5N)C4)n3)ccc2CC1C(=O)NC1CCCc2ccccc21)C(C)(C)C

> <Shape>
0.134

> <Color>
0.173

> <Negative vol penalty>
0.000

$$$$

  -OEChem-04052318223D

 90 98  0     1  0  0  0  0  0999 V2000
  -33.3966  -26.4028   17.9329 C   0  0  0  0  0  0  0  0  0  0  0  0
  -32.1682  -25.7560   18.0229 C   0  0  0  0  0  0  0  0  0  0  0  0
  -24.0851  -14.0636   19.3639 C   0  0  0  0  0  0  0  0  0  0  0  0
  -24.4759  -15.1083   21.5070 C   0  0  0  0  0  0  0  0  0  0  0  0
  -33.7558  -27.3507   18.8902 C   0  0  0  0  0  0  0  0  0  0  0  0
  -31.2988  -26.0559   19.0710 C   0  0  0  0  0  0  0  0  0  0  0  0
  -25.1795  -26.1780   18.8578 C   0  0  0  0  0  0  0  0  0  0  0  0
  -23.4078  -13.0207   19.9958 C   0  0  0  0  0  0  0  0  0  0  0  0
  -23.7985  -14.0654   22.1389 C   0  0  0  0  0  0  0  0  0  0  0  0
  -24.2092  -25.2497   19.2325 C   0  0  0  0  0  0  0  0  0  0  0  0
  -21.8874   -9.8998   21.0784 C   0  0  0  0  0  0  0  0  0  0  0  0
  -22.1795   -8.5967   20.6758 C   0  0  0  0  0  0  0  0  0  0  0  0
  -23.9760  -26.3614   21.3606 C   0  0  0  0  0  0  0  0  0  0  0  0
  -26.0427  -20.0524   22.4219 C   0  0  0  0  0  0  0  0  0  0  0  0
  -24.4870   -8.9159   21.3166 C   0  0  0  0  0  0  0  0  0  0  0  0
  -25.3210  -22.6708   22.6841 C   0  0  0  0  0  0  0  0  0  0  0  0
  -24.6192  -15.1073   20.1195 C   0  0  0  0  0  0  0  0  0  0  0  0
  -24.8074  -17.0677   18.4981 C   0  0  0  0  0  0  0  0  0  0  0  0
  -32.8863  -27.6694   19.9451 C   0  0  0  0  0  0  0  0  0  0  0  0
  -25.5638  -27.2003   19.7374 C   0  0  0  0  0  0  0  0  0  0  0  0
  -31.6473  -27.0079   20.0441 C   0  0  0  0  0  0  0  0  0  0  0  0
  -24.9495  -27.3030   20.9937 C   0  0  0  0  0  0  0  0  0  0  0  0
  -24.6938  -20.3870   22.4660 C   0  0  0  0  0  0  0  0  0  0  0  0
  -24.3177  -21.7190   22.5994 C   0  0  0  0  0  0  0  0  0  0  0  0
  -23.2645  -13.0216   21.3832 C   0  0  0  0  0  0  0  0  0  0  0  0
  -23.6093  -25.3395   20.4852 C   0  0  0  0  0  0  0  0  0  0  0  0
  -22.8951  -10.7110   21.6001 C   0  0  0  0  0  0  0  0  0  0  0  0
  -23.4792   -8.1047   20.7948 C   0  0  0  0  0  0  0  0  0  0  0  0
  -24.1949  -10.2191   21.7192 C   0  0  0  0  0  0  0  0  0  0  0  0
  -25.3195  -16.1846   19.4674 C   0  0  0  0  0  0  0  0  0  0  0  0
  -26.9687  -21.0789   22.5143 C   0  0  0  0  0  0  0  0  0  0  0  0
  -25.8598  -17.8986   18.2004 C   0  0  0  0  0  0  0  0  0  0  0  0
  -23.4975  -17.1314   17.9185 C   0  0  0  0  0  0  0  0  0  0  0  0
  -28.2782  -28.0214   21.1733 C   0  0  0  0  0  0  0  0  0  0  0  0
  -26.5424  -30.5908   22.1259 C   0  0  0  0  0  0  0  0  0  0  0  0
  -30.3515  -20.4500   20.8579 C   0  0  0  0  0  0  0  0  0  0  0  0
  -23.4724  -31.9376   22.7646 C   0  0  0  0  0  0  0  0  0  0  0  0
  -33.3383  -28.6664   20.9825 C   0  0  0  0  0  0  0  0  0  0  0  0
  -26.5928  -28.2098   19.3078 C   0  0  0  0  0  0  0  0  0  0  0  0
  -25.3121  -28.3938   21.9669 C   0  0  0  0  0  0  0  0  0  0  0  0
  -32.2018  -29.1990   21.8514 C   0  0  0  0  0  0  0  0  0  0  0  0
  -30.7647  -17.6335   18.6816 C   0  0  0  0  0  0  0  0  0  0  0  0
  -31.3170  -28.0539   22.3338 C   0  0  0  0  0  0  0  0  0  0  0  0
  -29.3597  -17.0391   18.5930 C   0  0  0  0  0  0  0  0  0  0  0  0
  -31.0404  -18.2110   20.0664 C   0  0  0  0  0  0  0  0  0  0  0  0
  -28.6285  -18.6288   20.4269 C   0  0  0  0  0  0  0  0  0  0  0  0
  -30.6665  -27.3240   21.1524 C   0  0  1  0  0  0  0  0  0  0  0  0
  -27.2766  -28.9029   20.4823 C   0  0  1  0  0  0  0  0  0  0  0  0
  -28.2980  -18.0618   19.0349 C   0  0  2  0  0  0  0  0  0  0  0  0
  -29.1190  -21.0470   23.8298 C   0  0  0  0  0  0  0  0  0  0  0  0
  -22.3749  -34.0469   23.5669 C   0  0  0  0  0  0  0  0  0  0  0  0
  -22.3939  -16.7122   25.0071 C   0  0  0  0  0  0  0  0  0  0  0  0
  -21.0736  -17.9548   23.2829 C   0  0  0  0  0  0  0  0  0  0  0  0
  -29.8551  -22.7238   21.6388 C   0  0  0  0  0  0  0  0  0  0  0  0
  -27.3602  -29.9244   24.9889 C   0  0  0  0  0  0  0  0  0  0  0  0
  -25.5226  -31.4248   25.7891 C   0  0  0  0  0  0  0  0  0  0  0  0
  -27.3956  -32.3629   24.4346 C   0  0  0  0  0  0  0  0  0  0  0  0
  -22.0018  -32.2782   20.2190 C   0  0  0  0  0  0  0  0  0  0  0  0
  -23.6708  -19.3042   22.3684 C   0  0  0  0  0  0  0  0  0  0  0  0
  -22.8702  -22.1377   22.6531 C   0  0  0  0  0  0  0  0  0  0  0  0
  -23.5260  -18.5281   23.6902 C   0  0  0  0  0  0  0  0  0  0  0  0
  -22.1746  -22.1261   21.2902 C   0  0  0  0  0  0  0  0  0  0  0  0
  -28.3815  -21.5539   19.9574 C   0  0  0  0  0  0  0  0  0  0  0  0
  -22.7677  -23.1228   20.3012 C   0  0  0  0  0  0  0  0  0  1  0  0
  -28.4252  -20.7568   22.4709 C   0  0  2  0  0  0  0  0  0  0  0  0
  -25.6615  -30.9062   23.3106 C   0  0  1  0  0  0  0  0  0  0  0  0
  -22.8471  -33.2589   22.3550 C   0  0  2  0  0  0  0  0  0  0  0  0
  -22.4580  -17.4193   23.6509 C   0  0  0  0  0  0  0  0  0  0  0  0
  -29.2226  -21.3723   21.2437 C   0  0  1  0  0  0  0  0  0  0  0  0
  -26.4793  -31.1327   24.6134 C   0  0  0  0  0  0  0  0  0  0  0  0
  -26.6415  -22.3841   22.6449 N   0  0  0  0  0  0  0  0  0  0  0  0
  -26.5978  -16.4313   19.7657 N   0  0  0  0  0  0  0  0  0  0  0  0
  -26.8979  -17.4788   18.9790 N   0  0  0  0  0  0  0  0  0  0  0  0
  -26.3281  -29.3531   21.5030 N   0  0  0  0  0  0  0  0  0  0  0  0
  -29.9979  -19.1609   20.4589 N   0  0  0  0  0  0  0  0  0  0  0  0
  -25.9892  -18.9400   17.3512 N   0  0  0  0  0  0  0  0  0  0  0  0
  -22.5302  -17.9328   18.5401 N   0  0  0  0  0  0  0  0  0  0  0  0
  -29.5505  -28.0887   20.6384 N   0  0  0  0  0  0  0  0  0  0  0  0
  -24.8388  -32.0444   22.9160 N   0  0  0  0  0  0  0  0  0  0  0  0
  -29.1708  -22.1335   18.8441 N   0  3  0  0  0  0  0  0  0  0  0  0
  -21.6771  -33.0235   21.4624 N   0  3  0  0  0  0  0  0  0  0  0  0
  -23.1892  -16.4835   16.8896 O   0  0  0  0  0  0  0  0  0  0  0  0
  -27.9233  -27.3323   22.1224 O   0  0  0  0  0  0  0  0  0  0  0  0
  -27.3846  -31.4154   21.7619 O   0  0  0  0  0  0  0  0  0  0  0  0
  -31.5121  -20.8656   20.9074 O   0  0  0  0  0  0  0  0  0  0  0  0
  -22.8141  -30.9142   22.9369 O   0  0  0  0  0  0  0  0  0  0  0  0
  -22.6034  -12.0043   22.0001 O   0  0  0  0  0  0  0  0  0  0  0  0
  -22.6624  -24.4343   20.8537 O   0  0  0  0  0  0  0  0  0  1  0  0
  -23.7592   -6.8528   20.4096 F   0  0  0  0  0  0  0  0  0  0  0  0
  -25.1669  -10.9933   22.2207 F   0  0  0  0  0  0  0  0  0  0  0  0
  1  2  1  0  0  0  0
  1  5  2  0  0  0  0
  2  6  2  0  0  0  0
  3  8  2  0  0  0  0
  3 17  1  0  0  0  0
  4  9  1  0  0  0  0
  4 17  2  0  0  0  0
  5 19  1  0  0  0  0
  6 21  1  0  0  0  0
  7 10  2  0  0  0  0
  7 20  1  0  0  0  0
  8 25  1  0  0  0  0
  9 25  2  0  0  0  0
 10 26  1  0  0  0  0
 11 12  2  0  0  0  0
 11 27  1  0  0  0  0
 12 28  1  0  0  0  0
 13 22  1  0  0  0  0
 13 26  2  0  0  0  0
 14 23  1  0  0  0  0
 14 31  2  0  0  0  0
 15 28  2  0  0  0  0
 15 29  1  0  0  0  0
 16 24  1  0  0  0  0
 16 71  2  0  0  0  0
 17 30  1  0  0  0  0
 18 30  1  0  0  0  0
 18 32  2  0  0  0  0
 18 33  1  0  0  0  0
 19 21  2  0  0  0  0
 19 38  1  0  0  0  0
 20 22  2  0  0  0  0
 20 39  1  0  0  0  0
 21 47  1  0  0  0  0
 22 40  1  0  0  0  0
 23 24  2  0  0  0  0
 23 59  1  0  0  0  0
 24 60  1  0  0  0  0
 25 87  1  0  0  0  0
 26 88  1  0  0  0  0
 27 29  2  0  0  0  0
 27 87  1  0  0  0  0
 28 89  1  0  0  0  0
 29 90  1  0  0  0  0
 30 72  2  0  0  0  0
 31 65  1  0  0  0  0
 31 71  1  0  0  0  0
 32 73  1  0  0  0  0
 32 76  1  0  0  0  0
 33 77  1  0  0  0  0
 33 82  2  0  0  0  0
 34 48  1  0  0  0  0
 34 78  1  0  0  0  0
 34 83  2  0  0  0  0
 35 66  1  0  0  0  0
 35 74  1  0  0  0  0
 35 84  2  0  0  0  0
 36 69  1  0  0  0  0
 36 75  1  0  0  0  0
 36 85  2  0  0  0  0
 37 67  1  0  0  0  0
 37 79  1  0  0  0  0
 37 86  2  0  0  0  0
 38 41  1  0  0  0  0
 39 48  1  0  0  0  0
 40 74  1  0  0  0  0
 41 43  1  0  0  0  0
 42 44  1  0  0  0  0
 42 45  1  0  0  0  0
 43 47  1  0  0  0  0
 44 49  1  0  0  0  0
 45 75  1  0  0  0  0
 46 49  1  0  0  0  0
 46 75  1  0  0  0  0
 47 78  1  0  0  0  0
 48 74  1  0  0  0  0
 49 73  1  0  0  0  0
 50 65  1  0  0  0  0
 51 67  1  0  0  0  0
 52 68  1  0  0  0  0
 53 68  1  0  0  0  0
 54 69  1  0  0  0  0
 55 70  1  0  0  0  0
 56 70  1  0  0  0  0
 57 70  1  0  0  0  0
 58 81  1  0  0  0  0
 59 61  1  0  0  0  0
 60 62  1  0  0  0  0
 61 68  1  0  0  0  0
 62 64  1  0  0  0  0
 63 69  1  0  0  0  0
 63 80  1  0  0  0  0
 64 88  1  0  0  0  0
 65 69  1  0  0  0  0
 66 70  1  0  0  0  0
 66 79  1  0  0  0  0
 67 81  1  0  0  0  0
 72 73  1  0  0  0  0
M  CHG  2  80   1  81   1
M  ISO  4  36 100  64 101  69 100  88 101
M  END
> <Batch ID>
0071

> <Smiles>
CNC(C)C(=O)NC(C(=O)N1Cc2cc([101O:1][101CH2:1]CCc3cnc(C(C)[100C:0](C)(CN)[100C:0](=O)N4CCCC(n5nc(-c6ccc(Oc7ccc(F)cc7F)cc6)c(C(N)=O)c5N)C4)cc3CCC(C)C)ccc2CC1C(=O)NC1CCCc2ccccc21)C(C)(C)C

> <Shape>
0.244

> <Color>
0.047

> <Negative vol penalty>
0.000

$$$$

  -OEChem-04052318223D

 85 93  0     1  0  0  0  0  0999 V2000
  -30.2139  -12.3212   19.6824 C   0  0  0  0  0  0  0  0  0  0  0  0
  -29.7890  -13.2268   20.6479 C   0  0  0  0  0  0  0  0  0  0  0  0
  -28.9585  -23.5750   20.6157 C   0  0  0  0  0  0  0  0  0  0  0  0
  -27.4281  -24.2199   18.8610 C   0  0  0  0  0  0  0  0  0  0  0  0
  -29.4966  -12.1859   18.4956 C   0  0  0  0  0  0  0  0  0  0  0  0
  -28.6402  -13.9887   20.4322 C   0  0  0  0  0  0  0  0  0  0  0  0
  -26.1282  -18.4069   23.7934 C   0  0  0  0  0  0  0  0  0  0  0  0
  -28.5806  -22.2419   20.4554 C   0  0  0  0  0  0  0  0  0  0  0  0
  -27.0503  -22.8868   18.7006 C   0  0  0  0  0  0  0  0  0  0  0  0
  -26.1963  -19.7965   23.8832 C   0  0  0  0  0  0  0  0  0  0  0  0
  -29.2473  -19.7030   18.3240 C   0  0  0  0  0  0  0  0  0  0  0  0
  -30.2580  -18.7424   18.2898 C   0  0  0  0  0  0  0  0  0  0  0  0
  -24.2272  -19.9763   22.5014 C   0  0  0  0  0  0  0  0  0  0  0  0
  -29.2963  -17.6616   20.2248 C   0  0  0  0  0  0  0  0  0  0  0  0
  -23.4419  -27.3876   22.9854 C   0  0  0  0  0  0  0  0  0  0  0  0
  -28.3821  -24.5640   19.8186 C   0  0  0  0  0  0  0  0  0  0  0  0
  -29.8150  -26.6153   19.3216 C   0  0  0  0  0  0  0  0  0  0  0  0
  -28.3456  -12.9559   18.2607 C   0  0  0  0  0  0  0  0  0  0  0  0
  -25.1138  -17.7907   23.0466 C   0  0  0  0  0  0  0  0  0  0  0  0
  -27.8891  -13.8493   19.2511 C   0  0  0  0  0  0  0  0  0  0  0  0
  -24.1469  -18.5786   22.4058 C   0  0  0  0  0  0  0  0  0  0  0  0
  -23.5851  -26.4829   21.9532 C   0  0  0  0  0  0  0  0  0  0  0  0
  -27.6266  -21.8978   19.4978 C   0  0  0  0  0  0  0  0  0  0  0  0
  -25.2475  -20.5815   23.2348 C   0  0  0  0  0  0  0  0  0  0  0  0
  -28.2611  -19.6430   19.3087 C   0  0  0  0  0  0  0  0  0  0  0  0
  -30.2826  -17.7217   19.2402 C   0  0  0  0  0  0  0  0  0  0  0  0
  -28.2856  -18.6223   20.2590 C   0  0  0  0  0  0  0  0  0  0  0  0
  -28.7716  -25.9413   19.9842 C   0  0  0  0  0  0  0  0  0  0  0  0
  -23.9552  -27.0189   20.7366 C   0  0  0  0  0  0  0  0  0  0  0  0
  -29.7736  -27.8922   19.8258 C   0  0  0  0  0  0  0  0  0  0  0  0
  -24.0000  -29.1143   21.6165 C   0  0  0  0  0  0  0  0  0  0  0  0
  -30.7389  -26.1304   18.3383 C   0  0  0  0  0  0  0  0  0  0  0  0
  -25.0413  -15.9028   20.4905 C   0  0  0  0  0  0  0  0  0  0  0  0
  -21.8710  -15.7671   21.1633 C   0  0  0  0  0  0  0  0  0  0  0  0
  -25.3338  -31.0763   22.3282 C   0  0  0  0  0  0  0  0  0  0  0  0
  -19.1567  -17.2211   22.6349 C   0  0  0  0  0  0  0  0  0  0  0  0
  -27.6029  -12.7636   16.9620 C   0  0  0  0  0  0  0  0  0  0  0  0
  -25.0386  -16.2899   22.9817 C   0  0  0  0  0  0  0  0  0  0  0  0
  -23.0259  -17.9656   21.6083 C   0  0  0  0  0  0  0  0  0  0  0  0
  -26.6645  -13.9211   16.6367 C   0  0  0  0  0  0  0  0  0  0  0  0
  -28.5460  -30.3439   23.7374 C   0  0  0  0  0  0  0  0  0  0  0  0
  -25.7984  -14.2434   17.8453 C   0  0  0  0  0  0  0  0  0  0  0  0
  -29.0504  -29.1747   22.8927 C   0  0  0  0  0  0  0  0  0  0  0  0
  -27.0349  -30.2785   23.9358 C   0  0  0  0  0  0  0  0  0  0  0  0
  -26.7603  -29.0334   21.8154 C   0  0  0  0  0  0  0  0  0  0  0  0
  -26.6598  -14.7108   19.0253 C   0  0  1  0  0  0  0  0  0  0  0  0
  -24.2629  -15.7824   21.7700 C   0  0  1  0  0  0  0  0  0  0  0  0
  -28.2781  -29.0782   21.5650 C   0  0  2  0  0  0  0  0  0  0  0  0
  -24.1403  -26.1349   19.5476 C   0  0  0  0  0  0  0  0  0  0  0  0
  -16.6935  -16.8927   22.9844 C   0  0  0  0  0  0  0  0  0  0  0  0
  -22.9529  -31.3887   21.7692 C   0  0  0  0  0  0  0  0  0  0  0  0
  -24.6835  -31.0200   20.0077 C   0  0  0  0  0  0  0  0  0  0  0  0
  -21.3502  -16.6249   18.2819 C   0  0  0  0  0  0  0  0  0  0  0  0
  -19.0048  -17.1934   18.9485 C   0  0  0  0  0  0  0  0  0  0  0  0
  -19.8168  -14.8419   19.1328 C   0  0  0  0  0  0  0  0  0  0  0  0
  -25.8717  -24.6441   22.3487 C   0  0  0  0  0  0  0  0  0  0  0  0
  -24.4217  -24.5011   24.3700 C   0  0  0  0  0  0  0  0  0  0  0  0
  -19.4687  -17.1287   25.5765 C   0  0  0  0  0  0  0  0  0  0  0  0
  -23.3455  -25.0067   22.1679 C   0  0  0  0  0  0  0  0  0  0  0  0
  -24.3072  -22.6809   22.6310 C   0  0  0  0  0  0  0  0  0  1  0  0
  -20.6588  -16.5758   20.7689 C   0  0  1  0  0  0  0  0  0  0  0  0
  -18.0852  -16.6579   23.5509 C   0  0  2  0  0  0  0  0  0  0  0  0
  -24.2312  -30.5757   21.4295 C   0  0  0  0  0  0  0  0  0  0  0  0
  -20.2298  -16.3209   19.2964 C   0  0  0  0  0  0  0  0  0  0  0  0
  -24.4859  -24.1995   22.8554 C   0  0  0  0  0  0  0  0  0  0  0  0
  -23.6423  -28.7151   22.8518 N   0  0  0  0  0  0  0  0  0  0  0  0
  -28.1154  -26.7252   20.8438 N   0  0  0  0  0  0  0  0  0  0  0  0
  -24.1716  -28.3348   20.5318 N   0  0  0  0  0  0  0  0  0  0  0  0
  -28.7481  -27.9049   20.7250 N   0  0  0  0  0  0  0  0  0  0  0  0
  -22.9990  -16.4941   21.5694 N   0  0  0  0  0  0  0  0  0  0  0  0
  -26.3388  -30.1649   22.6529 N   0  0  0  0  0  0  0  0  0  0  0  0
  -30.5148  -28.9942   19.5834 N   0  0  0  0  0  0  0  0  0  0  0  0
  -30.6417  -24.7925   17.9324 N   0  0  0  0  0  0  0  0  0  0  0  0
  -25.8309  -14.8048   20.2068 N   0  0  0  0  0  0  0  0  0  0  0  0
  -19.6264  -16.2704   21.7535 N   0  0  0  0  0  0  0  0  0  0  0  0
  -18.1608  -17.3010   24.8932 N   0  3  0  0  0  0  0  0  0  0  0  0
  -31.6350  -26.8575   17.8465 O   0  0  0  0  0  0  0  0  0  0  0  0
  -24.9325  -16.9162   19.8101 O   0  0  0  0  0  0  0  0  0  0  0  0
  -21.8166  -14.5355   21.1198 O   0  0  0  0  0  0  0  0  0  0  0  0
  -25.3027  -32.2436   22.7264 O   0  0  0  0  0  0  0  0  0  0  0  0
  -19.5363  -18.3886   22.6928 O   0  0  0  0  0  0  0  0  0  0  0  0
  -27.2578  -20.5970   19.3408 O   0  0  0  0  0  0  0  0  0  0  0  0
  -25.3120  -21.9381   23.3203 O   0  0  0  0  0  0  0  0  0  1  0  0
  -31.2524  -16.7984   19.2063 F   0  0  0  0  0  0  0  0  0  0  0  0
  -27.3402  -18.5588   21.2067 F   0  0  0  0  0  0  0  0  0  0  0  0
  1  2  1  0  0  0  0
  1  5  2  0  0  0  0
  2  6  2  0  0  0  0
  3  8  2  0  0  0  0
  3 16  1  0  0  0  0
  4  9  1  0  0  0  0
  4 16  2  0  0  0  0
  5 18  1  0  0  0  0
  6 20  1  0  0  0  0
  7 10  2  0  0  0  0
  7 19  1  0  0  0  0
  8 23  1  0  0  0  0
  9 23  2  0  0  0  0
 10 24  1  0  0  0  0
 11 12  2  0  0  0  0
 11 25  1  0  0  0  0
 12 26  1  0  0  0  0
 13 21  1  0  0  0  0
 13 24  2  0  0  0  0
 14 26  2  0  0  0  0
 14 27  1  0  0  0  0
 15 22  1  0  0  0  0
 15 66  2  0  0  0  0
 16 28  1  0  0  0  0
 17 28  1  0  0  0  0
 17 30  2  0  0  0  0
 17 32  1  0  0  0  0
 18 20  2  0  0  0  0
 18 37  1  0  0  0  0
 19 21  2  0  0  0  0
 19 38  1  0  0  0  0
 20 46  1  0  0  0  0
 21 39  1  0  0  0  0
 22 29  2  0  0  0  0
 22 59  1  0  0  0  0
 23 82  1  0  0  0  0
 24 83  1  0  0  0  0
 25 27  2  0  0  0  0
 25 82  1  0  0  0  0
 26 84  1  0  0  0  0
 27 85  1  0  0  0  0
 28 67  2  0  0  0  0
 29 49  1  0  0  0  0
 29 68  1  0  0  0  0
 30 69  1  0  0  0  0
 30 72  1  0  0  0  0
 31 63  1  0  0  0  0
 31 66  1  0  0  0  0
 31 68  2  0  0  0  0
 32 73  1  0  0  0  0
 32 77  2  0  0  0  0
 33 47  1  0  0  0  0
 33 74  1  0  0  0  0
 33 78  2  0  0  0  0
 34 61  1  0  0  0  0
 34 70  1  0  0  0  0
 34 79  2  0  0  0  0
 35 63  1  0  0  0  0
 35 71  1  0  0  0  0
 35 80  2  0  0  0  0
 36 62  1  0  0  0  0
 36 75  1  0  0  0  0
 36 81  2  0  0  0  0
 37 40  1  0  0  0  0
 38 47  1  0  0  0  0
 39 70  1  0  0  0  0
 40 42  1  0  0  0  0
 41 43  1  0  0  0  0
 41 44  1  0  0  0  0
 42 46  1  0  0  0  0
 43 48  1  0  0  0  0
 44 71  1  0  0  0  0
 45 48  1  0  0  0  0
 45 71  1  0  0  0  0
 46 74  1  0  0  0  0
 47 70  1  0  0  0  0
 48 69  1  0  0  0  0
 50 62  1  0  0  0  0
 51 63  1  0  0  0  0
 52 63  1  0  0  0  0
 53 64  1  0  0  0  0
 54 64  1  0  0  0  0
 55 64  1  0  0  0  0
 56 65  1  0  0  0  0
 57 65  1  0  0  0  0
 58 76  1  0  0  0  0
 59 65  1  0  0  0  0
 60 65  1  0  0  0  0
 60 83  1  0  0  0  0
 61 64  1  0  0  0  0
 61 75  1  0  0  0  0
 62 76  1  0  0  0  0
 67 69  1  0  0  0  0
M  CHG  1  76   1
M  ISO  4  35 100  60 101  63 100  83 101
M  END
> <Batch ID>
0071

> <Smiles>
CNC(C)C(=O)NC(C(=O)N1Cc2cc([101O:1][101CH2:1]C(C)(C)Cc3cnc([100C:0](C)(C)[100C:0](=O)N4CCCC(n5nc(-c6ccc(Oc7ccc(F)cc7F)cc6)c(C(N)=O)c5N)C4)nc3C)ccc2CC1C(=O)NC1CCCc2ccccc21)C(C)(C)C

> <Shape>
0.238

> <Color>
0.064

> <Negative vol penalty>
0.000

$$$$

  -OEChem-04052318223D

 86 94  0     1  0  0  0  0  0999 V2000
  -23.4984  -29.7998   12.4682 C   0  0  0  0  0  0  0  0  0  0  0  0
  -23.8304  -28.4533   12.5778 C   0  0  0  0  0  0  0  0  0  0  0  0
  -23.0706   -9.8882   19.9351 C   0  0  0  0  0  0  0  0  0  0  0  0
  -23.8348   -9.8745   22.2270 C   0  0  0  0  0  0  0  0  0  0  0  0
  -24.1756  -30.7482   13.2336 C   0  0  0  0  0  0  0  0  0  0  0  0
  -24.8407  -28.0544   13.4523 C   0  0  0  0  0  0  0  0  0  0  0  0
  -25.0655  -22.8646   16.6959 C   0  0  0  0  0  0  0  0  0  0  0  0
  -26.8261  -18.3156   20.9348 C   0  0  0  0  0  0  0  0  0  0  0  0
  -22.3199   -8.7381   20.1785 C   0  0  0  0  0  0  0  0  0  0  0  0
  -23.0841   -8.7244   22.4705 C   0  0  0  0  0  0  0  0  0  0  0  0
  -25.7203  -21.6524   16.4820 C   0  0  0  0  0  0  0  0  0  0  0  0
  -19.8520   -7.9430   23.0736 C   0  0  0  0  0  0  0  0  0  0  0  0
  -19.0970   -7.8998   24.2457 C   0  0  0  0  0  0  0  0  0  0  0  0
  -26.5877  -18.1659   19.5732 C   0  0  0  0  0  0  0  0  0  0  0  0
  -27.5379  -22.3938   17.8842 C   0  0  0  0  0  0  0  0  0  0  0  0
  -20.3274   -5.9495   24.9664 C   0  0  0  0  0  0  0  0  0  0  0  0
  -23.8282  -10.4564   20.9593 C   0  0  0  0  0  0  0  0  0  0  0  0
  -24.1858  -12.9801   20.8560 C   0  0  0  0  0  0  0  0  0  0  0  0
  -25.1881  -30.3597   14.1250 C   0  0  0  0  0  0  0  0  0  0  0  0
  -25.6480  -23.8564   17.4980 C   0  0  0  0  0  0  0  0  0  0  0  0
  -25.5330  -28.9986   14.2294 C   0  0  0  0  0  0  0  0  0  0  0  0
  -26.8873  -23.6166   18.1087 C   0  0  0  0  0  0  0  0  0  0  0  0
  -28.1306  -18.2792   21.4146 C   0  0  0  0  0  0  0  0  0  0  0  0
  -22.3266   -8.1562   21.4462 C   0  0  0  0  0  0  0  0  0  0  0  0
  -26.9579  -21.4180   17.0738 C   0  0  0  0  0  0  0  0  0  0  0  0
  -20.8447   -6.9894   22.8479 C   0  0  0  0  0  0  0  0  0  0  0  0
  -19.3347   -6.9031   25.1921 C   0  0  0  0  0  0  0  0  0  0  0  0
  -21.0824   -5.9927   23.7943 C   0  0  0  0  0  0  0  0  0  0  0  0
  -24.6043  -11.6441   20.7083 C   0  0  0  0  0  0  0  0  0  0  0  0
  -27.6795  -17.9839   18.7398 C   0  0  0  0  0  0  0  0  0  0  0  0
  -29.1533  -18.0919   20.4988 C   0  0  0  0  0  0  0  0  0  0  0  0
  -25.2820  -13.7251   20.4958 C   0  0  0  0  0  0  0  0  0  0  0  0
  -22.9194  -13.5011   21.2809 C   0  0  0  0  0  0  0  0  0  0  0  0
  -26.6417  -26.8365   17.0131 C   0  0  0  0  0  0  0  0  0  0  0  0
  -27.0899  -26.7957   20.2255 C   0  0  0  0  0  0  0  0  0  0  0  0
  -27.6223  -24.9609   23.0534 C   0  0  0  0  0  0  0  0  0  0  0  0
  -30.7725  -14.7080   20.6807 C   0  0  0  0  0  0  0  0  0  0  0  0
  -25.9244  -31.4260   14.8967 C   0  0  0  0  0  0  0  0  0  0  0  0
  -24.9166  -25.1481   17.7405 C   0  0  0  0  0  0  0  0  0  0  0  0
  -27.5460  -24.6409   18.9950 C   0  0  0  0  0  0  0  0  0  0  0  0
  -26.7263  -30.8807   16.0756 C   0  0  0  0  0  0  0  0  0  0  0  0
  -29.6153  -12.3473   18.2798 C   0  0  0  0  0  0  0  0  0  0  0  0
  -27.5300  -29.6550   15.6532 C   0  0  0  0  0  0  0  0  0  0  0  0
  -28.1768  -12.0597   18.7134 C   0  0  0  0  0  0  0  0  0  0  0  0
  -30.5361  -12.5540   19.4804 C   0  0  0  0  0  0  0  0  0  0  0  0
  -28.6416  -13.2875   20.8756 C   0  0  0  0  0  0  0  0  0  0  0  0
  -26.6062  -28.5241   15.1850 C   0  0  1  0  0  0  0  0  0  0  0  0
  -25.8399  -26.2881   18.1593 C   0  0  1  0  0  0  0  0  0  0  0  0
  -27.6641  -13.1273   19.6987 C   0  0  2  0  0  0  0  0  0  0  0  0
  -28.3921  -18.4377   22.8725 C   0  0  0  0  0  0  0  0  0  0  0  0
  -27.9853  -25.2100   25.5240 C   0  0  0  0  0  0  0  0  0  0  0  0
  -26.5730  -16.5967   16.8608 C   0  0  0  0  0  0  0  0  0  0  0  0
  -28.8186  -17.6095   16.5303 C   0  0  0  0  0  0  0  0  0  0  0  0
  -31.0884  -19.3402   21.6795 C   0  0  0  0  0  0  0  0  0  0  0  0
  -31.5331  -17.8638   19.7357 C   0  0  0  0  0  0  0  0  0  0  0  0
  -29.9595  -27.6959   19.7108 C   0  0  0  0  0  0  0  0  0  0  0  0
  -30.5195  -27.0156   22.0542 C   0  0  0  0  0  0  0  0  0  0  0  0
  -28.8452  -28.8194   21.6473 C   0  0  0  0  0  0  0  0  0  0  0  0
  -25.1861  -23.4039   23.6857 C   0  0  0  0  0  0  0  0  0  0  0  0
  -30.8544  -16.8495   21.9323 C   0  0  0  0  0  0  0  0  0  0  0  0
  -26.7853  -19.0864   16.6381 C   0  0  0  0  0  0  0  0  0  1  0  0
  -28.2298  -26.4200   21.1413 C   0  0  1  0  0  0  0  0  0  0  0  0
  -26.9612  -25.0008   24.4194 C   0  0  2  0  0  0  0  0  0  0  0  0
  -27.4532  -17.8163   17.2255 C   0  0  0  0  0  0  0  0  0  0  0  0
  -30.5744  -18.0476   20.9565 C   0  0  0  0  0  0  0  0  0  0  0  0
  -29.3773  -27.4690   21.1202 C   0  0  0  0  0  0  0  0  0  0  0  0
  -25.8678  -11.5431   20.2870 N   0  0  0  0  0  0  0  0  0  0  0  0
  -28.9608  -17.9429   19.1690 N   0  0  0  0  0  0  0  0  0  0  0  0
  -26.2526  -12.8252   20.1668 N   0  0  0  0  0  0  0  0  0  0  0  0
  -26.7941  -25.8906   19.1964 N   0  0  0  0  0  0  0  0  0  0  0  0
  -29.9937  -13.5798   20.3745 N   0  0  0  0  0  0  0  0  0  0  0  0
  -25.5008  -15.0557   20.4316 N   0  0  0  0  0  0  0  0  0  0  0  0
  -21.9024  -12.5961   21.6138 N   0  0  0  0  0  0  0  0  0  0  0  0
  -26.0119  -27.8537   16.3217 N   0  0  0  0  0  0  0  0  0  0  0  0
  -27.6411  -26.2048   22.4587 N   0  0  0  0  0  0  0  0  0  0  0  0
  -30.1809  -15.6348   21.5303 N   0  0  0  0  0  0  0  0  0  0  0  0
  -26.2397  -23.7237   24.6831 N   0  3  0  0  0  0  0  0  0  0  0  0
  -22.6911  -14.7328   21.3472 O   0  0  0  0  0  0  0  0  0  0  0  0
  -27.7505  -26.3722   16.7746 O   0  0  0  0  0  0  0  0  0  0  0  0
  -26.4797  -27.8498   20.4206 O   0  0  0  0  0  0  0  0  0  0  0  0
  -28.0799  -23.9303   22.5647 O   0  0  0  0  0  0  0  0  0  0  0  0
  -31.9087  -14.8794   20.2262 O   0  0  0  0  0  0  0  0  0  0  0  0
  -21.5940   -7.0341   21.6842 O   0  0  0  0  0  0  0  0  0  0  0  0
  -27.5995  -20.2360   16.8662 O   0  0  0  0  0  0  0  0  0  1  0  0
  -18.6107   -6.8627   26.3182 F   0  0  0  0  0  0  0  0  0  0  0  0
  -22.0355   -5.0745   23.5836 F   0  0  0  0  0  0  0  0  0  0  0  0
  1  2  1  0  0  0  0
  1  5  2  0  0  0  0
  2  6  2  0  0  0  0
  3  9  2  0  0  0  0
  3 17  1  0  0  0  0
  4 10  1  0  0  0  0
  4 17  2  0  0  0  0
  5 19  1  0  0  0  0
  6 21  1  0  0  0  0
  7 11  2  0  0  0  0
  7 20  1  0  0  0  0
  8 14  2  0  0  0  0
  8 23  1  0  0  0  0
  9 24  1  0  0  0  0
 10 24  2  0  0  0  0
 11 25  1  0  0  0  0
 12 13  2  0  0  0  0
 12 26  1  0  0  0  0
 13 27  1  0  0  0  0
 14 30  1  0  0  0  0
 15 22  1  0  0  0  0
 15 25  2  0  0  0  0
 16 27  2  0  0  0  0
 16 28  1  0  0  0  0
 17 29  1  0  0  0  0
 18 29  1  0  0  0  0
 18 32  2  0  0  0  0
 18 33  1  0  0  0  0
 19 21  2  0  0  0  0
 19 38  1  0  0  0  0
 20 22  2  0  0  0  0
 20 39  1  0  0  0  0
 21 47  1  0  0  0  0
 22 40  1  0  0  0  0
 23 31  2  0  0  0  0
 23 50  1  0  0  0  0
 24 83  1  0  0  0  0
 25 84  1  0  0  0  0
 26 28  2  0  0  0  0
 26 83  1  0  0  0  0
 27 85  1  0  0  0  0
 28 86  1  0  0  0  0
 29 67  2  0  0  0  0
 30 64  1  0  0  0  0
 30 68  2  0  0  0  0
 31 65  1  0  0  0  0
 31 68  1  0  0  0  0
 32 69  1  0  0  0  0
 32 72  1  0  0  0  0
 33 73  1  0  0  0  0
 33 78  2  0  0  0  0
 34 48  1  0  0  0  0
 34 74  1  0  0  0  0
 34 79  2  0  0  0  0
 35 62  1  0  0  0  0
 35 70  1  0  0  0  0
 35 80  2  0  0  0  0
 36 63  1  0  0  0  0
 36 75  1  0  0  0  0
 36 81  2  0  0  0  0
 37 71  1  0  0  0  0
 37 76  1  0  0  0  0
 37 82  2  0  0  0  0
 38 41  1  0  0  0  0
 39 48  1  0  0  0  0
 40 70  1  0  0  0  0
 41 43  1  0  0  0  0
 42 44  1  0  0  0  0
 42 45  1  0  0  0  0
 43 47  1  0  0  0  0
 44 49  1  0  0  0  0
 45 71  1  0  0  0  0
 46 49  1  0  0  0  0
 46 71  1  0  0  0  0
 47 74  1  0  0  0  0
 48 70  1  0  0  0  0
 49 69  1  0  0  0  0
 51 63  1  0  0  0  0
 52 64  1  0  0  0  0
 53 64  1  0  0  0  0
 54 65  1  0  0  0  0
 55 65  1  0  0  0  0
 56 66  1  0  0  0  0
 57 66  1  0  0  0  0
 58 66  1  0  0  0  0
 59 77  1  0  0  0  0
 60 65  1  0  0  0  0
 60 76  1  0  0  0  0
 61 64  1  0  0  0  0
 61 84  1  0  0  0  0
 62 66  1  0  0  0  0
 62 75  1  0  0  0  0
 63 77  1  0  0  0  0
 67 69  1  0  0  0  0
M  CHG  1  77   1
M  ISO  4  37 100  61 101  76 100  84 101
M  END
> <Batch ID>
0071

> <Smiles>
CNC(C)C(=O)NC(C(=O)N1Cc2cc([101O:1][101CH2:1]C(C)(C)c3ccc(C)c(C(C)(C)C[100NH:0][100C:0](=O)N4CCCC(n5nc(-c6ccc(Oc7ccc(F)cc7F)cc6)c(C(N)=O)c5N)C4)n3)ccc2CC1C(=O)NC1CCCc2ccccc21)C(C)(C)C

> <Shape>
0.249

> <Color>
0.189

> <Negative vol penalty>
0.000

$$$$

  -OEChem-04052318223D

 83 91  0     1  0  0  0  0  0999 V2000
  -22.7809  -17.2488   26.4104 C   0  0  0  0  0  0  0  0  0  0  0  0
  -23.8728  -18.1052   26.3111 C   0  0  0  0  0  0  0  0  0  0  0  0
  -26.4529  -12.5761   21.5205 C   0  0  0  0  0  0  0  0  0  0  0  0
  -25.6274  -13.6958   19.5452 C   0  0  0  0  0  0  0  0  0  0  0  0
  -21.8075  -17.2437   25.4123 C   0  0  0  0  0  0  0  0  0  0  0  0
  -23.9924  -18.9562   25.2129 C   0  0  0  0  0  0  0  0  0  0  0  0
  -26.3505  -24.6081   25.1748 C   0  0  0  0  0  0  0  0  0  0  0  0
  -25.2763  -11.8301   21.5894 C   0  0  0  0  0  0  0  0  0  0  0  0
  -24.4508  -12.9497   19.6140 C   0  0  0  0  0  0  0  0  0  0  0  0
  -27.6063  -25.0981   24.8190 C   0  0  0  0  0  0  0  0  0  0  0  0
  -23.9513   -9.1213   20.0598 C   0  0  0  0  0  0  0  0  0  0  0  0
  -24.0649   -7.7525   20.3027 C   0  0  0  0  0  0  0  0  0  0  0  0
  -26.7693  -25.6287   22.6196 C   0  0  0  0  0  0  0  0  0  0  0  0
  -22.7553   -8.0015   22.3177 C   0  0  0  0  0  0  0  0  0  0  0  0
  -31.2624  -25.4002   20.2887 C   0  0  0  0  0  0  0  0  0  0  0  0
  -30.8985  -23.5442   21.4103 C   0  0  0  0  0  0  0  0  0  0  0  0
  -26.6284  -13.5090   20.4985 C   0  0  0  0  0  0  0  0  0  0  0  0
  -29.1551  -13.7892   20.2865 C   0  0  0  0  0  0  0  0  0  0  0  0
  -21.9102  -18.1019   24.3062 C   0  0  0  0  0  0  0  0  0  0  0  0
  -25.2958  -24.6147   24.2507 C   0  0  0  0  0  0  0  0  0  0  0  0
  -23.0201  -18.9615   24.1984 C   0  0  0  0  0  0  0  0  0  0  0  0
  -25.5004  -25.1406   22.9671 C   0  0  0  0  0  0  0  0  0  0  0  0
  -31.2031  -24.8711   21.5919 C   0  0  0  0  0  0  0  0  0  0  0  0
  -24.2753  -12.0169   20.6361 C   0  0  0  0  0  0  0  0  0  0  0  0
  -27.8166  -25.6059   23.5403 C   0  0  0  0  0  0  0  0  0  0  0  0
  -23.2397   -9.9302   20.9458 C   0  0  0  0  0  0  0  0  0  0  0  0
  -23.4669   -7.1926   21.4317 C   0  0  0  0  0  0  0  0  0  0  0  0
  -22.6418   -9.3703   22.0748 C   0  0  0  0  0  0  0  0  0  0  0  0
  -27.8433  -14.2803   20.4271 C   0  0  0  0  0  0  0  0  0  0  0  0
  -29.9430  -14.9141   20.2702 C   0  0  0  0  0  0  0  0  0  0  0  0
  -29.6198  -12.4370   20.1801 C   0  0  0  0  0  0  0  0  0  0  0  0
  -23.5034  -22.3780   22.8766 C   0  0  0  0  0  0  0  0  0  0  0  0
  -21.8969  -24.9393   21.7013 C   0  0  0  0  0  0  0  0  0  0  0  0
  -28.7057  -20.5113   18.7162 C   0  0  0  0  0  0  0  0  0  0  0  0
  -21.9350  -28.2465   20.8602 C   0  0  0  0  0  0  0  0  0  0  0  0
  -20.8574  -18.0269   23.2289 C   0  0  0  0  0  0  0  0  0  0  0  0
  -23.9400  -24.1070   24.6587 C   0  0  0  0  0  0  0  0  0  0  0  0
  -24.3956  -25.1889   21.9445 C   0  0  0  0  0  0  0  0  0  0  0  0
  -20.8655  -19.2263   22.2846 C   0  0  0  0  0  0  0  0  0  0  0  0
  -30.1035  -19.4068   21.8868 C   0  0  0  0  0  0  0  0  0  0  0  0
  -22.2889  -19.5445   21.8381 C   0  0  0  0  0  0  0  0  0  0  0  0
  -29.7708  -17.9155   21.8646 C   0  0  0  0  0  0  0  0  0  0  0  0
  -29.0063  -20.2366   21.2254 C   0  0  0  0  0  0  0  0  0  0  0  0
  -28.3529  -18.3180   19.8053 C   0  0  0  0  0  0  0  0  0  0  0  0
  -23.1723  -19.9171   23.0348 C   0  0  1  0  0  0  0  0  0  0  0  0
  -23.0764  -23.6897   23.4723 C   0  0  1  0  0  0  0  0  0  0  0  0
  -29.4492  -17.4431   20.4360 C   0  0  2  0  0  0  0  0  0  0  0  0
  -21.0426  -30.4690   20.1108 C   0  0  0  0  0  0  0  0  0  0  0  0
  -31.7616  -27.1129   22.7502 C   0  0  0  0  0  0  0  0  0  0  0  0
  -32.6294  -24.9687   23.6597 C   0  0  0  0  0  0  0  0  0  0  0  0
  -28.0104  -22.6185   19.8161 C   0  0  0  0  0  0  0  0  0  0  0  0
  -28.9197  -22.6221   17.4878 C   0  0  0  0  0  0  0  0  0  0  0  0
  -22.2876  -23.7496   18.9188 C   0  0  0  0  0  0  0  0  0  0  0  0
  -21.6929  -25.9831   17.9565 C   0  0  0  0  0  0  0  0  0  0  0  0
  -20.0239  -24.7322   19.3248 C   0  0  0  0  0  0  0  0  0  0  0  0
  -21.2079  -29.0170   23.6237 C   0  0  0  0  0  0  0  0  0  0  0  0
  -30.4916  -22.1304   19.3820 C   0  0  0  0  0  0  0  0  0  0  0  0
  -30.1751  -25.4940   23.8252 C   0  0  0  0  0  0  0  0  0  1  0  0
  -22.0123  -25.7986   20.4654 C   0  0  1  0  0  0  0  0  0  0  0  0
  -20.9651  -29.3743   21.1636 C   0  0  2  0  0  0  0  0  0  0  0  0
  -31.4311  -25.6109   22.9235 C   0  0  0  0  0  0  0  0  0  0  0  0
  -29.0366  -21.9737   18.8768 C   0  0  0  0  0  0  0  0  0  0  0  0
  -21.5257  -25.0633   19.1848 C   0  0  0  0  0  0  0  0  0  0  0  0
  -31.0155  -24.4841   19.3486 N   0  0  0  0  0  0  0  0  0  0  0  0
  -27.7964  -15.6134   20.4954 N   0  0  0  0  0  0  0  0  0  0  0  0
  -30.7981  -23.3660   20.0618 N   0  0  0  0  0  0  0  0  0  0  0  0
  -29.0886  -15.9695   20.3974 N   0  0  0  0  0  0  0  0  0  0  0  0
  -23.0896  -24.6750   22.3892 N   0  0  0  0  0  0  0  0  0  0  0  0
  -28.7102  -19.7377   19.8771 N   0  0  0  0  0  0  0  0  0  0  0  0
  -31.2765  -15.0934   20.1596 N   0  0  0  0  0  0  0  0  0  0  0  0
  -29.7271  -11.8657   18.9048 N   0  0  0  0  0  0  0  0  0  0  0  0
  -22.9054  -21.2755   23.4566 N   0  0  0  0  0  0  0  0  0  0  0  0
  -21.2901  -27.0322   20.7571 N   0  0  0  0  0  0  0  0  0  0  0  0
  -21.2708  -29.9771   22.4918 N   0  3  0  0  0  0  0  0  0  0  0  0
  -29.9152  -11.7501   21.1873 O   0  0  0  0  0  0  0  0  0  0  0  0
  -24.3141  -22.3671   21.9577 O   0  0  0  0  0  0  0  0  0  0  0  0
  -20.7882  -24.5239   22.0476 O   0  0  0  0  0  0  0  0  0  0  0  0
  -28.4537  -20.0712   17.5915 O   0  0  0  0  0  0  0  0  0  0  0  0
  -23.1433  -28.4256   20.7245 O   0  0  0  0  0  0  0  0  0  0  0  0
  -23.1272  -11.2889   20.7028 O   0  0  0  0  0  0  0  0  0  0  0  0
  -29.0416  -26.0842   23.1902 O   0  0  0  0  0  0  0  0  0  1  0  0
  -23.5748   -5.8778   21.6640 F   0  0  0  0  0  0  0  0  0  0  0  0
  -21.9559  -10.1422   22.9290 F   0  0  0  0  0  0  0  0  0  0  0  0
  1  2  1  0  0  0  0
  1  5  2  0  0  0  0
  2  6  2  0  0  0  0
  3  8  2  0  0  0  0
  3 17  1  0  0  0  0
  4  9  1  0  0  0  0
  4 17  2  0  0  0  0
  5 19  1  0  0  0  0
  6 21  1  0  0  0  0
  7 10  2  0  0  0  0
  7 20  1  0  0  0  0
  8 24  1  0  0  0  0
  9 24  2  0  0  0  0
 10 25  1  0  0  0  0
 11 12  2  0  0  0  0
 11 26  1  0  0  0  0
 12 27  1  0  0  0  0
 13 22  1  0  0  0  0
 13 25  2  0  0  0  0
 14 27  2  0  0  0  0
 14 28  1  0  0  0  0
 15 23  1  0  0  0  0
 15 64  2  0  0  0  0
 16 23  2  0  0  0  0
 16 66  1  0  0  0  0
 17 29  1  0  0  0  0
 18 29  1  0  0  0  0
 18 30  2  0  0  0  0
 18 31  1  0  0  0  0
 19 21  2  0  0  0  0
 19 36  1  0  0  0  0
 20 22  2  0  0  0  0
 20 37  1  0  0  0  0
 21 45  1  0  0  0  0
 22 38  1  0  0  0  0
 23 61  1  0  0  0  0
 24 80  1  0  0  0  0
 25 81  1  0  0  0  0
 26 28  2  0  0  0  0
 26 80  1  0  0  0  0
 27 82  1  0  0  0  0
 28 83  1  0  0  0  0
 29 65  2  0  0  0  0
 30 67  1  0  0  0  0
 30 70  1  0  0  0  0
 31 71  1  0  0  0  0
 31 75  2  0  0  0  0
 32 46  1  0  0  0  0
 32 72  1  0  0  0  0
 32 76  2  0  0  0  0
 33 59  1  0  0  0  0
 33 68  1  0  0  0  0
 33 77  2  0  0  0  0
 34 62  1  0  0  0  0
 34 69  1  0  0  0  0
 34 78  2  0  0  0  0
 35 60  1  0  0  0  0
 35 73  1  0  0  0  0
 35 79  2  0  0  0  0
 36 39  1  0  0  0  0
 37 46  1  0  0  0  0
 38 68  1  0  0  0  0
 39 41  1  0  0  0  0
 40 42  1  0  0  0  0
 40 43  1  0  0  0  0
 41 45  1  0  0  0  0
 42 47  1  0  0  0  0
 43 69  1  0  0  0  0
 44 47  1  0  0  0  0
 44 69  1  0  0  0  0
 45 72  1  0  0  0  0
 46 68  1  0  0  0  0
 47 67  1  0  0  0  0
 48 60  1  0  0  0  0
 49 61  1  0  0  0  0
 50 61  1  0  0  0  0
 51 62  1  0  0  0  0
 52 62  1  0  0  0  0
 53 63  1  0  0  0  0
 54 63  1  0  0  0  0
 55 63  1  0  0  0  0
 56 74  1  0  0  0  0
 57 62  1  0  0  0  0
 57 66  1  0  0  0  0
 58 61  1  0  0  0  0
 58 81  1  0  0  0  0
 59 63  1  0  0  0  0
 59 73  1  0  0  0  0
 60 74  1  0  0  0  0
 64 66  1  0  0  0  0
 65 67  1  0  0  0  0
M  CHG  1  74   1
M  ISO  4  34 100  58 101  62 100  81 101
M  END
> <Batch ID>
0071

> <Smiles>
CNC(C)C(=O)NC(C(=O)N1Cc2cc([101O:1][101CH2:1]C(C)(C)c3cnn(C[100C:0](C)(C)[100C:0](=O)N4CCCC(n5nc(-c6ccc(Oc7ccc(F)cc7F)cc6)c(C(N)=O)c5N)C4)c3)ccc2CC1C(=O)NC1CCCc2ccccc21)C(C)(C)C

> <Shape>
0.199

> <Color>
0.063

> <Negative vol penalty>
0.000

$$$$

  -OEChem-04052318223D

 91100  0     1  0  0  0  0  0999 V2000
  -26.0730  -21.8896   16.8914 C   0  0  0  0  0  0  0  0  0  0  0  0
  -26.3946  -20.8298   17.7333 C   0  0  0  0  0  0  0  0  0  0  0  0
  -26.5419  -28.9226   19.0918 C   0  0  0  0  0  0  0  0  0  0  0  0
  -26.2366  -28.3494   21.4188 C   0  0  0  0  0  0  0  0  0  0  0  0
  -25.5653  -23.0732   17.4254 C   0  0  0  0  0  0  0  0  0  0  0  0
  -26.2097  -20.9534   19.1098 C   0  0  0  0  0  0  0  0  0  0  0  0
  -24.0334  -16.8625   21.1527 C   0  0  0  0  0  0  0  0  0  0  0  0
  -25.2827  -29.5223   19.0742 C   0  0  0  0  0  0  0  0  0  0  0  0
  -24.9774  -28.9492   21.4014 C   0  0  0  0  0  0  0  0  0  0  0  0
  -24.8456  -15.7502   21.3690 C   0  0  0  0  0  0  0  0  0  0  0  0
  -21.8632  -28.1739   20.3376 C   0  0  0  0  0  0  0  0  0  0  0  0
  -20.8083  -27.4837   20.9347 C   0  0  0  0  0  0  0  0  0  0  0  0
  -25.0406  -16.3528   23.6967 C   0  0  0  0  0  0  0  0  0  0  0  0
  -29.4783  -13.4155   18.7162 C   0  0  0  0  0  0  0  0  0  0  0  0
  -20.4764  -29.3194   22.4700 C   0  0  0  0  0  0  0  0  0  0  0  0
  -28.7858  -11.5962   19.8478 C   0  0  0  0  0  0  0  0  0  0  0  0
  -27.0189  -28.3361   20.2640 C   0  0  0  0  0  0  0  0  0  0  0  0
  -29.5483  -28.3273   20.5946 C   0  0  0  0  0  0  0  0  0  0  0  0
  -25.3650  -23.2079   18.8083 C   0  0  0  0  0  0  0  0  0  0  0  0
  -23.7270  -17.7358   22.2063 C   0  0  0  0  0  0  0  0  0  0  0  0
  -25.7001  -22.1404   19.6630 C   0  0  0  0  0  0  0  0  0  0  0  0
  -24.2222  -17.4740   23.4917 C   0  0  0  0  0  0  0  0  0  0  0  0
  -29.2076  -12.0289   18.6100 C   0  0  0  0  0  0  0  0  0  0  0  0
  -24.5005  -29.5357   20.2290 C   0  0  0  0  0  0  0  0  0  0  0  0
  -25.3518  -15.4968   22.6405 C   0  0  0  0  0  0  0  0  0  0  0  0
  -22.2248  -29.4368   20.8068 C   0  0  0  0  0  0  0  0  0  0  0  0
  -20.1149  -28.0565   22.0009 C   0  0  0  0  0  0  0  0  0  0  0  0
  -21.5314  -30.0095   21.8729 C   0  0  0  0  0  0  0  0  0  0  0  0
  -28.3193  -27.7159   20.2826 C   0  0  0  0  0  0  0  0  0  0  0  0
  -29.2139  -13.7878   20.0157 C   0  0  0  0  0  0  0  0  0  0  0  0
  -30.4743  -27.3207   20.4691 C   0  0  0  0  0  0  0  0  0  0  0  0
  -29.8280  -29.6839   20.9650 C   0  0  0  0  0  0  0  0  0  0  0  0
  -24.2640  -20.8124   22.7978 C   0  0  0  0  0  0  0  0  0  0  0  0
  -22.3774  -20.2451   25.3748 C   0  0  0  0  0  0  0  0  0  0  0  0
  -21.1148  -17.9867   27.6001 C   0  0  0  0  0  0  0  0  0  0  0  0
  -30.0037  -21.4576   20.9772 C   0  0  0  0  0  0  0  0  0  0  0  0
  -24.8581  -24.5237   19.3436 C   0  0  0  0  0  0  0  0  0  0  0  0
  -22.8276  -18.9165   21.9623 C   0  0  0  0  0  0  0  0  0  0  0  0
  -23.9064  -18.3696   24.6608 C   0  0  0  0  0  0  0  0  0  0  0  0
  -24.3401  -24.4391   20.7771 C   0  0  0  0  0  0  0  0  0  0  0  0
  -31.2729  -23.2419   18.0957 C   0  0  0  0  0  0  0  0  0  0  0  0
  -25.3213  -23.6686   21.6547 C   0  0  0  0  0  0  0  0  0  0  0  0
  -29.0420  -16.2371   19.6534 C   0  0  0  0  0  0  0  0  0  0  0  0
  -30.7202  -15.2874   21.2965 C   0  0  0  0  0  0  0  0  0  0  0  0
  -29.2104  -17.6189   20.2847 C   0  0  0  0  0  0  0  0  0  0  0  0
  -30.8847  -16.6714   21.9239 C   0  0  0  0  0  0  0  0  0  0  0  0
  -30.7682  -24.6598   18.3694 C   0  0  0  0  0  0  0  0  0  0  0  0
  -30.2494  -22.1972   18.5307 C   0  0  0  0  0  0  0  0  0  0  0  0
  -29.3222  -23.7208   20.2315 C   0  0  0  0  0  0  0  0  0  0  0  0
  -25.4904  -22.2273   21.1592 C   0  0  1  0  0  0  0  0  0  0  0  0
  -29.3267  -15.1105   20.6645 C   0  0  0  0  0  0  0  0  0  0  0  0
  -23.0009  -20.0236   22.9975 C   0  0  1  0  0  0  0  0  0  0  0  0
  -30.5996  -17.7899   20.9131 C   0  0  0  0  0  0  0  0  0  0  0  0
  -30.3215  -24.8226   19.8344 C   0  0  2  0  0  0  0  0  0  0  0  0
  -19.6298  -17.8272   29.6168 C   0  0  0  0  0  0  0  0  0  0  0  0
  -29.3460  -11.7104   22.9429 C   0  0  0  0  0  0  0  0  0  0  0  0
  -30.8224  -11.1995   16.8635 C   0  0  0  0  0  0  0  0  0  0  0  0
  -28.4411  -11.7145   16.2309 C   0  0  0  0  0  0  0  0  0  0  0  0
  -28.9795   -9.6810   17.5561 C   0  0  0  0  0  0  0  0  0  0  0  0
  -24.6075  -21.4031   27.1055 C   0  0  0  0  0  0  0  0  0  0  0  0
  -23.5046  -20.3648   29.0990 C   0  0  0  0  0  0  0  0  0  0  0  0
  -22.3004  -22.1007   27.7726 C   0  0  0  0  0  0  0  0  0  0  0  0
  -19.2197  -16.1907   26.2065 C   0  0  0  0  0  0  0  0  0  0  0  0
  -30.7278  -19.1607   21.5747 C   0  0  0  0  0  0  0  0  0  0  0  0
  -26.9333  -12.1805   22.3718 C   0  0  0  0  0  0  0  0  0  0  0  0
  -25.9196  -13.2696   22.0296 C   0  0  0  0  0  0  0  0  0  1  0  0
  -22.6152  -19.7906   26.7946 C   0  0  1  0  0  0  0  0  0  0  0  0
  -19.7015  -17.7470   28.0998 C   0  0  2  0  0  0  0  0  0  0  0  0
  -28.3942  -12.6220   22.1590 C   0  0  2  0  0  0  0  0  0  0  0  0
  -29.3502  -11.2002   17.3978 C   0  0  0  0  0  0  0  0  0  0  0  0
  -23.2647  -20.8988   27.6707 C   0  0  0  0  0  0  0  0  0  0  0  0
  -28.4493  -26.4212   19.9813 N   0  0  0  0  0  0  0  0  0  0  0  0
  -28.7939  -12.6738   20.6945 N   0  0  0  0  0  0  0  0  0  0  0  0
  -29.7710  -26.2108   20.1033 N   0  0  0  0  0  0  0  0  0  0  0  0
  -23.0278  -19.5147   24.3702 N   0  0  0  0  0  0  0  0  0  0  0  0
  -29.8805  -22.3963   19.9394 N   0  0  0  0  0  0  0  0  0  0  0  0
  -31.8133  -27.2856   20.6368 N   0  0  0  0  0  0  0  0  0  0  0  0
  -28.7600  -30.5879   21.0468 N   0  0  0  0  0  0  0  0  0  0  0  0
  -24.3587  -21.4191   21.5598 N   0  0  0  0  0  0  0  0  0  0  0  0
  -21.3292  -19.3133   27.2913 N   0  0  0  0  0  0  0  0  0  0  0  0
  -30.5348  -20.2256   20.6156 N   0  0  0  0  0  0  0  0  0  0  0  0
  -19.2242  -16.3999   27.6773 N   0  3  0  0  0  0  0  0  0  0  0  0
  -30.9925  -30.0866   21.2000 O   0  0  0  0  0  0  0  0  0  0  0  0
  -25.0908  -20.8679   23.7006 O   0  0  0  0  0  0  0  0  0  0  0  0
  -21.6359  -21.2082   25.1643 O   0  0  0  0  0  0  0  0  0  0  0  0
  -21.9465  -17.0877   27.4978 O   0  0  0  0  0  0  0  0  0  0  0  0
  -29.6700  -21.7013   22.1418 O   0  0  0  0  0  0  0  0  0  0  0  0
  -23.2718  -30.1210   20.2124 O   0  0  0  0  0  0  0  0  0  0  0  0
  -26.1453  -14.4122   22.8542 O   0  0  0  0  0  0  0  0  0  1  0  0
  -19.1009  -27.3943   22.5732 F   0  0  0  0  0  0  0  0  0  0  0  0
  -21.8733  -31.2230   22.3272 F   0  0  0  0  0  0  0  0  0  0  0  0
  1  2  1  0  0  0  0
  1  5  2  0  0  0  0
  2  6  2  0  0  0  0
  3  8  2  0  0  0  0
  3 17  1  0  0  0  0
  4  9  1  0  0  0  0
  4 17  2  0  0  0  0
  5 19  1  0  0  0  0
  6 21  1  0  0  0  0
  7 10  2  0  0  0  0
  7 20  1  0  0  0  0
  8 24  1  0  0  0  0
  9 24  2  0  0  0  0
 10 25  1  0  0  0  0
 11 12  2  0  0  0  0
 11 26  1  0  0  0  0
 12 27  1  0  0  0  0
 13 22  1  0  0  0  0
 13 25  2  0  0  0  0
 14 23  1  0  0  0  0
 14 30  2  0  0  0  0
 15 27  2  0  0  0  0
 15 28  1  0  0  0  0
 16 23  2  0  0  0  0
 16 73  1  0  0  0  0
 17 29  1  0  0  0  0
 18 29  1  0  0  0  0
 18 31  2  0  0  0  0
 18 32  1  0  0  0  0
 19 21  2  0  0  0  0
 19 37  1  0  0  0  0
 20 22  2  0  0  0  0
 20 38  1  0  0  0  0
 21 50  1  0  0  0  0
 22 39  1  0  0  0  0
 23 70  1  0  0  0  0
 24 88  1  0  0  0  0
 25 89  1  0  0  0  0
 26 28  2  0  0  0  0
 26 88  1  0  0  0  0
 27 90  1  0  0  0  0
 28 91  1  0  0  0  0
 29 72  2  0  0  0  0
 30 51  1  0  0  0  0
 30 73  1  0  0  0  0
 31 74  1  0  0  0  0
 31 77  1  0  0  0  0
 32 78  1  0  0  0  0
 32 83  2  0  0  0  0
 33 52  1  0  0  0  0
 33 79  1  0  0  0  0
 33 84  2  0  0  0  0
 34 67  1  0  0  0  0
 34 75  1  0  0  0  0
 34 85  2  0  0  0  0
 35 68  1  0  0  0  0
 35 80  1  0  0  0  0
 35 86  2  0  0  0  0
 36 76  1  0  0  0  0
 36 81  1  0  0  0  0
 36 87  2  0  0  0  0
 37 40  1  0  0  0  0
 38 52  1  0  0  0  0
 39 75  1  0  0  0  0
 40 42  1  0  0  0  0
 41 47  1  0  0  0  0
 41 48  1  0  0  0  0
 42 50  1  0  0  0  0
 43 45  1  0  0  0  0
 43 51  1  0  0  0  0
 44 46  1  0  0  0  0
 44 51  1  0  0  0  0
 45 53  1  0  0  0  0
 46 53  1  0  0  0  0
 47 54  1  0  0  0  0
 48 76  1  0  0  0  0
 49 54  1  0  0  0  0
 49 76  1  0  0  0  0
 50 79  1  0  0  0  0
 52 75  1  0  0  0  0
 53 64  1  0  0  0  0
 54 74  1  0  0  0  0
 55 68  1  0  0  0  0
 56 69  1  0  0  0  0
 57 70  1  0  0  0  0
 58 70  1  0  0  0  0
 59 70  1  0  0  0  0
 60 71  1  0  0  0  0
 61 71  1  0  0  0  0
 62 71  1  0  0  0  0
 63 82  1  0  0  0  0
 64 81  1  0  0  0  0
 65 66  1  0  0  0  0
 65 69  1  0  0  0  0
 66 89  1  0  0  0  0
 67 71  1  0  0  0  0
 67 80  1  0  0  0  0
 68 82  1  0  0  0  0
 69 73  1  0  0  0  0
 72 74  1  0  0  0  0
M  CHG  1  82   1
M  ISO  4  36 100  66 101  81 100  89 101
M  END
> <Batch ID>
0071

> <Smiles>
CNC(C)C(=O)NC(C(=O)N1Cc2cc([101O:1][101CH2:1]CC(C)n3cc(C(C)(C)C)cc3C3CCC(C[100NH:0][100C:0](=O)N4CCCC(n5nc(-c6ccc(Oc7ccc(F)cc7F)cc6)c(C(N)=O)c5N)C4)CC3)ccc2CC1C(=O)NC1CCCc2ccccc21)C(C)(C)C

> <Shape>
0.231

> <Color>
0.047

> <Negative vol penalty>
0.000

$$$$

  -OEChem-04052318223D

 80 87  0     1  0  0  0  0  0999 V2000
  -30.6495  -21.3235   16.1147 C   0  0  0  0  0  0  0  0  0  0  0  0
  -30.3582  -21.4850   17.4654 C   0  0  0  0  0  0  0  0  0  0  0  0
  -27.9753  -14.7454   19.6830 C   0  0  0  0  0  0  0  0  0  0  0  0
  -26.7630  -15.1230   21.7384 C   0  0  0  0  0  0  0  0  0  0  0  0
  -30.7075  -22.4368   15.2773 C   0  0  0  0  0  0  0  0  0  0  0  0
  -30.1258  -22.7601   17.9798 C   0  0  0  0  0  0  0  0  0  0  0  0
  -26.1096  -22.9097   21.0608 C   0  0  0  0  0  0  0  0  0  0  0  0
  -27.4244  -13.4671   19.5928 C   0  0  0  0  0  0  0  0  0  0  0  0
  -26.2121  -13.8447   21.6483 C   0  0  0  0  0  0  0  0  0  0  0  0
  -26.2831  -22.4263   22.3570 C   0  0  0  0  0  0  0  0  0  0  0  0
  -26.0568  -10.2390   18.6315 C   0  0  0  0  0  0  0  0  0  0  0  0
  -25.5682   -9.8294   17.3909 C   0  0  0  0  0  0  0  0  0  0  0  0
  -26.5205  -24.6878   23.1622 C   0  0  0  0  0  0  0  0  0  0  0  0
  -24.0024  -11.6693   17.4001 C   0  0  0  0  0  0  0  0  0  0  0  0
  -27.6447  -15.5733   20.7558 C   0  0  0  0  0  0  0  0  0  0  0  0
  -27.6865  -18.0864   20.3198 C   0  0  0  0  0  0  0  0  0  0  0  0
  -30.4662  -23.7252   15.7798 C   0  0  0  0  0  0  0  0  0  0  0  0
  -26.1512  -24.2876   20.8035 C   0  0  0  0  0  0  0  0  0  0  0  0
  -30.1820  -23.8918   17.1487 C   0  0  0  0  0  0  0  0  0  0  0  0
  -26.3447  -25.1863   21.8623 C   0  0  0  0  0  0  0  0  0  0  0  0
  -26.5428  -13.0168   20.5755 C   0  0  0  0  0  0  0  0  0  0  0  0
  -26.4914  -23.3152   23.4075 C   0  0  0  0  0  0  0  0  0  0  0  0
  -25.5181  -11.3638   19.2564 C   0  0  0  0  0  0  0  0  0  0  0  0
  -24.5410  -10.5445   16.7752 C   0  0  0  0  0  0  0  0  0  0  0  0
  -24.4909  -12.0789   18.6407 C   0  0  0  0  0  0  0  0  0  0  0  0
  -28.2139  -16.8936   20.8497 C   0  0  0  0  0  0  0  0  0  0  0  0
  -28.5944  -19.0526   20.6787 C   0  0  0  0  0  0  0  0  0  0  0  0
  -26.4835  -18.3019   19.5701 C   0  0  0  0  0  0  0  0  0  0  0  0
  -28.0076  -26.1887   19.0591 C   0  0  0  0  0  0  0  0  0  0  0  0
  -25.8449  -28.4459   19.9249 C   0  0  0  0  0  0  0  0  0  0  0  0
  -32.5946  -19.3353   25.1542 C   0  0  0  0  0  0  0  0  0  0  0  0
  -23.4722  -29.4834   22.1476 C   0  0  0  0  0  0  0  0  0  0  0  0
  -30.5865  -24.9030   14.8455 C   0  0  0  0  0  0  0  0  0  0  0  0
  -25.9357  -24.7944   19.4039 C   0  0  0  0  0  0  0  0  0  0  0  0
  -26.3776  -26.6759   21.6421 C   0  0  0  0  0  0  0  0  0  0  0  0
  -29.9586  -26.1819   15.3937 C   0  0  0  0  0  0  0  0  0  0  0  0
  -33.2316  -19.6707   21.6440 C   0  0  0  0  0  0  0  0  0  0  0  0
  -30.3792  -26.4044   16.8429 C   0  0  0  0  0  0  0  0  0  0  0  0
  -31.9816  -19.0789   20.9941 C   0  0  0  0  0  0  0  0  0  0  0  0
  -33.5952  -18.9333   22.9290 C   0  0  0  0  0  0  0  0  0  0  0  0
  -31.2349  -18.2801   23.2809 C   0  0  0  0  0  0  0  0  0  0  0  0
  -29.8995  -25.2562   17.7391 C   0  0  1  0  0  0  0  0  0  0  0  0
  -26.5099  -26.1897   19.1786 C   0  0  1  0  0  0  0  0  0  0  0  0
  -30.8150  -19.0156   21.9959 C   0  0  2  0  0  0  0  0  0  0  0  0
  -21.9053  -31.3881   22.6105 C   0  0  0  0  0  0  0  0  0  0  0  0
  -27.0459  -21.6646   27.3254 C   0  0  0  0  0  0  0  0  0  0  0  0
  -28.0237  -18.9211   25.9737 C   0  0  0  0  0  0  0  0  0  0  0  0
  -30.7397  -21.6381   25.3204 C   0  0  0  0  0  0  0  0  0  0  0  0
  -30.9443  -17.7772   26.1509 C   0  0  0  0  0  0  0  0  0  0  0  0
  -31.8986  -19.7038   27.4152 C   0  0  0  0  0  0  0  0  0  0  0  0
  -28.1863  -30.1244   20.9303 C   0  0  0  0  0  0  0  0  0  0  0  0
  -26.5462  -31.5232   22.2038 C   0  0  0  0  0  0  0  0  0  0  0  0
  -26.4230  -31.4158   19.7147 C   0  0  0  0  0  0  0  0  0  0  0  0
  -21.0956  -27.7326   21.9339 C   0  0  0  0  0  0  0  0  0  0  0  0
  -27.2597  -21.5572   24.8128 C   0  0  0  0  0  0  0  0  0  1  0  0
  -25.7096  -29.4101   21.0786 C   0  0  1  0  0  0  0  0  0  0  0  0
  -22.0715  -30.0318   21.9430 C   0  0  2  0  0  0  0  0  0  0  0  0
  -28.0166  -21.4697   26.1463 C   0  0  2  0  0  0  0  0  0  0  0  0
  -28.8734  -20.1635   26.2933 C   0  0  2  0  0  0  0  0  0  0  0  0
  -30.2335  -20.1875   25.4757 C   0  0  2  0  0  0  0  0  0  0  0  0
  -31.3749  -19.2466   26.0366 C   0  0  0  0  0  0  0  0  0  0  0  0
  -26.7176  -30.5902   20.9860 C   0  0  0  0  0  0  0  0  0  0  0  0
  -29.3675  -17.0823   21.4960 N   0  0  0  0  0  0  0  0  0  0  0  0
  -29.5725  -18.4049   21.3744 N   0  0  0  0  0  0  0  0  0  0  0  0
  -26.1681  -27.1221   20.2548 N   0  0  0  0  0  0  0  0  0  0  0  0
  -32.4544  -18.8753   23.8447 N   0  0  0  0  0  0  0  0  0  0  0  0
  -28.6435  -20.3844   20.4638 N   0  0  0  0  0  0  0  0  0  0  0  0
  -25.6649  -17.1994   19.2890 N   0  0  0  0  0  0  0  0  0  0  0  0
  -28.4895  -25.3993   18.0324 N   0  0  0  0  0  0  0  0  0  0  0  0
  -24.3099  -29.8205   21.1056 N   0  0  0  0  0  0  0  0  0  0  0  0
  -21.0610  -29.0987   22.5167 N   0  3  0  0  0  0  0  0  0  0  0  0
  -26.1527  -19.4357   19.1475 O   0  0  0  0  0  0  0  0  0  0  0  0
  -28.6765  -26.8558   19.8395 O   0  0  0  0  0  0  0  0  0  0  0  0
  -25.6633  -28.8508   18.7740 O   0  0  0  0  0  0  0  0  0  0  0  0
  -33.6390  -19.8024   25.6160 O   0  0  0  0  0  0  0  0  0  0  0  0
  -23.7921  -28.8251   23.1350 O   0  0  0  0  0  0  0  0  0  0  0  0
  -26.0048  -11.7696   20.4877 O   0  0  0  0  0  0  0  0  0  0  0  0
  -26.6628  -22.8430   24.6816 O   0  0  0  0  0  0  0  0  0  1  0  0
  -24.0730  -10.1520   15.5831 F   0  0  0  0  0  0  0  0  0  0  0  0
  -23.9703  -13.1609   19.2357 F   0  0  0  0  0  0  0  0  0  0  0  0
  1  2  1  0  0  0  0
  1  5  2  0  0  0  0
  2  6  2  0  0  0  0
  3  8  2  0  0  0  0
  3 15  1  0  0  0  0
  4  9  1  0  0  0  0
  4 15  2  0  0  0  0
  5 17  1  0  0  0  0
  6 19  1  0  0  0  0
  7 10  2  0  0  0  0
  7 18  1  0  0  0  0
  8 21  1  0  0  0  0
  9 21  2  0  0  0  0
 10 22  1  0  0  0  0
 11 12  2  0  0  0  0
 11 23  1  0  0  0  0
 12 24  1  0  0  0  0
 13 20  1  0  0  0  0
 13 22  2  0  0  0  0
 14 24  2  0  0  0  0
 14 25  1  0  0  0  0
 15 26  1  0  0  0  0
 16 26  1  0  0  0  0
 16 27  2  0  0  0  0
 16 28  1  0  0  0  0
 17 19  2  0  0  0  0
 17 33  1  0  0  0  0
 18 20  2  0  0  0  0
 18 34  1  0  0  0  0
 19 42  1  0  0  0  0
 20 35  1  0  0  0  0
 21 77  1  0  0  0  0
 22 78  1  0  0  0  0
 23 25  2  0  0  0  0
 23 77  1  0  0  0  0
 24 79  1  0  0  0  0
 25 80  1  0  0  0  0
 26 63  2  0  0  0  0
 27 64  1  0  0  0  0
 27 67  1  0  0  0  0
 28 68  1  0  0  0  0
 28 72  2  0  0  0  0
 29 43  1  0  0  0  0
 29 69  1  0  0  0  0
 29 73  2  0  0  0  0
 30 56  1  0  0  0  0
 30 65  1  0  0  0  0
 30 74  2  0  0  0  0
 31 61  1  0  0  0  0
 31 66  1  0  0  0  0
 31 75  2  0  0  0  0
 32 57  1  0  0  0  0
 32 70  1  0  0  0  0
 32 76  2  0  0  0  0
 33 36  1  0  0  0  0
 34 43  1  0  0  0  0
 35 65  1  0  0  0  0
 36 38  1  0  0  0  0
 37 39  1  0  0  0  0
 37 40  1  0  0  0  0
 38 42  1  0  0  0  0
 39 44  1  0  0  0  0
 40 66  1  0  0  0  0
 41 44  1  0  0  0  0
 41 66  1  0  0  0  0
 42 69  1  0  0  0  0
 43 65  1  0  0  0  0
 44 64  1  0  0  0  0
 45 57  1  0  0  0  0
 46 58  1  0  0  0  0
 47 59  1  0  0  0  0
 48 60  1  0  0  0  0
 49 61  1  0  0  0  0
 50 61  1  0  0  0  0
 51 62  1  0  0  0  0
 52 62  1  0  0  0  0
 53 62  1  0  0  0  0
 54 71  1  0  0  0  0
 55 58  1  0  0  0  0
 55 78  1  0  0  0  0
 56 62  1  0  0  0  0
 56 70  1  0  0  0  0
 57 71  1  0  0  0  0
 58 59  1  0  0  0  0
 59 60  1  0  0  0  0
 60 61  1  0  0  0  0
 63 64  1  0  0  0  0
M  CHG  1  71   1
M  ISO  4  31 100  55 101  61 100  78 101
M  END
> <Batch ID>
0071

> <Smiles>
CNC(C)C(=O)NC(C(=O)N1Cc2cc([101O:1][101CH2:1]C(C)C(C)C(C)[100C:0](C)(C)[100C:0](=O)N3CCCC(n4nc(-c5ccc(Oc6ccc(F)cc6F)cc5)c(C(N)=O)c4N)C3)ccc2CC1C(=O)NC1CCCc2ccccc21)C(C)(C)C

> <Shape>
0.188

> <Color>
0.076

> <Negative vol penalty>
0.000

$$$$

  -OEChem-04052318223D

 87 95  0     1  0  0  0  0  0999 V2000
  -21.5374  -22.7026   22.4226 C   0  0  0  0  0  0  0  0  0  0  0  0
  -22.7096  -23.2931   22.8811 C   0  0  0  0  0  0  0  0  0  0  0  0
  -26.2265  -12.9620   21.4041 C   0  0  0  0  0  0  0  0  0  0  0  0
  -24.5249  -13.6583   19.8367 C   0  0  0  0  0  0  0  0  0  0  0  0
  -20.6345  -23.4488   21.6682 C   0  0  0  0  0  0  0  0  0  0  0  0
  -22.9736  -24.6331   22.5954 C   0  0  0  0  0  0  0  0  0  0  0  0
  -26.9096  -26.6451   24.7550 C   0  0  0  0  0  0  0  0  0  0  0  0
  -25.5373  -11.7691   21.6224 C   0  0  0  0  0  0  0  0  0  0  0  0
  -23.8357  -12.4654   20.0549 C   0  0  0  0  0  0  0  0  0  0  0  0
  -28.2161  -26.3299   24.3844 C   0  0  0  0  0  0  0  0  0  0  0  0
  -25.1338   -8.8021   20.0518 C   0  0  0  0  0  0  0  0  0  0  0  0
  -25.8734   -7.6196   20.0674 C   0  0  0  0  0  0  0  0  0  0  0  0
  -28.3787  -28.4241   23.1983 C   0  0  0  0  0  0  0  0  0  0  0  0
  -25.1527   -7.1987   22.3347 C   0  0  0  0  0  0  0  0  0  0  0  0
  -28.8449  -25.7955   19.9973 C   0  0  0  0  0  0  0  0  0  0  0  0
  -25.7202  -13.9066   20.5112 C   0  0  0  0  0  0  0  0  0  0  0  0
  -27.4233  -15.3834   19.3170 C   0  0  0  0  0  0  0  0  0  0  0  0
  -20.8943  -24.7950   21.3630 C   0  0  0  0  0  0  0  0  0  0  0  0
  -26.3230  -27.8494   24.3401 C   0  0  0  0  0  0  0  0  0  0  0  0
  -22.0634  -25.4096   21.8557 C   0  0  0  0  0  0  0  0  0  0  0  0
  -27.0654  -28.7535   23.5671 C   0  0  0  0  0  0  0  0  0  0  0  0
  -30.1105  -25.2458   20.0198 C   0  0  0  0  0  0  0  0  0  0  0  0
  -24.3419  -11.5208   20.9478 C   0  0  0  0  0  0  0  0  0  0  0  0
  -28.9499  -27.2181   23.6036 C   0  0  0  0  0  0  0  0  0  0  0  0
  -24.4037   -9.1829   21.1777 C   0  0  0  0  0  0  0  0  0  0  0  0
  -25.8829   -6.8179   21.2088 C   0  0  0  0  0  0  0  0  0  0  0  0
  -24.4131   -8.3812   22.3191 C   0  0  0  0  0  0  0  0  0  0  0  0
  -26.4314  -15.1393   20.2857 C   0  0  0  0  0  0  0  0  0  0  0  0
  -30.2372  -24.0140   19.4108 C   0  0  0  0  0  0  0  0  0  0  0  0
  -27.7788  -16.6956   19.5128 C   0  0  0  0  0  0  0  0  0  0  0  0
  -28.0304  -23.9999   18.8661 C   0  0  0  0  0  0  0  0  0  0  0  0
  -27.9741  -14.5029   18.3286 C   0  0  0  0  0  0  0  0  0  0  0  0
  -23.8138  -28.6220   22.5483 C   0  0  0  0  0  0  0  0  0  0  0  0
  -24.5486  -31.6327   23.5061 C   0  0  0  0  0  0  0  0  0  0  0  0
  -26.2886  -22.0133   20.4025 C   0  0  0  0  0  0  0  0  0  0  0  0
  -26.9081  -33.8104   24.6625 C   0  0  0  0  0  0  0  0  0  0  0  0
  -19.8789  -25.5580   20.5493 C   0  0  0  0  0  0  0  0  0  0  0  0
  -24.9218  -28.1867   24.7706 C   0  0  0  0  0  0  0  0  0  0  0  0
  -26.4887  -30.0686   23.1128 C   0  0  0  0  0  0  0  0  0  0  0  0
  -20.4494  -26.8279   19.9261 C   0  0  0  0  0  0  0  0  0  0  0  0
  -26.6721  -19.8910   23.2641 C   0  0  0  0  0  0  0  0  0  0  0  0
  -21.1866  -27.6388   20.9814 C   0  0  0  0  0  0  0  0  0  0  0  0
  -26.6947  -18.4844   22.6674 C   0  0  0  0  0  0  0  0  0  0  0  0
  -25.7327  -20.8108   22.4904 C   0  0  0  0  0  0  0  0  0  0  0  0
  -26.0486  -19.4808   20.4281 C   0  0  0  0  0  0  0  0  0  0  0  0
  -22.3863  -26.8570   21.5315 C   0  0  1  0  0  0  0  0  0  0  0  0
  -24.2473  -29.2094   23.8615 C   0  0  1  0  0  0  0  0  0  0  0  0
  -27.0089  -18.5278   21.1615 C   0  0  2  0  0  0  0  0  0  0  0  0
  -31.5731  -22.1484   18.4001 C   0  0  0  0  0  0  0  0  0  0  0  0
  -27.2196  -36.2134   25.3155 C   0  0  0  0  0  0  0  0  0  0  0  0
  -27.1110  -23.0438   16.6951 C   0  0  0  0  0  0  0  0  0  0  0  0
  -25.5373  -24.1316   18.2750 C   0  0  0  0  0  0  0  0  0  0  0  0
  -24.5915  -32.4253   20.5600 C   0  0  0  0  0  0  0  0  0  0  0  0
  -25.8085  -34.5140   21.2115 C   0  0  0  0  0  0  0  0  0  0  0  0
  -23.5056  -34.0940   22.0734 C   0  0  0  0  0  0  0  0  0  0  0  0
  -27.6393  -33.0826   27.4364 C   0  0  0  0  0  0  0  0  0  0  0  0
  -31.2626  -25.9652   20.6744 C   0  0  0  0  0  0  0  0  0  0  0  0
  -31.5605  -23.3232   19.3737 C   0  0  0  0  0  0  0  0  0  0  0  0
  -31.6470  -25.3962   22.0419 C   0  0  0  0  0  0  0  0  0  0  0  0
  -30.5424  -25.5300   23.0838 C   0  0  0  0  0  0  0  0  0  1  0  0
  -25.4354  -32.7355   22.9802 C   0  0  1  0  0  0  0  0  0  0  0  0
  -26.8814  -34.8128   25.8022 C   0  0  2  0  0  0  0  0  0  0  0  0
  -26.8753  -23.3082   18.2247 C   0  0  0  0  0  0  0  0  0  0  0  0
  -26.6123  -21.9286   18.9321 C   0  0  0  0  0  0  0  0  0  0  0  0
  -24.8457  -33.4166   21.7130 C   0  0  0  0  0  0  0  0  0  0  0  0
  -27.7781  -25.1979   19.4271 N   0  0  0  0  0  0  0  0  0  0  0  0
  -26.1734  -16.2103   21.0408 N   0  0  0  0  0  0  0  0  0  0  0  0
  -29.2145  -23.3599   18.8222 N   0  0  0  0  0  0  0  0  0  0  0  0
  -27.0084  -17.1402   20.5467 N   0  0  0  0  0  0  0  0  0  0  0  0
  -25.1126  -30.3500   23.5541 N   0  0  0  0  0  0  0  0  0  0  0  0
  -26.0495  -20.8070   21.0611 N   0  0  0  0  0  0  0  0  0  0  0  0
  -28.6721  -17.5009   18.8997 N   0  0  0  0  0  0  0  0  0  0  0  0
  -27.4955  -13.1871   18.2649 N   0  0  0  0  0  0  0  0  0  0  0  0
  -22.9306  -27.5660   22.6685 N   0  0  0  0  0  0  0  0  0  0  0  0
  -25.6610  -33.6458   24.0977 N   0  0  0  0  0  0  0  0  0  0  0  0
  -27.8668  -34.4295   26.8524 N   0  3  0  0  0  0  0  0  0  0  0  0
  -28.8760  -14.8671   17.5365 O   0  0  0  0  0  0  0  0  0  0  0  0
  -24.2473  -29.0928   21.5032 O   0  0  0  0  0  0  0  0  0  0  0  0
  -23.4002  -31.9009   23.8679 O   0  0  0  0  0  0  0  0  0  0  0  0
  -26.2526  -23.1192   20.9483 O   0  0  0  0  0  0  0  0  0  0  0  0
  -27.9335  -33.2342   24.3062 O   0  0  0  0  0  0  0  0  0  0  0  0
  -23.6692  -10.3568   21.1604 O   0  0  0  0  0  0  0  0  0  0  0  0
  -30.2252  -26.9125   23.2400 O   0  0  0  0  0  0  0  0  0  1  0  0
  -26.5919   -5.6816   21.2230 F   0  0  0  0  0  0  0  0  0  0  0  0
  -23.7128   -8.7413   23.4034 F   0  0  0  0  0  0  0  0  0  0  0  0
  -27.7122  -21.1441   18.7558 F   0  0  0  0  0  0  0  0  0  0  0  0
  -25.5951  -21.2943   18.2865 F   0  0  0  0  0  0  0  0  0  0  0  0
  1  2  1  0  0  0  0
  1  5  2  0  0  0  0
  2  6  2  0  0  0  0
  3  8  2  0  0  0  0
  3 16  1  0  0  0  0
  4  9  1  0  0  0  0
  4 16  2  0  0  0  0
  5 18  1  0  0  0  0
  6 20  1  0  0  0  0
  7 10  2  0  0  0  0
  7 19  1  0  0  0  0
  8 23  1  0  0  0  0
  9 23  2  0  0  0  0
 10 24  1  0  0  0  0
 11 12  2  0  0  0  0
 11 25  1  0  0  0  0
 12 26  1  0  0  0  0
 13 21  1  0  0  0  0
 13 24  2  0  0  0  0
 14 26  2  0  0  0  0
 14 27  1  0  0  0  0
 15 22  1  0  0  0  0
 15 66  2  0  0  0  0
 16 28  1  0  0  0  0
 17 28  1  0  0  0  0
 17 30  2  0  0  0  0
 17 32  1  0  0  0  0
 18 20  2  0  0  0  0
 18 37  1  0  0  0  0
 19 21  2  0  0  0  0
 19 38  1  0  0  0  0
 20 46  1  0  0  0  0
 21 39  1  0  0  0  0
 22 29  2  0  0  0  0
 22 57  1  0  0  0  0
 23 82  1  0  0  0  0
 24 83  1  0  0  0  0
 25 27  2  0  0  0  0
 25 82  1  0  0  0  0
 26 84  1  0  0  0  0
 27 85  1  0  0  0  0
 28 67  2  0  0  0  0
 29 58  1  0  0  0  0
 29 68  1  0  0  0  0
 30 69  1  0  0  0  0
 30 72  1  0  0  0  0
 31 63  1  0  0  0  0
 31 66  1  0  0  0  0
 31 68  2  0  0  0  0
 32 73  1  0  0  0  0
 32 77  2  0  0  0  0
 33 47  1  0  0  0  0
 33 74  1  0  0  0  0
 33 78  2  0  0  0  0
 34 61  1  0  0  0  0
 34 70  1  0  0  0  0
 34 79  2  0  0  0  0
 35 64  1  0  0  0  0
 35 71  1  0  0  0  0
 35 80  2  0  0  0  0
 36 62  1  0  0  0  0
 36 75  1  0  0  0  0
 36 81  2  0  0  0  0
 37 40  1  0  0  0  0
 38 47  1  0  0  0  0
 39 70  1  0  0  0  0
 40 42  1  0  0  0  0
 41 43  1  0  0  0  0
 41 44  1  0  0  0  0
 42 46  1  0  0  0  0
 43 48  1  0  0  0  0
 44 71  1  0  0  0  0
 45 48  1  0  0  0  0
 45 71  1  0  0  0  0
 46 74  1  0  0  0  0
 47 70  1  0  0  0  0
 48 69  1  0  0  0  0
 49 58  1  0  0  0  0
 50 62  1  0  0  0  0
 51 63  1  0  0  0  0
 52 63  1  0  0  0  0
 53 65  1  0  0  0  0
 54 65  1  0  0  0  0
 55 65  1  0  0  0  0
 56 76  1  0  0  0  0
 57 59  1  0  0  0  0
 59 60  1  0  0  0  0
 60 83  1  0  0  0  0
 61 65  1  0  0  0  0
 61 75  1  0  0  0  0
 62 76  1  0  0  0  0
 63 64  1  0  0  0  0
 64 86  1  0  0  0  0
 64 87  1  0  0  0  0
 67 69  1  0  0  0  0
M  CHG  1  76   1
M  ISO  4  35 100  60 101  64 100  83 101
M  END
> <Batch ID>
0071

> <Smiles>
CCc1nc(C(C)(C)[100C:0](F)(F)[100C:0](=O)N2CCCC(n3nc(-c4ccc(Oc5ccc(F)cc5F)cc4)c(C(N)=O)c3N)C2)ncc1CC[101CH2:1][101O:1]c1ccc2c(c1)CN(C(=O)C(NC(=O)C(C)NC)C(C)(C)C)C(C(=O)NC1CCCc3ccccc31)C2

> <Shape>
0.211

> <Color>
0.072

> <Negative vol penalty>
0.000

$$$$

  -OEChem-04052318223D

 86 94  0     1  0  0  0  0  0999 V2000
  -21.4613  -12.0871   20.7841 C   0  0  0  0  0  0  0  0  0  0  0  0
  -21.5217  -13.4079   21.2169 C   0  0  0  0  0  0  0  0  0  0  0  0
  -26.5590  -28.9790   21.3317 C   0  0  0  0  0  0  0  0  0  0  0  0
  -24.6656  -29.3846   19.8869 C   0  0  0  0  0  0  0  0  0  0  0  0
  -22.6376  -11.3872   20.5190 C   0  0  0  0  0  0  0  0  0  0  0  0
  -22.7586  -14.0292   21.3859 C   0  0  0  0  0  0  0  0  0  0  0  0
  -22.8606  -18.7110   19.4584 C   0  0  0  0  0  0  0  0  0  0  0  0
  -27.2658  -28.4434   20.2550 C   0  0  0  0  0  0  0  0  0  0  0  0
  -25.3724  -28.8490   18.8102 C   0  0  0  0  0  0  0  0  0  0  0  0
  -22.2590  -19.7212   20.2075 C   0  0  0  0  0  0  0  0  0  0  0  0
  -26.1801  -25.7822   17.6384 C   0  0  0  0  0  0  0  0  0  0  0  0
  -25.5108  -24.8857   16.8054 C   0  0  0  0  0  0  0  0  0  0  0  0
  -24.4267  -20.4050   21.0153 C   0  0  0  0  0  0  0  0  0  0  0  0
  -25.8758  -26.3595   14.9260 C   0  0  0  0  0  0  0  0  0  0  0  0
  -20.1774  -26.8642   21.1075 C   0  0  0  0  0  0  0  0  0  0  0  0
  -25.2588  -29.4495   21.1476 C   0  0  0  0  0  0  0  0  0  0  0  0
  -24.4998  -31.3475   22.6737 C   0  0  0  0  0  0  0  0  0  0  0  0
  -23.8892  -12.0032   20.6757 C   0  0  0  0  0  0  0  0  0  0  0  0
  -24.2512  -18.5330   19.4907 C   0  0  0  0  0  0  0  0  0  0  0  0
  -23.9528  -13.3364   21.1240 C   0  0  0  0  0  0  0  0  0  0  0  0
  -25.0438  -19.3934   20.2637 C   0  0  0  0  0  0  0  0  0  0  0  0
  -26.6725  -28.3784   18.9943 C   0  0  0  0  0  0  0  0  0  0  0  0
  -23.0417  -20.5666   20.9883 C   0  0  0  0  0  0  0  0  0  0  0  0
  -26.6972  -26.9674   17.1153 C   0  0  0  0  0  0  0  0  0  0  0  0
  -25.3587  -25.1743   15.4492 C   0  0  0  0  0  0  0  0  0  0  0  0
  -26.5450  -27.2560   15.7591 C   0  0  0  0  0  0  0  0  0  0  0  0
  -24.5280  -30.0024   22.2595 C   0  0  0  0  0  0  0  0  0  0  0  0
  -19.7520  -25.6890   21.6596 C   0  0  0  0  0  0  0  0  0  0  0  0
  -23.6667  -31.3531   23.7657 C   0  0  0  0  0  0  0  0  0  0  0  0
  -19.1580  -27.3350   23.0153 C   0  0  0  0  0  0  0  0  0  0  0  0
  -25.1670  -32.4899   22.1209 C   0  0  0  0  0  0  0  0  0  0  0  0
  -26.1916  -16.1853   20.4000 C   0  0  0  0  0  0  0  0  0  0  0  0
  -28.4802  -18.1239   19.1645 C   0  0  0  0  0  0  0  0  0  0  0  0
  -19.2357  -27.6602   25.4510 C   0  0  0  0  0  0  0  0  0  0  0  0
  -29.4501  -21.2826   18.3107 C   0  0  0  0  0  0  0  0  0  0  0  0
  -25.1347  -11.1913   20.4223 C   0  0  0  0  0  0  0  0  0  0  0  0
  -24.8874  -17.4555   18.6560 C   0  0  0  0  0  0  0  0  0  0  0  0
  -26.5428  -19.2571   20.3169 C   0  0  0  0  0  0  0  0  0  0  0  0
  -26.3940  -12.0400   20.2669 C   0  0  0  0  0  0  0  0  0  0  0  0
  -22.1431  -28.5708   27.3372 C   0  0  0  0  0  0  0  0  0  0  0  0
  -26.4680  -13.0922   21.3688 C   0  0  0  0  0  0  0  0  0  0  0  0
  -23.0926  -29.1371   26.2822 C   0  0  0  0  0  0  0  0  0  0  0  0
  -21.3083  -27.4228   26.7785 C   0  0  0  0  0  0  0  0  0  0  0  0
  -21.4899  -28.3397   24.4876 C   0  0  0  0  0  0  0  0  0  0  0  0
  -25.2748  -14.0526   21.2956 C   0  0  1  0  0  0  0  0  0  0  0  0
  -26.2637  -17.0391   19.1658 C   0  0  1  0  0  0  0  0  0  0  0  0
  -22.3302  -29.5219   25.0020 C   0  0  2  0  0  0  0  0  0  0  0  0
  -30.8900  -23.0935   17.3388 C   0  0  0  0  0  0  0  0  0  0  0  0
  -18.8545  -29.6399   24.1569 C   0  0  0  0  0  0  0  0  0  0  0  0
  -29.9365  -17.8989   21.8363 C   0  0  0  0  0  0  0  0  0  0  0  0
  -31.3076  -19.8873   21.1771 C   0  0  0  0  0  0  0  0  0  0  0  0
  -31.4213  -17.7931   19.8266 C   0  0  0  0  0  0  0  0  0  0  0  0
  -28.1955  -21.0092   15.6442 C   0  0  0  0  0  0  0  0  0  0  0  0
  -15.3228  -23.2190   23.8369 C   0  0  0  0  0  0  0  0  0  0  0  0
  -19.8875  -24.2711   21.1649 C   0  0  0  0  0  0  0  0  0  0  0  0
  -21.1613  -23.5709   21.6432 C   0  0  0  0  0  0  0  0  0  0  0  0
  -18.5184  -25.0651   23.7582 C   0  0  0  0  0  0  0  0  0  0  0  0
  -17.0592  -27.8646   24.3509 C   0  0  0  0  0  0  0  0  0  0  0  0
  -21.2478  -22.1123   21.2093 C   0  0  0  0  0  0  0  0  0  1  0  0
  -17.1570  -24.5785   23.2800 C   0  0  0  0  0  0  0  0  0  0  0  0
  -29.3475  -19.2342   19.7065 C   0  0  1  0  0  0  0  0  0  0  0  0
  -30.0892  -21.8335   17.0488 C   0  0  2  0  0  0  0  0  0  0  0  0
  -18.5952  -28.0971   24.1576 C   0  0  1  0  0  0  0  0  0  0  0  0
  -30.4749  -18.7050   20.6374 C   0  0  0  0  0  0  0  0  0  0  0  0
  -23.7729  -29.2109   23.0259 N   0  0  0  0  0  0  0  0  0  0  0  0
  -19.1252  -26.0101   22.8394 N   0  0  0  0  0  0  0  0  0  0  0  0
  -23.2625  -30.0613   23.9328 N   0  0  0  0  0  0  0  0  0  0  0  0
  -19.7961  -27.8660   21.9673 N   0  3  0  0  0  0  0  0  0  0  0  0
  -27.1173  -18.1844   19.4881 N   0  0  0  0  0  0  0  0  0  0  0  0
  -20.6177  -27.8214   25.5507 N   0  0  0  0  0  0  0  0  0  0  0  0
  -23.2478  -32.3370   24.5897 N   0  0  0  0  0  0  0  0  0  0  0  0
  -25.9855  -32.3069   20.9980 N   0  0  0  0  0  0  0  0  0  0  0  0
  -25.4684  -15.0193   20.2361 N   0  0  0  0  0  0  0  0  0  0  0  0
  -29.8295  -19.9783   18.5479 N   0  0  0  0  0  0  0  0  0  0  0  0
  -16.2988  -28.2900   23.1480 N   0  3  0  0  0  0  0  0  0  0  0  0
  -29.0432  -22.1632   16.0398 N   0  3  0  0  0  0  0  0  0  0  0  0
  -25.0540  -33.6360   22.6181 O   0  0  0  0  0  0  0  0  0  0  0  0
  -26.7520  -16.5561   21.4248 O   0  0  0  0  0  0  0  0  0  0  0  0
  -28.9917  -17.2395   18.4733 O   0  0  0  0  0  0  0  0  0  0  0  0
  -18.5268  -27.1926   26.3460 O   0  0  0  0  0  0  0  0  0  0  0  0
  -28.6930  -21.9443   19.0175 O   0  0  0  0  0  0  0  0  0  0  0  0
  -27.3620  -27.8561   17.9435 O   0  0  0  0  0  0  0  0  0  0  0  0
  -22.4569  -21.5531   21.7210 O   0  0  0  0  0  0  0  0  0  1  0  0
  -16.6018  -23.6891   24.2401 O   0  0  0  0  0  0  0  0  0  0  0  0
  -24.7173  -24.3126   14.6491 F   0  0  0  0  0  0  0  0  0  0  0  0
  -27.0407  -28.3925   15.2506 F   0  0  0  0  0  0  0  0  0  0  0  0
  1  2  1  0  0  0  0
  1  5  2  0  0  0  0
  2  6  2  0  0  0  0
  3  8  2  0  0  0  0
  3 16  1  0  0  0  0
  4  9  1  0  0  0  0
  4 16  2  0  0  0  0
  5 18  1  0  0  0  0
  6 20  1  0  0  0  0
  7 10  2  0  0  0  0
  7 19  1  0  0  0  0
  8 22  1  0  0  0  0
  9 22  2  0  0  0  0
 10 23  1  0  0  0  0
 11 12  2  0  0  0  0
 11 24  1  0  0  0  0
 12 25  1  0  0  0  0
 13 21  1  0  0  0  0
 13 23  2  0  0  0  0
 14 25  2  0  0  0  0
 14 26  1  0  0  0  0
 15 28  2  0  0  0  0
 15 68  1  0  0  0  0
 16 27  1  0  0  0  0
 17 27  1  0  0  0  0
 17 29  2  0  0  0  0
 17 31  1  0  0  0  0
 18 20  2  0  0  0  0
 18 36  1  0  0  0  0
 19 21  2  0  0  0  0
 19 37  1  0  0  0  0
 20 45  1  0  0  0  0
 21 38  1  0  0  0  0
 22 82  1  0  0  0  0
 23 83  1  0  0  0  0
 24 26  2  0  0  0  0
 24 82  1  0  0  0  0
 25 85  1  0  0  0  0
 26 86  1  0  0  0  0
 27 65  2  0  0  0  0
 28 55  1  0  0  0  0
 28 66  1  0  0  0  0
 29 67  1  0  0  0  0
 29 71  1  0  0  0  0
 30 63  1  0  0  0  0
 30 66  1  0  0  0  0
 30 68  2  0  0  0  0
 31 72  1  0  0  0  0
 31 77  2  0  0  0  0
 32 46  1  0  0  0  0
 32 73  1  0  0  0  0
 32 78  2  0  0  0  0
 33 61  1  0  0  0  0
 33 69  1  0  0  0  0
 33 79  2  0  0  0  0
 34 63  1  0  0  0  0
 34 70  1  0  0  0  0
 34 80  2  0  0  0  0
 35 62  1  0  0  0  0
 35 74  1  0  0  0  0
 35 81  2  0  0  0  0
 36 39  1  0  0  0  0
 37 46  1  0  0  0  0
 38 69  1  0  0  0  0
 39 41  1  0  0  0  0
 40 42  1  0  0  0  0
 40 43  1  0  0  0  0
 41 45  1  0  0  0  0
 42 47  1  0  0  0  0
 43 70  1  0  0  0  0
 44 47  1  0  0  0  0
 44 70  1  0  0  0  0
 45 73  1  0  0  0  0
 46 69  1  0  0  0  0
 47 67  1  0  0  0  0
 48 62  1  0  0  0  0
 49 63  1  0  0  0  0
 50 64  1  0  0  0  0
 51 64  1  0  0  0  0
 52 64  1  0  0  0  0
 53 76  1  0  0  0  0
 54 84  1  0  0  0  0
 55 56  1  0  0  0  0
 56 59  1  0  0  0  0
 57 60  1  0  0  0  0
 57 66  1  0  0  0  0
 58 63  1  0  0  0  0
 58 75  1  0  0  0  0
 59 83  1  0  0  0  0
 60 84  1  0  0  0  0
 61 64  1  0  0  0  0
 61 74  1  0  0  0  0
 62 76  1  0  0  0  0
 65 67  1  0  0  0  0
M  CHG  3  68   1  75   1  76   1
M  ISO  4  34 100  59 101  63 100  83 101
M  END
> <Batch ID>
0071

> <Smiles>
CNC(C)C(=O)NC(C(=O)N1Cc2cc([101O:1][101CH2:1]CCc3cnc([100C:0](C)(CN)[100C:0](=O)N4CCCC(n5nc(-c6ccc(Oc7ccc(F)cc7F)cc6)c(C(N)=O)c5N)C4)n3CCOC)ccc2CC1C(=O)NC1CCCc2ccccc21)C(C)(C)C

> <Shape>
0.233

> <Color>
0.082

> <Negative vol penalty>
0.000

$$$$

  -OEChem-04052318223D

 87 95  0     1  0  0  0  0  0999 V2000
  -18.4411  -12.0802   19.6520 C   0  0  0  0  0  0  0  0  0  0  0  0
  -18.9884  -13.2517   19.1388 C   0  0  0  0  0  0  0  0  0  0  0  0
  -26.7393  -31.9402   23.4007 C   0  0  0  0  0  0  0  0  0  0  0  0
  -25.4884  -33.4786   22.0202 C   0  0  0  0  0  0  0  0  0  0  0  0
  -19.0183  -11.4720   20.7659 C   0  0  0  0  0  0  0  0  0  0  0  0
  -20.1128  -13.8163   19.7399 C   0  0  0  0  0  0  0  0  0  0  0  0
  -26.0198  -17.5410   18.1430 C   0  0  0  0  0  0  0  0  0  0  0  0
  -27.2817  -33.0143   24.1062 C   0  0  0  0  0  0  0  0  0  0  0  0
  -26.0309  -34.5527   22.7257 C   0  0  0  0  0  0  0  0  0  0  0  0
  -26.6984  -18.6986   18.5215 C   0  0  0  0  0  0  0  0  0  0  0  0
  -25.5211  -36.0968   25.6882 C   0  0  0  0  0  0  0  0  0  0  0  0
  -24.6539  -37.1160   26.0814 C   0  0  0  0  0  0  0  0  0  0  0  0
  -27.6580  -17.5171   20.3929 C   0  0  0  0  0  0  0  0  0  0  0  0
  -25.9380  -38.7058   24.7926 C   0  0  0  0  0  0  0  0  0  0  0  0
  -31.4986  -24.4900   19.6772 C   0  0  0  0  0  0  0  0  0  0  0  0
  -25.8427  -32.1723   22.3577 C   0  0  0  0  0  0  0  0  0  0  0  0
  -24.0967  -30.3640   21.9228 C   0  0  0  0  0  0  0  0  0  0  0  0
  -20.1561  -12.0242   21.3752 C   0  0  0  0  0  0  0  0  0  0  0  0
  -26.1470  -16.3637   18.8942 C   0  0  0  0  0  0  0  0  0  0  0  0
  -20.7050  -13.2157   20.8639 C   0  0  0  0  0  0  0  0  0  0  0  0
  -26.9821  -16.3451   20.0204 C   0  0  0  0  0  0  0  0  0  0  0  0
  -26.9275  -34.3205   23.7687 C   0  0  0  0  0  0  0  0  0  0  0  0
  -27.5153  -18.6876   19.6482 C   0  0  0  0  0  0  0  0  0  0  0  0
  -26.5968  -36.3820   24.8472 C   0  0  0  0  0  0  0  0  0  0  0  0
  -24.8623  -38.4205   25.6336 C   0  0  0  0  0  0  0  0  0  0  0  0
  -26.8052  -37.6865   24.3994 C   0  0  0  0  0  0  0  0  0  0  0  0
  -25.2824  -31.0633   21.6281 C   0  0  0  0  0  0  0  0  0  0  0  0
  -30.9929  -23.5104   18.8699 C   0  0  0  0  0  0  0  0  0  0  0  0
  -24.0073  -29.4097   20.9390 C   0  0  0  0  0  0  0  0  0  0  0  0
  -29.5486  -25.1878   18.8956 C   0  0  0  0  0  0  0  0  0  0  0  0
  -23.1598  -30.5595   22.9904 C   0  0  0  0  0  0  0  0  0  0  0  0
  -24.1440  -14.5291   20.5452 C   0  0  0  0  0  0  0  0  0  0  0  0
  -26.7469  -12.6139   20.8273 C   0  0  0  0  0  0  0  0  0  0  0  0
  -30.1474  -12.3260   20.8109 C   0  0  0  0  0  0  0  0  0  0  0  0
  -28.3389  -26.9299   17.5017 C   0  0  0  0  0  0  0  0  0  0  0  0
  -20.7167  -11.3566   22.6059 C   0  0  0  0  0  0  0  0  0  0  0  0
  -25.4294  -15.1160   18.4573 C   0  0  0  0  0  0  0  0  0  0  0  0
  -27.1683  -15.1014   20.8491 C   0  0  0  0  0  0  0  0  0  0  0  0
  -22.1300  -11.8143   22.9568 C   0  0  0  0  0  0  0  0  0  0  0  0
  -25.2594  -28.5600   16.4039 C   0  0  0  0  0  0  0  0  0  0  0  0
  -22.2308  -13.3349   22.8896 C   0  0  0  0  0  0  0  0  0  0  0  0
  -24.8424  -29.3646   17.6350 C   0  0  0  0  0  0  0  0  0  0  0  0
  -26.7766  -28.4321   16.2979 C   0  0  0  0  0  0  0  0  0  0  0  0
  -27.0059  -28.6842   18.7494 C   0  0  0  0  0  0  0  0  0  0  0  0
  -21.9390  -13.8450   21.4732 C   0  0  1  0  0  0  0  0  0  0  0  0
  -25.2279  -14.1148   19.5906 C   0  0  1  0  0  0  0  0  0  0  0  0
  -25.4821  -28.7910   18.9122 C   0  0  1  0  0  0  0  0  0  0  0  0
  -31.9831  -10.6410   21.1079 C   0  0  0  0  0  0  0  0  0  0  0  0
  -31.7165  -22.0930   16.9368 C   0  0  0  0  0  0  0  0  0  0  0  0
  -32.9434  -21.8234   19.0732 C   0  0  0  0  0  0  0  0  0  0  0  0
  -26.3012  -12.6640   23.8454 C   0  0  0  0  0  0  0  0  0  0  0  0
  -28.6329  -11.7991   24.1339 C   0  0  0  0  0  0  0  0  0  0  0  0
  -26.9372  -10.4287   22.9218 C   0  0  0  0  0  0  0  0  0  0  0  0
  -32.0571  -26.7598   21.1855 C   0  0  0  0  0  0  0  0  0  0  0  0
  -29.5448  -26.9245   21.3879 C   0  0  0  0  0  0  0  0  0  0  0  0
  -30.7337  -28.0202   19.5024 C   0  0  0  0  0  0  0  0  0  0  0  0
  -27.0897  -25.7282   19.3252 C   0  0  0  0  0  0  0  0  0  0  0  0
  -31.1560  -12.7685   18.0639 C   0  0  0  0  0  0  0  0  0  0  0  0
  -30.3171  -20.8434   20.3894 C   0  0  0  0  0  0  0  0  0  0  0  0
  -30.5659  -20.9856   18.8830 C   0  0  0  0  0  0  0  0  0  0  0  0
  -29.4252  -19.6454   20.6927 C   0  0  0  0  0  0  0  0  0  1  0  0
  -27.8841  -12.4940   21.8128 C   0  0  1  0  0  0  0  0  0  0  0  0
  -31.0718  -11.3440   20.1140 C   0  0  2  0  0  0  0  0  0  0  0  0
  -31.5482  -22.1294   18.4768 C   0  0  0  0  0  0  0  0  0  0  0  0
  -27.4340  -11.8706   23.1642 C   0  0  0  0  0  0  0  0  0  0  0  0
  -30.7246  -26.7607   20.4038 C   0  0  0  0  0  0  0  0  0  0  0  0
  -25.9019  -30.5932   20.5422 N   0  0  0  0  0  0  0  0  0  0  0  0
  -30.5847  -25.5160   19.6744 N   0  0  0  0  0  0  0  0  0  0  0  0
  -25.1025  -29.5883   20.1459 N   0  0  0  0  0  0  0  0  0  0  0  0
  -29.7858  -23.9689   18.4003 N   0  3  0  0  0  0  0  0  0  0  0  0
  -26.4406  -13.9087   20.3850 N   0  0  0  0  0  0  0  0  0  0  0  0
  -27.3520  -27.9246   17.5430 N   0  0  0  0  0  0  0  0  0  0  0  0
  -23.0996  -28.4437   20.6837 N   0  0  0  0  0  0  0  0  0  0  0  0
  -23.4037  -31.5853   23.9138 N   0  0  0  0  0  0  0  0  0  0  0  0
  -23.0873  -13.6415   20.6161 N   0  0  0  0  0  0  0  0  0  0  0  0
  -28.9372  -11.7484   21.1321 N   0  0  0  0  0  0  0  0  0  0  0  0
  -28.3693  -25.9991   18.6257 N   0  0  0  0  0  0  0  0  0  0  0  0
  -31.9223  -12.0523   19.1160 N   0  3  0  0  0  0  0  0  0  0  0  0
  -22.1453  -29.8352   23.1310 O   0  0  0  0  0  0  0  0  0  0  0  0
  -24.2586  -15.5757   21.1721 O   0  0  0  0  0  0  0  0  0  0  0  0
  -26.1568  -11.5956   20.4580 O   0  0  0  0  0  0  0  0  0  0  0  0
  -30.4682  -13.4881   21.0500 O   0  0  0  0  0  0  0  0  0  0  0  0
  -29.1347  -26.8068   16.5709 O   0  0  0  0  0  0  0  0  0  0  0  0
  -27.4564  -35.3688   24.4571 O   0  0  0  0  0  0  0  0  0  0  0  0
  -28.1783  -19.8163   20.0202 O   0  0  0  0  0  0  0  0  0  1  0  0
  -24.0286  -39.3990   26.0101 F   0  0  0  0  0  0  0  0  0  0  0  0
  -27.8362  -37.9664   23.5904 F   0  0  0  0  0  0  0  0  0  0  0  0
  1  2  1  0  0  0  0
  1  5  2  0  0  0  0
  2  6  2  0  0  0  0
  3  8  2  0  0  0  0
  3 16  1  0  0  0  0
  4  9  1  0  0  0  0
  4 16  2  0  0  0  0
  5 18  1  0  0  0  0
  6 20  1  0  0  0  0
  7 10  2  0  0  0  0
  7 19  1  0  0  0  0
  8 22  1  0  0  0  0
  9 22  2  0  0  0  0
 10 23  1  0  0  0  0
 11 12  2  0  0  0  0
 11 24  1  0  0  0  0
 12 25  1  0  0  0  0
 13 21  1  0  0  0  0
 13 23  2  0  0  0  0
 14 25  2  0  0  0  0
 14 26  1  0  0  0  0
 15 28  2  0  0  0  0
 15 68  1  0  0  0  0
 16 27  1  0  0  0  0
 17 27  1  0  0  0  0
 17 29  2  0  0  0  0
 17 31  1  0  0  0  0
 18 20  2  0  0  0  0
 18 36  1  0  0  0  0
 19 21  2  0  0  0  0
 19 37  1  0  0  0  0
 20 45  1  0  0  0  0
 21 38  1  0  0  0  0
 22 84  1  0  0  0  0
 23 85  1  0  0  0  0
 24 26  2  0  0  0  0
 24 84  1  0  0  0  0
 25 86  1  0  0  0  0
 26 87  1  0  0  0  0
 27 67  2  0  0  0  0
 28 64  1  0  0  0  0
 28 70  1  0  0  0  0
 29 69  1  0  0  0  0
 29 73  1  0  0  0  0
 30 68  1  0  0  0  0
 30 70  2  0  0  0  0
 30 77  1  0  0  0  0
 31 74  1  0  0  0  0
 31 79  2  0  0  0  0
 32 46  1  0  0  0  0
 32 75  1  0  0  0  0
 32 80  2  0  0  0  0
 33 62  1  0  0  0  0
 33 71  1  0  0  0  0
 33 81  2  0  0  0  0
 34 63  1  0  0  0  0
 34 76  1  0  0  0  0
 34 82  2  0  0  0  0
 35 72  1  0  0  0  0
 35 77  1  0  0  0  0
 35 83  2  0  0  0  0
 36 39  1  0  0  0  0
 37 46  1  0  0  0  0
 38 71  1  0  0  0  0
 39 41  1  0  0  0  0
 40 42  1  0  0  0  0
 40 43  1  0  0  0  0
 41 45  1  0  0  0  0
 42 47  1  0  0  0  0
 43 72  1  0  0  0  0
 44 47  1  0  0  0  0
 44 72  1  0  0  0  0
 45 75  1  0  0  0  0
 46 71  1  0  0  0  0
 47 69  1  0  0  0  0
 48 63  1  0  0  0  0
 49 64  1  0  0  0  0
 50 64  1  0  0  0  0
 51 65  1  0  0  0  0
 52 65  1  0  0  0  0
 53 65  1  0  0  0  0
 54 66  1  0  0  0  0
 55 66  1  0  0  0  0
 56 66  1  0  0  0  0
 57 77  1  0  0  0  0
 58 78  1  0  0  0  0
 59 60  1  0  0  0  0
 59 61  1  0  0  0  0
 60 64  1  0  0  0  0
 61 85  1  0  0  0  0
 62 65  1  0  0  0  0
 62 76  1  0  0  0  0
 63 78  1  0  0  0  0
 66 68  1  0  0  0  0
 67 69  1  0  0  0  0
M  CHG  2  70   1  78   1
M  ISO  4  35 100  61 101  77 100  85 101
M  END
> <Batch ID>
0071

> <Smiles>
CNC(C)C(=O)NC(C(=O)N1Cc2cc([101O:1][101CH2:1]CCC(C)(C)c3cn(C(C)(C)C)c([100N:0](C)[100C:0](=O)N4CCCC(n5nc(-c6ccc(Oc7ccc(F)cc7F)cc6)c(C(N)=O)c5N)C4)n3)ccc2CC1C(=O)NC1CCCc2ccccc21)C(C)(C)C

> <Shape>
0.292

> <Color>
0.043

> <Negative vol penalty>
0.000

$$$$

  -OEChem-04052318223D

 89 97  0     1  0  0  0  0  0999 V2000
  -33.4330  -18.5410   24.9796 C   0  0  0  0  0  0  0  0  0  0  0  0
  -32.3272  -19.3210   24.6566 C   0  0  0  0  0  0  0  0  0  0  0  0
  -29.1075  -24.3366   19.0212 C   0  0  0  0  0  0  0  0  0  0  0  0
  -26.9376  -23.2978   19.2435 C   0  0  0  0  0  0  0  0  0  0  0  0
  -33.6561  -17.3386   24.3100 C   0  0  0  0  0  0  0  0  0  0  0  0
  -31.4444  -18.8994   23.6630 C   0  0  0  0  0  0  0  0  0  0  0  0
  -25.3822  -19.7565   23.5192 C   0  0  0  0  0  0  0  0  0  0  0  0
  -29.7201  -23.1275   19.3505 C   0  0  0  0  0  0  0  0  0  0  0  0
  -27.5502  -22.0886   19.5728 C   0  0  0  0  0  0  0  0  0  0  0  0
  -24.5827  -20.6944   22.8675 C   0  0  0  0  0  0  0  0  0  0  0  0
  -31.8631  -20.2227   19.7799 C   0  0  0  0  0  0  0  0  0  0  0  0
  -32.9521  -19.8163   19.0089 C   0  0  0  0  0  0  0  0  0  0  0  0
  -24.2208  -19.1277   21.0693 C   0  0  0  0  0  0  0  0  0  0  0  0
  -31.5529  -19.8034   17.0393 C   0  0  0  0  0  0  0  0  0  0  0  0
  -19.8434  -26.9954   21.7048 C   0  0  0  0  0  0  0  0  0  0  0  0
  -27.7162  -24.4218   18.9678 C   0  0  0  0  0  0  0  0  0  0  0  0
  -26.7335  -26.1247   17.3424 C   0  0  0  0  0  0  0  0  0  0  0  0
  -32.7703  -16.8974   23.3144 C   0  0  0  0  0  0  0  0  0  0  0  0
  -25.6162  -18.4989   22.9447 C   0  0  0  0  0  0  0  0  0  0  0  0
  -31.6565  -17.6906   22.9785 C   0  0  0  0  0  0  0  0  0  0  0  0
  -25.0216  -18.1746   21.7170 C   0  0  0  0  0  0  0  0  0  0  0  0
  -28.9414  -22.0035   19.6262 C   0  0  0  0  0  0  0  0  0  0  0  0
  -24.0042  -20.3812   21.6409 C   0  0  0  0  0  0  0  0  0  0  0  0
  -30.6189  -20.4193   19.1806 C   0  0  0  0  0  0  0  0  0  0  0  0
  -32.7971  -19.6067   17.6386 C   0  0  0  0  0  0  0  0  0  0  0  0
  -30.4638  -20.2097   17.8104 C   0  0  0  0  0  0  0  0  0  0  0  0
  -27.0828  -25.6706   18.6283 C   0  0  0  0  0  0  0  0  0  0  0  0
  -18.8334  -26.3033   22.3112 C   0  0  0  0  0  0  0  0  0  0  0  0
  -26.1647  -27.3565   17.5559 C   0  0  0  0  0  0  0  0  0  0  0  0
  -19.1901  -28.1518   23.4758 C   0  0  0  0  0  0  0  0  0  0  0  0
  -26.9075  -25.4897   16.0687 C   0  0  0  0  0  0  0  0  0  0  0  0
  -28.1942  -16.9423   21.9273 C   0  0  0  0  0  0  0  0  0  0  0  0
  -23.4579  -29.7481   22.3586 C   0  0  0  0  0  0  0  0  0  0  0  0
  -26.0888  -14.5064   21.5323 C   0  0  0  0  0  0  0  0  0  0  0  0
  -22.8569  -13.5189   21.0563 C   0  0  0  0  0  0  0  0  0  0  0  0
  -33.0788  -15.6137   22.5853 C   0  0  0  0  0  0  0  0  0  0  0  0
  -26.4593  -17.4885   23.6732 C   0  0  0  0  0  0  0  0  0  0  0  0
  -25.2252  -16.8310   21.0675 C   0  0  0  0  0  0  0  0  0  0  0  0
  -31.8910  -15.0553   21.8058 C   0  0  0  0  0  0  0  0  0  0  0  0
  -26.2661  -31.0655   20.5645 C   0  0  0  0  0  0  0  0  0  0  0  0
  -31.2131  -16.1603   21.0018 C   0  0  0  0  0  0  0  0  0  0  0  0
  -26.7793  -29.8655   19.7696 C   0  0  0  0  0  0  0  0  0  0  0  0
  -25.7222  -30.6425   21.9255 C   0  0  0  0  0  0  0  0  0  0  0  0
  -25.1739  -28.3896   21.0618 C   0  0  0  0  0  0  0  0  0  0  0  0
  -30.6626  -17.2550   21.9238 C   0  0  1  0  0  0  0  0  0  0  0  0
  -27.0485  -16.4256   22.7509 C   0  0  1  0  0  0  0  0  0  0  0  0
  -25.7041  -28.7691   19.6678 C   0  0  2  0  0  0  0  0  0  0  0  0
  -18.6460  -28.6341   25.8893 C   0  0  0  0  0  0  0  0  0  0  0  0
  -18.1132  -30.3404   24.1117 C   0  0  0  0  0  0  0  0  0  0  0  0
  -22.7316  -27.6209   23.3039 C   0  0  0  0  0  0  0  0  0  0  0  0
  -21.4520  -11.4648   20.7328 C   0  0  0  0  0  0  0  0  0  0  0  0
  -20.6836  -29.8257   20.8109 C   0  0  0  0  0  0  0  0  0  0  0  0
  -17.6272  -24.1883   23.1849 C   0  0  0  0  0  0  0  0  0  0  0  0
  -16.9347  -25.2565   21.0585 C   0  0  0  0  0  0  0  0  0  0  0  0
  -27.0668  -14.2945   18.6499 C   0  0  0  0  0  0  0  0  0  0  0  0
  -25.0297  -12.9341   18.1322 C   0  0  0  0  0  0  0  0  0  0  0  0
  -26.6965  -12.0995   19.7899 C   0  0  0  0  0  0  0  0  0  0  0  0
  -21.2943  -14.0598   23.5108 C   0  0  0  0  0  0  0  0  0  0  0  0
  -20.3949  -23.6022   21.9223 C   0  0  0  0  0  0  0  0  0  0  0  0
  -21.2273  -22.6228   21.0942 C   0  0  0  0  0  0  0  0  0  0  0  0
  -19.1337  -24.0355   21.1602 C   0  0  0  0  0  0  0  0  0  0  0  0
  -22.5030  -22.2172   21.8188 C   0  0  0  0  0  0  0  0  0  1  0  0
  -19.0715  -29.2013   24.5186 C   0  0  0  0  0  0  0  0  0  0  0  0
  -22.4784  -28.6170   22.1709 C   0  0  1  0  0  0  0  0  0  0  0  0
  -25.1952  -14.0371   20.4097 C   0  0  1  0  0  0  0  0  0  0  0  0
  -22.0179  -12.4541   21.7396 C   0  0  2  0  0  0  0  0  0  0  0  0
  -21.0267  -29.1583   22.1532 C   0  0  2  0  0  0  0  0  0  0  0  0
  -18.1627  -24.9634   21.9570 C   0  0  0  0  0  0  0  0  0  0  0  0
  -25.9946  -13.3674   19.2565 C   0  0  0  0  0  0  0  0  0  0  0  0
  -26.7629  -26.5430   19.5877 N   0  0  0  0  0  0  0  0  0  0  0  0
  -20.0428  -28.1350   22.4462 N   0  0  0  0  0  0  0  0  0  0  0  0
  -26.2066  -27.5577   18.9042 N   0  0  0  0  0  0  0  0  0  0  0  0
  -18.4485  -27.0417   23.4042 N   0  3  0  0  0  0  0  0  0  0  0  0
  -26.0628  -15.8793   21.8159 N   0  0  0  0  0  0  0  0  0  0  0  0
  -24.7200  -29.5842   21.7874 N   0  0  0  0  0  0  0  0  0  0  0  0
  -25.6379  -28.2763   16.7200 N   0  0  0  0  0  0  0  0  0  0  0  0
  -27.5099  -24.2248   16.0295 N   0  0  0  0  0  0  0  0  0  0  0  0
  -29.4268  -16.8223   22.5403 N   0  0  0  0  0  0  0  0  0  0  0  0
  -24.1912  -13.1730   21.0211 N   0  0  0  0  0  0  0  0  0  0  0  0
  -20.8815  -13.0811   22.4721 N   0  3  0  0  0  0  0  0  0  0  0  0
  -26.5546  -26.0351   14.9956 O   0  0  0  0  0  0  0  0  0  0  0  0
  -27.9762  -17.4135   20.8173 O   0  0  0  0  0  0  0  0  0  0  0  0
  -23.1089  -30.7478   22.9917 O   0  0  0  0  0  0  0  0  0  0  0  0
  -26.7788  -13.6841   22.1401 O   0  0  0  0  0  0  0  0  0  0  0  0
  -22.3761  -14.5521   20.5962 O   0  0  0  0  0  0  0  0  0  0  0  0
  -29.5389  -20.8235   19.9473 O   0  0  0  0  0  0  0  0  0  0  0  0
  -23.2239  -21.2951   21.0024 O   0  0  0  0  0  0  0  0  0  1  0  0
  -33.8433  -19.2180   16.8980 F   0  0  0  0  0  0  0  0  0  0  0  0
  -29.2713  -20.3981   17.2288 F   0  0  0  0  0  0  0  0  0  0  0  0
  1  2  1  0  0  0  0
  1  5  2  0  0  0  0
  2  6  2  0  0  0  0
  3  8  2  0  0  0  0
  3 16  1  0  0  0  0
  4  9  1  0  0  0  0
  4 16  2  0  0  0  0
  5 18  1  0  0  0  0
  6 20  1  0  0  0  0
  7 10  2  0  0  0  0
  7 19  1  0  0  0  0
  8 22  1  0  0  0  0
  9 22  2  0  0  0  0
 10 23  1  0  0  0  0
 11 12  2  0  0  0  0
 11 24  1  0  0  0  0
 12 25  1  0  0  0  0
 13 21  1  0  0  0  0
 13 23  2  0  0  0  0
 14 25  2  0  0  0  0
 14 26  1  0  0  0  0
 15 28  2  0  0  0  0
 15 71  1  0  0  0  0
 16 27  1  0  0  0  0
 17 27  1  0  0  0  0
 17 29  2  0  0  0  0
 17 31  1  0  0  0  0
 18 20  2  0  0  0  0
 18 36  1  0  0  0  0
 19 21  2  0  0  0  0
 19 37  1  0  0  0  0
 20 45  1  0  0  0  0
 21 38  1  0  0  0  0
 22 86  1  0  0  0  0
 23 87  1  0  0  0  0
 24 26  2  0  0  0  0
 24 86  1  0  0  0  0
 25 88  1  0  0  0  0
 26 89  1  0  0  0  0
 27 70  2  0  0  0  0
 28 68  1  0  0  0  0
 28 73  1  0  0  0  0
 29 72  1  0  0  0  0
 29 76  1  0  0  0  0
 30 63  1  0  0  0  0
 30 71  1  0  0  0  0
 30 73  2  0  0  0  0
 31 77  1  0  0  0  0
 31 81  2  0  0  0  0
 32 46  1  0  0  0  0
 32 78  1  0  0  0  0
 32 82  2  0  0  0  0
 33 64  1  0  0  0  0
 33 75  1  0  0  0  0
 33 83  2  0  0  0  0
 34 65  1  0  0  0  0
 34 74  1  0  0  0  0
 34 84  2  0  0  0  0
 35 66  1  0  0  0  0
 35 79  1  0  0  0  0
 35 85  2  0  0  0  0
 36 39  1  0  0  0  0
 37 46  1  0  0  0  0
 38 74  1  0  0  0  0
 39 41  1  0  0  0  0
 40 42  1  0  0  0  0
 40 43  1  0  0  0  0
 41 45  1  0  0  0  0
 42 47  1  0  0  0  0
 43 75  1  0  0  0  0
 44 47  1  0  0  0  0
 44 75  1  0  0  0  0
 45 78  1  0  0  0  0
 46 74  1  0  0  0  0
 47 72  1  0  0  0  0
 48 63  1  0  0  0  0
 49 63  1  0  0  0  0
 50 64  1  0  0  0  0
 51 66  1  0  0  0  0
 52 67  1  0  0  0  0
 53 68  1  0  0  0  0
 54 68  1  0  0  0  0
 55 69  1  0  0  0  0
 56 69  1  0  0  0  0
 57 69  1  0  0  0  0
 58 80  1  0  0  0  0
 59 60  1  0  0  0  0
 59 61  1  0  0  0  0
 60 62  1  0  0  0  0
 61 68  1  0  0  0  0
 62 87  1  0  0  0  0
 64 67  1  0  0  0  0
 65 69  1  0  0  0  0
 65 79  1  0  0  0  0
 66 80  1  0  0  0  0
 67 71  1  0  0  0  0
 70 72  1  0  0  0  0
M  CHG  2  73   1  80   1
M  ISO  4  33 100  62 101  64 100  87 101
M  END
> <Batch ID>
0071

> <Smiles>
CNC(C)C(=O)NC(C(=O)N1Cc2cc([101O:1][101CH2:1]CCCC(C)(C)c3cn(C(C)[100CH:0](C)[100C:0](=O)N4CCCC(n5nc(-c6ccc(Oc7ccc(F)cc7F)cc6)c(C(N)=O)c5N)C4)c(C(C)C)n3)ccc2CC1C(=O)NC1CCCc2ccccc21)C(C)(C)C

> <Shape>
0.235

> <Color>
0.062

> <Negative vol penalty>
0.000

$$$$

  -OEChem-04052318223D

 87 95  0     1  0  0  0  0  0999 V2000
  -16.2670  -29.5582   23.7485 C   0  0  0  0  0  0  0  0  0  0  0  0
  -17.0262  -28.8064   22.8574 C   0  0  0  0  0  0  0  0  0  0  0  0
  -25.5396  -13.1067   21.5642 C   0  0  0  0  0  0  0  0  0  0  0  0
  -26.4292  -12.8400   19.3338 C   0  0  0  0  0  0  0  0  0  0  0  0
  -16.8924  -30.4670   24.6011 C   0  0  0  0  0  0  0  0  0  0  0  0
  -18.4111  -28.9638   22.8177 C   0  0  0  0  0  0  0  0  0  0  0  0
  -22.5802  -24.6161   21.7120 C   0  0  0  0  0  0  0  0  0  0  0  0
  -24.5166  -12.2075   21.2638 C   0  0  0  0  0  0  0  0  0  0  0  0
  -25.4061  -11.9407   19.0334 C   0  0  0  0  0  0  0  0  0  0  0  0
  -23.2795  -24.2584   20.5602 C   0  0  0  0  0  0  0  0  0  0  0  0
  -24.1356   -8.8561   21.0273 C   0  0  0  0  0  0  0  0  0  0  0  0
  -23.8391   -7.8727   21.9710 C   0  0  0  0  0  0  0  0  0  0  0  0
  -25.1444  -25.6083   21.2804 C   0  0  0  0  0  0  0  0  0  0  0  0
  -21.5832   -8.7200   22.1450 C   0  0  0  0  0  0  0  0  0  0  0  0
  -29.4650  -24.6286   20.3906 C   0  0  0  0  0  0  0  0  0  0  0  0
  -31.2854  -24.3183   19.1880 C   0  0  0  0  0  0  0  0  0  0  0  0
  -26.4959  -13.4231   20.5992 C   0  0  0  0  0  0  0  0  0  0  0  0
  -28.8175  -14.0521   21.4490 C   0  0  0  0  0  0  0  0  0  0  0  0
  -18.2867  -30.6286   24.5785 C   0  0  0  0  0  0  0  0  0  0  0  0
  -23.1544  -25.4828   22.6530 C   0  0  0  0  0  0  0  0  0  0  0  0
  -19.0556  -29.8765   23.6699 C   0  0  0  0  0  0  0  0  0  0  0  0
  -24.4513  -25.9735   22.4446 C   0  0  0  0  0  0  0  0  0  0  0  0
  -24.4498  -11.6245   19.9984 C   0  0  0  0  0  0  0  0  0  0  0  0
  -24.5606  -24.7568   20.3428 C   0  0  0  0  0  0  0  0  0  0  0  0
  -23.1560   -9.7715   20.6425 C   0  0  0  0  0  0  0  0  0  0  0  0
  -22.5629   -7.8046   22.5298 C   0  0  0  0  0  0  0  0  0  0  0  0
  -21.8798   -9.7034   21.2013 C   0  0  0  0  0  0  0  0  0  0  0  0
  -27.5527  -14.3523   20.9088 C   0  0  0  0  0  0  0  0  0  0  0  0
  -30.1677  -25.7995   20.2306 C   0  0  0  0  0  0  0  0  0  0  0  0
  -29.4445  -15.2698   21.5525 C   0  0  0  0  0  0  0  0  0  0  0  0
  -29.3759  -12.7858   21.8235 C   0  0  0  0  0  0  0  0  0  0  0  0
  -22.4210  -28.3565   23.7965 C   0  0  0  0  0  0  0  0  0  0  0  0
  -24.9119  -27.7696   25.7898 C   0  0  0  0  0  0  0  0  0  0  0  0
  -28.6460  -20.3279   18.5436 C   0  0  0  0  0  0  0  0  0  0  0  0
  -27.8224  -26.0850   26.3716 C   0  0  0  0  0  0  0  0  0  0  0  0
  -18.9130  -31.6575   25.4862 C   0  0  0  0  0  0  0  0  0  0  0  0
  -22.3974  -25.8378   23.9034 C   0  0  0  0  0  0  0  0  0  0  0  0
  -25.1205  -26.8910   23.4340 C   0  0  0  0  0  0  0  0  0  0  0  0
  -20.4226  -31.4932   25.6428 C   0  0  0  0  0  0  0  0  0  0  0  0
  -28.5329  -19.9205   22.1558 C   0  0  0  0  0  0  0  0  0  0  0  0
  -21.0803  -31.2802   24.2831 C   0  0  0  0  0  0  0  0  0  0  0  0
  -28.3543  -18.4085   22.2874 C   0  0  0  0  0  0  0  0  0  0  0  0
  -27.7974  -20.4684   20.9356 C   0  0  0  0  0  0  0  0  0  0  0  0
  -27.9970  -18.2874   19.7833 C   0  0  0  0  0  0  0  0  0  0  0  0
  -20.5628  -30.0010   23.6143 C   0  0  1  0  0  0  0  0  0  0  0  0
  -22.8779  -27.1360   24.5445 C   0  0  1  0  0  0  0  0  0  0  0  0
  -28.7488  -17.6908   20.9848 C   0  0  2  0  0  0  0  0  0  0  0  0
  -29.6517  -25.8421   28.0722 C   0  0  0  0  0  0  0  0  0  0  0  0
  -29.0422  -27.0632   22.0967 C   0  0  0  0  0  0  0  0  0  0  0  0
  -28.9550  -27.9534   19.7438 C   0  0  0  0  0  0  0  0  0  0  0  0
  -31.0611  -28.0779   21.0592 C   0  0  0  0  0  0  0  0  0  0  0  0
  -29.2914  -22.2537   17.1612 C   0  0  0  0  0  0  0  0  0  0  0  0
  -26.0921  -30.4382   24.8980 C   0  0  0  0  0  0  0  0  0  0  0  0
  -28.2866  -29.7091   25.8577 C   0  0  0  0  0  0  0  0  0  0  0  0
  -26.3017  -29.9708   27.3459 C   0  0  0  0  0  0  0  0  0  0  0  0
  -25.7955  -21.1872   17.3399 C   0  0  0  0  0  0  0  0  0  0  0  0
  -26.5046  -23.5174   16.7265 C   0  0  0  0  0  0  0  0  0  0  0  0
  -27.2307  -23.2125   26.7682 C   0  0  0  0  0  0  0  0  0  0  0  0
  -27.3973  -22.4844   18.9059 C   0  0  0  0  0  0  0  0  0  0  0  0
  -29.8570  -22.2192   19.5858 C   0  0  0  0  0  0  0  0  0  0  0  0
  -24.9686  -23.1267   18.6599 C   0  0  0  0  0  0  0  0  0  1  0  0
  -26.4002  -28.0181   25.7430 C   0  0  1  0  0  0  0  0  0  0  0  0
  -28.3137  -25.3111   27.5816 C   0  0  2  0  0  0  0  0  0  0  0  0
  -29.8389  -27.1363   20.7484 C   0  0  0  0  0  0  0  0  0  0  0  0
  -28.7624  -21.8313   18.5387 C   0  0  1  0  0  0  0  0  0  0  0  0
  -26.7571  -29.5183   25.9414 C   0  0  0  0  0  0  0  0  0  0  0  0
  -26.2014  -22.5600   17.8967 C   0  0  0  0  0  0  0  0  0  0  0  0
  -31.2997  -25.5997   19.4808 N   0  0  0  0  0  0  0  0  0  0  0  0
  -27.3843  -15.6583   20.6850 N   0  0  0  0  0  0  0  0  0  0  0  0
  -30.1931  -23.6888   19.7168 N   0  0  0  0  0  0  0  0  0  0  0  0
  -28.5517  -16.1895   21.0865 N   0  0  0  0  0  0  0  0  0  0  0  0
  -24.3372  -27.2140   24.6380 N   0  0  0  0  0  0  0  0  0  0  0  0
  -28.1802  -19.7403   19.7200 N   0  0  0  0  0  0  0  0  0  0  0  0
  -30.6668  -15.6328   21.9958 N   0  0  0  0  0  0  0  0  0  0  0  0
  -28.5957  -11.6343   21.6509 N   0  0  0  0  0  0  0  0  0  0  0  0
  -21.1892  -28.8353   24.2001 N   0  0  0  0  0  0  0  0  0  0  0  0
  -26.9943  -27.1266   26.7332 N   0  0  0  0  0  0  0  0  0  0  0  0
  -28.4760  -23.8689   27.2431 N   0  3  0  0  0  0  0  0  0  0  0  0
  -30.5262  -12.6804   22.3126 O   0  0  0  0  0  0  0  0  0  0  0  0
  -23.1340  -28.8297   22.9193 O   0  0  0  0  0  0  0  0  0  0  0  0
  -24.2837  -28.0512   26.8134 O   0  0  0  0  0  0  0  0  0  0  0  0
  -28.9626  -19.6963   17.5322 O   0  0  0  0  0  0  0  0  0  0  0  0
  -28.1442  -25.7969   25.2210 O   0  0  0  0  0  0  0  0  0  0  0  0
  -23.4518  -10.7468   19.7049 O   0  0  0  0  0  0  0  0  0  0  0  0
  -25.2499  -24.4073   19.2113 O   0  0  0  0  0  0  0  0  0  1  0  0
  -22.2778   -6.8592   23.4348 F   0  0  0  0  0  0  0  0  0  0  0  0
  -20.9342  -10.5793   20.8347 F   0  0  0  0  0  0  0  0  0  0  0  0
  1  2  1  0  0  0  0
  1  5  2  0  0  0  0
  2  6  2  0  0  0  0
  3  8  2  0  0  0  0
  3 17  1  0  0  0  0
  4  9  1  0  0  0  0
  4 17  2  0  0  0  0
  5 19  1  0  0  0  0
  6 21  1  0  0  0  0
  7 10  2  0  0  0  0
  7 20  1  0  0  0  0
  8 23  1  0  0  0  0
  9 23  2  0  0  0  0
 10 24  1  0  0  0  0
 11 12  2  0  0  0  0
 11 25  1  0  0  0  0
 12 26  1  0  0  0  0
 13 22  1  0  0  0  0
 13 24  2  0  0  0  0
 14 26  2  0  0  0  0
 14 27  1  0  0  0  0
 15 29  2  0  0  0  0
 15 70  1  0  0  0  0
 16 68  2  0  0  0  0
 16 70  1  0  0  0  0
 17 28  1  0  0  0  0
 18 28  1  0  0  0  0
 18 30  2  0  0  0  0
 18 31  1  0  0  0  0
 19 21  2  0  0  0  0
 19 36  1  0  0  0  0
 20 22  2  0  0  0  0
 20 37  1  0  0  0  0
 21 45  1  0  0  0  0
 22 38  1  0  0  0  0
 23 84  1  0  0  0  0
 24 85  1  0  0  0  0
 25 27  2  0  0  0  0
 25 84  1  0  0  0  0
 26 86  1  0  0  0  0
 27 87  1  0  0  0  0
 28 69  2  0  0  0  0
 29 64  1  0  0  0  0
 29 68  1  0  0  0  0
 30 71  1  0  0  0  0
 30 74  1  0  0  0  0
 31 75  1  0  0  0  0
 31 79  2  0  0  0  0
 32 46  1  0  0  0  0
 32 76  1  0  0  0  0
 32 80  2  0  0  0  0
 33 62  1  0  0  0  0
 33 72  1  0  0  0  0
 33 81  2  0  0  0  0
 34 65  1  0  0  0  0
 34 73  1  0  0  0  0
 34 82  2  0  0  0  0
 35 63  1  0  0  0  0
 35 77  1  0  0  0  0
 35 83  2  0  0  0  0
 36 39  1  0  0  0  0
 37 46  1  0  0  0  0
 38 72  1  0  0  0  0
 39 41  1  0  0  0  0
 40 42  1  0  0  0  0
 40 43  1  0  0  0  0
 41 45  1  0  0  0  0
 42 47  1  0  0  0  0
 43 73  1  0  0  0  0
 44 47  1  0  0  0  0
 44 73  1  0  0  0  0
 45 76  1  0  0  0  0
 46 72  1  0  0  0  0
 47 71  1  0  0  0  0
 48 63  1  0  0  0  0
 49 64  1  0  0  0  0
 50 64  1  0  0  0  0
 51 64  1  0  0  0  0
 52 65  1  0  0  0  0
 53 66  1  0  0  0  0
 54 66  1  0  0  0  0
 55 66  1  0  0  0  0
 56 67  1  0  0  0  0
 57 67  1  0  0  0  0
 58 78  1  0  0  0  0
 59 65  1  0  0  0  0
 59 67  1  0  0  0  0
 60 65  1  0  0  0  0
 60 70  1  0  0  0  0
 61 67  1  0  0  0  0
 61 85  1  0  0  0  0
 62 66  1  0  0  0  0
 62 77  1  0  0  0  0
 63 78  1  0  0  0  0
 69 71  1  0  0  0  0
M  CHG  1  78   1
M  ISO  4  34 100  61 101  65 100  85 101
M  END
> <Batch ID>
0071

> <Smiles>
CNC(C)C(=O)NC(C(=O)N1Cc2cc([101O:1][101CH2:1]C(C)(C)C[100C:0](C)(Cn3cnc(C(C)(C)C)c3)[100C:0](=O)N3CCCC(n4nc(-c5ccc(Oc6ccc(F)cc6F)cc5)c(C(N)=O)c4N)C3)ccc2CC1C(=O)NC1CCCc2ccccc21)C(C)(C)C

> <Shape>
0.265

> <Color>
0.072

> <Negative vol penalty>
0.000

$$$$

  -OEChem-04052318223D

 77 84  0     1  0  0  0  0  0999 V2000
  -19.9527  -17.0827   23.0719 C   0  0  0  0  0  0  0  0  0  0  0  0
  -21.3267  -16.9064   23.2009 C   0  0  0  0  0  0  0  0  0  0  0  0
  -23.2884   -9.7997   19.9126 C   0  0  0  0  0  0  0  0  0  0  0  0
  -23.7392   -9.9400   22.2821 C   0  0  0  0  0  0  0  0  0  0  0  0
  -19.1405  -17.0734   24.2051 C   0  0  0  0  0  0  0  0  0  0  0  0
  -21.8893  -16.7217   24.4633 C   0  0  0  0  0  0  0  0  0  0  0  0
  -25.2996  -12.9789   24.5418 C   0  0  0  0  0  0  0  0  0  0  0  0
  -22.5621   -8.6271   20.1202 C   0  0  0  0  0  0  0  0  0  0  0  0
  -23.0128   -8.7674   22.4897 C   0  0  0  0  0  0  0  0  0  0  0  0
  -26.5646  -13.2592   24.0270 C   0  0  0  0  0  0  0  0  0  0  0  0
  -19.7658   -7.8562   22.7068 C   0  0  0  0  0  0  0  0  0  0  0  0
  -18.8634   -7.8343   23.7702 C   0  0  0  0  0  0  0  0  0  0  0  0
  -27.4012  -13.5700   26.2681 C   0  0  0  0  0  0  0  0  0  0  0  0
  -20.0692   -5.9870   24.7554 C   0  0  0  0  0  0  0  0  0  0  0  0
  -23.8770  -10.4561   20.9936 C   0  0  0  0  0  0  0  0  0  0  0  0
  -24.1364  -12.9861   20.7954 C   0  0  0  0  0  0  0  0  0  0  0  0
  -19.6923  -16.8789   25.4812 C   0  0  0  0  0  0  0  0  0  0  0  0
  -25.0730  -13.0028   25.9255 C   0  0  0  0  0  0  0  0  0  0  0  0
  -21.0838  -16.7111   25.6148 C   0  0  0  0  0  0  0  0  0  0  0  0
  -26.1330  -13.2871   26.7981 C   0  0  0  0  0  0  0  0  0  0  0  0
  -22.4242   -8.1110   21.4087 C   0  0  0  0  0  0  0  0  0  0  0  0
  -27.6149  -13.5577   24.8900 C   0  0  0  0  0  0  0  0  0  0  0  0
  -20.8198   -6.9434   22.6676 C   0  0  0  0  0  0  0  0  0  0  0  0
  -19.0151   -6.8997   24.7945 C   0  0  0  0  0  0  0  0  0  0  0  0
  -20.9715   -6.0089   23.6919 C   0  0  0  0  0  0  0  0  0  0  0  0
  -24.6280  -11.6671   20.7798 C   0  0  0  0  0  0  0  0  0  0  0  0
  -25.2378  -13.7661   20.5406 C   0  0  0  0  0  0  0  0  0  0  0  0
  -22.8033  -13.4637   21.0202 C   0  0  0  0  0  0  0  0  0  0  0  0
  -23.2249  -14.7117   27.8666 C   0  0  0  0  0  0  0  0  0  0  0  0
  -24.3235  -12.6359   30.1042 C   0  0  0  0  0  0  0  0  0  0  0  0
  -26.7621  -10.4612   31.0896 C   0  0  0  0  0  0  0  0  0  0  0  0
  -31.1088  -12.9231   21.3602 C   0  0  0  0  0  0  0  0  0  0  0  0
  -18.7798  -16.9238   26.6812 C   0  0  0  0  0  0  0  0  0  0  0  0
  -23.7090  -12.6719   26.4663 C   0  0  0  0  0  0  0  0  0  0  0  0
  -25.9468  -13.3057   28.2926 C   0  0  0  0  0  0  0  0  0  0  0  0
  -19.4094  -16.3479   27.9470 C   0  0  0  0  0  0  0  0  0  0  0  0
  -29.4600  -13.6630   18.2925 C   0  0  0  0  0  0  0  0  0  0  0  0
  -20.8232  -16.8893   28.1339 C   0  0  0  0  0  0  0  0  0  0  0  0
  -27.9902  -13.3544   18.5835 C   0  0  0  0  0  0  0  0  0  0  0  0
  -30.3932  -12.6835   19.0007 C   0  0  0  0  0  0  0  0  0  0  0  0
  -28.7066  -12.2538   20.7455 C   0  0  0  0  0  0  0  0  0  0  0  0
  -21.7286  -16.4832   26.9648 C   0  0  1  0  0  0  0  0  0  0  0  0
  -23.4699  -13.2292   27.8661 C   0  0  1  0  0  0  0  0  0  0  0  0
  -27.7286  -13.2491   20.0980 C   0  0  2  0  0  0  0  0  0  0  0  0
  -27.4007   -8.9443   32.9839 C   0  0  0  0  0  0  0  0  0  0  0  0
  -31.9014  -11.8540   24.5699 C   0  0  0  0  0  0  0  0  0  0  0  0
  -25.1687  -15.0583   31.7558 C   0  0  0  0  0  0  0  0  0  0  0  0
  -26.6089  -13.5351   33.1247 C   0  0  0  0  0  0  0  0  0  0  0  0
  -24.1370  -13.2029   33.0777 C   0  0  0  0  0  0  0  0  0  0  0  0
  -32.3120  -14.7063   25.6710 C   0  0  0  0  0  0  0  0  0  0  0  0
  -31.1046  -15.6131   23.6949 C   0  0  0  0  0  0  0  0  0  0  0  0
  -26.7067   -8.0700   29.3466 C   0  0  0  0  0  0  0  0  0  0  0  0
  -29.8807  -14.1298   25.3317 C   0  0  0  0  0  0  0  0  0  1  0  0
  -25.5074  -12.6008   31.0402 C   0  0  1  0  0  0  0  0  0  0  0  0
  -26.6892   -9.0499   31.6440 C   0  0  2  0  0  0  0  0  0  0  0  0
  -31.6706  -13.1365   23.7681 C   0  0  2  0  0  0  0  0  0  0  0  0
  -25.3589  -13.6009   32.2214 C   0  0  0  0  0  0  0  0  0  0  0  0
  -31.2314  -14.3766   24.6170 C   0  0  0  0  0  0  0  0  0  0  0  0
  -25.9396  -11.6085   20.5342 N   0  0  0  0  0  0  0  0  0  0  0  0
  -26.2815  -12.9005   20.3932 N   0  0  0  0  0  0  0  0  0  0  0  0
  -24.5931  -12.9818   28.7724 N   0  0  0  0  0  0  0  0  0  0  0  0
  -30.0939  -12.6318   20.4338 N   0  0  0  0  0  0  0  0  0  0  0  0
  -25.4057  -15.1010   20.4303 N   0  0  0  0  0  0  0  0  0  0  0  0
  -21.7907  -12.5267   21.2676 N   0  0  0  0  0  0  0  0  0  0  0  0
  -22.1427  -15.1033   27.1019 N   0  0  0  0  0  0  0  0  0  0  0  0
  -25.6618  -11.2095   31.4511 N   0  0  0  0  0  0  0  0  0  0  0  0
  -30.7391  -12.8574   22.6980 N   0  0  0  0  0  0  0  0  0  0  0  0
  -27.3231   -8.0884   30.6982 N   0  3  0  0  0  0  0  0  0  0  0  0
  -22.5154  -14.6841   20.9861 O   0  0  0  0  0  0  0  0  0  0  0  0
  -23.9623  -15.4457   28.5141 O   0  0  0  0  0  0  0  0  0  0  0  0
  -23.2020  -12.3595   30.5370 O   0  0  0  0  0  0  0  0  0  0  0  0
  -27.7029  -10.8611   30.4073 O   0  0  0  0  0  0  0  0  0  0  0  0
  -32.2578  -13.2250   21.0201 O   0  0  0  0  0  0  0  0  0  0  0  0
  -21.7153   -6.9669   21.6116 O   0  0  0  0  0  0  0  0  0  0  0  0
  -28.8505  -13.8323   24.3901 O   0  0  0  0  0  0  0  0  0  1  0  0
  -18.1494   -6.8799   25.8164 F   0  0  0  0  0  0  0  0  0  0  0  0
  -21.9829   -5.1302   23.6604 F   0  0  0  0  0  0  0  0  0  0  0  0
  1  2  1  0  0  0  0
  1  5  2  0  0  0  0
  2  6  2  0  0  0  0
  3  8  2  0  0  0  0
  3 15  1  0  0  0  0
  4  9  1  0  0  0  0
  4 15  2  0  0  0  0
  5 17  1  0  0  0  0
  6 19  1  0  0  0  0
  7 10  2  0  0  0  0
  7 18  1  0  0  0  0
  8 21  1  0  0  0  0
  9 21  2  0  0  0  0
 10 22  1  0  0  0  0
 11 12  2  0  0  0  0
 11 23  1  0  0  0  0
 12 24  1  0  0  0  0
 13 20  1  0  0  0  0
 13 22  2  0  0  0  0
 14 24  2  0  0  0  0
 14 25  1  0  0  0  0
 15 26  1  0  0  0  0
 16 26  1  0  0  0  0
 16 27  2  0  0  0  0
 16 28  1  0  0  0  0
 17 19  2  0  0  0  0
 17 33  1  0  0  0  0
 18 20  2  0  0  0  0
 18 34  1  0  0  0  0
 19 42  1  0  0  0  0
 20 35  1  0  0  0  0
 21 74  1  0  0  0  0
 22 75  1  0  0  0  0
 23 25  2  0  0  0  0
 23 74  1  0  0  0  0
 24 76  1  0  0  0  0
 25 77  1  0  0  0  0
 26 59  2  0  0  0  0
 27 60  1  0  0  0  0
 27 63  1  0  0  0  0
 28 64  1  0  0  0  0
 28 69  2  0  0  0  0
 29 43  1  0  0  0  0
 29 65  1  0  0  0  0
 29 70  2  0  0  0  0
 30 54  1  0  0  0  0
 30 61  1  0  0  0  0
 30 71  2  0  0  0  0
 31 55  1  0  0  0  0
 31 66  1  0  0  0  0
 31 72  2  0  0  0  0
 32 62  1  0  0  0  0
 32 67  1  0  0  0  0
 32 73  2  0  0  0  0
 33 36  1  0  0  0  0
 34 43  1  0  0  0  0
 35 61  1  0  0  0  0
 36 38  1  0  0  0  0
 37 39  1  0  0  0  0
 37 40  1  0  0  0  0
 38 42  1  0  0  0  0
 39 44  1  0  0  0  0
 40 62  1  0  0  0  0
 41 44  1  0  0  0  0
 41 62  1  0  0  0  0
 42 65  1  0  0  0  0
 43 61  1  0  0  0  0
 44 60  1  0  0  0  0
 45 55  1  0  0  0  0
 46 56  1  0  0  0  0
 47 57  1  0  0  0  0
 48 57  1  0  0  0  0
 49 57  1  0  0  0  0
 50 58  1  0  0  0  0
 51 58  1  0  0  0  0
 52 68  1  0  0  0  0
 53 58  1  0  0  0  0
 53 75  1  0  0  0  0
 54 57  1  0  0  0  0
 54 66  1  0  0  0  0
 55 68  1  0  0  0  0
 56 58  1  0  0  0  0
 56 67  1  0  0  0  0
 59 60  1  0  0  0  0
M  CHG  1  68   1
M  ISO  4  32 100  53 101  67 100  75 101
M  END
> <Batch ID>
0071

> <Smiles>
CNC(C)C(=O)NC(C(=O)N1Cc2cc([101O:1][101CH2:1]C(C)(C)C(C)[100NH:0][100C:0](=O)N3CCCC(n4nc(-c5ccc(Oc6ccc(F)cc6F)cc5)c(C(N)=O)c4N)C3)ccc2CC1C(=O)NC1CCCc2ccccc21)C(C)(C)C

> <Shape>
0.140

> <Color>
0.182

> <Negative vol penalty>
0.000

$$$$

  -OEChem-04052318223D

 83 91  0     1  0  0  0  0  0999 V2000
  -28.3804  -25.2887   16.3040 C   0  0  0  0  0  0  0  0  0  0  0  0
  -27.2127  -25.3604   17.0569 C   0  0  0  0  0  0  0  0  0  0  0  0
  -24.4537  -17.0377   19.4778 C   0  0  0  0  0  0  0  0  0  0  0  0
  -22.5356  -17.9378   20.6387 C   0  0  0  0  0  0  0  0  0  0  0  0
  -29.5561  -25.8618   16.7868 C   0  0  0  0  0  0  0  0  0  0  0  0
  -27.2205  -26.0043   18.2938 C   0  0  0  0  0  0  0  0  0  0  0  0
  -23.2259  -29.0529   18.9219 C   0  0  0  0  0  0  0  0  0  0  0  0
  -23.9810  -15.7443   19.6996 C   0  0  0  0  0  0  0  0  0  0  0  0
  -22.0628  -16.6443   20.8604 C   0  0  0  0  0  0  0  0  0  0  0  0
  -22.0117  -28.4518   19.2505 C   0  0  0  0  0  0  0  0  0  0  0  0
  -23.0953  -12.2190   19.6454 C   0  0  0  0  0  0  0  0  0  0  0  0
  -23.1295  -11.3239   18.5762 C   0  0  0  0  0  0  0  0  0  0  0  0
  -22.3553  -29.0371   21.5654 C   0  0  0  0  0  0  0  0  0  0  0  0
  -21.6852  -12.7860   17.3060 C   0  0  0  0  0  0  0  0  0  0  0  0
  -21.3092  -25.3798   24.8871 C   0  0  0  0  0  0  0  0  0  0  0  0
  -21.8244  -23.2879   24.4233 C   0  0  0  0  0  0  0  0  0  0  0  0
  -23.7310  -18.1345   19.9475 C   0  0  0  0  0  0  0  0  0  0  0  0
  -23.9410  -20.3007   18.6167 C   0  0  0  0  0  0  0  0  0  0  0  0
  -29.5760  -26.5214   18.0258 C   0  0  0  0  0  0  0  0  0  0  0  0
  -24.0205  -29.6420   19.9159 C   0  0  0  0  0  0  0  0  0  0  0  0
  -28.3979  -26.5855   18.7943 C   0  0  0  0  0  0  0  0  0  0  0  0
  -23.5780  -29.6473   21.2464 C   0  0  0  0  0  0  0  0  0  0  0  0
  -22.7855  -15.5476   20.3908 C   0  0  0  0  0  0  0  0  0  0  0  0
  -21.5775  -28.4413   20.5728 C   0  0  0  0  0  0  0  0  0  0  0  0
  -22.3561  -13.3976   19.5450 C   0  0  0  0  0  0  0  0  0  0  0  0
  -22.4244  -11.6074   17.4065 C   0  0  0  0  0  0  0  0  0  0  0  0
  -21.6510  -13.6811   18.3753 C   0  0  0  0  0  0  0  0  0  0  0  0
  -24.2192  -19.4708   19.7193 C   0  0  0  0  0  0  0  0  0  0  0  0
  -20.3718  -24.8016   24.0640 C   0  0  0  0  0  0  0  0  0  0  0  0
  -24.6373  -21.4566   18.8727 C   0  0  0  0  0  0  0  0  0  0  0  0
  -23.1261  -20.0492   17.4642 C   0  0  0  0  0  0  0  0  0  0  0  0
  -26.9415  -29.1191   21.0554 C   0  0  0  0  0  0  0  0  0  0  0  0
  -26.3438  -31.8228   22.7451 C   0  0  0  0  0  0  0  0  0  0  0  0
  -24.0373  -33.9458   24.0941 C   0  0  0  0  0  0  0  0  0  0  0  0
  -26.5687  -24.0184   23.9282 C   0  0  0  0  0  0  0  0  0  0  0  0
  -30.8821  -27.0844   18.5277 C   0  0  0  0  0  0  0  0  0  0  0  0
  -25.3151  -30.3098   19.5410 C   0  0  0  0  0  0  0  0  0  0  0  0
  -24.3843  -30.2840   22.3477 C   0  0  0  0  0  0  0  0  0  0  0  0
  -30.7167  -28.0747   19.6775 C   0  0  0  0  0  0  0  0  0  0  0  0
  -28.5435  -23.0536   21.1271 C   0  0  0  0  0  0  0  0  0  0  0  0
  -29.7556  -27.5212   20.7248 C   0  0  0  0  0  0  0  0  0  0  0  0
  -27.6341  -22.1008   20.3492 C   0  0  0  0  0  0  0  0  0  0  0  0
  -28.3623  -22.9008   22.6357 C   0  0  0  0  0  0  0  0  0  0  0  0
  -26.0613  -22.0728   22.3302 C   0  0  0  0  0  0  0  0  0  0  0  0
  -28.3604  -27.2970   20.1294 C   0  0  1  0  0  0  0  0  0  0  0  0
  -26.2874  -30.4272   20.7107 C   0  0  1  0  0  0  0  0  0  0  0  0
  -26.1677  -22.2293   20.8036 C   0  0  2  0  0  0  0  0  0  0  0  0
  -23.8517  -36.0485   25.4511 C   0  0  0  0  0  0  0  0  0  0  0  0
  -23.7420  -23.2045   26.6551 C   0  0  0  0  0  0  0  0  0  0  0  0
  -24.3936  -26.3685   24.4268 C   0  0  0  0  0  0  0  0  0  0  0  0
  -27.0609  -30.2574   25.2641 C   0  0  0  0  0  0  0  0  0  0  0  0
  -25.9651  -32.0601   26.6123 C   0  0  0  0  0  0  0  0  0  0  0  0
  -27.9503  -32.5939   25.1992 C   0  0  0  0  0  0  0  0  0  0  0  0
  -22.6176  -35.3629   21.9180 C   0  0  0  0  0  0  0  0  0  0  0  0
  -19.1201  -25.4211   23.4956 C   0  0  0  0  0  0  0  0  0  0  0  0
  -19.3297  -26.1002   22.1405 C   0  0  0  0  0  0  0  0  0  0  0  0
  -20.2844  -27.2870   22.2011 C   0  0  0  0  0  0  0  0  0  1  0  0
  -25.7271  -32.1295   24.0885 C   0  0  1  0  0  0  0  0  0  0  0  0
  -23.9138  -35.4582   24.0510 C   0  0  2  0  0  0  0  0  0  0  0  0
  -23.4255  -24.5125   25.9128 C   0  0  1  0  0  0  0  0  0  0  0  0
  -24.6637  -25.0454   25.1428 C   0  0  1  0  0  0  0  0  0  0  0  0
  -26.6613  -31.7465   25.2708 C   0  0  0  0  0  0  0  0  0  0  0  0
  -20.6981  -23.4993   23.7793 N   0  0  0  0  0  0  0  0  0  0  0  0
  -25.0291  -20.0502   20.6094 N   0  0  0  0  0  0  0  0  0  0  0  0
  -22.2333  -24.3979   25.1089 N   0  0  0  0  0  0  0  0  0  0  0  0
  -25.2660  -21.2564   20.0664 N   0  0  0  0  0  0  0  0  0  0  0  0
  -25.6459  -30.9186   21.9319 N   0  0  0  0  0  0  0  0  0  0  0  0
  -26.9500  -23.0348   23.0008 N   0  0  0  0  0  0  0  0  0  0  0  0
  -24.7671  -22.6145   18.1909 N   0  0  0  0  0  0  0  0  0  0  0  0
  -22.4816  -18.8091   17.3593 N   0  0  0  0  0  0  0  0  0  0  0  0
  -27.6522  -28.5538   20.0139 N   0  0  0  0  0  0  0  0  0  0  0  0
  -25.3543  -33.5396   24.0541 N   0  0  0  0  0  0  0  0  0  0  0  0
  -25.2103  -24.0819   24.2135 N   0  0  0  0  0  0  0  0  0  0  0  0
  -22.6789  -35.8564   23.3179 N   0  3  0  0  0  0  0  0  0  0  0  0
  -22.9871  -20.8929   16.5463 O   0  0  0  0  0  0  0  0  0  0  0  0
  -26.8121  -28.6576   22.1832 O   0  0  0  0  0  0  0  0  0  0  0  0
  -27.4018  -32.3708   22.4261 O   0  0  0  0  0  0  0  0  0  0  0  0
  -23.0630  -33.1996   24.1606 O   0  0  0  0  0  0  0  0  0  0  0  0
  -27.3782  -24.7869   24.4584 O   0  0  0  0  0  0  0  0  0  0  0  0
  -22.3238  -14.2856   20.6071 O   0  0  0  0  0  0  0  0  0  0  0  0
  -20.3930  -27.8547   20.8964 O   0  0  0  0  0  0  0  0  0  1  0  0
  -22.4586  -10.7484   16.3793 F   0  0  0  0  0  0  0  0  0  0  0  0
  -20.9400  -14.8123   18.2725 F   0  0  0  0  0  0  0  0  0  0  0  0
  1  2  1  0  0  0  0
  1  5  2  0  0  0  0
  2  6  2  0  0  0  0
  3  8  2  0  0  0  0
  3 17  1  0  0  0  0
  4  9  1  0  0  0  0
  4 17  2  0  0  0  0
  5 19  1  0  0  0  0
  6 21  1  0  0  0  0
  7 10  2  0  0  0  0
  7 20  1  0  0  0  0
  8 23  1  0  0  0  0
  9 23  2  0  0  0  0
 10 24  1  0  0  0  0
 11 12  2  0  0  0  0
 11 25  1  0  0  0  0
 12 26  1  0  0  0  0
 13 22  1  0  0  0  0
 13 24  2  0  0  0  0
 14 26  2  0  0  0  0
 14 27  1  0  0  0  0
 15 29  2  0  0  0  0
 15 65  1  0  0  0  0
 16 63  2  0  0  0  0
 16 65  1  0  0  0  0
 17 28  1  0  0  0  0
 18 28  1  0  0  0  0
 18 30  2  0  0  0  0
 18 31  1  0  0  0  0
 19 21  2  0  0  0  0
 19 36  1  0  0  0  0
 20 22  2  0  0  0  0
 20 37  1  0  0  0  0
 21 45  1  0  0  0  0
 22 38  1  0  0  0  0
 23 80  1  0  0  0  0
 24 81  1  0  0  0  0
 25 27  2  0  0  0  0
 25 80  1  0  0  0  0
 26 82  1  0  0  0  0
 27 83  1  0  0  0  0
 28 64  2  0  0  0  0
 29 55  1  0  0  0  0
 29 63  1  0  0  0  0
 30 66  1  0  0  0  0
 30 69  1  0  0  0  0
 31 70  1  0  0  0  0
 31 75  2  0  0  0  0
 32 46  1  0  0  0  0
 32 71  1  0  0  0  0
 32 76  2  0  0  0  0
 33 58  1  0  0  0  0
 33 67  1  0  0  0  0
 33 77  2  0  0  0  0
 34 59  1  0  0  0  0
 34 72  1  0  0  0  0
 34 78  2  0  0  0  0
 35 68  1  0  0  0  0
 35 73  1  0  0  0  0
 35 79  2  0  0  0  0
 36 39  1  0  0  0  0
 37 46  1  0  0  0  0
 38 67  1  0  0  0  0
 39 41  1  0  0  0  0
 40 42  1  0  0  0  0
 40 43  1  0  0  0  0
 41 45  1  0  0  0  0
 42 47  1  0  0  0  0
 43 68  1  0  0  0  0
 44 47  1  0  0  0  0
 44 68  1  0  0  0  0
 45 71  1  0  0  0  0
 46 67  1  0  0  0  0
 47 66  1  0  0  0  0
 48 59  1  0  0  0  0
 49 60  1  0  0  0  0
 50 61  1  0  0  0  0
 51 62  1  0  0  0  0
 52 62  1  0  0  0  0
 53 62  1  0  0  0  0
 54 74  1  0  0  0  0
 55 56  1  0  0  0  0
 56 57  1  0  0  0  0
 57 81  1  0  0  0  0
 58 62  1  0  0  0  0
 58 72  1  0  0  0  0
 59 74  1  0  0  0  0
 60 61  1  0  0  0  0
 60 65  1  0  0  0  0
 61 73  1  0  0  0  0
 64 66  1  0  0  0  0
M  CHG  1  74   1
M  ISO  4  35 100  57 101  73 100  81 101
M  END
> <Batch ID>
0071

> <Smiles>
CNC(C)C(=O)NC(C(=O)N1Cc2cc([101O:1][101CH2:1]CCc3cn(C(C)C(C)[100NH:0][100C:0](=O)N4CCCC(n5nc(-c6ccc(Oc7ccc(F)cc7F)cc6)c(C(N)=O)c5N)C4)cn3)ccc2CC1C(=O)NC1CCCc2ccccc21)C(C)(C)C

> <Shape>
0.207

> <Color>
0.072

> <Negative vol penalty>
0.000

$$$$

  -OEChem-04052318223D

 82 90  0     1  0  0  0  0  0999 V2000
  -18.6488  -33.3286   23.5965 C   0  0  0  0  0  0  0  0  0  0  0  0
  -19.8675  -33.3552   22.9261 C   0  0  0  0  0  0  0  0  0  0  0  0
  -26.0779  -15.0451   22.7442 C   0  0  0  0  0  0  0  0  0  0  0  0
  -25.5288  -14.6954   20.4176 C   0  0  0  0  0  0  0  0  0  0  0  0
  -18.3102  -32.2272   24.3814 C   0  0  0  0  0  0  0  0  0  0  0  0
  -20.7489  -32.2808   23.0412 C   0  0  0  0  0  0  0  0  0  0  0  0
  -25.6712  -28.6715   19.2915 C   0  0  0  0  0  0  0  0  0  0  0  0
  -25.1683  -14.0522   23.1081 C   0  0  0  0  0  0  0  0  0  0  0  0
  -24.6193  -13.7024   20.7814 C   0  0  0  0  0  0  0  0  0  0  0  0
  -26.9917  -28.2349   19.3876 C   0  0  0  0  0  0  0  0  0  0  0  0
  -24.7190  -10.4543   21.7089 C   0  0  0  0  0  0  0  0  0  0  0  0
  -24.7316   -9.2666   20.9777 C   0  0  0  0  0  0  0  0  0  0  0  0
  -26.2663  -26.3508   20.7079 C   0  0  0  0  0  0  0  0  0  0  0  0
  -22.4306   -9.6350   20.3397 C   0  0  0  0  0  0  0  0  0  0  0  0
  -31.2699  -25.0707   17.9885 C   0  0  0  0  0  0  0  0  0  0  0  0
  -31.0659  -24.2928   20.0403 C   0  0  0  0  0  0  0  0  0  0  0  0
  -26.2581  -15.3667   21.3989 C   0  0  0  0  0  0  0  0  0  0  0  0
  -28.5630  -16.2272   20.7248 C   0  0  0  0  0  0  0  0  0  0  0  0
  -19.1837  -31.1345   24.4984 C   0  0  0  0  0  0  0  0  0  0  0  0
  -24.6378  -27.9557   19.9131 C   0  0  0  0  0  0  0  0  0  0  0  0
  -20.4222  -31.1643   23.8295 C   0  0  0  0  0  0  0  0  0  0  0  0
  -24.9332  -26.7790   20.6160 C   0  0  0  0  0  0  0  0  0  0  0  0
  -24.4391  -13.3808   22.1267 C   0  0  0  0  0  0  0  0  0  0  0  0
  -27.2898  -27.0760   20.0984 C   0  0  0  0  0  0  0  0  0  0  0  0
  -23.5622  -11.2324   21.7557 C   0  0  0  0  0  0  0  0  0  0  0  0
  -23.5874   -8.8569   20.2931 C   0  0  0  0  0  0  0  0  0  0  0  0
  -22.4181  -10.8228   21.0710 C   0  0  0  0  0  0  0  0  0  0  0  0
  -27.1971  -16.3927   21.0224 C   0  0  0  0  0  0  0  0  0  0  0  0
  -31.3440  -23.6981   18.0156 C   0  0  0  0  0  0  0  0  0  0  0  0
  -29.0059  -17.4933   20.4291 C   0  0  0  0  0  0  0  0  0  0  0  0
  -29.3603  -15.0356   20.7162 C   0  0  0  0  0  0  0  0  0  0  0  0
  -22.5203  -28.5995   22.1946 C   0  0  0  0  0  0  0  0  0  0  0  0
  -21.3531  -25.6808   21.3939 C   0  0  0  0  0  0  0  0  0  0  0  0
  -21.9262  -22.6065   20.0277 C   0  0  0  0  0  0  0  0  0  0  0  0
  -28.3421  -22.4068   17.8674 C   0  0  0  0  0  0  0  0  0  0  0  0
  -18.7944  -29.9869   25.3963 C   0  0  0  0  0  0  0  0  0  0  0  0
  -23.2153  -28.4254   19.7775 C   0  0  0  0  0  0  0  0  0  0  0  0
  -23.8578  -25.9634   21.2844 C   0  0  0  0  0  0  0  0  0  0  0  0
  -19.6221  -28.7252   25.1656 C   0  0  0  0  0  0  0  0  0  0  0  0
  -26.7673  -21.9889   21.0332 C   0  0  0  0  0  0  0  0  0  0  0  0
  -21.1065  -29.0675   25.0868 C   0  0  0  0  0  0  0  0  0  0  0  0
  -26.8459  -20.4821   21.2848 C   0  0  0  0  0  0  0  0  0  0  0  0
  -26.5337  -22.3032   19.5572 C   0  0  0  0  0  0  0  0  0  0  0  0
  -27.5776  -20.1750   18.8829 C   0  0  0  0  0  0  0  0  0  0  0  0
  -21.3942  -30.0072   23.9096 C   0  0  1  0  0  0  0  0  0  0  0  0
  -22.3046  -27.8996   20.8827 C   0  0  1  0  0  0  0  0  0  0  0  0
  -27.8682  -19.8099   20.3487 C   0  0  2  0  0  0  0  0  0  0  0  0
  -20.7899  -20.4211   19.5480 C   0  0  0  0  0  0  0  0  0  0  0  0
  -32.2829  -21.4253   17.2097 C   0  0  0  0  0  0  0  0  0  0  0  0
  -32.4007  -23.4317   15.7550 C   0  0  0  0  0  0  0  0  0  0  0  0
  -21.5683  -24.9245   24.3421 C   0  0  0  0  0  0  0  0  0  0  0  0
  -21.3457  -22.5230   23.6704 C   0  0  0  0  0  0  0  0  0  0  0  0
  -19.4882  -24.1227   23.2086 C   0  0  0  0  0  0  0  0  0  0  0  0
  -22.3518  -22.8923   17.1129 C   0  0  0  0  0  0  0  0  0  0  0  0
  -30.9546  -26.8470   19.8145 C   0  0  0  0  0  0  0  0  0  0  0  0
  -30.1759  -22.3501   16.1961 C   0  0  0  0  0  0  0  0  0  0  0  0
  -29.5742  -27.4347   19.5424 C   0  0  0  0  0  0  0  0  0  1  0  0
  -21.6135  -24.2644   21.8465 C   0  0  1  0  0  0  0  0  0  0  0  0
  -21.1472  -21.7967   19.0069 C   0  0  2  0  0  0  0  0  0  0  0  0
  -31.5313  -22.7742   16.8866 C   0  0  0  0  0  0  0  0  0  0  0  0
  -21.0246  -23.9748   23.2561 C   0  0  0  0  0  0  0  0  0  0  0  0
  -31.2160  -23.2200   19.2957 N   0  0  0  0  0  0  0  0  0  0  0  0
  -26.7984  -17.6638   20.9249 N   0  0  0  0  0  0  0  0  0  0  0  0
  -31.0912  -25.4373   19.2927 N   0  0  0  0  0  0  0  0  0  0  0  0
  -27.9206  -18.3085   20.5628 N   0  0  0  0  0  0  0  0  0  0  0  0
  -22.4832  -26.4671   21.1286 N   0  0  0  0  0  0  0  0  0  0  0  0
  -27.5376  -21.6372   18.7238 N   0  0  0  0  0  0  0  0  0  0  0  0
  -30.2138  -17.9777   20.0705 N   0  0  0  0  0  0  0  0  0  0  0  0
  -28.7468  -13.8190   21.0446 N   0  0  0  0  0  0  0  0  0  0  0  0
  -21.4067  -29.2690   22.6649 N   0  0  0  0  0  0  0  0  0  0  0  0
  -21.0960  -23.3977   20.7932 N   0  0  0  0  0  0  0  0  0  0  0  0
  -29.2724  -21.6977   17.1174 N   0  0  0  0  0  0  0  0  0  0  0  0
  -21.9508  -21.6189   17.7645 N   0  3  0  0  0  0  0  0  0  0  0  0
  -30.5842  -15.0517   20.4419 O   0  0  0  0  0  0  0  0  0  0  0  0
  -23.6156  -28.5357   22.7406 O   0  0  0  0  0  0  0  0  0  0  0  0
  -20.1897  -26.0729   21.2733 O   0  0  0  0  0  0  0  0  0  0  0  0
  -23.1486  -22.5407   20.1376 O   0  0  0  0  0  0  0  0  0  0  0  0
  -28.2427  -23.6356   17.7818 O   0  0  0  0  0  0  0  0  0  0  0  0
  -23.5516  -12.4117   22.4815 O   0  0  0  0  0  0  0  0  0  0  0  0
  -28.5780  -26.6479   20.1943 O   0  0  0  0  0  0  0  0  0  1  0  0
  -23.6001   -7.7171   19.5896 F   0  0  0  0  0  0  0  0  0  0  0  0
  -21.3042  -11.5667   21.1112 F   0  0  0  0  0  0  0  0  0  0  0  0
  1  2  1  0  0  0  0
  1  5  2  0  0  0  0
  2  6  2  0  0  0  0
  3  8  2  0  0  0  0
  3 17  1  0  0  0  0
  4  9  1  0  0  0  0
  4 17  2  0  0  0  0
  5 19  1  0  0  0  0
  6 21  1  0  0  0  0
  7 10  2  0  0  0  0
  7 20  1  0  0  0  0
  8 23  1  0  0  0  0
  9 23  2  0  0  0  0
 10 24  1  0  0  0  0
 11 12  2  0  0  0  0
 11 25  1  0  0  0  0
 12 26  1  0  0  0  0
 13 22  1  0  0  0  0
 13 24  2  0  0  0  0
 14 26  2  0  0  0  0
 14 27  1  0  0  0  0
 15 29  2  0  0  0  0
 15 64  1  0  0  0  0
 16 62  2  0  0  0  0
 16 64  1  0  0  0  0
 17 28  1  0  0  0  0
 18 28  1  0  0  0  0
 18 30  2  0  0  0  0
 18 31  1  0  0  0  0
 19 21  2  0  0  0  0
 19 36  1  0  0  0  0
 20 22  2  0  0  0  0
 20 37  1  0  0  0  0
 21 45  1  0  0  0  0
 22 38  1  0  0  0  0
 23 79  1  0  0  0  0
 24 80  1  0  0  0  0
 25 27  2  0  0  0  0
 25 79  1  0  0  0  0
 26 81  1  0  0  0  0
 27 82  1  0  0  0  0
 28 63  2  0  0  0  0
 29 60  1  0  0  0  0
 29 62  1  0  0  0  0
 30 65  1  0  0  0  0
 30 68  1  0  0  0  0
 31 69  1  0  0  0  0
 31 74  2  0  0  0  0
 32 46  1  0  0  0  0
 32 70  1  0  0  0  0
 32 75  2  0  0  0  0
 33 58  1  0  0  0  0
 33 66  1  0  0  0  0
 33 76  2  0  0  0  0
 34 59  1  0  0  0  0
 34 71  1  0  0  0  0
 34 77  2  0  0  0  0
 35 67  1  0  0  0  0
 35 72  1  0  0  0  0
 35 78  2  0  0  0  0
 36 39  1  0  0  0  0
 37 46  1  0  0  0  0
 38 66  1  0  0  0  0
 39 41  1  0  0  0  0
 40 42  1  0  0  0  0
 40 43  1  0  0  0  0
 41 45  1  0  0  0  0
 42 47  1  0  0  0  0
 43 67  1  0  0  0  0
 44 47  1  0  0  0  0
 44 67  1  0  0  0  0
 45 70  1  0  0  0  0
 46 66  1  0  0  0  0
 47 65  1  0  0  0  0
 48 59  1  0  0  0  0
 49 60  1  0  0  0  0
 50 60  1  0  0  0  0
 51 61  1  0  0  0  0
 52 61  1  0  0  0  0
 53 61  1  0  0  0  0
 54 73  1  0  0  0  0
 55 57  1  0  0  0  0
 55 64  1  0  0  0  0
 56 60  1  0  0  0  0
 56 72  1  0  0  0  0
 57 80  1  0  0  0  0
 58 61  1  0  0  0  0
 58 71  1  0  0  0  0
 59 73  1  0  0  0  0
 63 65  1  0  0  0  0
M  CHG  1  73   1
M  ISO  4  35 100  57 101  72 100  80 101
M  END
> <Batch ID>
0071

> <Smiles>
CNC(C)C(=O)NC(C(=O)N1Cc2cc([101O:1][101CH2:1]Cn3cnc(C(C)(C)C[100NH:0][100C:0](=O)N4CCCC(n5nc(-c6ccc(Oc7ccc(F)cc7F)cc6)c(C(N)=O)c5N)C4)c3)ccc2CC1C(=O)NC1CCCc2ccccc21)C(C)(C)C

> <Shape>
0.239

> <Color>
0.090

> <Negative vol penalty>
0.000

$$$$

  -OEChem-04052318223D

 91 99  0     1  0  0  0  0  0999 V2000
  -21.9000  -24.3388   26.9985 C   0  0  0  0  0  0  0  0  0  0  0  0
  -23.1936  -24.5667   26.5403 C   0  0  0  0  0  0  0  0  0  0  0  0
  -24.0202  -13.0129   20.2929 C   0  0  0  0  0  0  0  0  0  0  0  0
  -26.0967  -12.4798   21.4070 C   0  0  0  0  0  0  0  0  0  0  0  0
  -20.8301  -25.0343   26.4368 C   0  0  0  0  0  0  0  0  0  0  0  0
  -23.4180  -25.4896   25.5193 C   0  0  0  0  0  0  0  0  0  0  0  0
  -28.2784  -29.1596   24.8767 C   0  0  0  0  0  0  0  0  0  0  0  0
  -23.8596  -11.6704   19.9499 C   0  0  0  0  0  0  0  0  0  0  0  0
  -25.9360  -11.1373   21.0640 C   0  0  0  0  0  0  0  0  0  0  0  0
  -29.4333  -29.0598   24.1020 C   0  0  0  0  0  0  0  0  0  0  0  0
  -22.8411   -8.8194   21.4557 C   0  0  0  0  0  0  0  0  0  0  0  0
  -21.5815   -8.2495   21.6402 C   0  0  0  0  0  0  0  0  0  0  0  0
  -28.4040  -30.4276   22.4023 C   0  0  0  0  0  0  0  0  0  0  0  0
  -21.4594   -7.7547   19.2785 C   0  0  0  0  0  0  0  0  0  0  0  0
  -29.0126  -26.9054   20.4925 C   0  0  0  0  0  0  0  0  0  0  0  0
  -25.1388  -13.4176   21.0214 C   0  0  0  0  0  0  0  0  0  0  0  0
  -24.8450  -15.4453   22.5411 C   0  0  0  0  0  0  0  0  0  0  0  0
  -21.0426  -25.9732   25.4150 C   0  0  0  0  0  0  0  0  0  0  0  0
  -27.1718  -29.8863   24.4144 C   0  0  0  0  0  0  0  0  0  0  0  0
  -22.3498  -26.1973   24.9425 C   0  0  0  0  0  0  0  0  0  0  0  0
  -27.2373  -30.5372   23.1742 C   0  0  0  0  0  0  0  0  0  0  0  0
  -24.8175  -10.7327   20.3355 C   0  0  0  0  0  0  0  0  0  0  0  0
  -29.4951  -29.6914   22.8634 C   0  0  0  0  0  0  0  0  0  0  0  0
  -23.4099   -8.8571   20.1826 C   0  0  0  0  0  0  0  0  0  0  0  0
  -20.8906   -7.7171   20.5516 C   0  0  0  0  0  0  0  0  0  0  0  0
  -22.7191   -8.3247   19.0940 C   0  0  0  0  0  0  0  0  0  0  0  0
  -25.3056  -14.8043   21.3755 C   0  0  0  0  0  0  0  0  0  0  0  0
  -30.2374  -26.7604   19.8735 C   0  0  0  0  0  0  0  0  0  0  0  0
  -28.2436  -25.7622   20.5696 C   0  0  0  0  0  0  0  0  0  0  0  0
  -25.2555  -16.7485   22.4013 C   0  0  0  0  0  0  0  0  0  0  0  0
  -29.8453  -24.5523   19.5029 C   0  0  0  0  0  0  0  0  0  0  0  0
  -24.1117  -14.9106   23.6511 C   0  0  0  0  0  0  0  0  0  0  0  0
  -24.1575  -29.1718   23.7024 C   0  0  0  0  0  0  0  0  0  0  0  0
  -23.8919  -32.3839   23.3366 C   0  0  0  0  0  0  0  0  0  0  0  0
  -25.4283  -35.3646   22.7028 C   0  0  0  0  0  0  0  0  0  0  0  0
  -29.6571  -19.2708   19.5956 C   0  0  0  0  0  0  0  0  0  0  0  0
  -19.8493  -26.6661   24.8062 C   0  0  0  0  0  0  0  0  0  0  0  0
  -25.9433  -30.0066   25.2739 C   0  0  0  0  0  0  0  0  0  0  0  0
  -26.0841  -31.3464   22.6415 C   0  0  0  0  0  0  0  0  0  0  0  0
  -20.2147  -27.9008   23.9862 C   0  0  0  0  0  0  0  0  0  0  0  0
  -26.2479  -20.0361   19.0820 C   0  0  0  0  0  0  0  0  0  0  0  0
  -21.3853  -27.5970   23.0566 C   0  0  0  0  0  0  0  0  0  0  0  0
  -25.5666  -18.8283   19.7237 C   0  0  0  0  0  0  0  0  0  0  0  0
  -27.5041  -19.6408   18.3035 C   0  0  0  0  0  0  0  0  0  0  0  0
  -27.7942  -17.6454   19.7377 C   0  0  0  0  0  0  0  0  0  0  0  0
  -22.6364  -27.2086   23.8537 C   0  0  1  0  0  0  0  0  0  0  0  0
  -24.6873  -30.3452   24.4770 C   0  0  1  0  0  0  0  0  0  0  0  0
  -26.5630  -18.0229   20.5756 C   0  0  2  0  0  0  0  0  0  0  0  0
  -31.0951  -23.4200   17.6282 C   0  0  0  0  0  0  0  0  0  0  0  0
  -24.9441  -37.8118   22.4305 C   0  0  0  0  0  0  0  0  0  0  0  0
  -25.9639  -26.8315   20.4968 C   0  0  0  0  0  0  0  0  0  0  0  0
  -27.0203  -26.2723   22.7120 C   0  0  0  0  0  0  0  0  0  0  0  0
  -26.1152  -24.4696   21.2586 C   0  0  0  0  0  0  0  0  0  0  0  0
  -22.7572  -31.8475   20.5554 C   0  0  0  0  0  0  0  0  0  0  0  0
  -23.1855  -34.2494   19.9936 C   0  0  0  0  0  0  0  0  0  0  0  0
  -21.5953  -33.6628   21.8238 C   0  0  0  0  0  0  0  0  0  0  0  0
  -32.3553  -22.9254   20.5365 C   0  0  0  0  0  0  0  0  0  0  0  0
  -30.1384  -21.9940   21.1981 C   0  0  0  0  0  0  0  0  0  0  0  0
  -30.2415  -20.2334   17.3292 C   0  0  0  0  0  0  0  0  0  0  0  0
  -27.1619  -36.0809   24.9920 C   0  0  0  0  0  0  0  0  0  0  0  0
  -31.1494  -27.9540   19.7420 C   0  0  0  0  0  0  0  0  0  0  0  0
  -32.1077  -28.1300   20.9219 C   0  0  0  0  0  0  0  0  0  0  0  0
  -31.4695  -20.9245   19.3541 C   0  0  0  0  0  0  0  0  0  0  0  0
  -31.3963  -28.4049   22.2417 C   0  0  0  0  0  0  0  0  0  1  0  0
  -30.3087  -23.2443   18.9568 C   0  0  1  0  0  0  0  0  0  0  0  0
  -24.0770  -33.3483   22.1900 C   0  0  1  0  0  0  0  0  0  0  0  0
  -25.3429  -36.7102   23.4002 C   0  0  2  0  0  0  0  0  0  0  0  0
  -26.9037  -25.8205   21.2235 C   0  0  0  0  0  0  0  0  0  0  0  0
  -22.9250  -33.2602   21.1496 C   0  0  0  0  0  0  0  0  0  0  0  0
  -31.0604  -22.2850   19.9891 C   0  0  0  0  0  0  0  0  0  0  0  0
  -25.9586  -15.6321   20.5555 N   0  0  0  0  0  0  0  0  0  0  0  0
  -30.6872  -25.5943   19.3655 N   0  0  0  0  0  0  0  0  0  0  0  0
  -28.6302  -24.5645   20.0834 N   0  0  0  0  0  0  0  0  0  0  0  0
  -25.9112  -16.8067   21.2068 N   0  0  0  0  0  0  0  0  0  0  0  0
  -24.9027  -31.4290   23.5161 N   0  0  0  0  0  0  0  0  0  0  0  0
  -28.4051  -18.8342   19.1380 N   0  0  0  0  0  0  0  0  0  0  0  0
  -25.1159  -17.8390   23.1848 N   0  0  0  0  0  0  0  0  0  0  0  0
  -23.7710  -13.5512   23.6341 N   0  0  0  0  0  0  0  0  0  0  0  0
  -23.2673  -28.3864   24.4097 N   0  0  0  0  0  0  0  0  0  0  0  0
  -24.2414  -34.6682   22.7893 N   0  0  0  0  0  0  0  0  0  0  0  0
  -30.3566  -20.1775   18.7852 N   0  0  0  0  0  0  0  0  0  0  0  0
  -26.6593  -37.0668   24.0009 N   0  3  0  0  0  0  0  0  0  0  0  0
  -23.7545  -15.6209   24.6213 O   0  0  0  0  0  0  0  0  0  0  0  0
  -24.5278  -28.9930   22.5480 O   0  0  0  0  0  0  0  0  0  0  0  0
  -22.8909  -32.4791   24.0512 O   0  0  0  0  0  0  0  0  0  0  0  0
  -26.4451  -34.9721   22.1347 O   0  0  0  0  0  0  0  0  0  0  0  0
  -30.1292  -18.8669   20.6662 O   0  0  0  0  0  0  0  0  0  0  0  0
  -24.6609   -9.4226   20.0012 O   0  0  0  0  0  0  0  0  0  0  0  0
  -30.6209  -29.5950   22.1049 O   0  0  0  0  0  0  0  0  0  1  0  0
  -19.6817   -7.1684   20.7291 F   0  0  0  0  0  0  0  0  0  0  0  0
  -23.2609   -8.3569   17.8688 F   0  0  0  0  0  0  0  0  0  0  0  0
  1  2  1  0  0  0  0
  1  5  2  0  0  0  0
  2  6  2  0  0  0  0
  3  8  2  0  0  0  0
  3 16  1  0  0  0  0
  4  9  1  0  0  0  0
  4 16  2  0  0  0  0
  5 18  1  0  0  0  0
  6 20  1  0  0  0  0
  7 10  2  0  0  0  0
  7 19  1  0  0  0  0
  8 22  1  0  0  0  0
  9 22  2  0  0  0  0
 10 23  1  0  0  0  0
 11 12  2  0  0  0  0
 11 24  1  0  0  0  0
 12 25  1  0  0  0  0
 13 21  1  0  0  0  0
 13 23  2  0  0  0  0
 14 25  2  0  0  0  0
 14 26  1  0  0  0  0
 15 28  1  0  0  0  0
 15 29  2  0  0  0  0
 16 27  1  0  0  0  0
 17 27  1  0  0  0  0
 17 30  2  0  0  0  0
 17 32  1  0  0  0  0
 18 20  2  0  0  0  0
 18 37  1  0  0  0  0
 19 21  2  0  0  0  0
 19 38  1  0  0  0  0
 20 46  1  0  0  0  0
 21 39  1  0  0  0  0
 22 88  1  0  0  0  0
 23 89  1  0  0  0  0
 24 26  2  0  0  0  0
 24 88  1  0  0  0  0
 25 90  1  0  0  0  0
 26 91  1  0  0  0  0
 27 71  2  0  0  0  0
 28 61  1  0  0  0  0
 28 72  2  0  0  0  0
 29 68  1  0  0  0  0
 29 73  1  0  0  0  0
 30 74  1  0  0  0  0
 30 77  1  0  0  0  0
 31 65  1  0  0  0  0
 31 72  1  0  0  0  0
 31 73  2  0  0  0  0
 32 78  1  0  0  0  0
 32 83  2  0  0  0  0
 33 47  1  0  0  0  0
 33 79  1  0  0  0  0
 33 84  2  0  0  0  0
 34 66  1  0  0  0  0
 34 75  1  0  0  0  0
 34 85  2  0  0  0  0
 35 67  1  0  0  0  0
 35 80  1  0  0  0  0
 35 86  2  0  0  0  0
 36 76  1  0  0  0  0
 36 81  1  0  0  0  0
 36 87  2  0  0  0  0
 37 40  1  0  0  0  0
 38 47  1  0  0  0  0
 39 75  1  0  0  0  0
 40 42  1  0  0  0  0
 41 43  1  0  0  0  0
 41 44  1  0  0  0  0
 42 46  1  0  0  0  0
 43 48  1  0  0  0  0
 44 76  1  0  0  0  0
 45 48  1  0  0  0  0
 45 76  1  0  0  0  0
 46 79  1  0  0  0  0
 47 75  1  0  0  0  0
 48 74  1  0  0  0  0
 49 65  1  0  0  0  0
 50 67  1  0  0  0  0
 51 68  1  0  0  0  0
 52 68  1  0  0  0  0
 53 68  1  0  0  0  0
 54 69  1  0  0  0  0
 55 69  1  0  0  0  0
 56 69  1  0  0  0  0
 57 70  1  0  0  0  0
 58 70  1  0  0  0  0
 59 81  1  0  0  0  0
 60 82  1  0  0  0  0
 61 62  1  0  0  0  0
 62 64  1  0  0  0  0
 63 70  1  0  0  0  0
 63 81  1  0  0  0  0
 64 89  1  0  0  0  0
 65 70  1  0  0  0  0
 66 69  1  0  0  0  0
 66 80  1  0  0  0  0
 67 82  1  0  0  0  0
 71 74  1  0  0  0  0
M  CHG  1  82   1
M  ISO  4  36 100  64 101  81 100  89 101
M  END
> <Batch ID>
0071

> <Smiles>
CNC(C)C(=O)NC(C(=O)N1Cc2cc([101O:1][101CH2:1]CCc3cc(C(C)(C)C)nc(C(C)C(C)(C)C[100N:0](C)[100C:0](=O)N4CCCC(n5nc(-c6ccc(Oc7ccc(F)cc7F)cc6)c(C(N)=O)c5N)C4)n3)ccc2CC1C(=O)NC1CCCc2ccccc21)C(C)(C)C

> <Shape>
0.264

> <Color>
0.112

> <Negative vol penalty>
0.000

$$$$

  -OEChem-04052318223D

 87 95  0     1  0  0  0  0  0999 V2000
  -18.2505  -25.3091   23.1189 C   0  0  0  0  0  0  0  0  0  0  0  0
  -19.4246  -25.1772   22.3842 C   0  0  0  0  0  0  0  0  0  0  0  0
  -26.3402  -16.0597   22.2608 C   0  0  0  0  0  0  0  0  0  0  0  0
  -25.7476  -15.8409   19.9289 C   0  0  0  0  0  0  0  0  0  0  0  0
  -17.7084  -26.5739   23.3432 C   0  0  0  0  0  0  0  0  0  0  0  0
  -20.0566  -26.3099   21.8725 C   0  0  0  0  0  0  0  0  0  0  0  0
  -26.0839  -27.1964   21.2473 C   0  0  0  0  0  0  0  0  0  0  0  0
  -25.8349  -14.7835   22.5090 C   0  0  0  0  0  0  0  0  0  0  0  0
  -25.2424  -14.5646   20.1770 C   0  0  0  0  0  0  0  0  0  0  0  0
  -26.9424  -27.0702   20.1560 C   0  0  0  0  0  0  0  0  0  0  0  0
  -26.8391  -11.5821   22.0900 C   0  0  0  0  0  0  0  0  0  0  0  0
  -27.6048  -10.7239   22.8792 C   0  0  0  0  0  0  0  0  0  0  0  0
  -26.7340  -29.4348   19.7263 C   0  0  0  0  0  0  0  0  0  0  0  0
  -25.7973  -10.5794   24.4759 C   0  0  0  0  0  0  0  0  0  0  0  0
  -27.7627  -24.6222   15.8078 C   0  0  0  0  0  0  0  0  0  0  0  0
  -26.2964  -16.5885   20.9707 C   0  0  0  0  0  0  0  0  0  0  0  0
  -28.1344  -18.2440   20.3474 C   0  0  0  0  0  0  0  0  0  0  0  0
  -18.3393  -27.7235   22.8422 C   0  0  0  0  0  0  0  0  0  0  0  0
  -25.5346  -28.4429   21.5803 C   0  0  0  0  0  0  0  0  0  0  0  0
  -19.5217  -27.5912   22.0892 C   0  0  0  0  0  0  0  0  0  0  0  0
  -25.8709  -29.5746   20.8238 C   0  0  0  0  0  0  0  0  0  0  0  0
  -25.2861  -14.0359   21.4671 C   0  0  0  0  0  0  0  0  0  0  0  0
  -27.2652  -28.1889   19.3936 C   0  0  0  0  0  0  0  0  0  0  0  0
  -25.5525  -11.9390   22.4938 C   0  0  0  0  0  0  0  0  0  0  0  0
  -27.0840  -10.2225   24.0721 C   0  0  0  0  0  0  0  0  0  0  0  0
  -25.0316  -11.4376   23.6867 C   0  0  0  0  0  0  0  0  0  0  0  0
  -26.8176  -17.9070   20.7139 C   0  0  0  0  0  0  0  0  0  0  0  0
  -26.4702  -25.0365   15.9653 C   0  0  0  0  0  0  0  0  0  0  0  0
  -28.1167  -19.6117   20.2227 C   0  0  0  0  0  0  0  0  0  0  0  0
  -27.7596  -26.8343   15.8910 C   0  0  0  0  0  0  0  0  0  0  0  0
  -29.2719  -17.3966   20.1383 C   0  0  0  0  0  0  0  0  0  0  0  0
  -22.5880  -29.6238   21.7449 C   0  0  0  0  0  0  0  0  0  0  0  0
  -24.1135  -32.2157   22.9603 C   0  0  0  0  0  0  0  0  0  0  0  0
  -26.9950  -34.0266   23.2142 C   0  0  0  0  0  0  0  0  0  0  0  0
  -24.6443  -23.8940   18.4566 C   0  0  0  0  0  0  0  0  0  0  0  0
  -17.6901  -29.0656   23.0702 C   0  0  0  0  0  0  0  0  0  0  0  0
  -24.6313  -28.5672   22.7766 C   0  0  0  0  0  0  0  0  0  0  0  0
  -25.3239  -30.9390   21.1519 C   0  0  0  0  0  0  0  0  0  0  0  0
  -18.6237  -30.2455   22.8122 C   0  0  0  0  0  0  0  0  0  0  0  0
  -25.1964  -23.2266   21.9100 C   0  0  0  0  0  0  0  0  0  0  0  0
  -19.3733  -30.0556   21.4974 C   0  0  0  0  0  0  0  0  0  0  0  0
  -25.7932  -21.8182   21.9196 C   0  0  0  0  0  0  0  0  0  0  0  0
  -24.1325  -23.3815   20.8255 C   0  0  0  0  0  0  0  0  0  0  0  0
  -25.1686  -21.5967   19.4784 C   0  0  0  0  0  0  0  0  0  0  0  0
  -20.2500  -28.7981   21.5388 C   0  0  1  0  0  0  0  0  0  0  0  0
  -23.7232  -29.7915   22.7150 C   0  0  1  0  0  0  0  0  0  0  0  0
  -26.2860  -21.4085   20.5187 C   0  0  2  0  0  0  0  0  0  0  0  0
  -24.5495  -27.4160   14.8864 C   0  0  0  0  0  0  0  0  0  0  0  0
  -27.9230  -36.1178   24.2453 C   0  0  0  0  0  0  0  0  0  0  0  0
  -27.6432  -29.1525   14.7545 C   0  0  0  0  0  0  0  0  0  0  0  0
  -29.7827  -28.3145   15.7020 C   0  0  0  0  0  0  0  0  0  0  0  0
  -22.7019  -33.8877   20.8338 C   0  0  0  0  0  0  0  0  0  0  0  0
  -24.3467  -35.7211   21.2832 C   0  0  0  0  0  0  0  0  0  0  0  0
  -22.8130  -34.9523   23.0941 C   0  0  0  0  0  0  0  0  0  0  0  0
  -28.9738  -32.5039   24.8030 C   0  0  0  0  0  0  0  0  0  0  0  0
  -25.3428  -27.2727   16.1740 C   0  0  0  0  0  0  0  0  0  0  0  0
  -27.9075  -28.9751   17.2429 C   0  0  0  0  0  0  0  0  0  1  0  0
  -25.2285  -24.2608   16.0726 C   0  0  1  0  0  0  0  0  0  0  0  0
  -24.7280  -33.4654   22.3774 C   0  0  1  0  0  0  0  0  0  0  0  0
  -27.7081  -34.6219   24.4149 C   0  0  2  0  0  0  0  0  0  0  0  0
  -28.2485  -28.2949   15.8918 C   0  0  0  0  0  0  0  0  0  0  0  0
  -23.6563  -34.4807   21.8895 C   0  0  0  0  0  0  0  0  0  0  0  0
  -24.9184  -23.3890   14.8417 C   0  0  0  0  0  0  0  0  0  0  0  0
  -26.0214  -18.9745   20.8155 N   0  0  0  0  0  0  0  0  0  0  0  0
  -26.4980  -26.4094   16.0142 N   0  0  0  0  0  0  0  0  0  0  0  0
  -26.8402  -19.9958   20.5112 N   0  0  0  0  0  0  0  0  0  0  0  0
  -28.5388  -25.7553   15.7647 N   0  3  0  0  0  0  0  0  0  0  0  0
  -24.4400  -31.0081   22.3272 N   0  0  0  0  0  0  0  0  0  0  0  0
  -24.6642  -22.9782   19.5215 N   0  0  0  0  0  0  0  0  0  0  0  0
  -29.0686  -20.5113   19.8957 N   0  0  0  0  0  0  0  0  0  0  0  0
  -29.1154  -16.0142   20.3086 N   0  0  0  0  0  0  0  0  0  0  0  0
  -21.4582  -29.0490   22.2949 N   0  0  0  0  0  0  0  0  0  0  0  0
  -25.6288  -33.9913   23.3974 N   0  0  0  0  0  0  0  0  0  0  0  0
  -25.1732  -23.4333   17.2571 N   0  0  0  0  0  0  0  0  0  0  0  0
  -29.0373  -33.9743   24.6013 N   0  3  0  0  0  0  0  0  0  0  0  0
  -30.3978  -17.8532   19.8263 O   0  0  0  0  0  0  0  0  0  0  0  0
  -22.7264  -29.9903   20.5837 O   0  0  0  0  0  0  0  0  0  0  0  0
  -23.3769  -32.3070   23.9455 O   0  0  0  0  0  0  0  0  0  0  0  0
  -27.5901  -33.6358   22.2123 O   0  0  0  0  0  0  0  0  0  0  0  0
  -24.1936  -25.0391   18.5681 O   0  0  0  0  0  0  0  0  0  0  0  0
  -24.7932  -12.7904   21.7088 O   0  0  0  0  0  0  0  0  0  0  0  0
  -28.1024  -28.0684   18.3275 O   0  0  0  0  0  0  0  0  0  1  0  0
  -27.8188   -9.3972   24.8290 F   0  0  0  0  0  0  0  0  0  0  0  0
  -23.7958  -11.7760   24.0792 F   0  0  0  0  0  0  0  0  0  0  0  0
  -24.7400  -24.1356   13.7317 F   0  0  0  0  0  0  0  0  0  0  0  0
  -25.9073  -22.5024   14.5815 F   0  0  0  0  0  0  0  0  0  0  0  0
  -23.7885  -22.6753   15.0469 F   0  0  0  0  0  0  0  0  0  0  0  0
  1  2  1  0  0  0  0
  1  5  2  0  0  0  0
  2  6  2  0  0  0  0
  3  8  2  0  0  0  0
  3 16  1  0  0  0  0
  4  9  1  0  0  0  0
  4 16  2  0  0  0  0
  5 18  1  0  0  0  0
  6 20  1  0  0  0  0
  7 10  2  0  0  0  0
  7 19  1  0  0  0  0
  8 22  1  0  0  0  0
  9 22  2  0  0  0  0
 10 23  1  0  0  0  0
 11 12  2  0  0  0  0
 11 24  1  0  0  0  0
 12 25  1  0  0  0  0
 13 21  1  0  0  0  0
 13 23  2  0  0  0  0
 14 25  2  0  0  0  0
 14 26  1  0  0  0  0
 15 28  2  0  0  0  0
 15 67  1  0  0  0  0
 16 27  1  0  0  0  0
 17 27  1  0  0  0  0
 17 29  2  0  0  0  0
 17 31  1  0  0  0  0
 18 20  2  0  0  0  0
 18 36  1  0  0  0  0
 19 21  2  0  0  0  0
 19 37  1  0  0  0  0
 20 45  1  0  0  0  0
 21 38  1  0  0  0  0
 22 81  1  0  0  0  0
 23 82  1  0  0  0  0
 24 26  2  0  0  0  0
 24 81  1  0  0  0  0
 25 83  1  0  0  0  0
 26 84  1  0  0  0  0
 27 64  2  0  0  0  0
 28 58  1  0  0  0  0
 28 65  1  0  0  0  0
 29 66  1  0  0  0  0
 29 70  1  0  0  0  0
 30 61  1  0  0  0  0
 30 65  1  0  0  0  0
 30 67  2  0  0  0  0
 31 71  1  0  0  0  0
 31 76  2  0  0  0  0
 32 46  1  0  0  0  0
 32 72  1  0  0  0  0
 32 77  2  0  0  0  0
 33 59  1  0  0  0  0
 33 68  1  0  0  0  0
 33 78  2  0  0  0  0
 34 60  1  0  0  0  0
 34 73  1  0  0  0  0
 34 79  2  0  0  0  0
 35 69  1  0  0  0  0
 35 74  1  0  0  0  0
 35 80  2  0  0  0  0
 36 39  1  0  0  0  0
 37 46  1  0  0  0  0
 38 68  1  0  0  0  0
 39 41  1  0  0  0  0
 40 42  1  0  0  0  0
 40 43  1  0  0  0  0
 41 45  1  0  0  0  0
 42 47  1  0  0  0  0
 43 69  1  0  0  0  0
 44 47  1  0  0  0  0
 44 69  1  0  0  0  0
 45 72  1  0  0  0  0
 46 68  1  0  0  0  0
 47 66  1  0  0  0  0
 48 56  1  0  0  0  0
 49 60  1  0  0  0  0
 50 61  1  0  0  0  0
 51 61  1  0  0  0  0
 52 62  1  0  0  0  0
 53 62  1  0  0  0  0
 54 62  1  0  0  0  0
 55 75  1  0  0  0  0
 56 65  1  0  0  0  0
 57 61  1  0  0  0  0
 57 82  1  0  0  0  0
 58 63  1  0  0  0  0
 58 74  1  0  0  0  0
 59 62  1  0  0  0  0
 59 73  1  0  0  0  0
 60 75  1  0  0  0  0
 63 85  1  0  0  0  0
 63 86  1  0  0  0  0
 63 87  1  0  0  0  0
 64 66  1  0  0  0  0
M  CHG  2  67   1  75   1
M  ISO  4  35 100  57 101  74 100  82 101
M  END
> <Batch ID>
0071

> <Smiles>
CCn1c(C([100NH:0][100C:0](=O)N2CCCC(n3nc(-c4ccc(Oc5ccc(F)cc5F)cc4)c(C(N)=O)c3N)C2)C(F)(F)F)cnc1C(C)(C)[101CH2:1][101O:1]c1ccc2c(c1)CN(C(=O)C(NC(=O)C(C)NC)C(C)(C)C)C(C(=O)NC1CCCc3ccccc31)C2

> <Shape>
0.211

> <Color>
0.114

> <Negative vol penalty>
0.000

$$$$

  -OEChem-04052318223D

 79 87  0     1  0  0  0  0  0999 V2000
  -27.8289  -31.4405   20.0932 C   0  0  0  0  0  0  0  0  0  0  0  0
  -28.0089  -30.0611   20.1099 C   0  0  0  0  0  0  0  0  0  0  0  0
  -23.0957   -9.8792   19.9387 C   0  0  0  0  0  0  0  0  0  0  0  0
  -23.8665   -9.8887   22.2284 C   0  0  0  0  0  0  0  0  0  0  0  0
  -27.1722  -32.0437   19.0214 C   0  0  0  0  0  0  0  0  0  0  0  0
  -27.5313  -29.2840   19.0552 C   0  0  0  0  0  0  0  0  0  0  0  0
  -30.8910  -25.8212   17.5167 C   0  0  0  0  0  0  0  0  0  0  0  0
  -22.3685   -8.7154   20.1883 C   0  0  0  0  0  0  0  0  0  0  0  0
  -23.1393   -8.7249   22.4781 C   0  0  0  0  0  0  0  0  0  0  0  0
  -31.0222  -24.6718   18.2947 C   0  0  0  0  0  0  0  0  0  0  0  0
  -19.9250   -7.8821   23.0933 C   0  0  0  0  0  0  0  0  0  0  0  0
  -19.1743   -7.8282   24.2677 C   0  0  0  0  0  0  0  0  0  0  0  0
  -29.6247  -23.4675   16.7404 C   0  0  0  0  0  0  0  0  0  0  0  0
  -20.4450   -5.9051   24.9917 C   0  0  0  0  0  0  0  0  0  0  0  0
  -29.2979  -18.7527   20.8765 C   0  0  0  0  0  0  0  0  0  0  0  0
  -31.2847  -19.4405   19.2313 C   0  0  0  0  0  0  0  0  0  0  0  0
  -23.8448  -10.4659   20.9588 C   0  0  0  0  0  0  0  0  0  0  0  0
  -24.1523  -12.9957   20.8456 C   0  0  0  0  0  0  0  0  0  0  0  0
  -26.6949  -31.2747   17.9484 C   0  0  0  0  0  0  0  0  0  0  0  0
  -30.1154  -25.8053   16.3486 C   0  0  0  0  0  0  0  0  0  0  0  0
  -26.8664  -29.8773   17.9687 C   0  0  0  0  0  0  0  0  0  0  0  0
  -29.4873  -24.6174   15.9480 C   0  0  0  0  0  0  0  0  0  0  0  0
  -22.3903   -8.1383   21.4580 C   0  0  0  0  0  0  0  0  0  0  0  0
  -30.3867  -23.4954   17.9082 C   0  0  0  0  0  0  0  0  0  0  0  0
  -20.9357   -6.9474   22.8681 C   0  0  0  0  0  0  0  0  0  0  0  0
  -19.4343   -6.8397   25.2169 C   0  0  0  0  0  0  0  0  0  0  0  0
  -21.1957   -5.9590   23.8172 C   0  0  0  0  0  0  0  0  0  0  0  0
  -24.5967  -11.6677   20.7014 C   0  0  0  0  0  0  0  0  0  0  0  0
  -30.5125  -18.1043   20.9189 C   0  0  0  0  0  0  0  0  0  0  0  0
  -30.0698  -20.0884   19.1883 C   0  0  0  0  0  0  0  0  0  0  0  0
  -25.2326  -13.7609   20.4797 C   0  0  0  0  0  0  0  0  0  0  0  0
  -22.8771  -13.4931   21.2723 C   0  0  0  0  0  0  0  0  0  0  0  0
  -27.5043  -27.3305   15.3688 C   0  0  0  0  0  0  0  0  0  0  0  0
  -28.1379  -25.8106   12.5740 C   0  0  0  0  0  0  0  0  0  0  0  0
  -29.6215  -23.1858   10.9751 C   0  0  0  0  0  0  0  0  0  0  0  0
  -30.7031  -14.8525   20.6452 C   0  0  0  0  0  0  0  0  0  0  0  0
  -25.9495  -31.9664   16.8346 C   0  0  0  0  0  0  0  0  0  0  0  0
  -30.0056  -27.0466   15.5061 C   0  0  0  0  0  0  0  0  0  0  0  0
  -28.6598  -24.5425   14.6918 C   0  0  0  0  0  0  0  0  0  0  0  0
  -25.8045  -31.1132   15.5771 C   0  0  0  0  0  0  0  0  0  0  0  0
  -29.5859  -12.4609   18.2559 C   0  0  0  0  0  0  0  0  0  0  0  0
  -25.3519  -29.7021   15.9386 C   0  0  0  0  0  0  0  0  0  0  0  0
  -28.1546  -12.1466   18.6947 C   0  0  0  0  0  0  0  0  0  0  0  0
  -30.5058  -12.6900   19.4531 C   0  0  0  0  0  0  0  0  0  0  0  0
  -28.6012  -13.3910   20.8513 C   0  0  0  0  0  0  0  0  0  0  0  0
  -26.3845  -29.0032   16.8312 C   0  0  1  0  0  0  0  0  0  0  0  0
  -28.7711  -27.0531   14.6099 C   0  0  1  0  0  0  0  0  0  0  0  0
  -27.6238  -13.2073   19.6777 C   0  0  2  0  0  0  0  0  0  0  0  0
  -29.9341  -22.1920    8.6921 C   0  0  0  0  0  0  0  0  0  0  0  0
  -25.2773  -24.7516   12.6460 C   0  0  0  0  0  0  0  0  0  0  0  0
  -25.9344  -23.0593   10.9218 C   0  0  0  0  0  0  0  0  0  0  0  0
  -26.0587  -25.4931   10.3890 C   0  0  0  0  0  0  0  0  0  0  0  0
  -32.5624  -23.4838   11.1210 C   0  0  0  0  0  0  0  0  0  0  0  0
  -30.7463  -16.9996   21.8891 C   0  0  0  0  0  0  0  0  0  0  0  0
  -29.8344  -21.2021   18.2108 C   0  0  0  0  0  0  0  0  0  1  0  0
  -27.7541  -24.4820   11.9686 C   0  0  1  0  0  0  0  0  0  0  0  0
  -30.5087  -23.1271    9.7447 C   0  0  2  0  0  0  0  0  0  0  0  0
  -26.2700  -24.4481   11.5061 C   0  0  0  0  0  0  0  0  0  0  0  0
  -31.5278  -18.4368   20.0973 N   0  0  0  0  0  0  0  0  0  0  0  0
  -29.0546  -19.7562   20.0103 N   0  0  0  0  0  0  0  0  0  0  0  0
  -25.8607  -11.5902   20.2767 N   0  0  0  0  0  0  0  0  0  0  0  0
  -26.2198  -12.8791   20.1509 N   0  0  0  0  0  0  0  0  0  0  0  0
  -28.5775  -25.7842   13.9051 N   0  0  0  0  0  0  0  0  0  0  0  0
  -29.9459  -13.7081   20.3452 N   0  0  0  0  0  0  0  0  0  0  0  0
  -25.4249  -15.0953   20.4101 N   0  0  0  0  0  0  0  0  0  0  0  0
  -21.8791  -12.5694   21.6114 N   0  0  0  0  0  0  0  0  0  0  0  0
  -27.5038  -28.5380   16.0405 N   0  0  0  0  0  0  0  0  0  0  0  0
  -28.7178  -24.2248   10.9040 N   0  0  0  0  0  0  0  0  0  0  0  0
  -30.0957  -15.7704   21.4933 N   0  0  0  0  0  0  0  0  0  0  0  0
  -31.8700  -22.6433   10.1104 N   0  3  0  0  0  0  0  0  0  0  0  0
  -22.6247  -14.7203   21.3350 O   0  0  0  0  0  0  0  0  0  0  0  0
  -26.5941  -26.5103   15.3454 O   0  0  0  0  0  0  0  0  0  0  0  0
  -28.0577  -26.8331   11.8887 O   0  0  0  0  0  0  0  0  0  0  0  0
  -29.7178  -22.3874   11.9044 O   0  0  0  0  0  0  0  0  0  0  0  0
  -31.8344  -15.0446   20.1868 O   0  0  0  0  0  0  0  0  0  0  0  0
  -21.6806   -7.0028   21.7020 O   0  0  0  0  0  0  0  0  0  0  0  0
  -30.5126  -22.3722   18.6661 O   0  0  0  0  0  0  0  0  0  1  0  0
  -18.7144   -6.7890   26.3453 F   0  0  0  0  0  0  0  0  0  0  0  0
  -22.1661   -5.0590   23.6070 F   0  0  0  0  0  0  0  0  0  0  0  0
  1  2  1  0  0  0  0
  1  5  2  0  0  0  0
  2  6  2  0  0  0  0
  3  8  2  0  0  0  0
  3 17  1  0  0  0  0
  4  9  1  0  0  0  0
  4 17  2  0  0  0  0
  5 19  1  0  0  0  0
  6 21  1  0  0  0  0
  7 10  2  0  0  0  0
  7 20  1  0  0  0  0
  8 23  1  0  0  0  0
  9 23  2  0  0  0  0
 10 24  1  0  0  0  0
 11 12  2  0  0  0  0
 11 25  1  0  0  0  0
 12 26  1  0  0  0  0
 13 22  1  0  0  0  0
 13 24  2  0  0  0  0
 14 26  2  0  0  0  0
 14 27  1  0  0  0  0
 15 29  2  0  0  0  0
 15 60  1  0  0  0  0
 16 30  1  0  0  0  0
 16 59  2  0  0  0  0
 17 28  1  0  0  0  0
 18 28  1  0  0  0  0
 18 31  2  0  0  0  0
 18 32  1  0  0  0  0
 19 21  2  0  0  0  0
 19 37  1  0  0  0  0
 20 22  2  0  0  0  0
 20 38  1  0  0  0  0
 21 46  1  0  0  0  0
 22 39  1  0  0  0  0
 23 76  1  0  0  0  0
 24 77  1  0  0  0  0
 25 27  2  0  0  0  0
 25 76  1  0  0  0  0
 26 78  1  0  0  0  0
 27 79  1  0  0  0  0
 28 61  2  0  0  0  0
 29 54  1  0  0  0  0
 29 59  1  0  0  0  0
 30 55  1  0  0  0  0
 30 60  2  0  0  0  0
 31 62  1  0  0  0  0
 31 65  1  0  0  0  0
 32 66  1  0  0  0  0
 32 71  2  0  0  0  0
 33 47  1  0  0  0  0
 33 67  1  0  0  0  0
 33 72  2  0  0  0  0
 34 56  1  0  0  0  0
 34 63  1  0  0  0  0
 34 73  2  0  0  0  0
 35 57  1  0  0  0  0
 35 68  1  0  0  0  0
 35 74  2  0  0  0  0
 36 64  1  0  0  0  0
 36 69  1  0  0  0  0
 36 75  2  0  0  0  0
 37 40  1  0  0  0  0
 38 47  1  0  0  0  0
 39 63  1  0  0  0  0
 40 42  1  0  0  0  0
 41 43  1  0  0  0  0
 41 44  1  0  0  0  0
 42 46  1  0  0  0  0
 43 48  1  0  0  0  0
 44 64  1  0  0  0  0
 45 48  1  0  0  0  0
 45 64  1  0  0  0  0
 46 67  1  0  0  0  0
 47 63  1  0  0  0  0
 48 62  1  0  0  0  0
 49 57  1  0  0  0  0
 50 58  1  0  0  0  0
 51 58  1  0  0  0  0
 52 58  1  0  0  0  0
 53 70  1  0  0  0  0
 54 69  1  0  0  0  0
 55 77  1  0  0  0  0
 56 58  1  0  0  0  0
 56 68  1  0  0  0  0
 57 70  1  0  0  0  0
 61 62  1  0  0  0  0
M  CHG  1  70   1
M  ISO  4  36 100  55 101  69 100  77 101
M  END
> <Batch ID>
0071

> <Smiles>
CNC(C)C(=O)NC(C(=O)N1Cc2cc([101O:1][101CH2:1]c3cnc(C[100NH:0][100C:0](=O)N4CCCC(n5nc(-c6ccc(Oc7ccc(F)cc7F)cc6)c(C(N)=O)c5N)C4)cn3)ccc2CC1C(=O)NC1CCCc2ccccc21)C(C)(C)C

> <Shape>
0.233

> <Color>
0.211

> <Negative vol penalty>
0.000

$$$$

  -OEChem-04052318223D

 86 94  0     1  0  0  0  0  0999 V2000
  -22.0804  -11.6191   19.1717 C   0  0  0  0  0  0  0  0  0  0  0  0
  -21.6355  -12.8188   19.7178 C   0  0  0  0  0  0  0  0  0  0  0  0
  -30.1815  -28.6757   21.2886 C   0  0  0  0  0  0  0  0  0  0  0  0
  -28.9753  -26.5951   21.0580 C   0  0  0  0  0  0  0  0  0  0  0  0
  -23.4164  -11.2448   19.3093 C   0  0  0  0  0  0  0  0  0  0  0  0
  -22.5263  -13.6445   20.4028 C   0  0  0  0  0  0  0  0  0  0  0  0
  -22.5170  -19.7674   20.5286 C   0  0  0  0  0  0  0  0  0  0  0  0
  -31.2082  -28.0067   21.9548 C   0  0  0  0  0  0  0  0  0  0  0  0
  -30.0020  -25.9260   21.7241 C   0  0  0  0  0  0  0  0  0  0  0  0
  -22.0277  -20.6858   21.4565 C   0  0  0  0  0  0  0  0  0  0  0  0
  -34.3132  -26.7854   23.3978 C   0  0  0  0  0  0  0  0  0  0  0  0
  -35.6257  -27.0806   23.0294 C   0  0  0  0  0  0  0  0  0  0  0  0
  -24.2230  -20.8500   22.4427 C   0  0  0  0  0  0  0  0  0  0  0  0
  -35.1582  -26.3462   20.7756 C   0  0  0  0  0  0  0  0  0  0  0  0
  -20.5801  -26.4036   22.7083 C   0  0  0  0  0  0  0  0  0  0  0  0
  -29.0650  -27.9699   20.8402 C   0  0  0  0  0  0  0  0  0  0  0  0
  -27.8904  -28.8797   18.7665 C   0  0  0  0  0  0  0  0  0  0  0  0
  -24.3261  -12.0709   19.9880 C   0  0  0  0  0  0  0  0  0  0  0  0
  -23.8628  -19.3745   20.5578 C   0  0  0  0  0  0  0  0  0  0  0  0
  -23.8754  -13.2803   20.5508 C   0  0  0  0  0  0  0  0  0  0  0  0
  -24.7275  -19.9284   21.5126 C   0  0  0  0  0  0  0  0  0  0  0  0
  -31.1185  -26.6318   22.1726 C   0  0  0  0  0  0  0  0  0  0  0  0
  -22.8800  -21.2250   22.4155 C   0  0  0  0  0  0  0  0  0  0  0  0
  -33.4232  -26.2705   22.4552 C   0  0  0  0  0  0  0  0  0  0  0  0
  -36.0482  -26.8610   21.7183 C   0  0  0  0  0  0  0  0  0  0  0  0
  -33.8457  -26.0509   21.1441 C   0  0  0  0  0  0  0  0  0  0  0  0
  -28.0038  -28.6606   20.1525 C   0  0  0  0  0  0  0  0  0  0  0  0
  -26.7150  -29.5760   18.6240 C   0  0  0  0  0  0  0  0  0  0  0  0
  -20.5919  -27.7324   22.3906 C   0  0  0  0  0  0  0  0  0  0  0  0
  -18.4834  -27.0600   22.4378 C   0  0  0  0  0  0  0  0  0  0  0  0
  -28.7689  -28.4889   17.7030 C   0  0  0  0  0  0  0  0  0  0  0  0
  -25.3866  -16.6212   21.0063 C   0  0  0  0  0  0  0  0  0  0  0  0
  -27.9988  -18.3934   20.2591 C   0  0  0  0  0  0  0  0  0  0  0  0
  -29.4646  -21.4715   20.1063 C   0  0  0  0  0  0  0  0  0  0  0  0
  -21.7491  -29.9221   21.9292 C   0  0  0  0  0  0  0  0  0  0  0  0
  -25.7500  -11.6017   20.1521 C   0  0  0  0  0  0  0  0  0  0  0  0
  -24.3813  -18.4031   19.5331 C   0  0  0  0  0  0  0  0  0  0  0  0
  -26.1854  -19.5549   21.5736 C   0  0  0  0  0  0  0  0  0  0  0  0
  -26.7127  -12.7108   20.5686 C   0  0  0  0  0  0  0  0  0  0  0  0
  -23.8600  -32.6235   20.9682 C   0  0  0  0  0  0  0  0  0  0  0  0
  -26.1202  -13.5311   21.7100 C   0  0  0  0  0  0  0  0  0  0  0  0
  -25.1497  -31.9334   20.5181 C   0  0  0  0  0  0  0  0  0  0  0  0
  -23.2212  -31.9108   22.1589 C   0  0  0  0  0  0  0  0  0  0  0  0
  -24.2849  -29.7817   21.5228 C   0  0  0  0  0  0  0  0  0  0  0  0
  -24.8168  -14.2146   21.2794 C   0  0  1  0  0  0  0  0  0  0  0  0
  -25.6515  -17.6854   19.9792 C   0  0  1  0  0  0  0  0  0  0  0  0
  -24.9303  -30.4258   20.2849 C   0  0  2  0  0  0  0  0  0  0  0  0
  -31.6201  -22.5984   19.4891 C   0  0  0  0  0  0  0  0  0  0  0  0
  -16.3477  -26.6624   23.7133 C   0  0  0  0  0  0  0  0  0  0  0  0
  -16.4808  -26.0744   21.2694 C   0  0  0  0  0  0  0  0  0  0  0  0
  -16.3536  -28.4515   21.9868 C   0  0  0  0  0  0  0  0  0  0  0  0
  -29.2544  -17.4115   22.8609 C   0  0  0  0  0  0  0  0  0  0  0  0
  -30.9351  -19.2567   22.6647 C   0  0  0  0  0  0  0  0  0  0  0  0
  -30.8185  -17.4865   20.9110 C   0  0  0  0  0  0  0  0  0  0  0  0
  -19.0955  -25.0608   25.4846 C   0  0  0  0  0  0  0  0  0  0  0  0
  -18.3220  -22.8044   24.7805 C   0  0  0  0  0  0  0  0  0  0  0  0
  -28.1543  -23.0781   17.9942 C   0  0  0  0  0  0  0  0  0  0  0  0
  -20.6991  -23.4612   24.3437 C   0  0  0  0  0  0  0  0  0  0  0  0
  -18.7740  -24.6167   23.0395 C   0  0  0  0  0  0  0  0  0  0  0  0
  -21.0224  -22.4640   23.2342 C   0  0  0  0  0  0  0  0  0  1  0  0
  -28.9867  -19.2241   21.0420 C   0  0  1  0  0  0  0  0  0  0  0  0
  -30.2470  -22.1609   19.0032 C   0  0  2  0  0  0  0  0  0  0  0  0
  -17.0021  -27.0718   22.3541 C   0  0  0  0  0  0  0  0  0  0  0  0
  -29.9708  -18.3505   21.8700 C   0  0  0  0  0  0  0  0  0  0  0  0
  -19.2379  -23.9835   24.3863 C   0  0  0  0  0  0  0  0  0  0  0  0
  -26.9821  -29.1760   20.8413 N   0  0  0  0  0  0  0  0  0  0  0  0
  -19.2626  -26.0140   22.7311 N   0  0  0  0  0  0  0  0  0  0  0  0
  -26.2155  -29.7260   19.8842 N   0  0  0  0  0  0  0  0  0  0  0  0
  -19.2813  -28.1121   22.2285 N   0  3  0  0  0  0  0  0  0  0  0  0
  -26.6432  -18.5964   20.5542 N   0  0  0  0  0  0  0  0  0  0  0  0
  -23.0400  -30.4878   21.8639 N   0  0  0  0  0  0  0  0  0  0  0  0
  -26.0705  -30.0684   17.5449 N   0  0  0  0  0  0  0  0  0  0  0  0
  -29.9335  -27.7788   18.0252 N   0  0  0  0  0  0  0  0  0  0  0  0
  -21.7296  -28.5658   22.2528 N   0  0  0  0  0  0  0  0  0  0  0  0
  -25.1008  -15.3802   20.4700 N   0  0  0  0  0  0  0  0  0  0  0  0
  -29.6362  -20.1037   20.0761 N   0  0  0  0  0  0  0  0  0  0  0  0
  -29.5128  -23.3654   18.5224 N   0  3  0  0  0  0  0  0  0  0  0  0
  -28.5366  -28.7754   16.5041 O   0  0  0  0  0  0  0  0  0  0  0  0
  -25.4391  -16.9047   22.1974 O   0  0  0  0  0  0  0  0  0  0  0  0
  -28.4142  -17.5989   19.4119 O   0  0  0  0  0  0  0  0  0  0  0  0
  -28.7734  -22.0853   20.9163 O   0  0  0  0  0  0  0  0  0  0  0  0
  -20.7371  -30.5849   21.6873 O   0  0  0  0  0  0  0  0  0  0  0  0
  -32.1203  -25.9786   22.8224 O   0  0  0  0  0  0  0  0  0  0  0  0
  -22.4048  -22.1211   23.3227 O   0  0  0  0  0  0  0  0  0  1  0  0
  -37.3082  -27.1460   21.3642 F   0  0  0  0  0  0  0  0  0  0  0  0
  -32.9949  -25.5575   20.2339 F   0  0  0  0  0  0  0  0  0  0  0  0
  1  2  1  0  0  0  0
  1  5  2  0  0  0  0
  2  6  2  0  0  0  0
  3  8  2  0  0  0  0
  3 16  1  0  0  0  0
  4  9  1  0  0  0  0
  4 16  2  0  0  0  0
  5 18  1  0  0  0  0
  6 20  1  0  0  0  0
  7 10  2  0  0  0  0
  7 19  1  0  0  0  0
  8 22  1  0  0  0  0
  9 22  2  0  0  0  0
 10 23  1  0  0  0  0
 11 12  2  0  0  0  0
 11 24  1  0  0  0  0
 12 25  1  0  0  0  0
 13 21  1  0  0  0  0
 13 23  2  0  0  0  0
 14 25  2  0  0  0  0
 14 26  1  0  0  0  0
 15 29  2  0  0  0  0
 15 67  1  0  0  0  0
 16 27  1  0  0  0  0
 17 27  1  0  0  0  0
 17 28  2  0  0  0  0
 17 31  1  0  0  0  0
 18 20  2  0  0  0  0
 18 36  1  0  0  0  0
 19 21  2  0  0  0  0
 19 37  1  0  0  0  0
 20 45  1  0  0  0  0
 21 38  1  0  0  0  0
 22 83  1  0  0  0  0
 23 84  1  0  0  0  0
 24 26  2  0  0  0  0
 24 83  1  0  0  0  0
 25 85  1  0  0  0  0
 26 86  1  0  0  0  0
 27 66  2  0  0  0  0
 28 68  1  0  0  0  0
 28 72  1  0  0  0  0
 29 69  1  0  0  0  0
 29 74  1  0  0  0  0
 30 63  1  0  0  0  0
 30 67  1  0  0  0  0
 30 69  2  0  0  0  0
 31 73  1  0  0  0  0
 31 78  2  0  0  0  0
 32 46  1  0  0  0  0
 32 75  1  0  0  0  0
 32 79  2  0  0  0  0
 33 61  1  0  0  0  0
 33 70  1  0  0  0  0
 33 80  2  0  0  0  0
 34 62  1  0  0  0  0
 34 76  1  0  0  0  0
 34 81  2  0  0  0  0
 35 71  1  0  0  0  0
 35 74  1  0  0  0  0
 35 82  2  0  0  0  0
 36 39  1  0  0  0  0
 37 46  1  0  0  0  0
 38 70  1  0  0  0  0
 39 41  1  0  0  0  0
 40 42  1  0  0  0  0
 40 43  1  0  0  0  0
 41 45  1  0  0  0  0
 42 47  1  0  0  0  0
 43 71  1  0  0  0  0
 44 47  1  0  0  0  0
 44 71  1  0  0  0  0
 45 75  1  0  0  0  0
 46 70  1  0  0  0  0
 47 68  1  0  0  0  0
 48 62  1  0  0  0  0
 49 63  1  0  0  0  0
 50 63  1  0  0  0  0
 51 63  1  0  0  0  0
 52 64  1  0  0  0  0
 53 64  1  0  0  0  0
 54 64  1  0  0  0  0
 55 65  1  0  0  0  0
 56 65  1  0  0  0  0
 57 77  1  0  0  0  0
 58 60  1  0  0  0  0
 58 65  1  0  0  0  0
 59 65  1  0  0  0  0
 59 67  1  0  0  0  0
 60 84  1  0  0  0  0
 61 64  1  0  0  0  0
 61 76  1  0  0  0  0
 62 77  1  0  0  0  0
 66 68  1  0  0  0  0
M  CHG  2  69   1  77   1
M  ISO  4  35 100  60 101  74 100  84 101
M  END
> <Batch ID>
0071

> <Smiles>
CNC(C)C(=O)NC(C(=O)N1Cc2cc([101O:1][101CH2:1]CC(C)(C)Cn3cc([100NH:0][100C:0](=O)N4CCCC(n5nc(-c6ccc(Oc7ccc(F)cc7F)cc6)c(C(N)=O)c5N)C4)nc3C(C)(C)C)ccc2CC1C(=O)NC1CCCc2ccccc21)C(C)(C)C

> <Shape>
0.244

> <Color>
0.060

> <Negative vol penalty>
0.000

$$$$

  -OEChem-04052318223D

 84 92  0     1  0  0  0  0  0999 V2000
  -20.5581  -25.1631   25.1010 C   0  0  0  0  0  0  0  0  0  0  0  0
  -21.6499  -25.1957   24.2394 C   0  0  0  0  0  0  0  0  0  0  0  0
  -21.9951  -13.4701   21.3835 C   0  0  0  0  0  0  0  0  0  0  0  0
  -22.3770  -13.8493   19.0282 C   0  0  0  0  0  0  0  0  0  0  0  0
  -19.4649  -25.9974   24.8711 C   0  0  0  0  0  0  0  0  0  0  0  0
  -21.6487  -26.0620   23.1467 C   0  0  0  0  0  0  0  0  0  0  0  0
  -26.0499  -28.5065   22.6006 C   0  0  0  0  0  0  0  0  0  0  0  0
  -20.6491  -13.2126   21.1238 C   0  0  0  0  0  0  0  0  0  0  0  0
  -21.0309  -13.5918   18.7685 C   0  0  0  0  0  0  0  0  0  0  0  0
  -27.1052  -27.7976   22.0283 C   0  0  0  0  0  0  0  0  0  0  0  0
  -17.7714  -12.6809   17.4404 C   0  0  0  0  0  0  0  0  0  0  0  0
  -17.4653  -11.8521   16.3611 C   0  0  0  0  0  0  0  0  0  0  0  0
  -26.6705  -28.8708   19.9121 C   0  0  0  0  0  0  0  0  0  0  0  0
  -18.7190  -10.0577   17.3836 C   0  0  0  0  0  0  0  0  0  0  0  0
  -22.8591  -13.7885   20.3356 C   0  0  0  0  0  0  0  0  0  0  0  0
  -25.3050  -13.1238   20.6243 C   0  0  0  0  0  0  0  0  0  0  0  0
  -19.4544  -26.8812   23.7805 C   0  0  0  0  0  0  0  0  0  0  0  0
  -25.2888  -29.3962   21.8290 C   0  0  0  0  0  0  0  0  0  0  0  0
  -20.5538  -26.9079   22.9012 C   0  0  0  0  0  0  0  0  0  0  0  0
  -25.6077  -29.5917   20.4776 C   0  0  0  0  0  0  0  0  0  0  0  0
  -20.1670  -13.2735   19.8163 C   0  0  0  0  0  0  0  0  0  0  0  0
  -27.4138  -27.9776   20.6832 C   0  0  0  0  0  0  0  0  0  0  0  0
  -18.5513  -12.1982   18.4913 C   0  0  0  0  0  0  0  0  0  0  0  0
  -17.9391  -10.5405   16.3326 C   0  0  0  0  0  0  0  0  0  0  0  0
  -19.0251  -10.8866   18.4629 C   0  0  0  0  0  0  0  0  0  0  0  0
  -24.2496  -14.0551   20.6033 C   0  0  0  0  0  0  0  0  0  0  0  0
  -30.5378  -21.4104   19.4827 C   0  0  0  0  0  0  0  0  0  0  0  0
  -31.7390  -20.8041   19.8582 C   0  0  0  0  0  0  0  0  0  0  0  0
  -26.4172  -13.8720   20.9242 C   0  0  0  0  0  0  0  0  0  0  0  0
  -25.2822  -11.7090   20.3932 C   0  0  0  0  0  0  0  0  0  0  0  0
  -22.2335  -29.5730   20.9701 C   0  0  0  0  0  0  0  0  0  0  0  0
  -23.1512  -32.4262   19.7295 C   0  0  0  0  0  0  0  0  0  0  0  0
  -25.6709  -34.3816   18.5153 C   0  0  0  0  0  0  0  0  0  0  0  0
  -29.5593  -18.1846   20.1936 C   0  0  0  0  0  0  0  0  0  0  0  0
  -18.2300  -27.7300   23.5458 C   0  0  0  0  0  0  0  0  0  0  0  0
  -24.1706  -30.1733   22.4679 C   0  0  0  0  0  0  0  0  0  0  0  0
  -24.8342  -30.5503   19.6109 C   0  0  0  0  0  0  0  0  0  0  0  0
  -18.4674  -28.8874   22.5791 C   0  0  0  0  0  0  0  0  0  0  0  0
  -26.8664  -18.6361   22.5164 C   0  0  0  0  0  0  0  0  0  0  0  0
  -19.2204  -28.4049   21.3433 C   0  0  0  0  0  0  0  0  0  0  0  0
  -26.0097  -17.4117   22.2044 C   0  0  0  0  0  0  0  0  0  0  0  0
  -27.4920  -19.2419   21.2582 C   0  0  0  0  0  0  0  0  0  0  0  0
  -27.3909  -17.0373   20.1305 C   0  0  0  0  0  0  0  0  0  0  0  0
  -20.6003  -27.8517   21.7192 C   0  0  1  0  0  0  0  0  0  0  0  0
  -23.1363  -30.6688   21.4618 C   0  0  1  0  0  0  0  0  0  0  0  0
  -26.8090  -16.3810   21.3910 C   0  0  2  0  0  0  0  0  0  0  0  0
  -32.9299  -22.2465   22.3145 C   0  0  0  0  0  0  0  0  0  0  0  0
  -33.7060  -20.7883   17.4784 C   0  0  0  0  0  0  0  0  0  0  0  0
  -26.1070  -36.6530   17.5418 C   0  0  0  0  0  0  0  0  0  0  0  0
  -21.9515  -31.5164   17.0756 C   0  0  0  0  0  0  0  0  0  0  0  0
  -23.2277  -33.3523   15.9492 C   0  0  0  0  0  0  0  0  0  0  0  0
  -21.4991  -33.9055   17.6605 C   0  0  0  0  0  0  0  0  0  0  0  0
  -27.5031  -35.1043   20.7243 C   0  0  0  0  0  0  0  0  0  0  0  0
  -30.2829  -22.8217   19.0168 C   0  0  0  0  0  0  0  0  0  0  0  0
  -33.7257  -21.3872   21.3390 C   0  0  0  0  0  0  0  0  0  0  0  0
  -34.1102  -20.6646   18.9428 C   0  0  0  0  0  0  0  0  0  0  0  0
  -29.6477  -23.7206   20.0835 C   0  0  0  0  0  0  0  0  0  0  0  0
  -29.3262  -25.1245   19.5692 C   0  0  0  0  0  0  0  0  0  0  0  0
  -28.7342  -25.9996   20.6656 C   0  0  0  0  0  0  0  0  0  1  0  0
  -33.0945  -21.3700   19.9051 C   0  0  0  0  0  0  0  0  0  0  0  0
  -23.6931  -32.8886   18.3985 C   0  0  1  0  0  0  0  0  0  0  0  0
  -26.0636  -35.8177   18.8118 C   0  0  2  0  0  0  0  0  0  0  0  0
  -22.6064  -32.8961   17.2865 C   0  0  0  0  0  0  0  0  0  0  0  0
  -24.6548  -15.2998   20.8689 N   0  0  0  0  0  0  0  0  0  0  0  0
  -29.5375  -20.5320   19.5721 N   0  0  0  0  0  0  0  0  0  0  0  0
  -31.5208  -19.5308   20.1923 N   0  0  0  0  0  0  0  0  0  0  0  0
  -25.9773  -15.1558   21.0597 N   0  0  0  0  0  0  0  0  0  0  0  0
  -30.1733  -19.4310   20.0451 N   0  0  0  0  0  0  0  0  0  0  0  0
  -23.7459  -31.2821   20.2801 N   0  0  0  0  0  0  0  0  0  0  0  0
  -28.1912  -18.2179   20.4639 N   0  0  0  0  0  0  0  0  0  0  0  0
  -27.7186  -13.5502   21.0826 N   0  0  0  0  0  0  0  0  0  0  0  0
  -24.0551  -11.1001   20.0970 N   0  0  0  0  0  0  0  0  0  0  0  0
  -21.5272  -28.9342   21.9715 N   0  0  0  0  0  0  0  0  0  0  0  0
  -24.3112  -34.1881   18.6387 N   0  0  0  0  0  0  0  0  0  0  0  0
  -27.4085  -35.8653   19.4519 N   0  3  0  0  0  0  0  0  0  0  0  0
  -26.3167  -11.0030   20.4640 O   0  0  0  0  0  0  0  0  0  0  0  0
  -22.1803  -29.3263   19.7710 O   0  0  0  0  0  0  0  0  0  0  0  0
  -22.2388  -33.0610   20.2645 O   0  0  0  0  0  0  0  0  0  0  0  0
  -26.4880  -33.5188   18.2017 O   0  0  0  0  0  0  0  0  0  0  0  0
  -30.2506  -17.1896   20.0104 O   0  0  0  0  0  0  0  0  0  0  0  0
  -18.8536  -13.0220   19.5626 O   0  0  0  0  0  0  0  0  0  0  0  0
  -28.4430  -27.2864   20.1219 O   0  0  0  0  0  0  0  0  0  1  0  0
  -17.6439   -9.7442   15.2968 F   0  0  0  0  0  0  0  0  0  0  0  0
  -19.7738  -10.4168   19.4701 F   0  0  0  0  0  0  0  0  0  0  0  0
  1  2  1  0  0  0  0
  1  5  2  0  0  0  0
  2  6  2  0  0  0  0
  3  8  2  0  0  0  0
  3 15  1  0  0  0  0
  4  9  1  0  0  0  0
  4 15  2  0  0  0  0
  5 17  1  0  0  0  0
  6 19  1  0  0  0  0
  7 10  2  0  0  0  0
  7 18  1  0  0  0  0
  8 21  1  0  0  0  0
  9 21  2  0  0  0  0
 10 22  1  0  0  0  0
 11 12  2  0  0  0  0
 11 23  1  0  0  0  0
 12 24  1  0  0  0  0
 13 20  1  0  0  0  0
 13 22  2  0  0  0  0
 14 24  2  0  0  0  0
 14 25  1  0  0  0  0
 15 26  1  0  0  0  0
 16 26  1  0  0  0  0
 16 29  2  0  0  0  0
 16 30  1  0  0  0  0
 17 19  2  0  0  0  0
 17 35  1  0  0  0  0
 18 20  2  0  0  0  0
 18 36  1  0  0  0  0
 19 44  1  0  0  0  0
 20 37  1  0  0  0  0
 21 81  1  0  0  0  0
 22 82  1  0  0  0  0
 23 25  2  0  0  0  0
 23 81  1  0  0  0  0
 24 83  1  0  0  0  0
 25 84  1  0  0  0  0
 26 64  2  0  0  0  0
 27 28  1  0  0  0  0
 27 54  1  0  0  0  0
 27 65  2  0  0  0  0
 28 60  1  0  0  0  0
 28 66  2  0  0  0  0
 29 67  1  0  0  0  0
 29 71  1  0  0  0  0
 30 72  1  0  0  0  0
 30 76  2  0  0  0  0
 31 45  1  0  0  0  0
 31 73  1  0  0  0  0
 31 77  2  0  0  0  0
 32 61  1  0  0  0  0
 32 69  1  0  0  0  0
 32 78  2  0  0  0  0
 33 62  1  0  0  0  0
 33 74  1  0  0  0  0
 33 79  2  0  0  0  0
 34 68  1  0  0  0  0
 34 70  1  0  0  0  0
 34 80  2  0  0  0  0
 35 38  1  0  0  0  0
 36 45  1  0  0  0  0
 37 69  1  0  0  0  0
 38 40  1  0  0  0  0
 39 41  1  0  0  0  0
 39 42  1  0  0  0  0
 40 44  1  0  0  0  0
 41 46  1  0  0  0  0
 42 70  1  0  0  0  0
 43 46  1  0  0  0  0
 43 70  1  0  0  0  0
 44 73  1  0  0  0  0
 45 69  1  0  0  0  0
 46 67  1  0  0  0  0
 47 55  1  0  0  0  0
 48 56  1  0  0  0  0
 49 62  1  0  0  0  0
 50 63  1  0  0  0  0
 51 63  1  0  0  0  0
 52 63  1  0  0  0  0
 53 75  1  0  0  0  0
 54 57  1  0  0  0  0
 55 60  1  0  0  0  0
 56 60  1  0  0  0  0
 57 58  1  0  0  0  0
 58 59  1  0  0  0  0
 59 82  1  0  0  0  0
 61 63  1  0  0  0  0
 61 74  1  0  0  0  0
 62 75  1  0  0  0  0
 64 67  1  0  0  0  0
 65 68  1  0  0  0  0
 66 68  1  0  0  0  0
M  CHG  1  75   1
M  ISO  4  34 100  59 101  68 100  82 101
M  END
> <Batch ID>
0071

> <Smiles>
CCC(CC)c1n[100n:0]([100C:0](=O)N2CCCC(n3nc(-c4ccc(Oc5ccc(F)cc5F)cc4)c(C(N)=O)c3N)C2)nc1CCC[101CH2:1][101O:1]c1ccc2c(c1)CN(C(=O)C(NC(=O)C(C)NC)C(C)(C)C)C(C(=O)NC1CCCc3ccccc31)C2

> <Shape>
0.218

> <Color>
0.122

> <Negative vol penalty>
0.000

$$$$

  -OEChem-04052318223D

 88 96  0     1  0  0  0  0  0999 V2000
  -29.1537  -28.3649   18.9115 C   0  0  0  0  0  0  0  0  0  0  0  0
  -30.0443  -27.6373   19.6944 C   0  0  0  0  0  0  0  0  0  0  0  0
  -23.0623   -9.8674   19.9462 C   0  0  0  0  0  0  0  0  0  0  0  0
  -23.8552   -9.8630   22.2284 C   0  0  0  0  0  0  0  0  0  0  0  0
  -28.2213  -27.6992   18.1168 C   0  0  0  0  0  0  0  0  0  0  0  0
  -30.0023  -26.2436   19.6839 C   0  0  0  0  0  0  0  0  0  0  0  0
  -34.7533  -22.4132   20.1955 C   0  0  0  0  0  0  0  0  0  0  0  0
  -22.3270   -8.7095   20.1994 C   0  0  0  0  0  0  0  0  0  0  0  0
  -23.1198   -8.7051   22.4816 C   0  0  0  0  0  0  0  0  0  0  0  0
  -35.2727  -21.7021   21.2764 C   0  0  0  0  0  0  0  0  0  0  0  0
  -22.9173   -5.3917   20.4605 C   0  0  0  0  0  0  0  0  0  0  0  0
  -22.9750   -4.3685   19.5144 C   0  0  0  0  0  0  0  0  0  0  0  0
  -34.0138  -19.7601   20.5959 C   0  0  0  0  0  0  0  0  0  0  0  0
  -20.5849   -4.5263   19.1982 C   0  0  0  0  0  0  0  0  0  0  0  0
  -30.8715  -14.6019   25.6128 C   0  0  0  0  0  0  0  0  0  0  0  0
  -23.8265  -10.4441   20.9607 C   0  0  0  0  0  0  0  0  0  0  0  0
  -24.1559  -12.9715   20.8521 C   0  0  0  0  0  0  0  0  0  0  0  0
  -28.1742  -26.2965   18.0892 C   0  0  0  0  0  0  0  0  0  0  0  0
  -33.8503  -21.8054   19.3115 C   0  0  0  0  0  0  0  0  0  0  0  0
  -29.0675  -25.5585   18.8892 C   0  0  0  0  0  0  0  0  0  0  0  0
  -33.4864  -20.4649   19.5031 C   0  0  0  0  0  0  0  0  0  0  0  0
  -22.3557   -8.1283   21.4671 C   0  0  0  0  0  0  0  0  0  0  0  0
  -34.9008  -20.3763   21.4784 C   0  0  0  0  0  0  0  0  0  0  0  0
  -21.6935   -5.9823   20.7756 C   0  0  0  0  0  0  0  0  0  0  0  0
  -21.8088   -3.9358   18.8832 C   0  0  0  0  0  0  0  0  0  0  0  0
  -20.5273   -5.5496   20.1444 C   0  0  0  0  0  0  0  0  0  0  0  0
  -24.5867  -11.6399   20.6996 C   0  0  0  0  0  0  0  0  0  0  0  0
  -29.5968  -14.6238   25.0845 C   0  0  0  0  0  0  0  0  0  0  0  0
  -31.8833  -14.9607   24.7458 C   0  0  0  0  0  0  0  0  0  0  0  0
  -25.2396  -13.7279   20.4780 C   0  0  0  0  0  0  0  0  0  0  0  0
  -30.3914  -15.2976   23.0642 C   0  0  0  0  0  0  0  0  0  0  0  0
  -22.8895  -13.4791   21.2926 C   0  0  0  0  0  0  0  0  0  0  0  0
  -30.8323  -22.3396   18.4689 C   0  0  0  0  0  0  0  0  0  0  0  0
  -30.7437  -14.7023   20.6902 C   0  0  0  0  0  0  0  0  0  0  0  0
  -31.4253  -19.9858   16.3171 C   0  0  0  0  0  0  0  0  0  0  0  0
  -33.2742  -17.2513   15.4503 C   0  0  0  0  0  0  0  0  0  0  0  0
  -27.1175  -25.6220   17.2507 C   0  0  0  0  0  0  0  0  0  0  0  0
  -33.3198  -22.5780   18.1350 C   0  0  0  0  0  0  0  0  0  0  0  0
  -32.5360  -19.7602   18.5712 C   0  0  0  0  0  0  0  0  0  0  0  0
  -27.3861  -24.1387   17.0098 C   0  0  0  0  0  0  0  0  0  0  0  0
  -29.5527  -12.4167   18.2007 C   0  0  0  0  0  0  0  0  0  0  0  0
  -27.7782  -23.4488   18.3126 C   0  0  0  0  0  0  0  0  0  0  0  0
  -28.1301  -12.0970   18.6581 C   0  0  0  0  0  0  0  0  0  0  0  0
  -30.4895  -12.6156   19.3880 C   0  0  0  0  0  0  0  0  0  0  0  0
  -28.6035  -13.3332   20.8197 C   0  0  0  0  0  0  0  0  0  0  0  0
  -29.0694  -24.0452   18.8858 C   0  0  1  0  0  0  0  0  0  0  0  0
  -32.0093  -22.0158   17.5928 C   0  0  1  0  0  0  0  0  0  0  0  0
  -27.6179  -13.1551   19.6513 C   0  0  2  0  0  0  0  0  0  0  0  0
  -28.4371  -14.2519   25.9465 C   0  0  0  0  0  0  0  0  0  0  0  0
  -34.0206  -13.6350   25.0056 C   0  0  0  0  0  0  0  0  0  0  0  0
  -33.5007  -15.5161   13.6516 C   0  0  0  0  0  0  0  0  0  0  0  0
  -28.9553  -18.5527   17.3918 C   0  0  0  0  0  0  0  0  0  0  0  0
  -29.7633  -16.4659   16.2691 C   0  0  0  0  0  0  0  0  0  0  0  0
  -29.2050  -18.4781   14.9045 C   0  0  0  0  0  0  0  0  0  0  0  0
  -36.3886  -18.0360   24.7128 C   0  0  0  0  0  0  0  0  0  0  0  0
  -34.6918  -19.7571   25.3461 C   0  0  0  0  0  0  0  0  0  0  0  0
  -36.0401  -18.0962   14.8223 C   0  0  0  0  0  0  0  0  0  0  0  0
  -30.6115  -17.0977   21.2667 C   0  0  0  0  0  0  0  0  0  0  0  0
  -33.9885  -17.3736   25.2323 C   0  0  0  0  0  0  0  0  0  0  0  0
  -34.5835  -18.6540   23.0874 C   0  0  0  0  0  0  0  0  0  1  0  0
  -33.3137  -14.9687   25.2337 C   0  0  1  0  0  0  0  0  0  0  0  0
  -30.1252  -15.6876   21.6497 C   0  0  2  0  0  0  0  0  0  0  0  0
  -31.3018  -18.4812   16.3172 C   0  0  1  0  0  0  0  0  0  0  0  0
  -33.9672  -16.8738   14.1535 C   0  0  2  0  0  0  0  0  0  0  0  0
  -29.8228  -18.0080   16.2395 C   0  0  0  0  0  0  0  0  0  0  0  0
  -34.9066  -18.4334   24.5819 C   0  0  0  0  0  0  0  0  0  0  0  0
  -25.8458  -11.5522   20.2626 N   0  0  0  0  0  0  0  0  0  0  0  0
  -29.3195  -14.9679   23.8098 N   0  0  0  0  0  0  0  0  0  0  0  0
  -31.6784  -15.3153   23.4603 N   0  0  0  0  0  0  0  0  0  0  0  0
  -26.2155  -12.8382   20.1371 N   0  0  0  0  0  0  0  0  0  0  0  0
  -32.0395  -20.5599   17.4392 N   0  0  0  0  0  0  0  0  0  0  0  0
  -29.9568  -13.6117   20.3193 N   0  0  0  0  0  0  0  0  0  0  0  0
  -25.4433  -15.0607   20.4106 N   0  0  0  0  0  0  0  0  0  0  0  0
  -21.8864  -12.5635   21.6385 N   0  0  0  0  0  0  0  0  0  0  0  0
  -30.2209  -23.5417   18.1681 N   0  0  0  0  0  0  0  0  0  0  0  0
  -32.1405  -18.0027   15.2236 N   0  0  0  0  0  0  0  0  0  0  0  0
  -29.9556  -18.1080   22.1348 N   0  3  0  0  0  0  0  0  0  0  0  0
  -35.4433  -16.8198   14.3517 N   0  3  0  0  0  0  0  0  0  0  0  0
  -34.1307  -16.0395   24.5999 N   0  3  0  0  0  0  0  0  0  0  0  0
  -22.6489  -14.7083   21.3613 O   0  0  0  0  0  0  0  0  0  0  0  0
  -30.5023  -21.5560   19.3514 O   0  0  0  0  0  0  0  0  0  0  0  0
  -31.8910  -14.8993   20.2813 O   0  0  0  0  0  0  0  0  0  0  0  0
  -30.9993  -20.6275   15.3536 O   0  0  0  0  0  0  0  0  0  0  0  0
  -33.6943  -16.9103   16.5538 O   0  0  0  0  0  0  0  0  0  0  0  0
  -21.6381   -6.9986   21.7146 O   0  0  0  0  0  0  0  0  0  0  0  0
  -35.4057  -19.6801   22.5330 O   0  0  0  0  0  0  0  0  0  1  0  0
  -21.8645   -2.9542   17.9735 F   0  0  0  0  0  0  0  0  0  0  0  0
  -19.3488   -6.1139   20.4420 F   0  0  0  0  0  0  0  0  0  0  0  0
  1  2  1  0  0  0  0
  1  5  2  0  0  0  0
  2  6  2  0  0  0  0
  3  8  2  0  0  0  0
  3 16  1  0  0  0  0
  4  9  1  0  0  0  0
  4 16  2  0  0  0  0
  5 18  1  0  0  0  0
  6 20  1  0  0  0  0
  7 10  2  0  0  0  0
  7 19  1  0  0  0  0
  8 22  1  0  0  0  0
  9 22  2  0  0  0  0
 10 23  1  0  0  0  0
 11 12  2  0  0  0  0
 11 24  1  0  0  0  0
 12 25  1  0  0  0  0
 13 21  1  0  0  0  0
 13 23  2  0  0  0  0
 14 25  2  0  0  0  0
 14 26  1  0  0  0  0
 15 28  2  0  0  0  0
 15 29  1  0  0  0  0
 16 27  1  0  0  0  0
 17 27  1  0  0  0  0
 17 30  2  0  0  0  0
 17 32  1  0  0  0  0
 18 20  2  0  0  0  0
 18 37  1  0  0  0  0
 19 21  2  0  0  0  0
 19 38  1  0  0  0  0
 20 46  1  0  0  0  0
 21 39  1  0  0  0  0
 22 85  1  0  0  0  0
 23 86  1  0  0  0  0
 24 26  2  0  0  0  0
 24 85  1  0  0  0  0
 25 87  1  0  0  0  0
 26 88  1  0  0  0  0
 27 67  2  0  0  0  0
 28 49  1  0  0  0  0
 28 68  1  0  0  0  0
 29 61  1  0  0  0  0
 29 69  2  0  0  0  0
 30 70  1  0  0  0  0
 30 73  1  0  0  0  0
 31 62  1  0  0  0  0
 31 68  2  0  0  0  0
 31 69  1  0  0  0  0
 32 74  1  0  0  0  0
 32 80  2  0  0  0  0
 33 47  1  0  0  0  0
 33 75  1  0  0  0  0
 33 81  2  0  0  0  0
 34 62  1  0  0  0  0
 34 72  1  0  0  0  0
 34 82  2  0  0  0  0
 35 63  1  0  0  0  0
 35 71  1  0  0  0  0
 35 83  2  0  0  0  0
 36 64  1  0  0  0  0
 36 76  1  0  0  0  0
 36 84  2  0  0  0  0
 37 40  1  0  0  0  0
 38 47  1  0  0  0  0
 39 71  1  0  0  0  0
 40 42  1  0  0  0  0
 41 43  1  0  0  0  0
 41 44  1  0  0  0  0
 42 46  1  0  0  0  0
 43 48  1  0  0  0  0
 44 72  1  0  0  0  0
 45 48  1  0  0  0  0
 45 72  1  0  0  0  0
 46 75  1  0  0  0  0
 47 71  1  0  0  0  0
 48 70  1  0  0  0  0
 50 61  1  0  0  0  0
 51 64  1  0  0  0  0
 52 65  1  0  0  0  0
 53 65  1  0  0  0  0
 54 65  1  0  0  0  0
 55 66  1  0  0  0  0
 56 66  1  0  0  0  0
 57 78  1  0  0  0  0
 58 62  1  0  0  0  0
 58 77  1  0  0  0  0
 59 66  1  0  0  0  0
 59 79  1  0  0  0  0
 60 66  1  0  0  0  0
 60 86  1  0  0  0  0
 61 79  1  0  0  0  0
 63 65  1  0  0  0  0
 63 76  1  0  0  0  0
 64 78  1  0  0  0  0
 67 70  1  0  0  0  0
M  CHG  3  77   1  78   1  79   1
M  ISO  4  34 100  60 101  62 100  86 101
M  END
> <Batch ID>
0071

> <Smiles>
CNC(C)C(=O)NC(C(=O)N1Cc2cc([101O:1][101CH2:1]C(C)(C)CNC(C)c3cc(C)nc([100CH:0](CN)[100C:0](=O)N4CCCC(n5nc(-c6ccc(Oc7ccc(F)cc7F)cc6)c(C(N)=O)c5N)C4)n3)ccc2CC1C(=O)NC1CCCc2ccccc21)C(C)(C)C

> <Shape>
0.205

> <Color>
0.177

> <Negative vol penalty>
0.000

$$$$

  -OEChem-04052318223D

 85 93  0     1  0  0  0  0  0999 V2000
  -22.0813  -11.2583   20.8151 C   0  0  0  0  0  0  0  0  0  0  0  0
  -21.8066  -12.5137   21.3480 C   0  0  0  0  0  0  0  0  0  0  0  0
  -28.8366  -26.0881   20.9305 C   0  0  0  0  0  0  0  0  0  0  0  0
  -26.8704  -24.9413   20.1206 C   0  0  0  0  0  0  0  0  0  0  0  0
  -23.3841  -10.9308   20.4416 C   0  0  0  0  0  0  0  0  0  0  0  0
  -22.8347  -13.4419   21.5087 C   0  0  0  0  0  0  0  0  0  0  0  0
  -22.4336  -19.5224   20.8990 C   0  0  0  0  0  0  0  0  0  0  0  0
  -29.4606  -24.8608   21.1536 C   0  0  0  0  0  0  0  0  0  0  0  0
  -27.4944  -23.7139   20.3436 C   0  0  0  0  0  0  0  0  0  0  0  0
  -22.2913  -20.5511   21.8293 C   0  0  0  0  0  0  0  0  0  0  0  0
  -31.4362  -22.0206   22.2734 C   0  0  0  0  0  0  0  0  0  0  0  0
  -32.1145  -21.8460   23.4797 C   0  0  0  0  0  0  0  0  0  0  0  0
  -24.6797  -20.8893   21.8117 C   0  0  0  0  0  0  0  0  0  0  0  0
  -30.0609  -22.2368   24.6910 C   0  0  0  0  0  0  0  0  0  0  0  0
  -20.6847  -26.3181   24.0686 C   0  0  0  0  0  0  0  0  0  0  0  0
  -19.6828  -24.8152   22.8060 C   0  0  0  0  0  0  0  0  0  0  0  0
  -27.5414  -26.1284   20.4140 C   0  0  0  0  0  0  0  0  0  0  0  0
  -26.9315  -28.1665   19.0063 C   0  0  0  0  0  0  0  0  0  0  0  0
  -24.4270  -11.8588   20.5888 C   0  0  0  0  0  0  0  0  0  0  0  0
  -23.7032  -19.1617   20.4255 C   0  0  0  0  0  0  0  0  0  0  0  0
  -24.1529  -13.1260   21.1381 C   0  0  0  0  0  0  0  0  0  0  0  0
  -24.8352  -19.8575   20.8735 C   0  0  0  0  0  0  0  0  0  0  0  0
  -28.7895  -23.6737   20.8601 C   0  0  0  0  0  0  0  0  0  0  0  0
  -23.4147  -21.2327   22.2880 C   0  0  0  0  0  0  0  0  0  0  0  0
  -30.0703  -22.3035   22.2759 C   0  0  0  0  0  0  0  0  0  0  0  0
  -31.4268  -21.9540   24.6884 C   0  0  0  0  0  0  0  0  0  0  0  0
  -29.3827  -22.4115   23.4847 C   0  0  0  0  0  0  0  0  0  0  0  0
  -26.8961  -27.3959   20.1839 C   0  0  0  0  0  0  0  0  0  0  0  0
  -19.5890  -26.8483   23.4291 C   0  0  0  0  0  0  0  0  0  0  0  0
  -26.1674  -29.2706   19.2953 C   0  0  0  0  0  0  0  0  0  0  0  0
  -27.5956  -27.9073   17.7623 C   0  0  0  0  0  0  0  0  0  0  0  0
  -25.4740  -16.5245   20.5401 C   0  0  0  0  0  0  0  0  0  0  0  0
  -27.4334  -18.2234   18.5915 C   0  0  0  0  0  0  0  0  0  0  0  0
  -29.0918  -21.2525   17.5467 C   0  0  0  0  0  0  0  0  0  0  0  0
  -21.7216  -30.2478   23.1853 C   0  0  0  0  0  0  0  0  0  0  0  0
  -25.8275  -11.4424   20.2148 C   0  0  0  0  0  0  0  0  0  0  0  0
  -23.8372  -18.0677   19.4019 C   0  0  0  0  0  0  0  0  0  0  0  0
  -26.2185  -19.5223   20.3810 C   0  0  0  0  0  0  0  0  0  0  0  0
  -26.7934  -12.6155   20.0695 C   0  0  0  0  0  0  0  0  0  0  0  0
  -24.8003  -32.0224   22.9627 C   0  0  0  0  0  0  0  0  0  0  0  0
  -26.6494  -13.5747   21.2468 C   0  0  0  0  0  0  0  0  0  0  0  0
  -25.6897  -31.1075   22.1190 C   0  0  0  0  0  0  0  0  0  0  0  0
  -23.8869  -31.2233   23.8897 C   0  0  0  0  0  0  0  0  0  0  0  0
  -23.9587  -29.2807   22.3748 C   0  0  0  0  0  0  0  0  0  0  0  0
  -25.2368  -14.1687   21.3049 C   0  0  1  0  0  0  0  0  0  0  0  0
  -25.2281  -17.4413   19.3754 C   0  0  1  0  0  0  0  0  0  0  0  0
  -24.8579  -30.0394   21.3838 C   0  0  2  0  0  0  0  0  0  0  0  0
  -30.5541  -22.3810   15.8480 C   0  0  0  0  0  0  0  0  0  0  0  0
  -23.3712  -24.3298   22.0471 C   0  0  0  0  0  0  0  0  0  0  0  0
  -19.3091  -28.9815   24.8670 C   0  0  0  0  0  0  0  0  0  0  0  0
  -17.5040  -28.2416   23.3340 C   0  0  0  0  0  0  0  0  0  0  0  0
  -29.6925  -17.6325   20.5554 C   0  0  0  0  0  0  0  0  0  0  0  0
  -31.0161  -19.4630   19.4758 C   0  0  0  0  0  0  0  0  0  0  0  0
  -30.3359  -17.4661   18.1445 C   0  0  0  0  0  0  0  0  0  0  0  0
  -22.8492  -24.5131   25.0575 C   0  0  0  0  0  0  0  0  0  0  0  0
  -21.0493  -22.8307   24.8491 C   0  0  0  0  0  0  0  0  0  0  0  0
  -26.7622  -22.4353   16.1564 C   0  0  0  0  0  0  0  0  0  0  0  0
  -19.6357  -29.1702   22.3811 C   0  0  0  0  0  0  0  0  0  0  0  0
  -28.5890  -19.1719   18.8008 C   0  0  1  0  0  0  0  0  0  0  0  0
  -29.1778  -21.8004   16.1336 C   0  0  2  0  0  0  0  0  0  0  0  0
  -22.4780  -23.3544   22.8143 C   0  0  2  0  0  0  0  0  0  1  0  0
  -19.0656  -28.2206   23.5066 C   0  0  0  0  0  0  0  0  0  0  0  0
  -29.8827  -18.4386   19.2550 C   0  0  0  0  0  0  0  0  0  0  0  0
  -21.7798  -23.9635   24.0785 C   0  0  0  0  0  0  0  0  0  0  0  0
  -18.9695  -25.9076   22.6449 N   0  0  0  0  0  0  0  0  0  0  0  0
  -26.1673  -27.9626   21.1492 N   0  0  0  0  0  0  0  0  0  0  0  0
  -20.7317  -25.0150   23.6600 N   0  0  0  0  0  0  0  0  0  0  0  0
  -25.7378  -29.1011   20.5786 N   0  0  0  0  0  0  0  0  0  0  0  0
  -26.2983  -18.4407   19.3853 N   0  0  0  0  0  0  0  0  0  0  0  0
  -23.1251  -30.2291   23.1301 N   0  0  0  0  0  0  0  0  0  0  0  0
  -25.8278  -30.3603   18.5745 N   0  0  0  0  0  0  0  0  0  0  0  0
  -28.3383  -26.7256   17.6349 N   0  0  0  0  0  0  0  0  0  0  0  0
  -25.0882  -15.2164   20.3176 N   0  0  0  0  0  0  0  0  0  0  0  0
  -28.7323  -19.9213   17.5573 N   0  0  0  0  0  0  0  0  0  0  0  0
  -21.0770  -29.2751   22.4310 N   0  0  0  0  0  0  0  0  0  0  0  0
  -28.1638  -22.8736   15.9316 N   0  3  0  0  0  0  0  0  0  0  0  0
  -27.5458  -28.7081   16.7980 O   0  0  0  0  0  0  0  0  0  0  0  0
  -25.9781  -16.9704   21.5642 O   0  0  0  0  0  0  0  0  0  0  0  0
  -27.5314  -17.3272   17.7495 O   0  0  0  0  0  0  0  0  0  0  0  0
  -29.3241  -21.9359   18.5414 O   0  0  0  0  0  0  0  0  0  0  0  0
  -21.0898  -31.0738   23.8528 O   0  0  0  0  0  0  0  0  0  0  0  0
  -29.3982  -22.4758   21.0775 O   0  0  0  0  0  0  0  0  0  0  0  0
  -23.2786  -22.2367   23.1965 O   0  0  0  0  0  0  0  0  0  1  0  0
  -32.0780  -21.7847   25.8467 F   0  0  0  0  0  0  0  0  0  0  0  0
  -28.0702  -22.6818   23.4934 F   0  0  0  0  0  0  0  0  0  0  0  0
  1  2  1  0  0  0  0
  1  5  2  0  0  0  0
  2  6  2  0  0  0  0
  3  8  2  0  0  0  0
  3 17  1  0  0  0  0
  4  9  1  0  0  0  0
  4 17  2  0  0  0  0
  5 19  1  0  0  0  0
  6 21  1  0  0  0  0
  7 10  2  0  0  0  0
  7 20  1  0  0  0  0
  8 23  1  0  0  0  0
  9 23  2  0  0  0  0
 10 24  1  0  0  0  0
 11 12  2  0  0  0  0
 11 25  1  0  0  0  0
 12 26  1  0  0  0  0
 13 22  1  0  0  0  0
 13 24  2  0  0  0  0
 14 26  2  0  0  0  0
 14 27  1  0  0  0  0
 15 29  2  0  0  0  0
 15 67  1  0  0  0  0
 16 65  2  0  0  0  0
 16 67  1  0  0  0  0
 17 28  1  0  0  0  0
 18 28  1  0  0  0  0
 18 30  2  0  0  0  0
 18 31  1  0  0  0  0
 19 21  2  0  0  0  0
 19 36  1  0  0  0  0
 20 22  2  0  0  0  0
 20 37  1  0  0  0  0
 21 45  1  0  0  0  0
 22 38  1  0  0  0  0
 23 82  1  0  0  0  0
 24 83  1  0  0  0  0
 25 27  2  0  0  0  0
 25 82  1  0  0  0  0
 26 84  1  0  0  0  0
 27 85  1  0  0  0  0
 28 66  2  0  0  0  0
 29 62  1  0  0  0  0
 29 65  1  0  0  0  0
 30 68  1  0  0  0  0
 30 71  1  0  0  0  0
 31 72  1  0  0  0  0
 31 77  2  0  0  0  0
 32 46  1  0  0  0  0
 32 73  1  0  0  0  0
 32 78  2  0  0  0  0
 33 59  1  0  0  0  0
 33 69  1  0  0  0  0
 33 79  2  0  0  0  0
 34 60  1  0  0  0  0
 34 74  1  0  0  0  0
 34 80  2  0  0  0  0
 35 70  1  0  0  0  0
 35 75  1  0  0  0  0
 35 81  2  0  0  0  0
 36 39  1  0  0  0  0
 37 46  1  0  0  0  0
 38 69  1  0  0  0  0
 39 41  1  0  0  0  0
 40 42  1  0  0  0  0
 40 43  1  0  0  0  0
 41 45  1  0  0  0  0
 42 47  1  0  0  0  0
 43 70  1  0  0  0  0
 44 47  1  0  0  0  0
 44 70  1  0  0  0  0
 45 73  1  0  0  0  0
 46 69  1  0  0  0  0
 47 68  1  0  0  0  0
 48 60  1  0  0  0  0
 49 61  1  0  0  0  0
 50 62  1  0  0  0  0
 51 62  1  0  0  0  0
 52 63  1  0  0  0  0
 53 63  1  0  0  0  0
 54 63  1  0  0  0  0
 55 64  1  0  0  0  0
 56 64  1  0  0  0  0
 57 76  1  0  0  0  0
 58 62  1  0  0  0  0
 58 75  1  0  0  0  0
 59 63  1  0  0  0  0
 59 74  1  0  0  0  0
 60 76  1  0  0  0  0
 61 64  1  0  0  0  0
 61 83  1  0  0  0  0
 64 67  1  0  0  0  0
 66 68  1  0  0  0  0
M  CHG  1  76   1
M  ISO  4  35 100  61 101  75 100  83 101
M  END
> <Batch ID>
0071

> <Smiles>
CNC(C)C(=O)NC(C(=O)N1Cc2cc([101O:1][101CH:1](C)C(C)(C)n3cnc(C(C)(C)C[100NH:0][100C:0](=O)N4CCCC(n5nc(-c6ccc(Oc7ccc(F)cc7F)cc6)c(C(N)=O)c5N)C4)c3)ccc2CC1C(=O)NC1CCCc2ccccc21)C(C)(C)C

> <Shape>
0.233

> <Color>
0.072

> <Negative vol penalty>
0.000

$$$$

  -OEChem-04052318223D

 85 93  0     1  0  0  0  0  0999 V2000
  -27.1457  -11.9083   17.4408 C   0  0  0  0  0  0  0  0  0  0  0  0
  -27.1230  -13.2753   17.1837 C   0  0  0  0  0  0  0  0  0  0  0  0
  -21.8683  -27.2474   20.0127 C   0  0  0  0  0  0  0  0  0  0  0  0
  -22.8946  -26.4570   22.0521 C   0  0  0  0  0  0  0  0  0  0  0  0
  -26.4617  -11.3959   18.5424 C   0  0  0  0  0  0  0  0  0  0  0  0
  -26.4153  -14.1307   18.0274 C   0  0  0  0  0  0  0  0  0  0  0  0
  -29.0265  -18.3106   19.1910 C   0  0  0  0  0  0  0  0  0  0  0  0
  -20.9309  -26.2170   20.0850 C   0  0  0  0  0  0  0  0  0  0  0  0
  -21.9571  -25.4266   22.1245 C   0  0  0  0  0  0  0  0  0  0  0  0
  -29.0798  -19.3169   18.2275 C   0  0  0  0  0  0  0  0  0  0  0  0
  -19.6135  -22.8026   23.0410 C   0  0  0  0  0  0  0  0  0  0  0  0
  -19.0193  -22.5511   24.2776 C   0  0  0  0  0  0  0  0  0  0  0  0
  -27.3469  -20.5203   19.3972 C   0  0  0  0  0  0  0  0  0  0  0  0
  -18.1396  -24.8010   24.3125 C   0  0  0  0  0  0  0  0  0  0  0  0
  -28.3925  -25.1543   19.2025 C   0  0  0  0  0  0  0  0  0  0  0  0
  -30.7863  -24.2924   18.3936 C   0  0  0  0  0  0  0  0  0  0  0  0
  -22.8502  -27.3674   20.9962 C   0  0  0  0  0  0  0  0  0  0  0  0
  -23.7104  -29.7205   21.4764 C   0  0  0  0  0  0  0  0  0  0  0  0
  -25.7532  -12.2465   19.4056 C   0  0  0  0  0  0  0  0  0  0  0  0
  -28.1238  -18.3965   20.2607 C   0  0  0  0  0  0  0  0  0  0  0  0
  -25.7200  -13.6290   19.1409 C   0  0  0  0  0  0  0  0  0  0  0  0
  -27.2859  -19.5150   20.3743 C   0  0  0  0  0  0  0  0  0  0  0  0
  -20.9753  -25.3067   21.1409 C   0  0  0  0  0  0  0  0  0  0  0  0
  -28.2379  -20.4206   18.3289 C   0  0  0  0  0  0  0  0  0  0  0  0
  -19.4708  -24.0534   22.4401 C   0  0  0  0  0  0  0  0  0  0  0  0
  -18.2823  -23.5503   24.9134 C   0  0  0  0  0  0  0  0  0  0  0  0
  -18.7338  -25.0525   23.0759 C   0  0  0  0  0  0  0  0  0  0  0  0
  -23.8191  -28.4312   20.9217 C   0  0  0  0  0  0  0  0  0  0  0  0
  -29.5346  -25.4617   19.9087 C   0  0  0  0  0  0  0  0  0  0  0  0
  -29.6442  -23.9843   17.6878 C   0  0  0  0  0  0  0  0  0  0  0  0
  -24.8837  -30.3440   21.1286 C   0  0  0  0  0  0  0  0  0  0  0  0
  -22.6441  -30.3024   22.2380 C   0  0  0  0  0  0  0  0  0  0  0  0
  -25.6659  -16.6503   21.2673 C   0  0  0  0  0  0  0  0  0  0  0  0
  -25.7346  -18.7062   23.7754 C   0  0  0  0  0  0  0  0  0  0  0  0
  -30.3175  -28.1842   19.7424 C   0  0  0  0  0  0  0  0  0  0  0  0
  -26.6185  -21.7727   24.9846 C   0  0  0  0  0  0  0  0  0  0  0  0
  -24.9901  -11.6407   20.5568 C   0  0  0  0  0  0  0  0  0  0  0  0
  -28.0974  -17.3156   21.3063 C   0  0  0  0  0  0  0  0  0  0  0  0
  -26.3132  -19.6646   21.5145 C   0  0  0  0  0  0  0  0  0  0  0  0
  -24.5738  -12.6593   21.6148 C   0  0  0  0  0  0  0  0  0  0  0  0
  -28.2706  -30.3569   17.7601 C   0  0  0  0  0  0  0  0  0  0  0  0
  -23.9661  -13.8941   20.9572 C   0  0  0  0  0  0  0  0  0  0  0  0
  -26.8816  -30.2047   18.3786 C   0  0  0  0  0  0  0  0  0  0  0  0
  -29.0478  -29.0449   17.8030 C   0  0  0  0  0  0  0  0  0  0  0  0
  -27.7767  -28.2993   19.7904 C   0  0  0  0  0  0  0  0  0  0  0  0
  -24.9840  -14.5919   20.0471 C   0  0  1  0  0  0  0  0  0  0  0  0
  -26.7795  -17.2577   22.0727 C   0  0  1  0  0  0  0  0  0  0  0  0
  -26.9695  -29.6095   19.7951 C   0  0  2  0  0  0  0  0  0  0  0  0
  -26.5094  -23.1777   27.0611 C   0  0  0  0  0  0  0  0  0  0  0  0
  -31.0524  -23.2935   15.6338 C   0  0  0  0  0  0  0  0  0  0  0  0
  -28.5879  -23.5566   15.4471 C   0  0  0  0  0  0  0  0  0  0  0  0
  -31.7469  -27.3769   21.5392 C   0  0  0  0  0  0  0  0  0  0  0  0
  -29.7042  -28.7229   22.0603 C   0  0  0  0  0  0  0  0  0  0  0  0
  -22.7789  -19.2507   23.2488 C   0  0  0  0  0  0  0  0  0  0  0  0
  -22.9724  -21.2961   24.6795 C   0  0  0  0  0  0  0  0  0  0  0  0
  -23.3868  -19.0426   25.6657 C   0  0  0  0  0  0  0  0  0  0  0  0
  -29.5676  -21.9438   25.1635 C   0  0  0  0  0  0  0  0  0  0  0  0
  -29.5436  -21.6296   16.7512 C   0  0  0  0  0  0  0  0  0  1  0  0
  -29.4594  -26.2868   21.1456 C   0  0  2  0  0  0  0  0  0  0  0  0
  -25.0917  -20.0365   24.0853 C   0  0  1  0  0  0  0  0  0  0  0  0
  -27.3353  -22.1851   26.2576 C   0  0  2  0  0  0  0  0  0  0  0  0
  -29.7220  -23.1311   16.4078 C   0  0  0  0  0  0  0  0  0  0  0  0
  -30.2800  -27.6318   21.1451 C   0  0  0  0  0  0  0  0  0  0  0  0
  -23.5743  -19.9030   24.3972 C   0  0  0  0  0  0  0  0  0  0  0  0
  -30.7520  -25.0366   19.5168 N   0  0  0  0  0  0  0  0  0  0  0  0
  -28.4268  -24.4098   18.0795 N   0  0  0  0  0  0  0  0  0  0  0  0
  -24.9706  -28.2453   20.2708 N   0  0  0  0  0  0  0  0  0  0  0  0
  -25.5961  -29.4261   20.4142 N   0  0  0  0  0  0  0  0  0  0  0  0
  -26.3204  -18.5783   22.5081 N   0  0  0  0  0  0  0  0  0  0  0  0
  -29.0894  -28.5006   19.1614 N   0  0  0  0  0  0  0  0  0  0  0  0
  -25.3653  -31.5824   21.3671 N   0  0  0  0  0  0  0  0  0  0  0  0
  -21.5107  -29.5224   22.5051 N   0  0  0  0  0  0  0  0  0  0  0  0
  -25.9215  -15.3629   20.8352 N   0  0  0  0  0  0  0  0  0  0  0  0
  -25.8742  -20.6262   25.1661 N   0  0  0  0  0  0  0  0  0  0  0  0
  -29.7977  -25.5044   22.3994 N   0  3  0  0  0  0  0  0  0  0  0  0
  -28.6450  -22.8177   25.9329 N   0  3  0  0  0  0  0  0  0  0  0  0
  -22.6878  -31.4847   22.6548 O   0  0  0  0  0  0  0  0  0  0  0  0
  -24.6494  -17.3009   21.0549 O   0  0  0  0  0  0  0  0  0  0  0  0
  -25.7238  -17.8159   24.6292 O   0  0  0  0  0  0  0  0  0  0  0  0
  -31.4070  -28.3321   19.1826 O   0  0  0  0  0  0  0  0  0  0  0  0
  -26.7067  -22.4064   23.9353 O   0  0  0  0  0  0  0  0  0  0  0  0
  -20.0606  -24.3013   21.2120 O   0  0  0  0  0  0  0  0  0  0  0  0
  -28.2875  -21.4039   17.3895 O   0  0  0  0  0  0  0  0  0  1  0  0
  -17.7105  -23.3081   26.1002 F   0  0  0  0  0  0  0  0  0  0  0  0
  -18.5922  -26.2557   22.5030 F   0  0  0  0  0  0  0  0  0  0  0  0
  1  2  1  0  0  0  0
  1  5  2  0  0  0  0
  2  6  2  0  0  0  0
  3  8  2  0  0  0  0
  3 17  1  0  0  0  0
  4  9  1  0  0  0  0
  4 17  2  0  0  0  0
  5 19  1  0  0  0  0
  6 21  1  0  0  0  0
  7 10  2  0  0  0  0
  7 20  1  0  0  0  0
  8 23  1  0  0  0  0
  9 23  2  0  0  0  0
 10 24  1  0  0  0  0
 11 12  2  0  0  0  0
 11 25  1  0  0  0  0
 12 26  1  0  0  0  0
 13 22  1  0  0  0  0
 13 24  2  0  0  0  0
 14 26  2  0  0  0  0
 14 27  1  0  0  0  0
 15 29  2  0  0  0  0
 15 66  1  0  0  0  0
 16 30  1  0  0  0  0
 16 65  2  0  0  0  0
 17 28  1  0  0  0  0
 18 28  1  0  0  0  0
 18 31  2  0  0  0  0
 18 32  1  0  0  0  0
 19 21  2  0  0  0  0
 19 37  1  0  0  0  0
 20 22  2  0  0  0  0
 20 38  1  0  0  0  0
 21 46  1  0  0  0  0
 22 39  1  0  0  0  0
 23 82  1  0  0  0  0
 24 83  1  0  0  0  0
 25 27  2  0  0  0  0
 25 82  1  0  0  0  0
 26 84  1  0  0  0  0
 27 85  1  0  0  0  0
 28 67  2  0  0  0  0
 29 59  1  0  0  0  0
 29 65  1  0  0  0  0
 30 62  1  0  0  0  0
 30 66  2  0  0  0  0
 31 68  1  0  0  0  0
 31 71  1  0  0  0  0
 32 72  1  0  0  0  0
 32 77  2  0  0  0  0
 33 47  1  0  0  0  0
 33 73  1  0  0  0  0
 33 78  2  0  0  0  0
 34 60  1  0  0  0  0
 34 69  1  0  0  0  0
 34 79  2  0  0  0  0
 35 63  1  0  0  0  0
 35 70  1  0  0  0  0
 35 80  2  0  0  0  0
 36 61  1  0  0  0  0
 36 74  1  0  0  0  0
 36 81  2  0  0  0  0
 37 40  1  0  0  0  0
 38 47  1  0  0  0  0
 39 69  1  0  0  0  0
 40 42  1  0  0  0  0
 41 43  1  0  0  0  0
 41 44  1  0  0  0  0
 42 46  1  0  0  0  0
 43 48  1  0  0  0  0
 44 70  1  0  0  0  0
 45 48  1  0  0  0  0
 45 70  1  0  0  0  0
 46 73  1  0  0  0  0
 47 69  1  0  0  0  0
 48 68  1  0  0  0  0
 49 61  1  0  0  0  0
 50 62  1  0  0  0  0
 51 62  1  0  0  0  0
 52 63  1  0  0  0  0
 53 63  1  0  0  0  0
 54 64  1  0  0  0  0
 55 64  1  0  0  0  0
 56 64  1  0  0  0  0
 57 76  1  0  0  0  0
 58 62  1  0  0  0  0
 58 83  1  0  0  0  0
 59 63  1  0  0  0  0
 59 75  1  0  0  0  0
 60 64  1  0  0  0  0
 60 74  1  0  0  0  0
 61 76  1  0  0  0  0
 67 68  1  0  0  0  0
M  CHG  2  75   1  76   1
M  ISO  4  35 100  58 101  63 100  83 101
M  END
> <Batch ID>
0071

> <Smiles>
CNC(C)C(=O)NC(C(=O)N1Cc2cc([101O:1][101CH2:1]C(C)(C)c3cnc(C(N)[100C:0](C)(C)[100C:0](=O)N4CCCC(n5nc(-c6ccc(Oc7ccc(F)cc7F)cc6)c(C(N)=O)c5N)C4)cn3)ccc2CC1C(=O)NC1CCCc2ccccc21)C(C)(C)C

> <Shape>
0.214

> <Color>
0.068

> <Negative vol penalty>
0.000

$$$$

  -OEChem-04052318223D

 87 95  0     1  0  0  0  0  0999 V2000
  -28.4125  -27.8834   12.4737 C   0  0  0  0  0  0  0  0  0  0  0  0
  -28.7016  -27.2371   13.6712 C   0  0  0  0  0  0  0  0  0  0  0  0
  -22.5989  -10.2355   20.9086 C   0  0  0  0  0  0  0  0  0  0  0  0
  -24.4199   -9.1697   22.0855 C   0  0  0  0  0  0  0  0  0  0  0  0
  -28.2433  -29.2672   12.4529 C   0  0  0  0  0  0  0  0  0  0  0  0
  -28.8227  -27.9744   14.8486 C   0  0  0  0  0  0  0  0  0  0  0  0
  -26.4043  -25.8249   18.7443 C   0  0  0  0  0  0  0  0  0  0  0  0
  -21.9636   -9.0011   20.7736 C   0  0  0  0  0  0  0  0  0  0  0  0
  -23.7845   -7.9353   21.9506 C   0  0  0  0  0  0  0  0  0  0  0  0
  -27.0306  -24.7448   19.3648 C   0  0  0  0  0  0  0  0  0  0  0  0
  -21.2527   -6.2630   23.4386 C   0  0  0  0  0  0  0  0  0  0  0  0
  -21.2020   -5.4359   24.5605 C   0  0  0  0  0  0  0  0  0  0  0  0
  -27.7948  -26.2068   21.1248 C   0  0  0  0  0  0  0  0  0  0  0  0
  -22.4190   -3.7301   23.3579 C   0  0  0  0  0  0  0  0  0  0  0  0
  -31.6058  -19.4905   24.3290 C   0  0  0  0  0  0  0  0  0  0  0  0
  -23.8271  -10.3198   21.5645 C   0  0  0  0  0  0  0  0  0  0  0  0
  -24.3403  -12.5143   22.7597 C   0  0  0  0  0  0  0  0  0  0  0  0
  -28.3528  -30.0207   13.6322 C   0  0  0  0  0  0  0  0  0  0  0  0
  -26.4779  -27.1083   19.3046 C   0  0  0  0  0  0  0  0  0  0  0  0
  -28.6561  -29.3697   14.8433 C   0  0  0  0  0  0  0  0  0  0  0  0
  -27.1665  -27.3010   20.5108 C   0  0  0  0  0  0  0  0  0  0  0  0
  -22.5563   -7.8510   21.2947 C   0  0  0  0  0  0  0  0  0  0  0  0
  -27.7284  -24.9362   20.5537 C   0  0  0  0  0  0  0  0  0  0  0  0
  -21.8864   -5.8237   22.2762 C   0  0  0  0  0  0  0  0  0  0  0  0
  -21.7852   -4.1694   24.5202 C   0  0  0  0  0  0  0  0  0  0  0  0
  -22.4696   -4.5572   22.2359 C   0  0  0  0  0  0  0  0  0  0  0  0
  -24.4842  -11.5945   21.7037 C   0  0  0  0  0  0  0  0  0  0  0  0
  -32.1627  -20.2053   23.3063 C   0  0  0  0  0  0  0  0  0  0  0  0
  -25.1691  -13.5564   22.4227 C   0  0  0  0  0  0  0  0  0  0  0  0
  -30.5931  -18.8992   22.4514 C   0  0  0  0  0  0  0  0  0  0  0  0
  -23.5299  -12.4338   23.9397 C   0  0  0  0  0  0  0  0  0  0  0  0
  -27.6658  -29.9022   18.3630 C   0  0  0  0  0  0  0  0  0  0  0  0
  -26.2657  -30.9734   21.0861 C   0  0  0  0  0  0  0  0  0  0  0  0
  -25.0926  -30.2671   24.2121 C   0  0  0  0  0  0  0  0  0  0  0  0
  -30.3415  -15.0158   20.5696 C   0  0  0  0  0  0  0  0  0  0  0  0
  -28.2084  -31.5198   13.5520 C   0  0  0  0  0  0  0  0  0  0  0  0
  -25.7744  -28.2579   18.6369 C   0  0  0  0  0  0  0  0  0  0  0  0
  -27.2581  -28.6551   21.1639 C   0  0  0  0  0  0  0  0  0  0  0  0
  -27.9828  -32.1835   14.9080 C   0  0  0  0  0  0  0  0  0  0  0  0
  -27.5984  -14.5958   18.1200 C   0  0  0  0  0  0  0  0  0  0  0  0
  -28.9661  -31.6388   15.9391 C   0  0  0  0  0  0  0  0  0  0  0  0
  -26.5676  -13.7903   18.9091 C   0  0  0  0  0  0  0  0  0  0  0  0
  -29.0201  -14.3251   18.6028 C   0  0  0  0  0  0  0  0  0  0  0  0
  -28.1806  -13.7337   20.8522 C   0  0  0  0  0  0  0  0  0  0  0  0
  -28.7708  -30.1319   16.1456 C   0  0  1  0  0  0  0  0  0  0  0  0
  -26.3481  -29.6168   19.0263 C   0  0  1  0  0  0  0  0  0  0  0  0
  -26.7339  -14.0186   20.4216 C   0  0  2  0  0  0  0  0  0  0  0  0
  -33.2360  -21.2068   23.3192 C   0  0  0  0  0  0  0  0  0  0  0  0
  -24.0398  -31.3551   26.2134 C   0  0  0  0  0  0  0  0  0  0  0  0
  -32.3136  -19.2232   19.8541 C   0  0  0  0  0  0  0  0  0  0  0  0
  -30.2237  -18.0310   20.0418 C   0  0  0  0  0  0  0  0  0  0  0  0
  -28.3571  -19.0473   21.3219 C   0  0  0  0  0  0  0  0  0  0  0  0
  -28.9693  -32.1557   21.8625 C   0  0  0  0  0  0  0  0  0  0  0  0
  -28.1221  -32.3733   24.2084 C   0  0  0  0  0  0  0  0  0  0  0  0
  -27.0068  -33.6239   22.3604 C   0  0  0  0  0  0  0  0  0  0  0  0
  -31.3860  -15.7848   22.6666 C   0  0  0  0  0  0  0  0  0  0  0  0
  -22.6652  -28.5883   23.9927 C   0  0  0  0  0  0  0  0  0  0  0  0
  -30.0184  -22.1769   20.9791 C   0  0  0  0  0  0  0  0  0  0  0  0
  -30.5856  -21.0464   20.1165 C   0  0  0  0  0  0  0  0  0  0  0  0
  -29.2366  -16.7914   21.9940 C   0  0  0  0  0  0  0  0  0  0  0  0
  -28.8127  -22.8326   20.3191 C   0  0  0  0  0  0  0  0  0  1  0  0
  -26.6990  -31.1198   22.5248 C   0  0  1  0  0  0  0  0  0  0  0  0
  -23.7892  -30.6245   24.9033 C   0  0  2  0  0  0  0  0  0  0  0  0
  -31.8023  -20.3490   20.7616 C   0  0  1  0  0  0  0  0  0  0  0  0
  -29.6755  -18.2209   21.5026 C   0  0  0  0  0  0  0  0  0  0  0  0
  -27.6994  -32.2929   22.7260 C   0  0  0  0  0  0  0  0  0  0  0  0
  -25.3372  -12.0154   20.7660 N   0  0  0  0  0  0  0  0  0  0  0  0
  -31.5174  -19.8190   22.1563 N   0  0  0  0  0  0  0  0  0  0  0  0
  -25.7367  -13.2111   21.2316 N   0  0  0  0  0  0  0  0  0  0  0  0
  -30.6375  -18.6909   23.7713 N   0  3  0  0  0  0  0  0  0  0  0  0
  -26.5590  -29.7488   20.4694 N   0  0  0  0  0  0  0  0  0  0  0  0
  -29.1397  -14.5075   20.0497 N   0  0  0  0  0  0  0  0  0  0  0  0
  -25.4604  -14.7252   23.0321 N   0  0  0  0  0  0  0  0  0  0  0  0
  -22.7382  -11.2930   24.1300 N   0  0  0  0  0  0  0  0  0  0  0  0
  -27.6167  -29.8819   16.9822 N   0  0  0  0  0  0  0  0  0  0  0  0
  -25.4749  -31.2372   23.3098 N   0  0  0  0  0  0  0  0  0  0  0  0
  -30.2584  -15.7768   21.7455 N   0  0  0  0  0  0  0  0  0  0  0  0
  -23.0030  -29.3925   25.1952 N   0  3  0  0  0  0  0  0  0  0  0  0
  -23.4960  -13.3537   24.7918 O   0  0  0  0  0  0  0  0  0  0  0  0
  -28.6536  -30.1259   19.0529 O   0  0  0  0  0  0  0  0  0  0  0  0
  -25.6821  -31.9083   20.5321 O   0  0  0  0  0  0  0  0  0  0  0  0
  -25.7118  -29.2328   24.4515 O   0  0  0  0  0  0  0  0  0  0  0  0
  -31.4256  -14.8096   20.0092 O   0  0  0  0  0  0  0  0  0  0  0  0
  -21.9366   -6.6464   21.1634 O   0  0  0  0  0  0  0  0  0  0  0  0
  -28.3411  -23.8838   21.1611 O   0  0  0  0  0  0  0  0  0  1  0  0
  -21.7378   -3.3758   25.5983 F   0  0  0  0  0  0  0  0  0  0  0  0
  -23.0808   -4.1301   21.1224 F   0  0  0  0  0  0  0  0  0  0  0  0
  1  2  1  0  0  0  0
  1  5  2  0  0  0  0
  2  6  2  0  0  0  0
  3  8  2  0  0  0  0
  3 16  1  0  0  0  0
  4  9  1  0  0  0  0
  4 16  2  0  0  0  0
  5 18  1  0  0  0  0
  6 20  1  0  0  0  0
  7 10  2  0  0  0  0
  7 19  1  0  0  0  0
  8 22  1  0  0  0  0
  9 22  2  0  0  0  0
 10 23  1  0  0  0  0
 11 12  2  0  0  0  0
 11 24  1  0  0  0  0
 12 25  1  0  0  0  0
 13 21  1  0  0  0  0
 13 23  2  0  0  0  0
 14 25  2  0  0  0  0
 14 26  1  0  0  0  0
 15 28  2  0  0  0  0
 15 70  1  0  0  0  0
 16 27  1  0  0  0  0
 17 27  1  0  0  0  0
 17 29  2  0  0  0  0
 17 31  1  0  0  0  0
 18 20  2  0  0  0  0
 18 36  1  0  0  0  0
 19 21  2  0  0  0  0
 19 37  1  0  0  0  0
 20 45  1  0  0  0  0
 21 38  1  0  0  0  0
 22 84  1  0  0  0  0
 23 85  1  0  0  0  0
 24 26  2  0  0  0  0
 24 84  1  0  0  0  0
 25 86  1  0  0  0  0
 26 87  1  0  0  0  0
 27 67  2  0  0  0  0
 28 48  1  0  0  0  0
 28 68  1  0  0  0  0
 29 69  1  0  0  0  0
 29 73  1  0  0  0  0
 30 65  1  0  0  0  0
 30 68  1  0  0  0  0
 30 70  2  0  0  0  0
 31 74  1  0  0  0  0
 31 79  2  0  0  0  0
 32 46  1  0  0  0  0
 32 75  1  0  0  0  0
 32 80  2  0  0  0  0
 33 62  1  0  0  0  0
 33 71  1  0  0  0  0
 33 81  2  0  0  0  0
 34 63  1  0  0  0  0
 34 76  1  0  0  0  0
 34 82  2  0  0  0  0
 35 72  1  0  0  0  0
 35 77  1  0  0  0  0
 35 83  2  0  0  0  0
 36 39  1  0  0  0  0
 37 46  1  0  0  0  0
 38 71  1  0  0  0  0
 39 41  1  0  0  0  0
 40 42  1  0  0  0  0
 40 43  1  0  0  0  0
 41 45  1  0  0  0  0
 42 47  1  0  0  0  0
 43 72  1  0  0  0  0
 44 47  1  0  0  0  0
 44 72  1  0  0  0  0
 45 75  1  0  0  0  0
 46 71  1  0  0  0  0
 47 69  1  0  0  0  0
 49 63  1  0  0  0  0
 50 64  1  0  0  0  0
 51 65  1  0  0  0  0
 52 65  1  0  0  0  0
 53 66  1  0  0  0  0
 54 66  1  0  0  0  0
 55 66  1  0  0  0  0
 56 77  1  0  0  0  0
 57 78  1  0  0  0  0
 58 59  1  0  0  0  0
 58 61  1  0  0  0  0
 59 64  1  0  0  0  0
 60 65  1  0  0  0  0
 60 77  1  0  0  0  0
 61 85  1  0  0  0  0
 62 66  1  0  0  0  0
 62 76  1  0  0  0  0
 63 78  1  0  0  0  0
 64 68  1  0  0  0  0
 67 69  1  0  0  0  0
M  CHG  2  70   1  78   1
M  ISO  4  35 100  61 101  77 100  85 101
M  END
> <Batch ID>
0071

> <Smiles>
CNC(C)C(=O)NC(C(=O)N1Cc2cc([101O:1][101CH2:1]CCC(C)n3c(C)cnc3C(C)(C)C[100N:0](C)[100C:0](=O)N3CCCC(n4nc(-c5ccc(Oc6ccc(F)cc6F)cc5)c(C(N)=O)c4N)C3)ccc2CC1C(=O)NC1CCCc2ccccc21)C(C)(C)C

> <Shape>
0.275

> <Color>
0.099

> <Negative vol penalty>
0.000

$$$$

  -OEChem-04052318223D

 85 93  0     1  0  0  0  0  0999 V2000
  -29.4684  -24.3765   17.9804 C   0  0  0  0  0  0  0  0  0  0  0  0
  -28.2653  -24.4646   18.6733 C   0  0  0  0  0  0  0  0  0  0  0  0
  -23.5487  -12.8822   19.2858 C   0  0  0  0  0  0  0  0  0  0  0  0
  -24.8901  -14.0976   20.8860 C   0  0  0  0  0  0  0  0  0  0  0  0
  -30.5535  -25.1617   18.3674 C   0  0  0  0  0  0  0  0  0  0  0  0
  -28.1469  -25.3373   19.7544 C   0  0  0  0  0  0  0  0  0  0  0  0
  -23.8302  -27.9831   19.6517 C   0  0  0  0  0  0  0  0  0  0  0  0
  -24.5415  -11.9068   19.1944 C   0  0  0  0  0  0  0  0  0  0  0  0
  -25.8829  -13.1221   20.7946 C   0  0  0  0  0  0  0  0  0  0  0  0
  -22.6712  -27.3269   20.0639 C   0  0  0  0  0  0  0  0  0  0  0  0
  -28.3723  -12.2931   18.6623 C   0  0  0  0  0  0  0  0  0  0  0  0
  -29.6941  -12.7227   18.5448 C   0  0  0  0  0  0  0  0  0  0  0  0
  -22.8415  -28.3936   22.2208 C   0  0  0  0  0  0  0  0  0  0  0  0
  -30.2514  -11.5685   20.5928 C   0  0  0  0  0  0  0  0  0  0  0  0
  -20.8755  -22.4531   21.0473 C   0  0  0  0  0  0  0  0  0  0  0  0
  -22.1681  -23.7449   22.9935 C   0  0  0  0  0  0  0  0  0  0  0  0
  -23.7230  -13.9777   20.1316 C   0  0  0  0  0  0  0  0  0  0  0  0
  -21.6101  -15.0113   21.1191 C   0  0  0  0  0  0  0  0  0  0  0  0
  -30.4455  -26.0516   19.4477 C   0  0  0  0  0  0  0  0  0  0  0  0
  -24.5107  -28.8426   20.5261 C   0  0  0  0  0  0  0  0  0  0  0  0
  -29.2320  -26.1343   20.1570 C   0  0  0  0  0  0  0  0  0  0  0  0
  -24.0075  -29.0616   21.8164 C   0  0  0  0  0  0  0  0  0  0  0  0
  -25.7086  -12.0267   19.9488 C   0  0  0  0  0  0  0  0  0  0  0  0
  -22.1783  -27.5298   21.3495 C   0  0  0  0  0  0  0  0  0  0  0  0
  -27.9899  -11.5012   19.7452 C   0  0  0  0  0  0  0  0  0  0  0  0
  -30.6336  -12.3604   19.5100 C   0  0  0  0  0  0  0  0  0  0  0  0
  -28.9295  -11.1389   20.7104 C   0  0  0  0  0  0  0  0  0  0  0  0
  -22.6980  -14.9860   20.2260 C   0  0  0  0  0  0  0  0  0  0  0  0
  -22.1577  -22.0992   21.4057 C   0  0  0  0  0  0  0  0  0  0  0  0
  -20.8863  -24.0993   22.6347 C   0  0  0  0  0  0  0  0  0  0  0  0
  -20.9366  -16.1670   20.8071 C   0  0  0  0  0  0  0  0  0  0  0  0
  -21.2414  -14.0740   22.1394 C   0  0  0  0  0  0  0  0  0  0  0  0
  -27.4130  -28.8860   21.8219 C   0  0  0  0  0  0  0  0  0  0  0  0
  -26.4563  -31.7865   22.9149 C   0  0  0  0  0  0  0  0  0  0  0  0
  -22.7299  -21.2789   18.2063 C   0  0  0  0  0  0  0  0  0  0  0  0
  -23.8790  -33.8627   23.7479 C   0  0  0  0  0  0  0  0  0  0  0  0
  -31.6602  -26.8455   19.8586 C   0  0  0  0  0  0  0  0  0  0  0  0
  -25.7447  -29.5636   20.0573 C   0  0  0  0  0  0  0  0  0  0  0  0
  -24.6895  -29.9899   22.7867 C   0  0  0  0  0  0  0  0  0  0  0  0
  -31.3378  -28.0190   20.7801 C   0  0  0  0  0  0  0  0  0  0  0  0
  -20.0571  -19.1311   17.1659 C   0  0  0  0  0  0  0  0  0  0  0  0
  -30.3913  -27.5797   21.8927 C   0  0  0  0  0  0  0  0  0  0  0  0
  -20.3484  -17.8181   17.8915 C   0  0  0  0  0  0  0  0  0  0  0  0
  -21.3440  -19.8375   16.7516 C   0  0  0  0  0  0  0  0  0  0  0  0
  -22.5856  -18.7709   18.6069 C   0  0  0  0  0  0  0  0  0  0  0  0
  -29.0570  -27.0873   21.3195 C   0  0  1  0  0  0  0  0  0  0  0  0
  -26.6428  -30.0184   21.2035 C   0  0  1  0  0  0  0  0  0  0  0  0
  -21.3129  -18.0401   19.0700 C   0  0  2  0  0  0  0  0  0  0  0  0
  -23.7312  -20.1450   21.6868 C   0  0  0  0  0  0  0  0  0  0  0  0
  -23.4104  -36.1581   24.6471 C   0  0  0  0  0  0  0  0  0  0  0  0
  -19.9941  -25.0309   24.8742 C   0  0  0  0  0  0  0  0  0  0  0  0
  -18.7453  -25.4109   22.7591 C   0  0  0  0  0  0  0  0  0  0  0  0
  -24.8692  -20.4903   19.1191 C   0  0  0  0  0  0  0  0  0  0  0  0
  -24.0957  -22.8490   19.4456 C   0  0  0  0  0  0  0  0  0  0  0  0
  -27.2129  -30.8412   25.7156 C   0  0  0  0  0  0  0  0  0  0  0  0
  -25.8718  -32.7409   26.6434 C   0  0  0  0  0  0  0  0  0  0  0  0
  -27.8551  -33.2032   25.2028 C   0  0  0  0  0  0  0  0  0  0  0  0
  -22.4238  -34.6528   21.2950 C   0  0  0  0  0  0  0  0  0  0  0  0
  -20.9372  -26.5833   23.1439 C   0  0  0  0  0  0  0  0  0  1  0  0
  -22.8552  -20.9816   20.7124 C   0  0  2  0  0  0  0  0  0  0  0  0
  -25.7479  -32.2821   24.1524 C   0  0  1  0  0  0  0  0  0  0  0  0
  -23.6002  -35.3131   23.3971 C   0  0  2  0  0  0  0  0  0  0  0  0
  -20.1645  -25.2553   23.3524 C   0  0  0  0  0  0  0  0  0  0  0  0
  -23.6472  -21.3772   19.3992 C   0  0  0  0  0  0  0  0  0  0  0  0
  -26.6599  -32.2478   25.4111 C   0  0  0  0  0  0  0  0  0  0  0  0
  -22.8269  -22.7386   22.3855 N   0  0  0  0  0  0  0  0  0  0  0  0
  -20.2170  -23.4597   21.6552 N   0  0  0  0  0  0  0  0  0  0  0  0
  -22.7183  -16.0417   19.4079 N   0  0  0  0  0  0  0  0  0  0  0  0
  -21.6347  -16.7411   19.7857 N   0  0  0  0  0  0  0  0  0  0  0  0
  -25.8962  -30.6669   22.2835 N   0  0  0  0  0  0  0  0  0  0  0  0
  -22.2428  -20.0095   17.8943 N   0  0  0  0  0  0  0  0  0  0  0  0
  -19.8213  -16.7379   21.3096 N   0  0  0  0  0  0  0  0  0  0  0  0
  -22.0438  -12.9402   22.3268 N   0  0  0  0  0  0  0  0  0  0  0  0
  -28.2276  -28.2090   20.9345 N   0  0  0  0  0  0  0  0  0  0  0  0
  -25.2317  -33.6067   23.8244 N   0  0  0  0  0  0  0  0  0  0  0  0
  -22.3666  -35.4174   22.5674 N   0  3  0  0  0  0  0  0  0  0  0  0
  -20.2211  -14.2287   22.8526 O   0  0  0  0  0  0  0  0  0  0  0  0
  -27.2792  -28.6454   23.0160 O   0  0  0  0  0  0  0  0  0  0  0  0
  -27.4652  -32.3754   22.5188 O   0  0  0  0  0  0  0  0  0  0  0  0
  -22.4534  -22.3014   17.5737 O   0  0  0  0  0  0  0  0  0  0  0  0
  -22.9861  -33.0401   23.9389 O   0  0  0  0  0  0  0  0  0  0  0  0
  -26.6774  -11.0748   19.8601 O   0  0  0  0  0  0  0  0  0  0  0  0
  -21.0476  -26.8900   21.7546 O   0  0  0  0  0  0  0  0  0  1  0  0
  -31.9033  -12.7718   19.3961 F   0  0  0  0  0  0  0  0  0  0  0  0
  -28.5684  -10.3774   21.7523 F   0  0  0  0  0  0  0  0  0  0  0  0
  1  2  1  0  0  0  0
  1  5  2  0  0  0  0
  2  6  2  0  0  0  0
  3  8  2  0  0  0  0
  3 17  1  0  0  0  0
  4  9  1  0  0  0  0
  4 17  2  0  0  0  0
  5 19  1  0  0  0  0
  6 21  1  0  0  0  0
  7 10  2  0  0  0  0
  7 20  1  0  0  0  0
  8 23  1  0  0  0  0
  9 23  2  0  0  0  0
 10 24  1  0  0  0  0
 11 12  2  0  0  0  0
 11 25  1  0  0  0  0
 12 26  1  0  0  0  0
 13 22  1  0  0  0  0
 13 24  2  0  0  0  0
 14 26  2  0  0  0  0
 14 27  1  0  0  0  0
 15 29  2  0  0  0  0
 15 67  1  0  0  0  0
 16 30  1  0  0  0  0
 16 66  2  0  0  0  0
 17 28  1  0  0  0  0
 18 28  1  0  0  0  0
 18 31  2  0  0  0  0
 18 32  1  0  0  0  0
 19 21  2  0  0  0  0
 19 37  1  0  0  0  0
 20 22  2  0  0  0  0
 20 38  1  0  0  0  0
 21 46  1  0  0  0  0
 22 39  1  0  0  0  0
 23 82  1  0  0  0  0
 24 83  1  0  0  0  0
 25 27  2  0  0  0  0
 25 82  1  0  0  0  0
 26 84  1  0  0  0  0
 27 85  1  0  0  0  0
 28 68  2  0  0  0  0
 29 60  1  0  0  0  0
 29 66  1  0  0  0  0
 30 63  1  0  0  0  0
 30 67  2  0  0  0  0
 31 69  1  0  0  0  0
 31 72  1  0  0  0  0
 32 73  1  0  0  0  0
 32 77  2  0  0  0  0
 33 47  1  0  0  0  0
 33 74  1  0  0  0  0
 33 78  2  0  0  0  0
 34 61  1  0  0  0  0
 34 70  1  0  0  0  0
 34 79  2  0  0  0  0
 35 64  1  0  0  0  0
 35 71  1  0  0  0  0
 35 80  2  0  0  0  0
 36 62  1  0  0  0  0
 36 75  1  0  0  0  0
 36 81  2  0  0  0  0
 37 40  1  0  0  0  0
 38 47  1  0  0  0  0
 39 70  1  0  0  0  0
 40 42  1  0  0  0  0
 41 43  1  0  0  0  0
 41 44  1  0  0  0  0
 42 46  1  0  0  0  0
 43 48  1  0  0  0  0
 44 71  1  0  0  0  0
 45 48  1  0  0  0  0
 45 71  1  0  0  0  0
 46 74  1  0  0  0  0
 47 70  1  0  0  0  0
 48 69  1  0  0  0  0
 49 60  1  0  0  0  0
 50 62  1  0  0  0  0
 51 63  1  0  0  0  0
 52 63  1  0  0  0  0
 53 64  1  0  0  0  0
 54 64  1  0  0  0  0
 55 65  1  0  0  0  0
 56 65  1  0  0  0  0
 57 65  1  0  0  0  0
 58 76  1  0  0  0  0
 59 63  1  0  0  0  0
 59 83  1  0  0  0  0
 60 64  1  0  0  0  0
 61 65  1  0  0  0  0
 61 75  1  0  0  0  0
 62 76  1  0  0  0  0
 68 69  1  0  0  0  0
M  CHG  1  76   1
M  ISO  4  35 100  59 101  64 100  83 101
M  END
> <Batch ID>
0071

> <Smiles>
CNC(C)C(=O)NC(C(=O)N1Cc2cc([101O:1][101CH2:1]C(C)(C)c3cnc(C(C)[100C:0](C)(C)[100C:0](=O)N4CCCC(n5nc(-c6ccc(Oc7ccc(F)cc7F)cc6)c(C(N)=O)c5N)C4)cn3)ccc2CC1C(=O)NC1CCCc2ccccc21)C(C)(C)C

> <Shape>
0.269

> <Color>
0.074

> <Negative vol penalty>
0.000

$$$$

  -OEChem-04052318223D

 80 87  0     1  0  0  0  0  0999 V2000
  -29.2587  -32.0528   24.3854 C   0  0  0  0  0  0  0  0  0  0  0  0
  -28.9383  -30.7365   24.0692 C   0  0  0  0  0  0  0  0  0  0  0  0
  -24.8939  -11.8562   20.8524 C   0  0  0  0  0  0  0  0  0  0  0  0
  -25.1339  -12.9160   23.0102 C   0  0  0  0  0  0  0  0  0  0  0  0
  -28.2486  -32.9539   24.7198 C   0  0  0  0  0  0  0  0  0  0  0  0
  -27.6076  -30.3201   24.0883 C   0  0  0  0  0  0  0  0  0  0  0  0
  -26.3906  -27.5180   20.0495 C   0  0  0  0  0  0  0  0  0  0  0  0
  -25.0974  -10.6088   21.4424 C   0  0  0  0  0  0  0  0  0  0  0  0
  -25.3373  -11.6686   23.6002 C   0  0  0  0  0  0  0  0  0  0  0  0
  -26.8001  -26.1853   20.0524 C   0  0  0  0  0  0  0  0  0  0  0  0
  -23.2983   -8.3797   23.2389 C   0  0  0  0  0  0  0  0  0  0  0  0
  -22.4452   -7.3403   22.8681 C   0  0  0  0  0  0  0  0  0  0  0  0
  -24.5836  -25.5120   20.7255 C   0  0  0  0  0  0  0  0  0  0  0  0
  -24.3387   -6.0723   22.0658 C   0  0  0  0  0  0  0  0  0  0  0  0
  -24.9122  -13.0098   21.6363 C   0  0  0  0  0  0  0  0  0  0  0  0
  -23.4744  -14.9605   20.8391 C   0  0  0  0  0  0  0  0  0  0  0  0
  -26.9040  -32.5508   24.7336 C   0  0  0  0  0  0  0  0  0  0  0  0
  -25.0752  -27.8592   20.3958 C   0  0  0  0  0  0  0  0  0  0  0  0
  -26.5787  -31.2163   24.4245 C   0  0  0  0  0  0  0  0  0  0  0  0
  -24.1592  -26.8495   20.7238 C   0  0  0  0  0  0  0  0  0  0  0  0
  -25.3191  -10.5149   22.8163 C   0  0  0  0  0  0  0  0  0  0  0  0
  -25.8973  -25.1823   20.3933 C   0  0  0  0  0  0  0  0  0  0  0  0
  -24.6716   -8.2654   23.0230 C   0  0  0  0  0  0  0  0  0  0  0  0
  -22.9653   -6.1866   22.2816 C   0  0  0  0  0  0  0  0  0  0  0  0
  -25.1918   -7.1117   22.4366 C   0  0  0  0  0  0  0  0  0  0  0  0
  -24.7026  -14.2988   21.0273 C   0  0  0  0  0  0  0  0  0  0  0  0
  -23.8112  -16.1408   20.2229 C   0  0  0  0  0  0  0  0  0  0  0  0
  -22.1477  -14.5453   21.1901 C   0  0  0  0  0  0  0  0  0  0  0  0
  -23.7409  -29.5987   22.6973 C   0  0  0  0  0  0  0  0  0  0  0  0
  -28.9091  -19.3219   20.1589 C   0  0  0  0  0  0  0  0  0  0  0  0
  -21.0231  -29.0182   21.0243 C   0  0  0  0  0  0  0  0  0  0  0  0
  -19.3483  -27.0222   18.8203 C   0  0  0  0  0  0  0  0  0  0  0  0
  -25.8514  -33.5485   25.1474 C   0  0  0  0  0  0  0  0  0  0  0  0
  -24.6419  -29.2991   20.3619 C   0  0  0  0  0  0  0  0  0  0  0  0
  -22.7303  -27.1614   21.0834 C   0  0  0  0  0  0  0  0  0  0  0  0
  -24.4319  -33.1241   24.7797 C   0  0  0  0  0  0  0  0  0  0  0  0
  -27.0963  -18.0625   17.3362 C   0  0  0  0  0  0  0  0  0  0  0  0
  -24.1931  -31.6679   25.1664 C   0  0  0  0  0  0  0  0  0  0  0  0
  -26.1859  -16.9949   17.9415 C   0  0  0  0  0  0  0  0  0  0  0  0
  -28.4434  -18.1177   18.0500 C   0  0  0  0  0  0  0  0  0  0  0  0
  -27.4303  -17.2521   20.1347 C   0  0  0  0  0  0  0  0  0  0  0  0
  -25.1447  -30.7331   24.4100 C   0  0  1  0  0  0  0  0  0  0  0  0
  -23.4183  -29.5755   21.2300 C   0  0  1  0  0  0  0  0  0  0  0  0
  -26.0476  -17.1841   19.4625 C   0  0  2  0  0  0  0  0  0  0  0  0
  -17.1291  -26.7825   17.6735 C   0  0  0  0  0  0  0  0  0  0  0  0
  -19.7990  -27.9740   23.6168 C   0  0  0  0  0  0  0  0  0  0  0  0
  -17.9966  -26.8994   22.2512 C   0  0  0  0  0  0  0  0  0  0  0  0
  -18.2639  -29.3795   22.2303 C   0  0  0  0  0  0  0  0  0  0  0  0
  -30.0933  -21.6153   24.7159 C   0  0  0  0  0  0  0  0  0  0  0  0
  -27.7448  -20.9136   24.2960 C   0  0  0  0  0  0  0  0  0  0  0  0
  -29.5187  -19.2093   24.6492 C   0  0  0  0  0  0  0  0  0  0  0  0
  -30.9926  -20.1550   22.1242 C   0  0  0  0  0  0  0  0  0  0  0  0
  -20.5756  -27.2757   16.1392 C   0  0  0  0  0  0  0  0  0  0  0  0
  -28.6781  -19.4217   21.6457 C   0  0  0  0  0  0  0  0  0  0  0  0
  -27.7725  -22.2656   21.3942 C   0  0  0  0  0  0  0  0  0  0  0  0
  -29.2320  -21.9308   21.7316 C   0  0  0  0  0  0  0  0  0  0  0  0
  -27.6629  -23.6187   20.6994 C   0  0  0  0  0  0  0  0  0  1  0  0
  -19.9675  -27.9391   21.0407 C   0  0  1  0  0  0  0  0  0  0  0  0
  -18.5367  -27.3504   17.5801 C   0  0  2  0  0  0  0  0  0  0  0  0
  -19.0341  -28.0420   22.2799 C   0  0  0  0  0  0  0  0  0  0  0  0
  -29.2205  -20.5744   23.9728 C   0  0  0  0  0  0  0  0  0  0  0  0
  -29.5019  -20.5260   22.3805 C   0  0  2  0  0  0  0  0  0  0  0  0
  -25.7421  -15.0004   20.5676 N   0  0  0  0  0  0  0  0  0  0  0  0
  -25.1678  -16.1152   20.0845 N   0  0  0  0  0  0  0  0  0  0  0  0
  -22.3564  -28.5848   21.0420 N   0  0  0  0  0  0  0  0  0  0  0  0
  -28.2686  -18.2755   19.4949 N   0  0  0  0  0  0  0  0  0  0  0  0
  -23.0763  -17.1877   19.7912 N   0  0  0  0  0  0  0  0  0  0  0  0
  -21.9803  -13.3034   21.8178 N   0  0  0  0  0  0  0  0  0  0  0  0
  -24.6888  -30.5403   23.0501 N   0  0  0  0  0  0  0  0  0  0  0  0
  -19.2732  -28.0278   19.7607 N   0  0  0  0  0  0  0  0  0  0  0  0
  -19.1923  -26.7844   16.3673 N   0  3  0  0  0  0  0  0  0  0  0  0
  -21.1388  -15.2473   20.9392 O   0  0  0  0  0  0  0  0  0  0  0  0
  -23.1709  -28.8211   23.4537 O   0  0  0  0  0  0  0  0  0  0  0  0
  -29.6351  -20.1518   19.6054 O   0  0  0  0  0  0  0  0  0  0  0  0
  -20.6775  -30.2018   20.9896 O   0  0  0  0  0  0  0  0  0  0  0  0
  -19.9822  -25.9766   18.9441 O   0  0  0  0  0  0  0  0  0  0  0  0
  -25.5174   -9.2978   23.3924 O   0  0  0  0  0  0  0  0  0  0  0  0
  -26.2975  -23.8712   20.3976 O   0  0  0  0  0  0  0  0  0  1  0  0
  -22.1461   -5.1879   21.9271 F   0  0  0  0  0  0  0  0  0  0  0  0
  -26.5105   -6.9956   22.2278 F   0  0  0  0  0  0  0  0  0  0  0  0
  1  2  1  0  0  0  0
  1  5  2  0  0  0  0
  2  6  2  0  0  0  0
  3  8  2  0  0  0  0
  3 15  1  0  0  0  0
  4  9  1  0  0  0  0
  4 15  2  0  0  0  0
  5 17  1  0  0  0  0
  6 19  1  0  0  0  0
  7 10  2  0  0  0  0
  7 18  1  0  0  0  0
  8 21  1  0  0  0  0
  9 21  2  0  0  0  0
 10 22  1  0  0  0  0
 11 12  2  0  0  0  0
 11 23  1  0  0  0  0
 12 24  1  0  0  0  0
 13 20  1  0  0  0  0
 13 22  2  0  0  0  0
 14 24  2  0  0  0  0
 14 25  1  0  0  0  0
 15 26  1  0  0  0  0
 16 26  1  0  0  0  0
 16 27  2  0  0  0  0
 16 28  1  0  0  0  0
 17 19  2  0  0  0  0
 17 33  1  0  0  0  0
 18 20  2  0  0  0  0
 18 34  1  0  0  0  0
 19 42  1  0  0  0  0
 20 35  1  0  0  0  0
 21 77  1  0  0  0  0
 22 78  1  0  0  0  0
 23 25  2  0  0  0  0
 23 77  1  0  0  0  0
 24 79  1  0  0  0  0
 25 80  1  0  0  0  0
 26 63  2  0  0  0  0
 27 64  1  0  0  0  0
 27 67  1  0  0  0  0
 28 68  1  0  0  0  0
 28 72  2  0  0  0  0
 29 43  1  0  0  0  0
 29 69  1  0  0  0  0
 29 73  2  0  0  0  0
 30 54  1  0  0  0  0
 30 66  1  0  0  0  0
 30 74  2  0  0  0  0
 31 58  1  0  0  0  0
 31 65  1  0  0  0  0
 31 75  2  0  0  0  0
 32 59  1  0  0  0  0
 32 70  1  0  0  0  0
 32 76  2  0  0  0  0
 33 36  1  0  0  0  0
 34 43  1  0  0  0  0
 35 65  1  0  0  0  0
 36 38  1  0  0  0  0
 37 39  1  0  0  0  0
 37 40  1  0  0  0  0
 38 42  1  0  0  0  0
 39 44  1  0  0  0  0
 40 66  1  0  0  0  0
 41 44  1  0  0  0  0
 41 66  1  0  0  0  0
 42 69  1  0  0  0  0
 43 65  1  0  0  0  0
 44 64  1  0  0  0  0
 45 59  1  0  0  0  0
 46 60  1  0  0  0  0
 47 60  1  0  0  0  0
 48 60  1  0  0  0  0
 49 61  1  0  0  0  0
 50 61  1  0  0  0  0
 51 61  1  0  0  0  0
 52 62  1  0  0  0  0
 53 71  1  0  0  0  0
 54 62  1  0  0  0  0
 55 56  1  0  0  0  0
 55 57  1  0  0  0  0
 56 62  1  0  0  0  0
 57 78  1  0  0  0  0
 58 60  1  0  0  0  0
 58 70  1  0  0  0  0
 59 71  1  0  0  0  0
 61 62  1  0  0  0  0
 63 64  1  0  0  0  0
M  CHG  1  71   1
M  ISO  4  30 100  54 100  57 101  78 101
M  END
> <Batch ID>
0071

> <Smiles>
CNC(C)C(=O)NC(C(=O)N1Cc2cc([101O:1][101CH2:1]CCC(C)([100CH2:0][100C:0](=O)N3CCCC(n4nc(-c5ccc(Oc6ccc(F)cc6F)cc5)c(C(N)=O)c4N)C3)C(C)(C)C)ccc2CC1C(=O)NC1CCCc2ccccc21)C(C)(C)C

> <Shape>
0.262

> <Color>
0.062

> <Negative vol penalty>
0.000

$$$$

  -OEChem-04052318223D

 87 95  0     1  0  0  0  0  0999 V2000
  -18.0768  -33.0940   23.1372 C   0  0  0  0  0  0  0  0  0  0  0  0
  -19.2945  -33.1836   22.4704 C   0  0  0  0  0  0  0  0  0  0  0  0
  -26.6204  -13.9965   21.9443 C   0  0  0  0  0  0  0  0  0  0  0  0
  -26.2109  -13.9268   19.5642 C   0  0  0  0  0  0  0  0  0  0  0  0
  -17.8425  -32.0403   24.0197 C   0  0  0  0  0  0  0  0  0  0  0  0
  -20.2791  -32.2201   22.6866 C   0  0  0  0  0  0  0  0  0  0  0  0
  -25.5874  -28.8047   19.2994 C   0  0  0  0  0  0  0  0  0  0  0  0
  -25.7913  -12.8886   22.1194 C   0  0  0  0  0  0  0  0  0  0  0  0
  -25.3818  -12.8188   19.7394 C   0  0  0  0  0  0  0  0  0  0  0  0
  -26.9443  -28.5162   19.4389 C   0  0  0  0  0  0  0  0  0  0  0  0
  -22.8722  -10.1934   19.6008 C   0  0  0  0  0  0  0  0  0  0  0  0
  -21.6532  -10.1822   18.9229 C   0  0  0  0  0  0  0  0  0  0  0  0
  -26.3983  -26.6968   20.9259 C   0  0  0  0  0  0  0  0  0  0  0  0
  -20.9940  -12.2008   20.0752 C   0  0  0  0  0  0  0  0  0  0  0  0
  -30.1074  -23.6939   17.2764 C   0  0  0  0  0  0  0  0  0  0  0  0
  -27.6077  -24.4657   16.7441 C   0  0  0  0  0  0  0  0  0  0  0  0
  -26.8301  -14.5157   20.6667 C   0  0  0  0  0  0  0  0  0  0  0  0
  -29.0734  -15.6554   20.2464 C   0  0  0  0  0  0  0  0  0  0  0  0
  -18.8211  -31.0581   24.2395 C   0  0  0  0  0  0  0  0  0  0  0  0
  -24.6248  -28.0470   19.9818 C   0  0  0  0  0  0  0  0  0  0  0  0
  -20.0582  -31.1531   23.5739 C   0  0  0  0  0  0  0  0  0  0  0  0
  -25.0298  -26.9762   20.7913 C   0  0  0  0  0  0  0  0  0  0  0  0
  -25.1720  -12.2997   21.0170 C   0  0  0  0  0  0  0  0  0  0  0  0
  -27.3501  -27.4639   20.2545 C   0  0  0  0  0  0  0  0  0  0  0  0
  -23.1521  -11.2083   20.5159 C   0  0  0  0  0  0  0  0  0  0  0  0
  -20.7141  -11.1859   19.1601 C   0  0  0  0  0  0  0  0  0  0  0  0
  -22.2130  -12.2120   20.7530 C   0  0  0  0  0  0  0  0  0  0  0  0
  -27.6860  -15.6605   20.4852 C   0  0  0  0  0  0  0  0  0  0  0  0
  -29.6216  -24.8976   17.7376 C   0  0  0  0  0  0  0  0  0  0  0  0
  -28.0935  -23.2623   16.2823 C   0  0  0  0  0  0  0  0  0  0  0  0
  -29.4098  -16.9834   20.1488 C   0  0  0  0  0  0  0  0  0  0  0  0
  -29.9771  -14.5491   20.1238 C   0  0  0  0  0  0  0  0  0  0  0  0
  -22.4256  -28.6773   22.1886 C   0  0  0  0  0  0  0  0  0  0  0  0
  -21.5707  -25.5934   21.6582 C   0  0  0  0  0  0  0  0  0  0  0  0
  -22.4698  -22.4816   20.5836 C   0  0  0  0  0  0  0  0  0  0  0  0
  -26.2995  -21.8791   18.6623 C   0  0  0  0  0  0  0  0  0  0  0  0
  -18.5398  -29.9639   25.2387 C   0  0  0  0  0  0  0  0  0  0  0  0
  -23.1637  -28.3542   19.7997 C   0  0  0  0  0  0  0  0  0  0  0  0
  -24.0349  -26.1196   21.5295 C   0  0  0  0  0  0  0  0  0  0  0  0
  -19.4942  -28.7777   25.1277 C   0  0  0  0  0  0  0  0  0  0  0  0
  -28.0727  -21.3086   21.6966 C   0  0  0  0  0  0  0  0  0  0  0  0
  -20.9369  -29.2614   25.0214 C   0  0  0  0  0  0  0  0  0  0  0  0
  -28.2998  -19.7959   21.7087 C   0  0  0  0  0  0  0  0  0  0  0  0
  -26.7166  -21.6709   21.0952 C   0  0  0  0  0  0  0  0  0  0  0  0
  -26.6894  -19.5942   19.7684 C   0  0  0  0  0  0  0  0  0  0  0  0
  -21.1417  -30.1137   23.7632 C   0  0  1  0  0  0  0  0  0  0  0  0
  -22.2979  -27.8416   20.9464 C   0  0  1  0  0  0  0  0  0  0  0  0
  -28.0674  -19.1829   20.3146 C   0  0  2  0  0  0  0  0  0  0  0  0
  -22.1968  -20.0718   19.9389 C   0  0  0  0  0  0  0  0  0  0  0  0
  -27.9160  -21.0210   15.0129 C   0  0  0  0  0  0  0  0  0  0  0  0
  -21.8263  -25.1368   24.6642 C   0  0  0  0  0  0  0  0  0  0  0  0
  -21.8571  -22.6736   24.2170 C   0  0  0  0  0  0  0  0  0  0  0  0
  -19.8523  -24.0257   23.6043 C   0  0  0  0  0  0  0  0  0  0  0  0
  -21.7872  -23.1856   17.7912 C   0  0  0  0  0  0  0  0  0  0  0  0
  -30.4954  -25.8117   18.5588 C   0  0  0  0  0  0  0  0  0  0  0  0
  -30.4094  -25.5567   20.0652 C   0  0  0  0  0  0  0  0  0  0  0  0
  -25.9090  -21.9271   16.2119 C   0  0  0  0  0  0  0  0  0  0  0  0
  -29.0241  -25.8202   20.6440 C   0  0  0  0  0  0  0  0  0  1  0  0
  -21.9683  -24.2586   22.2405 C   0  0  1  0  0  0  0  0  0  0  0  0
  -21.7895  -21.5062   19.6401 C   0  0  2  0  0  0  0  0  0  0  0  0
  -27.2307  -22.3596   15.4718 C   0  0  1  0  0  0  0  0  0  0  0  0
  -21.3951  -24.0408   23.6693 C   0  0  0  0  0  0  0  0  0  0  0  0
  -26.7911  -23.0645   14.1495 C   0  0  0  0  0  0  0  0  0  0  0  0
  -28.3630  -25.3050   17.4800 N   0  0  0  0  0  0  0  0  0  0  0  0
  -29.3521  -22.8548   16.5402 N   0  0  0  0  0  0  0  0  0  0  0  0
  -27.1761  -16.8940   20.5362 N   0  0  0  0  0  0  0  0  0  0  0  0
  -28.2489  -17.6763   20.3283 N   0  0  0  0  0  0  0  0  0  0  0  0
  -22.6182  -26.4636   21.3242 N   0  0  0  0  0  0  0  0  0  0  0  0
  -26.5599  -21.0598   19.7731 N   0  0  0  0  0  0  0  0  0  0  0  0
  -30.5826  -17.6145   19.9278 N   0  0  0  0  0  0  0  0  0  0  0  0
  -29.4649  -13.2507   20.2508 N   0  0  0  0  0  0  0  0  0  0  0  0
  -21.2441  -29.2696   22.5921 N   0  0  0  0  0  0  0  0  0  0  0  0
  -21.5543  -23.2505   21.2705 N   0  0  0  0  0  0  0  0  0  0  0  0
  -26.1713  -21.2202   17.4457 N   0  0  0  0  0  0  0  0  0  0  0  0
  -22.1522  -21.8133   18.2276 N   0  3  0  0  0  0  0  0  0  0  0  0
  -31.2053  -14.7077   19.9244 O   0  0  0  0  0  0  0  0  0  0  0  0
  -23.5150  -28.7762   22.7409 O   0  0  0  0  0  0  0  0  0  0  0  0
  -20.3751  -25.8517   21.4988 O   0  0  0  0  0  0  0  0  0  0  0  0
  -23.6911  -22.5516   20.7023 O   0  0  0  0  0  0  0  0  0  0  0  0
  -26.1948  -23.1074   18.7474 O   0  0  0  0  0  0  0  0  0  0  0  0
  -24.3631  -11.2184   21.1875 O   0  0  0  0  0  0  0  0  0  0  0  0
  -28.6739  -27.1806   20.3929 O   0  0  0  0  0  0  0  0  0  1  0  0
  -19.5442  -11.1759   18.5079 F   0  0  0  0  0  0  0  0  0  0  0  0
  -22.4767  -13.1903   21.6301 F   0  0  0  0  0  0  0  0  0  0  0  0
  -27.8728  -23.3999   13.4095 F   0  0  0  0  0  0  0  0  0  0  0  0
  -26.1021  -24.1997   14.3990 F   0  0  0  0  0  0  0  0  0  0  0  0
  -26.0009  -22.2866   13.3723 F   0  0  0  0  0  0  0  0  0  0  0  0
  1  2  1  0  0  0  0
  1  5  2  0  0  0  0
  2  6  2  0  0  0  0
  3  8  2  0  0  0  0
  3 17  1  0  0  0  0
  4  9  1  0  0  0  0
  4 17  2  0  0  0  0
  5 19  1  0  0  0  0
  6 21  1  0  0  0  0
  7 10  2  0  0  0  0
  7 20  1  0  0  0  0
  8 23  1  0  0  0  0
  9 23  2  0  0  0  0
 10 24  1  0  0  0  0
 11 12  2  0  0  0  0
 11 25  1  0  0  0  0
 12 26  1  0  0  0  0
 13 22  1  0  0  0  0
 13 24  2  0  0  0  0
 14 26  2  0  0  0  0
 14 27  1  0  0  0  0
 15 29  1  0  0  0  0
 15 65  2  0  0  0  0
 16 30  2  0  0  0  0
 16 64  1  0  0  0  0
 17 28  1  0  0  0  0
 18 28  1  0  0  0  0
 18 31  2  0  0  0  0
 18 32  1  0  0  0  0
 19 21  2  0  0  0  0
 19 37  1  0  0  0  0
 20 22  2  0  0  0  0
 20 38  1  0  0  0  0
 21 46  1  0  0  0  0
 22 39  1  0  0  0  0
 23 81  1  0  0  0  0
 24 82  1  0  0  0  0
 25 27  2  0  0  0  0
 25 81  1  0  0  0  0
 26 83  1  0  0  0  0
 27 84  1  0  0  0  0
 28 66  2  0  0  0  0
 29 55  1  0  0  0  0
 29 64  2  0  0  0  0
 30 61  1  0  0  0  0
 30 65  1  0  0  0  0
 31 67  1  0  0  0  0
 31 70  1  0  0  0  0
 32 71  1  0  0  0  0
 32 76  2  0  0  0  0
 33 47  1  0  0  0  0
 33 72  1  0  0  0  0
 33 77  2  0  0  0  0
 34 59  1  0  0  0  0
 34 68  1  0  0  0  0
 34 78  2  0  0  0  0
 35 60  1  0  0  0  0
 35 73  1  0  0  0  0
 35 79  2  0  0  0  0
 36 69  1  0  0  0  0
 36 74  1  0  0  0  0
 36 80  2  0  0  0  0
 37 40  1  0  0  0  0
 38 47  1  0  0  0  0
 39 68  1  0  0  0  0
 40 42  1  0  0  0  0
 41 43  1  0  0  0  0
 41 44  1  0  0  0  0
 42 46  1  0  0  0  0
 43 48  1  0  0  0  0
 44 69  1  0  0  0  0
 45 48  1  0  0  0  0
 45 69  1  0  0  0  0
 46 72  1  0  0  0  0
 47 68  1  0  0  0  0
 48 67  1  0  0  0  0
 49 60  1  0  0  0  0
 50 61  1  0  0  0  0
 51 62  1  0  0  0  0
 52 62  1  0  0  0  0
 53 62  1  0  0  0  0
 54 75  1  0  0  0  0
 55 56  1  0  0  0  0
 56 58  1  0  0  0  0
 57 61  1  0  0  0  0
 57 74  1  0  0  0  0
 58 82  1  0  0  0  0
 59 62  1  0  0  0  0
 59 73  1  0  0  0  0
 60 75  1  0  0  0  0
 61 63  1  0  0  0  0
 63 85  1  0  0  0  0
 63 86  1  0  0  0  0
 63 87  1  0  0  0  0
 66 67  1  0  0  0  0
M  CHG  1  75   1
M  ISO  4  36 100  58 101  74 100  82 101
M  END
> <Batch ID>
0071

> <Smiles>
CNC(C)C(=O)NC(C(=O)N1Cc2cc([101O:1][101CH2:1]CCc3cnc(C(C)(C[100NH:0][100C:0](=O)N4CCCC(n5nc(-c6ccc(Oc7ccc(F)cc7F)cc6)c(C(N)=O)c5N)C4)C(F)(F)F)cn3)ccc2CC1C(=O)NC1CCCc2ccccc21)C(C)(C)C

> <Shape>
0.230

> <Color>
0.098

> <Negative vol penalty>
0.000

$$$$

  -OEChem-04052318223D

 87 95  0     1  0  0  0  0  0999 V2000
  -22.8703  -19.8050   22.5741 C   0  0  0  0  0  0  0  0  0  0  0  0
  -24.1437  -20.2492   22.2330 C   0  0  0  0  0  0  0  0  0  0  0  0
  -26.3741  -13.0833   20.6430 C   0  0  0  0  0  0  0  0  0  0  0  0
  -26.8580  -13.3152   22.9987 C   0  0  0  0  0  0  0  0  0  0  0  0
  -21.7648  -20.6256   22.3541 C   0  0  0  0  0  0  0  0  0  0  0  0
  -24.3123  -21.5141   21.6706 C   0  0  0  0  0  0  0  0  0  0  0  0
  -29.0368  -25.3183   22.5147 C   0  0  0  0  0  0  0  0  0  0  0  0
  -25.1917  -12.4109   20.9521 C   0  0  0  0  0  0  0  0  0  0  0  0
  -25.6756  -12.6428   23.3078 C   0  0  0  0  0  0  0  0  0  0  0  0
  -30.1736  -25.5856   21.7531 C   0  0  0  0  0  0  0  0  0  0  0  0
  -24.2713   -9.3014   21.9052 C   0  0  0  0  0  0  0  0  0  0  0  0
  -23.9773   -8.1442   21.1842 C   0  0  0  0  0  0  0  0  0  0  0  0
  -29.0579  -27.4821   20.7644 C   0  0  0  0  0  0  0  0  0  0  0  0
  -21.9309   -9.1564   20.3938 C   0  0  0  0  0  0  0  0  0  0  0  0
  -31.1179  -24.2058   16.0550 C   0  0  0  0  0  0  0  0  0  0  0  0
  -27.2072  -13.5354   21.6663 C   0  0  0  0  0  0  0  0  0  0  0  0
  -29.5149  -13.7389   20.5981 C   0  0  0  0  0  0  0  0  0  0  0  0
  -21.9210  -21.9049   21.7978 C   0  0  0  0  0  0  0  0  0  0  0  0
  -27.8963  -26.1259   22.3987 C   0  0  0  0  0  0  0  0  0  0  0  0
  -23.2077  -22.3521   21.4418 C   0  0  0  0  0  0  0  0  0  0  0  0
  -27.9088  -27.2245   21.5275 C   0  0  0  0  0  0  0  0  0  0  0  0
  -24.8425  -12.1906   22.2844 C   0  0  0  0  0  0  0  0  0  0  0  0
  -30.1832  -26.6659   20.8756 C   0  0  0  0  0  0  0  0  0  0  0  0
  -23.3950  -10.3862   21.8706 C   0  0  0  0  0  0  0  0  0  0  0  0
  -22.8072   -8.0716   20.4285 C   0  0  0  0  0  0  0  0  0  0  0  0
  -22.2249  -10.3137   21.1149 C   0  0  0  0  0  0  0  0  0  0  0  0
  -28.4290  -14.2296   21.3477 C   0  0  0  0  0  0  0  0  0  0  0  0
  -30.9387  -25.2251   16.9470 C   0  0  0  0  0  0  0  0  0  0  0  0
  -30.4172  -14.7742   20.5827 C   0  0  0  0  0  0  0  0  0  0  0  0
  -29.1661  -23.9034   17.0547 C   0  0  0  0  0  0  0  0  0  0  0  0
  -29.6920  -12.4614   19.9717 C   0  0  0  0  0  0  0  0  0  0  0  0
  -24.8883  -25.6424   21.4921 C   0  0  0  0  0  0  0  0  0  0  0  0
  -29.7264  -20.7089   21.2258 C   0  0  0  0  0  0  0  0  0  0  0  0
  -24.5126  -28.7151   22.4612 C   0  0  0  0  0  0  0  0  0  0  0  0
  -25.9377  -31.7554   23.0714 C   0  0  0  0  0  0  0  0  0  0  0  0
  -20.6910  -22.7374   21.5350 C   0  0  0  0  0  0  0  0  0  0  0  0
  -26.6875  -25.8401   23.2470 C   0  0  0  0  0  0  0  0  0  0  0  0
  -26.7173  -28.1341   21.3810 C   0  0  0  0  0  0  0  0  0  0  0  0
  -20.9960  -24.2114   21.2812 C   0  0  0  0  0  0  0  0  0  0  0  0
  -31.8446  -18.5460   23.1429 C   0  0  0  0  0  0  0  0  0  0  0  0
  -22.1509  -24.3555   20.2951 C   0  0  0  0  0  0  0  0  0  0  0  0
  -31.2895  -17.1518   22.8541 C   0  0  0  0  0  0  0  0  0  0  0  0
  -30.7340  -19.5909   23.1877 C   0  0  0  0  0  0  0  0  0  0  0  0
  -29.3292  -18.2354   21.6675 C   0  0  0  0  0  0  0  0  0  0  0  0
  -23.4339  -23.7275   20.8526 C   0  0  1  0  0  0  0  0  0  0  0  0
  -25.4011  -26.4224   22.6695 C   0  0  1  0  0  0  0  0  0  0  0  0
  -30.4216  -17.1547   21.5833 C   0  0  2  0  0  0  0  0  0  0  0  0
  -29.1088  -21.2395   13.1400 C   0  0  0  0  0  0  0  0  0  0  0  0
  -25.3700  -34.0828   23.8188 C   0  0  0  0  0  0  0  0  0  0  0  0
  -27.1712  -24.2319   18.5629 C   0  0  0  0  0  0  0  0  0  0  0  0
  -26.7687  -23.2693   16.3176 C   0  0  0  0  0  0  0  0  0  0  0  0
  -23.3230  -29.3046   19.7139 C   0  0  0  0  0  0  0  0  0  0  0  0
  -23.6610  -31.7434   20.1680 C   0  0  0  0  0  0  0  0  0  0  0  0
  -22.1383  -30.4052   21.6217 C   0  0  0  0  0  0  0  0  0  0  0  0
  -27.7072  -31.5527   25.4350 C   0  0  0  0  0  0  0  0  0  0  0  0
  -31.8091  -26.4048   17.2997 C   0  0  0  0  0  0  0  0  0  0  0  0
  -28.8779  -20.5836   19.9855 C   0  0  0  0  0  0  0  0  0  0  0  0
  -29.3488  -22.5119   13.9358 C   0  0  0  0  0  0  0  0  0  0  0  0
  -32.7918  -26.1263   18.4391 C   0  0  0  0  0  0  0  0  0  0  0  0
  -29.7835  -22.1997   15.3660 C   0  0  0  0  0  0  0  0  0  0  0  0
  -27.9459  -21.8995   18.0780 C   0  0  0  0  0  0  0  0  0  0  0  0
  -32.1069  -25.8161   19.7650 C   0  0  0  0  0  0  0  0  0  1  0  0
  -24.6374  -30.0671   21.8013 C   0  0  1  0  0  0  0  0  0  0  0  0
  -25.8284  -32.6998   24.2548 C   0  0  2  0  0  0  0  0  0  0  0  0
  -27.8513  -23.3451   17.4575 C   0  0  0  0  0  0  0  0  0  0  0  0
  -23.4618  -30.3620   20.8273 C   0  0  0  0  0  0  0  0  0  0  0  0
  -28.6220  -15.4794   21.7776 N   0  0  0  0  0  0  0  0  0  0  0  0
  -30.0063  -23.4029   16.1431 N   0  0  0  0  0  0  0  0  0  0  0  0
  -29.8397  -15.7827   21.2965 N   0  0  0  0  0  0  0  0  0  0  0  0
  -29.7229  -25.0129   17.5511 N   0  3  0  0  0  0  0  0  0  0  0  0
  -25.5571  -27.8096   22.2274 N   0  0  0  0  0  0  0  0  0  0  0  0
  -29.9185  -19.5465   21.9727 N   0  0  0  0  0  0  0  0  0  0  0  0
  -31.6405  -14.9112   20.0285 N   0  0  0  0  0  0  0  0  0  0  0  0
  -30.2901  -11.4319   20.7110 N   0  0  0  0  0  0  0  0  0  0  0  0
  -24.0420  -24.6038   21.8307 N   0  0  0  0  0  0  0  0  0  0  0  0
  -24.7758  -31.0375   22.8818 N   0  0  0  0  0  0  0  0  0  0  0  0
  -27.1482  -32.8346   24.9337 N   0  3  0  0  0  0  0  0  0  0  0  0
  -28.8084  -21.8955   19.2879 N   0  3  0  0  0  0  0  0  0  0  0  0
  -29.3454  -12.2442   18.7859 O   0  0  0  0  0  0  0  0  0  0  0  0
  -25.2336  -25.9601   20.3601 O   0  0  0  0  0  0  0  0  0  0  0  0
  -30.2057  -21.8074   21.5189 O   0  0  0  0  0  0  0  0  0  0  0  0
  -23.5281  -28.4740   23.1643 O   0  0  0  0  0  0  0  0  0  0  0  0
  -26.9511  -31.6663   22.3817 O   0  0  0  0  0  0  0  0  0  0  0  0
  -23.6887  -11.5348   22.5863 O   0  0  0  0  0  0  0  0  0  0  0  0
  -31.2912  -26.9286   20.1305 O   0  0  0  0  0  0  0  0  0  1  0  0
  -22.5258   -6.9608   19.7349 F   0  0  0  0  0  0  0  0  0  0  0  0
  -21.3798  -11.3530   21.0768 F   0  0  0  0  0  0  0  0  0  0  0  0
  1  2  1  0  0  0  0
  1  5  2  0  0  0  0
  2  6  2  0  0  0  0
  3  8  2  0  0  0  0
  3 16  1  0  0  0  0
  4  9  1  0  0  0  0
  4 16  2  0  0  0  0
  5 18  1  0  0  0  0
  6 20  1  0  0  0  0
  7 10  2  0  0  0  0
  7 19  1  0  0  0  0
  8 22  1  0  0  0  0
  9 22  2  0  0  0  0
 10 23  1  0  0  0  0
 11 12  2  0  0  0  0
 11 24  1  0  0  0  0
 12 25  1  0  0  0  0
 13 21  1  0  0  0  0
 13 23  2  0  0  0  0
 14 25  2  0  0  0  0
 14 26  1  0  0  0  0
 15 28  2  0  0  0  0
 15 68  1  0  0  0  0
 16 27  1  0  0  0  0
 17 27  1  0  0  0  0
 17 29  2  0  0  0  0
 17 31  1  0  0  0  0
 18 20  2  0  0  0  0
 18 36  1  0  0  0  0
 19 21  2  0  0  0  0
 19 37  1  0  0  0  0
 20 45  1  0  0  0  0
 21 38  1  0  0  0  0
 22 84  1  0  0  0  0
 23 85  1  0  0  0  0
 24 26  2  0  0  0  0
 24 84  1  0  0  0  0
 25 86  1  0  0  0  0
 26 87  1  0  0  0  0
 27 67  2  0  0  0  0
 28 56  1  0  0  0  0
 28 70  1  0  0  0  0
 29 69  1  0  0  0  0
 29 73  1  0  0  0  0
 30 65  1  0  0  0  0
 30 68  1  0  0  0  0
 30 70  2  0  0  0  0
 31 74  1  0  0  0  0
 31 79  2  0  0  0  0
 32 46  1  0  0  0  0
 32 75  1  0  0  0  0
 32 80  2  0  0  0  0
 33 57  1  0  0  0  0
 33 72  1  0  0  0  0
 33 81  2  0  0  0  0
 34 63  1  0  0  0  0
 34 71  1  0  0  0  0
 34 82  2  0  0  0  0
 35 64  1  0  0  0  0
 35 76  1  0  0  0  0
 35 83  2  0  0  0  0
 36 39  1  0  0  0  0
 37 46  1  0  0  0  0
 38 71  1  0  0  0  0
 39 41  1  0  0  0  0
 40 42  1  0  0  0  0
 40 43  1  0  0  0  0
 41 45  1  0  0  0  0
 42 47  1  0  0  0  0
 43 72  1  0  0  0  0
 44 47  1  0  0  0  0
 44 72  1  0  0  0  0
 45 75  1  0  0  0  0
 46 71  1  0  0  0  0
 47 69  1  0  0  0  0
 48 58  1  0  0  0  0
 49 64  1  0  0  0  0
 50 65  1  0  0  0  0
 51 65  1  0  0  0  0
 52 66  1  0  0  0  0
 53 66  1  0  0  0  0
 54 66  1  0  0  0  0
 55 77  1  0  0  0  0
 56 59  1  0  0  0  0
 57 78  1  0  0  0  0
 58 60  1  0  0  0  0
 59 62  1  0  0  0  0
 60 68  1  0  0  0  0
 61 65  1  0  0  0  0
 61 78  1  0  0  0  0
 62 85  1  0  0  0  0
 63 66  1  0  0  0  0
 63 76  1  0  0  0  0
 64 77  1  0  0  0  0
 67 69  1  0  0  0  0
M  CHG  3  70   1  77   1  78   1
M  ISO  4  33 100  57 100  62 101  85 101
M  END
> <Batch ID>
0071

> <Smiles>
CCCn1cc(CC[101CH2:1][101O:1]c2ccc3c(c2)CN(C(=O)C(NC(=O)C(C)NC)C(C)(C)C)C(C(=O)NC2CCCc4ccccc42)C3)nc1C(C)(C)CN[100CH2:0][100C:0](=O)N1CCCC(n2nc(-c3ccc(Oc4ccc(F)cc4F)cc3)c(C(N)=O)c2N)C1

> <Shape>
0.288

> <Color>
0.052

> <Negative vol penalty>
0.000

$$$$

  -OEChem-04052318223D

 92100  0     1  0  0  0  0  0999 V2000
  -35.7765  -33.3553   20.5395 C   0  0  0  0  0  0  0  0  0  0  0  0
  -34.9171  -32.3596   20.9926 C   0  0  0  0  0  0  0  0  0  0  0  0
  -23.2318   -9.8166   19.9308 C   0  0  0  0  0  0  0  0  0  0  0  0
  -23.7892   -9.9403   22.2783 C   0  0  0  0  0  0  0  0  0  0  0  0
  -35.8904  -33.6075   19.1730 C   0  0  0  0  0  0  0  0  0  0  0  0
  -34.1702  -31.6161   20.0795 C   0  0  0  0  0  0  0  0  0  0  0  0
  -32.6227  -25.7081   20.5334 C   0  0  0  0  0  0  0  0  0  0  0  0
  -22.5065   -8.6483   20.1646 C   0  0  0  0  0  0  0  0  0  0  0  0
  -23.0638   -8.7721   22.5121 C   0  0  0  0  0  0  0  0  0  0  0  0
  -31.4550  -25.0741   20.9555 C   0  0  0  0  0  0  0  0  0  0  0  0
  -19.4705   -7.8046   21.3910 C   0  0  0  0  0  0  0  0  0  0  0  0
  -18.2128   -7.6929   20.7983 C   0  0  0  0  0  0  0  0  0  0  0  0
  -30.7271  -24.9007   18.6622 C   0  0  0  0  0  0  0  0  0  0  0  0
  -18.9472   -5.7208   19.6116 C   0  0  0  0  0  0  0  0  0  0  0  0
  -27.2132  -18.9177   22.4922 C   0  0  0  0  0  0  0  0  0  0  0  0
  -23.8732  -10.4626   20.9876 C   0  0  0  0  0  0  0  0  0  0  0  0
  -24.1429  -12.9917   20.7911 C   0  0  0  0  0  0  0  0  0  0  0  0
  -35.1518  -32.8603   18.2421 C   0  0  0  0  0  0  0  0  0  0  0  0
  -32.8468  -25.9534   19.1710 C   0  0  0  0  0  0  0  0  0  0  0  0
  -34.2733  -31.8595   18.6993 C   0  0  0  0  0  0  0  0  0  0  0  0
  -31.8997  -25.5357   18.2251 C   0  0  0  0  0  0  0  0  0  0  0  0
  -27.3819  -19.0808   21.1041 C   0  0  0  0  0  0  0  0  0  0  0  0
  -22.4224   -8.1261   21.4552 C   0  0  0  0  0  0  0  0  0  0  0  0
  -30.5057  -24.6729   20.0202 C   0  0  0  0  0  0  0  0  0  0  0  0
  -20.4666   -6.8745   21.0940 C   0  0  0  0  0  0  0  0  0  0  0  0
  -17.9512   -6.6510   19.9086 C   0  0  0  0  0  0  0  0  0  0  0  0
  -20.2050   -5.8325   20.2043 C   0  0  0  0  0  0  0  0  0  0  0  0
  -24.6231  -11.6691   20.7466 C   0  0  0  0  0  0  0  0  0  0  0  0
  -28.4779  -18.3113   20.7987 C   0  0  0  0  0  0  0  0  0  0  0  0
  -25.2378  -13.7648   20.4912 C   0  0  0  0  0  0  0  0  0  0  0  0
  -22.8250  -13.4779   21.0780 C   0  0  0  0  0  0  0  0  0  0  0  0
  -33.2367  -28.5611   17.3958 C   0  0  0  0  0  0  0  0  0  0  0  0
  -33.8575  -26.4021   15.0558 C   0  0  0  0  0  0  0  0  0  0  0  0
  -33.4638  -23.2291   13.8627 C   0  0  0  0  0  0  0  0  0  0  0  0
  -31.0478  -13.4634   21.6034 C   0  0  0  0  0  0  0  0  0  0  0  0
  -35.2728  -33.2012   16.7779 C   0  0  0  0  0  0  0  0  0  0  0  0
  -34.1238  -26.6144   18.7297 C   0  0  0  0  0  0  0  0  0  0  0  0
  -32.1019  -25.7575   16.7492 C   0  0  0  0  0  0  0  0  0  0  0  0
  -34.7276  -32.1161   15.8528 C   0  0  0  0  0  0  0  0  0  0  0  0
  -29.5637  -12.9860   18.2461 C   0  0  0  0  0  0  0  0  0  0  0  0
  -33.3643  -31.6352   16.3394 C   0  0  0  0  0  0  0  0  0  0  0  0
  -28.1090  -12.6500   18.5697 C   0  0  0  0  0  0  0  0  0  0  0  0
  -30.5065  -12.5649   19.3693 C   0  0  0  0  0  0  0  0  0  0  0  0
  -28.6835  -12.7781   21.0262 C   0  0  0  0  0  0  0  0  0  0  0  0
  -33.4651  -31.0150   17.7382 C   0  0  1  0  0  0  0  0  0  0  0  0
  -34.0121  -27.2746   17.3589 C   0  0  1  0  0  0  0  0  0  0  0  0
  -27.7022  -13.2316   19.9348 C   0  0  2  0  0  0  0  0  0  0  0  0
  -33.7885  -21.2531   12.3502 C   0  0  0  0  0  0  0  0  0  0  0  0
  -25.9210  -18.9953   19.0724 C   0  0  0  0  0  0  0  0  0  0  0  0
  -25.3302  -20.6333   20.8359 C   0  0  0  0  0  0  0  0  0  0  0  0
  -32.3560  -20.8636   17.8614 C   0  0  0  0  0  0  0  0  0  0  0  0
  -33.4640  -18.9013   18.9397 C   0  0  0  0  0  0  0  0  0  0  0  0
  -33.1475  -18.9400   16.4618 C   0  0  0  0  0  0  0  0  0  0  0  0
  -31.7249  -27.7959   13.3768 C   0  0  0  0  0  0  0  0  0  0  0  0
  -31.6856  -25.7861   11.8844 C   0  0  0  0  0  0  0  0  0  0  0  0
  -33.7763  -27.1276   12.1121 C   0  0  0  0  0  0  0  0  0  0  0  0
  -31.7094  -14.9343   23.4684 C   0  0  0  0  0  0  0  0  0  0  0  0
  -35.8216  -22.2999   15.3911 C   0  0  0  0  0  0  0  0  0  0  0  0
  -29.1642  -18.0594   19.5174 C   0  0  0  0  0  0  0  0  0  0  0  0
  -30.4778  -18.8594   19.3742 C   0  0  0  0  0  0  0  0  0  0  0  0
  -28.0341  -22.0578   20.3357 C   0  0  0  0  0  0  0  0  0  0  0  0
  -27.3904  -21.0097   19.4200 C   0  0  0  0  0  0  0  0  0  0  0  0
  -31.1523  -18.6212   18.0174 C   0  0  0  0  0  0  0  0  0  0  0  0
  -30.0016  -16.8635   22.1762 C   0  0  0  0  0  0  0  0  0  0  0  0
  -29.5825  -15.4018   22.3093 C   0  0  0  0  0  0  0  0  0  0  0  0
  -28.7745  -23.1179   19.5290 C   0  0  0  0  0  0  0  0  0  1  0  0
  -33.0266  -25.6651   14.0333 C   0  0  1  0  0  0  0  0  0  0  0  0
  -34.4615  -22.2345   13.2972 C   0  0  2  0  0  0  0  0  0  0  0  0
  -26.5264  -19.9319   20.1482 C   0  0  0  0  0  0  0  0  0  0  0  0
  -32.5141  -19.3352   17.8059 C   0  0  0  0  0  0  0  0  0  0  0  0
  -32.5484  -26.5911   12.8795 C   0  0  0  0  0  0  0  0  0  0  0  0
  -28.1287  -18.1081   23.0313 N   0  0  0  0  0  0  0  0  0  0  0  0
  -25.9219  -11.6021   20.4423 N   0  0  0  0  0  0  0  0  0  0  0  0
  -28.8831  -17.7555   21.9764 N   0  0  0  0  0  0  0  0  0  0  0  0
  -26.2671  -12.8922   20.2927 N   0  0  0  0  0  0  0  0  0  0  0  0
  -33.3636  -26.4135   16.3679 N   0  0  0  0  0  0  0  0  0  0  0  0
  -30.0724  -13.0956   20.6620 N   0  0  0  0  0  0  0  0  0  0  0  0
  -25.4109  -15.0990   20.3805 N   0  0  0  0  0  0  0  0  0  0  0  0
  -21.8173  -12.5472   21.3655 N   0  0  0  0  0  0  0  0  0  0  0  0
  -34.0090  -29.6762   17.6595 N   0  0  0  0  0  0  0  0  0  0  0  0
  -33.8318  -24.5305   13.5942 N   0  0  0  0  0  0  0  0  0  0  0  0
  -30.7264  -14.5091   22.4820 N   0  0  0  0  0  0  0  0  0  0  0  0
  -35.1025  -21.4611   14.3980 N   0  3  0  0  0  0  0  0  0  0  0  0
  -22.5452  -14.7006   21.0631 O   0  0  0  0  0  0  0  0  0  0  0  0
  -32.0274  -28.5436   17.1981 O   0  0  0  0  0  0  0  0  0  0  0  0
  -34.9098  -26.9416   14.7047 O   0  0  0  0  0  0  0  0  0  0  0  0
  -32.4566  -22.8857   14.4776 O   0  0  0  0  0  0  0  0  0  0  0  0
  -32.1470  -12.8963   21.6492 O   0  0  0  0  0  0  0  0  0  0  0  0
  -21.7145   -6.9863   21.6838 O   0  0  0  0  0  0  0  0  0  0  0  0
  -29.3647  -24.0544   20.4296 O   0  0  0  0  0  0  0  0  0  1  0  0
  -16.7429   -6.5430   19.3407 F   0  0  0  0  0  0  0  0  0  0  0  0
  -21.1576   -4.9352   19.9159 F   0  0  0  0  0  0  0  0  0  0  0  0
  1  2  1  0  0  0  0
  1  5  2  0  0  0  0
  2  6  2  0  0  0  0
  3  8  2  0  0  0  0
  3 16  1  0  0  0  0
  4  9  1  0  0  0  0
  4 16  2  0  0  0  0
  5 18  1  0  0  0  0
  6 20  1  0  0  0  0
  7 10  2  0  0  0  0
  7 19  1  0  0  0  0
  8 23  1  0  0  0  0
  9 23  2  0  0  0  0
 10 24  1  0  0  0  0
 11 12  2  0  0  0  0
 11 25  1  0  0  0  0
 12 26  1  0  0  0  0
 13 21  1  0  0  0  0
 13 24  2  0  0  0  0
 14 26  2  0  0  0  0
 14 27  1  0  0  0  0
 15 22  1  0  0  0  0
 15 72  2  0  0  0  0
 16 28  1  0  0  0  0
 17 28  1  0  0  0  0
 17 30  2  0  0  0  0
 17 31  1  0  0  0  0
 18 20  2  0  0  0  0
 18 36  1  0  0  0  0
 19 21  2  0  0  0  0
 19 37  1  0  0  0  0
 20 45  1  0  0  0  0
 21 38  1  0  0  0  0
 22 29  2  0  0  0  0
 22 69  1  0  0  0  0
 23 89  1  0  0  0  0
 24 90  1  0  0  0  0
 25 27  2  0  0  0  0
 25 89  1  0  0  0  0
 26 91  1  0  0  0  0
 27 92  1  0  0  0  0
 28 73  2  0  0  0  0
 29 59  1  0  0  0  0
 29 74  1  0  0  0  0
 30 75  1  0  0  0  0
 30 78  1  0  0  0  0
 31 79  1  0  0  0  0
 31 84  2  0  0  0  0
 32 46  1  0  0  0  0
 32 80  1  0  0  0  0
 32 85  2  0  0  0  0
 33 67  1  0  0  0  0
 33 76  1  0  0  0  0
 33 86  2  0  0  0  0
 34 68  1  0  0  0  0
 34 81  1  0  0  0  0
 34 87  2  0  0  0  0
 35 77  1  0  0  0  0
 35 82  1  0  0  0  0
 35 88  2  0  0  0  0
 36 39  1  0  0  0  0
 37 46  1  0  0  0  0
 38 76  1  0  0  0  0
 39 41  1  0  0  0  0
 40 42  1  0  0  0  0
 40 43  1  0  0  0  0
 41 45  1  0  0  0  0
 42 47  1  0  0  0  0
 43 77  1  0  0  0  0
 44 47  1  0  0  0  0
 44 77  1  0  0  0  0
 45 80  1  0  0  0  0
 46 76  1  0  0  0  0
 47 75  1  0  0  0  0
 48 68  1  0  0  0  0
 49 69  1  0  0  0  0
 50 69  1  0  0  0  0
 51 70  1  0  0  0  0
 52 70  1  0  0  0  0
 53 70  1  0  0  0  0
 54 71  1  0  0  0  0
 55 71  1  0  0  0  0
 56 71  1  0  0  0  0
 57 82  1  0  0  0  0
 58 83  1  0  0  0  0
 59 60  1  0  0  0  0
 60 63  1  0  0  0  0
 61 62  1  0  0  0  0
 61 66  1  0  0  0  0
 62 69  1  0  0  0  0
 63 70  1  0  0  0  0
 64 65  1  0  0  0  0
 64 74  1  0  0  0  0
 65 82  1  0  0  0  0
 66 90  1  0  0  0  0
 67 71  1  0  0  0  0
 67 81  1  0  0  0  0
 68 83  1  0  0  0  0
 72 74  1  0  0  0  0
 73 75  1  0  0  0  0
M  CHG  1  83   1
M  ISO  4  35 100  66 101  82 100  90 101
M  END
> <Batch ID>
0071

> <Smiles>
CNC(C)C(=O)NC(C(=O)N1Cc2cc([101O:1][101CH2:1]CCC(C)(C)c3cnn(CC[100N:0](C)[100C:0](=O)N4CCCC(n5nc(-c6ccc(Oc7ccc(F)cc7F)cc6)c(C(N)=O)c5N)C4)c3CCCC(C)(C)C)ccc2CC1C(=O)NC1CCCc2ccccc21)C(C)(C)C

> <Shape>
0.204

> <Color>
0.170

> <Negative vol penalty>
0.000

$$$$

  -OEChem-04052318223D

 88 96  0     1  0  0  0  0  0999 V2000
  -21.3195  -23.3755   22.0164 C   0  0  0  0  0  0  0  0  0  0  0  0
  -22.6217  -23.0428   21.6572 C   0  0  0  0  0  0  0  0  0  0  0  0
  -22.3072  -28.2407   21.0015 C   0  0  0  0  0  0  0  0  0  0  0  0
  -23.5665  -27.9805   23.0469 C   0  0  0  0  0  0  0  0  0  0  0  0
  -20.5629  -22.4930   22.7862 C   0  0  0  0  0  0  0  0  0  0  0  0
  -23.1684  -21.8278   22.0686 C   0  0  0  0  0  0  0  0  0  0  0  0
  -27.1122  -18.3239   18.9580 C   0  0  0  0  0  0  0  0  0  0  0  0
  -21.1210  -28.0333   21.7053 C   0  0  0  0  0  0  0  0  0  0  0  0
  -22.3802  -27.7731   23.7508 C   0  0  0  0  0  0  0  0  0  0  0  0
  -28.4974  -18.1822   19.0271 C   0  0  0  0  0  0  0  0  0  0  0  0
  -19.0758  -29.8187   23.7208 C   0  0  0  0  0  0  0  0  0  0  0  0
  -18.0075  -30.6762   23.4578 C   0  0  0  0  0  0  0  0  0  0  0  0
  -28.2237  -16.2722   20.4749 C   0  0  0  0  0  0  0  0  0  0  0  0
  -16.6655  -28.7912   22.7629 C   0  0  0  0  0  0  0  0  0  0  0  0
  -31.9728  -19.3179   22.2910 C   0  0  0  0  0  0  0  0  0  0  0  0
  -23.5300  -28.2143   21.6722 C   0  0  0  0  0  0  0  0  0  0  0  0
  -25.3989  -29.6570   20.7063 C   0  0  0  0  0  0  0  0  0  0  0  0
  -21.0973  -21.2623   23.1991 C   0  0  0  0  0  0  0  0  0  0  0  0
  -26.2711  -17.4460   19.6567 C   0  0  0  0  0  0  0  0  0  0  0  0
  -22.4187  -20.9286   22.8458 C   0  0  0  0  0  0  0  0  0  0  0  0
  -26.8281  -16.4034   20.4109 C   0  0  0  0  0  0  0  0  0  0  0  0
  -33.0010  -19.0109   21.4233 C   0  0  0  0  0  0  0  0  0  0  0  0
  -21.1575  -27.7995   23.0800 C   0  0  0  0  0  0  0  0  0  0  0  0
  -29.0535  -17.1580   19.7880 C   0  0  0  0  0  0  0  0  0  0  0  0
  -18.9389  -28.4474   23.5048 C   0  0  0  0  0  0  0  0  0  0  0  0
  -16.8024  -30.1625   22.9789 C   0  0  0  0  0  0  0  0  0  0  0  0
  -17.7338  -27.9337   23.0259 C   0  0  0  0  0  0  0  0  0  0  0  0
  -24.7558  -28.4279   20.9456 C   0  0  0  0  0  0  0  0  0  0  0  0
  -33.9053  -20.0260   21.1863 C   0  0  0  0  0  0  0  0  0  0  0  0
  -26.5149  -29.3245   19.9780 C   0  0  0  0  0  0  0  0  0  0  0  0
  -32.7749  -21.4256   22.5757 C   0  0  0  0  0  0  0  0  0  0  0  0
  -25.0215  -30.9810   21.1067 C   0  0  0  0  0  0  0  0  0  0  0  0
  -24.1249  -17.7677   21.9792 C   0  0  0  0  0  0  0  0  0  0  0  0
  -23.5847  -14.6251   21.3840 C   0  0  0  0  0  0  0  0  0  0  0  0
  -29.6659  -24.2240   19.5679 C   0  0  0  0  0  0  0  0  0  0  0  0
  -24.7630  -11.6627   20.1663 C   0  0  0  0  0  0  0  0  0  0  0  0
  -20.2574  -20.3618   24.0700 C   0  0  0  0  0  0  0  0  0  0  0  0
  -24.7783  -17.5960   19.5503 C   0  0  0  0  0  0  0  0  0  0  0  0
  -25.9683  -15.4220   21.1634 C   0  0  0  0  0  0  0  0  0  0  0  0
  -20.7812  -18.9302   24.1496 C   0  0  0  0  0  0  0  0  0  0  0  0
  -28.1480  -26.0631   16.8933 C   0  0  0  0  0  0  0  0  0  0  0  0
  -22.2859  -18.9254   24.4000 C   0  0  0  0  0  0  0  0  0  0  0  0
  -27.1443  -26.9693   17.6051 C   0  0  0  0  0  0  0  0  0  0  0  0
  -28.2681  -24.7098   17.5869 C   0  0  0  0  0  0  0  0  0  0  0  0
  -27.6060  -25.7052   19.7531 C   0  0  0  0  0  0  0  0  0  0  0  0
  -23.0384  -19.6091   23.2520 C   0  0  1  0  0  0  0  0  0  0  0  0
  -24.0291  -16.9589   20.7166 C   0  0  1  0  0  0  0  0  0  0  0  0
  -27.4771  -27.0939   19.1025 C   0  0  2  0  0  0  0  0  0  0  0  0
  -35.0596  -19.8082   20.2646 C   0  0  0  0  0  0  0  0  0  0  0  0
  -24.1054   -9.2617   19.8502 C   0  0  0  0  0  0  0  0  0  0  0  0
  -32.7018  -22.6490   24.7803 C   0  0  0  0  0  0  0  0  0  0  0  0
  -33.7955  -23.7845   22.8712 C   0  0  0  0  0  0  0  0  0  0  0  0
  -30.1235  -25.9238   21.3275 C   0  0  0  0  0  0  0  0  0  0  0  0
  -28.7492  -23.8728   21.8546 C   0  0  0  0  0  0  0  0  0  0  0  0
  -24.0320  -14.1135   24.3586 C   0  0  0  0  0  0  0  0  0  0  0  0
  -24.3080  -11.6824   23.8278 C   0  0  0  0  0  0  0  0  0  0  0  0
  -22.1415  -12.8232   23.3509 C   0  0  0  0  0  0  0  0  0  0  0  0
  -25.0426  -11.8524   17.2261 C   0  0  0  0  0  0  0  0  0  0  0  0
  -33.1059  -17.6473   20.7884 C   0  0  0  0  0  0  0  0  0  0  0  0
  -32.6667  -17.6148   19.3229 C   0  0  0  0  0  0  0  0  0  0  0  0
  -31.2909  -23.4877   22.8879 C   0  0  0  0  0  0  0  0  0  0  0  0
  -31.1940  -17.9555   19.1262 C   0  0  0  0  0  0  0  0  0  1  0  0
  -24.1520  -13.3258   21.9027 C   0  0  1  0  0  0  0  0  0  0  0  0
  -24.1480  -10.6459   19.2218 C   0  0  2  0  0  0  0  0  0  0  0  0
  -32.6500  -22.7666   23.2163 C   0  0  0  0  0  0  0  0  0  0  0  0
  -29.9067  -24.4416   21.0406 C   0  0  0  0  0  0  0  0  0  0  0  0
  -23.6749  -13.0057   23.3475 C   0  0  0  0  0  0  0  0  0  0  0  0
  -31.8287  -20.5195   22.8873 N   0  0  0  0  0  0  0  0  0  0  0  0
  -25.4087  -27.3918   20.4124 N   0  0  0  0  0  0  0  0  0  0  0  0
  -33.8223  -21.2501   21.7476 N   0  0  0  0  0  0  0  0  0  0  0  0
  -26.4737  -27.9692   19.8307 N   0  0  0  0  0  0  0  0  0  0  0  0
  -24.5145  -15.6141   21.0331 N   0  0  0  0  0  0  0  0  0  0  0  0
  -28.5625  -24.8715   19.0118 N   0  0  0  0  0  0  0  0  0  0  0  0
  -27.5176  -30.0621   19.4554 N   0  0  0  0  0  0  0  0  0  0  0  0
  -23.8450  -31.1441   21.8508 N   0  0  0  0  0  0  0  0  0  0  0  0
  -23.1348  -18.7225   22.1121 N   0  0  0  0  0  0  0  0  0  0  0  0
  -23.8036  -12.3066   20.9188 N   0  0  0  0  0  0  0  0  0  0  0  0
  -24.9385  -10.5655   17.9610 N   0  3  0  0  0  0  0  0  0  0  0  0
  -31.1440  -23.7118   21.4264 N   0  3  0  0  0  0  0  0  0  0  0  0
  -25.6984  -31.9913   20.7992 O   0  0  0  0  0  0  0  0  0  0  0  0
  -25.0291  -17.5413   22.7746 O   0  0  0  0  0  0  0  0  0  0  0  0
  -22.3619  -14.7550   21.2867 O   0  0  0  0  0  0  0  0  0  0  0  0
  -30.4383  -23.5021   18.9319 O   0  0  0  0  0  0  0  0  0  0  0  0
  -25.9738  -11.8630   20.2328 O   0  0  0  0  0  0  0  0  0  0  0  0
  -20.0001  -27.5973   23.7672 O   0  0  0  0  0  0  0  0  0  0  0  0
  -30.4053  -17.0179   19.8577 O   0  0  0  0  0  0  0  0  0  1  0  0
  -15.7762  -30.9858   22.7278 F   0  0  0  0  0  0  0  0  0  0  0  0
  -17.5960  -26.6171   22.8175 F   0  0  0  0  0  0  0  0  0  0  0  0
  1  2  1  0  0  0  0
  1  5  2  0  0  0  0
  2  6  2  0  0  0  0
  3  8  2  0  0  0  0
  3 16  1  0  0  0  0
  4  9  1  0  0  0  0
  4 16  2  0  0  0  0
  5 18  1  0  0  0  0
  6 20  1  0  0  0  0
  7 10  2  0  0  0  0
  7 19  1  0  0  0  0
  8 23  1  0  0  0  0
  9 23  2  0  0  0  0
 10 24  1  0  0  0  0
 11 12  2  0  0  0  0
 11 25  1  0  0  0  0
 12 26  1  0  0  0  0
 13 21  1  0  0  0  0
 13 24  2  0  0  0  0
 14 26  2  0  0  0  0
 14 27  1  0  0  0  0
 15 22  1  0  0  0  0
 15 68  2  0  0  0  0
 16 28  1  0  0  0  0
 17 28  1  0  0  0  0
 17 30  2  0  0  0  0
 17 32  1  0  0  0  0
 18 20  2  0  0  0  0
 18 37  1  0  0  0  0
 19 21  2  0  0  0  0
 19 38  1  0  0  0  0
 20 46  1  0  0  0  0
 21 39  1  0  0  0  0
 22 29  2  0  0  0  0
 22 59  1  0  0  0  0
 23 85  1  0  0  0  0
 24 86  1  0  0  0  0
 25 27  2  0  0  0  0
 25 85  1  0  0  0  0
 26 87  1  0  0  0  0
 27 88  1  0  0  0  0
 28 69  2  0  0  0  0
 29 49  1  0  0  0  0
 29 70  1  0  0  0  0
 30 71  1  0  0  0  0
 30 74  1  0  0  0  0
 31 65  1  0  0  0  0
 31 68  1  0  0  0  0
 31 70  2  0  0  0  0
 32 75  1  0  0  0  0
 32 80  2  0  0  0  0
 33 47  1  0  0  0  0
 33 76  1  0  0  0  0
 33 81  2  0  0  0  0
 34 63  1  0  0  0  0
 34 72  1  0  0  0  0
 34 82  2  0  0  0  0
 35 66  1  0  0  0  0
 35 73  1  0  0  0  0
 35 83  2  0  0  0  0
 36 64  1  0  0  0  0
 36 77  1  0  0  0  0
 36 84  2  0  0  0  0
 37 40  1  0  0  0  0
 38 47  1  0  0  0  0
 39 72  1  0  0  0  0
 40 42  1  0  0  0  0
 41 43  1  0  0  0  0
 41 44  1  0  0  0  0
 42 46  1  0  0  0  0
 43 48  1  0  0  0  0
 44 73  1  0  0  0  0
 45 48  1  0  0  0  0
 45 73  1  0  0  0  0
 46 76  1  0  0  0  0
 47 72  1  0  0  0  0
 48 71  1  0  0  0  0
 50 64  1  0  0  0  0
 51 65  1  0  0  0  0
 52 65  1  0  0  0  0
 53 66  1  0  0  0  0
 54 66  1  0  0  0  0
 55 67  1  0  0  0  0
 56 67  1  0  0  0  0
 57 67  1  0  0  0  0
 58 78  1  0  0  0  0
 59 60  1  0  0  0  0
 60 62  1  0  0  0  0
 61 65  1  0  0  0  0
 61 79  1  0  0  0  0
 62 86  1  0  0  0  0
 63 67  1  0  0  0  0
 63 77  1  0  0  0  0
 64 78  1  0  0  0  0
 66 79  1  0  0  0  0
 69 71  1  0  0  0  0
M  CHG  2  78   1  79   1
M  ISO  4  35 100  62 101  66 100  86 101
M  END
> <Batch ID>
0071

> <Smiles>
CNC(C)C(=O)NC(C(=O)N1Cc2cc([101O:1][101CH2:1]CCc3cnc(C(C)(C)CN[100C:0](C)(C)[100C:0](=O)N4CCCC(n5nc(-c6ccc(Oc7ccc(F)cc7F)cc6)c(C(N)=O)c5N)C4)nc3C)ccc2CC1C(=O)NC1CCCc2ccccc21)C(C)(C)C

> <Shape>
0.219

> <Color>
0.073

> <Negative vol penalty>
0.000

$$$$

  -OEChem-04052318223D

 85 93  0     1  0  0  0  0  0999 V2000
  -32.1963  -14.4361   21.2871 C   0  0  0  0  0  0  0  0  0  0  0  0
  -31.2986  -15.4786   21.4938 C   0  0  0  0  0  0  0  0  0  0  0  0
  -28.9699  -25.1167   19.4100 C   0  0  0  0  0  0  0  0  0  0  0  0
  -26.8961  -23.9572   19.8478 C   0  0  0  0  0  0  0  0  0  0  0  0
  -31.7771  -13.2749   20.6392 C   0  0  0  0  0  0  0  0  0  0  0  0
  -29.9813  -15.3609   21.0518 C   0  0  0  0  0  0  0  0  0  0  0  0
  -24.9752  -17.6308   23.7523 C   0  0  0  0  0  0  0  0  0  0  0  0
  -29.6579  -23.9043   19.4571 C   0  0  0  0  0  0  0  0  0  0  0  0
  -27.5840  -22.7447   19.8949 C   0  0  0  0  0  0  0  0  0  0  0  0
  -24.2235  -18.7815   23.5188 C   0  0  0  0  0  0  0  0  0  0  0  0
  -28.8773  -20.5295   17.6947 C   0  0  0  0  0  0  0  0  0  0  0  0
  -28.3230  -19.4448   17.0152 C   0  0  0  0  0  0  0  0  0  0  0  0
  -22.6913  -17.4990   22.1671 C   0  0  0  0  0  0  0  0  0  0  0  0
  -28.1860  -18.2149   19.0902 C   0  0  0  0  0  0  0  0  0  0  0  0
  -22.6543  -26.6438   21.1162 C   0  0  0  0  0  0  0  0  0  0  0  0
  -27.5890  -25.1432   19.6054 C   0  0  0  0  0  0  0  0  0  0  0  0
  -26.2998  -27.0020   18.4262 C   0  0  0  0  0  0  0  0  0  0  0  0
  -30.4515  -13.1390   20.1976 C   0  0  0  0  0  0  0  0  0  0  0  0
  -24.5961  -16.4056   23.1851 C   0  0  0  0  0  0  0  0  0  0  0  0
  -29.5443  -14.1974   20.3962 C   0  0  0  0  0  0  0  0  0  0  0  0
  -23.4385  -16.3337   22.3971 C   0  0  0  0  0  0  0  0  0  0  0  0
  -28.9649  -22.7182   19.6995 C   0  0  0  0  0  0  0  0  0  0  0  0
  -23.0830  -18.7163   22.7237 C   0  0  0  0  0  0  0  0  0  0  0  0
  -29.0861  -20.4568   19.0720 C   0  0  0  0  0  0  0  0  0  0  0  0
  -27.9773  -18.2875   17.7129 C   0  0  0  0  0  0  0  0  0  0  0  0
  -28.7404  -19.2996   19.7697 C   0  0  0  0  0  0  0  0  0  0  0  0
  -26.8779  -26.3955   19.5574 C   0  0  0  0  0  0  0  0  0  0  0  0
  -22.0308  -27.2215   22.1922 C   0  0  0  0  0  0  0  0  0  0  0  0
  -25.7490  -28.1658   18.9044 C   0  0  0  0  0  0  0  0  0  0  0  0
  -21.2720  -24.8684   21.3090 C   0  0  0  0  0  0  0  0  0  0  0  0
  -26.2637  -26.5534   17.0649 C   0  0  0  0  0  0  0  0  0  0  0  0
  -25.9280  -14.3757   21.1335 C   0  0  0  0  0  0  0  0  0  0  0  0
  -23.3542  -12.5458   21.8746 C   0  0  0  0  0  0  0  0  0  0  0  0
  -23.8663  -29.7588   24.3843 C   0  0  0  0  0  0  0  0  0  0  0  0
  -20.1429  -12.3904   23.0192 C   0  0  0  0  0  0  0  0  0  0  0  0
  -30.0570  -11.8840   19.4601 C   0  0  0  0  0  0  0  0  0  0  0  0
  -25.4027  -15.1681   23.4685 C   0  0  0  0  0  0  0  0  0  0  0  0
  -22.9773  -15.0387   21.7816 C   0  0  0  0  0  0  0  0  0  0  0  0
  -28.5467  -11.6879   19.3560 C   0  0  0  0  0  0  0  0  0  0  0  0
  -26.2883  -31.4359   22.3444 C   0  0  0  0  0  0  0  0  0  0  0  0
  -27.8686  -12.9843   18.9244 C   0  0  0  0  0  0  0  0  0  0  0  0
  -26.6825  -30.3793   21.3131 C   0  0  0  0  0  0  0  0  0  0  0  0
  -25.9995  -30.8082   23.7045 C   0  0  0  0  0  0  0  0  0  0  0  0
  -25.3606  -28.6693   22.6374 C   0  0  0  0  0  0  0  0  0  0  0  0
  -28.1007  -14.0973   19.9533 C   0  0  1  0  0  0  0  0  0  0  0  0
  -25.2112  -14.0768   22.4198 C   0  0  1  0  0  0  0  0  0  0  0  0
  -25.6311  -29.2577   21.2414 C   0  0  2  0  0  0  0  0  0  0  0  0
  -18.2918  -10.7592   23.4776 C   0  0  0  0  0  0  0  0  0  0  0  0
  -21.7230  -28.8597   25.1700 C   0  0  0  0  0  0  0  0  0  0  0  0
  -23.6583  -27.3539   24.6288 C   0  0  0  0  0  0  0  0  0  0  0  0
  -22.7892  -12.3497   18.8826 C   0  0  0  0  0  0  0  0  0  0  0  0
  -20.4816  -11.5554   19.4412 C   0  0  0  0  0  0  0  0  0  0  0  0
  -22.4646  -10.2169   20.1475 C   0  0  0  0  0  0  0  0  0  0  0  0
  -20.0929  -13.0782   25.8972 C   0  0  0  0  0  0  0  0  0  0  0  0
  -20.8138  -23.5160   20.8243 C   0  0  0  0  0  0  0  0  0  0  0  0
  -21.7457  -22.3667   21.2242 C   0  0  0  0  0  0  0  0  0  0  0  0
  -21.8391  -22.1707   22.7381 C   0  0  0  0  0  0  0  0  0  0  0  0
  -22.8028  -21.0481   23.0981 C   0  0  0  0  0  0  0  0  0  1  0  0
  -22.4513  -28.5535   22.7019 C   0  0  2  0  0  0  0  0  0  0  0  0
  -21.9560  -12.3951   21.3259 C   0  0  1  0  0  0  0  0  0  0  0  0
  -19.4860  -11.5002   24.0587 C   0  0  2  0  0  0  0  0  0  0  0  0
  -22.8951  -28.6188   24.2077 C   0  0  0  0  0  0  0  0  0  0  0  0
  -21.9323  -11.6542   19.9592 C   0  0  0  0  0  0  0  0  0  0  0  0
  -22.2860  -25.4428   20.6450 N   0  0  0  0  0  0  0  0  0  0  0  0
  -26.7102  -27.1146   20.6704 N   0  0  0  0  0  0  0  0  0  0  0  0
  -21.0177  -26.5967   22.8193 N   0  0  0  0  0  0  0  0  0  0  0  0
  -20.6232  -25.3871   22.3702 N   0  0  0  0  0  0  0  0  0  0  0  0
  -26.0205  -28.1851   20.2408 N   0  0  0  0  0  0  0  0  0  0  0  0
  -23.8031  -13.8577   22.0828 N   0  0  0  0  0  0  0  0  0  0  0  0
  -25.0130  -29.7326   23.5904 N   0  0  0  0  0  0  0  0  0  0  0  0
  -25.0639  -29.1643   18.3078 N   0  0  0  0  0  0  0  0  0  0  0  0
  -26.8787  -25.3349   16.7464 N   0  0  0  0  0  0  0  0  0  0  0  0
  -27.2314  -13.9182   21.0964 N   0  0  0  0  0  0  0  0  0  0  0  0
  -21.1748  -11.7441   22.3721 N   0  0  0  0  0  0  0  0  0  0  0  0
  -19.0166  -12.3141   25.2155 N   0  3  0  0  0  0  0  0  0  0  0  0
  -25.7170  -27.2214   16.1548 O   0  0  0  0  0  0  0  0  0  0  0  0
  -25.3416  -14.9756   20.2403 O   0  0  0  0  0  0  0  0  0  0  0  0
  -24.0209  -11.5365   22.1165 O   0  0  0  0  0  0  0  0  0  0  0  0
  -23.6102  -30.6466   25.2018 O   0  0  0  0  0  0  0  0  0  0  0  0
  -19.7748  -13.5424   22.8003 O   0  0  0  0  0  0  0  0  0  0  0  0
  -21.3908  -29.5035   22.4738 O   0  0  0  0  0  0  0  0  0  0  0  0
  -29.6358  -21.5349   19.7453 O   0  0  0  0  0  0  0  0  0  0  0  0
  -22.3479  -19.8382   22.4936 O   0  0  0  0  0  0  0  0  0  1  0  0
  -27.4435  -17.2465   17.0605 F   0  0  0  0  0  0  0  0  0  0  0  0
  -28.9375  -19.2243   21.0931 F   0  0  0  0  0  0  0  0  0  0  0  0
  1  2  1  0  0  0  0
  1  5  2  0  0  0  0
  2  6  2  0  0  0  0
  3  8  2  0  0  0  0
  3 16  1  0  0  0  0
  4  9  1  0  0  0  0
  4 16  2  0  0  0  0
  5 18  1  0  0  0  0
  6 20  1  0  0  0  0
  7 10  2  0  0  0  0
  7 19  1  0  0  0  0
  8 22  1  0  0  0  0
  9 22  2  0  0  0  0
 10 23  1  0  0  0  0
 11 12  2  0  0  0  0
 11 24  1  0  0  0  0
 12 25  1  0  0  0  0
 13 21  1  0  0  0  0
 13 23  2  0  0  0  0
 14 25  2  0  0  0  0
 14 26  1  0  0  0  0
 15 28  1  0  0  0  0
 15 64  2  0  0  0  0
 16 27  1  0  0  0  0
 17 27  1  0  0  0  0
 17 29  2  0  0  0  0
 17 31  1  0  0  0  0
 18 20  2  0  0  0  0
 18 36  1  0  0  0  0
 19 21  2  0  0  0  0
 19 37  1  0  0  0  0
 20 45  1  0  0  0  0
 21 38  1  0  0  0  0
 22 82  1  0  0  0  0
 23 83  1  0  0  0  0
 24 26  2  0  0  0  0
 24 82  1  0  0  0  0
 25 84  1  0  0  0  0
 26 85  1  0  0  0  0
 27 65  2  0  0  0  0
 28 59  1  0  0  0  0
 28 66  2  0  0  0  0
 29 68  1  0  0  0  0
 29 71  1  0  0  0  0
 30 55  1  0  0  0  0
 30 64  1  0  0  0  0
 30 67  2  0  0  0  0
 31 72  1  0  0  0  0
 31 76  2  0  0  0  0
 32 46  1  0  0  0  0
 32 73  1  0  0  0  0
 32 77  2  0  0  0  0
 33 60  1  0  0  0  0
 33 69  1  0  0  0  0
 33 78  2  0  0  0  0
 34 62  1  0  0  0  0
 34 70  1  0  0  0  0
 34 79  2  0  0  0  0
 35 61  1  0  0  0  0
 35 74  1  0  0  0  0
 35 80  2  0  0  0  0
 36 39  1  0  0  0  0
 37 46  1  0  0  0  0
 38 69  1  0  0  0  0
 39 41  1  0  0  0  0
 40 42  1  0  0  0  0
 40 43  1  0  0  0  0
 41 45  1  0  0  0  0
 42 47  1  0  0  0  0
 43 70  1  0  0  0  0
 44 47  1  0  0  0  0
 44 70  1  0  0  0  0
 45 73  1  0  0  0  0
 46 69  1  0  0  0  0
 47 68  1  0  0  0  0
 48 61  1  0  0  0  0
 49 62  1  0  0  0  0
 50 62  1  0  0  0  0
 51 63  1  0  0  0  0
 52 63  1  0  0  0  0
 53 63  1  0  0  0  0
 54 75  1  0  0  0  0
 55 56  1  0  0  0  0
 56 57  1  0  0  0  0
 57 58  1  0  0  0  0
 58 83  1  0  0  0  0
 59 62  1  0  0  0  0
 59 81  1  0  0  0  0
 60 63  1  0  0  0  0
 60 74  1  0  0  0  0
 61 75  1  0  0  0  0
 65 68  1  0  0  0  0
 66 67  1  0  0  0  0
M  CHG  1  75   1
M  ISO  4  34 100  58 101  62 100  83 101
M  END
> <Batch ID>
0071

> <Smiles>
CNC(C)C(=O)NC(C(=O)N1Cc2cc([101O:1][101CH2:1]CCCc3ncc(C(O)[100C:0](C)(C)[100C:0](=O)N4CCCC(n5nc(-c6ccc(Oc7ccc(F)cc7F)cc6)c(C(N)=O)c5N)C4)nn3)ccc2CC1C(=O)NC1CCCc2ccccc21)C(C)(C)C

> <Shape>
0.255

> <Color>
0.066

> <Negative vol penalty>
0.000

$$$$

  -OEChem-04052318223D

 86 93  0     1  0  0  0  0  0999 V2000
  -21.1941  -18.6728   20.2269 C   0  0  0  0  0  0  0  0  0  0  0  0
  -21.5899  -19.9483   20.6167 C   0  0  0  0  0  0  0  0  0  0  0  0
  -20.2907  -26.5047   23.5050 C   0  0  0  0  0  0  0  0  0  0  0  0
  -21.7715  -26.5796   25.4126 C   0  0  0  0  0  0  0  0  0  0  0  0
  -22.0531  -17.5904   20.4125 C   0  0  0  0  0  0  0  0  0  0  0  0
  -22.8446  -20.1419   21.1934 C   0  0  0  0  0  0  0  0  0  0  0  0
  -26.4794  -25.0281   20.5460 C   0  0  0  0  0  0  0  0  0  0  0  0
  -19.9536  -25.1880   23.8184 C   0  0  0  0  0  0  0  0  0  0  0  0
  -21.4343  -25.2629   25.7261 C   0  0  0  0  0  0  0  0  0  0  0  0
  -26.7010  -26.1454   21.3499 C   0  0  0  0  0  0  0  0  0  0  0  0
  -21.2383  -21.8031   26.8218 C   0  0  0  0  0  0  0  0  0  0  0  0
  -22.2736  -20.9317   27.1602 C   0  0  0  0  0  0  0  0  0  0  0  0
  -28.6313  -25.0638   22.3107 C   0  0  0  0  0  0  0  0  0  0  0  0
  -23.2817  -21.2882   24.9938 C   0  0  0  0  0  0  0  0  0  0  0  0
  -21.1997  -27.2005   24.3021 C   0  0  0  0  0  0  0  0  0  0  0  0
  -20.9105  -29.7319   24.4282 C   0  0  0  0  0  0  0  0  0  0  0  0
  -23.3228  -17.7724   20.9829 C   0  0  0  0  0  0  0  0  0  0  0  0
  -27.3272  -23.9140   20.6263 C   0  0  0  0  0  0  0  0  0  0  0  0
  -23.7209  -19.0607   21.3880 C   0  0  0  0  0  0  0  0  0  0  0  0
  -28.4199  -23.9346   21.5049 C   0  0  0  0  0  0  0  0  0  0  0  0
  -20.5254  -24.5671   24.9289 C   0  0  0  0  0  0  0  0  0  0  0  0
  -27.7754  -26.1623   22.2345 C   0  0  0  0  0  0  0  0  0  0  0  0
  -21.2246  -22.4169   25.5694 C   0  0  0  0  0  0  0  0  0  0  0  0
  -23.2953  -20.6743   26.2462 C   0  0  0  0  0  0  0  0  0  0  0  0
  -22.2464  -22.1595   24.6553 C   0  0  0  0  0  0  0  0  0  0  0  0
  -21.5488  -28.5605   23.9786 C   0  0  0  0  0  0  0  0  0  0  0  0
  -21.6159  -30.7541   23.8415 C   0  0  0  0  0  0  0  0  0  0  0  0
  -19.7811  -29.8827   25.2984 C   0  0  0  0  0  0  0  0  0  0  0  0
  -26.9482  -20.8596   21.4207 C   0  0  0  0  0  0  0  0  0  0  0  0
  -30.0379  -20.6304   20.4596 C   0  0  0  0  0  0  0  0  0  0  0  0
  -26.6511  -33.1328   22.9610 C   0  0  0  0  0  0  0  0  0  0  0  0
  -33.0278  -22.1856   19.9219 C   0  0  0  0  0  0  0  0  0  0  0  0
  -24.1979  -16.5646   21.2068 C   0  0  0  0  0  0  0  0  0  0  0  0
  -27.0902  -22.7272   19.7331 C   0  0  0  0  0  0  0  0  0  0  0  0
  -29.3713  -22.7722   21.6145 C   0  0  0  0  0  0  0  0  0  0  0  0
  -25.6585  -16.9132   21.4815 C   0  0  0  0  0  0  0  0  0  0  0  0
  -25.6054  -30.5407   20.6516 C   0  0  0  0  0  0  0  0  0  0  0  0
  -25.7551  -18.0360   22.5095 C   0  0  0  0  0  0  0  0  0  0  0  0
  -24.5686  -29.8393   21.5353 C   0  0  0  0  0  0  0  0  0  0  0  0
  -25.7507  -32.0334   20.9378 C   0  0  0  0  0  0  0  0  0  0  0  0
  -24.4989  -31.8213   23.0874 C   0  0  0  0  0  0  0  0  0  0  0  0
  -25.0839  -19.3149   21.9943 C   0  0  1  0  0  0  0  0  0  0  0  0
  -27.7156  -21.4426   20.2679 C   0  0  1  0  0  0  0  0  0  0  0  0
  -23.6537  -30.8390   22.2572 C   0  0  2  0  0  0  0  0  0  0  0  0
  -29.1124  -30.5181   25.8616 C   0  0  0  0  0  0  0  0  0  0  0  0
  -26.6508  -29.3899   27.2185 C   0  0  0  0  0  0  0  0  0  0  0  0
  -35.4071  -22.4623   19.1738 C   0  0  0  0  0  0  0  0  0  0  0  0
  -28.6074  -30.2916   23.0824 C   0  0  0  0  0  0  0  0  0  0  0  0
  -24.9584  -29.7588   24.3029 C   0  0  0  0  0  0  0  0  0  0  0  0
  -25.0782  -34.8862   23.6821 C   0  0  0  0  0  0  0  0  0  0  0  0
  -27.4279  -34.8790   24.4098 C   0  0  0  0  0  0  0  0  0  0  0  0
  -30.6550  -19.3642   23.1663 C   0  0  0  0  0  0  0  0  0  0  0  0
  -33.0825  -19.8061   22.7413 C   0  0  0  0  0  0  0  0  0  0  0  0
  -31.8084  -18.2898   21.2246 C   0  0  0  0  0  0  0  0  0  0  0  0
  -26.1389  -33.8238   26.7274 C   0  0  0  0  0  0  0  0  0  0  0  0
  -24.2766  -32.8593   25.4356 C   0  0  0  0  0  0  0  0  0  0  0  0
  -32.2000  -22.9578   17.1875 C   0  0  0  0  0  0  0  0  0  0  0  0
  -28.1636  -31.7086   25.6878 C   0  0  0  0  0  0  0  0  0  0  0  0
  -26.0791  -30.7559   26.8540 C   0  0  0  0  0  0  0  0  0  0  0  0
  -27.0787  -28.3412   22.8845 C   0  0  0  0  0  0  0  0  0  1  0  0
  -31.3809  -20.7800   21.1328 C   0  0  1  0  0  0  0  0  0  0  0  0
  -33.9821  -22.1534   18.7418 C   0  0  2  0  0  0  0  0  0  0  0  0
  -27.4955  -29.5055   23.8118 C   0  0  2  0  0  0  0  0  0  0  0  0
  -26.3213  -30.4738   24.2756 C   0  0  2  0  0  0  0  0  0  0  0  0
  -26.2064  -33.9458   24.1530 C   0  0  0  0  0  0  0  0  0  0  0  0
  -31.7128  -19.5813   22.0658 C   0  0  0  0  0  0  0  0  0  0  0  0
  -25.8335  -33.0048   25.4445 C   0  0  0  0  0  0  0  0  0  0  0  0
  -26.5914  -31.4802   25.5480 C   0  0  0  0  0  0  0  0  0  0  0  0
  -22.5802  -28.8137   23.1686 N   0  0  0  0  0  0  0  0  0  0  0  0
  -22.5954  -30.1560   23.1046 N   0  0  0  0  0  0  0  0  0  0  0  0
  -29.0938  -21.6325   20.7248 N   0  0  0  0  0  0  0  0  0  0  0  0
  -25.6750  -32.3286   22.3668 N   0  0  0  0  0  0  0  0  0  0  0  0
  -21.4876  -32.0971   23.8892 N   0  0  0  0  0  0  0  0  0  0  0  0
  -19.1753  -28.7283   25.8130 N   0  0  0  0  0  0  0  0  0  0  0  0
  -25.9430  -19.9892   21.0447 N   0  0  0  0  0  0  0  0  0  0  0  0
  -32.3515  -20.9924   20.0647 N   0  0  0  0  0  0  0  0  0  0  0  0
  -33.5735  -23.1561   17.7178 N   0  3  0  0  0  0  0  0  0  0  0  0
  -19.3124  -31.0072   25.5973 O   0  0  0  0  0  0  0  0  0  0  0  0
  -27.2470  -21.1750   22.5666 O   0  0  0  0  0  0  0  0  0  0  0  0
  -29.8365  -19.6640   19.7199 O   0  0  0  0  0  0  0  0  0  0  0  0
  -27.8211  -33.2046   22.5785 O   0  0  0  0  0  0  0  0  0  0  0  0
  -32.8982  -23.1694   20.6471 O   0  0  0  0  0  0  0  0  0  0  0  0
  -20.1965  -23.2823   25.2352 O   0  0  0  0  0  0  0  0  0  0  0  0
  -27.9948  -27.2575   23.0252 O   0  0  0  0  0  0  0  0  0  1  0  0
  -24.2903  -19.8388   26.5719 F   0  0  0  0  0  0  0  0  0  0  0  0
  -22.2393  -22.7472   23.4510 F   0  0  0  0  0  0  0  0  0  0  0  0
  1  2  1  0  0  0  0
  1  5  2  0  0  0  0
  2  6  2  0  0  0  0
  3  8  2  0  0  0  0
  3 15  1  0  0  0  0
  4  9  1  0  0  0  0
  4 15  2  0  0  0  0
  5 17  1  0  0  0  0
  6 19  1  0  0  0  0
  7 10  2  0  0  0  0
  7 18  1  0  0  0  0
  8 21  1  0  0  0  0
  9 21  2  0  0  0  0
 10 22  1  0  0  0  0
 11 12  2  0  0  0  0
 11 23  1  0  0  0  0
 12 24  1  0  0  0  0
 13 20  1  0  0  0  0
 13 22  2  0  0  0  0
 14 24  2  0  0  0  0
 14 25  1  0  0  0  0
 15 26  1  0  0  0  0
 16 26  1  0  0  0  0
 16 27  2  0  0  0  0
 16 28  1  0  0  0  0
 17 19  2  0  0  0  0
 17 33  1  0  0  0  0
 18 20  2  0  0  0  0
 18 34  1  0  0  0  0
 19 42  1  0  0  0  0
 20 35  1  0  0  0  0
 21 83  1  0  0  0  0
 22 84  1  0  0  0  0
 23 25  2  0  0  0  0
 23 83  1  0  0  0  0
 24 85  1  0  0  0  0
 25 86  1  0  0  0  0
 26 69  2  0  0  0  0
 27 70  1  0  0  0  0
 27 73  1  0  0  0  0
 28 74  1  0  0  0  0
 28 78  2  0  0  0  0
 29 43  1  0  0  0  0
 29 75  1  0  0  0  0
 29 79  2  0  0  0  0
 30 61  1  0  0  0  0
 30 71  1  0  0  0  0
 30 80  2  0  0  0  0
 31 65  1  0  0  0  0
 31 72  1  0  0  0  0
 31 81  2  0  0  0  0
 32 62  1  0  0  0  0
 32 76  1  0  0  0  0
 32 82  2  0  0  0  0
 33 36  1  0  0  0  0
 34 43  1  0  0  0  0
 35 71  1  0  0  0  0
 36 38  1  0  0  0  0
 37 39  1  0  0  0  0
 37 40  1  0  0  0  0
 38 42  1  0  0  0  0
 39 44  1  0  0  0  0
 40 72  1  0  0  0  0
 41 44  1  0  0  0  0
 41 72  1  0  0  0  0
 42 75  1  0  0  0  0
 43 71  1  0  0  0  0
 44 70  1  0  0  0  0
 45 58  1  0  0  0  0
 46 59  1  0  0  0  0
 47 62  1  0  0  0  0
 48 63  1  0  0  0  0
 49 64  1  0  0  0  0
 50 65  1  0  0  0  0
 51 65  1  0  0  0  0
 52 66  1  0  0  0  0
 53 66  1  0  0  0  0
 54 66  1  0  0  0  0
 55 67  1  0  0  0  0
 56 67  1  0  0  0  0
 57 77  1  0  0  0  0
 58 68  1  0  0  0  0
 59 68  1  0  0  0  0
 60 63  1  0  0  0  0
 60 84  1  0  0  0  0
 61 66  1  0  0  0  0
 61 76  1  0  0  0  0
 62 77  1  0  0  0  0
 63 64  1  0  0  0  0
 64 68  1  0  0  0  0
 65 67  1  0  0  0  0
 67 68  1  0  0  0  0
 69 70  1  0  0  0  0
M  CHG  1  77   1
M  ISO  4  31 100  60 101  65 100  84 101
M  END
> <Batch ID>
0071

> <Smiles>
CCC(CC)(C(C)C(C)[101CH2:1][101O:1]c1ccc2c(c1)CN(C(=O)C(NC(=O)C(C)NC)C(C)(C)C)C(C(=O)NC1CCCc3ccccc31)C2)C(C)(C)[100C:0](C)(C)[100C:0](=O)N1CCCC(n2nc(-c3ccc(Oc4ccc(F)cc4F)cc3)c(C(N)=O)c2N)C1

> <Shape>
0.182

> <Color>
0.070

> <Negative vol penalty>
0.000

$$$$

  -OEChem-04052318223D

 87 95  0     1  0  0  0  0  0999 V2000
  -25.0357  -34.9529   23.2699 C   0  0  0  0  0  0  0  0  0  0  0  0
  -25.7500  -33.7844   23.0253 C   0  0  0  0  0  0  0  0  0  0  0  0
  -24.7085  -13.9222   22.2292 C   0  0  0  0  0  0  0  0  0  0  0  0
  -25.5249  -14.3938   20.0048 C   0  0  0  0  0  0  0  0  0  0  0  0
  -23.7316  -34.8821   23.7578 C   0  0  0  0  0  0  0  0  0  0  0  0
  -25.1608  -32.5444   23.2695 C   0  0  0  0  0  0  0  0  0  0  0  0
  -25.9660  -29.2385   19.5188 C   0  0  0  0  0  0  0  0  0  0  0  0
  -28.2001  -23.6291   16.2433 C   0  0  0  0  0  0  0  0  0  0  0  0
  -23.9222  -12.8881   21.7214 C   0  0  0  0  0  0  0  0  0  0  0  0
  -24.7387  -13.3597   19.4970 C   0  0  0  0  0  0  0  0  0  0  0  0
  -27.2174  -28.6258   19.4678 C   0  0  0  0  0  0  0  0  0  0  0  0
  -21.9748   -9.8901   21.0620 C   0  0  0  0  0  0  0  0  0  0  0  0
  -21.9710   -8.6787   21.7534 C   0  0  0  0  0  0  0  0  0  0  0  0
  -29.0292  -24.6806   16.6176 C   0  0  0  0  0  0  0  0  0  0  0  0
  -26.2888  -26.6566   20.5067 C   0  0  0  0  0  0  0  0  0  0  0  0
  -24.3540   -8.4759   21.4109 C   0  0  0  0  0  0  0  0  0  0  0  0
  -25.5098  -14.6751   21.3709 C   0  0  0  0  0  0  0  0  0  0  0  0
  -27.6468  -15.6543   22.3620 C   0  0  0  0  0  0  0  0  0  0  0  0
  -23.1227  -33.6405   23.9990 C   0  0  0  0  0  0  0  0  0  0  0  0
  -24.8673  -28.5678   20.0750 C   0  0  0  0  0  0  0  0  0  0  0  0
  -23.8478  -32.4570   23.7624 C   0  0  0  0  0  0  0  0  0  0  0  0
  -25.0241  -27.2620   20.5613 C   0  0  0  0  0  0  0  0  0  0  0  0
  -27.8001  -22.6948   17.1921 C   0  0  0  0  0  0  0  0  0  0  0  0
  -23.9373  -12.6068   20.3553 C   0  0  0  0  0  0  0  0  0  0  0  0
  -27.3796  -27.3358   19.9644 C   0  0  0  0  0  0  0  0  0  0  0  0
  -23.1681  -10.3944   20.5449 C   0  0  0  0  0  0  0  0  0  0  0  0
  -23.1606   -7.9716   21.9279 C   0  0  0  0  0  0  0  0  0  0  0  0
  -24.3577   -9.6873   20.7194 C   0  0  0  0  0  0  0  0  0  0  0  0
  -26.3218  -15.7439   21.8949 C   0  0  0  0  0  0  0  0  0  0  0  0
  -29.4273  -24.7525   17.9428 C   0  0  0  0  0  0  0  0  0  0  0  0
  -28.2534  -22.8555   18.4916 C   0  0  0  0  0  0  0  0  0  0  0  0
  -27.9620  -16.9341   22.7481 C   0  0  0  0  0  0  0  0  0  0  0  0
  -28.5150  -14.5160   22.4398 C   0  0  0  0  0  0  0  0  0  0  0  0
  -22.9387  -29.0878   22.5476 C   0  0  0  0  0  0  0  0  0  0  0  0
  -21.3573  -26.5188   21.3553 C   0  0  0  0  0  0  0  0  0  0  0  0
  -25.7842  -22.2803   21.0787 C   0  0  0  0  0  0  0  0  0  0  0  0
  -21.4578  -23.6685   19.4813 C   0  0  0  0  0  0  0  0  0  0  0  0
  -21.7275  -33.6151   24.5713 C   0  0  0  0  0  0  0  0  0  0  0  0
  -23.5182  -29.2324   20.0983 C   0  0  0  0  0  0  0  0  0  0  0  0
  -23.8717  -26.4913   21.1499 C   0  0  0  0  0  0  0  0  0  0  0  0
  -21.0437  -32.2558   24.4489 C   0  0  0  0  0  0  0  0  0  0  0  0
  -25.9754  -20.9515   24.4010 C   0  0  0  0  0  0  0  0  0  0  0  0
  -21.9893  -31.1412   24.8852 C   0  0  0  0  0  0  0  0  0  0  0  0
  -26.1778  -19.4535   24.1774 C   0  0  0  0  0  0  0  0  0  0  0  0
  -25.0704  -21.5582   23.3333 C   0  0  0  0  0  0  0  0  0  0  0  0
  -25.7364  -19.8159   21.7078 C   0  0  0  0  0  0  0  0  0  0  0  0
  -23.2343  -31.0926   23.9914 C   0  0  1  0  0  0  0  0  0  0  0  0
  -22.5837  -28.6508   21.1546 C   0  0  1  0  0  0  0  0  0  0  0  0
  -26.6695  -19.1696   22.7470 C   0  0  2  0  0  0  0  0  0  0  0  0
  -26.9129  -21.5654   16.7968 C   0  0  0  0  0  0  0  0  0  0  0  0
  -32.1344  -24.2812   19.3855 C   0  0  0  0  0  0  0  0  0  0  0  0
  -20.0181  -21.7586   18.7216 C   0  0  0  0  0  0  0  0  0  0  0  0
  -31.2918  -26.4193   17.2790 C   0  0  0  0  0  0  0  0  0  0  0  0
  -28.3273  -20.4355   19.1946 C   0  0  0  0  0  0  0  0  0  0  0  0
  -28.4712  -22.1725   20.9671 C   0  0  0  0  0  0  0  0  0  0  0  0
  -21.5708  -25.2589   24.1261 C   0  0  0  0  0  0  0  0  0  0  0  0
  -20.9996  -23.0523   23.0902 C   0  0  0  0  0  0  0  0  0  0  0  0
  -19.3624  -24.9321   22.9988 C   0  0  0  0  0  0  0  0  0  0  0  0
  -21.8158  -24.3805   16.6311 C   0  0  0  0  0  0  0  0  0  0  0  0
  -31.2123  -25.4744   19.6208 C   0  0  0  0  0  0  0  0  0  0  0  0
  -29.4657  -27.1090   18.8452 C   0  0  0  0  0  0  0  0  0  1  0  0
  -21.4380  -25.0251   21.5582 C   0  0  1  0  0  0  0  0  0  0  0  0
  -26.2907  -21.8823   19.7153 C   0  0  2  0  0  0  0  0  0  0  0  0
  -20.5404  -23.1478   18.3897 C   0  0  2  0  0  0  0  0  0  0  0  0
  -30.3456  -25.9064   18.3943 C   0  0  2  0  0  0  0  0  0  0  0  0
  -27.8534  -21.8843   19.5535 C   0  0  0  0  0  0  0  0  0  0  0  0
  -20.8650  -24.5821   22.9341 C   0  0  0  0  0  0  0  0  0  0  0  0
  -25.8291  -16.9827   21.9761 N   0  0  0  0  0  0  0  0  0  0  0  0
  -29.0594  -23.8639   18.8928 N   0  0  0  0  0  0  0  0  0  0  0  0
  -26.8499  -17.6833   22.4989 N   0  0  0  0  0  0  0  0  0  0  0  0
  -22.5739  -27.1865   21.1560 N   0  0  0  0  0  0  0  0  0  0  0  0
  -25.5589  -21.2473   21.9888 N   0  0  0  0  0  0  0  0  0  0  0  0
  -29.0792  -17.4805   23.2733 N   0  0  0  0  0  0  0  0  0  0  0  0
  -28.0319  -13.2759   22.0004 N   0  0  0  0  0  0  0  0  0  0  0  0
  -22.9251  -30.4578   22.7281 N   0  0  0  0  0  0  0  0  0  0  0  0
  -20.7705  -24.4206   20.4104 N   0  0  0  0  0  0  0  0  0  0  0  0
  -21.2681  -23.0784   17.0909 N   0  3  0  0  0  0  0  0  0  0  0  0
  -29.6790  -14.5929   22.9011 O   0  0  0  0  0  0  0  0  0  0  0  0
  -23.2038  -28.2446   23.3963 O   0  0  0  0  0  0  0  0  0  0  0  0
  -20.2547  -27.0719   21.3660 O   0  0  0  0  0  0  0  0  0  0  0  0
  -25.5977  -23.4745   21.3266 O   0  0  0  0  0  0  0  0  0  0  0  0
  -22.6629  -23.4286   19.5093 O   0  0  0  0  0  0  0  0  0  0  0  0
  -23.1703  -11.5976   19.8594 O   0  0  0  0  0  0  0  0  0  0  0  0
  -28.6000  -26.7357   19.9164 O   0  0  0  0  0  0  0  0  0  1  0  0
  -23.1571   -6.8090   22.5932 F   0  0  0  0  0  0  0  0  0  0  0  0
  -25.5075  -10.1673   20.2260 F   0  0  0  0  0  0  0  0  0  0  0  0
  -25.7697  -22.7223   18.7753 F   0  0  0  0  0  0  0  0  0  0  0  0
  1  2  1  0  0  0  0
  1  5  2  0  0  0  0
  2  6  2  0  0  0  0
  3  9  2  0  0  0  0
  3 17  1  0  0  0  0
  4 10  1  0  0  0  0
  4 17  2  0  0  0  0
  5 19  1  0  0  0  0
  6 21  1  0  0  0  0
  7 11  2  0  0  0  0
  7 20  1  0  0  0  0
  8 14  2  0  0  0  0
  8 23  1  0  0  0  0
  9 24  1  0  0  0  0
 10 24  2  0  0  0  0
 11 25  1  0  0  0  0
 12 13  2  0  0  0  0
 12 26  1  0  0  0  0
 13 27  1  0  0  0  0
 14 30  1  0  0  0  0
 15 22  1  0  0  0  0
 15 25  2  0  0  0  0
 16 27  2  0  0  0  0
 16 28  1  0  0  0  0
 17 29  1  0  0  0  0
 18 29  1  0  0  0  0
 18 32  2  0  0  0  0
 18 33  1  0  0  0  0
 19 21  2  0  0  0  0
 19 38  1  0  0  0  0
 20 22  2  0  0  0  0
 20 39  1  0  0  0  0
 21 47  1  0  0  0  0
 22 40  1  0  0  0  0
 23 31  2  0  0  0  0
 23 50  1  0  0  0  0
 24 83  1  0  0  0  0
 25 84  1  0  0  0  0
 26 28  2  0  0  0  0
 26 83  1  0  0  0  0
 27 85  1  0  0  0  0
 28 86  1  0  0  0  0
 29 68  2  0  0  0  0
 30 65  1  0  0  0  0
 30 69  2  0  0  0  0
 31 66  1  0  0  0  0
 31 69  1  0  0  0  0
 32 70  1  0  0  0  0
 32 73  1  0  0  0  0
 33 74  1  0  0  0  0
 33 78  2  0  0  0  0
 34 48  1  0  0  0  0
 34 75  1  0  0  0  0
 34 79  2  0  0  0  0
 35 62  1  0  0  0  0
 35 71  1  0  0  0  0
 35 80  2  0  0  0  0
 36 63  1  0  0  0  0
 36 72  1  0  0  0  0
 36 81  2  0  0  0  0
 37 64  1  0  0  0  0
 37 76  1  0  0  0  0
 37 82  2  0  0  0  0
 38 41  1  0  0  0  0
 39 48  1  0  0  0  0
 40 71  1  0  0  0  0
 41 43  1  0  0  0  0
 42 44  1  0  0  0  0
 42 45  1  0  0  0  0
 43 47  1  0  0  0  0
 44 49  1  0  0  0  0
 45 72  1  0  0  0  0
 46 49  1  0  0  0  0
 46 72  1  0  0  0  0
 47 75  1  0  0  0  0
 48 71  1  0  0  0  0
 49 70  1  0  0  0  0
 51 60  1  0  0  0  0
 52 64  1  0  0  0  0
 53 65  1  0  0  0  0
 54 66  1  0  0  0  0
 55 66  1  0  0  0  0
 56 67  1  0  0  0  0
 57 67  1  0  0  0  0
 58 67  1  0  0  0  0
 59 77  1  0  0  0  0
 60 65  1  0  0  0  0
 61 65  1  0  0  0  0
 61 84  1  0  0  0  0
 62 67  1  0  0  0  0
 62 76  1  0  0  0  0
 63 66  1  0  0  0  0
 63 87  1  0  0  0  0
 64 77  1  0  0  0  0
 68 70  1  0  0  0  0
M  CHG  1  77   1
M  ISO  4  36 100  61 101  63 100  84 101
M  END
> <Batch ID>
0071

> <Smiles>
CCC(C)(c1ccc(C)c(C(C)(C)[100CH:0](F)[100C:0](=O)N2CCCC(n3nc(-c4ccc(Oc5ccc(F)cc5F)cc4)c(C(N)=O)c3N)C2)n1)[101CH2:1][101O:1]c1ccc2c(c1)CN(C(=O)C(NC(=O)C(C)NC)C(C)(C)C)C(C(=O)NC1CCCc3ccccc31)C2

> <Shape>
0.243

> <Color>
0.082

> <Negative vol penalty>
0.000

$$$$

  -OEChem-04052318223D

 87 95  0     1  0  0  0  0  0999 V2000
  -39.6907  -20.0965   13.1444 C   0  0  0  0  0  0  0  0  0  0  0  0
  -39.0080  -19.8007   14.3199 C   0  0  0  0  0  0  0  0  0  0  0  0
  -23.2896   -9.7969   19.9144 C   0  0  0  0  0  0  0  0  0  0  0  0
  -23.7399   -9.9402   22.2838 C   0  0  0  0  0  0  0  0  0  0  0  0
  -40.2381  -21.3652   12.9578 C   0  0  0  0  0  0  0  0  0  0  0  0
  -38.8734  -20.7732   15.3102 C   0  0  0  0  0  0  0  0  0  0  0  0
  -34.1777  -20.9904   17.1938 C   0  0  0  0  0  0  0  0  0  0  0  0
  -22.5644   -8.6238   20.1231 C   0  0  0  0  0  0  0  0  0  0  0  0
  -23.0147   -8.7671   22.4925 C   0  0  0  0  0  0  0  0  0  0  0  0
  -33.8161  -20.0104   18.1172 C   0  0  0  0  0  0  0  0  0  0  0  0
  -19.7685   -7.8528   22.7102 C   0  0  0  0  0  0  0  0  0  0  0  0
  -18.8660   -7.8311   23.7735 C   0  0  0  0  0  0  0  0  0  0  0  0
  -34.2125  -21.5678   19.9163 C   0  0  0  0  0  0  0  0  0  0  0  0
  -20.0736   -5.9861   24.7608 C   0  0  0  0  0  0  0  0  0  0  0  0
  -23.8774  -10.4551   20.9947 C   0  0  0  0  0  0  0  0  0  0  0  0
  -24.1341  -12.9852   20.7939 C   0  0  0  0  0  0  0  0  0  0  0  0
  -40.1017  -22.3566   13.9422 C   0  0  0  0  0  0  0  0  0  0  0  0
  -34.5705  -22.2653   17.6261 C   0  0  0  0  0  0  0  0  0  0  0  0
  -39.4206  -22.0559   15.1372 C   0  0  0  0  0  0  0  0  0  0  0  0
  -34.5761  -22.5630   18.9963 C   0  0  0  0  0  0  0  0  0  0  0  0
  -32.7279  -17.1699   21.0063 C   0  0  0  0  0  0  0  0  0  0  0  0
  -22.4269   -8.1089   21.4122 C   0  0  0  0  0  0  0  0  0  0  0  0
  -33.8362  -20.2981   19.4788 C   0  0  0  0  0  0  0  0  0  0  0  0
  -20.8236   -6.9411   22.6722 C   0  0  0  0  0  0  0  0  0  0  0  0
  -19.0186   -6.8978   24.7988 C   0  0  0  0  0  0  0  0  0  0  0  0
  -20.9761   -6.0078   23.6975 C   0  0  0  0  0  0  0  0  0  0  0  0
  -24.6271  -11.6666   20.7797 C   0  0  0  0  0  0  0  0  0  0  0  0
  -31.4144  -16.8588   21.2931 C   0  0  0  0  0  0  0  0  0  0  0  0
  -33.6714  -16.5997   21.8363 C   0  0  0  0  0  0  0  0  0  0  0  0
  -25.2348  -13.7660   20.5383 C   0  0  0  0  0  0  0  0  0  0  0  0
  -32.0522  -15.5597   23.0460 C   0  0  0  0  0  0  0  0  0  0  0  0
  -22.8005  -13.4616   21.0180 C   0  0  0  0  0  0  0  0  0  0  0  0
  -37.2322  -23.9884   17.4020 C   0  0  0  0  0  0  0  0  0  0  0  0
  -35.3910  -26.2919   18.7532 C   0  0  0  0  0  0  0  0  0  0  0  0
  -32.6699  -27.0807   20.6559 C   0  0  0  0  0  0  0  0  0  0  0  0
  -31.1066  -12.9299   21.3596 C   0  0  0  0  0  0  0  0  0  0  0  0
  -40.7514  -23.6988   13.7156 C   0  0  0  0  0  0  0  0  0  0  0  0
  -34.9320  -23.3196   16.6160 C   0  0  0  0  0  0  0  0  0  0  0  0
  -34.9706  -23.9224   19.5108 C   0  0  0  0  0  0  0  0  0  0  0  0
  -40.2411  -24.7888   14.6546 C   0  0  0  0  0  0  0  0  0  0  0  0
  -29.4574  -13.6648   18.2910 C   0  0  0  0  0  0  0  0  0  0  0  0
  -40.1953  -24.2775   16.0911 C   0  0  0  0  0  0  0  0  0  0  0  0
  -27.9879  -13.3550   18.5821 C   0  0  0  0  0  0  0  0  0  0  0  0
  -30.3916  -12.6870   19.0003 C   0  0  0  0  0  0  0  0  0  0  0  0
  -28.7051  -12.2575   20.7454 C   0  0  0  0  0  0  0  0  0  0  0  0
  -39.2322  -23.0917   16.2242 C   0  0  1  0  0  0  0  0  0  0  0  0
  -35.8096  -24.4253   17.1945 C   0  0  1  0  0  0  0  0  0  0  0  0
  -27.7262  -13.2510   20.0967 C   0  0  2  0  0  0  0  0  0  0  0  0
  -30.3063  -17.4177   20.4623 C   0  0  0  0  0  0  0  0  0  0  0  0
  -31.4429  -29.0461   21.6196 C   0  0  0  0  0  0  0  0  0  0  0  0
  -30.2822  -14.9534   24.8339 C   0  0  0  0  0  0  0  0  0  0  0  0
  -32.7048  -14.8022   25.3477 C   0  0  0  0  0  0  0  0  0  0  0  0
  -37.5506  -26.5903   20.8880 C   0  0  0  0  0  0  0  0  0  0  0  0
  -35.8898  -27.8258   22.2963 C   0  0  0  0  0  0  0  0  0  0  0  0
  -36.5754  -28.7475   20.0820 C   0  0  0  0  0  0  0  0  0  0  0  0
  -30.2027  -26.4215   19.1601 C   0  0  0  0  0  0  0  0  0  0  0  0
  -33.1051  -18.0683   19.8652 C   0  0  0  0  0  0  0  0  0  1  0  0
  -31.6679  -13.1465   23.7674 C   0  0  0  0  0  0  0  0  0  0  0  0
  -35.0745  -26.7148   20.1674 C   0  0  1  0  0  0  0  0  0  0  0  0
  -31.5510  -28.0849   20.4461 C   0  0  2  0  0  0  0  0  0  0  0  0
  -35.1255  -16.8650   21.6239 C   0  0  0  0  0  0  0  0  0  0  0  0
  -31.6771  -14.6633   24.1771 C   0  0  0  0  0  0  0  0  0  0  0  0
  -36.2669  -27.4433   20.8492 C   0  0  0  0  0  0  0  0  0  0  0  0
  -25.9388  -11.6091   20.5344 N   0  0  0  0  0  0  0  0  0  0  0  0
  -31.0393  -16.0541   22.3090 N   0  0  0  0  0  0  0  0  0  0  0  0
  -33.3677  -15.7870   22.8695 N   0  0  0  0  0  0  0  0  0  0  0  0
  -26.2794  -12.9013   20.3920 N   0  0  0  0  0  0  0  0  0  0  0  0
  -35.3217  -24.9176   18.4843 N   0  0  0  0  0  0  0  0  0  0  0  0
  -30.0921  -12.6366   20.4334 N   0  0  0  0  0  0  0  0  0  0  0  0
  -25.4014  -15.1010   20.4267 N   0  0  0  0  0  0  0  0  0  0  0  0
  -21.7889  -12.5238   21.2662 N   0  0  0  0  0  0  0  0  0  0  0  0
  -37.8612  -23.5547   16.2506 N   0  0  0  0  0  0  0  0  0  0  0  0
  -33.8531  -27.5092   20.0922 N   0  0  0  0  0  0  0  0  0  0  0  0
  -30.7367  -12.8652   22.6975 N   0  0  0  0  0  0  0  0  0  0  0  0
  -30.2460  -27.3819   20.2927 N   0  3  0  0  0  0  0  0  0  0  0  0
  -22.5114  -14.6817   20.9826 O   0  0  0  0  0  0  0  0  0  0  0  0
  -37.7233  -24.0422   18.5234 O   0  0  0  0  0  0  0  0  0  0  0  0
  -35.6819  -27.1501   17.9162 O   0  0  0  0  0  0  0  0  0  0  0  0
  -32.5112  -26.0237   21.2626 O   0  0  0  0  0  0  0  0  0  0  0  0
  -32.2553  -13.2326   21.0194 O   0  0  0  0  0  0  0  0  0  0  0  0
  -21.7192   -6.9644   21.6162 O   0  0  0  0  0  0  0  0  0  0  0  0
  -33.4843  -19.3431   20.3822 O   0  0  0  0  0  0  0  0  0  1  0  0
  -18.1527   -6.8781   25.8206 F   0  0  0  0  0  0  0  0  0  0  0  0
  -21.9883   -5.1301   23.6671 F   0  0  0  0  0  0  0  0  0  0  0  0
  -35.3807  -17.6926   20.5685 F   0  0  0  0  0  0  0  0  0  0  0  0
  -35.7341  -17.4533   22.6950 F   0  0  0  0  0  0  0  0  0  0  0  0
  -35.8347  -15.7260   21.3778 F   0  0  0  0  0  0  0  0  0  0  0  0
  1  2  1  0  0  0  0
  1  5  2  0  0  0  0
  2  6  2  0  0  0  0
  3  8  2  0  0  0  0
  3 15  1  0  0  0  0
  4  9  1  0  0  0  0
  4 15  2  0  0  0  0
  5 17  1  0  0  0  0
  6 19  1  0  0  0  0
  7 10  2  0  0  0  0
  7 18  1  0  0  0  0
  8 22  1  0  0  0  0
  9 22  2  0  0  0  0
 10 23  1  0  0  0  0
 11 12  2  0  0  0  0
 11 24  1  0  0  0  0
 12 25  1  0  0  0  0
 13 20  1  0  0  0  0
 13 23  2  0  0  0  0
 14 25  2  0  0  0  0
 14 26  1  0  0  0  0
 15 27  1  0  0  0  0
 16 27  1  0  0  0  0
 16 30  2  0  0  0  0
 16 32  1  0  0  0  0
 17 19  2  0  0  0  0
 17 37  1  0  0  0  0
 18 20  2  0  0  0  0
 18 38  1  0  0  0  0
 19 46  1  0  0  0  0
 20 39  1  0  0  0  0
 21 28  1  0  0  0  0
 21 29  2  0  0  0  0
 21 57  1  0  0  0  0
 22 81  1  0  0  0  0
 23 82  1  0  0  0  0
 24 26  2  0  0  0  0
 24 81  1  0  0  0  0
 25 83  1  0  0  0  0
 26 84  1  0  0  0  0
 27 64  2  0  0  0  0
 28 49  1  0  0  0  0
 28 65  2  0  0  0  0
 29 61  1  0  0  0  0
 29 66  1  0  0  0  0
 30 67  1  0  0  0  0
 30 70  1  0  0  0  0
 31 62  1  0  0  0  0
 31 65  1  0  0  0  0
 31 66  2  0  0  0  0
 32 71  1  0  0  0  0
 32 76  2  0  0  0  0
 33 47  1  0  0  0  0
 33 72  1  0  0  0  0
 33 77  2  0  0  0  0
 34 59  1  0  0  0  0
 34 68  1  0  0  0  0
 34 78  2  0  0  0  0
 35 60  1  0  0  0  0
 35 73  1  0  0  0  0
 35 79  2  0  0  0  0
 36 69  1  0  0  0  0
 36 74  1  0  0  0  0
 36 80  2  0  0  0  0
 37 40  1  0  0  0  0
 38 47  1  0  0  0  0
 39 68  1  0  0  0  0
 40 42  1  0  0  0  0
 41 43  1  0  0  0  0
 41 44  1  0  0  0  0
 42 46  1  0  0  0  0
 43 48  1  0  0  0  0
 44 69  1  0  0  0  0
 45 48  1  0  0  0  0
 45 69  1  0  0  0  0
 46 72  1  0  0  0  0
 47 68  1  0  0  0  0
 48 67  1  0  0  0  0
 50 60  1  0  0  0  0
 51 62  1  0  0  0  0
 52 62  1  0  0  0  0
 53 63  1  0  0  0  0
 54 63  1  0  0  0  0
 55 63  1  0  0  0  0
 56 75  1  0  0  0  0
 57 82  1  0  0  0  0
 58 62  1  0  0  0  0
 58 74  1  0  0  0  0
 59 63  1  0  0  0  0
 59 73  1  0  0  0  0
 60 75  1  0  0  0  0
 61 85  1  0  0  0  0
 61 86  1  0  0  0  0
 61 87  1  0  0  0  0
 64 67  1  0  0  0  0
M  CHG  1  75   1
M  ISO  4  36 100  57 101  74 100  82 101
M  END
> <Batch ID>
0071

> <Smiles>
CNC(C)C(=O)NC(C(=O)N1Cc2cc([101O:1][101CH2:1]c3c(C)nc(C(C)(C)C[100NH:0][100C:0](=O)N4CCCC(n5nc(-c6ccc(Oc7ccc(F)cc7F)cc6)c(C(N)=O)c5N)C4)nc3C(F)(F)F)ccc2CC1C(=O)NC1CCCc2ccccc21)C(C)(C)C

> <Shape>
0.176

> <Color>
0.170

> <Negative vol penalty>
0.000

$$$$

  -OEChem-04052318223D

 84 92  0     1  0  0  0  0  0999 V2000
  -25.8097  -34.3201   13.1089 C   0  0  0  0  0  0  0  0  0  0  0  0
  -26.4267  -33.1604   13.5670 C   0  0  0  0  0  0  0  0  0  0  0  0
  -24.4670   -9.2547   21.9922 C   0  0  0  0  0  0  0  0  0  0  0  0
  -22.9044  -10.0694   20.3394 C   0  0  0  0  0  0  0  0  0  0  0  0
  -25.1527  -35.1601   14.0069 C   0  0  0  0  0  0  0  0  0  0  0  0
  -26.3879  -32.8407   14.9237 C   0  0  0  0  0  0  0  0  0  0  0  0
  -26.0612  -27.2394   17.3782 C   0  0  0  0  0  0  0  0  0  0  0  0
  -23.4653   -8.4579   22.5465 C   0  0  0  0  0  0  0  0  0  0  0  0
  -21.9027   -9.2725   20.8937 C   0  0  0  0  0  0  0  0  0  0  0  0
  -27.0304  -26.3912   17.9121 C   0  0  0  0  0  0  0  0  0  0  0  0
  -21.9624   -5.5082   21.8586 C   0  0  0  0  0  0  0  0  0  0  0  0
  -22.2854   -4.1893   22.1776 C   0  0  0  0  0  0  0  0  0  0  0  0
  -26.5046  -27.1937   20.1254 C   0  0  0  0  0  0  0  0  0  0  0  0
  -21.7365   -4.6145   24.4917 C   0  0  0  0  0  0  0  0  0  0  0  0
  -29.7216  -19.2808   18.5954 C   0  0  0  0  0  0  0  0  0  0  0  0
  -24.1866  -10.0605   20.8886 C   0  0  0  0  0  0  0  0  0  0  0  0
  -26.1195  -10.5307   19.2917 C   0  0  0  0  0  0  0  0  0  0  0  0
  -25.0975  -34.8456   15.3739 C   0  0  0  0  0  0  0  0  0  0  0  0
  -25.3127  -28.0804   18.2142 C   0  0  0  0  0  0  0  0  0  0  0  0
  -25.7307  -33.6780   15.8411 C   0  0  0  0  0  0  0  0  0  0  0  0
  -25.5247  -28.0497   19.5999 C   0  0  0  0  0  0  0  0  0  0  0  0
  -22.1832   -8.4668   21.9973 C   0  0  0  0  0  0  0  0  0  0  0  0
  -27.2542  -26.3704   19.2856 C   0  0  0  0  0  0  0  0  0  0  0  0
  -21.5265   -6.3803   22.8562 C   0  0  0  0  0  0  0  0  0  0  0  0
  -29.8567  -19.7014   19.8959 C   0  0  0  0  0  0  0  0  0  0  0  0
  -22.1724   -3.7424   23.4941 C   0  0  0  0  0  0  0  0  0  0  0  0
  -21.4136   -5.9335   24.1727 C   0  0  0  0  0  0  0  0  0  0  0  0
  -25.2208  -10.8842   20.3159 C   0  0  0  0  0  0  0  0  0  0  0  0
  -30.2848  -18.5561   20.5936 C   0  0  0  0  0  0  0  0  0  0  0  0
  -26.8929  -11.6514   19.1116 C   0  0  0  0  0  0  0  0  0  0  0  0
  -26.2441   -9.2994   18.5677 C   0  0  0  0  0  0  0  0  0  0  0  0
  -24.9615  -31.2269   18.4969 C   0  0  0  0  0  0  0  0  0  0  0  0
  -22.6854  -30.3871   20.6502 C   0  0  0  0  0  0  0  0  0  0  0  0
  -21.4744  -28.0512   22.8236 C   0  0  0  0  0  0  0  0  0  0  0  0
  -26.8760  -17.3003   18.4739 C   0  0  0  0  0  0  0  0  0  0  0  0
  -24.4161  -35.8087   16.3135 C   0  0  0  0  0  0  0  0  0  0  0  0
  -24.2524  -28.9700   17.6253 C   0  0  0  0  0  0  0  0  0  0  0  0
  -24.7339  -28.9182   20.5426 C   0  0  0  0  0  0  0  0  0  0  0  0
  -24.0995  -35.2057   17.6796 C   0  0  0  0  0  0  0  0  0  0  0  0
  -27.3024  -15.8672   21.8601 C   0  0  0  0  0  0  0  0  0  0  0  0
  -25.3080  -34.4497   18.2226 C   0  0  0  0  0  0  0  0  0  0  0  0
  -26.8027  -14.4347   21.6809 C   0  0  0  0  0  0  0  0  0  0  0  0
  -26.6308  -16.8285   20.8841 C   0  0  0  0  0  0  0  0  0  0  0  0
  -26.2493  -14.9868   19.2789 C   0  0  0  0  0  0  0  0  0  0  0  0
  -25.6891  -33.2843   17.3017 C   0  0  1  0  0  0  0  0  0  0  0  0
  -23.9058  -30.1579   18.5177 C   0  0  1  0  0  0  0  0  0  0  0  0
  -26.9404  -13.9849   20.2159 C   0  0  2  0  0  0  0  0  0  0  0  0
  -30.5856  -18.4372   22.0308 C   0  0  0  0  0  0  0  0  0  0  0  0
  -19.6194  -27.6661   24.4692 C   0  0  0  0  0  0  0  0  0  0  0  0
  -24.0935  -32.2020   22.6585 C   0  0  0  0  0  0  0  0  0  0  0  0
  -22.8072  -31.0660   24.4815 C   0  0  0  0  0  0  0  0  0  0  0  0
  -21.5965  -32.3328   22.7061 C   0  0  0  0  0  0  0  0  0  0  0  0
  -27.2714  -17.4948   16.0479 C   0  0  0  0  0  0  0  0  0  0  0  0
  -20.4469  -25.7321   21.2989 C   0  0  0  0  0  0  0  0  0  0  0  0
  -28.9209  -23.2589   20.0933 C   0  0  0  0  0  0  0  0  0  0  0  0
  -30.0767  -17.0809   17.4489 C   0  0  0  0  0  0  0  0  0  0  0  0
  -28.8584  -16.1634   17.3875 C   0  0  0  0  0  0  0  0  0  0  0  0
  -28.4538  -24.3241   19.1138 C   0  0  0  0  0  0  0  0  0  1  0  0
  -29.1868  -21.9297   19.4043 C   0  0  0  0  0  0  0  0  0  0  0  0
  -22.6669  -30.1147   22.1349 C   0  0  1  0  0  0  0  0  0  0  0  0
  -20.0768  -27.4952   23.0289 C   0  0  2  0  0  0  0  0  0  0  0  0
  -22.8074  -31.4138   22.9776 C   0  0  0  0  0  0  0  0  0  0  0  0
  -25.4051  -12.1318   20.7558 N   0  0  0  0  0  0  0  0  0  0  0  0
  -30.4130  -17.4880   19.8019 N   0  0  0  0  0  0  0  0  0  0  0  0
  -30.0634  -17.9604   18.5933 N   0  0  0  0  0  0  0  0  0  0  0  0
  -26.4287  -12.5720   20.0044 N   0  0  0  0  0  0  0  0  0  0  0  0
  -23.7129  -29.7755   19.9180 N   0  0  0  0  0  0  0  0  0  0  0  0
  -26.7392  -16.3550   19.5037 N   0  0  0  0  0  0  0  0  0  0  0  0
  -27.9180  -11.9292   18.2784 N   0  0  0  0  0  0  0  0  0  0  0  0
  -25.3689   -8.2499   18.8789 N   0  0  0  0  0  0  0  0  0  0  0  0
  -24.7893  -32.1683   17.5001 N   0  0  0  0  0  0  0  0  0  0  0  0
  -21.4449  -29.3620   22.3966 N   0  0  0  0  0  0  0  0  0  0  0  0
  -27.6027  -16.9092   17.3391 N   0  0  0  0  0  0  0  0  0  0  0  0
  -20.0426  -26.0434   22.6941 N   0  3  0  0  0  0  0  0  0  0  0  0
  -27.1166   -9.1292   17.6827 O   0  0  0  0  0  0  0  0  0  0  0  0
  -25.8645  -31.2004   19.3249 O   0  0  0  0  0  0  0  0  0  0  0  0
  -21.8160  -31.1100   20.1571 O   0  0  0  0  0  0  0  0  0  0  0  0
  -22.4906  -27.3902   23.0256 O   0  0  0  0  0  0  0  0  0  0  0  0
  -26.3852  -18.4327   18.5677 O   0  0  0  0  0  0  0  0  0  0  0  0
  -21.2055   -7.6892   22.5378 O   0  0  0  0  0  0  0  0  0  0  0  0
  -28.2001  -25.5440   19.8093 O   0  0  0  0  0  0  0  0  0  1  0  0
  -29.6153  -20.9685   20.3594 O   0  0  0  0  0  0  0  0  0  0  0  0
  -22.4811   -2.4754   23.8000 F   0  0  0  0  0  0  0  0  0  0  0  0
  -20.9942   -6.7663   25.1351 F   0  0  0  0  0  0  0  0  0  0  0  0
  1  2  1  0  0  0  0
  1  5  2  0  0  0  0
  2  6  2  0  0  0  0
  3  8  2  0  0  0  0
  3 16  1  0  0  0  0
  4  9  1  0  0  0  0
  4 16  2  0  0  0  0
  5 18  1  0  0  0  0
  6 20  1  0  0  0  0
  7 10  2  0  0  0  0
  7 19  1  0  0  0  0
  8 22  1  0  0  0  0
  9 22  2  0  0  0  0
 10 23  1  0  0  0  0
 11 12  2  0  0  0  0
 11 24  1  0  0  0  0
 12 26  1  0  0  0  0
 13 21  1  0  0  0  0
 13 23  2  0  0  0  0
 14 26  2  0  0  0  0
 14 27  1  0  0  0  0
 15 25  2  0  0  0  0
 15 65  1  0  0  0  0
 16 28  1  0  0  0  0
 17 28  1  0  0  0  0
 17 30  2  0  0  0  0
 17 31  1  0  0  0  0
 18 20  2  0  0  0  0
 18 36  1  0  0  0  0
 19 21  2  0  0  0  0
 19 37  1  0  0  0  0
 20 45  1  0  0  0  0
 21 38  1  0  0  0  0
 22 80  1  0  0  0  0
 23 81  1  0  0  0  0
 24 27  2  0  0  0  0
 24 80  1  0  0  0  0
 25 29  1  0  0  0  0
 25 82  1  0  0  0  0
 26 83  1  0  0  0  0
 27 84  1  0  0  0  0
 28 63  2  0  0  0  0
 29 48  1  0  0  0  0
 29 64  2  0  0  0  0
 30 66  1  0  0  0  0
 30 69  1  0  0  0  0
 31 70  1  0  0  0  0
 31 75  2  0  0  0  0
 32 46  1  0  0  0  0
 32 71  1  0  0  0  0
 32 76  2  0  0  0  0
 33 60  1  0  0  0  0
 33 67  1  0  0  0  0
 33 77  2  0  0  0  0
 34 61  1  0  0  0  0
 34 72  1  0  0  0  0
 34 78  2  0  0  0  0
 35 68  1  0  0  0  0
 35 73  1  0  0  0  0
 35 79  2  0  0  0  0
 36 39  1  0  0  0  0
 37 46  1  0  0  0  0
 38 67  1  0  0  0  0
 39 41  1  0  0  0  0
 40 42  1  0  0  0  0
 40 43  1  0  0  0  0
 41 45  1  0  0  0  0
 42 47  1  0  0  0  0
 43 68  1  0  0  0  0
 44 47  1  0  0  0  0
 44 68  1  0  0  0  0
 45 71  1  0  0  0  0
 46 67  1  0  0  0  0
 47 66  1  0  0  0  0
 49 61  1  0  0  0  0
 50 62  1  0  0  0  0
 51 62  1  0  0  0  0
 52 62  1  0  0  0  0
 53 73  1  0  0  0  0
 54 74  1  0  0  0  0
 55 58  1  0  0  0  0
 55 59  1  0  0  0  0
 56 57  1  0  0  0  0
 56 65  1  0  0  0  0
 57 73  1  0  0  0  0
 58 81  1  0  0  0  0
 59 82  1  0  0  0  0
 60 62  1  0  0  0  0
 60 72  1  0  0  0  0
 61 74  1  0  0  0  0
 63 66  1  0  0  0  0
 64 65  1  0  0  0  0
M  CHG  1  74   1
M  ISO  4  35 100  58 101  73 100  81 101
M  END
> <Batch ID>
0071

> <Smiles>
CNC(C)C(=O)NC(C(=O)N1Cc2cc([101O:1][101CH2:1]CCOc3cn(CC[100N:0](C)[100C:0](=O)N4CCCC(n5nc(-c6ccc(Oc7ccc(F)cc7F)cc6)c(C(N)=O)c5N)C4)nc3C)ccc2CC1C(=O)NC1CCCc2ccccc21)C(C)(C)C

> <Shape>
0.288

> <Color>
0.109

> <Negative vol penalty>
0.000

$$$$

  -OEChem-04052318223D

 89 97  0     1  0  0  0  0  0999 V2000
  -25.5007  -35.1687   23.5395 C   0  0  0  0  0  0  0  0  0  0  0  0
  -26.1526  -33.9833   23.2151 C   0  0  0  0  0  0  0  0  0  0  0  0
  -23.8555  -12.9160   20.6967 C   0  0  0  0  0  0  0  0  0  0  0  0
  -26.1513  -13.1793   21.4019 C   0  0  0  0  0  0  0  0  0  0  0  0
  -24.2189  -35.1309   24.0867 C   0  0  0  0  0  0  0  0  0  0  0  0
  -25.5234  -32.7592   23.4389 C   0  0  0  0  0  0  0  0  0  0  0  0
  -26.0118  -29.5801   19.5274 C   0  0  0  0  0  0  0  0  0  0  0  0
  -24.2384  -11.8898   19.8332 C   0  0  0  0  0  0  0  0  0  0  0  0
  -26.5342  -12.1530   20.5384 C   0  0  0  0  0  0  0  0  0  0  0  0
  -27.2322  -28.9199   19.3920 C   0  0  0  0  0  0  0  0  0  0  0  0
  -27.1234  -11.7694   17.2313 C   0  0  0  0  0  0  0  0  0  0  0  0
  -28.2589  -11.9722   16.4470 C   0  0  0  0  0  0  0  0  0  0  0  0
  -26.2706  -26.9489   20.3968 C   0  0  0  0  0  0  0  0  0  0  0  0
  -29.3076  -10.0502   17.4684 C   0  0  0  0  0  0  0  0  0  0  0  0
  -29.2785  -23.2098   21.6754 C   0  0  0  0  0  0  0  0  0  0  0  0
  -24.8120  -13.5609   21.4811 C   0  0  0  0  0  0  0  0  0  0  0  0
  -24.0186  -14.4975   23.7174 C   0  0  0  0  0  0  0  0  0  0  0  0
  -23.5699  -33.9060   24.3084 C   0  0  0  0  0  0  0  0  0  0  0  0
  -24.9128  -28.9322   20.1094 C   0  0  0  0  0  0  0  0  0  0  0  0
  -24.2323  -32.7048   23.9909 C   0  0  0  0  0  0  0  0  0  0  0  0
  -25.0366  -27.6023   20.5361 C   0  0  0  0  0  0  0  0  0  0  0  0
  -25.5778  -11.5082   19.7540 C   0  0  0  0  0  0  0  0  0  0  0  0
  -27.3626  -27.6051   19.8294 C   0  0  0  0  0  0  0  0  0  0  0  0
  -27.0800  -10.7071   18.1343 C   0  0  0  0  0  0  0  0  0  0  0  0
  -29.3510  -11.1126   16.5655 C   0  0  0  0  0  0  0  0  0  0  0  0
  -28.1721   -9.8475   18.2528 C   0  0  0  0  0  0  0  0  0  0  0  0
  -24.4172  -14.6215   22.3729 C   0  0  0  0  0  0  0  0  0  0  0  0
  -28.7873  -21.9269   21.7783 C   0  0  0  0  0  0  0  0  0  0  0  0
  -29.7107  -21.4109   19.7507 C   0  0  0  0  0  0  0  0  0  0  0  0
  -30.2012  -22.6940   19.6476 C   0  0  0  0  0  0  0  0  0  0  0  0
  -23.7496  -15.7841   24.1158 C   0  0  0  0  0  0  0  0  0  0  0  0
  -23.9021  -13.3242   24.5332 C   0  0  0  0  0  0  0  0  0  0  0  0
  -23.1255  -29.4280   22.6908 C   0  0  0  0  0  0  0  0  0  0  0  0
  -21.3826  -26.9762   21.4769 C   0  0  0  0  0  0  0  0  0  0  0  0
  -21.2747  -24.2034   19.4903 C   0  0  0  0  0  0  0  0  0  0  0  0
  -25.6684  -21.1272   22.2131 C   0  0  0  0  0  0  0  0  0  0  0  0
  -22.2031  -33.9136   24.9460 C   0  0  0  0  0  0  0  0  0  0  0  0
  -23.5956  -29.6494   20.2238 C   0  0  0  0  0  0  0  0  0  0  0  0
  -23.8813  -26.8553   21.1492 C   0  0  0  0  0  0  0  0  0  0  0  0
  -21.4573  -32.5893   24.8038 C   0  0  0  0  0  0  0  0  0  0  0  0
  -22.2939  -20.0075   22.4026 C   0  0  0  0  0  0  0  0  0  0  0  0
  -22.3742  -31.4205   25.1500 C   0  0  0  0  0  0  0  0  0  0  0  0
  -22.4195  -18.4890   22.5378 C   0  0  0  0  0  0  0  0  0  0  0  0
  -23.3659  -20.5825   21.4794 C   0  0  0  0  0  0  0  0  0  0  0  0
  -24.8754  -18.6967   21.9684 C   0  0  0  0  0  0  0  0  0  0  0  0
  -23.5729  -31.3582   24.1958 C   0  0  1  0  0  0  0  0  0  0  0  0
  -22.6876  -29.0632   21.3005 C   0  0  1  0  0  0  0  0  0  0  0  0
  -23.8503  -18.0777   22.9340 C   0  0  2  0  0  0  0  0  0  0  0  0
  -29.9478  -20.4000   18.6813 C   0  0  0  0  0  0  0  0  0  0  0  0
  -19.7214  -22.3862   18.7270 C   0  0  0  0  0  0  0  0  0  0  0  0
  -31.0212  -24.1188   16.1036 C   0  0  0  0  0  0  0  0  0  0  0  0
  -27.8450  -20.5462   25.3402 C   0  0  0  0  0  0  0  0  0  0  0  0
  -29.8417  -21.9357   24.7552 C   0  0  0  0  0  0  0  0  0  0  0  0
  -29.5724  -19.6503   23.7870 C   0  0  0  0  0  0  0  0  0  0  0  0
  -21.6717  -25.5960   24.1827 C   0  0  0  0  0  0  0  0  0  0  0  0
  -20.9598  -23.4587   23.0903 C   0  0  0  0  0  0  0  0  0  0  0  0
  -19.4012  -25.4054   23.1517 C   0  0  0  0  0  0  0  0  0  0  0  0
  -21.5290  -25.0168   16.6561 C   0  0  0  0  0  0  0  0  0  0  0  0
  -31.0023  -23.1368   18.4460 C   0  0  0  0  0  0  0  0  0  0  0  0
  -30.2232  -26.1417   18.1803 C   0  0  0  0  0  0  0  0  0  0  0  0
  -29.3450  -24.9606   17.7634 C   0  0  0  0  0  0  0  0  0  0  0  0
  -29.3827  -27.3401   18.6026 C   0  0  0  0  0  0  0  0  0  1  0  0
  -27.9997  -21.5132   22.9717 C   0  0  2  0  0  0  0  0  0  0  0  0
  -21.4093  -25.4734   21.6171 C   0  0  1  0  0  0  0  0  0  0  0  0
  -20.2860  -23.7656   18.4247 C   0  0  2  0  0  0  0  0  0  0  0  0
  -30.1464  -23.7237   17.3019 C   0  0  1  0  0  0  0  0  0  0  0  0
  -28.8124  -20.9324   24.2012 C   0  0  0  0  0  0  0  0  0  0  0  0
  -20.8830  -24.9978   23.0007 C   0  0  0  0  0  0  0  0  0  0  0  0
  -29.9942  -23.6163   20.6082 N   0  0  0  0  0  0  0  0  0  0  0  0
  -24.4038  -15.8869   21.9457 N   0  0  0  0  0  0  0  0  0  0  0  0
  -28.9947  -21.0044   20.8178 N   0  0  0  0  0  0  0  0  0  0  0  0
  -23.9935  -16.5699   23.0280 N   0  0  0  0  0  0  0  0  0  0  0  0
  -22.6159  -27.6017   21.2452 N   0  0  0  0  0  0  0  0  0  0  0  0
  -24.6994  -20.1563   21.9109 N   0  0  0  0  0  0  0  0  0  0  0  0
  -23.3305  -16.3086   25.2869 N   0  0  0  0  0  0  0  0  0  0  0  0
  -24.2179  -12.0821   23.9661 N   0  0  0  0  0  0  0  0  0  0  0  0
  -23.1784  -30.7888   22.9251 N   0  0  0  0  0  0  0  0  0  0  0  0
  -20.6640  -24.9440   20.4802 N   0  0  0  0  0  0  0  0  0  0  0  0
  -26.9035  -20.6380   22.6204 N   0  0  0  0  0  0  0  0  0  0  0  0
  -20.9486  -23.7202   17.0906 N   0  3  0  0  0  0  0  0  0  0  0  0
  -23.5132  -13.3741   25.7247 O   0  0  0  0  0  0  0  0  0  0  0  0
  -23.3940  -28.5406   23.4921 O   0  0  0  0  0  0  0  0  0  0  0  0
  -20.3062  -27.5725   21.5625 O   0  0  0  0  0  0  0  0  0  0  0  0
  -22.4685  -23.9140   19.4505 O   0  0  0  0  0  0  0  0  0  0  0  0
  -25.4474  -22.3403   22.1316 O   0  0  0  0  0  0  0  0  0  0  0  0
  -25.9517  -10.5066   18.9117 O   0  0  0  0  0  0  0  0  0  0  0  0
  -28.5530  -26.9585   19.6991 O   0  0  0  0  0  0  0  0  0  1  0  0
  -30.4407  -11.3065   15.8112 F   0  0  0  0  0  0  0  0  0  0  0  0
  -28.1359   -8.8245   19.1176 F   0  0  0  0  0  0  0  0  0  0  0  0
  1  2  1  0  0  0  0
  1  5  2  0  0  0  0
  2  6  2  0  0  0  0
  3  8  2  0  0  0  0
  3 16  1  0  0  0  0
  4  9  1  0  0  0  0
  4 16  2  0  0  0  0
  5 18  1  0  0  0  0
  6 20  1  0  0  0  0
  7 10  2  0  0  0  0
  7 19  1  0  0  0  0
  8 22  1  0  0  0  0
  9 22  2  0  0  0  0
 10 23  1  0  0  0  0
 11 12  2  0  0  0  0
 11 24  1  0  0  0  0
 12 25  1  0  0  0  0
 13 21  1  0  0  0  0
 13 23  2  0  0  0  0
 14 25  2  0  0  0  0
 14 26  1  0  0  0  0
 15 28  1  0  0  0  0
 15 69  2  0  0  0  0
 16 27  1  0  0  0  0
 17 27  1  0  0  0  0
 17 31  2  0  0  0  0
 17 32  1  0  0  0  0
 18 20  2  0  0  0  0
 18 37  1  0  0  0  0
 19 21  2  0  0  0  0
 19 38  1  0  0  0  0
 20 46  1  0  0  0  0
 21 39  1  0  0  0  0
 22 86  1  0  0  0  0
 23 87  1  0  0  0  0
 24 26  2  0  0  0  0
 24 86  1  0  0  0  0
 25 88  1  0  0  0  0
 26 89  1  0  0  0  0
 27 70  2  0  0  0  0
 28 63  1  0  0  0  0
 28 71  2  0  0  0  0
 29 30  2  0  0  0  0
 29 49  1  0  0  0  0
 29 71  1  0  0  0  0
 30 59  1  0  0  0  0
 30 69  1  0  0  0  0
 31 72  1  0  0  0  0
 31 75  1  0  0  0  0
 32 76  1  0  0  0  0
 32 81  2  0  0  0  0
 33 47  1  0  0  0  0
 33 77  1  0  0  0  0
 33 82  2  0  0  0  0
 34 64  1  0  0  0  0
 34 73  1  0  0  0  0
 34 83  2  0  0  0  0
 35 65  1  0  0  0  0
 35 78  1  0  0  0  0
 35 84  2  0  0  0  0
 36 74  1  0  0  0  0
 36 79  1  0  0  0  0
 36 85  2  0  0  0  0
 37 40  1  0  0  0  0
 38 47  1  0  0  0  0
 39 73  1  0  0  0  0
 40 42  1  0  0  0  0
 41 43  1  0  0  0  0
 41 44  1  0  0  0  0
 42 46  1  0  0  0  0
 43 48  1  0  0  0  0
 44 74  1  0  0  0  0
 45 48  1  0  0  0  0
 45 74  1  0  0  0  0
 46 77  1  0  0  0  0
 47 73  1  0  0  0  0
 48 72  1  0  0  0  0
 50 65  1  0  0  0  0
 51 66  1  0  0  0  0
 52 67  1  0  0  0  0
 53 67  1  0  0  0  0
 54 67  1  0  0  0  0
 55 68  1  0  0  0  0
 56 68  1  0  0  0  0
 57 68  1  0  0  0  0
 58 80  1  0  0  0  0
 59 66  1  0  0  0  0
 60 61  1  0  0  0  0
 60 62  1  0  0  0  0
 61 66  1  0  0  0  0
 62 87  1  0  0  0  0
 63 67  1  0  0  0  0
 63 79  1  0  0  0  0
 64 68  1  0  0  0  0
 64 78  1  0  0  0  0
 65 80  1  0  0  0  0
 70 72  1  0  0  0  0
M  CHG  1  80   1
M  ISO  4  36 100  62 101  79 100  87 101
M  END
> <Batch ID>
0071

> <Smiles>
CNC(C)C(=O)NC(C(=O)N1Cc2cc([101O:1][101CH2:1]CCC(C)Cc3ncc(C([100NH:0][100C:0](=O)N4CCCC(n5nc(-c6ccc(Oc7ccc(F)cc7F)cc6)c(C(N)=O)c5N)C4)C(C)(C)C)nc3C)ccc2CC1C(=O)NC1CCCc2ccccc21)C(C)(C)C

> <Shape>
0.215

> <Color>
0.074

> <Negative vol penalty>
0.000

$$$$

  -OEChem-04052318223D

 86 94  0     1  0  0  0  0  0999 V2000
  -13.1813  -27.6263   13.4416 C   0  0  0  0  0  0  0  0  0  0  0  0
  -13.8814  -26.4643   13.7497 C   0  0  0  0  0  0  0  0  0  0  0  0
  -23.0730   -9.8860   19.9333 C   0  0  0  0  0  0  0  0  0  0  0  0
  -23.8371   -9.8724   22.2252 C   0  0  0  0  0  0  0  0  0  0  0  0
  -13.8627  -28.8358   13.3122 C   0  0  0  0  0  0  0  0  0  0  0  0
  -15.2637  -26.5109   13.9274 C   0  0  0  0  0  0  0  0  0  0  0  0
  -18.5879  -23.1654   17.8343 C   0  0  0  0  0  0  0  0  0  0  0  0
  -22.3242   -8.7345   20.1761 C   0  0  0  0  0  0  0  0  0  0  0  0
  -23.0883   -8.7209   22.4680 C   0  0  0  0  0  0  0  0  0  0  0  0
  -19.3413  -22.0040   17.6691 C   0  0  0  0  0  0  0  0  0  0  0  0
  -19.8575   -7.9336   23.0706 C   0  0  0  0  0  0  0  0  0  0  0  0
  -19.1026   -7.8885   24.2426 C   0  0  0  0  0  0  0  0  0  0  0  0
  -21.3320  -23.3405   17.4036 C   0  0  0  0  0  0  0  0  0  0  0  0
  -26.8136  -18.3149   20.9383 C   0  0  0  0  0  0  0  0  0  0  0  0
  -20.3363   -5.9399   24.9623 C   0  0  0  0  0  0  0  0  0  0  0  0
  -27.6675  -17.9827   18.7435 C   0  0  0  0  0  0  0  0  0  0  0  0
  -23.8295  -10.4549   20.9579 C   0  0  0  0  0  0  0  0  0  0  0  0
  -24.1829  -12.9793   20.8560 C   0  0  0  0  0  0  0  0  0  0  0  0
  -15.2527  -28.8990   13.4980 C   0  0  0  0  0  0  0  0  0  0  0  0
  -19.2001  -24.4256   17.7745 C   0  0  0  0  0  0  0  0  0  0  0  0
  -15.9646  -27.7221   13.7991 C   0  0  0  0  0  0  0  0  0  0  0  0
  -20.5845  -24.5162   17.5710 C   0  0  0  0  0  0  0  0  0  0  0  0
  -26.5753  -18.1619   19.5770 C   0  0  0  0  0  0  0  0  0  0  0  0
  -28.1184  -18.2844   21.4177 C   0  0  0  0  0  0  0  0  0  0  0  0
  -22.3318   -8.1519   21.4434 C   0  0  0  0  0  0  0  0  0  0  0  0
  -20.7131  -22.0915   17.4508 C   0  0  0  0  0  0  0  0  0  0  0  0
  -20.8519   -6.9818   22.8444 C   0  0  0  0  0  0  0  0  0  0  0  0
  -19.3419   -6.8917   25.1885 C   0  0  0  0  0  0  0  0  0  0  0  0
  -21.0912   -5.9850   23.7903 C   0  0  0  0  0  0  0  0  0  0  0  0
  -24.6037  -11.6441   20.7075 C   0  0  0  0  0  0  0  0  0  0  0  0
  -29.1415  -18.0996   20.5018 C   0  0  0  0  0  0  0  0  0  0  0  0
  -25.2779  -13.7263   20.4962 C   0  0  0  0  0  0  0  0  0  0  0  0
  -22.9156  -13.4979   21.2811 C   0  0  0  0  0  0  0  0  0  0  0  0
  -18.9161  -26.9702   15.8909 C   0  0  0  0  0  0  0  0  0  0  0  0
  -20.9686  -28.2943   18.0255 C   0  0  0  0  0  0  0  0  0  0  0  0
  -23.3878  -27.8333   20.3881 C   0  0  0  0  0  0  0  0  0  0  0  0
  -30.7666  -14.7184   20.6819 C   0  0  0  0  0  0  0  0  0  0  0  0
  -15.9521  -30.2207   13.3012 C   0  0  0  0  0  0  0  0  0  0  0  0
  -18.3776  -25.6678   17.9813 C   0  0  0  0  0  0  0  0  0  0  0  0
  -21.2930  -25.8442   17.5185 C   0  0  0  0  0  0  0  0  0  0  0  0
  -17.3666  -30.2526   13.8743 C   0  0  0  0  0  0  0  0  0  0  0  0
  -29.6136  -12.3571   18.2796 C   0  0  0  0  0  0  0  0  0  0  0  0
  -18.1347  -28.9981   13.4704 C   0  0  0  0  0  0  0  0  0  0  0  0
  -28.1756  -12.0668   18.7131 C   0  0  0  0  0  0  0  0  0  0  0  0
  -30.5339  -12.5647   19.4804 C   0  0  0  0  0  0  0  0  0  0  0  0
  -28.6381  -13.2943   20.8760 C   0  0  0  0  0  0  0  0  0  0  0  0
  -17.4610  -27.7366   14.0238 C   0  0  1  0  0  0  0  0  0  0  0  0
  -19.0226  -26.9169   17.3887 C   0  0  1  0  0  0  0  0  0  0  0  0
  -27.6610  -13.1330   19.6989 C   0  0  2  0  0  0  0  0  0  0  0  0
  -28.3809  -18.4495   22.8748 C   0  0  0  0  0  0  0  0  0  0  0  0
  -24.9028  -29.1069   21.9308 C   0  0  0  0  0  0  0  0  0  0  0  0
  -31.0743  -19.3507   21.6833 C   0  0  0  0  0  0  0  0  0  0  0  0
  -31.5218  -17.8762   19.7387 C   0  0  0  0  0  0  0  0  0  0  0  0
  -22.7598  -29.0193   15.6642 C   0  0  0  0  0  0  0  0  0  0  0  0
  -24.6261  -29.4048   17.2880 C   0  0  0  0  0  0  0  0  0  0  0  0
  -22.5619  -30.8002   17.4088 C   0  0  0  0  0  0  0  0  0  0  0  0
  -22.1903  -26.5799   22.7868 C   0  0  0  0  0  0  0  0  0  0  0  0
  -25.1723  -18.1892   19.0250 C   0  0  0  0  0  0  0  0  0  0  0  0
  -24.6915  -19.5884   18.6248 C   0  0  0  0  0  0  0  0  0  0  0  0
  -23.2411  -19.6072   18.1401 C   0  0  0  0  0  0  0  0  0  0  0  0
  -30.8448  -16.8594   21.9347 C   0  0  0  0  0  0  0  0  0  0  0  0
  -22.8120  -21.0047   17.7144 C   0  0  0  0  0  0  0  0  0  1  0  0
  -22.4703  -28.3848   18.1501 C   0  0  1  0  0  0  0  0  0  0  0  0
  -23.5585  -28.4117   21.7812 C   0  0  2  0  0  0  0  0  0  0  0  0
  -30.5629  -18.0575   20.9597 C   0  0  0  0  0  0  0  0  0  0  0  0
  -23.0912  -29.3771   17.1268 C   0  0  0  0  0  0  0  0  0  0  0  0
  -28.9491  -17.9475   19.1724 N   0  0  0  0  0  0  0  0  0  0  0  0
  -25.8673  -11.5455   20.2862 N   0  0  0  0  0  0  0  0  0  0  0  0
  -26.2500  -12.8282   20.1667 N   0  0  0  0  0  0  0  0  0  0  0  0
  -20.4444  -27.0303   17.7201 N   0  0  0  0  0  0  0  0  0  0  0  0
  -29.9898  -13.5891   20.3750 N   0  0  0  0  0  0  0  0  0  0  0  0
  -25.4943  -15.0573   20.4327 N   0  0  0  0  0  0  0  0  0  0  0  0
  -21.9001  -12.5909   21.6135 N   0  0  0  0  0  0  0  0  0  0  0  0
  -17.7637  -27.5776   15.4301 N   0  0  0  0  0  0  0  0  0  0  0  0
  -22.7452  -28.7145   19.5444 N   0  0  0  0  0  0  0  0  0  0  0  0
  -30.1734  -15.6437   21.5320 N   0  0  0  0  0  0  0  0  0  0  0  0
  -23.4714  -27.3319   22.8046 N   0  3  0  0  0  0  0  0  0  0  0  0
  -22.6852  -14.7291   21.3480 O   0  0  0  0  0  0  0  0  0  0  0  0
  -19.8139  -26.4968   15.2042 O   0  0  0  0  0  0  0  0  0  0  0  0
  -20.2852  -29.3063   18.2001 O   0  0  0  0  0  0  0  0  0  0  0  0
  -23.7881  -26.7134   20.0781 O   0  0  0  0  0  0  0  0  0  0  0  0
  -31.9026  -14.8920   20.2275 O   0  0  0  0  0  0  0  0  0  0  0  0
  -21.6011   -7.0284   21.6807 O   0  0  0  0  0  0  0  0  0  0  0  0
  -21.4507  -20.9595   17.2886 O   0  0  0  0  0  0  0  0  0  1  0  0
  -18.6179   -6.8494   26.3146 F   0  0  0  0  0  0  0  0  0  0  0  0
  -22.0459   -5.0686   23.5791 F   0  0  0  0  0  0  0  0  0  0  0  0
  1  2  1  0  0  0  0
  1  5  2  0  0  0  0
  2  6  2  0  0  0  0
  3  8  2  0  0  0  0
  3 17  1  0  0  0  0
  4  9  1  0  0  0  0
  4 17  2  0  0  0  0
  5 19  1  0  0  0  0
  6 21  1  0  0  0  0
  7 10  2  0  0  0  0
  7 20  1  0  0  0  0
  8 25  1  0  0  0  0
  9 25  2  0  0  0  0
 10 26  1  0  0  0  0
 11 12  2  0  0  0  0
 11 27  1  0  0  0  0
 12 28  1  0  0  0  0
 13 22  1  0  0  0  0
 13 26  2  0  0  0  0
 14 23  2  0  0  0  0
 14 24  1  0  0  0  0
 15 28  2  0  0  0  0
 15 29  1  0  0  0  0
 16 23  1  0  0  0  0
 16 67  2  0  0  0  0
 17 30  1  0  0  0  0
 18 30  1  0  0  0  0
 18 32  2  0  0  0  0
 18 33  1  0  0  0  0
 19 21  2  0  0  0  0
 19 38  1  0  0  0  0
 20 22  2  0  0  0  0
 20 39  1  0  0  0  0
 21 47  1  0  0  0  0
 22 40  1  0  0  0  0
 23 58  1  0  0  0  0
 24 31  2  0  0  0  0
 24 50  1  0  0  0  0
 25 83  1  0  0  0  0
 26 84  1  0  0  0  0
 27 29  2  0  0  0  0
 27 83  1  0  0  0  0
 28 85  1  0  0  0  0
 29 86  1  0  0  0  0
 30 68  2  0  0  0  0
 31 65  1  0  0  0  0
 31 67  1  0  0  0  0
 32 69  1  0  0  0  0
 32 72  1  0  0  0  0
 33 73  1  0  0  0  0
 33 78  2  0  0  0  0
 34 48  1  0  0  0  0
 34 74  1  0  0  0  0
 34 79  2  0  0  0  0
 35 63  1  0  0  0  0
 35 70  1  0  0  0  0
 35 80  2  0  0  0  0
 36 64  1  0  0  0  0
 36 75  1  0  0  0  0
 36 81  2  0  0  0  0
 37 71  1  0  0  0  0
 37 76  1  0  0  0  0
 37 82  2  0  0  0  0
 38 41  1  0  0  0  0
 39 48  1  0  0  0  0
 40 70  1  0  0  0  0
 41 43  1  0  0  0  0
 42 44  1  0  0  0  0
 42 45  1  0  0  0  0
 43 47  1  0  0  0  0
 44 49  1  0  0  0  0
 45 71  1  0  0  0  0
 46 49  1  0  0  0  0
 46 71  1  0  0  0  0
 47 74  1  0  0  0  0
 48 70  1  0  0  0  0
 49 69  1  0  0  0  0
 51 64  1  0  0  0  0
 52 65  1  0  0  0  0
 53 65  1  0  0  0  0
 54 66  1  0  0  0  0
 55 66  1  0  0  0  0
 56 66  1  0  0  0  0
 57 77  1  0  0  0  0
 58 59  1  0  0  0  0
 59 60  1  0  0  0  0
 60 62  1  0  0  0  0
 61 65  1  0  0  0  0
 61 76  1  0  0  0  0
 62 84  1  0  0  0  0
 63 66  1  0  0  0  0
 63 75  1  0  0  0  0
 64 77  1  0  0  0  0
 68 69  1  0  0  0  0
M  CHG  1  77   1
M  ISO  4  37 100  62 101  76 100  84 101
M  END
> <Batch ID>
0071

> <Smiles>
CNC(C)C(=O)NC(C(=O)N1Cc2cc([101O:1][101CH2:1]CCCc3cnc(C(C)(C)C[100NH:0][100C:0](=O)N4CCCC(n5nc(-c6ccc(Oc7ccc(F)cc7F)cc6)c(C(N)=O)c5N)C4)c(C)c3)ccc2CC1C(=O)NC1CCCc2ccccc21)C(C)(C)C

> <Shape>
0.221

> <Color>
0.193

> <Negative vol penalty>
0.000

$$$$

  -OEChem-04052318223D

 87 95  0     1  0  0  0  0  0999 V2000
  -22.4835  -19.7158   19.0377 C   0  0  0  0  0  0  0  0  0  0  0  0
  -23.5476  -19.9031   19.9141 C   0  0  0  0  0  0  0  0  0  0  0  0
  -22.9746   -9.9525   20.0121 C   0  0  0  0  0  0  0  0  0  0  0  0
  -23.6956  -10.0226   22.3169 C   0  0  0  0  0  0  0  0  0  0  0  0
  -21.9243  -20.8096   18.3783 C   0  0  0  0  0  0  0  0  0  0  0  0
  -24.0538  -21.1842   20.1307 C   0  0  0  0  0  0  0  0  0  0  0  0
  -24.8795  -22.1433   25.0341 C   0  0  0  0  0  0  0  0  0  0  0  0
  -22.2001   -8.8259   20.2887 C   0  0  0  0  0  0  0  0  0  0  0  0
  -22.9211   -8.8960   22.5935 C   0  0  0  0  0  0  0  0  0  0  0  0
  -26.0300  -21.6001   25.6042 C   0  0  0  0  0  0  0  0  0  0  0  0
  -23.1445   -5.5508   22.1567 C   0  0  0  0  0  0  0  0  0  0  0  0
  -23.7239   -4.5376   22.9204 C   0  0  0  0  0  0  0  0  0  0  0  0
  -27.1390  -23.7308   25.3812 C   0  0  0  0  0  0  0  0  0  0  0  0
  -21.9984   -4.8092   24.5896 C   0  0  0  0  0  0  0  0  0  0  0  0
  -29.8960  -17.8601   22.6477 C   0  0  0  0  0  0  0  0  0  0  0  0
  -23.7224  -10.5508   21.0263 C   0  0  0  0  0  0  0  0  0  0  0  0
  -24.1245  -13.0619   20.8250 C   0  0  0  0  0  0  0  0  0  0  0  0
  -22.4175  -22.1060   18.5943 C   0  0  0  0  0  0  0  0  0  0  0  0
  -24.8536  -23.4836   24.6226 C   0  0  0  0  0  0  0  0  0  0  0  0
  -23.5015  -22.2962   19.4726 C   0  0  0  0  0  0  0  0  0  0  0  0
  -25.9861  -24.2892   24.8086 C   0  0  0  0  0  0  0  0  0  0  0  0
  -22.1734   -8.2976   21.5793 C   0  0  0  0  0  0  0  0  0  0  0  0
  -27.1610  -22.3931   25.7752 C   0  0  0  0  0  0  0  0  0  0  0  0
  -21.9920   -6.1932   22.6094 C   0  0  0  0  0  0  0  0  0  0  0  0
  -23.1509   -4.1668   24.1369 C   0  0  0  0  0  0  0  0  0  0  0  0
  -21.4190   -5.8224   23.8258 C   0  0  0  0  0  0  0  0  0  0  0  0
  -24.5231  -11.7143   20.7411 C   0  0  0  0  0  0  0  0  0  0  0  0
  -30.7624  -18.9170   22.7846 C   0  0  0  0  0  0  0  0  0  0  0  0
  -30.5996  -16.9277   21.8620 C   0  0  0  0  0  0  0  0  0  0  0  0
  -25.2397  -13.7734   20.4553 C   0  0  0  0  0  0  0  0  0  0  0  0
  -22.8594  -13.6206   21.2033 C   0  0  0  0  0  0  0  0  0  0  0  0
  -24.4486  -24.9688   21.8417 C   0  0  0  0  0  0  0  0  0  0  0  0
  -24.4837  -27.6273   23.7001 C   0  0  0  0  0  0  0  0  0  0  0  0
  -25.4466  -29.1085   26.6200 C   0  0  0  0  0  0  0  0  0  0  0  0
  -30.7248  -14.7012   20.6902 C   0  0  0  0  0  0  0  0  0  0  0  0
  -21.8113  -23.2513   17.8227 C   0  0  0  0  0  0  0  0  0  0  0  0
  -23.5960  -24.0616   24.0339 C   0  0  0  0  0  0  0  0  0  0  0  0
  -26.0031  -25.7394   24.4022 C   0  0  0  0  0  0  0  0  0  0  0  0
  -22.1619  -24.6232   18.3930 C   0  0  0  0  0  0  0  0  0  0  0  0
  -29.5951  -12.2315   18.3877 C   0  0  0  0  0  0  0  0  0  0  0  0
  -23.6540  -24.7091   18.6979 C   0  0  0  0  0  0  0  0  0  0  0  0
  -28.1420  -11.9876   18.8016 C   0  0  0  0  0  0  0  0  0  0  0  0
  -30.4948  -12.4816   19.5967 C   0  0  0  0  0  0  0  0  0  0  0  0
  -28.5821  -13.2968   20.9181 C   0  0  0  0  0  0  0  0  0  0  0  0
  -24.0621  -23.6736   19.7527 C   0  0  1  0  0  0  0  0  0  0  0  0
  -23.8503  -25.2997   23.1797 C   0  0  1  0  0  0  0  0  0  0  0  0
  -27.6255  -13.1043   19.7300 C   0  0  2  0  0  0  0  0  0  0  0  0
  -29.5045  -21.0629   22.8400 C   0  0  0  0  0  0  0  0  0  0  0  0
  -25.3635  -31.3013   27.8374 C   0  0  0  0  0  0  0  0  0  0  0  0
  -26.6790  -28.7168   21.8825 C   0  0  0  0  0  0  0  0  0  0  0  0
  -27.2038  -30.4118   23.6489 C   0  0  0  0  0  0  0  0  0  0  0  0
  -24.9579  -30.3987   22.5632 C   0  0  0  0  0  0  0  0  0  0  0  0
  -30.7831  -20.8093   27.3918 C   0  0  0  0  0  0  0  0  0  0  0  0
  -31.9841  -22.0119   25.5774 C   0  0  0  0  0  0  0  0  0  0  0  0
  -33.7027  -19.6431   23.3358 C   0  0  0  0  0  0  0  0  0  0  0  0
  -32.7598  -20.6834   21.2362 C   0  0  0  0  0  0  0  0  0  0  0  0
  -34.1930  -18.6589   21.1080 C   0  0  0  0  0  0  0  0  0  0  0  0
  -23.9167  -27.9360   28.8658 C   0  0  0  0  0  0  0  0  0  0  0  0
  -30.3261  -20.1212   25.0328 C   0  0  0  0  0  0  0  0  0  0  0  0
  -29.5350  -22.4155   25.9154 C   0  0  0  0  0  0  0  0  0  1  0  0
  -30.6146  -20.2392   23.5141 C   0  0  1  0  0  0  0  0  0  0  0  0
  -25.5534  -28.5673   24.2013 C   0  0  1  0  0  0  0  0  0  0  0  0
  -24.6820  -29.9597   27.6177 C   0  0  2  0  0  0  0  0  0  0  0  0
  -26.0992  -29.4958   23.0800 C   0  0  0  0  0  0  0  0  0  0  0  0
  -30.6475  -21.3460   25.9464 C   0  0  0  0  0  0  0  0  0  0  0  0
  -33.0914  -19.3524   21.9472 C   0  0  0  0  0  0  0  0  0  0  0  0
  -25.7922  -11.5754   20.3488 N   0  0  0  0  0  0  0  0  0  0  0  0
  -31.8190  -17.3548   21.5233 N   0  0  0  0  0  0  0  0  0  0  0  0
  -31.8884  -18.5672   22.0989 N   0  0  0  0  0  0  0  0  0  0  0  0
  -26.2009  -12.8449   20.1828 N   0  0  0  0  0  0  0  0  0  0  0  0
  -24.7512  -26.2566   23.8254 N   0  0  0  0  0  0  0  0  0  0  0  0
  -29.9451  -13.5549   20.4278 N   0  0  0  0  0  0  0  0  0  0  0  0
  -25.4821  -15.0964   20.3400 N   0  0  0  0  0  0  0  0  0  0  0  0
  -21.8212  -12.7468   21.5539 N   0  0  0  0  0  0  0  0  0  0  0  0
  -30.0853  -15.6687   21.4644 N   0  0  0  0  0  0  0  0  0  0  0  0
  -23.6753  -24.1188   21.0743 N   0  0  0  0  0  0  0  0  0  0  0  0
  -24.9735  -29.2777   25.3359 N   0  0  0  0  0  0  0  0  0  0  0  0
  -24.5873  -29.2600   28.9301 N   0  3  0  0  0  0  0  0  0  0  0  0
  -22.6508  -14.8574   21.2138 O   0  0  0  0  0  0  0  0  0  0  0  0
  -25.5310  -25.4503   21.5281 O   0  0  0  0  0  0  0  0  0  0  0  0
  -23.4460  -28.0920   23.2219 O   0  0  0  0  0  0  0  0  0  0  0  0
  -26.3734  -28.3704   26.9465 O   0  0  0  0  0  0  0  0  0  0  0  0
  -31.8653  -14.8279   20.2370 O   0  0  0  0  0  0  0  0  0  0  0  0
  -21.4176   -7.1984   21.8496 O   0  0  0  0  0  0  0  0  0  0  0  0
  -28.2855  -21.8653   26.3308 O   0  0  0  0  0  0  0  0  0  1  0  0
  -23.7065   -3.1928   24.8695 F   0  0  0  0  0  0  0  0  0  0  0  0
  -20.3112   -6.4351   24.2654 F   0  0  0  0  0  0  0  0  0  0  0  0
  1  2  1  0  0  0  0
  1  5  2  0  0  0  0
  2  6  2  0  0  0  0
  3  8  2  0  0  0  0
  3 16  1  0  0  0  0
  4  9  1  0  0  0  0
  4 16  2  0  0  0  0
  5 18  1  0  0  0  0
  6 20  1  0  0  0  0
  7 10  2  0  0  0  0
  7 19  1  0  0  0  0
  8 22  1  0  0  0  0
  9 22  2  0  0  0  0
 10 23  1  0  0  0  0
 11 12  2  0  0  0  0
 11 24  1  0  0  0  0
 12 25  1  0  0  0  0
 13 21  1  0  0  0  0
 13 23  2  0  0  0  0
 14 25  2  0  0  0  0
 14 26  1  0  0  0  0
 15 28  2  0  0  0  0
 15 29  1  0  0  0  0
 16 27  1  0  0  0  0
 17 27  1  0  0  0  0
 17 30  2  0  0  0  0
 17 31  1  0  0  0  0
 18 20  2  0  0  0  0
 18 36  1  0  0  0  0
 19 21  2  0  0  0  0
 19 37  1  0  0  0  0
 20 45  1  0  0  0  0
 21 38  1  0  0  0  0
 22 84  1  0  0  0  0
 23 85  1  0  0  0  0
 24 26  2  0  0  0  0
 24 84  1  0  0  0  0
 25 86  1  0  0  0  0
 26 87  1  0  0  0  0
 27 67  2  0  0  0  0
 28 61  1  0  0  0  0
 28 69  1  0  0  0  0
 29 68  2  0  0  0  0
 29 75  1  0  0  0  0
 30 70  1  0  0  0  0
 30 73  1  0  0  0  0
 31 74  1  0  0  0  0
 31 79  2  0  0  0  0
 32 46  1  0  0  0  0
 32 76  1  0  0  0  0
 32 80  2  0  0  0  0
 33 62  1  0  0  0  0
 33 71  1  0  0  0  0
 33 81  2  0  0  0  0
 34 63  1  0  0  0  0
 34 77  1  0  0  0  0
 34 82  2  0  0  0  0
 35 72  1  0  0  0  0
 35 75  1  0  0  0  0
 35 83  2  0  0  0  0
 36 39  1  0  0  0  0
 37 46  1  0  0  0  0
 38 71  1  0  0  0  0
 39 41  1  0  0  0  0
 40 42  1  0  0  0  0
 40 43  1  0  0  0  0
 41 45  1  0  0  0  0
 42 47  1  0  0  0  0
 43 72  1  0  0  0  0
 44 47  1  0  0  0  0
 44 72  1  0  0  0  0
 45 76  1  0  0  0  0
 46 71  1  0  0  0  0
 47 70  1  0  0  0  0
 48 61  1  0  0  0  0
 49 63  1  0  0  0  0
 50 64  1  0  0  0  0
 51 64  1  0  0  0  0
 52 64  1  0  0  0  0
 53 65  1  0  0  0  0
 54 65  1  0  0  0  0
 55 66  1  0  0  0  0
 56 66  1  0  0  0  0
 57 66  1  0  0  0  0
 58 78  1  0  0  0  0
 59 61  1  0  0  0  0
 59 65  1  0  0  0  0
 60 65  1  0  0  0  0
 60 85  1  0  0  0  0
 62 64  1  0  0  0  0
 62 77  1  0  0  0  0
 63 78  1  0  0  0  0
 66 69  1  0  0  0  0
 67 70  1  0  0  0  0
 68 69  1  0  0  0  0
M  CHG  1  78   1
M  ISO  4  35 100  60 101  75 100  85 101
M  END
> <Batch ID>
0071

> <Smiles>
CNC(C)C(=O)NC(C(=O)N1Cc2cc([101O:1][101CH2:1]C(C)(C)CC(C)c3cc([100NH:0][100C:0](=O)N4CCCC(n5nc(-c6ccc(Oc7ccc(F)cc7F)cc6)c(C(N)=O)c5N)C4)nn3C(C)(C)C)ccc2CC1C(=O)NC1CCCc2ccccc21)C(C)(C)C

> <Shape>
0.213

> <Color>
0.203

> <Negative vol penalty>
0.000

$$$$

  -OEChem-04052318222D

  0  0  0     0  0  0  0  0  0999 V2000
M  END
$$$$

  -OEChem-04052318223D

 83 91  0     1  0  0  0  0  0999 V2000
  -25.4159  -22.3716   21.4116 C   0  0  0  0  0  0  0  0  0  0  0  0
  -25.2761  -21.3609   22.3573 C   0  0  0  0  0  0  0  0  0  0  0  0
  -23.2852   -9.7988   19.9119 C   0  0  0  0  0  0  0  0  0  0  0  0
  -23.7274   -9.9413   22.2828 C   0  0  0  0  0  0  0  0  0  0  0  0
  -26.6110  -22.5035   20.7056 C   0  0  0  0  0  0  0  0  0  0  0  0
  -26.3309  -20.4810   22.5969 C   0  0  0  0  0  0  0  0  0  0  0  0
  -27.8635  -17.9433   27.9558 C   0  0  0  0  0  0  0  0  0  0  0  0
  -22.5550   -8.6284   20.1183 C   0  0  0  0  0  0  0  0  0  0  0  0
  -22.9972   -8.7709   22.4893 C   0  0  0  0  0  0  0  0  0  0  0  0
  -27.6012  -16.6911   28.5097 C   0  0  0  0  0  0  0  0  0  0  0  0
  -19.4673   -7.7773   21.2020 C   0  0  0  0  0  0  0  0  0  0  0  0
  -18.2404   -7.6551   20.5498 C   0  0  0  0  0  0  0  0  0  0  0  0
  -29.7446  -15.9043   27.7312 C   0  0  0  0  0  0  0  0  0  0  0  0
  -19.0411   -5.6788   19.4138 C   0  0  0  0  0  0  0  0  0  0  0  0
  -29.7815  -11.0793   25.6106 C   0  0  0  0  0  0  0  0  0  0  0  0
  -23.8715  -10.4552   20.9941 C   0  0  0  0  0  0  0  0  0  0  0  0
  -24.1381  -12.9843   20.7933 C   0  0  0  0  0  0  0  0  0  0  0  0
  -27.6844  -21.6307   20.9435 C   0  0  0  0  0  0  0  0  0  0  0  0
  -29.0657  -18.1826   27.2747 C   0  0  0  0  0  0  0  0  0  0  0  0
  -27.5410  -20.6005   21.8925 C   0  0  0  0  0  0  0  0  0  0  0  0
  -30.0208  -17.1612   27.1717 C   0  0  0  0  0  0  0  0  0  0  0  0
  -28.6303  -10.9102   26.3403 C   0  0  0  0  0  0  0  0  0  0  0  0
  -22.4110   -8.1144   21.4070 C   0  0  0  0  0  0  0  0  0  0  0  0
  -28.5405  -15.6705   28.3950 C   0  0  0  0  0  0  0  0  0  0  0  0
  -20.4812   -6.8503   20.9601 C   0  0  0  0  0  0  0  0  0  0  0  0
  -18.0273   -6.6058   19.6558 C   0  0  0  0  0  0  0  0  0  0  0  0
  -20.2681   -5.8011   20.0660 C   0  0  0  0  0  0  0  0  0  0  0  0
  -24.6263  -11.6640   20.7813 C   0  0  0  0  0  0  0  0  0  0  0  0
  -27.6101  -10.8263   25.3739 C   0  0  0  0  0  0  0  0  0  0  0  0
  -25.2425  -13.7610   20.5415 C   0  0  0  0  0  0  0  0  0  0  0  0
  -22.8054  -13.4656   21.0125 C   0  0  0  0  0  0  0  0  0  0  0  0
  -29.8355  -18.9866   24.2973 C   0  0  0  0  0  0  0  0  0  0  0  0
  -32.8260  -19.1839   25.5383 C   0  0  0  0  0  0  0  0  0  0  0  0
  -31.1117  -12.7847   21.3850 C   0  0  0  0  0  0  0  0  0  0  0  0
  -35.0238  -18.2266   27.9673 C   0  0  0  0  0  0  0  0  0  0  0  0
  -28.9399  -21.7833   20.1220 C   0  0  0  0  0  0  0  0  0  0  0  0
  -29.3449  -19.5468   26.7060 C   0  0  0  0  0  0  0  0  0  0  0  0
  -31.3356  -17.3730   26.4681 C   0  0  0  0  0  0  0  0  0  0  0  0
  -30.1417  -21.0427   20.7029 C   0  0  0  0  0  0  0  0  0  0  0  0
  -29.4716  -13.6635   18.3227 C   0  0  0  0  0  0  0  0  0  0  0  0
  -29.7502  -19.6254   21.1088 C   0  0  0  0  0  0  0  0  0  0  0  0
  -28.0029  -13.3435   18.5974 C   0  0  0  0  0  0  0  0  0  0  0  0
  -30.3988  -12.6729   19.0200 C   0  0  0  0  0  0  0  0  0  0  0  0
  -28.7037  -12.2417   20.7700 C   0  0  0  0  0  0  0  0  0  0  0  0
  -28.6712  -19.6418   22.1983 C   0  0  1  0  0  0  0  0  0  0  0  0
  -30.3828  -19.5271   25.5880 C   0  0  1  0  0  0  0  0  0  0  0  0
  -27.7337  -13.2370   20.1089 C   0  0  2  0  0  0  0  0  0  0  0  0
  -26.1657  -10.6424   25.5991 C   0  0  0  0  0  0  0  0  0  0  0  0
  -37.4070  -18.5227   28.6953 C   0  0  0  0  0  0  0  0  0  0  0  0
  -29.6471  -13.7297   23.1444 C   0  0  0  0  0  0  0  0  0  0  0  0
  -31.9778  -12.9943   23.6689 C   0  0  0  0  0  0  0  0  0  0  0  0
  -33.7355  -17.2954   23.3209 C   0  0  0  0  0  0  0  0  0  0  0  0
  -35.8312  -16.8832   24.6271 C   0  0  0  0  0  0  0  0  0  0  0  0
  -35.3108  -19.1780   23.7992 C   0  0  0  0  0  0  0  0  0  0  0  0
  -34.2083  -19.4155   30.5519 C   0  0  0  0  0  0  0  0  0  0  0  0
  -28.5018  -10.8337   27.8407 C   0  0  0  0  0  0  0  0  0  0  0  0
  -27.9591  -12.1144   28.4785 C   0  0  0  0  0  0  0  0  0  0  0  0
  -30.2594  -11.2381   23.1559 C   0  0  0  0  0  0  0  0  0  0  0  0
  -28.8746  -13.3182   28.2889 C   0  0  0  0  0  0  0  0  0  1  0  0
  -33.9740  -18.2204   25.7196 C   0  0  1  0  0  0  0  0  0  0  0  0
  -35.9791  -19.0273   28.8337 C   0  0  2  0  0  0  0  0  0  0  0  0
  -30.7227  -12.6807   22.8383 C   0  0  0  0  0  0  0  0  0  0  0  0
  -34.6874  -17.8894   24.3783 C   0  0  0  0  0  0  0  0  0  0  0  0
  -25.9386  -11.6016   20.5408 N   0  0  0  0  0  0  0  0  0  0  0  0
  -28.0725  -10.9334   24.1254 N   0  0  0  0  0  0  0  0  0  0  0  0
  -29.3959  -11.0864   24.3024 N   0  0  0  0  0  0  0  0  0  0  0  0
  -26.2844  -12.8925   20.3992 N   0  0  0  0  0  0  0  0  0  0  0  0
  -31.5593  -18.7222   25.9232 N   0  0  0  0  0  0  0  0  0  0  0  0
  -30.0965  -12.5838   20.4496 N   0  0  0  0  0  0  0  0  0  0  0  0
  -25.4143  -15.0954   20.4300 N   0  0  0  0  0  0  0  0  0  0  0  0
  -21.7895  -12.5316   21.2573 N   0  0  0  0  0  0  0  0  0  0  0  0
  -29.2579  -19.9446   23.4861 N   0  0  0  0  0  0  0  0  0  0  0  0
  -34.8455  -18.8094   26.7304 N   0  0  0  0  0  0  0  0  0  0  0  0
  -35.5833  -18.9304   30.2672 N   0  3  0  0  0  0  0  0  0  0  0  0
  -22.5208  -14.6867   20.9756 O   0  0  0  0  0  0  0  0  0  0  0  0
  -29.9314  -17.7892   24.0547 O   0  0  0  0  0  0  0  0  0  0  0  0
  -33.0463  -20.3073   25.0789 O   0  0  0  0  0  0  0  0  0  0  0  0
  -32.2826  -13.0399   21.0920 O   0  0  0  0  0  0  0  0  0  0  0  0
  -34.4921  -17.1860   28.3481 O   0  0  0  0  0  0  0  0  0  0  0  0
  -21.6984   -6.9725   21.6089 O   0  0  0  0  0  0  0  0  0  0  0  0
  -28.2867  -14.4471   28.9342 O   0  0  0  0  0  0  0  0  0  1  0  0
  -16.8485   -6.4877   19.0307 F   0  0  0  0  0  0  0  0  0  0  0  0
  -21.2379   -4.9067   19.8304 F   0  0  0  0  0  0  0  0  0  0  0  0
  1  2  1  0  0  0  0
  1  5  2  0  0  0  0
  2  6  2  0  0  0  0
  3  8  2  0  0  0  0
  3 16  1  0  0  0  0
  4  9  1  0  0  0  0
  4 16  2  0  0  0  0
  5 18  1  0  0  0  0
  6 20  1  0  0  0  0
  7 10  2  0  0  0  0
  7 19  1  0  0  0  0
  8 23  1  0  0  0  0
  9 23  2  0  0  0  0
 10 24  1  0  0  0  0
 11 12  2  0  0  0  0
 11 25  1  0  0  0  0
 12 26  1  0  0  0  0
 13 21  1  0  0  0  0
 13 24  2  0  0  0  0
 14 26  2  0  0  0  0
 14 27  1  0  0  0  0
 15 22  2  0  0  0  0
 15 66  1  0  0  0  0
 16 28  1  0  0  0  0
 17 28  1  0  0  0  0
 17 30  2  0  0  0  0
 17 31  1  0  0  0  0
 18 20  2  0  0  0  0
 18 36  1  0  0  0  0
 19 21  2  0  0  0  0
 19 37  1  0  0  0  0
 20 45  1  0  0  0  0
 21 38  1  0  0  0  0
 22 29  1  0  0  0  0
 22 56  1  0  0  0  0
 23 80  1  0  0  0  0
 24 81  1  0  0  0  0
 25 27  2  0  0  0  0
 25 80  1  0  0  0  0
 26 82  1  0  0  0  0
 27 83  1  0  0  0  0
 28 64  2  0  0  0  0
 29 48  1  0  0  0  0
 29 65  2  0  0  0  0
 30 67  1  0  0  0  0
 30 70  1  0  0  0  0
 31 71  1  0  0  0  0
 31 75  2  0  0  0  0
 32 46  1  0  0  0  0
 32 72  1  0  0  0  0
 32 76  2  0  0  0  0
 33 60  1  0  0  0  0
 33 68  1  0  0  0  0
 33 77  2  0  0  0  0
 34 62  1  0  0  0  0
 34 69  1  0  0  0  0
 34 78  2  0  0  0  0
 35 61  1  0  0  0  0
 35 73  1  0  0  0  0
 35 79  2  0  0  0  0
 36 39  1  0  0  0  0
 37 46  1  0  0  0  0
 38 68  1  0  0  0  0
 39 41  1  0  0  0  0
 40 42  1  0  0  0  0
 40 43  1  0  0  0  0
 41 45  1  0  0  0  0
 42 47  1  0  0  0  0
 43 69  1  0  0  0  0
 44 47  1  0  0  0  0
 44 69  1  0  0  0  0
 45 72  1  0  0  0  0
 46 68  1  0  0  0  0
 47 67  1  0  0  0  0
 49 61  1  0  0  0  0
 50 62  1  0  0  0  0
 51 62  1  0  0  0  0
 52 63  1  0  0  0  0
 53 63  1  0  0  0  0
 54 63  1  0  0  0  0
 55 74  1  0  0  0  0
 56 57  1  0  0  0  0
 57 59  1  0  0  0  0
 58 62  1  0  0  0  0
 58 66  1  0  0  0  0
 59 81  1  0  0  0  0
 60 63  1  0  0  0  0
 60 73  1  0  0  0  0
 61 74  1  0  0  0  0
 64 67  1  0  0  0  0
 65 66  1  0  0  0  0
M  CHG  1  74   1
M  ISO  4  34 100  59 101  62 100  81 101
M  END
> <Batch ID>
0071

> <Smiles>
CNC(C)C(=O)NC(C(=O)N1Cc2cc([101O:1][101CH2:1]CCc3cn(C[100C:0](C)(C)[100C:0](=O)N4CCCC(n5nc(-c6ccc(Oc7ccc(F)cc7F)cc6)c(C(N)=O)c5N)C4)nc3C)ccc2CC1C(=O)NC1CCCc2ccccc21)C(C)(C)C

> <Shape>
0.147

> <Color>
0.177

> <Negative vol penalty>
0.000

$$$$

  -OEChem-04052318223D

 84 92  0     1  0  0  0  0  0999 V2000
  -34.4884  -22.6413   17.8789 C   0  0  0  0  0  0  0  0  0  0  0  0
  -33.1839  -22.2181   18.1129 C   0  0  0  0  0  0  0  0  0  0  0  0
  -23.1759   -9.8525   19.9677 C   0  0  0  0  0  0  0  0  0  0  0  0
  -23.9013   -9.9432   22.2704 C   0  0  0  0  0  0  0  0  0  0  0  0
  -34.8904  -23.9135   18.2835 C   0  0  0  0  0  0  0  0  0  0  0  0
  -32.2810  -23.0666   18.7526 C   0  0  0  0  0  0  0  0  0  0  0  0
  -27.7479  -23.1368   16.4962 C   0  0  0  0  0  0  0  0  0  0  0  0
  -22.4605   -8.6862   20.2390 C   0  0  0  0  0  0  0  0  0  0  0  0
  -23.1859   -8.7769   22.5417 C   0  0  0  0  0  0  0  0  0  0  0  0
  -26.8979  -22.0592   16.7413 C   0  0  0  0  0  0  0  0  0  0  0  0
  -19.9725   -7.9056   23.1208 C   0  0  0  0  0  0  0  0  0  0  0  0
  -19.1997   -7.8764   24.2816 C   0  0  0  0  0  0  0  0  0  0  0  0
  -25.6991  -23.3818   18.3640 C   0  0  0  0  0  0  0  0  0  0  0  0
  -20.4831   -5.9953   25.0886 C   0  0  0  0  0  0  0  0  0  0  0  0
  -23.8963  -10.4810   20.9834 C   0  0  0  0  0  0  0  0  0  0  0  0
  -24.1699  -13.0105   20.7984 C   0  0  0  0  0  0  0  0  0  0  0  0
  -33.9893  -24.7817   18.9199 C   0  0  0  0  0  0  0  0  0  0  0  0
  -27.5864  -24.3434   17.1922 C   0  0  0  0  0  0  0  0  0  0  0  0
  -32.6717  -24.3511   19.1673 C   0  0  0  0  0  0  0  0  0  0  0  0
  -26.5468  -24.4740   18.1240 C   0  0  0  0  0  0  0  0  0  0  0  0
  -22.4655   -8.1484   21.5260 C   0  0  0  0  0  0  0  0  0  0  0  0
  -25.8751  -22.1806   17.6774 C   0  0  0  0  0  0  0  0  0  0  0  0
  -21.0006   -6.9796   22.9438 C   0  0  0  0  0  0  0  0  0  0  0  0
  -19.4550   -6.9213   25.2655 C   0  0  0  0  0  0  0  0  0  0  0  0
  -21.2559   -6.0245   23.9277 C   0  0  0  0  0  0  0  0  0  0  0  0
  -24.6359  -11.6855   20.7037 C   0  0  0  0  0  0  0  0  0  0  0  0
  -25.2462  -13.7802   20.4299 C   0  0  0  0  0  0  0  0  0  0  0  0
  -29.3349  -16.9401   20.9294 C   0  0  0  0  0  0  0  0  0  0  0  0
  -28.8717  -18.3076   19.4219 C   0  0  0  0  0  0  0  0  0  0  0  0
  -22.8796  -13.5018   21.1851 C   0  0  0  0  0  0  0  0  0  0  0  0
  -29.3827  -26.0347   19.1963 C   0  0  0  0  0  0  0  0  0  0  0  0
  -30.7176  -14.8941   20.7660 C   0  0  0  0  0  0  0  0  0  0  0  0
  -26.9748  -28.1905   18.9195 C   0  0  0  0  0  0  0  0  0  0  0  0
  -23.6920  -28.7915   18.2060 C   0  0  0  0  0  0  0  0  0  0  0  0
  -34.4831  -26.1299   19.3815 C   0  0  0  0  0  0  0  0  0  0  0  0
  -28.4950  -25.5051   16.8968 C   0  0  0  0  0  0  0  0  0  0  0  0
  -26.3184  -25.7546   18.8830 C   0  0  0  0  0  0  0  0  0  0  0  0
  -33.3600  -27.1077   19.7173 C   0  0  0  0  0  0  0  0  0  0  0  0
  -29.6536  -12.4987   18.3226 C   0  0  0  0  0  0  0  0  0  0  0  0
  -32.3007  -26.4282   20.5793 C   0  0  0  0  0  0  0  0  0  0  0  0
  -28.2260  -12.1601   18.7498 C   0  0  0  0  0  0  0  0  0  0  0  0
  -30.5504  -12.7597   19.5288 C   0  0  0  0  0  0  0  0  0  0  0  0
  -28.6070  -13.4787   20.8808 C   0  0  0  0  0  0  0  0  0  0  0  0
  -31.6562  -25.2519   19.8362 C   0  0  1  0  0  0  0  0  0  0  0  0
  -28.5595  -26.5179   18.0359 C   0  0  1  0  0  0  0  0  0  0  0  0
  -27.6604  -13.2379   19.6915 C   0  0  2  0  0  0  0  0  0  0  0  0
  -28.8272  -19.1555   18.2171 C   0  0  0  0  0  0  0  0  0  0  0  0
  -31.1093  -16.4347   22.6580 C   0  0  0  0  0  0  0  0  0  0  0  0
  -22.0064  -30.6477   18.1029 C   0  0  0  0  0  0  0  0  0  0  0  0
  -26.7943  -28.1926   21.9653 C   0  0  0  0  0  0  0  0  0  0  0  0
  -24.5475  -29.2782   21.7620 C   0  0  0  0  0  0  0  0  0  0  0  0
  -26.5779  -30.4476   20.9059 C   0  0  0  0  0  0  0  0  0  0  0  0
  -23.2915  -18.9054   18.6118 C   0  0  0  0  0  0  0  0  0  0  0  0
  -23.6227  -19.4965   21.0158 C   0  0  0  0  0  0  0  0  0  0  0  0
  -23.2212  -28.3598   15.3162 C   0  0  0  0  0  0  0  0  0  0  0  0
  -25.5863  -18.7238   19.5888 C   0  0  0  0  0  0  0  0  0  0  0  0
  -26.7137  -19.2473   20.4886 C   0  0  0  0  0  0  0  0  0  0  0  0
  -24.4947  -21.0255   19.2318 C   0  0  0  0  0  0  0  0  0  1  0  0
  -30.0484  -15.8955   21.6734 C   0  0  1  0  0  0  0  0  0  0  0  0
  -25.6789  -28.4456   19.6507 C   0  0  1  0  0  0  0  0  0  0  0  0
  -23.0272  -29.8329   17.3240 C   0  0  2  0  0  0  0  0  0  0  0  0
  -25.9049  -29.0661   21.0582 C   0  0  0  0  0  0  0  0  0  0  0  0
  -24.2686  -19.5485   19.6198 C   0  0  0  0  0  0  0  0  0  0  0  0
  -25.9090  -11.6138   20.3060 N   0  0  0  0  0  0  0  0  0  0  0  0
  -29.7779  -17.4076   19.7252 N   0  0  0  0  0  0  0  0  0  0  0  0
  -28.2115  -17.4943   21.3901 N   0  0  0  0  0  0  0  0  0  0  0  0
  -26.2521  -12.9035   20.1475 N   0  0  0  0  0  0  0  0  0  0  0  0
  -27.9361  -18.3654   20.4074 N   0  0  0  0  0  0  0  0  0  0  0  0
  -27.2371  -26.8599   18.5636 N   0  0  0  0  0  0  0  0  0  0  0  0
  -29.9675  -13.7731   20.4100 N   0  0  0  0  0  0  0  0  0  0  0  0
  -25.4208  -15.1145   20.3231 N   0  0  0  0  0  0  0  0  0  0  0  0
  -21.8884  -12.5741   21.5331 N   0  0  0  0  0  0  0  0  0  0  0  0
  -30.6910  -25.7318   18.8705 N   0  0  0  0  0  0  0  0  0  0  0  0
  -24.8625  -29.2642   18.7609 N   0  0  0  0  0  0  0  0  0  0  0  0
  -22.3313  -29.1760   16.1815 N   0  3  0  0  0  0  0  0  0  0  0  0
  -22.6086  -14.7264   21.2051 O   0  0  0  0  0  0  0  0  0  0  0  0
  -28.8694  -25.9448   20.3054 O   0  0  0  0  0  0  0  0  0  0  0  0
  -31.8715  -15.1051   20.3836 O   0  0  0  0  0  0  0  0  0  0  0  0
  -27.7232  -29.1379   18.6668 O   0  0  0  0  0  0  0  0  0  0  0  0
  -23.2183  -27.6721   18.3879 O   0  0  0  0  0  0  0  0  0  0  0  0
  -21.7674   -7.0105   21.7911 O   0  0  0  0  0  0  0  0  0  0  0  0
  -25.0445  -21.1302   17.9191 O   0  0  0  0  0  0  0  0  0  1  0  0
  -18.7138   -6.8943   26.3809 F   0  0  0  0  0  0  0  0  0  0  0  0
  -22.2430   -5.1331   23.7639 F   0  0  0  0  0  0  0  0  0  0  0  0
  1  2  1  0  0  0  0
  1  5  2  0  0  0  0
  2  6  2  0  0  0  0
  3  8  2  0  0  0  0
  3 15  1  0  0  0  0
  4  9  1  0  0  0  0
  4 15  2  0  0  0  0
  5 17  1  0  0  0  0
  6 19  1  0  0  0  0
  7 10  2  0  0  0  0
  7 18  1  0  0  0  0
  8 21  1  0  0  0  0
  9 21  2  0  0  0  0
 10 22  1  0  0  0  0
 11 12  2  0  0  0  0
 11 23  1  0  0  0  0
 12 24  1  0  0  0  0
 13 20  1  0  0  0  0
 13 22  2  0  0  0  0
 14 24  2  0  0  0  0
 14 25  1  0  0  0  0
 15 26  1  0  0  0  0
 16 26  1  0  0  0  0
 16 27  2  0  0  0  0
 16 30  1  0  0  0  0
 17 19  2  0  0  0  0
 17 35  1  0  0  0  0
 18 20  2  0  0  0  0
 18 36  1  0  0  0  0
 19 44  1  0  0  0  0
 20 37  1  0  0  0  0
 21 81  1  0  0  0  0
 22 82  1  0  0  0  0
 23 25  2  0  0  0  0
 23 81  1  0  0  0  0
 24 83  1  0  0  0  0
 25 84  1  0  0  0  0
 26 64  2  0  0  0  0
 27 67  1  0  0  0  0
 27 71  1  0  0  0  0
 28 59  1  0  0  0  0
 28 65  1  0  0  0  0
 28 66  2  0  0  0  0
 29 47  1  0  0  0  0
 29 65  2  0  0  0  0
 29 68  1  0  0  0  0
 30 72  1  0  0  0  0
 30 76  2  0  0  0  0
 31 45  1  0  0  0  0
 31 73  1  0  0  0  0
 31 77  2  0  0  0  0
 32 59  1  0  0  0  0
 32 70  1  0  0  0  0
 32 78  2  0  0  0  0
 33 60  1  0  0  0  0
 33 69  1  0  0  0  0
 33 79  2  0  0  0  0
 34 61  1  0  0  0  0
 34 74  1  0  0  0  0
 34 80  2  0  0  0  0
 35 38  1  0  0  0  0
 36 45  1  0  0  0  0
 37 69  1  0  0  0  0
 38 40  1  0  0  0  0
 39 41  1  0  0  0  0
 39 42  1  0  0  0  0
 40 44  1  0  0  0  0
 41 46  1  0  0  0  0
 42 70  1  0  0  0  0
 43 46  1  0  0  0  0
 43 70  1  0  0  0  0
 44 73  1  0  0  0  0
 45 69  1  0  0  0  0
 46 67  1  0  0  0  0
 48 59  1  0  0  0  0
 49 61  1  0  0  0  0
 50 62  1  0  0  0  0
 51 62  1  0  0  0  0
 52 62  1  0  0  0  0
 53 63  1  0  0  0  0
 54 63  1  0  0  0  0
 55 75  1  0  0  0  0
 56 57  1  0  0  0  0
 56 63  1  0  0  0  0
 57 68  1  0  0  0  0
 58 63  1  0  0  0  0
 58 82  1  0  0  0  0
 60 62  1  0  0  0  0
 60 74  1  0  0  0  0
 61 75  1  0  0  0  0
 64 67  1  0  0  0  0
 66 68  1  0  0  0  0
M  CHG  1  75   1
M  ISO  4  32 100  58 101  59 100  82 101
M  END
> <Batch ID>
0071

> <Smiles>
CNC(C)C(=O)NC(C(=O)N1Cc2cc([101O:1][101CH2:1]C(C)(C)CCn3nc([100CH:0](C)[100C:0](=O)N4CCCC(n5nc(-c6ccc(Oc7ccc(F)cc7F)cc6)c(C(N)=O)c5N)C4)nc3C)ccc2CC1C(=O)NC1CCCc2ccccc21)C(C)(C)C

> <Shape>
0.287

> <Color>
0.209

> <Negative vol penalty>
0.000

$$$$

  -OEChem-04052318223D

 81 89  0     1  0  0  0  0  0999 V2000
  -19.8949  -15.0719   16.5335 C   0  0  0  0  0  0  0  0  0  0  0  0
  -20.7736  -16.1182   16.7951 C   0  0  0  0  0  0  0  0  0  0  0  0
  -22.4623  -28.7502   21.1660 C   0  0  0  0  0  0  0  0  0  0  0  0
  -23.8683  -28.3594   23.0915 C   0  0  0  0  0  0  0  0  0  0  0  0
  -20.0398  -13.8575   17.2029 C   0  0  0  0  0  0  0  0  0  0  0  0
  -21.7971  -15.9511   17.7273 C   0  0  0  0  0  0  0  0  0  0  0  0
  -27.4145  -18.3801   17.5019 C   0  0  0  0  0  0  0  0  0  0  0  0
  -21.3467  -28.8387   21.9986 C   0  0  0  0  0  0  0  0  0  0  0  0
  -22.7528  -28.4480   23.9241 C   0  0  0  0  0  0  0  0  0  0  0  0
  -27.9773  -19.5001   18.1123 C   0  0  0  0  0  0  0  0  0  0  0  0
  -19.9452  -31.1325   24.0498 C   0  0  0  0  0  0  0  0  0  0  0  0
  -19.0481  -32.1762   23.8228 C   0  0  0  0  0  0  0  0  0  0  0  0
  -28.8524  -18.0959   19.8678 C   0  0  0  0  0  0  0  0  0  0  0  0
  -17.2845  -30.5737   23.4244 C   0  0  0  0  0  0  0  0  0  0  0  0
  -29.6452  -24.7705   22.8955 C   0  0  0  0  0  0  0  0  0  0  0  0
  -23.7231  -28.5105   21.7124 C   0  0  0  0  0  0  0  0  0  0  0  0
  -25.7212  -29.4690   20.4489 C   0  0  0  0  0  0  0  0  0  0  0  0
  -21.0715  -13.6722   18.1367 C   0  0  0  0  0  0  0  0  0  0  0  0
  -27.5574  -17.1090   18.0765 C   0  0  0  0  0  0  0  0  0  0  0  0
  -21.9551  -14.7335   18.4108 C   0  0  0  0  0  0  0  0  0  0  0  0
  -28.2926  -16.9611   19.2613 C   0  0  0  0  0  0  0  0  0  0  0  0
  -21.4919  -28.6877   23.3777 C   0  0  0  0  0  0  0  0  0  0  0  0
  -28.6939  -19.3585   19.2970 C   0  0  0  0  0  0  0  0  0  0  0  0
  -19.5119  -29.8094   23.9640 C   0  0  0  0  0  0  0  0  0  0  0  0
  -17.7178  -31.8968   23.5101 C   0  0  0  0  0  0  0  0  0  0  0  0
  -18.1816  -29.5300   23.6514 C   0  0  0  0  0  0  0  0  0  0  0  0
  -24.8758  -28.4183   20.8528 C   0  0  0  0  0  0  0  0  0  0  0  0
  -30.1518  -24.2170   21.7465 C   0  0  0  0  0  0  0  0  0  0  0  0
  -26.6572  -28.8665   19.6442 C   0  0  0  0  0  0  0  0  0  0  0  0
  -25.6655  -30.8647   20.7723 C   0  0  0  0  0  0  0  0  0  0  0  0
  -25.5512  -14.9332   19.2362 C   0  0  0  0  0  0  0  0  0  0  0  0
  -28.2456  -13.1426   19.4735 C   0  0  0  0  0  0  0  0  0  0  0  0
  -30.2144  -24.6526   18.7070 C   0  0  0  0  0  0  0  0  0  0  0  0
  -31.6469  -13.0469   19.7366 C   0  0  0  0  0  0  0  0  0  0  0  0
  -21.1594  -12.3572   18.8700 C   0  0  0  0  0  0  0  0  0  0  0  0
  -26.9669  -15.9072   17.3914 C   0  0  0  0  0  0  0  0  0  0  0  0
  -28.4922  -15.6156   19.9080 C   0  0  0  0  0  0  0  0  0  0  0  0
  -22.4991  -12.1374   19.5680 C   0  0  0  0  0  0  0  0  0  0  0  0
  -26.8123  -24.2213   17.6680 C   0  0  0  0  0  0  0  0  0  0  0  0
  -22.9103  -13.3873   20.3398 C   0  0  0  0  0  0  0  0  0  0  0  0
  -26.0702  -25.3422   18.3945 C   0  0  0  0  0  0  0  0  0  0  0  0
  -27.9545  -23.6678   18.5142 C   0  0  0  0  0  0  0  0  0  0  0  0
  -28.1880  -25.8265   19.7005 C   0  0  0  0  0  0  0  0  0  0  0  0
  -23.0931  -14.5827   19.3969 C   0  0  1  0  0  0  0  0  0  0  0  0
  -26.7385  -14.7323   18.3374 C   0  0  1  0  0  0  0  0  0  0  0  0
  -27.0454  -26.4346   18.8679 C   0  0  2  0  0  0  0  0  0  0  0  0
  -33.5617  -11.4390   19.9503 C   0  0  0  0  0  0  0  0  0  0  0  0
  -32.4642  -24.5488   19.7318 C   0  0  0  0  0  0  0  0  0  0  0  0
  -31.4029  -26.7278   19.1402 C   0  0  0  0  0  0  0  0  0  0  0  0
  -27.5416  -12.6980   22.4089 C   0  0  0  0  0  0  0  0  0  0  0  0
  -29.8940  -11.9274   22.7842 C   0  0  0  0  0  0  0  0  0  0  0  0
  -28.4058  -10.6717   21.2249 C   0  0  0  0  0  0  0  0  0  0  0  0
  -32.8536  -13.9659   17.1953 C   0  0  0  0  0  0  0  0  0  0  0  0
  -30.3120  -22.7891   21.2896 C   0  0  0  0  0  0  0  0  0  0  0  0
  -29.2509  -21.8401   21.8509 C   0  0  0  0  0  0  0  0  0  0  0  0
  -29.3696  -20.4175   21.3164 C   0  0  0  0  0  0  0  0  0  1  0  0
  -29.3002  -12.9331   20.5332 C   0  0  1  0  0  0  0  0  0  0  0  0
  -32.6925  -12.2374   18.9911 C   0  0  2  0  0  0  0  0  0  0  0  0
  -31.1319  -25.3188   19.7013 C   0  0  0  0  0  0  0  0  0  0  0  0
  -28.7802  -12.0833   21.7269 C   0  0  0  0  0  0  0  0  0  0  0  0
  -29.7270  -26.1334   22.8238 N   0  0  0  0  0  0  0  0  0  0  0  0
  -25.2421  -27.2379   20.3464 N   0  0  0  0  0  0  0  0  0  0  0  0
  -30.2731  -26.4487   21.6545 N   0  0  0  0  0  0  0  0  0  0  0  0
  -30.5269  -25.2982   21.0100 N   0  0  0  0  0  0  0  0  0  0  0  0
  -26.3281  -27.5433   19.6159 N   0  0  0  0  0  0  0  0  0  0  0  0
  -27.8902  -14.4717   19.2033 N   0  0  0  0  0  0  0  0  0  0  0  0
  -28.8458  -24.7390   18.9629 N   0  0  0  0  0  0  0  0  0  0  0  0
  -27.7213  -29.3450   18.9651 N   0  0  0  0  0  0  0  0  0  0  0  0
  -24.6385  -31.3153   21.6128 N   0  0  0  0  0  0  0  0  0  0  0  0
  -24.3580  -14.4879   18.7000 N   0  0  0  0  0  0  0  0  0  0  0  0
  -30.4562  -12.3611   19.8513 N   0  0  0  0  0  0  0  0  0  0  0  0
  -33.5746  -13.1376   18.1959 N   0  3  0  0  0  0  0  0  0  0  0  0
  -26.4921  -31.6905   20.3158 O   0  0  0  0  0  0  0  0  0  0  0  0
  -25.7065  -15.4522   20.3354 O   0  0  0  0  0  0  0  0  0  0  0  0
  -27.7604  -12.1634   18.9013 O   0  0  0  0  0  0  0  0  0  0  0  0
  -30.7014  -24.0758   17.7311 O   0  0  0  0  0  0  0  0  0  0  0  0
  -31.8657  -14.1734   20.1767 O   0  0  0  0  0  0  0  0  0  0  0  0
  -20.4036  -28.7743   24.1904 O   0  0  0  0  0  0  0  0  0  0  0  0
  -29.2438  -20.4501   19.8953 O   0  0  0  0  0  0  0  0  0  1  0  0
  -16.8560  -32.8992   23.2936 F   0  0  0  0  0  0  0  0  0  0  0  0
  -17.7593  -28.2609   23.5687 F   0  0  0  0  0  0  0  0  0  0  0  0
  1  2  1  0  0  0  0
  1  5  2  0  0  0  0
  2  6  2  0  0  0  0
  3  8  2  0  0  0  0
  3 16  1  0  0  0  0
  4  9  1  0  0  0  0
  4 16  2  0  0  0  0
  5 18  1  0  0  0  0
  6 20  1  0  0  0  0
  7 10  2  0  0  0  0
  7 19  1  0  0  0  0
  8 22  1  0  0  0  0
  9 22  2  0  0  0  0
 10 23  1  0  0  0  0
 11 12  2  0  0  0  0
 11 24  1  0  0  0  0
 12 25  1  0  0  0  0
 13 21  1  0  0  0  0
 13 23  2  0  0  0  0
 14 25  2  0  0  0  0
 14 26  1  0  0  0  0
 15 28  2  0  0  0  0
 15 61  1  0  0  0  0
 16 27  1  0  0  0  0
 17 27  1  0  0  0  0
 17 29  2  0  0  0  0
 17 30  1  0  0  0  0
 18 20  2  0  0  0  0
 18 35  1  0  0  0  0
 19 21  2  0  0  0  0
 19 36  1  0  0  0  0
 20 44  1  0  0  0  0
 21 37  1  0  0  0  0
 22 78  1  0  0  0  0
 23 79  1  0  0  0  0
 24 26  2  0  0  0  0
 24 78  1  0  0  0  0
 25 80  1  0  0  0  0
 26 81  1  0  0  0  0
 27 62  2  0  0  0  0
 28 54  1  0  0  0  0
 28 64  1  0  0  0  0
 29 65  1  0  0  0  0
 29 68  1  0  0  0  0
 30 69  1  0  0  0  0
 30 73  2  0  0  0  0
 31 45  1  0  0  0  0
 31 70  1  0  0  0  0
 31 74  2  0  0  0  0
 32 57  1  0  0  0  0
 32 66  1  0  0  0  0
 32 75  2  0  0  0  0
 33 59  1  0  0  0  0
 33 67  1  0  0  0  0
 33 76  2  0  0  0  0
 34 58  1  0  0  0  0
 34 71  1  0  0  0  0
 34 77  2  0  0  0  0
 35 38  1  0  0  0  0
 36 45  1  0  0  0  0
 37 66  1  0  0  0  0
 38 40  1  0  0  0  0
 39 41  1  0  0  0  0
 39 42  1  0  0  0  0
 40 44  1  0  0  0  0
 41 46  1  0  0  0  0
 42 67  1  0  0  0  0
 43 46  1  0  0  0  0
 43 67  1  0  0  0  0
 44 70  1  0  0  0  0
 45 66  1  0  0  0  0
 46 65  1  0  0  0  0
 47 58  1  0  0  0  0
 48 59  1  0  0  0  0
 49 59  1  0  0  0  0
 50 60  1  0  0  0  0
 51 60  1  0  0  0  0
 52 60  1  0  0  0  0
 53 72  1  0  0  0  0
 54 55  1  0  0  0  0
 55 56  1  0  0  0  0
 56 79  1  0  0  0  0
 57 60  1  0  0  0  0
 57 71  1  0  0  0  0
 58 72  1  0  0  0  0
 59 64  1  0  0  0  0
 61 63  2  0  0  0  0
 62 65  1  0  0  0  0
 63 64  1  0  0  0  0
M  CHG  1  72   1
M  ISO  4  33 100  56 101  59 100  79 101
M  END
> <Batch ID>
0071

> <Smiles>
CNC(C)C(=O)NC(C(=O)N1Cc2cc([101O:1][101CH2:1]CCc3cnnn3[100C:0](C)(C)[100C:0](=O)N3CCCC(n4nc(-c5ccc(Oc6ccc(F)cc6F)cc5)c(C(N)=O)c4N)C3)ccc2CC1C(=O)NC1CCCc2ccccc21)C(C)(C)C

> <Shape>
0.281

> <Color>
0.068

> <Negative vol penalty>
0.000

$$$$

  -OEChem-04052318223D

 84 92  0     1  0  0  0  0  0999 V2000
  -31.5568  -29.3554   18.9194 C   0  0  0  0  0  0  0  0  0  0  0  0
  -30.6296  -28.4121   18.4883 C   0  0  0  0  0  0  0  0  0  0  0  0
  -25.7878  -15.9168   21.6339 C   0  0  0  0  0  0  0  0  0  0  0  0
  -25.3086  -16.6601   19.3856 C   0  0  0  0  0  0  0  0  0  0  0  0
  -31.5161  -29.8214   20.2329 C   0  0  0  0  0  0  0  0  0  0  0  0
  -29.6618  -27.9333   19.3707 C   0  0  0  0  0  0  0  0  0  0  0  0
  -25.0528  -27.7411   17.2814 C   0  0  0  0  0  0  0  0  0  0  0  0
  -28.7914  -21.5384   16.4124 C   0  0  0  0  0  0  0  0  0  0  0  0
  -24.5081  -15.3696   21.7258 C   0  0  0  0  0  0  0  0  0  0  0  0
  -24.0288  -16.1129   19.4775 C   0  0  0  0  0  0  0  0  0  0  0  0
  -24.7868  -26.6752   16.4229 C   0  0  0  0  0  0  0  0  0  0  0  0
  -21.4933  -13.4611   22.4211 C   0  0  0  0  0  0  0  0  0  0  0  0
  -21.3724  -12.1817   22.9635 C   0  0  0  0  0  0  0  0  0  0  0  0
  -27.5137  -21.3300   15.9051 C   0  0  0  0  0  0  0  0  0  0  0  0
  -23.6221  -25.5392   18.2039 C   0  0  0  0  0  0  0  0  0  0  0  0
  -22.7856  -11.3053   21.2108 C   0  0  0  0  0  0  0  0  0  0  0  0
  -26.1881  -16.5621   20.4638 C   0  0  0  0  0  0  0  0  0  0  0  0
  -28.6768  -16.4894   19.9083 C   0  0  0  0  0  0  0  0  0  0  0  0
  -30.5413  -29.3553   21.1291 C   0  0  0  0  0  0  0  0  0  0  0  0
  -24.6141  -27.7091   18.6129 C   0  0  0  0  0  0  0  0  0  0  0  0
  -29.6089  -28.3926   20.6977 C   0  0  0  0  0  0  0  0  0  0  0  0
  -23.8816  -26.6070   19.0766 C   0  0  0  0  0  0  0  0  0  0  0  0
  -28.9934  -22.4952   17.4009 C   0  0  0  0  0  0  0  0  0  0  0  0
  -23.6286  -15.4676   20.6476 C   0  0  0  0  0  0  0  0  0  0  0  0
  -24.0739  -25.5728   16.8849 C   0  0  0  0  0  0  0  0  0  0  0  0
  -22.2602  -13.6626   21.2736 C   0  0  0  0  0  0  0  0  0  0  0  0
  -22.0186  -11.1038   22.3583 C   0  0  0  0  0  0  0  0  0  0  0  0
  -22.9064  -12.5847   20.6684 C   0  0  0  0  0  0  0  0  0  0  0  0
  -27.5097  -17.1281   20.3685 C   0  0  0  0  0  0  0  0  0  0  0  0
  -26.4799  -22.0984   16.4156 C   0  0  0  0  0  0  0  0  0  0  0  0
  -27.8934  -23.2116   17.8443 C   0  0  0  0  0  0  0  0  0  0  0  0
  -29.6565  -17.4461   20.0149 C   0  0  0  0  0  0  0  0  0  0  0  0
  -28.8590  -15.1510   19.4275 C   0  0  0  0  0  0  0  0  0  0  0  0
  -26.0489  -27.7481   21.4490 C   0  0  0  0  0  0  0  0  0  0  0  0
  -23.0044  -27.9426   22.5515 C   0  0  0  0  0  0  0  0  0  0  0  0
  -30.3021  -23.1850   19.3867 C   0  0  0  0  0  0  0  0  0  0  0  0
  -19.6855  -27.3576   22.0138 C   0  0  0  0  0  0  0  0  0  0  0  0
  -30.5665  -29.8533   22.5525 C   0  0  0  0  0  0  0  0  0  0  0  0
  -24.8860  -28.8786   19.5189 C   0  0  0  0  0  0  0  0  0  0  0  0
  -23.3708  -26.5328   20.4915 C   0  0  0  0  0  0  0  0  0  0  0  0
  -29.2759  -29.5740   23.3184 C   0  0  0  0  0  0  0  0  0  0  0  0
  -30.2049  -21.6117   22.6046 C   0  0  0  0  0  0  0  0  0  0  0  0
  -28.8260  -28.1331   23.0989 C   0  0  0  0  0  0  0  0  0  0  0  0
  -29.5841  -20.2452   22.3175 C   0  0  0  0  0  0  0  0  0  0  0  0
  -29.6103  -22.6943   21.7094 C   0  0  0  0  0  0  0  0  0  0  0  0
  -29.0826  -21.0271   19.9591 C   0  0  0  0  0  0  0  0  0  0  0  0
  -28.5284  -27.8676   21.6182 C   0  0  1  0  0  0  0  0  0  0  0  0
  -24.8360  -28.5122   20.9989 C   0  0  1  0  0  0  0  0  0  0  0  0
  -29.6773  -19.8992   20.8208 C   0  0  2  0  0  0  0  0  0  0  0  0
  -17.4412  -27.5886   23.1126 C   0  0  0  0  0  0  0  0  0  0  0  0
  -31.1052  -23.8248   17.1457 C   0  0  0  0  0  0  0  0  0  0  0  0
  -31.2981  -21.4858   17.9978 C   0  0  0  0  0  0  0  0  0  0  0  0
  -23.6207  -25.5281   24.3123 C   0  0  0  0  0  0  0  0  0  0  0  0
  -21.1572  -25.2286   24.6435 C   0  0  0  0  0  0  0  0  0  0  0  0
  -22.2745  -27.3164   25.4279 C   0  0  0  0  0  0  0  0  0  0  0  0
  -18.7021  -29.1674   19.8887 C   0  0  0  0  0  0  0  0  0  0  0  0
  -26.8814  -24.8620   19.2255 C   0  0  0  0  0  0  0  0  0  0  0  0
  -25.0811  -21.8996   15.8891 C   0  0  0  0  0  0  0  0  0  0  0  0
  -24.7428  -22.7866   14.6889 C   0  0  0  0  0  0  0  0  0  0  0  0
  -24.7621  -24.2756   15.0141 C   0  0  0  0  0  0  0  0  0  1  0  0
  -21.9455  -26.9428   22.9491 C   0  0  1  0  0  0  0  0  0  0  0  0
  -18.4645  -28.2410   22.1960 C   0  0  2  0  0  0  0  0  0  0  0  0
  -30.3580  -22.7267   17.9511 C   0  0  0  0  0  0  0  0  0  0  0  0
  -22.2606  -26.2542   24.3070 C   0  0  0  0  0  0  0  0  0  0  0  0
  -27.7262  -18.3927   20.7399 N   0  0  0  0  0  0  0  0  0  0  0  0
  -26.6374  -23.0372   17.3756 N   0  0  0  0  0  0  0  0  0  0  0  0
  -29.0407  -18.5563   20.5133 N   0  0  0  0  0  0  0  0  0  0  0  0
  -23.6676  -27.6983   21.3406 N   0  0  0  0  0  0  0  0  0  0  0  0
  -29.6978  -22.3181   20.2973 N   0  0  0  0  0  0  0  0  0  0  0  0
  -30.9760  -17.4375   19.7300 N   0  0  0  0  0  0  0  0  0  0  0  0
  -27.7467  -14.2995   19.3838 N   0  0  0  0  0  0  0  0  0  0  0  0
  -27.2410  -28.4195   21.2545 N   0  0  0  0  0  0  0  0  0  0  0  0
  -20.6759  -27.6611   22.9238 N   0  0  0  0  0  0  0  0  0  0  0  0
  -17.8159  -28.5060   20.8807 N   0  3  0  0  0  0  0  0  0  0  0  0
  -29.9785  -14.7178   19.0632 O   0  0  0  0  0  0  0  0  0  0  0  0
  -25.9133  -26.6327   21.9380 O   0  0  0  0  0  0  0  0  0  0  0  0
  -23.2298  -28.9087   23.2847 O   0  0  0  0  0  0  0  0  0  0  0  0
  -30.7843  -24.2799   19.6883 O   0  0  0  0  0  0  0  0  0  0  0  0
  -19.7524  -26.4830   21.1529 O   0  0  0  0  0  0  0  0  0  0  0  0
  -22.3799  -14.9335   20.7368 O   0  0  0  0  0  0  0  0  0  0  0  0
  -23.8135  -24.5308   16.0492 O   0  0  0  0  0  0  0  0  0  1  0  0
  -28.0517  -24.1643   18.8170 O   0  0  0  0  0  0  0  0  0  0  0  0
  -21.9038   -9.8755   22.8801 F   0  0  0  0  0  0  0  0  0  0  0  0
  -23.6456  -12.7723   19.5665 F   0  0  0  0  0  0  0  0  0  0  0  0
  1  2  1  0  0  0  0
  1  5  2  0  0  0  0
  2  6  2  0  0  0  0
  3  9  2  0  0  0  0
  3 17  1  0  0  0  0
  4 10  1  0  0  0  0
  4 17  2  0  0  0  0
  5 19  1  0  0  0  0
  6 21  1  0  0  0  0
  7 11  2  0  0  0  0
  7 20  1  0  0  0  0
  8 14  2  0  0  0  0
  8 23  1  0  0  0  0
  9 24  1  0  0  0  0
 10 24  2  0  0  0  0
 11 25  1  0  0  0  0
 12 13  2  0  0  0  0
 12 26  1  0  0  0  0
 13 27  1  0  0  0  0
 14 30  1  0  0  0  0
 15 22  1  0  0  0  0
 15 25  2  0  0  0  0
 16 27  2  0  0  0  0
 16 28  1  0  0  0  0
 17 29  1  0  0  0  0
 18 29  1  0  0  0  0
 18 32  2  0  0  0  0
 18 33  1  0  0  0  0
 19 21  2  0  0  0  0
 19 38  1  0  0  0  0
 20 22  2  0  0  0  0
 20 39  1  0  0  0  0
 21 47  1  0  0  0  0
 22 40  1  0  0  0  0
 23 31  2  0  0  0  0
 23 63  1  0  0  0  0
 24 80  1  0  0  0  0
 25 81  1  0  0  0  0
 26 28  2  0  0  0  0
 26 80  1  0  0  0  0
 27 83  1  0  0  0  0
 28 84  1  0  0  0  0
 29 65  2  0  0  0  0
 30 58  1  0  0  0  0
 30 66  2  0  0  0  0
 31 66  1  0  0  0  0
 31 82  1  0  0  0  0
 32 67  1  0  0  0  0
 32 70  1  0  0  0  0
 33 71  1  0  0  0  0
 33 75  2  0  0  0  0
 34 48  1  0  0  0  0
 34 72  1  0  0  0  0
 34 76  2  0  0  0  0
 35 61  1  0  0  0  0
 35 68  1  0  0  0  0
 35 77  2  0  0  0  0
 36 63  1  0  0  0  0
 36 69  1  0  0  0  0
 36 78  2  0  0  0  0
 37 62  1  0  0  0  0
 37 73  1  0  0  0  0
 37 79  2  0  0  0  0
 38 41  1  0  0  0  0
 39 48  1  0  0  0  0
 40 68  1  0  0  0  0
 41 43  1  0  0  0  0
 42 44  1  0  0  0  0
 42 45  1  0  0  0  0
 43 47  1  0  0  0  0
 44 49  1  0  0  0  0
 45 69  1  0  0  0  0
 46 49  1  0  0  0  0
 46 69  1  0  0  0  0
 47 72  1  0  0  0  0
 48 68  1  0  0  0  0
 49 67  1  0  0  0  0
 50 62  1  0  0  0  0
 51 63  1  0  0  0  0
 52 63  1  0  0  0  0
 53 64  1  0  0  0  0
 54 64  1  0  0  0  0
 55 64  1  0  0  0  0
 56 74  1  0  0  0  0
 57 82  1  0  0  0  0
 58 59  1  0  0  0  0
 59 60  1  0  0  0  0
 60 81  1  0  0  0  0
 61 64  1  0  0  0  0
 61 73  1  0  0  0  0
 62 74  1  0  0  0  0
 65 67  1  0  0  0  0
M  CHG  1  74   1
M  ISO  4  36 100  60 101  63 100  81 101
M  END
> <Batch ID>
0071

> <Smiles>
CNC(C)C(=O)NC(C(=O)N1Cc2cc([101O:1][101CH2:1]CCc3ccc([100C:0](C)(C)[100C:0](=O)N4CCCC(n5nc(-c6ccc(Oc7ccc(F)cc7F)cc6)c(C(N)=O)c5N)C4)c(OC)n3)ccc2CC1C(=O)NC1CCCc2ccccc21)C(C)(C)C

> <Shape>
0.232

> <Color>
0.055

> <Negative vol penalty>
0.000

$$$$

  -OEChem-04052318223D

 89 97  0     1  0  0  0  0  0999 V2000
  -19.0556  -24.0945   23.6684 C   0  0  0  0  0  0  0  0  0  0  0  0
  -20.4220  -24.1735   23.4193 C   0  0  0  0  0  0  0  0  0  0  0  0
  -21.6462  -12.4604   22.2986 C   0  0  0  0  0  0  0  0  0  0  0  0
  -24.0484  -12.3442   22.5282 C   0  0  0  0  0  0  0  0  0  0  0  0
  -18.2402  -25.2008   23.4336 C   0  0  0  0  0  0  0  0  0  0  0  0
  -20.9737  -25.3587   22.9342 C   0  0  0  0  0  0  0  0  0  0  0  0
  -25.2549  -26.6290   25.3224 C   0  0  0  0  0  0  0  0  0  0  0  0
  -21.6448  -11.2102   21.6800 C   0  0  0  0  0  0  0  0  0  0  0  0
  -24.0470  -11.0940   21.9096 C   0  0  0  0  0  0  0  0  0  0  0  0
  -26.4147  -25.9475   24.9559 C   0  0  0  0  0  0  0  0  0  0  0  0
  -20.9699   -7.8889   20.3654 C   0  0  0  0  0  0  0  0  0  0  0  0
  -20.0070   -6.9652   20.7719 C   0  0  0  0  0  0  0  0  0  0  0  0
  -27.0674  -27.8140   23.5741 C   0  0  0  0  0  0  0  0  0  0  0  0
  -20.8829   -7.0426   23.0223 C   0  0  0  0  0  0  0  0  0  0  0  0
  -27.9040  -22.0224   19.1664 C   0  0  0  0  0  0  0  0  0  0  0  0
  -22.8480  -13.0274   22.7226 C   0  0  0  0  0  0  0  0  0  0  0  0
  -22.7317  -14.5868   24.7382 C   0  0  0  0  0  0  0  0  0  0  0  0
  -18.7837  -26.4032   22.9545 C   0  0  0  0  0  0  0  0  0  0  0  0
  -24.9869  -27.9057   24.8081 C   0  0  0  0  0  0  0  0  0  0  0  0
  -20.1646  -26.4818   22.6915 C   0  0  0  0  0  0  0  0  0  0  0  0
  -25.9048  -28.5106   23.9377 C   0  0  0  0  0  0  0  0  0  0  0  0
  -22.8452  -10.5270   21.4855 C   0  0  0  0  0  0  0  0  0  0  0  0
  -27.3197  -26.5388   24.0794 C   0  0  0  0  0  0  0  0  0  0  0  0
  -21.8894   -8.3894   21.2872 C   0  0  0  0  0  0  0  0  0  0  0  0
  -19.9635   -6.5421   22.1004 C   0  0  0  0  0  0  0  0  0  0  0  0
  -21.8459   -7.9663   22.6157 C   0  0  0  0  0  0  0  0  0  0  0  0
  -22.8501  -14.3191   23.3612 C   0  0  0  0  0  0  0  0  0  0  0  0
  -28.3200  -20.7137   19.2743 C   0  0  0  0  0  0  0  0  0  0  0  0
  -30.4261  -21.4272   19.8082 C   0  0  0  0  0  0  0  0  0  0  0  0
  -30.0102  -22.7359   19.6996 C   0  0  0  0  0  0  0  0  0  0  0  0
  -22.7902  -15.9561   24.8279 C   0  0  0  0  0  0  0  0  0  0  0  0
  -22.5822  -13.6790   25.8378 C   0  0  0  0  0  0  0  0  0  0  0  0
  -22.6901  -29.1608   23.0045 C   0  0  0  0  0  0  0  0  0  0  0  0
  -24.2321  -31.9388   23.6581 C   0  0  0  0  0  0  0  0  0  0  0  0
  -25.1918  -20.1152   21.2159 C   0  0  0  0  0  0  0  0  0  0  0  0
  -27.1305  -33.5022   24.5536 C   0  0  0  0  0  0  0  0  0  0  0  0
  -17.8552  -27.5574   22.6710 C   0  0  0  0  0  0  0  0  0  0  0  0
  -23.7444  -28.6386   25.2342 C   0  0  0  0  0  0  0  0  0  0  0  0
  -25.6736  -29.8878   23.3734 C   0  0  0  0  0  0  0  0  0  0  0  0
  -18.5757  -28.8938   22.5118 C   0  0  0  0  0  0  0  0  0  0  0  0
  -21.8011  -19.9240   22.3589 C   0  0  0  0  0  0  0  0  0  0  0  0
  -19.7872  -28.7415   21.5975 C   0  0  0  0  0  0  0  0  0  0  0  0
  -21.6667  -18.4812   22.8443 C   0  0  0  0  0  0  0  0  0  0  0  0
  -22.7218  -20.0218   21.1466 C   0  0  0  0  0  0  0  0  0  0  0  0
  -23.9458  -17.9898   21.8498 C   0  0  0  0  0  0  0  0  0  0  0  0
  -20.8042  -27.7577   22.1885 C   0  0  1  0  0  0  0  0  0  0  0  0
  -23.3216  -29.7221   24.2469 C   0  0  1  0  0  0  0  0  0  0  0  0
  -23.0483  -17.8504   23.0922 C   0  0  2  0  0  0  0  0  0  0  0  0
  -31.8321  -21.0858   20.1666 C   0  0  0  0  0  0  0  0  0  0  0  0
  -27.7250  -18.8072   17.7427 C   0  0  0  0  0  0  0  0  0  0  0  0
  -28.0910  -35.7828   24.9701 C   0  0  0  0  0  0  0  0  0  0  0  0
  -24.3481  -32.4366   20.6500 C   0  0  0  0  0  0  0  0  0  0  0  0
  -26.0990  -34.1749   21.0755 C   0  0  0  0  0  0  0  0  0  0  0  0
  -23.8081  -34.4568   22.0216 C   0  0  0  0  0  0  0  0  0  0  0  0
  -28.3911  -17.9550   20.7272 C   0  0  0  0  0  0  0  0  0  0  0  0
  -26.0733  -17.5190   19.9221 C   0  0  0  0  0  0  0  0  0  0  0  0
  -27.7697  -32.8462   27.3679 C   0  0  0  0  0  0  0  0  0  0  0  0
  -30.9577  -23.8845   19.9382 C   0  0  0  0  0  0  0  0  0  0  0  0
  -30.2831  -25.1338   20.5155 C   0  0  0  0  0  0  0  0  0  0  0  0
  -29.6767  -24.9011   21.9001 C   0  0  0  0  0  0  0  0  0  0  0  0
  -28.9820  -26.1510   22.4234 C   0  0  0  0  0  0  0  0  0  1  0  0
  -27.3669  -19.5959   19.0334 C   0  0  1  0  0  0  0  0  0  0  0  0
  -25.3525  -32.7172   23.0118 C   0  0  1  0  0  0  0  0  0  0  0  0
  -27.4194  -34.5694   25.5939 C   0  0  2  0  0  0  0  0  0  0  0  0
  -26.4849  -19.4002   21.5169 C   0  0  0  0  0  0  0  0  0  0  0  0
  -24.9056  -33.4196   21.6987 C   0  0  0  0  0  0  0  0  0  0  0  0
  -27.0730  -18.6415   20.2871 C   0  0  0  0  0  0  0  0  0  0  0  0
  -28.7416  -23.0570   19.3771 N   0  0  0  0  0  0  0  0  0  0  0  0
  -22.9743  -15.4291   22.6288 N   0  0  0  0  0  0  0  0  0  0  0  0
  -29.5885  -20.3925   19.5971 N   0  0  0  0  0  0  0  0  0  0  0  0
  -22.9341  -16.4077   23.5491 N   0  0  0  0  0  0  0  0  0  0  0  0
  -24.4412  -30.5613   23.8151 N   0  0  0  0  0  0  0  0  0  0  0  0
  -24.0157  -19.3916   21.4146 N   0  0  0  0  0  0  0  0  0  0  0  0
  -22.7319  -16.8059   25.8753 N   0  0  0  0  0  0  0  0  0  0  0  0
  -22.5407  -12.3042   25.5683 N   0  0  0  0  0  0  0  0  0  0  0  0
  -21.5670  -28.3916   23.2424 N   0  0  0  0  0  0  0  0  0  0  0  0
  -25.8596  -33.6270   24.0334 N   0  0  0  0  0  0  0  0  0  0  0  0
  -28.3162  -34.0293   26.6547 N   0  3  0  0  0  0  0  0  0  0  0  0
  -22.4718  -14.0759   27.0226 O   0  0  0  0  0  0  0  0  0  0  0  0
  -23.1842  -29.4085   21.9108 O   0  0  0  0  0  0  0  0  0  0  0  0
  -23.2120  -32.5322   24.0170 O   0  0  0  0  0  0  0  0  0  0  0  0
  -25.2277  -21.2828   20.8189 O   0  0  0  0  0  0  0  0  0  0  0  0
  -27.9514  -32.6460   24.2319 O   0  0  0  0  0  0  0  0  0  0  0  0
  -22.8442   -9.3069   20.8822 O   0  0  0  0  0  0  0  0  0  0  0  0
  -28.4522  -25.8757   23.7195 O   0  0  0  0  0  0  0  0  0  1  0  0
  -19.0378   -5.6563   22.4910 F   0  0  0  0  0  0  0  0  0  0  0  0
  -22.7258   -8.4445   23.5061 F   0  0  0  0  0  0  0  0  0  0  0  0
  -27.4041  -20.3031   21.9648 F   0  0  0  0  0  0  0  0  0  0  0  0
  -26.3046  -18.5333   22.5504 F   0  0  0  0  0  0  0  0  0  0  0  0
  1  2  1  0  0  0  0
  1  5  2  0  0  0  0
  2  6  2  0  0  0  0
  3  8  2  0  0  0  0
  3 16  1  0  0  0  0
  4  9  1  0  0  0  0
  4 16  2  0  0  0  0
  5 18  1  0  0  0  0
  6 20  1  0  0  0  0
  7 10  2  0  0  0  0
  7 19  1  0  0  0  0
  8 22  1  0  0  0  0
  9 22  2  0  0  0  0
 10 23  1  0  0  0  0
 11 12  2  0  0  0  0
 11 24  1  0  0  0  0
 12 25  1  0  0  0  0
 13 21  1  0  0  0  0
 13 23  2  0  0  0  0
 14 25  2  0  0  0  0
 14 26  1  0  0  0  0
 15 28  1  0  0  0  0
 15 68  2  0  0  0  0
 16 27  1  0  0  0  0
 17 27  1  0  0  0  0
 17 31  2  0  0  0  0
 17 32  1  0  0  0  0
 18 20  2  0  0  0  0
 18 37  1  0  0  0  0
 19 21  2  0  0  0  0
 19 38  1  0  0  0  0
 20 46  1  0  0  0  0
 21 39  1  0  0  0  0
 22 84  1  0  0  0  0
 23 85  1  0  0  0  0
 24 26  2  0  0  0  0
 24 84  1  0  0  0  0
 25 86  1  0  0  0  0
 26 87  1  0  0  0  0
 27 69  2  0  0  0  0
 28 62  1  0  0  0  0
 28 70  2  0  0  0  0
 29 30  2  0  0  0  0
 29 49  1  0  0  0  0
 29 70  1  0  0  0  0
 30 58  1  0  0  0  0
 30 68  1  0  0  0  0
 31 71  1  0  0  0  0
 31 74  1  0  0  0  0
 32 75  1  0  0  0  0
 32 79  2  0  0  0  0
 33 47  1  0  0  0  0
 33 76  1  0  0  0  0
 33 80  2  0  0  0  0
 34 63  1  0  0  0  0
 34 72  1  0  0  0  0
 34 81  2  0  0  0  0
 35 65  1  0  0  0  0
 35 73  1  0  0  0  0
 35 82  2  0  0  0  0
 36 64  1  0  0  0  0
 36 77  1  0  0  0  0
 36 83  2  0  0  0  0
 37 40  1  0  0  0  0
 38 47  1  0  0  0  0
 39 72  1  0  0  0  0
 40 42  1  0  0  0  0
 41 43  1  0  0  0  0
 41 44  1  0  0  0  0
 42 46  1  0  0  0  0
 43 48  1  0  0  0  0
 44 73  1  0  0  0  0
 45 48  1  0  0  0  0
 45 73  1  0  0  0  0
 46 76  1  0  0  0  0
 47 72  1  0  0  0  0
 48 71  1  0  0  0  0
 50 62  1  0  0  0  0
 51 64  1  0  0  0  0
 52 66  1  0  0  0  0
 53 66  1  0  0  0  0
 54 66  1  0  0  0  0
 55 67  1  0  0  0  0
 56 67  1  0  0  0  0
 57 78  1  0  0  0  0
 58 59  1  0  0  0  0
 59 60  1  0  0  0  0
 60 61  1  0  0  0  0
 61 85  1  0  0  0  0
 62 67  1  0  0  0  0
 63 66  1  0  0  0  0
 63 77  1  0  0  0  0
 64 78  1  0  0  0  0
 65 67  1  0  0  0  0
 65 88  1  0  0  0  0
 65 89  1  0  0  0  0
 69 71  1  0  0  0  0
M  CHG  1  78   1
M  ISO  4  35 100  61 101  65 100  85 101
M  END
> <Batch ID>
0071

> <Smiles>
CNC(C)C(=O)NC(C(=O)N1Cc2cc([101O:1][101CH2:1]CCCc3ncc(C(C)C(C)(C)[100C:0](F)(F)[100C:0](=O)N4CCCC(n5nc(-c6ccc(Oc7ccc(F)cc7F)cc6)c(C(N)=O)c5N)C4)nc3C)ccc2CC1C(=O)NC1CCCc2ccccc21)C(C)(C)C

> <Shape>
0.224

> <Color>
0.083

> <Negative vol penalty>
0.000

$$$$

  -OEChem-04052318223D

 88 96  0     1  0  0  0  0  0999 V2000
  -22.6072  -31.4232   24.1335 C   0  0  0  0  0  0  0  0  0  0  0  0
  -22.1740  -30.1152   23.9414 C   0  0  0  0  0  0  0  0  0  0  0  0
  -28.6508  -14.0410   20.8682 C   0  0  0  0  0  0  0  0  0  0  0  0
  -28.0312  -13.9599   18.5344 C   0  0  0  0  0  0  0  0  0  0  0  0
  -23.5090  -31.9963   23.2379 C   0  0  0  0  0  0  0  0  0  0  0  0
  -22.6416  -29.3799   22.8528 C   0  0  0  0  0  0  0  0  0  0  0  0
  -23.7631  -23.3616   22.6841 C   0  0  0  0  0  0  0  0  0  0  0  0
  -29.6875  -13.1402   20.6243 C   0  0  0  0  0  0  0  0  0  0  0  0
  -29.0679  -13.0591   18.2905 C   0  0  0  0  0  0  0  0  0  0  0  0
  -23.0177  -22.2814   22.2136 C   0  0  0  0  0  0  0  0  0  0  0  0
  -32.7221  -11.1401   20.5467 C   0  0  0  0  0  0  0  0  0  0  0  0
  -33.9672  -11.4158   21.1116 C   0  0  0  0  0  0  0  0  0  0  0  0
  -24.2108  -22.3781   20.1192 C   0  0  0  0  0  0  0  0  0  0  0  0
  -34.0567  -13.5020   19.8963 C   0  0  0  0  0  0  0  0  0  0  0  0
  -19.1978  -17.5631   17.0157 C   0  0  0  0  0  0  0  0  0  0  0  0
  -27.8226  -14.4508   19.8233 C   0  0  0  0  0  0  0  0  0  0  0  0
  -26.8123  -16.7858   20.0095 C   0  0  0  0  0  0  0  0  0  0  0  0
  -23.9953  -31.2644   22.1431 C   0  0  0  0  0  0  0  0  0  0  0  0
  -24.7320  -23.9661   21.8703 C   0  0  0  0  0  0  0  0  0  0  0  0
  -23.5497  -29.9442   21.9409 C   0  0  0  0  0  0  0  0  0  0  0  0
  -24.9689  -23.4642   20.5827 C   0  0  0  0  0  0  0  0  0  0  0  0
  -29.8960  -12.6493   19.3354 C   0  0  0  0  0  0  0  0  0  0  0  0
  -23.2395  -21.7913   20.9299 C   0  0  0  0  0  0  0  0  0  0  0  0
  -32.1442  -12.0453   19.6564 C   0  0  0  0  0  0  0  0  0  0  0  0
  -34.6345  -12.5968   20.7865 C   0  0  0  0  0  0  0  0  0  0  0  0
  -32.8115  -13.2262   19.3313 C   0  0  0  0  0  0  0  0  0  0  0  0
  -26.7513  -15.3809   20.0747 C   0  0  0  0  0  0  0  0  0  0  0  0
  -19.8267  -18.7761   17.0287 C   0  0  0  0  0  0  0  0  0  0  0  0
  -25.5429  -17.1999   20.3313 C   0  0  0  0  0  0  0  0  0  0  0  0
  -21.2262  -17.2901   16.1721 C   0  0  0  0  0  0  0  0  0  0  0  0
  -27.9176  -17.6401   19.6869 C   0  0  0  0  0  0  0  0  0  0  0  0
  -25.1344  -26.8697   20.6411 C   0  0  0  0  0  0  0  0  0  0  0  0
  -27.9796  -25.6436   19.6801 C   0  0  0  0  0  0  0  0  0  0  0  0
  -29.8303  -22.8841   18.9011 C   0  0  0  0  0  0  0  0  0  0  0  0
  -20.1747  -14.5780   19.9323 C   0  0  0  0  0  0  0  0  0  0  0  0
  -24.9325  -31.9424   21.1753 C   0  0  0  0  0  0  0  0  0  0  0  0
  -25.5462  -25.1135   22.4024 C   0  0  0  0  0  0  0  0  0  0  0  0
  -26.0116  -24.0649   19.6768 C   0  0  0  0  0  0  0  0  0  0  0  0
  -25.6685  -30.9697   20.2575 C   0  0  0  0  0  0  0  0  0  0  0  0
  -21.7058  -15.8852   22.8689 C   0  0  0  0  0  0  0  0  0  0  0  0
  -24.6983  -29.9458   19.6767 C   0  0  0  0  0  0  0  0  0  0  0  0
  -23.1780  -16.0310   22.4799 C   0  0  0  0  0  0  0  0  0  0  0  0
  -21.0757  -14.6451   22.2389 C   0  0  0  0  0  0  0  0  0  0  0  0
  -22.7000  -14.6947   20.3860 C   0  0  0  0  0  0  0  0  0  0  0  0
  -24.0532  -29.1060   20.7859 C   0  0  1  0  0  0  0  0  0  0  0  0
  -26.1493  -25.9796   21.3008 C   0  0  1  0  0  0  0  0  0  0  0  0
  -23.3639  -15.9615   20.9522 C   0  0  2  0  0  0  0  0  0  0  0  0
  -32.1127  -22.2012   18.1126 C   0  0  0  0  0  0  0  0  0  0  0  0
  -19.4030  -21.1335   16.2989 C   0  0  0  0  0  0  0  0  0  0  0  0
  -17.8945  -20.1820   18.0197 C   0  0  0  0  0  0  0  0  0  0  0  0
  -22.1390  -16.0497   14.1786 C   0  0  0  0  0  0  0  0  0  0  0  0
  -23.0301  -15.5589   16.4811 C   0  0  0  0  0  0  0  0  0  0  0  0
  -23.6357  -17.6731   15.3216 C   0  0  0  0  0  0  0  0  0  0  0  0
  -27.2668  -26.5366   16.8509 C   0  0  0  0  0  0  0  0  0  0  0  0
  -29.0705  -25.0261   15.9945 C   0  0  0  0  0  0  0  0  0  0  0  0
  -29.6499  -26.9293   17.4995 C   0  0  0  0  0  0  0  0  0  0  0  0
  -30.3381  -21.3173   21.3600 C   0  0  0  0  0  0  0  0  0  0  0  0
  -20.3271  -19.9103   19.9170 C   0  0  0  0  0  0  0  0  0  0  0  0
  -20.2887  -20.7281   18.6203 C   0  0  0  0  0  0  0  0  0  0  0  0
  -19.8247  -15.2506   16.2814 C   0  0  0  0  0  0  0  0  0  0  0  0
  -19.4247  -14.5314   17.5671 C   0  0  0  0  0  0  0  0  0  0  0  0
  -21.1873  -20.5904   20.9753 C   0  0  0  0  0  0  0  0  0  1  0  0
  -28.4681  -24.9089   18.4551 C   0  0  1  0  0  0  0  0  0  0  0  0
  -31.2247  -22.4550   19.3208 C   0  0  2  0  0  0  0  0  0  0  0  0
  -19.3541  -20.1617   17.5049 C   0  0  0  0  0  0  0  0  0  0  0  0
  -22.4428  -16.6871   15.5729 C   0  0  0  0  0  0  0  0  0  0  0  0
  -28.5928  -25.8399   17.2161 C   0  0  0  0  0  0  0  0  0  0  0  0
  -25.5390  -14.9325   20.4116 N   0  0  0  0  0  0  0  0  0  0  0  0
  -20.0866  -16.6624   16.4801 N   0  0  0  0  0  0  0  0  0  0  0  0
  -24.8267  -16.0622   20.5611 N   0  0  0  0  0  0  0  0  0  0  0  0
  -21.0799  -18.5775   16.5015 N   0  3  0  0  0  0  0  0  0  0  0  0
  -26.7774  -25.1890   20.2403 N   0  0  0  0  0  0  0  0  0  0  0  0
  -21.2860  -14.6408   20.7891 N   0  0  0  0  0  0  0  0  0  0  0  0
  -24.9807  -18.4227   20.4374 N   0  0  0  0  0  0  0  0  0  0  0  0
  -29.1513  -17.0496   19.3806 N   0  0  0  0  0  0  0  0  0  0  0  0
  -24.9767  -28.0964   21.2574 N   0  0  0  0  0  0  0  0  0  0  0  0
  -29.7150  -24.2568   18.8404 N   0  0  0  0  0  0  0  0  0  0  0  0
  -20.4621  -14.5850   18.5729 N   0  0  0  0  0  0  0  0  0  0  0  0
  -31.1606  -21.2040   20.1281 N   0  3  0  0  0  0  0  0  0  0  0  0
  -27.8186  -18.8906   19.6866 O   0  0  0  0  0  0  0  0  0  0  0  0
  -24.5395  -26.4735   19.6457 O   0  0  0  0  0  0  0  0  0  0  0  0
  -28.6440  -26.5815   20.1278 O   0  0  0  0  0  0  0  0  0  0  0  0
  -28.9343  -22.0817   18.6485 O   0  0  0  0  0  0  0  0  0  0  0  0
  -19.0122  -14.5254   20.3480 O   0  0  0  0  0  0  0  0  0  0  0  0
  -30.9077  -11.7704   19.0970 O   0  0  0  0  0  0  0  0  0  0  0  0
  -22.5129  -20.7375   20.4680 O   0  0  0  0  0  0  0  0  0  1  0  0
  -35.8295  -12.8622   21.3303 F   0  0  0  0  0  0  0  0  0  0  0  0
  -32.2609  -14.1002   18.4776 F   0  0  0  0  0  0  0  0  0  0  0  0
  1  2  1  0  0  0  0
  1  5  2  0  0  0  0
  2  6  2  0  0  0  0
  3  8  2  0  0  0  0
  3 16  1  0  0  0  0
  4  9  1  0  0  0  0
  4 16  2  0  0  0  0
  5 18  1  0  0  0  0
  6 20  1  0  0  0  0
  7 10  2  0  0  0  0
  7 19  1  0  0  0  0
  8 22  1  0  0  0  0
  9 22  2  0  0  0  0
 10 23  1  0  0  0  0
 11 12  2  0  0  0  0
 11 24  1  0  0  0  0
 12 25  1  0  0  0  0
 13 21  1  0  0  0  0
 13 23  2  0  0  0  0
 14 25  2  0  0  0  0
 14 26  1  0  0  0  0
 15 28  2  0  0  0  0
 15 69  1  0  0  0  0
 16 27  1  0  0  0  0
 17 27  1  0  0  0  0
 17 29  2  0  0  0  0
 17 31  1  0  0  0  0
 18 20  2  0  0  0  0
 18 36  1  0  0  0  0
 19 21  2  0  0  0  0
 19 37  1  0  0  0  0
 20 45  1  0  0  0  0
 21 38  1  0  0  0  0
 22 85  1  0  0  0  0
 23 86  1  0  0  0  0
 24 26  2  0  0  0  0
 24 85  1  0  0  0  0
 25 87  1  0  0  0  0
 26 88  1  0  0  0  0
 27 68  2  0  0  0  0
 28 65  1  0  0  0  0
 28 71  1  0  0  0  0
 29 70  1  0  0  0  0
 29 74  1  0  0  0  0
 30 66  1  0  0  0  0
 30 69  1  0  0  0  0
 30 71  2  0  0  0  0
 31 75  1  0  0  0  0
 31 80  2  0  0  0  0
 32 46  1  0  0  0  0
 32 76  1  0  0  0  0
 32 81  2  0  0  0  0
 33 63  1  0  0  0  0
 33 72  1  0  0  0  0
 33 82  2  0  0  0  0
 34 64  1  0  0  0  0
 34 77  1  0  0  0  0
 34 83  2  0  0  0  0
 35 73  1  0  0  0  0
 35 78  1  0  0  0  0
 35 84  2  0  0  0  0
 36 39  1  0  0  0  0
 37 46  1  0  0  0  0
 38 72  1  0  0  0  0
 39 41  1  0  0  0  0
 40 42  1  0  0  0  0
 40 43  1  0  0  0  0
 41 45  1  0  0  0  0
 42 47  1  0  0  0  0
 43 73  1  0  0  0  0
 44 47  1  0  0  0  0
 44 73  1  0  0  0  0
 45 76  1  0  0  0  0
 46 72  1  0  0  0  0
 47 70  1  0  0  0  0
 48 64  1  0  0  0  0
 49 65  1  0  0  0  0
 50 65  1  0  0  0  0
 51 66  1  0  0  0  0
 52 66  1  0  0  0  0
 53 66  1  0  0  0  0
 54 67  1  0  0  0  0
 55 67  1  0  0  0  0
 56 67  1  0  0  0  0
 57 79  1  0  0  0  0
 58 59  1  0  0  0  0
 58 62  1  0  0  0  0
 59 65  1  0  0  0  0
 60 61  1  0  0  0  0
 60 69  1  0  0  0  0
 61 78  1  0  0  0  0
 62 86  1  0  0  0  0
 63 67  1  0  0  0  0
 63 77  1  0  0  0  0
 64 79  1  0  0  0  0
 68 70  1  0  0  0  0
M  CHG  2  71   1  79   1
M  ISO  4  35 100  62 101  78 100  86 101
M  END
> <Batch ID>
0071

> <Smiles>
CNC(C)C(=O)NC(C(=O)N1Cc2cc([101O:1][101CH2:1]CCC(C)(C)c3cn(CC[100NH:0][100C:0](=O)N4CCCC(n5nc(-c6ccc(Oc7ccc(F)cc7F)cc6)c(C(N)=O)c5N)C4)c(C(C)(C)C)n3)ccc2CC1C(=O)NC1CCCc2ccccc21)C(C)(C)C

> <Shape>
0.180

> <Color>
0.066

> <Negative vol penalty>
0.000

$$$$

  -OEChem-04052318223D

 87 95  0     1  0  0  0  0  0999 V2000
  -24.3588  -23.2946   17.4716 C   0  0  0  0  0  0  0  0  0  0  0  0
  -24.7622  -21.9767   17.2889 C   0  0  0  0  0  0  0  0  0  0  0  0
  -26.2690  -28.0449   18.8988 C   0  0  0  0  0  0  0  0  0  0  0  0
  -26.4700  -27.7316   21.2860 C   0  0  0  0  0  0  0  0  0  0  0  0
  -23.7004  -23.6619   18.6433 C   0  0  0  0  0  0  0  0  0  0  0  0
  -24.4967  -21.0232   18.2724 C   0  0  0  0  0  0  0  0  0  0  0  0
  -25.5427  -16.3404   17.1857 C   0  0  0  0  0  0  0  0  0  0  0  0
  -25.1405  -28.8401   19.0982 C   0  0  0  0  0  0  0  0  0  0  0  0
  -25.3414  -28.5268   21.4853 C   0  0  0  0  0  0  0  0  0  0  0  0
  -26.8487  -15.8599   17.1012 C   0  0  0  0  0  0  0  0  0  0  0  0
  -21.9845  -28.1864   21.2707 C   0  0  0  0  0  0  0  0  0  0  0  0
  -21.0239  -27.7332   22.1748 C   0  0  0  0  0  0  0  0  0  0  0  0
  -26.5968  -14.8132   19.2600 C   0  0  0  0  0  0  0  0  0  0  0  0
  -21.3394  -29.7233   23.5078 C   0  0  0  0  0  0  0  0  0  0  0  0
  -31.3504  -16.3193   21.8850 C   0  0  0  0  0  0  0  0  0  0  0  0
  -26.9338  -27.4907   19.9928 C   0  0  0  0  0  0  0  0  0  0  0  0
  -29.4401  -27.0940   19.7306 C   0  0  0  0  0  0  0  0  0  0  0  0
  -23.4382  -22.7144   19.6465 C   0  0  0  0  0  0  0  0  0  0  0  0
  -24.7563  -16.0697   18.3147 C   0  0  0  0  0  0  0  0  0  0  0  0
  -23.8121  -21.3692   19.4515 C   0  0  0  0  0  0  0  0  0  0  0  0
  -25.2802  -15.2893   19.3552 C   0  0  0  0  0  0  0  0  0  0  0  0
  -24.6767  -29.0810   20.3914 C   0  0  0  0  0  0  0  0  0  0  0  0
  -27.3770  -15.0986   18.1397 C   0  0  0  0  0  0  0  0  0  0  0  0
  -22.6227  -29.4081   21.4852 C   0  0  0  0  0  0  0  0  0  0  0  0
  -20.7013  -28.5016   23.2933 C   0  0  0  0  0  0  0  0  0  0  0  0
  -22.3001  -30.1765   22.6037 C   0  0  0  0  0  0  0  0  0  0  0  0
  -28.0993  -26.6688   19.7875 C   0  0  0  0  0  0  0  0  0  0  0  0
  -30.4414  -16.9029   21.0261 C   0  0  0  0  0  0  0  0  0  0  0  0
  -32.1466  -15.3363   21.3337 C   0  0  0  0  0  0  0  0  0  0  0  0
  -30.1571  -25.9417   19.5198 C   0  0  0  0  0  0  0  0  0  0  0  0
  -31.1447  -15.5898   19.3091 C   0  0  0  0  0  0  0  0  0  0  0  0
  -29.9884  -28.4127   19.8571 C   0  0  0  0  0  0  0  0  0  0  0  0
  -23.3650  -17.8420   20.5568 C   0  0  0  0  0  0  0  0  0  0  0  0
  -22.1139  -14.9952   21.4803 C   0  0  0  0  0  0  0  0  0  0  0  0
  -22.3709  -11.5924   21.5154 C   0  0  0  0  0  0  0  0  0  0  0  0
  -29.0150  -20.3016   20.8391 C   0  0  0  0  0  0  0  0  0  0  0  0
  -22.7153  -23.1648   20.8915 C   0  0  0  0  0  0  0  0  0  0  0  0
  -23.3402  -16.5728   18.3786 C   0  0  0  0  0  0  0  0  0  0  0  0
  -24.4703  -14.9534   20.5798 C   0  0  0  0  0  0  0  0  0  0  0  0
  -22.8738  -22.1923   22.0557 C   0  0  0  0  0  0  0  0  0  0  0  0
  -29.7704  -21.5986   17.5460 C   0  0  0  0  0  0  0  0  0  0  0  0
  -22.5651  -20.7755   21.5951 C   0  0  0  0  0  0  0  0  0  0  0  0
  -29.5512  -23.0985   17.7522 C   0  0  0  0  0  0  0  0  0  0  0  0
  -28.7506  -20.7779   18.3299 C   0  0  0  0  0  0  0  0  0  0  0  0
  -28.4926  -22.5736   19.9980 C   0  0  0  0  0  0  0  0  0  0  0  0
  -23.5613  -20.3213   20.5207 C   0  0  1  0  0  0  0  0  0  0  0  0
  -22.8041  -16.6691   19.8036 C   0  0  1  0  0  0  0  0  0  0  0  0
  -29.5064  -23.4576   19.2493 C   0  0  2  0  0  0  0  0  0  0  0  0
  -28.2194  -17.4284   22.0975 C   0  0  0  0  0  0  0  0  0  0  0  0
  -21.2175   -9.5386   22.3807 C   0  0  0  0  0  0  0  0  0  0  0  0
  -32.4885  -13.9247   23.3919 C   0  0  0  0  0  0  0  0  0  0  0  0
  -34.1960  -15.6636   22.7618 C   0  0  0  0  0  0  0  0  0  0  0  0
  -34.0111  -13.5523   21.4620 C   0  0  0  0  0  0  0  0  0  0  0  0
  -31.3968  -13.6922   17.5728 C   0  0  0  0  0  0  0  0  0  0  0  0
  -32.0015  -16.0308   16.9872 C   0  0  0  0  0  0  0  0  0  0  0  0
  -23.1935  -15.5697   24.2758 C   0  0  0  0  0  0  0  0  0  0  0  0
  -22.8666  -13.1488   24.8238 C   0  0  0  0  0  0  0  0  0  0  0  0
  -20.9029  -14.5670   24.2278 C   0  0  0  0  0  0  0  0  0  0  0  0
  -21.9298  -10.5471   18.7819 C   0  0  0  0  0  0  0  0  0  0  0  0
  -29.5863  -15.4097   17.3163 C   0  0  0  0  0  0  0  0  0  1  0  0
  -29.5371  -17.9767   21.5314 C   0  0  2  0  0  0  0  0  0  0  0  0
  -22.5403  -13.8953   22.4223 C   0  0  1  0  0  0  0  0  0  0  0  0
  -21.3583  -10.5026   21.2130 C   0  0  2  0  0  0  0  0  0  0  0  0
  -33.1610  -14.6488   22.1849 C   0  0  0  0  0  0  0  0  0  0  0  0
  -31.0299  -15.1735   17.8306 C   0  0  0  0  0  0  0  0  0  0  0  0
  -22.3920  -14.3030   23.9153 C   0  0  0  0  0  0  0  0  0  0  0  0
  -27.9695  -25.3493   19.6257 N   0  0  0  0  0  0  0  0  0  0  0  0
  -30.3112  -16.5612   19.7274 N   0  0  0  0  0  0  0  0  0  0  0  0
  -32.0702  -14.9449   20.0447 N   0  0  0  0  0  0  0  0  0  0  0  0
  -29.2380  -24.9355   19.4651 N   0  0  0  0  0  0  0  0  0  0  0  0
  -23.0932  -15.4736   20.5982 N   0  0  0  0  0  0  0  0  0  0  0  0
  -28.7717  -21.1552   19.7503 N   0  0  0  0  0  0  0  0  0  0  0  0
  -31.4778  -25.7010   19.3778 N   0  0  0  0  0  0  0  0  0  0  0  0
  -29.1101  -29.4838   20.0708 N   0  0  0  0  0  0  0  0  0  0  0  0
  -23.1136  -19.0642   19.9631 N   0  0  0  0  0  0  0  0  0  0  0  0
  -21.7705  -12.7145   22.0460 N   0  0  0  0  0  0  0  0  0  0  0  0
  -29.2638  -18.9725   20.5192 N   0  0  0  0  0  0  0  0  0  0  0  0
  -21.7756   -9.7269   20.0109 N   0  3  0  0  0  0  0  0  0  0  0  0
  -31.2192  -28.6368   19.7663 O   0  0  0  0  0  0  0  0  0  0  0  0
  -23.9792  -17.6523   21.6001 O   0  0  0  0  0  0  0  0  0  0  0  0
  -20.9528  -15.4097   21.5207 O   0  0  0  0  0  0  0  0  0  0  0  0
  -23.5746  -11.4600   21.3056 O   0  0  0  0  0  0  0  0  0  0  0  0
  -29.0158  -20.6959   22.0103 O   0  0  0  0  0  0  0  0  0  0  0  0
  -23.5756  -29.8571   20.5863 O   0  0  0  0  0  0  0  0  0  0  0  0
  -28.6517  -14.6289   18.0601 O   0  0  0  0  0  0  0  0  0  1  0  0
  -19.7777  -28.0670   24.1605 F   0  0  0  0  0  0  0  0  0  0  0  0
  -22.9090  -31.3516   22.8144 F   0  0  0  0  0  0  0  0  0  0  0  0
  1  2  1  0  0  0  0
  1  5  2  0  0  0  0
  2  6  2  0  0  0  0
  3  8  2  0  0  0  0
  3 16  1  0  0  0  0
  4  9  1  0  0  0  0
  4 16  2  0  0  0  0
  5 18  1  0  0  0  0
  6 20  1  0  0  0  0
  7 10  2  0  0  0  0
  7 19  1  0  0  0  0
  8 22  1  0  0  0  0
  9 22  2  0  0  0  0
 10 23  1  0  0  0  0
 11 12  2  0  0  0  0
 11 24  1  0  0  0  0
 12 25  1  0  0  0  0
 13 21  1  0  0  0  0
 13 23  2  0  0  0  0
 14 25  2  0  0  0  0
 14 26  1  0  0  0  0
 15 28  1  0  0  0  0
 15 29  2  0  0  0  0
 16 27  1  0  0  0  0
 17 27  1  0  0  0  0
 17 30  2  0  0  0  0
 17 32  1  0  0  0  0
 18 20  2  0  0  0  0
 18 37  1  0  0  0  0
 19 21  2  0  0  0  0
 19 38  1  0  0  0  0
 20 46  1  0  0  0  0
 21 39  1  0  0  0  0
 22 84  1  0  0  0  0
 23 85  1  0  0  0  0
 24 26  2  0  0  0  0
 24 84  1  0  0  0  0
 25 86  1  0  0  0  0
 26 87  1  0  0  0  0
 27 67  2  0  0  0  0
 28 61  1  0  0  0  0
 28 68  2  0  0  0  0
 29 64  1  0  0  0  0
 29 69  1  0  0  0  0
 30 70  1  0  0  0  0
 30 73  1  0  0  0  0
 31 65  1  0  0  0  0
 31 68  1  0  0  0  0
 31 69  2  0  0  0  0
 32 74  1  0  0  0  0
 32 79  2  0  0  0  0
 33 47  1  0  0  0  0
 33 75  1  0  0  0  0
 33 80  2  0  0  0  0
 34 62  1  0  0  0  0
 34 71  1  0  0  0  0
 34 81  2  0  0  0  0
 35 63  1  0  0  0  0
 35 76  1  0  0  0  0
 35 82  2  0  0  0  0
 36 72  1  0  0  0  0
 36 77  1  0  0  0  0
 36 83  2  0  0  0  0
 37 40  1  0  0  0  0
 38 47  1  0  0  0  0
 39 71  1  0  0  0  0
 40 42  1  0  0  0  0
 41 43  1  0  0  0  0
 41 44  1  0  0  0  0
 42 46  1  0  0  0  0
 43 48  1  0  0  0  0
 44 72  1  0  0  0  0
 45 48  1  0  0  0  0
 45 72  1  0  0  0  0
 46 75  1  0  0  0  0
 47 71  1  0  0  0  0
 48 70  1  0  0  0  0
 49 61  1  0  0  0  0
 50 63  1  0  0  0  0
 51 64  1  0  0  0  0
 52 64  1  0  0  0  0
 53 64  1  0  0  0  0
 54 65  1  0  0  0  0
 55 65  1  0  0  0  0
 56 66  1  0  0  0  0
 57 66  1  0  0  0  0
 58 66  1  0  0  0  0
 59 78  1  0  0  0  0
 60 65  1  0  0  0  0
 60 85  1  0  0  0  0
 61 77  1  0  0  0  0
 62 66  1  0  0  0  0
 62 76  1  0  0  0  0
 63 78  1  0  0  0  0
 67 70  1  0  0  0  0
M  CHG  1  78   1
M  ISO  4  36 100  60 101  77 100  85 101
M  END
> <Batch ID>
0071

> <Smiles>
CNC(C)C(=O)NC(C(=O)N1Cc2cc([101O:1][101CH2:1]C(C)(C)c3nc(C(C)[100NH:0][100C:0](=O)N4CCCC(n5nc(-c6ccc(Oc7ccc(F)cc7F)cc6)c(C(N)=O)c5N)C4)cc(C(C)(C)C)n3)ccc2CC1C(=O)NC1CCCc2ccccc21)C(C)(C)C

> <Shape>
0.246

> <Color>
0.067

> <Negative vol penalty>
0.000

$$$$

  -OEChem-04052318223D

 85 93  0     1  0  0  0  0  0999 V2000
  -30.2256  -12.5471   20.3999 C   0  0  0  0  0  0  0  0  0  0  0  0
  -30.0102  -13.9169   20.5129 C   0  0  0  0  0  0  0  0  0  0  0  0
  -30.2533  -24.1417   19.9948 C   0  0  0  0  0  0  0  0  0  0  0  0
  -28.1456  -23.8527   18.8496 C   0  0  0  0  0  0  0  0  0  0  0  0
  -29.2689  -11.7406   19.7849 C   0  0  0  0  0  0  0  0  0  0  0  0
  -28.8384  -14.4811   20.0100 C   0  0  0  0  0  0  0  0  0  0  0  0
  -25.7354  -19.2164   22.3454 C   0  0  0  0  0  0  0  0  0  0  0  0
  -30.4063  -22.7570   20.0626 C   0  0  0  0  0  0  0  0  0  0  0  0
  -28.2987  -22.4679   18.9175 C   0  0  0  0  0  0  0  0  0  0  0  0
  -25.7097  -20.5723   22.0218 C   0  0  0  0  0  0  0  0  0  0  0  0
  -30.0285  -20.0715   17.2788 C   0  0  0  0  0  0  0  0  0  0  0  0
  -29.7543  -19.3335   16.1274 C   0  0  0  0  0  0  0  0  0  0  0  0
  -23.7578  -20.2024   20.6534 C   0  0  0  0  0  0  0  0  0  0  0  0
  -28.0333  -18.1220   17.3138 C   0  0  0  0  0  0  0  0  0  0  0  0
  -23.5156  -27.1405   17.7247 C   0  0  0  0  0  0  0  0  0  0  0  0
  -29.1229  -24.6896   19.3883 C   0  0  0  0  0  0  0  0  0  0  0  0
  -29.4048  -26.9750   18.2906 C   0  0  0  0  0  0  0  0  0  0  0  0
  -28.0804  -12.2938   19.2828 C   0  0  0  0  0  0  0  0  0  0  0  0
  -24.7774  -18.3399   21.8159 C   0  0  0  0  0  0  0  0  0  0  0  0
  -27.8655  -13.6815   19.3865 C   0  0  0  0  0  0  0  0  0  0  0  0
  -23.7720  -18.8363   20.9739 C   0  0  0  0  0  0  0  0  0  0  0  0
  -29.4291  -21.9200   19.5240 C   0  0  0  0  0  0  0  0  0  0  0  0
  -24.7225  -21.0650   21.1733 C   0  0  0  0  0  0  0  0  0  0  0  0
  -29.3053  -19.8347   18.4478 C   0  0  0  0  0  0  0  0  0  0  0  0
  -28.7567  -18.3588   16.1449 C   0  0  0  0  0  0  0  0  0  0  0  0
  -28.3076  -18.8600   18.4653 C   0  0  0  0  0  0  0  0  0  0  0  0
  -28.9639  -26.1199   19.3184 C   0  0  0  0  0  0  0  0  0  0  0  0
  -22.8352  -26.4006   18.6501 C   0  0  0  0  0  0  0  0  0  0  0  0
  -29.0127  -28.2279   18.6945 C   0  0  0  0  0  0  0  0  0  0  0  0
  -22.4636  -28.5403   19.0791 C   0  0  0  0  0  0  0  0  0  0  0  0
  -30.1061  -26.6646   17.0792 C   0  0  0  0  0  0  0  0  0  0  0  0
  -24.8756  -15.7836   19.9294 C   0  0  0  0  0  0  0  0  0  0  0  0
  -21.7098  -15.6347   20.6205 C   0  0  0  0  0  0  0  0  0  0  0  0
  -18.8794  -17.2674   21.6055 C   0  0  0  0  0  0  0  0  0  0  0  0
  -24.6576  -30.1670   22.3173 C   0  0  0  0  0  0  0  0  0  0  0  0
  -27.0969  -11.3889   18.5840 C   0  0  0  0  0  0  0  0  0  0  0  0
  -24.8030  -16.8849   22.1961 C   0  0  0  0  0  0  0  0  0  0  0  0
  -22.7084  -17.9406   20.3952 C   0  0  0  0  0  0  0  0  0  0  0  0
  -25.7133  -12.0103   18.4119 C   0  0  0  0  0  0  0  0  0  0  0  0
  -28.1481  -30.7901   22.6414 C   0  0  0  0  0  0  0  0  0  0  0  0
  -25.8308  -13.4380   17.8877 C   0  0  0  0  0  0  0  0  0  0  0  0
  -28.7928  -29.7410   21.7338 C   0  0  0  0  0  0  0  0  0  0  0  0
  -26.9095  -30.2417   23.3467 C   0  0  0  0  0  0  0  0  0  0  0  0
  -26.5419  -28.6026   21.5434 C   0  0  0  0  0  0  0  0  0  0  0  0
  -26.5958  -14.3271   18.8756 C   0  0  1  0  0  0  0  0  0  0  0  0
  -24.0843  -15.9916   21.1896 C   0  0  1  0  0  0  0  0  0  0  0  0
  -27.7625  -29.1263   20.7674 C   0  0  2  0  0  0  0  0  0  0  0  0
  -19.9724  -26.4778   20.1710 C   0  0  0  0  0  0  0  0  0  0  0  0
  -16.4376  -16.8883   22.0425 C   0  0  0  0  0  0  0  0  0  0  0  0
  -20.4098  -29.9768   19.7234 C   0  0  0  0  0  0  0  0  0  0  0  0
  -22.4938  -31.0434   18.9016 C   0  0  0  0  0  0  0  0  0  0  0  0
  -21.1846  -15.5696   17.6155 C   0  0  0  0  0  0  0  0  0  0  0  0
  -18.7952  -16.1467   18.0911 C   0  0  0  0  0  0  0  0  0  0  0  0
  -19.7578  -14.0148   18.9579 C   0  0  0  0  0  0  0  0  0  0  0  0
  -19.1446  -18.0656   24.4430 C   0  0  0  0  0  0  0  0  0  0  0  0
  -22.7364  -24.9063   18.8261 C   0  0  0  0  0  0  0  0  0  0  0  0
  -23.8151  -24.3212   19.7402 C   0  0  0  0  0  0  0  0  0  0  0  0
  -21.3518  -26.9434   20.6047 C   0  0  0  0  0  0  0  0  0  0  0  0
  -22.4598  -29.9827   21.1794 C   0  0  0  0  0  0  0  0  0  0  0  0
  -23.6561  -22.8244   19.9804 C   0  0  0  0  0  0  0  0  0  1  0  0
  -20.4539  -16.2066   20.0085 C   0  0  1  0  0  0  0  0  0  0  0  0
  -17.8315  -16.9264   22.6495 C   0  0  2  0  0  0  0  0  0  0  0  0
  -21.9712  -29.7977   19.6947 C   0  0  0  0  0  0  0  0  0  0  0  0
  -20.0689  -15.5012   18.6775 C   0  0  0  0  0  0  0  0  0  0  0  0
  -28.3396  -26.7743   20.3013 N   0  0  0  0  0  0  0  0  0  0  0  0
  -22.1937  -27.2923   19.4756 N   0  0  0  0  0  0  0  0  0  0  0  0
  -28.3855  -28.0539   19.8930 N   0  0  0  0  0  0  0  0  0  0  0  0
  -23.2675  -28.4607   18.0138 N   0  3  0  0  0  0  0  0  0  0  0  0
  -22.7797  -16.5245   20.7915 N   0  0  0  0  0  0  0  0  0  0  0  0
  -25.9720  -29.6749   22.3742 N   0  0  0  0  0  0  0  0  0  0  0  0
  -29.1467  -29.4504   18.1377 N   0  0  0  0  0  0  0  0  0  0  0  0
  -30.4314  -25.3262   16.8198 N   0  0  0  0  0  0  0  0  0  0  0  0
  -25.7411  -14.7075   19.9797 N   0  0  0  0  0  0  0  0  0  0  0  0
  -19.4266  -16.1342   21.0419 N   0  0  0  0  0  0  0  0  0  0  0  0
  -23.8361  -29.5793   21.3631 N   0  0  0  0  0  0  0  0  0  0  0  0
  -17.8406  -17.9393   23.7426 N   0  3  0  0  0  0  0  0  0  0  0  0
  -30.4489  -27.5498   16.2592 O   0  0  0  0  0  0  0  0  0  0  0  0
  -24.7120  -16.5422   18.9810 O   0  0  0  0  0  0  0  0  0  0  0  0
  -21.7379  -14.4440   20.9418 O   0  0  0  0  0  0  0  0  0  0  0  0
  -19.1797  -18.4235   21.3160 O   0  0  0  0  0  0  0  0  0  0  0  0
  -24.2482  -31.0673   23.0580 O   0  0  0  0  0  0  0  0  0  0  0  0
  -29.5782  -20.5687   19.5898 O   0  0  0  0  0  0  0  0  0  0  0  0
  -24.6955  -22.3878   20.8553 O   0  0  0  0  0  0  0  0  0  1  0  0
  -28.4924  -17.6512   15.0387 F   0  0  0  0  0  0  0  0  0  0  0  0
  -27.6086  -18.6288   19.5850 F   0  0  0  0  0  0  0  0  0  0  0  0
  1  2  1  0  0  0  0
  1  5  2  0  0  0  0
  2  6  2  0  0  0  0
  3  8  2  0  0  0  0
  3 16  1  0  0  0  0
  4  9  1  0  0  0  0
  4 16  2  0  0  0  0
  5 18  1  0  0  0  0
  6 20  1  0  0  0  0
  7 10  2  0  0  0  0
  7 19  1  0  0  0  0
  8 22  1  0  0  0  0
  9 22  2  0  0  0  0
 10 23  1  0  0  0  0
 11 12  2  0  0  0  0
 11 24  1  0  0  0  0
 12 25  1  0  0  0  0
 13 21  1  0  0  0  0
 13 23  2  0  0  0  0
 14 25  2  0  0  0  0
 14 26  1  0  0  0  0
 15 28  2  0  0  0  0
 15 68  1  0  0  0  0
 16 27  1  0  0  0  0
 17 27  1  0  0  0  0
 17 29  2  0  0  0  0
 17 31  1  0  0  0  0
 18 20  2  0  0  0  0
 18 36  1  0  0  0  0
 19 21  2  0  0  0  0
 19 37  1  0  0  0  0
 20 45  1  0  0  0  0
 21 38  1  0  0  0  0
 22 82  1  0  0  0  0
 23 83  1  0  0  0  0
 24 26  2  0  0  0  0
 24 82  1  0  0  0  0
 25 84  1  0  0  0  0
 26 85  1  0  0  0  0
 27 65  2  0  0  0  0
 28 56  1  0  0  0  0
 28 66  1  0  0  0  0
 29 67  1  0  0  0  0
 29 71  1  0  0  0  0
 30 63  1  0  0  0  0
 30 66  1  0  0  0  0
 30 68  2  0  0  0  0
 31 72  1  0  0  0  0
 31 77  2  0  0  0  0
 32 46  1  0  0  0  0
 32 73  1  0  0  0  0
 32 78  2  0  0  0  0
 33 61  1  0  0  0  0
 33 69  1  0  0  0  0
 33 79  2  0  0  0  0
 34 62  1  0  0  0  0
 34 74  1  0  0  0  0
 34 80  2  0  0  0  0
 35 70  1  0  0  0  0
 35 75  1  0  0  0  0
 35 81  2  0  0  0  0
 36 39  1  0  0  0  0
 37 46  1  0  0  0  0
 38 69  1  0  0  0  0
 39 41  1  0  0  0  0
 40 42  1  0  0  0  0
 40 43  1  0  0  0  0
 41 45  1  0  0  0  0
 42 47  1  0  0  0  0
 43 70  1  0  0  0  0
 44 47  1  0  0  0  0
 44 70  1  0  0  0  0
 45 73  1  0  0  0  0
 46 69  1  0  0  0  0
 47 67  1  0  0  0  0
 48 58  1  0  0  0  0
 49 62  1  0  0  0  0
 50 63  1  0  0  0  0
 51 63  1  0  0  0  0
 52 64  1  0  0  0  0
 53 64  1  0  0  0  0
 54 64  1  0  0  0  0
 55 76  1  0  0  0  0
 56 57  1  0  0  0  0
 57 60  1  0  0  0  0
 58 66  1  0  0  0  0
 59 63  1  0  0  0  0
 59 75  1  0  0  0  0
 60 83  1  0  0  0  0
 61 64  1  0  0  0  0
 61 74  1  0  0  0  0
 62 76  1  0  0  0  0
 65 67  1  0  0  0  0
M  CHG  2  68   1  76   1
M  ISO  4  35 100  60 101  75 100  83 101
M  END
> <Batch ID>
0071

> <Smiles>
CCn1c(CC[101CH2:1][101O:1]c2ccc3c(c2)CN(C(=O)C(NC(=O)C(C)NC)C(C)(C)C)C(C(=O)NC2CCCc4ccccc42)C3)cnc1C(C)(C)C[100NH:0][100C:0](=O)N1CCCC(n2nc(-c3ccc(Oc4ccc(F)cc4F)cc3)c(C(N)=O)c2N)C1

> <Shape>
0.199

> <Color>
0.073

> <Negative vol penalty>
0.000

$$$$

  -OEChem-04052318223D

 87 95  0     1  0  0  0  0  0999 V2000
  -33.8901  -31.8806   17.6805 C   0  0  0  0  0  0  0  0  0  0  0  0
  -33.0638  -30.7643   17.5993 C   0  0  0  0  0  0  0  0  0  0  0  0
  -26.8998  -12.5616   21.8068 C   0  0  0  0  0  0  0  0  0  0  0  0
  -26.1893  -14.1656   20.1456 C   0  0  0  0  0  0  0  0  0  0  0  0
  -33.9085  -32.6498   18.8432 C   0  0  0  0  0  0  0  0  0  0  0  0
  -32.2562  -30.4160   18.6814 C   0  0  0  0  0  0  0  0  0  0  0  0
  -26.6663  -27.9248   18.4515 C   0  0  0  0  0  0  0  0  0  0  0  0
  -25.6034  -12.0507   21.8680 C   0  0  0  0  0  0  0  0  0  0  0  0
  -24.8928  -13.6547   20.2068 C   0  0  0  0  0  0  0  0  0  0  0  0
  -26.2191  -26.6105   18.5799 C   0  0  0  0  0  0  0  0  0  0  0  0
  -23.6558   -9.9739   20.0441 C   0  0  0  0  0  0  0  0  0  0  0  0
  -23.5045   -8.5873   20.0378 C   0  0  0  0  0  0  0  0  0  0  0  0
  -25.7489  -27.0049   20.9129 C   0  0  0  0  0  0  0  0  0  0  0  0
  -22.4107   -8.6969   22.1892 C   0  0  0  0  0  0  0  0  0  0  0  0
  -27.1928  -13.6191   20.9456 C   0  0  0  0  0  0  0  0  0  0  0  0
  -29.5721  -13.7281   20.0319 C   0  0  0  0  0  0  0  0  0  0  0  0
  -33.0936  -32.3163   19.9365 C   0  0  0  0  0  0  0  0  0  0  0  0
  -26.6684  -28.7872   19.5572 C   0  0  0  0  0  0  0  0  0  0  0  0
  -32.2647  -31.1807   19.8603 C   0  0  0  0  0  0  0  0  0  0  0  0
  -26.1943  -28.3304   20.7952 C   0  0  0  0  0  0  0  0  0  0  0  0
  -24.5999  -12.5972   21.0680 C   0  0  0  0  0  0  0  0  0  0  0  0
  -25.7630  -26.1495   19.8114 C   0  0  0  0  0  0  0  0  0  0  0  0
  -23.1846  -10.7221   21.1229 C   0  0  0  0  0  0  0  0  0  0  0  0
  -22.8820   -7.9488   21.1104 C   0  0  0  0  0  0  0  0  0  0  0  0
  -22.5620  -10.0836   22.1955 C   0  0  0  0  0  0  0  0  0  0  0  0
  -28.5317  -14.1477   20.8824 C   0  0  0  0  0  0  0  0  0  0  0  0
  -30.6316  -14.5383   20.3598 C   0  0  0  0  0  0  0  0  0  0  0  0
  -29.5136  -20.2739   20.7722 C   0  0  0  0  0  0  0  0  0  0  0  0
  -27.4392  -20.2393   21.4083 C   0  0  0  0  0  0  0  0  0  0  0  0
  -29.5800  -12.6981   19.0345 C   0  0  0  0  0  0  0  0  0  0  0  0
  -28.9106  -30.3568   21.1735 C   0  0  0  0  0  0  0  0  0  0  0  0
  -26.3566  -31.6378   22.7091 C   0  0  0  0  0  0  0  0  0  0  0  0
  -31.6515  -20.0212   21.9859 C   0  0  0  0  0  0  0  0  0  0  0  0
  -23.0837  -31.3442   23.6306 C   0  0  0  0  0  0  0  0  0  0  0  0
  -33.1828  -33.1507   21.1897 C   0  0  0  0  0  0  0  0  0  0  0  0
  -27.1289  -30.2099   19.3958 C   0  0  0  0  0  0  0  0  0  0  0  0
  -26.1570  -29.2223   22.0083 C   0  0  0  0  0  0  0  0  0  0  0  0
  -32.0189  -32.9302   22.1524 C   0  0  0  0  0  0  0  0  0  0  0  0
  -31.8535  -17.2762   24.2803 C   0  0  0  0  0  0  0  0  0  0  0  0
  -31.7506  -31.4395   22.3331 C   0  0  0  0  0  0  0  0  0  0  0  0
  -31.0915  -16.1580   23.5702 C   0  0  0  0  0  0  0  0  0  0  0  0
  -31.2355  -18.6415   23.9952 C   0  0  0  0  0  0  0  0  0  0  0  0
  -30.3476  -17.8426   21.8284 C   0  0  0  0  0  0  0  0  0  0  0  0
  -31.3558  -30.7849   21.0037 C   0  0  1  0  0  0  0  0  0  0  0  0
  -27.5686  -30.8483   20.7098 C   0  0  1  0  0  0  0  0  0  0  0  0
  -30.9576  -16.4497   22.0651 C   0  0  2  0  0  0  0  0  0  0  0  0
  -28.9940  -23.7802   23.9669 C   0  0  0  0  0  0  0  0  0  0  0  0
  -21.2843  -32.5328   24.9138 C   0  0  0  0  0  0  0  0  0  0  0  0
  -31.2331  -22.1000   20.7380 C   0  0  0  0  0  0  0  0  0  0  0  0
  -31.7888  -19.9563   19.5850 C   0  0  0  0  0  0  0  0  0  0  0  0
  -24.9755  -19.8142   21.5463 C   0  0  0  0  0  0  0  0  0  0  0  0
  -26.2401  -19.9041   23.6758 C   0  0  0  0  0  0  0  0  0  0  0  0
  -27.6550  -30.7690   25.3301 C   0  0  0  0  0  0  0  0  0  0  0  0
  -25.4445  -31.1061   26.4562 C   0  0  0  0  0  0  0  0  0  0  0  0
  -26.6056  -33.0383   25.3877 C   0  0  0  0  0  0  0  0  0  0  0  0
  -21.3649  -31.5752   21.2324 C   0  0  0  0  0  0  0  0  0  0  0  0
  -28.6156  -22.9620   22.7433 C   0  0  0  0  0  0  0  0  0  0  0  0
  -25.6965  -22.7509   21.0127 C   0  0  0  0  0  0  0  0  0  0  0  0
  -25.8670  -22.0260   22.3532 C   0  0  0  0  0  0  0  0  0  0  0  0
  -29.0138  -21.4971   22.9090 C   0  0  0  0  0  0  0  0  0  0  0  0
  -25.4950  -24.2480   21.2145 C   0  0  0  0  0  0  0  0  0  1  0  0
  -25.5455  -31.2675   23.9274 C   0  0  1  0  0  0  0  0  0  0  0  0
  -21.9233  -32.3196   23.5504 C   0  0  2  0  0  0  0  0  0  0  0  0
  -30.9581  -20.5657   20.7624 C   0  0  0  0  0  0  0  0  0  0  0  0
  -26.1754  -20.4988   22.2483 C   0  0  0  0  0  0  0  0  0  0  0  0
  -26.3151  -31.5276   25.2531 C   0  0  0  0  0  0  0  0  0  0  0  0
  -28.8973  -15.1468   21.6900 N   0  0  0  0  0  0  0  0  0  0  0  0
  -28.8393  -19.5816   19.8820 N   0  0  0  0  0  0  0  0  0  0  0  0
  -27.5195  -19.5595   20.2867 N   0  0  0  0  0  0  0  0  0  0  0  0
  -30.1792  -15.3616   21.3485 N   0  0  0  0  0  0  0  0  0  0  0  0
  -28.6715  -20.7071   21.7509 N   0  0  0  0  0  0  0  0  0  0  0  0
  -26.6237  -30.6032   21.8013 N   0  0  0  0  0  0  0  0  0  0  0  0
  -31.1047  -18.8711   22.5553 N   0  0  0  0  0  0  0  0  0  0  0  0
  -31.8968  -14.6195   19.8960 N   0  0  0  0  0  0  0  0  0  0  0  0
  -28.4063  -11.9610   18.8259 N   0  0  0  0  0  0  0  0  0  0  0  0
  -29.9771  -31.0854   20.6822 N   0  0  0  0  0  0  0  0  0  0  0  0
  -24.2856  -31.9944   23.8153 N   0  0  0  0  0  0  0  0  0  0  0  0
  -20.8801  -31.8078   22.6173 N   0  3  0  0  0  0  0  0  0  0  0  0
  -30.6026  -12.4280   18.3601 O   0  0  0  0  0  0  0  0  0  0  0  0
  -28.9738  -29.3892   21.9227 O   0  0  0  0  0  0  0  0  0  0  0  0
  -26.7330  -32.8036   22.5647 O   0  0  0  0  0  0  0  0  0  0  0  0
  -32.6509  -20.6005   22.4192 O   0  0  0  0  0  0  0  0  0  0  0  0
  -22.9381  -30.1270   23.5423 O   0  0  0  0  0  0  0  0  0  0  0  0
  -23.3348  -12.0987   21.1273 O   0  0  0  0  0  0  0  0  0  0  0  0
  -25.3266  -24.8669   19.9397 O   0  0  0  0  0  0  0  0  0  1  0  0
  -22.7354   -6.6174   21.1035 F   0  0  0  0  0  0  0  0  0  0  0  0
  -22.1061  -10.7971   23.2342 F   0  0  0  0  0  0  0  0  0  0  0  0
  1  2  1  0  0  0  0
  1  5  2  0  0  0  0
  2  6  2  0  0  0  0
  3  8  2  0  0  0  0
  3 15  1  0  0  0  0
  4  9  1  0  0  0  0
  4 15  2  0  0  0  0
  5 17  1  0  0  0  0
  6 19  1  0  0  0  0
  7 10  2  0  0  0  0
  7 18  1  0  0  0  0
  8 21  1  0  0  0  0
  9 21  2  0  0  0  0
 10 22  1  0  0  0  0
 11 12  2  0  0  0  0
 11 23  1  0  0  0  0
 12 24  1  0  0  0  0
 13 20  1  0  0  0  0
 13 22  2  0  0  0  0
 14 24  2  0  0  0  0
 14 25  1  0  0  0  0
 15 26  1  0  0  0  0
 16 26  1  0  0  0  0
 16 27  2  0  0  0  0
 16 30  1  0  0  0  0
 17 19  2  0  0  0  0
 17 35  1  0  0  0  0
 18 20  2  0  0  0  0
 18 36  1  0  0  0  0
 19 44  1  0  0  0  0
 20 37  1  0  0  0  0
 21 84  1  0  0  0  0
 22 85  1  0  0  0  0
 23 25  2  0  0  0  0
 23 84  1  0  0  0  0
 24 86  1  0  0  0  0
 25 87  1  0  0  0  0
 26 67  2  0  0  0  0
 27 70  1  0  0  0  0
 27 74  1  0  0  0  0
 28 64  1  0  0  0  0
 28 68  2  0  0  0  0
 28 71  1  0  0  0  0
 29 65  1  0  0  0  0
 29 69  2  0  0  0  0
 29 71  1  0  0  0  0
 30 75  1  0  0  0  0
 30 79  2  0  0  0  0
 31 45  1  0  0  0  0
 31 76  1  0  0  0  0
 31 80  2  0  0  0  0
 32 62  1  0  0  0  0
 32 72  1  0  0  0  0
 32 81  2  0  0  0  0
 33 64  1  0  0  0  0
 33 73  1  0  0  0  0
 33 82  2  0  0  0  0
 34 63  1  0  0  0  0
 34 77  1  0  0  0  0
 34 83  2  0  0  0  0
 35 38  1  0  0  0  0
 36 45  1  0  0  0  0
 37 72  1  0  0  0  0
 38 40  1  0  0  0  0
 39 41  1  0  0  0  0
 39 42  1  0  0  0  0
 40 44  1  0  0  0  0
 41 46  1  0  0  0  0
 42 73  1  0  0  0  0
 43 46  1  0  0  0  0
 43 73  1  0  0  0  0
 44 76  1  0  0  0  0
 45 72  1  0  0  0  0
 46 70  1  0  0  0  0
 47 57  1  0  0  0  0
 48 63  1  0  0  0  0
 49 64  1  0  0  0  0
 50 64  1  0  0  0  0
 51 65  1  0  0  0  0
 52 65  1  0  0  0  0
 53 66  1  0  0  0  0
 54 66  1  0  0  0  0
 55 66  1  0  0  0  0
 56 78  1  0  0  0  0
 57 60  1  0  0  0  0
 58 59  1  0  0  0  0
 58 61  1  0  0  0  0
 59 65  1  0  0  0  0
 60 71  1  0  0  0  0
 61 85  1  0  0  0  0
 62 66  1  0  0  0  0
 62 77  1  0  0  0  0
 63 78  1  0  0  0  0
 67 70  1  0  0  0  0
 68 69  1  0  0  0  0
M  CHG  1  78   1
M  ISO  4  33 100  61 101  64 100  85 101
M  END
> <Batch ID>
0071

> <Smiles>
CCCn1c(C(C)(C)CC[101CH2:1][101O:1]c2ccc3c(c2)CN(C(=O)C(NC(=O)C(C)NC)C(C)(C)C)C(C(=O)NC2CCCc4ccccc42)C3)nnc1[100C:0](C)(C)[100C:0](=O)N1CCCC(n2nc(-c3ccc(Oc4ccc(F)cc4F)cc3)c(C(N)=O)c2N)C1

> <Shape>
0.270

> <Color>
0.081

> <Negative vol penalty>
0.000

$$$$

  -OEChem-04052318223D

 86 94  0     1  0  0  0  0  0999 V2000
  -34.2912  -29.9038   21.4688 C   0  0  0  0  0  0  0  0  0  0  0  0
  -33.3695  -29.1148   22.1495 C   0  0  0  0  0  0  0  0  0  0  0  0
  -23.2858   -9.8607   19.8838 C   0  0  0  0  0  0  0  0  0  0  0  0
  -23.7168   -9.9649   22.2588 C   0  0  0  0  0  0  0  0  0  0  0  0
  -34.4268  -29.7799   20.0867 C   0  0  0  0  0  0  0  0  0  0  0  0
  -32.5821  -28.2022   21.4483 C   0  0  0  0  0  0  0  0  0  0  0  0
  -30.6687  -22.7238   23.4058 C   0  0  0  0  0  0  0  0  0  0  0  0
  -22.5393   -8.6973   20.0703 C   0  0  0  0  0  0  0  0  0  0  0  0
  -22.9702   -8.8015   22.4453 C   0  0  0  0  0  0  0  0  0  0  0  0
  -29.4619  -22.2930   23.9553 C   0  0  0  0  0  0  0  0  0  0  0  0
  -20.8772   -6.0592   23.5930 C   0  0  0  0  0  0  0  0  0  0  0  0
  -19.9655   -6.0350   24.6484 C   0  0  0  0  0  0  0  0  0  0  0  0
  -28.7353  -21.5647   21.7733 C   0  0  0  0  0  0  0  0  0  0  0  0
  -18.7942   -7.9129   23.6796 C   0  0  0  0  0  0  0  0  0  0  0  0
  -23.8746  -10.4945   20.9781 C   0  0  0  0  0  0  0  0  0  0  0  0
  -24.1754  -13.0224   20.8135 C   0  0  0  0  0  0  0  0  0  0  0  0
  -33.6476  -28.8585   19.3695 C   0  0  0  0  0  0  0  0  0  0  0  0
  -30.9139  -22.5879   22.0318 C   0  0  0  0  0  0  0  0  0  0  0  0
  -32.7066  -28.0668   20.0551 C   0  0  0  0  0  0  0  0  0  0  0  0
  -29.9471  -21.9922   21.2093 C   0  0  0  0  0  0  0  0  0  0  0  0
  -22.3815   -8.1677   21.3510 C   0  0  0  0  0  0  0  0  0  0  0  0
  -28.4938  -21.7160   23.1386 C   0  0  0  0  0  0  0  0  0  0  0  0
  -20.7474   -7.0104   22.5809 C   0  0  0  0  0  0  0  0  0  0  0  0
  -18.9240   -6.9618   24.6917 C   0  0  0  0  0  0  0  0  0  0  0  0
  -19.7059   -7.9372   22.6242 C   0  0  0  0  0  0  0  0  0  0  0  0
  -24.6464  -11.6960   20.7860 C   0  0  0  0  0  0  0  0  0  0  0  0
  -27.3963  -16.5790   24.5209 C   0  0  0  0  0  0  0  0  0  0  0  0
  -27.7486  -17.8785   24.8115 C   0  0  0  0  0  0  0  0  0  0  0  0
  -29.9349  -17.3881   24.3537 C   0  0  0  0  0  0  0  0  0  0  0  0
  -29.5826  -16.0883   24.0638 C   0  0  0  0  0  0  0  0  0  0  0  0
  -25.2912  -13.7879   20.5782 C   0  0  0  0  0  0  0  0  0  0  0  0
  -22.8479  -13.5181   21.0322 C   0  0  0  0  0  0  0  0  0  0  0  0
  -31.4731  -24.6083   19.6425 C   0  0  0  0  0  0  0  0  0  0  0  0
  -31.9696  -21.8766   17.9652 C   0  0  0  0  0  0  0  0  0  0  0  0
  -31.3851  -18.5300   17.6395 C   0  0  0  0  0  0  0  0  0  0  0  0
  -31.1750  -12.3022   21.4224 C   0  0  0  0  0  0  0  0  0  0  0  0
  -33.7963  -28.7939   17.8700 C   0  0  0  0  0  0  0  0  0  0  0  0
  -32.2315  -23.0332   21.4590 C   0  0  0  0  0  0  0  0  0  0  0  0
  -30.1695  -21.8049   19.7315 C   0  0  0  0  0  0  0  0  0  0  0  0
  -33.1891  -27.5374   17.2513 C   0  0  0  0  0  0  0  0  0  0  0  0
  -29.5395  -13.6638   18.3938 C   0  0  0  0  0  0  0  0  0  0  0  0
  -31.7963  -27.2825   17.8186 C   0  0  0  0  0  0  0  0  0  0  0  0
  -28.0643  -13.3560   18.6449 C   0  0  0  0  0  0  0  0  0  0  0  0
  -30.4546  -12.6604   19.0891 C   0  0  0  0  0  0  0  0  0  0  0  0
  -28.7257  -12.2173   20.8005 C   0  0  0  0  0  0  0  0  0  0  0  0
  -31.8519  -27.0479   19.3330 C   0  0  1  0  0  0  0  0  0  0  0  0
  -32.1673  -23.3144   19.9610 C   0  0  1  0  0  0  0  0  0  0  0  0
  -27.7775  -13.2370   20.1519 C   0  0  2  0  0  0  0  0  0  0  0  0
  -25.9819  -16.1179   24.6118 C   0  0  0  0  0  0  0  0  0  0  0  0
  -31.6142  -18.6674   23.0010 C   0  0  0  0  0  0  0  0  0  0  0  0
  -31.8937  -16.5776   16.1473 C   0  0  0  0  0  0  0  0  0  0  0  0
  -29.9354  -22.9014   15.9350 C   0  0  0  0  0  0  0  0  0  0  0  0
  -29.7783  -20.5753   15.0225 C   0  0  0  0  0  0  0  0  0  0  0  0
  -31.9472  -21.8043   14.9333 C   0  0  0  0  0  0  0  0  0  0  0  0
  -32.0765  -12.6088   23.6968 C   0  0  0  0  0  0  0  0  0  0  0  0
  -32.7653  -17.0767   19.8171 C   0  0  0  0  0  0  0  0  0  0  0  0
  -31.3494  -17.8489   24.2624 C   0  0  0  0  0  0  0  0  0  0  0  0
  -26.7197  -18.8959   25.2357 C   0  0  0  0  0  0  0  0  0  0  0  0
  -30.5997  -15.0822   23.6458 C   0  0  0  0  0  0  0  0  0  0  0  0
  -25.8665  -19.4269   24.0817 C   0  0  0  0  0  0  0  0  0  0  0  0
  -29.9925  -13.7849   23.0975 C   0  0  0  0  0  0  0  0  0  0  0  0
  -26.6718  -20.1910   23.0372 C   0  0  0  0  0  0  0  0  0  1  0  0
  -31.0993  -20.9463   17.1552 C   0  0  1  0  0  0  0  0  0  0  0  0
  -32.3218  -17.3649   17.3760 C   0  0  2  0  0  0  0  0  0  0  0  0
  -30.6848  -21.5620   15.7890 C   0  0  0  0  0  0  0  0  0  0  0  0
  -25.9591  -11.6197   20.5516 N   0  0  0  0  0  0  0  0  0  0  0  0
  -28.3069  -15.6605   24.1419 N   0  0  0  0  0  0  0  0  0  0  0  0
  -29.0243  -18.3064   24.7330 N   0  0  0  0  0  0  0  0  0  0  0  0
  -26.3225  -12.9078   20.4296 N   0  0  0  0  0  0  0  0  0  0  0  0
  -31.4712  -22.2621   19.2177 N   0  0  0  0  0  0  0  0  0  0  0  0
  -30.1320  -12.5351   20.5109 N   0  0  0  0  0  0  0  0  0  0  0  0
  -25.4810  -15.1213   20.4860 N   0  0  0  0  0  0  0  0  0  0  0  0
  -21.8186  -12.5943   21.2587 N   0  0  0  0  0  0  0  0  0  0  0  0
  -32.3120  -25.7062   19.6201 N   0  0  0  0  0  0  0  0  0  0  0  0
  -31.8345  -19.6909   17.0463 N   0  0  0  0  0  0  0  0  0  0  0  0
  -31.0174  -12.8144   22.7192 N   0  0  0  0  0  0  0  0  0  0  0  0
  -32.3393  -16.4399   18.5443 N   0  3  0  0  0  0  0  0  0  0  0  0
  -22.5795  -14.7433   21.0105 O   0  0  0  0  0  0  0  0  0  0  0  0
  -30.2661  -24.6103   19.4312 O   0  0  0  0  0  0  0  0  0  0  0  0
  -33.0550  -22.2418   17.5067 O   0  0  0  0  0  0  0  0  0  0  0  0
  -30.3557  -18.4205   18.3019 O   0  0  0  0  0  0  0  0  0  0  0  0
  -32.1933  -11.6806   21.0931 O   0  0  0  0  0  0  0  0  0  0  0  0
  -21.6529   -7.0326   21.5334 O   0  0  0  0  0  0  0  0  0  0  0  0
  -27.3148  -21.2954   23.6722 O   0  0  0  0  0  0  0  0  0  1  0  0
  -18.0477   -6.9374   25.7044 F   0  0  0  0  0  0  0  0  0  0  0  0
  -19.5754   -8.8525   21.6542 F   0  0  0  0  0  0  0  0  0  0  0  0
  1  2  1  0  0  0  0
  1  5  2  0  0  0  0
  2  6  2  0  0  0  0
  3  8  2  0  0  0  0
  3 15  1  0  0  0  0
  4  9  1  0  0  0  0
  4 15  2  0  0  0  0
  5 17  1  0  0  0  0
  6 19  1  0  0  0  0
  7 10  2  0  0  0  0
  7 18  1  0  0  0  0
  8 21  1  0  0  0  0
  9 21  2  0  0  0  0
 10 22  1  0  0  0  0
 11 12  2  0  0  0  0
 11 23  1  0  0  0  0
 12 24  1  0  0  0  0
 13 20  1  0  0  0  0
 13 22  2  0  0  0  0
 14 24  2  0  0  0  0
 14 25  1  0  0  0  0
 15 26  1  0  0  0  0
 16 26  1  0  0  0  0
 16 31  2  0  0  0  0
 16 32  1  0  0  0  0
 17 19  2  0  0  0  0
 17 37  1  0  0  0  0
 18 20  2  0  0  0  0
 18 38  1  0  0  0  0
 19 46  1  0  0  0  0
 20 39  1  0  0  0  0
 21 83  1  0  0  0  0
 22 84  1  0  0  0  0
 23 25  2  0  0  0  0
 23 83  1  0  0  0  0
 24 85  1  0  0  0  0
 25 86  1  0  0  0  0
 26 66  2  0  0  0  0
 27 28  1  0  0  0  0
 27 49  1  0  0  0  0
 27 67  2  0  0  0  0
 28 58  1  0  0  0  0
 28 68  2  0  0  0  0
 29 30  2  0  0  0  0
 29 57  1  0  0  0  0
 29 68  1  0  0  0  0
 30 59  1  0  0  0  0
 30 67  1  0  0  0  0
 31 69  1  0  0  0  0
 31 72  1  0  0  0  0
 32 73  1  0  0  0  0
 32 78  2  0  0  0  0
 33 47  1  0  0  0  0
 33 74  1  0  0  0  0
 33 79  2  0  0  0  0
 34 63  1  0  0  0  0
 34 70  1  0  0  0  0
 34 80  2  0  0  0  0
 35 64  1  0  0  0  0
 35 75  1  0  0  0  0
 35 81  2  0  0  0  0
 36 71  1  0  0  0  0
 36 76  1  0  0  0  0
 36 82  2  0  0  0  0
 37 40  1  0  0  0  0
 38 47  1  0  0  0  0
 39 70  1  0  0  0  0
 40 42  1  0  0  0  0
 41 43  1  0  0  0  0
 41 44  1  0  0  0  0
 42 46  1  0  0  0  0
 43 48  1  0  0  0  0
 44 71  1  0  0  0  0
 45 48  1  0  0  0  0
 45 71  1  0  0  0  0
 46 74  1  0  0  0  0
 47 70  1  0  0  0  0
 48 69  1  0  0  0  0
 50 57  1  0  0  0  0
 51 64  1  0  0  0  0
 52 65  1  0  0  0  0
 53 65  1  0  0  0  0
 54 65  1  0  0  0  0
 55 76  1  0  0  0  0
 56 77  1  0  0  0  0
 58 60  1  0  0  0  0
 59 61  1  0  0  0  0
 60 62  1  0  0  0  0
 61 76  1  0  0  0  0
 62 84  1  0  0  0  0
 63 65  1  0  0  0  0
 63 75  1  0  0  0  0
 64 77  1  0  0  0  0
 66 69  1  0  0  0  0
M  CHG  1  77   1
M  ISO  4  36 100  62 101  76 100  84 101
M  END
> <Batch ID>
0071

> <Smiles>
CCc1nc(CC[101CH2:1][101O:1]c2ccc3c(c2)CN(C(=O)C(NC(=O)C(C)NC)C(C)(C)C)C(C(=O)NC2CCCc4ccccc42)C3)c(C)nc1CC[100N:0](C)[100C:0](=O)N1CCCC(n2nc(-c3ccc(Oc4ccc(F)cc4F)cc3)c(C(N)=O)c2N)C1

> <Shape>
0.183

> <Color>
0.185

> <Negative vol penalty>
0.000

$$$$

  -OEChem-04052318223D

 84 92  0     1  0  0  0  0  0999 V2000
  -31.0125  -18.0987   23.7975 C   0  0  0  0  0  0  0  0  0  0  0  0
  -29.7374  -18.5671   23.4976 C   0  0  0  0  0  0  0  0  0  0  0  0
  -28.6139  -27.8382   20.8479 C   0  0  0  0  0  0  0  0  0  0  0  0
  -27.2684  -26.5746   19.2890 C   0  0  0  0  0  0  0  0  0  0  0  0
  -31.5445  -17.0242   23.0859 C   0  0  0  0  0  0  0  0  0  0  0  0
  -28.9938  -17.9619   22.4850 C   0  0  0  0  0  0  0  0  0  0  0  0
  -22.9216  -17.1781   22.3428 C   0  0  0  0  0  0  0  0  0  0  0  0
  -29.6962  -26.9947   20.5975 C   0  0  0  0  0  0  0  0  0  0  0  0
  -28.3507  -25.7311   19.0386 C   0  0  0  0  0  0  0  0  0  0  0  0
  -21.8979  -17.8923   21.7216 C   0  0  0  0  0  0  0  0  0  0  0  0
  -29.8686  -23.1120   20.5445 C   0  0  0  0  0  0  0  0  0  0  0  0
  -29.6266  -21.7387   20.5149 C   0  0  0  0  0  0  0  0  0  0  0  0
  -21.9575  -16.3520   19.8661 C   0  0  0  0  0  0  0  0  0  0  0  0
  -30.4077  -21.6502   18.2304 C   0  0  0  0  0  0  0  0  0  0  0  0
  -27.4000  -27.6282   20.1937 C   0  0  0  0  0  0  0  0  0  0  0  0
  -25.9538  -29.6869   19.7718 C   0  0  0  0  0  0  0  0  0  0  0  0
  -30.8032  -16.3994   22.0706 C   0  0  0  0  0  0  0  0  0  0  0  0
  -23.4793  -16.0500   21.7242 C   0  0  0  0  0  0  0  0  0  0  0  0
  -29.5168  -16.8789   21.7582 C   0  0  0  0  0  0  0  0  0  0  0  0
  -22.9864  -15.6238   20.4826 C   0  0  0  0  0  0  0  0  0  0  0  0
  -29.5646  -25.9411   19.6929 C   0  0  0  0  0  0  0  0  0  0  0  0
  -21.4177  -17.4810   20.4818 C   0  0  0  0  0  0  0  0  0  0  0  0
  -30.3801  -23.7545   19.4170 C   0  0  0  0  0  0  0  0  0  0  0  0
  -29.8961  -21.0078   19.3579 C   0  0  0  0  0  0  0  0  0  0  0  0
  -30.6497  -23.0236   18.2599 C   0  0  0  0  0  0  0  0  0  0  0  0
  -26.2814  -28.4988   20.4523 C   0  0  0  0  0  0  0  0  0  0  0  0
  -24.8131  -30.1345   20.3922 C   0  0  0  0  0  0  0  0  0  0  0  0
  -19.1566  -24.9558   21.0499 C   0  0  0  0  0  0  0  0  0  0  0  0
  -19.8902  -23.7290   19.5288 C   0  0  0  0  0  0  0  0  0  0  0  0
  -26.6209  -30.3284   18.6767 C   0  0  0  0  0  0  0  0  0  0  0  0
  -26.3736  -15.2742   20.6636 C   0  0  0  0  0  0  0  0  0  0  0  0
  -24.9911  -12.3815   20.1702 C   0  0  0  0  0  0  0  0  0  0  0  0
  -22.1366  -10.5869   19.6429 C   0  0  0  0  0  0  0  0  0  0  0  0
  -20.5020  -27.3656   23.4904 C   0  0  0  0  0  0  0  0  0  0  0  0
  -31.4389  -15.2715   21.2969 C   0  0  0  0  0  0  0  0  0  0  0  0
  -24.5647  -15.2749   22.4197 C   0  0  0  0  0  0  0  0  0  0  0  0
  -23.5373  -14.4074   19.7859 C   0  0  0  0  0  0  0  0  0  0  0  0
  -30.4388  -14.4456   20.4918 C   0  0  0  0  0  0  0  0  0  0  0  0
  -22.5643  -30.0415   24.6142 C   0  0  0  0  0  0  0  0  0  0  0  0
  -29.4872  -15.3586   19.7252 C   0  0  0  0  0  0  0  0  0  0  0  0
  -23.7213  -30.0568   23.6136 C   0  0  0  0  0  0  0  0  0  0  0  0
  -22.0957  -28.6192   24.9134 C   0  0  0  0  0  0  0  0  0  0  0  0
  -22.9083  -27.8328   22.7237 C   0  0  0  0  0  0  0  0  0  0  0  0
  -28.6696  -16.2329   20.6835 C   0  0  1  0  0  0  0  0  0  0  0  0
  -25.4111  -14.4416   21.4623 C   0  0  1  0  0  0  0  0  0  0  0  0
  -23.3785  -29.2484   22.3477 C   0  0  2  0  0  0  0  0  0  0  0  0
  -20.6261  -23.1154   18.4088 C   0  0  0  0  0  0  0  0  0  0  0  0
  -18.0694  -27.2029   21.4106 C   0  0  0  0  0  0  0  0  0  0  0  0
  -21.3280   -8.2460   19.2382 C   0  0  0  0  0  0  0  0  0  0  0  0
  -25.9760  -12.5424   17.2868 C   0  0  0  0  0  0  0  0  0  0  0  0
  -24.3722  -10.7084   16.7101 C   0  0  0  0  0  0  0  0  0  0  0  0
  -26.2093  -10.2883   18.3446 C   0  0  0  0  0  0  0  0  0  0  0  0
  -18.5608  -16.9144   20.4632 C   0  0  0  0  0  0  0  0  0  0  0  0
  -20.4986  -10.6026   22.1077 C   0  0  0  0  0  0  0  0  0  0  0  0
  -19.0575  -20.6396   20.4037 C   0  0  0  0  0  0  0  0  0  0  0  0
  -18.2157  -21.7887   19.8429 C   0  0  0  0  0  0  0  0  0  0  0  0
  -18.3966  -19.2895   20.1308 C   0  0  0  0  0  0  0  0  0  0  0  0
  -19.0191  -26.1089   21.9473 C   0  0  2  0  0  0  0  0  0  0  0  0
  -24.2493  -11.7322   19.0270 C   0  0  1  0  0  0  0  0  0  0  0  0
  -21.6149   -9.3131   20.2830 C   0  0  2  0  0  0  0  0  0  0  0  0
  -25.1924  -11.3419   17.8541 C   0  0  0  0  0  0  0  0  0  0  0  0
  -25.4187  -28.2101   21.4302 N   0  0  0  0  0  0  0  0  0  0  0  0
  -20.1212  -24.8953   20.0852 N   0  0  0  0  0  0  0  0  0  0  0  0
  -18.3433  -23.9002   21.1253 N   0  0  0  0  0  0  0  0  0  0  0  0
  -24.5378  -29.2231   21.3688 N   0  0  0  0  0  0  0  0  0  0  0  0
  -18.8339  -23.1305   20.1419 N   0  0  0  0  0  0  0  0  0  0  0  0
  -24.6019  -13.6867   20.5033 N   0  0  0  0  0  0  0  0  0  0  0  0
  -21.7852  -27.9075   23.6712 N   0  0  0  0  0  0  0  0  0  0  0  0
  -24.0288  -31.2149   20.1923 N   0  0  0  0  0  0  0  0  0  0  0  0
  -27.7798  -29.7337   18.1596 N   0  0  0  0  0  0  0  0  0  0  0  0
  -27.5967  -15.4646   21.2779 N   0  0  0  0  0  0  0  0  0  0  0  0
  -23.5147  -10.6104   19.6017 N   0  0  0  0  0  0  0  0  0  0  0  0
  -20.2896  -26.7126   22.2824 N   0  0  0  0  0  0  0  0  0  0  0  0
  -19.2031  -18.2070   20.6909 N   0  0  2  0  0  0  0  0  0  1  0  0
  -20.3563   -9.5878   21.0322 N   0  3  0  0  0  0  0  0  0  0  0  0
  -26.2108  -31.4059   18.1825 O   0  0  0  0  0  0  0  0  0  0  0  0
  -26.0325  -15.7103   19.5704 O   0  0  0  0  0  0  0  0  0  0  0  0
  -25.8782  -11.7512   20.7511 O   0  0  0  0  0  0  0  0  0  0  0  0
  -21.3957  -11.4707   19.2182 O   0  0  0  0  0  0  0  0  0  0  0  0
  -19.6099  -27.4615   24.3401 O   0  0  0  0  0  0  0  0  0  0  0  0
  -30.6206  -25.1179   19.4482 O   0  0  0  0  0  0  0  0  0  0  0  0
  -20.4191  -18.1766   19.8730 O   0  0  0  0  0  0  0  0  0  1  0  0
  -29.6651  -19.6887   19.3302 F   0  0  0  0  0  0  0  0  0  0  0  0
  -31.1423  -23.6351   17.1740 F   0  0  0  0  0  0  0  0  0  0  0  0
  1  2  1  0  0  0  0
  1  5  2  0  0  0  0
  2  6  2  0  0  0  0
  3  8  2  0  0  0  0
  3 15  1  0  0  0  0
  4  9  1  0  0  0  0
  4 15  2  0  0  0  0
  5 17  1  0  0  0  0
  6 19  1  0  0  0  0
  7 10  2  0  0  0  0
  7 18  1  0  0  0  0
  8 21  1  0  0  0  0
  9 21  2  0  0  0  0
 10 22  1  0  0  0  0
 11 12  2  0  0  0  0
 11 23  1  0  0  0  0
 12 24  1  0  0  0  0
 13 20  1  0  0  0  0
 13 22  2  0  0  0  0
 14 24  2  0  0  0  0
 14 25  1  0  0  0  0
 15 26  1  0  0  0  0
 16 26  1  0  0  0  0
 16 27  2  0  0  0  0
 16 30  1  0  0  0  0
 17 19  2  0  0  0  0
 17 35  1  0  0  0  0
 18 20  2  0  0  0  0
 18 36  1  0  0  0  0
 19 44  1  0  0  0  0
 20 37  1  0  0  0  0
 21 81  1  0  0  0  0
 22 82  1  0  0  0  0
 23 25  2  0  0  0  0
 23 81  1  0  0  0  0
 24 83  1  0  0  0  0
 25 84  1  0  0  0  0
 26 62  2  0  0  0  0
 27 65  1  0  0  0  0
 27 69  1  0  0  0  0
 28 58  1  0  0  0  0
 28 63  1  0  0  0  0
 28 64  2  0  0  0  0
 29 47  1  0  0  0  0
 29 63  2  0  0  0  0
 29 66  1  0  0  0  0
 30 70  1  0  0  0  0
 30 76  2  0  0  0  0
 31 45  1  0  0  0  0
 31 71  1  0  0  0  0
 31 77  2  0  0  0  0
 32 59  1  0  0  0  0
 32 67  1  0  0  0  0
 32 78  2  0  0  0  0
 33 60  1  0  0  0  0
 33 72  1  0  0  0  0
 33 79  2  0  0  0  0
 34 68  1  0  0  0  0
 34 73  1  0  0  0  0
 34 80  2  0  0  0  0
 35 38  1  0  0  0  0
 36 45  1  0  0  0  0
 37 67  1  0  0  0  0
 38 40  1  0  0  0  0
 39 41  1  0  0  0  0
 39 42  1  0  0  0  0
 40 44  1  0  0  0  0
 41 46  1  0  0  0  0
 42 68  1  0  0  0  0
 43 46  1  0  0  0  0
 43 68  1  0  0  0  0
 44 71  1  0  0  0  0
 45 67  1  0  0  0  0
 46 65  1  0  0  0  0
 48 58  1  0  0  0  0
 49 60  1  0  0  0  0
 50 61  1  0  0  0  0
 51 61  1  0  0  0  0
 52 61  1  0  0  0  0
 53 74  1  0  0  0  0
 54 75  1  0  0  0  0
 55 56  1  0  0  0  0
 55 57  1  0  0  0  0
 56 66  1  0  0  0  0
 57 74  1  0  0  0  0
 58 73  1  0  0  0  0
 59 61  1  0  0  0  0
 59 72  1  0  0  0  0
 60 75  1  0  0  0  0
 62 65  1  0  0  0  0
 64 66  1  0  0  0  0
 74 82  1  0  0  0  0
M  CHG  1  75   1
M  ISO  4  34 100  73 100  74 101  82 101
M  END
> <Batch ID>
0071

> <Smiles>
CNC(C)C(=O)NC(C(=O)N1Cc2cc([101O:1][101N:1](C)CCCn3nc(C(C)[100NH:0][100C:0](=O)N4CCCC(n5nc(-c6ccc(Oc7ccc(F)cc7F)cc6)c(C(N)=O)c5N)C4)nc3C)ccc2CC1C(=O)NC1CCCc2ccccc21)C(C)(C)C

> <Shape>
0.263

> <Color>
0.050

> <Negative vol penalty>
0.000

$$$$

  -OEChem-04052318222D

  0  0  0     0  0  0  0  0  0999 V2000
M  END
$$$$

  -OEChem-04052318223D

 90 98  0     1  0  0  0  0  0999 V2000
  -14.4146  -21.3672   20.9044 C   0  0  0  0  0  0  0  0  0  0  0  0
  -15.4820  -22.2383   20.7116 C   0  0  0  0  0  0  0  0  0  0  0  0
  -29.0008  -17.7316   19.5071 C   0  0  0  0  0  0  0  0  0  0  0  0
  -30.5090  -18.1569   21.3460 C   0  0  0  0  0  0  0  0  0  0  0  0
  -14.6549  -20.0374   21.2479 C   0  0  0  0  0  0  0  0  0  0  0  0
  -16.7904  -21.7805   20.8633 C   0  0  0  0  0  0  0  0  0  0  0  0
  -21.7081  -23.5662   17.6800 C   0  0  0  0  0  0  0  0  0  0  0  0
  -29.5493  -16.4586   19.3517 C   0  0  0  0  0  0  0  0  0  0  0  0
  -31.0575  -16.8838   21.1906 C   0  0  0  0  0  0  0  0  0  0  0  0
  -22.7264  -24.4765   17.9594 C   0  0  0  0  0  0  0  0  0  0  0  0
  -30.3061  -12.9625   18.7036 C   0  0  0  0  0  0  0  0  0  0  0  0
  -29.4266  -11.8951   18.5231 C   0  0  0  0  0  0  0  0  0  0  0  0
  -24.1175  -22.6696   18.7463 C   0  0  0  0  0  0  0  0  0  0  0  0
  -28.4136  -12.3676   20.6650 C   0  0  0  0  0  0  0  0  0  0  0  0
  -26.1145  -29.4396   22.5620 C   0  0  0  0  0  0  0  0  0  0  0  0
  -29.4807  -18.5808   20.5042 C   0  0  0  0  0  0  0  0  0  0  0  0
  -27.8234  -20.2587   21.4766 C   0  0  0  0  0  0  0  0  0  0  0  0
  -15.9671  -19.5607   21.3945 C   0  0  0  0  0  0  0  0  0  0  0  0
  -21.8831  -22.1998   17.9423 C   0  0  0  0  0  0  0  0  0  0  0  0
  -17.0484  -20.4434   21.2104 C   0  0  0  0  0  0  0  0  0  0  0  0
  -23.1008  -21.7437   18.4670 C   0  0  0  0  0  0  0  0  0  0  0  0
  -30.5776  -16.0346   20.1934 C   0  0  0  0  0  0  0  0  0  0  0  0
  -23.9303  -24.0286   18.4953 C   0  0  0  0  0  0  0  0  0  0  0  0
  -30.2394  -13.7325   19.8648 C   0  0  0  0  0  0  0  0  0  0  0  0
  -28.4803  -11.5976   19.5038 C   0  0  0  0  0  0  0  0  0  0  0  0
  -29.2932  -13.4350   20.8455 C   0  0  0  0  0  0  0  0  0  0  0  0
  -28.9149  -19.8962   20.6649 C   0  0  0  0  0  0  0  0  0  0  0  0
  -27.1666  -29.8718   23.3435 C   0  0  0  0  0  0  0  0  0  0  0  0
  -26.4607  -28.9013   21.3395 C   0  0  0  0  0  0  0  0  0  0  0  0
  -27.6833  -21.6108   21.2798 C   0  0  0  0  0  0  0  0  0  0  0  0
  -28.6686  -29.2454   21.7564 C   0  0  0  0  0  0  0  0  0  0  0  0
  -27.0089  -19.4460   22.3320 C   0  0  0  0  0  0  0  0  0  0  0  0
  -20.4561  -20.0773   19.8298 C   0  0  0  0  0  0  0  0  0  0  0  0
  -29.9666  -26.6072   20.9628 C   0  0  0  0  0  0  0  0  0  0  0  0
  -22.4073  -17.9861   18.2995 C   0  0  0  0  0  0  0  0  0  0  0  0
  -25.2882  -17.4630   16.5462 C   0  0  0  0  0  0  0  0  0  0  0  0
  -16.1760  -18.1269   21.8131 C   0  0  0  0  0  0  0  0  0  0  0  0
  -20.7847  -21.2273   17.6105 C   0  0  0  0  0  0  0  0  0  0  0  0
  -23.3463  -20.2845   18.7480 C   0  0  0  0  0  0  0  0  0  0  0  0
  -17.6009  -17.6279   21.5877 C   0  0  0  0  0  0  0  0  0  0  0  0
  -29.7941  -24.6891   17.8777 C   0  0  0  0  0  0  0  0  0  0  0  0
  -18.6115  -18.6504   22.0977 C   0  0  0  0  0  0  0  0  0  0  0  0
  -29.4878  -23.2881   18.4055 C   0  0  0  0  0  0  0  0  0  0  0  0
  -30.7146  -25.4564   18.8232 C   0  0  0  0  0  0  0  0  0  0  0  0
  -29.8956  -24.1429   20.7542 C   0  0  0  0  0  0  0  0  0  0  0  0
  -18.4824  -19.9782   21.3416 C   0  0  1  0  0  0  0  0  0  0  0  0
  -20.8827  -19.9239   18.3973 C   0  0  1  0  0  0  0  0  0  0  0  0
  -28.9452  -23.3468   19.8442 C   0  0  2  0  0  0  0  0  0  0  0  0
  -26.6318  -15.6413   15.4631 C   0  0  0  0  0  0  0  0  0  0  0  0
  -25.6020  -25.9940   21.3875 C   0  0  0  0  0  0  0  0  0  0  0  0
  -26.1530  -29.4548   25.6116 C   0  0  0  0  0  0  0  0  0  0  0  0
  -25.9921  -31.7374   24.5629 C   0  0  0  0  0  0  0  0  0  0  0  0
  -28.1533  -30.9261   25.4861 C   0  0  0  0  0  0  0  0  0  0  0  0
  -25.4525  -29.2045   19.0751 C   0  0  0  0  0  0  0  0  0  0  0  0
  -23.9233  -28.6436   20.9382 C   0  0  0  0  0  0  0  0  0  0  0  0
  -30.5152  -30.4246   20.5359 C   0  0  0  0  0  0  0  0  0  0  0  0
  -31.1471  -28.9912   22.4578 C   0  0  0  0  0  0  0  0  0  0  0  0
  -23.3626  -17.0611   21.0458 C   0  0  0  0  0  0  0  0  0  0  0  0
  -25.3189  -15.9753   19.9225 C   0  0  0  0  0  0  0  0  0  0  0  0
  -23.0014  -15.2200   19.3922 C   0  0  0  0  0  0  0  0  0  0  0  0
  -25.0530  -18.7179   13.8762 C   0  0  0  0  0  0  0  0  0  0  0  0
  -30.3239  -27.9284   20.3299 C   0  0  0  0  0  0  0  0  0  0  0  0
  -24.5351  -26.2407   19.1254 C   0  0  0  0  0  0  0  0  0  1  0  0
  -23.8025  -17.4587   18.5329 C   0  0  1  0  0  0  0  0  0  0  0  0
  -25.5612  -16.7024   15.2612 C   0  0  2  0  0  0  0  0  0  0  0  0
  -25.5646  -26.8453   20.1020 C   0  0  1  0  0  0  0  0  0  0  0  0
  -26.8910  -30.4681   24.6832 C   0  0  0  0  0  0  0  0  0  0  0  0
  -25.3503  -28.3862   20.3909 C   0  0  0  0  0  0  0  0  0  0  0  0
  -30.0870  -29.1339   21.3099 C   0  0  0  0  0  0  0  0  0  0  0  0
  -23.8663  -16.4565   19.7200 C   0  0  0  0  0  0  0  0  0  0  0  0
  -29.4316  -20.9341   20.0018 N   0  0  0  0  0  0  0  0  0  0  0  0
  -28.4606  -29.7896   22.9706 N   0  0  0  0  0  0  0  0  0  0  0  0
  -27.7323  -28.7886   20.9030 N   0  0  0  0  0  0  0  0  0  0  0  0
  -28.6612  -21.9622   20.3964 N   0  0  0  0  0  0  0  0  0  0  0  0
  -22.2395  -19.3735   18.4124 N   0  0  0  0  0  0  0  0  0  0  0  0
  -30.1762  -25.4657   20.1887 N   0  0  0  0  0  0  0  0  0  0  0  0
  -26.8203  -22.5215   21.7780 N   0  0  0  0  0  0  0  0  0  0  0  0
  -27.2900  -18.0755   22.4175 N   0  0  0  0  0  0  0  0  0  0  0  0
  -19.1044  -19.8803   20.0385 N   0  0  0  0  0  0  0  0  0  0  0  0
  -24.2480  -16.9050   17.2589 N   0  0  0  0  0  0  0  0  0  0  0  0
  -26.0202  -17.6360   14.1942 N   0  3  0  0  0  0  0  0  0  0  0  0
  -26.0496  -19.9180   22.9882 O   0  0  0  0  0  0  0  0  0  0  0  0
  -21.2917  -20.3525   20.6829 O   0  0  0  0  0  0  0  0  0  0  0  0
  -29.5125  -26.5924   22.1098 O   0  0  0  0  0  0  0  0  0  0  0  0
  -21.5014  -17.1969   18.0202 O   0  0  0  0  0  0  0  0  0  0  0  0
  -25.9354  -18.4511   16.8858 O   0  0  0  0  0  0  0  0  0  0  0  0
  -31.1128  -14.7924   20.0422 O   0  0  0  0  0  0  0  0  0  0  0  0
  -24.9257  -24.9151   18.7695 O   0  0  0  0  0  0  0  0  0  1  0  0
  -27.6348  -10.5735   19.3296 F   0  0  0  0  0  0  0  0  0  0  0  0
  -29.2235  -14.1719   21.9626 F   0  0  0  0  0  0  0  0  0  0  0  0
  1  2  1  0  0  0  0
  1  5  2  0  0  0  0
  2  6  2  0  0  0  0
  3  8  2  0  0  0  0
  3 16  1  0  0  0  0
  4  9  1  0  0  0  0
  4 16  2  0  0  0  0
  5 18  1  0  0  0  0
  6 20  1  0  0  0  0
  7 10  2  0  0  0  0
  7 19  1  0  0  0  0
  8 22  1  0  0  0  0
  9 22  2  0  0  0  0
 10 23  1  0  0  0  0
 11 12  2  0  0  0  0
 11 24  1  0  0  0  0
 12 25  1  0  0  0  0
 13 21  1  0  0  0  0
 13 23  2  0  0  0  0
 14 25  2  0  0  0  0
 14 26  1  0  0  0  0
 15 28  2  0  0  0  0
 15 29  1  0  0  0  0
 16 27  1  0  0  0  0
 17 27  1  0  0  0  0
 17 30  2  0  0  0  0
 17 32  1  0  0  0  0
 18 20  2  0  0  0  0
 18 37  1  0  0  0  0
 19 21  2  0  0  0  0
 19 38  1  0  0  0  0
 20 46  1  0  0  0  0
 21 39  1  0  0  0  0
 22 87  1  0  0  0  0
 23 88  1  0  0  0  0
 24 26  2  0  0  0  0
 24 87  1  0  0  0  0
 25 89  1  0  0  0  0
 26 90  1  0  0  0  0
 27 71  2  0  0  0  0
 28 67  1  0  0  0  0
 28 72  1  0  0  0  0
 29 68  1  0  0  0  0
 29 73  2  0  0  0  0
 30 74  1  0  0  0  0
 30 77  1  0  0  0  0
 31 69  1  0  0  0  0
 31 72  2  0  0  0  0
 31 73  1  0  0  0  0
 32 78  1  0  0  0  0
 32 82  2  0  0  0  0
 33 47  1  0  0  0  0
 33 79  1  0  0  0  0
 33 83  2  0  0  0  0
 34 62  1  0  0  0  0
 34 76  1  0  0  0  0
 34 84  2  0  0  0  0
 35 64  1  0  0  0  0
 35 75  1  0  0  0  0
 35 85  2  0  0  0  0
 36 65  1  0  0  0  0
 36 80  1  0  0  0  0
 36 86  2  0  0  0  0
 37 40  1  0  0  0  0
 38 47  1  0  0  0  0
 39 75  1  0  0  0  0
 40 42  1  0  0  0  0
 41 43  1  0  0  0  0
 41 44  1  0  0  0  0
 42 46  1  0  0  0  0
 43 48  1  0  0  0  0
 44 76  1  0  0  0  0
 45 48  1  0  0  0  0
 45 76  1  0  0  0  0
 46 79  1  0  0  0  0
 47 75  1  0  0  0  0
 48 74  1  0  0  0  0
 49 65  1  0  0  0  0
 50 66  1  0  0  0  0
 51 67  1  0  0  0  0
 52 67  1  0  0  0  0
 53 67  1  0  0  0  0
 54 68  1  0  0  0  0
 55 68  1  0  0  0  0
 56 69  1  0  0  0  0
 57 69  1  0  0  0  0
 58 70  1  0  0  0  0
 59 70  1  0  0  0  0
 60 70  1  0  0  0  0
 61 81  1  0  0  0  0
 62 69  1  0  0  0  0
 63 66  1  0  0  0  0
 63 88  1  0  0  0  0
 64 70  1  0  0  0  0
 64 80  1  0  0  0  0
 65 81  1  0  0  0  0
 66 68  1  0  0  0  0
 71 74  1  0  0  0  0
M  CHG  1  81   1
M  ISO  4  34 100  62 100  63 101  88 101
M  END
> <Batch ID>
0071

> <Smiles>
CNC(C)C(=O)NC(C(=O)N1Cc2cc([101O:1][101CH2:1]C(C)C(C)(C)c3cc(C(C)(C)C)nc(C(C)(C)[100CH2:0][100C:0](=O)N4CCCC(n5nc(-c6ccc(Oc7ccc(F)cc7F)cc6)c(C(N)=O)c5N)C4)n3)ccc2CC1C(=O)NC1CCCc2ccccc21)C(C)(C)C

> <Shape>
0.232

> <Color>
0.049

> <Negative vol penalty>
0.000

$$$$

  -OEChem-04052318223D

 86 94  0     1  0  0  0  0  0999 V2000
  -31.0626  -24.2781   18.6833 C   0  0  0  0  0  0  0  0  0  0  0  0
  -29.6876  -24.1367   18.8400 C   0  0  0  0  0  0  0  0  0  0  0  0
  -25.2800  -15.8209   19.6132 C   0  0  0  0  0  0  0  0  0  0  0  0
  -24.3196  -15.1944   21.7397 C   0  0  0  0  0  0  0  0  0  0  0  0
  -31.7875  -25.0660   19.5764 C   0  0  0  0  0  0  0  0  0  0  0  0
  -29.0367  -24.7824   19.8906 C   0  0  0  0  0  0  0  0  0  0  0  0
  -23.3903  -27.1529   19.8220 C   0  0  0  0  0  0  0  0  0  0  0  0
  -25.8668  -14.5600   19.5066 C   0  0  0  0  0  0  0  0  0  0  0  0
  -24.9063  -13.9334   21.6331 C   0  0  0  0  0  0  0  0  0  0  0  0
  -22.1635  -26.6671   20.2724 C   0  0  0  0  0  0  0  0  0  0  0  0
  -27.9138  -11.6280   18.8457 C   0  0  0  0  0  0  0  0  0  0  0  0
  -29.2454  -11.5632   18.4358 C   0  0  0  0  0  0  0  0  0  0  0  0
  -22.4500  -27.8772   22.3394 C   0  0  0  0  0  0  0  0  0  0  0  0
  -29.8985  -12.8879   20.3478 C   0  0  0  0  0  0  0  0  0  0  0  0
  -22.4253  -22.7513   26.2526 C   0  0  0  0  0  0  0  0  0  0  0  0
  -24.5065  -16.1382   20.7297 C   0  0  0  0  0  0  0  0  0  0  0  0
  -22.6280  -17.8283   20.3802 C   0  0  0  0  0  0  0  0  0  0  0  0
  -31.1438  -25.7294   20.6328 C   0  0  0  0  0  0  0  0  0  0  0  0
  -24.1625  -27.9972   20.6328 C   0  0  0  0  0  0  0  0  0  0  0  0
  -29.7539  -25.5788   20.7995 C   0  0  0  0  0  0  0  0  0  0  0  0
  -23.6850  -28.3744   21.8960 C   0  0  0  0  0  0  0  0  0  0  0  0
  -21.0996  -22.4724   26.0262 C   0  0  0  0  0  0  0  0  0  0  0  0
  -25.6799  -13.6162   20.5166 C   0  0  0  0  0  0  0  0  0  0  0  0
  -21.6945  -27.0269   21.5324 C   0  0  0  0  0  0  0  0  0  0  0  0
  -27.5745  -12.3228   20.0067 C   0  0  0  0  0  0  0  0  0  0  0  0
  -30.2378  -12.1931   19.1868 C   0  0  0  0  0  0  0  0  0  0  0  0
  -28.5668  -12.9527   20.7577 C   0  0  0  0  0  0  0  0  0  0  0  0
  -23.9006  -17.4407   20.8406 C   0  0  0  0  0  0  0  0  0  0  0  0
  -21.0978  -21.1587   25.5202 C   0  0  0  0  0  0  0  0  0  0  0  0
  -22.5267  -19.1537   20.7260 C   0  0  0  0  0  0  0  0  0  0  0  0
  -21.6268  -17.0591   19.7009 C   0  0  0  0  0  0  0  0  0  0  0  0
  -27.0485  -27.8159   21.9525 C   0  0  0  0  0  0  0  0  0  0  0  0
  -25.2273  -22.4034   24.9990 C   0  0  0  0  0  0  0  0  0  0  0  0
  -26.4255  -30.8841   22.8012 C   0  0  0  0  0  0  0  0  0  0  0  0
  -24.0993  -33.2986   23.4385 C   0  0  0  0  0  0  0  0  0  0  0  0
  -31.9765  -26.5320   21.6008 C   0  0  0  0  0  0  0  0  0  0  0  0
  -25.4712  -28.5341   20.1216 C   0  0  0  0  0  0  0  0  0  0  0  0
  -24.4664  -29.2945   22.7969 C   0  0  0  0  0  0  0  0  0  0  0  0
  -31.1556  -27.4847   22.4661 C   0  0  0  0  0  0  0  0  0  0  0  0
  -25.1870  -23.0500   21.4747 C   0  0  0  0  0  0  0  0  0  0  0  0
  -29.9330  -26.7708   23.0340 C   0  0  0  0  0  0  0  0  0  0  0  0
  -24.7645  -21.7121   20.8691 C   0  0  0  0  0  0  0  0  0  0  0  0
  -26.0559  -22.8528   22.7130 C   0  0  0  0  0  0  0  0  0  0  0  0
  -25.0057  -20.6580   23.1617 C   0  0  0  0  0  0  0  0  0  0  0  0
  -29.0082  -26.2834   21.9121 C   0  0  1  0  0  0  0  0  0  0  0  0
  -26.4131  -28.9749   21.2379 C   0  0  1  0  0  0  0  0  0  0  0  0
  -24.1010  -20.8117   21.9263 C   0  0  2  0  0  0  0  0  0  0  0  0
  -19.9365  -20.3523   25.1053 C   0  0  0  0  0  0  0  0  0  0  0  0
  -23.8929  -35.6969   24.1473 C   0  0  0  0  0  0  0  0  0  0  0  0
  -18.8665  -22.8306   27.2817 C   0  0  0  0  0  0  0  0  0  0  0  0
  -20.4176  -24.7228   26.8867 C   0  0  0  0  0  0  0  0  0  0  0  0
  -27.0648  -30.0869   25.6762 C   0  0  0  0  0  0  0  0  0  0  0  0
  -25.9465  -32.1943   26.4356 C   0  0  0  0  0  0  0  0  0  0  0  0
  -27.9721  -32.3124   24.9844 C   0  0  0  0  0  0  0  0  0  0  0  0
  -22.7477  -34.0490   20.9148 C   0  0  0  0  0  0  0  0  0  0  0  0
  -20.0339  -24.3879   23.8580 C   0  0  0  0  0  0  0  0  0  0  0  0
  -19.2451  -24.5938   22.5644 C   0  0  0  0  0  0  0  0  0  0  0  0
  -19.1577  -23.7410   24.9410 C   0  0  0  0  0  0  0  0  0  0  0  0
  -20.0879  -25.2738   21.4946 C   0  0  0  0  0  0  0  0  0  1  0  0
  -25.0988  -21.6065   27.3545 C   0  0  0  0  0  0  0  0  0  0  0  0
  -24.5404  -21.4447   25.9387 C   0  0  1  0  0  0  0  0  0  0  0  0
  -25.7758  -31.5543   23.9876 C   0  0  1  0  0  0  0  0  0  0  0  0
  -23.9878  -34.7383   22.9705 C   0  0  2  0  0  0  0  0  0  0  0  0
  -19.8951  -23.3987   26.2743 C   0  0  0  0  0  0  0  0  0  0  0  0
  -26.6757  -31.5181   25.2550 C   0  0  0  0  0  0  0  0  0  0  0  0
  -24.5606  -18.4392   21.4335 N   0  0  0  0  0  0  0  0  0  0  0  0
  -22.3250  -20.6391   25.4302 N   0  0  0  0  0  0  0  0  0  0  0  0
  -23.1103  -21.6314   25.8826 N   0  0  0  0  0  0  0  0  0  0  0  0
  -23.6994  -19.4673   21.3479 N   0  0  0  0  0  0  0  0  0  0  0  0
  -25.7430  -29.7881   22.2547 N   0  0  0  0  0  0  0  0  0  0  0  0
  -25.4003  -21.9740   23.6831 N   0  0  0  0  0  0  0  0  0  0  0  0
  -21.5500  -20.0699   20.5556 N   0  0  0  0  0  0  0  0  0  0  0  0
  -21.8937  -15.7114   19.4235 N   0  0  0  0  0  0  0  0  0  0  0  0
  -28.2313  -27.3840   21.3834 N   0  0  0  0  0  0  0  0  0  0  0  0
  -25.4141  -32.8982   23.5499 N   0  0  0  0  0  0  0  0  0  0  0  0
  -22.7755  -34.9147   22.1218 N   0  3  0  0  0  0  0  0  0  0  0  0
  -20.5347  -17.5564   19.3356 O   0  0  0  0  0  0  0  0  0  0  0  0
  -26.5065  -27.3491   22.9476 O   0  0  0  0  0  0  0  0  0  0  0  0
  -25.5957  -23.5019   25.4230 O   0  0  0  0  0  0  0  0  0  0  0  0
  -27.4955  -31.3216   22.3706 O   0  0  0  0  0  0  0  0  0  0  0  0
  -23.1184  -32.6002   23.6845 O   0  0  0  0  0  0  0  0  0  0  0  0
  -26.4887  -21.2964   27.3463 O   0  0  0  0  0  0  0  0  0  0  0  0
  -26.2520  -12.3856   20.4128 O   0  0  0  0  0  0  0  0  0  0  0  0
  -20.4977  -26.5537   21.9747 O   0  0  0  0  0  0  0  0  0  1  0  0
  -31.5168  -12.1295   18.7938 F   0  0  0  0  0  0  0  0  0  0  0  0
  -28.2471  -13.6207   21.8746 F   0  0  0  0  0  0  0  0  0  0  0  0
  1  2  1  0  0  0  0
  1  5  2  0  0  0  0
  2  6  2  0  0  0  0
  3  8  2  0  0  0  0
  3 16  1  0  0  0  0
  4  9  1  0  0  0  0
  4 16  2  0  0  0  0
  5 18  1  0  0  0  0
  6 20  1  0  0  0  0
  7 10  2  0  0  0  0
  7 19  1  0  0  0  0
  8 23  1  0  0  0  0
  9 23  2  0  0  0  0
 10 24  1  0  0  0  0
 11 12  2  0  0  0  0
 11 25  1  0  0  0  0
 12 26  1  0  0  0  0
 13 21  1  0  0  0  0
 13 24  2  0  0  0  0
 14 26  2  0  0  0  0
 14 27  1  0  0  0  0
 15 22  2  0  0  0  0
 15 68  1  0  0  0  0
 16 28  1  0  0  0  0
 17 28  1  0  0  0  0
 17 30  2  0  0  0  0
 17 31  1  0  0  0  0
 18 20  2  0  0  0  0
 18 36  1  0  0  0  0
 19 21  2  0  0  0  0
 19 37  1  0  0  0  0
 20 45  1  0  0  0  0
 21 38  1  0  0  0  0
 22 29  1  0  0  0  0
 22 64  1  0  0  0  0
 23 83  1  0  0  0  0
 24 84  1  0  0  0  0
 25 27  2  0  0  0  0
 25 83  1  0  0  0  0
 26 85  1  0  0  0  0
 27 86  1  0  0  0  0
 28 66  2  0  0  0  0
 29 48  1  0  0  0  0
 29 67  2  0  0  0  0
 30 69  1  0  0  0  0
 30 72  1  0  0  0  0
 31 73  1  0  0  0  0
 31 77  2  0  0  0  0
 32 46  1  0  0  0  0
 32 74  1  0  0  0  0
 32 78  2  0  0  0  0
 33 61  1  0  0  0  0
 33 71  1  0  0  0  0
 33 79  2  0  0  0  0
 34 62  1  0  0  0  0
 34 70  1  0  0  0  0
 34 80  2  0  0  0  0
 35 63  1  0  0  0  0
 35 75  1  0  0  0  0
 35 81  2  0  0  0  0
 36 39  1  0  0  0  0
 37 46  1  0  0  0  0
 38 70  1  0  0  0  0
 39 41  1  0  0  0  0
 40 42  1  0  0  0  0
 40 43  1  0  0  0  0
 41 45  1  0  0  0  0
 42 47  1  0  0  0  0
 43 71  1  0  0  0  0
 44 47  1  0  0  0  0
 44 71  1  0  0  0  0
 45 74  1  0  0  0  0
 46 70  1  0  0  0  0
 47 69  1  0  0  0  0
 49 63  1  0  0  0  0
 50 64  1  0  0  0  0
 51 64  1  0  0  0  0
 52 65  1  0  0  0  0
 53 65  1  0  0  0  0
 54 65  1  0  0  0  0
 55 76  1  0  0  0  0
 56 57  1  0  0  0  0
 56 58  1  0  0  0  0
 57 59  1  0  0  0  0
 58 64  1  0  0  0  0
 59 84  1  0  0  0  0
 60 61  1  0  0  0  0
 60 82  1  0  0  0  0
 61 68  1  0  0  0  0
 62 65  1  0  0  0  0
 62 75  1  0  0  0  0
 63 76  1  0  0  0  0
 66 69  1  0  0  0  0
 67 68  1  0  0  0  0
M  CHG  1  76   1
M  ISO  4  33 100  59 101  61 100  84 101
M  END
> <Batch ID>
0071

> <Smiles>
CNC(C)C(=O)NC(C(=O)N1Cc2cc([101O:1][101CH2:1]CCCC(C)(C)c3cn([100CH:0](CO)[100C:0](=O)N4CCCC(n5nc(-c6ccc(Oc7ccc(F)cc7F)cc6)c(C(N)=O)c5N)C4)nc3C)ccc2CC1C(=O)NC1CCCc2ccccc21)C(C)(C)C

> <Shape>
0.230

> <Color>
0.059

> <Negative vol penalty>
0.000

$$$$

  -OEChem-04052318223D

 84 92  0     1  0  0  0  0  0999 V2000
  -21.6174  -11.7517   19.9782 C   0  0  0  0  0  0  0  0  0  0  0  0
  -21.4673  -12.9182   20.7213 C   0  0  0  0  0  0  0  0  0  0  0  0
  -25.1408  -31.2076   26.2027 C   0  0  0  0  0  0  0  0  0  0  0  0
  -26.0504  -30.1877   24.2104 C   0  0  0  0  0  0  0  0  0  0  0  0
  -22.8935  -11.2705   19.6885 C   0  0  0  0  0  0  0  0  0  0  0  0
  -22.5933  -13.6035   21.1762 C   0  0  0  0  0  0  0  0  0  0  0  0
  -23.2224  -19.6663   21.7700 C   0  0  0  0  0  0  0  0  0  0  0  0
  -26.3022  -30.8784   26.9015 C   0  0  0  0  0  0  0  0  0  0  0  0
  -27.2119  -29.8585   24.9092 C   0  0  0  0  0  0  0  0  0  0  0  0
  -23.1112  -20.5178   22.8683 C   0  0  0  0  0  0  0  0  0  0  0  0
  -30.5646  -29.0682   26.0725 C   0  0  0  0  0  0  0  0  0  0  0  0
  -31.7883  -29.3095   25.4482 C   0  0  0  0  0  0  0  0  0  0  0  0
  -25.5018  -20.4225   23.1766 C   0  0  0  0  0  0  0  0  0  0  0  0
  -31.2542  -31.6617   25.3102 C   0  0  0  0  0  0  0  0  0  0  0  0
  -23.0009  -26.2484   23.2436 C   0  0  0  0  0  0  0  0  0  0  0  0
  -25.0149  -30.8622   24.8572 C   0  0  0  0  0  0  0  0  0  0  0  0
  -23.5626  -32.3840   23.4140 C   0  0  0  0  0  0  0  0  0  0  0  0
  -24.0358  -11.9556   20.1318 C   0  0  0  0  0  0  0  0  0  0  0  0
  -24.4751  -19.1770   21.3726 C   0  0  0  0  0  0  0  0  0  0  0  0
  -23.8858  -13.1303   20.8933 C   0  0  0  0  0  0  0  0  0  0  0  0
  -25.6265  -19.5670   22.0713 C   0  0  0  0  0  0  0  0  0  0  0  0
  -22.1137  -25.5785   24.1073 C   0  0  0  0  0  0  0  0  0  0  0  0
  -27.3378  -30.2039   26.2548 C   0  0  0  0  0  0  0  0  0  0  0  0
  -24.2507  -20.8937   23.5736 C   0  0  0  0  0  0  0  0  0  0  0  0
  -29.6856  -30.1237   26.3156 C   0  0  0  0  0  0  0  0  0  0  0  0
  -32.1332  -30.6062   25.0670 C   0  0  0  0  0  0  0  0  0  0  0  0
  -30.0304  -31.4204   25.9345 C   0  0  0  0  0  0  0  0  0  0  0  0
  -23.8152  -31.2015   24.1349 C   0  0  0  0  0  0  0  0  0  0  0  0
  -20.9172  -25.5721   23.4328 C   0  0  0  0  0  0  0  0  0  0  0  0
  -22.2926  -32.2189   22.9177 C   0  0  0  0  0  0  0  0  0  0  0  0
  -24.4010  -33.5292   23.2111 C   0  0  0  0  0  0  0  0  0  0  0  0
  -25.7850  -16.2901   21.1411 C   0  0  0  0  0  0  0  0  0  0  0  0
  -28.2360  -17.9374   19.7990 C   0  0  0  0  0  0  0  0  0  0  0  0
  -19.0592  -27.2961   21.7246 C   0  0  0  0  0  0  0  0  0  0  0  0
  -29.8924  -20.9020   19.4601 C   0  0  0  0  0  0  0  0  0  0  0  0
  -25.3940  -11.3711   19.8342 C   0  0  0  0  0  0  0  0  0  0  0  0
  -24.5811  -18.2807   20.1694 C   0  0  0  0  0  0  0  0  0  0  0  0
  -26.9969  -19.0856   21.6730 C   0  0  0  0  0  0  0  0  0  0  0  0
  -26.5397  -12.3599   20.0340 C   0  0  0  0  0  0  0  0  0  0  0  0
  -18.1522  -30.0295   23.8567 C   0  0  0  0  0  0  0  0  0  0  0  0
  -26.3815  -13.0997   21.3586 C   0  0  0  0  0  0  0  0  0  0  0  0
  -19.4827  -30.7306   24.1272 C   0  0  0  0  0  0  0  0  0  0  0  0
  -18.3295  -28.5184   23.7465 C   0  0  0  0  0  0  0  0  0  0  0  0
  -20.6709  -28.7977   22.9970 C   0  0  0  0  0  0  0  0  0  0  0  0
  -25.0832  -13.9153   21.3834 C   0  0  1  0  0  0  0  0  0  0  0  0
  -25.8488  -17.4319   20.1665 C   0  0  1  0  0  0  0  0  0  0  0  0
  -20.5413  -30.3287   23.0849 C   0  0  2  0  0  0  0  0  0  0  0  0
  -19.5167  -23.5026   23.6384 C   0  0  0  0  0  0  0  0  0  0  0  0
  -22.8234  -26.1050   26.4545 C   0  0  0  0  0  0  0  0  0  0  0  0
  -31.8817  -21.9286   18.3262 C   0  0  0  0  0  0  0  0  0  0  0  0
  -19.6317  -25.1269   20.6807 C   0  0  0  0  0  0  0  0  0  0  0  0
  -20.7623  -27.2416   19.9917 C   0  0  0  0  0  0  0  0  0  0  0  0
  -30.0795  -16.6073   21.8342 C   0  0  0  0  0  0  0  0  0  0  0  0
  -31.8072  -18.3375   21.2961 C   0  0  0  0  0  0  0  0  0  0  0  0
  -31.0211  -16.7688   19.5230 C   0  0  0  0  0  0  0  0  0  0  0  0
  -28.1981  -22.8059   17.9556 C   0  0  0  0  0  0  0  0  0  0  0  0
  -19.5967  -25.0250   23.7977 C   0  0  0  0  0  0  0  0  0  0  0  0
  -23.4945  -23.8943   25.4394 C   0  0  0  0  0  0  0  0  0  0  0  0
  -23.0748  -22.6682   24.6340 C   0  0  0  0  0  0  0  0  0  1  0  0
  -22.4174  -24.9956   25.4767 C   0  0  2  0  0  0  0  0  0  0  0  0
  -29.4831  -18.6108   20.3190 C   0  0  1  0  0  0  0  0  0  0  0  0
  -30.3910  -21.6426   18.2324 C   0  0  2  0  0  0  0  0  0  0  0  0
  -20.1986  -26.4622   21.1953 C   0  0  0  0  0  0  0  0  0  0  0  0
  -30.5718  -17.5888   20.7520 C   0  0  0  0  0  0  0  0  0  0  0  0
  -22.4179  -26.6390   22.1072 N   0  0  0  0  0  0  0  0  0  0  0  0
  -22.7880  -30.3482   24.1021 N   0  0  0  0  0  0  0  0  0  0  0  0
  -21.1515  -26.2132   22.2520 N   0  0  0  0  0  0  0  0  0  0  0  0
  -21.8777  -30.9953   23.3547 N   0  0  0  0  0  0  0  0  0  0  0  0
  -27.0480  -18.2060   20.4935 N   0  0  0  0  0  0  0  0  0  0  0  0
  -19.3590  -28.1784   22.7627 N   0  0  0  0  0  0  0  0  0  0  0  0
  -21.5014  -33.0024   22.1545 N   0  0  0  0  0  0  0  0  0  0  0  0
  -25.6767  -33.5346   23.7916 N   0  0  0  0  0  0  0  0  0  0  0  0
  -25.2374  -15.1341   20.6184 N   0  0  0  0  0  0  0  0  0  0  0  0
  -29.9128  -19.5357   19.2757 N   0  0  0  0  0  0  0  0  0  0  0  0
  -29.6722  -22.9394   18.0824 N   0  3  0  0  0  0  0  0  0  0  0  0
  -24.0237  -34.5254   22.5486 O   0  0  0  0  0  0  0  0  0  0  0  0
  -26.2032  -16.4459   22.2824 O   0  0  0  0  0  0  0  0  0  0  0  0
  -28.3119  -17.2059   18.8086 O   0  0  0  0  0  0  0  0  0  0  0  0
  -17.9375  -27.1679   21.2271 O   0  0  0  0  0  0  0  0  0  0  0  0
  -29.5252  -21.4778   20.4820 O   0  0  0  0  0  0  0  0  0  0  0  0
  -28.4713  -29.8827   26.9363 O   0  0  0  0  0  0  0  0  0  0  0  0
  -24.1449  -21.7241   24.6465 O   0  0  0  0  0  0  0  0  0  1  0  0
  -33.3090  -30.8379   24.4689 F   0  0  0  0  0  0  0  0  0  0  0  0
  -29.1907  -32.4386   26.1665 F   0  0  0  0  0  0  0  0  0  0  0  0
  1  2  1  0  0  0  0
  1  5  2  0  0  0  0
  2  6  2  0  0  0  0
  3  8  2  0  0  0  0
  3 16  1  0  0  0  0
  4  9  1  0  0  0  0
  4 16  2  0  0  0  0
  5 18  1  0  0  0  0
  6 20  1  0  0  0  0
  7 10  2  0  0  0  0
  7 19  1  0  0  0  0
  8 23  1  0  0  0  0
  9 23  2  0  0  0  0
 10 24  1  0  0  0  0
 11 12  2  0  0  0  0
 11 25  1  0  0  0  0
 12 26  1  0  0  0  0
 13 21  1  0  0  0  0
 13 24  2  0  0  0  0
 14 26  2  0  0  0  0
 14 27  1  0  0  0  0
 15 22  1  0  0  0  0
 15 65  2  0  0  0  0
 16 28  1  0  0  0  0
 17 28  1  0  0  0  0
 17 30  2  0  0  0  0
 17 31  1  0  0  0  0
 18 20  2  0  0  0  0
 18 36  1  0  0  0  0
 19 21  2  0  0  0  0
 19 37  1  0  0  0  0
 20 45  1  0  0  0  0
 21 38  1  0  0  0  0
 22 29  2  0  0  0  0
 22 60  1  0  0  0  0
 23 81  1  0  0  0  0
 24 82  1  0  0  0  0
 25 27  2  0  0  0  0
 25 81  1  0  0  0  0
 26 83  1  0  0  0  0
 27 84  1  0  0  0  0
 28 66  2  0  0  0  0
 29 57  1  0  0  0  0
 29 67  1  0  0  0  0
 30 68  1  0  0  0  0
 30 71  1  0  0  0  0
 31 72  1  0  0  0  0
 31 76  2  0  0  0  0
 32 46  1  0  0  0  0
 32 73  1  0  0  0  0
 32 77  2  0  0  0  0
 33 61  1  0  0  0  0
 33 69  1  0  0  0  0
 33 78  2  0  0  0  0
 34 63  1  0  0  0  0
 34 70  1  0  0  0  0
 34 79  2  0  0  0  0
 35 62  1  0  0  0  0
 35 74  1  0  0  0  0
 35 80  2  0  0  0  0
 36 39  1  0  0  0  0
 37 46  1  0  0  0  0
 38 69  1  0  0  0  0
 39 41  1  0  0  0  0
 40 42  1  0  0  0  0
 40 43  1  0  0  0  0
 41 45  1  0  0  0  0
 42 47  1  0  0  0  0
 43 70  1  0  0  0  0
 44 47  1  0  0  0  0
 44 70  1  0  0  0  0
 45 73  1  0  0  0  0
 46 69  1  0  0  0  0
 47 68  1  0  0  0  0
 48 57  1  0  0  0  0
 49 60  1  0  0  0  0
 50 62  1  0  0  0  0
 51 63  1  0  0  0  0
 52 63  1  0  0  0  0
 53 64  1  0  0  0  0
 54 64  1  0  0  0  0
 55 64  1  0  0  0  0
 56 75  1  0  0  0  0
 58 59  1  0  0  0  0
 58 60  1  0  0  0  0
 59 82  1  0  0  0  0
 61 64  1  0  0  0  0
 61 74  1  0  0  0  0
 62 75  1  0  0  0  0
 63 67  1  0  0  0  0
 65 67  1  0  0  0  0
 66 68  1  0  0  0  0
M  CHG  1  75   1
M  ISO  4  34 100  59 101  63 100  82 101
M  END
> <Batch ID>
0071

> <Smiles>
CCc1c(C(C)C[101CH2:1][101O:1]c2ccc3c(c2)CN(C(=O)C(NC(=O)C(C)NC)C(C)(C)C)C(C(=O)NC2CCCc4ccccc42)C3)cnn1[100C:0](C)(C)[100C:0](=O)N1CCCC(n2nc(-c3ccc(Oc4ccc(F)cc4F)cc3)c(C(N)=O)c2N)C1

> <Shape>
0.255

> <Color>
0.057

> <Negative vol penalty>
0.000

$$$$

  -OEChem-04052318223D

 81 89  0     1  0  0  0  0  0999 V2000
  -19.5691  -27.8527   26.7426 C   0  0  0  0  0  0  0  0  0  0  0  0
  -20.8232  -27.4610   26.2853 C   0  0  0  0  0  0  0  0  0  0  0  0
  -25.8138  -14.7799   19.1559 C   0  0  0  0  0  0  0  0  0  0  0  0
  -27.0473  -14.8580   21.2318 C   0  0  0  0  0  0  0  0  0  0  0  0
  -18.5952  -28.2663   25.8347 C   0  0  0  0  0  0  0  0  0  0  0  0
  -21.1038  -27.4817   24.9195 C   0  0  0  0  0  0  0  0  0  0  0  0
  -26.4709  -28.8046   22.2833 C   0  0  0  0  0  0  0  0  0  0  0  0
  -25.5875  -13.4161   19.3416 C   0  0  0  0  0  0  0  0  0  0  0  0
  -26.8209  -13.4942   21.4176 C   0  0  0  0  0  0  0  0  0  0  0  0
  -27.4920  -28.0001   21.7794 C   0  0  0  0  0  0  0  0  0  0  0  0
  -23.5189  -11.4601   21.1657 C   0  0  0  0  0  0  0  0  0  0  0  0
  -22.2299  -10.9796   20.9351 C   0  0  0  0  0  0  0  0  0  0  0  0
  -26.5587  -28.2127   19.5652 C   0  0  0  0  0  0  0  0  0  0  0  0
  -23.0852   -9.5087   19.2198 C   0  0  0  0  0  0  0  0  0  0  0  0
  -31.1901  -25.9774   17.7556 C   0  0  0  0  0  0  0  0  0  0  0  0
  -32.5124  -26.0533   18.0910 C   0  0  0  0  0  0  0  0  0  0  0  0
  -26.5437  -15.5008   20.1009 C   0  0  0  0  0  0  0  0  0  0  0  0
  -25.9691  -17.9738   20.3503 C   0  0  0  0  0  0  0  0  0  0  0  0
  -18.8671  -28.3013   24.4580 C   0  0  0  0  0  0  0  0  0  0  0  0
  -25.4781  -29.3111   21.4322 C   0  0  0  0  0  0  0  0  0  0  0  0
  -20.1321  -27.8949   23.9922 C   0  0  0  0  0  0  0  0  0  0  0  0
  -25.5275  -29.0255   20.0603 C   0  0  0  0  0  0  0  0  0  0  0  0
  -26.0911  -12.7733   20.4725 C   0  0  0  0  0  0  0  0  0  0  0  0
  -27.5344  -27.7017   20.4207 C   0  0  0  0  0  0  0  0  0  0  0  0
  -24.5910  -10.9650   20.4234 C   0  0  0  0  0  0  0  0  0  0  0  0
  -22.0131  -10.0038   19.9621 C   0  0  0  0  0  0  0  0  0  0  0  0
  -24.3742   -9.9893   19.4505 C   0  0  0  0  0  0  0  0  0  0  0  0
  -26.7783  -16.9095   19.9094 C   0  0  0  0  0  0  0  0  0  0  0  0
  -26.6226  -19.1028   19.9206 C   0  0  0  0  0  0  0  0  0  0  0  0
  -31.4836  -24.8487   19.6372 C   0  0  0  0  0  0  0  0  0  0  0  0
  -24.7370  -17.9443   21.0830 C   0  0  0  0  0  0  0  0  0  0  0  0
  -22.3227  -28.9885   21.2249 C   0  0  0  0  0  0  0  0  0  0  0  0
  -31.3771  -21.9879   19.3204 C   0  0  0  0  0  0  0  0  0  0  0  0
  -22.6336  -31.2526   18.9228 C   0  0  0  0  0  0  0  0  0  0  0  0
  -24.6284  -32.7835   16.6155 C   0  0  0  0  0  0  0  0  0  0  0  0
  -17.7670  -28.7108   23.5110 C   0  0  0  0  0  0  0  0  0  0  0  0
  -24.3985  -30.1994   21.9870 C   0  0  0  0  0  0  0  0  0  0  0  0
  -24.4972  -29.5612   19.1012 C   0  0  0  0  0  0  0  0  0  0  0  0
  -18.2668  -29.0606   22.1116 C   0  0  0  0  0  0  0  0  0  0  0  0
  -30.5053  -19.6604   16.7391 C   0  0  0  0  0  0  0  0  0  0  0  0
  -19.2473  -28.0029   21.6150 C   0  0  0  0  0  0  0  0  0  0  0  0
  -29.4130  -18.8056   17.3805 C   0  0  0  0  0  0  0  0  0  0  0  0
  -31.5589  -20.0783   17.7601 C   0  0  0  0  0  0  0  0  0  0  0  0
  -29.9092  -19.9288   19.5979 C   0  0  0  0  0  0  0  0  0  0  0  0
  -20.4826  -27.9272   22.5204 C   0  0  1  0  0  0  0  0  0  0  0  0
  -23.1489  -30.2385   21.1127 C   0  0  1  0  0  0  0  0  0  0  0  0
  -28.8082  -19.5108   18.6074 C   0  0  2  0  0  0  0  0  0  0  0  0
  -24.5910  -34.5738   14.8574 C   0  0  0  0  0  0  0  0  0  0  0  0
  -32.5746  -23.8156   21.6453 C   0  0  0  0  0  0  0  0  0  0  0  0
  -30.2528  -24.6460   21.9052 C   0  0  0  0  0  0  0  0  0  0  0  0
  -21.1149  -29.3805   17.0522 C   0  0  0  0  0  0  0  0  0  0  0  0
  -21.9267  -30.7592   15.1265 C   0  0  0  0  0  0  0  0  0  0  0  0
  -20.4681  -31.7893   16.8683 C   0  0  0  0  0  0  0  0  0  0  0  0
  -26.7107  -34.3582   18.0096 C   0  0  0  0  0  0  0  0  0  0  0  0
  -30.6920  -22.5900   20.5212 C   0  0  0  0  0  0  0  0  0  0  0  0
  -29.1086  -24.8802   18.7639 C   0  0  0  0  0  0  0  0  0  0  0  0
  -28.2214  -26.1202   18.7828 C   0  0  0  0  0  0  0  0  0  1  0  0
  -22.8698  -31.2359   17.4318 C   0  0  1  0  0  0  0  0  0  0  0  0
  -24.8786  -34.2504   16.3152 C   0  0  2  0  0  0  0  0  0  0  0  0
  -31.2411  -24.0285   20.8499 C   0  0  0  0  0  0  0  0  0  0  0  0
  -21.6133  -30.7794   16.6379 C   0  0  0  0  0  0  0  0  0  0  0  0
  -27.8628  -17.3253   19.2499 N   0  0  0  0  0  0  0  0  0  0  0  0
  -30.5775  -25.2258   18.7293 N   0  0  0  0  0  0  0  0  0  0  0  0
  -27.7397  -18.6634   19.2732 N   0  0  0  0  0  0  0  0  0  0  0  0
  -32.6654  -25.3465   19.2593 N   0  3  0  0  0  0  0  0  0  0  0  0
  -23.4580  -30.4200   19.6929 N   0  0  0  0  0  0  0  0  0  0  0  0
  -30.9425  -20.7242   18.9202 N   0  0  0  0  0  0  0  0  0  0  0  0
  -26.3447  -20.4188   20.0370 N   0  0  0  0  0  0  0  0  0  0  0  0
  -24.2047  -16.6995   21.4452 N   0  0  0  0  0  0  0  0  0  0  0  0
  -21.3839  -29.0238   22.2383 N   0  0  0  0  0  0  0  0  0  0  0  0
  -23.3478  -32.5684   17.0793 N   0  0  0  0  0  0  0  0  0  0  0  0
  -26.2974  -34.6035   16.6039 N   0  3  0  0  0  0  0  0  0  0  0  0
  -24.1178  -18.9904   21.3925 O   0  0  0  0  0  0  0  0  0  0  0  0
  -22.5212  -28.0614   20.4486 O   0  0  0  0  0  0  0  0  0  0  0  0
  -32.2696  -22.6245   18.7544 O   0  0  0  0  0  0  0  0  0  0  0  0
  -21.7550  -31.9830   19.3877 O   0  0  0  0  0  0  0  0  0  0  0  0
  -25.4822  -31.9149   16.4511 O   0  0  0  0  0  0  0  0  0  0  0  0
  -25.8702  -11.4426   20.6541 O   0  0  0  0  0  0  0  0  0  0  0  0
  -28.5296  -26.9162   19.9264 O   0  0  0  0  0  0  0  0  0  1  0  0
  -20.7754   -9.5413   19.7418 F   0  0  0  0  0  0  0  0  0  0  0  0
  -25.4005   -9.5090   18.7350 F   0  0  0  0  0  0  0  0  0  0  0  0
  1  2  1  0  0  0  0
  1  5  2  0  0  0  0
  2  6  2  0  0  0  0
  3  8  2  0  0  0  0
  3 17  1  0  0  0  0
  4  9  1  0  0  0  0
  4 17  2  0  0  0  0
  5 19  1  0  0  0  0
  6 21  1  0  0  0  0
  7 10  2  0  0  0  0
  7 20  1  0  0  0  0
  8 23  1  0  0  0  0
  9 23  2  0  0  0  0
 10 24  1  0  0  0  0
 11 12  2  0  0  0  0
 11 25  1  0  0  0  0
 12 26  1  0  0  0  0
 13 22  1  0  0  0  0
 13 24  2  0  0  0  0
 14 26  2  0  0  0  0
 14 27  1  0  0  0  0
 15 16  2  0  0  0  0
 15 63  1  0  0  0  0
 16 65  1  0  0  0  0
 17 28  1  0  0  0  0
 18 28  1  0  0  0  0
 18 29  2  0  0  0  0
 18 31  1  0  0  0  0
 19 21  2  0  0  0  0
 19 36  1  0  0  0  0
 20 22  2  0  0  0  0
 20 37  1  0  0  0  0
 21 45  1  0  0  0  0
 22 38  1  0  0  0  0
 23 78  1  0  0  0  0
 24 79  1  0  0  0  0
 25 27  2  0  0  0  0
 25 78  1  0  0  0  0
 26 80  1  0  0  0  0
 27 81  1  0  0  0  0
 28 62  2  0  0  0  0
 29 64  1  0  0  0  0
 29 68  1  0  0  0  0
 30 60  1  0  0  0  0
 30 63  1  0  0  0  0
 30 65  2  0  0  0  0
 31 69  1  0  0  0  0
 31 73  2  0  0  0  0
 32 46  1  0  0  0  0
 32 70  1  0  0  0  0
 32 74  2  0  0  0  0
 33 55  1  0  0  0  0
 33 67  1  0  0  0  0
 33 75  2  0  0  0  0
 34 58  1  0  0  0  0
 34 66  1  0  0  0  0
 34 76  2  0  0  0  0
 35 59  1  0  0  0  0
 35 71  1  0  0  0  0
 35 77  2  0  0  0  0
 36 39  1  0  0  0  0
 37 46  1  0  0  0  0
 38 66  1  0  0  0  0
 39 41  1  0  0  0  0
 40 42  1  0  0  0  0
 40 43  1  0  0  0  0
 41 45  1  0  0  0  0
 42 47  1  0  0  0  0
 43 67  1  0  0  0  0
 44 47  1  0  0  0  0
 44 67  1  0  0  0  0
 45 70  1  0  0  0  0
 46 66  1  0  0  0  0
 47 64  1  0  0  0  0
 48 59  1  0  0  0  0
 49 60  1  0  0  0  0
 50 60  1  0  0  0  0
 51 61  1  0  0  0  0
 52 61  1  0  0  0  0
 53 61  1  0  0  0  0
 54 72  1  0  0  0  0
 55 60  1  0  0  0  0
 56 57  1  0  0  0  0
 56 63  1  0  0  0  0
 57 79  1  0  0  0  0
 58 61  1  0  0  0  0
 58 71  1  0  0  0  0
 59 72  1  0  0  0  0
 62 64  1  0  0  0  0
M  CHG  2  65   1  72   1
M  ISO  4  33 100  55 100  57 101  79 101
M  END
> <Batch ID>
0071

> <Smiles>
CNC(C)C(=O)NC(C(=O)N1Cc2cc([101O:1][101CH2:1]Cn3ccnc3C(C)(C)[100CH2:0][100C:0](=O)N3CCCC(n4nc(-c5ccc(Oc6ccc(F)cc6F)cc5)c(C(N)=O)c4N)C3)ccc2CC1C(=O)NC1CCCc2ccccc21)C(C)(C)C

> <Shape>
0.227

> <Color>
0.087

> <Negative vol penalty>
0.000

$$$$

  -OEChem-04052318223D

 84 92  0     1  0  0  0  0  0999 V2000
  -16.4411  -25.7166   20.9360 C   0  0  0  0  0  0  0  0  0  0  0  0
  -17.4031  -25.7753   19.9328 C   0  0  0  0  0  0  0  0  0  0  0  0
  -26.8560  -13.7665   21.6244 C   0  0  0  0  0  0  0  0  0  0  0  0
  -26.7502  -13.5126   19.2241 C   0  0  0  0  0  0  0  0  0  0  0  0
  -16.6653  -26.3579   22.1535 C   0  0  0  0  0  0  0  0  0  0  0  0
  -18.5895  -26.4764   20.1461 C   0  0  0  0  0  0  0  0  0  0  0  0
  -22.6669  -23.9211   18.5681 C   0  0  0  0  0  0  0  0  0  0  0  0
  -26.1488  -12.5745   21.7816 C   0  0  0  0  0  0  0  0  0  0  0  0
  -26.0430  -12.3207   19.3813 C   0  0  0  0  0  0  0  0  0  0  0  0
  -22.9245  -23.9164   17.1979 C   0  0  0  0  0  0  0  0  0  0  0  0
  -22.9373  -11.5395   21.5832 C   0  0  0  0  0  0  0  0  0  0  0  0
  -21.8947  -11.5228   22.5095 C   0  0  0  0  0  0  0  0  0  0  0  0
  -24.5831  -25.6400   17.5101 C   0  0  0  0  0  0  0  0  0  0  0  0
  -23.0128   -9.7672   23.7363 C   0  0  0  0  0  0  0  0  0  0  0  0
  -27.4003  -22.5231   13.9075 C   0  0  0  0  0  0  0  0  0  0  0  0
  -28.0888  -24.2843   15.0391 C   0  0  0  0  0  0  0  0  0  0  0  0
  -27.1567  -14.2356   20.3456 C   0  0  0  0  0  0  0  0  0  0  0  0
  -29.2836  -15.6233   20.1042 C   0  0  0  0  0  0  0  0  0  0  0  0
  -17.8591  -27.0591   22.3854 C   0  0  0  0  0  0  0  0  0  0  0  0
  -23.3589  -24.7944   19.4195 C   0  0  0  0  0  0  0  0  0  0  0  0
  -18.8292  -27.1288   21.3674 C   0  0  0  0  0  0  0  0  0  0  0  0
  -24.3342  -25.6520   18.8910 C   0  0  0  0  0  0  0  0  0  0  0  0
  -25.7424  -11.8516   20.6601 C   0  0  0  0  0  0  0  0  0  0  0  0
  -23.8806  -24.7780   16.6683 C   0  0  0  0  0  0  0  0  0  0  0  0
  -24.0177  -10.6700   21.7333 C   0  0  0  0  0  0  0  0  0  0  0  0
  -21.9324  -10.6367   23.5861 C   0  0  0  0  0  0  0  0  0  0  0  0
  -24.0555   -9.7839   22.8099 C   0  0  0  0  0  0  0  0  0  0  0  0
  -27.8867  -15.4671   20.1825 C   0  0  0  0  0  0  0  0  0  0  0  0
  -26.4062  -23.4656   14.0247 C   0  0  0  0  0  0  0  0  0  0  0  0
  -29.4699  -16.9756   19.9522 C   0  0  0  0  0  0  0  0  0  0  0  0
  -30.3201  -14.6344   20.1636 C   0  0  0  0  0  0  0  0  0  0  0  0
  -22.5237  -27.1854   21.3403 C   0  0  0  0  0  0  0  0  0  0  0  0
  -25.6553  -27.0881   22.1805 C   0  0  0  0  0  0  0  0  0  0  0  0
  -28.8530  -26.2345   21.3484 C   0  0  0  0  0  0  0  0  0  0  0  0
  -28.1076  -21.8394   17.5789 C   0  0  0  0  0  0  0  0  0  0  0  0
  -18.0361  -27.7762   23.7004 C   0  0  0  0  0  0  0  0  0  0  0  0
  -23.0883  -24.7683   20.8989 C   0  0  0  0  0  0  0  0  0  0  0  0
  -25.1191  -26.5946   19.7651 C   0  0  0  0  0  0  0  0  0  0  0  0
  -19.4800  -28.1832   23.9826 C   0  0  0  0  0  0  0  0  0  0  0  0
  -26.2157  -20.8201   20.4176 C   0  0  0  0  0  0  0  0  0  0  0  0
  -20.1012  -28.8353   22.7515 C   0  0  0  0  0  0  0  0  0  0  0  0
  -26.5922  -19.3486   20.5989 C   0  0  0  0  0  0  0  0  0  0  0  0
  -26.1387  -21.2052   18.9419 C   0  0  0  0  0  0  0  0  0  0  0  0
  -27.7216  -19.4159   18.3365 C   0  0  0  0  0  0  0  0  0  0  0  0
  -20.1394  -27.8586   21.5699 C   0  0  1  0  0  0  0  0  0  0  0  0
  -23.4868  -26.0622   21.6021 C   0  0  1  0  0  0  0  0  0  0  0  0
  -27.8663  -18.9943   19.8088 C   0  0  2  0  0  0  0  0  0  0  0  0
  -31.2040  -26.3136   22.2227 C   0  0  0  0  0  0  0  0  0  0  0  0
  -24.6495  -22.1026   12.7073 C   0  0  0  0  0  0  0  0  0  0  0  0
  -24.7538  -24.5764   12.4899 C   0  0  0  0  0  0  0  0  0  0  0  0
  -25.7904  -30.0684   21.5406 C   0  0  0  0  0  0  0  0  0  0  0  0
  -28.2865  -29.8769   21.5069 C   0  0  0  0  0  0  0  0  0  0  0  0
  -27.0280  -29.3874   23.6043 C   0  0  0  0  0  0  0  0  0  0  0  0
  -29.8878  -21.0514   14.0737 C   0  0  0  0  0  0  0  0  0  0  0  0
  -30.8305  -23.3462   14.0437 C   0  0  0  0  0  0  0  0  0  0  0  0
  -29.0975  -23.2856   21.2898 C   0  0  0  0  0  0  0  0  0  0  0  0
  -30.1341  -22.3214   16.2297 C   0  0  0  0  0  0  0  0  0  0  0  0
  -23.9461  -23.5436   14.6366 C   0  0  0  0  0  0  0  0  0  1  0  0
  -26.9171  -27.7496   21.6814 C   0  0  1  0  0  0  0  0  0  0  0  0
  -29.9296  -25.4903   22.1177 C   0  0  2  0  0  0  0  0  0  0  0  0
  -24.9674  -23.4066   13.4780 C   0  0  0  0  0  0  0  0  0  0  0  0
  -26.9895  -29.2543   22.0663 C   0  0  0  0  0  0  0  0  0  0  0  0
  -29.7685  -22.4507   14.7258 C   0  0  0  0  0  0  0  0  0  0  0  0
  -26.8411  -24.5597   14.7299 N   0  0  0  0  0  0  0  0  0  0  0  0
  -27.2320  -16.6275   20.0882 N   0  0  0  0  0  0  0  0  0  0  0  0
  -28.4721  -23.0618   14.5618 N   0  0  0  0  0  0  0  0  0  0  0  0
  -28.2219  -17.5257   19.9491 N   0  0  0  0  0  0  0  0  0  0  0  0
  -24.8139  -26.5362   21.2042 N   0  0  0  0  0  0  0  0  0  0  0  0
  -27.3785  -20.8441   18.2503 N   0  0  0  0  0  0  0  0  0  0  0  0
  -30.5778  -17.7358   19.8222 N   0  0  0  0  0  0  0  0  0  0  0  0
  -29.9535  -13.2910   20.3225 N   0  0  0  0  0  0  0  0  0  0  0  0
  -21.2254  -26.9153   21.7288 N   0  0  0  0  0  0  0  0  0  0  0  0
  -28.0260  -26.9490   22.1891 N   0  0  0  0  0  0  0  0  0  0  0  0
  -29.2737  -21.4133   16.9550 N   0  0  0  0  0  0  0  0  0  0  0  0
  -30.2555  -24.2040   21.4394 N   0  3  0  0  0  0  0  0  0  0  0  0
  -31.5360  -14.9350   20.0946 O   0  0  0  0  0  0  0  0  0  0  0  0
  -22.9288  -28.2209   20.8253 O   0  0  0  0  0  0  0  0  0  0  0  0
  -25.4281  -27.0558   23.3925 O   0  0  0  0  0  0  0  0  0  0  0  0
  -28.7578  -26.1896   20.1239 O   0  0  0  0  0  0  0  0  0  0  0  0
  -27.7489  -23.0214   17.5430 O   0  0  0  0  0  0  0  0  0  0  0  0
  -25.0525  -10.6883   20.8132 O   0  0  0  0  0  0  0  0  0  0  0  0
  -24.1336  -24.7760   15.3312 O   0  0  0  0  0  0  0  0  0  1  0  0
  -20.9318  -10.6218   24.4765 F   0  0  0  0  0  0  0  0  0  0  0  0
  -25.0913   -8.9471   22.9601 F   0  0  0  0  0  0  0  0  0  0  0  0
  1  2  1  0  0  0  0
  1  5  2  0  0  0  0
  2  6  2  0  0  0  0
  3  8  2  0  0  0  0
  3 17  1  0  0  0  0
  4  9  1  0  0  0  0
  4 17  2  0  0  0  0
  5 19  1  0  0  0  0
  6 21  1  0  0  0  0
  7 10  2  0  0  0  0
  7 20  1  0  0  0  0
  8 23  1  0  0  0  0
  9 23  2  0  0  0  0
 10 24  1  0  0  0  0
 11 12  2  0  0  0  0
 11 25  1  0  0  0  0
 12 26  1  0  0  0  0
 13 22  1  0  0  0  0
 13 24  2  0  0  0  0
 14 26  2  0  0  0  0
 14 27  1  0  0  0  0
 15 29  2  0  0  0  0
 15 66  1  0  0  0  0
 16 64  2  0  0  0  0
 16 66  1  0  0  0  0
 17 28  1  0  0  0  0
 18 28  1  0  0  0  0
 18 30  2  0  0  0  0
 18 31  1  0  0  0  0
 19 21  2  0  0  0  0
 19 36  1  0  0  0  0
 20 22  2  0  0  0  0
 20 37  1  0  0  0  0
 21 45  1  0  0  0  0
 22 38  1  0  0  0  0
 23 81  1  0  0  0  0
 24 82  1  0  0  0  0
 25 27  2  0  0  0  0
 25 81  1  0  0  0  0
 26 83  1  0  0  0  0
 27 84  1  0  0  0  0
 28 65  2  0  0  0  0
 29 61  1  0  0  0  0
 29 64  1  0  0  0  0
 30 67  1  0  0  0  0
 30 70  1  0  0  0  0
 31 71  1  0  0  0  0
 31 76  2  0  0  0  0
 32 46  1  0  0  0  0
 32 72  1  0  0  0  0
 32 77  2  0  0  0  0
 33 59  1  0  0  0  0
 33 68  1  0  0  0  0
 33 78  2  0  0  0  0
 34 60  1  0  0  0  0
 34 73  1  0  0  0  0
 34 79  2  0  0  0  0
 35 69  1  0  0  0  0
 35 74  1  0  0  0  0
 35 80  2  0  0  0  0
 36 39  1  0  0  0  0
 37 46  1  0  0  0  0
 38 68  1  0  0  0  0
 39 41  1  0  0  0  0
 40 42  1  0  0  0  0
 40 43  1  0  0  0  0
 41 45  1  0  0  0  0
 42 47  1  0  0  0  0
 43 69  1  0  0  0  0
 44 47  1  0  0  0  0
 44 69  1  0  0  0  0
 45 72  1  0  0  0  0
 46 68  1  0  0  0  0
 47 67  1  0  0  0  0
 48 60  1  0  0  0  0
 49 61  1  0  0  0  0
 50 61  1  0  0  0  0
 51 62  1  0  0  0  0
 52 62  1  0  0  0  0
 53 62  1  0  0  0  0
 54 63  1  0  0  0  0
 55 63  1  0  0  0  0
 56 75  1  0  0  0  0
 57 63  1  0  0  0  0
 57 74  1  0  0  0  0
 58 61  1  0  0  0  0
 58 82  1  0  0  0  0
 59 62  1  0  0  0  0
 59 73  1  0  0  0  0
 60 75  1  0  0  0  0
 63 66  1  0  0  0  0
 65 67  1  0  0  0  0
M  CHG  1  75   1
M  ISO  4  35 100  58 101  74 100  82 101
M  END
> <Batch ID>
0071

> <Smiles>
CNC(C)C(=O)NC(C(=O)N1Cc2cc([101O:1][101CH2:1]C(C)(C)c3cn(C(C)(C)C[100NH:0][100C:0](=O)N4CCCC(n5nc(-c6ccc(Oc7ccc(F)cc7F)cc6)c(C(N)=O)c5N)C4)cn3)ccc2CC1C(=O)NC1CCCc2ccccc21)C(C)(C)C

> <Shape>
0.210

> <Color>
0.070

> <Negative vol penalty>
0.000

$$$$

  -OEChem-04052318223D

 91 99  0     1  0  0  0  0  0999 V2000
  -31.8658  -28.2021   20.6428 C   0  0  0  0  0  0  0  0  0  0  0  0
  -32.2939  -26.9399   21.0383 C   0  0  0  0  0  0  0  0  0  0  0  0
  -25.0889  -25.4445   22.6950 C   0  0  0  0  0  0  0  0  0  0  0  0
  -22.7703  -25.1610   23.3122 C   0  0  0  0  0  0  0  0  0  0  0  0
  -30.6051  -28.3588   20.0709 C   0  0  0  0  0  0  0  0  0  0  0  0
  -31.4663  -25.8322   20.8511 C   0  0  0  0  0  0  0  0  0  0  0  0
  -30.6702  -18.8423   22.2354 C   0  0  0  0  0  0  0  0  0  0  0  0
  -24.9356  -26.8295   22.7551 C   0  0  0  0  0  0  0  0  0  0  0  0
  -22.6170  -26.5461   23.3724 C   0  0  0  0  0  0  0  0  0  0  0  0
  -29.8448  -17.8875   22.8276 C   0  0  0  0  0  0  0  0  0  0  0  0
  -23.6534  -29.2799   20.8119 C   0  0  0  0  0  0  0  0  0  0  0  0
  -24.1938  -30.0368   19.7723 C   0  0  0  0  0  0  0  0  0  0  0  0
  -28.3728  -17.9847   20.9189 C   0  0  0  0  0  0  0  0  0  0  0  0
  -25.6008  -31.2030   21.3526 C   0  0  0  0  0  0  0  0  0  0  0  0
  -24.0062  -24.6102   22.9734 C   0  0  0  0  0  0  0  0  0  0  0  0
  -24.5473  -22.3198   23.9578 C   0  0  0  0  0  0  0  0  0  0  0  0
  -29.7572  -27.2539   19.8884 C   0  0  0  0  0  0  0  0  0  0  0  0
  -30.3468  -19.3844   20.9832 C   0  0  0  0  0  0  0  0  0  0  0  0
  -30.1999  -25.9663   20.2538 C   0  0  0  0  0  0  0  0  0  0  0  0
  -29.1971  -18.9444   20.3118 C   0  0  0  0  0  0  0  0  0  0  0  0
  -23.6997  -27.3804   23.0938 C   0  0  0  0  0  0  0  0  0  0  0  0
  -28.6944  -17.4606   22.1707 C   0  0  0  0  0  0  0  0  0  0  0  0
  -24.0867  -29.4846   22.1219 C   0  0  0  0  0  0  0  0  0  0  0  0
  -25.1675  -30.9983   20.0426 C   0  0  0  0  0  0  0  0  0  0  0  0
  -25.0604  -30.4461   22.3923 C   0  0  0  0  0  0  0  0  0  0  0  0
  -24.1637  -23.1793   22.9109 C   0  0  0  0  0  0  0  0  0  0  0  0
  -26.6002  -12.0933   21.1000 C   0  0  0  0  0  0  0  0  0  0  0  0
  -26.2526  -13.3166   21.6226 C   0  0  0  0  0  0  0  0  0  0  0  0
  -24.5486  -21.0684   23.3915 C   0  0  0  0  0  0  0  0  0  0  0  0
  -24.6311  -12.4769   20.3889 C   0  0  0  0  0  0  0  0  0  0  0  0
  -24.8731  -22.6251   25.3202 C   0  0  0  0  0  0  0  0  0  0  0  0
  -29.6678  -22.2975   19.9077 C   0  0  0  0  0  0  0  0  0  0  0  0
  -29.7215  -20.8204   17.0203 C   0  0  0  0  0  0  0  0  0  0  0  0
  -29.4103  -17.9248   15.2410 C   0  0  0  0  0  0  0  0  0  0  0  0
  -22.1760  -17.1867   20.1591 C   0  0  0  0  0  0  0  0  0  0  0  0
  -28.4059  -27.4793   19.2573 C   0  0  0  0  0  0  0  0  0  0  0  0
  -31.2617  -20.3939   20.3458 C   0  0  0  0  0  0  0  0  0  0  0  0
  -28.8162  -19.4803   18.9567 C   0  0  0  0  0  0  0  0  0  0  0  0
  -27.4343  -26.3303   19.5064 C   0  0  0  0  0  0  0  0  0  0  0  0
  -24.1883  -19.6447   18.5511 C   0  0  0  0  0  0  0  0  0  0  0  0
  -28.1008  -25.0042   19.1718 C   0  0  0  0  0  0  0  0  0  0  0  0
  -24.3875  -20.7147   19.6260 C   0  0  0  0  0  0  0  0  0  0  0  0
  -22.7932  -19.0276   18.6207 C   0  0  0  0  0  0  0  0  0  0  0  0
  -22.6153  -19.5667   21.0189 C   0  0  0  0  0  0  0  0  0  0  0  0
  -29.3047  -24.7516   20.0881 C   0  0  1  0  0  0  0  0  0  0  0  0
  -30.5633  -21.2560   19.2987 C   0  0  1  0  0  0  0  0  0  0  0  0
  -24.0266  -20.1786   21.0244 C   0  0  2  0  0  0  0  0  0  0  0  0
  -23.3140  -12.3883   19.7250 C   0  0  0  0  0  0  0  0  0  0  0  0
  -29.3802   -8.2032   19.5310 C   0  0  0  0  0  0  0  0  0  0  0  0
  -28.3685  -13.7201   22.9234 C   0  0  0  0  0  0  0  0  0  0  0  0
  -29.4685  -17.0392   12.8937 C   0  0  0  0  0  0  0  0  0  0  0  0
  -26.9411  -21.9727   16.5191 C   0  0  0  0  0  0  0  0  0  0  0  0
  -26.6711  -20.3258   14.6528 C   0  0  0  0  0  0  0  0  0  0  0  0
  -28.4729  -22.0474   14.5436 C   0  0  0  0  0  0  0  0  0  0  0  0
  -24.4628  -15.3593   22.8086 C   0  0  0  0  0  0  0  0  0  0  0  0
  -24.5665  -15.7869   20.3761 C   0  0  0  0  0  0  0  0  0  0  0  0
  -21.3811  -15.3557   23.3407 C   0  0  0  0  0  0  0  0  0  0  0  0
  -20.2319  -15.1347   21.1455 C   0  0  0  0  0  0  0  0  0  0  0  0
  -31.7025  -16.1523   15.8431 C   0  0  0  0  0  0  0  0  0  0  0  0
  -27.8575  -11.3484   21.2728 C   0  0  0  0  0  0  0  0  0  0  0  0
  -29.2849   -9.3765   20.4932 C   0  0  0  0  0  0  0  0  0  0  0  0
  -27.9980  -10.1734   20.2795 C   0  0  0  0  0  0  0  0  0  0  0  0
  -22.6381  -14.4415   21.2718 C   0  0  0  0  0  0  0  0  0  0  0  0
  -27.1606  -15.6680   21.8708 C   0  0  0  0  0  0  0  0  0  1  0  0
  -27.0040  -14.2866   22.5209 C   0  0  1  0  0  0  0  0  0  0  0  0
  -28.6997  -20.1168   16.1602 C   0  0  1  0  0  0  0  0  0  0  0  0
  -30.2749  -17.3128   14.1537 C   0  0  2  0  0  0  0  0  0  0  0  0
  -27.7021  -21.1068   15.4953 C   0  0  0  0  0  0  0  0  0  0  0  0
  -24.1788  -14.7142   21.4331 C   0  0  0  0  0  0  0  0  0  0  0  0
  -21.5807  -15.4459   21.8248 C   0  0  0  0  0  0  0  0  0  0  0  0
  -23.9380  -22.5290   21.7663 N   0  0  0  0  0  0  0  0  0  0  0  0
  -25.5867  -11.5760   20.3327 N   0  0  0  0  0  0  0  0  0  0  0  0
  -24.9888  -13.5492   21.1580 N   0  0  0  0  0  0  0  0  0  0  0  0
  -24.1805  -21.2476   22.0905 N   0  0  0  0  0  0  0  0  0  0  0  0
  -29.7395  -20.4702   18.3778 N   0  0  0  0  0  0  0  0  0  0  0  0
  -22.5140  -18.5373   19.9726 N   0  0  0  0  0  0  0  0  0  0  0  0
  -24.8289  -19.8433   23.8845 N   0  0  0  0  0  0  0  0  0  0  0  0
  -24.8211  -23.9626   25.7360 N   0  0  0  0  0  0  0  0  0  0  0  0
  -30.0301  -23.5966   19.6068 N   0  0  0  0  0  0  0  0  0  0  0  0
  -29.4541  -19.3027   15.2133 N   0  0  0  0  0  0  0  0  0  0  0  0
  -21.9332  -16.8033   21.4724 N   0  0  0  0  0  0  0  0  0  0  0  0
  -30.8643  -16.0269   14.6230 N   0  3  0  0  0  0  0  0  0  0  0  0
  -25.2166  -21.7402   26.1402 O   0  0  0  0  0  0  0  0  0  0  0  0
  -28.7176  -21.9483   20.5983 O   0  0  0  0  0  0  0  0  0  0  0  0
  -30.4808  -21.6449   16.5051 O   0  0  0  0  0  0  0  0  0  0  0  0
  -28.7580  -17.2483   16.0331 O   0  0  0  0  0  0  0  0  0  0  0  0
  -22.1017  -16.3810   19.2251 O   0  0  0  0  0  0  0  0  0  0  0  0
  -23.5498  -28.7319   23.1528 O   0  0  0  0  0  0  0  0  0  0  0  0
  -27.8866  -16.5293   22.7469 O   0  0  0  0  0  0  0  0  0  1  0  0
  -25.6874  -31.7239   19.0440 F   0  0  0  0  0  0  0  0  0  0  0  0
  -25.4815  -30.6465   23.6486 F   0  0  0  0  0  0  0  0  0  0  0  0
  1  2  1  0  0  0  0
  1  5  2  0  0  0  0
  2  6  2  0  0  0  0
  3  8  2  0  0  0  0
  3 15  1  0  0  0  0
  4  9  1  0  0  0  0
  4 15  2  0  0  0  0
  5 17  1  0  0  0  0
  6 19  1  0  0  0  0
  7 10  2  0  0  0  0
  7 18  1  0  0  0  0
  8 21  1  0  0  0  0
  9 21  2  0  0  0  0
 10 22  1  0  0  0  0
 11 12  2  0  0  0  0
 11 23  1  0  0  0  0
 12 24  1  0  0  0  0
 13 20  1  0  0  0  0
 13 22  2  0  0  0  0
 14 24  2  0  0  0  0
 14 25  1  0  0  0  0
 15 26  1  0  0  0  0
 16 26  1  0  0  0  0
 16 29  2  0  0  0  0
 16 31  1  0  0  0  0
 17 19  2  0  0  0  0
 17 36  1  0  0  0  0
 18 20  2  0  0  0  0
 18 37  1  0  0  0  0
 19 45  1  0  0  0  0
 20 38  1  0  0  0  0
 21 88  1  0  0  0  0
 22 89  1  0  0  0  0
 23 25  2  0  0  0  0
 23 88  1  0  0  0  0
 24 90  1  0  0  0  0
 25 91  1  0  0  0  0
 26 71  2  0  0  0  0
 27 28  2  0  0  0  0
 27 60  1  0  0  0  0
 27 72  1  0  0  0  0
 28 65  1  0  0  0  0
 28 73  1  0  0  0  0
 29 74  1  0  0  0  0
 29 77  1  0  0  0  0
 30 48  1  0  0  0  0
 30 72  2  0  0  0  0
 30 73  1  0  0  0  0
 31 78  1  0  0  0  0
 31 83  2  0  0  0  0
 32 46  1  0  0  0  0
 32 79  1  0  0  0  0
 32 84  2  0  0  0  0
 33 66  1  0  0  0  0
 33 75  1  0  0  0  0
 33 85  2  0  0  0  0
 34 67  1  0  0  0  0
 34 80  1  0  0  0  0
 34 86  2  0  0  0  0
 35 76  1  0  0  0  0
 35 81  1  0  0  0  0
 35 87  2  0  0  0  0
 36 39  1  0  0  0  0
 37 46  1  0  0  0  0
 38 75  1  0  0  0  0
 39 41  1  0  0  0  0
 40 42  1  0  0  0  0
 40 43  1  0  0  0  0
 41 45  1  0  0  0  0
 42 47  1  0  0  0  0
 43 76  1  0  0  0  0
 44 47  1  0  0  0  0
 44 76  1  0  0  0  0
 45 79  1  0  0  0  0
 46 75  1  0  0  0  0
 47 74  1  0  0  0  0
 49 61  1  0  0  0  0
 50 65  1  0  0  0  0
 51 67  1  0  0  0  0
 52 68  1  0  0  0  0
 53 68  1  0  0  0  0
 54 68  1  0  0  0  0
 55 69  1  0  0  0  0
 56 69  1  0  0  0  0
 57 70  1  0  0  0  0
 58 70  1  0  0  0  0
 59 82  1  0  0  0  0
 60 62  1  0  0  0  0
 61 62  1  0  0  0  0
 63 69  1  0  0  0  0
 63 70  1  0  0  0  0
 64 65  1  0  0  0  0
 64 89  1  0  0  0  0
 66 68  1  0  0  0  0
 66 80  1  0  0  0  0
 67 82  1  0  0  0  0
 69 73  1  0  0  0  0
 70 81  1  0  0  0  0
 71 74  1  0  0  0  0
M  CHG  1  82   1
M  ISO  4  35 100  64 101  81 100  89 101
M  END
> <Batch ID>
0071

> <Smiles>
CCCCc1nc(C)n(C(C)(C)CC(C)(C)[100NH:0][100C:0](=O)N2CCCC(n3nc(-c4ccc(Oc5ccc(F)cc5F)cc4)c(C(N)=O)c3N)C2)c1C(C)[101CH2:1][101O:1]c1ccc2c(c1)CN(C(=O)C(NC(=O)C(C)NC)C(C)(C)C)C(C(=O)NC1CCCc3ccccc31)C2

> <Shape>
0.183

> <Color>
0.065

> <Negative vol penalty>
0.000

$$$$

  -OEChem-04052318223D

 85 93  0     1  0  0  0  0  0999 V2000
  -21.7265  -12.4449   19.3633 C   0  0  0  0  0  0  0  0  0  0  0  0
  -21.7012  -13.7242   19.9093 C   0  0  0  0  0  0  0  0  0  0  0  0
  -21.2637  -28.0860   21.0455 C   0  0  0  0  0  0  0  0  0  0  0  0
  -22.9536  -28.4855   22.7253 C   0  0  0  0  0  0  0  0  0  0  0  0
  -22.9000  -11.6932   19.4059 C   0  0  0  0  0  0  0  0  0  0  0  0
  -22.8491  -14.2523   20.4991 C   0  0  0  0  0  0  0  0  0  0  0  0
  -24.6511  -20.1052   20.4559 C   0  0  0  0  0  0  0  0  0  0  0  0
  -20.2689  -28.2246   22.0133 C   0  0  0  0  0  0  0  0  0  0  0  0
  -21.9587  -28.6242   23.6931 C   0  0  0  0  0  0  0  0  0  0  0  0
  -24.5324  -21.1301   21.3935 C   0  0  0  0  0  0  0  0  0  0  0  0
  -18.7033  -30.7463   23.6328 C   0  0  0  0  0  0  0  0  0  0  0  0
  -17.5913  -31.5249   23.3124 C   0  0  0  0  0  0  0  0  0  0  0  0
  -26.7531  -20.6419   22.1994 C   0  0  0  0  0  0  0  0  0  0  0  0
  -16.1543  -29.6127   23.6527 C   0  0  0  0  0  0  0  0  0  0  0  0
  -27.8050  -24.6971   24.0510 C   0  0  0  0  0  0  0  0  0  0  0  0
  -28.6992  -22.9815   25.1063 C   0  0  0  0  0  0  0  0  0  0  0  0
  -22.6061  -28.2164   21.4015 C   0  0  0  0  0  0  0  0  0  0  0  0
  -24.1899  -29.0889   19.6020 C   0  0  0  0  0  0  0  0  0  0  0  0
  -24.0656  -12.2160   19.9879 C   0  0  0  0  0  0  0  0  0  0  0  0
  -25.8195  -19.3324   20.3901 C   0  0  0  0  0  0  0  0  0  0  0  0
  -24.0389  -13.5063   20.5507 C   0  0  0  0  0  0  0  0  0  0  0  0
  -26.8851  -19.6094   21.2583 C   0  0  0  0  0  0  0  0  0  0  0  0
  -20.6164  -28.4937   23.3371 C   0  0  0  0  0  0  0  0  0  0  0  0
  -25.5823  -21.3967   22.2674 C   0  0  0  0  0  0  0  0  0  0  0  0
  -18.5409  -29.4008   23.9631 C   0  0  0  0  0  0  0  0  0  0  0  0
  -16.3168  -30.9582   23.3224 C   0  0  0  0  0  0  0  0  0  0  0  0
  -17.2664  -28.8341   23.9730 C   0  0  0  0  0  0  0  0  0  0  0  0
  -23.6343  -28.0727   20.4023 C   0  0  0  0  0  0  0  0  0  0  0  0
  -29.1676  -24.6515   23.8724 C   0  0  0  0  0  0  0  0  0  0  0  0
  -25.1184  -28.4431   18.8227 C   0  0  0  0  0  0  0  0  0  0  0  0
  -23.8932  -30.4912   19.5663 C   0  0  0  0  0  0  0  0  0  0  0  0
  -26.4981  -16.2534   20.7936 C   0  0  0  0  0  0  0  0  0  0  0  0
  -29.4442  -17.1727   19.7948 C   0  0  0  0  0  0  0  0  0  0  0  0
  -31.7323  -19.6801   19.4423 C   0  0  0  0  0  0  0  0  0  0  0  0
  -28.2398  -23.3851   19.5467 C   0  0  0  0  0  0  0  0  0  0  0  0
  -25.2971  -11.3477   20.0525 C   0  0  0  0  0  0  0  0  0  0  0  0
  -25.9422  -18.2479   19.3552 C   0  0  0  0  0  0  0  0  0  0  0  0
  -28.1685  -18.8222   21.2150 C   0  0  0  0  0  0  0  0  0  0  0  0
  -26.5745  -12.1244   20.3614 C   0  0  0  0  0  0  0  0  0  0  0  0
  -26.0440  -24.1796   16.8590 C   0  0  0  0  0  0  0  0  0  0  0  0
  -26.3465  -13.0868   21.5227 C   0  0  0  0  0  0  0  0  0  0  0  0
  -25.2276  -25.3591   17.3901 C   0  0  0  0  0  0  0  0  0  0  0  0
  -26.3514  -23.1654   17.9585 C   0  0  0  0  0  0  0  0  0  0  0  0
  -26.1779  -24.9097   19.6909 C   0  0  0  0  0  0  0  0  0  0  0  0
  -25.2706  -14.1234   21.1770 C   0  0  1  0  0  0  0  0  0  0  0  0
  -26.9777  -17.1885   19.7197 C   0  0  1  0  0  0  0  0  0  0  0  0
  -25.8909  -25.9868   18.6308 C   0  0  2  0  0  0  0  0  0  0  0  0
  -30.9697  -26.4099   24.0087 C   0  0  0  0  0  0  0  0  0  0  0  0
  -33.8524  -20.8135   18.7225 C   0  0  0  0  0  0  0  0  0  0  0  0
  -24.1903  -21.6609   25.0711 C   0  0  0  0  0  0  0  0  0  0  0  0
  -30.5675  -15.8722   22.3161 C   0  0  0  0  0  0  0  0  0  0  0  0
  -32.6941  -17.1381   21.9376 C   0  0  0  0  0  0  0  0  0  0  0  0
  -31.9167  -15.4757   20.2480 C   0  0  0  0  0  0  0  0  0  0  0  0
  -31.0028  -25.9861   20.7217 C   0  0  0  0  0  0  0  0  0  0  0  0
  -32.1968  -24.4660   22.2975 C   0  0  0  0  0  0  0  0  0  0  0  0
  -30.5704  -20.4517   16.8320 C   0  0  0  0  0  0  0  0  0  0  0  0
  -26.1533  -23.2153   25.3432 C   0  0  0  0  0  0  0  0  0  0  0  0
  -30.0567  -23.7363   21.2004 C   0  0  0  0  0  0  0  0  0  0  0  0
  -30.0157  -25.5718   23.0999 C   0  0  1  0  0  0  0  0  0  0  0  0
  -30.6943  -17.6772   20.4744 C   0  0  1  0  0  0  0  0  0  0  0  0
  -32.5883  -20.1041   18.2625 C   0  0  2  0  0  0  0  0  0  0  0  0
  -25.5768  -22.0313   24.5594 C   0  0  2  0  0  0  0  0  0  1  0  0
  -31.4434  -16.5545   21.2464 C   0  0  0  0  0  0  0  0  0  0  0  0
  -30.7963  -24.9448   21.8439 C   0  0  0  0  0  0  0  0  0  0  0  0
  -29.7182  -23.5810   24.5316 N   0  0  0  0  0  0  0  0  0  0  0  0
  -24.1654  -26.8726   20.1542 N   0  0  0  0  0  0  0  0  0  0  0  0
  -27.5197  -23.6209   24.8431 N   0  0  0  0  0  0  0  0  0  0  0  0
  -25.0644  -27.1305   19.1891 N   0  0  0  0  0  0  0  0  0  0  0  0
  -28.2378  -17.7679   20.1897 N   0  0  0  0  0  0  0  0  0  0  0  0
  -26.9807  -23.8245   19.1054 N   0  0  0  0  0  0  0  0  0  0  0  0
  -25.9676  -28.8758   17.8666 N   0  0  0  0  0  0  0  0  0  0  0  0
  -22.9117  -30.9888   20.4343 N   0  0  0  0  0  0  0  0  0  0  0  0
  -25.8164  -15.1504   20.3158 N   0  0  0  0  0  0  0  0  0  0  0  0
  -31.4910  -18.3226   19.4365 N   0  0  0  0  0  0  0  0  0  0  0  0
  -28.7676  -24.0681   20.6355 N   0  0  0  0  0  0  0  0  0  0  0  0
  -31.8268  -21.0287   17.3758 N   0  3  0  0  0  0  0  0  0  0  0  0
  -24.4695  -31.2768   18.7763 O   0  0  0  0  0  0  0  0  0  0  0  0
  -26.7306  -16.5126   21.9685 O   0  0  0  0  0  0  0  0  0  0  0  0
  -29.5356  -16.2882   18.9398 O   0  0  0  0  0  0  0  0  0  0  0  0
  -31.3221  -20.4733   20.2868 O   0  0  0  0  0  0  0  0  0  0  0  0
  -28.8507  -22.4566   19.0067 O   0  0  0  0  0  0  0  0  0  0  0  0
  -19.6458  -28.6293   24.2817 O   0  0  0  0  0  0  0  0  0  0  0  0
  -25.4688  -22.3961   23.1840 O   0  0  0  0  0  0  0  0  0  1  0  0
  -15.2488  -31.7064   23.0162 F   0  0  0  0  0  0  0  0  0  0  0  0
  -17.1040  -27.5423   24.2907 F   0  0  0  0  0  0  0  0  0  0  0  0
  1  2  1  0  0  0  0
  1  5  2  0  0  0  0
  2  6  2  0  0  0  0
  3  8  2  0  0  0  0
  3 17  1  0  0  0  0
  4  9  1  0  0  0  0
  4 17  2  0  0  0  0
  5 19  1  0  0  0  0
  6 21  1  0  0  0  0
  7 10  2  0  0  0  0
  7 20  1  0  0  0  0
  8 23  1  0  0  0  0
  9 23  2  0  0  0  0
 10 24  1  0  0  0  0
 11 12  2  0  0  0  0
 11 25  1  0  0  0  0
 12 26  1  0  0  0  0
 13 22  1  0  0  0  0
 13 24  2  0  0  0  0
 14 26  2  0  0  0  0
 14 27  1  0  0  0  0
 15 29  2  0  0  0  0
 15 67  1  0  0  0  0
 16 65  2  0  0  0  0
 16 67  1  0  0  0  0
 17 28  1  0  0  0  0
 18 28  1  0  0  0  0
 18 30  2  0  0  0  0
 18 31  1  0  0  0  0
 19 21  2  0  0  0  0
 19 36  1  0  0  0  0
 20 22  2  0  0  0  0
 20 37  1  0  0  0  0
 21 45  1  0  0  0  0
 22 38  1  0  0  0  0
 23 82  1  0  0  0  0
 24 83  1  0  0  0  0
 25 27  2  0  0  0  0
 25 82  1  0  0  0  0
 26 84  1  0  0  0  0
 27 85  1  0  0  0  0
 28 66  2  0  0  0  0
 29 59  1  0  0  0  0
 29 65  1  0  0  0  0
 30 68  1  0  0  0  0
 30 71  1  0  0  0  0
 31 72  1  0  0  0  0
 31 77  2  0  0  0  0
 32 46  1  0  0  0  0
 32 73  1  0  0  0  0
 32 78  2  0  0  0  0
 33 60  1  0  0  0  0
 33 69  1  0  0  0  0
 33 79  2  0  0  0  0
 34 61  1  0  0  0  0
 34 74  1  0  0  0  0
 34 80  2  0  0  0  0
 35 70  1  0  0  0  0
 35 75  1  0  0  0  0
 35 81  2  0  0  0  0
 36 39  1  0  0  0  0
 37 46  1  0  0  0  0
 38 69  1  0  0  0  0
 39 41  1  0  0  0  0
 40 42  1  0  0  0  0
 40 43  1  0  0  0  0
 41 45  1  0  0  0  0
 42 47  1  0  0  0  0
 43 70  1  0  0  0  0
 44 47  1  0  0  0  0
 44 70  1  0  0  0  0
 45 73  1  0  0  0  0
 46 69  1  0  0  0  0
 47 68  1  0  0  0  0
 48 59  1  0  0  0  0
 49 61  1  0  0  0  0
 50 62  1  0  0  0  0
 51 63  1  0  0  0  0
 52 63  1  0  0  0  0
 53 63  1  0  0  0  0
 54 64  1  0  0  0  0
 55 64  1  0  0  0  0
 56 76  1  0  0  0  0
 57 62  1  0  0  0  0
 57 67  1  0  0  0  0
 58 64  1  0  0  0  0
 58 75  1  0  0  0  0
 59 64  1  0  0  0  0
 60 63  1  0  0  0  0
 60 74  1  0  0  0  0
 61 76  1  0  0  0  0
 62 83  1  0  0  0  0
 66 68  1  0  0  0  0
M  CHG  1  76   1
M  ISO  4  35 100  62 101  75 100  83 101
M  END
> <Batch ID>
0071

> <Smiles>
CNC(C)C(=O)NC(C(=O)N1Cc2cc([101O:1][101CH:1](C)Cn3cnc(C(C)C(C)(C)C[100NH:0][100C:0](=O)N4CCCC(n5nc(-c6ccc(Oc7ccc(F)cc7F)cc6)c(C(N)=O)c5N)C4)c3)ccc2CC1C(=O)NC1CCCc2ccccc21)C(C)(C)C

> <Shape>
0.221

> <Color>
0.057

> <Negative vol penalty>
0.000

$$$$

  -OEChem-04052318223D

 83 91  0     1  0  0  0  0  0999 V2000
  -25.5128  -11.0975   20.9464 C   0  0  0  0  0  0  0  0  0  0  0  0
  -26.5799  -11.9895   20.9163 C   0  0  0  0  0  0  0  0  0  0  0  0
  -24.2583  -27.1871   22.7368 C   0  0  0  0  0  0  0  0  0  0  0  0
  -23.2491  -28.7127   21.1585 C   0  0  0  0  0  0  0  0  0  0  0  0
  -24.2484  -11.5105   20.5283 C   0  0  0  0  0  0  0  0  0  0  0  0
  -26.3835  -13.2949   20.4670 C   0  0  0  0  0  0  0  0  0  0  0  0
  -28.7110  -19.9823   21.5525 C   0  0  0  0  0  0  0  0  0  0  0  0
  -23.1811  -27.3712   23.6036 C   0  0  0  0  0  0  0  0  0  0  0  0
  -22.1718  -28.8967   22.0253 C   0  0  0  0  0  0  0  0  0  0  0  0
  -29.2145  -21.0751   20.8483 C   0  0  0  0  0  0  0  0  0  0  0  0
  -18.9814  -29.4900   23.6646 C   0  0  0  0  0  0  0  0  0  0  0  0
  -17.6976  -29.4611   23.1200 C   0  0  0  0  0  0  0  0  0  0  0  0
  -26.9695  -21.7003   20.2253 C   0  0  0  0  0  0  0  0  0  0  0  0
  -18.0756  -27.2028   22.3491 C   0  0  0  0  0  0  0  0  0  0  0  0
  -24.2924  -27.8580   21.5143 C   0  0  0  0  0  0  0  0  0  0  0  0
  -25.5251  -26.6995   19.6049 C   0  0  0  0  0  0  0  0  0  0  0  0
  -24.0343  -12.8244   20.0828 C   0  0  0  0  0  0  0  0  0  0  0  0
  -27.3314  -19.7336   21.5894 C   0  0  0  0  0  0  0  0  0  0  0  0
  -25.1154  -13.7255   20.0414 C   0  0  0  0  0  0  0  0  0  0  0  0
  -26.4508  -20.6051   20.9328 C   0  0  0  0  0  0  0  0  0  0  0  0
  -22.1378  -28.2259   23.2479 C   0  0  0  0  0  0  0  0  0  0  0  0
  -28.3440  -21.9327   20.1821 C   0  0  0  0  0  0  0  0  0  0  0  0
  -19.8124  -28.3754   23.5514 C   0  0  0  0  0  0  0  0  0  0  0  0
  -17.2447  -28.3174   22.4623 C   0  0  0  0  0  0  0  0  0  0  0  0
  -19.3595  -27.2318   22.8936 C   0  0  0  0  0  0  0  0  0  0  0  0
  -25.4051  -27.6688   20.6188 C   0  0  0  0  0  0  0  0  0  0  0  0
  -26.7570  -26.9378   19.0461 C   0  0  0  0  0  0  0  0  0  0  0  0
  -30.9111  -25.7423   17.0268 C   0  0  0  0  0  0  0  0  0  0  0  0
  -30.5847  -24.4163   18.7133 C   0  0  0  0  0  0  0  0  0  0  0  0
  -24.6052  -25.6754   19.2040 C   0  0  0  0  0  0  0  0  0  0  0  0
  -25.4535  -17.3592   20.6205 C   0  0  0  0  0  0  0  0  0  0  0  0
  -23.1564  -19.0781   22.1341 C   0  0  0  0  0  0  0  0  0  0  0  0
  -22.0905  -22.1099   23.2825 C   0  0  0  0  0  0  0  0  0  0  0  0
  -30.2914  -30.9007   17.0162 C   0  0  0  0  0  0  0  0  0  0  0  0
  -22.6602  -13.2111   19.5963 C   0  0  0  0  0  0  0  0  0  0  0  0
  -26.8022  -18.5657   22.3758 C   0  0  0  0  0  0  0  0  0  0  0  0
  -24.9598  -20.3937   20.9585 C   0  0  0  0  0  0  0  0  0  0  0  0
  -22.4546  -14.7199   19.4878 C   0  0  0  0  0  0  0  0  0  0  0  0
  -30.5667  -29.8832   20.5646 C   0  0  0  0  0  0  0  0  0  0  0  0
  -23.6434  -15.3717   18.7886 C   0  0  0  0  0  0  0  0  0  0  0  0
  -29.2240  -29.2008   20.8205 C   0  0  0  0  0  0  0  0  0  0  0  0
  -30.4631  -30.9491   19.4779 C   0  0  0  0  0  0  0  0  0  0  0  0
  -28.5468  -29.7685   18.4542 C   0  0  0  0  0  0  0  0  0  0  0  0
  -24.9368  -15.1570   19.5840 C   0  0  1  0  0  0  0  0  0  0  0  0
  -25.4183  -18.1154   21.9184 C   0  0  1  0  0  0  0  0  0  0  0  0
  -28.6266  -28.6568   19.5111 C   0  0  2  0  0  0  0  0  0  0  0  0
  -28.7843  -23.5635   15.8964 C   0  0  0  0  0  0  0  0  0  0  0  0
  -20.1550  -23.2072   24.4430 C   0  0  0  0  0  0  0  0  0  0  0  0
  -21.5467  -18.9722   19.5442 C   0  0  0  0  0  0  0  0  0  0  0  0
  -20.1253  -20.8316   20.4334 C   0  0  0  0  0  0  0  0  0  0  0  0
  -20.1987  -18.6411   21.6245 C   0  0  0  0  0  0  0  0  0  0  0  0
  -30.6904  -30.4676   14.6219 C   0  0  0  0  0  0  0  0  0  0  0  0
  -23.7815  -22.9445   25.5636 C   0  0  0  0  0  0  0  0  0  0  0  0
  -30.9975  -26.2261   15.6374 C   0  0  0  0  0  0  0  0  0  0  0  0
  -30.2483  -23.1808   19.4954 C   0  0  0  0  0  0  0  0  0  1  0  0
  -31.1737  -27.7574   15.4860 C   0  0  0  0  0  0  0  0  0  0  0  0
  -30.1915  -23.4062   16.4464 C   0  0  0  0  0  0  0  0  0  0  0  0
  -30.0169  -28.5761   16.0552 C   0  0  0  0  0  0  0  0  0  0  0  0
  -22.2037  -20.1775   21.7309 C   0  0  1  0  0  0  0  0  0  0  0  0
  -21.5064  -22.5323   24.6185 C   0  0  2  0  0  0  0  0  0  0  0  0
  -21.0468  -19.6588   20.8310 C   0  0  0  0  0  0  0  0  0  0  0  0
  -26.4755  -28.4634   20.7017 N   0  0  0  0  0  0  0  0  0  0  0  0
  -31.1595  -26.4265   18.1207 N   0  0  0  0  0  0  0  0  0  0  0  0
  -30.9518  -25.5829   19.1937 N   0  0  0  0  0  0  0  0  0  0  0  0
  -27.2798  -27.9939   19.7328 N   0  0  0  0  0  0  0  0  0  0  0  0
  -30.5458  -24.4715   17.3531 N   0  0  0  0  0  0  0  0  0  0  0  0
  -24.4915  -19.2343   21.7357 N   0  0  0  0  0  0  0  0  0  0  0  0
  -29.8526  -30.4162   18.2595 N   0  0  0  0  0  0  0  0  0  0  0  0
  -27.4332  -26.3447   18.0394 N   0  0  0  0  0  0  0  0  0  0  0  0
  -23.3844  -25.5703   19.8842 N   0  0  0  0  0  0  0  0  0  0  0  0
  -24.9914  -16.0602   20.7135 N   0  0  0  0  0  0  0  0  0  0  0  0
  -21.7605  -20.8082   22.9695 N   0  0  0  0  0  0  0  0  0  0  0  0
  -30.2357  -30.0154   15.9291 N   0  0  0  0  0  0  0  0  0  0  0  0
  -22.4223  -23.4861   25.3059 N   0  3  0  0  0  0  0  0  0  0  0  0
  -24.8653  -24.8667   18.2810 O   0  0  0  0  0  0  0  0  0  0  0  0
  -25.8677  -17.9136   19.6092 O   0  0  0  0  0  0  0  0  0  0  0  0
  -22.7329  -18.1195   22.7850 O   0  0  0  0  0  0  0  0  0  0  0  0
  -22.7684  -22.8608   22.5846 O   0  0  0  0  0  0  0  0  0  0  0  0
  -30.7179  -32.0554   16.8875 O   0  0  0  0  0  0  0  0  0  0  0  0
  -21.0864  -28.4055   24.0933 O   0  0  0  0  0  0  0  0  0  0  0  0
  -28.8328  -22.9997   19.4934 O   0  0  0  0  0  0  0  0  0  1  0  0
  -16.0113  -28.2892   21.9407 F   0  0  0  0  0  0  0  0  0  0  0  0
  -20.1528  -26.1575   22.7827 F   0  0  0  0  0  0  0  0  0  0  0  0
  1  2  1  0  0  0  0
  1  5  2  0  0  0  0
  2  6  2  0  0  0  0
  3  8  2  0  0  0  0
  3 15  1  0  0  0  0
  4  9  1  0  0  0  0
  4 15  2  0  0  0  0
  5 17  1  0  0  0  0
  6 19  1  0  0  0  0
  7 10  2  0  0  0  0
  7 18  1  0  0  0  0
  8 21  1  0  0  0  0
  9 21  2  0  0  0  0
 10 22  1  0  0  0  0
 11 12  2  0  0  0  0
 11 23  1  0  0  0  0
 12 24  1  0  0  0  0
 13 20  1  0  0  0  0
 13 22  2  0  0  0  0
 14 24  2  0  0  0  0
 14 25  1  0  0  0  0
 15 26  1  0  0  0  0
 16 26  1  0  0  0  0
 16 27  2  0  0  0  0
 16 30  1  0  0  0  0
 17 19  2  0  0  0  0
 17 35  1  0  0  0  0
 18 20  2  0  0  0  0
 18 36  1  0  0  0  0
 19 44  1  0  0  0  0
 20 37  1  0  0  0  0
 21 80  1  0  0  0  0
 22 81  1  0  0  0  0
 23 25  2  0  0  0  0
 23 80  1  0  0  0  0
 24 82  1  0  0  0  0
 25 83  1  0  0  0  0
 26 62  2  0  0  0  0
 27 65  1  0  0  0  0
 27 69  1  0  0  0  0
 28 54  1  0  0  0  0
 28 63  2  0  0  0  0
 28 66  1  0  0  0  0
 29 55  1  0  0  0  0
 29 64  2  0  0  0  0
 29 66  1  0  0  0  0
 30 70  1  0  0  0  0
 30 75  2  0  0  0  0
 31 45  1  0  0  0  0
 31 71  1  0  0  0  0
 31 76  2  0  0  0  0
 32 59  1  0  0  0  0
 32 67  1  0  0  0  0
 32 77  2  0  0  0  0
 33 60  1  0  0  0  0
 33 72  1  0  0  0  0
 33 78  2  0  0  0  0
 34 68  1  0  0  0  0
 34 73  1  0  0  0  0
 34 79  2  0  0  0  0
 35 38  1  0  0  0  0
 36 45  1  0  0  0  0
 37 67  1  0  0  0  0
 38 40  1  0  0  0  0
 39 41  1  0  0  0  0
 39 42  1  0  0  0  0
 40 44  1  0  0  0  0
 41 46  1  0  0  0  0
 42 68  1  0  0  0  0
 43 46  1  0  0  0  0
 43 68  1  0  0  0  0
 44 71  1  0  0  0  0
 45 67  1  0  0  0  0
 46 65  1  0  0  0  0
 47 57  1  0  0  0  0
 48 60  1  0  0  0  0
 49 61  1  0  0  0  0
 50 61  1  0  0  0  0
 51 61  1  0  0  0  0
 52 73  1  0  0  0  0
 53 74  1  0  0  0  0
 54 56  1  0  0  0  0
 55 81  1  0  0  0  0
 56 58  1  0  0  0  0
 57 66  1  0  0  0  0
 58 73  1  0  0  0  0
 59 61  1  0  0  0  0
 59 72  1  0  0  0  0
 60 74  1  0  0  0  0
 62 65  1  0  0  0  0
 63 64  1  0  0  0  0
M  CHG  1  74   1
M  ISO  4  34 100  55 101  73 100  81 101
M  END
> <Batch ID>
0071

> <Smiles>
CCn1c(CCC[100N:0](C)[100C:0](=O)N2CCCC(n3nc(-c4ccc(Oc5ccc(F)cc5F)cc4)c(C(N)=O)c3N)C2)nnc1[101CH2:1][101O:1]c1ccc2c(c1)CN(C(=O)C(NC(=O)C(C)NC)C(C)(C)C)C(C(=O)NC1CCCc3ccccc31)C2

> <Shape>
0.213

> <Color>
0.074

> <Negative vol penalty>
0.000

$$$$

  -OEChem-04052318223D

 83 91  0     1  0  0  0  0  0999 V2000
  -18.2307  -25.1581   12.9439 C   0  0  0  0  0  0  0  0  0  0  0  0
  -19.2162  -24.1866   13.0863 C   0  0  0  0  0  0  0  0  0  0  0  0
  -23.0723   -9.8722   19.9432 C   0  0  0  0  0  0  0  0  0  0  0  0
  -23.8354   -9.8789   22.2355 C   0  0  0  0  0  0  0  0  0  0  0  0
  -18.4970  -26.4779   13.3059 C   0  0  0  0  0  0  0  0  0  0  0  0
  -20.4691  -24.5345   13.5899 C   0  0  0  0  0  0  0  0  0  0  0  0
  -24.0977  -21.0985   17.1301 C   0  0  0  0  0  0  0  0  0  0  0  0
  -22.3286   -8.7192   20.1941 C   0  0  0  0  0  0  0  0  0  0  0  0
  -23.0916   -8.7259   22.4865 C   0  0  0  0  0  0  0  0  0  0  0  0
  -25.2007  -20.2957   16.8429 C   0  0  0  0  0  0  0  0  0  0  0  0
  -19.3821   -7.9232   21.6494 C   0  0  0  0  0  0  0  0  0  0  0  0
  -18.0746   -7.8773   21.1659 C   0  0  0  0  0  0  0  0  0  0  0  0
  -26.6707  -22.1193   17.4196 C   0  0  0  0  0  0  0  0  0  0  0  0
  -18.6320   -5.9342   19.8428 C   0  0  0  0  0  0  0  0  0  0  0  0
  -27.0318  -18.7518   20.0451 C   0  0  0  0  0  0  0  0  0  0  0  0
  -23.8258  -10.4520   20.9639 C   0  0  0  0  0  0  0  0  0  0  0  0
  -24.1681  -12.9771   20.8435 C   0  0  0  0  0  0  0  0  0  0  0  0
  -19.7507  -26.8404   13.8233 C   0  0  0  0  0  0  0  0  0  0  0  0
  -24.2730  -22.4235   17.5545 C   0  0  0  0  0  0  0  0  0  0  0  0
  -20.7529  -25.8607   13.9580 C   0  0  0  0  0  0  0  0  0  0  0  0
  -25.5683  -22.9361   17.7140 C   0  0  0  0  0  0  0  0  0  0  0  0
  -22.3381   -8.1461   21.4657 C   0  0  0  0  0  0  0  0  0  0  0  0
  -26.4874  -20.8069   16.9849 C   0  0  0  0  0  0  0  0  0  0  0  0
  -20.3147   -6.9747   21.2295 C   0  0  0  0  0  0  0  0  0  0  0  0
  -17.6995   -6.8828   20.2627 C   0  0  0  0  0  0  0  0  0  0  0  0
  -19.9396   -5.9802   20.3262 C   0  0  0  0  0  0  0  0  0  0  0  0
  -24.5948  -11.6427   20.7052 C   0  0  0  0  0  0  0  0  0  0  0  0
  -27.0385  -19.0654   21.3749 C   0  0  0  0  0  0  0  0  0  0  0  0
  -25.2599  -13.7263   20.4788 C   0  0  0  0  0  0  0  0  0  0  0  0
  -29.0771  -18.4060   20.8181 C   0  0  0  0  0  0  0  0  0  0  0  0
  -22.8983  -13.4932   21.2643 C   0  0  0  0  0  0  0  0  0  0  0  0
  -23.4571  -25.2731   16.4065 C   0  0  0  0  0  0  0  0  0  0  0  0
  -24.6447  -26.3206   19.2375 C   0  0  0  0  0  0  0  0  0  0  0  0
  -26.7183  -25.7691   21.8913 C   0  0  0  0  0  0  0  0  0  0  0  0
  -30.7441  -14.7441   20.6597 C   0  0  0  0  0  0  0  0  0  0  0  0
  -20.0073  -28.2888   14.1566 C   0  0  0  0  0  0  0  0  0  0  0  0
  -23.0733  -23.2682   17.8859 C   0  0  0  0  0  0  0  0  0  0  0  0
  -25.8108  -24.3457   18.1860 C   0  0  0  0  0  0  0  0  0  0  0  0
  -21.2383  -28.5032   15.0333 C   0  0  0  0  0  0  0  0  0  0  0  0
  -29.6027  -12.3600   18.2743 C   0  0  0  0  0  0  0  0  0  0  0  0
  -22.4193  -27.6973   14.5017 C   0  0  0  0  0  0  0  0  0  0  0  0
  -28.1658  -12.0666   18.7092 C   0  0  0  0  0  0  0  0  0  0  0  0
  -30.5215  -12.5805   19.4740 C   0  0  0  0  0  0  0  0  0  0  0  0
  -28.6219  -13.3120   20.8632 C   0  0  0  0  0  0  0  0  0  0  0  0
  -22.1162  -26.1943   14.5238 C   0  0  1  0  0  0  0  0  0  0  0  0
  -23.3591  -24.7652   17.8171 C   0  0  1  0  0  0  0  0  0  0  0  0
  -27.6460  -13.1377   19.6869 C   0  0  2  0  0  0  0  0  0  0  0  0
  -25.9768  -19.5501   22.2606 C   0  0  0  0  0  0  0  0  0  0  0  0
  -31.3887  -19.2737   21.2950 C   0  0  0  0  0  0  0  0  0  0  0  0
  -27.5041  -26.8220   24.0293 C   0  0  0  0  0  0  0  0  0  0  0  0
  -26.4257  -28.2187   17.6452 C   0  0  0  0  0  0  0  0  0  0  0  0
  -27.8149  -28.5311   19.7045 C   0  0  0  0  0  0  0  0  0  0  0  0
  -25.4163  -29.2163   19.7045 C   0  0  0  0  0  0  0  0  0  0  0  0
  -25.6578  -23.5350   23.5171 C   0  0  0  0  0  0  0  0  0  0  0  0
  -29.5349  -18.9806   17.5916 C   0  0  0  0  0  0  0  0  0  0  0  0
  -28.7599  -17.9069   18.3587 C   0  0  0  0  0  0  0  0  0  0  0  0
  -30.8122  -16.8946   21.8966 C   0  0  0  0  0  0  0  0  0  0  0  0
  -28.7638  -20.2860   17.4347 C   0  0  0  0  0  0  0  0  0  1  0  0
  -30.5164  -18.0563   20.9126 C   0  0  1  0  0  0  0  0  0  0  0  0
  -26.0029  -26.7572   19.7312 C   0  0  1  0  0  0  0  0  0  0  0  0
  -26.4919  -25.8858   23.3878 C   0  0  2  0  0  0  0  0  0  0  0  0
  -26.4107  -28.1548   19.1856 C   0  0  0  0  0  0  0  0  0  0  0  0
  -25.8591  -11.5466   20.2851 N   0  0  0  0  0  0  0  0  0  0  0  0
  -28.3060  -18.3474   19.7274 N   0  0  0  0  0  0  0  0  0  0  0  0
  -26.2361  -12.8301   20.1564 N   0  0  0  0  0  0  0  0  0  0  0  0
  -28.3165  -18.8418   21.8276 N   0  3  0  0  0  0  0  0  0  0  0  0
  -24.6055  -25.1342   18.4914 N   0  0  0  0  0  0  0  0  0  0  0  0
  -29.9724  -13.6091   20.3608 N   0  0  0  0  0  0  0  0  0  0  0  0
  -25.4705  -15.0578   20.4056 N   0  0  0  0  0  0  0  0  0  0  0  0
  -21.8866  -12.5842   21.6029 N   0  0  0  0  0  0  0  0  0  0  0  0
  -22.2490  -25.6717   15.8668 N   0  0  0  0  0  0  0  0  0  0  0  0
  -25.9539  -26.6750   21.1869 N   0  0  0  0  0  0  0  0  0  0  0  0
  -30.1464  -15.6730   21.5026 N   0  0  0  0  0  0  0  0  0  0  0  0
  -26.6116  -24.5490   24.0357 N   0  3  0  0  0  0  0  0  0  0  0  0
  -22.6624  -14.7239   21.3220 O   0  0  0  0  0  0  0  0  0  0  0  0
  -24.5482  -25.3027   15.8494 O   0  0  0  0  0  0  0  0  0  0  0  0
  -23.6541  -27.0032   19.5100 O   0  0  0  0  0  0  0  0  0  0  0  0
  -27.4983  -24.9581   21.3969 O   0  0  0  0  0  0  0  0  0  0  0  0
  -31.8795  -14.9193   20.2045 O   0  0  0  0  0  0  0  0  0  0  0  0
  -21.6122   -7.0211   21.7110 O   0  0  0  0  0  0  0  0  0  0  0  0
  -27.5658  -20.0256   16.7046 O   0  0  0  0  0  0  0  0  0  1  0  0
  -16.4434   -6.8380   19.7997 F   0  0  0  0  0  0  0  0  0  0  0  0
  -20.8307   -5.0654   19.9201 F   0  0  0  0  0  0  0  0  0  0  0  0
  1  2  1  0  0  0  0
  1  5  2  0  0  0  0
  2  6  2  0  0  0  0
  3  8  2  0  0  0  0
  3 16  1  0  0  0  0
  4  9  1  0  0  0  0
  4 16  2  0  0  0  0
  5 18  1  0  0  0  0
  6 20  1  0  0  0  0
  7 10  2  0  0  0  0
  7 19  1  0  0  0  0
  8 22  1  0  0  0  0
  9 22  2  0  0  0  0
 10 23  1  0  0  0  0
 11 12  2  0  0  0  0
 11 24  1  0  0  0  0
 12 25  1  0  0  0  0
 13 21  1  0  0  0  0
 13 23  2  0  0  0  0
 14 25  2  0  0  0  0
 14 26  1  0  0  0  0
 15 28  2  0  0  0  0
 15 64  1  0  0  0  0
 16 27  1  0  0  0  0
 17 27  1  0  0  0  0
 17 29  2  0  0  0  0
 17 31  1  0  0  0  0
 18 20  2  0  0  0  0
 18 36  1  0  0  0  0
 19 21  2  0  0  0  0
 19 37  1  0  0  0  0
 20 45  1  0  0  0  0
 21 38  1  0  0  0  0
 22 80  1  0  0  0  0
 23 81  1  0  0  0  0
 24 26  2  0  0  0  0
 24 80  1  0  0  0  0
 25 82  1  0  0  0  0
 26 83  1  0  0  0  0
 27 63  2  0  0  0  0
 28 48  1  0  0  0  0
 28 66  1  0  0  0  0
 29 65  1  0  0  0  0
 29 69  1  0  0  0  0
 30 59  1  0  0  0  0
 30 64  1  0  0  0  0
 30 66  2  0  0  0  0
 31 70  1  0  0  0  0
 31 75  2  0  0  0  0
 32 46  1  0  0  0  0
 32 71  1  0  0  0  0
 32 76  2  0  0  0  0
 33 60  1  0  0  0  0
 33 67  1  0  0  0  0
 33 77  2  0  0  0  0
 34 61  1  0  0  0  0
 34 72  1  0  0  0  0
 34 78  2  0  0  0  0
 35 68  1  0  0  0  0
 35 73  1  0  0  0  0
 35 79  2  0  0  0  0
 36 39  1  0  0  0  0
 37 46  1  0  0  0  0
 38 67  1  0  0  0  0
 39 41  1  0  0  0  0
 40 42  1  0  0  0  0
 40 43  1  0  0  0  0
 41 45  1  0  0  0  0
 42 47  1  0  0  0  0
 43 68  1  0  0  0  0
 44 47  1  0  0  0  0
 44 68  1  0  0  0  0
 45 71  1  0  0  0  0
 46 67  1  0  0  0  0
 47 65  1  0  0  0  0
 49 59  1  0  0  0  0
 50 61  1  0  0  0  0
 51 62  1  0  0  0  0
 52 62  1  0  0  0  0
 53 62  1  0  0  0  0
 54 74  1  0  0  0  0
 55 56  1  0  0  0  0
 55 58  1  0  0  0  0
 56 64  1  0  0  0  0
 57 59  1  0  0  0  0
 57 73  1  0  0  0  0
 58 81  1  0  0  0  0
 60 62  1  0  0  0  0
 60 72  1  0  0  0  0
 61 74  1  0  0  0  0
 63 65  1  0  0  0  0
M  CHG  2  66   1  74   1
M  ISO  4  35 100  58 101  73 100  81 101
M  END
> <Batch ID>
0071

> <Smiles>
CNC(C)C(=O)NC(C(=O)N1Cc2cc([101O:1][101CH2:1]CCn3cc(C)nc3C(C)C[100NH:0][100C:0](=O)N3CCCC(n4nc(-c5ccc(Oc6ccc(F)cc6F)cc5)c(C(N)=O)c4N)C3)ccc2CC1C(=O)NC1CCCc2ccccc21)C(C)(C)C

> <Shape>
0.215

> <Color>
0.187

> <Negative vol penalty>
0.000

$$$$

  -OEChem-04052318223D

 84 92  0     1  0  0  0  0  0999 V2000
  -35.4622  -13.5239   30.0370 C   0  0  0  0  0  0  0  0  0  0  0  0
  -35.3580  -14.3912   28.9543 C   0  0  0  0  0  0  0  0  0  0  0  0
  -23.2874   -9.7953   19.9089 C   0  0  0  0  0  0  0  0  0  0  0  0
  -23.7208   -9.9380   22.2815 C   0  0  0  0  0  0  0  0  0  0  0  0
  -34.3973  -12.6845   30.3614 C   0  0  0  0  0  0  0  0  0  0  0  0
  -34.1890  -14.4188   28.1945 C   0  0  0  0  0  0  0  0  0  0  0  0
  -31.6644  -19.3042   25.4993 C   0  0  0  0  0  0  0  0  0  0  0  0
  -22.5558   -8.6254   20.1129 C   0  0  0  0  0  0  0  0  0  0  0  0
  -22.9892   -8.7680   22.4855 C   0  0  0  0  0  0  0  0  0  0  0  0
  -31.7074  -19.7796   24.1893 C   0  0  0  0  0  0  0  0  0  0  0  0
  -19.7378   -7.8674   22.6797 C   0  0  0  0  0  0  0  0  0  0  0  0
  -18.8274   -7.8501   23.7363 C   0  0  0  0  0  0  0  0  0  0  0  0
  -29.6168  -18.6697   23.7241 C   0  0  0  0  0  0  0  0  0  0  0  0
  -20.0199   -6.0006   24.7335 C   0  0  0  0  0  0  0  0  0  0  0  0
  -33.4153  -16.8328   19.3248 C   0  0  0  0  0  0  0  0  0  0  0  0
  -23.8700  -10.4516   20.9932 C   0  0  0  0  0  0  0  0  0  0  0  0
  -24.1387  -12.9805   20.7929 C   0  0  0  0  0  0  0  0  0  0  0  0
  -33.2111  -12.7087   29.6111 C   0  0  0  0  0  0  0  0  0  0  0  0
  -30.6009  -18.4976   25.9291 C   0  0  0  0  0  0  0  0  0  0  0  0
  -33.1077  -13.5779   28.5083 C   0  0  0  0  0  0  0  0  0  0  0  0
  -29.5613  -18.1874   25.0408 C   0  0  0  0  0  0  0  0  0  0  0  0
  -22.4067   -8.1117   21.4012 C   0  0  0  0  0  0  0  0  0  0  0  0
  -30.6850  -19.4600   23.3007 C   0  0  0  0  0  0  0  0  0  0  0  0
  -20.7892   -6.9513   22.6499 C   0  0  0  0  0  0  0  0  0  0  0  0
  -18.9684   -6.9167   24.7632 C   0  0  0  0  0  0  0  0  0  0  0  0
  -20.9303   -6.0179   23.6768 C   0  0  0  0  0  0  0  0  0  0  0  0
  -24.6263  -11.6599   20.7831 C   0  0  0  0  0  0  0  0  0  0  0  0
  -32.3624  -17.4187   19.9690 C   0  0  0  0  0  0  0  0  0  0  0  0
  -25.2445  -13.7566   20.5451 C   0  0  0  0  0  0  0  0  0  0  0  0
  -33.1972  -15.8604   21.3015 C   0  0  0  0  0  0  0  0  0  0  0  0
  -22.8055  -13.4626   21.0070 C   0  0  0  0  0  0  0  0  0  0  0  0
  -30.3404  -15.5246   27.0234 C   0  0  0  0  0  0  0  0  0  0  0  0
  -27.2487  -16.3849   27.4966 C   0  0  0  0  0  0  0  0  0  0  0  0
  -24.6463  -18.4233   26.6486 C   0  0  0  0  0  0  0  0  0  0  0  0
  -30.9937  -12.8392   21.5256 C   0  0  0  0  0  0  0  0  0  0  0  0
  -32.1047  -11.7490   29.9712 C   0  0  0  0  0  0  0  0  0  0  0  0
  -30.5556  -18.0148   27.3529 C   0  0  0  0  0  0  0  0  0  0  0  0
  -28.3870  -17.3418   25.4585 C   0  0  0  0  0  0  0  0  0  0  0  0
  -30.7598  -12.1068   29.3438 C   0  0  0  0  0  0  0  0  0  0  0  0
  -29.4867  -13.6331   18.3324 C   0  0  0  0  0  0  0  0  0  0  0  0
  -30.9320  -12.4386   27.8649 C   0  0  0  0  0  0  0  0  0  0  0  0
  -28.0117  -13.3379   18.6104 C   0  0  0  0  0  0  0  0  0  0  0  0
  -30.3938  -12.6293   19.0378 C   0  0  0  0  0  0  0  0  0  0  0  0
  -28.7050  -12.2372   20.7893 C   0  0  0  0  0  0  0  0  0  0  0  0
  -31.8467  -13.6546   27.6752 C   0  0  1  0  0  0  0  0  0  0  0  0
  -29.6849  -16.7756   27.5363 C   0  0  1  0  0  0  0  0  0  0  0  0
  -27.7369  -13.2310   20.1221 C   0  0  2  0  0  0  0  0  0  0  0  0
  -22.2337  -18.8627   27.1811 C   0  0  0  0  0  0  0  0  0  0  0  0
  -32.3988  -15.1886   23.6695 C   0  0  0  0  0  0  0  0  0  0  0  0
  -34.8150  -15.2108   23.1065 C   0  0  0  0  0  0  0  0  0  0  0  0
  -26.4472  -13.9181   25.8896 C   0  0  0  0  0  0  0  0  0  0  0  0
  -24.1596  -14.9059   25.6461 C   0  0  0  0  0  0  0  0  0  0  0  0
  -25.0405  -14.3479   27.9122 C   0  0  0  0  0  0  0  0  0  0  0  0
  -35.0410  -15.0094   19.8832 C   0  0  0  0  0  0  0  0  0  0  0  0
  -25.2273  -21.1820   27.5490 C   0  0  0  0  0  0  0  0  0  0  0  0
  -31.4290  -18.5260   19.5494 C   0  0  0  0  0  0  0  0  0  0  0  0
  -31.9165  -19.9232   19.9389 C   0  0  0  0  0  0  0  0  0  0  0  0
  -33.3270  -13.4478   22.1105 C   0  0  0  0  0  0  0  0  0  0  0  0
  -32.0141  -20.1303   21.4459 C   0  0  0  0  0  0  0  0  0  1  0  0
  -25.9868  -16.3359   26.6695 C   0  0  1  0  0  0  0  0  0  0  0  0
  -23.6764  -19.2248   27.4979 C   0  0  2  0  0  0  0  0  0  0  0  0
  -33.4001  -14.9768   22.4766 C   0  0  0  0  0  0  0  0  0  0  0  0
  -25.4314  -14.8913   26.5206 C   0  0  0  0  0  0  0  0  0  0  0  0
  -25.9395  -11.5968   20.5475 N   0  0  0  0  0  0  0  0  0  0  0  0
  -33.9132  -15.8728   20.1724 N   0  0  0  0  0  0  0  0  0  0  0  0
  -26.2865  -12.8875   20.4070 N   0  0  0  0  0  0  0  0  0  0  0  0
  -32.2501  -16.7973   21.1894 N   0  3  0  0  0  0  0  0  0  0  0  0
  -28.3915  -16.8884   26.8592 N   0  0  0  0  0  0  0  0  0  0  0  0
  -30.0939  -12.5895   20.4761 N   0  0  0  0  0  0  0  0  0  0  0  0
  -25.4175  -15.0908   20.4340 N   0  0  0  0  0  0  0  0  0  0  0  0
  -21.7882  -12.5292   21.2482 N   0  0  0  0  0  0  0  0  0  0  0  0
  -31.1265  -14.8777   27.9577 N   0  0  0  0  0  0  0  0  0  0  0  0
  -25.0560  -17.2730   27.2891 N   0  0  0  0  0  0  0  0  0  0  0  0
  -32.2908  -13.1593   21.1440 N   0  0  0  0  0  0  0  0  0  0  0  0
  -23.8589  -20.6838   27.2553 N   0  3  0  0  0  0  0  0  0  0  0  0
  -22.5217  -14.6839   20.9688 O   0  0  0  0  0  0  0  0  0  0  0  0
  -30.1460  -15.1716   25.8661 O   0  0  0  0  0  0  0  0  0  0  0  0
  -27.2198  -15.9975   28.6674 O   0  0  0  0  0  0  0  0  0  0  0  0
  -25.0018  -18.7799   25.5274 O   0  0  0  0  0  0  0  0  0  0  0  0
  -30.6641  -12.7860   22.7154 O   0  0  0  0  0  0  0  0  0  0  0  0
  -21.6927   -6.9703   21.6006 O   0  0  0  0  0  0  0  0  0  0  0  0
  -30.7250  -19.9222   22.0214 O   0  0  0  0  0  0  0  0  0  1  0  0
  -18.0950   -6.9012   25.7786 F   0  0  0  0  0  0  0  0  0  0  0  0
  -21.9390   -5.1360   23.6543 F   0  0  0  0  0  0  0  0  0  0  0  0
  1  2  1  0  0  0  0
  1  5  2  0  0  0  0
  2  6  2  0  0  0  0
  3  8  2  0  0  0  0
  3 16  1  0  0  0  0
  4  9  1  0  0  0  0
  4 16  2  0  0  0  0
  5 18  1  0  0  0  0
  6 20  1  0  0  0  0
  7 10  2  0  0  0  0
  7 19  1  0  0  0  0
  8 22  1  0  0  0  0
  9 22  2  0  0  0  0
 10 23  1  0  0  0  0
 11 12  2  0  0  0  0
 11 24  1  0  0  0  0
 12 25  1  0  0  0  0
 13 21  1  0  0  0  0
 13 23  2  0  0  0  0
 14 25  2  0  0  0  0
 14 26  1  0  0  0  0
 15 28  2  0  0  0  0
 15 65  1  0  0  0  0
 16 27  1  0  0  0  0
 17 27  1  0  0  0  0
 17 29  2  0  0  0  0
 17 31  1  0  0  0  0
 18 20  2  0  0  0  0
 18 36  1  0  0  0  0
 19 21  2  0  0  0  0
 19 37  1  0  0  0  0
 20 45  1  0  0  0  0
 21 38  1  0  0  0  0
 22 81  1  0  0  0  0
 23 82  1  0  0  0  0
 24 26  2  0  0  0  0
 24 81  1  0  0  0  0
 25 83  1  0  0  0  0
 26 84  1  0  0  0  0
 27 64  2  0  0  0  0
 28 56  1  0  0  0  0
 28 67  1  0  0  0  0
 29 66  1  0  0  0  0
 29 70  1  0  0  0  0
 30 62  1  0  0  0  0
 30 65  1  0  0  0  0
 30 67  2  0  0  0  0
 31 71  1  0  0  0  0
 31 76  2  0  0  0  0
 32 46  1  0  0  0  0
 32 72  1  0  0  0  0
 32 77  2  0  0  0  0
 33 60  1  0  0  0  0
 33 68  1  0  0  0  0
 33 78  2  0  0  0  0
 34 61  1  0  0  0  0
 34 73  1  0  0  0  0
 34 79  2  0  0  0  0
 35 69  1  0  0  0  0
 35 74  1  0  0  0  0
 35 80  2  0  0  0  0
 36 39  1  0  0  0  0
 37 46  1  0  0  0  0
 38 68  1  0  0  0  0
 39 41  1  0  0  0  0
 40 42  1  0  0  0  0
 40 43  1  0  0  0  0
 41 45  1  0  0  0  0
 42 47  1  0  0  0  0
 43 69  1  0  0  0  0
 44 47  1  0  0  0  0
 44 69  1  0  0  0  0
 45 72  1  0  0  0  0
 46 68  1  0  0  0  0
 47 66  1  0  0  0  0
 48 61  1  0  0  0  0
 49 62  1  0  0  0  0
 50 62  1  0  0  0  0
 51 63  1  0  0  0  0
 52 63  1  0  0  0  0
 53 63  1  0  0  0  0
 54 65  1  0  0  0  0
 55 75  1  0  0  0  0
 56 57  1  0  0  0  0
 57 59  1  0  0  0  0
 58 62  1  0  0  0  0
 58 74  1  0  0  0  0
 59 82  1  0  0  0  0
 60 63  1  0  0  0  0
 60 73  1  0  0  0  0
 61 75  1  0  0  0  0
 64 66  1  0  0  0  0
M  CHG  2  67   1  75   1
M  ISO  4  35 100  59 101  74 100  82 101
M  END
> <Batch ID>
0071

> <Smiles>
CNC(C)C(=O)NC(C(=O)N1Cc2cc([101O:1][101CH2:1]CCc3cn(C)c(C(C)(C)C[100NH:0][100C:0](=O)N4CCCC(n5nc(-c6ccc(Oc7ccc(F)cc7F)cc6)c(C(N)=O)c5N)C4)n3)ccc2CC1C(=O)NC1CCCc2ccccc21)C(C)(C)C

> <Shape>
0.145

> <Color>
0.170

> <Negative vol penalty>
0.000

$$$$

  -OEChem-04052318223D

 85 93  0     1  0  0  0  0  0999 V2000
  -16.8416  -28.0134   24.0554 C   0  0  0  0  0  0  0  0  0  0  0  0
  -17.5060  -27.3149   23.0523 C   0  0  0  0  0  0  0  0  0  0  0  0
  -24.3154   -9.4138   21.9755 C   0  0  0  0  0  0  0  0  0  0  0  0
  -22.8770  -10.3067   20.2520 C   0  0  0  0  0  0  0  0  0  0  0  0
  -17.2687  -29.2913   24.4136 C   0  0  0  0  0  0  0  0  0  0  0  0
  -18.5973  -27.8946   22.4061 C   0  0  0  0  0  0  0  0  0  0  0  0
  -22.4725  -24.6784   21.8731 C   0  0  0  0  0  0  0  0  0  0  0  0
  -23.5308   -8.2620   22.0338 C   0  0  0  0  0  0  0  0  0  0  0  0
  -22.0923   -9.1549   20.3102 C   0  0  0  0  0  0  0  0  0  0  0  0
  -22.3796  -23.7330   20.8526 C   0  0  0  0  0  0  0  0  0  0  0  0
  -21.6967   -5.2409   22.8897 C   0  0  0  0  0  0  0  0  0  0  0  0
  -21.3510   -4.7529   24.1498 C   0  0  0  0  0  0  0  0  0  0  0  0
  -23.8040  -25.0991   19.4656 C   0  0  0  0  0  0  0  0  0  0  0  0
  -23.4612  -19.3487   18.5534 C   0  0  0  0  0  0  0  0  0  0  0  0
  -20.2318   -6.8351   24.6490 C   0  0  0  0  0  0  0  0  0  0  0  0
  -25.3509  -20.3907   19.1962 C   0  0  0  0  0  0  0  0  0  0  0  0
  -23.9885  -10.4361   21.0846 C   0  0  0  0  0  0  0  0  0  0  0  0
  -25.9201  -11.8507   20.2040 C   0  0  0  0  0  0  0  0  0  0  0  0
  -18.3717  -29.8831   23.7782 C   0  0  0  0  0  0  0  0  0  0  0  0
  -23.2243  -25.8484   21.6932 C   0  0  0  0  0  0  0  0  0  0  0  0
  -19.0387  -29.1822   22.7553 C   0  0  0  0  0  0  0  0  0  0  0  0
  -23.9070  -26.0566   20.4862 C   0  0  0  0  0  0  0  0  0  0  0  0
  -24.3240  -20.4386   18.2796 C   0  0  0  0  0  0  0  0  0  0  0  0
  -22.4192   -8.1326   21.2011 C   0  0  0  0  0  0  0  0  0  0  0  0
  -23.0430  -23.9446   19.6476 C   0  0  0  0  0  0  0  0  0  0  0  0
  -21.3101   -6.5260   22.5092 C   0  0  0  0  0  0  0  0  0  0  0  0
  -20.6185   -5.5500   25.0294 C   0  0  0  0  0  0  0  0  0  0  0  0
  -20.5777   -7.3231   23.3888 C   0  0  0  0  0  0  0  0  0  0  0  0
  -24.7983  -11.6264   21.0244 C   0  0  0  0  0  0  0  0  0  0  0  0
  -23.9872  -18.6680   19.6292 C   0  0  0  0  0  0  0  0  0  0  0  0
  -26.3285  -13.1231   20.5212 C   0  0  0  0  0  0  0  0  0  0  0  0
  -26.5378  -10.9862   19.2413 C   0  0  0  0  0  0  0  0  0  0  0  0
  -22.5646  -28.9578   21.6733 C   0  0  0  0  0  0  0  0  0  0  0  0
  -25.7882  -29.2434   21.4524 C   0  0  0  0  0  0  0  0  0  0  0  0
  -23.3824  -17.8244   22.8299 C   0  0  0  0  0  0  0  0  0  0  0  0
  -28.7662  -27.8401   20.5529 C   0  0  0  0  0  0  0  0  0  0  0  0
  -18.7671  -31.2856   24.1670 C   0  0  0  0  0  0  0  0  0  0  0  0
  -23.3363  -26.8458   22.8135 C   0  0  0  0  0  0  0  0  0  0  0  0
  -24.7437  -27.2865   20.2503 C   0  0  0  0  0  0  0  0  0  0  0  0
  -20.1638  -31.6784   23.6922 C   0  0  0  0  0  0  0  0  0  0  0  0
  -26.3463  -16.2724   24.1129 C   0  0  0  0  0  0  0  0  0  0  0  0
  -20.3614  -31.2851   22.2317 C   0  0  0  0  0  0  0  0  0  0  0  0
  -26.3719  -14.9140   23.4132 C   0  0  0  0  0  0  0  0  0  0  0  0
  -24.9192  -16.7162   24.4186 C   0  0  0  0  0  0  0  0  0  0  0  0
  -24.0468  -15.3882   22.5221 C   0  0  0  0  0  0  0  0  0  0  0  0
  -20.2419  -29.7673   22.0481 C   0  0  1  0  0  0  0  0  0  0  0  0
  -23.7107  -28.2445   22.3331 C   0  0  1  0  0  0  0  0  0  0  0  0
  -25.4682  -14.9168   22.1675 C   0  0  2  0  0  0  0  0  0  0  0  0
  -22.8608  -16.4271   19.3402 C   0  0  0  0  0  0  0  0  0  0  0  0
  -31.2253  -28.3306   20.4553 C   0  0  0  0  0  0  0  0  0  0  0  0
  -22.8848  -21.2606   16.2966 C   0  0  0  0  0  0  0  0  0  0  0  0
  -25.3639  -21.4176   16.2108 C   0  0  0  0  0  0  0  0  0  0  0  0
  -21.5108  -16.6082   21.8055 C   0  0  0  0  0  0  0  0  0  0  0  0
  -21.8246  -19.0669   21.4530 C   0  0  0  0  0  0  0  0  0  0  0  0
  -25.3392  -30.9926   18.9930 C   0  0  0  0  0  0  0  0  0  0  0  0
  -27.7500  -30.6617   18.4037 C   0  0  0  0  0  0  0  0  0  0  0  0
  -27.1339  -31.8019   20.5352 C   0  0  0  0  0  0  0  0  0  0  0  0
  -26.0001  -18.9223   21.1047 C   0  0  0  0  0  0  0  0  0  0  0  0
  -29.4010  -25.6171   22.4007 C   0  0  0  0  0  0  0  0  0  0  0  0
  -24.0704  -22.9099   17.7689 C   0  0  0  0  0  0  0  0  0  1  0  0
  -23.4908  -17.4611   20.3220 C   0  0  2  0  0  0  0  0  0  0  0  0
  -26.7804  -29.3081   20.3164 C   0  0  1  0  0  0  0  0  0  0  0  0
  -30.0938  -27.7403   21.2823 C   0  0  2  0  0  0  0  0  0  0  0  0
  -24.1476  -21.4847   17.1629 C   0  0  0  0  0  0  0  0  0  0  0  0
  -22.5504  -17.7151   21.5770 C   0  0  0  0  0  0  0  0  0  0  0  0
  -26.7336  -30.6687   19.5655 C   0  0  0  0  0  0  0  0  0  0  0  0
  -24.5124  -12.6724   21.8042 N   0  0  0  0  0  0  0  0  0  0  0  0
  -25.1357  -19.3105   20.0118 N   0  0  0  0  0  0  0  0  0  0  0  0
  -25.4605  -13.5662   21.4753 N   0  0  0  0  0  0  0  0  0  0  0  0
  -24.8170  -28.2353   21.3737 N   0  0  0  0  0  0  0  0  0  0  0  0
  -24.0872  -16.6837   23.2145 N   0  0  0  0  0  0  0  0  0  0  0  0
  -27.3419  -13.8950   20.0743 N   0  0  0  0  0  0  0  0  0  0  0  0
  -25.9902   -9.7119   19.0392 N   0  0  0  0  0  0  0  0  0  0  0  0
  -21.4549  -29.1086   22.4829 N   0  0  0  0  0  0  0  0  0  0  0  0
  -28.0820  -28.9880   20.8926 N   0  0  0  0  0  0  0  0  0  0  0  0
  -30.4187  -26.3154   21.5739 N   0  3  0  0  0  0  0  0  0  0  0  0
  -27.5552  -11.3272   18.5917 O   0  0  0  0  0  0  0  0  0  0  0  0
  -22.6791  -29.3441   20.5161 O   0  0  0  0  0  0  0  0  0  0  0  0
  -25.8762  -30.0528   22.3790 O   0  0  0  0  0  0  0  0  0  0  0  0
  -23.4063  -18.8935   23.4453 O   0  0  0  0  0  0  0  0  0  0  0  0
  -28.3770  -26.9871   19.7583 O   0  0  0  0  0  0  0  0  0  0  0  0
  -21.6535   -7.0087   21.2575 O   0  0  0  0  0  0  0  0  0  0  0  0
  -22.9535  -23.0238   18.6496 O   0  0  0  0  0  0  0  0  0  1  0  0
  -20.2852   -5.0807   26.2389 F   0  0  0  0  0  0  0  0  0  0  0  0
  -20.2024   -8.5581   23.0285 F   0  0  0  0  0  0  0  0  0  0  0  0
  1  2  1  0  0  0  0
  1  5  2  0  0  0  0
  2  6  2  0  0  0  0
  3  8  2  0  0  0  0
  3 17  1  0  0  0  0
  4  9  1  0  0  0  0
  4 17  2  0  0  0  0
  5 19  1  0  0  0  0
  6 21  1  0  0  0  0
  7 10  2  0  0  0  0
  7 20  1  0  0  0  0
  8 24  1  0  0  0  0
  9 24  2  0  0  0  0
 10 25  1  0  0  0  0
 11 12  2  0  0  0  0
 11 26  1  0  0  0  0
 12 27  1  0  0  0  0
 13 22  1  0  0  0  0
 13 25  2  0  0  0  0
 14 23  1  0  0  0  0
 14 30  2  0  0  0  0
 15 27  2  0  0  0  0
 15 28  1  0  0  0  0
 16 23  2  0  0  0  0
 16 68  1  0  0  0  0
 17 29  1  0  0  0  0
 18 29  1  0  0  0  0
 18 31  2  0  0  0  0
 18 32  1  0  0  0  0
 19 21  2  0  0  0  0
 19 37  1  0  0  0  0
 20 22  2  0  0  0  0
 20 38  1  0  0  0  0
 21 46  1  0  0  0  0
 22 39  1  0  0  0  0
 23 64  1  0  0  0  0
 24 82  1  0  0  0  0
 25 83  1  0  0  0  0
 26 28  2  0  0  0  0
 26 82  1  0  0  0  0
 27 84  1  0  0  0  0
 28 85  1  0  0  0  0
 29 67  2  0  0  0  0
 30 61  1  0  0  0  0
 30 68  1  0  0  0  0
 31 69  1  0  0  0  0
 31 72  1  0  0  0  0
 32 73  1  0  0  0  0
 32 77  2  0  0  0  0
 33 47  1  0  0  0  0
 33 74  1  0  0  0  0
 33 78  2  0  0  0  0
 34 62  1  0  0  0  0
 34 70  1  0  0  0  0
 34 79  2  0  0  0  0
 35 65  1  0  0  0  0
 35 71  1  0  0  0  0
 35 80  2  0  0  0  0
 36 63  1  0  0  0  0
 36 75  1  0  0  0  0
 36 81  2  0  0  0  0
 37 40  1  0  0  0  0
 38 47  1  0  0  0  0
 39 70  1  0  0  0  0
 40 42  1  0  0  0  0
 41 43  1  0  0  0  0
 41 44  1  0  0  0  0
 42 46  1  0  0  0  0
 43 48  1  0  0  0  0
 44 71  1  0  0  0  0
 45 48  1  0  0  0  0
 45 71  1  0  0  0  0
 46 74  1  0  0  0  0
 47 70  1  0  0  0  0
 48 69  1  0  0  0  0
 49 61  1  0  0  0  0
 50 63  1  0  0  0  0
 51 64  1  0  0  0  0
 52 64  1  0  0  0  0
 53 65  1  0  0  0  0
 54 65  1  0  0  0  0
 55 66  1  0  0  0  0
 56 66  1  0  0  0  0
 57 66  1  0  0  0  0
 58 68  1  0  0  0  0
 59 76  1  0  0  0  0
 60 64  1  0  0  0  0
 60 83  1  0  0  0  0
 61 65  1  0  0  0  0
 62 66  1  0  0  0  0
 62 75  1  0  0  0  0
 63 76  1  0  0  0  0
 67 69  1  0  0  0  0
M  CHG  1  76   1
M  ISO  4  35 100  60 101  65 100  83 101
M  END
> <Batch ID>
0071

> <Smiles>
CNC(C)C(=O)NC(C(=O)N1Cc2cc([101O:1][101CH2:1]C(C)(C)c3cc(C(C)[100C:0](C)(C)[100C:0](=O)N4CCCC(n5nc(-c6ccc(Oc7ccc(F)cc7F)cc6)c(C(N)=O)c5N)C4)n(C)c3)ccc2CC1C(=O)NC1CCCc2ccccc21)C(C)(C)C

> <Shape>
0.237

> <Color>
0.109

> <Negative vol penalty>
0.000

$$$$

  -OEChem-04052318223D

 86 94  0     1  0  0  0  0  0999 V2000
  -28.0158  -23.6973   17.3371 C   0  0  0  0  0  0  0  0  0  0  0  0
  -26.9075  -24.4989   17.5858 C   0  0  0  0  0  0  0  0  0  0  0  0
  -27.2031  -16.0103   20.3386 C   0  0  0  0  0  0  0  0  0  0  0  0
  -24.8023  -16.0637   20.6038 C   0  0  0  0  0  0  0  0  0  0  0  0
  -29.1035  -23.7290   18.2073 C   0  0  0  0  0  0  0  0  0  0  0  0
  -26.8913  -25.3413   18.6980 C   0  0  0  0  0  0  0  0  0  0  0  0
  -23.1051  -28.4587   19.0856 C   0  0  0  0  0  0  0  0  0  0  0  0
  -19.8876  -23.9108   24.1729 C   0  0  0  0  0  0  0  0  0  0  0  0
  -27.1738  -14.6158   20.3549 C   0  0  0  0  0  0  0  0  0  0  0  0
  -24.7730  -14.6693   20.6200 C   0  0  0  0  0  0  0  0  0  0  0  0
  -21.8149  -28.0409   19.4087 C   0  0  0  0  0  0  0  0  0  0  0  0
  -25.4117  -12.1895   22.8278 C   0  0  0  0  0  0  0  0  0  0  0  0
  -24.6276  -11.5691   23.8003 C   0  0  0  0  0  0  0  0  0  0  0  0
  -20.9415  -23.2883   24.8325 C   0  0  0  0  0  0  0  0  0  0  0  0
  -22.1175  -28.8643   21.6559 C   0  0  0  0  0  0  0  0  0  0  0  0
  -23.3205  -10.5063   22.0685 C   0  0  0  0  0  0  0  0  0  0  0  0
  -26.0173  -16.7342   20.4631 C   0  0  0  0  0  0  0  0  0  0  0  0
  -25.9411  -19.0146   19.3222 C   0  0  0  0  0  0  0  0  0  0  0  0
  -29.0946  -24.5632   19.3373 C   0  0  0  0  0  0  0  0  0  0  0  0
  -23.9166  -29.0736   20.0499 C   0  0  0  0  0  0  0  0  0  0  0  0
  -27.9892  -25.4052   19.5749 C   0  0  0  0  0  0  0  0  0  0  0  0
  -23.4168  -29.2913   21.3417 C   0  0  0  0  0  0  0  0  0  0  0  0
  -19.5376  -25.2140   24.5083 C   0  0  0  0  0  0  0  0  0  0  0  0
  -25.9588  -13.9453   20.4956 C   0  0  0  0  0  0  0  0  0  0  0  0
  -21.3219  -28.2411   20.6948 C   0  0  0  0  0  0  0  0  0  0  0  0
  -25.1501  -11.9685   21.4756 C   0  0  0  0  0  0  0  0  0  0  0  0
  -23.5821  -10.7274   23.4207 C   0  0  0  0  0  0  0  0  0  0  0  0
  -24.1046  -11.1269   21.0959 C   0  0  0  0  0  0  0  0  0  0  0  0
  -26.0469  -18.1747   20.4470 C   0  0  0  0  0  0  0  0  0  0  0  0
  -21.6082  -24.0064   25.8122 C   0  0  0  0  0  0  0  0  0  0  0  0
  -20.2670  -25.8458   25.5026 C   0  0  0  0  0  0  0  0  0  0  0  0
  -26.0252  -20.2863   19.8342 C   0  0  0  0  0  0  0  0  0  0  0  0
  -25.7812  -18.6755   17.9383 C   0  0  0  0  0  0  0  0  0  0  0  0
  -26.7003  -28.3739   21.4156 C   0  0  0  0  0  0  0  0  0  0  0  0
  -24.2828  -23.1915   24.4537 C   0  0  0  0  0  0  0  0  0  0  0  0
  -26.3465  -31.3141   22.7395 C   0  0  0  0  0  0  0  0  0  0  0  0
  -24.2452  -33.8293   23.6907 C   0  0  0  0  0  0  0  0  0  0  0  0
  -30.3018  -24.5638   20.2417 C   0  0  0  0  0  0  0  0  0  0  0  0
  -25.2965  -29.5426   19.6780 C   0  0  0  0  0  0  0  0  0  0  0  0
  -24.2404  -29.9650   22.4076 C   0  0  0  0  0  0  0  0  0  0  0  0
  -30.0115  -25.1480   21.6204 C   0  0  0  0  0  0  0  0  0  0  0  0
  -27.7712  -22.2660   24.0048 C   0  0  0  0  0  0  0  0  0  0  0  0
  -29.2981  -26.4842   21.4789 C   0  0  0  0  0  0  0  0  0  0  0  0
  -27.6625  -21.1687   22.9468 C   0  0  0  0  0  0  0  0  0  0  0  0
  -26.5842  -22.2402   24.9642 C   0  0  0  0  0  0  0  0  0  0  0  0
  -25.1460  -21.2257   23.2243 C   0  0  0  0  0  0  0  0  0  0  0  0
  -27.9365  -26.3067   20.7952 C   0  0  1  0  0  0  0  0  0  0  0  0
  -26.2208  -29.6942   20.8821 C   0  0  1  0  0  0  0  0  0  0  0  0
  -26.3090  -21.2367   22.2182 C   0  0  2  0  0  0  0  0  0  0  0  0
  -21.0282  -27.8732   26.7663 C   0  0  0  0  0  0  0  0  0  0  0  0
  -24.4524  -25.2175   25.8281 C   0  0  0  0  0  0  0  0  0  0  0  0
  -24.2451  -36.0903   24.7796 C   0  0  0  0  0  0  0  0  0  0  0  0
  -22.6393  -21.8074   26.6864 C   0  0  0  0  0  0  0  0  0  0  0  0
  -22.7843  -23.8917   28.0200 C   0  0  0  0  0  0  0  0  0  0  0  0
  -26.7580  -30.0001   25.4623 C   0  0  0  0  0  0  0  0  0  0  0  0
  -25.8201  -32.0651   26.5228 C   0  0  0  0  0  0  0  0  0  0  0  0
  -27.9173  -32.1978   25.1787 C   0  0  0  0  0  0  0  0  0  0  0  0
  -23.1035  -35.1172   21.2830 C   0  0  0  0  0  0  0  0  0  0  0  0
  -18.3948  -25.8940   23.7975 C   0  0  0  0  0  0  0  0  0  0  0  0
  -19.9379  -27.2468   25.9023 C   0  0  0  0  0  0  0  0  0  0  0  0
  -18.7450  -26.3741   22.3874 C   0  0  0  0  0  0  0  0  0  0  0  0
  -19.8285  -27.4461   22.3662 C   0  0  0  0  0  0  0  0  0  1  0  0
  -24.1397  -23.7189   25.8592 C   0  0  1  0  0  0  0  0  0  0  0  0
  -25.7087  -31.8500   23.9984 C   0  0  1  0  0  0  0  0  0  0  0  0
  -24.3021  -35.3293   23.4641 C   0  0  2  0  0  0  0  0  0  0  0  0
  -22.7453  -23.3696   26.5391 C   0  0  0  0  0  0  0  0  0  0  0  0
  -26.5360  -31.5138   25.2712 C   0  0  0  0  0  0  0  0  0  0  0  0
  -26.1875  -18.8555   21.5875 N   0  0  0  0  0  0  0  0  0  0  0  0
  -21.2970  -25.2736   26.1655 N   0  0  0  0  0  0  0  0  0  0  0  0
  -26.1708  -20.1367   21.1820 N   0  0  0  0  0  0  0  0  0  0  0  0
  -25.5857  -30.4000   21.9969 N   0  0  0  0  0  0  0  0  0  0  0  0
  -25.3137  -22.2787   24.2300 N   0  0  0  0  0  0  0  0  0  0  0  0
  -25.9880  -21.5068   19.2584 N   0  0  0  0  0  0  0  0  0  0  0  0
  -25.7128  -17.3207   17.5859 N   0  0  0  0  0  0  0  0  0  0  0  0
  -27.3872  -27.6097   20.4917 N   0  0  0  0  0  0  0  0  0  0  0  0
  -25.5059  -33.2777   23.7775 N   0  0  0  0  0  0  0  0  0  0  0  0
  -23.1576  -35.7689   22.6169 N   0  3  0  0  0  0  0  0  0  0  0  0
  -25.7177  -19.5477   17.0390 O   0  0  0  0  0  0  0  0  0  0  0  0
  -26.4657  -28.0716   22.5798 O   0  0  0  0  0  0  0  0  0  0  0  0
  -23.5025  -23.5825   23.5817 O   0  0  0  0  0  0  0  0  0  0  0  0
  -27.4751  -31.6980   22.4227 O   0  0  0  0  0  0  0  0  0  0  0  0
  -23.1881  -33.2096   23.7853 O   0  0  0  0  0  0  0  0  0  0  0  0
  -25.9299  -12.5846   20.5112 O   0  0  0  0  0  0  0  0  0  0  0  0
  -20.0631  -27.8337   21.0130 O   0  0  0  0  0  0  0  0  0  1  0  0
  -22.8302  -10.1304   24.3548 F   0  0  0  0  0  0  0  0  0  0  0  0
  -23.8492  -10.9097   19.7985 F   0  0  0  0  0  0  0  0  0  0  0  0
  1  2  1  0  0  0  0
  1  5  2  0  0  0  0
  2  6  2  0  0  0  0
  3  9  2  0  0  0  0
  3 17  1  0  0  0  0
  4 10  1  0  0  0  0
  4 17  2  0  0  0  0
  5 19  1  0  0  0  0
  6 21  1  0  0  0  0
  7 11  2  0  0  0  0
  7 20  1  0  0  0  0
  8 14  2  0  0  0  0
  8 23  1  0  0  0  0
  9 24  1  0  0  0  0
 10 24  2  0  0  0  0
 11 25  1  0  0  0  0
 12 13  2  0  0  0  0
 12 26  1  0  0  0  0
 13 27  1  0  0  0  0
 14 30  1  0  0  0  0
 15 22  1  0  0  0  0
 15 25  2  0  0  0  0
 16 27  2  0  0  0  0
 16 28  1  0  0  0  0
 17 29  1  0  0  0  0
 18 29  1  0  0  0  0
 18 32  2  0  0  0  0
 18 33  1  0  0  0  0
 19 21  2  0  0  0  0
 19 38  1  0  0  0  0
 20 22  2  0  0  0  0
 20 39  1  0  0  0  0
 21 47  1  0  0  0  0
 22 40  1  0  0  0  0
 23 31  2  0  0  0  0
 23 59  1  0  0  0  0
 24 83  1  0  0  0  0
 25 84  1  0  0  0  0
 26 28  2  0  0  0  0
 26 83  1  0  0  0  0
 27 85  1  0  0  0  0
 28 86  1  0  0  0  0
 29 68  2  0  0  0  0
 30 66  1  0  0  0  0
 30 69  2  0  0  0  0
 31 60  1  0  0  0  0
 31 69  1  0  0  0  0
 32 70  1  0  0  0  0
 32 73  1  0  0  0  0
 33 74  1  0  0  0  0
 33 78  2  0  0  0  0
 34 48  1  0  0  0  0
 34 75  1  0  0  0  0
 34 79  2  0  0  0  0
 35 63  1  0  0  0  0
 35 72  1  0  0  0  0
 35 80  2  0  0  0  0
 36 64  1  0  0  0  0
 36 71  1  0  0  0  0
 36 81  2  0  0  0  0
 37 65  1  0  0  0  0
 37 76  1  0  0  0  0
 37 82  2  0  0  0  0
 38 41  1  0  0  0  0
 39 48  1  0  0  0  0
 40 71  1  0  0  0  0
 41 43  1  0  0  0  0
 42 44  1  0  0  0  0
 42 45  1  0  0  0  0
 43 47  1  0  0  0  0
 44 49  1  0  0  0  0
 45 72  1  0  0  0  0
 46 49  1  0  0  0  0
 46 72  1  0  0  0  0
 47 75  1  0  0  0  0
 48 71  1  0  0  0  0
 49 70  1  0  0  0  0
 50 60  1  0  0  0  0
 51 63  1  0  0  0  0
 52 65  1  0  0  0  0
 53 66  1  0  0  0  0
 54 66  1  0  0  0  0
 55 67  1  0  0  0  0
 56 67  1  0  0  0  0
 57 67  1  0  0  0  0
 58 77  1  0  0  0  0
 59 61  1  0  0  0  0
 61 62  1  0  0  0  0
 62 84  1  0  0  0  0
 63 66  1  0  0  0  0
 64 67  1  0  0  0  0
 64 76  1  0  0  0  0
 65 77  1  0  0  0  0
 68 70  1  0  0  0  0
M  CHG  1  77   1
M  ISO  4  35 100  62 101  63 100  84 101
M  END
> <Batch ID>
0071

> <Smiles>
CCc1nc(C(C)(C)[100CH:0](C)[100C:0](=O)N2CCCC(n3nc(-c4ccc(Oc5ccc(F)cc5F)cc4)c(C(N)=O)c3N)C2)ccc1CC[101CH2:1][101O:1]c1ccc2c(c1)CN(C(=O)C(NC(=O)C(C)NC)C(C)(C)C)C(C(=O)NC1CCCc3ccccc31)C2

> <Shape>
0.238

> <Color>
0.056

> <Negative vol penalty>
0.000

$$$$

  -OEChem-04052318223D

 85 93  0     1  0  0  0  0  0999 V2000
  -18.4741  -33.3034   21.4474 C   0  0  0  0  0  0  0  0  0  0  0  0
  -19.7332  -33.0721   20.9028 C   0  0  0  0  0  0  0  0  0  0  0  0
  -25.5832  -15.5195   21.6591 C   0  0  0  0  0  0  0  0  0  0  0  0
  -25.1623  -16.5895   19.5342 C   0  0  0  0  0  0  0  0  0  0  0  0
  -18.1107  -32.6899   22.6455 C   0  0  0  0  0  0  0  0  0  0  0  0
  -20.6300  -32.2279   21.5566 C   0  0  0  0  0  0  0  0  0  0  0  0
  -24.7082  -28.4685   18.9602 C   0  0  0  0  0  0  0  0  0  0  0  0
  -24.3253  -14.9191   21.6060 C   0  0  0  0  0  0  0  0  0  0  0  0
  -23.9044  -15.9891   19.4810 C   0  0  0  0  0  0  0  0  0  0  0  0
  -26.0746  -28.5936   18.7127 C   0  0  0  0  0  0  0  0  0  0  0  0
  -22.8875  -12.2819   20.0534 C   0  0  0  0  0  0  0  0  0  0  0  0
  -22.8007  -10.9287   20.3805 C   0  0  0  0  0  0  0  0  0  0  0  0
  -26.5476  -27.4009   20.7555 C   0  0  0  0  0  0  0  0  0  0  0  0
  -21.2826  -11.4617   22.1828 C   0  0  0  0  0  0  0  0  0  0  0  0
  -32.6168  -25.1603   17.9643 C   0  0  0  0  0  0  0  0  0  0  0  0
  -31.6349  -24.4795   16.1126 C   0  0  0  0  0  0  0  0  0  0  0  0
  -26.0017  -16.3547   20.6232 C   0  0  0  0  0  0  0  0  0  0  0  0
  -28.5114  -16.4595   20.1779 C   0  0  0  0  0  0  0  0  0  0  0  0
  -19.0000  -31.8302   23.3094 C   0  0  0  0  0  0  0  0  0  0  0  0
  -24.2507  -27.8171   20.1146 C   0  0  0  0  0  0  0  0  0  0  0  0
  -20.2787  -31.6034   22.7654 C   0  0  0  0  0  0  0  0  0  0  0  0
  -25.1750  -27.2666   21.0140 C   0  0  0  0  0  0  0  0  0  0  0  0
  -23.4859  -15.1539   20.5169 C   0  0  0  0  0  0  0  0  0  0  0  0
  -26.9945  -28.0623   19.6119 C   0  0  0  0  0  0  0  0  0  0  0  0
  -22.1719  -13.2250   20.7911 C   0  0  0  0  0  0  0  0  0  0  0  0
  -21.9983  -10.5186   21.4451 C   0  0  0  0  0  0  0  0  0  0  0  0
  -21.3695  -12.8149   21.8558 C   0  0  0  0  0  0  0  0  0  0  0  0
  -27.3008  -16.9757   20.6778 C   0  0  0  0  0  0  0  0  0  0  0  0
  -32.4469  -23.7958   17.9575 C   0  0  0  0  0  0  0  0  0  0  0  0
  -29.4444  -17.4221   20.4768 C   0  0  0  0  0  0  0  0  0  0  0  0
  -28.7694  -15.2208   19.5036 C   0  0  0  0  0  0  0  0  0  0  0  0
  -22.5388  -28.6825   22.6492 C   0  0  0  0  0  0  0  0  0  0  0  0
  -22.7041  -25.5204   23.3536 C   0  0  0  0  0  0  0  0  0  0  0  0
  -24.3499  -22.5531   22.9889 C   0  0  0  0  0  0  0  0  0  0  0  0
  -31.0222  -22.7710   20.6900 C   0  0  0  0  0  0  0  0  0  0  0  0
  -18.5797  -31.2271   24.6263 C   0  0  0  0  0  0  0  0  0  0  0  0
  -22.7733  -27.6671   20.3536 C   0  0  0  0  0  0  0  0  0  0  0  0
  -24.7350  -26.5402   22.2579 C   0  0  0  0  0  0  0  0  0  0  0  0
  -19.4501  -30.0515   25.0632 C   0  0  0  0  0  0  0  0  0  0  0  0
  -29.1200  -21.5184   23.4267 C   0  0  0  0  0  0  0  0  0  0  0  0
  -20.9280  -30.3918   24.8999 C   0  0  0  0  0  0  0  0  0  0  0  0
  -28.5723  -20.1860   22.9121 C   0  0  0  0  0  0  0  0  0  0  0  0
  -29.1698  -22.5723   22.3227 C   0  0  0  0  0  0  0  0  0  0  0  0
  -29.3456  -20.8279   20.5907 C   0  0  0  0  0  0  0  0  0  0  0  0
  -21.2701  -30.6746   23.4321 C   0  0  1  0  0  0  0  0  0  0  0  0
  -22.4259  -27.4341   21.8207 C   0  0  1  0  0  0  0  0  0  0  0  0
  -29.3287  -19.7170   21.6546 C   0  0  2  0  0  0  0  0  0  0  0  0
  -35.9870  -23.0806   18.9111 C   0  0  0  0  0  0  0  0  0  0  0  0
  -24.2676  -20.1526   23.7155 C   0  0  0  0  0  0  0  0  0  0  0  0
  -34.1263  -20.6762   19.6383 C   0  0  0  0  0  0  0  0  0  0  0  0
  -23.7847  -26.3153   26.0941 C   0  0  0  0  0  0  0  0  0  0  0  0
  -24.5606  -23.9541   26.3957 C   0  0  0  0  0  0  0  0  0  0  0  0
  -22.1288  -24.4416   26.1291 C   0  0  0  0  0  0  0  0  0  0  0  0
  -24.0477  -21.5996   20.2035 C   0  0  0  0  0  0  0  0  0  0  0  0
  -35.1453  -22.2576   17.9451 C   0  0  0  0  0  0  0  0  0  0  0  0
  -30.6414  -27.6534   16.4506 C   0  0  0  0  0  0  0  0  0  0  0  0
  -30.1301  -27.6173   17.8917 C   0  0  0  0  0  0  0  0  0  0  0  0
  -32.0228  -27.0093   16.2878 C   0  0  0  0  0  0  0  0  0  0  0  0
  -28.7424  -28.2335   18.0082 C   0  0  0  0  0  0  0  0  0  1  0  0
  -32.8325  -22.8254   18.9932 C   0  0  2  0  0  0  0  0  0  0  0  0
  -23.6606  -24.6463   24.1282 C   0  0  1  0  0  0  0  0  0  0  0  0
  -23.8510  -21.1590   22.6542 C   0  0  2  0  0  0  0  0  0  0  0  0
  -33.8265  -21.6957   18.5271 C   0  0  2  0  0  0  0  0  0  0  0  0
  -23.5423  -24.8547   25.6644 C   0  0  0  0  0  0  0  0  0  0  0  0
  -31.8354  -23.3783   16.8019 N   0  0  0  0  0  0  0  0  0  0  0  0
  -27.4483  -18.1730   21.2509 N   0  0  0  0  0  0  0  0  0  0  0  0
  -32.0922  -25.5841   16.7759 N   0  0  0  0  0  0  0  0  0  0  0  0
  -28.7626  -18.4173   21.1131 N   0  0  0  0  0  0  0  0  0  0  0  0
  -23.2800  -26.4251   22.4504 N   0  0  0  0  0  0  0  0  0  0  0  0
  -29.9021  -22.0653   21.1597 N   0  0  0  0  0  0  0  0  0  0  0  0
  -30.7734  -17.5057   20.2549 N   0  0  0  0  0  0  0  0  0  0  0  0
  -27.6969  -14.3474   19.2771 N   0  0  0  0  0  0  0  0  0  0  0  0
  -21.3814  -29.4363   22.6915 N   0  0  0  0  0  0  0  0  0  0  0  0
  -23.4091  -23.2777   23.6897 N   0  0  0  0  0  0  0  0  0  0  0  0
  -31.6623  -22.2185   19.5874 N   0  0  0  0  0  0  0  0  0  0  0  0
  -24.4002  -20.7134   21.3425 N   0  3  0  0  0  0  0  0  0  0  0  0
  -29.9198  -14.8907   19.1281 O   0  0  0  0  0  0  0  0  0  0  0  0
  -23.5971  -28.9419   23.2099 O   0  0  0  0  0  0  0  0  0  0  0  0
  -21.4903  -25.3999   23.5378 O   0  0  0  0  0  0  0  0  0  0  0  0
  -25.4643  -22.9575   22.6646 O   0  0  0  0  0  0  0  0  0  0  0  0
  -31.4252  -23.8131   21.2177 O   0  0  0  0  0  0  0  0  0  0  0  0
  -22.2585  -14.5680   20.4646 O   0  0  0  0  0  0  0  0  0  0  0  0
  -28.3288  -28.1836   19.3730 O   0  0  0  0  0  0  0  0  0  1  0  0
  -21.9138   -9.2190   21.7581 F   0  0  0  0  0  0  0  0  0  0  0  0
  -20.6787  -13.7162   22.5674 F   0  0  0  0  0  0  0  0  0  0  0  0
  1  2  1  0  0  0  0
  1  5  2  0  0  0  0
  2  6  2  0  0  0  0
  3  8  2  0  0  0  0
  3 17  1  0  0  0  0
  4  9  1  0  0  0  0
  4 17  2  0  0  0  0
  5 19  1  0  0  0  0
  6 21  1  0  0  0  0
  7 10  2  0  0  0  0
  7 20  1  0  0  0  0
  8 23  1  0  0  0  0
  9 23  2  0  0  0  0
 10 24  1  0  0  0  0
 11 12  2  0  0  0  0
 11 25  1  0  0  0  0
 12 26  1  0  0  0  0
 13 22  1  0  0  0  0
 13 24  2  0  0  0  0
 14 26  2  0  0  0  0
 14 27  1  0  0  0  0
 15 29  2  0  0  0  0
 15 67  1  0  0  0  0
 16 65  2  0  0  0  0
 16 67  1  0  0  0  0
 17 28  1  0  0  0  0
 18 28  1  0  0  0  0
 18 30  2  0  0  0  0
 18 31  1  0  0  0  0
 19 21  2  0  0  0  0
 19 36  1  0  0  0  0
 20 22  2  0  0  0  0
 20 37  1  0  0  0  0
 21 45  1  0  0  0  0
 22 38  1  0  0  0  0
 23 82  1  0  0  0  0
 24 83  1  0  0  0  0
 25 27  2  0  0  0  0
 25 82  1  0  0  0  0
 26 84  1  0  0  0  0
 27 85  1  0  0  0  0
 28 66  2  0  0  0  0
 29 60  1  0  0  0  0
 29 65  1  0  0  0  0
 30 68  1  0  0  0  0
 30 71  1  0  0  0  0
 31 72  1  0  0  0  0
 31 77  2  0  0  0  0
 32 46  1  0  0  0  0
 32 73  1  0  0  0  0
 32 78  2  0  0  0  0
 33 61  1  0  0  0  0
 33 69  1  0  0  0  0
 33 79  2  0  0  0  0
 34 62  1  0  0  0  0
 34 74  1  0  0  0  0
 34 80  2  0  0  0  0
 35 70  1  0  0  0  0
 35 75  1  0  0  0  0
 35 81  2  0  0  0  0
 36 39  1  0  0  0  0
 37 46  1  0  0  0  0
 38 69  1  0  0  0  0
 39 41  1  0  0  0  0
 40 42  1  0  0  0  0
 40 43  1  0  0  0  0
 41 45  1  0  0  0  0
 42 47  1  0  0  0  0
 43 70  1  0  0  0  0
 44 47  1  0  0  0  0
 44 70  1  0  0  0  0
 45 73  1  0  0  0  0
 46 69  1  0  0  0  0
 47 68  1  0  0  0  0
 48 55  1  0  0  0  0
 49 62  1  0  0  0  0
 50 63  1  0  0  0  0
 51 64  1  0  0  0  0
 52 64  1  0  0  0  0
 53 64  1  0  0  0  0
 54 76  1  0  0  0  0
 55 63  1  0  0  0  0
 56 57  1  0  0  0  0
 56 58  1  0  0  0  0
 57 59  1  0  0  0  0
 58 67  1  0  0  0  0
 59 83  1  0  0  0  0
 60 63  1  0  0  0  0
 60 75  1  0  0  0  0
 61 64  1  0  0  0  0
 61 74  1  0  0  0  0
 62 76  1  0  0  0  0
 66 68  1  0  0  0  0
M  CHG  1  76   1
M  ISO  4  35 100  59 101  75 100  83 101
M  END
> <Batch ID>
0071

> <Smiles>
CCC(C)C([100NH:0][100C:0](=O)N1CCCC(n2nc(-c3ccc(Oc4ccc(F)cc4F)cc3)c(C(N)=O)c2N)C1)c1cn(CCC[101CH2:1][101O:1]c2ccc3c(c2)CN(C(=O)C(NC(=O)C(C)NC)C(C)(C)C)C(C(=O)NC2CCCc4ccccc42)C3)cn1

> <Shape>
0.178

> <Color>
0.081

> <Negative vol penalty>
0.000

$$$$

  -OEChem-04052318223D

 85 93  0     1  0  0  0  0  0999 V2000
  -28.8865  -27.0400   24.4889 C   0  0  0  0  0  0  0  0  0  0  0  0
  -29.4491  -25.9204   25.0934 C   0  0  0  0  0  0  0  0  0  0  0  0
  -23.0645   -9.8753   19.9512 C   0  0  0  0  0  0  0  0  0  0  0  0
  -23.8557   -9.8781   22.2340 C   0  0  0  0  0  0  0  0  0  0  0  0
  -27.5200  -27.2863   24.6152 C   0  0  0  0  0  0  0  0  0  0  0  0
  -28.6457  -25.0469   25.8254 C   0  0  0  0  0  0  0  0  0  0  0  0
  -29.6100  -20.1858   24.7840 C   0  0  0  0  0  0  0  0  0  0  0  0
  -22.3261   -8.7203   20.2085 C   0  0  0  0  0  0  0  0  0  0  0  0
  -23.1172   -8.7231   22.4913 C   0  0  0  0  0  0  0  0  0  0  0  0
  -30.7431  -19.6220   25.3687 C   0  0  0  0  0  0  0  0  0  0  0  0
  -19.9475   -5.9756   20.3629 C   0  0  0  0  0  0  0  0  0  0  0  0
  -18.6353   -5.9265   19.8924 C   0  0  0  0  0  0  0  0  0  0  0  0
  -29.3562  -18.6012   27.0579 C   0  0  0  0  0  0  0  0  0  0  0  0
  -18.0850   -7.8652   21.2249 C   0  0  0  0  0  0  0  0  0  0  0  0
  -23.8294  -10.4542   20.9639 C   0  0  0  0  0  0  0  0  0  0  0  0
  -24.1653  -12.9802   20.8453 C   0  0  0  0  0  0  0  0  0  0  0  0
  -26.6977  -26.4102   25.3410 C   0  0  0  0  0  0  0  0  0  0  0  0
  -28.3404  -19.9701   25.3391 C   0  0  0  0  0  0  0  0  0  0  0  0
  -27.2671  -25.2824   25.9626 C   0  0  0  0  0  0  0  0  0  0  0  0
  -28.2082  -19.1613   26.4769 C   0  0  0  0  0  0  0  0  0  0  0  0
  -22.3524   -8.1442   21.4786 C   0  0  0  0  0  0  0  0  0  0  0  0
  -30.6167  -18.8320   26.5075 C   0  0  0  0  0  0  0  0  0  0  0  0
  -20.3284   -6.9694   21.2645 C   0  0  0  0  0  0  0  0  0  0  0  0
  -17.7041   -6.8713   20.3233 C   0  0  0  0  0  0  0  0  0  0  0  0
  -19.3972   -7.9143   21.6954 C   0  0  0  0  0  0  0  0  0  0  0  0
  -24.5929  -11.6470   20.6986 C   0  0  0  0  0  0  0  0  0  0  0  0
  -25.2511  -13.7324   20.4690 C   0  0  0  0  0  0  0  0  0  0  0  0
  -30.8748  -14.7254   23.9347 C   0  0  0  0  0  0  0  0  0  0  0  0
  -32.5541  -13.8657   24.8280 C   0  0  0  0  0  0  0  0  0  0  0  0
  -22.8998  -13.4928   21.2829 C   0  0  0  0  0  0  0  0  0  0  0  0
  -26.0966  -21.8360   26.5989 C   0  0  0  0  0  0  0  0  0  0  0  0
  -24.3889  -19.0788   26.6614 C   0  0  0  0  0  0  0  0  0  0  0  0
  -30.7575  -14.6938   20.6813 C   0  0  0  0  0  0  0  0  0  0  0  0
  -24.3970  -15.6666   26.7210 C   0  0  0  0  0  0  0  0  0  0  0  0
  -25.2343  -26.7434   25.4894 C   0  0  0  0  0  0  0  0  0  0  0  0
  -27.1251  -20.5634   24.6809 C   0  0  0  0  0  0  0  0  0  0  0  0
  -26.8657  -18.8824   27.0999 C   0  0  0  0  0  0  0  0  0  0  0  0
  -24.3873  -25.5673   25.9684 C   0  0  0  0  0  0  0  0  0  0  0  0
  -29.5625  -12.4012   18.2001 C   0  0  0  0  0  0  0  0  0  0  0  0
  -25.0595  -24.8702   27.1469 C   0  0  0  0  0  0  0  0  0  0  0  0
  -28.1388  -12.0869   18.6578 C   0  0  0  0  0  0  0  0  0  0  0  0
  -30.4990  -12.6025   19.3873 C   0  0  0  0  0  0  0  0  0  0  0  0
  -28.6138  -13.3307   20.8147 C   0  0  0  0  0  0  0  0  0  0  0  0
  -26.4241  -24.2982   26.7442 C   0  0  1  0  0  0  0  0  0  0  0  0
  -25.9380  -20.6990   25.6296 C   0  0  1  0  0  0  0  0  0  0  0  0
  -27.6285  -13.1503   19.6464 C   0  0  2  0  0  0  0  0  0  0  0  0
  -33.7218  -13.0460   25.1981 C   0  0  0  0  0  0  0  0  0  0  0  0
  -22.8480  -13.6942   26.8077 C   0  0  0  0  0  0  0  0  0  0  0  0
  -31.1847  -16.7850   21.8867 C   0  0  0  0  0  0  0  0  0  0  0  0
  -28.9045  -16.3099   20.9793 C   0  0  0  0  0  0  0  0  0  0  0  0
  -23.9050  -19.5924   29.6299 C   0  0  0  0  0  0  0  0  0  0  0  0
  -23.2054  -17.1994   29.8585 C   0  0  0  0  0  0  0  0  0  0  0  0
  -21.9136  -18.7389   28.3807 C   0  0  0  0  0  0  0  0  0  0  0  0
  -34.1374  -17.0516   28.1473 C   0  0  0  0  0  0  0  0  0  0  0  0
  -34.7993  -16.4958   25.8067 C   0  0  0  0  0  0  0  0  0  0  0  0
  -25.3682  -14.6424   24.1197 C   0  0  0  0  0  0  0  0  0  0  0  0
  -29.7857  -14.9548   22.9780 C   0  0  0  0  0  0  0  0  0  0  0  0
  -32.7016  -15.4676   26.8522 C   0  0  0  0  0  0  0  0  0  0  0  0
  -32.8127  -17.9665   26.2169 C   0  0  0  0  0  0  0  0  0  1  0  0
  -24.2057  -17.9569   27.6548 C   0  0  1  0  0  0  0  0  0  0  0  0
  -23.6247  -14.6431   25.9083 C   0  0  2  0  0  0  0  0  0  0  0  0
  -30.1408  -15.6845   21.6363 C   0  0  0  0  0  0  0  0  0  0  0  0
  -23.3331  -18.3785   28.8706 C   0  0  0  0  0  0  0  0  0  0  0  0
  -33.5945  -16.7390   26.7343 C   0  0  0  0  0  0  0  0  0  0  0  0
  -25.8520  -11.5544   20.2628 N   0  0  0  0  0  0  0  0  0  0  0  0
  -31.7794  -13.7144   23.7790 N   0  0  0  0  0  0  0  0  0  0  0  0
  -31.0411  -15.4927   25.0141 N   0  0  0  0  0  0  0  0  0  0  0  0
  -26.2250  -12.8389   20.1324 N   0  0  0  0  0  0  0  0  0  0  0  0
  -32.1215  -14.9216   25.5680 N   0  0  0  0  0  0  0  0  0  0  0  0
  -25.7079  -19.4901   26.4233 N   0  0  0  0  0  0  0  0  0  0  0  0
  -29.9682  -13.6037   20.3142 N   0  0  0  0  0  0  0  0  0  0  0  0
  -25.4583  -15.0644   20.3963 N   0  0  0  0  0  0  0  0  0  0  0  0
  -21.8941  -12.5811   21.6317 N   0  0  0  0  0  0  0  0  0  0  0  0
  -26.2568  -23.0698   25.9976 N   0  0  0  0  0  0  0  0  0  0  0  0
  -23.6740  -16.8268   26.9009 N   0  0  0  0  0  0  0  0  0  0  0  0
  -24.5567  -13.8380   25.0691 N   0  3  0  0  0  0  0  0  0  0  0  0
  -22.6623  -14.7229   21.3464 O   0  0  0  0  0  0  0  0  0  0  0  0
  -26.0736  -21.6109   27.8033 O   0  0  0  0  0  0  0  0  0  0  0  0
  -23.3986  -19.5672   26.1114 O   0  0  0  0  0  0  0  0  0  0  0  0
  -31.9056  -14.8862   20.2724 O   0  0  0  0  0  0  0  0  0  0  0  0
  -25.5271  -15.4563   27.1561 O   0  0  0  0  0  0  0  0  0  0  0  0
  -21.6317   -7.0173   21.7301 O   0  0  0  0  0  0  0  0  0  0  0  0
  -31.7212  -18.2810   27.0806 O   0  0  0  0  0  0  0  0  0  1  0  0
  -16.4444   -6.8250   19.8702 F   0  0  0  0  0  0  0  0  0  0  0  0
  -19.7576   -8.8721   22.5606 F   0  0  0  0  0  0  0  0  0  0  0  0
  1  2  1  0  0  0  0
  1  5  2  0  0  0  0
  2  6  2  0  0  0  0
  3  8  2  0  0  0  0
  3 15  1  0  0  0  0
  4  9  1  0  0  0  0
  4 15  2  0  0  0  0
  5 17  1  0  0  0  0
  6 19  1  0  0  0  0
  7 10  2  0  0  0  0
  7 18  1  0  0  0  0
  8 21  1  0  0  0  0
  9 21  2  0  0  0  0
 10 22  1  0  0  0  0
 11 12  2  0  0  0  0
 11 23  1  0  0  0  0
 12 24  1  0  0  0  0
 13 20  1  0  0  0  0
 13 22  2  0  0  0  0
 14 24  2  0  0  0  0
 14 25  1  0  0  0  0
 15 26  1  0  0  0  0
 16 26  1  0  0  0  0
 16 27  2  0  0  0  0
 16 30  1  0  0  0  0
 17 19  2  0  0  0  0
 17 35  1  0  0  0  0
 18 20  2  0  0  0  0
 18 36  1  0  0  0  0
 19 44  1  0  0  0  0
 20 37  1  0  0  0  0
 21 82  1  0  0  0  0
 22 83  1  0  0  0  0
 23 25  2  0  0  0  0
 23 82  1  0  0  0  0
 24 84  1  0  0  0  0
 25 85  1  0  0  0  0
 26 65  2  0  0  0  0
 27 68  1  0  0  0  0
 27 72  1  0  0  0  0
 28 57  1  0  0  0  0
 28 66  1  0  0  0  0
 28 67  2  0  0  0  0
 29 47  1  0  0  0  0
 29 66  2  0  0  0  0
 29 69  1  0  0  0  0
 30 73  1  0  0  0  0
 30 77  2  0  0  0  0
 31 45  1  0  0  0  0
 31 74  1  0  0  0  0
 31 78  2  0  0  0  0
 32 60  1  0  0  0  0
 32 70  1  0  0  0  0
 32 79  2  0  0  0  0
 33 62  1  0  0  0  0
 33 71  1  0  0  0  0
 33 80  2  0  0  0  0
 34 61  1  0  0  0  0
 34 75  1  0  0  0  0
 34 81  2  0  0  0  0
 35 38  1  0  0  0  0
 36 45  1  0  0  0  0
 37 70  1  0  0  0  0
 38 40  1  0  0  0  0
 39 41  1  0  0  0  0
 39 42  1  0  0  0  0
 40 44  1  0  0  0  0
 41 46  1  0  0  0  0
 42 71  1  0  0  0  0
 43 46  1  0  0  0  0
 43 71  1  0  0  0  0
 44 74  1  0  0  0  0
 45 70  1  0  0  0  0
 46 68  1  0  0  0  0
 48 61  1  0  0  0  0
 49 62  1  0  0  0  0
 50 62  1  0  0  0  0
 51 63  1  0  0  0  0
 52 63  1  0  0  0  0
 53 63  1  0  0  0  0
 54 64  1  0  0  0  0
 55 64  1  0  0  0  0
 56 76  1  0  0  0  0
 57 62  1  0  0  0  0
 58 64  1  0  0  0  0
 58 69  1  0  0  0  0
 59 64  1  0  0  0  0
 59 83  1  0  0  0  0
 60 63  1  0  0  0  0
 60 75  1  0  0  0  0
 61 76  1  0  0  0  0
 65 68  1  0  0  0  0
 67 69  1  0  0  0  0
M  CHG  1  76   1
M  ISO  4  33 100  59 101  62 100  83 101
M  END
> <Batch ID>
0071

> <Smiles>
CNC(C)C(=O)NC(C(=O)N1Cc2cc([101O:1][101CH2:1]C(C)(C)Cn3nc(C[100C:0](C)(C)[100C:0](=O)N4CCCC(n5nc(-c6ccc(Oc7ccc(F)cc7F)cc6)c(C(N)=O)c5N)C4)nc3C)ccc2CC1C(=O)NC1CCCc2ccccc21)C(C)(C)C

> <Shape>
0.145

> <Color>
0.186

> <Negative vol penalty>
0.000

$$$$

  -OEChem-04052318223D

 82 90  0     1  0  0  0  0  0999 V2000
  -32.6276  -29.9416   31.2039 C   0  0  0  0  0  0  0  0  0  0  0  0
  -33.0571  -28.6353   30.9930 C   0  0  0  0  0  0  0  0  0  0  0  0
  -23.1468   -9.7929   20.0694 C   0  0  0  0  0  0  0  0  0  0  0  0
  -23.5839  -10.1226   22.4225 C   0  0  0  0  0  0  0  0  0  0  0  0
  -31.5142  -30.4272   30.5195 C   0  0  0  0  0  0  0  0  0  0  0  0
  -32.3728  -27.8134   30.0982 C   0  0  0  0  0  0  0  0  0  0  0  0
  -33.4861  -22.4892   25.4367 C   0  0  0  0  0  0  0  0  0  0  0  0
  -22.3696   -8.6745   20.3704 C   0  0  0  0  0  0  0  0  0  0  0  0
  -22.8066   -9.0041   22.7236 C   0  0  0  0  0  0  0  0  0  0  0  0
  -33.0199  -21.2118   25.1292 C   0  0  0  0  0  0  0  0  0  0  0  0
  -23.1540   -5.6415   22.6710 C   0  0  0  0  0  0  0  0  0  0  0  0
  -23.6595   -4.7320   23.6000 C   0  0  0  0  0  0  0  0  0  0  0  0
  -31.3574  -17.1802   22.7587 C   0  0  0  0  0  0  0  0  0  0  0  0
  -30.7543  -15.9913   22.3878 C   0  0  0  0  0  0  0  0  0  0  0  0
  -31.1572  -22.1835   23.9437 C   0  0  0  0  0  0  0  0  0  0  0  0
  -21.7404   -5.1131   25.0173 C   0  0  0  0  0  0  0  0  0  0  0  0
  -23.7540  -10.5169   21.0954 C   0  0  0  0  0  0  0  0  0  0  0  0
  -24.1223  -13.0067   20.6791 C   0  0  0  0  0  0  0  0  0  0  0  0
  -30.8216  -29.6139   29.6087 C   0  0  0  0  0  0  0  0  0  0  0  0
  -32.7842  -23.6253   25.0085 C   0  0  0  0  0  0  0  0  0  0  0  0
  -31.2482  -28.2882   29.4020 C   0  0  0  0  0  0  0  0  0  0  0  0
  -31.6180  -23.4742   24.2449 C   0  0  0  0  0  0  0  0  0  0  0  0
  -22.1994   -8.2801   21.6975 C   0  0  0  0  0  0  0  0  0  0  0  0
  -31.8537  -21.0587   24.3851 C   0  0  0  0  0  0  0  0  0  0  0  0
  -21.9418   -6.2869   22.9152 C   0  0  0  0  0  0  0  0  0  0  0  0
  -22.9527   -4.4678   24.7731 C   0  0  0  0  0  0  0  0  0  0  0  0
  -21.2349   -6.0227   24.0883 C   0  0  0  0  0  0  0  0  0  0  0  0
  -24.5574  -11.6720   20.7851 C   0  0  0  0  0  0  0  0  0  0  0  0
  -31.5146  -17.4318   24.1068 C   0  0  0  0  0  0  0  0  0  0  0  0
  -30.3486  -15.1325   23.3895 C   0  0  0  0  0  0  0  0  0  0  0  0
  -25.2580  -13.7146   20.3699 C   0  0  0  0  0  0  0  0  0  0  0  0
  -22.8090  -13.5573   20.8455 C   0  0  0  0  0  0  0  0  0  0  0  0
  -31.3261  -26.0434   26.4681 C   0  0  0  0  0  0  0  0  0  0  0  0
  -30.9968  -27.1615   23.4409 C   0  0  0  0  0  0  0  0  0  0  0  0
  -31.0796  -12.5844   21.3408 C   0  0  0  0  0  0  0  0  0  0  0  0
  -30.8488  -26.4791   20.1004 C   0  0  0  0  0  0  0  0  0  0  0  0
  -29.5953  -30.1680   28.9277 C   0  0  0  0  0  0  0  0  0  0  0  0
  -33.3148  -24.9965   25.3257 C   0  0  0  0  0  0  0  0  0  0  0  0
  -30.8387  -24.6618   23.7441 C   0  0  0  0  0  0  0  0  0  0  0  0
  -29.1503  -29.3524   27.7164 C   0  0  0  0  0  0  0  0  0  0  0  0
  -29.4896  -13.2586   18.2012 C   0  0  0  0  0  0  0  0  0  0  0  0
  -29.1423  -27.8637   28.0490 C   0  0  0  0  0  0  0  0  0  0  0  0
  -28.0080  -13.0218   18.4909 C   0  0  0  0  0  0  0  0  0  0  0  0
  -30.3734  -12.2964   18.9887 C   0  0  0  0  0  0  0  0  0  0  0  0
  -28.6547  -12.0855   20.7560 C   0  0  0  0  0  0  0  0  0  0  0  0
  -30.5470  -27.3739   28.4209 C   0  0  1  0  0  0  0  0  0  0  0  0
  -32.2409  -26.0789   25.2765 C   0  0  1  0  0  0  0  0  0  0  0  0
  -27.7281  -13.0572   20.0038 C   0  0  2  0  0  0  0  0  0  0  0  0
  -28.5609  -13.4717   24.0373 C   0  0  0  0  0  0  0  0  0  0  0  0
  -30.5341  -27.5937   17.8742 C   0  0  0  0  0  0  0  0  0  0  0  0
  -30.0790  -11.2536   23.1460 C   0  0  0  0  0  0  0  0  0  0  0  0
  -31.9963  -12.8061   23.5717 C   0  0  0  0  0  0  0  0  0  0  0  0
  -28.0070  -27.4167   23.9941 C   0  0  0  0  0  0  0  0  0  0  0  0
  -27.6372  -27.6057   21.5251 C   0  0  0  0  0  0  0  0  0  0  0  0
  -28.9979  -29.3242   22.7158 C   0  0  0  0  0  0  0  0  0  0  0  0
  -33.5161  -25.6097   19.1577 C   0  0  0  0  0  0  0  0  0  0  0  0
  -32.1604  -18.7071   24.5628 C   0  0  0  0  0  0  0  0  0  1  0  0
  -29.6972  -13.8377   23.0424 C   0  0  2  0  0  0  0  0  0  0  0  0
  -29.9598  -27.0143   22.3537 C   0  0  1  0  0  0  0  0  0  0  0  0
  -31.5409  -27.1183   18.9101 C   0  0  2  0  0  0  0  0  0  0  0  0
  -30.6804  -12.6221   22.7945 C   0  0  0  0  0  0  0  0  0  0  0  0
  -28.6639  -27.8176   22.6581 C   0  0  0  0  0  0  0  0  0  0  0  0
  -25.8673  -11.5375   20.5612 N   0  0  0  0  0  0  0  0  0  0  0  0
  -31.1079  -16.5731   25.0657 N   0  0  0  0  0  0  0  0  0  0  0  0
  -30.5155  -15.4044   24.7011 N   0  0  0  0  0  0  0  0  0  0  0  0
  -26.2650  -12.7966   20.3113 N   0  0  0  0  0  0  0  0  0  0  0  0
  -31.3945  -25.9817   24.0855 N   0  0  0  0  0  0  0  0  0  0  0  0
  -30.0614  -12.3435   20.4183 N   0  0  0  0  0  0  0  0  0  0  0  0
  -25.4834  -15.0264   20.1450 N   0  0  0  0  0  0  0  0  0  0  0  0
  -21.7555  -12.6887   21.1620 N   0  0  0  0  0  0  0  0  0  0  0  0
  -31.3514  -27.1951   27.2312 N   0  0  0  0  0  0  0  0  0  0  0  0
  -30.6181  -27.3919   21.1078 N   0  0  0  0  0  0  0  0  0  0  0  0
  -32.4595  -26.1419   18.2592 N   0  3  0  0  0  0  0  0  0  0  0  0
  -22.5735  -14.7809   20.7010 O   0  0  0  0  0  0  0  0  0  0  0  0
  -30.6466  -25.0456   26.6786 O   0  0  0  0  0  0  0  0  0  0  0  0
  -31.4428  -28.2812   23.7035 O   0  0  0  0  0  0  0  0  0  0  0  0
  -32.2612  -12.7669   21.0361 O   0  0  0  0  0  0  0  0  0  0  0  0
  -30.5400  -25.2899   20.1317 O   0  0  0  0  0  0  0  0  0  0  0  0
  -21.4409   -7.1889   21.9916 O   0  0  0  0  0  0  0  0  0  0  0  0
  -31.3961  -19.8130   24.0842 O   0  0  0  0  0  0  0  0  0  1  0  0
  -23.4374   -3.5933   25.6644 F   0  0  0  0  0  0  0  0  0  0  0  0
  -20.0692   -6.6387   24.3279 F   0  0  0  0  0  0  0  0  0  0  0  0
  1  2  1  0  0  0  0
  1  5  2  0  0  0  0
  2  6  2  0  0  0  0
  3  8  2  0  0  0  0
  3 17  1  0  0  0  0
  4  9  1  0  0  0  0
  4 17  2  0  0  0  0
  5 19  1  0  0  0  0
  6 21  1  0  0  0  0
  7 10  2  0  0  0  0
  7 20  1  0  0  0  0
  8 23  1  0  0  0  0
  9 23  2  0  0  0  0
 10 24  1  0  0  0  0
 11 12  2  0  0  0  0
 11 25  1  0  0  0  0
 12 26  1  0  0  0  0
 13 14  2  0  0  0  0
 13 29  1  0  0  0  0
 14 30  1  0  0  0  0
 15 22  1  0  0  0  0
 15 24  2  0  0  0  0
 16 26  2  0  0  0  0
 16 27  1  0  0  0  0
 17 28  1  0  0  0  0
 18 28  1  0  0  0  0
 18 31  2  0  0  0  0
 18 32  1  0  0  0  0
 19 21  2  0  0  0  0
 19 37  1  0  0  0  0
 20 22  2  0  0  0  0
 20 38  1  0  0  0  0
 21 46  1  0  0  0  0
 22 39  1  0  0  0  0
 23 79  1  0  0  0  0
 24 80  1  0  0  0  0
 25 27  2  0  0  0  0
 25 79  1  0  0  0  0
 26 81  1  0  0  0  0
 27 82  1  0  0  0  0
 28 63  2  0  0  0  0
 29 57  1  0  0  0  0
 29 64  2  0  0  0  0
 30 58  1  0  0  0  0
 30 65  2  0  0  0  0
 31 66  1  0  0  0  0
 31 69  1  0  0  0  0
 32 70  1  0  0  0  0
 32 74  2  0  0  0  0
 33 47  1  0  0  0  0
 33 71  1  0  0  0  0
 33 75  2  0  0  0  0
 34 59  1  0  0  0  0
 34 67  1  0  0  0  0
 34 76  2  0  0  0  0
 35 61  1  0  0  0  0
 35 68  1  0  0  0  0
 35 77  2  0  0  0  0
 36 60  1  0  0  0  0
 36 72  1  0  0  0  0
 36 78  2  0  0  0  0
 37 40  1  0  0  0  0
 38 47  1  0  0  0  0
 39 67  1  0  0  0  0
 40 42  1  0  0  0  0
 41 43  1  0  0  0  0
 41 44  1  0  0  0  0
 42 46  1  0  0  0  0
 43 48  1  0  0  0  0
 44 68  1  0  0  0  0
 45 48  1  0  0  0  0
 45 68  1  0  0  0  0
 46 71  1  0  0  0  0
 47 67  1  0  0  0  0
 48 66  1  0  0  0  0
 49 58  1  0  0  0  0
 50 60  1  0  0  0  0
 51 61  1  0  0  0  0
 52 61  1  0  0  0  0
 53 62  1  0  0  0  0
 54 62  1  0  0  0  0
 55 62  1  0  0  0  0
 56 73  1  0  0  0  0
 57 80  1  0  0  0  0
 58 61  1  0  0  0  0
 59 62  1  0  0  0  0
 59 72  1  0  0  0  0
 60 73  1  0  0  0  0
 63 66  1  0  0  0  0
 64 65  1  0  0  0  0
M  CHG  1  73   1
M  ISO  4  35 100  57 101  61 100  80 101
M  END
> <Batch ID>
0071

> <Smiles>
CNC(C)C(=O)NC(C(=O)N1Cc2cc([101O:1][101CH2:1]c3ccc(C(C)[100C:0](C)(C)[100C:0](=O)N4CCCC(n5nc(-c6ccc(Oc7ccc(F)cc7F)cc6)c(C(N)=O)c5N)C4)nn3)ccc2CC1C(=O)NC1CCCc2ccccc21)C(C)(C)C

> <Shape>
0.197

> <Color>
0.180

> <Negative vol penalty>
0.000

$$$$

  -OEChem-04052318223D

 85 93  0     1  0  0  0  0  0999 V2000
  -17.7512  -25.8959   22.3617 C   0  0  0  0  0  0  0  0  0  0  0  0
  -19.0613  -25.4331   22.4320 C   0  0  0  0  0  0  0  0  0  0  0  0
  -26.4428  -13.2117   21.4063 C   0  0  0  0  0  0  0  0  0  0  0  0
  -24.8751  -13.7608   19.6519 C   0  0  0  0  0  0  0  0  0  0  0  0
  -17.4936  -27.1900   21.9113 C   0  0  0  0  0  0  0  0  0  0  0  0
  -20.1144  -26.2638   22.0508 C   0  0  0  0  0  0  0  0  0  0  0  0
  -25.7178  -26.4699   24.5136 C   0  0  0  0  0  0  0  0  0  0  0  0
  -25.6359  -12.1415   21.7924 C   0  0  0  0  0  0  0  0  0  0  0  0
  -24.0682  -12.6905   20.0379 C   0  0  0  0  0  0  0  0  0  0  0  0
  -26.9331  -25.9056   24.1283 C   0  0  0  0  0  0  0  0  0  0  0  0
  -21.8092  -12.0216   22.4629 C   0  0  0  0  0  0  0  0  0  0  0  0
  -20.4361  -12.2471   22.5593 C   0  0  0  0  0  0  0  0  0  0  0  0
  -27.5367  -27.9683   23.0328 C   0  0  0  0  0  0  0  0  0  0  0  0
  -20.0397  -10.5486   20.8874 C   0  0  0  0  0  0  0  0  0  0  0  0
  -26.4354  -25.0699   19.1548 C   0  0  0  0  0  0  0  0  0  0  0  0
  -27.4680  -23.0773   18.5070 C   0  0  0  0  0  0  0  0  0  0  0  0
  -26.0624  -14.0214   20.3361 C   0  0  0  0  0  0  0  0  0  0  0  0
  -27.9416  -15.1073   18.9956 C   0  0  0  0  0  0  0  0  0  0  0  0
  -18.5447  -28.0403   21.5335 C   0  0  0  0  0  0  0  0  0  0  0  0
  -25.3977  -27.7862   24.1515 C   0  0  0  0  0  0  0  0  0  0  0  0
  -19.8705  -27.5700   21.5936 C   0  0  0  0  0  0  0  0  0  0  0  0
  -26.3178  -28.5478   23.4169 C   0  0  0  0  0  0  0  0  0  0  0  0
  -26.3326  -23.8615   18.4963 C   0  0  0  0  0  0  0  0  0  0  0  0
  -24.4486  -11.8809   21.1082 C   0  0  0  0  0  0  0  0  0  0  0  0
  -27.8415  -26.6538   23.3853 C   0  0  0  0  0  0  0  0  0  0  0  0
  -22.2976  -11.0597   21.5786 C   0  0  0  0  0  0  0  0  0  0  0  0
  -19.5513  -11.5106   21.7716 C   0  0  0  0  0  0  0  0  0  0  0  0
  -21.4129  -10.3232   20.7909 C   0  0  0  0  0  0  0  0  0  0  0  0
  -26.8953  -15.1274   19.9371 C   0  0  0  0  0  0  0  0  0  0  0  0
  -28.4123  -16.3975   18.9777 C   0  0  0  0  0  0  0  0  0  0  0  0
  -28.5943  -24.6361   19.7189 C   0  0  0  0  0  0  0  0  0  0  0  0
  -28.4433  -14.0197   18.2076 C   0  0  0  0  0  0  0  0  0  0  0  0
  -23.1179  -29.1388   22.3974 C   0  0  0  0  0  0  0  0  0  0  0  0
  -25.8227  -21.6332   20.3900 C   0  0  0  0  0  0  0  0  0  0  0  0
  -24.4552  -31.8877   23.4825 C   0  0  0  0  0  0  0  0  0  0  0  0
  -27.2070  -33.4761   24.7282 C   0  0  0  0  0  0  0  0  0  0  0  0
  -18.2136  -29.4147   21.0082 C   0  0  0  0  0  0  0  0  0  0  0  0
  -24.0940  -28.3892   24.5977 C   0  0  0  0  0  0  0  0  0  0  0  0
  -26.0306  -29.9721   23.0201 C   0  0  0  0  0  0  0  0  0  0  0  0
  -19.4117  -30.3602   20.9782 C   0  0  0  0  0  0  0  0  0  0  0  0
  -28.8497  -20.2706   21.7393 C   0  0  0  0  0  0  0  0  0  0  0  0
  -20.6264  -29.6638   20.3729 C   0  0  0  0  0  0  0  0  0  0  0  0
  -28.7731  -18.7899   21.3693 C   0  0  0  0  0  0  0  0  0  0  0  0
  -27.4699  -20.8395   22.0547 C   0  0  0  0  0  0  0  0  0  0  0  0
  -26.3890  -19.1614   20.5927 C   0  0  0  0  0  0  0  0  0  0  0  0
  -21.0414  -28.4496   21.2125 C   0  0  1  0  0  0  0  0  0  0  0  0
  -23.6539  -29.5673   23.7341 C   0  0  1  0  0  0  0  0  0  0  0  0
  -27.7580  -18.5550   20.2367 C   0  0  2  0  0  0  0  0  0  0  0  0
  -28.0062  -35.7319   25.4832 C   0  0  0  0  0  0  0  0  0  0  0  0
  -22.7910  -22.1299   18.1406 C   0  0  0  0  0  0  0  0  0  0  0  0
  -24.2969  -24.6847   17.3042 C   0  0  0  0  0  0  0  0  0  0  0  0
  -24.6847  -32.7775   20.5730 C   0  0  0  0  0  0  0  0  0  0  0  0
  -26.3042  -34.5379   21.3119 C   0  0  0  0  0  0  0  0  0  0  0  0
  -23.9578  -34.5703   22.1579 C   0  0  0  0  0  0  0  0  0  0  0  0
  -27.7494  -32.4957   27.4674 C   0  0  0  0  0  0  0  0  0  0  0  0
  -29.8657  -25.0718   20.4023 C   0  0  0  0  0  0  0  0  0  0  0  0
  -24.8752  -21.2842   19.2700 C   0  0  0  0  0  0  0  0  0  0  0  0
  -30.1128  -24.3781   21.7437 C   0  0  0  0  0  0  0  0  0  0  0  0
  -29.0523  -24.6948   22.7917 C   0  0  0  0  0  0  0  0  0  1  0  0
  -25.5559  -32.8030   23.0033 C   0  0  1  0  0  0  0  0  0  0  0  0
  -27.3804  -34.4131   25.9098 C   0  0  2  0  0  0  0  0  0  0  0  0
  -24.1423  -22.5444   18.7550 C   0  0  1  0  0  0  0  0  0  0  0  0
  -25.0839  -23.4351   17.8192 C   0  0  2  0  0  0  0  0  0  0  0  0
  -25.1305  -33.6447   21.7672 C   0  0  0  0  0  0  0  0  0  0  0  0
  -27.5551  -25.4904   19.7791 N   0  0  0  0  0  0  0  0  0  0  0  0
  -28.6204  -23.4349   19.1107 N   0  0  0  0  0  0  0  0  0  0  0  0
  -26.7117  -16.3347   20.4783 N   0  0  0  0  0  0  0  0  0  0  0  0
  -27.6491  -17.0851   19.8750 N   0  0  0  0  0  0  0  0  0  0  0  0
  -24.7398  -30.5148   23.4748 N   0  0  0  0  0  0  0  0  0  0  0  0
  -26.5289  -20.5762   20.9645 N   0  0  0  0  0  0  0  0  0  0  0  0
  -29.4004  -16.9996   18.2823 N   0  0  0  0  0  0  0  0  0  0  0  0
  -27.8448  -12.7603   18.3492 N   0  0  0  0  0  0  0  0  0  0  0  0
  -21.7616  -28.8743   22.3937 N   0  0  0  0  0  0  0  0  0  0  0  0
  -25.9573  -33.5985   24.1585 N   0  0  0  0  0  0  0  0  0  0  0  0
  -25.2827  -22.6131   16.5337 N   0  3  0  0  0  0  0  0  0  0  0  0
  -28.2565  -33.7892   26.9414 N   0  3  0  0  0  0  0  0  0  0  0  0
  -29.4049  -14.1566   17.4137 O   0  0  0  0  0  0  0  0  0  0  0  0
  -23.8782  -29.0558   21.4400 O   0  0  0  0  0  0  0  0  0  0  0  0
  -25.9329  -22.8110   20.7403 O   0  0  0  0  0  0  0  0  0  0  0  0
  -23.3849  -32.3734   23.8569 O   0  0  0  0  0  0  0  0  0  0  0  0
  -28.0929  -32.7146   24.3463 O   0  0  0  0  0  0  0  0  0  0  0  0
  -23.6610  -10.8365   21.4845 O   0  0  0  0  0  0  0  0  0  0  0  0
  -29.0282  -26.1052   23.0074 O   0  0  0  0  0  0  0  0  0  1  0  0
  -18.2327  -11.7261   21.8655 F   0  0  0  0  0  0  0  0  0  0  0  0
  -21.8761   -9.3969   19.9404 F   0  0  0  0  0  0  0  0  0  0  0  0
  1  2  1  0  0  0  0
  1  5  2  0  0  0  0
  2  6  2  0  0  0  0
  3  8  2  0  0  0  0
  3 17  1  0  0  0  0
  4  9  1  0  0  0  0
  4 17  2  0  0  0  0
  5 19  1  0  0  0  0
  6 21  1  0  0  0  0
  7 10  2  0  0  0  0
  7 20  1  0  0  0  0
  8 24  1  0  0  0  0
  9 24  2  0  0  0  0
 10 25  1  0  0  0  0
 11 12  2  0  0  0  0
 11 26  1  0  0  0  0
 12 27  1  0  0  0  0
 13 22  1  0  0  0  0
 13 25  2  0  0  0  0
 14 27  2  0  0  0  0
 14 28  1  0  0  0  0
 15 23  1  0  0  0  0
 15 65  2  0  0  0  0
 16 23  2  0  0  0  0
 16 66  1  0  0  0  0
 17 29  1  0  0  0  0
 18 29  1  0  0  0  0
 18 30  2  0  0  0  0
 18 32  1  0  0  0  0
 19 21  2  0  0  0  0
 19 37  1  0  0  0  0
 20 22  2  0  0  0  0
 20 38  1  0  0  0  0
 21 46  1  0  0  0  0
 22 39  1  0  0  0  0
 23 63  1  0  0  0  0
 24 82  1  0  0  0  0
 25 83  1  0  0  0  0
 26 28  2  0  0  0  0
 26 82  1  0  0  0  0
 27 84  1  0  0  0  0
 28 85  1  0  0  0  0
 29 67  2  0  0  0  0
 30 68  1  0  0  0  0
 30 71  1  0  0  0  0
 31 56  1  0  0  0  0
 31 65  1  0  0  0  0
 31 66  2  0  0  0  0
 32 72  1  0  0  0  0
 32 77  2  0  0  0  0
 33 47  1  0  0  0  0
 33 73  1  0  0  0  0
 33 78  2  0  0  0  0
 34 57  1  0  0  0  0
 34 70  1  0  0  0  0
 34 79  2  0  0  0  0
 35 60  1  0  0  0  0
 35 69  1  0  0  0  0
 35 80  2  0  0  0  0
 36 61  1  0  0  0  0
 36 74  1  0  0  0  0
 36 81  2  0  0  0  0
 37 40  1  0  0  0  0
 38 47  1  0  0  0  0
 39 69  1  0  0  0  0
 40 42  1  0  0  0  0
 41 43  1  0  0  0  0
 41 44  1  0  0  0  0
 42 46  1  0  0  0  0
 43 48  1  0  0  0  0
 44 70  1  0  0  0  0
 45 48  1  0  0  0  0
 45 70  1  0  0  0  0
 46 73  1  0  0  0  0
 47 69  1  0  0  0  0
 48 68  1  0  0  0  0
 49 61  1  0  0  0  0
 50 62  1  0  0  0  0
 51 63  1  0  0  0  0
 52 64  1  0  0  0  0
 53 64  1  0  0  0  0
 54 64  1  0  0  0  0
 55 76  1  0  0  0  0
 56 58  1  0  0  0  0
 57 62  1  0  0  0  0
 58 59  1  0  0  0  0
 59 83  1  0  0  0  0
 60 64  1  0  0  0  0
 60 74  1  0  0  0  0
 61 76  1  0  0  0  0
 62 63  1  0  0  0  0
 63 75  1  0  0  0  0
 67 68  1  0  0  0  0
M  CHG  2  75   1  76   1
M  ISO  4  34 100  57 100  59 101  83 101
M  END
> <Batch ID>
0071

> <Smiles>
CNC(C)C(=O)NC(C(=O)N1Cc2cc([101O:1][101CH2:1]CCc3ncc(C(C)(N)C(C)[100CH2:0][100C:0](=O)N4CCCC(n5nc(-c6ccc(Oc7ccc(F)cc7F)cc6)c(C(N)=O)c5N)C4)cn3)ccc2CC1C(=O)NC1CCCc2ccccc21)C(C)(C)C

> <Shape>
0.245

> <Color>
0.083

> <Negative vol penalty>
0.000

$$$$
