
  -OEChem-04052318242D

  0  0  0     0  0  0  0  0  0999 V2000
M  END
$$$$

  -OEChem-04052318243D

 82 90  0     1  0  0  0  0  0999 V2000
  -17.8633  -32.2307   21.7554 C   0  0  0  0  0  0  0  0  0  0  0  0
  -19.1170  -32.1880   21.1539 C   0  0  0  0  0  0  0  0  0  0  0  0
  -26.3091  -13.0647   21.7060 C   0  0  0  0  0  0  0  0  0  0  0  0
  -26.1906  -13.8830   19.4359 C   0  0  0  0  0  0  0  0  0  0  0  0
  -17.6478  -31.5680   22.9630 C   0  0  0  0  0  0  0  0  0  0  0  0
  -20.1563  -31.4835   21.7604 C   0  0  0  0  0  0  0  0  0  0  0  0
  -24.6217  -28.3696   18.9550 C   0  0  0  0  0  0  0  0  0  0  0  0
  -25.0613  -12.4604   21.5534 C   0  0  0  0  0  0  0  0  0  0  0  0
  -24.9428  -13.2786   19.2833 C   0  0  0  0  0  0  0  0  0  0  0  0
  -25.9424  -28.6947   18.6488 C   0  0  0  0  0  0  0  0  0  0  0  0
  -23.8066   -9.6603   20.1328 C   0  0  0  0  0  0  0  0  0  0  0  0
  -23.6580   -8.3535   20.5973 C   0  0  0  0  0  0  0  0  0  0  0  0
  -26.6763  -27.5803   20.6584 C   0  0  0  0  0  0  0  0  0  0  0  0
  -21.9207   -9.0879   22.1071 C   0  0  0  0  0  0  0  0  0  0  0  0
  -29.4331  -23.9884   20.0364 C   0  0  0  0  0  0  0  0  0  0  0  0
  -26.8738  -13.7760   20.6473 C   0  0  0  0  0  0  0  0  0  0  0  0
  -29.4217  -13.8325   20.5337 C   0  0  0  0  0  0  0  0  0  0  0  0
  -18.6824  -30.8470   23.5797 C   0  0  0  0  0  0  0  0  0  0  0  0
  -24.3168  -27.6557   20.1228 C   0  0  0  0  0  0  0  0  0  0  0  0
  -19.9548  -30.8117   22.9781 C   0  0  0  0  0  0  0  0  0  0  0  0
  -25.3511  -27.2452   20.9759 C   0  0  0  0  0  0  0  0  0  0  0  0
  -24.3781  -12.5674   20.3420 C   0  0  0  0  0  0  0  0  0  0  0  0
  -26.9697  -28.3025   19.5020 C   0  0  0  0  0  0  0  0  0  0  0  0
  -23.0123  -10.6809   20.6555 C   0  0  0  0  0  0  0  0  0  0  0  0
  -22.7150   -8.0673   21.5845 C   0  0  0  0  0  0  0  0  0  0  0  0
  -22.0693  -10.3947   21.6426 C   0  0  0  0  0  0  0  0  0  0  0  0
  -28.1625  -14.4009   20.8046 C   0  0  0  0  0  0  0  0  0  0  0  0
  -30.3492  -23.0790   20.5019 C   0  0  0  0  0  0  0  0  0  0  0  0
  -30.3199  -14.8243   20.8434 C   0  0  0  0  0  0  0  0  0  0  0  0
  -29.7499  -12.5249   20.0457 C   0  0  0  0  0  0  0  0  0  0  0  0
  -22.6116  -28.2549   22.7375 C   0  0  0  0  0  0  0  0  0  0  0  0
  -29.7116  -20.7313   20.9553 C   0  0  0  0  0  0  0  0  0  0  0  0
  -23.2704  -25.1501   23.4068 C   0  0  0  0  0  0  0  0  0  0  0  0
  -25.3159  -22.4576   22.9446 C   0  0  0  0  0  0  0  0  0  0  0  0
  -18.4145  -30.1860   24.9086 C   0  0  0  0  0  0  0  0  0  0  0  0
  -22.8896  -27.2897   20.4252 C   0  0  0  0  0  0  0  0  0  0  0  0
  -25.0787  -26.4594   22.2316 C   0  0  0  0  0  0  0  0  0  0  0  0
  -19.4666  -29.1502   25.2967 C   0  0  0  0  0  0  0  0  0  0  0  0
  -30.8809  -18.6265   23.6811 C   0  0  0  0  0  0  0  0  0  0  0  0
  -20.8698  -29.7044   25.0715 C   0  0  0  0  0  0  0  0  0  0  0  0
  -30.3992  -17.2480   23.2310 C   0  0  0  0  0  0  0  0  0  0  0  0
  -29.8969  -19.7230   23.2814 C   0  0  0  0  0  0  0  0  0  0  0  0
  -29.1008  -18.3696   21.3685 C   0  0  0  0  0  0  0  0  0  0  0  0
  -21.1007  -30.0373   23.5926 C   0  0  1  0  0  0  0  0  0  0  0  0
  -22.6461  -27.0052   21.9041 C   0  0  1  0  0  0  0  0  0  0  0  0
  -30.0802  -17.2391   21.7257 C   0  0  2  0  0  0  0  0  0  0  0  0
  -25.6192  -20.0695   23.6534 C   0  0  0  0  0  0  0  0  0  0  0  0
  -24.3443  -26.0895   26.1038 C   0  0  0  0  0  0  0  0  0  0  0  0
  -25.4710  -23.8674   26.3508 C   0  0  0  0  0  0  0  0  0  0  0  0
  -22.9844  -23.9927   26.1955 C   0  0  0  0  0  0  0  0  0  0  0  0
  -30.9940  -29.4904   17.9672 C   0  0  0  0  0  0  0  0  0  0  0  0
  -30.2575  -28.0267   16.0821 C   0  0  0  0  0  0  0  0  0  0  0  0
  -25.0324  -21.4757   20.1671 C   0  0  0  0  0  0  0  0  0  0  0  0
  -30.1838  -22.0432   21.5298 C   0  0  0  0  0  0  0  0  0  0  0  0
  -30.4811  -27.0890   18.4401 C   0  0  0  0  0  0  0  0  0  0  0  0
  -29.6291  -25.8282   18.2423 C   0  0  0  0  0  0  0  0  0  0  0  0
  -28.6000  -28.7320   17.8246 C   0  0  0  0  0  0  0  0  0  1  0  0
  -24.3785  -24.4244   24.1310 C   0  0  1  0  0  0  0  0  0  0  0  0
  -25.0124  -21.0060   22.6202 C   0  0  2  0  0  0  0  0  0  0  0  0
  -24.2998  -24.6100   25.6727 C   0  0  0  0  0  0  0  0  0  0  0  0
  -30.0670  -28.3173   17.5815 C   0  0  0  0  0  0  0  0  0  0  0  0
  -28.2491  -15.6564   21.2521 N   0  0  0  0  0  0  0  0  0  0  0  0
  -31.5383  -23.2494   19.8489 N   0  0  0  0  0  0  0  0  0  0  0  0
  -31.3898  -24.2468   18.9839 N   0  0  0  0  0  0  0  0  0  0  0  0
  -30.1268  -24.6886   19.0980 N   0  0  0  0  0  0  0  0  0  0  0  0
  -29.5733  -15.8851   21.2649 N   0  0  0  0  0  0  0  0  0  0  0  0
  -23.6663  -26.1313   22.4869 N   0  0  0  0  0  0  0  0  0  0  0  0
  -29.5979  -19.6633   21.8456 N   0  0  0  0  0  0  0  0  0  0  0  0
  -31.6677  -14.8838   20.7938 N   0  0  0  0  0  0  0  0  0  0  0  0
  -28.7051  -11.6298   19.7784 N   0  0  0  0  0  0  0  0  0  0  0  0
  -21.3592  -28.8303   22.8371 N   0  0  0  0  0  0  0  0  0  0  0  0
  -24.3112  -23.0346   23.6922 N   0  0  0  0  0  0  0  0  0  0  0  0
  -25.5618  -20.6486   21.2817 N   0  3  0  0  0  0  0  0  0  0  0  0
  -30.9355  -12.1555   19.8681 O   0  0  0  0  0  0  0  0  0  0  0  0
  -23.6444  -28.6659   23.2533 O   0  0  0  0  0  0  0  0  0  0  0  0
  -29.4548  -20.6593   19.7508 O   0  0  0  0  0  0  0  0  0  0  0  0
  -22.0969  -24.8521   23.6431 O   0  0  0  0  0  0  0  0  0  0  0  0
  -26.3432  -23.0220   22.5751 O   0  0  0  0  0  0  0  0  0  0  0  0
  -23.1605  -11.9776   20.1926 O   0  0  0  0  0  0  0  0  0  0  0  0
  -28.2596  -28.6191   19.2058 O   0  0  0  0  0  0  0  0  0  1  0  0
  -22.5713   -6.8121   22.0294 F   0  0  0  0  0  0  0  0  0  0  0  0
  -21.3025  -11.3708   22.1477 F   0  0  0  0  0  0  0  0  0  0  0  0
  1  2  1  0  0  0  0
  1  5  2  0  0  0  0
  2  6  2  0  0  0  0
  3  8  2  0  0  0  0
  3 16  1  0  0  0  0
  4  9  1  0  0  0  0
  4 16  2  0  0  0  0
  5 18  1  0  0  0  0
  6 20  1  0  0  0  0
  7 10  2  0  0  0  0
  7 19  1  0  0  0  0
  8 22  1  0  0  0  0
  9 22  2  0  0  0  0
 10 23  1  0  0  0  0
 11 12  2  0  0  0  0
 11 24  1  0  0  0  0
 12 25  1  0  0  0  0
 13 21  1  0  0  0  0
 13 23  2  0  0  0  0
 14 25  2  0  0  0  0
 14 26  1  0  0  0  0
 15 28  2  0  0  0  0
 15 65  1  0  0  0  0
 16 27  1  0  0  0  0
 17 27  1  0  0  0  0
 17 29  2  0  0  0  0
 17 30  1  0  0  0  0
 18 20  2  0  0  0  0
 18 35  1  0  0  0  0
 19 21  2  0  0  0  0
 19 36  1  0  0  0  0
 20 44  1  0  0  0  0
 21 37  1  0  0  0  0
 22 79  1  0  0  0  0
 23 80  1  0  0  0  0
 24 26  2  0  0  0  0
 24 79  1  0  0  0  0
 25 81  1  0  0  0  0
 26 82  1  0  0  0  0
 27 62  2  0  0  0  0
 28 54  1  0  0  0  0
 28 63  1  0  0  0  0
 29 66  1  0  0  0  0
 29 69  1  0  0  0  0
 30 70  1  0  0  0  0
 30 74  2  0  0  0  0
 31 45  1  0  0  0  0
 31 71  1  0  0  0  0
 31 75  2  0  0  0  0
 32 54  1  0  0  0  0
 32 68  1  0  0  0  0
 32 76  2  0  0  0  0
 33 58  1  0  0  0  0
 33 67  1  0  0  0  0
 33 77  2  0  0  0  0
 34 59  1  0  0  0  0
 34 72  1  0  0  0  0
 34 78  2  0  0  0  0
 35 38  1  0  0  0  0
 36 45  1  0  0  0  0
 37 67  1  0  0  0  0
 38 40  1  0  0  0  0
 39 41  1  0  0  0  0
 39 42  1  0  0  0  0
 40 44  1  0  0  0  0
 41 46  1  0  0  0  0
 42 68  1  0  0  0  0
 43 46  1  0  0  0  0
 43 68  1  0  0  0  0
 44 71  1  0  0  0  0
 45 67  1  0  0  0  0
 46 66  1  0  0  0  0
 47 59  1  0  0  0  0
 48 60  1  0  0  0  0
 49 60  1  0  0  0  0
 50 60  1  0  0  0  0
 51 61  1  0  0  0  0
 52 61  1  0  0  0  0
 53 73  1  0  0  0  0
 55 56  1  0  0  0  0
 55 61  1  0  0  0  0
 56 65  1  0  0  0  0
 57 61  1  0  0  0  0
 57 80  1  0  0  0  0
 58 60  1  0  0  0  0
 58 72  1  0  0  0  0
 59 73  1  0  0  0  0
 62 66  1  0  0  0  0
 63 64  2  0  0  0  0
 64 65  1  0  0  0  0
M  CHG  1  73   1
M  ISO  4  32 100  54 100  57 101  80 101
M  END
> <Batch ID>
0072

> <Smiles>
CNC(C)C(=O)NC(C(=O)N1Cc2cc([101O:1][101CH2:1]C(C)(C)CCn3cc([100CH2:0][100C:0](=O)N4CCCC(n5nc(-c6ccc(Oc7ccc(F)cc7F)cc6)c(C(N)=O)c5N)C4)nn3)ccc2CC1C(=O)NC1CCCc2ccccc21)C(C)(C)C

> <Shape>
0.252

> <Color>
0.107

> <Negative vol penalty>
0.000

$$$$

  -OEChem-04052318243D

 84 92  0     1  0  0  0  0  0999 V2000
  -18.8699  -23.6783   22.8499 C   0  0  0  0  0  0  0  0  0  0  0  0
  -20.2226  -23.7271   22.5284 C   0  0  0  0  0  0  0  0  0  0  0  0
  -23.3295  -14.3814   24.5247 C   0  0  0  0  0  0  0  0  0  0  0  0
  -23.1181  -15.8773   22.6394 C   0  0  0  0  0  0  0  0  0  0  0  0
  -18.1743  -24.8574   23.1139 C   0  0  0  0  0  0  0  0  0  0  0  0
  -20.8802  -24.9553   22.4698 C   0  0  0  0  0  0  0  0  0  0  0  0
  -25.3900  -24.8561   24.7713 C   0  0  0  0  0  0  0  0  0  0  0  0
  -22.4443  -15.1752   25.2539 C   0  0  0  0  0  0  0  0  0  0  0  0
  -22.2328  -16.6712   23.3686 C   0  0  0  0  0  0  0  0  0  0  0  0
  -26.4458  -24.2659   24.0780 C   0  0  0  0  0  0  0  0  0  0  0  0
  -22.4119  -19.0249   25.7891 C   0  0  0  0  0  0  0  0  0  0  0  0
  -22.5958  -20.4069   25.7474 C   0  0  0  0  0  0  0  0  0  0  0  0
  -27.2366  -26.4518   23.4333 C   0  0  0  0  0  0  0  0  0  0  0  0
  -20.3824  -20.6734   24.8164 C   0  0  0  0  0  0  0  0  0  0  0  0
  -30.1944  -19.0132   18.7271 C   0  0  0  0  0  0  0  0  0  0  0  0
  -23.6665  -14.7324   23.2175 C   0  0  0  0  0  0  0  0  0  0  0  0
  -24.2598  -12.8223   21.6341 C   0  0  0  0  0  0  0  0  0  0  0  0
  -18.8260  -26.0999   23.0679 C   0  0  0  0  0  0  0  0  0  0  0  0
  -25.2431  -26.2506   24.7917 C   0  0  0  0  0  0  0  0  0  0  0  0
  -20.1924  -26.1523   22.7321 C   0  0  0  0  0  0  0  0  0  0  0  0
  -26.1796  -27.0574   24.1297 C   0  0  0  0  0  0  0  0  0  0  0  0
  -21.8959  -16.3201   24.6759 C   0  0  0  0  0  0  0  0  0  0  0  0
  -27.3677  -25.0636   23.4065 C   0  0  0  0  0  0  0  0  0  0  0  0
  -21.2133  -18.4671   25.3443 C   0  0  0  0  0  0  0  0  0  0  0  0
  -21.5811  -21.2312   25.2611 C   0  0  0  0  0  0  0  0  0  0  0  0
  -20.1985  -19.2913   24.8580 C   0  0  0  0  0  0  0  0  0  0  0  0
  -24.5813  -13.9131   22.4639 C   0  0  0  0  0  0  0  0  0  0  0  0
  -29.4725  -20.1282   18.3528 C   0  0  0  0  0  0  0  0  0  0  0  0
  -29.9071  -17.8554   18.0334 C   0  0  0  0  0  0  0  0  0  0  0  0
  -25.4707  -12.3882   21.1529 C   0  0  0  0  0  0  0  0  0  0  0  0
  -28.3513  -18.9350   16.7760 C   0  0  0  0  0  0  0  0  0  0  0  0
  -22.9808  -12.2523   21.3259 C   0  0  0  0  0  0  0  0  0  0  0  0
  -23.0169  -28.2865   23.7904 C   0  0  0  0  0  0  0  0  0  0  0  0
  -24.8936  -30.4684   25.2870 C   0  0  0  0  0  0  0  0  0  0  0  0
  -27.9907  -31.3220   26.4385 C   0  0  0  0  0  0  0  0  0  0  0  0
  -30.7463  -15.1020   20.3436 C   0  0  0  0  0  0  0  0  0  0  0  0
  -18.0212  -27.3514   23.3147 C   0  0  0  0  0  0  0  0  0  0  0  0
  -24.1140  -26.8729   25.5664 C   0  0  0  0  0  0  0  0  0  0  0  0
  -26.0781  -28.5601   24.1379 C   0  0  0  0  0  0  0  0  0  0  0  0
  -18.8795  -28.5814   23.5985 C   0  0  0  0  0  0  0  0  0  0  0  0
  -30.1099  -12.2016   22.3081 C   0  0  0  0  0  0  0  0  0  0  0  0
  -20.0195  -28.6813   22.5898 C   0  0  0  0  0  0  0  0  0  0  0  0
  -28.5918  -12.2130   22.4959 C   0  0  0  0  0  0  0  0  0  0  0  0
  -30.6909  -13.6138   22.3231 C   0  0  0  0  0  0  0  0  0  0  0  0
  -28.5486  -14.5618   21.5580 C   0  0  0  0  0  0  0  0  0  0  0  0
  -20.9466  -27.4634   22.6827 C   0  0  1  0  0  0  0  0  0  0  0  0
  -23.7683  -28.2809   25.0916 C   0  0  1  0  0  0  0  0  0  0  0  0
  -27.9099  -13.1638   21.4939 C   0  0  2  0  0  0  0  0  0  0  0  0
  -27.3304  -18.8917   15.6898 C   0  0  0  0  0  0  0  0  0  0  0  0
  -30.8039  -15.6669   17.1573 C   0  0  0  0  0  0  0  0  0  0  0  0
  -29.2224  -33.1849   27.5830 C   0  0  0  0  0  0  0  0  0  0  0  0
  -24.9168  -32.0520   22.6790 C   0  0  0  0  0  0  0  0  0  0  0  0
  -26.8718  -33.3432   23.5616 C   0  0  0  0  0  0  0  0  0  0  0  0
  -24.6769  -33.4442   24.7427 C   0  0  0  0  0  0  0  0  0  0  0  0
  -28.6896  -29.6004   28.7421 C   0  0  0  0  0  0  0  0  0  0  0  0
  -29.7166  -21.4411   19.0532 C   0  0  0  0  0  0  0  0  0  0  0  0
  -28.8310  -21.6598   20.2849 C   0  0  0  0  0  0  0  0  0  0  0  0
  -29.0384  -23.0279   20.9361 C   0  0  0  0  0  0  0  0  0  0  0  0
  -28.1723  -23.1932   22.1775 C   0  0  0  0  0  0  0  0  0  1  0  0
  -30.6385  -16.5983   18.3665 C   0  0  2  0  0  0  0  0  0  0  0  0
  -26.0617  -31.3332   24.8787 C   0  0  1  0  0  0  0  0  0  0  0  0
  -28.4495  -31.8887   27.7700 C   0  0  2  0  0  0  0  0  0  0  0  0
  -25.6329  -32.5148   23.9636 C   0  0  0  0  0  0  0  0  0  0  0  0
  -25.8937  -14.1569   22.5095 N   0  0  0  0  0  0  0  0  0  0  0  0
  -28.5399  -20.1248   17.3778 N   0  0  0  0  0  0  0  0  0  0  0  0
  -28.9881  -17.7801   17.0484 N   0  0  0  0  0  0  0  0  0  0  0  0
  -26.4076  -13.2131   21.7025 N   0  0  0  0  0  0  0  0  0  0  0  0
  -24.9530  -29.1210   24.9041 N   0  0  0  0  0  0  0  0  0  0  0  0
  -30.0018  -14.4644   21.3497 N   0  0  0  0  0  0  0  0  0  0  0  0
  -25.8150  -11.3852   20.3175 N   0  0  0  0  0  0  0  0  0  0  0  0
  -21.8386  -12.8208   21.9061 N   0  0  0  0  0  0  0  0  0  0  0  0
  -21.8272  -27.5845   23.8248 N   0  0  0  0  0  0  0  0  0  0  0  0
  -26.7181  -31.7431   26.1155 N   0  0  0  0  0  0  0  0  0  0  0  0
  -30.0149  -15.8846   19.4585 N   0  0  0  0  0  0  0  0  0  0  0  0
  -29.3306  -30.9132   28.4722 N   0  3  0  0  0  0  0  0  0  0  0  0
  -22.8559  -11.2578   20.5717 O   0  0  0  0  0  0  0  0  0  0  0  0
  -23.4814  -28.8848   22.8271 O   0  0  0  0  0  0  0  0  0  0  0  0
  -23.9661  -30.9684   25.9285 O   0  0  0  0  0  0  0  0  0  0  0  0
  -28.6927  -30.5829   25.7518 O   0  0  0  0  0  0  0  0  0  0  0  0
  -31.9713  -14.9785   20.2385 O   0  0  0  0  0  0  0  0  0  0  0  0
  -21.0319  -17.0949   25.3871 O   0  0  0  0  0  0  0  0  0  0  0  0
  -28.3988  -24.4900   22.7285 O   0  0  0  0  0  0  0  0  0  1  0  0
  -21.7573  -22.5585   25.2226 F   0  0  0  0  0  0  0  0  0  0  0  0
  -19.0444  -18.7613   24.4304 F   0  0  0  0  0  0  0  0  0  0  0  0
  1  2  1  0  0  0  0
  1  5  2  0  0  0  0
  2  6  2  0  0  0  0
  3  8  2  0  0  0  0
  3 16  1  0  0  0  0
  4  9  1  0  0  0  0
  4 16  2  0  0  0  0
  5 18  1  0  0  0  0
  6 20  1  0  0  0  0
  7 10  2  0  0  0  0
  7 19  1  0  0  0  0
  8 22  1  0  0  0  0
  9 22  2  0  0  0  0
 10 23  1  0  0  0  0
 11 12  2  0  0  0  0
 11 24  1  0  0  0  0
 12 25  1  0  0  0  0
 13 21  1  0  0  0  0
 13 23  2  0  0  0  0
 14 25  2  0  0  0  0
 14 26  1  0  0  0  0
 15 28  1  0  0  0  0
 15 29  2  0  0  0  0
 16 27  1  0  0  0  0
 17 27  1  0  0  0  0
 17 30  2  0  0  0  0
 17 32  1  0  0  0  0
 18 20  2  0  0  0  0
 18 37  1  0  0  0  0
 19 21  2  0  0  0  0
 19 38  1  0  0  0  0
 20 46  1  0  0  0  0
 21 39  1  0  0  0  0
 22 81  1  0  0  0  0
 23 82  1  0  0  0  0
 24 26  2  0  0  0  0
 24 81  1  0  0  0  0
 25 83  1  0  0  0  0
 26 84  1  0  0  0  0
 27 64  2  0  0  0  0
 28 56  1  0  0  0  0
 28 65  2  0  0  0  0
 29 60  1  0  0  0  0
 29 66  1  0  0  0  0
 30 67  1  0  0  0  0
 30 70  1  0  0  0  0
 31 49  1  0  0  0  0
 31 65  1  0  0  0  0
 31 66  2  0  0  0  0
 32 71  1  0  0  0  0
 32 76  2  0  0  0  0
 33 47  1  0  0  0  0
 33 72  1  0  0  0  0
 33 77  2  0  0  0  0
 34 61  1  0  0  0  0
 34 68  1  0  0  0  0
 34 78  2  0  0  0  0
 35 62  1  0  0  0  0
 35 73  1  0  0  0  0
 35 79  2  0  0  0  0
 36 69  1  0  0  0  0
 36 74  1  0  0  0  0
 36 80  2  0  0  0  0
 37 40  1  0  0  0  0
 38 47  1  0  0  0  0
 39 68  1  0  0  0  0
 40 42  1  0  0  0  0
 41 43  1  0  0  0  0
 41 44  1  0  0  0  0
 42 46  1  0  0  0  0
 43 48  1  0  0  0  0
 44 69  1  0  0  0  0
 45 48  1  0  0  0  0
 45 69  1  0  0  0  0
 46 72  1  0  0  0  0
 47 68  1  0  0  0  0
 48 67  1  0  0  0  0
 50 60  1  0  0  0  0
 51 62  1  0  0  0  0
 52 63  1  0  0  0  0
 53 63  1  0  0  0  0
 54 63  1  0  0  0  0
 55 75  1  0  0  0  0
 56 57  1  0  0  0  0
 57 58  1  0  0  0  0
 58 59  1  0  0  0  0
 59 82  1  0  0  0  0
 60 74  1  0  0  0  0
 61 63  1  0  0  0  0
 61 73  1  0  0  0  0
 62 75  1  0  0  0  0
 64 67  1  0  0  0  0
M  CHG  1  75   1
M  ISO  4  36 100  59 101  74 100  82 101
M  END
> <Batch ID>
0072

> <Smiles>
CNC(C)C(=O)NC(C(=O)N1Cc2cc([101O:1][101CH2:1]CCCc3cc(C(C)[100NH:0][100C:0](=O)N4CCCC(n5nc(-c6ccc(Oc7ccc(F)cc7F)cc6)c(C(N)=O)c5N)C4)nc(C)n3)ccc2CC1C(=O)NC1CCCc2ccccc21)C(C)(C)C

> <Shape>
0.211

> <Color>
0.085

> <Negative vol penalty>
0.000

$$$$

  -OEChem-04052318243D

 86 94  0     1  0  0  0  0  0999 V2000
  -31.9930  -24.0369   17.9455 C   0  0  0  0  0  0  0  0  0  0  0  0
  -30.6258  -24.1567   18.1677 C   0  0  0  0  0  0  0  0  0  0  0  0
  -26.3522  -13.0454   20.5673 C   0  0  0  0  0  0  0  0  0  0  0  0
  -24.6123  -14.7203   20.6348 C   0  0  0  0  0  0  0  0  0  0  0  0
  -32.8861  -24.8050   18.6894 C   0  0  0  0  0  0  0  0  0  0  0  0
  -30.1508  -25.0533   19.1255 C   0  0  0  0  0  0  0  0  0  0  0  0
  -25.2784  -25.6885   19.3700 C   0  0  0  0  0  0  0  0  0  0  0  0
  -25.4932  -12.1286   21.1731 C   0  0  0  0  0  0  0  0  0  0  0  0
  -23.7532  -13.8035   21.2406 C   0  0  0  0  0  0  0  0  0  0  0  0
  -24.4165  -24.7186   19.8800 C   0  0  0  0  0  0  0  0  0  0  0  0
  -22.9200  -10.1392   20.2490 C   0  0  0  0  0  0  0  0  0  0  0  0
  -22.8691   -8.8501   19.7186 C   0  0  0  0  0  0  0  0  0  0  0  0
  -24.2135  -25.9827   21.9245 C   0  0  0  0  0  0  0  0  0  0  0  0
  -24.9288  -21.3136   23.1355 C   0  0  0  0  0  0  0  0  0  0  0  0
  -23.5896   -7.9483   21.8411 C   0  0  0  0  0  0  0  0  0  0  0  0
  -25.2570  -19.4153   21.7407 C   0  0  0  0  0  0  0  0  0  0  0  0
  -25.9118  -14.3413   20.2981 C   0  0  0  0  0  0  0  0  0  0  0  0
  -26.9642  -15.5166   18.2934 C   0  0  0  0  0  0  0  0  0  0  0  0
  -32.4215  -25.7021   19.6653 C   0  0  0  0  0  0  0  0  0  0  0  0
  -25.6235  -26.8093   20.1389 C   0  0  0  0  0  0  0  0  0  0  0  0
  -31.0351  -25.8548   19.8699 C   0  0  0  0  0  0  0  0  0  0  0  0
  -25.0779  -26.9667   21.4210 C   0  0  0  0  0  0  0  0  0  0  0  0
  -25.7919  -20.3684   22.5923 C   0  0  0  0  0  0  0  0  0  0  0  0
  -23.5762  -21.2772   22.8150 C   0  0  0  0  0  0  0  0  0  0  0  0
  -24.1937  -12.5076   21.5098 C   0  0  0  0  0  0  0  0  0  0  0  0
  -23.8861  -24.8641   21.1585 C   0  0  0  0  0  0  0  0  0  0  0  0
  -23.3058  -10.3328   21.5754 C   0  0  0  0  0  0  0  0  0  0  0  0
  -23.2039   -7.7547   20.5146 C   0  0  0  0  0  0  0  0  0  0  0  0
  -23.6406   -9.2374   22.3714 C   0  0  0  0  0  0  0  0  0  0  0  0
  -26.7989  -15.2890   19.6728 C   0  0  0  0  0  0  0  0  0  0  0  0
  -23.1406  -20.2835   21.9533 C   0  0  0  0  0  0  0  0  0  0  0  0
  -27.9133  -16.5067   18.2201 C   0  0  0  0  0  0  0  0  0  0  0  0
  -26.3176  -14.8892   17.1781 C   0  0  0  0  0  0  0  0  0  0  0  0
  -28.3361  -27.9681   21.3231 C   0  0  0  0  0  0  0  0  0  0  0  0
  -26.4424  -30.4576   22.1826 C   0  0  0  0  0  0  0  0  0  0  0  0
  -29.5916  -20.7535   22.1265 C   0  0  0  0  0  0  0  0  0  0  0  0
  -23.3099  -31.5972   22.9144 C   0  0  0  0  0  0  0  0  0  0  0  0
  -33.4319  -26.5146   20.4363 C   0  0  0  0  0  0  0  0  0  0  0  0
  -26.5334  -27.8600   19.5640 C   0  0  0  0  0  0  0  0  0  0  0  0
  -25.4009  -28.1617   22.2790 C   0  0  0  0  0  0  0  0  0  0  0  0
  -32.8641  -27.1024   21.7240 C   0  0  0  0  0  0  0  0  0  0  0  0
  -31.6716  -18.2835   20.5731 C   0  0  0  0  0  0  0  0  0  0  0  0
  -31.5427  -27.8002   21.4385 C   0  0  0  0  0  0  0  0  0  0  0  0
  -30.6747  -17.2423   20.0659 C   0  0  0  0  0  0  0  0  0  0  0  0
  -31.2123  -18.9010   21.8903 C   0  0  0  0  0  0  0  0  0  0  0  0
  -28.8437  -18.4560   21.3306 C   0  0  0  0  0  0  0  0  0  0  0  0
  -30.4968  -26.8011   20.9278 C   0  0  1  0  0  0  0  0  0  0  0  0
  -27.2225  -28.7032   20.6324 C   0  0  1  0  0  0  0  0  0  0  0  0
  -29.2544  -17.8296   19.9862 C   0  0  2  0  0  0  0  0  0  0  0  0
  -22.0822  -33.6695   23.6185 C   0  0  0  0  0  0  0  0  0  0  0  0
  -21.2234  -21.5006   20.8628 C   0  0  0  0  0  0  0  0  0  0  0  0
  -20.7967  -19.9862   22.8277 C   0  0  0  0  0  0  0  0  0  0  0  0
  -21.3337  -19.0311   20.5959 C   0  0  0  0  0  0  0  0  0  0  0  0
  -28.1288  -22.6993   22.4143 C   0  0  0  0  0  0  0  0  0  0  0  0
  -27.7527  -21.1248   20.5095 C   0  0  0  0  0  0  0  0  0  0  0  0
  -27.4830  -30.1040   25.0290 C   0  0  0  0  0  0  0  0  0  0  0  0
  -25.5721  -31.5107   25.8279 C   0  0  0  0  0  0  0  0  0  0  0  0
  -27.2729  -32.4818   24.2829 C   0  0  0  0  0  0  0  0  0  0  0  0
  -21.6673  -31.6005   20.4526 C   0  0  0  0  0  0  0  0  0  0  0  0
  -27.2438  -20.3806   22.9144 C   0  0  0  0  0  0  0  0  0  0  0  0
  -22.6334  -22.2991   23.4025 C   0  0  0  0  0  0  0  0  0  0  0  0
  -23.0494  -23.7286   23.0733 C   0  0  0  0  0  0  0  0  0  1  0  0
  -25.6090  -30.7984   23.3944 C   0  0  1  0  0  0  0  0  0  0  0  0
  -22.5487  -32.8235   22.4440 C   0  0  2  0  0  0  0  0  0  0  0  0
  -21.6986  -20.1962   21.5730 C   0  0  0  0  0  0  0  0  0  0  0  0
  -28.1662  -21.2242   21.9827 C   0  0  0  0  0  0  0  0  0  0  0  0
  -26.4795  -31.2001   24.6184 C   0  0  0  0  0  0  0  0  0  0  0  0
  -23.9489  -19.3482   21.4060 N   0  0  0  0  0  0  0  0  0  0  0  0
  -27.5805  -16.0714   20.4218 N   0  0  0  0  0  0  0  0  0  0  0  0
  -28.2461  -16.8003   19.5098 N   0  0  0  0  0  0  0  0  0  0  0  0
  -26.3003  -29.1585   21.6748 N   0  0  0  0  0  0  0  0  0  0  0  0
  -29.8507  -19.4273   21.7798 N   0  0  0  0  0  0  0  0  0  0  0  0
  -28.4874  -17.1460   17.1789 N   0  0  0  0  0  0  0  0  0  0  0  0
  -25.3673  -13.8907   17.4319 N   0  0  0  0  0  0  0  0  0  0  0  0
  -29.3323  -27.5281   20.4726 N   0  0  0  0  0  0  0  0  0  0  0  0
  -24.6683  -31.8281   22.9664 N   0  0  0  0  0  0  0  0  0  0  0  0
  -21.3530  -32.4188   21.6520 N   0  3  0  0  0  0  0  0  0  0  0  0
  -26.5868  -15.1931   15.9913 O   0  0  0  0  0  0  0  0  0  0  0  0
  -28.2954  -27.8131   22.5380 O   0  0  0  0  0  0  0  0  0  0  0  0
  -27.1865  -31.3149   21.7000 O   0  0  0  0  0  0  0  0  0  0  0  0
  -30.4483  -21.5432   22.5322 O   0  0  0  0  0  0  0  0  0  0  0  0
  -22.7546  -30.5414   23.2100 O   0  0  0  0  0  0  0  0  0  0  0  0
  -23.3551  -11.6132   22.1008 O   0  0  0  0  0  0  0  0  0  0  0  0
  -23.0451  -23.9186   21.6590 O   0  0  0  0  0  0  0  0  0  1  0  0
  -23.1535   -6.5167   20.0056 F   0  0  0  0  0  0  0  0  0  0  0  0
  -24.0108   -9.4171   23.6468 F   0  0  0  0  0  0  0  0  0  0  0  0
  1  2  1  0  0  0  0
  1  5  2  0  0  0  0
  2  6  2  0  0  0  0
  3  8  2  0  0  0  0
  3 17  1  0  0  0  0
  4  9  1  0  0  0  0
  4 17  2  0  0  0  0
  5 19  1  0  0  0  0
  6 21  1  0  0  0  0
  7 10  2  0  0  0  0
  7 20  1  0  0  0  0
  8 25  1  0  0  0  0
  9 25  2  0  0  0  0
 10 26  1  0  0  0  0
 11 12  2  0  0  0  0
 11 27  1  0  0  0  0
 12 28  1  0  0  0  0
 13 22  1  0  0  0  0
 13 26  2  0  0  0  0
 14 23  2  0  0  0  0
 14 24  1  0  0  0  0
 15 28  2  0  0  0  0
 15 29  1  0  0  0  0
 16 23  1  0  0  0  0
 16 68  2  0  0  0  0
 17 30  1  0  0  0  0
 18 30  1  0  0  0  0
 18 32  2  0  0  0  0
 18 33  1  0  0  0  0
 19 21  2  0  0  0  0
 19 38  1  0  0  0  0
 20 22  2  0  0  0  0
 20 39  1  0  0  0  0
 21 47  1  0  0  0  0
 22 40  1  0  0  0  0
 23 60  1  0  0  0  0
 24 31  2  0  0  0  0
 24 61  1  0  0  0  0
 25 83  1  0  0  0  0
 26 84  1  0  0  0  0
 27 29  2  0  0  0  0
 27 83  1  0  0  0  0
 28 85  1  0  0  0  0
 29 86  1  0  0  0  0
 30 69  2  0  0  0  0
 31 65  1  0  0  0  0
 31 68  1  0  0  0  0
 32 70  1  0  0  0  0
 32 73  1  0  0  0  0
 33 74  1  0  0  0  0
 33 78  2  0  0  0  0
 34 48  1  0  0  0  0
 34 75  1  0  0  0  0
 34 79  2  0  0  0  0
 35 63  1  0  0  0  0
 35 71  1  0  0  0  0
 35 80  2  0  0  0  0
 36 66  1  0  0  0  0
 36 72  1  0  0  0  0
 36 81  2  0  0  0  0
 37 64  1  0  0  0  0
 37 76  1  0  0  0  0
 37 82  2  0  0  0  0
 38 41  1  0  0  0  0
 39 48  1  0  0  0  0
 40 71  1  0  0  0  0
 41 43  1  0  0  0  0
 42 44  1  0  0  0  0
 42 45  1  0  0  0  0
 43 47  1  0  0  0  0
 44 49  1  0  0  0  0
 45 72  1  0  0  0  0
 46 49  1  0  0  0  0
 46 72  1  0  0  0  0
 47 75  1  0  0  0  0
 48 71  1  0  0  0  0
 49 70  1  0  0  0  0
 50 64  1  0  0  0  0
 51 65  1  0  0  0  0
 52 65  1  0  0  0  0
 53 65  1  0  0  0  0
 54 66  1  0  0  0  0
 55 66  1  0  0  0  0
 56 67  1  0  0  0  0
 57 67  1  0  0  0  0
 58 67  1  0  0  0  0
 59 77  1  0  0  0  0
 60 66  1  0  0  0  0
 61 62  1  0  0  0  0
 62 84  1  0  0  0  0
 63 67  1  0  0  0  0
 63 76  1  0  0  0  0
 64 77  1  0  0  0  0
 69 70  1  0  0  0  0
M  CHG  1  77   1
M  ISO  4  36 100  62 101  66 100  84 101
M  END
> <Batch ID>
0072

> <Smiles>
CNC(C)C(=O)NC(C(=O)N1Cc2cc([101O:1][101CH2:1]Cc3cc(C[100C:0](C)(C)[100C:0](=O)N4CCCC(n5nc(-c6ccc(Oc7ccc(F)cc7F)cc6)c(C(N)=O)c5N)C4)cnc3C(C)(C)C)ccc2CC1C(=O)NC1CCCc2ccccc21)C(C)(C)C

> <Shape>
0.255

> <Color>
0.052

> <Negative vol penalty>
0.000

$$$$

  -OEChem-04052318243D

 86 94  0     1  0  0  0  0  0999 V2000
  -21.5709  -11.5773   19.7693 C   0  0  0  0  0  0  0  0  0  0  0  0
  -21.4107  -12.9586   19.7278 C   0  0  0  0  0  0  0  0  0  0  0  0
  -28.8172  -26.6640   19.6991 C   0  0  0  0  0  0  0  0  0  0  0  0
  -26.8190  -25.6689   18.7750 C   0  0  0  0  0  0  0  0  0  0  0  0
  -22.7558  -11.0285   20.2578 C   0  0  0  0  0  0  0  0  0  0  0  0
  -22.4349  -13.7919   20.1760 C   0  0  0  0  0  0  0  0  0  0  0  0
  -23.9741  -19.2734   17.9199 C   0  0  0  0  0  0  0  0  0  0  0  0
  -29.4934  -25.4545   19.5394 C   0  0  0  0  0  0  0  0  0  0  0  0
  -27.4952  -24.4595   18.6152 C   0  0  0  0  0  0  0  0  0  0  0  0
  -23.6743  -20.5729   18.3264 C   0  0  0  0  0  0  0  0  0  0  0  0
  -29.6937  -22.4833   21.1381 C   0  0  0  0  0  0  0  0  0  0  0  0
  -30.4807  -22.0366   22.1995 C   0  0  0  0  0  0  0  0  0  0  0  0
  -25.7694  -20.6772   19.5176 C   0  0  0  0  0  0  0  0  0  0  0  0
  -32.4296  -22.0789   20.7722 C   0  0  0  0  0  0  0  0  0  0  0  0
  -20.4198  -25.7889   23.7084 C   0  0  0  0  0  0  0  0  0  0  0  0
  -27.4800  -26.7712   19.3170 C   0  0  0  0  0  0  0  0  0  0  0  0
  -26.6874  -29.0719   18.5511 C   0  0  0  0  0  0  0  0  0  0  0  0
  -23.7989  -11.8556   20.7032 C   0  0  0  0  0  0  0  0  0  0  0  0
  -25.1709  -18.6611   18.3189 C   0  0  0  0  0  0  0  0  0  0  0  0
  -23.6344  -13.2536   20.6722 C   0  0  0  0  0  0  0  0  0  0  0  0
  -26.0833  -19.3708   19.1126 C   0  0  0  0  0  0  0  0  0  0  0  0
  -28.8324  -24.3523   18.9974 C   0  0  0  0  0  0  0  0  0  0  0  0
  -24.5707  -21.2739   19.1278 C   0  0  0  0  0  0  0  0  0  0  0  0
  -30.2746  -22.7278   19.8937 C   0  0  0  0  0  0  0  0  0  0  0  0
  -31.8487  -21.8344   22.0166 C   0  0  0  0  0  0  0  0  0  0  0  0
  -31.6426  -22.5256   19.7107 C   0  0  0  0  0  0  0  0  0  0  0  0
  -26.7807  -28.0202   19.4823 C   0  0  0  0  0  0  0  0  0  0  0  0
  -20.1295  -26.2871   22.4697 C   0  0  0  0  0  0  0  0  0  0  0  0
  -25.9217  -30.0218   19.1818 C   0  0  0  0  0  0  0  0  0  0  0  0
  -21.5225  -24.5860   22.2125 C   0  0  0  0  0  0  0  0  0  0  0  0
  -27.2431  -29.1804   17.2339 C   0  0  0  0  0  0  0  0  0  0  0  0
  -25.9118  -16.0940   20.0407 C   0  0  0  0  0  0  0  0  0  0  0  0
  -28.9320  -16.8188   19.1049 C   0  0  0  0  0  0  0  0  0  0  0  0
  -31.1389  -19.1831   18.0156 C   0  0  0  0  0  0  0  0  0  0  0  0
  -21.8210  -29.7221   23.5344 C   0  0  0  0  0  0  0  0  0  0  0  0
  -25.0428  -11.2156   21.2668 C   0  0  0  0  0  0  0  0  0  0  0  0
  -25.4917  -17.2685   17.8498 C   0  0  0  0  0  0  0  0  0  0  0  0
  -27.3910  -18.7659   19.5513 C   0  0  0  0  0  0  0  0  0  0  0  0
  -26.2262  -12.1740   21.3735 C   0  0  0  0  0  0  0  0  0  0  0  0
  -24.8152  -31.6485   23.5430 C   0  0  0  0  0  0  0  0  0  0  0  0
  -25.7879  -13.4963   21.9949 C   0  0  0  0  0  0  0  0  0  0  0  0
  -25.6501  -31.0320   22.4193 C   0  0  0  0  0  0  0  0  0  0  0  0
  -24.0127  -30.5898   24.2960 C   0  0  0  0  0  0  0  0  0  0  0  0
  -24.0018  -29.1156   22.3210 C   0  0  0  0  0  0  0  0  0  0  0  0
  -24.7323  -14.1910   21.1261 C   0  0  1  0  0  0  0  0  0  0  0  0
  -26.5055  -16.5567   18.7402 C   0  0  1  0  0  0  0  0  0  0  0  0
  -24.7857  -30.1514   21.4969 C   0  0  2  0  0  0  0  0  0  0  0  0
  -19.5460  -25.1541   19.4880 C   0  0  0  0  0  0  0  0  0  0  0  0
  -17.7759  -27.1725   22.4429 C   0  0  0  0  0  0  0  0  0  0  0  0
  -22.3276  -22.2353   22.4199 C   0  0  0  0  0  0  0  0  0  0  0  0
  -33.5458  -19.4835   17.3726 C   0  0  0  0  0  0  0  0  0  0  0  0
  -24.5049  -24.4518   22.7778 C   0  0  0  0  0  0  0  0  0  0  0  0
  -29.7227  -16.7703   22.0515 C   0  0  0  0  0  0  0  0  0  0  0  0
  -31.8264  -17.9796   21.4350 C   0  0  0  0  0  0  0  0  0  0  0  0
  -31.3794  -15.7068   20.5092 C   0  0  0  0  0  0  0  0  0  0  0  0
  -30.4220  -19.9997   15.2628 C   0  0  0  0  0  0  0  0  0  0  0  0
  -20.8125  -25.7016   20.1233 C   0  0  0  0  0  0  0  0  0  0  0  0
  -19.7021  -28.7862   22.6436 C   0  0  0  0  0  0  0  0  0  0  0  0
  -24.8106  -22.9660   20.7817 C   0  0  0  0  0  0  0  0  0  1  0  0
  -19.2648  -27.4049   22.0722 C   0  0  1  0  0  0  0  0  0  0  0  0
  -22.4292  -23.5285   21.5959 C   0  0  2  0  0  0  0  0  0  0  0  0
  -30.0449  -17.6773   19.6558 C   0  0  1  0  0  0  0  0  0  0  0  0
  -32.1417  -19.1759   16.8760 C   0  0  2  0  0  0  0  0  0  0  0  0
  -23.8997  -24.0262   21.4312 C   0  0  1  0  0  0  0  0  0  0  0  0
  -30.7179  -17.0445   20.9064 C   0  0  0  0  0  0  0  0  0  0  0  0
  -26.1267  -28.2775   20.6181 N   0  0  0  0  0  0  0  0  0  0  0  0
  -20.8256  -25.5243   21.5633 N   0  0  0  0  0  0  0  0  0  0  0  0
  -25.6152  -29.5018   20.4048 N   0  0  0  0  0  0  0  0  0  0  0  0
  -21.2835  -24.7370   23.5192 N   0  3  0  0  0  0  0  0  0  0  0  0
  -27.6562  -17.3993   19.0721 N   0  0  0  0  0  0  0  0  0  0  0  0
  -23.2136  -29.7903   23.3642 N   0  0  0  0  0  0  0  0  0  0  0  0
  -25.4875  -31.2429   18.8040 N   0  0  0  0  0  0  0  0  0  0  0  0
  -28.0044  -28.1123   16.7399 N   0  0  0  0  0  0  0  0  0  0  0  0
  -25.3559  -14.8300   19.9872 N   0  0  0  0  0  0  0  0  0  0  0  0
  -30.9588  -17.9229   18.5454 N   0  0  0  0  0  0  0  0  0  0  0  0
  -21.1384  -28.9481   22.6040 N   0  0  0  0  0  0  0  0  0  0  0  0
  -31.7711  -20.1947   15.8535 N   0  3  0  0  0  0  0  0  0  0  0  0
  -27.0834  -30.2012   16.5226 O   0  0  0  0  0  0  0  0  0  0  0  0
  -25.9562  -16.8287   21.0204 O   0  0  0  0  0  0  0  0  0  0  0  0
  -29.1866  -15.6777   18.7115 O   0  0  0  0  0  0  0  0  0  0  0  0
  -30.5747  -20.2051   18.4000 O   0  0  0  0  0  0  0  0  0  0  0  0
  -21.2291  -30.3120   24.4447 O   0  0  0  0  0  0  0  0  0  0  0  0
  -29.4920  -23.1720   18.8411 O   0  0  0  0  0  0  0  0  0  0  0  0
  -24.2802  -22.5422   19.5265 O   0  0  0  0  0  0  0  0  0  1  0  0
  -32.6046  -21.4069   23.0363 F   0  0  0  0  0  0  0  0  0  0  0  0
  -32.2065  -22.7599   18.5179 F   0  0  0  0  0  0  0  0  0  0  0  0
  1  2  1  0  0  0  0
  1  5  2  0  0  0  0
  2  6  2  0  0  0  0
  3  8  2  0  0  0  0
  3 16  1  0  0  0  0
  4  9  1  0  0  0  0
  4 16  2  0  0  0  0
  5 18  1  0  0  0  0
  6 20  1  0  0  0  0
  7 10  2  0  0  0  0
  7 19  1  0  0  0  0
  8 22  1  0  0  0  0
  9 22  2  0  0  0  0
 10 23  1  0  0  0  0
 11 12  2  0  0  0  0
 11 24  1  0  0  0  0
 12 25  1  0  0  0  0
 13 21  1  0  0  0  0
 13 23  2  0  0  0  0
 14 25  2  0  0  0  0
 14 26  1  0  0  0  0
 15 28  2  0  0  0  0
 15 69  1  0  0  0  0
 16 27  1  0  0  0  0
 17 27  1  0  0  0  0
 17 29  2  0  0  0  0
 17 31  1  0  0  0  0
 18 20  2  0  0  0  0
 18 36  1  0  0  0  0
 19 21  2  0  0  0  0
 19 37  1  0  0  0  0
 20 45  1  0  0  0  0
 21 38  1  0  0  0  0
 22 83  1  0  0  0  0
 23 84  1  0  0  0  0
 24 26  2  0  0  0  0
 24 83  1  0  0  0  0
 25 85  1  0  0  0  0
 26 86  1  0  0  0  0
 27 66  2  0  0  0  0
 28 60  1  0  0  0  0
 28 67  1  0  0  0  0
 29 68  1  0  0  0  0
 29 72  1  0  0  0  0
 30 61  1  0  0  0  0
 30 67  1  0  0  0  0
 30 69  2  0  0  0  0
 31 73  1  0  0  0  0
 31 78  2  0  0  0  0
 32 46  1  0  0  0  0
 32 74  1  0  0  0  0
 32 79  2  0  0  0  0
 33 62  1  0  0  0  0
 33 70  1  0  0  0  0
 33 80  2  0  0  0  0
 34 63  1  0  0  0  0
 34 75  1  0  0  0  0
 34 81  2  0  0  0  0
 35 71  1  0  0  0  0
 35 76  1  0  0  0  0
 35 82  2  0  0  0  0
 36 39  1  0  0  0  0
 37 46  1  0  0  0  0
 38 70  1  0  0  0  0
 39 41  1  0  0  0  0
 40 42  1  0  0  0  0
 40 43  1  0  0  0  0
 41 45  1  0  0  0  0
 42 47  1  0  0  0  0
 43 71  1  0  0  0  0
 44 47  1  0  0  0  0
 44 71  1  0  0  0  0
 45 74  1  0  0  0  0
 46 70  1  0  0  0  0
 47 68  1  0  0  0  0
 48 57  1  0  0  0  0
 49 60  1  0  0  0  0
 50 61  1  0  0  0  0
 51 63  1  0  0  0  0
 52 64  1  0  0  0  0
 53 65  1  0  0  0  0
 54 65  1  0  0  0  0
 55 65  1  0  0  0  0
 56 77  1  0  0  0  0
 57 67  1  0  0  0  0
 58 60  1  0  0  0  0
 58 76  1  0  0  0  0
 59 64  1  0  0  0  0
 59 84  1  0  0  0  0
 61 64  1  0  0  0  0
 62 65  1  0  0  0  0
 62 75  1  0  0  0  0
 63 77  1  0  0  0  0
 66 68  1  0  0  0  0
M  CHG  2  69   1  77   1
M  ISO  4  35 100  59 101  76 100  84 101
M  END
> <Batch ID>
0072

> <Smiles>
CCn1c(C(C)C[100NH:0][100C:0](=O)N2CCCC(n3nc(-c4ccc(Oc5ccc(F)cc5F)cc4)c(C(N)=O)c3N)C2)cnc1C(C)C(C)[101CH2:1][101O:1]c1ccc2c(c1)CN(C(=O)C(NC(=O)C(C)NC)C(C)(C)C)C(C(=O)NC1CCCc3ccccc31)C2

> <Shape>
0.243

> <Color>
0.062

> <Negative vol penalty>
0.000

$$$$

  -OEChem-04052318243D

 85 93  0     1  0  0  0  0  0999 V2000
  -21.1586  -14.4677   24.6806 C   0  0  0  0  0  0  0  0  0  0  0  0
  -22.2452  -15.1220   24.1090 C   0  0  0  0  0  0  0  0  0  0  0  0
  -23.1906   -9.8176   19.9314 C   0  0  0  0  0  0  0  0  0  0  0  0
  -23.5672  -10.0002   22.3109 C   0  0  0  0  0  0  0  0  0  0  0  0
  -19.9724  -15.1621   24.9143 C   0  0  0  0  0  0  0  0  0  0  0  0
  -22.1457  -16.4709   23.7698 C   0  0  0  0  0  0  0  0  0  0  0  0
  -26.2142  -19.1346   25.1832 C   0  0  0  0  0  0  0  0  0  0  0  0
  -22.4248   -8.6707   20.1406 C   0  0  0  0  0  0  0  0  0  0  0  0
  -22.8014   -8.8533   22.5201 C   0  0  0  0  0  0  0  0  0  0  0  0
  -27.3541  -19.0261   24.3879 C   0  0  0  0  0  0  0  0  0  0  0  0
  -21.2450   -5.7695   23.6506 C   0  0  0  0  0  0  0  0  0  0  0  0
  -21.7413   -4.8107   24.5337 C   0  0  0  0  0  0  0  0  0  0  0  0
  -26.8075  -21.1234   23.3288 C   0  0  0  0  0  0  0  0  0  0  0  0
  -23.7010   -4.5467   23.1455 C   0  0  0  0  0  0  0  0  0  0  0  0
  -32.7992  -16.9487   21.1873 C   0  0  0  0  0  0  0  0  0  0  0  0
  -23.7618  -10.4824   21.0166 C   0  0  0  0  0  0  0  0  0  0  0  0
  -24.0992  -12.9990   20.7709 C   0  0  0  0  0  0  0  0  0  0  0  0
  -19.8615  -16.5226   24.5867 C   0  0  0  0  0  0  0  0  0  0  0  0
  -25.3550  -20.2348   25.0494 C   0  0  0  0  0  0  0  0  0  0  0  0
  -20.9565  -17.1838   23.9981 C   0  0  0  0  0  0  0  0  0  0  0  0
  -25.6587  -21.2448   24.1254 C   0  0  0  0  0  0  0  0  0  0  0  0
  -22.2302   -8.1885   21.4349 C   0  0  0  0  0  0  0  0  0  0  0  0
  -27.6493  -20.0191   23.4584 C   0  0  0  0  0  0  0  0  0  0  0  0
  -21.9766   -6.1169   22.5148 C   0  0  0  0  0  0  0  0  0  0  0  0
  -22.9694   -4.1993   24.2812 C   0  0  0  0  0  0  0  0  0  0  0  0
  -23.2046   -5.5055   22.2624 C   0  0  0  0  0  0  0  0  0  0  0  0
  -24.5534  -11.6669   20.8010 C   0  0  0  0  0  0  0  0  0  0  0  0
  -33.6986  -16.3674   22.0577 C   0  0  0  0  0  0  0  0  0  0  0  0
  -31.4688  -16.6790   21.4354 C   0  0  0  0  0  0  0  0  0  0  0  0
  -25.2302  -13.7421   20.5357 C   0  0  0  0  0  0  0  0  0  0  0  0
  -32.0119  -15.3945   23.2305 C   0  0  0  0  0  0  0  0  0  0  0  0
  -22.7736  -13.5183   20.9404 C   0  0  0  0  0  0  0  0  0  0  0  0
  -22.3088  -20.6149   24.2250 C   0  0  0  0  0  0  0  0  0  0  0  0
  -22.8759  -23.7006   25.0493 C   0  0  0  0  0  0  0  0  0  0  0  0
  -25.1436  -26.2138   25.4824 C   0  0  0  0  0  0  0  0  0  0  0  0
  -31.0448  -12.7564   21.5696 C   0  0  0  0  0  0  0  0  0  0  0  0
  -18.5433  -17.2191   24.8145 C   0  0  0  0  0  0  0  0  0  0  0  0
  -24.1437  -20.3504   25.9336 C   0  0  0  0  0  0  0  0  0  0  0  0
  -24.7795  -22.4561   23.9572 C   0  0  0  0  0  0  0  0  0  0  0  0
  -18.6435  -18.7417   24.7711 C   0  0  0  0  0  0  0  0  0  0  0  0
  -29.5191  -13.4702   18.4328 C   0  0  0  0  0  0  0  0  0  0  0  0
  -19.4609  -19.1888   23.5634 C   0  0  0  0  0  0  0  0  0  0  0  0
  -28.0324  -13.2092   18.6814 C   0  0  0  0  0  0  0  0  0  0  0  0
  -30.4005  -12.4820   19.1934 C   0  0  0  0  0  0  0  0  0  0  0  0
  -28.6460  -12.1396   20.8900 C   0  0  0  0  0  0  0  0  0  0  0  0
  -20.8956  -18.6527   23.6392 C   0  0  1  0  0  0  0  0  0  0  0  0
  -23.0645  -21.2589   25.3528 C   0  0  1  0  0  0  0  0  0  0  0  0
  -27.7184  -13.1463   20.1883 C   0  0  2  0  0  0  0  0  0  0  0  0
  -35.1601  -16.6021   21.8700 C   0  0  0  0  0  0  0  0  0  0  0  0
  -25.3029  -28.6343   26.1254 C   0  0  0  0  0  0  0  0  0  0  0  0
  -30.1673  -14.8790   24.9708 C   0  0  0  0  0  0  0  0  0  0  0  0
  -32.5663  -14.6697   25.5682 C   0  0  0  0  0  0  0  0  0  0  0  0
  -21.8209  -24.4980   22.2995 C   0  0  0  0  0  0  0  0  0  0  0  0
  -22.8689  -26.7480   22.6269 C   0  0  0  0  0  0  0  0  0  0  0  0
  -21.0706  -25.9748   24.1732 C   0  0  0  0  0  0  0  0  0  0  0  0
  -26.8533  -25.6005   27.8190 C   0  0  0  0  0  0  0  0  0  0  0  0
  -30.4112  -17.2716   20.5389 C   0  0  0  0  0  0  0  0  0  0  0  0
  -29.9071  -18.6401   21.0021 C   0  0  0  0  0  0  0  0  0  0  0  0
  -31.5333  -13.0098   23.9896 C   0  0  0  0  0  0  0  0  0  0  0  0
  -29.2050  -18.5989   22.3545 C   0  0  0  0  0  0  0  0  0  1  0  0
  -23.3674  -24.9285   24.3216 C   0  0  1  0  0  0  0  0  0  0  0  0
  -25.3526  -27.1970   26.6200 C   0  0  2  0  0  0  0  0  0  0  0  0
  -31.5737  -14.5344   24.3672 C   0  0  0  0  0  0  0  0  0  0  0  0
  -22.2977  -25.5136   23.3569 C   0  0  0  0  0  0  0  0  0  0  0  0
  -25.8702  -11.5664   20.6008 N   0  0  0  0  0  0  0  0  0  0  0  0
  -33.3384  -15.5819   23.0938 N   0  0  0  0  0  0  0  0  0  0  0  0
  -31.0380  -15.9032   22.4517 N   0  0  0  0  0  0  0  0  0  0  0  0
  -26.2531  -12.8448   20.4426 N   0  0  0  0  0  0  0  0  0  0  0  0
  -23.6033  -22.5203   24.8403 N   0  0  0  0  0  0  0  0  0  0  0  0
  -30.0530  -12.4719   20.6165 N   0  0  0  0  0  0  0  0  0  0  0  0
  -25.4394  -15.0690   20.4015 N   0  0  0  0  0  0  0  0  0  0  0  0
  -21.7273  -12.6156   21.1745 N   0  0  0  0  0  0  0  0  0  0  0  0
  -21.6788  -19.4348   24.5715 N   0  0  0  0  0  0  0  0  0  0  0  0
  -23.8176  -25.8598   25.3504 N   0  0  0  0  0  0  0  0  0  0  0  0
  -30.6298  -12.7319   22.8954 N   0  0  0  0  0  0  0  0  0  0  0  0
  -26.6758  -26.9679   27.2662 N   0  3  0  0  0  0  0  0  0  0  0  0
  -22.5217  -14.7451   20.8696 O   0  0  0  0  0  0  0  0  0  0  0  0
  -22.2968  -21.1499   23.1226 O   0  0  0  0  0  0  0  0  0  0  0  0
  -21.8872  -23.7871   25.7820 O   0  0  0  0  0  0  0  0  0  0  0  0
  -26.0641  -25.8039   24.7787 O   0  0  0  0  0  0  0  0  0  0  0  0
  -32.2125  -13.0184   21.2614 O   0  0  0  0  0  0  0  0  0  0  0  0
  -21.4828   -7.0695   21.6395 O   0  0  0  0  0  0  0  0  0  0  0  0
  -28.7610  -19.9153   22.6804 O   0  0  0  0  0  0  0  0  0  1  0  0
  -23.4466   -3.2797   25.1301 F   0  0  0  0  0  0  0  0  0  0  0  0
  -23.9126   -5.8359   21.1736 F   0  0  0  0  0  0  0  0  0  0  0  0
  1  2  1  0  0  0  0
  1  5  2  0  0  0  0
  2  6  2  0  0  0  0
  3  8  2  0  0  0  0
  3 16  1  0  0  0  0
  4  9  1  0  0  0  0
  4 16  2  0  0  0  0
  5 18  1  0  0  0  0
  6 20  1  0  0  0  0
  7 10  2  0  0  0  0
  7 19  1  0  0  0  0
  8 22  1  0  0  0  0
  9 22  2  0  0  0  0
 10 23  1  0  0  0  0
 11 12  2  0  0  0  0
 11 24  1  0  0  0  0
 12 25  1  0  0  0  0
 13 21  1  0  0  0  0
 13 23  2  0  0  0  0
 14 25  2  0  0  0  0
 14 26  1  0  0  0  0
 15 28  2  0  0  0  0
 15 29  1  0  0  0  0
 16 27  1  0  0  0  0
 17 27  1  0  0  0  0
 17 30  2  0  0  0  0
 17 32  1  0  0  0  0
 18 20  2  0  0  0  0
 18 37  1  0  0  0  0
 19 21  2  0  0  0  0
 19 38  1  0  0  0  0
 20 46  1  0  0  0  0
 21 39  1  0  0  0  0
 22 82  1  0  0  0  0
 23 83  1  0  0  0  0
 24 26  2  0  0  0  0
 24 82  1  0  0  0  0
 25 84  1  0  0  0  0
 26 85  1  0  0  0  0
 27 65  2  0  0  0  0
 28 49  1  0  0  0  0
 28 66  1  0  0  0  0
 29 57  1  0  0  0  0
 29 67  2  0  0  0  0
 30 68  1  0  0  0  0
 30 71  1  0  0  0  0
 31 63  1  0  0  0  0
 31 66  2  0  0  0  0
 31 67  1  0  0  0  0
 32 72  1  0  0  0  0
 32 77  2  0  0  0  0
 33 47  1  0  0  0  0
 33 73  1  0  0  0  0
 33 78  2  0  0  0  0
 34 61  1  0  0  0  0
 34 69  1  0  0  0  0
 34 79  2  0  0  0  0
 35 62  1  0  0  0  0
 35 74  1  0  0  0  0
 35 80  2  0  0  0  0
 36 70  1  0  0  0  0
 36 75  1  0  0  0  0
 36 81  2  0  0  0  0
 37 40  1  0  0  0  0
 38 47  1  0  0  0  0
 39 69  1  0  0  0  0
 40 42  1  0  0  0  0
 41 43  1  0  0  0  0
 41 44  1  0  0  0  0
 42 46  1  0  0  0  0
 43 48  1  0  0  0  0
 44 70  1  0  0  0  0
 45 48  1  0  0  0  0
 45 70  1  0  0  0  0
 46 73  1  0  0  0  0
 47 69  1  0  0  0  0
 48 68  1  0  0  0  0
 50 62  1  0  0  0  0
 51 63  1  0  0  0  0
 52 63  1  0  0  0  0
 53 64  1  0  0  0  0
 54 64  1  0  0  0  0
 55 64  1  0  0  0  0
 56 76  1  0  0  0  0
 57 58  1  0  0  0  0
 58 60  1  0  0  0  0
 59 63  1  0  0  0  0
 59 75  1  0  0  0  0
 60 83  1  0  0  0  0
 61 64  1  0  0  0  0
 61 74  1  0  0  0  0
 62 76  1  0  0  0  0
 65 68  1  0  0  0  0
M  CHG  1  76   1
M  ISO  4  36 100  60 101  75 100  83 101
M  END
> <Batch ID>
0072

> <Smiles>
CNC(C)C(=O)NC(C(=O)N1Cc2cc([101O:1][101CH2:1]CCc3cc(C)nc(C(C)(C)C[100NH:0][100C:0](=O)N4CCCC(n5nc(-c6ccc(Oc7ccc(F)cc7F)cc6)c(C(N)=O)c5N)C4)n3)ccc2CC1C(=O)NC1CCCc2ccccc21)C(C)(C)C

> <Shape>
0.180

> <Color>
0.178

> <Negative vol penalty>
0.000

$$$$

  -OEChem-04052318243D

 93101  0     1  0  0  0  0  0999 V2000
  -27.0404  -34.9120   24.6275 C   0  0  0  0  0  0  0  0  0  0  0  0
  -27.3814  -33.6201   24.2400 C   0  0  0  0  0  0  0  0  0  0  0  0
  -26.5373  -12.8830   21.4400 C   0  0  0  0  0  0  0  0  0  0  0  0
  -25.2004  -13.7771   19.6372 C   0  0  0  0  0  0  0  0  0  0  0  0
  -25.7237  -35.2094   24.9763 C   0  0  0  0  0  0  0  0  0  0  0  0
  -26.4058  -32.6245   24.2021 C   0  0  0  0  0  0  0  0  0  0  0  0
  -26.6669  -29.8079   20.0017 C   0  0  0  0  0  0  0  0  0  0  0  0
  -25.5614  -11.9169   21.6847 C   0  0  0  0  0  0  0  0  0  0  0  0
  -24.2244  -12.8110   19.8818 C   0  0  0  0  0  0  0  0  0  0  0  0
  -27.6580  -28.8286   19.9523 C   0  0  0  0  0  0  0  0  0  0  0  0
  -22.5590  -11.7450   23.2275 C   0  0  0  0  0  0  0  0  0  0  0  0
  -22.1939  -11.5149   24.5539 C   0  0  0  0  0  0  0  0  0  0  0  0
  -26.0222  -27.1525   20.5304 C   0  0  0  0  0  0  0  0  0  0  0  0
  -22.8910   -9.2110   24.3461 C   0  0  0  0  0  0  0  0  0  0  0  0
  -29.0629  -23.6410   16.3622 C   0  0  0  0  0  0  0  0  0  0  0  0
  -26.3568  -13.8132   20.4163 C   0  0  0  0  0  0  0  0  0  0  0  0
  -28.4662  -14.7064   19.2938 C   0  0  0  0  0  0  0  0  0  0  0  0
  -24.7296  -34.2191   24.9334 C   0  0  0  0  0  0  0  0  0  0  0  0
  -25.3459  -29.4679   20.3270 C   0  0  0  0  0  0  0  0  0  0  0  0
  -25.0748  -32.9085   24.5519 C   0  0  0  0  0  0  0  0  0  0  0  0
  -25.0157  -28.1289   20.5807 C   0  0  0  0  0  0  0  0  0  0  0  0
  -24.4050  -11.8809   20.9055 C   0  0  0  0  0  0  0  0  0  0  0  0
  -27.3363  -27.5011   20.2195 C   0  0  0  0  0  0  0  0  0  0  0  0
  -23.0899  -10.7080   22.4603 C   0  0  0  0  0  0  0  0  0  0  0  0
  -22.3600  -10.2480   25.1132 C   0  0  0  0  0  0  0  0  0  0  0  0
  -23.2560   -9.4410   23.0197 C   0  0  0  0  0  0  0  0  0  0  0  0
  -27.3643  -14.8117   20.1635 C   0  0  0  0  0  0  0  0  0  0  0  0
  -29.6788  -23.1262   17.4846 C   0  0  0  0  0  0  0  0  0  0  0  0
  -27.7883  -23.1742   16.1135 C   0  0  0  0  0  0  0  0  0  0  0  0
  -29.1129  -15.9124   19.4113 C   0  0  0  0  0  0  0  0  0  0  0  0
  -27.8597  -21.8481   17.9583 C   0  0  0  0  0  0  0  0  0  0  0  0
  -28.8692  -13.6158   18.4547 C   0  0  0  0  0  0  0  0  0  0  0  0
  -23.3429  -30.2410   22.6709 C   0  0  0  0  0  0  0  0  0  0  0  0
  -21.2263  -28.5396   20.8969 C   0  0  0  0  0  0  0  0  0  0  0  0
  -20.6990  -26.1146   18.5542 C   0  0  0  0  0  0  0  0  0  0  0  0
  -26.8487  -21.2768   21.3179 C   0  0  0  0  0  0  0  0  0  0  0  0
  -23.3294  -34.5770   25.3648 C   0  0  0  0  0  0  0  0  0  0  0  0
  -24.2831  -30.5320   20.3499 C   0  0  0  0  0  0  0  0  0  0  0  0
  -23.6085  -27.7088   20.9149 C   0  0  0  0  0  0  0  0  0  0  0  0
  -22.2802  -33.5536   24.9379 C   0  0  0  0  0  0  0  0  0  0  0  0
  -29.8673  -19.4856   22.4932 C   0  0  0  0  0  0  0  0  0  0  0  0
  -22.7577  -32.1384   25.2477 C   0  0  0  0  0  0  0  0  0  0  0  0
  -29.6164  -18.0579   22.0108 C   0  0  0  0  0  0  0  0  0  0  0  0
  -28.5634  -20.2335   22.7542 C   0  0  0  0  0  0  0  0  0  0  0  0
  -27.3799  -18.8133   21.1121 C   0  0  0  0  0  0  0  0  0  0  0  0
  -24.0399  -31.8071   24.4744 C   0  0  1  0  0  0  0  0  0  0  0  0
  -23.0726  -30.1494   21.1958 C   0  0  1  0  0  0  0  0  0  0  0  0
  -28.6731  -18.0473   20.7954 C   0  0  2  0  0  0  0  0  0  0  0  0
  -26.8615  -19.1122   16.9915 C   0  0  0  0  0  0  0  0  0  0  0  0
  -18.8594  -24.9193   17.3358 C   0  0  0  0  0  0  0  0  0  0  0  0
  -25.0459  -24.6076   16.1465 C   0  0  0  0  0  0  0  0  0  0  0  0
  -26.9877  -26.1133   15.7158 C   0  0  0  0  0  0  0  0  0  0  0  0
  -25.4987  -25.4058   13.8267 C   0  0  0  0  0  0  0  0  0  0  0  0
  -20.6365  -26.8996   23.4014 C   0  0  0  0  0  0  0  0  0  0  0  0
  -19.5594  -25.1787   21.9363 C   0  0  0  0  0  0  0  0  0  0  0  0
  -18.6219  -27.4880   22.0413 C   0  0  0  0  0  0  0  0  0  0  0  0
  -31.8544  -26.2539   21.4301 C   0  0  0  0  0  0  0  0  0  0  0  0
  -29.7596  -25.3033   22.4021 C   0  0  0  0  0  0  0  0  0  0  0  0
  -25.6880  -22.6487   19.6298 C   0  0  0  0  0  0  0  0  0  0  0  0
  -21.6658  -27.0654   15.9235 C   0  0  0  0  0  0  0  0  0  0  0  0
  -31.0737  -23.5768   17.8396 C   0  0  0  0  0  0  0  0  0  0  0  0
  -27.0414  -23.6751   14.9229 C   0  0  0  0  0  0  0  0  0  0  0  0
  -26.1980  -19.9491   18.0784 C   0  0  0  0  0  0  0  0  0  0  0  0
  -31.1147  -24.8070   18.7569 C   0  0  0  0  0  0  0  0  0  0  0  0
  -30.4795  -24.5445   20.1309 C   0  0  0  0  0  0  0  0  0  0  0  0
  -29.6315  -26.9449   20.5004 C   0  0  0  0  0  0  0  0  0  1  0  0
  -27.1895  -20.8551   18.8464 C   0  0  2  0  0  0  0  0  0  0  0  0
  -20.8065  -27.0909   20.8323 C   0  0  1  0  0  0  0  0  0  0  0  0
  -19.8312  -26.0887   17.3089 C   0  0  2  0  0  0  0  0  0  0  0  0
  -26.1626  -24.9505   15.1378 C   0  0  0  0  0  0  0  0  0  0  0  0
  -19.9331  -26.6722   22.0485 C   0  0  0  0  0  0  0  0  0  0  0  0
  -30.4343  -25.7664   21.0925 C   0  0  0  0  0  0  0  0  0  0  0  0
  -27.3109  -15.9915   20.7876 N   0  0  0  0  0  0  0  0  0  0  0  0
  -29.1044  -22.2249   18.3080 N   0  0  0  0  0  0  0  0  0  0  0  0
  -27.1541  -22.2743   16.8934 N   0  0  0  0  0  0  0  0  0  0  0  0
  -28.3874  -16.6384   20.3095 N   0  0  0  0  0  0  0  0  0  0  0  0
  -22.6060  -28.7869   20.9310 N   0  0  0  0  0  0  0  0  0  0  0  0
  -27.6679  -20.1709   21.5987 N   0  0  0  0  0  0  0  0  0  0  0  0
  -30.2257  -16.4120   18.8329 N   0  0  0  0  0  0  0  0  0  0  0  0
  -28.0912  -12.4501   18.4545 N   0  0  0  0  0  0  0  0  0  0  0  0
  -23.7321  -31.4974   23.0946 N   0  0  0  0  0  0  0  0  0  0  0  0
  -20.1554  -26.9119   19.5391 N   0  0  0  0  0  0  0  0  0  0  0  0
  -26.5251  -21.5078   19.9724 N   0  0  0  0  0  0  0  0  0  0  0  0
  -20.6789  -25.9673   16.0892 N   0  3  0  0  0  0  0  0  0  0  0  0
  -29.8982  -13.6674   17.7391 O   0  0  0  0  0  0  0  0  0  0  0  0
  -23.2070  -29.2459   23.3731 O   0  0  0  0  0  0  0  0  0  0  0  0
  -20.3620  -29.4196   20.9092 O   0  0  0  0  0  0  0  0  0  0  0  0
  -21.7519  -25.4871   18.6455 O   0  0  0  0  0  0  0  0  0  0  0  0
  -26.4384  -22.0210   22.2177 O   0  0  0  0  0  0  0  0  0  0  0  0
  -23.4526  -10.9382   21.1438 O   0  0  0  0  0  0  0  0  0  0  0  0
  -28.3019  -26.5433   20.1726 O   0  0  0  0  0  0  0  0  0  1  0  0
  -22.0109  -10.0276   26.3875 F   0  0  0  0  0  0  0  0  0  0  0  0
  -23.7667   -8.4412   22.2880 F   0  0  0  0  0  0  0  0  0  0  0  0
  1  2  1  0  0  0  0
  1  5  2  0  0  0  0
  2  6  2  0  0  0  0
  3  8  2  0  0  0  0
  3 16  1  0  0  0  0
  4  9  1  0  0  0  0
  4 16  2  0  0  0  0
  5 18  1  0  0  0  0
  6 20  1  0  0  0  0
  7 10  2  0  0  0  0
  7 19  1  0  0  0  0
  8 22  1  0  0  0  0
  9 22  2  0  0  0  0
 10 23  1  0  0  0  0
 11 12  2  0  0  0  0
 11 24  1  0  0  0  0
 12 25  1  0  0  0  0
 13 21  1  0  0  0  0
 13 23  2  0  0  0  0
 14 25  2  0  0  0  0
 14 26  1  0  0  0  0
 15 28  1  0  0  0  0
 15 29  2  0  0  0  0
 16 27  1  0  0  0  0
 17 27  1  0  0  0  0
 17 30  2  0  0  0  0
 17 32  1  0  0  0  0
 18 20  2  0  0  0  0
 18 37  1  0  0  0  0
 19 21  2  0  0  0  0
 19 38  1  0  0  0  0
 20 46  1  0  0  0  0
 21 39  1  0  0  0  0
 22 90  1  0  0  0  0
 23 91  1  0  0  0  0
 24 26  2  0  0  0  0
 24 90  1  0  0  0  0
 25 92  1  0  0  0  0
 26 93  1  0  0  0  0
 27 73  2  0  0  0  0
 28 61  1  0  0  0  0
 28 74  2  0  0  0  0
 29 62  1  0  0  0  0
 29 75  1  0  0  0  0
 30 76  1  0  0  0  0
 30 79  1  0  0  0  0
 31 67  1  0  0  0  0
 31 74  1  0  0  0  0
 31 75  2  0  0  0  0
 32 80  1  0  0  0  0
 32 85  2  0  0  0  0
 33 47  1  0  0  0  0
 33 81  1  0  0  0  0
 33 86  2  0  0  0  0
 34 68  1  0  0  0  0
 34 77  1  0  0  0  0
 34 87  2  0  0  0  0
 35 69  1  0  0  0  0
 35 82  1  0  0  0  0
 35 88  2  0  0  0  0
 36 78  1  0  0  0  0
 36 83  1  0  0  0  0
 36 89  2  0  0  0  0
 37 40  1  0  0  0  0
 38 47  1  0  0  0  0
 39 77  1  0  0  0  0
 40 42  1  0  0  0  0
 41 43  1  0  0  0  0
 41 44  1  0  0  0  0
 42 46  1  0  0  0  0
 43 48  1  0  0  0  0
 44 78  1  0  0  0  0
 45 48  1  0  0  0  0
 45 78  1  0  0  0  0
 46 81  1  0  0  0  0
 47 77  1  0  0  0  0
 48 76  1  0  0  0  0
 49 63  1  0  0  0  0
 50 69  1  0  0  0  0
 51 70  1  0  0  0  0
 52 70  1  0  0  0  0
 53 70  1  0  0  0  0
 54 71  1  0  0  0  0
 55 71  1  0  0  0  0
 56 71  1  0  0  0  0
 57 72  1  0  0  0  0
 58 72  1  0  0  0  0
 59 83  1  0  0  0  0
 60 84  1  0  0  0  0
 61 64  1  0  0  0  0
 62 70  1  0  0  0  0
 63 67  1  0  0  0  0
 64 65  1  0  0  0  0
 65 72  1  0  0  0  0
 66 72  1  0  0  0  0
 66 91  1  0  0  0  0
 67 83  1  0  0  0  0
 68 71  1  0  0  0  0
 68 82  1  0  0  0  0
 69 84  1  0  0  0  0
 73 76  1  0  0  0  0
M  CHG  1  84   1
M  ISO  4  36 100  66 101  83 100  91 101
M  END
> <Batch ID>
0072

> <Smiles>
CCC(c1nc(CCCC(C)(C)[101CH2:1][101O:1]c2ccc3c(c2)CN(C(=O)C(NC(=O)C(C)NC)C(C)(C)C)C(C(=O)NC2CCCc4ccccc42)C3)cc(CC(C)(C)C)n1)[100N:0](C)[100C:0](=O)N1CCCC(n2nc(-c3ccc(Oc4ccc(F)cc4F)cc3)c(C(N)=O)c2N)C1

> <Shape>
0.300

> <Color>
0.076

> <Negative vol penalty>
0.000

$$$$

  -OEChem-04052318243D

 84 92  0     1  0  0  0  0  0999 V2000
  -21.5362  -11.8418   20.0494 C   0  0  0  0  0  0  0  0  0  0  0  0
  -21.4352  -13.0687   20.6976 C   0  0  0  0  0  0  0  0  0  0  0  0
  -18.9636  -24.9657   19.6578 C   0  0  0  0  0  0  0  0  0  0  0  0
  -19.7374  -23.9231   21.6952 C   0  0  0  0  0  0  0  0  0  0  0  0
  -22.7905  -11.2817   19.8111 C   0  0  0  0  0  0  0  0  0  0  0  0
  -22.5887  -13.7357   21.1087 C   0  0  0  0  0  0  0  0  0  0  0  0
  -23.4933  -19.7914   21.2326 C   0  0  0  0  0  0  0  0  0  0  0  0
  -18.1640  -23.8540   19.3926 C   0  0  0  0  0  0  0  0  0  0  0  0
  -18.9378  -22.8114   21.4301 C   0  0  0  0  0  0  0  0  0  0  0  0
  -23.4145  -20.7308   22.2599 C   0  0  0  0  0  0  0  0  0  0  0  0
  -17.3756  -19.5455   21.1084 C   0  0  0  0  0  0  0  0  0  0  0  0
  -17.9416  -18.2829   21.2845 C   0  0  0  0  0  0  0  0  0  0  0  0
  -25.7961  -20.5512   22.5987 C   0  0  0  0  0  0  0  0  0  0  0  0
  -19.6235  -18.8063   19.6309 C   0  0  0  0  0  0  0  0  0  0  0  0
  -19.7504  -25.0002   20.8091 C   0  0  0  0  0  0  0  0  0  0  0  0
  -20.2186  -27.2999   21.8091 C   0  0  0  0  0  0  0  0  0  0  0  0
  -23.9603  -11.9467   20.2110 C   0  0  0  0  0  0  0  0  0  0  0  0
  -24.7246  -19.2159   20.8874 C   0  0  0  0  0  0  0  0  0  0  0  0
  -23.8598  -13.1833   20.8767 C   0  0  0  0  0  0  0  0  0  0  0  0
  -25.8883  -19.6067   21.5650 C   0  0  0  0  0  0  0  0  0  0  0  0
  -18.1511  -22.7768   20.2787 C   0  0  0  0  0  0  0  0  0  0  0  0
  -24.5655  -21.1087   22.9450 C   0  0  0  0  0  0  0  0  0  0  0  0
  -17.9334  -20.4385   20.1935 C   0  0  0  0  0  0  0  0  0  0  0  0
  -19.0656  -17.9133   20.5458 C   0  0  0  0  0  0  0  0  0  0  0  0
  -19.0574  -20.0689   19.4548 C   0  0  0  0  0  0  0  0  0  0  0  0
  -20.5770  -26.1481   21.0833 C   0  0  0  0  0  0  0  0  0  0  0  0
  -21.3449  -28.0856   21.7843 C   0  0  0  0  0  0  0  0  0  0  0  0
  -26.0244  -30.1525   27.6916 C   0  0  0  0  0  0  0  0  0  0  0  0
  -26.6676  -29.9028   25.7216 C   0  0  0  0  0  0  0  0  0  0  0  0
  -18.9785  -27.6300   22.4485 C   0  0  0  0  0  0  0  0  0  0  0  0
  -25.9013  -16.2631   20.8956 C   0  0  0  0  0  0  0  0  0  0  0  0
  -28.4343  -17.6865   19.4534 C   0  0  0  0  0  0  0  0  0  0  0  0
  -30.2280  -20.5367   18.9004 C   0  0  0  0  0  0  0  0  0  0  0  0
  -26.8742  -28.6816   22.2499 C   0  0  0  0  0  0  0  0  0  0  0  0
  -25.2919  -11.2795   19.9737 C   0  0  0  0  0  0  0  0  0  0  0  0
  -24.7969  -18.2238   19.7591 C   0  0  0  0  0  0  0  0  0  0  0  0
  -27.2376  -19.0336   21.2193 C   0  0  0  0  0  0  0  0  0  0  0  0
  -26.4807  -12.2277   20.1070 C   0  0  0  0  0  0  0  0  0  0  0  0
  -25.6024  -27.6528   19.0875 C   0  0  0  0  0  0  0  0  0  0  0  0
  -26.3484  -13.0757   21.3680 C   0  0  0  0  0  0  0  0  0  0  0  0
  -24.1547  -27.2590   19.3860 C   0  0  0  0  0  0  0  0  0  0  0  0
  -26.5371  -27.2793   20.2359 C   0  0  0  0  0  0  0  0  0  0  0  0
  -24.6836  -27.4000   21.8556 C   0  0  0  0  0  0  0  0  0  0  0  0
  -25.0890  -13.9491   21.3158 C   0  0  1  0  0  0  0  0  0  0  0  0
  -26.0240  -17.3206   19.8353 C   0  0  1  0  0  0  0  0  0  0  0  0
  -23.6944  -27.8071   20.7502 C   0  0  2  0  0  0  0  0  0  0  0  0
  -25.5228  -30.8035   28.9076 C   0  0  0  0  0  0  0  0  0  0  0  0
  -26.9225  -31.5020   23.7879 C   0  0  0  0  0  0  0  0  0  0  0  0
  -32.2699  -21.3794   17.7096 C   0  0  0  0  0  0  0  0  0  0  0  0
  -30.2013  -16.4379   21.6049 C   0  0  0  0  0  0  0  0  0  0  0  0
  -32.0105  -18.0400   20.9504 C   0  0  0  0  0  0  0  0  0  0  0  0
  -31.1642  -16.3742   19.2977 C   0  0  0  0  0  0  0  0  0  0  0  0
  -28.6332  -22.3916   17.2346 C   0  0  0  0  0  0  0  0  0  0  0  0
  -26.4062  -25.1219   24.9793 C   0  0  0  0  0  0  0  0  0  0  0  0
  -25.9540  -26.4675   25.5501 C   0  0  0  0  0  0  0  0  0  0  0  0
  -25.2108  -24.2035   24.7091 C   0  0  0  0  0  0  0  0  0  0  0  0
  -27.1508  -27.3700   25.8582 C   0  0  0  0  0  0  0  0  0  0  0  0
  -25.6382  -22.8461   24.1643 C   0  0  0  0  0  0  0  0  0  1  0  0
  -27.0566  -30.0561   24.3082 C   0  0  2  0  0  0  0  0  0  0  0  0
  -29.7078  -18.3412   19.9316 C   0  0  1  0  0  0  0  0  0  0  0  0
  -30.7682  -21.1551   17.6236 C   0  0  2  0  0  0  0  0  0  0  0  0
  -30.7454  -17.3079   20.4542 C   0  0  0  0  0  0  0  0  0  0  0  0
  -21.8327  -26.1940   20.6304 N   0  0  0  0  0  0  0  0  0  0  0  0
  -26.2315  -30.8404   26.5303 N   0  0  0  0  0  0  0  0  0  0  0  0
  -26.3050  -28.8482   27.6523 N   0  0  0  0  0  0  0  0  0  0  0  0
  -22.2732  -27.3841   21.0727 N   0  0  0  0  0  0  0  0  0  0  0  0
  -26.7142  -28.7144   26.3815 N   0  0  0  0  0  0  0  0  0  0  0  0
  -27.2556  -18.0626   20.1128 N   0  0  0  0  0  0  0  0  0  0  0  0
  -26.0449  -27.8308   21.5005 N   0  0  0  0  0  0  0  0  0  0  0  0
  -21.6219  -29.3012   22.3020 N   0  0  0  0  0  0  0  0  0  0  0  0
  -17.9241  -26.7095   22.3770 N   0  0  0  0  0  0  0  0  0  0  0  0
  -25.3043  -15.0957   20.4594 N   0  0  0  0  0  0  0  0  0  0  0  0
  -30.1865  -19.1606   18.8236 N   0  0  0  0  0  0  0  0  0  0  0  0
  -26.3282  -29.1654   23.4324 N   0  0  0  0  0  0  0  0  0  0  0  0
  -30.1110  -22.4675   17.3653 N   0  3  0  0  0  0  0  0  0  0  0  0
  -18.8051  -28.7165   23.0510 O   0  0  0  0  0  0  0  0  0  0  0  0
  -26.3188  -16.4889   22.0254 O   0  0  0  0  0  0  0  0  0  0  0  0
  -28.4828  -16.8767   18.5241 O   0  0  0  0  0  0  0  0  0  0  0  0
  -29.8812  -21.2072   19.8703 O   0  0  0  0  0  0  0  0  0  0  0  0
  -28.0147  -28.9915   21.8890 O   0  0  0  0  0  0  0  0  0  0  0  0
  -17.3708  -21.6920   20.0204 O   0  0  0  0  0  0  0  0  0  0  0  0
  -24.4913  -22.0248   23.9485 O   0  0  0  0  0  0  0  0  0  1  0  0
  -19.6100  -16.7014   20.7161 F   0  0  0  0  0  0  0  0  0  0  0  0
  -19.5985  -20.9230   18.5752 F   0  0  0  0  0  0  0  0  0  0  0  0
  1  2  1  0  0  0  0
  1  5  2  0  0  0  0
  2  6  2  0  0  0  0
  3  8  2  0  0  0  0
  3 15  1  0  0  0  0
  4  9  1  0  0  0  0
  4 15  2  0  0  0  0
  5 17  1  0  0  0  0
  6 19  1  0  0  0  0
  7 10  2  0  0  0  0
  7 18  1  0  0  0  0
  8 21  1  0  0  0  0
  9 21  2  0  0  0  0
 10 22  1  0  0  0  0
 11 12  2  0  0  0  0
 11 23  1  0  0  0  0
 12 24  1  0  0  0  0
 13 20  1  0  0  0  0
 13 22  2  0  0  0  0
 14 24  2  0  0  0  0
 14 25  1  0  0  0  0
 15 26  1  0  0  0  0
 16 26  1  0  0  0  0
 16 27  2  0  0  0  0
 16 30  1  0  0  0  0
 17 19  2  0  0  0  0
 17 35  1  0  0  0  0
 18 20  2  0  0  0  0
 18 36  1  0  0  0  0
 19 44  1  0  0  0  0
 20 37  1  0  0  0  0
 21 81  1  0  0  0  0
 22 82  1  0  0  0  0
 23 25  2  0  0  0  0
 23 81  1  0  0  0  0
 24 83  1  0  0  0  0
 25 84  1  0  0  0  0
 26 63  2  0  0  0  0
 27 66  1  0  0  0  0
 27 70  1  0  0  0  0
 28 47  1  0  0  0  0
 28 64  1  0  0  0  0
 28 65  2  0  0  0  0
 29 59  1  0  0  0  0
 29 64  2  0  0  0  0
 29 67  1  0  0  0  0
 30 71  1  0  0  0  0
 30 76  2  0  0  0  0
 31 45  1  0  0  0  0
 31 72  1  0  0  0  0
 31 77  2  0  0  0  0
 32 60  1  0  0  0  0
 32 68  1  0  0  0  0
 32 78  2  0  0  0  0
 33 61  1  0  0  0  0
 33 73  1  0  0  0  0
 33 79  2  0  0  0  0
 34 69  1  0  0  0  0
 34 74  1  0  0  0  0
 34 80  2  0  0  0  0
 35 38  1  0  0  0  0
 36 45  1  0  0  0  0
 37 68  1  0  0  0  0
 38 40  1  0  0  0  0
 39 41  1  0  0  0  0
 39 42  1  0  0  0  0
 40 44  1  0  0  0  0
 41 46  1  0  0  0  0
 42 69  1  0  0  0  0
 43 46  1  0  0  0  0
 43 69  1  0  0  0  0
 44 72  1  0  0  0  0
 45 68  1  0  0  0  0
 46 66  1  0  0  0  0
 48 59  1  0  0  0  0
 49 61  1  0  0  0  0
 50 62  1  0  0  0  0
 51 62  1  0  0  0  0
 52 62  1  0  0  0  0
 53 75  1  0  0  0  0
 54 55  1  0  0  0  0
 54 56  1  0  0  0  0
 55 57  1  0  0  0  0
 56 58  1  0  0  0  0
 57 67  1  0  0  0  0
 58 82  1  0  0  0  0
 59 74  1  0  0  0  0
 60 62  1  0  0  0  0
 60 73  1  0  0  0  0
 61 75  1  0  0  0  0
 63 66  1  0  0  0  0
 65 67  1  0  0  0  0
M  CHG  1  75   1
M  ISO  4  34 100  58 101  74 100  82 101
M  END
> <Batch ID>
0072

> <Smiles>
CNC(C)C(=O)NC(C(=O)N1Cc2cc([101O:1][101CH2:1]CCCCn3nc(C)nc3C(C)[100NH:0][100C:0](=O)N3CCCC(n4nc(-c5ccc(Oc6ccc(F)cc6F)cc5)c(C(N)=O)c4N)C3)ccc2CC1C(=O)NC1CCCc2ccccc21)C(C)(C)C

> <Shape>
0.217

> <Color>
0.069

> <Negative vol penalty>
0.000

$$$$

  -OEChem-04052318243D

 84 92  0     1  0  0  0  0  0999 V2000
  -37.5660  -26.5652   30.3204 C   0  0  0  0  0  0  0  0  0  0  0  0
  -36.3287  -25.9653   30.1086 C   0  0  0  0  0  0  0  0  0  0  0  0
  -23.0041   -9.8884   19.9831 C   0  0  0  0  0  0  0  0  0  0  0  0
  -23.7325   -9.9444   22.2860 C   0  0  0  0  0  0  0  0  0  0  0  0
  -38.0427  -27.5148   29.4177 C   0  0  0  0  0  0  0  0  0  0  0  0
  -35.5670  -26.3155   28.9943 C   0  0  0  0  0  0  0  0  0  0  0  0
  -33.5941  -22.2863   26.6454 C   0  0  0  0  0  0  0  0  0  0  0  0
  -30.8559  -18.4266   25.2798 C   0  0  0  0  0  0  0  0  0  0  0  0
  -22.2412   -8.7521   20.2520 C   0  0  0  0  0  0  0  0  0  0  0  0
  -22.9695   -8.8081   22.5550 C   0  0  0  0  0  0  0  0  0  0  0  0
  -32.4678  -21.7011   27.2225 C   0  0  0  0  0  0  0  0  0  0  0  0
  -23.2225   -5.4693   22.0871 C   0  0  0  0  0  0  0  0  0  0  0  0
  -23.8140   -4.4547   22.8397 C   0  0  0  0  0  0  0  0  0  0  0  0
  -31.2912  -17.9846   24.0354 C   0  0  0  0  0  0  0  0  0  0  0  0
  -31.0636  -22.8517   25.6339 C   0  0  0  0  0  0  0  0  0  0  0  0
  -22.0918   -4.6950   24.5171 C   0  0  0  0  0  0  0  0  0  0  0  0
  -23.7498  -10.4845   21.0001 C   0  0  0  0  0  0  0  0  0  0  0  0
  -24.1278  -13.0010   20.8202 C   0  0  0  0  0  0  0  0  0  0  0  0
  -37.2907  -27.8697   28.2866 C   0  0  0  0  0  0  0  0  0  0  0  0
  -33.4624  -23.1685   25.5634 C   0  0  0  0  0  0  0  0  0  0  0  0
  -36.0335  -27.2718   28.0763 C   0  0  0  0  0  0  0  0  0  0  0  0
  -32.1899  -23.4447   25.0433 C   0  0  0  0  0  0  0  0  0  0  0  0
  -29.5351  -18.2198   25.6618 C   0  0  0  0  0  0  0  0  0  0  0  0
  -22.2238   -8.2120   21.5379 C   0  0  0  0  0  0  0  0  0  0  0  0
  -31.2021  -21.9860   26.7186 C   0  0  0  0  0  0  0  0  0  0  0  0
  -22.0657   -6.0968   22.5495 C   0  0  0  0  0  0  0  0  0  0  0  0
  -23.2487   -4.0676   24.0547 C   0  0  0  0  0  0  0  0  0  0  0  0
  -21.5004   -5.7096   23.7645 C   0  0  0  0  0  0  0  0  0  0  0  0
  -24.5386  -11.6580   20.7228 C   0  0  0  0  0  0  0  0  0  0  0  0
  -30.3737  -17.3463   23.2165 C   0  0  0  0  0  0  0  0  0  0  0  0
  -28.6962  -17.5711   24.7700 C   0  0  0  0  0  0  0  0  0  0  0  0
  -25.2350  -13.7262   20.4532 C   0  0  0  0  0  0  0  0  0  0  0  0
  -22.8588  -13.5443   21.2078 C   0  0  0  0  0  0  0  0  0  0  0  0
  -34.1557  -26.2310   25.0691 C   0  0  0  0  0  0  0  0  0  0  0  0
  -33.2626  -25.5393   22.0283 C   0  0  0  0  0  0  0  0  0  0  0  0
  -31.4708  -23.5438   19.9178 C   0  0  0  0  0  0  0  0  0  0  0  0
  -30.7290  -14.6766   20.6927 C   0  0  0  0  0  0  0  0  0  0  0  0
  -37.8264  -28.9359   27.3641 C   0  0  0  0  0  0  0  0  0  0  0  0
  -34.6893  -23.7706   24.9352 C   0  0  0  0  0  0  0  0  0  0  0  0
  -31.9962  -24.3693   23.8702 C   0  0  0  0  0  0  0  0  0  0  0  0
  -37.1254  -28.9768   26.0086 C   0  0  0  0  0  0  0  0  0  0  0  0
  -29.5919  -12.2466   18.3520 C   0  0  0  0  0  0  0  0  0  0  0  0
  -35.6119  -28.9159   26.1883 C   0  0  0  0  0  0  0  0  0  0  0  0
  -28.1447  -11.9834   18.7721 C   0  0  0  0  0  0  0  0  0  0  0  0
  -30.4953  -12.4862   19.5597 C   0  0  0  0  0  0  0  0  0  0  0  0
  -28.5849  -13.2781   20.9001 C   0  0  0  0  0  0  0  0  0  0  0  0
  -35.1890  -27.6071   26.8662 C   0  0  1  0  0  0  0  0  0  0  0  0
  -34.3973  -25.0551   24.1655 C   0  0  1  0  0  0  0  0  0  0  0  0
  -27.6247  -13.0861   19.7137 C   0  0  2  0  0  0  0  0  0  0  0  0
  -26.5992  -16.3312   24.1766 C   0  0  0  0  0  0  0  0  0  0  0  0
  -30.6328  -17.9111   20.7721 C   0  0  0  0  0  0  0  0  0  0  0  0
  -30.6282  -22.6189   17.7425 C   0  0  0  0  0  0  0  0  0  0  0  0
  -31.3277  -27.8927   22.1942 C   0  0  0  0  0  0  0  0  0  0  0  0
  -30.1557  -26.9813   20.1783 C   0  0  0  0  0  0  0  0  0  0  0  0
  -32.5415  -27.6916   20.0169 C   0  0  0  0  0  0  0  0  0  0  0  0
  -33.7182  -21.6274   19.7287 C   0  0  0  0  0  0  0  0  0  0  0  0
  -29.0568  -18.6980   27.0095 C   0  0  0  0  0  0  0  0  0  0  0  0
  -27.2682  -17.3187   25.1279 C   0  0  0  0  0  0  0  0  0  0  0  0
  -28.2138  -19.9735   26.9468 C   0  0  0  0  0  0  0  0  0  0  0  0
  -28.9837  -21.1810   26.4247 C   0  0  0  0  0  0  0  0  0  1  0  0
  -30.8073  -16.8573   21.8749 C   0  0  2  0  0  0  0  0  0  0  0  0
  -31.9617  -25.5696   21.2630 C   0  0  1  0  0  0  0  0  0  0  0  0
  -31.8487  -22.8564   18.6181 C   0  0  2  0  0  0  0  0  0  0  0  0
  -31.4998  -27.0178   20.9365 C   0  0  0  0  0  0  0  0  0  0  0  0
  -25.8077  -11.5346   20.3249 N   0  0  0  0  0  0  0  0  0  0  0  0
  -29.0828  -17.1274   23.5530 N   0  0  0  0  0  0  0  0  0  0  0  0
  -26.2038  -12.8093   20.1691 N   0  0  0  0  0  0  0  0  0  0  0  0
  -33.2260  -24.9382   23.2944 N   0  0  0  0  0  0  0  0  0  0  0  0
  -29.9468  -13.5445   20.4112 N   0  0  0  0  0  0  0  0  0  0  0  0
  -25.4646  -15.0524   20.3491 N   0  0  0  0  0  0  0  0  0  0  0  0
  -21.8300  -12.6577   21.5540 N   0  0  0  0  0  0  0  0  0  0  0  0
  -35.2100  -26.5159   25.9157 N   0  0  0  0  0  0  0  0  0  0  0  0
  -32.1590  -24.7263   20.0890 N   0  0  0  0  0  0  0  0  0  0  0  0
  -30.1311  -15.6348   21.5021 N   0  0  0  0  0  0  0  0  0  0  0  0
  -32.4911  -21.5407   18.8958 N   0  3  0  0  0  0  0  0  0  0  0  0
  -22.6387  -14.7790   21.2302 O   0  0  0  0  0  0  0  0  0  0  0  0
  -33.0921  -26.8360   25.0020 O   0  0  0  0  0  0  0  0  0  0  0  0
  -34.2756  -26.0246   21.5184 O   0  0  0  0  0  0  0  0  0  0  0  0
  -30.6449  -23.0801   20.7009 O   0  0  0  0  0  0  0  0  0  0  0  0
  -31.8734  -14.8252   20.2508 O   0  0  0  0  0  0  0  0  0  0  0  0
  -21.4793   -7.1033   21.8008 O   0  0  0  0  0  0  0  0  0  0  0  0
  -30.1011  -21.4168   27.2804 O   0  0  0  0  0  0  0  0  0  1  0  0
  -23.8159   -3.0922   24.7766 F   0  0  0  0  0  0  0  0  0  0  0  0
  -20.3884   -6.3079   24.2133 F   0  0  0  0  0  0  0  0  0  0  0  0
  1  2  1  0  0  0  0
  1  5  2  0  0  0  0
  2  6  2  0  0  0  0
  3  9  2  0  0  0  0
  3 17  1  0  0  0  0
  4 10  1  0  0  0  0
  4 17  2  0  0  0  0
  5 19  1  0  0  0  0
  6 21  1  0  0  0  0
  7 11  2  0  0  0  0
  7 20  1  0  0  0  0
  8 14  2  0  0  0  0
  8 23  1  0  0  0  0
  9 24  1  0  0  0  0
 10 24  2  0  0  0  0
 11 25  1  0  0  0  0
 12 13  2  0  0  0  0
 12 26  1  0  0  0  0
 13 27  1  0  0  0  0
 14 30  1  0  0  0  0
 15 22  1  0  0  0  0
 15 25  2  0  0  0  0
 16 27  2  0  0  0  0
 16 28  1  0  0  0  0
 17 29  1  0  0  0  0
 18 29  1  0  0  0  0
 18 32  2  0  0  0  0
 18 33  1  0  0  0  0
 19 21  2  0  0  0  0
 19 38  1  0  0  0  0
 20 22  2  0  0  0  0
 20 39  1  0  0  0  0
 21 47  1  0  0  0  0
 22 40  1  0  0  0  0
 23 31  2  0  0  0  0
 23 57  1  0  0  0  0
 24 81  1  0  0  0  0
 25 82  1  0  0  0  0
 26 28  2  0  0  0  0
 26 81  1  0  0  0  0
 27 83  1  0  0  0  0
 28 84  1  0  0  0  0
 29 65  2  0  0  0  0
 30 61  1  0  0  0  0
 30 66  2  0  0  0  0
 31 58  1  0  0  0  0
 31 66  1  0  0  0  0
 32 67  1  0  0  0  0
 32 70  1  0  0  0  0
 33 71  1  0  0  0  0
 33 76  2  0  0  0  0
 34 48  1  0  0  0  0
 34 72  1  0  0  0  0
 34 77  2  0  0  0  0
 35 62  1  0  0  0  0
 35 68  1  0  0  0  0
 35 78  2  0  0  0  0
 36 63  1  0  0  0  0
 36 73  1  0  0  0  0
 36 79  2  0  0  0  0
 37 69  1  0  0  0  0
 37 74  1  0  0  0  0
 37 80  2  0  0  0  0
 38 41  1  0  0  0  0
 39 48  1  0  0  0  0
 40 68  1  0  0  0  0
 41 43  1  0  0  0  0
 42 44  1  0  0  0  0
 42 45  1  0  0  0  0
 43 47  1  0  0  0  0
 44 49  1  0  0  0  0
 45 69  1  0  0  0  0
 46 49  1  0  0  0  0
 46 69  1  0  0  0  0
 47 72  1  0  0  0  0
 48 68  1  0  0  0  0
 49 67  1  0  0  0  0
 50 58  1  0  0  0  0
 51 61  1  0  0  0  0
 52 63  1  0  0  0  0
 53 64  1  0  0  0  0
 54 64  1  0  0  0  0
 55 64  1  0  0  0  0
 56 75  1  0  0  0  0
 57 59  1  0  0  0  0
 59 60  1  0  0  0  0
 60 82  1  0  0  0  0
 61 74  1  0  0  0  0
 62 64  1  0  0  0  0
 62 73  1  0  0  0  0
 63 75  1  0  0  0  0
 65 67  1  0  0  0  0
M  CHG  1  75   1
M  ISO  4  37 100  60 101  74 100  82 101
M  END
> <Batch ID>
0072

> <Smiles>
CCc1nc(C(C)[100NH:0][100C:0](=O)N2CCCC(n3nc(-c4ccc(Oc5ccc(F)cc5F)cc4)c(C(N)=O)c3N)C2)ccc1CC[101CH2:1][101O:1]c1ccc2c(c1)CN(C(=O)C(NC(=O)C(C)NC)C(C)(C)C)C(C(=O)NC1CCCc3ccccc31)C2

> <Shape>
0.210

> <Color>
0.197

> <Negative vol penalty>
0.000

$$$$

  -OEChem-04052318243D

 83 91  0     1  0  0  0  0  0999 V2000
  -33.3268  -27.3321   20.8805 C   0  0  0  0  0  0  0  0  0  0  0  0
  -32.2038  -26.7337   20.3182 C   0  0  0  0  0  0  0  0  0  0  0  0
  -26.6469  -12.3338   21.7289 C   0  0  0  0  0  0  0  0  0  0  0  0
  -26.0219  -13.6973   19.8349 C   0  0  0  0  0  0  0  0  0  0  0  0
  -33.2160  -28.0265   22.0845 C   0  0  0  0  0  0  0  0  0  0  0  0
  -30.9695  -26.8285   20.9600 C   0  0  0  0  0  0  0  0  0  0  0  0
  -27.2011  -27.9500   17.7684 C   0  0  0  0  0  0  0  0  0  0  0  0
  -25.3755  -11.7600   21.7354 C   0  0  0  0  0  0  0  0  0  0  0  0
  -24.7505  -13.1235   19.8414 C   0  0  0  0  0  0  0  0  0  0  0  0
  -26.7038  -26.9126   16.9808 C   0  0  0  0  0  0  0  0  0  0  0  0
  -23.7063   -9.3835   20.0039 C   0  0  0  0  0  0  0  0  0  0  0  0
  -23.6208   -7.9987   20.1472 C   0  0  0  0  0  0  0  0  0  0  0  0
  -24.8468  -26.6581   18.4994 C   0  0  0  0  0  0  0  0  0  0  0  0
  -22.3258   -8.2876   22.1663 C   0  0  0  0  0  0  0  0  0  0  0  0
  -26.6247  -22.9178   18.9715 C   0  0  0  0  0  0  0  0  0  0  0  0
  -26.9700  -13.3025   20.7787 C   0  0  0  0  0  0  0  0  0  0  0  0
  -29.4170  -13.4430   20.0713 C   0  0  0  0  0  0  0  0  0  0  0  0
  -31.9778  -28.1380   22.7365 C   0  0  0  0  0  0  0  0  0  0  0  0
  -26.5297  -28.3426   18.9353 C   0  0  0  0  0  0  0  0  0  0  0  0
  -30.8423  -27.5239   22.1745 C   0  0  0  0  0  0  0  0  0  0  0  0
  -25.3363  -27.7024   19.2987 C   0  0  0  0  0  0  0  0  0  0  0  0
  -26.3577  -22.1273   17.8724 C   0  0  0  0  0  0  0  0  0  0  0  0
  -24.4273  -12.1549   20.7917 C   0  0  0  0  0  0  0  0  0  0  0  0
  -25.5280  -26.2646   17.3478 C   0  0  0  0  0  0  0  0  0  0  0  0
  -23.1016  -10.2204   20.9417 C   0  0  0  0  0  0  0  0  0  0  0  0
  -22.9305   -7.4507   21.2284 C   0  0  0  0  0  0  0  0  0  0  0  0
  -22.4113   -9.6725   22.0229 C   0  0  0  0  0  0  0  0  0  0  0  0
  -28.2830  -13.8959   20.7718 C   0  0  0  0  0  0  0  0  0  0  0  0
  -27.2757  -21.1289   17.6180 C   0  0  0  0  0  0  0  0  0  0  0  0
  -30.4023  -14.3440   20.3936 C   0  0  0  0  0  0  0  0  0  0  0  0
  -28.5220  -21.7473   19.4155 C   0  0  0  0  0  0  0  0  0  0  0  0
  -29.5663  -12.3093   19.2064 C   0  0  0  0  0  0  0  0  0  0  0  0
  -27.2558  -28.4005   22.0293 C   0  0  0  0  0  0  0  0  0  0  0  0
  -24.3987  -29.9173   22.2725 C   0  0  0  0  0  0  0  0  0  0  0  0
  -21.3099  -30.5076   20.9469 C   0  0  0  0  0  0  0  0  0  0  0  0
  -30.2769  -20.0554   22.1867 C   0  0  0  0  0  0  0  0  0  0  0  0
  -31.9167  -28.8586   24.0600 C   0  0  0  0  0  0  0  0  0  0  0  0
  -27.0649  -29.4812   19.7596 C   0  0  0  0  0  0  0  0  0  0  0  0
  -24.5668  -28.0995   20.5310 C   0  0  0  0  0  0  0  0  0  0  0  0
  -30.4988  -29.2311   24.4858 C   0  0  0  0  0  0  0  0  0  0  0  0
  -31.7665  -17.3082   23.8926 C   0  0  0  0  0  0  0  0  0  0  0  0
  -29.5570  -28.0455   24.3009 C   0  0  0  0  0  0  0  0  0  0  0  0
  -31.1450  -16.0813   23.2231 C   0  0  0  0  0  0  0  0  0  0  0  0
  -30.7642  -18.4540   24.0128 C   0  0  0  0  0  0  0  0  0  0  0  0
  -29.4890  -17.6132   22.0787 C   0  0  0  0  0  0  0  0  0  0  0  0
  -29.4812  -27.6257   22.8280 C   0  0  1  0  0  0  0  0  0  0  0  0
  -26.5746  -29.4553   21.2040 C   0  0  1  0  0  0  0  0  0  0  0  0
  -30.4776  -16.4507   21.8847 C   0  0  2  0  0  0  0  0  0  0  0  0
  -27.0897  -20.2114   16.4547 C   0  0  0  0  0  0  0  0  0  0  0  0
  -31.0421  -21.6890   19.5007 C   0  0  0  0  0  0  0  0  0  0  0  0
  -19.1820  -31.7611   21.3920 C   0  0  0  0  0  0  0  0  0  0  0  0
  -23.6151  -27.8391   24.3646 C   0  0  0  0  0  0  0  0  0  0  0  0
  -21.2304  -28.5420   24.0684 C   0  0  0  0  0  0  0  0  0  0  0  0
  -22.9166  -30.1788   24.9056 C   0  0  0  0  0  0  0  0  0  0  0  0
  -21.5939  -32.1012   18.4692 C   0  0  0  0  0  0  0  0  0  0  0  0
  -25.1354  -22.3611   17.0210 C   0  0  0  0  0  0  0  0  0  0  0  0
  -25.4346  -23.0580   15.6920 C   0  0  0  0  0  0  0  0  0  0  0  0
  -25.9908  -24.4671   15.8609 C   0  0  0  0  0  0  0  0  0  1  0  0
  -29.7237  -21.5356   20.2730 C   0  0  2  0  0  0  0  0  0  0  0  0
  -22.9690  -29.4778   22.4770 C   0  0  1  0  0  0  0  0  0  0  0  0
  -20.5431  -31.7970   20.7147 C   0  0  2  0  0  0  0  0  0  0  0  0
  -22.6981  -29.0004   23.9317 C   0  0  0  0  0  0  0  0  0  0  0  0
  -27.7015  -22.7552   19.7680 N   0  0  0  0  0  0  0  0  0  0  0  0
  -28.5243  -14.9988   21.4855 N   0  0  0  0  0  0  0  0  0  0  0  0
  -28.3731  -20.9097   18.3715 N   0  0  0  0  0  0  0  0  0  0  0  0
  -29.8213  -15.2464   21.2352 N   0  0  0  0  0  0  0  0  0  0  0  0
  -25.1340  -29.2142   21.3076 N   0  0  0  0  0  0  0  0  0  0  0  0
  -30.1687  -18.7559   22.7088 N   0  0  0  0  0  0  0  0  0  0  0  0
  -31.7003  -14.4443   20.0366 N   0  0  0  0  0  0  0  0  0  0  0  0
  -28.4529  -11.4878   18.9834 N   0  0  0  0  0  0  0  0  0  0  0  0
  -28.6301  -28.5320   22.0873 N   0  0  0  0  0  0  0  0  0  0  0  0
  -22.1336  -30.5947   22.0493 N   0  0  0  0  0  0  0  0  0  0  0  0
  -29.6903  -20.2546   20.9429 N   0  0  0  0  0  0  0  0  0  0  0  0
  -20.3363  -32.0211   19.2559 N   0  3  0  0  0  0  0  0  0  0  0  0
  -30.6591  -12.0235   18.6609 O   0  0  0  0  0  0  0  0  0  0  0  0
  -26.5841  -27.5326   22.5744 O   0  0  0  0  0  0  0  0  0  0  0  0
  -24.8445  -30.8546   22.9391 O   0  0  0  0  0  0  0  0  0  0  0  0
  -21.1874  -29.5205   20.2250 O   0  0  0  0  0  0  0  0  0  0  0  0
  -30.8580  -20.9689   22.7822 O   0  0  0  0  0  0  0  0  0  0  0  0
  -23.1867  -11.5950   20.7976 O   0  0  0  0  0  0  0  0  0  0  0  0
  -25.0407  -25.2513   16.5812 O   0  0  0  0  0  0  0  0  0  1  0  0
  -22.8472   -6.1209   21.3651 F   0  0  0  0  0  0  0  0  0  0  0  0
  -21.8273  -10.4714   22.9265 F   0  0  0  0  0  0  0  0  0  0  0  0
  1  2  1  0  0  0  0
  1  5  2  0  0  0  0
  2  6  2  0  0  0  0
  3  8  2  0  0  0  0
  3 16  1  0  0  0  0
  4  9  1  0  0  0  0
  4 16  2  0  0  0  0
  5 18  1  0  0  0  0
  6 20  1  0  0  0  0
  7 10  2  0  0  0  0
  7 19  1  0  0  0  0
  8 23  1  0  0  0  0
  9 23  2  0  0  0  0
 10 24  1  0  0  0  0
 11 12  2  0  0  0  0
 11 25  1  0  0  0  0
 12 26  1  0  0  0  0
 13 21  1  0  0  0  0
 13 24  2  0  0  0  0
 14 26  2  0  0  0  0
 14 27  1  0  0  0  0
 15 22  1  0  0  0  0
 15 63  2  0  0  0  0
 16 28  1  0  0  0  0
 17 28  1  0  0  0  0
 17 30  2  0  0  0  0
 17 32  1  0  0  0  0
 18 20  2  0  0  0  0
 18 37  1  0  0  0  0
 19 21  2  0  0  0  0
 19 38  1  0  0  0  0
 20 46  1  0  0  0  0
 21 39  1  0  0  0  0
 22 29  2  0  0  0  0
 22 56  1  0  0  0  0
 23 80  1  0  0  0  0
 24 81  1  0  0  0  0
 25 27  2  0  0  0  0
 25 80  1  0  0  0  0
 26 82  1  0  0  0  0
 27 83  1  0  0  0  0
 28 64  2  0  0  0  0
 29 49  1  0  0  0  0
 29 65  1  0  0  0  0
 30 66  1  0  0  0  0
 30 69  1  0  0  0  0
 31 59  1  0  0  0  0
 31 63  1  0  0  0  0
 31 65  2  0  0  0  0
 32 70  1  0  0  0  0
 32 75  2  0  0  0  0
 33 47  1  0  0  0  0
 33 71  1  0  0  0  0
 33 76  2  0  0  0  0
 34 60  1  0  0  0  0
 34 67  1  0  0  0  0
 34 77  2  0  0  0  0
 35 61  1  0  0  0  0
 35 72  1  0  0  0  0
 35 78  2  0  0  0  0
 36 68  1  0  0  0  0
 36 73  1  0  0  0  0
 36 79  2  0  0  0  0
 37 40  1  0  0  0  0
 38 47  1  0  0  0  0
 39 67  1  0  0  0  0
 40 42  1  0  0  0  0
 41 43  1  0  0  0  0
 41 44  1  0  0  0  0
 42 46  1  0  0  0  0
 43 48  1  0  0  0  0
 44 68  1  0  0  0  0
 45 48  1  0  0  0  0
 45 68  1  0  0  0  0
 46 71  1  0  0  0  0
 47 67  1  0  0  0  0
 48 66  1  0  0  0  0
 50 59  1  0  0  0  0
 51 61  1  0  0  0  0
 52 62  1  0  0  0  0
 53 62  1  0  0  0  0
 54 62  1  0  0  0  0
 55 74  1  0  0  0  0
 56 57  1  0  0  0  0
 57 58  1  0  0  0  0
 58 81  1  0  0  0  0
 59 73  1  0  0  0  0
 60 62  1  0  0  0  0
 60 72  1  0  0  0  0
 61 74  1  0  0  0  0
 64 66  1  0  0  0  0
M  CHG  1  74   1
M  ISO  4  36 100  58 101  73 100  81 101
M  END
> <Batch ID>
0072

> <Smiles>
CNC(C)C(=O)NC(C(=O)N1Cc2cc([101O:1][101CH2:1]CCc3cnc(C(C)[100NH:0][100C:0](=O)N4CCCC(n5nc(-c6ccc(Oc7ccc(F)cc7F)cc6)c(C(N)=O)c5N)C4)nc3C)ccc2CC1C(=O)NC1CCCc2ccccc21)C(C)(C)C

> <Shape>
0.255

> <Color>
0.069

> <Negative vol penalty>
0.000

$$$$

  -OEChem-04052318243D

 83 91  0     1  0  0  0  0  0999 V2000
  -20.0720   -9.5085   23.6055 C   0  0  0  0  0  0  0  0  0  0  0  0
  -21.1018  -10.3257   24.0605 C   0  0  0  0  0  0  0  0  0  0  0  0
  -25.4362  -31.3008   22.1272 C   0  0  0  0  0  0  0  0  0  0  0  0
  -27.2017  -31.6448   20.5142 C   0  0  0  0  0  0  0  0  0  0  0  0
  -20.2471   -8.7455   22.4518 C   0  0  0  0  0  0  0  0  0  0  0  0
  -22.3079  -10.3794   23.3627 C   0  0  0  0  0  0  0  0  0  0  0  0
  -24.0076  -15.1143   22.7826 C   0  0  0  0  0  0  0  0  0  0  0  0
  -25.5324  -32.6365   22.5174 C   0  0  0  0  0  0  0  0  0  0  0  0
  -27.2978  -32.9806   20.9043 C   0  0  0  0  0  0  0  0  0  0  0  0
  -24.6257  -15.7081   23.8822 C   0  0  0  0  0  0  0  0  0  0  0  0
  -27.5527  -34.5236   24.4621 C   0  0  0  0  0  0  0  0  0  0  0  0
  -27.5533  -34.8002   25.8293 C   0  0  0  0  0  0  0  0  0  0  0  0
  -26.7852  -15.2102   22.9295 C   0  0  0  0  0  0  0  0  0  0  0  0
  -25.5622  -36.1416   25.5588 C   0  0  0  0  0  0  0  0  0  0  0  0
  -29.8663  -20.8266   22.3771 C   0  0  0  0  0  0  0  0  0  0  0  0
  -27.2037  -21.0148   22.3293 C   0  0  0  0  0  0  0  0  0  0  0  0
  -26.2709  -30.8049   21.1256 C   0  0  0  0  0  0  0  0  0  0  0  0
  -25.3520  -28.8916   19.7106 C   0  0  0  0  0  0  0  0  0  0  0  0
  -21.4524   -8.7972   21.7341 C   0  0  0  0  0  0  0  0  0  0  0  0
  -24.7750  -14.5534   21.7517 C   0  0  0  0  0  0  0  0  0  0  0  0
  -22.4998   -9.6153   22.1991 C   0  0  0  0  0  0  0  0  0  0  0  0
  -26.1744  -14.6122   21.8167 C   0  0  0  0  0  0  0  0  0  0  0  0
  -26.4632  -33.4764   21.9060 C   0  0  0  0  0  0  0  0  0  0  0  0
  -26.0147  -15.7536   23.9572 C   0  0  0  0  0  0  0  0  0  0  0  0
  -26.5569  -35.0561   23.6433 C   0  0  0  0  0  0  0  0  0  0  0  0
  -26.5581  -35.6091   26.3776 C   0  0  0  0  0  0  0  0  0  0  0  0
  -25.5616  -35.8650   24.1916 C   0  0  0  0  0  0  0  0  0  0  0  0
  -26.1724  -29.4251   20.7226 C   0  0  0  0  0  0  0  0  0  0  0  0
  -29.2218  -21.5409   21.3912 C   0  0  0  0  0  0  0  0  0  0  0  0
  -27.8480  -20.2999   23.3147 C   0  0  0  0  0  0  0  0  0  0  0  0
  -25.6251  -27.5456   19.7211 C   0  0  0  0  0  0  0  0  0  0  0  0
  -24.4259  -29.5536   18.8389 C   0  0  0  0  0  0  0  0  0  0  0  0
  -25.1118  -11.6343   20.5396 C   0  0  0  0  0  0  0  0  0  0  0  0
  -26.9540  -13.1750   18.3591 C   0  0  0  0  0  0  0  0  0  0  0  0
  -29.3189  -23.4680   19.8034 C   0  0  0  0  0  0  0  0  0  0  0  0
  -28.8956  -15.8766   17.5984 C   0  0  0  0  0  0  0  0  0  0  0  0
  -21.6121   -7.9182   20.5189 C   0  0  0  0  0  0  0  0  0  0  0  0
  -24.0929  -13.9403   20.5595 C   0  0  0  0  0  0  0  0  0  0  0  0
  -27.0436  -14.0425   20.7265 C   0  0  0  0  0  0  0  0  0  0  0  0
  -22.7859   -8.3174   19.6284 C   0  0  0  0  0  0  0  0  0  0  0  0
  -28.1966  -24.7234   23.0270 C   0  0  0  0  0  0  0  0  0  0  0  0
  -24.0338   -8.5659   20.4696 C   0  0  0  0  0  0  0  0  0  0  0  0
  -27.5257  -26.0367   22.6267 C   0  0  0  0  0  0  0  0  0  0  0  0
  -29.4143  -24.4269   22.1557 C   0  0  0  0  0  0  0  0  0  0  0  0
  -28.4489  -25.7328   20.2883 C   0  0  0  0  0  0  0  0  0  0  0  0
  -23.8138   -9.7194   21.4557 C   0  0  1  0  0  0  0  0  0  0  0  0
  -24.9745  -12.9430   19.8142 C   0  0  1  0  0  0  0  0  0  0  0  0
  -27.1979  -26.0533   21.1234 C   0  0  2  0  0  0  0  0  0  0  0  0
  -30.2978  -16.8375   15.7523 C   0  0  0  0  0  0  0  0  0  0  0  0
  -30.3355  -21.2884   19.1516 C   0  0  0  0  0  0  0  0  0  0  0  0
  -29.1700  -11.1802   19.0072 C   0  0  0  0  0  0  0  0  0  0  0  0
  -30.7921  -12.7250   17.8888 C   0  0  0  0  0  0  0  0  0  0  0  0
  -28.9263  -11.7154   16.5764 C   0  0  0  0  0  0  0  0  0  0  0  0
  -27.1889  -18.2863   17.3992 C   0  0  0  0  0  0  0  0  0  0  0  0
  -26.9167  -18.3592   26.3042 C   0  0  0  0  0  0  0  0  0  0  0  0
  -25.9223  -17.3968   25.6740 C   0  0  0  0  0  0  0  0  0  1  0  0
  -27.8652  -18.9525   25.2743 C   0  0  0  0  0  0  0  0  0  0  0  0
  -28.4170  -13.5334   18.2579 C   0  0  1  0  0  0  0  0  0  0  0  0
  -28.9171  -16.7929   16.3882 C   0  0  2  0  0  0  0  0  0  0  0  0
  -30.0006  -22.2278   20.3242 C   0  0  2  0  0  0  0  0  0  0  0  0
  -29.3103  -12.2976   17.9542 C   0  0  0  0  0  0  0  0  0  0  0  0
  -27.8790  -21.6481   21.3498 N   0  0  0  0  0  0  0  0  0  0  0  0
  -29.1910  -20.1930   23.3563 N   0  0  0  0  0  0  0  0  0  0  0  0
  -26.9112  -28.4940   21.3318 N   0  0  0  0  0  0  0  0  0  0  0  0
  -26.5559  -27.3618   20.7009 N   0  0  0  0  0  0  0  0  0  0  0  0
  -26.3297  -13.4480   19.5845 N   0  0  0  0  0  0  0  0  0  0  0  0
  -29.0667  -24.4794   20.7306 N   0  0  0  0  0  0  0  0  0  0  0  0
  -25.1573  -26.5131   18.9879 N   0  0  0  0  0  0  0  0  0  0  0  0
  -24.2671  -30.9407   18.9620 N   0  0  0  0  0  0  0  0  0  0  0  0
  -23.9108  -10.9924   20.7742 N   0  0  0  0  0  0  0  0  0  0  0  0
  -28.5090  -14.5963   17.2628 N   0  0  0  0  0  0  0  0  0  0  0  0
  -28.5356  -18.1789   16.7812 N   0  3  0  0  0  0  0  0  0  0  0  0
  -23.7469  -28.9311   17.9874 O   0  0  0  0  0  0  0  0  0  0  0  0
  -26.2250  -11.2357   20.8613 O   0  0  0  0  0  0  0  0  0  0  0  0
  -26.3843  -12.6780   17.3844 O   0  0  0  0  0  0  0  0  0  0  0  0
  -29.0178  -23.5328   18.6087 O   0  0  0  0  0  0  0  0  0  0  0  0
  -29.1956  -16.2575   18.7277 O   0  0  0  0  0  0  0  0  0  0  0  0
  -31.2371  -22.7768   20.8169 O   0  0  0  0  0  0  0  0  0  0  0  0
  -26.5572  -34.7799   22.2863 O   0  0  0  0  0  0  0  0  0  0  0  0
  -26.6206  -16.3320   25.0297 O   0  0  0  0  0  0  0  0  0  1  0  0
  -27.1263  -19.6692   24.2944 O   0  0  0  0  0  0  0  0  0  0  0  0
  -26.5579  -35.8734   27.6907 F   0  0  0  0  0  0  0  0  0  0  0  0
  -24.6017  -36.3785   23.4102 F   0  0  0  0  0  0  0  0  0  0  0  0
  1  2  1  0  0  0  0
  1  5  2  0  0  0  0
  2  6  2  0  0  0  0
  3  8  2  0  0  0  0
  3 17  1  0  0  0  0
  4  9  1  0  0  0  0
  4 17  2  0  0  0  0
  5 19  1  0  0  0  0
  6 21  1  0  0  0  0
  7 10  2  0  0  0  0
  7 20  1  0  0  0  0
  8 23  1  0  0  0  0
  9 23  2  0  0  0  0
 10 24  1  0  0  0  0
 11 12  2  0  0  0  0
 11 25  1  0  0  0  0
 12 26  1  0  0  0  0
 13 22  1  0  0  0  0
 13 24  2  0  0  0  0
 14 26  2  0  0  0  0
 14 27  1  0  0  0  0
 15 29  2  0  0  0  0
 15 63  1  0  0  0  0
 16 30  1  0  0  0  0
 16 62  2  0  0  0  0
 17 28  1  0  0  0  0
 18 28  1  0  0  0  0
 18 31  2  0  0  0  0
 18 32  1  0  0  0  0
 19 21  2  0  0  0  0
 19 37  1  0  0  0  0
 20 22  2  0  0  0  0
 20 38  1  0  0  0  0
 21 46  1  0  0  0  0
 22 39  1  0  0  0  0
 23 79  1  0  0  0  0
 24 80  1  0  0  0  0
 25 27  2  0  0  0  0
 25 79  1  0  0  0  0
 26 82  1  0  0  0  0
 27 83  1  0  0  0  0
 28 64  2  0  0  0  0
 29 60  1  0  0  0  0
 29 62  1  0  0  0  0
 30 63  2  0  0  0  0
 30 81  1  0  0  0  0
 31 65  1  0  0  0  0
 31 68  1  0  0  0  0
 32 69  1  0  0  0  0
 32 73  2  0  0  0  0
 33 47  1  0  0  0  0
 33 70  1  0  0  0  0
 33 74  2  0  0  0  0
 34 58  1  0  0  0  0
 34 66  1  0  0  0  0
 34 75  2  0  0  0  0
 35 60  1  0  0  0  0
 35 67  1  0  0  0  0
 35 76  2  0  0  0  0
 36 59  1  0  0  0  0
 36 71  1  0  0  0  0
 36 77  2  0  0  0  0
 37 40  1  0  0  0  0
 38 47  1  0  0  0  0
 39 66  1  0  0  0  0
 40 42  1  0  0  0  0
 41 43  1  0  0  0  0
 41 44  1  0  0  0  0
 42 46  1  0  0  0  0
 43 48  1  0  0  0  0
 44 67  1  0  0  0  0
 45 48  1  0  0  0  0
 45 67  1  0  0  0  0
 46 70  1  0  0  0  0
 47 66  1  0  0  0  0
 48 65  1  0  0  0  0
 49 59  1  0  0  0  0
 50 60  1  0  0  0  0
 51 61  1  0  0  0  0
 52 61  1  0  0  0  0
 53 61  1  0  0  0  0
 54 72  1  0  0  0  0
 55 56  1  0  0  0  0
 55 57  1  0  0  0  0
 56 80  1  0  0  0  0
 57 81  1  0  0  0  0
 58 61  1  0  0  0  0
 58 71  1  0  0  0  0
 59 72  1  0  0  0  0
 60 78  1  0  0  0  0
 64 65  1  0  0  0  0
M  CHG  1  72   1
M  ISO  4  35 100  56 101  60 100  80 101
M  END
> <Batch ID>
0072

> <Smiles>
CNC(C)C(=O)NC(C(=O)N1Cc2cc([101O:1][101CH2:1]CCOc3cnc([100C:0](C)(O)[100C:0](=O)N4CCCC(n5nc(-c6ccc(Oc7ccc(F)cc7F)cc6)c(C(N)=O)c5N)C4)cn3)ccc2CC1C(=O)NC1CCCc2ccccc21)C(C)(C)C

> <Shape>
0.252

> <Color>
0.076

> <Negative vol penalty>
0.000

$$$$

  -OEChem-04052318243D

 88 96  0     1  0  0  0  0  0999 V2000
  -29.6094  -12.5866   19.3971 C   0  0  0  0  0  0  0  0  0  0  0  0
  -29.4594  -13.9566   19.2072 C   0  0  0  0  0  0  0  0  0  0  0  0
  -29.1067  -25.9223   21.2090 C   0  0  0  0  0  0  0  0  0  0  0  0
  -27.2952  -24.3751   20.8067 C   0  0  0  0  0  0  0  0  0  0  0  0
  -28.4963  -11.7979   19.6851 C   0  0  0  0  0  0  0  0  0  0  0  0
  -28.1960  -14.5386   19.3041 C   0  0  0  0  0  0  0  0  0  0  0  0
  -24.9882  -20.6126   21.3370 C   0  0  0  0  0  0  0  0  0  0  0  0
  -29.8932  -24.8762   21.6912 C   0  0  0  0  0  0  0  0  0  0  0  0
  -28.0818  -23.3289   21.2888 C   0  0  0  0  0  0  0  0  0  0  0  0
  -24.0904  -21.5677   20.8620 C   0  0  0  0  0  0  0  0  0  0  0  0
  -29.7385  -20.1902   22.0772 C   0  0  0  0  0  0  0  0  0  0  0  0
  -29.7514  -18.9995   21.3508 C   0  0  0  0  0  0  0  0  0  0  0  0
  -19.9520  -26.8441   23.4146 C   0  0  0  0  0  0  0  0  0  0  0  0
  -20.1288  -28.2124   23.5214 C   0  0  0  0  0  0  0  0  0  0  0  0
  -22.2512  -20.1188   21.4424 C   0  0  0  0  0  0  0  0  0  0  0  0
  -30.6090  -20.1827   19.4268 C   0  0  0  0  0  0  0  0  0  0  0  0
  -27.8076  -25.6719   20.7668 C   0  0  0  0  0  0  0  0  0  0  0  0
  -26.9032  -27.2047   18.9392 C   0  0  0  0  0  0  0  0  0  0  0  0
  -27.2200  -12.3720   19.7952 C   0  0  0  0  0  0  0  0  0  0  0  0
  -24.5238  -19.3968   21.8591 C   0  0  0  0  0  0  0  0  0  0  0  0
  -27.0645  -13.7566   19.5925 C   0  0  0  0  0  0  0  0  0  0  0  0
  -23.1450  -19.1510   21.9257 C   0  0  0  0  0  0  0  0  0  0  0  0
  -29.3808  -23.5794   21.7310 C   0  0  0  0  0  0  0  0  0  0  0  0
  -22.7218  -21.3197   20.9120 C   0  0  0  0  0  0  0  0  0  0  0  0
  -30.1607  -21.3772   21.4784 C   0  0  0  0  0  0  0  0  0  0  0  0
  -30.1867  -18.9958   20.0256 C   0  0  0  0  0  0  0  0  0  0  0  0
  -30.5960  -21.3734   20.1532 C   0  0  0  0  0  0  0  0  0  0  0  0
  -26.9945  -26.7522   20.2692 C   0  0  0  0  0  0  0  0  0  0  0  0
  -19.1322  -26.3753   22.4079 C   0  0  0  0  0  0  0  0  0  0  0  0
  -19.4744  -29.0212   22.6142 C   0  0  0  0  0  0  0  0  0  0  0  0
  -26.0046  -28.2421   18.9904 C   0  0  0  0  0  0  0  0  0  0  0  0
  -27.5709  -26.7296   17.7627 C   0  0  0  0  0  0  0  0  0  0  0  0
  -24.8709  -16.3376   21.0688 C   0  0  0  0  0  0  0  0  0  0  0  0
  -23.2606  -15.8422   23.8407 C   0  0  0  0  0  0  0  0  0  0  0  0
  -21.1703  -30.2338   20.7053 C   0  0  0  0  0  0  0  0  0  0  0  0
  -21.1088  -17.0519   26.1973 C   0  0  0  0  0  0  0  0  0  0  0  0
  -26.0396  -11.4717   20.0614 C   0  0  0  0  0  0  0  0  0  0  0  0
  -25.5040  -18.3880   22.3920 C   0  0  0  0  0  0  0  0  0  0  0  0
  -22.5944  -17.8701   22.4955 C   0  0  0  0  0  0  0  0  0  0  0  0
  -24.7913  -12.2229   20.5171 C   0  0  0  0  0  0  0  0  0  0  0  0
  -24.0101  -30.6924   22.9305 C   0  0  0  0  0  0  0  0  0  0  0  0
  -24.5459  -13.4387   19.6291 C   0  0  0  0  0  0  0  0  0  0  0  0
  -25.0244  -29.7156   22.3370 C   0  0  0  0  0  0  0  0  0  0  0  0
  -22.5843  -30.1594   22.8164 C   0  0  0  0  0  0  0  0  0  0  0  0
  -23.1986  -28.8221   20.8266 C   0  0  0  0  0  0  0  0  0  0  0  0
  -25.7140  -14.4286   19.7140 C   0  0  1  0  0  0  0  0  0  0  0  0
  -24.9415  -16.9705   22.4297 C   0  0  1  0  0  0  0  0  0  0  0  0
  -24.6463  -29.3362   20.8945 C   0  0  2  0  0  0  0  0  0  0  0  0
  -19.9506  -16.4016   28.3263 C   0  0  0  0  0  0  0  0  0  0  0  0
  -18.2633  -24.3248   23.5525 C   0  0  0  0  0  0  0  0  0  0  0  0
  -17.9180  -24.4994   21.1046 C   0  0  0  0  0  0  0  0  0  0  0  0
  -19.1231  -31.5270   20.4071 C   0  0  0  0  0  0  0  0  0  0  0  0
  -21.0009  -32.4698   21.7559 C   0  0  0  0  0  0  0  0  0  0  0  0
  -21.2925  -14.1400   22.2473 C   0  0  0  0  0  0  0  0  0  0  0  0
  -19.6946  -14.3151   24.1667 C   0  0  0  0  0  0  0  0  0  0  0  0
  -21.9063  -13.2060   24.4845 C   0  0  0  0  0  0  0  0  0  0  0  0
  -22.4348  -19.2182   27.7165 C   0  0  0  0  0  0  0  0  0  0  0  0
  -20.9919  -24.4775   20.7290 C   0  0  0  0  0  0  0  0  0  0  0  0
  -20.2432  -24.1021   22.0136 C   0  0  0  0  0  0  0  0  0  0  0  0
  -22.2369  -23.6184   20.5425 C   0  0  0  0  0  0  0  0  0  1  0  0
  -21.8058  -15.7188   24.2246 C   0  0  1  0  0  0  0  0  0  0  0  0
  -21.1768  -17.0603   27.7138 C   0  0  2  0  0  0  0  0  0  0  0  0
  -18.8990  -24.8622   22.2455 C   0  0  0  0  0  0  0  0  0  0  0  0
  -19.6347  -30.5013   22.6843 C   0  0  0  0  0  0  0  0  0  0  0  0
  -20.2366  -31.1839   21.4119 C   0  0  0  0  0  0  0  0  0  0  0  0
  -21.1849  -14.3684   23.7682 C   0  0  0  0  0  0  0  0  0  0  0  0
  -26.2161  -27.4456   21.1043 N   0  0  0  0  0  0  0  0  0  0  0  0
  -18.5041  -27.1901   21.5340 N   0  0  0  0  0  0  0  0  0  0  0  0
  -18.6782  -28.5348   21.6387 N   0  0  0  0  0  0  0  0  0  0  0  0
  -25.6272  -28.3443   20.2970 N   0  0  0  0  0  0  0  0  0  0  0  0
  -23.5933  -16.9123   22.9981 N   0  0  0  0  0  0  0  0  0  0  0  0
  -22.2727  -29.7836   21.4321 N   0  0  0  0  0  0  0  0  0  0  0  0
  -25.5084  -29.0679   18.0447 N   0  0  0  0  0  0  0  0  0  0  0  0
  -28.4619  -25.6550   17.8881 N   0  0  0  0  0  0  0  0  0  0  0  0
  -25.6383  -15.1958   20.9387 N   0  0  0  0  0  0  0  0  0  0  0  0
  -21.7424  -15.9496   25.6637 N   0  0  0  0  0  0  0  0  0  0  0  0
  -21.2614  -18.4592   28.2207 N   0  3  0  0  0  0  0  0  0  0  0  0
  -27.3954  -27.2534   16.6365 O   0  0  0  0  0  0  0  0  0  0  0  0
  -24.1708  -16.8467   20.2013 O   0  0  0  0  0  0  0  0  0  0  0  0
  -24.0730  -15.0236   24.2783 O   0  0  0  0  0  0  0  0  0  0  0  0
  -20.9269  -29.9049   19.5413 O   0  0  0  0  0  0  0  0  0  0  0  0
  -20.5465  -17.9331   25.5508 O   0  0  0  0  0  0  0  0  0  0  0  0
  -30.1480  -22.5583   22.2012 O   0  0  0  0  0  0  0  0  0  0  0  0
  -21.8434  -22.2500   20.4485 O   0  0  0  0  0  0  0  0  0  1  0  0
  -30.2005  -17.8520   19.3285 F   0  0  0  0  0  0  0  0  0  0  0  0
  -31.0040  -22.5104   19.5730 F   0  0  0  0  0  0  0  0  0  0  0  0
  -18.4375  -31.1334   22.9469 F   0  0  0  0  0  0  0  0  0  0  0  0
  -20.4312  -30.8827   23.7440 F   0  0  0  0  0  0  0  0  0  0  0  0
  1  2  1  0  0  0  0
  1  5  2  0  0  0  0
  2  6  2  0  0  0  0
  3  8  2  0  0  0  0
  3 17  1  0  0  0  0
  4  9  1  0  0  0  0
  4 17  2  0  0  0  0
  5 19  1  0  0  0  0
  6 21  1  0  0  0  0
  7 10  2  0  0  0  0
  7 20  1  0  0  0  0
  8 23  1  0  0  0  0
  9 23  2  0  0  0  0
 10 24  1  0  0  0  0
 11 12  2  0  0  0  0
 11 25  1  0  0  0  0
 12 26  1  0  0  0  0
 13 14  2  0  0  0  0
 13 29  1  0  0  0  0
 14 30  1  0  0  0  0
 15 22  1  0  0  0  0
 15 24  2  0  0  0  0
 16 26  2  0  0  0  0
 16 27  1  0  0  0  0
 17 28  1  0  0  0  0
 18 28  1  0  0  0  0
 18 31  2  0  0  0  0
 18 32  1  0  0  0  0
 19 21  2  0  0  0  0
 19 37  1  0  0  0  0
 20 22  2  0  0  0  0
 20 38  1  0  0  0  0
 21 46  1  0  0  0  0
 22 39  1  0  0  0  0
 23 83  1  0  0  0  0
 24 84  1  0  0  0  0
 25 27  2  0  0  0  0
 25 83  1  0  0  0  0
 26 85  1  0  0  0  0
 27 86  1  0  0  0  0
 28 67  2  0  0  0  0
 29 63  1  0  0  0  0
 29 68  2  0  0  0  0
 30 64  1  0  0  0  0
 30 69  2  0  0  0  0
 31 70  1  0  0  0  0
 31 73  1  0  0  0  0
 32 74  1  0  0  0  0
 32 78  2  0  0  0  0
 33 47  1  0  0  0  0
 33 75  1  0  0  0  0
 33 79  2  0  0  0  0
 34 61  1  0  0  0  0
 34 71  1  0  0  0  0
 34 80  2  0  0  0  0
 35 65  1  0  0  0  0
 35 72  1  0  0  0  0
 35 81  2  0  0  0  0
 36 62  1  0  0  0  0
 36 76  1  0  0  0  0
 36 82  2  0  0  0  0
 37 40  1  0  0  0  0
 38 47  1  0  0  0  0
 39 71  1  0  0  0  0
 40 42  1  0  0  0  0
 41 43  1  0  0  0  0
 41 44  1  0  0  0  0
 42 46  1  0  0  0  0
 43 48  1  0  0  0  0
 44 72  1  0  0  0  0
 45 48  1  0  0  0  0
 45 72  1  0  0  0  0
 46 75  1  0  0  0  0
 47 71  1  0  0  0  0
 48 70  1  0  0  0  0
 49 62  1  0  0  0  0
 50 63  1  0  0  0  0
 51 63  1  0  0  0  0
 52 65  1  0  0  0  0
 53 65  1  0  0  0  0
 54 66  1  0  0  0  0
 55 66  1  0  0  0  0
 56 66  1  0  0  0  0
 57 77  1  0  0  0  0
 58 59  1  0  0  0  0
 58 60  1  0  0  0  0
 59 63  1  0  0  0  0
 60 84  1  0  0  0  0
 61 66  1  0  0  0  0
 61 76  1  0  0  0  0
 62 77  1  0  0  0  0
 64 65  1  0  0  0  0
 64 87  1  0  0  0  0
 64 88  1  0  0  0  0
 67 70  1  0  0  0  0
 68 69  1  0  0  0  0
M  CHG  1  77   1
M  ISO  4  35 100  60 101  65 100  84 101
M  END
> <Batch ID>
0072

> <Smiles>
CNC(C)C(=O)NC(C(=O)N1Cc2cc([101O:1][101CH2:1]CCC(C)(C)c3ccc(C(F)(F)[100C:0](C)(C)[100C:0](=O)N4CCCC(n5nc(-c6ccc(Oc7ccc(F)cc7F)cc6)c(C(N)=O)c5N)C4)nn3)ccc2CC1C(=O)NC1CCCc2ccccc21)C(C)(C)C

> <Shape>
0.220

> <Color>
0.060

> <Negative vol penalty>
0.000

$$$$

  -OEChem-04052318243D

 86 94  0     1  0  0  0  0  0999 V2000
  -18.1309  -25.6820   22.3073 C   0  0  0  0  0  0  0  0  0  0  0  0
  -19.4465  -25.3041   22.5559 C   0  0  0  0  0  0  0  0  0  0  0  0
  -26.5758  -13.1330   21.5708 C   0  0  0  0  0  0  0  0  0  0  0  0
  -25.4210  -13.9666   19.6192 C   0  0  0  0  0  0  0  0  0  0  0  0
  -17.8608  -26.9171   21.7195 C   0  0  0  0  0  0  0  0  0  0  0  0
  -20.4929  -26.1606   22.2159 C   0  0  0  0  0  0  0  0  0  0  0  0
  -25.7743  -26.8973   25.2275 C   0  0  0  0  0  0  0  0  0  0  0  0
  -25.7312  -12.0232   21.5966 C   0  0  0  0  0  0  0  0  0  0  0  0
  -24.5764  -12.8568   19.6450 C   0  0  0  0  0  0  0  0  0  0  0  0
  -27.0509  -26.3752   25.0238 C   0  0  0  0  0  0  0  0  0  0  0  0
  -23.6466   -9.1510   22.3894 C   0  0  0  0  0  0  0  0  0  0  0  0
  -23.1157   -8.7667   23.6207 C   0  0  0  0  0  0  0  0  0  0  0  0
  -27.6689  -28.3722   23.8199 C   0  0  0  0  0  0  0  0  0  0  0  0
  -22.0516  -10.9251   23.8357 C   0  0  0  0  0  0  0  0  0  0  0  0
  -28.0927  -25.5771   20.7571 C   0  0  0  0  0  0  0  0  0  0  0  0
  -26.4207  -14.1047   20.5821 C   0  0  0  0  0  0  0  0  0  0  0  0
  -28.5212  -15.3697   19.8785 C   0  0  0  0  0  0  0  0  0  0  0  0
  -18.9040  -27.7933   21.3809 C   0  0  0  0  0  0  0  0  0  0  0  0
  -25.4315  -28.1582   24.7186 C   0  0  0  0  0  0  0  0  0  0  0  0
  -20.2366  -27.4081   21.6218 C   0  0  0  0  0  0  0  0  0  0  0  0
  -26.3881  -28.9091   24.0207 C   0  0  0  0  0  0  0  0  0  0  0  0
  -29.2477  -24.8453   20.9437 C   0  0  0  0  0  0  0  0  0  0  0  0
  -24.7315  -11.8851   20.6337 C   0  0  0  0  0  0  0  0  0  0  0  0
  -27.9976  -27.1115   24.3175 C   0  0  0  0  0  0  0  0  0  0  0  0
  -23.3801  -10.4225   21.8813 C   0  0  0  0  0  0  0  0  0  0  0  0
  -22.3182   -9.6536   24.3438 C   0  0  0  0  0  0  0  0  0  0  0  0
  -22.5826  -11.3094   22.6044 C   0  0  0  0  0  0  0  0  0  0  0  0
  -27.2925  -15.2515   20.5553 C   0  0  0  0  0  0  0  0  0  0  0  0
  -29.2533  -23.5850   20.3817 C   0  0  0  0  0  0  0  0  0  0  0  0
  -28.9510  -16.6420   20.1666 C   0  0  0  0  0  0  0  0  0  0  0  0
  -27.1483  -23.8798   19.5761 C   0  0  0  0  0  0  0  0  0  0  0  0
  -29.2123  -14.4148   19.0622 C   0  0  0  0  0  0  0  0  0  0  0  0
  -23.2945  -29.2254   22.6214 C   0  0  0  0  0  0  0  0  0  0  0  0
  -24.3672  -32.1281   23.5940 C   0  0  0  0  0  0  0  0  0  0  0  0
  -26.8835  -33.9724   24.9773 C   0  0  0  0  0  0  0  0  0  0  0  0
  -26.0802  -21.6618   21.7192 C   0  0  0  0  0  0  0  0  0  0  0  0
  -18.5654  -29.0979   20.7041 C   0  0  0  0  0  0  0  0  0  0  0  0
  -24.0585  -28.7187   24.9699 C   0  0  0  0  0  0  0  0  0  0  0  0
  -26.0765  -30.2765   23.4714 C   0  0  0  0  0  0  0  0  0  0  0  0
  -19.7114  -30.1063   20.7170 C   0  0  0  0  0  0  0  0  0  0  0  0
  -28.6582  -20.0183   23.5438 C   0  0  0  0  0  0  0  0  0  0  0  0
  -21.0181  -29.4345   20.3071 C   0  0  0  0  0  0  0  0  0  0  0  0
  -28.7114  -18.6209   22.9237 C   0  0  0  0  0  0  0  0  0  0  0  0
  -27.2288  -20.5513   23.6123 C   0  0  0  0  0  0  0  0  0  0  0  0
  -26.5528  -19.1373   21.7103 C   0  0  0  0  0  0  0  0  0  0  0  0
  -21.3976  -28.3202   21.2898 C   0  0  1  0  0  0  0  0  0  0  0  0
  -23.6585  -29.7936   23.9639 C   0  0  1  0  0  0  0  0  0  0  0  0
  -27.9797  -18.5806   21.5686 C   0  0  2  0  0  0  0  0  0  0  0  0
  -30.3947  -21.5013   19.5804 C   0  0  0  0  0  0  0  0  0  0  0  0
  -27.4826  -36.3258   25.6097 C   0  0  0  0  0  0  0  0  0  0  0  0
  -26.3320  -22.3234   17.6766 C   0  0  0  0  0  0  0  0  0  0  0  0
  -25.2229  -24.5036   18.0923 C   0  0  0  0  0  0  0  0  0  0  0  0
  -24.8713  -32.7864   20.6575 C   0  0  0  0  0  0  0  0  0  0  0  0
  -26.3109  -34.6938   21.4044 C   0  0  0  0  0  0  0  0  0  0  0  0
  -23.8869  -34.6584   21.9922 C   0  0  0  0  0  0  0  0  0  0  0  0
  -27.1690  -33.2552   27.8344 C   0  0  0  0  0  0  0  0  0  0  0  0
  -30.4132  -25.4097   21.7161 C   0  0  0  0  0  0  0  0  0  0  0  0
  -30.4502  -22.7029   20.5193 C   0  0  0  0  0  0  0  0  0  0  0  0
  -30.5451  -24.8449   23.1321 C   0  0  0  0  0  0  0  0  0  0  0  0
  -24.9335  -22.6315   19.7434 C   0  0  0  0  0  0  0  0  0  0  0  0
  -29.3614  -25.1844   24.0303 C   0  0  0  0  0  0  0  0  0  1  0  0
  -25.4675  -33.0636   23.1543 C   0  0  1  0  0  0  0  0  0  0  0  0
  -26.8795  -35.0124   26.0831 C   0  0  2  0  0  0  0  0  0  0  0  0
  -25.9827  -23.3438   18.8158 C   0  0  0  0  0  0  0  0  0  0  0  0
  -25.1397  -33.7740   21.8107 C   0  0  0  0  0  0  0  0  0  0  0  0
  -27.0199  -25.1236   20.0760 N   0  0  0  0  0  0  0  0  0  0  0  0
  -26.9631  -16.3603   21.2232 N   0  0  0  0  0  0  0  0  0  0  0  0
  -28.2172  -23.0684   19.6890 N   0  0  0  0  0  0  0  0  0  0  0  0
  -27.9912  -17.1872   20.9676 N   0  0  0  0  0  0  0  0  0  0  0  0
  -24.7183  -30.7784   23.7378 N   0  0  0  0  0  0  0  0  0  0  0  0
  -26.5917  -20.4871   22.2947 N   0  0  0  0  0  0  0  0  0  0  0  0
  -30.0526  -17.3363   19.8105 N   0  0  0  0  0  0  0  0  0  0  0  0
  -28.6297  -13.1547   18.8696 N   0  0  0  0  0  0  0  0  0  0  0  0
  -21.9616  -28.8825   22.4982 N   0  0  0  0  0  0  0  0  0  0  0  0
  -25.6996  -33.9739   24.2704 N   0  0  0  0  0  0  0  0  0  0  0  0
  -25.4984  -21.5138   20.4660 N   0  0  0  0  0  0  0  0  0  0  0  0
  -27.6665  -34.5283   27.2524 N   0  3  0  0  0  0  0  0  0  0  0  0
  -30.3216  -14.6656   18.5331 O   0  0  0  0  0  0  0  0  0  0  0  0
  -24.1587  -29.1083   21.7605 O   0  0  0  0  0  0  0  0  0  0  0  0
  -23.2396  -32.5797   23.8090 O   0  0  0  0  0  0  0  0  0  0  0  0
  -27.8425  -33.2352   24.7597 O   0  0  0  0  0  0  0  0  0  0  0  0
  -26.1424  -22.7621   22.2782 O   0  0  0  0  0  0  0  0  0  0  0  0
  -23.9072  -10.8023   20.6584 O   0  0  0  0  0  0  0  0  0  0  0  0
  -29.2442  -26.6040   24.1167 O   0  0  0  0  0  0  0  0  0  1  0  0
  -21.8072   -9.2838   25.5254 F   0  0  0  0  0  0  0  0  0  0  0  0
  -22.3220  -12.5318   22.1208 F   0  0  0  0  0  0  0  0  0  0  0  0
  1  2  1  0  0  0  0
  1  5  2  0  0  0  0
  2  6  2  0  0  0  0
  3  8  2  0  0  0  0
  3 16  1  0  0  0  0
  4  9  1  0  0  0  0
  4 16  2  0  0  0  0
  5 18  1  0  0  0  0
  6 20  1  0  0  0  0
  7 10  2  0  0  0  0
  7 19  1  0  0  0  0
  8 23  1  0  0  0  0
  9 23  2  0  0  0  0
 10 24  1  0  0  0  0
 11 12  2  0  0  0  0
 11 25  1  0  0  0  0
 12 26  1  0  0  0  0
 13 21  1  0  0  0  0
 13 24  2  0  0  0  0
 14 26  2  0  0  0  0
 14 27  1  0  0  0  0
 15 22  1  0  0  0  0
 15 66  2  0  0  0  0
 16 28  1  0  0  0  0
 17 28  1  0  0  0  0
 17 30  2  0  0  0  0
 17 32  1  0  0  0  0
 18 20  2  0  0  0  0
 18 37  1  0  0  0  0
 19 21  2  0  0  0  0
 19 38  1  0  0  0  0
 20 46  1  0  0  0  0
 21 39  1  0  0  0  0
 22 29  2  0  0  0  0
 22 57  1  0  0  0  0
 23 83  1  0  0  0  0
 24 84  1  0  0  0  0
 25 27  2  0  0  0  0
 25 83  1  0  0  0  0
 26 85  1  0  0  0  0
 27 86  1  0  0  0  0
 28 67  2  0  0  0  0
 29 58  1  0  0  0  0
 29 68  1  0  0  0  0
 30 69  1  0  0  0  0
 30 72  1  0  0  0  0
 31 64  1  0  0  0  0
 31 66  1  0  0  0  0
 31 68  2  0  0  0  0
 32 73  1  0  0  0  0
 32 78  2  0  0  0  0
 33 47  1  0  0  0  0
 33 74  1  0  0  0  0
 33 79  2  0  0  0  0
 34 62  1  0  0  0  0
 34 70  1  0  0  0  0
 34 80  2  0  0  0  0
 35 63  1  0  0  0  0
 35 75  1  0  0  0  0
 35 81  2  0  0  0  0
 36 71  1  0  0  0  0
 36 76  1  0  0  0  0
 36 82  2  0  0  0  0
 37 40  1  0  0  0  0
 38 47  1  0  0  0  0
 39 70  1  0  0  0  0
 40 42  1  0  0  0  0
 41 43  1  0  0  0  0
 41 44  1  0  0  0  0
 42 46  1  0  0  0  0
 43 48  1  0  0  0  0
 44 71  1  0  0  0  0
 45 48  1  0  0  0  0
 45 71  1  0  0  0  0
 46 74  1  0  0  0  0
 47 70  1  0  0  0  0
 48 69  1  0  0  0  0
 49 58  1  0  0  0  0
 50 63  1  0  0  0  0
 51 64  1  0  0  0  0
 52 64  1  0  0  0  0
 53 65  1  0  0  0  0
 54 65  1  0  0  0  0
 55 65  1  0  0  0  0
 56 77  1  0  0  0  0
 57 59  1  0  0  0  0
 59 61  1  0  0  0  0
 60 64  1  0  0  0  0
 60 76  1  0  0  0  0
 61 84  1  0  0  0  0
 62 65  1  0  0  0  0
 62 75  1  0  0  0  0
 63 77  1  0  0  0  0
 67 69  1  0  0  0  0
M  CHG  1  77   1
M  ISO  4  36 100  61 101  76 100  84 101
M  END
> <Batch ID>
0072

> <Smiles>
CCc1nc(C(C)(C)C[100NH:0][100C:0](=O)N2CCCC(n3nc(-c4ccc(Oc5ccc(F)cc5F)cc4)c(C(N)=O)c3N)C2)ncc1CC[101CH2:1][101O:1]c1ccc2c(c1)CN(C(=O)C(NC(=O)C(C)NC)C(C)(C)C)C(C(=O)NC1CCCc3ccccc31)C2

> <Shape>
0.246

> <Color>
0.084

> <Negative vol penalty>
0.000

$$$$

  -OEChem-04052318243D

 88 96  0     1  0  0  0  0  0999 V2000
  -17.5398  -29.0368   23.2559 C   0  0  0  0  0  0  0  0  0  0  0  0
  -17.1426  -27.9611   22.4682 C   0  0  0  0  0  0  0  0  0  0  0  0
  -28.4040  -23.0211   19.8943 C   0  0  0  0  0  0  0  0  0  0  0  0
  -30.4029  -22.1247   18.8755 C   0  0  0  0  0  0  0  0  0  0  0  0
  -18.8932  -29.2452   23.5180 C   0  0  0  0  0  0  0  0  0  0  0  0
  -18.0988  -27.0937   21.9412 C   0  0  0  0  0  0  0  0  0  0  0  0
  -19.0295  -20.2112   20.1860 C   0  0  0  0  0  0  0  0  0  0  0  0
  -28.9537  -24.3021   19.8460 C   0  0  0  0  0  0  0  0  0  0  0  0
  -30.9526  -23.4057   18.8271 C   0  0  0  0  0  0  0  0  0  0  0  0
  -19.4396  -19.4188   19.1147 C   0  0  0  0  0  0  0  0  0  0  0  0
  -31.2016  -26.1152   21.6020 C   0  0  0  0  0  0  0  0  0  0  0  0
  -31.0844  -26.9133   22.7399 C   0  0  0  0  0  0  0  0  0  0  0  0
  -21.7434  -19.8312   19.6995 C   0  0  0  0  0  0  0  0  0  0  0  0
  -29.8602  -28.5573   21.4609 C   0  0  0  0  0  0  0  0  0  0  0  0
  -24.0887  -13.0002   21.2753 C   0  0  0  0  0  0  0  0  0  0  0  0
  -29.1285  -21.9323   19.4091 C   0  0  0  0  0  0  0  0  0  0  0  0
  -27.7774  -19.9818   18.4723 C   0  0  0  0  0  0  0  0  0  0  0  0
  -19.8658  -28.3743   23.0019 C   0  0  0  0  0  0  0  0  0  0  0  0
  -19.9749  -20.8294   21.0170 C   0  0  0  0  0  0  0  0  0  0  0  0
  -19.4666  -27.2914   22.1955 C   0  0  0  0  0  0  0  0  0  0  0  0
  -21.3426  -20.6289   20.7822 C   0  0  0  0  0  0  0  0  0  0  0  0
  -30.2281  -24.4944   19.3124 C   0  0  0  0  0  0  0  0  0  0  0  0
  -20.7968  -19.2311   18.8696 C   0  0  0  0  0  0  0  0  0  0  0  0
  -30.6482  -26.5382   20.3935 C   0  0  0  0  0  0  0  0  0  0  0  0
  -30.4137  -28.1343   22.6694 C   0  0  0  0  0  0  0  0  0  0  0  0
  -29.9775  -27.7592   20.3229 C   0  0  0  0  0  0  0  0  0  0  0  0
  -28.5614  -20.6087   19.4593 C   0  0  0  0  0  0  0  0  0  0  0  0
  -24.6959  -11.7614   21.3065 C   0  0  0  0  0  0  0  0  0  0  0  0
  -24.6915  -13.9403   20.4646 C   0  0  0  0  0  0  0  0  0  0  0  0
  -27.4907  -18.7449   18.9960 C   0  0  0  0  0  0  0  0  0  0  0  0
  -26.2986  -12.4544   19.8511 C   0  0  0  0  0  0  0  0  0  0  0  0
  -27.3470  -20.4736   17.1961 C   0  0  0  0  0  0  0  0  0  0  0  0
  -20.7011  -23.8391   21.7368 C   0  0  0  0  0  0  0  0  0  0  0  0
  -22.7081  -22.4359   23.8642 C   0  0  0  0  0  0  0  0  0  0  0  0
  -24.5247  -19.6878   24.7554 C   0  0  0  0  0  0  0  0  0  0  0  0
  -29.0708  -14.1023   21.6596 C   0  0  0  0  0  0  0  0  0  0  0  0
  -21.3201  -28.6675   23.2734 C   0  0  0  0  0  0  0  0  0  0  0  0
  -19.5160  -21.6594   22.1845 C   0  0  0  0  0  0  0  0  0  0  0  0
  -22.3974  -21.2540   21.6569 C   0  0  0  0  0  0  0  0  0  0  0  0
  -22.2434  -27.4861   22.9869 C   0  0  0  0  0  0  0  0  0  0  0  0
  -28.1684  -16.9064   23.6594 C   0  0  0  0  0  0  0  0  0  0  0  0
  -21.9055  -26.8593   21.6379 C   0  0  0  0  0  0  0  0  0  0  0  0
  -28.1317  -18.0682   22.6650 C   0  0  0  0  0  0  0  0  0  0  0  0
  -29.2851  -15.9178   23.3313 C   0  0  0  0  0  0  0  0  0  0  0  0
  -29.2348  -16.5664   20.9542 C   0  0  0  0  0  0  0  0  0  0  0  0
  -20.4722  -26.3142   21.6264 C   0  0  1  0  0  0  0  0  0  0  0  0
  -20.5674  -22.6588   22.6570 C   0  0  1  0  0  0  0  0  0  0  0  0
  -28.0895  -17.5607   21.2110 C   0  0  2  0  0  0  0  0  0  0  0  0
  -24.1159  -10.6794   22.1545 C   0  0  0  0  0  0  0  0  0  0  0  0
  -26.0947  -18.8538   26.5266 C   0  0  0  0  0  0  0  0  0  0  0  0
  -27.6724  -12.9486   17.7145 C   0  0  0  0  0  0  0  0  0  0  0  0
  -27.5386  -10.6464   18.6300 C   0  0  0  0  0  0  0  0  0  0  0  0
  -24.9571  -24.1046   22.6529 C   0  0  0  0  0  0  0  0  0  0  0  0
  -26.5972  -22.5760   23.7673 C   0  0  0  0  0  0  0  0  0  0  0  0
  -25.0172  -23.9263   25.1467 C   0  0  0  0  0  0  0  0  0  0  0  0
  -20.0483  -16.4926   18.5544 C   0  0  0  0  0  0  0  0  0  0  0  0
  -21.7899  -16.4093   16.7585 C   0  0  0  0  0  0  0  0  0  0  0  0
  -22.6835  -17.5010   25.5214 C   0  0  0  0  0  0  0  0  0  0  0  0
  -24.0994  -15.3234   20.3639 C   0  0  0  0  0  0  0  0  0  0  0  0
  -23.0589  -15.4726   19.2462 C   0  0  0  0  0  0  0  0  0  0  0  0
  -22.4555  -16.8842   19.1777 C   0  0  0  0  0  0  0  0  0  0  0  0
  -28.8459  -12.3985   19.8692 C   0  0  0  0  0  0  0  0  0  0  0  0
  -24.1390  -21.9562   23.8280 C   0  0  1  0  0  0  0  0  0  0  0  0
  -24.6458  -18.9444   26.0735 C   0  0  2  0  0  0  0  0  0  0  0  0
  -27.5239  -12.1508   19.0571 C   0  0  0  0  0  0  0  0  0  0  0  0
  -25.1580  -23.1304   23.8309 C   0  0  0  0  0  0  0  0  0  0  0  0
  -21.3869  -17.0671   18.0790 C   0  0  0  0  0  0  0  0  0  1  0  0
  -28.7599  -19.8341   20.5291 N   0  0  0  0  0  0  0  0  0  0  0  0
  -25.8059  -11.4528   20.6044 N   0  0  0  0  0  0  0  0  0  0  0  0
  -25.8015  -13.7007   19.7361 N   0  0  0  0  0  0  0  0  0  0  0  0
  -28.0965  -18.7077   20.2174 N   0  0  0  0  0  0  0  0  0  0  0  0
  -21.8987  -22.0620   22.7821 N   0  0  0  0  0  0  0  0  0  0  0  0
  -29.1870  -15.4740   21.9387 N   0  0  0  0  0  0  0  0  0  0  0  0
  -26.7820  -17.6963   18.5263 N   0  0  0  0  0  0  0  0  0  0  0  0
  -27.7310  -21.7662   16.8141 N   0  0  0  0  0  0  0  0  0  0  0  0
  -20.4060  -25.0515   22.3304 N   0  0  0  0  0  0  0  0  0  0  0  0
  -24.2883  -21.0326   24.9474 N   0  0  0  0  0  0  0  0  0  0  0  0
  -28.9767  -13.7680   20.3142 N   0  0  0  0  0  0  0  0  0  0  0  0
  -24.1079  -17.5611   25.9392 N   0  3  0  0  0  0  0  0  0  0  0  0
  -26.6290  -19.7932   16.4247 O   0  0  0  0  0  0  0  0  0  0  0  0
  -21.0479  -23.6630   20.5747 O   0  0  0  0  0  0  0  0  0  0  0  0
  -22.3208  -23.1115   24.8209 O   0  0  0  0  0  0  0  0  0  0  0  0
  -24.6330  -19.1318   23.6647 O   0  0  0  0  0  0  0  0  0  0  0  0
  -29.0470  -13.2398   22.5442 O   0  0  0  0  0  0  0  0  0  0  0  0
  -30.7647  -25.7443   19.2648 O   0  0  0  0  0  0  0  0  0  0  0  0
  -21.1998  -18.4587   17.8242 O   0  0  0  0  0  0  0  0  0  1  0  0
  -30.2999  -28.8999   23.7626 F   0  0  0  0  0  0  0  0  0  0  0  0
  -29.4427  -28.1702   19.1650 F   0  0  0  0  0  0  0  0  0  0  0  0
  1  2  1  0  0  0  0
  1  5  2  0  0  0  0
  2  6  2  0  0  0  0
  3  8  2  0  0  0  0
  3 16  1  0  0  0  0
  4  9  1  0  0  0  0
  4 16  2  0  0  0  0
  5 18  1  0  0  0  0
  6 20  1  0  0  0  0
  7 10  2  0  0  0  0
  7 19  1  0  0  0  0
  8 22  1  0  0  0  0
  9 22  2  0  0  0  0
 10 23  1  0  0  0  0
 11 12  2  0  0  0  0
 11 24  1  0  0  0  0
 12 25  1  0  0  0  0
 13 21  1  0  0  0  0
 13 23  2  0  0  0  0
 14 25  2  0  0  0  0
 14 26  1  0  0  0  0
 15 28  2  0  0  0  0
 15 29  1  0  0  0  0
 16 27  1  0  0  0  0
 17 27  1  0  0  0  0
 17 30  2  0  0  0  0
 17 32  1  0  0  0  0
 18 20  2  0  0  0  0
 18 37  1  0  0  0  0
 19 21  2  0  0  0  0
 19 38  1  0  0  0  0
 20 46  1  0  0  0  0
 21 39  1  0  0  0  0
 22 85  1  0  0  0  0
 23 86  1  0  0  0  0
 24 26  2  0  0  0  0
 24 85  1  0  0  0  0
 25 87  1  0  0  0  0
 26 88  1  0  0  0  0
 27 68  2  0  0  0  0
 28 49  1  0  0  0  0
 28 69  1  0  0  0  0
 29 59  1  0  0  0  0
 29 70  2  0  0  0  0
 30 71  1  0  0  0  0
 30 74  1  0  0  0  0
 31 65  1  0  0  0  0
 31 69  2  0  0  0  0
 31 70  1  0  0  0  0
 32 75  1  0  0  0  0
 32 80  2  0  0  0  0
 33 47  1  0  0  0  0
 33 76  1  0  0  0  0
 33 81  2  0  0  0  0
 34 63  1  0  0  0  0
 34 72  1  0  0  0  0
 34 82  2  0  0  0  0
 35 64  1  0  0  0  0
 35 77  1  0  0  0  0
 35 83  2  0  0  0  0
 36 73  1  0  0  0  0
 36 78  1  0  0  0  0
 36 84  2  0  0  0  0
 37 40  1  0  0  0  0
 38 47  1  0  0  0  0
 39 72  1  0  0  0  0
 40 42  1  0  0  0  0
 41 43  1  0  0  0  0
 41 44  1  0  0  0  0
 42 46  1  0  0  0  0
 43 48  1  0  0  0  0
 44 73  1  0  0  0  0
 45 48  1  0  0  0  0
 45 73  1  0  0  0  0
 46 76  1  0  0  0  0
 47 72  1  0  0  0  0
 48 71  1  0  0  0  0
 50 64  1  0  0  0  0
 51 65  1  0  0  0  0
 52 65  1  0  0  0  0
 53 66  1  0  0  0  0
 54 66  1  0  0  0  0
 55 66  1  0  0  0  0
 56 67  1  0  0  0  0
 57 67  1  0  0  0  0
 58 79  1  0  0  0  0
 59 60  1  0  0  0  0
 60 61  1  0  0  0  0
 61 67  1  0  0  0  0
 62 65  1  0  0  0  0
 62 78  1  0  0  0  0
 63 66  1  0  0  0  0
 63 77  1  0  0  0  0
 64 79  1  0  0  0  0
 67 86  1  0  0  0  0
 68 71  1  0  0  0  0
M  CHG  1  79   1
M  ISO  4  36 100  67 101  78 100  86 101
M  END
> <Batch ID>
0072

> <Smiles>
CNC(C)C(=O)NC(C(=O)N1Cc2cc([101O:1][101C:1](C)(C)CCCc3cc(C)nc(C(C)(C)C[100NH:0][100C:0](=O)N4CCCC(n5nc(-c6ccc(Oc7ccc(F)cc7F)cc6)c(C(N)=O)c5N)C4)n3)ccc2CC1C(=O)NC1CCCc2ccccc21)C(C)(C)C

> <Shape>
0.235

> <Color>
0.068

> <Negative vol penalty>
0.000

$$$$

  -OEChem-04052318243D

 86 94  0     1  0  0  0  0  0999 V2000
  -18.0029  -28.4426   22.8985 C   0  0  0  0  0  0  0  0  0  0  0  0
  -19.1942  -28.5365   23.6109 C   0  0  0  0  0  0  0  0  0  0  0  0
  -26.8253  -14.0512   22.1156 C   0  0  0  0  0  0  0  0  0  0  0  0
  -26.3016  -14.1202   19.7581 C   0  0  0  0  0  0  0  0  0  0  0  0
  -17.8947  -27.5426   21.8391 C   0  0  0  0  0  0  0  0  0  0  0  0
  -20.2776  -27.7297   23.2649 C   0  0  0  0  0  0  0  0  0  0  0  0
  -27.4391  -27.7692   23.0988 C   0  0  0  0  0  0  0  0  0  0  0  0
  -25.9329  -12.9923   22.2829 C   0  0  0  0  0  0  0  0  0  0  0  0
  -25.4093  -13.0612   19.9253 C   0  0  0  0  0  0  0  0  0  0  0  0
  -28.5306  -27.0140   23.5257 C   0  0  0  0  0  0  0  0  0  0  0  0
  -22.7258  -10.6134   19.7962 C   0  0  0  0  0  0  0  0  0  0  0  0
  -21.4785  -10.7131   19.1798 C   0  0  0  0  0  0  0  0  0  0  0  0
  -28.2543  -25.5522   21.6268 C   0  0  0  0  0  0  0  0  0  0  0  0
  -21.0104  -12.7137   20.4508 C   0  0  0  0  0  0  0  0  0  0  0  0
  -31.6099  -23.4640   21.3424 C   0  0  0  0  0  0  0  0  0  0  0  0
  -27.0096  -14.6152   20.8532 C   0  0  0  0  0  0  0  0  0  0  0  0
  -29.3021  -15.6257   20.3727 C   0  0  0  0  0  0  0  0  0  0  0  0
  -18.9805  -26.7313   21.4738 C   0  0  0  0  0  0  0  0  0  0  0  0
  -26.7392  -27.4145   21.9366 C   0  0  0  0  0  0  0  0  0  0  0  0
  -20.1834  -26.8172   22.2005 C   0  0  0  0  0  0  0  0  0  0  0  0
  -27.1559  -26.3060   21.1858 C   0  0  0  0  0  0  0  0  0  0  0  0
  -31.5206  -24.8396   21.4065 C   0  0  0  0  0  0  0  0  0  0  0  0
  -25.2249  -12.4973   21.1877 C   0  0  0  0  0  0  0  0  0  0  0  0
  -28.9365  -25.9036   22.7913 C   0  0  0  0  0  0  0  0  0  0  0  0
  -23.1153  -11.5638   20.7400 C   0  0  0  0  0  0  0  0  0  0  0  0
  -20.6208  -11.7633   19.5070 C   0  0  0  0  0  0  0  0  0  0  0  0
  -22.2576  -12.6140   21.0672 C   0  0  0  0  0  0  0  0  0  0  0  0
  -27.9308  -15.7094   20.6799 C   0  0  0  0  0  0  0  0  0  0  0  0
  -31.6587  -25.5035   20.2047 C   0  0  0  0  0  0  0  0  0  0  0  0
  -29.7219  -16.9323   20.3169 C   0  0  0  0  0  0  0  0  0  0  0  0
  -31.9356  -23.5396   19.0940 C   0  0  0  0  0  0  0  0  0  0  0  0
  -30.1230  -14.4702   20.1570 C   0  0  0  0  0  0  0  0  0  0  0  0
  -23.7548  -26.5254   21.2989 C   0  0  0  0  0  0  0  0  0  0  0  0
  -24.7704  -26.7103   18.2237 C   0  0  0  0  0  0  0  0  0  0  0  0
  -27.3786  -26.6305   16.0242 C   0  0  0  0  0  0  0  0  0  0  0  0
  -28.9803  -22.2166   18.6825 C   0  0  0  0  0  0  0  0  0  0  0  0
  -18.8007  -25.7398   20.3516 C   0  0  0  0  0  0  0  0  0  0  0  0
  -25.5804  -28.2551   21.4749 C   0  0  0  0  0  0  0  0  0  0  0  0
  -26.4507  -25.8952   19.9200 C   0  0  0  0  0  0  0  0  0  0  0  0
  -20.1168  -25.1880   19.8097 C   0  0  0  0  0  0  0  0  0  0  0  0
  -27.3894  -21.2017   21.7017 C   0  0  0  0  0  0  0  0  0  0  0  0
  -21.0346  -24.7747   20.9557 C   0  0  0  0  0  0  0  0  0  0  0  0
  -27.4961  -19.6759   21.6764 C   0  0  0  0  0  0  0  0  0  0  0  0
  -27.1611  -21.7747   20.3047 C   0  0  0  0  0  0  0  0  0  0  0  0
  -28.2526  -19.8239   19.2671 C   0  0  0  0  0  0  0  0  0  0  0  0
  -21.3890  -25.9766   21.8397 C   0  0  1  0  0  0  0  0  0  0  0  0
  -24.6236  -27.5011   20.5566 C   0  0  1  0  0  0  0  0  0  0  0  0
  -28.5389  -19.2038   20.6455 C   0  0  2  0  0  0  0  0  0  0  0  0
  -31.4370  -27.5160   18.7258 C   0  0  0  0  0  0  0  0  0  0  0  0
  -33.7411  -25.6915   23.4106 C   0  0  0  0  0  0  0  0  0  0  0  0
  -27.8924  -26.7717   13.5719 C   0  0  0  0  0  0  0  0  0  0  0  0
  -32.9430  -21.4605   17.9283 C   0  0  0  0  0  0  0  0  0  0  0  0
  -33.0307  -23.6889   16.8410 C   0  0  0  0  0  0  0  0  0  0  0  0
  -23.7629  -23.8545   17.8507 C   0  0  0  0  0  0  0  0  0  0  0  0
  -25.1241  -23.7223   15.7536 C   0  0  0  0  0  0  0  0  0  0  0  0
  -23.2780  -25.3900   15.9372 C   0  0  0  0  0  0  0  0  0  0  0  0
  -29.0485  -29.0457   16.3948 C   0  0  0  0  0  0  0  0  0  0  0  0
  -31.5795  -26.9936   20.1523 C   0  0  0  0  0  0  0  0  0  0  0  0
  -32.3413  -25.2327   23.7911 C   0  0  0  0  0  0  0  0  0  0  0  0
  -30.8279  -22.4980   17.0496 C   0  0  0  0  0  0  0  0  0  0  0  0
  -31.2869  -25.5481   22.7205 C   0  0  2  0  0  0  0  0  0  1  0  0
  -25.4090  -25.7504   17.2491 C   0  0  1  0  0  0  0  0  0  0  0  0
  -27.7540  -27.5464   14.8732 C   0  0  2  0  0  0  0  0  0  0  0  0
  -32.1654  -22.8177   17.8095 C   0  0  0  0  0  0  0  0  0  0  0  0
  -24.4058  -24.6856   16.7225 C   0  0  0  0  0  0  0  0  0  0  0  0
  -31.8176  -22.7788   20.1989 N   0  0  0  0  0  0  0  0  0  0  0  0
  -27.5077  -16.9696   20.8103 N   0  0  0  0  0  0  0  0  0  0  0  0
  -31.8681  -24.8828   19.0251 N   0  0  0  0  0  0  0  0  0  0  0  0
  -28.6195  -17.6897   20.5840 N   0  0  0  0  0  0  0  0  0  0  0  0
  -25.3195  -26.7452   19.5133 N   0  0  0  0  0  0  0  0  0  0  0  0
  -28.1846  -21.2896   19.3757 N   0  0  0  0  0  0  0  0  0  0  0  0
  -30.9227  -17.4957   20.0659 N   0  0  0  0  0  0  0  0  0  0  0  0
  -29.5315  -13.2031   20.2521 N   0  0  0  0  0  0  0  0  0  0  0  0
  -22.4021  -26.7908   21.2032 N   0  0  0  0  0  0  0  0  0  0  0  0
  -26.0129  -26.5706   16.2046 N   0  0  0  0  0  0  0  0  0  0  0  0
  -29.9304  -21.6727   17.8268 N   0  0  0  0  0  0  0  0  0  0  0  0
  -29.0492  -28.2277   15.1546 N   0  3  0  0  0  0  0  0  0  0  0  0
  -31.3485  -14.5581   19.9041 O   0  0  0  0  0  0  0  0  0  0  0  0
  -24.2732  -25.5995   21.9117 O   0  0  0  0  0  0  0  0  0  0  0  0
  -23.8239  -27.4088   17.8522 O   0  0  0  0  0  0  0  0  0  0  0  0
  -28.2131  -26.0257   16.6936 O   0  0  0  0  0  0  0  0  0  0  0  0
  -28.8570  -23.4384   18.8203 O   0  0  0  0  0  0  0  0  0  0  0  0
  -24.3543  -11.4638   21.3505 O   0  0  0  0  0  0  0  0  0  0  0  0
  -30.0011  -25.1644   23.2061 O   0  0  0  0  0  0  0  0  0  1  0  0
  -19.4237  -11.8598   18.9139 F   0  0  0  0  0  0  0  0  0  0  0  0
  -22.6268  -13.5307   21.9722 F   0  0  0  0  0  0  0  0  0  0  0  0
  1  2  1  0  0  0  0
  1  5  2  0  0  0  0
  2  6  2  0  0  0  0
  3  8  2  0  0  0  0
  3 16  1  0  0  0  0
  4  9  1  0  0  0  0
  4 16  2  0  0  0  0
  5 18  1  0  0  0  0
  6 20  1  0  0  0  0
  7 10  2  0  0  0  0
  7 19  1  0  0  0  0
  8 23  1  0  0  0  0
  9 23  2  0  0  0  0
 10 24  1  0  0  0  0
 11 12  2  0  0  0  0
 11 25  1  0  0  0  0
 12 26  1  0  0  0  0
 13 21  1  0  0  0  0
 13 24  2  0  0  0  0
 14 26  2  0  0  0  0
 14 27  1  0  0  0  0
 15 22  1  0  0  0  0
 15 66  2  0  0  0  0
 16 28  1  0  0  0  0
 17 28  1  0  0  0  0
 17 30  2  0  0  0  0
 17 32  1  0  0  0  0
 18 20  2  0  0  0  0
 18 37  1  0  0  0  0
 19 21  2  0  0  0  0
 19 38  1  0  0  0  0
 20 46  1  0  0  0  0
 21 39  1  0  0  0  0
 22 29  2  0  0  0  0
 22 61  1  0  0  0  0
 23 83  1  0  0  0  0
 24 84  1  0  0  0  0
 25 27  2  0  0  0  0
 25 83  1  0  0  0  0
 26 85  1  0  0  0  0
 27 86  1  0  0  0  0
 28 67  2  0  0  0  0
 29 58  1  0  0  0  0
 29 68  1  0  0  0  0
 30 69  1  0  0  0  0
 30 72  1  0  0  0  0
 31 64  1  0  0  0  0
 31 66  1  0  0  0  0
 31 68  2  0  0  0  0
 32 73  1  0  0  0  0
 32 78  2  0  0  0  0
 33 47  1  0  0  0  0
 33 74  1  0  0  0  0
 33 79  2  0  0  0  0
 34 62  1  0  0  0  0
 34 70  1  0  0  0  0
 34 80  2  0  0  0  0
 35 63  1  0  0  0  0
 35 75  1  0  0  0  0
 35 81  2  0  0  0  0
 36 71  1  0  0  0  0
 36 76  1  0  0  0  0
 36 82  2  0  0  0  0
 37 40  1  0  0  0  0
 38 47  1  0  0  0  0
 39 70  1  0  0  0  0
 40 42  1  0  0  0  0
 41 43  1  0  0  0  0
 41 44  1  0  0  0  0
 42 46  1  0  0  0  0
 43 48  1  0  0  0  0
 44 71  1  0  0  0  0
 45 48  1  0  0  0  0
 45 71  1  0  0  0  0
 46 74  1  0  0  0  0
 47 70  1  0  0  0  0
 48 69  1  0  0  0  0
 49 58  1  0  0  0  0
 50 59  1  0  0  0  0
 51 63  1  0  0  0  0
 52 64  1  0  0  0  0
 53 64  1  0  0  0  0
 54 65  1  0  0  0  0
 55 65  1  0  0  0  0
 56 65  1  0  0  0  0
 57 77  1  0  0  0  0
 59 61  1  0  0  0  0
 60 64  1  0  0  0  0
 60 76  1  0  0  0  0
 61 84  1  0  0  0  0
 62 65  1  0  0  0  0
 62 75  1  0  0  0  0
 63 77  1  0  0  0  0
 67 69  1  0  0  0  0
M  CHG  1  77   1
M  ISO  4  36 100  61 101  76 100  84 101
M  END
> <Batch ID>
0072

> <Smiles>
CCc1nc(C(C)(C)C[100NH:0][100C:0](=O)N2CCCC(n3nc(-c4ccc(Oc5ccc(F)cc5F)cc4)c(C(N)=O)c3N)C2)ncc1[101CH:1](CC)[101O:1]c1ccc2c(c1)CN(C(=O)C(NC(=O)C(C)NC)C(C)(C)C)C(C(=O)NC1CCCc3ccccc31)C2

> <Shape>
0.234

> <Color>
0.069

> <Negative vol penalty>
0.000

$$$$

  -OEChem-04052318243D

 87 95  0     1  0  0  0  0  0999 V2000
  -37.2826  -27.9333   18.1236 C   0  0  0  0  0  0  0  0  0  0  0  0
  -36.6465  -26.6963   18.0979 C   0  0  0  0  0  0  0  0  0  0  0  0
  -23.1086   -9.8507   19.9503 C   0  0  0  0  0  0  0  0  0  0  0  0
  -23.6452   -9.9755   22.3026 C   0  0  0  0  0  0  0  0  0  0  0  0
  -38.3265  -28.1607   19.0194 C   0  0  0  0  0  0  0  0  0  0  0  0
  -37.0548  -25.6855   18.9675 C   0  0  0  0  0  0  0  0  0  0  0  0
  -33.1532  -23.3168   21.1611 C   0  0  0  0  0  0  0  0  0  0  0  0
  -22.3398   -8.7110   20.1861 C   0  0  0  0  0  0  0  0  0  0  0  0
  -22.8763   -8.8358   22.5385 C   0  0  0  0  0  0  0  0  0  0  0  0
  -32.4698  -22.3727   20.3960 C   0  0  0  0  0  0  0  0  0  0  0  0
  -23.2067   -5.4900   22.1814 C   0  0  0  0  0  0  0  0  0  0  0  0
  -23.7466   -4.5034   23.0063 C   0  0  0  0  0  0  0  0  0  0  0  0
  -32.5786  -14.8888   23.1974 C   0  0  0  0  0  0  0  0  0  0  0  0
  -33.6853  -20.6062   21.5010 C   0  0  0  0  0  0  0  0  0  0  0  0
  -21.8901   -4.7620   24.5307 C   0  0  0  0  0  0  0  0  0  0  0  0
  -31.7926  -15.7151   23.9743 C   0  0  0  0  0  0  0  0  0  0  0  0
  -23.7613  -10.4830   21.0085 C   0  0  0  0  0  0  0  0  0  0  0  0
  -24.1227  -12.9991   20.7934 C   0  0  0  0  0  0  0  0  0  0  0  0
  -38.7413  -27.1553   19.9070 C   0  0  0  0  0  0  0  0  0  0  0  0
  -34.1173  -22.9126   22.0957 C   0  0  0  0  0  0  0  0  0  0  0  0
  -38.1061  -25.8992   19.8751 C   0  0  0  0  0  0  0  0  0  0  0  0
  -34.3777  -21.5470   22.2785 C   0  0  0  0  0  0  0  0  0  0  0  0
  -22.2236   -8.2036   21.4802 C   0  0  0  0  0  0  0  0  0  0  0  0
  -32.7378  -21.0173   20.5638 C   0  0  0  0  0  0  0  0  0  0  0  0
  -22.0085   -6.1128   22.5311 C   0  0  0  0  0  0  0  0  0  0  0  0
  -23.0884   -4.1393   24.1810 C   0  0  0  0  0  0  0  0  0  0  0  0
  -21.3502   -5.7487   23.7058 C   0  0  0  0  0  0  0  0  0  0  0  0
  -24.5561  -11.6600   20.7654 C   0  0  0  0  0  0  0  0  0  0  0  0
  -32.0738  -14.5849   21.9495 C   0  0  0  0  0  0  0  0  0  0  0  0
  -25.2475  -13.7302   20.4989 C   0  0  0  0  0  0  0  0  0  0  0  0
  -30.2209  -15.8433   22.3371 C   0  0  0  0  0  0  0  0  0  0  0  0
  -22.8199  -13.5342   21.0618 C   0  0  0  0  0  0  0  0  0  0  0  0
  -37.2394  -23.3937   22.4488 C   0  0  0  0  0  0  0  0  0  0  0  0
  -36.7684  -21.8284   25.2507 C   0  0  0  0  0  0  0  0  0  0  0  0
  -30.9847  -12.0311   21.5453 C   0  0  0  0  0  0  0  0  0  0  0  0
  -34.8791  -19.6410   27.0653 C   0  0  0  0  0  0  0  0  0  0  0  0
  -39.9057  -27.4323   20.8248 C   0  0  0  0  0  0  0  0  0  0  0  0
  -34.8266  -23.9420   22.9322 C   0  0  0  0  0  0  0  0  0  0  0  0
  -35.3888  -21.0600   23.2830 C   0  0  0  0  0  0  0  0  0  0  0  0
  -40.0294  -26.4316   21.9709 C   0  0  0  0  0  0  0  0  0  0  0  0
  -29.5639  -12.8559   18.2686 C   0  0  0  0  0  0  0  0  0  0  0  0
  -39.8837  -25.0047   21.4517 C   0  0  0  0  0  0  0  0  0  0  0  0
  -28.1204  -12.4921   18.6317 C   0  0  0  0  0  0  0  0  0  0  0  0
  -30.3941  -13.3448   19.4549 C   0  0  0  0  0  0  0  0  0  0  0  0
  -28.6483  -12.6355   21.0880 C   0  0  0  0  0  0  0  0  0  0  0  0
  -38.5038  -24.7858   20.8197 C   0  0  1  0  0  0  0  0  0  0  0  0
  -36.1570  -23.4453   23.4897 C   0  0  1  0  0  0  0  0  0  0  0  0
  -27.6973  -13.1053   19.9739 C   0  0  2  0  0  0  0  0  0  0  0  0
  -34.7657  -18.5298   29.3125 C   0  0  0  0  0  0  0  0  0  0  0  0
  -34.4125  -13.8149   21.2648 C   0  0  0  0  0  0  0  0  0  0  0  0
  -32.7097  -14.1474   19.5288 C   0  0  0  0  0  0  0  0  0  0  0  0
  -33.2341  -11.4033   22.2571 C   0  0  0  0  0  0  0  0  0  0  0  0
  -32.5899  -11.3198   19.8575 C   0  0  0  0  0  0  0  0  0  0  0  0
  -39.0074  -19.9286   24.4214 C   0  0  0  0  0  0  0  0  0  0  0  0
  -38.2176  -18.3387   26.1868 C   0  0  0  0  0  0  0  0  0  0  0  0
  -39.0484  -20.6012   26.8298 C   0  0  0  0  0  0  0  0  0  0  0  0
  -32.2600  -20.8776   27.6738 C   0  0  0  0  0  0  0  0  0  0  0  0
  -28.8963  -16.3785   21.8542 C   0  0  0  0  0  0  0  0  0  0  0  0
  -28.9856  -17.1557   20.5360 C   0  0  0  0  0  0  0  0  0  0  0  0
  -29.8446  -18.4197   20.6423 C   0  0  0  0  0  0  0  0  0  0  0  0
  -29.9305  -19.1447   19.3004 C   0  0  0  0  0  0  0  0  0  0  0  0
  -30.7474  -20.4248   19.4049 C   0  0  0  0  0  0  0  0  0  1  0  0
  -36.8036  -20.3837   25.6872 C   0  0  1  0  0  0  0  0  0  0  0  0
  -34.3229  -19.7199   28.4756 C   0  0  2  0  0  0  0  0  0  0  0  0
  -32.8528  -13.6976   21.0378 C   0  0  0  0  0  0  0  0  0  0  0  0
  -32.4374  -12.1384   21.1577 C   0  0  0  0  0  0  0  0  0  0  0  0
  -38.2516  -19.8220   25.7609 C   0  0  0  0  0  0  0  0  0  0  0  0
  -30.6039  -16.2124   23.5742 N   0  0  0  0  0  0  0  0  0  0  0  0
  -25.8548  -11.5443   20.4758 N   0  0  0  0  0  0  0  0  0  0  0  0
  -30.8940  -15.0463   21.4854 N   0  0  0  0  0  0  0  0  0  0  0  0
  -26.2472  -12.8201   20.3191 N   0  0  0  0  0  0  0  0  0  0  0  0
  -36.0607  -22.1054   24.0724 N   0  0  0  0  0  0  0  0  0  0  0  0
  -30.0592  -12.6281   20.6877 N   0  0  0  0  0  0  0  0  0  0  0  0
  -25.4690  -15.0565   20.3788 N   0  0  0  0  0  0  0  0  0  0  0  0
  -21.7768  -12.6423   21.3463 N   0  0  0  0  0  0  0  0  0  0  0  0
  -37.4996  -24.6100   21.8468 N   0  0  0  0  0  0  0  0  0  0  0  0
  -36.0733  -20.3205   26.9486 N   0  0  0  0  0  0  0  0  0  0  0  0
  -32.8331  -19.7440   28.4443 N   0  3  0  0  0  0  0  0  0  0  0  0
  -22.5839  -14.7659   21.0335 O   0  0  0  0  0  0  0  0  0  0  0  0
  -37.7982  -22.3294   22.2106 O   0  0  0  0  0  0  0  0  0  0  0  0
  -37.3415  -22.6807   25.9339 O   0  0  0  0  0  0  0  0  0  0  0  0
  -30.6747  -11.4326   22.5790 O   0  0  0  0  0  0  0  0  0  0  0  0
  -34.3129  -19.0341   26.1589 O   0  0  0  0  0  0  0  0  0  0  0  0
  -21.4733   -7.0916   21.7107 O   0  0  0  0  0  0  0  0  0  0  0  0
  -32.0727  -20.0938   19.8178 O   0  0  0  0  0  0  0  0  0  1  0  0
  -23.6062   -3.1907   24.9723 F   0  0  0  0  0  0  0  0  0  0  0  0
  -20.1982   -6.3426   24.0464 F   0  0  0  0  0  0  0  0  0  0  0  0
  1  2  1  0  0  0  0
  1  5  2  0  0  0  0
  2  6  2  0  0  0  0
  3  8  2  0  0  0  0
  3 17  1  0  0  0  0
  4  9  1  0  0  0  0
  4 17  2  0  0  0  0
  5 19  1  0  0  0  0
  6 21  1  0  0  0  0
  7 10  2  0  0  0  0
  7 20  1  0  0  0  0
  8 23  1  0  0  0  0
  9 23  2  0  0  0  0
 10 24  1  0  0  0  0
 11 12  2  0  0  0  0
 11 25  1  0  0  0  0
 12 26  1  0  0  0  0
 13 16  1  0  0  0  0
 13 29  2  0  0  0  0
 14 22  1  0  0  0  0
 14 24  2  0  0  0  0
 15 26  2  0  0  0  0
 15 27  1  0  0  0  0
 16 68  2  0  0  0  0
 17 28  1  0  0  0  0
 18 28  1  0  0  0  0
 18 30  2  0  0  0  0
 18 32  1  0  0  0  0
 19 21  2  0  0  0  0
 19 37  1  0  0  0  0
 20 22  2  0  0  0  0
 20 38  1  0  0  0  0
 21 46  1  0  0  0  0
 22 39  1  0  0  0  0
 23 84  1  0  0  0  0
 24 85  1  0  0  0  0
 25 27  2  0  0  0  0
 25 84  1  0  0  0  0
 26 86  1  0  0  0  0
 27 87  1  0  0  0  0
 28 69  2  0  0  0  0
 29 65  1  0  0  0  0
 29 70  1  0  0  0  0
 30 71  1  0  0  0  0
 30 74  1  0  0  0  0
 31 58  1  0  0  0  0
 31 68  1  0  0  0  0
 31 70  2  0  0  0  0
 32 75  1  0  0  0  0
 32 79  2  0  0  0  0
 33 47  1  0  0  0  0
 33 76  1  0  0  0  0
 33 80  2  0  0  0  0
 34 63  1  0  0  0  0
 34 72  1  0  0  0  0
 34 81  2  0  0  0  0
 35 66  1  0  0  0  0
 35 73  1  0  0  0  0
 35 82  2  0  0  0  0
 36 64  1  0  0  0  0
 36 77  1  0  0  0  0
 36 83  2  0  0  0  0
 37 40  1  0  0  0  0
 38 47  1  0  0  0  0
 39 72  1  0  0  0  0
 40 42  1  0  0  0  0
 41 43  1  0  0  0  0
 41 44  1  0  0  0  0
 42 46  1  0  0  0  0
 43 48  1  0  0  0  0
 44 73  1  0  0  0  0
 45 48  1  0  0  0  0
 45 73  1  0  0  0  0
 46 76  1  0  0  0  0
 47 72  1  0  0  0  0
 48 71  1  0  0  0  0
 49 64  1  0  0  0  0
 50 65  1  0  0  0  0
 51 65  1  0  0  0  0
 52 66  1  0  0  0  0
 53 66  1  0  0  0  0
 54 67  1  0  0  0  0
 55 67  1  0  0  0  0
 56 67  1  0  0  0  0
 57 78  1  0  0  0  0
 58 59  1  0  0  0  0
 59 60  1  0  0  0  0
 60 61  1  0  0  0  0
 61 62  1  0  0  0  0
 62 85  1  0  0  0  0
 63 67  1  0  0  0  0
 63 77  1  0  0  0  0
 64 78  1  0  0  0  0
 65 66  1  0  0  0  0
 69 71  1  0  0  0  0
M  CHG  1  78   1
M  ISO  4  35 100  62 101  66 100  85 101
M  END
> <Batch ID>
0072

> <Smiles>
CNC(C)C(=O)NC(C(=O)N1Cc2cc([101O:1][101CH2:1]CCCCc3nccc(C(C)(C)[100C:0](C)(C)[100C:0](=O)N4CCCC(n5nc(-c6ccc(Oc7ccc(F)cc7F)cc6)c(C(N)=O)c5N)C4)n3)ccc2CC1C(=O)NC1CCCc2ccccc21)C(C)(C)C

> <Shape>
0.187

> <Color>
0.173

> <Negative vol penalty>
0.000

$$$$

  -OEChem-04052318243D

 90 98  0     1  0  0  0  0  0999 V2000
  -32.5511  -29.3820   16.1694 C   0  0  0  0  0  0  0  0  0  0  0  0
  -31.7415  -28.6814   17.0578 C   0  0  0  0  0  0  0  0  0  0  0  0
  -22.4187  -10.6478   22.1027 C   0  0  0  0  0  0  0  0  0  0  0  0
  -22.7846  -10.0856   19.7817 C   0  0  0  0  0  0  0  0  0  0  0  0
  -32.9403  -30.6880   16.4641 C   0  0  0  0  0  0  0  0  0  0  0  0
  -31.3215  -29.2861   18.2420 C   0  0  0  0  0  0  0  0  0  0  0  0
  -26.4057  -28.5129   19.1810 C   0  0  0  0  0  0  0  0  0  0  0  0
  -21.9250   -9.3643   22.3358 C   0  0  0  0  0  0  0  0  0  0  0  0
  -22.2909   -8.8020   20.0148 C   0  0  0  0  0  0  0  0  0  0  0  0
  -26.0439  -27.2690   19.6964 C   0  0  0  0  0  0  0  0  0  0  0  0
  -20.9048   -6.1212   23.6229 C   0  0  0  0  0  0  0  0  0  0  0  0
  -21.3478   -5.4535   24.7646 C   0  0  0  0  0  0  0  0  0  0  0  0
  -25.9369  -28.2236   21.9092 C   0  0  0  0  0  0  0  0  0  0  0  0
  -23.6230   -5.5938   23.9640 C   0  0  0  0  0  0  0  0  0  0  0  0
  -22.8484  -11.0085   20.8256 C   0  0  0  0  0  0  0  0  0  0  0  0
  -24.6943  -12.7641   20.6904 C   0  0  0  0  0  0  0  0  0  0  0  0
  -32.5169  -31.3124   17.6480 C   0  0  0  0  0  0  0  0  0  0  0  0
  -26.5467  -29.6209   20.0289 C   0  0  0  0  0  0  0  0  0  0  0  0
  -31.7065  -30.6012   18.5535 C   0  0  0  0  0  0  0  0  0  0  0  0
  -26.2981  -29.4811   21.4018 C   0  0  0  0  0  0  0  0  0  0  0  0
  -21.8611   -8.4414   21.2919 C   0  0  0  0  0  0  0  0  0  0  0  0
  -25.8122  -27.1236   21.0610 C   0  0  0  0  0  0  0  0  0  0  0  0
  -21.8209   -6.5252   22.6517 C   0  0  0  0  0  0  0  0  0  0  0  0
  -22.7068   -5.1898   24.9352 C   0  0  0  0  0  0  0  0  0  0  0  0
  -23.1800   -6.2615   22.8222 C   0  0  0  0  0  0  0  0  0  0  0  0
  -23.3580  -12.3345   20.5840 C   0  0  0  0  0  0  0  0  0  0  0  0
  -24.6539  -14.0967   20.3603 C   0  0  0  0  0  0  0  0  0  0  0  0
  -26.7112  -20.6779   19.6951 C   0  0  0  0  0  0  0  0  0  0  0  0
  -26.0787  -22.2297   21.0739 C   0  0  0  0  0  0  0  0  0  0  0  0
  -25.8674  -12.0246   21.0549 C   0  0  0  0  0  0  0  0  0  0  0  0
  -28.9470  -31.5485   20.8208 C   0  0  0  0  0  0  0  0  0  0  0  0
  -26.6178  -33.1584   22.4036 C   0  0  0  0  0  0  0  0  0  0  0  0
  -23.5515  -33.0883   23.9001 C   0  0  0  0  0  0  0  0  0  0  0  0
  -22.8636  -18.2478   17.0879 C   0  0  0  0  0  0  0  0  0  0  0  0
  -33.0022  -32.7090   17.9456 C   0  0  0  0  0  0  0  0  0  0  0  0
  -26.9116  -30.9619   19.4536 C   0  0  0  0  0  0  0  0  0  0  0  0
  -26.4162  -30.6440   22.3516 C   0  0  0  0  0  0  0  0  0  0  0  0
  -32.2065  -33.4090   19.0443 C   0  0  0  0  0  0  0  0  0  0  0  0
  -20.7211  -17.2164   19.7379 C   0  0  0  0  0  0  0  0  0  0  0  0
  -32.0091  -32.4779   20.2364 C   0  0  0  0  0  0  0  0  0  0  0  0
  -21.3226  -15.8875   20.1984 C   0  0  0  0  0  0  0  0  0  0  0  0
  -20.8356  -17.3937   18.2255 C   0  0  0  0  0  0  0  0  0  0  0  0
  -22.8004  -15.9081   18.1455 C   0  0  0  0  0  0  0  0  0  0  0  0
  -31.2101  -31.2316   19.8365 C   0  0  1  0  0  0  0  0  0  0  0  0
  -27.5274  -31.9057   20.4819 C   0  0  1  0  0  0  0  0  0  0  0  0
  -22.7588  -15.7090   19.6702 C   0  0  2  0  0  0  0  0  0  0  0  0
  -28.5861  -19.0332   19.2797 C   0  0  0  0  0  0  0  0  0  0  0  0
  -21.9300  -34.5494   25.1384 C   0  0  0  0  0  0  0  0  0  0  0  0
  -29.4691  -25.3831   18.9979 C   0  0  0  0  0  0  0  0  0  0  0  0
  -28.9149  -24.8503   16.6167 C   0  0  0  0  0  0  0  0  0  0  0  0
  -27.3182  -23.7652   22.7427 C   0  0  0  0  0  0  0  0  0  0  0  0
  -24.8414  -23.5668   22.8062 C   0  0  0  0  0  0  0  0  0  0  0  0
  -28.3572  -32.9661   24.9031 C   0  0  0  0  0  0  0  0  0  0  0  0
  -26.3431  -33.5618   26.2658 C   0  0  0  0  0  0  0  0  0  0  0  0
  -27.2305  -35.1759   24.5836 C   0  0  0  0  0  0  0  0  0  0  0  0
  -21.4618  -32.7156   21.8378 C   0  0  0  0  0  0  0  0  0  0  0  0
  -27.9803  -23.3911   18.4354 C   0  0  0  0  0  0  0  0  0  0  0  0
  -28.1848  -22.7105   19.7904 C   0  0  0  0  0  0  0  0  0  0  0  0
  -24.9727  -18.9676   15.9958 C   0  0  0  0  0  0  0  0  0  0  0  0
  -25.7338  -19.8937   16.9260 C   0  0  0  0  0  0  0  0  0  0  0  0
  -25.9509  -24.7558   20.8872 C   0  0  0  0  0  0  0  0  0  1  0  0
  -27.5067  -19.9587   18.6843 C   0  0  1  0  0  0  0  0  0  0  0  0
  -26.0300  -33.0962   23.7927 C   0  0  1  0  0  0  0  0  0  0  0  0
  -22.3509  -34.0096   23.7804 C   0  0  2  0  0  0  0  0  0  0  0  0
  -29.1763  -24.2585   18.0037 C   0  0  0  0  0  0  0  0  0  0  0  0
  -26.0643  -23.5539   21.8603 C   0  0  0  0  0  0  0  0  0  0  0  0
  -26.9898  -33.6775   24.8690 C   0  0  0  0  0  0  0  0  0  0  0  0
  -22.5290  -13.3147   20.2153 N   0  0  0  0  0  0  0  0  0  0  0  0
  -25.6064  -20.2650   20.2743 N   0  0  0  0  0  0  0  0  0  0  0  0
  -25.2041  -21.2523   21.1515 N   0  0  0  0  0  0  0  0  0  0  0  0
  -23.3466  -14.3736   20.0872 N   0  0  0  0  0  0  0  0  0  0  0  0
  -27.0450  -21.9103   20.1688 N   0  0  0  0  0  0  0  0  0  0  0  0
  -26.7817  -31.9332   21.7418 N   0  0  0  0  0  0  0  0  0  0  0  0
  -22.2224  -17.2136   17.7895 N   0  0  0  0  0  0  0  0  0  0  0  0
  -25.6094  -15.0470   20.2800 N   0  0  0  0  0  0  0  0  0  0  0  0
  -25.7306  -10.6644   21.3637 N   0  0  0  0  0  0  0  0  0  0  0  0
  -29.8011  -31.5458   19.7345 N   0  0  0  0  0  0  0  0  0  0  0  0
  -24.7372  -33.7684   23.7193 N   0  0  0  0  0  0  0  0  0  0  0  0
  -24.1792  -17.9977   16.7172 N   0  0  0  0  0  0  0  0  0  0  0  0
  -21.1954  -33.2800   23.1859 N   0  3  0  0  0  0  0  0  0  0  0  0
  -26.6836  -19.1110   17.7435 N   0  3  0  0  0  0  0  0  0  0  0  0
  -27.0006  -12.5583   21.1213 O   0  0  0  0  0  0  0  0  0  0  0  0
  -29.2456  -31.2954   21.9820 O   0  0  0  0  0  0  0  0  0  0  0  0
  -26.9139  -34.2542   21.9207 O   0  0  0  0  0  0  0  0  0  0  0  0
  -23.4480  -31.8863   24.1346 O   0  0  0  0  0  0  0  0  0  0  0  0
  -22.3067  -19.3171   16.8168 O   0  0  0  0  0  0  0  0  0  0  0  0
  -21.3797   -7.1887   21.5191 O   0  0  0  0  0  0  0  0  0  0  0  0
  -25.4596  -25.9104   21.5667 O   0  0  0  0  0  0  0  0  0  1  0  0
  -23.1322   -4.5500   26.0324 F   0  0  0  0  0  0  0  0  0  0  0  0
  -24.0649   -6.6482   21.8932 F   0  0  0  0  0  0  0  0  0  0  0  0
  1  2  1  0  0  0  0
  1  5  2  0  0  0  0
  2  6  2  0  0  0  0
  3  8  2  0  0  0  0
  3 15  1  0  0  0  0
  4  9  1  0  0  0  0
  4 15  2  0  0  0  0
  5 17  1  0  0  0  0
  6 19  1  0  0  0  0
  7 10  2  0  0  0  0
  7 18  1  0  0  0  0
  8 21  1  0  0  0  0
  9 21  2  0  0  0  0
 10 22  1  0  0  0  0
 11 12  2  0  0  0  0
 11 23  1  0  0  0  0
 12 24  1  0  0  0  0
 13 20  1  0  0  0  0
 13 22  2  0  0  0  0
 14 24  2  0  0  0  0
 14 25  1  0  0  0  0
 15 26  1  0  0  0  0
 16 26  1  0  0  0  0
 16 27  2  0  0  0  0
 16 30  1  0  0  0  0
 17 19  2  0  0  0  0
 17 35  1  0  0  0  0
 18 20  2  0  0  0  0
 18 36  1  0  0  0  0
 19 44  1  0  0  0  0
 20 37  1  0  0  0  0
 21 87  1  0  0  0  0
 22 88  1  0  0  0  0
 23 25  2  0  0  0  0
 23 87  1  0  0  0  0
 24 89  1  0  0  0  0
 25 90  1  0  0  0  0
 26 68  2  0  0  0  0
 27 71  1  0  0  0  0
 27 75  1  0  0  0  0
 28 62  1  0  0  0  0
 28 69  2  0  0  0  0
 28 72  1  0  0  0  0
 29 66  1  0  0  0  0
 29 70  2  0  0  0  0
 29 72  1  0  0  0  0
 30 76  1  0  0  0  0
 30 82  2  0  0  0  0
 31 45  1  0  0  0  0
 31 77  1  0  0  0  0
 31 83  2  0  0  0  0
 32 63  1  0  0  0  0
 32 73  1  0  0  0  0
 32 84  2  0  0  0  0
 33 64  1  0  0  0  0
 33 78  1  0  0  0  0
 33 85  2  0  0  0  0
 34 74  1  0  0  0  0
 34 79  1  0  0  0  0
 34 86  2  0  0  0  0
 35 38  1  0  0  0  0
 36 45  1  0  0  0  0
 37 73  1  0  0  0  0
 38 40  1  0  0  0  0
 39 41  1  0  0  0  0
 39 42  1  0  0  0  0
 40 44  1  0  0  0  0
 41 46  1  0  0  0  0
 42 74  1  0  0  0  0
 43 46  1  0  0  0  0
 43 74  1  0  0  0  0
 44 77  1  0  0  0  0
 45 73  1  0  0  0  0
 46 71  1  0  0  0  0
 47 62  1  0  0  0  0
 48 64  1  0  0  0  0
 49 65  1  0  0  0  0
 50 65  1  0  0  0  0
 51 66  1  0  0  0  0
 52 66  1  0  0  0  0
 53 67  1  0  0  0  0
 54 67  1  0  0  0  0
 55 67  1  0  0  0  0
 56 80  1  0  0  0  0
 57 58  1  0  0  0  0
 57 65  1  0  0  0  0
 58 72  1  0  0  0  0
 59 60  1  0  0  0  0
 59 79  1  0  0  0  0
 60 81  1  0  0  0  0
 61 66  1  0  0  0  0
 61 88  1  0  0  0  0
 62 81  1  0  0  0  0
 63 67  1  0  0  0  0
 63 78  1  0  0  0  0
 64 80  1  0  0  0  0
 68 71  1  0  0  0  0
 69 70  1  0  0  0  0
M  CHG  2  80   1  81   1
M  ISO  4  34 100  61 101  79 100  88 101
M  END
> <Batch ID>
0072

> <Smiles>
CNC(C)C(=O)NC(C(=O)N1Cc2cc([101O:1][101CH2:1]C(C)(C)c3nnc(C(C)NCC[100NH:0][100C:0](=O)N4CCCC(n5nc(-c6ccc(Oc7ccc(F)cc7F)cc6)c(C(N)=O)c5N)C4)n3CCC(C)C)ccc2CC1C(=O)NC1CCCc2ccccc21)C(C)(C)C

> <Shape>
0.218

> <Color>
0.117

> <Negative vol penalty>
0.000

$$$$

  -OEChem-04052318243D

 82 90  0     1  0  0  0  0  0999 V2000
  -27.3656  -20.8303   27.6527 C   0  0  0  0  0  0  0  0  0  0  0  0
  -27.5704  -21.3515   26.3791 C   0  0  0  0  0  0  0  0  0  0  0  0
  -26.1700  -12.9791   21.4585 C   0  0  0  0  0  0  0  0  0  0  0  0
  -25.9175  -13.5096   19.1150 C   0  0  0  0  0  0  0  0  0  0  0  0
  -26.0958  -20.8746   28.2268 C   0  0  0  0  0  0  0  0  0  0  0  0
  -26.5052  -21.9163   25.6786 C   0  0  0  0  0  0  0  0  0  0  0  0
  -27.7419  -26.3006   23.4664 C   0  0  0  0  0  0  0  0  0  0  0  0
  -24.9994  -12.2220   21.4133 C   0  0  0  0  0  0  0  0  0  0  0  0
  -24.7469  -12.7524   19.0697 C   0  0  0  0  0  0  0  0  0  0  0  0
  -28.4747  -26.2319   22.2824 C   0  0  0  0  0  0  0  0  0  0  0  0
  -24.0586   -9.1507   20.3575 C   0  0  0  0  0  0  0  0  0  0  0  0
  -24.0726   -7.8982   20.9713 C   0  0  0  0  0  0  0  0  0  0  0  0
  -26.4523  -26.5894   21.0170 C   0  0  0  0  0  0  0  0  0  0  0  0
  -22.2869   -8.5983   22.4404 C   0  0  0  0  0  0  0  0  0  0  0  0
  -25.8118  -23.8233   16.7419 C   0  0  0  0  0  0  0  0  0  0  0  0
  -26.6290  -13.6230   20.3094 C   0  0  0  0  0  0  0  0  0  0  0  0
  -29.1503  -13.9581   20.1127 C   0  0  0  0  0  0  0  0  0  0  0  0
  -25.0166  -21.4490   27.5369 C   0  0  0  0  0  0  0  0  0  0  0  0
  -26.3547  -26.5037   23.4342 C   0  0  0  0  0  0  0  0  0  0  0  0
  -25.2195  -21.9671   26.2436 C   0  0  0  0  0  0  0  0  0  0  0  0
  -25.7045  -26.6629   22.2021 C   0  0  0  0  0  0  0  0  0  0  0  0
  -24.2879  -12.1086   20.2189 C   0  0  0  0  0  0  0  0  0  0  0  0
  -27.8296  -26.3734   21.0573 C   0  0  0  0  0  0  0  0  0  0  0  0
  -23.1589  -10.1270   20.7852 C   0  0  0  0  0  0  0  0  0  0  0  0
  -23.1867   -7.6220   22.0127 C   0  0  0  0  0  0  0  0  0  0  0  0
  -22.2730   -9.8508   21.8266 C   0  0  0  0  0  0  0  0  0  0  0  0
  -27.8379  -14.4057   20.3556 C   0  0  0  0  0  0  0  0  0  0  0  0
  -29.9308  -15.0757   20.2807 C   0  0  0  0  0  0  0  0  0  0  0  0
  -25.1540  -22.6711   17.0681 C   0  0  0  0  0  0  0  0  0  0  0  0
  -27.3282  -22.2806   17.2117 C   0  0  0  0  0  0  0  0  0  0  0  0
  -29.6216  -12.6491   19.7661 C   0  0  0  0  0  0  0  0  0  0  0  0
  -23.8205  -24.8323   24.3764 C   0  0  0  0  0  0  0  0  0  0  0  0
  -22.2170  -27.5185   23.5186 C   0  0  0  0  0  0  0  0  0  0  0  0
  -22.1304  -30.3649   21.6379 C   0  0  0  0  0  0  0  0  0  0  0  0
  -28.8092  -20.9393   19.8214 C   0  0  0  0  0  0  0  0  0  0  0  0
  -23.6522  -21.4314   28.1794 C   0  0  0  0  0  0  0  0  0  0  0  0
  -25.5826  -26.6021   24.7212 C   0  0  0  0  0  0  0  0  0  0  0  0
  -24.2203  -26.9030   22.1139 C   0  0  0  0  0  0  0  0  0  0  0  0
  -22.6572  -22.3845   27.5223 C   0  0  0  0  0  0  0  0  0  0  0  0
  -30.0742  -19.2183   22.6700 C   0  0  0  0  0  0  0  0  0  0  0  0
  -22.7073  -22.2451   26.0041 C   0  0  0  0  0  0  0  0  0  0  0  0
  -29.7629  -17.7494   22.3780 C   0  0  0  0  0  0  0  0  0  0  0  0
  -28.9692  -20.1413   22.1611 C   0  0  0  0  0  0  0  0  0  0  0  0
  -28.3119  -18.4981   20.4459 C   0  0  0  0  0  0  0  0  0  0  0  0
  -24.0945  -22.6104   25.4621 C   0  0  1  0  0  0  0  0  0  0  0  0
  -24.0971  -26.2988   24.5515 C   0  0  1  0  0  0  0  0  0  0  0  0
  -29.4240  -17.5329   20.8908 C   0  0  2  0  0  0  0  0  0  0  0  0
  -29.1706  -20.9156   16.1610 C   0  0  0  0  0  0  0  0  0  0  0  0
  -20.6726  -32.3411   21.1214 C   0  0  0  0  0  0  0  0  0  0  0  0
  -20.4482  -25.7531   21.7680 C   0  0  0  0  0  0  0  0  0  0  0  0
  -19.6744  -27.8202   20.5863 C   0  0  0  0  0  0  0  0  0  0  0  0
  -19.2249  -27.5368   23.0236 C   0  0  0  0  0  0  0  0  0  0  0  0
  -24.1566  -32.2706   22.6488 C   0  0  0  0  0  0  0  0  0  0  0  0
  -28.8825  -25.1345   17.8342 C   0  0  0  0  0  0  0  0  0  0  0  0
  -28.2618  -24.5409   16.5677 C   0  0  0  0  0  0  0  0  0  0  0  0
  -27.8646  -25.8070   18.7478 C   0  0  0  0  0  0  0  0  0  1  0  0
  -28.6197  -21.5843   17.4324 C   0  0  2  0  0  0  0  0  0  0  0  0
  -21.5809  -28.0234   22.2461 C   0  0  1  0  0  0  0  0  0  0  0  0
  -21.7915  -31.8002   21.9979 C   0  0  2  0  0  0  0  0  0  0  0  0
  -20.2598  -27.2769   21.9073 C   0  0  0  0  0  0  0  0  0  0  0  0
  -27.7838  -15.7062   20.6553 N   0  0  0  0  0  0  0  0  0  0  0  0
  -27.1555  -23.5531   16.8396 N   0  0  0  0  0  0  0  0  0  0  0  0
  -29.0720  -16.0854   20.6019 N   0  0  0  0  0  0  0  0  0  0  0  0
  -26.1167  -21.7333   17.3540 N   0  3  0  0  0  0  0  0  0  0  0  0
  -23.5081  -26.9849   23.3998 N   0  0  0  0  0  0  0  0  0  0  0  0
  -28.6973  -19.8864   20.7444 N   0  0  0  0  0  0  0  0  0  0  0  0
  -31.2612  -15.2833   20.1836 N   0  0  0  0  0  0  0  0  0  0  0  0
  -28.6849  -11.6150   19.6337 N   0  0  0  0  0  0  0  0  0  0  0  0
  -24.2604  -24.0476   25.4253 N   0  0  0  0  0  0  0  0  0  0  0  0
  -21.4274  -29.4649   22.4106 N   0  0  0  0  0  0  0  0  0  0  0  0
  -28.5405  -20.6105   18.4984 N   0  0  0  0  0  0  0  0  0  0  0  0
  -22.9869  -32.6734   21.8263 N   0  3  0  0  0  0  0  0  0  0  0  0
  -30.8392  -12.4002   19.5954 O   0  0  0  0  0  0  0  0  0  0  0  0
  -23.2488  -24.4419   23.3652 O   0  0  0  0  0  0  0  0  0  0  0  0
  -21.5942  -27.6011   24.5802 O   0  0  0  0  0  0  0  0  0  0  0  0
  -22.9353  -30.0715   20.7567 O   0  0  0  0  0  0  0  0  0  0  0  0
  -29.1303  -22.0861   20.1512 O   0  0  0  0  0  0  0  0  0  0  0  0
  -23.1457  -11.3697   20.1743 O   0  0  0  0  0  0  0  0  0  0  0  0
  -28.5424  -26.3061   19.9001 O   0  0  0  0  0  0  0  0  0  1  0  0
  -23.1992   -6.4187   22.6010 F   0  0  0  0  0  0  0  0  0  0  0  0
  -21.4055  -10.7843   22.2411 F   0  0  0  0  0  0  0  0  0  0  0  0
  -23.8367  -22.4876   17.1053 F   0  0  0  0  0  0  0  0  0  0  0  0
  1  2  1  0  0  0  0
  1  5  2  0  0  0  0
  2  6  2  0  0  0  0
  3  8  2  0  0  0  0
  3 16  1  0  0  0  0
  4  9  1  0  0  0  0
  4 16  2  0  0  0  0
  5 18  1  0  0  0  0
  6 20  1  0  0  0  0
  7 10  2  0  0  0  0
  7 19  1  0  0  0  0
  8 22  1  0  0  0  0
  9 22  2  0  0  0  0
 10 23  1  0  0  0  0
 11 12  2  0  0  0  0
 11 24  1  0  0  0  0
 12 25  1  0  0  0  0
 13 21  1  0  0  0  0
 13 23  2  0  0  0  0
 14 25  2  0  0  0  0
 14 26  1  0  0  0  0
 15 29  2  0  0  0  0
 15 62  1  0  0  0  0
 16 27  1  0  0  0  0
 17 27  1  0  0  0  0
 17 28  2  0  0  0  0
 17 31  1  0  0  0  0
 18 20  2  0  0  0  0
 18 36  1  0  0  0  0
 19 21  2  0  0  0  0
 19 37  1  0  0  0  0
 20 45  1  0  0  0  0
 21 38  1  0  0  0  0
 22 78  1  0  0  0  0
 23 79  1  0  0  0  0
 24 26  2  0  0  0  0
 24 78  1  0  0  0  0
 25 80  1  0  0  0  0
 26 81  1  0  0  0  0
 27 61  2  0  0  0  0
 28 63  1  0  0  0  0
 28 67  1  0  0  0  0
 29 64  1  0  0  0  0
 29 82  1  0  0  0  0
 30 57  1  0  0  0  0
 30 62  1  0  0  0  0
 30 64  2  0  0  0  0
 31 68  1  0  0  0  0
 31 73  2  0  0  0  0
 32 46  1  0  0  0  0
 32 69  1  0  0  0  0
 32 74  2  0  0  0  0
 33 58  1  0  0  0  0
 33 65  1  0  0  0  0
 33 75  2  0  0  0  0
 34 59  1  0  0  0  0
 34 70  1  0  0  0  0
 34 76  2  0  0  0  0
 35 66  1  0  0  0  0
 35 71  1  0  0  0  0
 35 77  2  0  0  0  0
 36 39  1  0  0  0  0
 37 46  1  0  0  0  0
 38 65  1  0  0  0  0
 39 41  1  0  0  0  0
 40 42  1  0  0  0  0
 40 43  1  0  0  0  0
 41 45  1  0  0  0  0
 42 47  1  0  0  0  0
 43 66  1  0  0  0  0
 44 47  1  0  0  0  0
 44 66  1  0  0  0  0
 45 69  1  0  0  0  0
 46 65  1  0  0  0  0
 47 63  1  0  0  0  0
 48 57  1  0  0  0  0
 49 59  1  0  0  0  0
 50 60  1  0  0  0  0
 51 60  1  0  0  0  0
 52 60  1  0  0  0  0
 53 72  1  0  0  0  0
 54 55  1  0  0  0  0
 54 56  1  0  0  0  0
 55 62  1  0  0  0  0
 56 79  1  0  0  0  0
 57 71  1  0  0  0  0
 58 60  1  0  0  0  0
 58 70  1  0  0  0  0
 59 72  1  0  0  0  0
 61 63  1  0  0  0  0
M  CHG  2  64   1  72   1
M  ISO  4  35 100  56 101  71 100  79 101
M  END
> <Batch ID>
0072

> <Smiles>
CNC(C)C(=O)NC(C(=O)N1Cc2cc([101O:1][101CH2:1]CCn3cc(F)nc3C(C)[100NH:0][100C:0](=O)N3CCCC(n4nc(-c5ccc(Oc6ccc(F)cc6F)cc5)c(C(N)=O)c4N)C3)ccc2CC1C(=O)NC1CCCc2ccccc21)C(C)(C)C

> <Shape>
0.235

> <Color>
0.078

> <Negative vol penalty>
0.000

$$$$

  -OEChem-04052318243D

 86 94  0     1  0  0  0  0  0999 V2000
  -20.5621  -17.2757   20.5761 C   0  0  0  0  0  0  0  0  0  0  0  0
  -21.8041  -17.8710   20.7718 C   0  0  0  0  0  0  0  0  0  0  0  0
  -24.5958  -24.3078   21.4670 C   0  0  0  0  0  0  0  0  0  0  0  0
  -24.6505  -24.6087   23.8635 C   0  0  0  0  0  0  0  0  0  0  0  0
  -20.4238  -15.8945   20.7075 C   0  0  0  0  0  0  0  0  0  0  0  0
  -22.9085  -17.0855   21.1001 C   0  0  0  0  0  0  0  0  0  0  0  0
  -27.0386  -18.3359   18.4499 C   0  0  0  0  0  0  0  0  0  0  0  0
  -25.1818  -23.0503   21.6115 C   0  0  0  0  0  0  0  0  0  0  0  0
  -25.2365  -23.3512   24.0081 C   0  0  0  0  0  0  0  0  0  0  0  0
  -27.7357  -19.4730   18.8560 C   0  0  0  0  0  0  0  0  0  0  0  0
  -24.2383  -20.1226   23.9869 C   0  0  0  0  0  0  0  0  0  0  0  0
  -23.7362  -19.2861   24.9838 C   0  0  0  0  0  0  0  0  0  0  0  0
  -29.3401  -18.0759   19.9932 C   0  0  0  0  0  0  0  0  0  0  0  0
  -25.9115  -19.2317   26.0337 C   0  0  0  0  0  0  0  0  0  0  0  0
  -28.5815  -30.4552   23.7331 C   0  0  0  0  0  0  0  0  0  0  0  0
  -24.3302  -25.0871   22.5930 C   0  0  0  0  0  0  0  0  0  0  0  0
  -22.3505  -26.6884   22.4380 C   0  0  0  0  0  0  0  0  0  0  0  0
  -21.5291  -15.0906   21.0281 C   0  0  0  0  0  0  0  0  0  0  0  0
  -27.4817  -17.0586   18.8222 C   0  0  0  0  0  0  0  0  0  0  0  0
  -22.7847  -15.6925   21.2373 C   0  0  0  0  0  0  0  0  0  0  0  0
  -28.6483  -16.9241   19.5883 C   0  0  0  0  0  0  0  0  0  0  0  0
  -25.5021  -22.5720   22.8820 C   0  0  0  0  0  0  0  0  0  0  0  0
  -28.8850  -19.3432   19.6302 C   0  0  0  0  0  0  0  0  0  0  0  0
  -25.5770  -20.5136   24.0134 C   0  0  0  0  0  0  0  0  0  0  0  0
  -24.5728  -18.8406   26.0072 C   0  0  0  0  0  0  0  0  0  0  0  0
  -26.4136  -20.0682   25.0368 C   0  0  0  0  0  0  0  0  0  0  0  0
  -23.7255  -26.3864   22.4443 C   0  0  0  0  0  0  0  0  0  0  0  0
  -27.4734  -30.5152   24.5492 C   0  0  0  0  0  0  0  0  0  0  0  0
  -27.6329  -28.2661   24.9312 C   0  0  0  0  0  0  0  0  0  0  0  0
  -28.7406  -28.2060   24.1146 C   0  0  0  0  0  0  0  0  0  0  0  0
  -22.2989  -28.0504   22.2690 C   0  0  0  0  0  0  0  0  0  0  0  0
  -21.2209  -25.8157   22.5729 C   0  0  0  0  0  0  0  0  0  0  0  0
  -26.2679  -14.6756   20.5402 C   0  0  0  0  0  0  0  0  0  0  0  0
  -28.9208  -13.1097   19.5241 C   0  0  0  0  0  0  0  0  0  0  0  0
  -26.2624  -32.3986   23.4922 C   0  0  0  0  0  0  0  0  0  0  0  0
  -32.1256  -13.2896   18.3651 C   0  0  0  0  0  0  0  0  0  0  0  0
  -21.3208  -13.6075   21.2058 C   0  0  0  0  0  0  0  0  0  0  0  0
  -26.7336  -15.8408   18.3535 C   0  0  0  0  0  0  0  0  0  0  0  0
  -29.1772  -15.5745   19.9975 C   0  0  0  0  0  0  0  0  0  0  0  0
  -22.6185  -12.8037   21.1880 C   0  0  0  0  0  0  0  0  0  0  0  0
  -24.7209  -31.6862   20.3368 C   0  0  0  0  0  0  0  0  0  0  0  0
  -23.6682  -13.4648   22.0756 C   0  0  0  0  0  0  0  0  0  0  0  0
  -24.1910  -30.2633   20.5093 C   0  0  0  0  0  0  0  0  0  0  0  0
  -26.0359  -31.8866   21.0837 C   0  0  0  0  0  0  0  0  0  0  0  0
  -25.4378  -30.1221   22.7117 C   0  0  0  0  0  0  0  0  0  0  0  0
  -24.0115  -14.8713   21.5702 C   0  0  1  0  0  0  0  0  0  0  0  0
  -26.9871  -14.6127   19.2224 C   0  0  1  0  0  0  0  0  0  0  0  0
  -24.0948  -29.8859   21.9982 C   0  0  2  0  0  0  0  0  0  0  0  0
  -27.0969  -27.0491   25.6046 C   0  0  0  0  0  0  0  0  0  0  0  0
  -34.0495  -11.8409   17.6596 C   0  0  0  0  0  0  0  0  0  0  0  0
  -27.7352  -32.8549   25.4151 C   0  0  0  0  0  0  0  0  0  0  0  0
  -25.5109  -31.7544   25.6893 C   0  0  0  0  0  0  0  0  0  0  0  0
  -29.5210  -12.4862   22.4500 C   0  0  0  0  0  0  0  0  0  0  0  0
  -31.8594  -11.9013   21.7732 C   0  0  0  0  0  0  0  0  0  0  0  0
  -29.9375  -10.5906   20.8727 C   0  0  0  0  0  0  0  0  0  0  0  0
  -32.1168  -14.4112   15.6263 C   0  0  0  0  0  0  0  0  0  0  0  0
  -29.4628  -26.9063   23.8635 C   0  0  0  0  0  0  0  0  0  0  0  0
  -28.7691  -25.9997   22.8404 C   0  0  0  0  0  0  0  0  0  0  0  0
  -29.5111  -24.6786   22.6095 C   0  0  0  0  0  0  0  0  0  0  0  0
  -28.7667  -23.7954   21.6047 C   0  0  0  0  0  0  0  0  0  0  0  0
  -29.5001  -22.4924   21.2851 C   0  0  0  0  0  0  0  0  0  0  0  0
  -28.8090  -21.6445   20.2257 C   0  0  0  0  0  0  0  0  0  1  0  0
  -30.3295  -12.9459   20.0414 C   0  0  1  0  0  0  0  0  0  0  0  0
  -32.8157  -12.6024   17.2006 C   0  0  2  0  0  0  0  0  0  0  0  0
  -26.7760  -31.8096   24.7819 C   0  0  0  0  0  0  0  0  0  0  0  0
  -30.4011  -12.0067   21.2784 C   0  0  0  0  0  0  0  0  0  0  0  0
  -29.2350  -29.2995   23.5011 N   0  0  0  0  0  0  0  0  0  0  0  0
  -24.4920  -27.4695   22.2913 N   0  0  0  0  0  0  0  0  0  0  0  0
  -26.9792  -29.4218   25.1629 N   0  0  0  0  0  0  0  0  0  0  0  0
  -23.5956  -28.4653   22.1872 N   0  0  0  0  0  0  0  0  0  0  0  0
  -28.4070  -14.4142   19.5199 N   0  0  0  0  0  0  0  0  0  0  0  0
  -25.9093  -31.4959   22.4889 N   0  0  0  0  0  0  0  0  0  0  0  0
  -21.2713  -28.9217   22.1837 N   0  0  0  0  0  0  0  0  0  0  0  0
  -21.4528  -24.4435   22.7391 N   0  0  0  0  0  0  0  0  0  0  0  0
  -24.8959  -14.7958   20.4272 N   0  0  0  0  0  0  0  0  0  0  0  0
  -31.1320  -12.5019   18.9068 N   0  0  0  0  0  0  0  0  0  0  0  0
  -33.2348  -13.6058   16.1816 N   0  3  0  0  0  0  0  0  0  0  0  0
  -20.0405  -26.2381   22.5303 O   0  0  0  0  0  0  0  0  0  0  0  0
  -26.9101  -14.6178   21.5823 O   0  0  0  0  0  0  0  0  0  0  0  0
  -28.3017  -12.1177   19.1312 O   0  0  0  0  0  0  0  0  0  0  0  0
  -26.1755  -33.6244   23.3827 O   0  0  0  0  0  0  0  0  0  0  0  0
  -32.4394  -14.4112   18.7574 O   0  0  0  0  0  0  0  0  0  0  0  0
  -26.0737  -21.3448   23.0234 O   0  0  0  0  0  0  0  0  0  0  0  0
  -29.5669  -20.4515   20.0285 O   0  0  0  0  0  0  0  0  0  1  0  0
  -24.0902  -18.0386   26.9652 F   0  0  0  0  0  0  0  0  0  0  0  0
  -27.7002  -20.4415   25.0681 F   0  0  0  0  0  0  0  0  0  0  0  0
  1  2  1  0  0  0  0
  1  5  2  0  0  0  0
  2  6  2  0  0  0  0
  3  8  2  0  0  0  0
  3 16  1  0  0  0  0
  4  9  1  0  0  0  0
  4 16  2  0  0  0  0
  5 18  1  0  0  0  0
  6 20  1  0  0  0  0
  7 10  2  0  0  0  0
  7 19  1  0  0  0  0
  8 22  1  0  0  0  0
  9 22  2  0  0  0  0
 10 23  1  0  0  0  0
 11 12  2  0  0  0  0
 11 24  1  0  0  0  0
 12 25  1  0  0  0  0
 13 21  1  0  0  0  0
 13 23  2  0  0  0  0
 14 25  2  0  0  0  0
 14 26  1  0  0  0  0
 15 28  1  0  0  0  0
 15 67  2  0  0  0  0
 16 27  1  0  0  0  0
 17 27  1  0  0  0  0
 17 31  2  0  0  0  0
 17 32  1  0  0  0  0
 18 20  2  0  0  0  0
 18 37  1  0  0  0  0
 19 21  2  0  0  0  0
 19 38  1  0  0  0  0
 20 46  1  0  0  0  0
 21 39  1  0  0  0  0
 22 83  1  0  0  0  0
 23 84  1  0  0  0  0
 24 26  2  0  0  0  0
 24 83  1  0  0  0  0
 25 85  1  0  0  0  0
 26 86  1  0  0  0  0
 27 68  2  0  0  0  0
 28 65  1  0  0  0  0
 28 69  2  0  0  0  0
 29 30  2  0  0  0  0
 29 49  1  0  0  0  0
 29 69  1  0  0  0  0
 30 57  1  0  0  0  0
 30 67  1  0  0  0  0
 31 70  1  0  0  0  0
 31 73  1  0  0  0  0
 32 74  1  0  0  0  0
 32 78  2  0  0  0  0
 33 47  1  0  0  0  0
 33 75  1  0  0  0  0
 33 79  2  0  0  0  0
 34 63  1  0  0  0  0
 34 71  1  0  0  0  0
 34 80  2  0  0  0  0
 35 65  1  0  0  0  0
 35 72  1  0  0  0  0
 35 81  2  0  0  0  0
 36 64  1  0  0  0  0
 36 76  1  0  0  0  0
 36 82  2  0  0  0  0
 37 40  1  0  0  0  0
 38 47  1  0  0  0  0
 39 71  1  0  0  0  0
 40 42  1  0  0  0  0
 41 43  1  0  0  0  0
 41 44  1  0  0  0  0
 42 46  1  0  0  0  0
 43 48  1  0  0  0  0
 44 72  1  0  0  0  0
 45 48  1  0  0  0  0
 45 72  1  0  0  0  0
 46 75  1  0  0  0  0
 47 71  1  0  0  0  0
 48 70  1  0  0  0  0
 50 64  1  0  0  0  0
 51 65  1  0  0  0  0
 52 65  1  0  0  0  0
 53 66  1  0  0  0  0
 54 66  1  0  0  0  0
 55 66  1  0  0  0  0
 56 77  1  0  0  0  0
 57 58  1  0  0  0  0
 58 59  1  0  0  0  0
 59 60  1  0  0  0  0
 60 61  1  0  0  0  0
 61 62  1  0  0  0  0
 62 84  1  0  0  0  0
 63 66  1  0  0  0  0
 63 76  1  0  0  0  0
 64 77  1  0  0  0  0
 68 70  1  0  0  0  0
M  CHG  1  77   1
M  ISO  4  35 100  62 101  65 100  84 101
M  END
> <Batch ID>
0072

> <Smiles>
CNC(C)C(=O)NC(C(=O)N1Cc2cc([101O:1][101CH2:1]CCCCCc3ncc([100C:0](C)(C)[100C:0](=O)N4CCCC(n5nc(-c6ccc(Oc7ccc(F)cc7F)cc6)c(C(N)=O)c5N)C4)nc3C)ccc2CC1C(=O)NC1CCCc2ccccc21)C(C)(C)C

> <Shape>
0.244

> <Color>
0.067

> <Negative vol penalty>
0.000

$$$$

  -OEChem-04052318243D

 84 92  0     1  0  0  0  0  0999 V2000
  -29.7870  -11.1720   19.6661 C   0  0  0  0  0  0  0  0  0  0  0  0
  -29.7761  -11.7205   18.3877 C   0  0  0  0  0  0  0  0  0  0  0  0
  -24.6994  -28.6536   21.6925 C   0  0  0  0  0  0  0  0  0  0  0  0
  -23.5140  -29.4542   19.7456 C   0  0  0  0  0  0  0  0  0  0  0  0
  -29.1133  -11.8138   20.7045 C   0  0  0  0  0  0  0  0  0  0  0  0
  -29.0905  -12.9106   18.1466 C   0  0  0  0  0  0  0  0  0  0  0  0
  -29.3971  -18.8071   14.0903 C   0  0  0  0  0  0  0  0  0  0  0  0
  -25.5814  -29.7300   21.5982 C   0  0  0  0  0  0  0  0  0  0  0  0
  -24.3960  -30.5308   19.6513 C   0  0  0  0  0  0  0  0  0  0  0  0
  -28.6082  -19.5577   13.2197 C   0  0  0  0  0  0  0  0  0  0  0  0
  -25.5925  -33.0178   22.3876 C   0  0  0  0  0  0  0  0  0  0  0  0
  -25.9056  -33.7040   23.5609 C   0  0  0  0  0  0  0  0  0  0  0  0
  -27.5461  -20.6196   15.1074 C   0  0  0  0  0  0  0  0  0  0  0  0
  -28.2388  -33.1536   23.2600 C   0  0  0  0  0  0  0  0  0  0  0  0
  -20.7099  -25.3344   14.1599 C   0  0  0  0  0  0  0  0  0  0  0  0
  -20.8748  -25.0619   12.0553 C   0  0  0  0  0  0  0  0  0  0  0  0
  -23.6657  -28.5156   20.7662 C   0  0  0  0  0  0  0  0  0  0  0  0
  -21.5442  -27.3561   21.5799 C   0  0  0  0  0  0  0  0  0  0  0  0
  -28.4271  -13.0173   20.4781 C   0  0  0  0  0  0  0  0  0  0  0  0
  -29.2585  -18.9494   15.4785 C   0  0  0  0  0  0  0  0  0  0  0  0
  -28.4058  -13.5683   19.1826 C   0  0  0  0  0  0  0  0  0  0  0  0
  -28.3362  -19.8715   15.9935 C   0  0  0  0  0  0  0  0  0  0  0  0
  -25.4297  -30.6686   20.5776 C   0  0  0  0  0  0  0  0  0  0  0  0
  -27.6805  -20.4621   13.7283 C   0  0  0  0  0  0  0  0  0  0  0  0
  -26.6025  -32.3995   21.6505 C   0  0  0  0  0  0  0  0  0  0  0  0
  -27.2288  -33.7719   23.9971 C   0  0  0  0  0  0  0  0  0  0  0  0
  -27.9256  -32.4674   22.0867 C   0  0  0  0  0  0  0  0  0  0  0  0
  -22.7546  -27.4036   20.8627 C   0  0  0  0  0  0  0  0  0  0  0  0
  -20.7130  -23.9734   13.9646 C   0  0  0  0  0  0  0  0  0  0  0  0
  -21.0602  -26.0908   21.3533 C   0  0  0  0  0  0  0  0  0  0  0  0
  -20.9136  -28.3655   22.3795 C   0  0  0  0  0  0  0  0  0  0  0  0
  -28.4170  -17.0179   17.8585 C   0  0  0  0  0  0  0  0  0  0  0  0
  -29.2445  -19.5600   19.6957 C   0  0  0  0  0  0  0  0  0  0  0  0
  -29.6904  -22.9346   19.9409 C   0  0  0  0  0  0  0  0  0  0  0  0
  -21.8866  -22.1409   16.9299 C   0  0  0  0  0  0  0  0  0  0  0  0
  -27.6739  -13.6497   21.6216 C   0  0  0  0  0  0  0  0  0  0  0  0
  -30.1359  -18.1517   16.4039 C   0  0  0  0  0  0  0  0  0  0  0  0
  -28.1631  -20.0765   17.4755 C   0  0  0  0  0  0  0  0  0  0  0  0
  -27.2847  -15.1032   21.3648 C   0  0  0  0  0  0  0  0  0  0  0  0
  -22.5241  -21.6375   20.3964 C   0  0  0  0  0  0  0  0  0  0  0  0
  -26.6815  -15.2563   19.9721 C   0  0  0  0  0  0  0  0  0  0  0  0
  -22.5462  -23.0539   20.9737 C   0  0  0  0  0  0  0  0  0  0  0  0
  -23.1343  -21.5887   18.9974 C   0  0  0  0  0  0  0  0  0  0  0  0
  -22.5732  -23.9571   18.6111 C   0  0  0  0  0  0  0  0  0  0  0  0
  -27.6941  -14.8706   18.8869 C   0  0  1  0  0  0  0  0  0  0  0  0
  -29.5490  -18.0044   17.8044 C   0  0  1  0  0  0  0  0  0  0  0  0
  -21.9174  -24.0669   19.9982 C   0  0  2  0  0  0  0  0  0  0  0  0
  -18.2654  -23.4945   15.7278 C   0  0  0  0  0  0  0  0  0  0  0  0
  -30.3344  -24.7226   21.5797 C   0  0  0  0  0  0  0  0  0  0  0  0
  -26.4889  -19.3620   20.9908 C   0  0  0  0  0  0  0  0  0  0  0  0
  -26.8222  -21.6746   21.8901 C   0  0  0  0  0  0  0  0  0  0  0  0
  -28.3583  -19.8354   22.5831 C   0  0  0  0  0  0  0  0  0  0  0  0
  -32.0367  -23.7340   18.3237 C   0  0  0  0  0  0  0  0  0  0  0  0
  -19.1674  -22.3921   15.1864 C   0  0  0  0  0  0  0  0  0  0  0  0
  -23.2389  -22.0777   12.6066 C   0  0  0  0  0  0  0  0  0  0  0  0
  -22.2902  -22.1687   11.4097 C   0  0  0  0  0  0  0  0  0  0  0  0
  -24.6544  -21.6944   12.1652 C   0  0  0  0  0  0  0  0  0  0  0  0
  -20.8667  -22.5117   11.8546 C   0  0  0  0  0  0  0  0  0  0  0  0
  -25.6125  -21.5718   13.3438 C   0  0  0  0  0  0  0  0  0  1  0  0
  -20.6276  -22.8485   14.9117 C   0  0  2  0  0  0  0  0  0  0  0  0
  -28.5196  -20.7678   20.2386 C   0  0  1  0  0  0  0  0  0  0  0  0
  -30.8292  -23.7614   20.5101 C   0  0  2  0  0  0  0  0  0  0  0  0
  -27.5489  -20.4049   21.3977 C   0  0  0  0  0  0  0  0  0  0  0  0
  -20.8106  -26.0063   12.9674 N   0  0  0  0  0  0  0  0  0  0  0  0
  -23.0232  -26.2594   20.2281 N   0  0  0  0  0  0  0  0  0  0  0  0
  -20.8186  -23.8142   12.6116 N   0  0  0  0  0  0  0  0  0  0  0  0
  -21.9747  -25.4810   20.5458 N   0  0  0  0  0  0  0  0  0  0  0  0
  -29.0396  -19.2686   18.3396 N   0  0  0  0  0  0  0  0  0  0  0  0
  -22.4929  -22.5720   18.1214 N   0  0  0  0  0  0  0  0  0  0  0  0
  -19.9459  -25.4515   21.7679 N   0  0  0  0  0  0  0  0  0  0  0  0
  -21.5467  -29.6094   22.5065 N   0  0  0  0  0  0  0  0  0  0  0  0
  -28.6516  -15.9372   18.6871 N   0  0  0  0  0  0  0  0  0  0  0  0
  -29.5510  -21.7332   20.6030 N   0  0  0  0  0  0  0  0  0  0  0  0
  -21.2962  -23.1364   16.1610 N   0  0  0  0  0  0  0  0  0  0  0  0
  -31.4828  -24.5549   19.4312 N   0  3  0  0  0  0  0  0  0  0  0  0
  -19.8293  -28.1646   22.9773 O   0  0  0  0  0  0  0  0  0  0  0  0
  -27.4050  -17.2227   17.1986 O   0  0  0  0  0  0  0  0  0  0  0  0
  -29.9716  -18.9035   20.4454 O   0  0  0  0  0  0  0  0  0  0  0  0
  -28.9919  -23.3178   19.0051 O   0  0  0  0  0  0  0  0  0  0  0  0
  -21.8679  -20.9559   16.5801 O   0  0  0  0  0  0  0  0  0  0  0  0
  -26.2900  -31.7193   20.4854 O   0  0  0  0  0  0  0  0  0  0  0  0
  -26.9088  -21.1955   12.8807 O   0  0  0  0  0  0  0  0  0  1  0  0
  -27.5296  -34.4322   25.1231 F   0  0  0  0  0  0  0  0  0  0  0  0
  -28.9004  -31.8764   21.3822 F   0  0  0  0  0  0  0  0  0  0  0  0
  1  2  1  0  0  0  0
  1  5  2  0  0  0  0
  2  6  2  0  0  0  0
  3  8  2  0  0  0  0
  3 17  1  0  0  0  0
  4  9  1  0  0  0  0
  4 17  2  0  0  0  0
  5 19  1  0  0  0  0
  6 21  1  0  0  0  0
  7 10  2  0  0  0  0
  7 20  1  0  0  0  0
  8 23  1  0  0  0  0
  9 23  2  0  0  0  0
 10 24  1  0  0  0  0
 11 12  2  0  0  0  0
 11 25  1  0  0  0  0
 12 26  1  0  0  0  0
 13 22  1  0  0  0  0
 13 24  2  0  0  0  0
 14 26  2  0  0  0  0
 14 27  1  0  0  0  0
 15 29  2  0  0  0  0
 15 64  1  0  0  0  0
 16 64  2  0  0  0  0
 16 66  1  0  0  0  0
 17 28  1  0  0  0  0
 18 28  1  0  0  0  0
 18 30  2  0  0  0  0
 18 31  1  0  0  0  0
 19 21  2  0  0  0  0
 19 36  1  0  0  0  0
 20 22  2  0  0  0  0
 20 37  1  0  0  0  0
 21 45  1  0  0  0  0
 22 38  1  0  0  0  0
 23 81  1  0  0  0  0
 24 82  1  0  0  0  0
 25 27  2  0  0  0  0
 25 81  1  0  0  0  0
 26 83  1  0  0  0  0
 27 84  1  0  0  0  0
 28 65  2  0  0  0  0
 29 60  1  0  0  0  0
 29 66  1  0  0  0  0
 30 67  1  0  0  0  0
 30 70  1  0  0  0  0
 31 71  1  0  0  0  0
 31 76  2  0  0  0  0
 32 46  1  0  0  0  0
 32 72  1  0  0  0  0
 32 77  2  0  0  0  0
 33 61  1  0  0  0  0
 33 68  1  0  0  0  0
 33 78  2  0  0  0  0
 34 62  1  0  0  0  0
 34 73  1  0  0  0  0
 34 79  2  0  0  0  0
 35 69  1  0  0  0  0
 35 74  1  0  0  0  0
 35 80  2  0  0  0  0
 36 39  1  0  0  0  0
 37 46  1  0  0  0  0
 38 68  1  0  0  0  0
 39 41  1  0  0  0  0
 40 42  1  0  0  0  0
 40 43  1  0  0  0  0
 41 45  1  0  0  0  0
 42 47  1  0  0  0  0
 43 69  1  0  0  0  0
 44 47  1  0  0  0  0
 44 69  1  0  0  0  0
 45 72  1  0  0  0  0
 46 68  1  0  0  0  0
 47 67  1  0  0  0  0
 48 54  1  0  0  0  0
 49 62  1  0  0  0  0
 50 63  1  0  0  0  0
 51 63  1  0  0  0  0
 52 63  1  0  0  0  0
 53 75  1  0  0  0  0
 54 60  1  0  0  0  0
 55 56  1  0  0  0  0
 55 57  1  0  0  0  0
 56 58  1  0  0  0  0
 57 59  1  0  0  0  0
 58 66  1  0  0  0  0
 59 82  1  0  0  0  0
 60 74  1  0  0  0  0
 61 63  1  0  0  0  0
 61 73  1  0  0  0  0
 62 75  1  0  0  0  0
 65 67  1  0  0  0  0
M  CHG  1  75   1
M  ISO  4  35 100  59 101  74 100  82 101
M  END
> <Batch ID>
0072

> <Smiles>
CCC([100NH:0][100C:0](=O)N1CCCC(n2nc(-c3ccc(Oc4ccc(F)cc4F)cc3)c(C(N)=O)c2N)C1)c1cncn1CCCC[101CH2:1][101O:1]c1ccc2c(c1)CN(C(=O)C(NC(=O)C(C)NC)C(C)(C)C)C(C(=O)NC1CCCc3ccccc31)C2

> <Shape>
0.210

> <Color>
0.065

> <Negative vol penalty>
0.000

$$$$

  -OEChem-04052318243D

 82 90  0     1  0  0  0  0  0999 V2000
  -18.5611  -32.9310   20.4312 C   0  0  0  0  0  0  0  0  0  0  0  0
  -19.8505  -32.6216   20.0101 C   0  0  0  0  0  0  0  0  0  0  0  0
  -25.1116  -13.1330   19.7648 C   0  0  0  0  0  0  0  0  0  0  0  0
  -25.7381  -13.5363   22.0630 C   0  0  0  0  0  0  0  0  0  0  0  0
  -18.1220  -32.5191   21.6887 C   0  0  0  0  0  0  0  0  0  0  0  0
  -20.7019  -31.9011   20.8470 C   0  0  0  0  0  0  0  0  0  0  0  0
  -24.9178  -27.7937   19.1554 C   0  0  0  0  0  0  0  0  0  0  0  0
  -24.9421  -11.7779   20.0488 C   0  0  0  0  0  0  0  0  0  0  0  0
  -25.5686  -12.1813   22.3471 C   0  0  0  0  0  0  0  0  0  0  0  0
  -26.2972  -27.8852   18.9753 C   0  0  0  0  0  0  0  0  0  0  0  0
  -23.9953   -8.2741   20.2531 C   0  0  0  0  0  0  0  0  0  0  0  0
  -22.8541   -7.6450   19.7555 C   0  0  0  0  0  0  0  0  0  0  0  0
  -26.6387  -27.0450   21.2107 C   0  0  0  0  0  0  0  0  0  0  0  0
  -21.4648   -9.1795   21.0014 C   0  0  0  0  0  0  0  0  0  0  0  0
  -29.9096  -24.0039   17.2983 C   0  0  0  0  0  0  0  0  0  0  0  0
  -29.0208  -22.9963   17.0502 C   0  0  0  0  0  0  0  0  0  0  0  0
  -25.5097  -14.0122   20.7719 C   0  0  0  0  0  0  0  0  0  0  0  0
  -24.7141  -16.4272   20.5659 C   0  0  0  0  0  0  0  0  0  0  0  0
  -18.9653  -31.7849   22.5375 C   0  0  0  0  0  0  0  0  0  0  0  0
  -24.3873  -27.3367   20.3704 C   0  0  0  0  0  0  0  0  0  0  0  0
  -20.2742  -31.4802   22.1176 C   0  0  0  0  0  0  0  0  0  0  0  0
  -25.2522  -26.9462   21.4027 C   0  0  0  0  0  0  0  0  0  0  0  0
  -25.1706  -11.3020   21.3400 C   0  0  0  0  0  0  0  0  0  0  0  0
  -27.1579  -27.5135   20.0041 C   0  0  0  0  0  0  0  0  0  0  0  0
  -23.8712   -9.3559   21.1250 C   0  0  0  0  0  0  0  0  0  0  0  0
  -21.5889   -8.0977   20.1296 C   0  0  0  0  0  0  0  0  0  0  0  0
  -22.6060   -9.8086   21.4991 C   0  0  0  0  0  0  0  0  0  0  0  0
  -25.6855  -15.4120   20.4790 C   0  0  0  0  0  0  0  0  0  0  0  0
  -25.3759  -17.5691   20.1859 C   0  0  0  0  0  0  0  0  0  0  0  0
  -28.7245  -23.6699   19.1380 C   0  0  0  0  0  0  0  0  0  0  0  0
  -23.3366  -16.3453   20.9553 C   0  0  0  0  0  0  0  0  0  0  0  0
  -22.5257  -28.5937   22.6194 C   0  0  0  0  0  0  0  0  0  0  0  0
  -22.6348  -25.5902   23.8397 C   0  0  0  0  0  0  0  0  0  0  0  0
  -24.2883  -22.6134   24.0666 C   0  0  0  0  0  0  0  0  0  0  0  0
  -29.8539  -20.8937   20.3858 C   0  0  0  0  0  0  0  0  0  0  0  0
  -18.4622  -31.4023   23.9069 C   0  0  0  0  0  0  0  0  0  0  0  0
  -22.8974  -27.2185   20.5393 C   0  0  0  0  0  0  0  0  0  0  0  0
  -24.7335  -26.4299   22.7191 C   0  0  0  0  0  0  0  0  0  0  0  0
  -19.2993  -30.3193   24.5827 C   0  0  0  0  0  0  0  0  0  0  0  0
  -29.9310  -18.1863   18.0748 C   0  0  0  0  0  0  0  0  0  0  0  0
  -20.7858  -30.6375   24.4573 C   0  0  0  0  0  0  0  0  0  0  0  0
  -28.7577  -17.3044   18.5053 C   0  0  0  0  0  0  0  0  0  0  0  0
  -30.6307  -18.8202   19.2751 C   0  0  0  0  0  0  0  0  0  0  0  0
  -28.5692  -18.6820   20.6185 C   0  0  0  0  0  0  0  0  0  0  0  0
  -21.2190  -30.6790   22.9868 C   0  0  1  0  0  0  0  0  0  0  0  0
  -22.4592  -27.2261   22.0006 C   0  0  1  0  0  0  0  0  0  0  0  0
  -27.7975  -18.0653   19.4393 C   0  0  2  0  0  0  0  0  0  0  0  0
  -26.6813  -23.4565   20.5884 C   0  0  0  0  0  0  0  0  0  0  0  0
  -24.7005  -20.2214   24.7037 C   0  0  0  0  0  0  0  0  0  0  0  0
  -23.5474  -26.8286   26.4747 C   0  0  0  0  0  0  0  0  0  0  0  0
  -24.2940  -24.5532   27.2052 C   0  0  0  0  0  0  0  0  0  0  0  0
  -21.8851  -24.9754   26.7134 C   0  0  0  0  0  0  0  0  0  0  0  0
  -22.9361  -21.6108   21.6324 C   0  0  0  0  0  0  0  0  0  0  0  0
  -30.4077  -26.8469   18.5804 C   0  0  0  0  0  0  0  0  0  0  0  0
  -30.4655  -25.4975   19.2998 C   0  0  0  0  0  0  0  0  0  0  0  0
  -28.9428  -22.8891   21.5466 C   0  0  0  0  0  0  0  0  0  0  0  0
  -29.0020  -27.4314   18.5046 C   0  0  0  0  0  0  0  0  0  1  0  0
  -28.1921  -23.7760   20.5191 C   0  0  1  0  0  0  0  0  0  0  0  0
  -23.5382  -24.8602   24.8040 C   0  0  1  0  0  0  0  0  0  0  0  0
  -23.8055  -21.1803   23.9340 C   0  0  2  0  0  0  0  0  0  0  0  0
  -23.3262  -25.3159   26.2753 C   0  0  0  0  0  0  0  0  0  0  0  0
  -26.8739  -15.8687   20.0754 N   0  0  0  0  0  0  0  0  0  0  0  0
  -29.7038  -24.4022   18.5972 N   0  0  0  0  0  0  0  0  0  0  0  0
  -26.6537  -17.1834   19.9051 N   0  0  0  0  0  0  0  0  0  0  0  0
  -28.3008  -22.8105   18.2057 N   0  3  0  0  0  0  0  0  0  0  0  0
  -23.2689  -26.3387   22.8380 N   0  0  0  0  0  0  0  0  0  0  0  0
  -29.6650  -19.5276   20.1194 N   0  0  0  0  0  0  0  0  0  0  0  0
  -24.9838  -18.8555   20.0678 N   0  0  0  0  0  0  0  0  0  0  0  0
  -22.8174  -15.0944   21.3157 N   0  0  0  0  0  0  0  0  0  0  0  0
  -21.3709  -29.3370   22.4667 N   0  0  0  0  0  0  0  0  0  0  0  0
  -23.3090  -23.4369   24.5804 N   0  0  0  0  0  0  0  0  0  0  0  0
  -28.8892  -21.4890   21.1893 N   0  0  0  0  0  0  0  0  0  0  0  0
  -23.7958  -20.7673   22.5022 N   0  3  0  0  0  0  0  0  0  0  0  0
  -22.5842  -17.3489   20.9672 O   0  0  0  0  0  0  0  0  0  0  0  0
  -23.5484  -28.9477   23.1942 O   0  0  0  0  0  0  0  0  0  0  0  0
  -21.4115  -25.4938   23.9661 O   0  0  0  0  0  0  0  0  0  0  0  0
  -25.4222  -22.9663   23.7497 O   0  0  0  0  0  0  0  0  0  0  0  0
  -30.8086  -21.5367   19.9361 O   0  0  0  0  0  0  0  0  0  0  0  0
  -25.0051   -9.9799   21.6175 O   0  0  0  0  0  0  0  0  0  0  0  0
  -28.5048  -27.6025   19.8312 O   0  0  0  0  0  0  0  0  0  1  0  0
  -20.4932   -7.4944   19.6504 F   0  0  0  0  0  0  0  0  0  0  0  0
  -22.4805  -10.8481   22.3354 F   0  0  0  0  0  0  0  0  0  0  0  0
  1  2  1  0  0  0  0
  1  5  2  0  0  0  0
  2  6  2  0  0  0  0
  3  8  2  0  0  0  0
  3 17  1  0  0  0  0
  4  9  1  0  0  0  0
  4 17  2  0  0  0  0
  5 19  1  0  0  0  0
  6 21  1  0  0  0  0
  7 10  2  0  0  0  0
  7 20  1  0  0  0  0
  8 23  1  0  0  0  0
  9 23  2  0  0  0  0
 10 24  1  0  0  0  0
 11 12  2  0  0  0  0
 11 25  1  0  0  0  0
 12 26  1  0  0  0  0
 13 22  1  0  0  0  0
 13 24  2  0  0  0  0
 14 26  2  0  0  0  0
 14 27  1  0  0  0  0
 15 16  2  0  0  0  0
 15 63  1  0  0  0  0
 16 65  1  0  0  0  0
 17 28  1  0  0  0  0
 18 28  1  0  0  0  0
 18 29  2  0  0  0  0
 18 31  1  0  0  0  0
 19 21  2  0  0  0  0
 19 36  1  0  0  0  0
 20 22  2  0  0  0  0
 20 37  1  0  0  0  0
 21 45  1  0  0  0  0
 22 38  1  0  0  0  0
 23 79  1  0  0  0  0
 24 80  1  0  0  0  0
 25 27  2  0  0  0  0
 25 79  1  0  0  0  0
 26 81  1  0  0  0  0
 27 82  1  0  0  0  0
 28 62  2  0  0  0  0
 29 64  1  0  0  0  0
 29 68  1  0  0  0  0
 30 58  1  0  0  0  0
 30 63  1  0  0  0  0
 30 65  2  0  0  0  0
 31 69  1  0  0  0  0
 31 74  2  0  0  0  0
 32 46  1  0  0  0  0
 32 70  1  0  0  0  0
 32 75  2  0  0  0  0
 33 59  1  0  0  0  0
 33 66  1  0  0  0  0
 33 76  2  0  0  0  0
 34 60  1  0  0  0  0
 34 71  1  0  0  0  0
 34 77  2  0  0  0  0
 35 67  1  0  0  0  0
 35 72  1  0  0  0  0
 35 78  2  0  0  0  0
 36 39  1  0  0  0  0
 37 46  1  0  0  0  0
 38 66  1  0  0  0  0
 39 41  1  0  0  0  0
 40 42  1  0  0  0  0
 40 43  1  0  0  0  0
 41 45  1  0  0  0  0
 42 47  1  0  0  0  0
 43 67  1  0  0  0  0
 44 47  1  0  0  0  0
 44 67  1  0  0  0  0
 45 70  1  0  0  0  0
 46 66  1  0  0  0  0
 47 64  1  0  0  0  0
 48 58  1  0  0  0  0
 49 60  1  0  0  0  0
 50 61  1  0  0  0  0
 51 61  1  0  0  0  0
 52 61  1  0  0  0  0
 53 73  1  0  0  0  0
 54 55  1  0  0  0  0
 54 57  1  0  0  0  0
 55 63  1  0  0  0  0
 56 58  1  0  0  0  0
 56 72  1  0  0  0  0
 57 80  1  0  0  0  0
 59 61  1  0  0  0  0
 59 71  1  0  0  0  0
 60 73  1  0  0  0  0
 62 64  1  0  0  0  0
M  CHG  2  65   1  73   1
M  ISO  4  35 100  57 101  72 100  80 101
M  END
> <Batch ID>
0072

> <Smiles>
CNC(C)C(=O)NC(C(=O)N1Cc2cc([101O:1][101CH2:1]CCn3ccnc3C(C)C[100NH:0][100C:0](=O)N3CCCC(n4nc(-c5ccc(Oc6ccc(F)cc6F)cc5)c(C(N)=O)c4N)C3)ccc2CC1C(=O)NC1CCCc2ccccc21)C(C)(C)C

> <Shape>
0.231

> <Color>
0.082

> <Negative vol penalty>
0.000

$$$$

  -OEChem-04052318243D

 85 93  0     1  0  0  0  0  0999 V2000
  -16.3634  -29.5693   23.8643 C   0  0  0  0  0  0  0  0  0  0  0  0
  -16.7385  -28.6773   22.8647 C   0  0  0  0  0  0  0  0  0  0  0  0
  -26.9407  -12.9525   21.1424 C   0  0  0  0  0  0  0  0  0  0  0  0
  -26.6355  -13.4878   18.8063 C   0  0  0  0  0  0  0  0  0  0  0  0
  -17.2687  -30.5282   24.3168 C   0  0  0  0  0  0  0  0  0  0  0  0
  -18.0188  -28.7444   22.3164 C   0  0  0  0  0  0  0  0  0  0  0  0
  -21.4378  -24.0539   20.3632 C   0  0  0  0  0  0  0  0  0  0  0  0
  -26.2167  -11.7733   20.9668 C   0  0  0  0  0  0  0  0  0  0  0  0
  -25.9115  -12.3085   18.6307 C   0  0  0  0  0  0  0  0  0  0  0  0
  -21.6698  -23.5271   19.0934 C   0  0  0  0  0  0  0  0  0  0  0  0
  -24.1410   -8.7976   21.2130 C   0  0  0  0  0  0  0  0  0  0  0  0
  -23.1769   -8.4783   22.1691 C   0  0  0  0  0  0  0  0  0  0  0  0
  -23.6912  -24.8331   18.9274 C   0  0  0  0  0  0  0  0  0  0  0  0
  -22.0073  -10.5341   21.6763 C   0  0  0  0  0  0  0  0  0  0  0  0
  -29.7318  -20.1706   16.8962 C   0  0  0  0  0  0  0  0  0  0  0  0
  -27.1501  -13.8098   20.0622 C   0  0  0  0  0  0  0  0  0  0  0  0
  -29.2872  -15.2023   20.1012 C   0  0  0  0  0  0  0  0  0  0  0  0
  -18.5640  -30.6009   23.7805 C   0  0  0  0  0  0  0  0  0  0  0  0
  -22.3266  -24.9841   20.9211 C   0  0  0  0  0  0  0  0  0  0  0  0
  -18.9418  -29.7061   22.7612 C   0  0  0  0  0  0  0  0  0  0  0  0
  -23.4696  -25.3683   20.2055 C   0  0  0  0  0  0  0  0  0  0  0  0
  -25.7022  -11.4513   19.7110 C   0  0  0  0  0  0  0  0  0  0  0  0
  -22.7951  -23.9188   18.3741 C   0  0  0  0  0  0  0  0  0  0  0  0
  -24.0383   -9.9853   20.4886 C   0  0  0  0  0  0  0  0  0  0  0  0
  -22.1100   -9.3465   22.4007 C   0  0  0  0  0  0  0  0  0  0  0  0
  -22.9714  -10.8535   20.7203 C   0  0  0  0  0  0  0  0  0  0  0  0
  -27.8974  -15.0283   20.2431 C   0  0  0  0  0  0  0  0  0  0  0  0
  -28.8145  -20.9692   17.5430 C   0  0  0  0  0  0  0  0  0  0  0  0
  -28.1786  -19.6885   15.2885 C   0  0  0  0  0  0  0  0  0  0  0  0
  -27.2610  -20.4865   15.9356 C   0  0  0  0  0  0  0  0  0  0  0  0
  -29.4969  -16.5312   20.3775 C   0  0  0  0  0  0  0  0  0  0  0  0
  -30.2982  -14.2479   19.7509 C   0  0  0  0  0  0  0  0  0  0  0  0
  -22.1017  -28.0074   21.8765 C   0  0  0  0  0  0  0  0  0  0  0  0
  -25.1328  -27.4972   22.9129 C   0  0  0  0  0  0  0  0  0  0  0  0
  -28.0109  -21.8843   19.7248 C   0  0  0  0  0  0  0  0  0  0  0  0
  -28.0292  -25.7143   22.6320 C   0  0  0  0  0  0  0  0  0  0  0  0
  -19.4920  -31.6851   24.2685 C   0  0  0  0  0  0  0  0  0  0  0  0
  -22.0762  -25.5228   22.3030 C   0  0  0  0  0  0  0  0  0  0  0  0
  -24.4651  -26.3485   20.7681 C   0  0  0  0  0  0  0  0  0  0  0  0
  -20.9538  -31.4477   23.8985 C   0  0  0  0  0  0  0  0  0  0  0  0
  -26.4172  -20.0212   22.3380 C   0  0  0  0  0  0  0  0  0  0  0  0
  -21.0747  -31.0436   22.4326 C   0  0  0  0  0  0  0  0  0  0  0  0
  -26.7490  -18.5690   21.9972 C   0  0  0  0  0  0  0  0  0  0  0  0
  -26.2143  -20.8579   21.0787 C   0  0  0  0  0  0  0  0  0  0  0  0
  -27.6988  -19.3603   19.7844 C   0  0  0  0  0  0  0  0  0  0  0  0
  -20.3299  -29.7313   22.1589 C   0  0  1  0  0  0  0  0  0  0  0  0
  -22.7767  -26.8531   22.5617 C   0  0  1  0  0  0  0  0  0  0  0  0
  -27.9418  -18.4872   21.0282 C   0  0  2  0  0  0  0  0  0  0  0  0
  -29.0322  -18.8178   13.0977 C   0  0  0  0  0  0  0  0  0  0  0  0
  -30.3474  -24.9347   23.1939 C   0  0  0  0  0  0  0  0  0  0  0  0
  -29.8715  -23.0278   18.5253 C   0  0  0  0  0  0  0  0  0  0  0  0
  -25.9573  -29.9718   21.3298 C   0  0  0  0  0  0  0  0  0  0  0  0
  -28.3376  -29.2226   21.5320 C   0  0  0  0  0  0  0  0  0  0  0  0
  -27.0258  -29.7703   23.5819 C   0  0  0  0  0  0  0  0  0  0  0  0
  -27.0098  -23.6543   24.4966 C   0  0  0  0  0  0  0  0  0  0  0  0
  -27.8323  -18.9696   14.0295 C   0  0  0  0  0  0  0  0  0  0  0  0
  -25.8631  -20.6702   15.4007 C   0  0  0  0  0  0  0  0  0  0  0  0
  -24.8951  -21.3075   16.4037 C   0  0  0  0  0  0  0  0  0  0  0  0
  -23.4656  -21.4148   15.8707 C   0  0  0  0  0  0  0  0  0  0  0  0
  -22.5427  -22.0879   16.8775 C   0  0  0  0  0  0  0  0  0  1  0  0
  -26.5085  -27.6476   22.3097 C   0  0  1  0  0  0  0  0  0  0  0  0
  -28.9100  -25.0526   23.6764 C   0  0  2  0  0  0  0  0  0  0  0  0
  -29.1831  -21.6782   18.7989 C   0  0  2  0  0  0  0  0  0  0  0  0
  -26.9377  -29.1361   22.1767 C   0  0  0  0  0  0  0  0  0  0  0  0
  -29.4303  -19.5160   15.7573 N   0  0  0  0  0  0  0  0  0  0  0  0
  -27.2687  -16.1566   20.5833 N   0  0  0  0  0  0  0  0  0  0  0  0
  -27.5626  -21.1415   17.0743 N   0  0  0  0  0  0  0  0  0  0  0  0
  -28.2679  -17.0522   20.6575 N   0  0  0  0  0  0  0  0  0  0  0  0
  -24.1729  -26.8519   22.1204 N   0  0  0  0  0  0  0  0  0  0  0  0
  -27.3589  -20.7358   20.1741 N   0  0  0  0  0  0  0  0  0  0  0  0
  -30.6108  -17.2933   20.4058 N   0  0  0  0  0  0  0  0  0  0  0  0
  -29.9097  -12.9250   19.4992 N   0  0  0  0  0  0  0  0  0  0  0  0
  -21.1057  -28.6028   22.6268 N   0  0  0  0  0  0  0  0  0  0  0  0
  -27.4042  -26.8384   23.1290 N   0  0  0  0  0  0  0  0  0  0  0  0
  -28.4055  -23.6855   23.9888 N   0  3  0  0  0  0  0  0  0  0  0  0
  -31.5122  -14.5553   19.6796 O   0  0  0  0  0  0  0  0  0  0  0  0
  -22.4590  -28.3347   20.7509 O   0  0  0  0  0  0  0  0  0  0  0  0
  -24.9197  -27.9298   24.0483 O   0  0  0  0  0  0  0  0  0  0  0  0
  -27.6876  -23.0324   20.0405 O   0  0  0  0  0  0  0  0  0  0  0  0
  -27.9106  -25.2796   21.4885 O   0  0  0  0  0  0  0  0  0  0  0  0
  -30.0602  -20.8966   19.6315 O   0  0  0  0  0  0  0  0  0  0  0  0
  -24.9958  -10.3005   19.5392 O   0  0  0  0  0  0  0  0  0  0  0  0
  -23.0236  -23.4066   17.1342 O   0  0  0  0  0  0  0  0  0  1  0  0
  -21.1834   -9.0389   23.3178 F   0  0  0  0  0  0  0  0  0  0  0  0
  -22.8668  -11.9953   20.0266 F   0  0  0  0  0  0  0  0  0  0  0  0
  1  2  1  0  0  0  0
  1  5  2  0  0  0  0
  2  6  2  0  0  0  0
  3  8  2  0  0  0  0
  3 16  1  0  0  0  0
  4  9  1  0  0  0  0
  4 16  2  0  0  0  0
  5 18  1  0  0  0  0
  6 20  1  0  0  0  0
  7 10  2  0  0  0  0
  7 19  1  0  0  0  0
  8 22  1  0  0  0  0
  9 22  2  0  0  0  0
 10 23  1  0  0  0  0
 11 12  2  0  0  0  0
 11 24  1  0  0  0  0
 12 25  1  0  0  0  0
 13 21  1  0  0  0  0
 13 23  2  0  0  0  0
 14 25  2  0  0  0  0
 14 26  1  0  0  0  0
 15 28  1  0  0  0  0
 15 65  2  0  0  0  0
 16 27  1  0  0  0  0
 17 27  1  0  0  0  0
 17 31  2  0  0  0  0
 17 32  1  0  0  0  0
 18 20  2  0  0  0  0
 18 37  1  0  0  0  0
 19 21  2  0  0  0  0
 19 38  1  0  0  0  0
 20 46  1  0  0  0  0
 21 39  1  0  0  0  0
 22 82  1  0  0  0  0
 23 83  1  0  0  0  0
 24 26  2  0  0  0  0
 24 82  1  0  0  0  0
 25 84  1  0  0  0  0
 26 85  1  0  0  0  0
 27 66  2  0  0  0  0
 28 63  1  0  0  0  0
 28 67  2  0  0  0  0
 29 30  2  0  0  0  0
 29 56  1  0  0  0  0
 29 65  1  0  0  0  0
 30 57  1  0  0  0  0
 30 67  1  0  0  0  0
 31 68  1  0  0  0  0
 31 71  1  0  0  0  0
 32 72  1  0  0  0  0
 32 76  2  0  0  0  0
 33 47  1  0  0  0  0
 33 73  1  0  0  0  0
 33 77  2  0  0  0  0
 34 61  1  0  0  0  0
 34 69  1  0  0  0  0
 34 78  2  0  0  0  0
 35 63  1  0  0  0  0
 35 70  1  0  0  0  0
 35 79  2  0  0  0  0
 36 62  1  0  0  0  0
 36 74  1  0  0  0  0
 36 80  2  0  0  0  0
 37 40  1  0  0  0  0
 38 47  1  0  0  0  0
 39 69  1  0  0  0  0
 40 42  1  0  0  0  0
 41 43  1  0  0  0  0
 41 44  1  0  0  0  0
 42 46  1  0  0  0  0
 43 48  1  0  0  0  0
 44 70  1  0  0  0  0
 45 48  1  0  0  0  0
 45 70  1  0  0  0  0
 46 73  1  0  0  0  0
 47 69  1  0  0  0  0
 48 68  1  0  0  0  0
 49 56  1  0  0  0  0
 50 62  1  0  0  0  0
 51 63  1  0  0  0  0
 52 64  1  0  0  0  0
 53 64  1  0  0  0  0
 54 64  1  0  0  0  0
 55 75  1  0  0  0  0
 57 58  1  0  0  0  0
 58 59  1  0  0  0  0
 59 60  1  0  0  0  0
 60 83  1  0  0  0  0
 61 64  1  0  0  0  0
 61 74  1  0  0  0  0
 62 75  1  0  0  0  0
 63 81  1  0  0  0  0
 66 68  1  0  0  0  0
M  CHG  1  75   1
M  ISO  4  35 100  60 101  63 100  83 101
M  END
> <Batch ID>
0072

> <Smiles>
CCc1ncc([100C:0](C)(O)[100C:0](=O)N2CCCC(n3nc(-c4ccc(Oc5ccc(F)cc5F)cc4)c(C(N)=O)c3N)C2)nc1CCC[101CH2:1][101O:1]c1ccc2c(c1)CN(C(=O)C(NC(=O)C(C)NC)C(C)(C)C)C(C(=O)NC1CCCc3ccccc31)C2

> <Shape>
0.222

> <Color>
0.080

> <Negative vol penalty>
0.000

$$$$

  -OEChem-04052318243D

 86 94  0     1  0  0  0  0  0999 V2000
  -16.0544  -23.0731   22.1667 C   0  0  0  0  0  0  0  0  0  0  0  0
  -17.3313  -22.5210   22.1761 C   0  0  0  0  0  0  0  0  0  0  0  0
  -29.1273  -23.7669   19.8037 C   0  0  0  0  0  0  0  0  0  0  0  0
  -30.1182  -22.7850   17.8311 C   0  0  0  0  0  0  0  0  0  0  0  0
  -15.8735  -24.4020   21.7854 C   0  0  0  0  0  0  0  0  0  0  0  0
  -18.4280  -23.2971   21.8030 C   0  0  0  0  0  0  0  0  0  0  0  0
  -22.3595  -22.7428   24.9464 C   0  0  0  0  0  0  0  0  0  0  0  0
  -29.7351  -24.9857   19.5024 C   0  0  0  0  0  0  0  0  0  0  0  0
  -30.7260  -24.0038   17.5298 C   0  0  0  0  0  0  0  0  0  0  0  0
  -23.1335  -21.5923   24.8013 C   0  0  0  0  0  0  0  0  0  0  0  0
  -32.7991  -26.3814   19.7999 C   0  0  0  0  0  0  0  0  0  0  0  0
  -33.4237  -27.0681   20.8409 C   0  0  0  0  0  0  0  0  0  0  0  0
  -24.7738  -22.8587   23.5665 C   0  0  0  0  0  0  0  0  0  0  0  0
  -31.9442  -28.9456   20.4900 C   0  0  0  0  0  0  0  0  0  0  0  0
  -26.1202  -11.7362   19.8657 C   0  0  0  0  0  0  0  0  0  0  0  0
  -24.4641  -12.4903   21.2508 C   0  0  0  0  0  0  0  0  0  0  0  0
  -29.3189  -22.6666   18.9681 C   0  0  0  0  0  0  0  0  0  0  0  0
  -27.4225  -20.9636   18.8621 C   0  0  0  0  0  0  0  0  0  0  0  0
  -16.9698  -25.1976   21.4167 C   0  0  0  0  0  0  0  0  0  0  0  0
  -22.7824  -23.9596   24.3923 C   0  0  0  0  0  0  0  0  0  0  0  0
  -18.2615  -24.6374   21.4151 C   0  0  0  0  0  0  0  0  0  0  0  0
  -24.0047  -24.0238   23.7082 C   0  0  0  0  0  0  0  0  0  0  0  0
  -30.5345  -25.1042   18.3654 C   0  0  0  0  0  0  0  0  0  0  0  0
  -24.3394  -21.6495   24.1088 C   0  0  0  0  0  0  0  0  0  0  0  0
  -31.7471  -26.9767   19.1038 C   0  0  0  0  0  0  0  0  0  0  0  0
  -32.9962  -28.3502   21.1861 C   0  0  0  0  0  0  0  0  0  0  0  0
  -31.3196  -28.2589   19.4489 C   0  0  0  0  0  0  0  0  0  0  0  0
  -28.6918  -21.4072   19.2791 C   0  0  0  0  0  0  0  0  0  0  0  0
  -26.7454  -12.9609   19.9464 C   0  0  0  0  0  0  0  0  0  0  0  0
  -25.0897  -13.7149   21.3321 C   0  0  0  0  0  0  0  0  0  0  0  0
  -27.2952  -19.7145   19.4188 C   0  0  0  0  0  0  0  0  0  0  0  0
  -26.4459  -21.6219   18.0444 C   0  0  0  0  0  0  0  0  0  0  0  0
  -21.6285  -25.9448   22.1943 C   0  0  0  0  0  0  0  0  0  0  0  0
  -24.1196  -27.8021   23.1255 C   0  0  0  0  0  0  0  0  0  0  0  0
  -27.2168  -27.9961   24.5455 C   0  0  0  0  0  0  0  0  0  0  0  0
  -29.4022  -14.6935   20.6415 C   0  0  0  0  0  0  0  0  0  0  0  0
  -16.7192  -26.6151   20.9666 C   0  0  0  0  0  0  0  0  0  0  0  0
  -21.9489  -25.1975   24.5807 C   0  0  0  0  0  0  0  0  0  0  0  0
  -24.5131  -25.3101   23.1120 C   0  0  0  0  0  0  0  0  0  0  0  0
  -17.9777  -27.4788   20.9452 C   0  0  0  0  0  0  0  0  0  0  0  0
  -30.1137  -17.3567   22.8949 C   0  0  0  0  0  0  0  0  0  0  0  0
  -19.1255  -26.7332   20.2719 C   0  0  0  0  0  0  0  0  0  0  0  0
  -29.7085  -18.6109   22.1185 C   0  0  0  0  0  0  0  0  0  0  0  0
  -30.7297  -16.3008   21.9796 C   0  0  0  0  0  0  0  0  0  0  0  0
  -29.4988  -17.1879   20.0376 C   0  0  0  0  0  0  0  0  0  0  0  0
  -19.4791  -25.4545   21.0408 C   0  0  1  0  0  0  0  0  0  0  0  0
  -22.2279  -26.2708   23.5330 C   0  0  1  0  0  0  0  0  0  0  0  0
  -28.8214  -18.2594   20.9090 C   0  0  2  0  0  0  0  0  0  0  0  0
  -29.0137  -29.6456   25.1353 C   0  0  0  0  0  0  0  0  0  0  0  0
  -26.8836  -14.0123   17.0446 C   0  0  0  0  0  0  0  0  0  0  0  0
  -29.2763  -13.3112   16.9883 C   0  0  0  0  0  0  0  0  0  0  0  0
  -24.9456  -27.9475   20.1918 C   0  0  0  0  0  0  0  0  0  0  0  0
  -27.1917  -28.7646   20.9369 C   0  0  0  0  0  0  0  0  0  0  0  0
  -25.1488  -30.1045   21.4409 C   0  0  0  0  0  0  0  0  0  0  0  0
  -27.0154  -27.3605   27.4290 C   0  0  0  0  0  0  0  0  0  0  0  0
  -25.1963  -18.2816   23.0847 C   0  0  0  0  0  0  0  0  0  0  0  0
  -24.4841  -16.9365   22.9931 C   0  0  0  0  0  0  0  0  0  0  0  0
  -24.4063  -19.2796   23.9209 C   0  0  0  0  0  0  0  0  0  1  0  0
  -25.2519  -15.9521   22.1223 C   0  0  0  0  0  0  0  0  0  0  0  0
  -28.0173  -13.2098   19.2133 C   0  0  1  0  0  0  0  0  0  0  0  0
  -25.5602  -27.9507   22.6995 C   0  0  1  0  0  0  0  0  0  0  0  0
  -27.7758  -28.9085   25.6223 C   0  0  2  0  0  0  0  0  0  0  0  0
  -27.9192  -13.0592   17.6585 C   0  0  0  0  0  0  0  0  0  0  0  0
  -25.7013  -28.6670   21.3267 C   0  0  0  0  0  0  0  0  0  0  0  0
  -24.9682  -11.4789   20.5164 N   0  0  0  0  0  0  0  0  0  0  0  0
  -29.3255  -20.5126   20.0421 N   0  0  0  0  0  0  0  0  0  0  0  0
  -26.2415  -13.9723   20.6811 N   0  0  0  0  0  0  0  0  0  0  0  0
  -28.4508  -19.4945   20.1090 N   0  0  0  0  0  0  0  0  0  0  0  0
  -23.6593  -26.4917   23.3175 N   0  0  0  0  0  0  0  0  0  0  0  0
  -29.8380  -16.0118   20.8539 N   0  0  0  0  0  0  0  0  0  0  0  0
  -26.3086  -18.7939   19.3806 N   0  0  0  0  0  0  0  0  0  0  0  0
  -26.7379  -22.9022   17.5547 N   0  0  0  0  0  0  0  0  0  0  0  0
  -20.2577  -25.7719   22.2187 N   0  0  0  0  0  0  0  0  0  0  0  0
  -26.2434  -28.6248   23.7982 N   0  0  0  0  0  0  0  0  0  0  0  0
  -28.5542  -14.5077   19.5566 N   0  0  0  0  0  0  0  0  0  0  0  0
  -28.1446  -28.1182   26.8308 N   0  3  0  0  0  0  0  0  0  0  0  0
  -25.3400  -21.0971   17.7700 O   0  0  0  0  0  0  0  0  0  0  0  0
  -22.3556  -25.8581   21.2117 O   0  0  0  0  0  0  0  0  0  0  0  0
  -23.4301  -28.8118   23.2891 O   0  0  0  0  0  0  0  0  0  0  0  0
  -27.6073  -26.8424   24.3813 O   0  0  0  0  0  0  0  0  0  0  0  0
  -29.7392  -13.7527   21.3683 O   0  0  0  0  0  0  0  0  0  0  0  0
  -31.1275  -26.2933   18.0710 O   0  0  0  0  0  0  0  0  0  0  0  0
  -25.0965  -20.5278   23.9651 O   0  0  0  0  0  0  0  0  0  1  0  0
  -24.5461  -14.7193   22.0901 O   0  0  0  0  0  0  0  0  0  0  0  0
  -33.5951  -29.0090   22.1868 F   0  0  0  0  0  0  0  0  0  0  0  0
  -30.3087  -28.8355   18.7846 F   0  0  0  0  0  0  0  0  0  0  0  0
  1  2  1  0  0  0  0
  1  5  2  0  0  0  0
  2  6  2  0  0  0  0
  3  8  2  0  0  0  0
  3 17  1  0  0  0  0
  4  9  1  0  0  0  0
  4 17  2  0  0  0  0
  5 19  1  0  0  0  0
  6 21  1  0  0  0  0
  7 10  2  0  0  0  0
  7 20  1  0  0  0  0
  8 23  1  0  0  0  0
  9 23  2  0  0  0  0
 10 24  1  0  0  0  0
 11 12  2  0  0  0  0
 11 25  1  0  0  0  0
 12 26  1  0  0  0  0
 13 22  1  0  0  0  0
 13 24  2  0  0  0  0
 14 26  2  0  0  0  0
 14 27  1  0  0  0  0
 15 29  2  0  0  0  0
 15 65  1  0  0  0  0
 16 30  1  0  0  0  0
 16 65  2  0  0  0  0
 17 28  1  0  0  0  0
 18 28  1  0  0  0  0
 18 31  2  0  0  0  0
 18 32  1  0  0  0  0
 19 21  2  0  0  0  0
 19 37  1  0  0  0  0
 20 22  2  0  0  0  0
 20 38  1  0  0  0  0
 21 46  1  0  0  0  0
 22 39  1  0  0  0  0
 23 82  1  0  0  0  0
 24 83  1  0  0  0  0
 25 27  2  0  0  0  0
 25 82  1  0  0  0  0
 26 85  1  0  0  0  0
 27 86  1  0  0  0  0
 28 66  2  0  0  0  0
 29 60  1  0  0  0  0
 29 67  1  0  0  0  0
 30 67  2  0  0  0  0
 30 84  1  0  0  0  0
 31 68  1  0  0  0  0
 31 71  1  0  0  0  0
 32 72  1  0  0  0  0
 32 77  2  0  0  0  0
 33 47  1  0  0  0  0
 33 73  1  0  0  0  0
 33 78  2  0  0  0  0
 34 61  1  0  0  0  0
 34 69  1  0  0  0  0
 34 79  2  0  0  0  0
 35 62  1  0  0  0  0
 35 74  1  0  0  0  0
 35 80  2  0  0  0  0
 36 70  1  0  0  0  0
 36 75  1  0  0  0  0
 36 81  2  0  0  0  0
 37 40  1  0  0  0  0
 38 47  1  0  0  0  0
 39 69  1  0  0  0  0
 40 42  1  0  0  0  0
 41 43  1  0  0  0  0
 41 44  1  0  0  0  0
 42 46  1  0  0  0  0
 43 48  1  0  0  0  0
 44 70  1  0  0  0  0
 45 48  1  0  0  0  0
 45 70  1  0  0  0  0
 46 73  1  0  0  0  0
 47 69  1  0  0  0  0
 48 68  1  0  0  0  0
 49 62  1  0  0  0  0
 50 63  1  0  0  0  0
 51 63  1  0  0  0  0
 52 64  1  0  0  0  0
 53 64  1  0  0  0  0
 54 64  1  0  0  0  0
 55 76  1  0  0  0  0
 56 57  1  0  0  0  0
 56 58  1  0  0  0  0
 57 59  1  0  0  0  0
 58 83  1  0  0  0  0
 59 84  1  0  0  0  0
 60 63  1  0  0  0  0
 60 75  1  0  0  0  0
 61 64  1  0  0  0  0
 61 74  1  0  0  0  0
 62 76  1  0  0  0  0
 66 68  1  0  0  0  0
M  CHG  1  76   1
M  ISO  4  36 100  58 101  75 100  83 101
M  END
> <Batch ID>
0072

> <Smiles>
CNC(C)C(=O)NC(C(=O)N1Cc2cc([101O:1][101CH2:1]CCCOc3cncc(C([100NH:0][100C:0](=O)N4CCCC(n5nc(-c6ccc(Oc7ccc(F)cc7F)cc6)c(C(N)=O)c5N)C4)C(C)C)n3)ccc2CC1C(=O)NC1CCCc2ccccc21)C(C)(C)C

> <Shape>
0.239

> <Color>
0.063

> <Negative vol penalty>
0.000

$$$$

  -OEChem-04052318243D

 84 92  0     1  0  0  0  0  0999 V2000
  -16.2233  -28.9107   23.6801 C   0  0  0  0  0  0  0  0  0  0  0  0
  -17.0407  -28.3997   22.6770 C   0  0  0  0  0  0  0  0  0  0  0  0
  -26.7402  -12.9841   20.6867 C   0  0  0  0  0  0  0  0  0  0  0  0
  -25.3340  -14.5237   19.4664 C   0  0  0  0  0  0  0  0  0  0  0  0
  -16.7277  -29.8514   24.5771 C   0  0  0  0  0  0  0  0  0  0  0  0
  -18.3627  -28.8301   22.5696 C   0  0  0  0  0  0  0  0  0  0  0  0
  -23.1873  -25.4972   20.8030 C   0  0  0  0  0  0  0  0  0  0  0  0
  -25.8643  -11.9423   20.3818 C   0  0  0  0  0  0  0  0  0  0  0  0
  -24.4581  -13.4819   19.1614 C   0  0  0  0  0  0  0  0  0  0  0  0
  -23.8506  -25.3809   19.5822 C   0  0  0  0  0  0  0  0  0  0  0  0
  -23.8095   -8.9461   20.2269 C   0  0  0  0  0  0  0  0  0  0  0  0
  -23.4593   -8.0695   21.2539 C   0  0  0  0  0  0  0  0  0  0  0  0
  -25.4733  -27.0082   20.3158 C   0  0  0  0  0  0  0  0  0  0  0  0
  -27.3163  -23.2704   19.5925 C   0  0  0  0  0  0  0  0  0  0  0  0
  -22.5316   -9.9127   22.5107 C   0  0  0  0  0  0  0  0  0  0  0  0
  -26.4750  -14.2748   20.2291 C   0  0  0  0  0  0  0  0  0  0  0  0
  -28.4926  -15.7739   19.7936 C   0  0  0  0  0  0  0  0  0  0  0  0
  -18.0594  -30.2863   24.4866 C   0  0  0  0  0  0  0  0  0  0  0  0
  -23.6566  -26.3794   21.7868 C   0  0  0  0  0  0  0  0  0  0  0  0
  -18.8850  -29.7785   23.4654 C   0  0  0  0  0  0  0  0  0  0  0  0
  -24.8156  -27.1319   21.5492 C   0  0  0  0  0  0  0  0  0  0  0  0
  -27.9205  -22.7074   20.7028 C   0  0  0  0  0  0  0  0  0  0  0  0
  -24.7233  -12.1911   19.6191 C   0  0  0  0  0  0  0  0  0  0  0  0
  -24.9921  -26.1386   19.3373 C   0  0  0  0  0  0  0  0  0  0  0  0
  -23.5209  -10.3059   20.3418 C   0  0  0  0  0  0  0  0  0  0  0  0
  -22.8204   -8.5528   22.3957 C   0  0  0  0  0  0  0  0  0  0  0  0
  -22.8819  -10.7892   21.4837 C   0  0  0  0  0  0  0  0  0  0  0  0
  -27.3791  -15.3516   20.5443 C   0  0  0  0  0  0  0  0  0  0  0  0
  -28.0405  -23.3202   18.4184 C   0  0  0  0  0  0  0  0  0  0  0  0
  -29.2089  -22.2311   20.5655 C   0  0  0  0  0  0  0  0  0  0  0  0
  -29.0141  -16.8215   20.5127 C   0  0  0  0  0  0  0  0  0  0  0  0
  -29.0093  -15.2649   18.5569 C   0  0  0  0  0  0  0  0  0  0  0  0
  -22.4784  -28.9474   23.2432 C   0  0  0  0  0  0  0  0  0  0  0  0
  -25.1825  -28.7009   25.0179 C   0  0  0  0  0  0  0  0  0  0  0  0
  -28.3975  -27.5817   25.2594 C   0  0  0  0  0  0  0  0  0  0  0  0
  -26.2090  -20.3780   24.6383 C   0  0  0  0  0  0  0  0  0  0  0  0
  -18.5460  -31.3400   25.4498 C   0  0  0  0  0  0  0  0  0  0  0  0
  -22.9450  -26.4735   23.1086 C   0  0  0  0  0  0  0  0  0  0  0  0
  -25.3718  -28.0785   22.5802 C   0  0  0  0  0  0  0  0  0  0  0  0
  -20.0666  -31.4645   25.4991 C   0  0  0  0  0  0  0  0  0  0  0  0
  -29.3831  -18.5029   24.9705 C   0  0  0  0  0  0  0  0  0  0  0  0
  -20.6455  -31.4985   24.0882 C   0  0  0  0  0  0  0  0  0  0  0  0
  -29.2803  -17.4724   23.8473 C   0  0  0  0  0  0  0  0  0  0  0  0
  -28.0088  -18.9179   25.4869 C   0  0  0  0  0  0  0  0  0  0  0  0
  -26.9861  -18.3775   23.3015 C   0  0  0  0  0  0  0  0  0  0  0  0
  -20.3316  -30.2021   23.3317 C   0  0  1  0  0  0  0  0  0  0  0  0
  -23.2167  -27.7835   23.8416 C   0  0  1  0  0  0  0  0  0  0  0  0
  -28.3520  -17.9727   22.7270 C   0  0  2  0  0  0  0  0  0  0  0  0
  -29.9240  -21.6123   21.7187 C   0  0  0  0  0  0  0  0  0  0  0  0
  -30.3658  -27.5648   26.8159 C   0  0  0  0  0  0  0  0  0  0  0  0
  -25.7581  -31.6144   24.3177 C   0  0  0  0  0  0  0  0  0  0  0  0
  -28.1192  -31.2559   25.0694 C   0  0  0  0  0  0  0  0  0  0  0  0
  -26.2424  -30.9969   26.6922 C   0  0  0  0  0  0  0  0  0  0  0  0
  -24.9291  -22.2929   23.7581 C   0  0  0  0  0  0  0  0  0  0  0  0
  -28.3983  -24.6261   25.4127 C   0  0  0  0  0  0  0  0  0  0  0  0
  -27.1823  -22.6285   21.9942 C   0  0  0  0  0  0  0  0  0  0  0  0
  -27.4288  -23.9240   17.1795 C   0  0  0  0  0  0  0  0  0  0  0  0
  -27.6819  -25.4264   17.0372 C   0  0  0  0  0  0  0  0  0  0  0  0
  -26.6090  -21.2371   22.2921 C   0  0  0  0  0  0  0  0  0  0  0  0
  -27.0501  -26.2533   18.1510 C   0  0  0  0  0  0  0  0  0  1  0  0
  -26.5877  -29.2412   24.9060 C   0  0  1  0  0  0  0  0  0  0  0  0
  -29.1200  -26.8227   26.3577 C   0  0  2  0  0  0  0  0  0  0  0  0
  -26.6655  -30.7608   25.2259 C   0  0  0  0  0  0  0  0  0  0  0  0
  -27.2029  -16.0719   21.6552 N   0  0  0  0  0  0  0  0  0  0  0  0
  -29.3001  -22.8464   18.3128 N   0  0  0  0  0  0  0  0  0  0  0  0
  -29.8938  -22.2927   19.4040 N   0  0  0  0  0  0  0  0  0  0  0  0
  -28.2127  -16.9574   21.6079 N   0  0  0  0  0  0  0  0  0  0  0  0
  -24.6370  -28.1399   23.8545 N   0  0  0  0  0  0  0  0  0  0  0  0
  -27.1328  -19.3480   24.3966 N   0  0  0  0  0  0  0  0  0  0  0  0
  -30.0755  -17.6304   20.3087 N   0  0  0  0  0  0  0  0  0  0  0  0
  -28.3522  -14.1845   17.9525 N   0  0  0  0  0  0  0  0  0  0  0  0
  -21.2129  -29.1387   23.7641 N   0  0  0  0  0  0  0  0  0  0  0  0
  -27.4162  -28.4058   25.7685 N   0  0  0  0  0  0  0  0  0  0  0  0
  -25.8739  -21.2039   23.5546 N   0  0  0  0  0  0  0  0  0  0  0  0
  -29.5281  -25.4738   25.8730 N   0  3  0  0  0  0  0  0  0  0  0  0
  -30.0333  -15.7430   18.0124 O   0  0  0  0  0  0  0  0  0  0  0  0
  -23.0176  -29.6228   22.3744 O   0  0  0  0  0  0  0  0  0  0  0  0
  -24.5934  -28.7674   26.0996 O   0  0  0  0  0  0  0  0  0  0  0  0
  -28.6782  -27.4588   24.0692 O   0  0  0  0  0  0  0  0  0  0  0  0
  -25.7192  -20.5556   25.7610 O   0  0  0  0  0  0  0  0  0  0  0  0
  -23.8685  -11.1747   19.3211 O   0  0  0  0  0  0  0  0  0  0  0  0
  -25.6411  -26.0275   18.1464 O   0  0  0  0  0  0  0  0  0  1  0  0
  -22.4827   -7.7107   23.3812 F   0  0  0  0  0  0  0  0  0  0  0  0
  -22.6009  -12.0944   21.5993 F   0  0  0  0  0  0  0  0  0  0  0  0
  1  2  1  0  0  0  0
  1  5  2  0  0  0  0
  2  6  2  0  0  0  0
  3  8  2  0  0  0  0
  3 16  1  0  0  0  0
  4  9  1  0  0  0  0
  4 16  2  0  0  0  0
  5 18  1  0  0  0  0
  6 20  1  0  0  0  0
  7 10  2  0  0  0  0
  7 19  1  0  0  0  0
  8 23  1  0  0  0  0
  9 23  2  0  0  0  0
 10 24  1  0  0  0  0
 11 12  2  0  0  0  0
 11 25  1  0  0  0  0
 12 26  1  0  0  0  0
 13 21  1  0  0  0  0
 13 24  2  0  0  0  0
 14 22  2  0  0  0  0
 14 29  1  0  0  0  0
 15 26  2  0  0  0  0
 15 27  1  0  0  0  0
 16 28  1  0  0  0  0
 17 28  1  0  0  0  0
 17 31  2  0  0  0  0
 17 32  1  0  0  0  0
 18 20  2  0  0  0  0
 18 37  1  0  0  0  0
 19 21  2  0  0  0  0
 19 38  1  0  0  0  0
 20 46  1  0  0  0  0
 21 39  1  0  0  0  0
 22 30  1  0  0  0  0
 22 56  1  0  0  0  0
 23 81  1  0  0  0  0
 24 82  1  0  0  0  0
 25 27  2  0  0  0  0
 25 81  1  0  0  0  0
 26 83  1  0  0  0  0
 27 84  1  0  0  0  0
 28 64  2  0  0  0  0
 29 57  1  0  0  0  0
 29 65  2  0  0  0  0
 30 49  1  0  0  0  0
 30 66  2  0  0  0  0
 31 67  1  0  0  0  0
 31 70  1  0  0  0  0
 32 71  1  0  0  0  0
 32 76  2  0  0  0  0
 33 47  1  0  0  0  0
 33 72  1  0  0  0  0
 33 77  2  0  0  0  0
 34 61  1  0  0  0  0
 34 68  1  0  0  0  0
 34 78  2  0  0  0  0
 35 62  1  0  0  0  0
 35 73  1  0  0  0  0
 35 79  2  0  0  0  0
 36 69  1  0  0  0  0
 36 74  1  0  0  0  0
 36 80  2  0  0  0  0
 37 40  1  0  0  0  0
 38 47  1  0  0  0  0
 39 68  1  0  0  0  0
 40 42  1  0  0  0  0
 41 43  1  0  0  0  0
 41 44  1  0  0  0  0
 42 46  1  0  0  0  0
 43 48  1  0  0  0  0
 44 69  1  0  0  0  0
 45 48  1  0  0  0  0
 45 69  1  0  0  0  0
 46 72  1  0  0  0  0
 47 68  1  0  0  0  0
 48 67  1  0  0  0  0
 50 62  1  0  0  0  0
 51 63  1  0  0  0  0
 52 63  1  0  0  0  0
 53 63  1  0  0  0  0
 54 74  1  0  0  0  0
 55 75  1  0  0  0  0
 56 59  1  0  0  0  0
 57 58  1  0  0  0  0
 58 60  1  0  0  0  0
 59 74  1  0  0  0  0
 60 82  1  0  0  0  0
 61 63  1  0  0  0  0
 61 73  1  0  0  0  0
 62 75  1  0  0  0  0
 64 67  1  0  0  0  0
 65 66  1  0  0  0  0
M  CHG  1  75   1
M  ISO  4  36 100  60 101  74 100  82 101
M  END
> <Batch ID>
0072

> <Smiles>
CNC(C)C(=O)NC(C(=O)N1Cc2cc([101O:1][101CH2:1]CCc3cc(CC[100N:0](C)[100C:0](=O)N4CCCC(n5nc(-c6ccc(Oc7ccc(F)cc7F)cc6)c(C(N)=O)c5N)C4)c(C)nn3)ccc2CC1C(=O)NC1CCCc2ccccc21)C(C)(C)C

> <Shape>
0.238

> <Color>
0.103

> <Negative vol penalty>
0.000

$$$$

  -OEChem-04052318243D

 83 91  0     1  0  0  0  0  0999 V2000
  -34.5839  -30.1678   12.4366 C   0  0  0  0  0  0  0  0  0  0  0  0
  -34.8608  -29.0783   13.2562 C   0  0  0  0  0  0  0  0  0  0  0  0
  -23.0239   -9.9344   19.9625 C   0  0  0  0  0  0  0  0  0  0  0  0
  -23.7818   -9.9339   22.2566 C   0  0  0  0  0  0  0  0  0  0  0  0
  -33.4495  -30.9439   12.6703 C   0  0  0  0  0  0  0  0  0  0  0  0
  -34.0039  -28.7649   14.3107 C   0  0  0  0  0  0  0  0  0  0  0  0
  -32.6249  -23.1744   16.3966 C   0  0  0  0  0  0  0  0  0  0  0  0
  -31.2815  -18.7903   18.1949 C   0  0  0  0  0  0  0  0  0  0  0  0
  -22.2625   -8.7931   20.2138 C   0  0  0  0  0  0  0  0  0  0  0  0
  -23.0204   -8.7926   22.5079 C   0  0  0  0  0  0  0  0  0  0  0  0
  -33.1045  -22.4305   17.4737 C   0  0  0  0  0  0  0  0  0  0  0  0
  -23.2616   -5.4656   21.9566 C   0  0  0  0  0  0  0  0  0  0  0  0
  -23.8609   -4.4324   22.6769 C   0  0  0  0  0  0  0  0  0  0  0  0
  -30.1491  -18.3540   17.5162 C   0  0  0  0  0  0  0  0  0  0  0  0
  -31.2503  -23.1906   18.8166 C   0  0  0  0  0  0  0  0  0  0  0  0
  -22.1608   -4.6347   24.3816 C   0  0  0  0  0  0  0  0  0  0  0  0
  -23.7836  -10.5048   20.9839 C   0  0  0  0  0  0  0  0  0  0  0  0
  -24.1636  -13.0243   20.8597 C   0  0  0  0  0  0  0  0  0  0  0  0
  -32.5731  -30.6340   13.7222 C   0  0  0  0  0  0  0  0  0  0  0  0
  -31.4583  -23.9420   16.5249 C   0  0  0  0  0  0  0  0  0  0  0  0
  -32.8574  -29.5383   14.5594 C   0  0  0  0  0  0  0  0  0  0  0  0
  -30.7565  -23.9413   17.7389 C   0  0  0  0  0  0  0  0  0  0  0  0
  -31.5089  -18.3679   19.4999 C   0  0  0  0  0  0  0  0  0  0  0  0
  -22.2607   -8.2222   21.4865 C   0  0  0  0  0  0  0  0  0  0  0  0
  -32.4188  -22.4407   18.6849 C   0  0  0  0  0  0  0  0  0  0  0  0
  -22.1119   -6.0835   22.4488 C   0  0  0  0  0  0  0  0  0  0  0  0
  -23.3106   -4.0169   23.8894 C   0  0  0  0  0  0  0  0  0  0  0  0
  -21.5615   -5.6680   23.6613 C   0  0  0  0  0  0  0  0  0  0  0  0
  -24.5708  -11.6835   20.7247 C   0  0  0  0  0  0  0  0  0  0  0  0
  -29.2818  -17.5027   18.1818 C   0  0  0  0  0  0  0  0  0  0  0  0
  -30.5807  -17.5161   20.0768 C   0  0  0  0  0  0  0  0  0  0  0  0
  -25.2673  -13.7566   20.4961 C   0  0  0  0  0  0  0  0  0  0  0  0
  -22.9007  -13.5600   21.2766 C   0  0  0  0  0  0  0  0  0  0  0  0
  -30.7768  -27.0396   16.3145 C   0  0  0  0  0  0  0  0  0  0  0  0
  -30.7854  -14.6265   20.7847 C   0  0  0  0  0  0  0  0  0  0  0  0
  -27.7235  -25.9908   16.6304 C   0  0  0  0  0  0  0  0  0  0  0  0
  -25.5940  -23.5597   17.7265 C   0  0  0  0  0  0  0  0  0  0  0  0
  -31.3846  -31.5304   13.9648 C   0  0  0  0  0  0  0  0  0  0  0  0
  -30.9393  -24.7178   15.3455 C   0  0  0  0  0  0  0  0  0  0  0  0
  -29.4882  -24.7327   17.9220 C   0  0  0  0  0  0  0  0  0  0  0  0
  -30.3271  -30.9074   14.8726 C   0  0  0  0  0  0  0  0  0  0  0  0
  -29.5882  -12.3434   18.2959 C   0  0  0  0  0  0  0  0  0  0  0  0
  -30.9800  -30.2791   16.0997 C   0  0  0  0  0  0  0  0  0  0  0  0
  -28.1529  -12.0550   18.7341 C   0  0  0  0  0  0  0  0  0  0  0  0
  -30.5106  -12.5342   19.4958 C   0  0  0  0  0  0  0  0  0  0  0  0
  -28.6174  -13.3001   20.8926 C   0  0  0  0  0  0  0  0  0  0  0  0
  -31.9387  -29.1516   15.6981 C   0  0  1  0  0  0  0  0  0  0  0  0
  -30.0237  -25.8708   15.7448 C   0  0  1  0  0  0  0  0  0  0  0  0
  -27.6463  -13.1311   19.7107 C   0  0  2  0  0  0  0  0  0  0  0  0
  -28.0574  -17.0136   17.4828 C   0  0  0  0  0  0  0  0  0  0  0  0
  -30.4184  -15.1655   23.1574 C   0  0  0  0  0  0  0  0  0  0  0  0
  -23.1520  -23.0020   17.8785 C   0  0  0  0  0  0  0  0  0  0  0  0
  -27.4232  -27.9496   18.9505 C   0  0  0  0  0  0  0  0  0  0  0  0
  -25.3665  -26.7026   19.6458 C   0  0  0  0  0  0  0  0  0  0  0  0
  -25.4468  -27.8313   17.4227 C   0  0  0  0  0  0  0  0  0  0  0  0
  -25.9236  -21.1401   16.0543 C   0  0  0  0  0  0  0  0  0  0  0  0
  -32.7345  -18.8386   20.2415 C   0  0  0  0  0  0  0  0  0  0  0  0
  -30.7747  -17.0276   21.4748 C   0  0  0  0  0  0  0  0  0  0  0  0
  -32.4473  -19.9281   21.2769 C   0  0  0  0  0  0  0  0  0  0  0  0
  -31.9191  -21.2197   20.6636 C   0  0  0  0  0  0  0  0  0  1  0  0
  -30.1716  -15.6316   21.7265 C   0  0  1  0  0  0  0  0  0  0  0  0
  -26.7986  -25.7273   17.7941 C   0  0  1  0  0  0  0  0  0  0  0  0
  -24.4222  -22.8685   17.0530 C   0  0  2  0  0  0  0  0  0  0  0  0
  -26.2837  -27.0392   18.4507 C   0  0  0  0  0  0  0  0  0  0  0  0
  -25.8344  -11.5679   20.3078 N   0  0  0  0  0  0  0  0  0  0  0  0
  -29.4691  -17.0710   19.4492 N   0  0  0  0  0  0  0  0  0  0  0  0
  -26.2308  -12.8454   20.1775 N   0  0  0  0  0  0  0  0  0  0  0  0
  -29.0245  -25.4800   16.7413 N   0  0  0  0  0  0  0  0  0  0  0  0
  -29.9832  -13.5483   20.4107 N   0  0  0  0  0  0  0  0  0  0  0  0
  -25.4978  -15.0846   20.4210 N   0  0  0  0  0  0  0  0  0  0  0  0
  -21.8749  -12.6668   21.6146 N   0  0  0  0  0  0  0  0  0  0  0  0
  -31.1986  -27.9528   15.3671 N   0  0  0  0  0  0  0  0  0  0  0  0
  -25.7421  -24.8582   17.2871 N   0  0  0  0  0  0  0  0  0  0  0  0
  -24.7125  -21.4184   16.8685 N   0  3  0  0  0  0  0  0  0  0  0  0
  -22.6830  -14.7941   21.3316 O   0  0  0  0  0  0  0  0  0  0  0  0
  -30.9603  -27.1084   17.5241 O   0  0  0  0  0  0  0  0  0  0  0  0
  -31.9423  -14.7979   20.3919 O   0  0  0  0  0  0  0  0  0  0  0  0
  -27.3048  -26.6203   15.6557 O   0  0  0  0  0  0  0  0  0  0  0  0
  -26.3043  -23.0044   18.5617 O   0  0  0  0  0  0  0  0  0  0  0  0
  -21.5176   -7.1086   21.7322 O   0  0  0  0  0  0  0  0  0  0  0  0
  -32.8852  -21.7160   19.7380 O   0  0  0  0  0  0  0  0  0  1  0  0
  -23.8853   -3.0237   24.5802 F   0  0  0  0  0  0  0  0  0  0  0  0
  -20.4565   -6.2569   24.1387 F   0  0  0  0  0  0  0  0  0  0  0  0
  1  2  1  0  0  0  0
  1  5  2  0  0  0  0
  2  6  2  0  0  0  0
  3  9  2  0  0  0  0
  3 17  1  0  0  0  0
  4 10  1  0  0  0  0
  4 17  2  0  0  0  0
  5 19  1  0  0  0  0
  6 21  1  0  0  0  0
  7 11  2  0  0  0  0
  7 20  1  0  0  0  0
  8 14  2  0  0  0  0
  8 23  1  0  0  0  0
  9 24  1  0  0  0  0
 10 24  2  0  0  0  0
 11 25  1  0  0  0  0
 12 13  2  0  0  0  0
 12 26  1  0  0  0  0
 13 27  1  0  0  0  0
 14 30  1  0  0  0  0
 15 22  1  0  0  0  0
 15 25  2  0  0  0  0
 16 27  2  0  0  0  0
 16 28  1  0  0  0  0
 17 29  1  0  0  0  0
 18 29  1  0  0  0  0
 18 32  2  0  0  0  0
 18 33  1  0  0  0  0
 19 21  2  0  0  0  0
 19 38  1  0  0  0  0
 20 22  2  0  0  0  0
 20 39  1  0  0  0  0
 21 47  1  0  0  0  0
 22 40  1  0  0  0  0
 23 31  2  0  0  0  0
 23 57  1  0  0  0  0
 24 80  1  0  0  0  0
 25 81  1  0  0  0  0
 26 28  2  0  0  0  0
 26 80  1  0  0  0  0
 27 82  1  0  0  0  0
 28 83  1  0  0  0  0
 29 65  2  0  0  0  0
 30 50  1  0  0  0  0
 30 66  2  0  0  0  0
 31 58  1  0  0  0  0
 31 66  1  0  0  0  0
 32 67  1  0  0  0  0
 32 70  1  0  0  0  0
 33 71  1  0  0  0  0
 33 75  2  0  0  0  0
 34 48  1  0  0  0  0
 34 72  1  0  0  0  0
 34 76  2  0  0  0  0
 35 61  1  0  0  0  0
 35 69  1  0  0  0  0
 35 77  2  0  0  0  0
 36 62  1  0  0  0  0
 36 68  1  0  0  0  0
 36 78  2  0  0  0  0
 37 63  1  0  0  0  0
 37 73  1  0  0  0  0
 37 79  2  0  0  0  0
 38 41  1  0  0  0  0
 39 48  1  0  0  0  0
 40 68  1  0  0  0  0
 41 43  1  0  0  0  0
 42 44  1  0  0  0  0
 42 45  1  0  0  0  0
 43 47  1  0  0  0  0
 44 49  1  0  0  0  0
 45 69  1  0  0  0  0
 46 49  1  0  0  0  0
 46 69  1  0  0  0  0
 47 72  1  0  0  0  0
 48 68  1  0  0  0  0
 49 67  1  0  0  0  0
 51 61  1  0  0  0  0
 52 63  1  0  0  0  0
 53 64  1  0  0  0  0
 54 64  1  0  0  0  0
 55 64  1  0  0  0  0
 56 74  1  0  0  0  0
 57 59  1  0  0  0  0
 58 61  1  0  0  0  0
 59 60  1  0  0  0  0
 60 81  1  0  0  0  0
 62 64  1  0  0  0  0
 62 73  1  0  0  0  0
 63 74  1  0  0  0  0
 65 67  1  0  0  0  0
M  CHG  1  74   1
M  ISO  4  35 100  60 101  61 100  81 101
M  END
> <Batch ID>
0072

> <Smiles>
CNC(C)C(=O)NC(C(=O)N1Cc2cc([101O:1][101CH2:1]CCc3ccc(C)nc3C[100CH:0](C)[100C:0](=O)N3CCCC(n4nc(-c5ccc(Oc6ccc(F)cc6F)cc5)c(C(N)=O)c4N)C3)ccc2CC1C(=O)NC1CCCc2ccccc21)C(C)(C)C

> <Shape>
0.241

> <Color>
0.206

> <Negative vol penalty>
0.000

$$$$

  -OEChem-04052318243D

 93101  0     1  0  0  0  0  0999 V2000
  -27.5844  -35.0457   21.9910 C   0  0  0  0  0  0  0  0  0  0  0  0
  -27.6482  -33.7130   21.5968 C   0  0  0  0  0  0  0  0  0  0  0  0
  -24.3796   -9.4046   21.3351 C   0  0  0  0  0  0  0  0  0  0  0  0
  -24.9541  -10.4026   23.4590 C   0  0  0  0  0  0  0  0  0  0  0  0
  -26.6432  -35.4470   22.9381 C   0  0  0  0  0  0  0  0  0  0  0  0
  -26.7715  -32.7806   22.1503 C   0  0  0  0  0  0  0  0  0  0  0  0
  -24.3084  -27.9256   19.3453 C   0  0  0  0  0  0  0  0  0  0  0  0
  -24.0516   -8.2139   21.9833 C   0  0  0  0  0  0  0  0  0  0  0  0
  -24.6260   -9.2119   24.1073 C   0  0  0  0  0  0  0  0  0  0  0  0
  -24.6490  -26.5737   19.3383 C   0  0  0  0  0  0  0  0  0  0  0  0
  -22.7194   -5.0273   23.1173 C   0  0  0  0  0  0  0  0  0  0  0  0
  -21.5371   -4.3892   22.7424 C   0  0  0  0  0  0  0  0  0  0  0  0
  -23.0286  -26.1626   21.0773 C   0  0  0  0  0  0  0  0  0  0  0  0
  -20.2754   -6.3435   23.3950 C   0  0  0  0  0  0  0  0  0  0  0  0
  -24.8309  -10.4989   22.0730 C   0  0  0  0  0  0  0  0  0  0  0  0
  -24.3134  -12.8111   21.1275 C   0  0  0  0  0  0  0  0  0  0  0  0
  -25.7480  -34.5209   23.4964 C   0  0  0  0  0  0  0  0  0  0  0  0
  -23.3314  -28.4089   20.2276 C   0  0  0  0  0  0  0  0  0  0  0  0
  -25.8183  -33.1697   23.1068 C   0  0  0  0  0  0  0  0  0  0  0  0
  -22.6755  -27.5206   21.0918 C   0  0  0  0  0  0  0  0  0  0  0  0
  -24.1747   -8.1175   23.3694 C   0  0  0  0  0  0  0  0  0  0  0  0
  -24.0111  -25.6924   20.2064 C   0  0  0  0  0  0  0  0  0  0  0  0
  -22.6797   -6.3234   23.6312 C   0  0  0  0  0  0  0  0  0  0  0  0
  -20.3151   -5.0473   22.8812 C   0  0  0  0  0  0  0  0  0  0  0  0
  -21.4577   -6.9815   23.7700 C   0  0  0  0  0  0  0  0  0  0  0  0
  -25.1705  -11.7290   21.4039 C   0  0  0  0  0  0  0  0  0  0  0  0
  -30.5786  -19.2617   22.5451 C   0  0  0  0  0  0  0  0  0  0  0  0
  -29.7752  -19.3947   21.4373 C   0  0  0  0  0  0  0  0  0  0  0  0
  -25.1110  -13.7250   20.4832 C   0  0  0  0  0  0  0  0  0  0  0  0
  -29.9735  -17.2844   22.0406 C   0  0  0  0  0  0  0  0  0  0  0  0
  -22.9208  -12.9754   21.4264 C   0  0  0  0  0  0  0  0  0  0  0  0
  -23.3065  -30.5042   22.6177 C   0  0  0  0  0  0  0  0  0  0  0  0
  -20.1104  -29.9538   22.5506 C   0  0  0  0  0  0  0  0  0  0  0  0
  -17.5484  -27.8570   21.7220 C   0  0  0  0  0  0  0  0  0  0  0  0
  -31.2136  -14.2420   20.6548 C   0  0  0  0  0  0  0  0  0  0  0  0
  -24.7794  -34.9929   24.5516 C   0  0  0  0  0  0  0  0  0  0  0  0
  -22.9564  -29.8653   20.2041 C   0  0  0  0  0  0  0  0  0  0  0  0
  -21.6054  -27.9855   22.0442 C   0  0  0  0  0  0  0  0  0  0  0  0
  -23.6382  -34.0132   24.8129 C   0  0  0  0  0  0  0  0  0  0  0  0
  -28.9873  -14.0290   17.7052 C   0  0  0  0  0  0  0  0  0  0  0  0
  -24.1761  -32.5929   24.9551 C   0  0  0  0  0  0  0  0  0  0  0  0
  -27.7081  -13.4378   18.2954 C   0  0  0  0  0  0  0  0  0  0  0  0
  -30.2245  -13.5982   18.4871 C   0  0  0  0  0  0  0  0  0  0  0  0
  -28.8699  -13.3010   20.5342 C   0  0  0  0  0  0  0  0  0  0  0  0
  -24.8679  -32.1333   23.6660 C   0  0  1  0  0  0  0  0  0  0  0  0
  -22.3119  -30.3374   21.5038 C   0  0  1  0  0  0  0  0  0  0  0  0
  -27.6002  -13.7532   19.7975 C   0  0  2  0  0  0  0  0  0  0  0  0
  -29.2196  -20.8416   24.8656 C   0  0  0  0  0  0  0  0  0  0  0  0
  -33.3985  -20.3481   21.7748 C   0  0  0  0  0  0  0  0  0  0  0  0
  -29.1095  -15.2678   23.2849 C   0  0  0  0  0  0  0  0  0  0  0  0
  -15.0484  -27.6650   21.8246 C   0  0  0  0  0  0  0  0  0  0  0  0
  -27.2435  -17.0760   20.5222 C   0  0  0  0  0  0  0  0  0  0  0  0
  -29.2670  -16.8407   19.0202 C   0  0  0  0  0  0  0  0  0  0  0  0
  -32.1235  -19.8280   24.5442 C   0  0  0  0  0  0  0  0  0  0  0  0
  -20.2839  -29.3179   25.5298 C   0  0  0  0  0  0  0  0  0  0  0  0
  -18.0303  -28.2405   25.3599 C   0  0  0  0  0  0  0  0  0  0  0  0
  -18.2887  -30.6721   24.8666 C   0  0  0  0  0  0  0  0  0  0  0  0
  -32.1619  -15.5161   22.5408 C   0  0  0  0  0  0  0  0  0  0  0  0
  -17.3236  -27.6996   18.7752 C   0  0  0  0  0  0  0  0  0  0  0  0
  -29.3361  -20.6052   20.6523 C   0  0  0  0  0  0  0  0  0  0  0  0
  -30.2649  -21.4039   23.9059 C   0  0  0  0  0  0  0  0  0  0  0  0
  -32.2801  -21.1658   22.4153 C   0  0  0  0  0  0  0  0  0  0  0  0
  -27.9110  -21.0689   20.9744 C   0  0  0  0  0  0  0  0  0  0  0  0
  -27.5116  -22.3437   20.2246 C   0  0  0  0  0  0  0  0  0  0  0  0
  -26.0760  -22.7512   20.5518 C   0  0  0  0  0  0  0  0  0  0  0  0
  -25.6831  -24.0403   19.8443 C   0  0  0  0  0  0  0  0  0  1  0  0
  -29.7725  -15.8210   22.0085 C   0  0  2  0  0  0  0  0  0  0  0  0
  -19.1804  -28.9720   23.2214 C   0  0  1  0  0  0  0  0  0  0  0  0
  -16.2416  -28.1036   20.9899 C   0  0  2  0  0  0  0  0  0  0  0  0
  -28.5372  -17.7280   20.0304 C   0  0  0  0  0  0  0  0  0  0  0  0
  -31.2669  -20.3152   23.3079 C   0  0  0  0  0  0  0  0  0  0  0  0
  -18.9673  -29.2919   24.7280 C   0  0  0  0  0  0  0  0  0  0  0  0
  -26.4170  -11.9349   20.9705 N   0  0  0  0  0  0  0  0  0  0  0  0
  -30.6983  -17.9456   22.9155 N   0  0  0  0  0  0  0  0  0  0  0  0
  -29.3955  -18.1197   21.1254 N   0  0  0  0  0  0  0  0  0  0  0  0
  -26.3490  -13.1568   20.4153 N   0  0  0  0  0  0  0  0  0  0  0  0
  -21.2785  -29.4199   21.9880 N   0  0  0  0  0  0  0  0  0  0  0  0
  -30.0775  -13.8700   19.9174 N   0  0  0  0  0  0  0  0  0  0  0  0
  -24.8671  -14.9511   19.9738 N   0  0  0  0  0  0  0  0  0  0  0  0
  -22.2537  -11.9386   22.0931 N   0  0  0  0  0  0  0  0  0  0  0  0
  -23.8858  -31.7576   22.6717 N   0  0  0  0  0  0  0  0  0  0  0  0
  -17.9534  -28.9674   22.4322 N   0  0  0  0  0  0  0  0  0  0  0  0
  -31.0134  -15.0931   21.7521 N   0  0  0  0  0  0  0  0  0  0  0  0
  -16.2181  -27.3504   19.7042 N   0  3  0  0  0  0  0  0  0  0  0  0
  -22.2829  -14.0040   21.0970 O   0  0  0  0  0  0  0  0  0  0  0  0
  -23.5306  -29.5657   23.3732 O   0  0  0  0  0  0  0  0  0  0  0  0
  -19.8081  -31.1494   22.5204 O   0  0  0  0  0  0  0  0  0  0  0  0
  -18.1479  -26.7853   21.6721 O   0  0  0  0  0  0  0  0  0  0  0  0
  -32.3437  -13.8441   20.3440 O   0  0  0  0  0  0  0  0  0  0  0  0
  -23.8544   -6.9559   24.0023 O   0  0  0  0  0  0  0  0  0  0  0  0
  -24.3422  -24.3725   20.2020 O   0  0  0  0  0  0  0  0  0  1  0  0
  -19.1800   -4.4350   22.5196 F   0  0  0  0  0  0  0  0  0  0  0  0
  -21.4134   -8.2273   24.2620 F   0  0  0  0  0  0  0  0  0  0  0  0
  1  2  1  0  0  0  0
  1  5  2  0  0  0  0
  2  6  2  0  0  0  0
  3  8  2  0  0  0  0
  3 15  1  0  0  0  0
  4  9  1  0  0  0  0
  4 15  2  0  0  0  0
  5 17  1  0  0  0  0
  6 19  1  0  0  0  0
  7 10  2  0  0  0  0
  7 18  1  0  0  0  0
  8 21  1  0  0  0  0
  9 21  2  0  0  0  0
 10 22  1  0  0  0  0
 11 12  2  0  0  0  0
 11 23  1  0  0  0  0
 12 24  1  0  0  0  0
 13 20  1  0  0  0  0
 13 22  2  0  0  0  0
 14 24  2  0  0  0  0
 14 25  1  0  0  0  0
 15 26  1  0  0  0  0
 16 26  1  0  0  0  0
 16 29  2  0  0  0  0
 16 31  1  0  0  0  0
 17 19  2  0  0  0  0
 17 36  1  0  0  0  0
 18 20  2  0  0  0  0
 18 37  1  0  0  0  0
 19 45  1  0  0  0  0
 20 38  1  0  0  0  0
 21 90  1  0  0  0  0
 22 91  1  0  0  0  0
 23 25  2  0  0  0  0
 23 90  1  0  0  0  0
 24 92  1  0  0  0  0
 25 93  1  0  0  0  0
 26 73  2  0  0  0  0
 27 28  2  0  0  0  0
 27 71  1  0  0  0  0
 27 74  1  0  0  0  0
 28 60  1  0  0  0  0
 28 75  1  0  0  0  0
 29 76  1  0  0  0  0
 29 79  1  0  0  0  0
 30 67  1  0  0  0  0
 30 74  2  0  0  0  0
 30 75  1  0  0  0  0
 31 80  1  0  0  0  0
 31 85  2  0  0  0  0
 32 46  1  0  0  0  0
 32 81  1  0  0  0  0
 32 86  2  0  0  0  0
 33 68  1  0  0  0  0
 33 77  1  0  0  0  0
 33 87  2  0  0  0  0
 34 69  1  0  0  0  0
 34 82  1  0  0  0  0
 34 88  2  0  0  0  0
 35 78  1  0  0  0  0
 35 83  1  0  0  0  0
 35 89  2  0  0  0  0
 36 39  1  0  0  0  0
 37 46  1  0  0  0  0
 38 77  1  0  0  0  0
 39 41  1  0  0  0  0
 40 42  1  0  0  0  0
 40 43  1  0  0  0  0
 41 45  1  0  0  0  0
 42 47  1  0  0  0  0
 43 78  1  0  0  0  0
 44 47  1  0  0  0  0
 44 78  1  0  0  0  0
 45 81  1  0  0  0  0
 46 77  1  0  0  0  0
 47 76  1  0  0  0  0
 48 61  1  0  0  0  0
 49 62  1  0  0  0  0
 50 67  1  0  0  0  0
 51 69  1  0  0  0  0
 52 70  1  0  0  0  0
 53 70  1  0  0  0  0
 54 71  1  0  0  0  0
 55 72  1  0  0  0  0
 56 72  1  0  0  0  0
 57 72  1  0  0  0  0
 58 83  1  0  0  0  0
 59 84  1  0  0  0  0
 60 63  1  0  0  0  0
 61 71  1  0  0  0  0
 62 71  1  0  0  0  0
 63 64  1  0  0  0  0
 64 65  1  0  0  0  0
 65 66  1  0  0  0  0
 66 91  1  0  0  0  0
 67 83  1  0  0  0  0
 68 72  1  0  0  0  0
 68 82  1  0  0  0  0
 69 84  1  0  0  0  0
 70 75  1  0  0  0  0
 73 76  1  0  0  0  0
M  CHG  1  84   1
M  ISO  4  35 100  66 101  83 100  91 101
M  END
> <Batch ID>
0072

> <Smiles>
CCC(C)(CC)c1nc(C(C)[100N:0](C)[100C:0](=O)N2CCCC(n3nc(-c4ccc(Oc5ccc(F)cc5F)cc4)c(C(N)=O)c3N)C2)n(C(C)C)c1CCCC[101CH2:1][101O:1]c1ccc2c(c1)CN(C(=O)C(NC(=O)C(C)NC)C(C)(C)C)C(C(=O)NC1CCCc3ccccc31)C2

> <Shape>
0.360

> <Color>
0.105

> <Negative vol penalty>
0.000

$$$$

  -OEChem-04052318243D

 87 95  0     1  0  0  0  0  0999 V2000
  -17.2367  -30.2175   24.0650 C   0  0  0  0  0  0  0  0  0  0  0  0
  -18.5725  -30.6043   24.0994 C   0  0  0  0  0  0  0  0  0  0  0  0
  -23.7367  -14.1475   21.2364 C   0  0  0  0  0  0  0  0  0  0  0  0
  -25.9182  -14.1657   22.2745 C   0  0  0  0  0  0  0  0  0  0  0  0
  -16.8854  -28.9745   23.5400 C   0  0  0  0  0  0  0  0  0  0  0  0
  -19.5581  -29.7479   23.6098 C   0  0  0  0  0  0  0  0  0  0  0  0
  -25.9113  -29.8597   20.3021 C   0  0  0  0  0  0  0  0  0  0  0  0
  -23.9498  -12.8362   20.8113 C   0  0  0  0  0  0  0  0  0  0  0  0
  -26.1314  -12.8544   21.8495 C   0  0  0  0  0  0  0  0  0  0  0  0
  -27.2029  -29.3515   20.4332 C   0  0  0  0  0  0  0  0  0  0  0  0
  -23.8346   -9.7337   22.1507 C   0  0  0  0  0  0  0  0  0  0  0  0
  -22.7951   -8.8196   22.3222 C   0  0  0  0  0  0  0  0  0  0  0  0
  -26.4709  -27.2613   19.4768 C   0  0  0  0  0  0  0  0  0  0  0  0
  -29.0014  -25.7729   23.2119 C   0  0  0  0  0  0  0  0  0  0  0  0
  -30.1722  -24.5061   21.5359 C   0  0  0  0  0  0  0  0  0  0  0  0
  -22.7322   -8.4435   19.9364 C   0  0  0  0  0  0  0  0  0  0  0  0
  -24.7209  -14.8123   21.9679 C   0  0  0  0  0  0  0  0  0  0  0  0
  -23.9211  -16.5843   23.6196 C   0  0  0  0  0  0  0  0  0  0  0  0
  -17.8661  -28.1064   23.0349 C   0  0  0  0  0  0  0  0  0  0  0  0
  -24.8855  -29.0675   19.7666 C   0  0  0  0  0  0  0  0  0  0  0  0
  -19.2197  -28.4916   23.0788 C   0  0  0  0  0  0  0  0  0  0  0  0
  -25.1677  -27.7627   19.3377 C   0  0  0  0  0  0  0  0  0  0  0  0
  -29.9004  -25.7224   22.1525 C   0  0  0  0  0  0  0  0  0  0  0  0
  -25.1472  -12.1896   21.1179 C   0  0  0  0  0  0  0  0  0  0  0  0
  -27.4822  -28.0511   20.0232 C   0  0  0  0  0  0  0  0  0  0  0  0
  -24.3229  -10.0028   20.8720 C   0  0  0  0  0  0  0  0  0  0  0  0
  -22.2439   -8.1744   21.2151 C   0  0  0  0  0  0  0  0  0  0  0  0
  -23.7717   -9.3577   19.7649 C   0  0  0  0  0  0  0  0  0  0  0  0
  -24.5015  -16.1670   22.4068 C   0  0  0  0  0  0  0  0  0  0  0  0
  -28.4053  -24.5884   23.6137 C   0  0  0  0  0  0  0  0  0  0  0  0
  -29.5239  -23.3783   22.0129 C   0  0  0  0  0  0  0  0  0  0  0  0
  -23.9410  -17.9562   23.5557 C   0  0  0  0  0  0  0  0  0  0  0  0
  -23.4098  -15.8018   24.7067 C   0  0  0  0  0  0  0  0  0  0  0  0
  -22.1194  -27.9422   20.8557 C   0  0  0  0  0  0  0  0  0  0  0  0
  -21.7683  -26.9368   17.7917 C   0  0  0  0  0  0  0  0  0  0  0  0
  -27.4134  -21.7800   20.4845 C   0  0  0  0  0  0  0  0  0  0  0  0
  -23.2456  -26.0592   14.8431 C   0  0  0  0  0  0  0  0  0  0  0  0
  -17.4427  -26.7533   22.5206 C   0  0  0  0  0  0  0  0  0  0  0  0
  -23.5036  -29.6397   19.6073 C   0  0  0  0  0  0  0  0  0  0  0  0
  -24.1065  -26.8783   18.7376 C   0  0  0  0  0  0  0  0  0  0  0  0
  -18.5108  -26.0601   21.6788 C   0  0  0  0  0  0  0  0  0  0  0  0
  -23.8367  -21.5688   20.4322 C   0  0  0  0  0  0  0  0  0  0  0  0
  -19.8697  -26.1429   22.3668 C   0  0  0  0  0  0  0  0  0  0  0  0
  -23.5502  -20.1862   21.0165 C   0  0  0  0  0  0  0  0  0  0  0  0
  -25.1144  -21.5690   19.5988 C   0  0  0  0  0  0  0  0  0  0  0  0
  -26.0333  -19.6871   20.9163 C   0  0  0  0  0  0  0  0  0  0  0  0
  -20.3152  -27.6006   22.5346 C   0  0  1  0  0  0  0  0  0  0  0  0
  -22.4198  -28.5693   19.5237 C   0  0  1  0  0  0  0  0  0  0  0  0
  -24.7674  -19.6501   21.7907 C   0  0  2  0  0  0  0  0  0  0  0  0
  -27.4340  -24.6049   24.7464 C   0  0  0  0  0  0  0  0  0  0  0  0
  -22.7012  -25.2459   12.5324 C   0  0  0  0  0  0  0  0  0  0  0  0
  -31.5609  -26.7802   20.4783 C   0  0  0  0  0  0  0  0  0  0  0  0
  -31.4276  -27.6047   22.8192 C   0  0  0  0  0  0  0  0  0  0  0  0
  -30.9636  -21.2737   22.0159 C   0  0  0  0  0  0  0  0  0  0  0  0
  -21.2510  -24.1415   18.9001 C   0  0  0  0  0  0  0  0  0  0  0  0
  -21.6599  -23.2311   16.6040 C   0  0  0  0  0  0  0  0  0  0  0  0
  -19.7637  -24.8025   17.0012 C   0  0  0  0  0  0  0  0  0  0  0  0
  -24.4392  -28.4606   13.5910 C   0  0  0  0  0  0  0  0  0  0  0  0
  -29.5337  -28.0547   21.2262 C   0  0  0  0  0  0  0  0  0  1  0  0
  -22.1323  -25.6862   17.0285 C   0  0  1  0  0  0  0  0  0  0  0  0
  -22.9511  -26.4627   13.4096 C   0  0  2  0  0  0  0  0  0  0  0  0
  -30.5917  -27.0088   21.6631 C   0  0  0  0  0  0  0  0  0  0  0  0
  -29.7932  -22.0559   21.3761 C   0  0  1  0  0  0  0  0  0  0  0  0
  -28.5296  -21.1625   21.2887 C   0  0  0  0  0  0  0  0  0  0  0  0
  -21.2215  -24.4811   17.3965 C   0  0  0  0  0  0  0  0  0  0  0  0
  -24.8635  -17.1909   21.6292 N   0  0  0  0  0  0  0  0  0  0  0  0
  -28.6443  -23.3881   23.0395 N   0  0  0  0  0  0  0  0  0  0  0  0
  -24.5096  -18.2652   22.3551 N   0  0  0  0  0  0  0  0  0  0  0  0
  -22.7695  -27.4811   18.6085 N   0  0  0  0  0  0  0  0  0  0  0  0
  -26.2423  -21.0320   20.3622 N   0  0  0  0  0  0  0  0  0  0  0  0
  -23.5273  -18.9162   24.4098 N   0  0  0  0  0  0  0  0  0  0  0  0
  -23.4670  -14.4048   24.6093 N   0  0  0  0  0  0  0  0  0  0  0  0
  -20.8175  -28.1230   21.2819 N   0  0  0  0  0  0  0  0  0  0  0  0
  -22.1033  -26.0475   15.6153 N   0  0  0  0  0  0  0  0  0  0  0  0
  -24.0981  -27.2251   12.8400 N   0  3  0  0  0  0  0  0  0  0  0  0
  -22.9018  -16.3258   25.7270 O   0  0  0  0  0  0  0  0  0  0  0  0
  -23.0031  -27.3377   21.4518 O   0  0  0  0  0  0  0  0  0  0  0  0
  -20.6395  -27.4173   17.6621 O   0  0  0  0  0  0  0  0  0  0  0  0
  -27.5782  -22.8952   19.9832 O   0  0  0  0  0  0  0  0  0  0  0  0
  -24.3754  -25.7787   15.2374 O   0  0  0  0  0  0  0  0  0  0  0  0
  -25.3554  -10.9100   20.7035 O   0  0  0  0  0  0  0  0  0  0  0  0
  -28.7419  -27.5523   20.1506 O   0  0  0  0  0  0  0  0  0  1  0  0
  -21.2467   -7.2955   21.3801 F   0  0  0  0  0  0  0  0  0  0  0  0
  -24.2374   -9.6112   18.5342 F   0  0  0  0  0  0  0  0  0  0  0  0
  -30.1936  -22.2033   20.0524 F   0  0  0  0  0  0  0  0  0  0  0  0
  -28.8871  -19.9654   20.7460 F   0  0  0  0  0  0  0  0  0  0  0  0
  -28.0858  -20.8774   22.5454 F   0  0  0  0  0  0  0  0  0  0  0  0
  1  2  1  0  0  0  0
  1  5  2  0  0  0  0
  2  6  2  0  0  0  0
  3  8  2  0  0  0  0
  3 17  1  0  0  0  0
  4  9  1  0  0  0  0
  4 17  2  0  0  0  0
  5 19  1  0  0  0  0
  6 21  1  0  0  0  0
  7 10  2  0  0  0  0
  7 20  1  0  0  0  0
  8 24  1  0  0  0  0
  9 24  2  0  0  0  0
 10 25  1  0  0  0  0
 11 12  2  0  0  0  0
 11 26  1  0  0  0  0
 12 27  1  0  0  0  0
 13 22  1  0  0  0  0
 13 25  2  0  0  0  0
 14 23  1  0  0  0  0
 14 30  2  0  0  0  0
 15 23  2  0  0  0  0
 15 31  1  0  0  0  0
 16 27  2  0  0  0  0
 16 28  1  0  0  0  0
 17 29  1  0  0  0  0
 18 29  1  0  0  0  0
 18 32  2  0  0  0  0
 18 33  1  0  0  0  0
 19 21  2  0  0  0  0
 19 38  1  0  0  0  0
 20 22  2  0  0  0  0
 20 39  1  0  0  0  0
 21 47  1  0  0  0  0
 22 40  1  0  0  0  0
 23 62  1  0  0  0  0
 24 81  1  0  0  0  0
 25 82  1  0  0  0  0
 26 28  2  0  0  0  0
 26 81  1  0  0  0  0
 27 83  1  0  0  0  0
 28 84  1  0  0  0  0
 29 66  2  0  0  0  0
 30 50  1  0  0  0  0
 30 67  1  0  0  0  0
 31 63  1  0  0  0  0
 31 67  2  0  0  0  0
 32 68  1  0  0  0  0
 32 71  1  0  0  0  0
 33 72  1  0  0  0  0
 33 76  2  0  0  0  0
 34 48  1  0  0  0  0
 34 73  1  0  0  0  0
 34 77  2  0  0  0  0
 35 60  1  0  0  0  0
 35 69  1  0  0  0  0
 35 78  2  0  0  0  0
 36 64  1  0  0  0  0
 36 70  1  0  0  0  0
 36 79  2  0  0  0  0
 37 61  1  0  0  0  0
 37 74  1  0  0  0  0
 37 80  2  0  0  0  0
 38 41  1  0  0  0  0
 39 48  1  0  0  0  0
 40 69  1  0  0  0  0
 41 43  1  0  0  0  0
 42 44  1  0  0  0  0
 42 45  1  0  0  0  0
 43 47  1  0  0  0  0
 44 49  1  0  0  0  0
 45 70  1  0  0  0  0
 46 49  1  0  0  0  0
 46 70  1  0  0  0  0
 47 73  1  0  0  0  0
 48 69  1  0  0  0  0
 49 68  1  0  0  0  0
 51 61  1  0  0  0  0
 52 62  1  0  0  0  0
 53 62  1  0  0  0  0
 54 63  1  0  0  0  0
 55 65  1  0  0  0  0
 56 65  1  0  0  0  0
 57 65  1  0  0  0  0
 58 75  1  0  0  0  0
 59 62  1  0  0  0  0
 59 82  1  0  0  0  0
 60 65  1  0  0  0  0
 60 74  1  0  0  0  0
 61 75  1  0  0  0  0
 63 64  1  0  0  0  0
 63 85  1  0  0  0  0
 64 86  1  0  0  0  0
 64 87  1  0  0  0  0
 66 68  1  0  0  0  0
M  CHG  1  75   1
M  ISO  4  36 100  59 101  64 100  82 101
M  END
> <Batch ID>
0072

> <Smiles>
CNC(C)C(=O)NC(C(=O)N1Cc2cc([101O:1][101CH2:1]C(C)(C)c3cc(C)nc(C(C)(F)[100C:0](F)(F)[100C:0](=O)N4CCCC(n5nc(-c6ccc(Oc7ccc(F)cc7F)cc6)c(C(N)=O)c5N)C4)c3)ccc2CC1C(=O)NC1CCCc2ccccc21)C(C)(C)C

> <Shape>
0.232

> <Color>
0.088

> <Negative vol penalty>
0.000

$$$$

  -OEChem-04052318243D

 82 90  0     1  0  0  0  0  0999 V2000
  -27.4292  -25.2167   14.8695 C   0  0  0  0  0  0  0  0  0  0  0  0
  -26.2267  -25.3971   15.5454 C   0  0  0  0  0  0  0  0  0  0  0  0
  -28.3486  -16.2280   22.1626 C   0  0  0  0  0  0  0  0  0  0  0  0
  -26.0606  -16.8324   21.6759 C   0  0  0  0  0  0  0  0  0  0  0  0
  -28.6383  -25.3876   15.5425 C   0  0  0  0  0  0  0  0  0  0  0  0
  -26.2326  -25.7476   16.8951 C   0  0  0  0  0  0  0  0  0  0  0  0
  -22.2260  -29.3761   19.7739 C   0  0  0  0  0  0  0  0  0  0  0  0
  -27.9494  -14.9143   22.4084 C   0  0  0  0  0  0  0  0  0  0  0  0
  -25.6613  -15.5187   21.9217 C   0  0  0  0  0  0  0  0  0  0  0  0
  -21.1080  -29.1009   20.5600 C   0  0  0  0  0  0  0  0  0  0  0  0
  -25.6973  -12.5594   20.2901 C   0  0  0  0  0  0  0  0  0  0  0  0
  -24.8126  -11.9726   19.3854 C   0  0  0  0  0  0  0  0  0  0  0  0
  -22.4582  -29.3213   22.5468 C   0  0  0  0  0  0  0  0  0  0  0  0
  -23.2063  -11.6554   21.1621 C   0  0  0  0  0  0  0  0  0  0  0  0
  -19.4521  -23.9929   23.2523 C   0  0  0  0  0  0  0  0  0  0  0  0
  -27.4043  -17.1870   21.7964 C   0  0  0  0  0  0  0  0  0  0  0  0
  -28.7321  -18.9871   20.5700 C   0  0  0  0  0  0  0  0  0  0  0  0
  -28.6590  -25.7499   16.8986 C   0  0  0  0  0  0  0  0  0  0  0  0
  -23.4730  -29.6156   20.3689 C   0  0  0  0  0  0  0  0  0  0  0  0
  -27.4431  -25.9223   17.5871 C   0  0  0  0  0  0  0  0  0  0  0  0
  -23.5900  -29.6018   21.7661 C   0  0  0  0  0  0  0  0  0  0  0  0
  -26.6057  -14.5596   22.2880 C   0  0  0  0  0  0  0  0  0  0  0  0
  -21.2246  -29.0707   21.9466 C   0  0  0  0  0  0  0  0  0  0  0  0
  -25.3366  -12.6942   21.6308 C   0  0  0  0  0  0  0  0  0  0  0  0
  -23.5671  -11.5206   19.8214 C   0  0  0  0  0  0  0  0  0  0  0  0
  -24.0911  -12.2422   22.0668 C   0  0  0  0  0  0  0  0  0  0  0  0
  -27.8160  -18.5443   21.5428 C   0  0  0  0  0  0  0  0  0  0  0  0
  -20.0436  -25.2275   23.3310 C   0  0  0  0  0  0  0  0  0  0  0  0
  -28.7766  -20.3499   20.7353 C   0  0  0  0  0  0  0  0  0  0  0  0
  -21.7397  -24.4612   22.0520 C   0  0  0  0  0  0  0  0  0  0  0  0
  -29.4763  -18.2339   19.6032 C   0  0  0  0  0  0  0  0  0  0  0  0
  -26.3136  -28.1922   20.2751 C   0  0  0  0  0  0  0  0  0  0  0  0
  -27.2248  -30.7618   22.0327 C   0  0  0  0  0  0  0  0  0  0  0  0
  -26.3366  -33.2825   24.1549 C   0  0  0  0  0  0  0  0  0  0  0  0
  -24.8887  -24.3146   22.9751 C   0  0  0  0  0  0  0  0  0  0  0  0
  -29.9904  -25.8771   17.5957 C   0  0  0  0  0  0  0  0  0  0  0  0
  -24.6637  -29.9372   19.5080 C   0  0  0  0  0  0  0  0  0  0  0  0
  -24.9019  -29.8722   22.4548 C   0  0  0  0  0  0  0  0  0  0  0  0
  -29.9114  -26.6151   18.9296 C   0  0  0  0  0  0  0  0  0  0  0  0
  -28.2273  -23.7373   24.0692 C   0  0  0  0  0  0  0  0  0  0  0  0
  -28.7441  -26.0921   19.7607 C   0  0  0  0  0  0  0  0  0  0  0  0
  -28.5831  -22.3809   23.4580 C   0  0  0  0  0  0  0  0  0  0  0  0
  -26.7651  -23.7933   24.5060 C   0  0  0  0  0  0  0  0  0  0  0  0
  -26.1472  -22.0794   22.8464 C   0  0  0  0  0  0  0  0  0  0  0  0
  -27.4084  -26.3270   19.0449 C   0  0  1  0  0  0  0  0  0  0  0  0
  -25.9943  -29.6585   20.2001 C   0  0  1  0  0  0  0  0  0  0  0  0
  -27.5970  -21.9938   22.3395 C   0  0  2  0  0  0  0  0  0  0  0  0
  -22.9587  -24.4879   19.8441 C   0  0  0  0  0  0  0  0  0  0  0  0
  -27.3066  -35.1996   25.4515 C   0  0  0  0  0  0  0  0  0  0  0  0
  -28.3470  -28.8027   24.0851 C   0  0  0  0  0  0  0  0  0  0  0  0
  -28.4266  -30.6844   25.7346 C   0  0  0  0  0  0  0  0  0  0  0  0
  -29.7907  -30.7977   23.6492 C   0  0  0  0  0  0  0  0  0  0  0  0
  -24.6842  -35.2570   22.6955 C   0  0  0  0  0  0  0  0  0  0  0  0
  -19.3922  -26.3408   24.1120 C   0  0  0  0  0  0  0  0  0  0  0  0
  -18.4389  -27.2011   23.2797 C   0  0  0  0  0  0  0  0  0  0  0  0
  -19.1344  -27.9550   22.1522 C   0  0  0  0  0  0  0  0  0  1  0  0
  -23.0400  -24.6963   21.3639 C   0  0  2  0  0  0  0  0  0  0  0  0
  -27.2826  -31.0827   23.5067 C   0  0  1  0  0  0  0  0  0  0  0  0
  -26.6572  -34.7663   24.1464 C   0  0  2  0  0  0  0  0  0  0  0  0
  -28.4373  -30.3348   24.2311 C   0  0  0  0  0  0  0  0  0  0  0  0
  -20.0295  -22.9947   22.5595 N   0  0  0  0  0  0  0  0  0  0  0  0
  -27.3148  -19.5447   22.2723 N   0  0  0  0  0  0  0  0  0  0  0  0
  -21.2119  -25.4931   22.7271 N   0  0  0  0  0  0  0  0  0  0  0  0
  -21.2053  -23.2291   21.9405 N   0  0  0  0  0  0  0  0  0  0  0  0
  -27.9181  -20.6296   21.7575 N   0  0  0  0  0  0  0  0  0  0  0  0
  -26.0384  -30.1756   21.5694 N   0  0  0  0  0  0  0  0  0  0  0  0
  -25.8824  -23.4169   23.3992 N   0  0  0  0  0  0  0  0  0  0  0  0
  -29.4660  -21.3243   20.1045 N   0  0  0  0  0  0  0  0  0  0  0  0
  -28.9024  -18.0112   18.3441 N   0  0  0  0  0  0  0  0  0  0  0  0
  -27.0002  -27.7091   19.1775 N   0  0  0  0  0  0  0  0  0  0  0  0
  -27.3576  -32.5363   23.6053 N   0  0  0  0  0  0  0  0  0  0  0  0
  -24.0997  -23.8821   21.9162 N   0  0  0  0  0  0  0  0  0  0  0  0
  -25.4132  -35.5639   23.9530 N   0  3  0  0  0  0  0  0  0  0  0  0
  -30.6095  -17.7582   19.8543 O   0  0  0  0  0  0  0  0  0  0  0  0
  -25.9643  -27.5472   21.2567 O   0  0  0  0  0  0  0  0  0  0  0  0
  -28.1938  -31.0282   21.3173 O   0  0  0  0  0  0  0  0  0  0  0  0
  -25.2872  -32.8303   24.6074 O   0  0  0  0  0  0  0  0  0  0  0  0
  -24.7208  -25.4217   23.4976 O   0  0  0  0  0  0  0  0  0  0  0  0
  -26.2158  -13.2778   22.5275 O   0  0  0  0  0  0  0  0  0  0  0  0
  -20.1350  -28.8017   22.7163 O   0  0  0  0  0  0  0  0  0  1  0  0
  -22.7170  -10.9584   18.9523 F   0  0  0  0  0  0  0  0  0  0  0  0
  -23.7385  -12.3701   23.3533 F   0  0  0  0  0  0  0  0  0  0  0  0
  1  2  1  0  0  0  0
  1  5  2  0  0  0  0
  2  6  2  0  0  0  0
  3  8  2  0  0  0  0
  3 16  1  0  0  0  0
  4  9  1  0  0  0  0
  4 16  2  0  0  0  0
  5 18  1  0  0  0  0
  6 20  1  0  0  0  0
  7 10  2  0  0  0  0
  7 19  1  0  0  0  0
  8 22  1  0  0  0  0
  9 22  2  0  0  0  0
 10 23  1  0  0  0  0
 11 12  2  0  0  0  0
 11 24  1  0  0  0  0
 12 25  1  0  0  0  0
 13 21  1  0  0  0  0
 13 23  2  0  0  0  0
 14 25  2  0  0  0  0
 14 26  1  0  0  0  0
 15 28  1  0  0  0  0
 15 61  2  0  0  0  0
 16 27  1  0  0  0  0
 17 27  1  0  0  0  0
 17 29  2  0  0  0  0
 17 31  1  0  0  0  0
 18 20  2  0  0  0  0
 18 36  1  0  0  0  0
 19 21  2  0  0  0  0
 19 37  1  0  0  0  0
 20 45  1  0  0  0  0
 21 38  1  0  0  0  0
 22 79  1  0  0  0  0
 23 80  1  0  0  0  0
 24 26  2  0  0  0  0
 24 79  1  0  0  0  0
 25 81  1  0  0  0  0
 26 82  1  0  0  0  0
 27 62  2  0  0  0  0
 28 54  1  0  0  0  0
 28 63  2  0  0  0  0
 29 65  1  0  0  0  0
 29 68  1  0  0  0  0
 30 57  1  0  0  0  0
 30 63  1  0  0  0  0
 30 64  2  0  0  0  0
 31 69  1  0  0  0  0
 31 74  2  0  0  0  0
 32 46  1  0  0  0  0
 32 70  1  0  0  0  0
 32 75  2  0  0  0  0
 33 58  1  0  0  0  0
 33 66  1  0  0  0  0
 33 76  2  0  0  0  0
 34 59  1  0  0  0  0
 34 71  1  0  0  0  0
 34 77  2  0  0  0  0
 35 67  1  0  0  0  0
 35 72  1  0  0  0  0
 35 78  2  0  0  0  0
 36 39  1  0  0  0  0
 37 46  1  0  0  0  0
 38 66  1  0  0  0  0
 39 41  1  0  0  0  0
 40 42  1  0  0  0  0
 40 43  1  0  0  0  0
 41 45  1  0  0  0  0
 42 47  1  0  0  0  0
 43 67  1  0  0  0  0
 44 47  1  0  0  0  0
 44 67  1  0  0  0  0
 45 70  1  0  0  0  0
 46 66  1  0  0  0  0
 47 65  1  0  0  0  0
 48 57  1  0  0  0  0
 49 59  1  0  0  0  0
 50 60  1  0  0  0  0
 51 60  1  0  0  0  0
 52 60  1  0  0  0  0
 53 73  1  0  0  0  0
 54 55  1  0  0  0  0
 55 56  1  0  0  0  0
 56 80  1  0  0  0  0
 57 72  1  0  0  0  0
 58 60  1  0  0  0  0
 58 71  1  0  0  0  0
 59 73  1  0  0  0  0
 61 64  1  0  0  0  0
 62 65  1  0  0  0  0
M  CHG  1  73   1
M  ISO  4  35 100  56 101  72 100  80 101
M  END
> <Batch ID>
0072

> <Smiles>
CNC(C)C(=O)NC(C(=O)N1Cc2cc([101O:1][101CH2:1]CCc3cnnc(C(C)[100NH:0][100C:0](=O)N4CCCC(n5nc(-c6ccc(Oc7ccc(F)cc7F)cc6)c(C(N)=O)c5N)C4)n3)ccc2CC1C(=O)NC1CCCc2ccccc21)C(C)(C)C

> <Shape>
0.267

> <Color>
0.051

> <Negative vol penalty>
0.000

$$$$

  -OEChem-04052318243D

 87 95  0     1  0  0  0  0  0999 V2000
  -32.4392  -12.7461   21.0725 C   0  0  0  0  0  0  0  0  0  0  0  0
  -31.9019  -13.9992   21.3490 C   0  0  0  0  0  0  0  0  0  0  0  0
  -29.1419  -26.1497   19.6282 C   0  0  0  0  0  0  0  0  0  0  0  0
  -27.7459  -24.9892   21.2224 C   0  0  0  0  0  0  0  0  0  0  0  0
  -31.6815  -11.8009   20.3823 C   0  0  0  0  0  0  0  0  0  0  0  0
  -30.6069  -14.3083   20.9344 C   0  0  0  0  0  0  0  0  0  0  0  0
  -26.5505  -17.8441   23.8582 C   0  0  0  0  0  0  0  0  0  0  0  0
  -30.1977  -25.2881   19.9255 C   0  0  0  0  0  0  0  0  0  0  0  0
  -28.8017  -24.1275   21.5197 C   0  0  0  0  0  0  0  0  0  0  0  0
  -26.1810  -19.1787   23.6964 C   0  0  0  0  0  0  0  0  0  0  0  0
  -30.2591  -21.4081   20.1408 C   0  0  0  0  0  0  0  0  0  0  0  0
  -29.9770  -20.0447   20.2247 C   0  0  0  0  0  0  0  0  0  0  0  0
  -24.3195  -18.4908   22.3251 C   0  0  0  0  0  0  0  0  0  0  0  0
  -21.2270  -27.4441   23.8868 C   0  0  0  0  0  0  0  0  0  0  0  0
  -21.6586  -29.7706   24.3174 C   0  0  0  0  0  0  0  0  0  0  0  0
  -30.7340  -20.0291   22.5189 C   0  0  0  0  0  0  0  0  0  0  0  0
  -27.9159  -26.0003   20.2767 C   0  0  0  0  0  0  0  0  0  0  0  0
  -25.8387  -26.7173   18.9810 C   0  0  0  0  0  0  0  0  0  0  0  0
  -30.3731  -12.0951   19.9675 C   0  0  0  0  0  0  0  0  0  0  0  0
  -25.8123  -16.8218   23.2447 C   0  0  0  0  0  0  0  0  0  0  0  0
  -29.8315  -13.3666   20.2368 C   0  0  0  0  0  0  0  0  0  0  0  0
  -24.6801  -17.1439   22.4827 C   0  0  0  0  0  0  0  0  0  0  0  0
  -20.7629  -28.7471   24.0287 C   0  0  0  0  0  0  0  0  0  0  0  0
  -30.0277  -24.2770   20.8712 C   0  0  0  0  0  0  0  0  0  0  0  0
  -25.0671  -19.5024   22.9274 C   0  0  0  0  0  0  0  0  0  0  0  0
  -30.7788  -22.0821   21.2460 C   0  0  0  0  0  0  0  0  0  0  0  0
  -30.2144  -19.3552   21.4137 C   0  0  0  0  0  0  0  0  0  0  0  0
  -31.0162  -21.3926   22.4350 C   0  0  0  0  0  0  0  0  0  0  0  0
  -26.8251  -26.8904   19.9705 C   0  0  0  0  0  0  0  0  0  0  0  0
  -22.5853  -27.2189   24.0421 C   0  0  0  0  0  0  0  0  0  0  0  0
  -22.9975  -29.4413   24.4536 C   0  0  0  0  0  0  0  0  0  0  0  0
  -25.0408  -27.8295   19.0933 C   0  0  0  0  0  0  0  0  0  0  0  0
  -25.6597  -25.6467   18.0443 C   0  0  0  0  0  0  0  0  0  0  0  0
  -26.4467  -14.5922   21.0698 C   0  0  0  0  0  0  0  0  0  0  0  0
  -23.4462  -13.5909   21.7886 C   0  0  0  0  0  0  0  0  0  0  0  0
  -23.9844  -31.5634   23.6818 C   0  0  0  0  0  0  0  0  0  0  0  0
  -20.3498  -14.3554   23.0030 C   0  0  0  0  0  0  0  0  0  0  0  0
  -29.6097  -11.0577   19.1828 C   0  0  0  0  0  0  0  0  0  0  0  0
  -26.2083  -15.3855   23.4509 C   0  0  0  0  0  0  0  0  0  0  0  0
  -23.8422  -16.0824   21.8198 C   0  0  0  0  0  0  0  0  0  0  0  0
  -28.1101  -11.3332   19.1067 C   0  0  0  0  0  0  0  0  0  0  0  0
  -25.1659  -32.4199   20.4092 C   0  0  0  0  0  0  0  0  0  0  0  0
  -27.8531  -12.7943   18.7521 C   0  0  0  0  0  0  0  0  0  0  0  0
  -25.6618  -31.0884   19.8467 C   0  0  0  0  0  0  0  0  0  0  0  0
  -25.4191  -32.5209   21.9101 C   0  0  0  0  0  0  0  0  0  0  0  0
  -25.3374  -30.0588   22.1401 C   0  0  0  0  0  0  0  0  0  0  0  0
  -28.4215  -13.7307   19.8252 C   0  0  1  0  0  0  0  0  0  0  0  0
  -25.6850  -14.4585   22.3581 C   0  0  1  0  0  0  0  0  0  0  0  0
  -25.0732  -29.9030   20.6320 C   0  0  2  0  0  0  0  0  0  0  0  0
  -19.3104  -29.0457   23.8708 C   0  0  0  0  0  0  0  0  0  0  0  0
  -18.0956  -13.3392   23.4310 C   0  0  0  0  0  0  0  0  0  0  0  0
  -22.8203  -13.7287   18.8054 C   0  0  0  0  0  0  0  0  0  0  0  0
  -20.3858  -13.6418   19.3831 C   0  0  0  0  0  0  0  0  0  0  0  0
  -21.8760  -11.7319   19.9783 C   0  0  0  0  0  0  0  0  0  0  0  0
  -23.6474  -25.7810   26.3949 C   0  0  0  0  0  0  0  0  0  0  0  0
  -21.8130  -24.3325   25.5102 C   0  0  0  0  0  0  0  0  0  0  0  0
  -20.5377  -14.8775   25.9100 C   0  0  0  0  0  0  0  0  0  0  0  0
  -23.1264  -25.8148   23.8933 C   0  0  0  0  0  0  0  0  0  0  0  0
  -23.9559  -22.7987   23.8757 C   0  0  0  0  0  0  0  0  0  0  0  0
  -24.2421  -23.8038   24.9956 C   0  0  0  0  0  0  0  0  0  0  0  0
  -25.0117  -21.6999   23.8349 C   0  0  0  0  0  0  0  0  0  1  0  0
  -22.0630  -13.8985   21.2679 C   0  0  1  0  0  0  0  0  0  0  0  0
  -19.4637  -13.6535   24.0161 C   0  0  2  0  0  0  0  0  0  0  0  0
  -23.9864  -30.5145   24.7652 C   0  0  0  0  0  0  0  0  0  0  0  0
  -21.8030  -13.2706   19.8694 C   0  0  0  0  0  0  0  0  0  0  0  0
  -23.1895  -24.9412   25.1821 C   0  0  0  0  0  0  0  0  0  0  0  0
  -26.6701  -28.0235   20.6604 N   0  0  0  0  0  0  0  0  0  0  0  0
  -23.4857  -28.1874   24.3228 N   0  0  0  0  0  0  0  0  0  0  0  0
  -25.5770  -28.5725   20.1036 N   0  0  0  0  0  0  0  0  0  0  0  0
  -24.2737  -14.6931   22.0459 N   0  0  0  0  0  0  0  0  0  0  0  0
  -24.8644  -31.3656   22.6176 N   0  0  0  0  0  0  0  0  0  0  0  0
  -23.9399  -28.2348   18.4254 N   0  0  0  0  0  0  0  0  0  0  0  0
  -26.5703  -24.5814   18.0651 N   0  0  0  0  0  0  0  0  0  0  0  0
  -27.5495  -13.7645   20.9798 N   0  0  0  0  0  0  0  0  0  0  0  0
  -21.1311  -13.4615   22.3017 N   0  0  0  0  0  0  0  0  0  0  0  0
  -19.2741  -14.5108   25.2203 N   0  3  0  0  0  0  0  0  0  0  0  0
  -24.7297  -25.6430   17.2025 O   0  0  0  0  0  0  0  0  0  0  0  0
  -26.0615  -15.3863   20.2197 O   0  0  0  0  0  0  0  0  0  0  0  0
  -23.7776  -12.4162   21.9674 O   0  0  0  0  0  0  0  0  0  0  0  0
  -23.2207  -32.5275   23.7788 O   0  0  0  0  0  0  0  0  0  0  0  0
  -20.3464  -15.5744   22.8465 O   0  0  0  0  0  0  0  0  0  0  0  0
  -31.0577  -23.4358   21.1613 O   0  0  0  0  0  0  0  0  0  0  0  0
  -24.7046  -20.8043   22.7673 O   0  0  0  0  0  0  0  0  0  1  0  0
  -29.9420  -18.0462   21.4946 F   0  0  0  0  0  0  0  0  0  0  0  0
  -31.5143  -22.0349   23.5005 F   0  0  0  0  0  0  0  0  0  0  0  0
  -23.7364  -31.1284   25.9669 F   0  0  0  0  0  0  0  0  0  0  0  0
  -25.2636  -30.0306   24.9011 F   0  0  0  0  0  0  0  0  0  0  0  0
  1  2  1  0  0  0  0
  1  5  2  0  0  0  0
  2  6  2  0  0  0  0
  3  8  2  0  0  0  0
  3 17  1  0  0  0  0
  4  9  1  0  0  0  0
  4 17  2  0  0  0  0
  5 19  1  0  0  0  0
  6 21  1  0  0  0  0
  7 10  2  0  0  0  0
  7 20  1  0  0  0  0
  8 24  1  0  0  0  0
  9 24  2  0  0  0  0
 10 25  1  0  0  0  0
 11 12  2  0  0  0  0
 11 26  1  0  0  0  0
 12 27  1  0  0  0  0
 13 22  1  0  0  0  0
 13 25  2  0  0  0  0
 14 23  2  0  0  0  0
 14 30  1  0  0  0  0
 15 23  1  0  0  0  0
 15 31  2  0  0  0  0
 16 27  2  0  0  0  0
 16 28  1  0  0  0  0
 17 29  1  0  0  0  0
 18 29  1  0  0  0  0
 18 32  2  0  0  0  0
 18 33  1  0  0  0  0
 19 21  2  0  0  0  0
 19 38  1  0  0  0  0
 20 22  2  0  0  0  0
 20 39  1  0  0  0  0
 21 47  1  0  0  0  0
 22 40  1  0  0  0  0
 23 50  1  0  0  0  0
 24 82  1  0  0  0  0
 25 83  1  0  0  0  0
 26 28  2  0  0  0  0
 26 82  1  0  0  0  0
 27 84  1  0  0  0  0
 28 85  1  0  0  0  0
 29 67  2  0  0  0  0
 30 58  1  0  0  0  0
 30 68  2  0  0  0  0
 31 64  1  0  0  0  0
 31 68  1  0  0  0  0
 32 69  1  0  0  0  0
 32 72  1  0  0  0  0
 33 73  1  0  0  0  0
 33 77  2  0  0  0  0
 34 48  1  0  0  0  0
 34 74  1  0  0  0  0
 34 78  2  0  0  0  0
 35 62  1  0  0  0  0
 35 70  1  0  0  0  0
 35 79  2  0  0  0  0
 36 64  1  0  0  0  0
 36 71  1  0  0  0  0
 36 80  2  0  0  0  0
 37 63  1  0  0  0  0
 37 75  1  0  0  0  0
 37 81  2  0  0  0  0
 38 41  1  0  0  0  0
 39 48  1  0  0  0  0
 40 70  1  0  0  0  0
 41 43  1  0  0  0  0
 42 44  1  0  0  0  0
 42 45  1  0  0  0  0
 43 47  1  0  0  0  0
 44 49  1  0  0  0  0
 45 71  1  0  0  0  0
 46 49  1  0  0  0  0
 46 71  1  0  0  0  0
 47 74  1  0  0  0  0
 48 70  1  0  0  0  0
 49 69  1  0  0  0  0
 51 63  1  0  0  0  0
 52 65  1  0  0  0  0
 53 65  1  0  0  0  0
 54 65  1  0  0  0  0
 55 66  1  0  0  0  0
 56 66  1  0  0  0  0
 57 76  1  0  0  0  0
 58 66  1  0  0  0  0
 59 60  1  0  0  0  0
 59 61  1  0  0  0  0
 60 66  1  0  0  0  0
 61 83  1  0  0  0  0
 62 65  1  0  0  0  0
 62 75  1  0  0  0  0
 63 76  1  0  0  0  0
 64 86  1  0  0  0  0
 64 87  1  0  0  0  0
 67 69  1  0  0  0  0
M  CHG  1  76   1
M  ISO  4  36 100  61 101  64 100  83 101
M  END
> <Batch ID>
0072

> <Smiles>
CNC(C)C(=O)NC(C(=O)N1Cc2cc([101O:1][101CH2:1]CCC(C)(C)Cc3cc(C)cc([100C:0](F)(F)[100C:0](=O)N4CCCC(n5nc(-c6ccc(Oc7ccc(F)cc7F)cc6)c(C(N)=O)c5N)C4)n3)ccc2CC1C(=O)NC1CCCc2ccccc21)C(C)(C)C

> <Shape>
0.236

> <Color>
0.067

> <Negative vol penalty>
0.000

$$$$

  -OEChem-04052318243D

 86 94  0     1  0  0  0  0  0999 V2000
  -30.6272  -24.9900   18.2345 C   0  0  0  0  0  0  0  0  0  0  0  0
  -29.2433  -24.9282   18.3630 C   0  0  0  0  0  0  0  0  0  0  0  0
  -22.9491  -14.1837   21.0327 C   0  0  0  0  0  0  0  0  0  0  0  0
  -24.9021  -14.7804   22.3237 C   0  0  0  0  0  0  0  0  0  0  0  0
  -31.3865  -25.6537   19.1972 C   0  0  0  0  0  0  0  0  0  0  0  0
  -28.6181  -25.5292   19.4549 C   0  0  0  0  0  0  0  0  0  0  0  0
  -23.1404  -28.2674   19.5126 C   0  0  0  0  0  0  0  0  0  0  0  0
  -23.5832  -13.0140   20.6141 C   0  0  0  0  0  0  0  0  0  0  0  0
  -25.5362  -13.6107   21.9052 C   0  0  0  0  0  0  0  0  0  0  0  0
  -21.8770  -27.8296   19.9075 C   0  0  0  0  0  0  0  0  0  0  0  0
  -24.2391   -9.9471   21.8777 C   0  0  0  0  0  0  0  0  0  0  0  0
  -23.5019   -8.7634   21.9086 C   0  0  0  0  0  0  0  0  0  0  0  0
  -19.9081  -22.1033   25.6796 C   0  0  0  0  0  0  0  0  0  0  0  0
  -22.2064  -28.8481   22.0693 C   0  0  0  0  0  0  0  0  0  0  0  0
  -23.8130   -8.5075   19.5264 C   0  0  0  0  0  0  0  0  0  0  0  0
  -21.2751  -21.9775   25.6347 C   0  0  0  0  0  0  0  0  0  0  0  0
  -23.6085  -15.0670   21.8875 C   0  0  0  0  0  0  0  0  0  0  0  0
  -22.1482  -16.4445   23.4615 C   0  0  0  0  0  0  0  0  0  0  0  0
  -30.7695  -26.2715   20.2964 C   0  0  0  0  0  0  0  0  0  0  0  0
  -23.9521  -28.9907   20.3983 C   0  0  0  0  0  0  0  0  0  0  0  0
  -29.3700  -26.2007   20.4339 C   0  0  0  0  0  0  0  0  0  0  0  0
  -23.4786  -29.2961   21.6823 C   0  0  0  0  0  0  0  0  0  0  0  0
  -24.8767  -12.7274   21.0503 C   0  0  0  0  0  0  0  0  0  0  0  0
  -21.4110  -28.1174   21.1869 C   0  0  0  0  0  0  0  0  0  0  0  0
  -24.7632  -10.4111   20.6711 C   0  0  0  0  0  0  0  0  0  0  0  0
  -23.2888   -8.0436   20.7329 C   0  0  0  0  0  0  0  0  0  0  0  0
  -24.5502   -9.6912   19.4955 C   0  0  0  0  0  0  0  0  0  0  0  0
  -22.9543  -16.2758   22.3198 C   0  0  0  0  0  0  0  0  0  0  0  0
  -19.6010  -22.9843   24.6253 C   0  0  0  0  0  0  0  0  0  0  0  0
  -21.7710  -17.7646   23.4235 C   0  0  0  0  0  0  0  0  0  0  0  0
  -21.7739  -15.4930   24.4666 C   0  0  0  0  0  0  0  0  0  0  0  0
  -26.7971  -28.5127   21.7329 C   0  0  0  0  0  0  0  0  0  0  0  0
  -23.1112  -23.1419   22.6629 C   0  0  0  0  0  0  0  0  0  0  0  0
  -26.3612  -31.5374   22.8207 C   0  0  0  0  0  0  0  0  0  0  0  0
  -24.1869  -34.0420   23.6246 C   0  0  0  0  0  0  0  0  0  0  0  0
  -31.6361  -26.9367   21.3361 C   0  0  0  0  0  0  0  0  0  0  0  0
  -25.3016  -29.4788   19.9479 C   0  0  0  0  0  0  0  0  0  0  0  0
  -24.3028  -30.0869   22.6641 C   0  0  0  0  0  0  0  0  0  0  0  0
  -30.8644  -27.8693   22.2662 C   0  0  0  0  0  0  0  0  0  0  0  0
  -22.2222  -21.2228   19.7704 C   0  0  0  0  0  0  0  0  0  0  0  0
  -29.5883  -27.1949   22.7598 C   0  0  0  0  0  0  0  0  0  0  0  0
  -22.2967  -19.7777   20.2615 C   0  0  0  0  0  0  0  0  0  0  0  0
  -23.2872  -22.0927   20.4308 C   0  0  0  0  0  0  0  0  0  0  0  0
  -23.3294  -20.6193   22.4180 C   0  0  0  0  0  0  0  0  0  0  0  0
  -28.6530  -26.8616   21.5912 C   0  0  1  0  0  0  0  0  0  0  0  0
  -26.2510  -29.7649   21.1073 C   0  0  1  0  0  0  0  0  0  0  0  0
  -22.2507  -19.7132   21.7985 C   0  0  2  0  0  0  0  0  0  0  0  0
  -23.7310  -24.1234   24.8601 C   0  0  0  0  0  0  0  0  0  0  0  0
  -24.1253  -36.3842   24.5235 C   0  0  0  0  0  0  0  0  0  0  0  0
  -15.2183  -24.0422   24.5586 C   0  0  0  0  0  0  0  0  0  0  0  0
  -15.6804  -26.4689   24.8656 C   0  0  0  0  0  0  0  0  0  0  0  0
  -26.8977  -30.4712   25.6288 C   0  0  0  0  0  0  0  0  0  0  0  0
  -25.9065  -32.5805   26.5436 C   0  0  0  0  0  0  0  0  0  0  0  0
  -27.9600  -32.6799   25.1308 C   0  0  0  0  0  0  0  0  0  0  0  0
  -17.6188  -24.6043   26.4102 C   0  0  0  0  0  0  0  0  0  0  0  0
  -22.9306  -35.0809   21.1545 C   0  0  0  0  0  0  0  0  0  0  0  0
  -18.2328  -23.4814   24.2081 C   0  0  0  0  0  0  0  0  0  0  0  0
  -18.9589  -26.2987   23.1112 C   0  0  0  0  0  0  0  0  0  0  0  0
  -18.7144  -25.9643   24.5876 C   0  0  0  0  0  0  0  0  0  0  0  0
  -19.9936  -27.4082   22.9601 C   0  0  0  0  0  0  0  0  0  1  0  0
  -23.0489  -22.9521   24.1576 C   0  0  1  0  0  0  0  0  0  0  0  0
  -25.7363  -32.1518   24.0499 C   0  0  1  0  0  0  0  0  0  0  0  0
  -24.1776  -35.5190   23.2739 C   0  0  2  0  0  0  0  0  0  0  0  0
  -16.2591  -25.1489   24.3289 C   0  0  0  0  0  0  0  0  0  0  0  0
  -26.6102  -31.9543   25.3207 C   0  0  0  0  0  0  0  0  0  0  0  0
  -17.7053  -24.8013   24.8755 C   0  0  2  0  0  0  0  0  0  0  0  0
  -23.0821  -17.3989   21.6083 N   0  0  0  0  0  0  0  0  0  0  0  0
  -20.6857  -23.3896   23.9595 N   0  0  0  0  0  0  0  0  0  0  0  0
  -21.6876  -22.7605   24.5970 N   0  0  0  0  0  0  0  0  0  0  0  0
  -22.3512  -18.2860   22.3047 N   0  0  0  0  0  0  0  0  0  0  0  0
  -25.6181  -30.5366   22.1789 N   0  0  0  0  0  0  0  0  0  0  0  0
  -23.2250  -21.9865   21.8896 N   0  0  0  0  0  0  0  0  0  0  0  0
  -21.0029  -18.5187   24.2383 N   0  0  0  0  0  0  0  0  0  0  0  0
  -22.2493  -14.1794   24.3532 N   0  0  0  0  0  0  0  0  0  0  0  0
  -27.9587  -28.0503   21.1446 N   0  0  0  0  0  0  0  0  0  0  0  0
  -25.4706  -33.5476   23.7185 N   0  0  0  0  0  0  0  0  0  0  0  0
  -22.9941  -35.8430   22.4281 N   0  3  0  0  0  0  0  0  0  0  0  0
  -21.0263  -15.7944   25.4277 O   0  0  0  0  0  0  0  0  0  0  0  0
  -26.2088  -28.0045   22.6802 O   0  0  0  0  0  0  0  0  0  0  0  0
  -23.0570  -24.2836   22.1983 O   0  0  0  0  0  0  0  0  0  0  0  0
  -27.4647  -31.9360   22.4397 O   0  0  0  0  0  0  0  0  0  0  0  0
  -23.1584  -33.3929   23.8014 O   0  0  0  0  0  0  0  0  0  0  0  0
  -25.4956  -11.5860   20.6423 O   0  0  0  0  0  0  0  0  0  0  0  0
  -20.1694  -27.6875   21.5780 O   0  0  0  0  0  0  0  0  0  1  0  0
  -22.5821   -6.9061   20.7630 F   0  0  0  0  0  0  0  0  0  0  0  0
  -25.0522  -10.1313   18.3336 F   0  0  0  0  0  0  0  0  0  0  0  0
  1  2  1  0  0  0  0
  1  5  2  0  0  0  0
  2  6  2  0  0  0  0
  3  8  2  0  0  0  0
  3 17  1  0  0  0  0
  4  9  1  0  0  0  0
  4 17  2  0  0  0  0
  5 19  1  0  0  0  0
  6 21  1  0  0  0  0
  7 10  2  0  0  0  0
  7 20  1  0  0  0  0
  8 23  1  0  0  0  0
  9 23  2  0  0  0  0
 10 24  1  0  0  0  0
 11 12  2  0  0  0  0
 11 25  1  0  0  0  0
 12 26  1  0  0  0  0
 13 16  2  0  0  0  0
 13 29  1  0  0  0  0
 14 22  1  0  0  0  0
 14 24  2  0  0  0  0
 15 26  2  0  0  0  0
 15 27  1  0  0  0  0
 16 69  1  0  0  0  0
 17 28  1  0  0  0  0
 18 28  1  0  0  0  0
 18 30  2  0  0  0  0
 18 31  1  0  0  0  0
 19 21  2  0  0  0  0
 19 36  1  0  0  0  0
 20 22  2  0  0  0  0
 20 37  1  0  0  0  0
 21 45  1  0  0  0  0
 22 38  1  0  0  0  0
 23 83  1  0  0  0  0
 24 84  1  0  0  0  0
 25 27  2  0  0  0  0
 25 83  1  0  0  0  0
 26 85  1  0  0  0  0
 27 86  1  0  0  0  0
 28 67  2  0  0  0  0
 29 57  1  0  0  0  0
 29 68  2  0  0  0  0
 30 70  1  0  0  0  0
 30 73  1  0  0  0  0
 31 74  1  0  0  0  0
 31 78  2  0  0  0  0
 32 46  1  0  0  0  0
 32 75  1  0  0  0  0
 32 79  2  0  0  0  0
 33 61  1  0  0  0  0
 33 72  1  0  0  0  0
 33 80  2  0  0  0  0
 34 62  1  0  0  0  0
 34 71  1  0  0  0  0
 34 81  2  0  0  0  0
 35 63  1  0  0  0  0
 35 76  1  0  0  0  0
 35 82  2  0  0  0  0
 36 39  1  0  0  0  0
 37 46  1  0  0  0  0
 38 71  1  0  0  0  0
 39 41  1  0  0  0  0
 40 42  1  0  0  0  0
 40 43  1  0  0  0  0
 41 45  1  0  0  0  0
 42 47  1  0  0  0  0
 43 72  1  0  0  0  0
 44 47  1  0  0  0  0
 44 72  1  0  0  0  0
 45 75  1  0  0  0  0
 46 71  1  0  0  0  0
 47 70  1  0  0  0  0
 48 61  1  0  0  0  0
 49 63  1  0  0  0  0
 50 64  1  0  0  0  0
 51 64  1  0  0  0  0
 52 65  1  0  0  0  0
 53 65  1  0  0  0  0
 54 65  1  0  0  0  0
 55 66  1  0  0  0  0
 56 77  1  0  0  0  0
 57 66  1  0  0  0  0
 58 59  1  0  0  0  0
 58 60  1  0  0  0  0
 59 66  1  0  0  0  0
 60 84  1  0  0  0  0
 61 69  1  0  0  0  0
 62 65  1  0  0  0  0
 62 76  1  0  0  0  0
 63 77  1  0  0  0  0
 64 66  1  0  0  0  0
 67 70  1  0  0  0  0
 68 69  1  0  0  0  0
M  CHG  1  77   1
M  ISO  4  33 100  60 101  61 100  84 101
M  END
> <Batch ID>
0072

> <Smiles>
CNC(C)C(=O)NC(C(=O)N1Cc2cc([101O:1][101CH2:1]CCC(C)(Cc3ccn([100CH:0](C)[100C:0](=O)N4CCCC(n5nc(-c6ccc(Oc7ccc(F)cc7F)cc6)c(C(N)=O)c5N)C4)n3)C(C)C)ccc2CC1C(=O)NC1CCCc2ccccc21)C(C)(C)C

> <Shape>
0.241

> <Color>
0.061

> <Negative vol penalty>
0.000

$$$$

  -OEChem-04052318243D

 86 94  0     1  0  0  0  0  0999 V2000
  -30.3195  -24.6818   18.7079 C   0  0  0  0  0  0  0  0  0  0  0  0
  -28.9387  -24.8264   18.6184 C   0  0  0  0  0  0  0  0  0  0  0  0
  -23.9144   -9.8508   22.0154 C   0  0  0  0  0  0  0  0  0  0  0  0
  -22.5730   -9.9634   20.0091 C   0  0  0  0  0  0  0  0  0  0  0  0
  -31.0004  -25.1760   19.8197 C   0  0  0  0  0  0  0  0  0  0  0  0
  -28.2379  -25.4643   19.6413 C   0  0  0  0  0  0  0  0  0  0  0  0
  -23.2737  -29.0021   19.0525 C   0  0  0  0  0  0  0  0  0  0  0  0
  -23.4578   -8.5535   22.2479 C   0  0  0  0  0  0  0  0  0  0  0  0
  -22.1165   -8.6660   20.2416 C   0  0  0  0  0  0  0  0  0  0  0  0
  -21.9135  -28.7447   19.2176 C   0  0  0  0  0  0  0  0  0  0  0  0
  -20.6810   -7.0746   23.4835 C   0  0  0  0  0  0  0  0  0  0  0  0
  -20.2852   -6.7504   24.7812 C   0  0  0  0  0  0  0  0  0  0  0  0
  -22.0315  -29.5988   21.4706 C   0  0  0  0  0  0  0  0  0  0  0  0
  -21.9694   -5.0201   24.8626 C   0  0  0  0  0  0  0  0  0  0  0  0
  -23.4719  -10.5558   20.8960 C   0  0  0  0  0  0  0  0  0  0  0  0
  -25.0788  -12.2785   19.9174 C   0  0  0  0  0  0  0  0  0  0  0  0
  -30.3088  -25.8289   20.8522 C   0  0  0  0  0  0  0  0  0  0  0  0
  -24.0267  -29.5507   20.1006 C   0  0  0  0  0  0  0  0  0  0  0  0
  -28.9100  -25.9665   20.7686 C   0  0  0  0  0  0  0  0  0  0  0  0
  -23.4006  -29.8647   21.3153 C   0  0  0  0  0  0  0  0  0  0  0  0
  -20.6956  -24.6224   20.0413 C   0  0  0  0  0  0  0  0  0  0  0  0
  -22.5589   -7.9610   21.3610 C   0  0  0  0  0  0  0  0  0  0  0  0
  -21.2928  -29.0403   20.4278 C   0  0  0  0  0  0  0  0  0  0  0  0
  -21.7210   -6.3715   22.8754 C   0  0  0  0  0  0  0  0  0  0  0  0
  -20.9294   -5.7232   25.4707 C   0  0  0  0  0  0  0  0  0  0  0  0
  -22.3652   -5.3443   23.5650 C   0  0  0  0  0  0  0  0  0  0  0  0
  -23.9428  -11.8962   20.6557 C   0  0  0  0  0  0  0  0  0  0  0  0
  -19.8674  -23.6187   19.5818 C   0  0  0  0  0  0  0  0  0  0  0  0
  -22.0338  -24.2977   20.1315 C   0  0  0  0  0  0  0  0  0  0  0  0
  -25.0880  -13.6502   19.9872 C   0  0  0  0  0  0  0  0  0  0  0  0
  -21.6273  -22.1962   19.3663 C   0  0  0  0  0  0  0  0  0  0  0  0
  -26.0398  -11.4664   19.2299 C   0  0  0  0  0  0  0  0  0  0  0  0
  -26.5197  -28.5815   21.8179 C   0  0  0  0  0  0  0  0  0  0  0  0
  -22.3871  -18.4266   19.5760 C   0  0  0  0  0  0  0  0  0  0  0  0
  -26.3525  -31.5833   23.0361 C   0  0  0  0  0  0  0  0  0  0  0  0
  -24.4592  -34.3506   23.6719 C   0  0  0  0  0  0  0  0  0  0  0  0
  -31.0822  -26.3045   22.0565 C   0  0  0  0  0  0  0  0  0  0  0  0
  -25.4872  -29.8472   19.8975 C   0  0  0  0  0  0  0  0  0  0  0  0
  -24.1599  -30.4734   22.4648 C   0  0  0  0  0  0  0  0  0  0  0  0
  -30.3121  -27.2996   22.9208 C   0  0  0  0  0  0  0  0  0  0  0  0
  -22.3974  -16.8296   22.8435 C   0  0  0  0  0  0  0  0  0  0  0  0
  -28.8896  -26.8060   23.1646 C   0  0  0  0  0  0  0  0  0  0  0  0
  -22.8686  -15.4189   22.4927 C   0  0  0  0  0  0  0  0  0  0  0  0
  -21.5195  -17.4183   21.7421 C   0  0  0  0  0  0  0  0  0  0  0  0
  -22.6357  -16.0094   20.0411 C   0  0  0  0  0  0  0  0  0  0  0  0
  -28.1176  -26.6745   21.8461 C   0  0  1  0  0  0  0  0  0  0  0  0
  -26.2676  -29.9304   21.2057 C   0  0  1  0  0  0  0  0  0  0  0  0
  -23.5492  -15.3915   21.1130 C   0  0  2  0  0  0  0  0  0  0  0  0
  -18.3993  -23.8545   19.4421 C   0  0  0  0  0  0  0  0  0  0  0  0
  -24.4645  -24.8731   20.3481 C   0  0  0  0  0  0  0  0  0  0  0  0
  -24.5899  -36.6301   24.7132 C   0  0  0  0  0  0  0  0  0  0  0  0
  -26.2689  -30.3177   25.8112 C   0  0  0  0  0  0  0  0  0  0  0  0
  -25.4559  -32.5087   26.7096 C   0  0  0  0  0  0  0  0  0  0  0  0
  -27.7037  -32.3587   25.6382 C   0  0  0  0  0  0  0  0  0  0  0  0
  -19.3770  -29.1856   18.2984 C   0  0  0  0  0  0  0  0  0  0  0  0
  -17.8012  -28.0513   19.8856 C   0  0  0  0  0  0  0  0  0  0  0  0
  -23.7814  -35.6834   21.1179 C   0  0  0  0  0  0  0  0  0  0  0  0
  -20.1719  -25.9862   20.4187 C   0  0  0  0  0  0  0  0  0  0  0  0
  -23.0255  -25.3030   20.6171 C   0  0  0  0  0  0  0  0  0  0  0  0
  -22.1451  -20.8498   18.9889 C   0  0  0  0  0  0  0  0  0  0  0  0
  -21.8610  -19.7635   20.0341 C   0  0  0  0  0  0  0  0  0  0  0  0
  -19.8864  -26.8424   19.1767 C   0  0  0  0  0  0  0  0  0  0  0  0
  -25.6317  -32.2280   24.1954 C   0  0  1  0  0  0  0  0  0  0  0  0
  -24.7189  -35.8264   23.4286 C   0  0  2  0  0  0  0  0  0  0  0  0
  -26.2509  -31.8400   25.5678 C   0  0  0  0  0  0  0  0  0  0  0  0
  -19.2696  -28.2224   19.4825 C   0  0  0  0  0  0  0  0  0  1  0  0
  -23.2786  -12.9406   21.1578 N   0  0  0  0  0  0  0  0  0  0  0  0
  -20.3012  -22.3894   19.2340 N   0  0  0  0  0  0  0  0  0  0  0  0
  -22.5361  -23.0898   19.8013 N   0  0  0  0  0  0  0  0  0  0  0  0
  -23.9995  -13.9927   20.7343 N   0  0  0  0  0  0  0  0  0  0  0  0
  -25.5871  -30.7389   22.2194 N   0  0  0  0  0  0  0  0  0  0  0  0
  -22.1924  -17.3484   20.4396 N   0  0  0  0  0  0  0  0  0  0  0  0
  -25.9209  -14.5847   19.4820 N   0  0  0  0  0  0  0  0  0  0  0  0
  -25.8809  -10.0742   19.2589 N   0  0  0  0  0  0  0  0  0  0  0  0
  -27.6827  -27.9749   21.3832 N   0  0  0  0  0  0  0  0  0  0  0  0
  -25.6263  -33.6618   23.9262 N   0  0  0  0  0  0  0  0  0  0  0  0
  -23.7468  -36.3667   22.4366 N   0  3  0  0  0  0  0  0  0  0  0  0
  -27.0198  -11.9599   18.6220 O   0  0  0  0  0  0  0  0  0  0  0  0
  -25.7192  -28.1256   22.6260 O   0  0  0  0  0  0  0  0  0  0  0  0
  -22.9561  -18.3456   18.4843 O   0  0  0  0  0  0  0  0  0  0  0  0
  -27.5487  -31.8258   22.8575 O   0  0  0  0  0  0  0  0  0  0  0  0
  -23.3332  -33.8588   23.6432 O   0  0  0  0  0  0  0  0  0  0  0  0
  -22.1133   -6.6950   21.5874 O   0  0  0  0  0  0  0  0  0  0  0  0
  -19.9654  -28.7895   20.5918 O   0  0  0  0  0  0  0  0  0  1  0  0
  -20.5502   -5.4131   26.7174 F   0  0  0  0  0  0  0  0  0  0  0  0
  -23.3658   -4.6661   22.9864 F   0  0  0  0  0  0  0  0  0  0  0  0
  1  2  1  0  0  0  0
  1  5  2  0  0  0  0
  2  6  2  0  0  0  0
  3  8  2  0  0  0  0
  3 15  1  0  0  0  0
  4  9  1  0  0  0  0
  4 15  2  0  0  0  0
  5 17  1  0  0  0  0
  6 19  1  0  0  0  0
  7 10  2  0  0  0  0
  7 18  1  0  0  0  0
  8 22  1  0  0  0  0
  9 22  2  0  0  0  0
 10 23  1  0  0  0  0
 11 12  2  0  0  0  0
 11 24  1  0  0  0  0
 12 25  1  0  0  0  0
 13 20  1  0  0  0  0
 13 23  2  0  0  0  0
 14 25  2  0  0  0  0
 14 26  1  0  0  0  0
 15 27  1  0  0  0  0
 16 27  1  0  0  0  0
 16 30  2  0  0  0  0
 16 32  1  0  0  0  0
 17 19  2  0  0  0  0
 17 37  1  0  0  0  0
 18 20  2  0  0  0  0
 18 38  1  0  0  0  0
 19 46  1  0  0  0  0
 20 39  1  0  0  0  0
 21 28  1  0  0  0  0
 21 29  2  0  0  0  0
 21 58  1  0  0  0  0
 22 83  1  0  0  0  0
 23 84  1  0  0  0  0
 24 26  2  0  0  0  0
 24 83  1  0  0  0  0
 25 85  1  0  0  0  0
 26 86  1  0  0  0  0
 27 67  2  0  0  0  0
 28 49  1  0  0  0  0
 28 68  2  0  0  0  0
 29 59  1  0  0  0  0
 29 69  1  0  0  0  0
 30 70  1  0  0  0  0
 30 73  1  0  0  0  0
 31 60  1  0  0  0  0
 31 68  1  0  0  0  0
 31 69  2  0  0  0  0
 32 74  1  0  0  0  0
 32 78  2  0  0  0  0
 33 47  1  0  0  0  0
 33 75  1  0  0  0  0
 33 79  2  0  0  0  0
 34 61  1  0  0  0  0
 34 72  1  0  0  0  0
 34 80  2  0  0  0  0
 35 63  1  0  0  0  0
 35 71  1  0  0  0  0
 35 81  2  0  0  0  0
 36 64  1  0  0  0  0
 36 76  1  0  0  0  0
 36 82  2  0  0  0  0
 37 40  1  0  0  0  0
 38 47  1  0  0  0  0
 39 71  1  0  0  0  0
 40 42  1  0  0  0  0
 41 43  1  0  0  0  0
 41 44  1  0  0  0  0
 42 46  1  0  0  0  0
 43 48  1  0  0  0  0
 44 72  1  0  0  0  0
 45 48  1  0  0  0  0
 45 72  1  0  0  0  0
 46 75  1  0  0  0  0
 47 71  1  0  0  0  0
 48 70  1  0  0  0  0
 50 59  1  0  0  0  0
 51 64  1  0  0  0  0
 52 65  1  0  0  0  0
 53 65  1  0  0  0  0
 54 65  1  0  0  0  0
 55 66  1  0  0  0  0
 56 66  1  0  0  0  0
 57 77  1  0  0  0  0
 58 62  1  0  0  0  0
 60 61  1  0  0  0  0
 62 66  1  0  0  0  0
 63 65  1  0  0  0  0
 63 76  1  0  0  0  0
 64 77  1  0  0  0  0
 66 84  1  0  0  0  0
 67 70  1  0  0  0  0
M  CHG  1  77   1
M  ISO  4  34 100  61 100  66 101  84 101
M  END
> <Batch ID>
0072

> <Smiles>
CCc1nc(C[100CH2:0][100C:0](=O)N2CCCC(n3nc(-c4ccc(Oc5ccc(F)cc5F)cc4)c(C(N)=O)c3N)C2)nc(C)c1CC[101C:1](C)(C)[101O:1]c1ccc2c(c1)CN(C(=O)C(NC(=O)C(C)NC)C(C)(C)C)C(C(=O)NC1CCCc3ccccc31)C2

> <Shape>
0.302

> <Color>
0.105

> <Negative vol penalty>
0.000

$$$$

  -OEChem-04052318243D

 86 94  0     1  0  0  0  0  0999 V2000
  -21.2633  -23.2272   20.8349 C   0  0  0  0  0  0  0  0  0  0  0  0
  -22.6007  -23.5997   20.9254 C   0  0  0  0  0  0  0  0  0  0  0  0
  -25.5881  -14.3443   21.5888 C   0  0  0  0  0  0  0  0  0  0  0  0
  -24.9531  -14.9965   19.3509 C   0  0  0  0  0  0  0  0  0  0  0  0
  -20.2841  -24.1960   20.6194 C   0  0  0  0  0  0  0  0  0  0  0  0
  -22.9597  -24.9412   20.7994 C   0  0  0  0  0  0  0  0  0  0  0  0
  -26.3246  -26.3884   24.2963 C   0  0  0  0  0  0  0  0  0  0  0  0
  -24.5792  -13.3812   21.5944 C   0  0  0  0  0  0  0  0  0  0  0  0
  -23.9442  -14.0333   19.3564 C   0  0  0  0  0  0  0  0  0  0  0  0
  -27.6538  -26.0210   24.0914 C   0  0  0  0  0  0  0  0  0  0  0  0
  -22.4038  -10.5062   22.0607 C   0  0  0  0  0  0  0  0  0  0  0  0
  -22.7215   -9.2372   22.5447 C   0  0  0  0  0  0  0  0  0  0  0  0
  -28.1294  -28.2320   23.2522 C   0  0  0  0  0  0  0  0  0  0  0  0
  -24.4093   -9.0063   20.8314 C   0  0  0  0  0  0  0  0  0  0  0  0
  -28.0774  -25.5836   19.0727 C   0  0  0  0  0  0  0  0  0  0  0  0
  -25.7750  -15.1521   20.4671 C   0  0  0  0  0  0  0  0  0  0  0  0
  -28.1481  -15.9822   20.0347 C   0  0  0  0  0  0  0  0  0  0  0  0
  -20.6303  -25.5513   20.5004 C   0  0  0  0  0  0  0  0  0  0  0  0
  -25.8846  -27.6793   23.9699 C   0  0  0  0  0  0  0  0  0  0  0  0
  -21.9843  -25.9289   20.5808 C   0  0  0  0  0  0  0  0  0  0  0  0
  -26.7947  -28.6142   23.4563 C   0  0  0  0  0  0  0  0  0  0  0  0
  -23.7573  -13.2256   20.4783 C   0  0  0  0  0  0  0  0  0  0  0  0
  -28.5557  -26.9419   23.5666 C   0  0  0  0  0  0  0  0  0  0  0  0
  -23.0889  -11.0253   20.9621 C   0  0  0  0  0  0  0  0  0  0  0  0
  -23.7242   -8.4872   21.9301 C   0  0  0  0  0  0  0  0  0  0  0  0
  -24.0916  -10.2754   20.3475 C   0  0  0  0  0  0  0  0  0  0  0  0
  -26.8167  -16.1476   20.4609 C   0  0  0  0  0  0  0  0  0  0  0  0
  -28.2696  -24.4335   18.3394 C   0  0  0  0  0  0  0  0  0  0  0  0
  -30.1724  -25.3662   19.9632 C   0  0  0  0  0  0  0  0  0  0  0  0
  -30.3645  -24.2157   19.2305 C   0  0  0  0  0  0  0  0  0  0  0  0
  -28.7261  -17.2130   20.2285 C   0  0  0  0  0  0  0  0  0  0  0  0
  -28.8039  -14.8199   19.5104 C   0  0  0  0  0  0  0  0  0  0  0  0
  -23.7521  -28.8757   21.9389 C   0  0  0  0  0  0  0  0  0  0  0  0
  -24.4926  -31.6682   23.4140 C   0  0  0  0  0  0  0  0  0  0  0  0
  -26.7524  -33.4821   25.2167 C   0  0  0  0  0  0  0  0  0  0  0  0
  -26.5035  -22.7671   20.4803 C   0  0  0  0  0  0  0  0  0  0  0  0
  -19.5415  -26.5568   20.2209 C   0  0  0  0  0  0  0  0  0  0  0  0
  -24.4536  -28.0683   24.2219 C   0  0  0  0  0  0  0  0  0  0  0  0
  -26.3773  -30.0189   23.1085 C   0  0  0  0  0  0  0  0  0  0  0  0
  -19.9671  -28.0011   20.4725 C   0  0  0  0  0  0  0  0  0  0  0  0
  -28.4064  -21.1068   22.9902 C   0  0  0  0  0  0  0  0  0  0  0  0
  -21.3330  -28.2713   19.8497 C   0  0  0  0  0  0  0  0  0  0  0  0
  -28.3349  -19.6326   22.5881 C   0  0  0  0  0  0  0  0  0  0  0  0
  -27.0967  -21.8357   22.6978 C   0  0  0  0  0  0  0  0  0  0  0  0
  -26.5424  -20.2349   20.9078 C   0  0  0  0  0  0  0  0  0  0  0  0
  -22.4108  -27.3770   20.4741 C   0  0  1  0  0  0  0  0  0  0  0  0
  -23.9976  -29.2510   23.3730 C   0  0  1  0  0  0  0  0  0  0  0  0
  -27.8587  -19.4711   21.1319 C   0  0  2  0  0  0  0  0  0  0  0  0
  -31.7612  -22.4050   18.2023 C   0  0  0  0  0  0  0  0  0  0  0  0
  -28.0081  -25.2183   15.3740 C   0  0  0  0  0  0  0  0  0  0  0  0
  -27.0909  -35.7472   26.2425 C   0  0  0  0  0  0  0  0  0  0  0  0
  -25.0638  -32.8312   20.6516 C   0  0  0  0  0  0  0  0  0  0  0  0
  -26.2761  -34.7138   21.7715 C   0  0  0  0  0  0  0  0  0  0  0  0
  -23.8427  -34.3700   22.1992 C   0  0  0  0  0  0  0  0  0  0  0  0
  -26.9755  -32.3438   27.9395 C   0  0  0  0  0  0  0  0  0  0  0  0
  -31.2412  -25.9003   20.8830 C   0  0  0  0  0  0  0  0  0  0  0  0
  -31.6379  -23.4453   19.3130 C   0  0  0  0  0  0  0  0  0  0  0  0
  -26.8297  -24.9129   16.2911 C   0  0  0  0  0  0  0  0  0  0  0  0
  -31.3626  -25.1295   22.1993 C   0  0  0  0  0  0  0  0  0  0  0  0
  -25.9033  -23.5470   18.2020 C   0  0  0  0  0  0  0  0  0  0  0  0
  -30.1117  -25.2143   23.0662 C   0  0  0  0  0  0  0  0  0  1  0  0
  -27.2003  -23.9254   17.4371 C   0  0  2  0  0  0  0  0  0  0  0  0
  -25.5159  -32.7558   23.1924 C   0  0  1  0  0  0  0  0  0  0  0  0
  -26.5971  -34.3267   26.4685 C   0  0  2  0  0  0  0  0  0  0  0  0
  -25.1823  -33.6407   21.9583 C   0  0  0  0  0  0  0  0  0  0  0  0
  -29.0253  -26.0707   19.8977 N   0  0  0  0  0  0  0  0  0  0  0  0
  -26.5636  -17.3858   20.8930 N   0  0  0  0  0  0  0  0  0  0  0  0
  -29.4167  -23.7288   18.4052 N   0  0  0  0  0  0  0  0  0  0  0  0
  -27.7440  -18.0097   20.7394 N   0  0  0  0  0  0  0  0  0  0  0  0
  -24.9661  -30.3493   23.3671 N   0  0  0  0  0  0  0  0  0  0  0  0
  -26.7017  -21.6439   21.3002 N   0  0  0  0  0  0  0  0  0  0  0  0
  -29.9735  -17.6807   20.0101 N   0  0  0  0  0  0  0  0  0  0  0  0
  -28.0628  -13.6378   19.3770 N   0  0  0  0  0  0  0  0  0  0  0  0
  -22.8016  -27.8868   21.7709 N   0  0  0  0  0  0  0  0  0  0  0  0
  -25.6074  -33.4921   24.4485 N   0  0  0  0  0  0  0  0  0  0  0  0
  -26.1368  -22.4964   19.1677 N   0  0  0  0  0  0  0  0  0  0  0  0
  -27.3731  -33.7328   27.5937 N   0  3  0  0  0  0  0  0  0  0  0  0
  -30.0155  -14.8249   19.1857 O   0  0  0  0  0  0  0  0  0  0  0  0
  -24.3775  -29.4424   21.0505 O   0  0  0  0  0  0  0  0  0  0  0  0
  -23.3179  -31.9776   23.6282 O   0  0  0  0  0  0  0  0  0  0  0  0
  -27.7873  -32.8772   24.9455 O   0  0  0  0  0  0  0  0  0  0  0  0
  -26.6482  -23.9251   20.8864 O   0  0  0  0  0  0  0  0  0  0  0  0
  -22.7729  -12.2857   20.4833 O   0  0  0  0  0  0  0  0  0  0  0  0
  -29.8535  -26.5856   23.3650 O   0  0  0  0  0  0  0  0  0  1  0  0
  -24.0302   -7.2692   22.3959 F   0  0  0  0  0  0  0  0  0  0  0  0
  -24.7540  -10.7692   19.2924 F   0  0  0  0  0  0  0  0  0  0  0  0
  1  2  1  0  0  0  0
  1  5  2  0  0  0  0
  2  6  2  0  0  0  0
  3  8  2  0  0  0  0
  3 16  1  0  0  0  0
  4  9  1  0  0  0  0
  4 16  2  0  0  0  0
  5 18  1  0  0  0  0
  6 20  1  0  0  0  0
  7 10  2  0  0  0  0
  7 19  1  0  0  0  0
  8 22  1  0  0  0  0
  9 22  2  0  0  0  0
 10 23  1  0  0  0  0
 11 12  2  0  0  0  0
 11 24  1  0  0  0  0
 12 25  1  0  0  0  0
 13 21  1  0  0  0  0
 13 23  2  0  0  0  0
 14 25  2  0  0  0  0
 14 26  1  0  0  0  0
 15 28  1  0  0  0  0
 15 66  2  0  0  0  0
 16 27  1  0  0  0  0
 17 27  1  0  0  0  0
 17 31  2  0  0  0  0
 17 32  1  0  0  0  0
 18 20  2  0  0  0  0
 18 37  1  0  0  0  0
 19 21  2  0  0  0  0
 19 38  1  0  0  0  0
 20 46  1  0  0  0  0
 21 39  1  0  0  0  0
 22 83  1  0  0  0  0
 23 84  1  0  0  0  0
 24 26  2  0  0  0  0
 24 83  1  0  0  0  0
 25 85  1  0  0  0  0
 26 86  1  0  0  0  0
 27 67  2  0  0  0  0
 28 62  1  0  0  0  0
 28 68  2  0  0  0  0
 29 30  2  0  0  0  0
 29 56  1  0  0  0  0
 29 66  1  0  0  0  0
 30 57  1  0  0  0  0
 30 68  1  0  0  0  0
 31 69  1  0  0  0  0
 31 72  1  0  0  0  0
 32 73  1  0  0  0  0
 32 78  2  0  0  0  0
 33 47  1  0  0  0  0
 33 74  1  0  0  0  0
 33 79  2  0  0  0  0
 34 63  1  0  0  0  0
 34 70  1  0  0  0  0
 34 80  2  0  0  0  0
 35 64  1  0  0  0  0
 35 75  1  0  0  0  0
 35 81  2  0  0  0  0
 36 71  1  0  0  0  0
 36 76  1  0  0  0  0
 36 82  2  0  0  0  0
 37 40  1  0  0  0  0
 38 47  1  0  0  0  0
 39 70  1  0  0  0  0
 40 42  1  0  0  0  0
 41 43  1  0  0  0  0
 41 44  1  0  0  0  0
 42 46  1  0  0  0  0
 43 48  1  0  0  0  0
 44 71  1  0  0  0  0
 45 48  1  0  0  0  0
 45 71  1  0  0  0  0
 46 74  1  0  0  0  0
 47 70  1  0  0  0  0
 48 69  1  0  0  0  0
 49 57  1  0  0  0  0
 50 58  1  0  0  0  0
 51 64  1  0  0  0  0
 52 65  1  0  0  0  0
 53 65  1  0  0  0  0
 54 65  1  0  0  0  0
 55 77  1  0  0  0  0
 56 59  1  0  0  0  0
 58 62  1  0  0  0  0
 59 61  1  0  0  0  0
 60 62  1  0  0  0  0
 60 76  1  0  0  0  0
 61 84  1  0  0  0  0
 63 65  1  0  0  0  0
 63 75  1  0  0  0  0
 64 77  1  0  0  0  0
 67 69  1  0  0  0  0
M  CHG  1  77   1
M  ISO  4  36 100  61 101  76 100  84 101
M  END
> <Batch ID>
0072

> <Smiles>
CCc1nc(C(CC)C[100NH:0][100C:0](=O)N2CCCC(n3nc(-c4ccc(Oc5ccc(F)cc5F)cc4)c(C(N)=O)c3N)C2)cnc1CC[101CH2:1][101O:1]c1ccc2c(c1)CN(C(=O)C(NC(=O)C(C)NC)C(C)(C)C)C(C(=O)NC1CCCc3ccccc31)C2

> <Shape>
0.239

> <Color>
0.078

> <Negative vol penalty>
0.000

$$$$

  -OEChem-04052318243D

 87 95  0     1  0  0  0  0  0999 V2000
  -17.1129  -30.2354   23.7240 C   0  0  0  0  0  0  0  0  0  0  0  0
  -18.4007  -30.0787   24.2265 C   0  0  0  0  0  0  0  0  0  0  0  0
  -22.7155  -17.9209   24.7445 C   0  0  0  0  0  0  0  0  0  0  0  0
  -22.2227  -19.3884   22.8896 C   0  0  0  0  0  0  0  0  0  0  0  0
  -16.5691  -29.2616   22.8874 C   0  0  0  0  0  0  0  0  0  0  0  0
  -19.1450  -28.9475   23.8935 C   0  0  0  0  0  0  0  0  0  0  0  0
  -25.5170  -29.5424   20.5865 C   0  0  0  0  0  0  0  0  0  0  0  0
  -21.7748  -18.5921   25.5255 C   0  0  0  0  0  0  0  0  0  0  0  0
  -21.2819  -20.0596   23.6706 C   0  0  0  0  0  0  0  0  0  0  0  0
  -26.8392  -29.5812   20.1435 C   0  0  0  0  0  0  0  0  0  0  0  0
  -18.4918  -21.9296   25.0623 C   0  0  0  0  0  0  0  0  0  0  0  0
  -17.2569  -22.2216   24.4833 C   0  0  0  0  0  0  0  0  0  0  0  0
  -26.8983  -27.1646   20.0751 C   0  0  0  0  0  0  0  0  0  0  0  0
  -16.8655  -19.8640   24.1291 C   0  0  0  0  0  0  0  0  0  0  0  0
  -30.8890  -25.3869   20.2255 C   0  0  0  0  0  0  0  0  0  0  0  0
  -22.9396  -18.3190   23.4265 C   0  0  0  0  0  0  0  0  0  0  0  0
  -23.6893  -16.5082   21.7936 C   0  0  0  0  0  0  0  0  0  0  0  0
  -17.3107  -28.1226   22.5362 C   0  0  0  0  0  0  0  0  0  0  0  0
  -24.8746  -28.3135   20.7609 C   0  0  0  0  0  0  0  0  0  0  0  0
  -18.6101  -27.9569   23.0525 C   0  0  0  0  0  0  0  0  0  0  0  0
  -25.5700  -27.1199   20.5067 C   0  0  0  0  0  0  0  0  0  0  0  0
  -21.0580  -19.6615   24.9886 C   0  0  0  0  0  0  0  0  0  0  0  0
  -27.5282  -28.3952   19.8887 C   0  0  0  0  0  0  0  0  0  0  0  0
  -18.9137  -20.6048   25.1746 C   0  0  0  0  0  0  0  0  0  0  0  0
  -16.4437  -21.1888   24.0167 C   0  0  0  0  0  0  0  0  0  0  0  0
  -18.1005  -19.5720   24.7081 C   0  0  0  0  0  0  0  0  0  0  0  0
  -23.9116  -17.6264   22.6194 C   0  0  0  0  0  0  0  0  0  0  0  0
  -24.9197  -16.2338   21.2485 C   0  0  0  0  0  0  0  0  0  0  0  0
  -30.4159  -24.6736   18.3217 C   0  0  0  0  0  0  0  0  0  0  0  0
  -22.4787  -15.7825   21.5417 C   0  0  0  0  0  0  0  0  0  0  0  0
  -21.7348  -26.4996   21.7239 C   0  0  0  0  0  0  0  0  0  0  0  0
  -22.9101  -25.0240   19.3048 C   0  0  0  0  0  0  0  0  0  0  0  0
  -23.9556  -24.4387   16.3950 C   0  0  0  0  0  0  0  0  0  0  0  0
  -29.7631  -19.5987   20.2140 C   0  0  0  0  0  0  0  0  0  0  0  0
  -16.6629  -27.0741   21.6669 C   0  0  0  0  0  0  0  0  0  0  0  0
  -23.4711  -28.2225   21.2953 C   0  0  0  0  0  0  0  0  0  0  0  0
  -24.8499  -25.8201   20.7414 C   0  0  0  0  0  0  0  0  0  0  0  0
  -17.6567  -26.0866   21.0606 C   0  0  0  0  0  0  0  0  0  0  0  0
  -29.5973  -16.6302   22.1729 C   0  0  0  0  0  0  0  0  0  0  0  0
  -18.6356  -25.5949   22.1220 C   0  0  0  0  0  0  0  0  0  0  0  0
  -28.1012  -16.4481   22.4349 C   0  0  0  0  0  0  0  0  0  0  0  0
  -29.9953  -18.1045   22.1761 C   0  0  0  0  0  0  0  0  0  0  0  0
  -27.7148  -18.7776   21.5280 C   0  0  0  0  0  0  0  0  0  0  0  0
  -19.4580  -26.7558   22.6942 C   0  0  1  0  0  0  0  0  0  0  0  0
  -22.6695  -27.0560   20.6904 C   0  0  1  0  0  0  0  0  0  0  0  0
  -27.2554  -17.3104   21.4788 C   0  0  2  0  0  0  0  0  0  0  0  0
  -24.3361  -22.9839   14.3860 C   0  0  0  0  0  0  0  0  0  0  0  0
  -24.0581  -22.9094   21.1795 C   0  0  0  0  0  0  0  0  0  0  0  0
  -24.6349  -21.5388   19.1653 C   0  0  0  0  0  0  0  0  0  0  0  0
  -22.2516  -22.0858   19.6587 C   0  0  0  0  0  0  0  0  0  0  0  0
  -27.7558  -24.3015   16.7211 C   0  0  0  0  0  0  0  0  0  0  0  0
  -28.8739  -22.4348   15.4933 C   0  0  0  0  0  0  0  0  0  0  0  0
  -31.1335  -28.7469   19.7920 C   0  0  0  0  0  0  0  0  0  0  0  0
  -29.7227  -28.0208   21.6859 C   0  0  0  0  0  0  0  0  0  0  0  0
  -22.4181  -26.2600   14.6406 C   0  0  0  0  0  0  0  0  0  0  0  0
  -30.2487  -23.8750   17.1106 C   0  0  0  0  0  0  0  0  0  0  0  0
  -29.3684  -21.0802   18.2624 C   0  0  0  0  0  0  0  0  0  0  0  0
  -23.7908  -23.9039   18.8119 C   0  0  1  0  0  0  0  0  0  0  0  0
  -23.4222  -24.0082   15.0405 C   0  0  2  0  0  0  0  0  0  0  0  0
  -23.6937  -22.6360   19.7066 C   0  0  0  0  0  0  0  0  0  0  0  0
  -28.8409  -23.2066   16.8268 C   0  0  0  0  0  0  0  0  0  0  0  0
  -29.9303  -27.8475   20.1659 C   0  0  0  0  0  0  0  0  0  1  0  0
  -28.4283  -22.2462   17.9820 C   0  0  0  0  0  0  0  0  0  0  0  0
  -30.9995  -24.2821   19.4306 N   0  0  0  0  0  0  0  0  0  0  0  0
  -25.1834  -18.0344   22.6036 N   0  0  0  0  0  0  0  0  0  0  0  0
  -29.9813  -25.9548   18.4609 N   0  0  0  0  0  0  0  0  0  0  0  0
  -30.2738  -26.4373   19.6782 N   0  0  0  0  0  0  0  0  0  0  0  0
  -25.7712  -17.1678   21.7613 N   0  0  0  0  0  0  0  0  0  0  0  0
  -23.4725  -25.9098   20.2319 N   0  0  0  0  0  0  0  0  0  0  0  0
  -29.1565  -18.8663   21.2477 N   0  0  0  0  0  0  0  0  0  0  0  0
  -25.3456  -15.2872   20.3855 N   0  0  0  0  0  0  0  0  0  0  0  0
  -21.3044  -16.1985   22.1838 N   0  0  0  0  0  0  0  0  0  0  0  0
  -20.5080  -27.1337   21.7727 N   0  0  0  0  0  0  0  0  0  0  0  0
  -23.4251  -23.6806   17.4173 N   0  0  0  0  0  0  0  0  0  0  0  0
  -28.8953  -20.2872   19.3751 N   0  0  0  0  0  0  0  0  0  0  0  0
  -23.3068  -25.1837   14.1318 N   0  3  0  0  0  0  0  0  0  0  0  0
  -22.4428  -14.7844   20.7828 O   0  0  0  0  0  0  0  0  0  0  0  0
  -22.0982  -25.5627   22.4252 O   0  0  0  0  0  0  0  0  0  0  0  0
  -21.7526  -25.1104   18.8853 O   0  0  0  0  0  0  0  0  0  0  0  0
  -24.7650  -25.3534   16.5321 O   0  0  0  0  0  0  0  0  0  0  0  0
  -30.9871  -19.6321   20.0475 O   0  0  0  0  0  0  0  0  0  0  0  0
  -20.1397  -20.3165   25.7504 O   0  0  0  0  0  0  0  0  0  0  0  0
  -28.8175  -28.4403   19.4521 O   0  0  0  0  0  0  0  0  0  1  0  0
  -15.2571  -21.4693   23.4622 F   0  0  0  0  0  0  0  0  0  0  0  0
  -18.4999  -18.2972   24.8143 F   0  0  0  0  0  0  0  0  0  0  0  0
  -27.1919  -21.7379   17.7115 F   0  0  0  0  0  0  0  0  0  0  0  0
  -28.2933  -22.9721   19.1283 F   0  0  0  0  0  0  0  0  0  0  0  0
  1  2  1  0  0  0  0
  1  5  2  0  0  0  0
  2  6  2  0  0  0  0
  3  8  2  0  0  0  0
  3 16  1  0  0  0  0
  4  9  1  0  0  0  0
  4 16  2  0  0  0  0
  5 18  1  0  0  0  0
  6 20  1  0  0  0  0
  7 10  2  0  0  0  0
  7 19  1  0  0  0  0
  8 22  1  0  0  0  0
  9 22  2  0  0  0  0
 10 23  1  0  0  0  0
 11 12  2  0  0  0  0
 11 24  1  0  0  0  0
 12 25  1  0  0  0  0
 13 21  1  0  0  0  0
 13 23  2  0  0  0  0
 14 25  2  0  0  0  0
 14 26  1  0  0  0  0
 15 64  2  0  0  0  0
 15 67  1  0  0  0  0
 16 27  1  0  0  0  0
 17 27  1  0  0  0  0
 17 28  2  0  0  0  0
 17 30  1  0  0  0  0
 18 20  2  0  0  0  0
 18 35  1  0  0  0  0
 19 21  2  0  0  0  0
 19 36  1  0  0  0  0
 20 44  1  0  0  0  0
 21 37  1  0  0  0  0
 22 82  1  0  0  0  0
 23 83  1  0  0  0  0
 24 26  2  0  0  0  0
 24 82  1  0  0  0  0
 25 84  1  0  0  0  0
 26 85  1  0  0  0  0
 27 65  2  0  0  0  0
 28 68  1  0  0  0  0
 28 71  1  0  0  0  0
 29 56  1  0  0  0  0
 29 64  1  0  0  0  0
 29 66  2  0  0  0  0
 30 72  1  0  0  0  0
 30 77  2  0  0  0  0
 31 45  1  0  0  0  0
 31 73  1  0  0  0  0
 31 78  2  0  0  0  0
 32 58  1  0  0  0  0
 32 69  1  0  0  0  0
 32 79  2  0  0  0  0
 33 59  1  0  0  0  0
 33 74  1  0  0  0  0
 33 80  2  0  0  0  0
 34 70  1  0  0  0  0
 34 75  1  0  0  0  0
 34 81  2  0  0  0  0
 35 38  1  0  0  0  0
 36 45  1  0  0  0  0
 37 69  1  0  0  0  0
 38 40  1  0  0  0  0
 39 41  1  0  0  0  0
 39 42  1  0  0  0  0
 40 44  1  0  0  0  0
 41 46  1  0  0  0  0
 42 70  1  0  0  0  0
 43 46  1  0  0  0  0
 43 70  1  0  0  0  0
 44 73  1  0  0  0  0
 45 69  1  0  0  0  0
 46 68  1  0  0  0  0
 47 59  1  0  0  0  0
 48 60  1  0  0  0  0
 49 60  1  0  0  0  0
 50 60  1  0  0  0  0
 51 61  1  0  0  0  0
 52 61  1  0  0  0  0
 53 62  1  0  0  0  0
 54 62  1  0  0  0  0
 55 76  1  0  0  0  0
 56 61  1  0  0  0  0
 57 63  1  0  0  0  0
 57 75  1  0  0  0  0
 58 60  1  0  0  0  0
 58 74  1  0  0  0  0
 59 76  1  0  0  0  0
 61 63  1  0  0  0  0
 62 67  1  0  0  0  0
 62 83  1  0  0  0  0
 63 86  1  0  0  0  0
 63 87  1  0  0  0  0
 65 68  1  0  0  0  0
 66 67  1  0  0  0  0
M  CHG  1  76   1
M  ISO  4  34 100  62 101  75 100  83 101
M  END
> <Batch ID>
0072

> <Smiles>
CNC(C)C(=O)NC(C(=O)N1Cc2cc([101O:1][101C:1](C)(C)n3cnc(CC(C)(C)C(F)(F)C[100NH:0][100C:0](=O)N4CCCC(n5nc(-c6ccc(Oc7ccc(F)cc7F)cc6)c(C(N)=O)c5N)C4)n3)ccc2CC1C(=O)NC1CCCc2ccccc21)C(C)(C)C

> <Shape>
0.204

> <Color>
0.103

> <Negative vol penalty>
0.000

$$$$

  -OEChem-04052318243D

 85 93  0     1  0  0  0  0  0999 V2000
  -28.8147  -31.1666   27.0091 C   0  0  0  0  0  0  0  0  0  0  0  0
  -28.5972  -30.1671   26.0663 C   0  0  0  0  0  0  0  0  0  0  0  0
  -26.5001  -13.5997   21.7292 C   0  0  0  0  0  0  0  0  0  0  0  0
  -26.3037  -12.4446   19.6163 C   0  0  0  0  0  0  0  0  0  0  0  0
  -27.7425  -31.9215   27.4830 C   0  0  0  0  0  0  0  0  0  0  0  0
  -27.3071  -29.9210   25.5976 C   0  0  0  0  0  0  0  0  0  0  0  0
  -27.1446  -29.3413   20.5694 C   0  0  0  0  0  0  0  0  0  0  0  0
  -25.2424  -13.1274   22.1043 C   0  0  0  0  0  0  0  0  0  0  0  0
  -25.0460  -11.9722   19.9915 C   0  0  0  0  0  0  0  0  0  0  0  0
  -27.5575  -28.1125   20.0565 C   0  0  0  0  0  0  0  0  0  0  0  0
  -21.9383  -10.1667   20.5396 C   0  0  0  0  0  0  0  0  0  0  0  0
  -21.6522   -8.8224   20.3021 C   0  0  0  0  0  0  0  0  0  0  0  0
  -25.2524  -27.4359   19.8379 C   0  0  0  0  0  0  0  0  0  0  0  0
  -23.5016   -8.1789   21.7173 C   0  0  0  0  0  0  0  0  0  0  0  0
  -32.0712  -21.2741   17.7281 C   0  0  0  0  0  0  0  0  0  0  0  0
  -27.0307  -13.2583   20.4851 C   0  0  0  0  0  0  0  0  0  0  0  0
  -29.5729  -13.1253   20.3206 C   0  0  0  0  0  0  0  0  0  0  0  0
  -26.4401  -31.6911   27.0127 C   0  0  0  0  0  0  0  0  0  0  0  0
  -25.7804  -29.6230   20.7309 C   0  0  0  0  0  0  0  0  0  0  0  0
  -26.2163  -30.6726   26.0666 C   0  0  0  0  0  0  0  0  0  0  0  0
  -24.8247  -28.6700   20.3507 C   0  0  0  0  0  0  0  0  0  0  0  0
  -24.5154  -12.3136   21.2356 C   0  0  0  0  0  0  0  0  0  0  0  0
  -26.6115  -27.1584   19.6933 C   0  0  0  0  0  0  0  0  0  0  0  0
  -23.0060  -10.5172   21.3660 C   0  0  0  0  0  0  0  0  0  0  0  0
  -22.4339   -7.8284   20.8910 C   0  0  0  0  0  0  0  0  0  0  0  0
  -23.7877   -9.5233   21.9548 C   0  0  0  0  0  0  0  0  0  0  0  0
  -28.3296  -13.7464   20.0968 C   0  0  0  0  0  0  0  0  0  0  0  0
  -30.7701  -20.9788   18.0227 C   0  0  0  0  0  0  0  0  0  0  0  0
  -30.4904  -13.9834   19.7652 C   0  0  0  0  0  0  0  0  0  0  0  0
  -30.7955  -22.8532   16.8451 C   0  0  0  0  0  0  0  0  0  0  0  0
  -29.8719  -11.8836   20.9722 C   0  0  0  0  0  0  0  0  0  0  0  0
  -30.2810  -19.8254   18.7879 C   0  0  0  0  0  0  0  0  0  0  0  0
  -23.9045  -30.2833   23.2106 C   0  0  0  0  0  0  0  0  0  0  0  0
  -21.6831  -30.7814   20.8998 C   0  0  0  0  0  0  0  0  0  0  0  0
  -20.6200  -30.1505   17.7189 C   0  0  0  0  0  0  0  0  0  0  0  0
  -25.3060  -32.5009   27.5896 C   0  0  0  0  0  0  0  0  0  0  0  0
  -25.3506  -30.9635   21.2607 C   0  0  0  0  0  0  0  0  0  0  0  0
  -23.3474  -28.9310   20.4853 C   0  0  0  0  0  0  0  0  0  0  0  0
  -24.0241  -32.4283   26.7640 C   0  0  0  0  0  0  0  0  0  0  0  0
  -30.9514  -17.2589   16.3120 C   0  0  0  0  0  0  0  0  0  0  0  0
  -23.7164  -30.9840   26.3817 C   0  0  0  0  0  0  0  0  0  0  0  0
  -30.4469  -16.0059   17.0289 C   0  0  0  0  0  0  0  0  0  0  0  0
  -30.0860  -18.4723   16.6380 C   0  0  0  0  0  0  0  0  0  0  0  0
  -29.4478  -17.4980   18.8190 C   0  0  0  0  0  0  0  0  0  0  0  0
  -24.8351  -30.3923   25.5156 C   0  0  1  0  0  0  0  0  0  0  0  0
  -23.9491  -30.9465   21.8631 C   0  0  1  0  0  0  0  0  0  0  0  0
  -30.3038  -16.2499   18.5426 C   0  0  1  0  0  0  0  0  0  0  0  0
  -30.3727  -24.0729   16.1131 C   0  0  0  0  0  0  0  0  0  0  0  0
  -28.1598  -20.7427   15.2709 C   0  0  0  0  0  0  0  0  0  0  0  0
  -18.7498  -30.6684   16.1278 C   0  0  0  0  0  0  0  0  0  0  0  0
  -19.8778  -28.8229   22.3882 C   0  0  0  0  0  0  0  0  0  0  0  0
  -18.4755  -28.6529   20.3211 C   0  0  0  0  0  0  0  0  0  0  0  0
  -18.7091  -30.8436   21.4910 C   0  0  0  0  0  0  0  0  0  0  0  0
  -29.6941  -23.4707   20.1009 C   0  0  0  0  0  0  0  0  0  0  0  0
  -27.2379  -23.3891   20.5948 C   0  0  0  0  0  0  0  0  0  0  0  0
  -27.8063  -20.9032   18.3150 C   0  0  0  0  0  0  0  0  0  0  0  0
  -22.4597  -31.4440   15.7950 C   0  0  0  0  0  0  0  0  0  0  0  0
  -27.8993  -22.0219   16.0641 C   0  0  0  0  0  0  0  0  0  0  0  0
  -27.9846  -23.4434   18.1377 C   0  0  0  0  0  0  0  0  0  0  0  0
  -28.2700  -25.4548   19.6396 C   0  0  0  0  0  0  0  0  0  1  0  0
  -20.6687  -29.9190   20.1884 C   0  0  1  0  0  0  0  0  0  0  0  0
  -20.1307  -31.0747   16.6184 C   0  0  2  0  0  0  0  0  0  0  0  0
  -19.4606  -29.5536   21.0963 C   0  0  0  0  0  0  0  0  0  0  0  0
  -28.3069  -23.8986   19.6038 C   0  0  0  0  0  0  0  0  0  0  0  0
  -28.4639  -22.0629   17.5348 C   0  0  1  0  0  0  0  0  0  0  0  0
  -28.4432  -14.9094   19.4498 N   0  0  0  0  0  0  0  0  0  0  0  0
  -30.0028  -21.9725   17.4642 N   0  0  0  0  0  0  0  0  0  0  0  0
  -29.7689  -15.0259   19.2624 N   0  0  0  0  0  0  0  0  0  0  0  0
  -32.0573  -22.4390   16.9995 N   0  3  0  0  0  0  0  0  0  0  0  0
  -29.9740  -18.6542   18.0908 N   0  0  0  0  0  0  0  0  0  0  0  0
  -22.9773  -30.2542   21.0142 N   0  0  0  0  0  0  0  0  0  0  0  0
  -31.8358  -13.9404   19.6628 N   0  0  0  0  0  0  0  0  0  0  0  0
  -28.8104  -11.1261   21.4859 N   0  0  0  0  0  0  0  0  0  0  0  0
  -24.7263  -30.8701   24.1539 N   0  0  0  0  0  0  0  0  0  0  0  0
  -20.3058  -30.6359   18.9707 N   0  0  0  0  0  0  0  0  0  0  0  0
  -21.0687  -31.0437   15.4608 N   0  3  0  0  0  0  0  0  0  0  0  0
  -31.0468  -11.4664   21.1098 O   0  0  0  0  0  0  0  0  0  0  0  0
  -30.1884  -19.9814   20.0046 O   0  0  0  0  0  0  0  0  0  0  0  0
  -23.1773  -29.3121   23.3823 O   0  0  0  0  0  0  0  0  0  0  0  0
  -21.3417  -31.8852   21.3318 O   0  0  0  0  0  0  0  0  0  0  0  0
  -21.2176  -29.1011   17.4907 O   0  0  0  0  0  0  0  0  0  0  0  0
  -23.2882  -11.8524   21.6014 O   0  0  0  0  0  0  0  0  0  0  0  0
  -27.0146  -25.9497   19.1896 O   0  0  0  0  0  0  0  0  0  1  0  0
  -22.1581   -6.5375   20.6640 F   0  0  0  0  0  0  0  0  0  0  0  0
  -24.8140   -9.8538   22.7505 F   0  0  0  0  0  0  0  0  0  0  0  0
  1  2  1  0  0  0  0
  1  5  2  0  0  0  0
  2  6  2  0  0  0  0
  3  8  2  0  0  0  0
  3 16  1  0  0  0  0
  4  9  1  0  0  0  0
  4 16  2  0  0  0  0
  5 18  1  0  0  0  0
  6 20  1  0  0  0  0
  7 10  2  0  0  0  0
  7 19  1  0  0  0  0
  8 22  1  0  0  0  0
  9 22  2  0  0  0  0
 10 23  1  0  0  0  0
 11 12  2  0  0  0  0
 11 24  1  0  0  0  0
 12 25  1  0  0  0  0
 13 21  1  0  0  0  0
 13 23  2  0  0  0  0
 14 25  2  0  0  0  0
 14 26  1  0  0  0  0
 15 28  2  0  0  0  0
 15 69  1  0  0  0  0
 16 27  1  0  0  0  0
 17 27  1  0  0  0  0
 17 29  2  0  0  0  0
 17 31  1  0  0  0  0
 18 20  2  0  0  0  0
 18 36  1  0  0  0  0
 19 21  2  0  0  0  0
 19 37  1  0  0  0  0
 20 45  1  0  0  0  0
 21 38  1  0  0  0  0
 22 82  1  0  0  0  0
 23 83  1  0  0  0  0
 24 26  2  0  0  0  0
 24 82  1  0  0  0  0
 25 84  1  0  0  0  0
 26 85  1  0  0  0  0
 27 66  2  0  0  0  0
 28 32  1  0  0  0  0
 28 67  1  0  0  0  0
 29 68  1  0  0  0  0
 29 72  1  0  0  0  0
 30 48  1  0  0  0  0
 30 67  1  0  0  0  0
 30 69  2  0  0  0  0
 31 73  1  0  0  0  0
 31 77  2  0  0  0  0
 32 70  1  0  0  0  0
 32 78  2  0  0  0  0
 33 46  1  0  0  0  0
 33 74  1  0  0  0  0
 33 79  2  0  0  0  0
 34 61  1  0  0  0  0
 34 71  1  0  0  0  0
 34 80  2  0  0  0  0
 35 62  1  0  0  0  0
 35 75  1  0  0  0  0
 35 81  2  0  0  0  0
 36 39  1  0  0  0  0
 37 46  1  0  0  0  0
 38 71  1  0  0  0  0
 39 41  1  0  0  0  0
 40 42  1  0  0  0  0
 40 43  1  0  0  0  0
 41 45  1  0  0  0  0
 42 47  1  0  0  0  0
 43 70  1  0  0  0  0
 44 47  1  0  0  0  0
 44 70  1  0  0  0  0
 45 74  1  0  0  0  0
 46 71  1  0  0  0  0
 47 68  1  0  0  0  0
 49 58  1  0  0  0  0
 50 62  1  0  0  0  0
 51 63  1  0  0  0  0
 52 63  1  0  0  0  0
 53 63  1  0  0  0  0
 54 64  1  0  0  0  0
 55 64  1  0  0  0  0
 56 65  1  0  0  0  0
 57 76  1  0  0  0  0
 58 65  1  0  0  0  0
 59 64  1  0  0  0  0
 59 65  1  0  0  0  0
 60 64  1  0  0  0  0
 60 83  1  0  0  0  0
 61 63  1  0  0  0  0
 61 75  1  0  0  0  0
 62 76  1  0  0  0  0
 65 67  1  0  0  0  0
 66 68  1  0  0  0  0
M  CHG  2  69   1  76   1
M  ISO  4  28 100  32 100  60 101  83 101
M  END
> <Batch ID>
0072

> <Smiles>
CCC(C)(CC(C)(C)[101CH2:1][101O:1]c1ccc2c(c1)CN(C(=O)C(NC(=O)C(C)NC)C(C)(C)C)C(C(=O)NC1CCCc3ccccc31)C2)n1c(C)nc[100c:0]1[100C:0](=O)N1CCCC(n2nc(-c3ccc(Oc4ccc(F)cc4F)cc3)c(C(N)=O)c2N)C1

> <Shape>
0.298

> <Color>
0.099

> <Negative vol penalty>
0.000

$$$$

  -OEChem-04052318243D

 88 96  0     1  0  0  0  0  0999 V2000
  -31.7287  -14.3880   22.3688 C   0  0  0  0  0  0  0  0  0  0  0  0
  -30.7550  -15.3445   22.6381 C   0  0  0  0  0  0  0  0  0  0  0  0
  -28.7507  -26.2405   19.6141 C   0  0  0  0  0  0  0  0  0  0  0  0
  -26.6779  -25.3243   18.7767 C   0  0  0  0  0  0  0  0  0  0  0  0
  -31.4961  -13.4112   21.4016 C   0  0  0  0  0  0  0  0  0  0  0  0
  -29.5484  -15.3252   21.9395 C   0  0  0  0  0  0  0  0  0  0  0  0
  -25.5417  -15.9942   24.9634 C   0  0  0  0  0  0  0  0  0  0  0  0
  -29.3629  -24.9968   19.4595 C   0  0  0  0  0  0  0  0  0  0  0  0
  -27.2901  -24.0806   18.6220 C   0  0  0  0  0  0  0  0  0  0  0  0
  -25.2703  -17.2961   25.3820 C   0  0  0  0  0  0  0  0  0  0  0  0
  -28.2084  -20.5749   18.3448 C   0  0  0  0  0  0  0  0  0  0  0  0
  -27.5098  -19.4495   18.7819 C   0  0  0  0  0  0  0  0  0  0  0  0
  -23.5588  -17.4763   23.6916 C   0  0  0  0  0  0  0  0  0  0  0  0
  -18.1294  -23.4962   24.6716 C   0  0  0  0  0  0  0  0  0  0  0  0
  -27.4679  -20.3466   21.0248 C   0  0  0  0  0  0  0  0  0  0  0  0
  -27.4081  -26.4043   19.2728 C   0  0  0  0  0  0  0  0  0  0  0  0
  -26.7010  -28.7243   18.4822 C   0  0  0  0  0  0  0  0  0  0  0  0
  -30.2821  -13.3741   20.6975 C   0  0  0  0  0  0  0  0  0  0  0  0
  -24.8300  -15.4265   23.8968 C   0  0  0  0  0  0  0  0  0  0  0  0
  -29.2998  -14.3478   20.9609 C   0  0  0  0  0  0  0  0  0  0  0  0
  -23.8214  -16.1662   23.2630 C   0  0  0  0  0  0  0  0  0  0  0  0
  -19.0791  -23.7742   25.6854 C   0  0  0  0  0  0  0  0  0  0  0  0
  -28.6327  -23.9168   18.9634 C   0  0  0  0  0  0  0  0  0  0  0  0
  -24.2807  -18.0384   24.7442 C   0  0  0  0  0  0  0  0  0  0  0  0
  -28.5369  -21.5861   19.2478 C   0  0  0  0  0  0  0  0  0  0  0  0
  -27.1395  -19.3354   20.1218 C   0  0  0  0  0  0  0  0  0  0  0  0
  -28.1666  -21.4720   20.5877 C   0  0  0  0  0  0  0  0  0  0  0  0
  -26.7750  -27.6886   19.4329 C   0  0  0  0  0  0  0  0  0  0  0  0
  -18.3285  -24.4095   23.6599 C   0  0  0  0  0  0  0  0  0  0  0  0
  -19.8295  -24.8491   25.2624 C   0  0  0  0  0  0  0  0  0  0  0  0
  -26.0026  -29.7229   19.1160 C   0  0  0  0  0  0  0  0  0  0  0  0
  -27.2173  -28.7788   17.1458 C   0  0  0  0  0  0  0  0  0  0  0  0
  -25.6054  -14.3177   21.0205 C   0  0  0  0  0  0  0  0  0  0  0  0
  -22.4876  -13.4249   20.9533 C   0  0  0  0  0  0  0  0  0  0  0  0
  -19.3114  -13.9034   22.1065 C   0  0  0  0  0  0  0  0  0  0  0  0
  -22.0386  -29.7107   23.6035 C   0  0  0  0  0  0  0  0  0  0  0  0
  -30.0951  -12.3276   19.6277 C   0  0  0  0  0  0  0  0  0  0  0  0
  -25.1165  -14.0115   23.4748 C   0  0  0  0  0  0  0  0  0  0  0  0
  -23.0149  -15.5956   22.1262 C   0  0  0  0  0  0  0  0  0  0  0  0
  -28.6415  -12.1504   19.1966 C   0  0  0  0  0  0  0  0  0  0  0  0
  -25.1198  -31.4901   23.4735 C   0  0  0  0  0  0  0  0  0  0  0  0
  -27.9863  -13.5070   18.9575 C   0  0  0  0  0  0  0  0  0  0  0  0
  -25.8867  -30.8111   22.3375 C   0  0  0  0  0  0  0  0  0  0  0  0
  -24.2931  -30.4870   24.2750 C   0  0  0  0  0  0  0  0  0  0  0  0
  -24.1468  -28.9749   22.3344 C   0  0  0  0  0  0  0  0  0  0  0  0
  -27.9683  -14.3449   20.2417 C   0  0  1  0  0  0  0  0  0  0  0  0
  -24.6828  -13.7158   22.0424 C   0  0  1  0  0  0  0  0  0  0  0  0
  -24.9513  -29.9546   21.4630 C   0  0  2  0  0  0  0  0  0  0  0  0
  -17.6176  -24.5680   22.3745 C   0  0  0  0  0  0  0  0  0  0  0  0
  -20.9501  -25.5488   25.9264 C   0  0  0  0  0  0  0  0  0  0  0  0
  -16.9683  -13.0458   21.8386 C   0  0  0  0  0  0  0  0  0  0  0  0
  -19.0401  -23.8918   28.2693 C   0  0  0  0  0  0  0  0  0  0  0  0
  -18.1440  -21.9134   27.0756 C   0  0  0  0  0  0  0  0  0  0  0  0
  -22.2472  -14.9168   18.3026 C   0  0  0  0  0  0  0  0  0  0  0  0
  -19.7586  -14.8431   18.5666 C   0  0  0  0  0  0  0  0  0  0  0  0
  -21.0542  -12.7200   18.3752 C   0  0  0  0  0  0  0  0  0  0  0  0
  -19.1642  -13.0805   24.9455 C   0  0  0  0  0  0  0  0  0  0  0  0
  -20.9455  -21.3353   25.9577 C   0  0  0  0  0  0  0  0  0  0  0  0
  -22.3638  -20.7787   26.0862 C   0  0  0  0  0  0  0  0  0  0  0  0
  -20.6298  -22.3095   27.1024 C   0  0  0  0  0  0  0  0  0  0  0  0
  -19.3913  -27.7036   23.6881 C   0  0  0  0  0  0  0  0  0  0  0  0
  -19.8864  -26.3220   23.2396 C   0  0  0  0  0  0  0  0  0  0  0  0
  -19.8493  -28.8601   22.8020 C   0  0  0  0  0  0  0  0  0  0  0  0
  -22.6768  -19.7781   24.9825 C   0  0  0  0  0  0  0  0  0  1  0  0
  -21.1994  -14.0727   20.5061 C   0  0  1  0  0  0  0  0  0  0  0  0
  -18.2681  -12.9271   22.6191 C   0  0  2  0  0  0  0  0  0  0  0  0
  -19.2370  -23.0100   27.0127 C   0  0  0  0  0  0  0  0  0  0  0  0
  -21.0812  -14.1499   18.9577 C   0  0  0  0  0  0  0  0  0  0  0  0
  -26.1719  -28.0005   20.5831 N   0  0  0  0  0  0  0  0  0  0  0  0
  -19.3642  -25.2271   24.0301 N   0  0  0  0  0  0  0  0  0  0  0  0
  -25.7123  -29.2434   20.3594 N   0  0  0  0  0  0  0  0  0  0  0  0
  -23.3367  -14.2101   21.7460 N   0  0  0  0  0  0  0  0  0  0  0  0
  -23.4265  -29.7081   23.3872 N   0  0  0  0  0  0  0  0  0  0  0  0
  -25.6147  -30.9555   18.7254 N   0  0  0  0  0  0  0  0  0  0  0  0
  -27.9101  -27.6654   16.6512 N   0  0  0  0  0  0  0  0  0  0  0  0
  -26.9159  -13.8922   21.1259 N   0  0  0  0  0  0  0  0  0  0  0  0
  -20.1230  -13.3288   21.1513 N   0  0  0  0  0  0  0  0  0  0  0  0
  -21.2896  -28.9516   22.7128 N   0  0  0  0  0  0  0  0  0  0  0  0
  -17.9779  -13.1870   24.0575 N   0  3  0  0  0  0  0  0  0  0  0  0
  -27.0829  -29.7914   16.4176 O   0  0  0  0  0  0  0  0  0  0  0  0
  -25.1609  -15.1084   20.1966 O   0  0  0  0  0  0  0  0  0  0  0  0
  -22.7282  -12.2625   20.6178 O   0  0  0  0  0  0  0  0  0  0  0  0
  -19.3955  -15.0612   22.5102 O   0  0  0  0  0  0  0  0  0  0  0  0
  -21.5059  -30.3470   24.5191 O   0  0  0  0  0  0  0  0  0  0  0  0
  -29.2298  -22.7031   18.8121 O   0  0  0  0  0  0  0  0  0  0  0  0
  -24.0142  -19.3095   25.1504 O   0  0  0  0  0  0  0  0  0  1  0  0
  -26.4673  -18.2553   20.5411 F   0  0  0  0  0  0  0  0  0  0  0  0
  -28.4783  -22.4408   21.4596 F   0  0  0  0  0  0  0  0  0  0  0  0
  1  2  1  0  0  0  0
  1  5  2  0  0  0  0
  2  6  2  0  0  0  0
  3  8  2  0  0  0  0
  3 16  1  0  0  0  0
  4  9  1  0  0  0  0
  4 16  2  0  0  0  0
  5 18  1  0  0  0  0
  6 20  1  0  0  0  0
  7 10  2  0  0  0  0
  7 19  1  0  0  0  0
  8 23  1  0  0  0  0
  9 23  2  0  0  0  0
 10 24  1  0  0  0  0
 11 12  2  0  0  0  0
 11 25  1  0  0  0  0
 12 26  1  0  0  0  0
 13 21  1  0  0  0  0
 13 24  2  0  0  0  0
 14 22  1  0  0  0  0
 14 29  2  0  0  0  0
 15 26  2  0  0  0  0
 15 27  1  0  0  0  0
 16 28  1  0  0  0  0
 17 28  1  0  0  0  0
 17 31  2  0  0  0  0
 17 32  1  0  0  0  0
 18 20  2  0  0  0  0
 18 37  1  0  0  0  0
 19 21  2  0  0  0  0
 19 38  1  0  0  0  0
 20 46  1  0  0  0  0
 21 39  1  0  0  0  0
 22 30  2  0  0  0  0
 22 67  1  0  0  0  0
 23 85  1  0  0  0  0
 24 86  1  0  0  0  0
 25 27  2  0  0  0  0
 25 85  1  0  0  0  0
 26 87  1  0  0  0  0
 27 88  1  0  0  0  0
 28 69  2  0  0  0  0
 29 49  1  0  0  0  0
 29 70  1  0  0  0  0
 30 50  1  0  0  0  0
 30 70  1  0  0  0  0
 31 71  1  0  0  0  0
 31 74  1  0  0  0  0
 32 75  1  0  0  0  0
 32 80  2  0  0  0  0
 33 47  1  0  0  0  0
 33 76  1  0  0  0  0
 33 81  2  0  0  0  0
 34 65  1  0  0  0  0
 34 72  1  0  0  0  0
 34 82  2  0  0  0  0
 35 66  1  0  0  0  0
 35 77  1  0  0  0  0
 35 83  2  0  0  0  0
 36 73  1  0  0  0  0
 36 78  1  0  0  0  0
 36 84  2  0  0  0  0
 37 40  1  0  0  0  0
 38 47  1  0  0  0  0
 39 72  1  0  0  0  0
 40 42  1  0  0  0  0
 41 43  1  0  0  0  0
 41 44  1  0  0  0  0
 42 46  1  0  0  0  0
 43 48  1  0  0  0  0
 44 73  1  0  0  0  0
 45 48  1  0  0  0  0
 45 73  1  0  0  0  0
 46 76  1  0  0  0  0
 47 72  1  0  0  0  0
 48 71  1  0  0  0  0
 51 66  1  0  0  0  0
 52 67  1  0  0  0  0
 53 67  1  0  0  0  0
 54 68  1  0  0  0  0
 55 68  1  0  0  0  0
 56 68  1  0  0  0  0
 57 79  1  0  0  0  0
 58 59  1  0  0  0  0
 58 60  1  0  0  0  0
 59 64  1  0  0  0  0
 60 67  1  0  0  0  0
 61 62  1  0  0  0  0
 61 63  1  0  0  0  0
 62 70  1  0  0  0  0
 63 78  1  0  0  0  0
 64 86  1  0  0  0  0
 65 68  1  0  0  0  0
 65 77  1  0  0  0  0
 66 79  1  0  0  0  0
 69 71  1  0  0  0  0
M  CHG  1  79   1
M  ISO  4  36 100  64 101  78 100  86 101
M  END
> <Batch ID>
0072

> <Smiles>
CNC(C)C(=O)NC(C(=O)N1Cc2cc([101O:1][101CH2:1]CCCC(C)(C)c3cc(C)n(CCC[100NH:0][100C:0](=O)N4CCCC(n5nc(-c6ccc(Oc7ccc(F)cc7F)cc6)c(C(N)=O)c5N)C4)c3C)ccc2CC1C(=O)NC1CCCc2ccccc21)C(C)(C)C

> <Shape>
0.224

> <Color>
0.073

> <Negative vol penalty>
0.000

$$$$

  -OEChem-04052318243D

 87 95  0     1  0  0  0  0  0999 V2000
  -32.7899  -20.0048   24.7431 C   0  0  0  0  0  0  0  0  0  0  0  0
  -31.4403  -20.3283   24.6472 C   0  0  0  0  0  0  0  0  0  0  0  0
  -28.3429  -28.1538   18.9277 C   0  0  0  0  0  0  0  0  0  0  0  0
  -27.3589  -26.2673   20.0721 C   0  0  0  0  0  0  0  0  0  0  0  0
  -33.3775  -19.1793   23.7854 C   0  0  0  0  0  0  0  0  0  0  0  0
  -30.6777  -19.8273   23.5927 C   0  0  0  0  0  0  0  0  0  0  0  0
  -26.1795  -18.0668   25.1134 C   0  0  0  0  0  0  0  0  0  0  0  0
  -29.5811  -27.5117   18.9336 C   0  0  0  0  0  0  0  0  0  0  0  0
  -28.5971  -25.6251   20.0781 C   0  0  0  0  0  0  0  0  0  0  0  0
  -25.1841  -19.0067   25.3773 C   0  0  0  0  0  0  0  0  0  0  0  0
  -30.5068  -23.8804   17.9033 C   0  0  0  0  0  0  0  0  0  0  0  0
  -30.5373  -22.5316   17.5495 C   0  0  0  0  0  0  0  0  0  0  0  0
  -24.2084  -18.5716   23.2145 C   0  0  0  0  0  0  0  0  0  0  0  0
  -31.4497  -21.9833   19.7184 C   0  0  0  0  0  0  0  0  0  0  0  0
  -19.6065  -27.0672   21.2695 C   0  0  0  0  0  0  0  0  0  0  0  0
  -27.2318  -27.5317   19.4969 C   0  0  0  0  0  0  0  0  0  0  0  0
  -24.9566  -28.1125   18.5001 C   0  0  0  0  0  0  0  0  0  0  0  0
  -32.6195  -18.6601   22.7241 C   0  0  0  0  0  0  0  0  0  0  0  0
  -26.2032  -17.3791   23.8916 C   0  0  0  0  0  0  0  0  0  0  0  0
  -31.2560  -18.9951   22.6192 C   0  0  0  0  0  0  0  0  0  0  0  0
  -25.2037  -17.6217   22.9386 C   0  0  0  0  0  0  0  0  0  0  0  0
  -29.7082  -26.2473   19.5088 C   0  0  0  0  0  0  0  0  0  0  0  0
  -24.2000  -19.2613   24.4266 C   0  0  0  0  0  0  0  0  0  0  0  0
  -30.9479  -24.2808   19.1646 C   0  0  0  0  0  0  0  0  0  0  0  0
  -31.0087  -21.5830   18.4570 C   0  0  0  0  0  0  0  0  0  0  0  0
  -31.4193  -23.3322   20.0721 C   0  0  0  0  0  0  0  0  0  0  0  0
  -25.9526  -28.1948   19.4916 C   0  0  0  0  0  0  0  0  0  0  0  0
  -19.1348  -28.3303   21.5633 C   0  0  0  0  0  0  0  0  0  0  0  0
  -20.1433  -26.3684   22.3315 C   0  0  0  0  0  0  0  0  0  0  0  0
  -23.9452  -28.9190   18.9617 C   0  0  0  0  0  0  0  0  0  0  0  0
  -19.7251  -28.0978   23.7461 C   0  0  0  0  0  0  0  0  0  0  0  0
  -24.9465  -27.3731   17.2717 C   0  0  0  0  0  0  0  0  0  0  0  0
  -28.2482  -17.1851   21.4659 C   0  0  0  0  0  0  0  0  0  0  0  0
  -26.1776  -14.9224   20.4100 C   0  0  0  0  0  0  0  0  0  0  0  0
  -23.0102  -13.6523   20.4425 C   0  0  0  0  0  0  0  0  0  0  0  0
  -22.3406  -30.7126   24.4444 C   0  0  0  0  0  0  0  0  0  0  0  0
  -33.3096  -17.8102   21.6868 C   0  0  0  0  0  0  0  0  0  0  0  0
  -27.2683  -16.3490   23.6331 C   0  0  0  0  0  0  0  0  0  0  0  0
  -25.1727  -16.8954   21.6195 C   0  0  0  0  0  0  0  0  0  0  0  0
  -32.3448  -17.0169   20.8092 C   0  0  0  0  0  0  0  0  0  0  0  0
  -23.1814  -32.7854   21.6743 C   0  0  0  0  0  0  0  0  0  0  0  0
  -31.2069  -17.9098   20.3245 C   0  0  0  0  0  0  0  0  0  0  0  0
  -23.8971  -31.8365   20.7114 C   0  0  0  0  0  0  0  0  0  0  0  0
  -23.5048  -32.4608   23.1311 C   0  0  0  0  0  0  0  0  0  0  0  0
  -23.9775  -30.1107   22.5590 C   0  0  0  0  0  0  0  0  0  0  0  0
  -30.3898  -18.4511   21.5039 C   0  0  1  0  0  0  0  0  0  0  0  0
  -27.4919  -16.0804   22.1481 C   0  0  1  0  0  0  0  0  0  0  0  0
  -23.6383  -30.3633   21.0800 C   0  0  2  0  0  0  0  0  0  0  0  0
  -18.5362  -29.1621   20.4792 C   0  0  0  0  0  0  0  0  0  0  0  0
  -21.6123  -11.8199   19.4498 C   0  0  0  0  0  0  0  0  0  0  0  0
  -18.9996  -27.7973   26.1291 C   0  0  0  0  0  0  0  0  0  0  0  0
  -26.0319  -16.4619   17.7797 C   0  0  0  0  0  0  0  0  0  0  0  0
  -23.9654  -15.1657   17.2160 C   0  0  0  0  0  0  0  0  0  0  0  0
  -26.1354  -13.9758   17.5289 C   0  0  0  0  0  0  0  0  0  0  0  0
  -22.4507  -12.4800   23.1018 C   0  0  0  0  0  0  0  0  0  0  0  0
  -22.2525  -22.2742   23.9828 C   0  0  0  0  0  0  0  0  0  0  0  0
  -21.6439  -23.0496   22.8195 C   0  0  0  0  0  0  0  0  0  0  0  0
  -21.2406  -28.8498   25.6606 C   0  0  0  0  0  0  0  0  0  0  0  0
  -22.6825  -20.8753   23.5616 C   0  0  0  0  0  0  0  0  0  1  0  0
  -21.1747  -24.4322   23.2497 C   0  0  0  0  0  0  0  0  0  0  0  0
  -24.9407  -14.9255   19.5445 C   0  0  1  0  0  0  0  0  0  0  0  0
  -22.4950  -12.2350   20.6165 C   0  0  2  0  0  0  0  0  0  0  0  0
  -19.7909  -28.6701   25.1214 C   0  0  1  0  0  0  0  0  0  0  0  0
  -25.2698  -15.1475   18.0413 C   0  0  0  0  0  0  0  0  0  0  0  0
  -25.6054  -28.9908   20.5064 N   0  0  0  0  0  0  0  0  0  0  0  0
  -19.1784  -28.8790   22.7951 N   0  0  0  0  0  0  0  0  0  0  0  0
  -20.2190  -26.8550   23.5876 N   0  0  0  0  0  0  0  0  0  0  0  0
  -24.3800  -29.4162   20.1550 N   0  0  0  0  0  0  0  0  0  0  0  0
  -26.2392  -15.9021   21.4111 N   0  0  0  0  0  0  0  0  0  0  0  0
  -23.2360  -31.0492   23.4158 N   0  0  0  0  0  0  0  0  0  0  0  0
  -22.7352  -29.2444   18.4592 N   0  0  0  0  0  0  0  0  0  0  0  0
  -26.0672  -26.5950   16.9511 N   0  0  0  0  0  0  0  0  0  0  0  0
  -29.4948  -17.4321   22.0086 N   0  0  0  0  0  0  0  0  0  0  0  0
  -24.2429  -13.6754   19.8252 N   0  0  0  0  0  0  0  0  0  0  0  0
  -22.1377  -29.3526   24.6441 N   0  0  0  0  0  0  0  0  0  0  0  0
  -21.6986  -12.1237   21.8712 N   0  3  0  0  0  0  0  0  0  0  0  0
  -23.9793  -27.4146   16.4740 O   0  0  0  0  0  0  0  0  0  0  0  0
  -27.7391  -17.7692   20.5165 O   0  0  0  0  0  0  0  0  0  0  0  0
  -27.0535  -14.0772   20.2099 O   0  0  0  0  0  0  0  0  0  0  0  0
  -22.3802  -14.6402   20.8135 O   0  0  0  0  0  0  0  0  0  0  0  0
  -21.7605  -31.5613   25.1301 O   0  0  0  0  0  0  0  0  0  0  0  0
  -19.1747  -29.9787   25.1940 O   0  0  0  0  0  0  0  0  0  0  0  0
  -30.9163  -25.6203   19.5146 O   0  0  0  0  0  0  0  0  0  0  0  0
  -23.2276  -20.1786   24.6814 O   0  0  0  0  0  0  0  0  0  1  0  0
  -20.6338  -25.1057   22.1215 O   0  0  0  0  0  0  0  0  0  0  0  0
  -31.0364  -20.2875   18.1177 F   0  0  0  0  0  0  0  0  0  0  0  0
  -31.8432  -23.7107   21.2858 F   0  0  0  0  0  0  0  0  0  0  0  0
  1  2  1  0  0  0  0
  1  5  2  0  0  0  0
  2  6  2  0  0  0  0
  3  8  2  0  0  0  0
  3 16  1  0  0  0  0
  4  9  1  0  0  0  0
  4 16  2  0  0  0  0
  5 18  1  0  0  0  0
  6 20  1  0  0  0  0
  7 10  2  0  0  0  0
  7 19  1  0  0  0  0
  8 22  1  0  0  0  0
  9 22  2  0  0  0  0
 10 23  1  0  0  0  0
 11 12  2  0  0  0  0
 11 24  1  0  0  0  0
 12 25  1  0  0  0  0
 13 21  1  0  0  0  0
 13 23  2  0  0  0  0
 14 25  2  0  0  0  0
 14 26  1  0  0  0  0
 15 28  2  0  0  0  0
 15 29  1  0  0  0  0
 16 27  1  0  0  0  0
 17 27  1  0  0  0  0
 17 30  2  0  0  0  0
 17 32  1  0  0  0  0
 18 20  2  0  0  0  0
 18 37  1  0  0  0  0
 19 21  2  0  0  0  0
 19 38  1  0  0  0  0
 20 46  1  0  0  0  0
 21 39  1  0  0  0  0
 22 83  1  0  0  0  0
 23 84  1  0  0  0  0
 24 26  2  0  0  0  0
 24 83  1  0  0  0  0
 25 86  1  0  0  0  0
 26 87  1  0  0  0  0
 27 65  2  0  0  0  0
 28 49  1  0  0  0  0
 28 66  1  0  0  0  0
 29 67  2  0  0  0  0
 29 85  1  0  0  0  0
 30 68  1  0  0  0  0
 30 71  1  0  0  0  0
 31 63  1  0  0  0  0
 31 66  2  0  0  0  0
 31 67  1  0  0  0  0
 32 72  1  0  0  0  0
 32 77  2  0  0  0  0
 33 47  1  0  0  0  0
 33 73  1  0  0  0  0
 33 78  2  0  0  0  0
 34 61  1  0  0  0  0
 34 69  1  0  0  0  0
 34 79  2  0  0  0  0
 35 62  1  0  0  0  0
 35 74  1  0  0  0  0
 35 80  2  0  0  0  0
 36 70  1  0  0  0  0
 36 75  1  0  0  0  0
 36 81  2  0  0  0  0
 37 40  1  0  0  0  0
 38 47  1  0  0  0  0
 39 69  1  0  0  0  0
 40 42  1  0  0  0  0
 41 43  1  0  0  0  0
 41 44  1  0  0  0  0
 42 46  1  0  0  0  0
 43 48  1  0  0  0  0
 44 70  1  0  0  0  0
 45 48  1  0  0  0  0
 45 70  1  0  0  0  0
 46 73  1  0  0  0  0
 47 69  1  0  0  0  0
 48 68  1  0  0  0  0
 50 62  1  0  0  0  0
 51 63  1  0  0  0  0
 52 64  1  0  0  0  0
 53 64  1  0  0  0  0
 54 64  1  0  0  0  0
 55 76  1  0  0  0  0
 56 57  1  0  0  0  0
 56 59  1  0  0  0  0
 57 60  1  0  0  0  0
 58 63  1  0  0  0  0
 58 75  1  0  0  0  0
 59 84  1  0  0  0  0
 60 85  1  0  0  0  0
 61 64  1  0  0  0  0
 61 74  1  0  0  0  0
 62 76  1  0  0  0  0
 63 82  1  0  0  0  0
 65 68  1  0  0  0  0
M  CHG  1  76   1
M  ISO  4  36 100  59 101  75 100  84 101
M  END
> <Batch ID>
0072

> <Smiles>
CNC(C)C(=O)NC(C(=O)N1Cc2cc([101O:1][101CH2:1]CCCOc3cc(C)nc(C(C)(O)C[100NH:0][100C:0](=O)N4CCCC(n5nc(-c6ccc(Oc7ccc(F)cc7F)cc6)c(C(N)=O)c5N)C4)n3)ccc2CC1C(=O)NC1CCCc2ccccc21)C(C)(C)C

> <Shape>
0.226

> <Color>
0.064

> <Negative vol penalty>
0.000

$$$$

  -OEChem-04052318243D

 85 93  0     1  0  0  0  0  0999 V2000
  -21.9907  -21.4465   17.3626 C   0  0  0  0  0  0  0  0  0  0  0  0
  -23.0706  -21.9233   18.0971 C   0  0  0  0  0  0  0  0  0  0  0  0
  -26.8824  -13.6257   21.4983 C   0  0  0  0  0  0  0  0  0  0  0  0
  -26.5660  -13.9885   19.1308 C   0  0  0  0  0  0  0  0  0  0  0  0
  -21.2815  -22.3114   16.5319 C   0  0  0  0  0  0  0  0  0  0  0  0
  -23.4341  -23.2676   18.0104 C   0  0  0  0  0  0  0  0  0  0  0  0
  -28.1165  -26.2730   20.4944 C   0  0  0  0  0  0  0  0  0  0  0  0
  -26.1428  -12.4460   21.4164 C   0  0  0  0  0  0  0  0  0  0  0  0
  -25.8264  -12.8086   19.0488 C   0  0  0  0  0  0  0  0  0  0  0  0
  -29.4230  -26.6122   20.1455 C   0  0  0  0  0  0  0  0  0  0  0  0
  -22.8865  -11.5538   21.2592 C   0  0  0  0  0  0  0  0  0  0  0  0
  -21.9251  -11.3228   22.2430 C   0  0  0  0  0  0  0  0  0  0  0  0
  -28.6576  -28.7781   19.4090 C   0  0  0  0  0  0  0  0  0  0  0  0
  -23.0694   -9.2941   22.8848 C   0  0  0  0  0  0  0  0  0  0  0  0
  -27.0939  -14.3971   20.3555 C   0  0  0  0  0  0  0  0  0  0  0  0
  -29.2480  -15.7614   20.2758 C   0  0  0  0  0  0  0  0  0  0  0  0
  -21.6449  -23.6640   16.4259 C   0  0  0  0  0  0  0  0  0  0  0  0
  -27.0673  -27.1813   20.2927 C   0  0  0  0  0  0  0  0  0  0  0  0
  -22.7159  -24.1616   17.1959 C   0  0  0  0  0  0  0  0  0  0  0  0
  -27.3391  -28.4490   19.7585 C   0  0  0  0  0  0  0  0  0  0  0  0
  -25.6149  -12.0374   20.1917 C   0  0  0  0  0  0  0  0  0  0  0  0
  -29.6933  -27.8638   19.6000 C   0  0  0  0  0  0  0  0  0  0  0  0
  -23.9393  -10.6549   21.0881 C   0  0  0  0  0  0  0  0  0  0  0  0
  -22.0166  -10.1930   23.0559 C   0  0  0  0  0  0  0  0  0  0  0  0
  -24.0307   -9.5251   21.9009 C   0  0  0  0  0  0  0  0  0  0  0  0
  -27.8573  -15.6162   20.4396 C   0  0  0  0  0  0  0  0  0  0  0  0
  -29.9020  -24.2624   16.7995 C   0  0  0  0  0  0  0  0  0  0  0  0
  -29.6740  -22.9841   17.2433 C   0  0  0  0  0  0  0  0  0  0  0  0
  -29.4758  -17.1046   20.4503 C   0  0  0  0  0  0  0  0  0  0  0  0
  -30.2446  -14.7707   19.9913 C   0  0  0  0  0  0  0  0  0  0  0  0
  -24.4114  -27.1889   18.5463 C   0  0  0  0  0  0  0  0  0  0  0  0
  -26.9231  -22.1953   19.3037 C   0  0  0  0  0  0  0  0  0  0  0  0
  -23.8476  -29.9675   20.1224 C   0  0  0  0  0  0  0  0  0  0  0  0
  -25.1133  -32.6424   21.8223 C   0  0  0  0  0  0  0  0  0  0  0  0
  -20.8378  -24.5578   15.5176 C   0  0  0  0  0  0  0  0  0  0  0  0
  -25.6675  -26.8101   20.6992 C   0  0  0  0  0  0  0  0  0  0  0  0
  -26.2512  -29.4676   19.5408 C   0  0  0  0  0  0  0  0  0  0  0  0
  -21.5654  -25.8477   15.1530 C   0  0  0  0  0  0  0  0  0  0  0  0
  -27.0329  -20.8113   22.6071 C   0  0  0  0  0  0  0  0  0  0  0  0
  -22.1097  -26.5105   16.4096 C   0  0  0  0  0  0  0  0  0  0  0  0
  -27.3603  -19.3379   22.3683 C   0  0  0  0  0  0  0  0  0  0  0  0
  -26.1441  -21.3721   21.5014 C   0  0  0  0  0  0  0  0  0  0  0  0
  -27.0282  -19.7209   19.8848 C   0  0  0  0  0  0  0  0  0  0  0  0
  -23.1486  -25.6131   17.0941 C   0  0  1  0  0  0  0  0  0  0  0  0
  -24.5993  -27.6218   19.9728 C   0  0  1  0  0  0  0  0  0  0  0  0
  -27.9495  -19.1233   20.9629 C   0  0  2  0  0  0  0  0  0  0  0  0
  -30.8967  -21.5962   18.9360 C   0  0  0  0  0  0  0  0  0  0  0  0
  -26.4375  -21.4625   16.9794 C   0  0  0  0  0  0  0  0  0  0  0  0
  -24.4103  -34.7684   22.9551 C   0  0  0  0  0  0  0  0  0  0  0  0
  -23.4645  -31.2890   17.3990 C   0  0  0  0  0  0  0  0  0  0  0  0
  -23.7148  -33.5132   18.5208 C   0  0  0  0  0  0  0  0  0  0  0  0
  -21.8268  -32.0079   19.1470 C   0  0  0  0  0  0  0  0  0  0  0  0
  -33.3171  -27.8072   19.0297 C   0  0  0  0  0  0  0  0  0  0  0  0
  -32.0220  -26.9425   20.9893 C   0  0  0  0  0  0  0  0  0  0  0  0
  -26.1667  -31.7351   24.4350 C   0  0  0  0  0  0  0  0  0  0  0  0
  -31.1963  -24.9086   16.3740 C   0  0  0  0  0  0  0  0  0  0  0  0
  -30.5619  -21.8303   17.4572 C   0  0  0  0  0  0  0  0  0  0  0  0
  -31.5366  -26.1865   17.1521 C   0  0  0  0  0  0  0  0  0  0  0  0
  -31.6594  -25.9483   18.6653 C   0  0  0  0  0  0  0  0  0  0  0  0
  -27.5320  -21.8665   17.9639 C   0  0  1  0  0  0  0  0  0  0  0  0
  -24.1749  -31.4207   19.8777 C   0  0  1  0  0  0  0  0  0  0  0  0
  -24.7044  -33.2871   23.1344 C   0  0  2  0  0  0  0  0  0  0  0  0
  -23.3157  -32.0380   18.7383 C   0  0  0  0  0  0  0  0  0  0  0  0
  -31.9788  -27.2164   19.4854 C   0  0  0  0  0  0  0  0  0  1  0  0
  -27.2449  -16.7746   20.6984 N   0  0  0  0  0  0  0  0  0  0  0  0
  -28.7253  -24.9585   16.7792 N   0  0  0  0  0  0  0  0  0  0  0  0
  -27.7629  -24.1457   17.2015 N   0  0  0  0  0  0  0  0  0  0  0  0
  -28.3338  -22.9625   17.4794 N   0  0  0  0  0  0  0  0  0  0  0  0
  -28.2554  -17.6605   20.6987 N   0  0  0  0  0  0  0  0  0  0  0  0
  -24.8979  -29.0551   19.9482 N   0  0  0  0  0  0  0  0  0  0  0  0
  -26.7275  -21.1285   20.1810 N   0  0  0  0  0  0  0  0  0  0  0  0
  -30.5991  -17.8525   20.4141 N   0  0  0  0  0  0  0  0  0  0  0  0
  -29.8382  -13.4377   19.8421 N   0  0  0  0  0  0  0  0  0  0  0  0
  -23.4841  -26.1776   18.3827 N   0  0  0  0  0  0  0  0  0  0  0  0
  -24.0329  -32.0934   21.1645 N   0  0  0  0  0  0  0  0  0  0  0  0
  -25.7915  -33.1426   24.1435 N   0  3  0  0  0  0  0  0  0  0  0  0
  -31.4617  -15.0566   19.8891 O   0  0  0  0  0  0  0  0  0  0  0  0
  -25.0587  -27.7332   17.6595 O   0  0  0  0  0  0  0  0  0  0  0  0
  -26.6333  -23.3664   19.5621 O   0  0  0  0  0  0  0  0  0  0  0  0
  -22.7041  -29.6541   20.4626 O   0  0  0  0  0  0  0  0  0  0  0  0
  -26.2743  -32.6304   21.4193 O   0  0  0  0  0  0  0  0  0  0  0  0
  -24.8934  -10.8861   20.1114 O   0  0  0  0  0  0  0  0  0  0  0  0
  -30.9676  -28.1972   19.2580 O   0  0  0  0  0  0  0  0  0  1  0  0
  -21.0942   -9.9721   24.0017 F   0  0  0  0  0  0  0  0  0  0  0  0
  -25.0405   -8.6585   21.7420 F   0  0  0  0  0  0  0  0  0  0  0  0
  1  2  1  0  0  0  0
  1  5  2  0  0  0  0
  2  6  2  0  0  0  0
  3  8  2  0  0  0  0
  3 15  1  0  0  0  0
  4  9  1  0  0  0  0
  4 15  2  0  0  0  0
  5 17  1  0  0  0  0
  6 19  1  0  0  0  0
  7 10  2  0  0  0  0
  7 18  1  0  0  0  0
  8 21  1  0  0  0  0
  9 21  2  0  0  0  0
 10 22  1  0  0  0  0
 11 12  2  0  0  0  0
 11 23  1  0  0  0  0
 12 24  1  0  0  0  0
 13 20  1  0  0  0  0
 13 22  2  0  0  0  0
 14 24  2  0  0  0  0
 14 25  1  0  0  0  0
 15 26  1  0  0  0  0
 16 26  1  0  0  0  0
 16 29  2  0  0  0  0
 16 30  1  0  0  0  0
 17 19  2  0  0  0  0
 17 35  1  0  0  0  0
 18 20  2  0  0  0  0
 18 36  1  0  0  0  0
 19 44  1  0  0  0  0
 20 37  1  0  0  0  0
 21 82  1  0  0  0  0
 22 83  1  0  0  0  0
 23 25  2  0  0  0  0
 23 82  1  0  0  0  0
 24 84  1  0  0  0  0
 25 85  1  0  0  0  0
 26 65  2  0  0  0  0
 27 28  2  0  0  0  0
 27 56  1  0  0  0  0
 27 66  1  0  0  0  0
 28 57  1  0  0  0  0
 28 68  1  0  0  0  0
 29 69  1  0  0  0  0
 29 72  1  0  0  0  0
 30 73  1  0  0  0  0
 30 77  2  0  0  0  0
 31 45  1  0  0  0  0
 31 74  1  0  0  0  0
 31 78  2  0  0  0  0
 32 60  1  0  0  0  0
 32 71  1  0  0  0  0
 32 79  2  0  0  0  0
 33 61  1  0  0  0  0
 33 70  1  0  0  0  0
 33 80  2  0  0  0  0
 34 62  1  0  0  0  0
 34 75  1  0  0  0  0
 34 81  2  0  0  0  0
 35 38  1  0  0  0  0
 36 45  1  0  0  0  0
 37 70  1  0  0  0  0
 38 40  1  0  0  0  0
 39 41  1  0  0  0  0
 39 42  1  0  0  0  0
 40 44  1  0  0  0  0
 41 46  1  0  0  0  0
 42 71  1  0  0  0  0
 43 46  1  0  0  0  0
 43 71  1  0  0  0  0
 44 74  1  0  0  0  0
 45 70  1  0  0  0  0
 46 69  1  0  0  0  0
 47 57  1  0  0  0  0
 48 60  1  0  0  0  0
 49 62  1  0  0  0  0
 50 63  1  0  0  0  0
 51 63  1  0  0  0  0
 52 63  1  0  0  0  0
 53 64  1  0  0  0  0
 54 64  1  0  0  0  0
 55 76  1  0  0  0  0
 56 58  1  0  0  0  0
 58 59  1  0  0  0  0
 59 64  1  0  0  0  0
 60 68  1  0  0  0  0
 61 63  1  0  0  0  0
 61 75  1  0  0  0  0
 62 76  1  0  0  0  0
 64 83  1  0  0  0  0
 65 69  1  0  0  0  0
 66 67  2  0  0  0  0
 67 68  1  0  0  0  0
M  CHG  1  76   1
M  ISO  4  32 100  60 100  64 101  83 101
M  END
> <Batch ID>
0072

> <Smiles>
CCc1c(CCC[101C:1](C)(C)[101O:1]c2ccc3c(c2)CN(C(=O)C(NC(=O)C(C)NC)C(C)(C)C)C(C(=O)NC2CCCc4ccccc42)C3)nnn1[100CH:0](C)[100C:0](=O)N1CCCC(n2nc(-c3ccc(Oc4ccc(F)cc4F)cc3)c(C(N)=O)c2N)C1

> <Shape>
0.252

> <Color>
0.064

> <Negative vol penalty>
0.000

$$$$

  -OEChem-04052318243D

 85 93  0     1  0  0  0  0  0999 V2000
  -30.8220  -24.4054   18.2884 C   0  0  0  0  0  0  0  0  0  0  0  0
  -29.4628  -24.2396   18.5339 C   0  0  0  0  0  0  0  0  0  0  0  0
  -25.1994  -15.6222   18.5767 C   0  0  0  0  0  0  0  0  0  0  0  0
  -23.8803  -15.2007   20.5565 C   0  0  0  0  0  0  0  0  0  0  0  0
  -31.5899  -25.2036   19.1352 C   0  0  0  0  0  0  0  0  0  0  0  0
  -28.8708  -24.8710   19.6272 C   0  0  0  0  0  0  0  0  0  0  0  0
  -23.1917  -27.1422   19.9359 C   0  0  0  0  0  0  0  0  0  0  0  0
  -25.8726  -14.4158   18.7683 C   0  0  0  0  0  0  0  0  0  0  0  0
  -24.5535  -13.9941   20.7481 C   0  0  0  0  0  0  0  0  0  0  0  0
  -22.0055  -26.6338   20.4635 C   0  0  0  0  0  0  0  0  0  0  0  0
  -28.1873  -11.6164   18.9394 C   0  0  0  0  0  0  0  0  0  0  0  0
  -29.5750  -11.6167   18.7981 C   0  0  0  0  0  0  0  0  0  0  0  0
  -22.4053  -27.8434   22.5120 C   0  0  0  0  0  0  0  0  0  0  0  0
  -29.7561  -13.2367   20.5814 C   0  0  0  0  0  0  0  0  0  0  0  0
  -20.7737  -20.8523   23.0180 C   0  0  0  0  0  0  0  0  0  0  0  0
  -24.2033  -16.0148   19.4708 C   0  0  0  0  0  0  0  0  0  0  0  0
  -22.3290  -17.4691   18.5328 C   0  0  0  0  0  0  0  0  0  0  0  0
  -31.0051  -25.8530   20.2339 C   0  0  0  0  0  0  0  0  0  0  0  0
  -24.0004  -27.9978   20.6977 C   0  0  0  0  0  0  0  0  0  0  0  0
  -29.6318  -25.6776   20.4903 C   0  0  0  0  0  0  0  0  0  0  0  0
  -23.5999  -28.3634   21.9908 C   0  0  0  0  0  0  0  0  0  0  0  0
  -25.5497  -13.6017   19.8540 C   0  0  0  0  0  0  0  0  0  0  0  0
  -21.6136  -26.9821   21.7528 C   0  0  0  0  0  0  0  0  0  0  0  0
  -27.5840  -12.4263   19.9016 C   0  0  0  0  0  0  0  0  0  0  0  0
  -30.3594  -12.4269   19.6191 C   0  0  0  0  0  0  0  0  0  0  0  0
  -28.3684  -13.2364   20.7226 C   0  0  0  0  0  0  0  0  0  0  0  0
  -23.5079  -17.2612   19.2738 C   0  0  0  0  0  0  0  0  0  0  0  0
  -21.4269  -21.9856   23.4499 C   0  0  0  0  0  0  0  0  0  0  0  0
  -18.8156  -22.0272   22.8961 C   0  0  0  0  0  0  0  0  0  0  0  0
  -19.4685  -23.1604   23.3288 C   0  0  0  0  0  0  0  0  0  0  0  0
  -22.0799  -18.8143   18.6543 C   0  0  0  0  0  0  0  0  0  0  0  0
  -21.5306  -16.5301   17.8004 C   0  0  0  0  0  0  0  0  0  0  0  0
  -26.9691  -27.8638   21.8257 C   0  0  0  0  0  0  0  0  0  0  0  0
  -23.6810  -22.8309   22.8275 C   0  0  0  0  0  0  0  0  0  0  0  0
  -26.3497  -30.9184   22.7246 C   0  0  0  0  0  0  0  0  0  0  0  0
  -24.0286  -33.2900   23.5212 C   0  0  0  0  0  0  0  0  0  0  0  0
  -31.8852  -26.6676   21.1484 C   0  0  0  0  0  0  0  0  0  0  0  0
  -25.2634  -28.5590   20.1042 C   0  0  0  0  0  0  0  0  0  0  0  0
  -24.4223  -29.2946   22.8421 C   0  0  0  0  0  0  0  0  0  0  0  0
  -31.1061  -27.6035   22.0690 C   0  0  0  0  0  0  0  0  0  0  0  0
  -24.2943  -22.9972   19.3010 C   0  0  0  0  0  0  0  0  0  0  0  0
  -29.9358  -26.8668   22.7127 C   0  0  0  0  0  0  0  0  0  0  0  0
  -24.0829  -21.5584   18.8316 C   0  0  0  0  0  0  0  0  0  0  0  0
  -24.9133  -23.0447   20.6944 C   0  0  0  0  0  0  0  0  0  0  0  0
  -23.9335  -20.8440   21.2591 C   0  0  0  0  0  0  0  0  0  0  0  0
  -28.9483  -26.3661   21.6518 C   0  0  1  0  0  0  0  0  0  0  0  0
  -26.2684  -29.0133   21.1583 C   0  0  1  0  0  0  0  0  0  0  0  0
  -23.2816  -20.7509   19.8681 C   0  0  2  0  0  0  0  0  0  0  0  0
  -17.3579  -22.0411   22.5848 C   0  0  0  0  0  0  0  0  0  0  0  0
  -23.8273  -35.6826   24.2509 C   0  0  0  0  0  0  0  0  0  0  0  0
  -27.1891  -30.1252   25.5488 C   0  0  0  0  0  0  0  0  0  0  0  0
  -26.0864  -32.2107   26.3873 C   0  0  0  0  0  0  0  0  0  0  0  0
  -28.0105  -32.3680   24.8076 C   0  0  0  0  0  0  0  0  0  0  0  0
  -22.5023  -34.0231   21.0939 C   0  0  0  0  0  0  0  0  0  0  0  0
  -18.7392  -24.4680   23.5077 C   0  0  0  0  0  0  0  0  0  0  0  0
  -18.4391  -25.1907   22.1928 C   0  0  0  0  0  0  0  0  0  0  0  0
  -19.6930  -25.6155   21.4373 C   0  0  0  0  0  0  0  0  0  1  0  0
  -22.8835  -21.9481   23.7542 C   0  0  1  0  0  0  0  0  0  0  0  0
  -25.7673  -31.5741   23.9534 C   0  0  1  0  0  0  0  0  0  0  0  0
  -23.8617  -34.7288   23.0669 C   0  0  2  0  0  0  0  0  0  0  0  0
  -26.7486  -31.5504   25.1592 C   0  0  0  0  0  0  0  0  0  0  0  0
  -23.2139  -22.3104   25.2043 C   0  0  0  0  0  0  0  0  0  0  0  0
  -19.4564  -20.8528   22.7333 N   0  0  0  0  0  0  0  0  0  0  0  0
  -23.9753  -18.3845   19.8250 N   0  0  0  0  0  0  0  0  0  0  0  0
  -20.7860  -23.1600   23.6131 N   0  0  0  0  0  0  0  0  0  0  0  0
  -23.0856  -19.3111   19.4301 N   0  0  0  0  0  0  0  0  0  0  0  0
  -25.6521  -29.8120   22.2197 N   0  0  0  0  0  0  0  0  0  0  0  0
  -24.1356  -22.2476   21.6447 N   0  0  0  0  0  0  0  0  0  0  0  0
  -21.1008  -19.6089   18.1721 N   0  0  0  0  0  0  0  0  0  0  0  0
  -21.9298  -15.1868   17.7794 N   0  0  0  0  0  0  0  0  0  0  0  0
  -28.1196  -27.4542   21.1791 N   0  0  0  0  0  0  0  0  0  0  0  0
  -25.3545  -32.9125   23.5451 N   0  0  0  0  0  0  0  0  0  0  0  0
  -22.5937  -34.8860   22.2997 N   0  3  0  0  0  0  0  0  0  0  0  0
  -20.5029  -16.8751   17.1692 O   0  0  0  0  0  0  0  0  0  0  0  0
  -26.5015  -27.3850   22.8522 O   0  0  0  0  0  0  0  0  0  0  0  0
  -23.8901  -24.0045   23.1457 O   0  0  0  0  0  0  0  0  0  0  0  0
  -27.3816  -31.3757   22.2267 O   0  0  0  0  0  0  0  0  0  0  0  0
  -23.0780  -32.5739   23.8281 O   0  0  0  0  0  0  0  0  0  0  0  0
  -26.2062  -12.4242   20.0411 O   0  0  0  0  0  0  0  0  0  0  0  0
  -20.4567  -26.4867   22.2704 O   0  0  0  0  0  0  0  0  0  1  0  0
  -31.6920  -12.4260   19.4844 F   0  0  0  0  0  0  0  0  0  0  0  0
  -27.7946  -14.0157   21.6496 F   0  0  0  0  0  0  0  0  0  0  0  0
  -24.5487  -22.2969   25.4274 F   0  0  0  0  0  0  0  0  0  0  0  0
  -22.7579  -23.5355   25.5400 F   0  0  0  0  0  0  0  0  0  0  0  0
  -22.6603  -21.4166   26.0549 F   0  0  0  0  0  0  0  0  0  0  0  0
  1  2  1  0  0  0  0
  1  5  2  0  0  0  0
  2  6  2  0  0  0  0
  3  8  2  0  0  0  0
  3 16  1  0  0  0  0
  4  9  1  0  0  0  0
  4 16  2  0  0  0  0
  5 18  1  0  0  0  0
  6 20  1  0  0  0  0
  7 10  2  0  0  0  0
  7 19  1  0  0  0  0
  8 22  1  0  0  0  0
  9 22  2  0  0  0  0
 10 23  1  0  0  0  0
 11 12  2  0  0  0  0
 11 24  1  0  0  0  0
 12 25  1  0  0  0  0
 13 21  1  0  0  0  0
 13 23  2  0  0  0  0
 14 25  2  0  0  0  0
 14 26  1  0  0  0  0
 15 28  1  0  0  0  0
 15 63  2  0  0  0  0
 16 27  1  0  0  0  0
 17 27  1  0  0  0  0
 17 31  2  0  0  0  0
 17 32  1  0  0  0  0
 18 20  2  0  0  0  0
 18 37  1  0  0  0  0
 19 21  2  0  0  0  0
 19 38  1  0  0  0  0
 20 46  1  0  0  0  0
 21 39  1  0  0  0  0
 22 79  1  0  0  0  0
 23 80  1  0  0  0  0
 24 26  2  0  0  0  0
 24 79  1  0  0  0  0
 25 81  1  0  0  0  0
 26 82  1  0  0  0  0
 27 64  2  0  0  0  0
 28 58  1  0  0  0  0
 28 65  2  0  0  0  0
 29 30  2  0  0  0  0
 29 49  1  0  0  0  0
 29 63  1  0  0  0  0
 30 55  1  0  0  0  0
 30 65  1  0  0  0  0
 31 66  1  0  0  0  0
 31 69  1  0  0  0  0
 32 70  1  0  0  0  0
 32 74  2  0  0  0  0
 33 47  1  0  0  0  0
 33 71  1  0  0  0  0
 33 75  2  0  0  0  0
 34 58  1  0  0  0  0
 34 68  1  0  0  0  0
 34 76  2  0  0  0  0
 35 59  1  0  0  0  0
 35 67  1  0  0  0  0
 35 77  2  0  0  0  0
 36 60  1  0  0  0  0
 36 72  1  0  0  0  0
 36 78  2  0  0  0  0
 37 40  1  0  0  0  0
 38 47  1  0  0  0  0
 39 67  1  0  0  0  0
 40 42  1  0  0  0  0
 41 43  1  0  0  0  0
 41 44  1  0  0  0  0
 42 46  1  0  0  0  0
 43 48  1  0  0  0  0
 44 68  1  0  0  0  0
 45 48  1  0  0  0  0
 45 68  1  0  0  0  0
 46 71  1  0  0  0  0
 47 67  1  0  0  0  0
 48 66  1  0  0  0  0
 50 60  1  0  0  0  0
 51 61  1  0  0  0  0
 52 61  1  0  0  0  0
 53 61  1  0  0  0  0
 54 73  1  0  0  0  0
 55 56  1  0  0  0  0
 56 57  1  0  0  0  0
 57 80  1  0  0  0  0
 58 62  1  0  0  0  0
 59 61  1  0  0  0  0
 59 72  1  0  0  0  0
 60 73  1  0  0  0  0
 62 83  1  0  0  0  0
 62 84  1  0  0  0  0
 62 85  1  0  0  0  0
 64 66  1  0  0  0  0
M  CHG  1  73   1
M  ISO  4  34 100  57 101  58 100  80 101
M  END
> <Batch ID>
0072

> <Smiles>
CNC(C)C(=O)NC(C(=O)N1Cc2cc([101O:1][101CH2:1]CCc3nc([100CH:0]([100C:0](=O)N4CCCC(n5nc(-c6ccc(Oc7ccc(F)cc7F)cc6)c(C(N)=O)c5N)C4)C(F)(F)F)cnc3C)ccc2CC1C(=O)NC1CCCc2ccccc21)C(C)(C)C

> <Shape>
0.237

> <Color>
0.061

> <Negative vol penalty>
0.000

$$$$

  -OEChem-04052318243D

 92100  0     1  0  0  0  0  0999 V2000
  -29.7573  -11.3661   19.3082 C   0  0  0  0  0  0  0  0  0  0  0  0
  -30.4768  -12.5553   19.3400 C   0  0  0  0  0  0  0  0  0  0  0  0
  -22.6464  -24.0479   20.6797 C   0  0  0  0  0  0  0  0  0  0  0  0
  -23.4455  -24.0114   22.9594 C   0  0  0  0  0  0  0  0  0  0  0  0
  -28.3812  -11.3825   19.5258 C   0  0  0  0  0  0  0  0  0  0  0  0
  -29.8225  -13.7597   19.6013 C   0  0  0  0  0  0  0  0  0  0  0  0
  -30.5844  -20.8856   19.8258 C   0  0  0  0  0  0  0  0  0  0  0  0
  -22.8228  -22.6668   20.5957 C   0  0  0  0  0  0  0  0  0  0  0  0
  -23.6220  -22.6303   22.8754 C   0  0  0  0  0  0  0  0  0  0  0  0
  -30.1167  -22.0956   19.3150 C   0  0  0  0  0  0  0  0  0  0  0  0
  -21.1894  -19.8813   21.5985 C   0  0  0  0  0  0  0  0  0  0  0  0
  -20.1649  -19.1308   21.0217 C   0  0  0  0  0  0  0  0  0  0  0  0
  -28.1906  -21.9543   20.7605 C   0  0  0  0  0  0  0  0  0  0  0  0
  -21.6946  -18.3480   19.3233 C   0  0  0  0  0  0  0  0  0  0  0  0
  -29.0009  -27.1600   23.3615 C   0  0  0  0  0  0  0  0  0  0  0  0
  -22.9578  -24.7202   21.8616 C   0  0  0  0  0  0  0  0  0  0  0  0
  -21.6196  -26.8328   22.3655 C   0  0  0  0  0  0  0  0  0  0  0  0
  -27.7085  -12.5896   19.7774 C   0  0  0  0  0  0  0  0  0  0  0  0
  -29.8521  -20.1943   20.8015 C   0  0  0  0  0  0  0  0  0  0  0  0
  -28.4379  -13.7940   19.8471 C   0  0  0  0  0  0  0  0  0  0  0  0
  -28.6525  -20.7370   21.2839 C   0  0  0  0  0  0  0  0  0  0  0  0
  -23.3106  -21.9580   21.6935 C   0  0  0  0  0  0  0  0  0  0  0  0
  -28.9182  -22.6287   19.7802 C   0  0  0  0  0  0  0  0  0  0  0  0
  -22.4665  -19.8652   21.0377 C   0  0  0  0  0  0  0  0  0  0  0  0
  -20.4175  -18.3641   19.8841 C   0  0  0  0  0  0  0  0  0  0  0  0
  -22.7191  -19.0986   19.9001 C   0  0  0  0  0  0  0  0  0  0  0  0
  -22.7762  -26.1469   21.9488 C   0  0  0  0  0  0  0  0  0  0  0  0
  -27.8369  -26.7820   23.9690 C   0  0  0  0  0  0  0  0  0  0  0  0
  -21.9551  -28.1613   22.2700 C   0  0  0  0  0  0  0  0  0  0  0  0
  -27.8036  -28.9834   23.7381 C   0  0  0  0  0  0  0  0  0  0  0  0
  -20.3550  -26.3153   22.8000 C   0  0  0  0  0  0  0  0  0  0  0  0
  -28.4411  -17.3499   20.9509 C   0  0  0  0  0  0  0  0  0  0  0  0
  -27.9580  -18.1860   24.0477 C   0  0  0  0  0  0  0  0  0  0  0  0
  -27.2604  -30.9801   22.4103 C   0  0  0  0  0  0  0  0  0  0  0  0
  -27.1410  -20.5461   26.6515 C   0  0  0  0  0  0  0  0  0  0  0  0
  -26.2193  -12.5486   20.0136 C   0  0  0  0  0  0  0  0  0  0  0  0
  -30.3837  -18.9035   21.3616 C   0  0  0  0  0  0  0  0  0  0  0  0
  -27.8389  -20.0442   22.3452 C   0  0  0  0  0  0  0  0  0  0  0  0
  -25.5524  -13.9094   19.8411 C   0  0  0  0  0  0  0  0  0  0  0  0
  -24.7729  -31.1543   19.8370 C   0  0  0  0  0  0  0  0  0  0  0  0
  -26.3124  -14.9646   20.6308 C   0  0  0  0  0  0  0  0  0  0  0  0
  -23.8906  -29.9363   20.1076 C   0  0  0  0  0  0  0  0  0  0  0  0
  -26.2354  -30.8678   20.1628 C   0  0  0  0  0  0  0  0  0  0  0  0
  -25.5813  -29.1596   21.8290 C   0  0  0  0  0  0  0  0  0  0  0  0
  -27.7428  -15.1197   20.0991 C   0  0  1  0  0  0  0  0  0  0  0  0
  -29.2981  -18.0291   21.9815 C   0  0  1  0  0  0  0  0  0  0  0  0
  -24.0912  -29.4161   21.5420 C   0  0  2  0  0  0  0  0  0  0  0  0
  -26.9293  -20.9848   29.1132 C   0  0  0  0  0  0  0  0  0  0  0  0
  -28.2827  -24.7486   25.3875 C   0  0  0  0  0  0  0  0  0  0  0  0
  -27.1907  -24.4948   23.1338 C   0  0  0  0  0  0  0  0  0  0  0  0
  -25.9166  -25.4340   25.0510 C   0  0  0  0  0  0  0  0  0  0  0  0
  -25.9169  -30.6432   24.3650 C   0  0  0  0  0  0  0  0  0  0  0  0
  -24.9954  -17.5994   23.6133 C   0  0  0  0  0  0  0  0  0  0  0  0
  -24.5074  -18.8685   25.7156 C   0  0  0  0  0  0  0  0  0  0  0  0
  -25.9061  -16.8049   25.8028 C   0  0  0  0  0  0  0  0  0  0  0  0
  -28.2042  -28.9217   17.9174 C   0  0  0  0  0  0  0  0  0  0  0  0
  -30.5942  -29.5947   18.1013 C   0  0  0  0  0  0  0  0  0  0  0  0
  -29.8026  -21.8350   26.7686 C   0  0  0  0  0  0  0  0  0  0  0  0
  -30.3932  -28.9685   21.1740 C   0  0  0  0  0  0  0  0  0  0  0  0
  -28.9284  -26.1758   19.0644 C   0  0  0  0  0  0  0  0  0  0  0  0
  -29.2244  -29.1535   20.1942 C   0  0  0  0  0  0  0  0  0  0  0  0
  -29.9575  -27.2253   18.6175 C   0  0  0  0  0  0  0  0  0  0  0  0
  -30.0335  -29.3770   22.6093 C   0  0  0  0  0  0  0  0  0  0  0  0
  -28.3472  -31.3225   24.5761 C   0  0  0  0  0  0  0  0  0  0  0  0
  -29.4312  -24.7526   18.8412 C   0  0  0  0  0  0  0  0  0  1  0  0
  -26.8723  -18.9156   24.8011 C   0  0  1  0  0  0  0  0  0  0  0  0
  -27.8888  -20.7551   27.9560 C   0  0  2  0  0  0  0  0  0  0  0  0
  -27.3336  -25.4632   24.3612 C   0  0  0  0  0  0  0  0  0  0  0  0
  -27.3537  -30.3965   23.7976 C   0  0  1  0  0  0  0  0  0  0  0  0
  -25.5844  -18.0594   24.9618 C   0  0  0  0  0  0  0  0  0  0  0  0
  -29.4991  -28.7071   18.7303 C   0  0  0  0  0  0  0  0  0  0  0  0
  -23.7720  -26.9715   21.6135 N   0  0  0  0  0  0  0  0  0  0  0  0
  -28.9533  -28.5270   23.2306 N   0  0  0  0  0  0  0  0  0  0  0  0
  -23.2420  -28.1893   21.8192 N   0  0  0  0  0  0  0  0  0  0  0  0
  -27.1155  -27.9303   24.1906 N   0  3  0  0  0  0  0  0  0  0  0  0
  -28.3974  -18.7818   22.8569 N   0  0  0  0  0  0  0  0  0  0  0  0
  -26.3813  -30.3544   21.5261 N   0  0  0  0  0  0  0  0  0  0  0  0
  -21.2718  -29.2965   22.5285 N   0  0  0  0  0  0  0  0  0  0  0  0
  -20.1795  -24.9253   22.8385 N   0  0  0  0  0  0  0  0  0  0  0  0
  -28.4912  -15.9698   20.9986 N   0  0  0  0  0  0  0  0  0  0  0  0
  -27.4672  -19.3426   26.0629 N   0  0  0  0  0  0  0  0  0  0  0  0
  -28.5055  -30.8734   25.9830 N   0  3  0  0  0  0  0  0  0  0  0  0
  -28.7914  -21.9364   27.8521 N   0  3  0  0  0  0  0  0  0  0  0  0
  -19.4033  -27.0636   23.1283 O   0  0  0  0  0  0  0  0  0  0  0  0
  -27.7821  -18.0277   20.1713 O   0  0  0  0  0  0  0  0  0  0  0  0
  -28.4051  -17.1302   24.5027 O   0  0  0  0  0  0  0  0  0  0  0  0
  -27.9469  -31.9644   22.1237 O   0  0  0  0  0  0  0  0  0  0  0  0
  -26.3442  -21.3666   26.2017 O   0  0  0  0  0  0  0  0  0  0  0  0
  -23.4827  -20.6103   21.6120 O   0  0  0  0  0  0  0  0  0  0  0  0
  -28.4555  -23.8182   19.2791 O   0  0  0  0  0  0  0  0  0  1  0  0
  -19.4339  -17.6422   19.3312 F   0  0  0  0  0  0  0  0  0  0  0  0
  -23.9442  -19.0782   19.3576 F   0  0  0  0  0  0  0  0  0  0  0  0
  1  2  1  0  0  0  0
  1  5  2  0  0  0  0
  2  6  2  0  0  0  0
  3  8  2  0  0  0  0
  3 16  1  0  0  0  0
  4  9  1  0  0  0  0
  4 16  2  0  0  0  0
  5 18  1  0  0  0  0
  6 20  1  0  0  0  0
  7 10  2  0  0  0  0
  7 19  1  0  0  0  0
  8 22  1  0  0  0  0
  9 22  2  0  0  0  0
 10 23  1  0  0  0  0
 11 12  2  0  0  0  0
 11 24  1  0  0  0  0
 12 25  1  0  0  0  0
 13 21  1  0  0  0  0
 13 23  2  0  0  0  0
 14 25  2  0  0  0  0
 14 26  1  0  0  0  0
 15 28  2  0  0  0  0
 15 73  1  0  0  0  0
 16 27  1  0  0  0  0
 17 27  1  0  0  0  0
 17 29  2  0  0  0  0
 17 31  1  0  0  0  0
 18 20  2  0  0  0  0
 18 36  1  0  0  0  0
 19 21  2  0  0  0  0
 19 37  1  0  0  0  0
 20 45  1  0  0  0  0
 21 38  1  0  0  0  0
 22 89  1  0  0  0  0
 23 90  1  0  0  0  0
 24 26  2  0  0  0  0
 24 89  1  0  0  0  0
 25 91  1  0  0  0  0
 26 92  1  0  0  0  0
 27 72  2  0  0  0  0
 28 68  1  0  0  0  0
 28 75  1  0  0  0  0
 29 74  1  0  0  0  0
 29 78  1  0  0  0  0
 30 69  1  0  0  0  0
 30 73  1  0  0  0  0
 30 75  2  0  0  0  0
 31 79  1  0  0  0  0
 31 84  2  0  0  0  0
 32 46  1  0  0  0  0
 32 80  1  0  0  0  0
 32 85  2  0  0  0  0
 33 66  1  0  0  0  0
 33 76  1  0  0  0  0
 33 86  2  0  0  0  0
 34 69  1  0  0  0  0
 34 77  1  0  0  0  0
 34 87  2  0  0  0  0
 35 67  1  0  0  0  0
 35 81  1  0  0  0  0
 35 88  2  0  0  0  0
 36 39  1  0  0  0  0
 37 46  1  0  0  0  0
 38 76  1  0  0  0  0
 39 41  1  0  0  0  0
 40 42  1  0  0  0  0
 40 43  1  0  0  0  0
 41 45  1  0  0  0  0
 42 47  1  0  0  0  0
 43 77  1  0  0  0  0
 44 47  1  0  0  0  0
 44 77  1  0  0  0  0
 45 80  1  0  0  0  0
 46 76  1  0  0  0  0
 47 74  1  0  0  0  0
 48 67  1  0  0  0  0
 49 68  1  0  0  0  0
 50 68  1  0  0  0  0
 51 68  1  0  0  0  0
 52 69  1  0  0  0  0
 53 70  1  0  0  0  0
 54 70  1  0  0  0  0
 55 70  1  0  0  0  0
 56 71  1  0  0  0  0
 57 71  1  0  0  0  0
 58 83  1  0  0  0  0
 59 61  1  0  0  0  0
 59 63  1  0  0  0  0
 60 62  1  0  0  0  0
 60 65  1  0  0  0  0
 61 71  1  0  0  0  0
 62 71  1  0  0  0  0
 63 73  1  0  0  0  0
 64 69  1  0  0  0  0
 64 82  1  0  0  0  0
 65 90  1  0  0  0  0
 66 70  1  0  0  0  0
 66 81  1  0  0  0  0
 67 83  1  0  0  0  0
 72 74  1  0  0  0  0
M  CHG  3  75   1  82   1  83   1
M  ISO  4  34 100  65 101  69 100  90 101
M  END
> <Batch ID>
0072

> <Smiles>
CNC(C)C(=O)NC(C(=O)N1Cc2cc([101O:1][101CH2:1]CCC(C)(C)CCCn3cc(C(C)(C)C)nc3[100C:0](C)(CN)[100C:0](=O)N3CCCC(n4nc(-c5ccc(Oc6ccc(F)cc6F)cc5)c(C(N)=O)c4N)C3)ccc2CC1C(=O)NC1CCCc2ccccc21)C(C)(C)C

> <Shape>
0.224

> <Color>
0.055

> <Negative vol penalty>
0.000

$$$$

  -OEChem-04052318243D

 85 93  0     1  0  0  0  0  0999 V2000
  -17.7315  -31.0065   21.4606 C   0  0  0  0  0  0  0  0  0  0  0  0
  -19.1017  -31.2427   21.5068 C   0  0  0  0  0  0  0  0  0  0  0  0
  -25.5994  -15.0364   21.6408 C   0  0  0  0  0  0  0  0  0  0  0  0
  -24.6925  -16.5158   19.9598 C   0  0  0  0  0  0  0  0  0  0  0  0
  -17.2327  -29.7408   21.7662 C   0  0  0  0  0  0  0  0  0  0  0  0
  -19.9739  -30.2136   21.8598 C   0  0  0  0  0  0  0  0  0  0  0  0
  -25.6238  -29.2707   19.6929 C   0  0  0  0  0  0  0  0  0  0  0  0
  -24.3856  -14.3513   21.6929 C   0  0  0  0  0  0  0  0  0  0  0  0
  -23.4786  -15.8307   20.0118 C   0  0  0  0  0  0  0  0  0  0  0  0
  -26.8858  -29.5823   20.1968 C   0  0  0  0  0  0  0  0  0  0  0  0
  -22.7645  -12.0131   19.8659 C   0  0  0  0  0  0  0  0  0  0  0  0
  -22.8066  -10.6190   19.8692 C   0  0  0  0  0  0  0  0  0  0  0  0
  -27.0625  -27.3579   21.1134 C   0  0  0  0  0  0  0  0  0  0  0  0
  -21.6840  -10.5901   22.0084 C   0  0  0  0  0  0  0  0  0  0  0  0
  -30.3260  -24.3535   17.6819 C   0  0  0  0  0  0  0  0  0  0  0  0
  -25.7529  -16.1187   20.7743 C   0  0  0  0  0  0  0  0  0  0  0  0
  -28.1043  -16.5499   19.8840 C   0  0  0  0  0  0  0  0  0  0  0  0
  -18.1001  -28.6932   22.1137 C   0  0  0  0  0  0  0  0  0  0  0  0
  -25.0661  -28.0017   19.9052 C   0  0  0  0  0  0  0  0  0  0  0  0
  -19.4862  -28.9331   22.1717 C   0  0  0  0  0  0  0  0  0  0  0  0
  -25.7943  -27.0319   20.6089 C   0  0  0  0  0  0  0  0  0  0  0  0
  -23.3251  -14.7485   20.8784 C   0  0  0  0  0  0  0  0  0  0  0  0
  -27.6041  -28.6269   20.9097 C   0  0  0  0  0  0  0  0  0  0  0  0
  -22.1822  -12.6959   20.9339 C   0  0  0  0  0  0  0  0  0  0  0  0
  -22.2663   -9.9074   20.9404 C   0  0  0  0  0  0  0  0  0  0  0  0
  -21.6420  -11.9844   22.0051 C   0  0  0  0  0  0  0  0  0  0  0  0
  -27.0065  -16.8271   20.7205 C   0  0  0  0  0  0  0  0  0  0  0  0
  -31.1754  -24.5478   18.7487 C   0  0  0  0  0  0  0  0  0  0  0  0
  -30.0414  -26.6149   17.4964 C   0  0  0  0  0  0  0  0  0  0  0  0
  -30.8902  -26.8094   18.5637 C   0  0  0  0  0  0  0  0  0  0  0  0
  -29.0378  -17.5011   20.2162 C   0  0  0  0  0  0  0  0  0  0  0  0
  -28.2658  -15.5245   18.8950 C   0  0  0  0  0  0  0  0  0  0  0  0
  -22.4776  -26.9092   21.3918 C   0  0  0  0  0  0  0  0  0  0  0  0
  -23.4145  -24.0791   20.1130 C   0  0  0  0  0  0  0  0  0  0  0  0
  -25.9458  -22.1600   18.8656 C   0  0  0  0  0  0  0  0  0  0  0  0
  -30.3962  -22.7846   21.3929 C   0  0  0  0  0  0  0  0  0  0  0  0
  -17.5106  -27.3546   22.4818 C   0  0  0  0  0  0  0  0  0  0  0  0
  -23.7149  -27.6726   19.3321 C   0  0  0  0  0  0  0  0  0  0  0  0
  -25.2488  -25.6483   20.8467 C   0  0  0  0  0  0  0  0  0  0  0  0
  -18.5309  -26.2191   22.4822 C   0  0  0  0  0  0  0  0  0  0  0  0
  -29.1727  -20.7779   24.0673 C   0  0  0  0  0  0  0  0  0  0  0  0
  -19.7989  -26.6410   23.2178 C   0  0  0  0  0  0  0  0  0  0  0  0
  -28.5854  -19.5520   23.3657 C   0  0  0  0  0  0  0  0  0  0  0  0
  -28.9424  -22.0540   23.2607 C   0  0  0  0  0  0  0  0  0  0  0  0
  -28.8208  -20.7695   21.1609 C   0  0  0  0  0  0  0  0  0  0  0  0
  -20.4663  -27.8359   22.5261 C   0  0  1  0  0  0  0  0  0  0  0  0
  -23.0272  -26.5154   20.0499 C   0  0  1  0  0  0  0  0  0  0  0  0
  -29.0771  -19.4502   21.9093 C   0  0  2  0  0  0  0  0  0  0  0  0
  -29.4067  -27.7660   16.7942 C   0  0  0  0  0  0  0  0  0  0  0  0
  -33.3060  -21.3223   19.1654 C   0  0  0  0  0  0  0  0  0  0  0  0
  -26.4117  -19.8765   17.9348 C   0  0  0  0  0  0  0  0  0  0  0  0
  -23.2907  -22.9090   22.9282 C   0  0  0  0  0  0  0  0  0  0  0  0
  -24.6445  -20.9698   22.1065 C   0  0  0  0  0  0  0  0  0  0  0  0
  -22.3896  -21.4146   21.1368 C   0  0  0  0  0  0  0  0  0  0  0  0
  -26.8321  -23.2718   16.2699 C   0  0  0  0  0  0  0  0  0  0  0  0
  -32.6838  -22.5380   18.4893 C   0  0  0  0  0  0  0  0  0  0  0  0
  -31.0914  -29.6009   20.8719 C   0  0  0  0  0  0  0  0  0  0  0  0
  -29.6099  -29.8836   20.6784 C   0  0  0  0  0  0  0  0  0  1  0  0
  -31.4712  -28.2068   20.3982 C   0  0  0  0  0  0  0  0  0  0  0  0
  -31.8016  -23.3859   19.4377 C   0  0  2  0  0  0  0  0  0  0  0  0
  -24.3127  -22.9502   20.5576 C   0  0  1  0  0  0  0  0  0  0  0  0
  -26.0438  -21.3155   17.6079 C   0  0  2  0  0  0  0  0  0  0  0  0
  -23.6691  -22.0875   21.6797 C   0  0  0  0  0  0  0  0  0  0  0  0
  -29.7438  -25.3835   17.0365 N   0  0  0  0  0  0  0  0  0  0  0  0
  -27.2212  -17.8724   21.5238 N   0  0  0  0  0  0  0  0  0  0  0  0
  -31.4727  -25.7793   19.2088 N   0  0  0  0  0  0  0  0  0  0  0  0
  -28.4648  -18.2603   21.1936 N   0  0  0  0  0  0  0  0  0  0  0  0
  -23.9208  -25.3769   20.2719 N   0  0  0  0  0  0  0  0  0  0  0  0
  -29.4323  -21.8919   21.8897 N   0  0  0  0  0  0  0  0  0  0  0  0
  -30.2847  -17.7536   19.7647 N   0  0  0  0  0  0  0  0  0  0  0  0
  -27.2078  -14.6307   18.6804 N   0  0  0  0  0  0  0  0  0  0  0  0
  -21.1868  -27.4005   21.3489 N   0  0  0  0  0  0  0  0  0  0  0  0
  -24.6565  -22.2032   19.3525 N   0  0  0  0  0  0  0  0  0  0  0  0
  -30.8108  -22.5562   20.0864 N   0  0  0  0  0  0  0  0  0  0  0  0
  -27.0806  -21.8691   16.6917 N   0  3  0  0  0  0  0  0  0  0  0  0
  -29.3234  -15.3941   18.2332 O   0  0  0  0  0  0  0  0  0  0  0  0
  -23.1727  -26.7757   22.3921 O   0  0  0  0  0  0  0  0  0  0  0  0
  -22.3073  -23.8188   19.6355 O   0  0  0  0  0  0  0  0  0  0  0  0
  -26.9166  -22.7217   19.3680 O   0  0  0  0  0  0  0  0  0  0  0  0
  -30.8574  -23.7129   22.0656 O   0  0  0  0  0  0  0  0  0  0  0  0
  -22.1405  -14.0800   20.9288 O   0  0  0  0  0  0  0  0  0  0  0  0
  -28.8359  -28.9286   21.4032 O   0  0  0  0  0  0  0  0  0  1  0  0
  -31.1789  -28.0713   19.0140 O   0  0  0  0  0  0  0  0  0  0  0  0
  -22.3055   -8.5686   20.9428 F   0  0  0  0  0  0  0  0  0  0  0  0
  -21.0803  -12.6347   23.0334 F   0  0  0  0  0  0  0  0  0  0  0  0
  1  2  1  0  0  0  0
  1  5  2  0  0  0  0
  2  6  2  0  0  0  0
  3  8  2  0  0  0  0
  3 16  1  0  0  0  0
  4  9  1  0  0  0  0
  4 16  2  0  0  0  0
  5 18  1  0  0  0  0
  6 20  1  0  0  0  0
  7 10  2  0  0  0  0
  7 19  1  0  0  0  0
  8 22  1  0  0  0  0
  9 22  2  0  0  0  0
 10 23  1  0  0  0  0
 11 12  2  0  0  0  0
 11 24  1  0  0  0  0
 12 25  1  0  0  0  0
 13 21  1  0  0  0  0
 13 23  2  0  0  0  0
 14 25  2  0  0  0  0
 14 26  1  0  0  0  0
 15 28  1  0  0  0  0
 15 64  2  0  0  0  0
 16 27  1  0  0  0  0
 17 27  1  0  0  0  0
 17 31  2  0  0  0  0
 17 32  1  0  0  0  0
 18 20  2  0  0  0  0
 18 37  1  0  0  0  0
 19 21  2  0  0  0  0
 19 38  1  0  0  0  0
 20 46  1  0  0  0  0
 21 39  1  0  0  0  0
 22 81  1  0  0  0  0
 23 82  1  0  0  0  0
 24 26  2  0  0  0  0
 24 81  1  0  0  0  0
 25 84  1  0  0  0  0
 26 85  1  0  0  0  0
 27 65  2  0  0  0  0
 28 60  1  0  0  0  0
 28 66  2  0  0  0  0
 29 30  2  0  0  0  0
 29 49  1  0  0  0  0
 29 64  1  0  0  0  0
 30 66  1  0  0  0  0
 30 83  1  0  0  0  0
 31 67  1  0  0  0  0
 31 70  1  0  0  0  0
 32 71  1  0  0  0  0
 32 76  2  0  0  0  0
 33 47  1  0  0  0  0
 33 72  1  0  0  0  0
 33 77  2  0  0  0  0
 34 61  1  0  0  0  0
 34 68  1  0  0  0  0
 34 78  2  0  0  0  0
 35 62  1  0  0  0  0
 35 73  1  0  0  0  0
 35 79  2  0  0  0  0
 36 69  1  0  0  0  0
 36 74  1  0  0  0  0
 36 80  2  0  0  0  0
 37 40  1  0  0  0  0
 38 47  1  0  0  0  0
 39 68  1  0  0  0  0
 40 42  1  0  0  0  0
 41 43  1  0  0  0  0
 41 44  1  0  0  0  0
 42 46  1  0  0  0  0
 43 48  1  0  0  0  0
 44 69  1  0  0  0  0
 45 48  1  0  0  0  0
 45 69  1  0  0  0  0
 46 72  1  0  0  0  0
 47 68  1  0  0  0  0
 48 67  1  0  0  0  0
 50 56  1  0  0  0  0
 51 62  1  0  0  0  0
 52 63  1  0  0  0  0
 53 63  1  0  0  0  0
 54 63  1  0  0  0  0
 55 75  1  0  0  0  0
 56 60  1  0  0  0  0
 57 58  1  0  0  0  0
 57 59  1  0  0  0  0
 58 82  1  0  0  0  0
 59 83  1  0  0  0  0
 60 74  1  0  0  0  0
 61 63  1  0  0  0  0
 61 73  1  0  0  0  0
 62 75  1  0  0  0  0
 65 67  1  0  0  0  0
M  CHG  1  75   1
M  ISO  4  36 100  58 101  74 100  82 101
M  END
> <Batch ID>
0072

> <Smiles>
CCC([100NH:0][100C:0](=O)N1CCCC(n2nc(-c3ccc(Oc4ccc(F)cc4F)cc3)c(C(N)=O)c2N)C1)c1cnc(C)c(OCC[101CH2:1][101O:1]c2ccc3c(c2)CN(C(=O)C(NC(=O)C(C)NC)C(C)(C)C)C(C(=O)NC2CCCc4ccccc42)C3)n1

> <Shape>
0.236

> <Color>
0.072

> <Negative vol penalty>
0.000

$$$$

  -OEChem-04052318243D

 84 92  0     1  0  0  0  0  0999 V2000
  -16.7778  -28.6500   24.0778 C   0  0  0  0  0  0  0  0  0  0  0  0
  -17.3799  -27.8997   23.0728 C   0  0  0  0  0  0  0  0  0  0  0  0
  -25.0160  -15.1145   20.0766 C   0  0  0  0  0  0  0  0  0  0  0  0
  -25.7992  -14.7712   22.3362 C   0  0  0  0  0  0  0  0  0  0  0  0
  -17.3008  -29.8948   24.4252 C   0  0  0  0  0  0  0  0  0  0  0  0
  -18.5049  -28.3944   22.4138 C   0  0  0  0  0  0  0  0  0  0  0  0
  -22.1283  -24.8995   21.8647 C   0  0  0  0  0  0  0  0  0  0  0  0
  -25.1466  -13.7490   19.8238 C   0  0  0  0  0  0  0  0  0  0  0  0
  -25.9297  -13.4056   22.0835 C   0  0  0  0  0  0  0  0  0  0  0  0
  -21.9568  -23.9586   20.8503 C   0  0  0  0  0  0  0  0  0  0  0  0
  -24.9304  -10.3004   18.6944 C   0  0  0  0  0  0  0  0  0  0  0  0
  -23.8867   -9.6623   18.0243 C   0  0  0  0  0  0  0  0  0  0  0  0
  -23.4651  -25.2095   19.4433 C   0  0  0  0  0  0  0  0  0  0  0  0
  -22.3692  -10.2797   19.8001 C   0  0  0  0  0  0  0  0  0  0  0  0
  -25.3424  -15.6256   21.3328 C   0  0  0  0  0  0  0  0  0  0  0  0
  -24.0728  -17.7048   22.0898 C   0  0  0  0  0  0  0  0  0  0  0  0
  -18.4385  -30.4007   23.7769 C   0  0  0  0  0  0  0  0  0  0  0  0
  -22.9623  -26.0102   21.6718 C   0  0  0  0  0  0  0  0  0  0  0  0
  -19.0428  -29.6478   22.7521 C   0  0  0  0  0  0  0  0  0  0  0  0
  -23.6474  -26.1618   20.4578 C   0  0  0  0  0  0  0  0  0  0  0  0
  -25.6034  -12.8946   20.8272 C   0  0  0  0  0  0  0  0  0  0  0  0
  -22.6230  -24.1150   19.6383 C   0  0  0  0  0  0  0  0  0  0  0  0
  -24.6936  -10.9282   19.9174 C   0  0  0  0  0  0  0  0  0  0  0  0
  -22.6061   -9.6519   18.5771 C   0  0  0  0  0  0  0  0  0  0  0  0
  -23.4130  -10.9178   20.4701 C   0  0  0  0  0  0  0  0  0  0  0  0
  -25.2084  -17.0362   21.5944 C   0  0  0  0  0  0  0  0  0  0  0  0
  -24.4533  -19.0227   22.1591 C   0  0  0  0  0  0  0  0  0  0  0  0
  -27.7914  -21.8654   18.0229 C   0  0  0  0  0  0  0  0  0  0  0  0
  -26.1329  -21.5229   16.8025 C   0  0  0  0  0  0  0  0  0  0  0  0
  -22.7889  -17.1813   22.4547 C   0  0  0  0  0  0  0  0  0  0  0  0
  -28.5940  -22.1802   19.2118 C   0  0  0  0  0  0  0  0  0  0  0  0
  -22.5327  -29.1595   21.6406 C   0  0  0  0  0  0  0  0  0  0  0  0
  -25.7664  -29.2063   21.3899 C   0  0  0  0  0  0  0  0  0  0  0  0
  -28.6250  -27.5835   20.4721 C   0  0  0  0  0  0  0  0  0  0  0  0
  -18.9394  -31.7723   24.1545 C   0  0  0  0  0  0  0  0  0  0  0  0
  -23.1575  -27.0021   22.7856 C   0  0  0  0  0  0  0  0  0  0  0  0
  -24.5700  -27.3257   20.2078 C   0  0  0  0  0  0  0  0  0  0  0  0
  -20.3568  -32.0591   23.6654 C   0  0  0  0  0  0  0  0  0  0  0  0
  -28.3138  -21.7896   22.7488 C   0  0  0  0  0  0  0  0  0  0  0  0
  -20.5116  -31.6452   22.2054 C   0  0  0  0  0  0  0  0  0  0  0  0
  -27.3945  -20.5766   22.9026 C   0  0  0  0  0  0  0  0  0  0  0  0
  -29.2347  -21.6491   21.5393 C   0  0  0  0  0  0  0  0  0  0  0  0
  -27.6146  -20.1590   20.4171 C   0  0  0  0  0  0  0  0  0  0  0  0
  -20.2792  -30.1395   22.0312 C   0  0  1  0  0  0  0  0  0  0  0  0
  -23.6293  -28.3671   22.2942 C   0  0  1  0  0  0  0  0  0  0  0  0
  -26.6346  -20.2834   21.5953 C   0  0  1  0  0  0  0  0  0  0  0  0
  -27.7596  -22.2318   13.8332 C   0  0  0  0  0  0  0  0  0  0  0  0
  -31.0862  -27.1732   20.2051 C   0  0  0  0  0  0  0  0  0  0  0  0
  -25.4248  -30.9718   18.9249 C   0  0  0  0  0  0  0  0  0  0  0  0
  -27.7992  -30.4618   18.3164 C   0  0  0  0  0  0  0  0  0  0  0  0
  -27.2881  -31.6545   20.4469 C   0  0  0  0  0  0  0  0  0  0  0  0
  -22.2402  -21.3360   16.3981 C   0  0  0  0  0  0  0  0  0  0  0  0
  -23.5786  -20.5405   18.3401 C   0  0  0  0  0  0  0  0  0  0  0  0
  -28.8168  -26.2969   23.1305 C   0  0  0  0  0  0  0  0  0  0  0  0
  -27.4242  -21.0254   14.6933 C   0  0  0  0  0  0  0  0  0  0  0  0
  -23.5544  -22.9984   17.7564 C   0  0  0  0  0  0  0  0  0  1  0  0
  -26.7503  -29.1924   20.2449 C   0  0  1  0  0  0  0  0  0  0  0  0
  -29.9482  -27.3899   21.1904 C   0  0  2  0  0  0  0  0  0  0  0  0
  -24.7534  -21.3433   16.2044 C   0  0  0  0  0  0  0  0  0  0  0  0
  -26.7967  -30.5491   19.4870 C   0  0  0  0  0  0  0  0  0  0  0  0
  -23.5544  -21.5611   17.1843 C   0  0  0  0  0  0  0  0  0  0  0  0
  -26.2333  -17.8613   21.3650 N   0  0  0  0  0  0  0  0  0  0  0  0
  -26.4262  -21.8385   18.0426 N   0  0  0  0  0  0  0  0  0  0  0  0
  -28.3612  -21.5864   16.8486 N   0  0  0  0  0  0  0  0  0  0  0  0
  -25.7433  -19.0619   21.7178 N   0  0  0  0  0  0  0  0  0  0  0  0
  -27.2787  -21.3713   16.0855 N   0  0  0  0  0  0  0  0  0  0  0  0
  -28.4625  -21.3565   20.3324 N   0  0  0  0  0  0  0  0  0  0  0  0
  -24.7231  -28.2720   21.3253 N   0  0  0  0  0  0  0  0  0  0  0  0
  -23.8070  -20.1402   22.5537 N   0  0  0  0  0  0  0  0  0  0  0  0
  -22.5666  -15.8039   22.3217 N   0  0  0  0  0  0  0  0  0  0  0  0
  -21.4445  -29.3954   22.4590 N   0  0  0  0  0  0  0  0  0  0  0  0
  -28.0300  -28.7803   20.8114 N   0  0  0  0  0  0  0  0  0  0  0  0
  -29.8784  -26.2077   22.0951 N   0  3  0  0  0  0  0  0  0  0  0  0
  -21.8608  -17.9156   22.8706 O   0  0  0  0  0  0  0  0  0  0  0  0
  -29.3223  -23.1682   19.1299 O   0  0  0  0  0  0  0  0  0  0  0  0
  -22.6647  -29.5308   20.4802 O   0  0  0  0  0  0  0  0  0  0  0  0
  -25.9221  -30.0116   22.3112 O   0  0  0  0  0  0  0  0  0  0  0  0
  -28.1669  -26.7576   19.6857 O   0  0  0  0  0  0  0  0  0  0  0  0
  -25.7306  -11.5620   20.5810 O   0  0  0  0  0  0  0  0  0  0  0  0
  -22.4569  -23.1984   18.6463 O   0  0  0  0  0  0  0  0  0  1  0  0
  -21.6036   -9.0404   17.9328 F   0  0  0  0  0  0  0  0  0  0  0  0
  -23.1790  -11.5202   21.6441 F   0  0  0  0  0  0  0  0  0  0  0  0
  -24.5728  -22.1897   15.1410 F   0  0  0  0  0  0  0  0  0  0  0  0
  -24.6228  -20.0911   15.6622 F   0  0  0  0  0  0  0  0  0  0  0  0
  1  2  1  0  0  0  0
  1  5  2  0  0  0  0
  2  6  2  0  0  0  0
  3  8  2  0  0  0  0
  3 15  1  0  0  0  0
  4  9  1  0  0  0  0
  4 15  2  0  0  0  0
  5 17  1  0  0  0  0
  6 19  1  0  0  0  0
  7 10  2  0  0  0  0
  7 18  1  0  0  0  0
  8 21  1  0  0  0  0
  9 21  2  0  0  0  0
 10 22  1  0  0  0  0
 11 12  2  0  0  0  0
 11 23  1  0  0  0  0
 12 24  1  0  0  0  0
 13 20  1  0  0  0  0
 13 22  2  0  0  0  0
 14 24  2  0  0  0  0
 14 25  1  0  0  0  0
 15 26  1  0  0  0  0
 16 26  1  0  0  0  0
 16 27  2  0  0  0  0
 16 30  1  0  0  0  0
 17 19  2  0  0  0  0
 17 35  1  0  0  0  0
 18 20  2  0  0  0  0
 18 36  1  0  0  0  0
 19 44  1  0  0  0  0
 20 37  1  0  0  0  0
 21 79  1  0  0  0  0
 22 80  1  0  0  0  0
 23 25  2  0  0  0  0
 23 79  1  0  0  0  0
 24 81  1  0  0  0  0
 25 82  1  0  0  0  0
 26 62  2  0  0  0  0
 27 65  1  0  0  0  0
 27 69  1  0  0  0  0
 28 31  1  0  0  0  0
 28 63  1  0  0  0  0
 28 64  2  0  0  0  0
 29 59  1  0  0  0  0
 29 63  2  0  0  0  0
 29 66  1  0  0  0  0
 30 70  1  0  0  0  0
 30 74  2  0  0  0  0
 31 67  1  0  0  0  0
 31 75  2  0  0  0  0
 32 45  1  0  0  0  0
 32 71  1  0  0  0  0
 32 76  2  0  0  0  0
 33 57  1  0  0  0  0
 33 68  1  0  0  0  0
 33 77  2  0  0  0  0
 34 58  1  0  0  0  0
 34 72  1  0  0  0  0
 34 78  2  0  0  0  0
 35 38  1  0  0  0  0
 36 45  1  0  0  0  0
 37 68  1  0  0  0  0
 38 40  1  0  0  0  0
 39 41  1  0  0  0  0
 39 42  1  0  0  0  0
 40 44  1  0  0  0  0
 41 46  1  0  0  0  0
 42 67  1  0  0  0  0
 43 46  1  0  0  0  0
 43 67  1  0  0  0  0
 44 71  1  0  0  0  0
 45 68  1  0  0  0  0
 46 65  1  0  0  0  0
 47 55  1  0  0  0  0
 48 58  1  0  0  0  0
 49 60  1  0  0  0  0
 50 60  1  0  0  0  0
 51 60  1  0  0  0  0
 52 61  1  0  0  0  0
 53 61  1  0  0  0  0
 54 73  1  0  0  0  0
 55 66  1  0  0  0  0
 56 61  1  0  0  0  0
 56 80  1  0  0  0  0
 57 60  1  0  0  0  0
 57 72  1  0  0  0  0
 58 73  1  0  0  0  0
 59 61  1  0  0  0  0
 59 83  1  0  0  0  0
 59 84  1  0  0  0  0
 62 65  1  0  0  0  0
 64 66  1  0  0  0  0
M  CHG  1  73   1
M  ISO  4  28 100  31 100  56 101  80 101
M  END
> <Batch ID>
0072

> <Smiles>
CCn1n[100c:0]([100C:0](=O)N2CCCC(n3nc(-c4ccc(Oc5ccc(F)cc5F)cc4)c(C(N)=O)c3N)C2)nc1C(F)(F)C(C)(C)[101CH2:1][101O:1]c1ccc2c(c1)CN(C(=O)C(NC(=O)C(C)NC)C(C)(C)C)C(C(=O)NC1CCCc3ccccc31)C2

> <Shape>
0.208

> <Color>
0.090

> <Negative vol penalty>
0.000

$$$$

  -OEChem-04052318243D

 85 93  0     1  0  0  0  0  0999 V2000
  -22.5490   -8.3179   20.6412 C   0  0  0  0  0  0  0  0  0  0  0  0
  -21.9454   -9.5473   20.8851 C   0  0  0  0  0  0  0  0  0  0  0  0
  -28.4333  -28.1167   21.0889 C   0  0  0  0  0  0  0  0  0  0  0  0
  -27.1341  -27.1479   19.2972 C   0  0  0  0  0  0  0  0  0  0  0  0
  -23.9068   -8.1444   20.9063 C   0  0  0  0  0  0  0  0  0  0  0  0
  -22.6991  -10.6038   21.3953 C   0  0  0  0  0  0  0  0  0  0  0  0
  -22.0231  -16.5572   20.1283 C   0  0  0  0  0  0  0  0  0  0  0  0
  -29.4660  -27.2164   20.8270 C   0  0  0  0  0  0  0  0  0  0  0  0
  -28.1667  -26.2476   19.0351 C   0  0  0  0  0  0  0  0  0  0  0  0
  -21.3826  -17.5936   20.8060 C   0  0  0  0  0  0  0  0  0  0  0  0
  -30.6076  -23.9307   17.6596 C   0  0  0  0  0  0  0  0  0  0  0  0
  -30.9701  -23.7281   16.3280 C   0  0  0  0  0  0  0  0  0  0  0  0
  -23.4839  -18.2311   21.8048 C   0  0  0  0  0  0  0  0  0  0  0  0
  -31.5173  -26.0722   16.1204 C   0  0  0  0  0  0  0  0  0  0  0  0
  -19.1483  -24.5937   21.0106 C   0  0  0  0  0  0  0  0  0  0  0  0
  -17.5275  -23.9512   22.3584 C   0  0  0  0  0  0  0  0  0  0  0  0
  -27.2673  -28.0824   20.3241 C   0  0  0  0  0  0  0  0  0  0  0  0
  -26.0228  -30.2900   20.0318 C   0  0  0  0  0  0  0  0  0  0  0  0
  -24.6796   -9.2021   21.4109 C   0  0  0  0  0  0  0  0  0  0  0  0
  -23.3992  -16.3429   20.2924 C   0  0  0  0  0  0  0  0  0  0  0  0
  -24.0682  -10.4439   21.6687 C   0  0  0  0  0  0  0  0  0  0  0  0
  -24.1399  -17.1929   21.1260 C   0  0  0  0  0  0  0  0  0  0  0  0
  -29.3327  -26.2818   19.8001 C   0  0  0  0  0  0  0  0  0  0  0  0
  -22.1124  -18.4290   21.6467 C   0  0  0  0  0  0  0  0  0  0  0  0
  -30.6998  -25.2040   18.2216 C   0  0  0  0  0  0  0  0  0  0  0  0
  -31.4250  -24.7989   15.5584 C   0  0  0  0  0  0  0  0  0  0  0  0
  -31.1547  -26.2747   17.4520 C   0  0  0  0  0  0  0  0  0  0  0  0
  -26.2000  -29.0119   20.5946 C   0  0  0  0  0  0  0  0  0  0  0  0
  -18.4527  -25.6698   21.5094 C   0  0  0  0  0  0  0  0  0  0  0  0
  -24.8705  -30.7631   20.6105 C   0  0  0  0  0  0  0  0  0  0  0  0
  -26.8277  -30.9872   19.0718 C   0  0  0  0  0  0  0  0  0  0  0  0
  -25.1806  -13.9577   21.4064 C   0  0  0  0  0  0  0  0  0  0  0  0
  -27.6271  -15.8171   20.3676 C   0  0  0  0  0  0  0  0  0  0  0  0
  -28.7595  -18.9365   19.5713 C   0  0  0  0  0  0  0  0  0  0  0  0
  -20.1129  -28.0514   23.0319 C   0  0  0  0  0  0  0  0  0  0  0  0
  -26.1333   -8.9529   21.7264 C   0  0  0  0  0  0  0  0  0  0  0  0
  -24.0801  -15.2371   19.5335 C   0  0  0  0  0  0  0  0  0  0  0  0
  -25.6231  -17.0176   21.3206 C   0  0  0  0  0  0  0  0  0  0  0  0
  -26.9440  -10.2327   21.9135 C   0  0  0  0  0  0  0  0  0  0  0  0
  -22.2685  -30.4053   24.6096 C   0  0  0  0  0  0  0  0  0  0  0  0
  -26.1988  -11.2093   22.8178 C   0  0  0  0  0  0  0  0  0  0  0  0
  -23.5046  -30.4304   23.7087 C   0  0  0  0  0  0  0  0  0  0  0  0
  -21.6696  -29.0040   24.7069 C   0  0  0  0  0  0  0  0  0  0  0  0
  -22.6044  -28.3929   22.5100 C   0  0  0  0  0  0  0  0  0  0  0  0
  -24.8577  -11.6212   22.1985 C   0  0  1  0  0  0  0  0  0  0  0  0
  -25.3909  -14.7916   20.1744 C   0  0  1  0  0  0  0  0  0  0  0  0
  -23.2110  -29.7958   22.3360 C   0  0  2  0  0  0  0  0  0  0  0  0
  -17.1418  -27.2291   19.1722 C   0  0  0  0  0  0  0  0  0  0  0  0
  -18.8418  -20.9486   24.2705 C   0  0  0  0  0  0  0  0  0  0  0  0
  -30.8146  -20.1460   18.7894 C   0  0  0  0  0  0  0  0  0  0  0  0
  -28.8217  -15.5915   23.1662 C   0  0  0  0  0  0  0  0  0  0  0  0
  -30.3028  -17.5333   22.6148 C   0  0  0  0  0  0  0  0  0  0  0  0
  -30.4836  -15.4178   21.3054 C   0  0  0  0  0  0  0  0  0  0  0  0
  -21.4461  -22.2786   21.6712 C   0  0  0  0  0  0  0  0  0  0  0  0
  -27.4140  -19.8687   17.1057 C   0  0  0  0  0  0  0  0  0  0  0  0
  -18.5329  -27.4747   19.7437 C   0  0  0  0  0  0  0  0  0  0  0  0
  -20.0447  -21.6433   23.6430 C   0  0  0  0  0  0  0  0  0  0  0  0
  -18.9249  -22.0547   21.3337 C   0  0  0  0  0  0  0  0  0  0  0  0
  -20.3493  -20.0247   21.6811 C   0  0  0  0  0  0  0  0  0  1  0  0
  -18.6763  -27.0994   21.2461 C   0  0  2  0  0  0  0  0  0  0  0  0
  -28.4708  -16.9116   20.9752 C   0  0  1  0  0  0  0  0  0  0  0  0
  -29.5285  -19.4522   18.3683 C   0  0  2  0  0  0  0  0  0  0  0  0
  -29.4914  -16.3659   22.0135 C   0  0  0  0  0  0  0  0  0  0  0  0
  -20.1731  -21.5100   22.0976 C   0  0  1  0  0  0  0  0  0  0  0  0
  -17.4453  -25.2631   22.3481 N   0  0  0  0  0  0  0  0  0  0  0  0
  -25.2375  -28.6933   21.4641 N   0  0  0  0  0  0  0  0  0  0  0  0
  -18.5443  -23.4999   21.5637 N   0  0  0  0  0  0  0  0  0  0  0  0
  -24.4444  -29.7781   21.4521 N   0  0  0  0  0  0  0  0  0  0  0  0
  -26.2423  -15.9183   20.5617 N   0  0  0  0  0  0  0  0  0  0  0  0
  -21.4133  -28.4597   23.3713 N   0  0  0  0  0  0  0  0  0  0  0  0
  -24.1903  -31.9215   20.4764 N   0  0  0  0  0  0  0  0  0  0  0  0
  -27.9782  -30.3557   18.5799 N   0  0  0  0  0  0  0  0  0  0  0  0
  -25.0630  -12.6038   21.1560 N   0  0  0  0  0  0  0  0  0  0  0  0
  -29.0789  -17.6261   19.8581 N   0  0  0  0  0  0  0  0  0  0  0  0
  -19.9556  -27.5534   21.7443 N   0  0  0  0  0  0  0  0  0  0  0  0
  -28.6993  -20.4246   17.6016 N   0  3  0  0  0  0  0  0  0  0  0  0
  -26.5442  -32.1428   18.6745 O   0  0  0  0  0  0  0  0  0  0  0  0
  -25.1303  -14.5020   22.5032 O   0  0  0  0  0  0  0  0  0  0  0  0
  -28.1761  -14.9097   19.7376 O   0  0  0  0  0  0  0  0  0  0  0  0
  -27.9587  -19.6280   20.1965 O   0  0  0  0  0  0  0  0  0  0  0  0
  -19.1613  -28.1303   23.8163 O   0  0  0  0  0  0  0  0  0  0  0  0
  -30.3402  -25.4033   19.5440 O   0  0  0  0  0  0  0  0  0  0  0  0
  -21.4895  -19.4409   22.3099 O   0  0  0  0  0  0  0  0  0  1  0  0
  -31.7746  -24.6039   14.2802 F   0  0  0  0  0  0  0  0  0  0  0  0
  -31.2466  -27.5001   17.9868 F   0  0  0  0  0  0  0  0  0  0  0  0
  1  2  1  0  0  0  0
  1  5  2  0  0  0  0
  2  6  2  0  0  0  0
  3  8  2  0  0  0  0
  3 17  1  0  0  0  0
  4  9  1  0  0  0  0
  4 17  2  0  0  0  0
  5 19  1  0  0  0  0
  6 21  1  0  0  0  0
  7 10  2  0  0  0  0
  7 20  1  0  0  0  0
  8 23  1  0  0  0  0
  9 23  2  0  0  0  0
 10 24  1  0  0  0  0
 11 12  2  0  0  0  0
 11 25  1  0  0  0  0
 12 26  1  0  0  0  0
 13 22  1  0  0  0  0
 13 24  2  0  0  0  0
 14 26  2  0  0  0  0
 14 27  1  0  0  0  0
 15 29  2  0  0  0  0
 15 67  1  0  0  0  0
 16 65  2  0  0  0  0
 16 67  1  0  0  0  0
 17 28  1  0  0  0  0
 18 28  1  0  0  0  0
 18 30  2  0  0  0  0
 18 31  1  0  0  0  0
 19 21  2  0  0  0  0
 19 36  1  0  0  0  0
 20 22  2  0  0  0  0
 20 37  1  0  0  0  0
 21 45  1  0  0  0  0
 22 38  1  0  0  0  0
 23 82  1  0  0  0  0
 24 83  1  0  0  0  0
 25 27  2  0  0  0  0
 25 82  1  0  0  0  0
 26 84  1  0  0  0  0
 27 85  1  0  0  0  0
 28 66  2  0  0  0  0
 29 60  1  0  0  0  0
 29 65  1  0  0  0  0
 30 68  1  0  0  0  0
 30 71  1  0  0  0  0
 31 72  1  0  0  0  0
 31 77  2  0  0  0  0
 32 46  1  0  0  0  0
 32 73  1  0  0  0  0
 32 78  2  0  0  0  0
 33 61  1  0  0  0  0
 33 69  1  0  0  0  0
 33 79  2  0  0  0  0
 34 62  1  0  0  0  0
 34 74  1  0  0  0  0
 34 80  2  0  0  0  0
 35 70  1  0  0  0  0
 35 75  1  0  0  0  0
 35 81  2  0  0  0  0
 36 39  1  0  0  0  0
 37 46  1  0  0  0  0
 38 69  1  0  0  0  0
 39 41  1  0  0  0  0
 40 42  1  0  0  0  0
 40 43  1  0  0  0  0
 41 45  1  0  0  0  0
 42 47  1  0  0  0  0
 43 70  1  0  0  0  0
 44 47  1  0  0  0  0
 44 70  1  0  0  0  0
 45 73  1  0  0  0  0
 46 69  1  0  0  0  0
 47 68  1  0  0  0  0
 48 56  1  0  0  0  0
 49 57  1  0  0  0  0
 50 62  1  0  0  0  0
 51 63  1  0  0  0  0
 52 63  1  0  0  0  0
 53 63  1  0  0  0  0
 54 64  1  0  0  0  0
 55 76  1  0  0  0  0
 56 60  1  0  0  0  0
 57 64  1  0  0  0  0
 58 64  1  0  0  0  0
 58 67  1  0  0  0  0
 59 64  1  0  0  0  0
 59 83  1  0  0  0  0
 60 75  1  0  0  0  0
 61 63  1  0  0  0  0
 61 74  1  0  0  0  0
 62 76  1  0  0  0  0
 66 68  1  0  0  0  0
M  CHG  1  76   1
M  ISO  4  35 100  59 101  75 100  83 101
M  END
> <Batch ID>
0072

> <Smiles>
CCC([100NH:0][100C:0](=O)N1CCCC(n2nc(-c3ccc(Oc4ccc(F)cc4F)cc3)c(C(N)=O)c2N)C1)c1cn(CC(C)(CC)[101CH2:1][101O:1]c2ccc3c(c2)CN(C(=O)C(NC(=O)C(C)NC)C(C)(C)C)C(C(=O)NC2CCCc4ccccc42)C3)cn1

> <Shape>
0.275

> <Color>
0.044

> <Negative vol penalty>
0.000

$$$$

  -OEChem-04052318243D

 83 91  0     1  0  0  0  0  0999 V2000
  -16.8507  -26.5861   25.1998 C   0  0  0  0  0  0  0  0  0  0  0  0
  -17.6110  -25.4876   24.8115 C   0  0  0  0  0  0  0  0  0  0  0  0
  -24.5639  -16.3351   19.4401 C   0  0  0  0  0  0  0  0  0  0  0  0
  -25.8907  -14.4797   20.2362 C   0  0  0  0  0  0  0  0  0  0  0  0
  -17.0392  -27.8186   24.5759 C   0  0  0  0  0  0  0  0  0  0  0  0
  -18.5595  -25.6208   23.7981 C   0  0  0  0  0  0  0  0  0  0  0  0
  -23.9481  -22.7385   23.3973 C   0  0  0  0  0  0  0  0  0  0  0  0
  -23.4065  -15.7018   19.8928 C   0  0  0  0  0  0  0  0  0  0  0  0
  -24.7334  -13.8463   20.6890 C   0  0  0  0  0  0  0  0  0  0  0  0
  -24.3581  -21.6107   22.6875 C   0  0  0  0  0  0  0  0  0  0  0  0
  -22.1973  -12.0460   19.3630 C   0  0  0  0  0  0  0  0  0  0  0  0
  -22.0514  -10.6869   19.0854 C   0  0  0  0  0  0  0  0  0  0  0  0
  -25.1924  -23.0307   20.9250 C   0  0  0  0  0  0  0  0  0  0  0  0
  -21.9468  -10.2146   21.4525 C   0  0  0  0  0  0  0  0  0  0  0  0
  -29.0417  -19.7126   21.2897 C   0  0  0  0  0  0  0  0  0  0  0  0
  -28.3661  -19.9885   19.2103 C   0  0  0  0  0  0  0  0  0  0  0  0
  -25.8060  -15.7241   19.6117 C   0  0  0  0  0  0  0  0  0  0  0  0
  -27.1180  -17.2560   18.0498 C   0  0  0  0  0  0  0  0  0  0  0  0
  -17.9973  -27.9693   23.5610 C   0  0  0  0  0  0  0  0  0  0  0  0
  -24.1477  -24.0226   22.8704 C   0  0  0  0  0  0  0  0  0  0  0  0
  -18.7601  -26.8562   23.1590 C   0  0  0  0  0  0  0  0  0  0  0  0
  -24.7864  -24.1733   21.6312 C   0  0  0  0  0  0  0  0  0  0  0  0
  -23.4913  -14.4574   20.5173 C   0  0  0  0  0  0  0  0  0  0  0  0
  -24.9777  -21.7565   21.4499 C   0  0  0  0  0  0  0  0  0  0  0  0
  -22.2180  -12.4895   20.6854 C   0  0  0  0  0  0  0  0  0  0  0  0
  -21.9261   -9.7712   20.1301 C   0  0  0  0  0  0  0  0  0  0  0  0
  -22.0927  -11.5737   21.7301 C   0  0  0  0  0  0  0  0  0  0  0  0
  -27.0018  -16.3776   19.1437 C   0  0  0  0  0  0  0  0  0  0  0  0
  -29.9611  -20.4204   20.5519 C   0  0  0  0  0  0  0  0  0  0  0  0
  -28.4478  -17.5984   18.0240 C   0  0  0  0  0  0  0  0  0  0  0  0
  -26.1135  -17.7209   17.1384 C   0  0  0  0  0  0  0  0  0  0  0  0
  -22.2401  -26.4113   21.9995 C   0  0  0  0  0  0  0  0  0  0  0  0
  -25.0458  -27.9890   21.5982 C   0  0  0  0  0  0  0  0  0  0  0  0
  -33.0708  -19.1876   20.7430 C   0  0  0  0  0  0  0  0  0  0  0  0
  -28.4068  -27.8240   21.0292 C   0  0  0  0  0  0  0  0  0  0  0  0
  -18.1321  -29.3099   22.8832 C   0  0  0  0  0  0  0  0  0  0  0  0
  -23.7238  -25.2301   23.6607 C   0  0  0  0  0  0  0  0  0  0  0  0
  -25.0423  -25.5307   21.0308 C   0  0  0  0  0  0  0  0  0  0  0  0
  -19.4194  -29.4576   22.0762 C   0  0  0  0  0  0  0  0  0  0  0  0
  -32.4004  -15.6752   20.5114 C   0  0  0  0  0  0  0  0  0  0  0  0
  -19.6538  -28.2213   21.2139 C   0  0  0  0  0  0  0  0  0  0  0  0
  -30.9372  -15.6170   20.0745 C   0  0  0  0  0  0  0  0  0  0  0  0
  -32.6577  -16.8532   21.4459 C   0  0  0  0  0  0  0  0  0  0  0  0
  -30.7810  -18.1193   20.4476 C   0  0  0  0  0  0  0  0  0  0  0  0
  -19.8161  -26.9668   22.0808 C   0  0  1  0  0  0  0  0  0  0  0  0
  -23.5142  -26.4680   22.7940 C   0  0  1  0  0  0  0  0  0  0  0  0
  -30.4846  -16.9616   19.4780 C   0  0  2  0  0  0  0  0  0  0  0  0
  -30.4253  -29.2814   20.7144 C   0  0  0  0  0  0  0  0  0  0  0  0
  -31.5719  -20.6734   22.5198 C   0  0  0  0  0  0  0  0  0  0  0  0
  -31.2692  -22.5570   20.9756 C   0  0  0  0  0  0  0  0  0  0  0  0
  -33.6787  -21.4672   20.1130 C   0  0  0  0  0  0  0  0  0  0  0  0
  -32.2198  -20.0890   18.6461 C   0  0  0  0  0  0  0  0  0  0  0  0
  -24.1280  -28.6437   18.7629 C   0  0  0  0  0  0  0  0  0  0  0  0
  -26.4955  -29.2409   18.2091 C   0  0  0  0  0  0  0  0  0  0  0  0
  -25.2617  -30.5281   19.9537 C   0  0  0  0  0  0  0  0  0  0  0  0
  -29.7487  -26.6775   23.4049 C   0  0  0  0  0  0  0  0  0  0  0  0
  -26.7614  -18.6780   20.7251 C   0  0  0  0  0  0  0  0  0  0  0  0
  -25.7573  -19.5107   21.5148 C   0  0  0  0  0  0  0  0  0  1  0  0
  -26.0176  -28.1686   20.4569 C   0  0  1  0  0  0  0  0  0  0  0  0
  -29.5786  -28.5061   21.7119 C   0  0  2  0  0  0  0  0  0  0  0  0
  -31.2533  -20.9682   20.9915 C   0  0  0  0  0  0  0  0  0  0  0  0
  -32.5214  -20.4451   20.1178 C   0  0  0  0  0  0  0  0  0  0  0  0
  -25.4693  -29.1195   19.3558 C   0  0  0  0  0  0  0  0  0  0  0  0
  -29.5345  -20.5890   19.2584 N   0  0  0  0  0  0  0  0  0  0  0  0
  -28.1652  -16.1745   19.7677 N   0  0  0  0  0  0  0  0  0  0  0  0
  -28.0253  -19.4434   20.4169 N   0  0  0  0  0  0  0  0  0  0  0  0
  -29.0250  -16.9300   19.0635 N   0  0  0  0  0  0  0  0  0  0  0  0
  -24.6037  -26.6804   21.8390 N   0  0  0  0  0  0  0  0  0  0  0  0
  -32.1936  -18.1085   20.8525 N   0  0  0  0  0  0  0  0  0  0  0  0
  -29.1682  -18.4029   17.2139 N   0  0  0  0  0  0  0  0  0  0  0  0
  -25.8770  -16.9821   15.9711 N   0  0  0  0  0  0  0  0  0  0  0  0
  -21.1406  -26.9223   22.6624 N   0  0  0  0  0  0  0  0  0  0  0  0
  -27.2732  -28.6087   21.0554 N   0  0  0  0  0  0  0  0  0  0  0  0
  -30.4472  -27.4968   22.3812 N   0  3  0  0  0  0  0  0  0  0  0  0
  -25.4570  -18.7696   17.3447 O   0  0  0  0  0  0  0  0  0  0  0  0
  -22.2539  -25.9404   20.8683 O   0  0  0  0  0  0  0  0  0  0  0  0
  -24.6976  -28.9724   22.2564 O   0  0  0  0  0  0  0  0  0  0  0  0
  -34.2455  -19.1660   21.1194 O   0  0  0  0  0  0  0  0  0  0  0  0
  -28.4897  -26.7085   20.5201 O   0  0  0  0  0  0  0  0  0  0  0  0
  -22.3621  -13.8392   20.9594 O   0  0  0  0  0  0  0  0  0  0  0  0
  -25.3783  -20.6574   20.7547 O   0  0  0  0  0  0  0  0  0  1  0  0
  -21.7845   -8.4662   19.8632 F   0  0  0  0  0  0  0  0  0  0  0  0
  -22.1107  -11.9939   23.0025 F   0  0  0  0  0  0  0  0  0  0  0  0
  1  2  1  0  0  0  0
  1  5  2  0  0  0  0
  2  6  2  0  0  0  0
  3  8  2  0  0  0  0
  3 17  1  0  0  0  0
  4  9  1  0  0  0  0
  4 17  2  0  0  0  0
  5 19  1  0  0  0  0
  6 21  1  0  0  0  0
  7 10  2  0  0  0  0
  7 20  1  0  0  0  0
  8 23  1  0  0  0  0
  9 23  2  0  0  0  0
 10 24  1  0  0  0  0
 11 12  2  0  0  0  0
 11 25  1  0  0  0  0
 12 26  1  0  0  0  0
 13 22  1  0  0  0  0
 13 24  2  0  0  0  0
 14 26  2  0  0  0  0
 14 27  1  0  0  0  0
 15 29  2  0  0  0  0
 15 66  1  0  0  0  0
 16 64  2  0  0  0  0
 16 66  1  0  0  0  0
 17 28  1  0  0  0  0
 18 28  1  0  0  0  0
 18 30  2  0  0  0  0
 18 31  1  0  0  0  0
 19 21  2  0  0  0  0
 19 36  1  0  0  0  0
 20 22  2  0  0  0  0
 20 37  1  0  0  0  0
 21 45  1  0  0  0  0
 22 38  1  0  0  0  0
 23 80  1  0  0  0  0
 24 81  1  0  0  0  0
 25 27  2  0  0  0  0
 25 80  1  0  0  0  0
 26 82  1  0  0  0  0
 27 83  1  0  0  0  0
 28 65  2  0  0  0  0
 29 61  1  0  0  0  0
 29 64  1  0  0  0  0
 30 67  1  0  0  0  0
 30 70  1  0  0  0  0
 31 71  1  0  0  0  0
 31 75  2  0  0  0  0
 32 46  1  0  0  0  0
 32 72  1  0  0  0  0
 32 76  2  0  0  0  0
 33 59  1  0  0  0  0
 33 68  1  0  0  0  0
 33 77  2  0  0  0  0
 34 62  1  0  0  0  0
 34 69  1  0  0  0  0
 34 78  2  0  0  0  0
 35 60  1  0  0  0  0
 35 73  1  0  0  0  0
 35 79  2  0  0  0  0
 36 39  1  0  0  0  0
 37 46  1  0  0  0  0
 38 68  1  0  0  0  0
 39 41  1  0  0  0  0
 40 42  1  0  0  0  0
 40 43  1  0  0  0  0
 41 45  1  0  0  0  0
 42 47  1  0  0  0  0
 43 69  1  0  0  0  0
 44 47  1  0  0  0  0
 44 69  1  0  0  0  0
 45 72  1  0  0  0  0
 46 68  1  0  0  0  0
 47 67  1  0  0  0  0
 48 60  1  0  0  0  0
 49 61  1  0  0  0  0
 50 61  1  0  0  0  0
 51 62  1  0  0  0  0
 52 62  1  0  0  0  0
 53 63  1  0  0  0  0
 54 63  1  0  0  0  0
 55 63  1  0  0  0  0
 56 74  1  0  0  0  0
 57 58  1  0  0  0  0
 57 66  1  0  0  0  0
 58 81  1  0  0  0  0
 59 63  1  0  0  0  0
 59 73  1  0  0  0  0
 60 74  1  0  0  0  0
 61 62  1  0  0  0  0
 65 67  1  0  0  0  0
M  CHG  1  74   1
M  ISO  4  34 100  58 101  62 100  81 101
M  END
> <Batch ID>
0072

> <Smiles>
CNC(C)C(=O)NC(C(=O)N1Cc2cc([101O:1][101CH2:1]Cn3cnc(C(C)(C)[100C:0](C)(C)[100C:0](=O)N4CCCC(n5nc(-c6ccc(Oc7ccc(F)cc7F)cc6)c(C(N)=O)c5N)C4)c3)ccc2CC1C(=O)NC1CCCc2ccccc21)C(C)(C)C

> <Shape>
0.214

> <Color>
0.049

> <Negative vol penalty>
0.000

$$$$

  -OEChem-04052318243D

 87 95  0     1  0  0  0  0  0999 V2000
  -23.7399   -8.0085   21.3206 C   0  0  0  0  0  0  0  0  0  0  0  0
  -24.4760   -9.0682   20.8002 C   0  0  0  0  0  0  0  0  0  0  0  0
  -20.7989  -26.6864   20.1259 C   0  0  0  0  0  0  0  0  0  0  0  0
  -21.4974  -25.7686   22.2489 C   0  0  0  0  0  0  0  0  0  0  0  0
  -22.4148   -8.2051   21.7069 C   0  0  0  0  0  0  0  0  0  0  0  0
  -23.8869  -10.3248   20.6648 C   0  0  0  0  0  0  0  0  0  0  0  0
  -26.9036  -14.0666   22.2594 C   0  0  0  0  0  0  0  0  0  0  0  0
  -19.5153  -26.1799   20.3293 C   0  0  0  0  0  0  0  0  0  0  0  0
  -20.2137  -25.2621   22.4522 C   0  0  0  0  0  0  0  0  0  0  0  0
  -27.9310  -14.4642   21.4049 C   0  0  0  0  0  0  0  0  0  0  0  0
  -17.0247  -24.0372   23.6963 C   0  0  0  0  0  0  0  0  0  0  0  0
  -16.4499  -24.2114   24.9552 C   0  0  0  0  0  0  0  0  0  0  0  0
  -26.5988  -16.3428   20.6870 C   0  0  0  0  0  0  0  0  0  0  0  0
  -16.6260  -26.6079   24.7039 C   0  0  0  0  0  0  0  0  0  0  0  0
  -30.9972  -20.4475   21.0855 C   0  0  0  0  0  0  0  0  0  0  0  0
  -28.4974  -21.3806   20.9998 C   0  0  0  0  0  0  0  0  0  0  0  0
  -21.7900  -26.4807   21.0857 C   0  0  0  0  0  0  0  0  0  0  0  0
  -23.6033  -28.2663   21.2621 C   0  0  0  0  0  0  0  0  0  0  0  0
  -21.8121   -9.4670   21.5852 C   0  0  0  0  0  0  0  0  0  0  0  0
  -25.7098  -14.7992   22.3262 C   0  0  0  0  0  0  0  0  0  0  0  0
  -22.5520  -10.5380   21.0486 C   0  0  0  0  0  0  0  0  0  0  0  0
  -25.5588  -15.9539   21.5450 C   0  0  0  0  0  0  0  0  0  0  0  0
  -19.2227  -25.4678   21.4924 C   0  0  0  0  0  0  0  0  0  0  0  0
  -27.7776  -15.6008   20.6164 C   0  0  0  0  0  0  0  0  0  0  0  0
  -17.4003  -25.1483   22.9412 C   0  0  0  0  0  0  0  0  0  0  0  0
  -16.2505  -25.4968   25.4590 C   0  0  0  0  0  0  0  0  0  0  0  0
  -17.2009  -26.4336   23.4450 C   0  0  0  0  0  0  0  0  0  0  0  0
  -23.1163  -27.0032   20.8760 C   0  0  0  0  0  0  0  0  0  0  0  0
  -30.1460  -20.1063   20.0577 C   0  0  0  0  0  0  0  0  0  0  0  0
  -29.3483  -21.7213   22.0281 C   0  0  0  0  0  0  0  0  0  0  0  0
  -24.9094  -28.2754   20.8372 C   0  0  0  0  0  0  0  0  0  0  0  0
  -22.9348  -29.3359   21.9439 C   0  0  0  0  0  0  0  0  0  0  0  0
  -22.6556  -14.1724   21.7071 C   0  0  0  0  0  0  0  0  0  0  0  0
  -22.2009  -17.1371   22.9423 C   0  0  0  0  0  0  0  0  0  0  0  0
  -29.4004  -24.6282   20.3118 C   0  0  0  0  0  0  0  0  0  0  0  0
  -23.4951  -20.2193   23.6295 C   0  0  0  0  0  0  0  0  0  0  0  0
  -20.3624   -9.6196   21.9722 C   0  0  0  0  0  0  0  0  0  0  0  0
  -24.6216  -14.3723   23.2727 C   0  0  0  0  0  0  0  0  0  0  0  0
  -24.3048  -16.7866   21.5947 C   0  0  0  0  0  0  0  0  0  0  0  0
  -19.9277  -11.0726   22.1451 C   0  0  0  0  0  0  0  0  0  0  0  0
  -27.5098  -25.7548   17.4840 C   0  0  0  0  0  0  0  0  0  0  0  0
  -20.4238  -11.9207   20.9783 C   0  0  0  0  0  0  0  0  0  0  0  0
  -26.2179  -26.2853   18.1041 C   0  0  0  0  0  0  0  0  0  0  0  0
  -28.0407  -24.5459   18.2481 C   0  0  0  0  0  0  0  0  0  0  0  0
  -26.9529  -25.3218   20.3305 C   0  0  0  0  0  0  0  0  0  0  0  0
  -21.9557  -11.9219   20.9093 C   0  0  1  0  0  0  0  0  0  0  0  0
  -23.2461  -14.9026   22.8801 C   0  0  1  0  0  0  0  0  0  0  0  0
  -26.3993  -26.5622   19.6071 C   0  0  2  0  0  0  0  0  0  0  0  0
  -23.5953  -22.5483   24.5586 C   0  0  0  0  0  0  0  0  0  0  0  0
  -27.7772  -24.9569   23.7394 C   0  0  0  0  0  0  0  0  0  0  0  0
  -27.6634  -21.9123   23.8070 C   0  0  0  0  0  0  0  0  0  0  0  0
  -29.9067  -22.8088   24.3087 C   0  0  0  0  0  0  0  0  0  0  0  0
  -30.9124  -24.6373   22.2264 C   0  0  0  0  0  0  0  0  0  0  0  0
  -29.2959  -26.4796   21.9312 C   0  0  0  0  0  0  0  0  0  0  0  0
  -20.6821  -17.8317   20.3887 C   0  0  0  0  0  0  0  0  0  0  0  0
  -20.9175  -20.2507   20.9896 C   0  0  0  0  0  0  0  0  0  0  0  0
  -19.6493  -18.7126   22.4891 C   0  0  0  0  0  0  0  0  0  0  0  0
  -24.5460  -19.2630   26.2256 C   0  0  0  0  0  0  0  0  0  0  0  0
  -30.6095  -19.1933   18.9508 C   0  0  0  0  0  0  0  0  0  0  0  0
  -30.3589  -17.7098   19.2304 C   0  0  0  0  0  0  0  0  0  0  0  0
  -28.8968  -17.3880   19.5168 C   0  0  0  0  0  0  0  0  0  1  0  0
  -22.1690  -18.5370   22.3782 C   0  0  1  0  0  0  0  0  0  0  0  0
  -23.4589  -21.0696   24.8865 C   0  0  2  0  0  0  0  0  0  0  0  0
  -28.4232  -24.1034   22.6165 C   0  0  2  0  0  0  0  0  0  0  0  0
  -28.8908  -22.6230   23.1207 C   0  0  0  0  0  0  0  0  0  0  0  0
  -29.4652  -24.9603   21.7813 C   0  0  0  0  0  0  0  0  0  0  0  0
  -20.8774  -18.8165   21.5588 C   0  0  0  0  0  0  0  0  0  0  0  0
  -28.8809  -20.5669   19.9962 N   0  0  0  0  0  0  0  0  0  0  0  0
  -30.6136  -21.2608   22.0894 N   0  0  0  0  0  0  0  0  0  0  0  0
  -24.0379  -26.2635   20.2535 N   0  0  0  0  0  0  0  0  0  0  0  0
  -25.1171  -27.0643   20.2452 N   0  0  0  0  0  0  0  0  0  0  0  0
  -23.2670  -16.3246   22.5313 N   0  0  0  0  0  0  0  0  0  0  0  0
  -28.1777  -24.8424   19.6752 N   0  0  0  0  0  0  0  0  0  0  0  0
  -25.8889  -29.2010   20.9159 N   0  0  0  0  0  0  0  0  0  0  0  0
  -21.5930  -29.1604   22.3086 N   0  0  0  0  0  0  0  0  0  0  0  0
  -22.5059  -12.8134   21.9078 N   0  0  0  0  0  0  0  0  0  0  0  0
  -22.3657  -19.4375   23.5090 N   0  0  0  0  0  0  0  0  0  0  0  0
  -24.5702  -20.6869   25.8028 N   0  3  0  0  0  0  0  0  0  0  0  0
  -23.5055  -30.4215   22.2069 O   0  0  0  0  0  0  0  0  0  0  0  0
  -22.3566  -14.7960   20.6955 O   0  0  0  0  0  0  0  0  0  0  0  0
  -21.3165  -16.7801   23.7247 O   0  0  0  0  0  0  0  0  0  0  0  0
  -30.4081  -24.1941   19.7476 O   0  0  0  0  0  0  0  0  0  0  0  0
  -24.4299  -20.2487   22.8321 O   0  0  0  0  0  0  0  0  0  0  0  0
  -17.9702  -24.9736   21.6913 O   0  0  0  0  0  0  0  0  0  0  0  0
  -28.7786  -15.9906   19.7810 O   0  0  0  0  0  0  0  0  0  1  0  0
  -15.6970  -25.6640   26.6672 F   0  0  0  0  0  0  0  0  0  0  0  0
  -17.5586  -27.5049   22.7237 F   0  0  0  0  0  0  0  0  0  0  0  0
  1  2  1  0  0  0  0
  1  5  2  0  0  0  0
  2  6  2  0  0  0  0
  3  8  2  0  0  0  0
  3 17  1  0  0  0  0
  4  9  1  0  0  0  0
  4 17  2  0  0  0  0
  5 19  1  0  0  0  0
  6 21  1  0  0  0  0
  7 10  2  0  0  0  0
  7 20  1  0  0  0  0
  8 23  1  0  0  0  0
  9 23  2  0  0  0  0
 10 24  1  0  0  0  0
 11 12  2  0  0  0  0
 11 25  1  0  0  0  0
 12 26  1  0  0  0  0
 13 22  1  0  0  0  0
 13 24  2  0  0  0  0
 14 26  2  0  0  0  0
 14 27  1  0  0  0  0
 15 29  1  0  0  0  0
 15 69  2  0  0  0  0
 16 30  2  0  0  0  0
 16 68  1  0  0  0  0
 17 28  1  0  0  0  0
 18 28  1  0  0  0  0
 18 31  2  0  0  0  0
 18 32  1  0  0  0  0
 19 21  2  0  0  0  0
 19 37  1  0  0  0  0
 20 22  2  0  0  0  0
 20 38  1  0  0  0  0
 21 46  1  0  0  0  0
 22 39  1  0  0  0  0
 23 84  1  0  0  0  0
 24 85  1  0  0  0  0
 25 27  2  0  0  0  0
 25 84  1  0  0  0  0
 26 86  1  0  0  0  0
 27 87  1  0  0  0  0
 28 70  2  0  0  0  0
 29 59  1  0  0  0  0
 29 68  2  0  0  0  0
 30 65  1  0  0  0  0
 30 69  1  0  0  0  0
 31 71  1  0  0  0  0
 31 74  1  0  0  0  0
 32 75  1  0  0  0  0
 32 79  2  0  0  0  0
 33 47  1  0  0  0  0
 33 76  1  0  0  0  0
 33 80  2  0  0  0  0
 34 62  1  0  0  0  0
 34 72  1  0  0  0  0
 34 81  2  0  0  0  0
 35 66  1  0  0  0  0
 35 73  1  0  0  0  0
 35 82  2  0  0  0  0
 36 63  1  0  0  0  0
 36 77  1  0  0  0  0
 36 83  2  0  0  0  0
 37 40  1  0  0  0  0
 38 47  1  0  0  0  0
 39 72  1  0  0  0  0
 40 42  1  0  0  0  0
 41 43  1  0  0  0  0
 41 44  1  0  0  0  0
 42 46  1  0  0  0  0
 43 48  1  0  0  0  0
 44 73  1  0  0  0  0
 45 48  1  0  0  0  0
 45 73  1  0  0  0  0
 46 76  1  0  0  0  0
 47 72  1  0  0  0  0
 48 71  1  0  0  0  0
 49 63  1  0  0  0  0
 50 64  1  0  0  0  0
 51 65  1  0  0  0  0
 52 65  1  0  0  0  0
 53 66  1  0  0  0  0
 54 66  1  0  0  0  0
 55 67  1  0  0  0  0
 56 67  1  0  0  0  0
 57 67  1  0  0  0  0
 58 78  1  0  0  0  0
 59 60  1  0  0  0  0
 60 61  1  0  0  0  0
 61 85  1  0  0  0  0
 62 67  1  0  0  0  0
 62 77  1  0  0  0  0
 63 78  1  0  0  0  0
 64 65  1  0  0  0  0
 64 66  1  0  0  0  0
 70 71  1  0  0  0  0
M  CHG  1  78   1
M  ISO  4  35 100  61 101  66 100  85 101
M  END
> <Batch ID>
0072

> <Smiles>
CNC(C)C(=O)NC(C(=O)N1Cc2cc([101O:1][101CH2:1]CCc3cnc(C(C)(C)C(C)[100C:0](C)(C)[100C:0](=O)N4CCCC(n5nc(-c6ccc(Oc7ccc(F)cc7F)cc6)c(C(N)=O)c5N)C4)cn3)ccc2CC1C(=O)NC1CCCc2ccccc21)C(C)(C)C

> <Shape>
0.203

> <Color>
0.089

> <Negative vol penalty>
0.000

$$$$

  -OEChem-04052318243D

 89 97  0     1  0  0  0  0  0999 V2000
  -32.3338  -25.1776   15.8384 C   0  0  0  0  0  0  0  0  0  0  0  0
  -31.4473  -24.5630   16.7169 C   0  0  0  0  0  0  0  0  0  0  0  0
  -23.5541   -9.5576   19.9058 C   0  0  0  0  0  0  0  0  0  0  0  0
  -23.3132  -10.1953   22.2237 C   0  0  0  0  0  0  0  0  0  0  0  0
  -32.8298  -26.4485   16.1259 C   0  0  0  0  0  0  0  0  0  0  0  0
  -31.0572  -25.2185   17.8841 C   0  0  0  0  0  0  0  0  0  0  0  0
  -26.0738  -24.8916   18.7230 C   0  0  0  0  0  0  0  0  0  0  0  0
  -22.8222   -8.3955   20.1495 C   0  0  0  0  0  0  0  0  0  0  0  0
  -22.5812   -9.0332   22.4673 C   0  0  0  0  0  0  0  0  0  0  0  0
  -25.5934  -23.6914   19.2450 C   0  0  0  0  0  0  0  0  0  0  0  0
  -23.2135   -5.7502   22.9702 C   0  0  0  0  0  0  0  0  0  0  0  0
  -23.5259   -5.0154   24.1140 C   0  0  0  0  0  0  0  0  0  0  0  0
  -25.5240  -24.6824   21.4433 C   0  0  0  0  0  0  0  0  0  0  0  0
  -21.2713   -5.3218   24.9265 C   0  0  0  0  0  0  0  0  0  0  0  0
  -31.4214  -15.7655   26.3374 C   0  0  0  0  0  0  0  0  0  0  0  0
  -30.6571  -16.6763   25.6468 C   0  0  0  0  0  0  0  0  0  0  0  0
  -23.7997  -10.4575   20.9430 C   0  0  0  0  0  0  0  0  0  0  0  0
  -24.0541  -12.9117   20.2951 C   0  0  0  0  0  0  0  0  0  0  0  0
  -32.4381  -27.1240   17.2925 C   0  0  0  0  0  0  0  0  0  0  0  0
  -26.2936  -25.9947   19.5604 C   0  0  0  0  0  0  0  0  0  0  0  0
  -31.5495  -26.4991   18.1882 C   0  0  0  0  0  0  0  0  0  0  0  0
  -26.0048  -25.8962   20.9289 C   0  0  0  0  0  0  0  0  0  0  0  0
  -22.3357   -8.1333   21.4302 C   0  0  0  0  0  0  0  0  0  0  0  0
  -25.3211  -23.5858   20.6059 C   0  0  0  0  0  0  0  0  0  0  0  0
  -21.9301   -6.2709   22.8047 C   0  0  0  0  0  0  0  0  0  0  0  0
  -22.5548   -4.8012   25.0921 C   0  0  0  0  0  0  0  0  0  0  0  0
  -20.9590   -6.0567   23.7828 C   0  0  0  0  0  0  0  0  0  0  0  0
  -24.5561  -11.6579   20.6920 C   0  0  0  0  0  0  0  0  0  0  0  0
  -25.1669  -13.7102   20.1919 C   0  0  0  0  0  0  0  0  0  0  0  0
  -30.3534  -14.6295   24.8885 C   0  0  0  0  0  0  0  0  0  0  0  0
  -22.7026  -13.3184   20.0422 C   0  0  0  0  0  0  0  0  0  0  0  0
  -28.8366  -27.7156   20.3821 C   0  0  0  0  0  0  0  0  0  0  0  0
  -30.5874  -13.3903   22.7662 C   0  0  0  0  0  0  0  0  0  0  0  0
  -26.6249  -29.5450   21.8934 C   0  0  0  0  0  0  0  0  0  0  0  0
  -23.5334  -29.7644   23.3222 C   0  0  0  0  0  0  0  0  0  0  0  0
  -33.0377  -28.4768   17.5841 C   0  0  0  0  0  0  0  0  0  0  0  0
  -26.7868  -27.2905   18.9772 C   0  0  0  0  0  0  0  0  0  0  0  0
  -26.2045  -27.0575   21.8671 C   0  0  0  0  0  0  0  0  0  0  0  0
  -32.2835  -29.2590   18.6563 C   0  0  0  0  0  0  0  0  0  0  0  0
  -29.8485  -13.5199   19.2624 C   0  0  0  0  0  0  0  0  0  0  0  0
  -31.9801  -28.3654   19.8548 C   0  0  0  0  0  0  0  0  0  0  0  0
  -28.3691  -13.1432   19.1933 C   0  0  0  0  0  0  0  0  0  0  0  0
  -30.5663  -12.7620   20.3748 C   0  0  0  0  0  0  0  0  0  0  0  0
  -28.4602  -12.5467   21.6552 C   0  0  0  0  0  0  0  0  0  0  0  0
  -31.0834  -27.1883   19.4523 C   0  0  1  0  0  0  0  0  0  0  0  0
  -27.4613  -28.1910   20.0076 C   0  0  1  0  0  0  0  0  0  0  0  0
  -27.6910  -13.3128   20.5643 C   0  0  2  0  0  0  0  0  0  0  0  0
  -28.8020  -12.1324   25.9289 C   0  0  0  0  0  0  0  0  0  0  0  0
  -22.0207  -31.3788   24.5065 C   0  0  0  0  0  0  0  0  0  0  0  0
  -23.1920  -16.8670   25.1424 C   0  0  0  0  0  0  0  0  0  0  0  0
  -24.3819  -15.2533   23.6418 C   0  0  0  0  0  0  0  0  0  0  0  0
  -28.2876  -29.2362   24.4331 C   0  0  0  0  0  0  0  0  0  0  0  0
  -26.3053  -30.0246   25.7434 C   0  0  0  0  0  0  0  0  0  0  0  0
  -27.3663  -31.5314   24.0621 C   0  0  0  0  0  0  0  0  0  0  0  0
  -21.4630  -29.5473   21.2186 C   0  0  0  0  0  0  0  0  0  0  0  0
  -29.7461  -12.1485   24.7337 C   0  0  0  0  0  0  0  0  0  0  0  0
  -24.9526  -19.5450   22.0317 C   0  0  0  0  0  0  0  0  0  0  0  0
  -27.6285  -16.8216   24.3060 C   0  0  0  0  0  0  0  0  0  0  0  0
  -24.0758  -20.1141   20.9087 C   0  0  0  0  0  0  0  0  0  0  0  0
  -24.3425  -18.3071   22.7035 C   0  0  0  0  0  0  0  0  0  0  0  0
  -26.6400  -17.3499   23.2572 C   0  0  0  0  0  0  0  0  0  0  0  0
  -28.9988  -16.4728   23.7100 C   0  0  0  0  0  0  0  0  0  0  0  0
  -24.6626  -21.3354   20.2082 C   0  0  0  0  0  0  0  0  0  1  0  0
  -29.8106  -13.5414   24.0498 C   0  0  1  0  0  0  0  0  0  0  0  0
  -26.0047  -29.5539   23.2697 C   0  0  1  0  0  0  0  0  0  0  0  0
  -22.4211  -30.7854   23.1648 C   0  0  2  0  0  0  0  0  0  0  0  0
  -24.5473  -16.4884   24.5318 C   0  0  0  0  0  0  0  0  0  0  0  0
  -25.2344  -17.6943   23.8162 C   0  0  2  0  0  0  0  0  0  0  0  0
  -26.9890  -30.0639   24.3600 C   0  0  0  0  0  0  0  0  0  0  0  0
  -31.2280  -14.4933   25.8604 N   0  0  0  0  0  0  0  0  0  0  0  0
  -25.8845  -11.6550   20.8314 N   0  0  0  0  0  0  0  0  0  0  0  0
  -29.9788  -15.9338   24.7217 N   0  0  0  0  0  0  0  0  0  0  0  0
  -26.2266  -12.9168   20.5203 N   0  0  0  0  0  0  0  0  0  0  0  0
  -26.6945  -28.3012   21.2501 N   0  0  0  0  0  0  0  0  0  0  0  0
  -29.8788  -12.9300   21.6563 N   0  0  0  0  0  0  0  0  0  0  0  0
  -25.3325  -15.0064   19.8532 N   0  0  0  0  0  0  0  0  0  0  0  0
  -21.6803  -12.3719   20.1956 N   0  0  0  0  0  0  0  0  0  0  0  0
  -29.7099  -27.6232   19.3152 N   0  0  0  0  0  0  0  0  0  0  0  0
  -24.7778  -30.3356   23.1596 N   0  0  0  0  0  0  0  0  0  0  0  0
  -21.2188  -30.1516   22.5536 N   0  3  0  0  0  0  0  0  0  0  0  0
  -22.4119  -14.4820   19.6748 O   0  0  0  0  0  0  0  0  0  0  0  0
  -29.0873  -27.4536   21.5527 O   0  0  0  0  0  0  0  0  0  0  0  0
  -31.7876  -13.6762   22.7517 O   0  0  0  0  0  0  0  0  0  0  0  0
  -27.0261  -30.6039   21.4041 O   0  0  0  0  0  0  0  0  0  0  0  0
  -23.3198  -28.5794   23.5687 O   0  0  0  0  0  0  0  0  0  0  0  0
  -21.6213   -6.9995   21.6682 O   0  0  0  0  0  0  0  0  0  0  0  0
  -24.8492  -22.4064   21.1220 O   0  0  0  0  0  0  0  0  0  1  0  0
  -22.8544   -4.0942   26.1896 F   0  0  0  0  0  0  0  0  0  0  0  0
  -19.7239   -6.5534   23.6287 F   0  0  0  0  0  0  0  0  0  0  0  0
  1  2  1  0  0  0  0
  1  5  2  0  0  0  0
  2  6  2  0  0  0  0
  3  8  2  0  0  0  0
  3 17  1  0  0  0  0
  4  9  1  0  0  0  0
  4 17  2  0  0  0  0
  5 19  1  0  0  0  0
  6 21  1  0  0  0  0
  7 10  2  0  0  0  0
  7 20  1  0  0  0  0
  8 23  1  0  0  0  0
  9 23  2  0  0  0  0
 10 24  1  0  0  0  0
 11 12  2  0  0  0  0
 11 25  1  0  0  0  0
 12 26  1  0  0  0  0
 13 22  1  0  0  0  0
 13 24  2  0  0  0  0
 14 26  2  0  0  0  0
 14 27  1  0  0  0  0
 15 16  2  0  0  0  0
 15 70  1  0  0  0  0
 16 72  1  0  0  0  0
 17 28  1  0  0  0  0
 18 28  1  0  0  0  0
 18 29  2  0  0  0  0
 18 31  1  0  0  0  0
 19 21  2  0  0  0  0
 19 36  1  0  0  0  0
 20 22  2  0  0  0  0
 20 37  1  0  0  0  0
 21 45  1  0  0  0  0
 22 38  1  0  0  0  0
 23 86  1  0  0  0  0
 24 87  1  0  0  0  0
 25 27  2  0  0  0  0
 25 86  1  0  0  0  0
 26 88  1  0  0  0  0
 27 89  1  0  0  0  0
 28 71  2  0  0  0  0
 29 73  1  0  0  0  0
 29 76  1  0  0  0  0
 30 64  1  0  0  0  0
 30 70  2  0  0  0  0
 30 72  1  0  0  0  0
 31 77  1  0  0  0  0
 31 81  2  0  0  0  0
 32 46  1  0  0  0  0
 32 78  1  0  0  0  0
 32 82  2  0  0  0  0
 33 64  1  0  0  0  0
 33 75  1  0  0  0  0
 33 83  2  0  0  0  0
 34 65  1  0  0  0  0
 34 74  1  0  0  0  0
 34 84  2  0  0  0  0
 35 66  1  0  0  0  0
 35 79  1  0  0  0  0
 35 85  2  0  0  0  0
 36 39  1  0  0  0  0
 37 46  1  0  0  0  0
 38 74  1  0  0  0  0
 39 41  1  0  0  0  0
 40 42  1  0  0  0  0
 40 43  1  0  0  0  0
 41 45  1  0  0  0  0
 42 47  1  0  0  0  0
 43 75  1  0  0  0  0
 44 47  1  0  0  0  0
 44 75  1  0  0  0  0
 45 78  1  0  0  0  0
 46 74  1  0  0  0  0
 47 73  1  0  0  0  0
 48 56  1  0  0  0  0
 49 66  1  0  0  0  0
 50 67  1  0  0  0  0
 51 67  1  0  0  0  0
 52 69  1  0  0  0  0
 53 69  1  0  0  0  0
 54 69  1  0  0  0  0
 55 80  1  0  0  0  0
 56 64  1  0  0  0  0
 57 59  1  0  0  0  0
 57 60  1  0  0  0  0
 58 61  1  0  0  0  0
 58 62  1  0  0  0  0
 59 63  1  0  0  0  0
 60 68  1  0  0  0  0
 61 68  1  0  0  0  0
 62 72  1  0  0  0  0
 63 87  1  0  0  0  0
 65 69  1  0  0  0  0
 65 79  1  0  0  0  0
 66 80  1  0  0  0  0
 67 68  1  0  0  0  0
 71 73  1  0  0  0  0
M  CHG  1  80   1
M  ISO  4  33 100  63 101  64 100  87 101
M  END
> <Batch ID>
0072

> <Smiles>
CC[100CH:0](c1nccn1CCCC(CCC[101CH2:1][101O:1]c1ccc2c(c1)CN(C(=O)C(NC(=O)C(C)NC)C(C)(C)C)C(C(=O)NC1CCCc3ccccc31)C2)C(C)C)[100C:0](=O)N1CCCC(n2nc(-c3ccc(Oc4ccc(F)cc4F)cc3)c(C(N)=O)c2N)C1

> <Shape>
0.259

> <Color>
0.147

> <Negative vol penalty>
0.000

$$$$

  -OEChem-04052318243D

 80 88  0     1  0  0  0  0  0999 V2000
  -20.6887  -23.1273   18.5183 C   0  0  0  0  0  0  0  0  0  0  0  0
  -22.0534  -22.8571   18.5240 C   0  0  0  0  0  0  0  0  0  0  0  0
  -22.0376  -27.8427   21.0047 C   0  0  0  0  0  0  0  0  0  0  0  0
  -23.1225  -26.8560   22.9247 C   0  0  0  0  0  0  0  0  0  0  0  0
  -19.8303  -22.3929   19.3355 C   0  0  0  0  0  0  0  0  0  0  0  0
  -22.5606  -21.8528   19.3478 C   0  0  0  0  0  0  0  0  0  0  0  0
  -27.2628  -18.1213   18.1348 C   0  0  0  0  0  0  0  0  0  0  0  0
  -20.8123  -27.7880   21.6689 C   0  0  0  0  0  0  0  0  0  0  0  0
  -21.8971  -26.8013   23.5890 C   0  0  0  0  0  0  0  0  0  0  0  0
  -28.6055  -18.1523   18.5088 C   0  0  0  0  0  0  0  0  0  0  0  0
  -19.1913  -29.5520   24.0551 C   0  0  0  0  0  0  0  0  0  0  0  0
  -18.3732  -30.6804   24.0002 C   0  0  0  0  0  0  0  0  0  0  0  0
  -28.1246  -16.6546   20.3376 C   0  0  0  0  0  0  0  0  0  0  0  0
  -16.6393  -29.3719   22.9426 C   0  0  0  0  0  0  0  0  0  0  0  0
  -30.7748  -20.3040   23.5854 C   0  0  0  0  0  0  0  0  0  0  0  0
  -23.1927  -27.3767   21.6326 C   0  0  0  0  0  0  0  0  0  0  0  0
  -25.3891  -28.4888   20.9641 C   0  0  0  0  0  0  0  0  0  0  0  0
  -20.3261  -21.3726   20.1625 C   0  0  0  0  0  0  0  0  0  0  0  0
  -26.3373  -17.3640   18.8673 C   0  0  0  0  0  0  0  0  0  0  0  0
  -21.7083  -21.1049   20.1778 C   0  0  0  0  0  0  0  0  0  0  0  0
  -26.7712  -16.6136   19.9694 C   0  0  0  0  0  0  0  0  0  0  0  0
  -20.7420  -27.2673   22.9610 C   0  0  0  0  0  0  0  0  0  0  0  0
  -29.0361  -17.4212   19.6120 C   0  0  0  0  0  0  0  0  0  0  0  0
  -18.7335  -28.3335   23.5536 C   0  0  0  0  0  0  0  0  0  0  0  0
  -17.0972  -30.5903   23.4440 C   0  0  0  0  0  0  0  0  0  0  0  0
  -17.4575  -28.2434   22.9974 C   0  0  0  0  0  0  0  0  0  0  0  0
  -24.4587  -27.4325   20.9468 C   0  0  0  0  0  0  0  0  0  0  0  0
  -26.4161  -28.0550   20.1619 C   0  0  0  0  0  0  0  0  0  0  0  0
  -29.7867  -21.0232   21.7923 C   0  0  0  0  0  0  0  0  0  0  0  0
  -25.3303  -29.7494   21.6446 C   0  0  0  0  0  0  0  0  0  0  0  0
  -23.7247  -18.0311   20.5504 C   0  0  0  0  0  0  0  0  0  0  0  0
  -28.2472  -22.5440   18.6164 C   0  0  0  0  0  0  0  0  0  0  0  0
  -23.4916  -14.8010   20.7356 C   0  0  0  0  0  0  0  0  0  0  0  0
  -25.0592  -11.7718   20.6206 C   0  0  0  0  0  0  0  0  0  0  0  0
  -19.3657  -20.6375   21.0635 C   0  0  0  0  0  0  0  0  0  0  0  0
  -24.8973  -17.3198   18.4350 C   0  0  0  0  0  0  0  0  0  0  0  0
  -25.8213  -15.7685   20.7769 C   0  0  0  0  0  0  0  0  0  0  0  0
  -19.9339  -19.3383   21.6287 C   0  0  0  0  0  0  0  0  0  0  0  0
  -27.3171  -25.2210   16.4236 C   0  0  0  0  0  0  0  0  0  0  0  0
  -21.3466  -19.5599   22.1596 C   0  0  0  0  0  0  0  0  0  0  0  0
  -26.5388  -26.1737   17.3301 C   0  0  0  0  0  0  0  0  0  0  0  0
  -27.0804  -23.7644   16.8099 C   0  0  0  0  0  0  0  0  0  0  0  0
  -26.6032  -24.4106   19.1501 C   0  0  0  0  0  0  0  0  0  0  0  0
  -22.2933  -20.0067   21.0391 C   0  0  1  0  0  0  0  0  0  0  0  0
  -23.9474  -16.9227   19.5608 C   0  0  1  0  0  0  0  0  0  0  0  0
  -26.8385  -25.8937   18.8135 C   0  0  2  0  0  0  0  0  0  0  0  0
  -24.6122   -9.3127   20.8450 C   0  0  0  0  0  0  0  0  0  0  0  0
  -23.3093  -15.1130   23.7654 C   0  0  0  0  0  0  0  0  0  0  0  0
  -23.8206  -12.6714   23.9777 C   0  0  0  0  0  0  0  0  0  0  0  0
  -21.7524  -13.4127   22.7962 C   0  0  0  0  0  0  0  0  0  0  0  0
  -25.9593  -11.2376   17.8523 C   0  0  0  0  0  0  0  0  0  0  0  0
  -29.4857  -21.2426   20.3663 C   0  0  0  0  0  0  0  0  0  0  0  0
  -28.4811  -22.3798   20.0971 C   0  0  0  0  0  0  0  0  0  0  0  0
  -31.9230  -18.0293   21.6926 C   0  0  0  0  0  0  0  0  0  0  0  0
  -31.8475  -19.5274   21.3898 C   0  0  0  0  0  0  0  0  0  0  0  0
  -30.6354  -17.2815   21.3667 C   0  0  0  0  0  0  0  0  0  1  0  0
  -24.0000  -13.7453   21.6874 C   0  0  1  0  0  0  0  0  0  0  0  0
  -24.7176  -10.4881   19.8858 C   0  0  2  0  0  0  0  0  0  0  0  0
  -23.2384  -13.7529   23.0428 C   0  0  0  0  0  0  0  0  0  0  0  0
  -29.7560  -21.0417   23.9651 N   0  0  0  0  0  0  0  0  0  0  0  0
  -24.8591  -26.4050   20.1932 N   0  0  0  0  0  0  0  0  0  0  0  0
  -29.1273  -21.4993   22.8242 N   0  0  0  0  0  0  0  0  0  0  0  0
  -30.8319  -20.2650   22.2253 N   0  0  0  0  0  0  0  0  0  0  0  0
  -26.0524  -26.8137   19.7294 N   0  0  0  0  0  0  0  0  0  0  0  0
  -24.4223  -15.7630   20.3183 N   0  0  0  0  0  0  0  0  0  0  0  0
  -27.3544  -23.5443   18.2311 N   0  0  0  0  0  0  0  0  0  0  0  0
  -27.5857  -28.6180   19.7913 N   0  0  0  0  0  0  0  0  0  0  0  0
  -24.2030  -30.0344   22.4271 N   0  0  0  0  0  0  0  0  0  0  0  0
  -22.6808  -18.8756   20.2238 N   0  0  0  0  0  0  0  0  0  0  0  0
  -23.9271  -12.4780   20.9681 N   0  0  0  0  0  0  0  0  0  0  0  0
  -25.7658  -10.1761   18.8734 N   0  3  0  0  0  0  0  0  0  0  0  0
  -26.2427  -30.6048   21.5481 O   0  0  0  0  0  0  0  0  0  0  0  0
  -24.4455  -18.1132   21.5380 O   0  0  0  0  0  0  0  0  0  0  0  0
  -28.8433  -21.8063   17.8273 O   0  0  0  0  0  0  0  0  0  0  0  0
  -22.3138  -14.7690   20.3701 O   0  0  0  0  0  0  0  0  0  0  0  0
  -26.2146  -12.1120   20.8653 O   0  0  0  0  0  0  0  0  0  0  0  0
  -19.5466  -27.2139   23.6096 O   0  0  0  0  0  0  0  0  0  0  0  0
  -30.3461  -17.4503   19.9795 O   0  0  0  0  0  0  0  0  0  1  0  0
  -16.3111  -31.6737   23.3928 F   0  0  0  0  0  0  0  0  0  0  0  0
  -17.0116  -27.0753   22.5152 F   0  0  0  0  0  0  0  0  0  0  0  0
  1  2  1  0  0  0  0
  1  5  2  0  0  0  0
  2  6  2  0  0  0  0
  3  8  2  0  0  0  0
  3 16  1  0  0  0  0
  4  9  1  0  0  0  0
  4 16  2  0  0  0  0
  5 18  1  0  0  0  0
  6 20  1  0  0  0  0
  7 10  2  0  0  0  0
  7 19  1  0  0  0  0
  8 22  1  0  0  0  0
  9 22  2  0  0  0  0
 10 23  1  0  0  0  0
 11 12  2  0  0  0  0
 11 24  1  0  0  0  0
 12 25  1  0  0  0  0
 13 21  1  0  0  0  0
 13 23  2  0  0  0  0
 14 25  2  0  0  0  0
 14 26  1  0  0  0  0
 15 60  2  0  0  0  0
 15 63  1  0  0  0  0
 16 27  1  0  0  0  0
 17 27  1  0  0  0  0
 17 28  2  0  0  0  0
 17 30  1  0  0  0  0
 18 20  2  0  0  0  0
 18 35  1  0  0  0  0
 19 21  2  0  0  0  0
 19 36  1  0  0  0  0
 20 44  1  0  0  0  0
 21 37  1  0  0  0  0
 22 77  1  0  0  0  0
 23 78  1  0  0  0  0
 24 26  2  0  0  0  0
 24 77  1  0  0  0  0
 25 79  1  0  0  0  0
 26 80  1  0  0  0  0
 27 61  2  0  0  0  0
 28 64  1  0  0  0  0
 28 67  1  0  0  0  0
 29 52  1  0  0  0  0
 29 62  2  0  0  0  0
 29 63  1  0  0  0  0
 30 68  1  0  0  0  0
 30 72  2  0  0  0  0
 31 45  1  0  0  0  0
 31 69  1  0  0  0  0
 31 73  2  0  0  0  0
 32 53  1  0  0  0  0
 32 66  1  0  0  0  0
 32 74  2  0  0  0  0
 33 57  1  0  0  0  0
 33 65  1  0  0  0  0
 33 75  2  0  0  0  0
 34 58  1  0  0  0  0
 34 70  1  0  0  0  0
 34 76  2  0  0  0  0
 35 38  1  0  0  0  0
 36 45  1  0  0  0  0
 37 65  1  0  0  0  0
 38 40  1  0  0  0  0
 39 41  1  0  0  0  0
 39 42  1  0  0  0  0
 40 44  1  0  0  0  0
 41 46  1  0  0  0  0
 42 66  1  0  0  0  0
 43 46  1  0  0  0  0
 43 66  1  0  0  0  0
 44 69  1  0  0  0  0
 45 65  1  0  0  0  0
 46 64  1  0  0  0  0
 47 58  1  0  0  0  0
 48 59  1  0  0  0  0
 49 59  1  0  0  0  0
 50 59  1  0  0  0  0
 51 71  1  0  0  0  0
 52 53  1  0  0  0  0
 54 55  1  0  0  0  0
 54 56  1  0  0  0  0
 55 63  1  0  0  0  0
 56 78  1  0  0  0  0
 57 59  1  0  0  0  0
 57 70  1  0  0  0  0
 58 71  1  0  0  0  0
 60 62  1  0  0  0  0
 61 64  1  0  0  0  0
M  CHG  1  71   1
M  ISO  4  32 100  53 100  56 101  78 101
M  END
> <Batch ID>
0072

> <Smiles>
CNC(C)C(=O)NC(C(=O)N1Cc2cc([101O:1][101CH2:1]CCn3cnnc3C[100CH2:0][100C:0](=O)N3CCCC(n4nc(-c5ccc(Oc6ccc(F)cc6F)cc5)c(C(N)=O)c4N)C3)ccc2CC1C(=O)NC1CCCc2ccccc21)C(C)(C)C

> <Shape>
0.227

> <Color>
0.077

> <Negative vol penalty>
0.000

$$$$

  -OEChem-04052318243D

 86 94  0     1  0  0  0  0  0999 V2000
  -27.5095  -33.6515   26.1407 C   0  0  0  0  0  0  0  0  0  0  0  0
  -27.7722  -32.4619   25.4690 C   0  0  0  0  0  0  0  0  0  0  0  0
  -24.1267  -13.9674   21.7360 C   0  0  0  0  0  0  0  0  0  0  0  0
  -26.2622  -13.9781   20.6060 C   0  0  0  0  0  0  0  0  0  0  0  0
  -26.1995  -33.9813   26.4857 C   0  0  0  0  0  0  0  0  0  0  0  0
  -26.7251  -31.6008   25.1428 C   0  0  0  0  0  0  0  0  0  0  0  0
  -27.0558  -29.8481   20.4033 C   0  0  0  0  0  0  0  0  0  0  0  0
  -23.7983  -12.7681   21.1041 C   0  0  0  0  0  0  0  0  0  0  0  0
  -25.9338  -12.7787   19.9741 C   0  0  0  0  0  0  0  0  0  0  0  0
  -27.9662  -28.8189   20.1671 C   0  0  0  0  0  0  0  0  0  0  0  0
  -22.5450   -9.5177   20.0652 C   0  0  0  0  0  0  0  0  0  0  0  0
  -21.9720   -8.5110   20.8422 C   0  0  0  0  0  0  0  0  0  0  0  0
  -26.1645  -27.2165   20.2403 C   0  0  0  0  0  0  0  0  0  0  0  0
  -23.9380   -8.4754   22.2459 C   0  0  0  0  0  0  0  0  0  0  0  0
  -29.9240  -19.6710   20.9808 C   0  0  0  0  0  0  0  0  0  0  0  0
  -29.7476  -19.7705   18.8620 C   0  0  0  0  0  0  0  0  0  0  0  0
  -25.3587  -14.5725   21.4869 C   0  0  0  0  0  0  0  0  0  0  0  0
  -26.3520  -15.9703   23.3756 C   0  0  0  0  0  0  0  0  0  0  0  0
  -25.1347  -33.1284   26.1550 C   0  0  0  0  0  0  0  0  0  0  0  0
  -25.6921  -29.5675   20.5709 C   0  0  0  0  0  0  0  0  0  0  0  0
  -25.3998  -31.9188   25.4849 C   0  0  0  0  0  0  0  0  0  0  0  0
  -25.2385  -28.2442   20.4759 C   0  0  0  0  0  0  0  0  0  0  0  0
  -24.7018  -12.1737   20.2232 C   0  0  0  0  0  0  0  0  0  0  0  0
  -27.5210  -27.5026   20.0884 C   0  0  0  0  0  0  0  0  0  0  0  0
  -23.8146  -10.0032   20.3785 C   0  0  0  0  0  0  0  0  0  0  0  0
  -22.6685   -7.9899   21.9326 C   0  0  0  0  0  0  0  0  0  0  0  0
  -24.5111   -9.4821   21.4688 C   0  0  0  0  0  0  0  0  0  0  0  0
  -25.6983  -15.8117   22.1390 C   0  0  0  0  0  0  0  0  0  0  0  0
  -29.4129  -20.9190   20.7128 C   0  0  0  0  0  0  0  0  0  0  0  0
  -26.4370  -17.3304   23.5471 C   0  0  0  0  0  0  0  0  0  0  0  0
  -26.8391  -14.9770   24.2876 C   0  0  0  0  0  0  0  0  0  0  0  0
  -23.5969  -29.9497   22.9304 C   0  0  0  0  0  0  0  0  0  0  0  0
  -21.4814  -28.9258   20.6947 C   0  0  0  0  0  0  0  0  0  0  0  0
  -27.5730  -22.3922   21.4550 C   0  0  0  0  0  0  0  0  0  0  0  0
  -20.9283  -27.1863   17.8111 C   0  0  0  0  0  0  0  0  0  0  0  0
  -23.7407  -33.5049   26.5906 C   0  0  0  0  0  0  0  0  0  0  0  0
  -24.7192  -30.6918   20.7984 C   0  0  0  0  0  0  0  0  0  0  0  0
  -23.7820  -27.8923   20.6284 C   0  0  0  0  0  0  0  0  0  0  0  0
  -22.6457  -32.7162   25.8772 C   0  0  0  0  0  0  0  0  0  0  0  0
  -24.2518  -21.1189   21.0212 C   0  0  0  0  0  0  0  0  0  0  0  0
  -22.9850  -31.2292   25.8580 C   0  0  0  0  0  0  0  0  0  0  0  0
  -24.3921  -19.6322   21.3455 C   0  0  0  0  0  0  0  0  0  0  0  0
  -25.4982  -21.6591   20.3272 C   0  0  0  0  0  0  0  0  0  0  0  0
  -26.9077  -19.9373   21.4091 C   0  0  0  0  0  0  0  0  0  0  0  0
  -24.2879  -30.9705   25.0918 C   0  0  1  0  0  0  0  0  0  0  0  0
  -23.4251  -30.2363   21.4655 C   0  0  1  0  0  0  0  0  0  0  0  0
  -25.6823  -19.3588   22.1387 C   0  0  2  0  0  0  0  0  0  0  0  0
  -19.0895  -26.4938   16.2501 C   0  0  0  0  0  0  0  0  0  0  0  0
  -29.8439  -23.3232   21.2845 C   0  0  0  0  0  0  0  0  0  0  0  0
  -29.1817  -21.7867   23.1378 C   0  0  0  0  0  0  0  0  0  0  0  0
  -20.5863  -26.8026   22.6949 C   0  0  0  0  0  0  0  0  0  0  0  0
  -19.4809  -25.5880   20.8052 C   0  0  0  0  0  0  0  0  0  0  0  0
  -18.7266  -27.8849   21.4202 C   0  0  0  0  0  0  0  0  0  0  0  0
  -28.2083  -23.3275   15.7144 C   0  0  0  0  0  0  0  0  0  0  0  0
  -30.5838  -24.0670   15.6234 C   0  0  0  0  0  0  0  0  0  0  0  0
  -22.1519  -28.6372   15.5403 C   0  0  0  0  0  0  0  0  0  0  0  0
  -30.0685  -25.5896   18.3267 C   0  0  0  0  0  0  0  0  0  0  0  0
  -29.0088  -25.0396   17.3607 C   0  0  0  0  0  0  0  0  0  0  0  0
  -29.8460  -22.5860   17.5052 C   0  0  0  0  0  0  0  0  0  0  0  0
  -28.7957  -22.1229   18.5237 C   0  0  0  0  0  0  0  0  0  0  0  0
  -29.5654  -26.8138   19.0874 C   0  0  0  0  0  0  0  0  0  1  0  0
  -20.9524  -27.5802   20.2603 C   0  0  1  0  0  0  0  0  0  0  0  0
  -20.1515  -27.5387   16.5554 C   0  0  2  0  0  0  0  0  0  0  0  0
  -29.0300  -22.0310   21.5995 C   0  0  0  0  0  0  0  0  0  0  0  0
  -19.9643  -26.9700   21.2942 C   0  0  0  0  0  0  0  0  0  0  0  0
  -29.4122  -23.7570   16.5798 C   0  0  0  0  0  0  0  0  0  0  0  0
  -30.1304  -18.9612   19.8245 N   0  0  0  0  0  0  0  0  0  0  0  0
  -25.3896  -16.9778   21.5656 N   0  0  0  0  0  0  0  0  0  0  0  0
  -29.3058  -20.9683   19.3514 N   0  0  0  0  0  0  0  0  0  0  0  0
  -25.8514  -17.8822   22.4459 N   0  0  0  0  0  0  0  0  0  0  0  0
  -22.8706  -29.0259   20.8558 N   0  0  0  0  0  0  0  0  0  0  0  0
  -26.7045  -21.3596   21.1008 N   0  0  0  0  0  0  0  0  0  0  0  0
  -26.9546  -18.0961   24.5310 N   0  0  0  0  0  0  0  0  0  0  0  0
  -26.6698  -13.6256   23.9566 N   0  0  0  0  0  0  0  0  0  0  0  0
  -24.0547  -31.0271   23.6646 N   0  0  0  0  0  0  0  0  0  0  0  0
  -20.3821  -27.7754   18.9318 N   0  0  0  0  0  0  0  0  0  0  0  0
  -21.0709  -27.6299   15.3861 N   0  3  0  0  0  0  0  0  0  0  0  0
  -27.3929  -15.2787   25.3720 O   0  0  0  0  0  0  0  0  0  0  0  0
  -23.3323  -28.8341   23.3629 O   0  0  0  0  0  0  0  0  0  0  0  0
  -20.6918  -29.8558   20.8772 O   0  0  0  0  0  0  0  0  0  0  0  0
  -27.2190  -23.5571   21.6544 O   0  0  0  0  0  0  0  0  0  0  0  0
  -21.9183  -26.4580   17.7996 O   0  0  0  0  0  0  0  0  0  0  0  0
  -24.3818  -11.0033   19.6065 O   0  0  0  0  0  0  0  0  0  0  0  0
  -28.4075  -26.4960   19.8586 O   0  0  0  0  0  0  0  0  0  1  0  0
  -22.1174   -7.0242   22.6796 F   0  0  0  0  0  0  0  0  0  0  0  0
  -25.7306   -9.9453   21.7755 F   0  0  0  0  0  0  0  0  0  0  0  0
  1  2  1  0  0  0  0
  1  5  2  0  0  0  0
  2  6  2  0  0  0  0
  3  8  2  0  0  0  0
  3 17  1  0  0  0  0
  4  9  1  0  0  0  0
  4 17  2  0  0  0  0
  5 19  1  0  0  0  0
  6 21  1  0  0  0  0
  7 10  2  0  0  0  0
  7 20  1  0  0  0  0
  8 23  1  0  0  0  0
  9 23  2  0  0  0  0
 10 24  1  0  0  0  0
 11 12  2  0  0  0  0
 11 25  1  0  0  0  0
 12 26  1  0  0  0  0
 13 22  1  0  0  0  0
 13 24  2  0  0  0  0
 14 26  2  0  0  0  0
 14 27  1  0  0  0  0
 15 29  2  0  0  0  0
 15 67  1  0  0  0  0
 16 67  2  0  0  0  0
 16 69  1  0  0  0  0
 17 28  1  0  0  0  0
 18 28  1  0  0  0  0
 18 30  2  0  0  0  0
 18 31  1  0  0  0  0
 19 21  2  0  0  0  0
 19 36  1  0  0  0  0
 20 22  2  0  0  0  0
 20 37  1  0  0  0  0
 21 45  1  0  0  0  0
 22 38  1  0  0  0  0
 23 83  1  0  0  0  0
 24 84  1  0  0  0  0
 25 27  2  0  0  0  0
 25 83  1  0  0  0  0
 26 85  1  0  0  0  0
 27 86  1  0  0  0  0
 28 68  2  0  0  0  0
 29 64  1  0  0  0  0
 29 69  1  0  0  0  0
 30 70  1  0  0  0  0
 30 73  1  0  0  0  0
 31 74  1  0  0  0  0
 31 78  2  0  0  0  0
 32 46  1  0  0  0  0
 32 75  1  0  0  0  0
 32 79  2  0  0  0  0
 33 62  1  0  0  0  0
 33 71  1  0  0  0  0
 33 80  2  0  0  0  0
 34 64  1  0  0  0  0
 34 72  1  0  0  0  0
 34 81  2  0  0  0  0
 35 63  1  0  0  0  0
 35 76  1  0  0  0  0
 35 82  2  0  0  0  0
 36 39  1  0  0  0  0
 37 46  1  0  0  0  0
 38 71  1  0  0  0  0
 39 41  1  0  0  0  0
 40 42  1  0  0  0  0
 40 43  1  0  0  0  0
 41 45  1  0  0  0  0
 42 47  1  0  0  0  0
 43 72  1  0  0  0  0
 44 47  1  0  0  0  0
 44 72  1  0  0  0  0
 45 75  1  0  0  0  0
 46 71  1  0  0  0  0
 47 70  1  0  0  0  0
 48 63  1  0  0  0  0
 49 64  1  0  0  0  0
 50 64  1  0  0  0  0
 51 65  1  0  0  0  0
 52 65  1  0  0  0  0
 53 65  1  0  0  0  0
 54 66  1  0  0  0  0
 55 66  1  0  0  0  0
 56 77  1  0  0  0  0
 57 58  1  0  0  0  0
 57 61  1  0  0  0  0
 58 66  1  0  0  0  0
 59 60  1  0  0  0  0
 59 66  1  0  0  0  0
 60 69  1  0  0  0  0
 61 84  1  0  0  0  0
 62 65  1  0  0  0  0
 62 76  1  0  0  0  0
 63 77  1  0  0  0  0
 68 70  1  0  0  0  0
M  CHG  1  77   1
M  ISO  4  34 100  61 101  64 100  84 101
M  END
> <Batch ID>
0072

> <Smiles>
CNC(C)C(=O)NC(C(=O)N1Cc2cc([101O:1][101CH2:1]CCC(C)(C)CCn3cncc3[100C:0](C)(C)[100C:0](=O)N3CCCC(n4nc(-c5ccc(Oc6ccc(F)cc6F)cc5)c(C(N)=O)c4N)C3)ccc2CC1C(=O)NC1CCCc2ccccc21)C(C)(C)C

> <Shape>
0.303

> <Color>
0.088

> <Negative vol penalty>
0.000

$$$$

  -OEChem-04052318243D

 88 96  0     1  0  0  0  0  0999 V2000
  -32.0634  -13.5082   21.1389 C   0  0  0  0  0  0  0  0  0  0  0  0
  -31.4101  -14.6812   21.5034 C   0  0  0  0  0  0  0  0  0  0  0  0
  -28.8279  -25.3885   19.1564 C   0  0  0  0  0  0  0  0  0  0  0  0
  -26.7692  -24.1243   19.1309 C   0  0  0  0  0  0  0  0  0  0  0  0
  -31.3967  -12.5473   20.3800 C   0  0  0  0  0  0  0  0  0  0  0  0
  -30.0900  -14.8943   21.1082 C   0  0  0  0  0  0  0  0  0  0  0  0
  -24.0311  -18.0057   23.3276 C   0  0  0  0  0  0  0  0  0  0  0  0
  -29.5417  -24.2208   19.4257 C   0  0  0  0  0  0  0  0  0  0  0  0
  -27.4830  -22.9565   19.4001 C   0  0  0  0  0  0  0  0  0  0  0  0
  -23.0618  -18.9084   22.8924 C   0  0  0  0  0  0  0  0  0  0  0  0
  -29.3828  -20.7493   17.6857 C   0  0  0  0  0  0  0  0  0  0  0  0
  -29.0656  -19.6119   16.9432 C   0  0  0  0  0  0  0  0  0  0  0  0
  -21.9844  -17.1432   21.6503 C   0  0  0  0  0  0  0  0  0  0  0  0
  -28.4844  -18.4457   18.9777 C   0  0  0  0  0  0  0  0  0  0  0  0
  -27.4416  -25.3403   19.0091 C   0  0  0  0  0  0  0  0  0  0  0  0
  -26.3915  -27.0799   17.4668 C   0  0  0  0  0  0  0  0  0  0  0  0
  -30.0646  -12.7445   19.9835 C   0  0  0  0  0  0  0  0  0  0  0  0
  -23.9905  -16.6652   22.9180 C   0  0  0  0  0  0  0  0  0  0  0  0
  -29.4052  -13.9357   20.3421 C   0  0  0  0  0  0  0  0  0  0  0  0
  -22.9530  -16.2250   22.0838 C   0  0  0  0  0  0  0  0  0  0  0  0
  -28.8693  -23.0048   19.5475 C   0  0  0  0  0  0  0  0  0  0  0  0
  -22.0399  -18.4778   22.0513 C   0  0  0  0  0  0  0  0  0  0  0  0
  -29.2509  -20.7349   19.0743 C   0  0  0  0  0  0  0  0  0  0  0  0
  -28.6164  -18.4601   17.5891 C   0  0  0  0  0  0  0  0  0  0  0  0
  -28.8017  -19.5831   19.7203 C   0  0  0  0  0  0  0  0  0  0  0  0
  -26.7037  -26.5463   18.7315 C   0  0  0  0  0  0  0  0  0  0  0  0
  -25.6842  -28.2246   17.7420 C   0  0  0  0  0  0  0  0  0  0  0  0
  -19.2881  -25.3456   22.3986 C   0  0  0  0  0  0  0  0  0  0  0  0
  -19.7905  -27.3604   22.6120 C   0  0  0  0  0  0  0  0  0  0  0  0
  -26.7122  -26.5849   16.1599 C   0  0  0  0  0  0  0  0  0  0  0  0
  -25.9222  -14.7696   21.2510 C   0  0  0  0  0  0  0  0  0  0  0  0
  -23.7749  -12.4897   22.0956 C   0  0  0  0  0  0  0  0  0  0  0  0
  -20.5945  -11.7230   23.0674 C   0  0  0  0  0  0  0  0  0  0  0  0
  -22.3925  -29.9543   22.4350 C   0  0  0  0  0  0  0  0  0  0  0  0
  -29.4006  -11.6982   19.1237 C   0  0  0  0  0  0  0  0  0  0  0  0
  -25.0284  -15.6981   23.4178 C   0  0  0  0  0  0  0  0  0  0  0  0
  -22.8528  -14.7918   21.6316 C   0  0  0  0  0  0  0  0  0  0  0  0
  -27.8813  -11.8342   19.0631 C   0  0  0  0  0  0  0  0  0  0  0  0
  -25.2211  -31.6310   21.0696 C   0  0  0  0  0  0  0  0  0  0  0  0
  -27.4848  -13.2859   18.8140 C   0  0  0  0  0  0  0  0  0  0  0  0
  -25.8937  -30.5661   20.2015 C   0  0  0  0  0  0  0  0  0  0  0  0
  -24.6225  -31.0288   22.3389 C   0  0  0  0  0  0  0  0  0  0  0  0
  -24.3741  -28.8341   21.2454 C   0  0  0  0  0  0  0  0  0  0  0  0
  -27.9654  -14.1924   19.9536 C   0  0  1  0  0  0  0  0  0  0  0  0
  -25.1817  -14.4713   22.5239 C   0  0  1  0  0  0  0  0  0  0  0  0
  -24.9439  -29.3846   19.9269 C   0  0  2  0  0  0  0  0  0  0  0  0
  -17.8821  -29.6601   21.8043 C   0  0  0  0  0  0  0  0  0  0  0  0
  -21.2550  -22.0628   19.2876 C   0  0  0  0  0  0  0  0  0  0  0  0
  -20.6287  -27.7085   25.7442 C   0  0  0  0  0  0  0  0  0  0  0  0
  -19.1280   -9.7704   23.6455 C   0  0  0  0  0  0  0  0  0  0  0  0
  -23.5335  -11.7971   19.1339 C   0  0  0  0  0  0  0  0  0  0  0  0
  -21.4259  -10.5556   19.6674 C   0  0  0  0  0  0  0  0  0  0  0  0
  -23.5907   -9.8213   20.6659 C   0  0  0  0  0  0  0  0  0  0  0  0
  -18.7090  -20.9817   22.0588 C   0  0  0  0  0  0  0  0  0  0  0  0
  -20.1379  -12.7302   25.8126 C   0  0  0  0  0  0  0  0  0  0  0  0
  -19.0676  -23.9981   21.7549 C   0  0  0  0  0  0  0  0  0  0  0  0
  -19.3476  -29.5357   21.4060 C   0  0  0  0  0  0  0  0  0  0  0  0
  -20.0177  -21.5166   19.9903 C   0  0  0  0  0  0  0  0  0  0  0  0
  -20.2073  -23.0258   22.0904 C   0  0  0  0  0  0  0  0  0  0  0  0
  -19.2767  -27.5267   25.0761 C   0  0  0  0  0  0  0  0  0  0  0  0
  -21.2072  -20.7054   22.0774 C   0  0  0  0  0  0  0  0  0  1  0  0
  -20.2170  -28.7600   22.4343 C   0  0  2  0  0  0  0  0  0  0  0  0
  -22.5007  -11.9463   21.4954 C   0  0  1  0  0  0  0  0  0  0  0  0
  -20.0677  -10.8385   24.1830 C   0  0  2  0  0  0  0  0  0  0  0  0
  -22.7654  -11.0576   20.2475 C   0  0  0  0  0  0  0  0  0  0  0  0
  -20.0397  -21.5769   21.5437 C   0  0  1  0  0  0  0  0  0  0  0  0
  -26.2334  -27.2910   19.7357 N   0  0  0  0  0  0  0  0  0  0  0  0
  -19.7419  -26.4235   21.6937 N   0  0  0  0  0  0  0  0  0  0  0  0
  -19.0527  -25.5568   23.6953 N   0  0  0  0  0  0  0  0  0  0  0  0
  -25.6185  -28.3042   19.1020 N   0  0  0  0  0  0  0  0  0  0  0  0
  -19.3819  -26.8528   23.8058 N   0  0  0  0  0  0  0  0  0  0  0  0
  -23.8949  -13.8858   22.1422 N   0  0  0  0  0  0  0  0  0  0  0  0
  -23.7304  -29.9147   22.0089 N   0  0  0  0  0  0  0  0  0  0  0  0
  -25.1182  -29.1608   16.9511 N   0  0  0  0  0  0  0  0  0  0  0  0
  -27.4452  -25.3947   16.0575 N   0  0  0  0  0  0  0  0  0  0  0  0
  -27.0986  -14.0595   21.1049 N   0  0  0  0  0  0  0  0  0  0  0  0
  -21.7987  -11.2638   22.5770 N   0  0  0  0  0  0  0  0  0  0  0  0
  -21.6138  -28.8614   22.0746 N   0  0  0  0  0  0  0  0  0  0  0  0
  -19.3267  -11.6552   25.1854 N   0  3  0  0  0  0  0  0  0  0  0  0
  -26.3733  -27.1891   15.1141 O   0  0  0  0  0  0  0  0  0  0  0  0
  -25.4597  -15.5826   20.4593 O   0  0  0  0  0  0  0  0  0  0  0  0
  -24.6290  -11.7043   22.5144 O   0  0  0  0  0  0  0  0  0  0  0  0
  -19.9957  -12.7193   22.6682 O   0  0  0  0  0  0  0  0  0  0  0  0
  -21.9252  -30.8964   23.0838 O   0  0  0  0  0  0  0  0  0  0  0  0
  -29.5655  -21.8651   19.8100 O   0  0  0  0  0  0  0  0  0  0  0  0
  -21.0929  -19.3570   21.6245 O   0  0  0  0  0  0  0  0  0  1  0  0
  -28.3103  -17.3685   16.8758 F   0  0  0  0  0  0  0  0  0  0  0  0
  -28.6718  -19.5636   21.0539 F   0  0  0  0  0  0  0  0  0  0  0  0
  1  2  1  0  0  0  0
  1  5  2  0  0  0  0
  2  6  2  0  0  0  0
  3  8  2  0  0  0  0
  3 15  1  0  0  0  0
  4  9  1  0  0  0  0
  4 15  2  0  0  0  0
  5 17  1  0  0  0  0
  6 19  1  0  0  0  0
  7 10  2  0  0  0  0
  7 18  1  0  0  0  0
  8 21  1  0  0  0  0
  9 21  2  0  0  0  0
 10 22  1  0  0  0  0
 11 12  2  0  0  0  0
 11 23  1  0  0  0  0
 12 24  1  0  0  0  0
 13 20  1  0  0  0  0
 13 22  2  0  0  0  0
 14 24  2  0  0  0  0
 14 25  1  0  0  0  0
 15 26  1  0  0  0  0
 16 26  1  0  0  0  0
 16 27  2  0  0  0  0
 16 30  1  0  0  0  0
 17 19  2  0  0  0  0
 17 35  1  0  0  0  0
 18 20  2  0  0  0  0
 18 36  1  0  0  0  0
 19 44  1  0  0  0  0
 20 37  1  0  0  0  0
 21 85  1  0  0  0  0
 22 86  1  0  0  0  0
 23 25  2  0  0  0  0
 23 85  1  0  0  0  0
 24 87  1  0  0  0  0
 25 88  1  0  0  0  0
 26 67  2  0  0  0  0
 27 70  1  0  0  0  0
 27 74  1  0  0  0  0
 28 56  1  0  0  0  0
 28 68  1  0  0  0  0
 28 69  2  0  0  0  0
 29 62  1  0  0  0  0
 29 68  2  0  0  0  0
 29 71  1  0  0  0  0
 30 75  1  0  0  0  0
 30 80  2  0  0  0  0
 31 45  1  0  0  0  0
 31 76  1  0  0  0  0
 31 81  2  0  0  0  0
 32 63  1  0  0  0  0
 32 72  1  0  0  0  0
 32 82  2  0  0  0  0
 33 64  1  0  0  0  0
 33 77  1  0  0  0  0
 33 83  2  0  0  0  0
 34 73  1  0  0  0  0
 34 78  1  0  0  0  0
 34 84  2  0  0  0  0
 35 38  1  0  0  0  0
 36 45  1  0  0  0  0
 37 72  1  0  0  0  0
 38 40  1  0  0  0  0
 39 41  1  0  0  0  0
 39 42  1  0  0  0  0
 40 44  1  0  0  0  0
 41 46  1  0  0  0  0
 42 73  1  0  0  0  0
 43 46  1  0  0  0  0
 43 73  1  0  0  0  0
 44 76  1  0  0  0  0
 45 72  1  0  0  0  0
 46 70  1  0  0  0  0
 47 57  1  0  0  0  0
 48 58  1  0  0  0  0
 49 60  1  0  0  0  0
 50 64  1  0  0  0  0
 51 65  1  0  0  0  0
 52 65  1  0  0  0  0
 53 65  1  0  0  0  0
 54 66  1  0  0  0  0
 55 79  1  0  0  0  0
 56 59  1  0  0  0  0
 57 62  1  0  0  0  0
 58 66  1  0  0  0  0
 59 66  1  0  0  0  0
 60 71  1  0  0  0  0
 61 66  1  0  0  0  0
 61 86  1  0  0  0  0
 62 78  1  0  0  0  0
 63 65  1  0  0  0  0
 63 77  1  0  0  0  0
 64 79  1  0  0  0  0
 67 70  1  0  0  0  0
 69 71  1  0  0  0  0
M  CHG  1  79   1
M  ISO  4  34 100  61 101  78 100  86 101
M  END
> <Batch ID>
0072

> <Smiles>
CCC([100NH:0][100C:0](=O)N1CCCC(n2nc(-c3ccc(Oc4ccc(F)cc4F)cc3)c(C(N)=O)c2N)C1)c1nc(CCC(C)(CC)[101CH2:1][101O:1]c2ccc3c(c2)CN(C(=O)C(NC(=O)C(C)NC)C(C)(C)C)C(C(=O)NC2CCCc4ccccc42)C3)nn1CC

> <Shape>
0.268

> <Color>
0.069

> <Negative vol penalty>
0.000

$$$$

  -OEChem-04052318243D

 85 93  0     1  0  0  0  0  0999 V2000
  -16.9488  -28.8853   24.4414 C   0  0  0  0  0  0  0  0  0  0  0  0
  -17.6131  -27.8953   23.7244 C   0  0  0  0  0  0  0  0  0  0  0  0
  -26.2524  -10.9035   20.7214 C   0  0  0  0  0  0  0  0  0  0  0  0
  -25.6107  -12.5634   19.0874 C   0  0  0  0  0  0  0  0  0  0  0  0
  -17.3002  -30.2235   24.2695 C   0  0  0  0  0  0  0  0  0  0  0  0
  -18.6285  -28.2431   22.8342 C   0  0  0  0  0  0  0  0  0  0  0  0
  -22.6934  -25.2531   23.2593 C   0  0  0  0  0  0  0  0  0  0  0  0
  -24.9276  -10.4754   20.8069 C   0  0  0  0  0  0  0  0  0  0  0  0
  -24.2859  -12.1353   19.1728 C   0  0  0  0  0  0  0  0  0  0  0  0
  -22.6199  -23.9911   22.6711 C   0  0  0  0  0  0  0  0  0  0  0  0
  -21.6676  -12.5398   21.2732 C   0  0  0  0  0  0  0  0  0  0  0  0
  -20.6757  -13.5162   21.3651 C   0  0  0  0  0  0  0  0  0  0  0  0
  -23.8761  -24.8061   20.7798 C   0  0  0  0  0  0  0  0  0  0  0  0
  -19.6817  -12.6987   19.3203 C   0  0  0  0  0  0  0  0  0  0  0  0
  -27.8386  -18.9380   21.7615 C   0  0  0  0  0  0  0  0  0  0  0  0
  -26.5939  -11.9475   19.8617 C   0  0  0  0  0  0  0  0  0  0  0  0
  -28.9556  -11.9128   18.8978 C   0  0  0  0  0  0  0  0  0  0  0  0
  -18.3269  -30.5871   23.3839 C   0  0  0  0  0  0  0  0  0  0  0  0
  -23.3505  -26.3056   22.6061 C   0  0  0  0  0  0  0  0  0  0  0  0
  -18.9930  -29.5876   22.6493 C   0  0  0  0  0  0  0  0  0  0  0  0
  -23.9588  -26.0798   21.3630 C   0  0  0  0  0  0  0  0  0  0  0  0
  -23.9444  -11.0913   20.0326 C   0  0  0  0  0  0  0  0  0  0  0  0
  -23.2088  -23.7683   21.4299 C   0  0  0  0  0  0  0  0  0  0  0  0
  -21.6666  -11.6429   20.2049 C   0  0  0  0  0  0  0  0  0  0  0  0
  -19.6827  -13.5956   20.3886 C   0  0  0  0  0  0  0  0  0  0  0  0
  -20.6736  -11.7224   19.2285 C   0  0  0  0  0  0  0  0  0  0  0  0
  -27.9622  -12.3905   19.7734 C   0  0  0  0  0  0  0  0  0  0  0  0
  -28.4985  -18.3343   20.7139 C   0  0  0  0  0  0  0  0  0  0  0  0
  -26.5400  -17.3661   20.0380 C   0  0  0  0  0  0  0  0  0  0  0  0
  -25.8803  -17.9693   21.0861 C   0  0  0  0  0  0  0  0  0  0  0  0
  -30.0712  -12.6513   19.2085 C   0  0  0  0  0  0  0  0  0  0  0  0
  -28.8769  -10.8929   17.8932 C   0  0  0  0  0  0  0  0  0  0  0  0
  -22.4708  -29.1457   21.4819 C   0  0  0  0  0  0  0  0  0  0  0  0
  -25.6518  -29.4837   20.9442 C   0  0  0  0  0  0  0  0  0  0  0  0
  -30.7241  -18.0681   21.7273 C   0  0  0  0  0  0  0  0  0  0  0  0
  -28.6763  -27.9919   20.4212 C   0  0  0  0  0  0  0  0  0  0  0  0
  -18.6394  -32.0507   23.1963 C   0  0  0  0  0  0  0  0  0  0  0  0
  -23.4441  -27.6540   23.2661 C   0  0  0  0  0  0  0  0  0  0  0  0
  -24.6936  -27.1710   20.6298 C   0  0  0  0  0  0  0  0  0  0  0  0
  -19.9804  -32.3044   22.5126 C   0  0  0  0  0  0  0  0  0  0  0  0
  -32.1461  -14.9704   22.8327 C   0  0  0  0  0  0  0  0  0  0  0  0
  -20.1362  -31.4031   21.2919 C   0  0  0  0  0  0  0  0  0  0  0  0
  -31.3063  -13.9138   22.1161 C   0  0  0  0  0  0  0  0  0  0  0  0
  -31.3061  -16.1838   23.2189 C   0  0  0  0  0  0  0  0  0  0  0  0
  -29.7371  -15.7532   21.3549 C   0  0  0  0  0  0  0  0  0  0  0  0
  -20.1166  -29.9231   21.6927 C   0  0  1  0  0  0  0  0  0  0  0  0
  -23.6947  -28.7876   22.2764 C   0  0  1  0  0  0  0  0  0  0  0  0
  -30.5540  -14.5236   20.9200 C   0  0  2  0  0  0  0  0  0  0  0  0
  -25.8228  -16.4876   19.0708 C   0  0  0  0  0  0  0  0  0  0  0  0
  -31.0868  -28.5287   19.9757 C   0  0  0  0  0  0  0  0  0  0  0  0
  -30.6221  -17.7416   19.3549 C   0  0  0  0  0  0  0  0  0  0  0  0
  -24.9634  -30.1613   18.0499 C   0  0  0  0  0  0  0  0  0  0  0  0
  -27.3609  -29.7513   17.4568 C   0  0  0  0  0  0  0  0  0  0  0  0
  -26.7668  -31.5750   19.0517 C   0  0  0  0  0  0  0  0  0  0  0  0
  -29.5546  -26.6555   22.9116 C   0  0  0  0  0  0  0  0  0  0  0  0
  -24.4017  -17.7690   21.3041 C   0  0  0  0  0  0  0  0  0  0  0  0
  -23.6998  -18.9766   21.9353 C   0  0  0  0  0  0  0  0  0  0  0  0
  -23.7466  -20.2249   21.0530 C   0  0  0  0  0  0  0  0  0  0  0  0
  -30.3368  -20.0536   20.3478 C   0  0  0  0  0  0  0  0  0  0  0  0
  -23.0752  -21.4127   21.7290 C   0  0  0  0  0  0  0  0  0  1  0  0
  -26.5819  -29.1666   19.7982 C   0  0  1  0  0  0  0  0  0  0  0  0
  -30.0407  -28.2367   21.0401 C   0  0  2  0  0  0  0  0  0  0  0  0
  -29.9590  -18.5459   20.5188 C   0  0  1  0  0  0  0  0  0  0  0  0
  -26.4028  -30.1433   18.6018 C   0  0  0  0  0  0  0  0  0  0  0  0
  -26.5176  -18.7663   21.9665 N   0  0  0  0  0  0  0  0  0  0  0  0
  -28.4075  -13.3575   20.5801 N   0  0  0  0  0  0  0  0  0  0  0  0
  -27.8610  -17.5375   19.8333 N   0  0  0  0  0  0  0  0  0  0  0  0
  -29.6930  -13.4933   20.2126 N   0  0  0  0  0  0  0  0  0  0  0  0
  -24.7522  -28.4736   21.3134 N   0  0  0  0  0  0  0  0  0  0  0  0
  -30.5900  -16.7200   22.0601 N   0  0  0  0  0  0  0  0  0  0  0  0
  -31.3289  -12.6559   18.7182 N   0  0  0  0  0  0  0  0  0  0  0  0
  -27.6545  -10.2336   17.7047 N   0  0  0  0  0  0  0  0  0  0  0  0
  -21.3927  -29.5345   22.2540 N   0  0  0  0  0  0  0  0  0  0  0  0
  -27.9288  -29.1488   20.3586 N   0  0  0  0  0  0  0  0  0  0  0  0
  -29.6658  -20.6431   19.1611 N   0  3  0  0  0  0  0  0  0  0  0  0
  -30.4797  -27.0421   21.8154 N   0  3  0  0  0  0  0  0  0  0  0  0
  -29.8658  -10.5641   17.1950 O   0  0  0  0  0  0  0  0  0  0  0  0
  -22.5025  -29.0759   20.2589 O   0  0  0  0  0  0  0  0  0  0  0  0
  -25.7256  -30.5844   21.4962 O   0  0  0  0  0  0  0  0  0  0  0  0
  -31.4220  -18.8698   22.3537 O   0  0  0  0  0  0  0  0  0  0  0  0
  -28.3116  -26.8857   20.0289 O   0  0  0  0  0  0  0  0  0  0  0  0
  -22.6516  -10.6737   20.1156 O   0  0  0  0  0  0  0  0  0  0  0  0
  -23.1380  -22.5377   20.8533 O   0  0  0  0  0  0  0  0  0  1  0  0
  -18.7294  -14.5323   20.4778 F   0  0  0  0  0  0  0  0  0  0  0  0
  -20.6668  -10.8627   18.2005 F   0  0  0  0  0  0  0  0  0  0  0  0
  1  2  1  0  0  0  0
  1  5  2  0  0  0  0
  2  6  2  0  0  0  0
  3  8  2  0  0  0  0
  3 16  1  0  0  0  0
  4  9  1  0  0  0  0
  4 16  2  0  0  0  0
  5 18  1  0  0  0  0
  6 20  1  0  0  0  0
  7 10  2  0  0  0  0
  7 19  1  0  0  0  0
  8 22  1  0  0  0  0
  9 22  2  0  0  0  0
 10 23  1  0  0  0  0
 11 12  2  0  0  0  0
 11 24  1  0  0  0  0
 12 25  1  0  0  0  0
 13 21  1  0  0  0  0
 13 23  2  0  0  0  0
 14 25  2  0  0  0  0
 14 26  1  0  0  0  0
 15 28  1  0  0  0  0
 15 65  2  0  0  0  0
 16 27  1  0  0  0  0
 17 27  1  0  0  0  0
 17 31  2  0  0  0  0
 17 32  1  0  0  0  0
 18 20  2  0  0  0  0
 18 37  1  0  0  0  0
 19 21  2  0  0  0  0
 19 38  1  0  0  0  0
 20 46  1  0  0  0  0
 21 39  1  0  0  0  0
 22 82  1  0  0  0  0
 23 83  1  0  0  0  0
 24 26  2  0  0  0  0
 24 82  1  0  0  0  0
 25 84  1  0  0  0  0
 26 85  1  0  0  0  0
 27 66  2  0  0  0  0
 28 63  1  0  0  0  0
 28 67  2  0  0  0  0
 29 30  2  0  0  0  0
 29 49  1  0  0  0  0
 29 67  1  0  0  0  0
 30 56  1  0  0  0  0
 30 65  1  0  0  0  0
 31 68  1  0  0  0  0
 31 71  1  0  0  0  0
 32 72  1  0  0  0  0
 32 77  2  0  0  0  0
 33 47  1  0  0  0  0
 33 73  1  0  0  0  0
 33 78  2  0  0  0  0
 34 61  1  0  0  0  0
 34 69  1  0  0  0  0
 34 79  2  0  0  0  0
 35 63  1  0  0  0  0
 35 70  1  0  0  0  0
 35 80  2  0  0  0  0
 36 62  1  0  0  0  0
 36 74  1  0  0  0  0
 36 81  2  0  0  0  0
 37 40  1  0  0  0  0
 38 47  1  0  0  0  0
 39 69  1  0  0  0  0
 40 42  1  0  0  0  0
 41 43  1  0  0  0  0
 41 44  1  0  0  0  0
 42 46  1  0  0  0  0
 43 48  1  0  0  0  0
 44 70  1  0  0  0  0
 45 48  1  0  0  0  0
 45 70  1  0  0  0  0
 46 73  1  0  0  0  0
 47 69  1  0  0  0  0
 48 68  1  0  0  0  0
 50 62  1  0  0  0  0
 51 63  1  0  0  0  0
 52 64  1  0  0  0  0
 53 64  1  0  0  0  0
 54 64  1  0  0  0  0
 55 76  1  0  0  0  0
 56 57  1  0  0  0  0
 57 58  1  0  0  0  0
 58 60  1  0  0  0  0
 59 63  1  0  0  0  0
 59 75  1  0  0  0  0
 60 83  1  0  0  0  0
 61 64  1  0  0  0  0
 61 74  1  0  0  0  0
 62 76  1  0  0  0  0
 66 68  1  0  0  0  0
M  CHG  2  75   1  76   1
M  ISO  4  35 100  60 101  63 100  83 101
M  END
> <Batch ID>
0072

> <Smiles>
CNC(C)C(=O)NC(C(=O)N1Cc2cc([101O:1][101CH2:1]CCCc3ncc([100C:0](C)(CN)[100C:0](=O)N4CCCC(n5nc(-c6ccc(Oc7ccc(F)cc7F)cc6)c(C(N)=O)c5N)C4)nc3C)ccc2CC1C(=O)NC1CCCc2ccccc21)C(C)(C)C

> <Shape>
0.267

> <Color>
0.075

> <Negative vol penalty>
0.000

$$$$

  -OEChem-04052318243D

 85 93  0     1  0  0  0  0  0999 V2000
  -20.6066  -18.5644   16.6894 C   0  0  0  0  0  0  0  0  0  0  0  0
  -21.7363  -19.0387   17.3484 C   0  0  0  0  0  0  0  0  0  0  0  0
  -24.4800  -31.6880   24.4689 C   0  0  0  0  0  0  0  0  0  0  0  0
  -25.8668  -29.7098   24.4920 C   0  0  0  0  0  0  0  0  0  0  0  0
  -20.2219  -17.2326   16.8382 C   0  0  0  0  0  0  0  0  0  0  0  0
  -22.4814  -18.1816   18.1574 C   0  0  0  0  0  0  0  0  0  0  0  0
  -27.4677  -18.6441   17.4034 C   0  0  0  0  0  0  0  0  0  0  0  0
  -25.2804  -32.2607   25.4574 C   0  0  0  0  0  0  0  0  0  0  0  0
  -26.6672  -30.2825   25.4804 C   0  0  0  0  0  0  0  0  0  0  0  0
  -28.1017  -19.7380   17.9909 C   0  0  0  0  0  0  0  0  0  0  0  0
  -28.2767  -33.8162   25.6449 C   0  0  0  0  0  0  0  0  0  0  0  0
  -28.6592  -35.1472   25.4788 C   0  0  0  0  0  0  0  0  0  0  0  0
  -28.8781  -18.3192   19.7807 C   0  0  0  0  0  0  0  0  0  0  0  0
  -27.5562  -35.7228   27.5498 C   0  0  0  0  0  0  0  0  0  0  0  0
  -26.0460  -22.9188   22.0988 C   0  0  0  0  0  0  0  0  0  0  0  0
  -24.7731  -30.4125   23.9863 C   0  0  0  0  0  0  0  0  0  0  0  0
  -24.1136  -29.9210   21.5715 C   0  0  0  0  0  0  0  0  0  0  0  0
  -20.9682  -16.3563   17.6417 C   0  0  0  0  0  0  0  0  0  0  0  0
  -27.5251  -17.3796   18.0069 C   0  0  0  0  0  0  0  0  0  0  0  0
  -22.1056  -16.8371   18.3181 C   0  0  0  0  0  0  0  0  0  0  0  0
  -28.2461  -17.2103   19.1975 C   0  0  0  0  0  0  0  0  0  0  0  0
  -26.3740  -31.5579   25.9631 C   0  0  0  0  0  0  0  0  0  0  0  0
  -28.8046  -19.5763   19.1812 C   0  0  0  0  0  0  0  0  0  0  0  0
  -27.5338  -33.4385   26.7635 C   0  0  0  0  0  0  0  0  0  0  0  0
  -28.2990  -36.1005   26.4312 C   0  0  0  0  0  0  0  0  0  0  0  0
  -27.1736  -34.3918   27.7159 C   0  0  0  0  0  0  0  0  0  0  0  0
  -23.9463  -29.8202   22.9656 C   0  0  0  0  0  0  0  0  0  0  0  0
  -24.9041  -22.1688   21.9695 C   0  0  0  0  0  0  0  0  0  0  0  0
  -23.0774  -29.1875   21.0474 C   0  0  0  0  0  0  0  0  0  0  0  0
  -25.1161  -30.6156   20.8176 C   0  0  0  0  0  0  0  0  0  0  0  0
  -25.3770  -15.3673   19.2072 C   0  0  0  0  0  0  0  0  0  0  0  0
  -27.9469  -13.4089   19.4948 C   0  0  0  0  0  0  0  0  0  0  0  0
  -31.3338  -13.0954   19.7731 C   0  0  0  0  0  0  0  0  0  0  0  0
  -19.8002  -24.6552   23.1849 C   0  0  0  0  0  0  0  0  0  0  0  0
  -20.4863  -14.9370   17.8096 C   0  0  0  0  0  0  0  0  0  0  0  0
  -26.8582  -16.2041   17.3466 C   0  0  0  0  0  0  0  0  0  0  0  0
  -28.3550  -15.8695   19.8749 C   0  0  0  0  0  0  0  0  0  0  0  0
  -21.5434  -13.9991   18.3869 C   0  0  0  0  0  0  0  0  0  0  0  0
  -18.6034  -27.8003   22.0218 C   0  0  0  0  0  0  0  0  0  0  0  0
  -22.2288  -14.6423   19.5883 C   0  0  0  0  0  0  0  0  0  0  0  0
  -19.8521  -28.6837   22.0060 C   0  0  0  0  0  0  0  0  0  0  0  0
  -18.6136  -26.8297   23.2007 C   0  0  0  0  0  0  0  0  0  0  0  0
  -21.0759  -26.8818   23.2922 C   0  0  0  0  0  0  0  0  0  0  0  0
  -22.9539  -15.9318   19.1847 C   0  0  1  0  0  0  0  0  0  0  0  0
  -26.5506  -15.0685   18.3177 C   0  0  1  0  0  0  0  0  0  0  0  0
  -21.1377  -27.8389   22.0895 C   0  0  2  0  0  0  0  0  0  0  0  0
  -22.7978  -22.4494   20.6118 C   0  0  0  0  0  0  0  0  0  0  0  0
  -33.1379  -11.3701   20.0300 C   0  0  0  0  0  0  0  0  0  0  0  0
  -27.2082  -13.0780   22.4367 C   0  0  0  0  0  0  0  0  0  0  0  0
  -29.5037  -12.1628   22.8382 C   0  0  0  0  0  0  0  0  0  0  0  0
  -27.9397  -10.9730   21.3016 C   0  0  0  0  0  0  0  0  0  0  0  0
  -22.5043  -20.4870   23.1445 C   0  0  0  0  0  0  0  0  0  0  0  0
  -23.2208  -22.4193   24.5490 C   0  0  0  0  0  0  0  0  0  0  0  0
  -32.6045  -13.8753   17.2166 C   0  0  0  0  0  0  0  0  0  0  0  0
  -29.1209  -22.8012   20.7593 C   0  0  0  0  0  0  0  0  0  0  0  0
  -28.5314  -22.2441   22.0569 C   0  0  0  0  0  0  0  0  0  0  0  0
  -21.1296  -22.5597   23.1621 C   0  0  0  0  0  0  0  0  0  0  0  0
  -28.8391  -21.9265   19.5433 C   0  0  0  0  0  0  0  0  0  1  0  0
  -23.5025  -22.6062   21.9975 C   0  0  1  0  0  0  0  0  0  0  0  0
  -28.9828  -13.1544   20.5630 C   0  0  1  0  0  0  0  0  0  0  0  0
  -32.3255  -12.2021   19.0499 C   0  0  2  0  0  0  0  0  0  0  0  0
  -28.4051  -12.3678   21.7734 C   0  0  0  0  0  0  0  0  0  0  0  0
  -22.5921  -22.0286   23.1894 C   0  0  0  0  0  0  0  0  0  0  0  0
  -22.8871  -29.0810   23.3057 N   0  0  0  0  0  0  0  0  0  0  0  0
  -25.2355  -20.8542   21.7924 N   0  0  0  0  0  0  0  0  0  0  0  0
  -26.5607  -20.7615   21.8086 N   0  0  0  0  0  0  0  0  0  0  0  0
  -27.0448  -22.0005   21.9926 N   0  0  0  0  0  0  0  0  0  0  0  0
  -22.3795  -28.7107   22.1178 N   0  0  0  0  0  0  0  0  0  0  0  0
  -27.6806  -14.7521   19.1936 N   0  0  0  0  0  0  0  0  0  0  0  0
  -19.8587  -26.0581   23.2215 N   0  0  0  0  0  0  0  0  0  0  0  0
  -22.7043  -28.9103   19.7800 N   0  0  0  0  0  0  0  0  0  0  0  0
  -26.1077  -31.3198   21.5142 N   0  0  0  0  0  0  0  0  0  0  0  0
  -24.2037  -15.6232   18.5236 N   0  0  0  0  0  0  0  0  0  0  0  0
  -30.1002  -12.4923   19.8985 N   0  0  0  0  0  0  0  0  0  0  0  0
  -21.0261  -24.0014   23.2016 N   0  0  0  0  0  0  0  0  0  0  0  0
  -33.2669  -13.0241   18.2382 N   0  3  0  0  0  0  0  0  0  0  0  0
  -25.1225  -30.6255   19.5633 O   0  0  0  0  0  0  0  0  0  0  0  0
  -25.5248  -15.3644   20.4237 O   0  0  0  0  0  0  0  0  0  0  0  0
  -27.3995  -12.4512   18.9427 O   0  0  0  0  0  0  0  0  0  0  0  0
  -31.6254  -14.2146   20.1887 O   0  0  0  0  0  0  0  0  0  0  0  0
  -18.7345  -24.0317   23.1353 O   0  0  0  0  0  0  0  0  0  0  0  0
  -27.1554  -32.1165   26.9274 O   0  0  0  0  0  0  0  0  0  0  0  0
  -29.4238  -20.6425   19.7570 O   0  0  0  0  0  0  0  0  0  1  0  0
  -28.6678  -37.3784   26.2723 F   0  0  0  0  0  0  0  0  0  0  0  0
  -26.4610  -34.0347   28.7932 F   0  0  0  0  0  0  0  0  0  0  0  0
  1  2  1  0  0  0  0
  1  5  2  0  0  0  0
  2  6  2  0  0  0  0
  3  8  2  0  0  0  0
  3 16  1  0  0  0  0
  4  9  1  0  0  0  0
  4 16  2  0  0  0  0
  5 18  1  0  0  0  0
  6 20  1  0  0  0  0
  7 10  2  0  0  0  0
  7 19  1  0  0  0  0
  8 22  1  0  0  0  0
  9 22  2  0  0  0  0
 10 23  1  0  0  0  0
 11 12  2  0  0  0  0
 11 24  1  0  0  0  0
 12 25  1  0  0  0  0
 13 21  1  0  0  0  0
 13 23  2  0  0  0  0
 14 25  2  0  0  0  0
 14 26  1  0  0  0  0
 15 28  2  0  0  0  0
 15 67  1  0  0  0  0
 16 27  1  0  0  0  0
 17 27  1  0  0  0  0
 17 29  2  0  0  0  0
 17 30  1  0  0  0  0
 18 20  2  0  0  0  0
 18 35  1  0  0  0  0
 19 21  2  0  0  0  0
 19 36  1  0  0  0  0
 20 44  1  0  0  0  0
 21 37  1  0  0  0  0
 22 82  1  0  0  0  0
 23 83  1  0  0  0  0
 24 26  2  0  0  0  0
 24 82  1  0  0  0  0
 25 84  1  0  0  0  0
 26 85  1  0  0  0  0
 27 64  2  0  0  0  0
 28 59  1  0  0  0  0
 28 65  1  0  0  0  0
 29 68  1  0  0  0  0
 29 71  1  0  0  0  0
 30 72  1  0  0  0  0
 30 77  2  0  0  0  0
 31 45  1  0  0  0  0
 31 73  1  0  0  0  0
 31 78  2  0  0  0  0
 32 60  1  0  0  0  0
 32 69  1  0  0  0  0
 32 79  2  0  0  0  0
 33 61  1  0  0  0  0
 33 74  1  0  0  0  0
 33 80  2  0  0  0  0
 34 70  1  0  0  0  0
 34 75  1  0  0  0  0
 34 81  2  0  0  0  0
 35 38  1  0  0  0  0
 36 45  1  0  0  0  0
 37 69  1  0  0  0  0
 38 40  1  0  0  0  0
 39 41  1  0  0  0  0
 39 42  1  0  0  0  0
 40 44  1  0  0  0  0
 41 46  1  0  0  0  0
 42 70  1  0  0  0  0
 43 46  1  0  0  0  0
 43 70  1  0  0  0  0
 44 73  1  0  0  0  0
 45 69  1  0  0  0  0
 46 68  1  0  0  0  0
 47 59  1  0  0  0  0
 48 61  1  0  0  0  0
 49 62  1  0  0  0  0
 50 62  1  0  0  0  0
 51 62  1  0  0  0  0
 52 63  1  0  0  0  0
 53 63  1  0  0  0  0
 54 76  1  0  0  0  0
 55 56  1  0  0  0  0
 55 58  1  0  0  0  0
 56 67  1  0  0  0  0
 57 63  1  0  0  0  0
 57 75  1  0  0  0  0
 58 83  1  0  0  0  0
 59 63  1  0  0  0  0
 60 62  1  0  0  0  0
 60 74  1  0  0  0  0
 61 76  1  0  0  0  0
 64 68  1  0  0  0  0
 65 66  2  0  0  0  0
 66 67  1  0  0  0  0
M  CHG  1  76   1
M  ISO  4  34 100  58 101  75 100  83 101
M  END
> <Batch ID>
0072

> <Smiles>
CNC(C)C(=O)NC(C(=O)N1Cc2cc([101O:1][101CH2:1]CCn3cc(C(C)C(C)(C)C[100NH:0][100C:0](=O)N4CCCC(n5nc(-c6ccc(Oc7ccc(F)cc7F)cc6)c(C(N)=O)c5N)C4)nn3)ccc2CC1C(=O)NC1CCCc2ccccc21)C(C)(C)C

> <Shape>
0.252

> <Color>
0.075

> <Negative vol penalty>
0.000

$$$$

  -OEChem-04052318243D

 83 91  0     1  0  0  0  0  0999 V2000
  -26.5032  -15.1069   11.6209 C   0  0  0  0  0  0  0  0  0  0  0  0
  -27.3806  -15.1347   12.7001 C   0  0  0  0  0  0  0  0  0  0  0  0
  -20.2671  -22.6780   20.5352 C   0  0  0  0  0  0  0  0  0  0  0  0
  -21.2773  -24.6956   19.6715 C   0  0  0  0  0  0  0  0  0  0  0  0
  -25.1601  -15.4312   11.8074 C   0  0  0  0  0  0  0  0  0  0  0  0
  -26.9157  -15.4880   13.9664 C   0  0  0  0  0  0  0  0  0  0  0  0
  -28.8281  -13.2649   19.3428 C   0  0  0  0  0  0  0  0  0  0  0  0
  -19.2289  -23.4319   21.0821 C   0  0  0  0  0  0  0  0  0  0  0  0
  -20.2390  -25.4495   20.2184 C   0  0  0  0  0  0  0  0  0  0  0  0
  -29.7250  -13.7508   20.2931 C   0  0  0  0  0  0  0  0  0  0  0  0
  -19.3648  -26.6517   23.2551 C   0  0  0  0  0  0  0  0  0  0  0  0
  -19.7025  -27.8197   23.9387 C   0  0  0  0  0  0  0  0  0  0  0  0
  -27.8856  -14.6879   21.5412 C   0  0  0  0  0  0  0  0  0  0  0  0
  -18.3838  -29.1127   22.3811 C   0  0  0  0  0  0  0  0  0  0  0  0
  -31.0870  -19.5119   21.2529 C   0  0  0  0  0  0  0  0  0  0  0  0
  -21.2914  -23.3098   19.8299 C   0  0  0  0  0  0  0  0  0  0  0  0
  -22.4135  -21.9574   17.9807 C   0  0  0  0  0  0  0  0  0  0  0  0
  -24.6764  -15.7792   13.0785 C   0  0  0  0  0  0  0  0  0  0  0  0
  -27.4518  -13.4965   19.4791 C   0  0  0  0  0  0  0  0  0  0  0  0
  -25.5651  -15.8185   14.1698 C   0  0  0  0  0  0  0  0  0  0  0  0
  -26.9731  -14.2016   20.5926 C   0  0  0  0  0  0  0  0  0  0  0  0
  -19.2148  -24.8177   20.9238 C   0  0  0  0  0  0  0  0  0  0  0  0
  -29.2541  -14.4649   21.3910 C   0  0  0  0  0  0  0  0  0  0  0  0
  -18.5367  -26.7142   22.1343 C   0  0  0  0  0  0  0  0  0  0  0  0
  -19.2120  -29.0502   23.5018 C   0  0  0  0  0  0  0  0  0  0  0  0
  -18.0462  -27.9447   21.6974 C   0  0  0  0  0  0  0  0  0  0  0  0
  -22.3645  -22.5316   19.2651 C   0  0  0  0  0  0  0  0  0  0  0  0
  -31.0945  -18.1365   21.1400 C   0  0  0  0  0  0  0  0  0  0  0  0
  -30.3631  -20.1860   20.2908 C   0  0  0  0  0  0  0  0  0  0  0  0
  -23.6330  -21.3273   17.9326 C   0  0  0  0  0  0  0  0  0  0  0  0
  -29.7781  -18.2311   19.2892 C   0  0  0  0  0  0  0  0  0  0  0  0
  -21.4435  -21.9907   16.9253 C   0  0  0  0  0  0  0  0  0  0  0  0
  -25.2538  -15.0243   17.7650 C   0  0  0  0  0  0  0  0  0  0  0  0
  -23.2264  -13.7636   19.9611 C   0  0  0  0  0  0  0  0  0  0  0  0
  -28.9954  -22.1813   19.7580 C   0  0  0  0  0  0  0  0  0  0  0  0
  -22.7743  -12.5063   23.1014 C   0  0  0  0  0  0  0  0  0  0  0  0
  -23.2262  -16.1677   13.2220 C   0  0  0  0  0  0  0  0  0  0  0  0
  -26.4950  -12.9427   18.4592 C   0  0  0  0  0  0  0  0  0  0  0  0
  -25.5032  -14.4598   20.7958 C   0  0  0  0  0  0  0  0  0  0  0  0
  -22.7358  -16.1678   14.6676 C   0  0  0  0  0  0  0  0  0  0  0  0
  -26.8494  -19.6788   21.2940 C   0  0  0  0  0  0  0  0  0  0  0  0
  -23.7351  -16.8842   15.5703 C   0  0  0  0  0  0  0  0  0  0  0  0
  -25.4678  -20.1296   20.8218 C   0  0  0  0  0  0  0  0  0  0  0  0
  -27.7688  -20.8688   21.5564 C   0  0  0  0  0  0  0  0  0  0  0  0
  -26.5271  -22.2438   19.9157 C   0  0  0  0  0  0  0  0  0  0  0  0
  -25.0935  -16.1726   15.5635 C   0  0  1  0  0  0  0  0  0  0  0  0
  -25.1599  -13.6802   18.4300 C   0  0  1  0  0  0  0  0  0  0  0  0
  -25.5788  -21.0721   19.6106 C   0  0  2  0  0  0  0  0  0  0  0  0
  -29.0479  -17.5202   18.2005 C   0  0  0  0  0  0  0  0  0  0  0  0
  -20.9981  -11.5934   24.6210 C   0  0  0  0  0  0  0  0  0  0  0  0
  -31.4444  -22.3071   19.5008 C   0  0  0  0  0  0  0  0  0  0  0  0
  -30.3519  -22.3236   21.7458 C   0  0  0  0  0  0  0  0  0  0  0  0
  -22.1868  -16.5918   20.4408 C   0  0  0  0  0  0  0  0  0  0  0  0
  -21.1469  -15.7741   22.5665 C   0  0  0  0  0  0  0  0  0  0  0  0
  -20.4166  -14.8264   20.3777 C   0  0  0  0  0  0  0  0  0  0  0  0
  -24.1397   -9.8893   23.3162 C   0  0  0  0  0  0  0  0  0  0  0  0
  -31.8580  -17.3125   22.1458 C   0  0  0  0  0  0  0  0  0  0  0  0
  -31.0278  -16.9041   23.3646 C   0  0  0  0  0  0  0  0  0  0  0  0
  -29.7602  -16.1388   23.0029 C   0  0  0  0  0  0  0  0  0  1  0  0
  -22.6884  -14.2091   21.2994 C   0  0  1  0  0  0  0  0  0  0  0  0
  -22.0677  -11.2562   23.5938 C   0  0  2  0  0  0  0  0  0  0  0  0
  -30.2951  -21.6760   20.3318 C   0  0  0  0  0  0  0  0  0  0  0  0
  -21.6376  -15.3473   21.1665 C   0  0  0  0  0  0  0  0  0  0  0  0
  -23.4652  -22.2877   19.9813 N   0  0  0  0  0  0  0  0  0  0  0  0
  -30.4486  -17.4608   20.1671 N   0  0  0  0  0  0  0  0  0  0  0  0
  -29.6942  -19.5752   19.2909 N   0  0  0  0  0  0  0  0  0  0  0  0
  -24.2173  -21.5532   19.1441 N   0  0  0  0  0  0  0  0  0  0  0  0
  -24.6081  -13.9034   19.7679 N   0  0  0  0  0  0  0  0  0  0  0  0
  -27.8259  -21.7566   20.3890 N   0  0  0  0  0  0  0  0  0  0  0  0
  -24.2517  -20.6074   16.9727 N   0  0  0  0  0  0  0  0  0  0  0  0
  -20.2443  -22.6830   17.1418 N   0  0  0  0  0  0  0  0  0  0  0  0
  -25.0495  -14.9915   16.3987 N   0  0  0  0  0  0  0  0  0  0  0  0
  -22.1880  -13.0078   21.9586 N   0  0  0  0  0  0  0  0  0  0  0  0
  -23.0446  -10.3223   24.2219 N   0  3  0  0  0  0  0  0  0  0  0  0
  -21.6277  -21.4097   15.8290 O   0  0  0  0  0  0  0  0  0  0  0  0
  -25.4923  -16.0178   18.4416 O   0  0  0  0  0  0  0  0  0  0  0  0
  -22.4504  -13.3017   19.1208 O   0  0  0  0  0  0  0  0  0  0  0  0
  -29.0207  -22.9287   18.7767 O   0  0  0  0  0  0  0  0  0  0  0  0
  -23.7468  -12.9916   23.6753 O   0  0  0  0  0  0  0  0  0  0  0  0
  -18.2017  -25.5537   21.4571 O   0  0  0  0  0  0  0  0  0  0  0  0
  -30.1275  -14.9409   22.3198 O   0  0  0  0  0  0  0  0  0  1  0  0
  -19.5351  -30.1715   24.1593 F   0  0  0  0  0  0  0  0  0  0  0  0
  -17.2492  -28.0109   20.6221 F   0  0  0  0  0  0  0  0  0  0  0  0
  1  2  1  0  0  0  0
  1  5  2  0  0  0  0
  2  6  2  0  0  0  0
  3  8  2  0  0  0  0
  3 16  1  0  0  0  0
  4  9  1  0  0  0  0
  4 16  2  0  0  0  0
  5 18  1  0  0  0  0
  6 20  1  0  0  0  0
  7 10  2  0  0  0  0
  7 19  1  0  0  0  0
  8 22  1  0  0  0  0
  9 22  2  0  0  0  0
 10 23  1  0  0  0  0
 11 12  2  0  0  0  0
 11 24  1  0  0  0  0
 12 25  1  0  0  0  0
 13 21  1  0  0  0  0
 13 23  2  0  0  0  0
 14 25  2  0  0  0  0
 14 26  1  0  0  0  0
 15 28  1  0  0  0  0
 15 29  2  0  0  0  0
 16 27  1  0  0  0  0
 17 27  1  0  0  0  0
 17 30  2  0  0  0  0
 17 32  1  0  0  0  0
 18 20  2  0  0  0  0
 18 37  1  0  0  0  0
 19 21  2  0  0  0  0
 19 38  1  0  0  0  0
 20 46  1  0  0  0  0
 21 39  1  0  0  0  0
 22 80  1  0  0  0  0
 23 81  1  0  0  0  0
 24 26  2  0  0  0  0
 24 80  1  0  0  0  0
 25 82  1  0  0  0  0
 26 83  1  0  0  0  0
 27 64  2  0  0  0  0
 28 57  1  0  0  0  0
 28 65  2  0  0  0  0
 29 62  1  0  0  0  0
 29 66  1  0  0  0  0
 30 67  1  0  0  0  0
 30 70  1  0  0  0  0
 31 49  1  0  0  0  0
 31 65  1  0  0  0  0
 31 66  2  0  0  0  0
 32 71  1  0  0  0  0
 32 75  2  0  0  0  0
 33 47  1  0  0  0  0
 33 72  1  0  0  0  0
 33 76  2  0  0  0  0
 34 60  1  0  0  0  0
 34 68  1  0  0  0  0
 34 77  2  0  0  0  0
 35 62  1  0  0  0  0
 35 69  1  0  0  0  0
 35 78  2  0  0  0  0
 36 61  1  0  0  0  0
 36 73  1  0  0  0  0
 36 79  2  0  0  0  0
 37 40  1  0  0  0  0
 38 47  1  0  0  0  0
 39 68  1  0  0  0  0
 40 42  1  0  0  0  0
 41 43  1  0  0  0  0
 41 44  1  0  0  0  0
 42 46  1  0  0  0  0
 43 48  1  0  0  0  0
 44 69  1  0  0  0  0
 45 48  1  0  0  0  0
 45 69  1  0  0  0  0
 46 72  1  0  0  0  0
 47 68  1  0  0  0  0
 48 67  1  0  0  0  0
 50 61  1  0  0  0  0
 51 62  1  0  0  0  0
 52 62  1  0  0  0  0
 53 63  1  0  0  0  0
 54 63  1  0  0  0  0
 55 63  1  0  0  0  0
 56 74  1  0  0  0  0
 57 58  1  0  0  0  0
 58 59  1  0  0  0  0
 59 81  1  0  0  0  0
 60 63  1  0  0  0  0
 60 73  1  0  0  0  0
 61 74  1  0  0  0  0
 64 67  1  0  0  0  0
M  CHG  1  74   1
M  ISO  4  35 100  59 101  62 100  81 101
M  END
> <Batch ID>
0072

> <Smiles>
CNC(C)C(=O)NC(C(=O)N1Cc2cc([101O:1][101CH2:1]CCc3cc([100C:0](C)(C)[100C:0](=O)N4CCCC(n5nc(-c6ccc(Oc7ccc(F)cc7F)cc6)c(C(N)=O)c5N)C4)nc(C)n3)ccc2CC1C(=O)NC1CCCc2ccccc21)C(C)(C)C

> <Shape>
0.194

> <Color>
0.077

> <Negative vol penalty>
0.000

$$$$

  -OEChem-04052318243D

 87 95  0     1  0  0  0  0  0999 V2000
  -32.0657  -14.7657   21.5541 C   0  0  0  0  0  0  0  0  0  0  0  0
  -31.1071  -15.7713   21.6277 C   0  0  0  0  0  0  0  0  0  0  0  0
  -22.4139  -28.1868   20.9827 C   0  0  0  0  0  0  0  0  0  0  0  0
  -23.7784  -27.8841   22.9533 C   0  0  0  0  0  0  0  0  0  0  0  0
  -31.7466  -13.5417   20.9677 C   0  0  0  0  0  0  0  0  0  0  0  0
  -29.8292  -15.5538   21.1139 C   0  0  0  0  0  0  0  0  0  0  0  0
  -24.5519  -17.7391   23.3231 C   0  0  0  0  0  0  0  0  0  0  0  0
  -21.2639  -28.0076   21.7514 C   0  0  0  0  0  0  0  0  0  0  0  0
  -22.6284  -27.7049   23.7221 C   0  0  0  0  0  0  0  0  0  0  0  0
  -23.7628  -18.8295   22.9597 C   0  0  0  0  0  0  0  0  0  0  0  0
  -19.3831  -29.8372   23.8840 C   0  0  0  0  0  0  0  0  0  0  0  0
  -18.3251  -30.7238   23.6840 C   0  0  0  0  0  0  0  0  0  0  0  0
  -22.3869  -17.3769   21.6120 C   0  0  0  0  0  0  0  0  0  0  0  0
  -16.8965  -28.8781   23.0598 C   0  0  0  0  0  0  0  0  0  0  0  0
  -23.6712  -28.1250   21.5836 C   0  0  0  0  0  0  0  0  0  0  0  0
  -25.5208  -29.5223   20.5186 C   0  0  0  0  0  0  0  0  0  0  0  0
  -30.4612  -13.3057   20.4552 C   0  0  0  0  0  0  0  0  0  0  0  0
  -24.2705  -16.4591   22.8242 C   0  0  0  0  0  0  0  0  0  0  0  0
  -29.4930  -14.3259   20.5189 C   0  0  0  0  0  0  0  0  0  0  0  0
  -23.1724  -16.2715   21.9726 C   0  0  0  0  0  0  0  0  0  0  0  0
  -21.3711  -27.7667   23.1211 C   0  0  0  0  0  0  0  0  0  0  0  0
  -22.6818  -18.6490   22.1017 C   0  0  0  0  0  0  0  0  0  0  0  0
  -19.1979  -28.4711   23.6718 C   0  0  0  0  0  0  0  0  0  0  0  0
  -17.0817  -30.2443   23.2719 C   0  0  0  0  0  0  0  0  0  0  0  0
  -17.9546  -27.9915   23.2597 C   0  0  0  0  0  0  0  0  0  0  0  0
  -24.8596  -28.3095   20.7900 C   0  0  0  0  0  0  0  0  0  0  0  0
  -27.3575  -22.3693   20.4691 C   0  0  0  0  0  0  0  0  0  0  0  0
  -26.4314  -23.8852   22.4619 C   0  0  0  0  0  0  0  0  0  0  0  0
  -25.6459  -22.9116   21.8853 C   0  0  0  0  0  0  0  0  0  0  0  0
  -28.1429  -23.3433   21.0452 C   0  0  0  0  0  0  0  0  0  0  0  0
  -26.5850  -29.1637   19.7278 C   0  0  0  0  0  0  0  0  0  0  0  0
  -25.2018  -30.8540   20.9436 C   0  0  0  0  0  0  0  0  0  0  0  0
  -25.8315  -14.3642   21.0135 C   0  0  0  0  0  0  0  0  0  0  0  0
  -23.3054  -12.4572   21.7236 C   0  0  0  0  0  0  0  0  0  0  0  0
  -29.5711  -23.9837   19.1259 C   0  0  0  0  0  0  0  0  0  0  0  0
  -20.0365  -12.2128   22.6733 C   0  0  0  0  0  0  0  0  0  0  0  0
  -30.1773  -11.9832   19.7880 C   0  0  0  0  0  0  0  0  0  0  0  0
  -25.1153  -15.2886   23.2470 C   0  0  0  0  0  0  0  0  0  0  0  0
  -22.8159  -14.9143   21.4256 C   0  0  0  0  0  0  0  0  0  0  0  0
  -28.6884  -11.7009   19.6041 C   0  0  0  0  0  0  0  0  0  0  0  0
  -27.9551  -25.8744   16.5464 C   0  0  0  0  0  0  0  0  0  0  0  0
  -27.9787  -12.9266   19.0375 C   0  0  0  0  0  0  0  0  0  0  0  0
  -27.0174  -26.8035   17.3162 C   0  0  0  0  0  0  0  0  0  0  0  0
  -28.0779  -24.5152   17.2280 C   0  0  0  0  0  0  0  0  0  0  0  0
  -27.5650  -25.5179   19.4310 C   0  0  0  0  0  0  0  0  0  0  0  0
  -28.0884  -14.1193   19.9950 C   0  0  1  0  0  0  0  0  0  0  0  0
  -25.0463  -14.1184   22.2707 C   0  0  1  0  0  0  0  0  0  0  0  0
  -27.4368  -26.9125   18.7929 C   0  0  2  0  0  0  0  0  0  0  0  0
  -27.8656  -21.5183   19.3559 C   0  0  0  0  0  0  0  0  0  0  0  0
  -26.8231  -25.9392   23.8454 C   0  0  0  0  0  0  0  0  0  0  0  0
  -18.2398  -10.5222   23.1328 C   0  0  0  0  0  0  0  0  0  0  0  0
  -30.4113  -22.3177   20.7372 C   0  0  0  0  0  0  0  0  0  0  0  0
  -30.2990  -24.7494   21.2924 C   0  0  0  0  0  0  0  0  0  0  0  0
  -22.9497  -12.0236   18.7244 C   0  0  0  0  0  0  0  0  0  0  0  0
  -20.6511  -11.1495   19.1940 C   0  0  0  0  0  0  0  0  0  0  0  0
  -22.6451   -9.9699   20.1187 C   0  0  0  0  0  0  0  0  0  0  0  0
  -22.1924  -20.8981   23.8128 C   0  0  0  0  0  0  0  0  0  0  0  0
  -21.2548  -22.0132   21.7715 C   0  0  0  0  0  0  0  0  0  0  0  0
  -19.7631  -13.0959   25.4847 C   0  0  0  0  0  0  0  0  0  0  0  0
  -25.9230  -24.7358   23.5753 C   0  0  0  0  0  0  0  0  0  0  0  0
  -24.2335  -22.6607   22.3534 C   0  0  0  0  0  0  0  0  0  0  0  0
  -23.6774  -21.3476   21.7844 C   0  0  0  0  0  0  0  0  0  0  0  0
  -21.9554  -12.1952   21.1009 C   0  0  1  0  0  0  0  0  0  0  0  0
  -19.3559  -11.3638   23.7318 C   0  0  2  0  0  0  0  0  0  0  0  0
  -29.5375  -23.5920   20.5817 C   0  0  0  0  0  0  0  0  0  0  0  0
  -22.0579  -11.3606   19.7931 C   0  0  0  0  0  0  0  0  0  0  0  0
  -22.2656  -20.9832   22.2867 C   0  0  0  0  0  0  0  0  0  1  0  0
  -25.4538  -27.2590   20.2178 N   0  0  0  0  0  0  0  0  0  0  0  0
  -26.0949  -22.1359   20.8787 N   0  0  0  0  0  0  0  0  0  0  0  0
  -27.6939  -24.1188   22.0520 N   0  0  0  0  0  0  0  0  0  0  0  0
  -26.4995  -27.8107   19.5789 N   0  0  0  0  0  0  0  0  0  0  0  0
  -23.6758  -13.8023   21.8633 N   0  0  0  0  0  0  0  0  0  0  0  0
  -28.4559  -24.6626   18.6346 N   0  0  0  0  0  0  0  0  0  0  0  0
  -27.5760  -29.8769   19.1520 N   0  0  0  0  0  0  0  0  0  0  0  0
  -24.0736  -31.0447   21.7531 N   0  0  0  0  0  0  0  0  0  0  0  0
  -27.1550  -13.9747   21.0915 N   0  0  0  0  0  0  0  0  0  0  0  0
  -21.1390  -11.5784   22.1409 N   0  0  0  0  0  0  0  0  0  0  0  0
  -18.7724  -12.2305   24.7945 N   0  3  0  0  0  0  0  0  0  0  0  0
  -25.8871  -31.8474   20.6017 O   0  0  0  0  0  0  0  0  0  0  0  0
  -25.2773  -14.8686   20.0439 O   0  0  0  0  0  0  0  0  0  0  0  0
  -24.0024  -11.5039   22.0798 O   0  0  0  0  0  0  0  0  0  0  0  0
  -30.5611  -23.6966   18.4479 O   0  0  0  0  0  0  0  0  0  0  0  0
  -19.6287  -13.3257   22.3484 O   0  0  0  0  0  0  0  0  0  0  0  0
  -20.2492  -27.5920   23.8715 O   0  0  0  0  0  0  0  0  0  0  0  0
  -21.9104  -19.7118   21.7449 O   0  0  0  0  0  0  0  0  0  1  0  0
  -16.0653  -31.0956   23.0814 F   0  0  0  0  0  0  0  0  0  0  0  0
  -17.7703  -26.6800   23.0554 F   0  0  0  0  0  0  0  0  0  0  0  0
  1  2  1  0  0  0  0
  1  5  2  0  0  0  0
  2  6  2  0  0  0  0
  3  8  2  0  0  0  0
  3 15  1  0  0  0  0
  4  9  1  0  0  0  0
  4 15  2  0  0  0  0
  5 17  1  0  0  0  0
  6 19  1  0  0  0  0
  7 10  2  0  0  0  0
  7 18  1  0  0  0  0
  8 21  1  0  0  0  0
  9 21  2  0  0  0  0
 10 22  1  0  0  0  0
 11 12  2  0  0  0  0
 11 23  1  0  0  0  0
 12 24  1  0  0  0  0
 13 20  1  0  0  0  0
 13 22  2  0  0  0  0
 14 24  2  0  0  0  0
 14 25  1  0  0  0  0
 15 26  1  0  0  0  0
 16 26  1  0  0  0  0
 16 31  2  0  0  0  0
 16 32  1  0  0  0  0
 17 19  2  0  0  0  0
 17 37  1  0  0  0  0
 18 20  2  0  0  0  0
 18 38  1  0  0  0  0
 19 46  1  0  0  0  0
 20 39  1  0  0  0  0
 21 84  1  0  0  0  0
 22 85  1  0  0  0  0
 23 25  2  0  0  0  0
 23 84  1  0  0  0  0
 24 86  1  0  0  0  0
 25 87  1  0  0  0  0
 26 68  2  0  0  0  0
 27 30  1  0  0  0  0
 27 49  1  0  0  0  0
 27 69  2  0  0  0  0
 28 29  2  0  0  0  0
 28 60  1  0  0  0  0
 28 70  1  0  0  0  0
 29 61  1  0  0  0  0
 29 69  1  0  0  0  0
 30 65  1  0  0  0  0
 30 70  2  0  0  0  0
 31 71  1  0  0  0  0
 31 74  1  0  0  0  0
 32 75  1  0  0  0  0
 32 79  2  0  0  0  0
 33 47  1  0  0  0  0
 33 76  1  0  0  0  0
 33 80  2  0  0  0  0
 34 63  1  0  0  0  0
 34 72  1  0  0  0  0
 34 81  2  0  0  0  0
 35 65  1  0  0  0  0
 35 73  1  0  0  0  0
 35 82  2  0  0  0  0
 36 64  1  0  0  0  0
 36 77  1  0  0  0  0
 36 83  2  0  0  0  0
 37 40  1  0  0  0  0
 38 47  1  0  0  0  0
 39 72  1  0  0  0  0
 40 42  1  0  0  0  0
 41 43  1  0  0  0  0
 41 44  1  0  0  0  0
 42 46  1  0  0  0  0
 43 48  1  0  0  0  0
 44 73  1  0  0  0  0
 45 48  1  0  0  0  0
 45 73  1  0  0  0  0
 46 76  1  0  0  0  0
 47 72  1  0  0  0  0
 48 71  1  0  0  0  0
 50 60  1  0  0  0  0
 51 64  1  0  0  0  0
 52 65  1  0  0  0  0
 53 65  1  0  0  0  0
 54 66  1  0  0  0  0
 55 66  1  0  0  0  0
 56 66  1  0  0  0  0
 57 67  1  0  0  0  0
 58 67  1  0  0  0  0
 59 78  1  0  0  0  0
 61 62  1  0  0  0  0
 62 67  1  0  0  0  0
 63 66  1  0  0  0  0
 63 77  1  0  0  0  0
 64 78  1  0  0  0  0
 67 85  1  0  0  0  0
 68 71  1  0  0  0  0
M  CHG  1  78   1
M  ISO  4  35 100  65 100  67 101  85 101
M  END
> <Batch ID>
0072

> <Smiles>
CCc1nc([100C:0](C)(C)[100C:0](=O)N2CCCC(n3nc(-c4ccc(Oc5ccc(F)cc5F)cc4)c(C(N)=O)c3N)C2)c(C)nc1CC[101C:1](C)(C)[101O:1]c1ccc2c(c1)CN(C(=O)C(NC(=O)C(C)NC)C(C)(C)C)C(C(=O)NC1CCCc3ccccc31)C2

> <Shape>
0.273

> <Color>
0.066

> <Negative vol penalty>
0.000

$$$$

  -OEChem-04052318243D

 85 93  0     1  0  0  0  0  0999 V2000
  -33.8873  -30.3076    9.4227 C   0  0  0  0  0  0  0  0  0  0  0  0
  -34.2999  -29.2234   10.1906 C   0  0  0  0  0  0  0  0  0  0  0  0
  -22.9974   -9.9057   19.9821 C   0  0  0  0  0  0  0  0  0  0  0  0
  -23.7291   -9.9473   22.2843 C   0  0  0  0  0  0  0  0  0  0  0  0
  -32.5645  -30.7434    9.4878 C   0  0  0  0  0  0  0  0  0  0  0  0
  -33.3900  -28.5750   11.0251 C   0  0  0  0  0  0  0  0  0  0  0  0
  -31.8606  -22.0852   13.6441 C   0  0  0  0  0  0  0  0  0  0  0  0
  -28.7842  -20.9964   19.6948 C   0  0  0  0  0  0  0  0  0  0  0  0
  -22.2277   -8.7731   20.2472 C   0  0  0  0  0  0  0  0  0  0  0  0
  -22.9593   -8.8147   22.5494 C   0  0  0  0  0  0  0  0  0  0  0  0
  -31.6258  -21.4417   14.8585 C   0  0  0  0  0  0  0  0  0  0  0  0
  -23.1907   -5.4764   22.0670 C   0  0  0  0  0  0  0  0  0  0  0  0
  -23.7767   -4.4549   22.8145 C   0  0  0  0  0  0  0  0  0  0  0  0
  -28.7420  -20.3158   20.9065 C   0  0  0  0  0  0  0  0  0  0  0  0
  -29.3470  -22.2325   14.8300 C   0  0  0  0  0  0  0  0  0  0  0  0
  -22.0583   -4.6989   24.4952 C   0  0  0  0  0  0  0  0  0  0  0  0
  -23.7482  -10.4928   21.0006 C   0  0  0  0  0  0  0  0  0  0  0  0
  -24.1418  -13.0075   20.8309 C   0  0  0  0  0  0  0  0  0  0  0  0
  -31.6357  -30.0940   10.3161 C   0  0  0  0  0  0  0  0  0  0  0  0
  -30.8417  -22.8175   13.0180 C   0  0  0  0  0  0  0  0  0  0  0  0
  -32.0539  -29.0034   11.1023 C   0  0  0  0  0  0  0  0  0  0  0  0
  -29.5706  -22.8822   13.6065 C   0  0  0  0  0  0  0  0  0  0  0  0
  -28.7811  -20.2818   18.5020 C   0  0  0  0  0  0  0  0  0  0  0  0
  -22.2086   -8.2276   21.5308 C   0  0  0  0  0  0  0  0  0  0  0  0
  -30.3697  -21.5177   15.4530 C   0  0  0  0  0  0  0  0  0  0  0  0
  -22.0385   -6.1092   22.5336 C   0  0  0  0  0  0  0  0  0  0  0  0
  -23.2105   -4.0662   24.0286 C   0  0  0  0  0  0  0  0  0  0  0  0
  -21.4723   -5.7204   23.7477 C   0  0  0  0  0  0  0  0  0  0  0  0
  -24.5440  -11.6624   20.7273 C   0  0  0  0  0  0  0  0  0  0  0  0
  -28.6980  -18.9314   20.8716 C   0  0  0  0  0  0  0  0  0  0  0  0
  -28.7356  -18.8989   18.5747 C   0  0  0  0  0  0  0  0  0  0  0  0
  -25.2531  -13.7273   20.4656 C   0  0  0  0  0  0  0  0  0  0  0  0
  -22.8768  -13.5572   21.2226 C   0  0  0  0  0  0  0  0  0  0  0  0
  -30.4453  -25.8640   12.2021 C   0  0  0  0  0  0  0  0  0  0  0  0
  -27.7493  -24.7320   10.7977 C   0  0  0  0  0  0  0  0  0  0  0  0
  -25.3441  -22.3142   10.6719 C   0  0  0  0  0  0  0  0  0  0  0  0
  -30.7533  -14.6420   20.7018 C   0  0  0  0  0  0  0  0  0  0  0  0
  -30.2281  -30.6308   10.3889 C   0  0  0  0  0  0  0  0  0  0  0  0
  -31.1034  -23.4837   11.6951 C   0  0  0  0  0  0  0  0  0  0  0  0
  -28.4372  -23.6386   12.9649 C   0  0  0  0  0  0  0  0  0  0  0  0
  -29.2356  -29.6547   11.0153 C   0  0  0  0  0  0  0  0  0  0  0  0
  -29.5978  -12.2293   18.3523 C   0  0  0  0  0  0  0  0  0  0  0  0
  -29.8122  -29.0535   12.2931 C   0  0  0  0  0  0  0  0  0  0  0  0
  -28.1495  -11.9734   18.7731 C   0  0  0  0  0  0  0  0  0  0  0  0
  -30.5043  -12.4580   19.5598 C   0  0  0  0  0  0  0  0  0  0  0  0
  -28.6006  -13.2562   20.9061 C   0  0  0  0  0  0  0  0  0  0  0  0
  -31.0905  -28.2585   12.0008 C   0  0  1  0  0  0  0  0  0  0  0  0
  -30.1397  -24.6294   11.4020 C   0  0  1  0  0  0  0  0  0  0  0  0
  -27.6377  -13.0754   19.7202 C   0  0  2  0  0  0  0  0  0  0  0  0
  -28.3581  -16.6233   17.5920 C   0  0  0  0  0  0  0  0  0  0  0  0
  -23.2493  -21.6815    9.4436 C   0  0  0  0  0  0  0  0  0  0  0  0
  -26.1987  -26.8466   12.3578 C   0  0  0  0  0  0  0  0  0  0  0  0
  -24.0988  -25.5815   11.8497 C   0  0  0  0  0  0  0  0  0  0  0  0
  -25.4546  -26.5430    9.9896 C   0  0  0  0  0  0  0  0  0  0  0  0
  -30.8693  -18.9925   23.1273 C   0  0  0  0  0  0  0  0  0  0  0  0
  -29.7160  -17.0343   24.1416 C   0  0  0  0  0  0  0  0  0  0  0  0
  -26.5409  -19.7898    9.6950 C   0  0  0  0  0  0  0  0  0  0  0  0
  -28.8278  -21.0106   17.1912 C   0  0  0  0  0  0  0  0  0  1  0  0
  -28.6503  -18.1689   22.1536 C   0  0  0  0  0  0  0  0  0  0  0  0
  -28.7269  -18.0796   17.3259 C   0  0  0  0  0  0  0  0  0  0  0  0
  -30.8469  -16.8172   21.8931 C   0  0  0  0  0  0  0  0  0  0  0  0
  -26.3209  -24.5229   11.2390 C   0  0  1  0  0  0  0  0  0  0  0  0
  -24.7614  -21.5326    9.5083 C   0  0  2  0  0  0  0  0  0  0  0  0
  -25.5399  -25.8608   11.3723 C   0  0  0  0  0  0  0  0  0  0  0  0
  -30.0139  -17.7504   22.8040 C   0  0  0  0  0  0  0  0  0  0  0  0
  -25.8117  -11.5327   20.3272 N   0  0  0  0  0  0  0  0  0  0  0  0
  -28.6937  -18.2028   19.7329 N   0  0  0  0  0  0  0  0  0  0  0  0
  -26.2157  -12.8055   20.1763 N   0  0  0  0  0  0  0  0  0  0  0  0
  -28.7445  -24.2783   11.6749 N   0  0  0  0  0  0  0  0  0  0  0  0
  -29.9635  -13.5161   20.4165 N   0  0  0  0  0  0  0  0  0  0  0  0
  -25.4909  -15.0525   20.3668 N   0  0  0  0  0  0  0  0  0  0  0  0
  -21.8429  -12.6757   21.5663 N   0  0  0  0  0  0  0  0  0  0  0  0
  -30.7644  -26.9675   11.4340 N   0  0  0  0  0  0  0  0  0  0  0  0
  -25.7347  -23.5807   10.2919 N   0  0  0  0  0  0  0  0  0  0  0  0
  -30.1625  -15.6005   21.5161 N   0  0  0  0  0  0  0  0  0  0  0  0
  -25.0857  -20.0843    9.6429 N   0  3  0  0  0  0  0  0  0  0  0  0
  -22.6645  -14.7932   21.2505 O   0  0  0  0  0  0  0  0  0  0  0  0
  -30.3940  -25.8191   13.4256 O   0  0  0  0  0  0  0  0  0  0  0  0
  -27.9738  -25.2713    9.7112 O   0  0  0  0  0  0  0  0  0  0  0  0
  -25.4396  -21.8490   11.8055 O   0  0  0  0  0  0  0  0  0  0  0  0
  -31.8980  -14.7853   20.2590 O   0  0  0  0  0  0  0  0  0  0  0  0
  -21.4574   -7.1226   21.7900 O   0  0  0  0  0  0  0  0  0  0  0  0
  -30.1380  -20.8911   16.6386 O   0  0  0  0  0  0  0  0  0  1  0  0
  -23.7725   -3.0842   24.7455 F   0  0  0  0  0  0  0  0  0  0  0  0
  -20.3647   -6.3238   24.2005 F   0  0  0  0  0  0  0  0  0  0  0  0
  1  2  1  0  0  0  0
  1  5  2  0  0  0  0
  2  6  2  0  0  0  0
  3  9  2  0  0  0  0
  3 17  1  0  0  0  0
  4 10  1  0  0  0  0
  4 17  2  0  0  0  0
  5 19  1  0  0  0  0
  6 21  1  0  0  0  0
  7 11  2  0  0  0  0
  7 20  1  0  0  0  0
  8 14  2  0  0  0  0
  8 23  1  0  0  0  0
  9 24  1  0  0  0  0
 10 24  2  0  0  0  0
 11 25  1  0  0  0  0
 12 13  2  0  0  0  0
 12 26  1  0  0  0  0
 13 27  1  0  0  0  0
 14 30  1  0  0  0  0
 15 22  1  0  0  0  0
 15 25  2  0  0  0  0
 16 27  2  0  0  0  0
 16 28  1  0  0  0  0
 17 29  1  0  0  0  0
 18 29  1  0  0  0  0
 18 32  2  0  0  0  0
 18 33  1  0  0  0  0
 19 21  2  0  0  0  0
 19 38  1  0  0  0  0
 20 22  2  0  0  0  0
 20 39  1  0  0  0  0
 21 47  1  0  0  0  0
 22 40  1  0  0  0  0
 23 31  2  0  0  0  0
 23 58  1  0  0  0  0
 24 82  1  0  0  0  0
 25 83  1  0  0  0  0
 26 28  2  0  0  0  0
 26 82  1  0  0  0  0
 27 84  1  0  0  0  0
 28 85  1  0  0  0  0
 29 66  2  0  0  0  0
 30 59  1  0  0  0  0
 30 67  2  0  0  0  0
 31 60  1  0  0  0  0
 31 67  1  0  0  0  0
 32 68  1  0  0  0  0
 32 71  1  0  0  0  0
 33 72  1  0  0  0  0
 33 77  2  0  0  0  0
 34 48  1  0  0  0  0
 34 73  1  0  0  0  0
 34 78  2  0  0  0  0
 35 62  1  0  0  0  0
 35 69  1  0  0  0  0
 35 79  2  0  0  0  0
 36 63  1  0  0  0  0
 36 74  1  0  0  0  0
 36 80  2  0  0  0  0
 37 70  1  0  0  0  0
 37 75  1  0  0  0  0
 37 81  2  0  0  0  0
 38 41  1  0  0  0  0
 39 48  1  0  0  0  0
 40 69  1  0  0  0  0
 41 43  1  0  0  0  0
 42 44  1  0  0  0  0
 42 45  1  0  0  0  0
 43 47  1  0  0  0  0
 44 49  1  0  0  0  0
 45 70  1  0  0  0  0
 46 49  1  0  0  0  0
 46 70  1  0  0  0  0
 47 73  1  0  0  0  0
 48 69  1  0  0  0  0
 49 68  1  0  0  0  0
 50 60  1  0  0  0  0
 51 63  1  0  0  0  0
 52 64  1  0  0  0  0
 53 64  1  0  0  0  0
 54 64  1  0  0  0  0
 55 65  1  0  0  0  0
 56 65  1  0  0  0  0
 57 76  1  0  0  0  0
 58 83  1  0  0  0  0
 59 65  1  0  0  0  0
 61 65  1  0  0  0  0
 61 75  1  0  0  0  0
 62 64  1  0  0  0  0
 62 74  1  0  0  0  0
 63 76  1  0  0  0  0
 66 68  1  0  0  0  0
M  CHG  1  76   1
M  ISO  4  37 100  58 101  75 100  83 101
M  END
> <Batch ID>
0072

> <Smiles>
CCc1nc(CC(C)(C)C[100NH:0][100C:0](=O)N2CCCC(n3nc(-c4ccc(Oc5ccc(F)cc5F)cc4)c(C(N)=O)c3N)C2)ccc1[101CH2:1][101O:1]c1ccc2c(c1)CN(C(=O)C(NC(=O)C(C)NC)C(C)(C)C)C(C(=O)NC1CCCc3ccccc31)C2

> <Shape>
0.216

> <Color>
0.194

> <Negative vol penalty>
0.000

$$$$

  -OEChem-04052318243D

 86 94  0     1  0  0  0  0  0999 V2000
  -15.5235  -26.5784   24.3811 C   0  0  0  0  0  0  0  0  0  0  0  0
  -16.3441  -25.9016   23.4844 C   0  0  0  0  0  0  0  0  0  0  0  0
  -25.1104  -13.8013   21.9591 C   0  0  0  0  0  0  0  0  0  0  0  0
  -25.4327  -14.3418   19.6265 C   0  0  0  0  0  0  0  0  0  0  0  0
  -15.7476  -27.9286   24.6468 C   0  0  0  0  0  0  0  0  0  0  0  0
  -17.3887  -26.5750   22.8521 C   0  0  0  0  0  0  0  0  0  0  0  0
  -22.8532  -24.2775   21.3136 C   0  0  0  0  0  0  0  0  0  0  0  0
  -24.2288  -12.7815   21.6010 C   0  0  0  0  0  0  0  0  0  0  0  0
  -24.5511  -13.3219   19.2684 C   0  0  0  0  0  0  0  0  0  0  0  0
  -23.3592  -23.7860   20.1110 C   0  0  0  0  0  0  0  0  0  0  0  0
  -24.4258   -9.6154   20.4305 C   0  0  0  0  0  0  0  0  0  0  0  0
  -24.5676   -8.3826   21.0673 C   0  0  0  0  0  0  0  0  0  0  0  0
  -24.3384  -25.9417   19.6489 C   0  0  0  0  0  0  0  0  0  0  0  0
  -29.5203  -25.7082   17.4142 C   0  0  0  0  0  0  0  0  0  0  0  0
  -29.2406  -23.4876   18.2947 C   0  0  0  0  0  0  0  0  0  0  0  0
  -22.3151   -8.5649   21.9218 C   0  0  0  0  0  0  0  0  0  0  0  0
  -25.7123  -14.5815   20.9719 C   0  0  0  0  0  0  0  0  0  0  0  0
  -28.0166  -15.5345   21.5102 C   0  0  0  0  0  0  0  0  0  0  0  0
  -16.8014  -28.6165   24.0247 C   0  0  0  0  0  0  0  0  0  0  0  0
  -23.0771  -25.6101   21.6883 C   0  0  0  0  0  0  0  0  0  0  0  0
  -17.6262  -27.9361   23.1087 C   0  0  0  0  0  0  0  0  0  0  0  0
  -23.8363  -26.4469   20.8579 C   0  0  0  0  0  0  0  0  0  0  0  0
  -28.9266  -24.4529   17.3444 C   0  0  0  0  0  0  0  0  0  0  0  0
  -23.9492  -12.5417   20.2556 C   0  0  0  0  0  0  0  0  0  0  0  0
  -24.0994  -24.6189   19.2771 C   0  0  0  0  0  0  0  0  0  0  0  0
  -23.2286  -10.3230   20.5393 C   0  0  0  0  0  0  0  0  0  0  0  0
  -23.5122   -7.8573   21.8130 C   0  0  0  0  0  0  0  0  0  0  0  0
  -22.1733   -9.7978   21.2850 C   0  0  0  0  0  0  0  0  0  0  0  0
  -26.6227  -15.6356   21.3412 C   0  0  0  0  0  0  0  0  0  0  0  0
  -30.4142  -25.9464   18.4457 C   0  0  0  0  0  0  0  0  0  0  0  0
  -30.1472  -23.8251   19.2866 C   0  0  0  0  0  0  0  0  0  0  0  0
  -28.4131  -16.8027   21.8580 C   0  0  0  0  0  0  0  0  0  0  0  0
  -28.8761  -14.3961   21.3657 C   0  0  0  0  0  0  0  0  0  0  0  0
  -21.2162  -28.1241   22.2544 C   0  0  0  0  0  0  0  0  0  0  0  0
  -24.0122  -29.5003   23.1545 C   0  0  0  0  0  0  0  0  0  0  0  0
  -27.4167  -29.5621   22.9254 C   0  0  0  0  0  0  0  0  0  0  0  0
  -28.2145  -22.3333   21.1376 C   0  0  0  0  0  0  0  0  0  0  0  0
  -16.9752  -30.0876   24.3077 C   0  0  0  0  0  0  0  0  0  0  0  0
  -22.5471  -26.1175   23.0014 C   0  0  0  0  0  0  0  0  0  0  0  0
  -24.1222  -27.8797   21.2240 C   0  0  0  0  0  0  0  0  0  0  0  0
  -18.3350  -30.6337   23.8801 C   0  0  0  0  0  0  0  0  0  0  0  0
  -25.6915  -20.8590   23.1716 C   0  0  0  0  0  0  0  0  0  0  0  0
  -18.6845  -30.1550   22.4746 C   0  0  0  0  0  0  0  0  0  0  0  0
  -25.8198  -19.3618   22.8859 C   0  0  0  0  0  0  0  0  0  0  0  0
  -25.9526  -21.6965   21.9217 C   0  0  0  0  0  0  0  0  0  0  0  0
  -27.3602  -19.9178   20.9581 C   0  0  0  0  0  0  0  0  0  0  0  0
  -18.7848  -28.6257   22.4216 C   0  0  1  0  0  0  0  0  0  0  0  0
  -22.4002  -27.6355   23.0399 C   0  0  1  0  0  0  0  0  0  0  0  0
  -27.1606  -19.0344   22.2015 C   0  0  2  0  0  0  0  0  0  0  0  0
  -31.0693  -27.2828   18.5530 C   0  0  0  0  0  0  0  0  0  0  0  0
  -29.4237  -30.8250   23.7465 C   0  0  0  0  0  0  0  0  0  0  0  0
  -27.6820  -25.3106   15.2454 C   0  0  0  0  0  0  0  0  0  0  0  0
  -28.5004  -22.9740   15.3688 C   0  0  0  0  0  0  0  0  0  0  0  0
  -30.8924  -23.3839   21.7195 C   0  0  0  0  0  0  0  0  0  0  0  0
  -31.7206  -21.9603   19.8501 C   0  0  0  0  0  0  0  0  0  0  0  0
  -23.3766  -31.7674   21.2138 C   0  0  0  0  0  0  0  0  0  0  0  0
  -25.7745  -32.4722   21.3609 C   0  0  0  0  0  0  0  0  0  0  0  0
  -24.3392  -32.5054   23.4009 C   0  0  0  0  0  0  0  0  0  0  0  0
  -28.5325  -27.1600   24.2461 C   0  0  0  0  0  0  0  0  0  0  0  0
  -26.5534  -23.6733   16.8002 C   0  0  0  0  0  0  0  0  0  0  0  0
  -25.8081  -24.7209   17.6260 C   0  0  0  0  0  0  0  0  0  1  0  0
  -25.0920  -30.2866   22.4510 C   0  0  1  0  0  0  0  0  0  0  0  0
  -28.4966  -29.6443   23.9892 C   0  0  2  0  0  0  0  0  0  0  0  0
  -27.9248  -24.1333   16.2200 C   0  0  0  0  0  0  0  0  0  0  0  0
  -30.5088  -22.8130   20.3218 C   0  0  0  0  0  0  0  0  0  0  0  0
  -24.6387  -31.7315   22.0986 C   0  0  0  0  0  0  0  0  0  0  0  0
  -26.1645  -16.8703   21.5635 N   0  0  0  0  0  0  0  0  0  0  0  0
  -30.7442  -25.0339   19.3870 N   0  0  0  0  0  0  0  0  0  0  0  0
  -27.2768  -17.5568   21.8759 N   0  0  0  0  0  0  0  0  0  0  0  0
  -23.5771  -28.3309   22.5151 N   0  0  0  0  0  0  0  0  0  0  0  0
  -27.2402  -21.3384   21.3218 N   0  0  0  0  0  0  0  0  0  0  0  0
  -29.6194  -17.3352   22.1474 N   0  0  0  0  0  0  0  0  0  0  0  0
  -28.3044  -13.1690   21.0031 N   0  0  0  0  0  0  0  0  0  0  0  0
  -20.0431  -28.1821   22.9824 N   0  0  0  0  0  0  0  0  0  0  0  0
  -26.2692  -30.2226   23.3104 N   0  0  0  0  0  0  0  0  0  0  0  0
  -29.4086  -21.9077   20.5685 N   0  0  0  0  0  0  0  0  0  0  0  0
  -29.3140  -28.3982   23.9949 N   0  3  0  0  0  0  0  0  0  0  0  0
  -30.1123  -14.4614   21.5685 O   0  0  0  0  0  0  0  0  0  0  0  0
  -21.3568  -28.4276   21.0755 O   0  0  0  0  0  0  0  0  0  0  0  0
  -23.5762  -29.9049   24.2351 O   0  0  0  0  0  0  0  0  0  0  0  0
  -27.5766  -28.9741   21.8580 O   0  0  0  0  0  0  0  0  0  0  0  0
  -28.0357  -23.5123   21.4615 O   0  0  0  0  0  0  0  0  0  0  0  0
  -23.0891  -11.5465   19.9058 O   0  0  0  0  0  0  0  0  0  0  0  0
  -24.5939  -24.1419   18.1025 O   0  0  0  0  0  0  0  0  0  1  0  0
  -23.6480   -6.6727   22.4233 F   0  0  0  0  0  0  0  0  0  0  0  0
  -21.0204  -10.4725   21.3922 F   0  0  0  0  0  0  0  0  0  0  0  0
  1  2  1  0  0  0  0
  1  5  2  0  0  0  0
  2  6  2  0  0  0  0
  3  8  2  0  0  0  0
  3 17  1  0  0  0  0
  4  9  1  0  0  0  0
  4 17  2  0  0  0  0
  5 19  1  0  0  0  0
  6 21  1  0  0  0  0
  7 10  2  0  0  0  0
  7 20  1  0  0  0  0
  8 24  1  0  0  0  0
  9 24  2  0  0  0  0
 10 25  1  0  0  0  0
 11 12  2  0  0  0  0
 11 26  1  0  0  0  0
 12 27  1  0  0  0  0
 13 22  1  0  0  0  0
 13 25  2  0  0  0  0
 14 23  1  0  0  0  0
 14 30  2  0  0  0  0
 15 23  2  0  0  0  0
 15 31  1  0  0  0  0
 16 27  2  0  0  0  0
 16 28  1  0  0  0  0
 17 29  1  0  0  0  0
 18 29  1  0  0  0  0
 18 32  2  0  0  0  0
 18 33  1  0  0  0  0
 19 21  2  0  0  0  0
 19 38  1  0  0  0  0
 20 22  2  0  0  0  0
 20 39  1  0  0  0  0
 21 47  1  0  0  0  0
 22 40  1  0  0  0  0
 23 64  1  0  0  0  0
 24 83  1  0  0  0  0
 25 84  1  0  0  0  0
 26 28  2  0  0  0  0
 26 83  1  0  0  0  0
 27 85  1  0  0  0  0
 28 86  1  0  0  0  0
 29 67  2  0  0  0  0
 30 50  1  0  0  0  0
 30 68  1  0  0  0  0
 31 65  1  0  0  0  0
 31 68  2  0  0  0  0
 32 69  1  0  0  0  0
 32 72  1  0  0  0  0
 33 73  1  0  0  0  0
 33 78  2  0  0  0  0
 34 48  1  0  0  0  0
 34 74  1  0  0  0  0
 34 79  2  0  0  0  0
 35 62  1  0  0  0  0
 35 70  1  0  0  0  0
 35 80  2  0  0  0  0
 36 63  1  0  0  0  0
 36 75  1  0  0  0  0
 36 81  2  0  0  0  0
 37 71  1  0  0  0  0
 37 76  1  0  0  0  0
 37 82  2  0  0  0  0
 38 41  1  0  0  0  0
 39 48  1  0  0  0  0
 40 70  1  0  0  0  0
 41 43  1  0  0  0  0
 42 44  1  0  0  0  0
 42 45  1  0  0  0  0
 43 47  1  0  0  0  0
 44 49  1  0  0  0  0
 45 71  1  0  0  0  0
 46 49  1  0  0  0  0
 46 71  1  0  0  0  0
 47 74  1  0  0  0  0
 48 70  1  0  0  0  0
 49 69  1  0  0  0  0
 51 63  1  0  0  0  0
 52 64  1  0  0  0  0
 53 64  1  0  0  0  0
 54 65  1  0  0  0  0
 55 65  1  0  0  0  0
 56 66  1  0  0  0  0
 57 66  1  0  0  0  0
 58 66  1  0  0  0  0
 59 77  1  0  0  0  0
 60 61  1  0  0  0  0
 60 64  1  0  0  0  0
 61 84  1  0  0  0  0
 62 66  1  0  0  0  0
 62 75  1  0  0  0  0
 63 77  1  0  0  0  0
 65 76  1  0  0  0  0
 67 69  1  0  0  0  0
M  CHG  1  77   1
M  ISO  4  37 100  61 101  76 100  84 101
M  END
> <Batch ID>
0072

> <Smiles>
CNC(C)C(=O)NC(C(=O)N1Cc2cc([101O:1][101CH2:1]CC(C)(C)c3cc(C)nc(C(C)(C)[100NH:0][100C:0](=O)N4CCCC(n5nc(-c6ccc(Oc7ccc(F)cc7F)cc6)c(C(N)=O)c5N)C4)c3)ccc2CC1C(=O)NC1CCCc2ccccc21)C(C)(C)C

> <Shape>
0.287

> <Color>
0.063

> <Negative vol penalty>
0.000

$$$$

  -OEChem-04052318243D

 86 94  0     1  0  0  0  0  0999 V2000
  -27.2195  -20.0832   26.5190 C   0  0  0  0  0  0  0  0  0  0  0  0
  -27.4772  -20.8025   25.3564 C   0  0  0  0  0  0  0  0  0  0  0  0
  -24.6802  -13.5940   21.5075 C   0  0  0  0  0  0  0  0  0  0  0  0
  -26.2626  -13.4331   19.6890 C   0  0  0  0  0  0  0  0  0  0  0  0
  -25.9212  -20.0170   27.0230 C   0  0  0  0  0  0  0  0  0  0  0  0
  -26.4365  -21.4551   24.6965 C   0  0  0  0  0  0  0  0  0  0  0  0
  -27.6821  -26.1524   23.2722 C   0  0  0  0  0  0  0  0  0  0  0  0
  -24.0413  -12.4402   21.0537 C   0  0  0  0  0  0  0  0  0  0  0  0
  -25.6237  -12.2792   19.2351 C   0  0  0  0  0  0  0  0  0  0  0  0
  -28.4763  -26.2831   22.1338 C   0  0  0  0  0  0  0  0  0  0  0  0
  -24.5413   -9.0988   21.1892 C   0  0  0  0  0  0  0  0  0  0  0  0
  -24.1991   -8.1326   22.1352 C   0  0  0  0  0  0  0  0  0  0  0  0
  -26.5138  -26.8060   20.8322 C   0  0  0  0  0  0  0  0  0  0  0  0
  -21.8715   -8.3647   21.5304 C   0  0  0  0  0  0  0  0  0  0  0  0
  -33.5121  -21.8147   17.9062 C   0  0  0  0  0  0  0  0  0  0  0  0
  -25.7909  -14.0905   20.8251 C   0  0  0  0  0  0  0  0  0  0  0  0
  -27.5149  -15.3604   22.2118 C   0  0  0  0  0  0  0  0  0  0  0  0
  -24.8657  -20.6771   26.3743 C   0  0  0  0  0  0  0  0  0  0  0  0
  -26.2941  -26.3372   23.1968 C   0  0  0  0  0  0  0  0  0  0  0  0
  -25.1227  -21.3965   25.1916 C   0  0  0  0  0  0  0  0  0  0  0  0
  -25.7045  -26.6797   21.9716 C   0  0  0  0  0  0  0  0  0  0  0  0
  -32.5158  -22.5815   18.4594 C   0  0  0  0  0  0  0  0  0  0  0  0
  -24.5130  -11.7827   19.9175 C   0  0  0  0  0  0  0  0  0  0  0  0
  -27.8918  -26.6071   20.9130 C   0  0  0  0  0  0  0  0  0  0  0  0
  -23.5486   -9.6981   20.4138 C   0  0  0  0  0  0  0  0  0  0  0  0
  -22.8642   -7.7655   22.3057 C   0  0  0  0  0  0  0  0  0  0  0  0
  -22.2137   -9.3310   20.5844 C   0  0  0  0  0  0  0  0  0  0  0  0
  -26.4510  -15.2827   21.2931 C   0  0  0  0  0  0  0  0  0  0  0  0
  -32.0131  -21.7973   19.5149 C   0  0  0  0  0  0  0  0  0  0  0  0
  -27.7774  -16.7042   22.3202 C   0  0  0  0  0  0  0  0  0  0  0  0
  -28.2043  -14.3117   22.9050 C   0  0  0  0  0  0  0  0  0  0  0  0
  -23.7546  -24.4998   23.7250 C   0  0  0  0  0  0  0  0  0  0  0  0
  -22.1348  -27.2635   23.2144 C   0  0  0  0  0  0  0  0  0  0  0  0
  -22.0783  -30.3701   21.8030 C   0  0  0  0  0  0  0  0  0  0  0  0
  -28.5219  -21.7209   19.9912 C   0  0  0  0  0  0  0  0  0  0  0  0
  -23.4709  -20.5375   26.9308 C   0  0  0  0  0  0  0  0  0  0  0  0
  -25.4547  -26.2189   24.4394 C   0  0  0  0  0  0  0  0  0  0  0  0
  -24.2215  -26.9083   21.8415 C   0  0  0  0  0  0  0  0  0  0  0  0
  -22.4889  -21.5675   26.3786 C   0  0  0  0  0  0  0  0  0  0  0  0
  -25.1741  -20.7116   20.6618 C   0  0  0  0  0  0  0  0  0  0  0  0
  -22.6203  -21.6711   24.8624 C   0  0  0  0  0  0  0  0  0  0  0  0
  -25.2950  -19.2152   20.9553 C   0  0  0  0  0  0  0  0  0  0  0  0
  -26.1475  -21.1533   19.5713 C   0  0  0  0  0  0  0  0  0  0  0  0
  -27.6778  -19.2982   20.1102 C   0  0  0  0  0  0  0  0  0  0  0  0
  -24.0245  -22.1384   24.4609 C   0  0  1  0  0  0  0  0  0  0  0  0
  -23.9874  -25.9240   24.1434 C   0  0  1  0  0  0  0  0  0  0  0  0
  -26.7550  -18.8163   21.2427 C   0  0  2  0  0  0  0  0  0  0  0  0
  -31.3737  -22.1663   21.9267 C   0  0  0  0  0  0  0  0  0  0  0  0
  -20.6030  -32.3811   21.5252 C   0  0  0  0  0  0  0  0  0  0  0  0
  -20.5002  -25.7711   21.1142 C   0  0  0  0  0  0  0  0  0  0  0  0
  -19.7399  -27.9874   20.2320 C   0  0  0  0  0  0  0  0  0  0  0  0
  -19.1725  -27.3149   22.5662 C   0  0  0  0  0  0  0  0  0  0  0  0
  -32.9796  -27.4319   19.5891 C   0  0  0  0  0  0  0  0  0  0  0  0
  -32.8380  -26.8326   17.1673 C   0  0  0  0  0  0  0  0  0  0  0  0
  -34.4323  -19.5436   18.4302 C   0  0  0  0  0  0  0  0  0  0  0  0
  -24.0046  -32.1220   23.2099 C   0  0  0  0  0  0  0  0  0  0  0  0
  -32.0695  -23.9562   18.0231 C   0  0  0  0  0  0  0  0  0  0  0  0
  -32.6161  -25.0434   18.9585 C   0  0  0  0  0  0  0  0  0  0  0  0
  -30.7421  -26.7358   18.6024 C   0  0  0  0  0  0  0  0  0  0  0  0
  -30.0671  -26.5226   19.9556 C   0  0  0  0  0  0  0  0  0  1  0  0
  -30.9257  -22.1328   20.4508 C   0  0  2  0  0  0  0  0  0  0  0  0
  -21.5533  -27.9539   22.0044 C   0  0  1  0  0  0  0  0  0  0  0  0
  -21.6877  -31.7250   22.3653 C   0  0  2  0  0  0  0  0  0  0  0  0
  -20.2692  -27.2507   21.4809 C   0  0  0  0  0  0  0  0  0  0  0  0
  -32.2778  -26.5138   18.5658 C   0  0  0  0  0  0  0  0  0  0  0  0
  -26.0640  -16.4817   20.8497 N   0  0  0  0  0  0  0  0  0  0  0  0
  -32.6383  -20.6223   19.6274 N   0  0  0  0  0  0  0  0  0  0  0  0
  -33.5441  -20.6625   18.6354 N   0  0  0  0  0  0  0  0  0  0  0  0
  -26.8892  -17.3255   21.4924 N   0  0  0  0  0  0  0  0  0  0  0  0
  -23.4425  -26.7749   23.0836 N   0  0  0  0  0  0  0  0  0  0  0  0
  -27.5144  -20.7460   19.9055 N   0  0  0  0  0  0  0  0  0  0  0  0
  -28.6790  -17.4032   23.0419 N   0  0  0  0  0  0  0  0  0  0  0  0
  -27.8072  -12.9870   22.6777 N   0  0  0  0  0  0  0  0  0  0  0  0
  -24.1584  -23.5656   24.6597 N   0  0  0  0  0  0  0  0  0  0  0  0
  -21.3578  -29.3487   22.3850 N   0  0  0  0  0  0  0  0  0  0  0  0
  -29.7877  -21.2507   20.3191 N   0  0  0  0  0  0  0  0  0  0  0  0
  -22.8696  -32.6323   22.3985 N   0  3  0  0  0  0  0  0  0  0  0  0
  -29.1337  -14.5436   23.7149 O   0  0  0  0  0  0  0  0  0  0  0  0
  -23.2450  -24.2658   22.6354 O   0  0  0  0  0  0  0  0  0  0  0  0
  -21.4565  -27.1676   24.2402 O   0  0  0  0  0  0  0  0  0  0  0  0
  -22.9341  -30.2321   20.9317 O   0  0  0  0  0  0  0  0  0  0  0  0
  -28.3082  -22.9222   19.7957 O   0  0  0  0  0  0  0  0  0  0  0  0
  -23.8900  -10.6566   19.4745 O   0  0  0  0  0  0  0  0  0  0  0  0
  -28.6645  -26.7346   19.8001 O   0  0  0  0  0  0  0  0  0  1  0  0
  -22.5360   -6.8365   23.2131 F   0  0  0  0  0  0  0  0  0  0  0  0
  -21.2558   -9.9023   19.8416 F   0  0  0  0  0  0  0  0  0  0  0  0
  1  2  1  0  0  0  0
  1  5  2  0  0  0  0
  2  6  2  0  0  0  0
  3  8  2  0  0  0  0
  3 16  1  0  0  0  0
  4  9  1  0  0  0  0
  4 16  2  0  0  0  0
  5 18  1  0  0  0  0
  6 20  1  0  0  0  0
  7 10  2  0  0  0  0
  7 19  1  0  0  0  0
  8 23  1  0  0  0  0
  9 23  2  0  0  0  0
 10 24  1  0  0  0  0
 11 12  2  0  0  0  0
 11 25  1  0  0  0  0
 12 26  1  0  0  0  0
 13 21  1  0  0  0  0
 13 24  2  0  0  0  0
 14 26  2  0  0  0  0
 14 27  1  0  0  0  0
 15 22  2  0  0  0  0
 15 68  1  0  0  0  0
 16 28  1  0  0  0  0
 17 28  1  0  0  0  0
 17 30  2  0  0  0  0
 17 31  1  0  0  0  0
 18 20  2  0  0  0  0
 18 36  1  0  0  0  0
 19 21  2  0  0  0  0
 19 37  1  0  0  0  0
 20 45  1  0  0  0  0
 21 38  1  0  0  0  0
 22 29  1  0  0  0  0
 22 57  1  0  0  0  0
 23 83  1  0  0  0  0
 24 84  1  0  0  0  0
 25 27  2  0  0  0  0
 25 83  1  0  0  0  0
 26 85  1  0  0  0  0
 27 86  1  0  0  0  0
 28 66  2  0  0  0  0
 29 61  1  0  0  0  0
 29 67  2  0  0  0  0
 30 69  1  0  0  0  0
 30 72  1  0  0  0  0
 31 73  1  0  0  0  0
 31 78  2  0  0  0  0
 32 46  1  0  0  0  0
 32 74  1  0  0  0  0
 32 79  2  0  0  0  0
 33 62  1  0  0  0  0
 33 70  1  0  0  0  0
 33 80  2  0  0  0  0
 34 63  1  0  0  0  0
 34 75  1  0  0  0  0
 34 81  2  0  0  0  0
 35 71  1  0  0  0  0
 35 76  1  0  0  0  0
 35 82  2  0  0  0  0
 36 39  1  0  0  0  0
 37 46  1  0  0  0  0
 38 70  1  0  0  0  0
 39 41  1  0  0  0  0
 40 42  1  0  0  0  0
 40 43  1  0  0  0  0
 41 45  1  0  0  0  0
 42 47  1  0  0  0  0
 43 71  1  0  0  0  0
 44 47  1  0  0  0  0
 44 71  1  0  0  0  0
 45 74  1  0  0  0  0
 46 70  1  0  0  0  0
 47 69  1  0  0  0  0
 48 61  1  0  0  0  0
 49 63  1  0  0  0  0
 50 64  1  0  0  0  0
 51 64  1  0  0  0  0
 52 64  1  0  0  0  0
 53 65  1  0  0  0  0
 54 65  1  0  0  0  0
 55 68  1  0  0  0  0
 56 77  1  0  0  0  0
 57 58  1  0  0  0  0
 58 65  1  0  0  0  0
 59 60  1  0  0  0  0
 59 65  1  0  0  0  0
 60 84  1  0  0  0  0
 61 76  1  0  0  0  0
 62 64  1  0  0  0  0
 62 75  1  0  0  0  0
 63 77  1  0  0  0  0
 66 69  1  0  0  0  0
 67 68  1  0  0  0  0
M  CHG  1  77   1
M  ISO  4  35 100  60 101  76 100  84 101
M  END
> <Batch ID>
0072

> <Smiles>
CNC(C)C(=O)NC(C(=O)N1Cc2cc([101O:1][101CH2:1]CC(C)(C)CCc3cn(C)nc3C(C)[100NH:0][100C:0](=O)N3CCCC(n4nc(-c5ccc(Oc6ccc(F)cc6F)cc5)c(C(N)=O)c4N)C3)ccc2CC1C(=O)NC1CCCc2ccccc21)C(C)(C)C

> <Shape>
0.213

> <Color>
0.072

> <Negative vol penalty>
0.000

$$$$

  -OEChem-04052318243D

 84 92  0     1  0  0  0  0  0999 V2000
  -17.2243  -29.5685   24.8152 C   0  0  0  0  0  0  0  0  0  0  0  0
  -17.9749  -28.4003   24.7286 C   0  0  0  0  0  0  0  0  0  0  0  0
  -29.2157  -18.3079   21.4185 C   0  0  0  0  0  0  0  0  0  0  0  0
  -27.4995  -18.8507   23.0300 C   0  0  0  0  0  0  0  0  0  0  0  0
  -17.2950  -30.5182   23.7968 C   0  0  0  0  0  0  0  0  0  0  0  0
  -18.7958  -28.1807   23.6230 C   0  0  0  0  0  0  0  0  0  0  0  0
  -23.3722  -26.4406   24.9164 C   0  0  0  0  0  0  0  0  0  0  0  0
  -29.4300  -19.6670   21.1889 C   0  0  0  0  0  0  0  0  0  0  0  0
  -27.7138  -20.2098   22.8005 C   0  0  0  0  0  0  0  0  0  0  0  0
  -23.4696  -25.0899   25.2479 C   0  0  0  0  0  0  0  0  0  0  0  0
  -30.1789  -22.9897   19.9151 C   0  0  0  0  0  0  0  0  0  0  0  0
  -30.3003  -23.4142   18.5921 C   0  0  0  0  0  0  0  0  0  0  0  0
  -24.3207  -24.6158   23.0411 C   0  0  0  0  0  0  0  0  0  0  0  0
  -28.0788  -22.5882   18.1231 C   0  0  0  0  0  0  0  0  0  0  0  0
  -22.3377  -15.8897   22.9119 C   0  0  0  0  0  0  0  0  0  0  0  0
  -28.2504  -17.8998   22.3390 C   0  0  0  0  0  0  0  0  0  0  0  0
  -28.6679  -15.6836   23.5314 C   0  0  0  0  0  0  0  0  0  0  0  0
  -18.1245  -30.3145   22.6828 C   0  0  0  0  0  0  0  0  0  0  0  0
  -23.7388  -26.8882   23.6390 C   0  0  0  0  0  0  0  0  0  0  0  0
  -18.8766  -29.1279   22.5882 C   0  0  0  0  0  0  0  0  0  0  0  0
  -24.2295  -25.9731   22.6967 C   0  0  0  0  0  0  0  0  0  0  0  0
  -28.6791  -20.6179   21.8799 C   0  0  0  0  0  0  0  0  0  0  0  0
  -23.9411  -24.1768   24.3093 C   0  0  0  0  0  0  0  0  0  0  0  0
  -29.0074  -22.3643   20.3422 C   0  0  0  0  0  0  0  0  0  0  0  0
  -29.2503  -23.2135   17.6960 C   0  0  0  0  0  0  0  0  0  0  0  0
  -27.9574  -22.1636   19.4462 C   0  0  0  0  0  0  0  0  0  0  0  0
  -28.0282  -16.4961   22.5761 C   0  0  0  0  0  0  0  0  0  0  0  0
  -22.2991  -17.2130   22.5224 C   0  0  0  0  0  0  0  0  0  0  0  0
  -22.2186  -14.9643   21.8951 C   0  0  0  0  0  0  0  0  0  0  0  0
  -28.1087  -14.4415   23.3554 C   0  0  0  0  0  0  0  0  0  0  0  0
  -22.0501  -16.6166   20.3430 C   0  0  0  0  0  0  0  0  0  0  0  0
  -29.6773  -16.0215   24.4919 C   0  0  0  0  0  0  0  0  0  0  0  0
  -22.2151  -28.3045   21.2357 C   0  0  0  0  0  0  0  0  0  0  0  0
  -25.1908  -28.4590   19.9536 C   0  0  0  0  0  0  0  0  0  0  0  0
  -22.8252  -12.7057   21.0787 C   0  0  0  0  0  0  0  0  0  0  0  0
  -28.3601  -27.1995   19.8276 C   0  0  0  0  0  0  0  0  0  0  0  0
  -18.1318  -31.3480   21.5845 C   0  0  0  0  0  0  0  0  0  0  0  0
  -23.6531  -28.3525   23.3059 C   0  0  0  0  0  0  0  0  0  0  0  0
  -24.6551  -26.4056   21.3183 C   0  0  0  0  0  0  0  0  0  0  0  0
  -19.3121  -31.2102   20.6262 C   0  0  0  0  0  0  0  0  0  0  0  0
  -26.0911  -11.6722   20.0270 C   0  0  0  0  0  0  0  0  0  0  0  0
  -19.4914  -29.7548   20.2060 C   0  0  0  0  0  0  0  0  0  0  0  0
  -27.0134  -12.7341   20.6245 C   0  0  0  0  0  0  0  0  0  0  0  0
  -24.7558  -12.2708   19.5961 C   0  0  0  0  0  0  0  0  0  0  0  0
  -24.9623  -14.0708   21.2811 C   0  0  0  0  0  0  0  0  0  0  0  0
  -19.7976  -28.8648   21.4166 C   0  0  1  0  0  0  0  0  0  0  0  0
  -23.5687  -28.6201   21.8063 C   0  0  1  0  0  0  0  0  0  0  0  0
  -26.3106  -13.5023   21.7577 C   0  0  2  0  0  0  0  0  0  0  0  0
  -21.8941  -17.0196   18.9158 C   0  0  0  0  0  0  0  0  0  0  0  0
  -30.5578  -27.5091   18.6564 C   0  0  0  0  0  0  0  0  0  0  0  0
  -20.8213  -12.9682   22.4913 C   0  0  0  0  0  0  0  0  0  0  0  0
  -23.1280  -13.0989   23.4378 C   0  0  0  0  0  0  0  0  0  0  0  0
  -24.0544  -27.1024   17.4680 C   0  0  0  0  0  0  0  0  0  0  0  0
  -26.4005  -26.5872   16.7619 C   0  0  0  0  0  0  0  0  0  0  0  0
  -25.6638  -28.9585   16.9998 C   0  0  0  0  0  0  0  0  0  0  0  0
  -29.7585  -27.8066   22.3643 C   0  0  0  0  0  0  0  0  0  0  0  0
  -22.4222  -18.2977   23.5626 C   0  0  0  0  0  0  0  0  0  0  0  0
  -23.0750  -19.5832   23.0425 C   0  0  0  0  0  0  0  0  0  0  0  0
  -23.2611  -20.6424   24.1298 C   0  0  0  0  0  0  0  0  0  0  0  0
  -23.8748  -21.9179   23.5685 C   0  0  0  0  0  0  0  0  0  1  0  0
  -26.0239  -27.5584   19.0740 C   0  0  1  0  0  0  0  0  0  0  0  0
  -29.7167  -27.8796   19.8680 C   0  0  2  0  0  0  0  0  0  0  0  0
  -22.2510  -13.5082   22.2190 C   0  0  0  0  0  0  0  0  0  0  0  0
  -25.5259  -27.5429   17.6012 C   0  0  0  0  0  0  0  0  0  0  0  0
  -27.1314  -15.8264   21.8473 N   0  0  0  0  0  0  0  0  0  0  0  0
  -22.1560  -17.6136   21.2420 N   0  0  0  0  0  0  0  0  0  0  0  0
  -22.0727  -15.2938   20.5949 N   0  0  0  0  0  0  0  0  0  0  0  0
  -27.2036  -14.5800   22.3446 N   0  0  0  0  0  0  0  0  0  0  0  0
  -24.5467  -27.8469   21.0383 N   0  0  0  0  0  0  0  0  0  0  0  0
  -24.1308  -13.0111   20.6936 N   0  0  0  0  0  0  0  0  0  0  0  0
  -28.3080  -13.2552   23.9682 N   0  0  0  0  0  0  0  0  0  0  0  0
  -30.1399  -17.3437   24.5380 N   0  0  0  0  0  0  0  0  0  0  0  0
  -21.1806  -29.0133   21.8162 N   0  0  0  0  0  0  0  0  0  0  0  0
  -27.4060  -27.9977   19.2328 N   0  0  0  0  0  0  0  0  0  0  0  0
  -30.4601  -27.4800   21.0962 N   0  3  0  0  0  0  0  0  0  0  0  0
  -30.1667  -15.1722   25.2747 O   0  0  0  0  0  0  0  0  0  0  0  0
  -22.1166  -27.4801   20.3343 O   0  0  0  0  0  0  0  0  0  0  0  0
  -25.1200  -29.6625   19.6923 O   0  0  0  0  0  0  0  0  0  0  0  0
  -22.1336  -11.8319   20.5492 O   0  0  0  0  0  0  0  0  0  0  0  0
  -28.1670  -26.0713   20.2754 O   0  0  0  0  0  0  0  0  0  0  0  0
  -28.8881  -21.9441   21.6563 O   0  0  0  0  0  0  0  0  0  0  0  0
  -24.0364  -22.8578   24.6300 O   0  0  0  0  0  0  0  0  0  1  0  0
  -29.3665  -23.6226   16.4259 F   0  0  0  0  0  0  0  0  0  0  0  0
  -26.8291  -21.5645   19.8510 F   0  0  0  0  0  0  0  0  0  0  0  0
  1  2  1  0  0  0  0
  1  5  2  0  0  0  0
  2  6  2  0  0  0  0
  3  8  2  0  0  0  0
  3 16  1  0  0  0  0
  4  9  1  0  0  0  0
  4 16  2  0  0  0  0
  5 18  1  0  0  0  0
  6 20  1  0  0  0  0
  7 10  2  0  0  0  0
  7 19  1  0  0  0  0
  8 22  1  0  0  0  0
  9 22  2  0  0  0  0
 10 23  1  0  0  0  0
 11 12  2  0  0  0  0
 11 24  1  0  0  0  0
 12 25  1  0  0  0  0
 13 21  1  0  0  0  0
 13 23  2  0  0  0  0
 14 25  2  0  0  0  0
 14 26  1  0  0  0  0
 15 28  1  0  0  0  0
 15 29  2  0  0  0  0
 16 27  1  0  0  0  0
 17 27  1  0  0  0  0
 17 30  2  0  0  0  0
 17 32  1  0  0  0  0
 18 20  2  0  0  0  0
 18 37  1  0  0  0  0
 19 21  2  0  0  0  0
 19 38  1  0  0  0  0
 20 46  1  0  0  0  0
 21 39  1  0  0  0  0
 22 81  1  0  0  0  0
 23 82  1  0  0  0  0
 24 26  2  0  0  0  0
 24 81  1  0  0  0  0
 25 83  1  0  0  0  0
 26 84  1  0  0  0  0
 27 65  2  0  0  0  0
 28 57  1  0  0  0  0
 28 66  2  0  0  0  0
 29 63  1  0  0  0  0
 29 67  1  0  0  0  0
 30 68  1  0  0  0  0
 30 71  1  0  0  0  0
 31 49  1  0  0  0  0
 31 66  1  0  0  0  0
 31 67  2  0  0  0  0
 32 72  1  0  0  0  0
 32 76  2  0  0  0  0
 33 47  1  0  0  0  0
 33 73  1  0  0  0  0
 33 77  2  0  0  0  0
 34 61  1  0  0  0  0
 34 69  1  0  0  0  0
 34 78  2  0  0  0  0
 35 63  1  0  0  0  0
 35 70  1  0  0  0  0
 35 79  2  0  0  0  0
 36 62  1  0  0  0  0
 36 74  1  0  0  0  0
 36 80  2  0  0  0  0
 37 40  1  0  0  0  0
 38 47  1  0  0  0  0
 39 69  1  0  0  0  0
 40 42  1  0  0  0  0
 41 43  1  0  0  0  0
 41 44  1  0  0  0  0
 42 46  1  0  0  0  0
 43 48  1  0  0  0  0
 44 70  1  0  0  0  0
 45 48  1  0  0  0  0
 45 70  1  0  0  0  0
 46 73  1  0  0  0  0
 47 69  1  0  0  0  0
 48 68  1  0  0  0  0
 50 62  1  0  0  0  0
 51 63  1  0  0  0  0
 52 63  1  0  0  0  0
 53 64  1  0  0  0  0
 54 64  1  0  0  0  0
 55 64  1  0  0  0  0
 56 75  1  0  0  0  0
 57 58  1  0  0  0  0
 58 59  1  0  0  0  0
 59 60  1  0  0  0  0
 60 82  1  0  0  0  0
 61 64  1  0  0  0  0
 61 74  1  0  0  0  0
 62 75  1  0  0  0  0
 65 68  1  0  0  0  0
M  CHG  1  75   1
M  ISO  4  35 100  60 101  63 100  82 101
M  END
> <Batch ID>
0072

> <Smiles>
CNC(C)C(=O)NC(C(=O)N1Cc2cc([101O:1][101CH2:1]CCCc3cc([100C:0](C)(C)[100C:0](=O)N4CCCC(n5nc(-c6ccc(Oc7ccc(F)cc7F)cc6)c(C(N)=O)c5N)C4)nc(C)n3)ccc2CC1C(=O)NC1CCCc2ccccc21)C(C)(C)C

> <Shape>
0.214

> <Color>
0.067

> <Negative vol penalty>
0.000

$$$$

  -OEChem-04052318243D

 84 92  0     1  0  0  0  0  0999 V2000
  -34.4503  -32.6520   22.2494 C   0  0  0  0  0  0  0  0  0  0  0  0
  -34.5966  -31.3708   22.7715 C   0  0  0  0  0  0  0  0  0  0  0  0
  -22.9321  -10.0163   19.9391 C   0  0  0  0  0  0  0  0  0  0  0  0
  -23.7919   -9.8326   22.1895 C   0  0  0  0  0  0  0  0  0  0  0  0
  -33.1785  -33.1440   21.9588 C   0  0  0  0  0  0  0  0  0  0  0  0
  -33.4710  -30.5813   23.0045 C   0  0  0  0  0  0  0  0  0  0  0  0
  -33.0521  -24.5005   22.4095 C   0  0  0  0  0  0  0  0  0  0  0  0
  -22.1469   -8.8823   20.1465 C   0  0  0  0  0  0  0  0  0  0  0  0
  -23.0066   -8.6985   22.3969 C   0  0  0  0  0  0  0  0  0  0  0  0
  -33.1221  -23.4604   23.3353 C   0  0  0  0  0  0  0  0  0  0  0  0
  -23.1172   -5.4131   21.6063 C   0  0  0  0  0  0  0  0  0  0  0  0
  -23.7152   -4.3151   22.2245 C   0  0  0  0  0  0  0  0  0  0  0  0
  -30.7140  -23.4303   23.4744 C   0  0  0  0  0  0  0  0  0  0  0  0
  -22.1006   -4.4451   24.0171 C   0  0  0  0  0  0  0  0  0  0  0  0
  -31.8467  -18.2199   23.3871 C   0  0  0  0  0  0  0  0  0  0  0  0
  -23.7546  -10.4914   20.9606 C   0  0  0  0  0  0  0  0  0  0  0  0
  -24.2084  -13.0016   20.9932 C   0  0  0  0  0  0  0  0  0  0  0  0
  -32.0375  -32.3566   22.1792 C   0  0  0  0  0  0  0  0  0  0  0  0
  -31.8108  -25.0215   22.0167 C   0  0  0  0  0  0  0  0  0  0  0  0
  -32.1827  -31.0638   22.7178 C   0  0  0  0  0  0  0  0  0  0  0  0
  -30.6309  -24.4753   22.5415 C   0  0  0  0  0  0  0  0  0  0  0  0
  -22.1842   -8.2234   21.3754 C   0  0  0  0  0  0  0  0  0  0  0  0
  -31.9531  -22.9271   23.8701 C   0  0  0  0  0  0  0  0  0  0  0  0
  -22.0110   -6.0273   22.1935 C   0  0  0  0  0  0  0  0  0  0  0  0
  -23.2069   -3.8310   23.4299 C   0  0  0  0  0  0  0  0  0  0  0  0
  -21.5027   -5.5432   23.3989 C   0  0  0  0  0  0  0  0  0  0  0  0
  -24.5664  -11.6625   20.7468 C   0  0  0  0  0  0  0  0  0  0  0  0
  -31.5891  -19.0276   24.4760 C   0  0  0  0  0  0  0  0  0  0  0  0
  -30.7369  -17.6915   22.7599 C   0  0  0  0  0  0  0  0  0  0  0  0
  -25.3173  -13.7259   20.6295 C   0  0  0  0  0  0  0  0  0  0  0  0
  -29.3490  -18.7303   24.2302 C   0  0  0  0  0  0  0  0  0  0  0  0
  -22.9831  -13.5423   21.5050 C   0  0  0  0  0  0  0  0  0  0  0  0
  -30.4024  -27.8632   22.2286 C   0  0  0  0  0  0  0  0  0  0  0  0
  -30.8676  -14.4156   20.7178 C   0  0  0  0  0  0  0  0  0  0  0  0
  -28.1197  -26.4322   20.4219 C   0  0  0  0  0  0  0  0  0  0  0  0
  -26.6140  -23.5406   19.4128 C   0  0  0  0  0  0  0  0  0  0  0  0
  -30.6803  -32.9493   21.8940 C   0  0  0  0  0  0  0  0  0  0  0  0
  -31.7513  -26.1255   20.9970 C   0  0  0  0  0  0  0  0  0  0  0  0
  -29.2726  -24.9854   22.1374 C   0  0  0  0  0  0  0  0  0  0  0  0
  -29.5651  -31.9095   21.8190 C   0  0  0  0  0  0  0  0  0  0  0  0
  -29.4880  -12.3486   18.1363 C   0  0  0  0  0  0  0  0  0  0  0  0
  -29.6617  -30.9377   22.9907 C   0  0  0  0  0  0  0  0  0  0  0  0
  -28.0654  -12.0711   18.6204 C   0  0  0  0  0  0  0  0  0  0  0  0
  -30.4690  -12.4281   19.3018 C   0  0  0  0  0  0  0  0  0  0  0  0
  -28.6656  -13.1472   20.8356 C   0  0  0  0  0  0  0  0  0  0  0  0
  -30.9876  -30.1679   22.9612 C   0  0  1  0  0  0  0  0  0  0  0  0
  -30.4531  -26.9245   21.0564 C   0  0  1  0  0  0  0  0  0  0  0  0
  -27.6376  -13.0897   19.6918 C   0  0  2  0  0  0  0  0  0  0  0  0
  -27.9614  -19.0163   24.6956 C   0  0  0  0  0  0  0  0  0  0  0  0
  -30.3126  -17.4788   20.3130 C   0  0  0  0  0  0  0  0  0  0  0  0
  -24.7516  -22.6924   17.9604 C   0  0  0  0  0  0  0  0  0  0  0  0
  -26.0870  -27.3033   22.5240 C   0  0  0  0  0  0  0  0  0  0  0  0
  -24.4732  -25.6590   21.5442 C   0  0  0  0  0  0  0  0  0  0  0  0
  -25.3147  -27.5551   20.1587 C   0  0  0  0  0  0  0  0  0  0  0  0
  -28.4850  -22.0021   17.7124 C   0  0  0  0  0  0  0  0  0  0  0  0
  -32.7395  -19.6524   25.2273 C   0  0  0  0  0  0  0  0  0  0  0  0
  -30.5597  -14.7457   23.1388 C   0  0  0  0  0  0  0  0  0  0  0  0
  -33.1248  -21.0173   24.6672 C   0  0  0  0  0  0  0  0  0  1  0  0
  -30.9157  -16.8072   21.5715 C   0  0  2  0  0  0  0  0  0  0  0  0
  -30.3289  -15.3689   21.7546 C   0  0  1  0  0  0  0  0  0  0  0  0
  -26.8685  -25.6389   20.7117 C   0  0  1  0  0  0  0  0  0  0  0  0
  -26.2322  -23.0316   18.0345 C   0  0  2  0  0  0  0  0  0  0  0  0
  -25.7114  -26.5306   21.2439 C   0  0  0  0  0  0  0  0  0  0  0  0
  -25.8057  -11.5406   20.2639 N   0  0  0  0  0  0  0  0  0  0  0  0
  -30.3480  -19.3051   24.9266 N   0  0  0  0  0  0  0  0  0  0  0  0
  -29.4688  -17.9266   23.1563 N   0  0  0  0  0  0  0  0  0  0  0  0
  -26.2361  -12.8123   20.2038 N   0  0  0  0  0  0  0  0  0  0  0  0
  -29.2670  -26.0701   21.1420 N   0  0  0  0  0  0  0  0  0  0  0  0
  -30.0157  -13.3897   20.3083 N   0  0  0  0  0  0  0  0  0  0  0  0
  -25.5862  -15.0488   20.6356 N   0  0  0  0  0  0  0  0  0  0  0  0
  -21.9457  -12.6571   21.8282 N   0  0  0  0  0  0  0  0  0  0  0  0
  -30.9368  -29.1116   21.9732 N   0  0  0  0  0  0  0  0  0  0  0  0
  -26.5502  -24.9161   19.4850 N   0  0  0  0  0  0  0  0  0  0  0  0
  -31.9968  -14.4739   23.3911 N   0  3  0  0  0  0  0  0  0  0  0  0
  -27.0123  -21.8066   17.7003 N   0  3  0  0  0  0  0  0  0  0  0  0
  -22.8074  -14.7752   21.6553 O   0  0  0  0  0  0  0  0  0  0  0  0
  -29.9132  -27.4834   23.2860 O   0  0  0  0  0  0  0  0  0  0  0  0
  -32.0106  -14.5812   20.2838 O   0  0  0  0  0  0  0  0  0  0  0  0
  -28.0824  -27.3351   19.5822 O   0  0  0  0  0  0  0  0  0  0  0  0
  -26.9331  -22.7926   20.3343 O   0  0  0  0  0  0  0  0  0  0  0  0
  -21.4179   -7.1169   21.5781 O   0  0  0  0  0  0  0  0  0  0  0  0
  -32.0186  -21.9123   24.7744 O   0  0  0  0  0  0  0  0  0  1  0  0
  -23.7803   -2.7755   24.0227 F   0  0  0  0  0  0  0  0  0  0  0  0
  -20.4394   -6.1283   23.9673 F   0  0  0  0  0  0  0  0  0  0  0  0
  1  2  1  0  0  0  0
  1  5  2  0  0  0  0
  2  6  2  0  0  0  0
  3  8  2  0  0  0  0
  3 16  1  0  0  0  0
  4  9  1  0  0  0  0
  4 16  2  0  0  0  0
  5 18  1  0  0  0  0
  6 20  1  0  0  0  0
  7 10  2  0  0  0  0
  7 19  1  0  0  0  0
  8 22  1  0  0  0  0
  9 22  2  0  0  0  0
 10 23  1  0  0  0  0
 11 12  2  0  0  0  0
 11 24  1  0  0  0  0
 12 25  1  0  0  0  0
 13 21  1  0  0  0  0
 13 23  2  0  0  0  0
 14 25  2  0  0  0  0
 14 26  1  0  0  0  0
 15 28  1  0  0  0  0
 15 29  2  0  0  0  0
 16 27  1  0  0  0  0
 17 27  1  0  0  0  0
 17 30  2  0  0  0  0
 17 32  1  0  0  0  0
 18 20  2  0  0  0  0
 18 37  1  0  0  0  0
 19 21  2  0  0  0  0
 19 38  1  0  0  0  0
 20 46  1  0  0  0  0
 21 39  1  0  0  0  0
 22 81  1  0  0  0  0
 23 82  1  0  0  0  0
 24 26  2  0  0  0  0
 24 81  1  0  0  0  0
 25 83  1  0  0  0  0
 26 84  1  0  0  0  0
 27 64  2  0  0  0  0
 28 56  1  0  0  0  0
 28 65  2  0  0  0  0
 29 59  1  0  0  0  0
 29 66  1  0  0  0  0
 30 67  1  0  0  0  0
 30 70  1  0  0  0  0
 31 49  1  0  0  0  0
 31 65  1  0  0  0  0
 31 66  2  0  0  0  0
 32 71  1  0  0  0  0
 32 76  2  0  0  0  0
 33 47  1  0  0  0  0
 33 72  1  0  0  0  0
 33 77  2  0  0  0  0
 34 60  1  0  0  0  0
 34 69  1  0  0  0  0
 34 78  2  0  0  0  0
 35 61  1  0  0  0  0
 35 68  1  0  0  0  0
 35 79  2  0  0  0  0
 36 62  1  0  0  0  0
 36 73  1  0  0  0  0
 36 80  2  0  0  0  0
 37 40  1  0  0  0  0
 38 47  1  0  0  0  0
 39 68  1  0  0  0  0
 40 42  1  0  0  0  0
 41 43  1  0  0  0  0
 41 44  1  0  0  0  0
 42 46  1  0  0  0  0
 43 48  1  0  0  0  0
 44 69  1  0  0  0  0
 45 48  1  0  0  0  0
 45 69  1  0  0  0  0
 46 72  1  0  0  0  0
 47 68  1  0  0  0  0
 48 67  1  0  0  0  0
 50 59  1  0  0  0  0
 51 62  1  0  0  0  0
 52 63  1  0  0  0  0
 53 63  1  0  0  0  0
 54 63  1  0  0  0  0
 55 75  1  0  0  0  0
 56 58  1  0  0  0  0
 57 60  1  0  0  0  0
 57 74  1  0  0  0  0
 58 82  1  0  0  0  0
 59 60  1  0  0  0  0
 61 63  1  0  0  0  0
 61 73  1  0  0  0  0
 62 75  1  0  0  0  0
 64 67  1  0  0  0  0
M  CHG  2  74   1  75   1
M  ISO  4  34 100  58 101  60 100  82 101
M  END
> <Batch ID>
0072

> <Smiles>
CNC(C)C(=O)NC(C(=O)N1Cc2cc([101O:1][101CH2:1]Cc3cc(C(C)[100CH:0](CN)[100C:0](=O)N4CCCC(n5nc(-c6ccc(Oc7ccc(F)cc7F)cc6)c(C(N)=O)c5N)C4)nc(C)n3)ccc2CC1C(=O)NC1CCCc2ccccc21)C(C)(C)C

> <Shape>
0.235

> <Color>
0.192

> <Negative vol penalty>
0.000

$$$$

  -OEChem-04052318243D

 86 94  0     1  0  0  0  0  0999 V2000
  -28.2305  -10.1531   16.1367 C   0  0  0  0  0  0  0  0  0  0  0  0
  -27.0656  -10.8952   16.3030 C   0  0  0  0  0  0  0  0  0  0  0  0
  -26.7281  -31.1036   22.0805 C   0  0  0  0  0  0  0  0  0  0  0  0
  -26.0549  -29.2552   23.4831 C   0  0  0  0  0  0  0  0  0  0  0  0
  -29.2708  -10.2753   17.0570 C   0  0  0  0  0  0  0  0  0  0  0  0
  -26.9397  -11.7590   17.3903 C   0  0  0  0  0  0  0  0  0  0  0  0
  -24.0132  -17.1376   17.4997 C   0  0  0  0  0  0  0  0  0  0  0  0
  -26.9918  -31.8694   23.2161 C   0  0  0  0  0  0  0  0  0  0  0  0
  -26.3188  -30.0210   24.6188 C   0  0  0  0  0  0  0  0  0  0  0  0
  -22.7431  -17.5056   17.9414 C   0  0  0  0  0  0  0  0  0  0  0  0
  -27.5004  -34.4330   25.7445 C   0  0  0  0  0  0  0  0  0  0  0  0
  -27.0457  -35.7516   25.7594 C   0  0  0  0  0  0  0  0  0  0  0  0
  -23.6813  -18.1792   20.0593 C   0  0  0  0  0  0  0  0  0  0  0  0
  -24.7739  -34.9711   25.5005 C   0  0  0  0  0  0  0  0  0  0  0  0
  -26.2596  -29.7966   22.2140 C   0  0  0  0  0  0  0  0  0  0  0  0
  -26.8817  -28.1606   20.3581 C   0  0  0  0  0  0  0  0  0  0  0  0
  -29.1615  -11.1483   18.1509 C   0  0  0  0  0  0  0  0  0  0  0  0
  -25.1273  -17.2778   18.3398 C   0  0  0  0  0  0  0  0  0  0  0  0
  -27.9789  -11.8919   18.3269 C   0  0  0  0  0  0  0  0  0  0  0  0
  -24.9649  -17.8147   19.6249 C   0  0  0  0  0  0  0  0  0  0  0  0
  -26.7872  -31.3281   24.4852 C   0  0  0  0  0  0  0  0  0  0  0  0
  -22.5765  -18.0237   19.2224 C   0  0  0  0  0  0  0  0  0  0  0  0
  -26.5918  -33.3835   25.6075 C   0  0  0  0  0  0  0  0  0  0  0  0
  -25.6824  -36.0206   25.6375 C   0  0  0  0  0  0  0  0  0  0  0  0
  -25.2286  -33.6525   25.4855 C   0  0  0  0  0  0  0  0  0  0  0  0
  -25.9863  -29.0053   21.0412 C   0  0  0  0  0  0  0  0  0  0  0  0
  -19.7603  -24.6260   19.5978 C   0  0  0  0  0  0  0  0  0  0  0  0
  -20.3050  -23.5023   19.0290 C   0  0  0  0  0  0  0  0  0  0  0  0
  -26.1429  -27.6427   19.3226 C   0  0  0  0  0  0  0  0  0  0  0  0
  -28.2582  -27.8700   20.6350 C   0  0  0  0  0  0  0  0  0  0  0  0
  -27.2409  -15.2754   19.6153 C   0  0  0  0  0  0  0  0  0  0  0  0
  -20.2280  -26.8500   18.6169 C   0  0  0  0  0  0  0  0  0  0  0  0
  -28.6539  -18.0193   20.6138 C   0  0  0  0  0  0  0  0  0  0  0  0
  -28.3329  -21.3269   21.3909 C   0  0  0  0  0  0  0  0  0  0  0  0
  -30.2936  -11.2112   19.1454 C   0  0  0  0  0  0  0  0  0  0  0  0
  -26.4946  -16.9012   17.8388 C   0  0  0  0  0  0  0  0  0  0  0  0
  -26.1315  -18.0042   20.5584 C   0  0  0  0  0  0  0  0  0  0  0  0
  -30.2304  -12.4288   20.0639 C   0  0  0  0  0  0  0  0  0  0  0  0
  -22.4503  -28.6640   16.4696 C   0  0  0  0  0  0  0  0  0  0  0  0
  -28.8187  -12.6111   20.6123 C   0  0  0  0  0  0  0  0  0  0  0  0
  -23.6789  -28.9051   17.3457 C   0  0  0  0  0  0  0  0  0  0  0  0
  -21.1632  -28.7131   17.2870 C   0  0  0  0  0  0  0  0  0  0  0  0
  -22.3744  -28.0154   19.3286 C   0  0  0  0  0  0  0  0  0  0  0  0
  -27.8146  -12.8581   19.4799 C   0  0  1  0  0  0  0  0  0  0  0  0
  -27.4829  -16.6073   18.9632 C   0  0  1  0  0  0  0  0  0  0  0  0
  -23.6983  -27.9436   18.5472 C   0  0  2  0  0  0  0  0  0  0  0  0
  -23.8790  -22.0615   18.7938 C   0  0  0  0  0  0  0  0  0  0  0  0
  -19.8203  -26.6950   21.0497 C   0  0  0  0  0  0  0  0  0  0  0  0
  -29.6555  -23.2945   22.2134 C   0  0  0  0  0  0  0  0  0  0  0  0
  -28.5977  -16.8722   23.4406 C   0  0  0  0  0  0  0  0  0  0  0  0
  -29.0257  -19.1804   24.3109 C   0  0  0  0  0  0  0  0  0  0  0  0
  -30.7098  -18.0707   22.8429 C   0  0  0  0  0  0  0  0  0  0  0  0
  -18.6447  -17.8767   20.6529 C   0  0  0  0  0  0  0  0  0  0  0  0
  -17.7845  -18.4139   18.3704 C   0  0  0  0  0  0  0  0  0  0  0  0
  -27.7967  -22.8672   18.9213 C   0  0  0  0  0  0  0  0  0  0  0  0
  -21.6303  -23.2177   18.4565 C   0  0  0  0  0  0  0  0  0  0  0  0
  -22.5245  -22.3878   19.4027 C   0  0  0  0  0  0  0  0  0  0  0  0
  -18.9715  -20.1893   19.7592 C   0  0  0  0  0  0  0  0  0  0  0  0
  -19.3011  -21.1588   18.6164 C   0  0  0  0  0  0  0  0  0  0  0  0
  -20.2532  -18.2021   18.7467 C   0  0  0  0  0  0  0  0  0  1  0  0
  -20.3677  -25.9459   19.8157 C   0  0  1  0  0  0  0  0  0  0  0  0
  -28.5415  -18.8956   21.8379 C   0  0  1  0  0  0  0  0  0  0  0  0
  -29.1544  -22.5396   20.9921 C   0  0  2  0  0  0  0  0  0  0  0  0
  -29.1962  -18.2495   23.0914 C   0  0  0  0  0  0  0  0  0  0  0  0
  -18.9250  -18.6853   19.3676 C   0  0  0  0  0  0  0  0  0  0  0  0
  -24.7716  -29.0258   20.4862 N   0  0  0  0  0  0  0  0  0  0  0  0
  -18.4718  -24.3704   19.9775 N   0  0  0  0  0  0  0  0  0  0  0  0
  -18.1953  -23.1102   19.6605 N   0  0  0  0  0  0  0  0  0  0  0  0
  -19.2958  -22.5914   19.0921 N   0  0  0  0  0  0  0  0  0  0  0  0
  -24.8985  -28.1877   19.4434 N   0  0  0  0  0  0  0  0  0  0  0  0
  -27.4474  -17.6153   20.0248 N   0  0  0  0  0  0  0  0  0  0  0  0
  -21.2301  -27.8027   18.4315 N   0  0  0  0  0  0  0  0  0  0  0  0
  -26.4428  -26.7789   18.3294 N   0  0  0  0  0  0  0  0  0  0  0  0
  -28.8627  -28.4880   21.7381 N   0  0  0  0  0  0  0  0  0  0  0  0
  -27.9060  -14.2248   19.0126 N   0  0  0  0  0  0  0  0  0  0  0  0
  -29.1071  -20.1885   21.4678 N   0  0  0  0  0  0  0  0  0  0  0  0
  -28.3350  -23.4717   20.1670 N   0  3  0  0  0  0  0  0  0  0  0  0
  -28.9366  -27.0983   19.9155 O   0  0  0  0  0  0  0  0  0  0  0  0
  -26.5064  -15.2064   20.5938 O   0  0  0  0  0  0  0  0  0  0  0  0
  -19.2581  -26.7104   17.8672 O   0  0  0  0  0  0  0  0  0  0  0  0
  -29.7710  -17.7108   20.1914 O   0  0  0  0  0  0  0  0  0  0  0  0
  -27.1260  -21.3845   21.6156 O   0  0  0  0  0  0  0  0  0  0  0  0
  -27.0447  -32.0749   25.5936 O   0  0  0  0  0  0  0  0  0  0  0  0
  -21.3378  -18.3831   19.6562 O   0  0  0  0  0  0  0  0  0  1  0  0
  -25.2458  -37.2868   25.6534 F   0  0  0  0  0  0  0  0  0  0  0  0
  -24.3509  -32.6483   25.3548 F   0  0  0  0  0  0  0  0  0  0  0  0
  1  2  1  0  0  0  0
  1  5  2  0  0  0  0
  2  6  2  0  0  0  0
  3  8  2  0  0  0  0
  3 15  1  0  0  0  0
  4  9  1  0  0  0  0
  4 15  2  0  0  0  0
  5 17  1  0  0  0  0
  6 19  1  0  0  0  0
  7 10  2  0  0  0  0
  7 18  1  0  0  0  0
  8 21  1  0  0  0  0
  9 21  2  0  0  0  0
 10 22  1  0  0  0  0
 11 12  2  0  0  0  0
 11 23  1  0  0  0  0
 12 24  1  0  0  0  0
 13 20  1  0  0  0  0
 13 22  2  0  0  0  0
 14 24  2  0  0  0  0
 14 25  1  0  0  0  0
 15 26  1  0  0  0  0
 16 26  1  0  0  0  0
 16 29  2  0  0  0  0
 16 30  1  0  0  0  0
 17 19  2  0  0  0  0
 17 35  1  0  0  0  0
 18 20  2  0  0  0  0
 18 36  1  0  0  0  0
 19 44  1  0  0  0  0
 20 37  1  0  0  0  0
 21 83  1  0  0  0  0
 22 84  1  0  0  0  0
 23 25  2  0  0  0  0
 23 83  1  0  0  0  0
 24 85  1  0  0  0  0
 25 86  1  0  0  0  0
 26 66  2  0  0  0  0
 27 28  2  0  0  0  0
 27 61  1  0  0  0  0
 27 67  1  0  0  0  0
 28 56  1  0  0  0  0
 28 69  1  0  0  0  0
 29 70  1  0  0  0  0
 29 73  1  0  0  0  0
 30 74  1  0  0  0  0
 30 78  2  0  0  0  0
 31 45  1  0  0  0  0
 31 75  1  0  0  0  0
 31 79  2  0  0  0  0
 32 61  1  0  0  0  0
 32 72  1  0  0  0  0
 32 80  2  0  0  0  0
 33 62  1  0  0  0  0
 33 71  1  0  0  0  0
 33 81  2  0  0  0  0
 34 63  1  0  0  0  0
 34 76  1  0  0  0  0
 34 82  2  0  0  0  0
 35 38  1  0  0  0  0
 36 45  1  0  0  0  0
 37 71  1  0  0  0  0
 38 40  1  0  0  0  0
 39 41  1  0  0  0  0
 39 42  1  0  0  0  0
 40 44  1  0  0  0  0
 41 46  1  0  0  0  0
 42 72  1  0  0  0  0
 43 46  1  0  0  0  0
 43 72  1  0  0  0  0
 44 75  1  0  0  0  0
 45 71  1  0  0  0  0
 46 70  1  0  0  0  0
 47 57  1  0  0  0  0
 48 61  1  0  0  0  0
 49 63  1  0  0  0  0
 50 64  1  0  0  0  0
 51 64  1  0  0  0  0
 52 64  1  0  0  0  0
 53 65  1  0  0  0  0
 54 65  1  0  0  0  0
 55 77  1  0  0  0  0
 56 57  1  0  0  0  0
 58 59  1  0  0  0  0
 58 65  1  0  0  0  0
 59 69  1  0  0  0  0
 60 65  1  0  0  0  0
 60 84  1  0  0  0  0
 62 64  1  0  0  0  0
 62 76  1  0  0  0  0
 63 77  1  0  0  0  0
 66 70  1  0  0  0  0
 67 68  2  0  0  0  0
 68 69  1  0  0  0  0
M  CHG  1  77   1
M  ISO  4  32 100  60 101  61 100  84 101
M  END
> <Batch ID>
0072

> <Smiles>
CCCc1c([100CH:0](C)[100C:0](=O)N2CCCC(n3nc(-c4ccc(Oc5ccc(F)cc5F)cc4)c(C(N)=O)c3N)C2)nnn1CCC(C)(C)[101CH2:1][101O:1]c1ccc2c(c1)CN(C(=O)C(NC(=O)C(C)NC)C(C)(C)C)C(C(=O)NC1CCCc3ccccc31)C2

> <Shape>
0.237

> <Color>
0.055

> <Negative vol penalty>
0.000

$$$$

  -OEChem-04052318243D

 84 92  0     1  0  0  0  0  0999 V2000
  -18.1409  -25.4352   25.2545 C   0  0  0  0  0  0  0  0  0  0  0  0
  -19.3826  -24.9227   24.8923 C   0  0  0  0  0  0  0  0  0  0  0  0
  -22.9072  -11.5181   18.9847 C   0  0  0  0  0  0  0  0  0  0  0  0
  -23.6257   -9.8099   20.5349 C   0  0  0  0  0  0  0  0  0  0  0  0
  -17.6900  -26.6289   24.6927 C   0  0  0  0  0  0  0  0  0  0  0  0
  -20.1736  -25.6033   23.9674 C   0  0  0  0  0  0  0  0  0  0  0  0
  -26.2864  -25.9733   23.9173 C   0  0  0  0  0  0  0  0  0  0  0  0
  -22.0590  -10.5998   18.3659 C   0  0  0  0  0  0  0  0  0  0  0  0
  -22.7774   -8.8916   19.9161 C   0  0  0  0  0  0  0  0  0  0  0  0
  -27.2624  -25.2780   23.2047 C   0  0  0  0  0  0  0  0  0  0  0  0
  -19.4810   -8.1470   19.9287 C   0  0  0  0  0  0  0  0  0  0  0  0
  -18.7038   -7.3298   20.7495 C   0  0  0  0  0  0  0  0  0  0  0  0
  -27.3231  -27.0508   21.5699 C   0  0  0  0  0  0  0  0  0  0  0  0
  -19.7542   -5.3738   19.7966 C   0  0  0  0  0  0  0  0  0  0  0  0
  -28.7867  -20.9354   21.4130 C   0  0  0  0  0  0  0  0  0  0  0  0
  -23.6906  -11.1231   20.0691 C   0  0  0  0  0  0  0  0  0  0  0  0
  -24.2590  -12.9206   21.7877 C   0  0  0  0  0  0  0  0  0  0  0  0
  -18.4801  -27.3295   23.7677 C   0  0  0  0  0  0  0  0  0  0  0  0
  -25.8128  -27.2096   23.4549 C   0  0  0  0  0  0  0  0  0  0  0  0
  -19.7322  -26.8069   23.3918 C   0  0  0  0  0  0  0  0  0  0  0  0
  -26.3430  -27.7610   22.2798 C   0  0  0  0  0  0  0  0  0  0  0  0
  -29.3037  -21.5371   20.2838 C   0  0  0  0  0  0  0  0  0  0  0  0
  -21.9941   -9.2866   18.8316 C   0  0  0  0  0  0  0  0  0  0  0  0
  -27.7788  -25.8153   22.0292 C   0  0  0  0  0  0  0  0  0  0  0  0
  -20.3948   -7.5776   19.0418 C   0  0  0  0  0  0  0  0  0  0  0  0
  -18.8404   -5.9432   20.6835 C   0  0  0  0  0  0  0  0  0  0  0  0
  -20.5314   -6.1910   18.9758 C   0  0  0  0  0  0  0  0  0  0  0  0
  -24.5674  -12.0711   20.7084 C   0  0  0  0  0  0  0  0  0  0  0  0
  -29.7820  -20.6781   19.3156 C   0  0  0  0  0  0  0  0  0  0  0  0
  -25.4199  -13.6174   22.0188 C   0  0  0  0  0  0  0  0  0  0  0  0
  -29.2328  -18.8690   20.5775 C   0  0  0  0  0  0  0  0  0  0  0  0
  -23.0329  -13.0667   22.5164 C   0  0  0  0  0  0  0  0  0  0  0  0
  -22.9870  -28.3191   22.5129 C   0  0  0  0  0  0  0  0  0  0  0  0
  -24.5707  -31.1480   22.4045 C   0  0  0  0  0  0  0  0  0  0  0  0
  -27.5466  -32.7931   22.1136 C   0  0  0  0  0  0  0  0  0  0  0  0
  -29.6897  -16.5729   19.7323 C   0  0  0  0  0  0  0  0  0  0  0  0
  -17.9298  -28.5914   23.1518 C   0  0  0  0  0  0  0  0  0  0  0  0
  -24.7790  -27.9596   24.2494 C   0  0  0  0  0  0  0  0  0  0  0  0
  -25.8829  -29.0944   21.7517 C   0  0  0  0  0  0  0  0  0  0  0  0
  -18.9905  -29.4448   22.4612 C   0  0  0  0  0  0  0  0  0  0  0  0
  -30.0961  -12.9412   20.2383 C   0  0  0  0  0  0  0  0  0  0  0  0
  -19.8819  -28.5773   21.5782 C   0  0  0  0  0  0  0  0  0  0  0  0
  -28.6582  -12.4609   20.4275 C   0  0  0  0  0  0  0  0  0  0  0  0
  -30.1685  -14.1739   19.3421 C   0  0  0  0  0  0  0  0  0  0  0  0
  -27.8682  -14.8209   19.9902 C   0  0  0  0  0  0  0  0  0  0  0  0
  -20.6300  -27.5288   22.4104 C   0  0  1  0  0  0  0  0  0  0  0  0
  -23.9994  -28.9694   23.4128 C   0  0  1  0  0  0  0  0  0  0  0  0
  -27.7580  -13.6057   20.9234 C   0  0  1  0  0  0  0  0  0  0  0  0
  -30.3660  -21.2171   18.0514 C   0  0  0  0  0  0  0  0  0  0  0  0
  -31.7012  -23.2700   21.2222 C   0  0  0  0  0  0  0  0  0  0  0  0
  -28.5187  -35.1047   22.0212 C   0  0  0  0  0  0  0  0  0  0  0  0
  -28.5347  -23.5956   18.9177 C   0  0  0  0  0  0  0  0  0  0  0  0
  -23.5975  -31.4396   19.5273 C   0  0  0  0  0  0  0  0  0  0  0  0
  -25.3289  -33.2174   19.1955 C   0  0  0  0  0  0  0  0  0  0  0  0
  -23.5139  -33.5444   20.8752 C   0  0  0  0  0  0  0  0  0  0  0  0
  -28.8606  -16.8839   22.0530 C   0  0  0  0  0  0  0  0  0  0  0  0
  -29.1620  -32.3367   24.5511 C   0  0  0  0  0  0  0  0  0  0  0  0
  -30.8031  -23.5890   20.0301 C   0  0  0  0  0  0  0  0  0  0  0  0
  -28.7056  -23.7140   21.4118 C   0  0  0  0  0  0  0  0  0  1  0  0
  -25.3639  -31.8896   21.3558 C   0  0  1  0  0  0  0  0  0  0  0  0
  -28.1509  -33.9313   22.9159 C   0  0  2  0  0  0  0  0  0  0  0  0
  -29.3323  -23.0723   20.1393 C   0  0  2  0  0  0  0  0  0  0  0  0
  -24.4585  -32.4967   20.2471 C   0  0  0  0  0  0  0  0  0  0  0  0
  -28.7353  -19.5994   21.5937 N   0  0  0  0  0  0  0  0  0  0  0  0
  -25.8256  -12.2136   20.2832 N   0  0  0  0  0  0  0  0  0  0  0  0
  -29.7623  -19.3339   19.4299 N   0  0  0  0  0  0  0  0  0  0  0  0
  -26.3179  -13.1609   21.0995 N   0  0  0  0  0  0  0  0  0  0  0  0
  -24.8659  -29.7863   22.5607 N   0  0  0  0  0  0  0  0  0  0  0  0
  -29.2696  -15.2298   19.8097 N   0  0  0  0  0  0  0  0  0  0  0  0
  -25.7498  -14.5699   22.9167 N   0  0  0  0  0  0  0  0  0  0  0  0
  -21.9381  -12.2730   22.1480 N   0  0  0  0  0  0  0  0  0  0  0  0
  -21.7493  -28.1348   23.0990 N   0  0  0  0  0  0  0  0  0  0  0  0
  -26.1705  -32.8714   22.0727 N   0  0  0  0  0  0  0  0  0  0  0  0
  -29.1950  -17.4343   20.7355 N   0  0  0  0  0  0  0  0  0  0  0  0
  -29.3821  -33.4726   23.6193 N   0  3  0  0  0  0  0  0  0  0  0  0
  -22.9068  -13.8889   23.4553 O   0  0  0  0  0  0  0  0  0  0  0  0
  -23.3048  -28.0089   21.3707 O   0  0  0  0  0  0  0  0  0  0  0  0
  -23.7254  -31.7562   23.0657 O   0  0  0  0  0  0  0  0  0  0  0  0
  -28.2273  -31.9237   21.5739 O   0  0  0  0  0  0  0  0  0  0  0  0
  -30.4683  -16.9635   18.8544 O   0  0  0  0  0  0  0  0  0  0  0  0
  -21.1663   -8.3903   18.2282 O   0  0  0  0  0  0  0  0  0  0  0  0
  -28.7310  -25.1385   21.3314 O   0  0  0  0  0  0  0  0  0  1  0  0
  -18.0950   -5.1587   21.4728 F   0  0  0  0  0  0  0  0  0  0  0  0
  -21.4084   -5.6383   18.1266 F   0  0  0  0  0  0  0  0  0  0  0  0
  1  2  1  0  0  0  0
  1  5  2  0  0  0  0
  2  6  2  0  0  0  0
  3  8  2  0  0  0  0
  3 16  1  0  0  0  0
  4  9  1  0  0  0  0
  4 16  2  0  0  0  0
  5 18  1  0  0  0  0
  6 20  1  0  0  0  0
  7 10  2  0  0  0  0
  7 19  1  0  0  0  0
  8 23  1  0  0  0  0
  9 23  2  0  0  0  0
 10 24  1  0  0  0  0
 11 12  2  0  0  0  0
 11 25  1  0  0  0  0
 12 26  1  0  0  0  0
 13 21  1  0  0  0  0
 13 24  2  0  0  0  0
 14 26  2  0  0  0  0
 14 27  1  0  0  0  0
 15 22  1  0  0  0  0
 15 64  2  0  0  0  0
 16 28  1  0  0  0  0
 17 28  1  0  0  0  0
 17 30  2  0  0  0  0
 17 32  1  0  0  0  0
 18 20  2  0  0  0  0
 18 37  1  0  0  0  0
 19 21  2  0  0  0  0
 19 38  1  0  0  0  0
 20 46  1  0  0  0  0
 21 39  1  0  0  0  0
 22 29  2  0  0  0  0
 22 62  1  0  0  0  0
 23 81  1  0  0  0  0
 24 82  1  0  0  0  0
 25 27  2  0  0  0  0
 25 81  1  0  0  0  0
 26 83  1  0  0  0  0
 27 84  1  0  0  0  0
 28 65  2  0  0  0  0
 29 49  1  0  0  0  0
 29 66  1  0  0  0  0
 30 67  1  0  0  0  0
 30 70  1  0  0  0  0
 31 64  1  0  0  0  0
 31 66  2  0  0  0  0
 31 74  1  0  0  0  0
 32 71  1  0  0  0  0
 32 76  2  0  0  0  0
 33 47  1  0  0  0  0
 33 72  1  0  0  0  0
 33 77  2  0  0  0  0
 34 60  1  0  0  0  0
 34 68  1  0  0  0  0
 34 78  2  0  0  0  0
 35 61  1  0  0  0  0
 35 73  1  0  0  0  0
 35 79  2  0  0  0  0
 36 69  1  0  0  0  0
 36 74  1  0  0  0  0
 36 80  2  0  0  0  0
 37 40  1  0  0  0  0
 38 47  1  0  0  0  0
 39 68  1  0  0  0  0
 40 42  1  0  0  0  0
 41 43  1  0  0  0  0
 41 44  1  0  0  0  0
 42 46  1  0  0  0  0
 43 48  1  0  0  0  0
 44 69  1  0  0  0  0
 45 48  1  0  0  0  0
 45 69  1  0  0  0  0
 46 72  1  0  0  0  0
 47 68  1  0  0  0  0
 48 67  1  0  0  0  0
 50 58  1  0  0  0  0
 51 61  1  0  0  0  0
 52 62  1  0  0  0  0
 53 63  1  0  0  0  0
 54 63  1  0  0  0  0
 55 63  1  0  0  0  0
 56 74  1  0  0  0  0
 57 75  1  0  0  0  0
 58 62  1  0  0  0  0
 59 62  1  0  0  0  0
 59 82  1  0  0  0  0
 60 63  1  0  0  0  0
 60 73  1  0  0  0  0
 61 75  1  0  0  0  0
 65 67  1  0  0  0  0
M  CHG  1  75   1
M  ISO  4  36 100  59 101  74 100  82 101
M  END
> <Batch ID>
0072

> <Smiles>
CCC(C)(c1cnc([100N:0](C)[100C:0](=O)N2CCCC(n3nc(-c4ccc(Oc5ccc(F)cc5F)cc4)c(C(N)=O)c3N)C2)nc1C)[101CH2:1][101O:1]c1ccc2c(c1)CN(C(=O)C(NC(=O)C(C)NC)C(C)(C)C)C(C(=O)NC1CCCc3ccccc31)C2

> <Shape>
0.260

> <Color>
0.081

> <Negative vol penalty>
0.000

$$$$

  -OEChem-04052318243D

 85 93  0     1  0  0  0  0  0999 V2000
  -24.3174  -23.0530   27.6889 C   0  0  0  0  0  0  0  0  0  0  0  0
  -24.7394  -22.9806   26.3652 C   0  0  0  0  0  0  0  0  0  0  0  0
  -23.1045   -9.8620   21.4082 C   0  0  0  0  0  0  0  0  0  0  0  0
  -23.8677  -10.7010   23.5414 C   0  0  0  0  0  0  0  0  0  0  0  0
  -23.3776  -22.1427   28.1704 C   0  0  0  0  0  0  0  0  0  0  0  0
  -24.2226  -21.9972   25.5226 C   0  0  0  0  0  0  0  0  0  0  0  0
  -23.0847  -22.5123   19.5271 C   0  0  0  0  0  0  0  0  0  0  0  0
  -22.3845   -8.8606   22.0596 C   0  0  0  0  0  0  0  0  0  0  0  0
  -23.1476   -9.6996   24.1929 C   0  0  0  0  0  0  0  0  0  0  0  0
  -23.8066  -22.1257   18.3988 C   0  0  0  0  0  0  0  0  0  0  0  0
  -23.0242   -5.8757   23.5106 C   0  0  0  0  0  0  0  0  0  0  0  0
  -23.1104   -4.5803   23.0006 C   0  0  0  0  0  0  0  0  0  0  0  0
  -22.5215  -20.0875   18.2825 C   0  0  0  0  0  0  0  0  0  0  0  0
  -20.7225   -4.5659   22.6336 C   0  0  0  0  0  0  0  0  0  0  0  0
  -28.4075  -18.2836   17.8659 C   0  0  0  0  0  0  0  0  0  0  0  0
  -23.8461  -10.7822   22.1491 C   0  0  0  0  0  0  0  0  0  0  0  0
  -24.1366  -13.1040   21.1330 C   0  0  0  0  0  0  0  0  0  0  0  0
  -22.8417  -21.1536   27.3307 C   0  0  0  0  0  0  0  0  0  0  0  0
  -22.0815  -21.6831   20.0490 C   0  0  0  0  0  0  0  0  0  0  0  0
  -23.2757  -21.0719   25.9937 C   0  0  0  0  0  0  0  0  0  0  0  0
  -21.7866  -20.4671   19.4161 C   0  0  0  0  0  0  0  0  0  0  0  0
  -22.4060   -8.7794   23.4520 C   0  0  0  0  0  0  0  0  0  0  0  0
  -23.5270  -20.9118   17.7780 C   0  0  0  0  0  0  0  0  0  0  0  0
  -21.7871   -6.5162   23.5822 C   0  0  0  0  0  0  0  0  0  0  0  0
  -21.9595   -3.9254   22.5621 C   0  0  0  0  0  0  0  0  0  0  0  0
  -20.6363   -5.8613   23.1436 C   0  0  0  0  0  0  0  0  0  0  0  0
  -24.5906  -11.8165   21.4767 C   0  0  0  0  0  0  0  0  0  0  0  0
  -27.0538  -18.5366   17.7764 C   0  0  0  0  0  0  0  0  0  0  0  0
  -28.9276  -18.2617   19.1439 C   0  0  0  0  0  0  0  0  0  0  0  0
  -25.2128  -13.6943   20.5167 C   0  0  0  0  0  0  0  0  0  0  0  0
  -26.8849  -18.7053   20.0370 C   0  0  0  0  0  0  0  0  0  0  0  0
  -22.8567  -13.7120   21.3513 C   0  0  0  0  0  0  0  0  0  0  0  0
  -21.6295  -20.1741   22.8098 C   0  0  0  0  0  0  0  0  0  0  0  0
  -18.7422  -19.4741   21.5075 C   0  0  0  0  0  0  0  0  0  0  0  0
  -16.8541  -19.0722   18.6933 C   0  0  0  0  0  0  0  0  0  0  0  0
  -30.6752  -14.8138   20.2814 C   0  0  0  0  0  0  0  0  0  0  0  0
  -21.8634  -20.1621   27.9091 C   0  0  0  0  0  0  0  0  0  0  0  0
  -21.2937  -22.1269   21.2510 C   0  0  0  0  0  0  0  0  0  0  0  0
  -20.7056  -19.5500   19.9248 C   0  0  0  0  0  0  0  0  0  0  0  0
  -21.0856  -19.3851   26.8501 C   0  0  0  0  0  0  0  0  0  0  0  0
  -29.5823  -11.7140   18.9126 C   0  0  0  0  0  0  0  0  0  0  0  0
  -22.0272  -18.8731   25.7647 C   0  0  0  0  0  0  0  0  0  0  0  0
  -28.1517  -11.5679   19.4343 C   0  0  0  0  0  0  0  0  0  0  0  0
  -30.4966  -12.3657   19.9476 C   0  0  0  0  0  0  0  0  0  0  0  0
  -28.5827  -13.5085   20.9985 C   0  0  0  0  0  0  0  0  0  0  0  0
  -22.7197  -20.0349   25.0421 C   0  0  1  0  0  0  0  0  0  0  0  0
  -20.6435  -20.9680   22.0004 C   0  0  1  0  0  0  0  0  0  0  0  0
  -27.6104  -12.9073   19.9692 C   0  0  2  0  0  0  0  0  0  0  0  0
  -25.7086  -20.4121   21.4476 C   0  0  0  0  0  0  0  0  0  0  0  0
  -31.2218  -19.2855   19.2550 C   0  0  0  0  0  0  0  0  0  0  0  0
  -14.5376  -18.4616   17.9458 C   0  0  0  0  0  0  0  0  0  0  0  0
  -19.3297  -16.5379   22.0939 C   0  0  0  0  0  0  0  0  0  0  0  0
  -17.4871  -15.9257   20.5133 C   0  0  0  0  0  0  0  0  0  0  0  0
  -16.9785  -17.2461   22.5676 C   0  0  0  0  0  0  0  0  0  0  0  0
  -16.4538  -21.7024   17.3968 C   0  0  0  0  0  0  0  0  0  0  0  0
  -26.3940  -18.5798   16.4214 C   0  0  0  0  0  0  0  0  0  0  0  0
  -26.0391  -18.9358   21.2434 C   0  0  0  0  0  0  0  0  0  0  0  0
  -26.3858  -19.9711   15.7843 C   0  0  0  0  0  0  0  0  0  0  0  0
  -30.6995  -17.2650   20.6688 C   0  0  0  0  0  0  0  0  0  0  0  0
  -25.5772  -20.9927   16.5755 C   0  0  0  0  0  0  0  0  0  1  0  0
  -30.3822  -17.9941   19.3409 C   0  0  1  0  0  0  0  0  0  0  0  0
  -18.1984  -18.3559   20.6514 C   0  0  1  0  0  0  0  0  0  0  0  0
  -15.4791  -19.5959   18.3195 C   0  0  2  0  0  0  0  0  0  0  0  0
  -18.0202  -17.0326   21.4478 C   0  0  0  0  0  0  0  0  0  0  0  0
  -25.8564  -11.6009   21.1092 N   0  0  0  0  0  0  0  0  0  0  0  0
  -26.2595  -18.7527   18.8453 N   0  0  0  0  0  0  0  0  0  0  0  0
  -28.1925  -18.4693   20.2560 N   0  0  0  0  0  0  0  0  0  0  0  0
  -26.2071  -12.7608   20.5280 N   0  0  0  0  0  0  0  0  0  0  0  0
  -19.9675  -20.0253   21.1067 N   0  0  0  0  0  0  0  0  0  0  0  0
  -29.9268  -13.6324   20.4130 N   0  0  0  0  0  0  0  0  0  0  0  0
  -25.3962  -14.9156   19.9715 N   0  0  0  0  0  0  0  0  0  0  0  0
  -21.8639  -12.9647   21.9995 N   0  0  0  0  0  0  0  0  0  0  0  0
  -21.8165  -20.6503   24.0935 N   0  0  0  0  0  0  0  0  0  0  0  0
  -16.9689  -18.8624   20.0512 N   0  0  0  0  0  0  0  0  0  0  0  0
  -30.0587  -15.9708   20.7417 N   0  0  0  0  0  0  0  0  0  0  0  0
  -15.5770  -20.5268   17.1598 N   0  3  0  0  0  0  0  0  0  0  0  0
  -22.5957  -14.8774   20.9677 O   0  0  0  0  0  0  0  0  0  0  0  0
  -22.1788  -19.2006   22.3075 O   0  0  0  0  0  0  0  0  0  0  0  0
  -18.1000  -19.8495   22.4915 O   0  0  0  0  0  0  0  0  0  0  0  0
  -17.7366  -18.8661   17.8632 O   0  0  0  0  0  0  0  0  0  0  0  0
  -31.8066  -14.8366   19.7851 O   0  0  0  0  0  0  0  0  0  0  0  0
  -21.7033   -7.8025   24.0880 O   0  0  0  0  0  0  0  0  0  0  0  0
  -24.2305  -20.5317   16.6769 O   0  0  0  0  0  0  0  0  0  1  0  0
  -22.0427   -2.6820   22.0709 F   0  0  0  0  0  0  0  0  0  0  0  0
  -19.4452   -6.4719   23.2088 F   0  0  0  0  0  0  0  0  0  0  0  0
  1  2  1  0  0  0  0
  1  5  2  0  0  0  0
  2  6  2  0  0  0  0
  3  8  2  0  0  0  0
  3 16  1  0  0  0  0
  4  9  1  0  0  0  0
  4 16  2  0  0  0  0
  5 18  1  0  0  0  0
  6 20  1  0  0  0  0
  7 10  2  0  0  0  0
  7 19  1  0  0  0  0
  8 22  1  0  0  0  0
  9 22  2  0  0  0  0
 10 23  1  0  0  0  0
 11 12  2  0  0  0  0
 11 24  1  0  0  0  0
 12 25  1  0  0  0  0
 13 21  1  0  0  0  0
 13 23  2  0  0  0  0
 14 25  2  0  0  0  0
 14 26  1  0  0  0  0
 15 28  1  0  0  0  0
 15 29  2  0  0  0  0
 16 27  1  0  0  0  0
 17 27  1  0  0  0  0
 17 30  2  0  0  0  0
 17 32  1  0  0  0  0
 18 20  2  0  0  0  0
 18 37  1  0  0  0  0
 19 21  2  0  0  0  0
 19 38  1  0  0  0  0
 20 46  1  0  0  0  0
 21 39  1  0  0  0  0
 22 82  1  0  0  0  0
 23 83  1  0  0  0  0
 24 26  2  0  0  0  0
 24 82  1  0  0  0  0
 25 84  1  0  0  0  0
 26 85  1  0  0  0  0
 27 65  2  0  0  0  0
 28 56  1  0  0  0  0
 28 66  2  0  0  0  0
 29 61  1  0  0  0  0
 29 67  1  0  0  0  0
 30 68  1  0  0  0  0
 30 71  1  0  0  0  0
 31 57  1  0  0  0  0
 31 66  1  0  0  0  0
 31 67  2  0  0  0  0
 32 72  1  0  0  0  0
 32 77  2  0  0  0  0
 33 47  1  0  0  0  0
 33 73  1  0  0  0  0
 33 78  2  0  0  0  0
 34 62  1  0  0  0  0
 34 69  1  0  0  0  0
 34 79  2  0  0  0  0
 35 63  1  0  0  0  0
 35 74  1  0  0  0  0
 35 80  2  0  0  0  0
 36 70  1  0  0  0  0
 36 75  1  0  0  0  0
 36 81  2  0  0  0  0
 37 40  1  0  0  0  0
 38 47  1  0  0  0  0
 39 69  1  0  0  0  0
 40 42  1  0  0  0  0
 41 43  1  0  0  0  0
 41 44  1  0  0  0  0
 42 46  1  0  0  0  0
 43 48  1  0  0  0  0
 44 70  1  0  0  0  0
 45 48  1  0  0  0  0
 45 70  1  0  0  0  0
 46 73  1  0  0  0  0
 47 69  1  0  0  0  0
 48 68  1  0  0  0  0
 49 57  1  0  0  0  0
 50 61  1  0  0  0  0
 51 63  1  0  0  0  0
 52 64  1  0  0  0  0
 53 64  1  0  0  0  0
 54 64  1  0  0  0  0
 55 76  1  0  0  0  0
 56 58  1  0  0  0  0
 58 60  1  0  0  0  0
 59 61  1  0  0  0  0
 59 75  1  0  0  0  0
 60 83  1  0  0  0  0
 62 64  1  0  0  0  0
 62 74  1  0  0  0  0
 63 76  1  0  0  0  0
 65 68  1  0  0  0  0
M  CHG  1  76   1
M  ISO  4  36 100  60 101  75 100  83 101
M  END
> <Batch ID>
0072

> <Smiles>
CCc1nc(CC[101CH2:1][101O:1]c2ccc3c(c2)CN(C(=O)C(NC(=O)C(C)NC)C(C)(C)C)C(C(=O)NC2CCCc4ccccc42)C3)cc(C(C)C[100NH:0][100C:0](=O)N2CCCC(n3nc(-c4ccc(Oc5ccc(F)cc5F)cc4)c(C(N)=O)c3N)C2)n1

> <Shape>
0.170

> <Color>
0.147

> <Negative vol penalty>
0.000

$$$$

  -OEChem-04052318243D

 89 97  0     1  0  0  0  0  0999 V2000
  -18.4146  -25.2498   24.8401 C   0  0  0  0  0  0  0  0  0  0  0  0
  -19.6574  -24.9446   24.2944 C   0  0  0  0  0  0  0  0  0  0  0  0
  -24.5764  -11.9853   19.8338 C   0  0  0  0  0  0  0  0  0  0  0  0
  -25.4997  -12.4978   22.0068 C   0  0  0  0  0  0  0  0  0  0  0  0
  -17.8040  -26.4675   24.5427 C   0  0  0  0  0  0  0  0  0  0  0  0
  -20.2897  -25.8565   23.4499 C   0  0  0  0  0  0  0  0  0  0  0  0
  -26.3093  -26.8848   22.9888 C   0  0  0  0  0  0  0  0  0  0  0  0
  -24.9268  -10.6456   20.0009 C   0  0  0  0  0  0  0  0  0  0  0  0
  -25.8501  -11.1581   22.1739 C   0  0  0  0  0  0  0  0  0  0  0  0
  -27.2717  -26.4328   22.0870 C   0  0  0  0  0  0  0  0  0  0  0  0
  -23.7299   -7.9441   21.6449 C   0  0  0  0  0  0  0  0  0  0  0  0
  -22.7816   -6.9790   21.3062 C   0  0  0  0  0  0  0  0  0  0  0  0
  -29.8880  -22.6829   16.2658 C   0  0  0  0  0  0  0  0  0  0  0  0
  -27.0116  -28.4586   20.8033 C   0  0  0  0  0  0  0  0  0  0  0  0
  -24.3030   -6.0579   19.6709 C   0  0  0  0  0  0  0  0  0  0  0  0
  -29.4631  -21.5292   16.8781 C   0  0  0  0  0  0  0  0  0  0  0  0
  -24.8629  -12.9114   20.8368 C   0  0  0  0  0  0  0  0  0  0  0  0
  -23.2905  -14.9105   21.0344 C   0  0  0  0  0  0  0  0  0  0  0  0
  -18.4335  -27.3988   23.7019 C   0  0  0  0  0  0  0  0  0  0  0  0
  -25.6819  -28.1243   22.7983 C   0  0  0  0  0  0  0  0  0  0  0  0
  -19.6863  -27.0871   23.1399 C   0  0  0  0  0  0  0  0  0  0  0  0
  -26.0434  -28.9252   21.7056 C   0  0  0  0  0  0  0  0  0  0  0  0
  -25.5636  -10.2319   21.1709 C   0  0  0  0  0  0  0  0  0  0  0  0
  -27.6209  -27.2184   20.9925 C   0  0  0  0  0  0  0  0  0  0  0  0
  -24.9647   -7.9663   20.9965 C   0  0  0  0  0  0  0  0  0  0  0  0
  -23.0681   -6.0358   20.3192 C   0  0  0  0  0  0  0  0  0  0  0  0
  -25.2513   -7.0232   20.0096 C   0  0  0  0  0  0  0  0  0  0  0  0
  -24.5017  -14.2956   20.6645 C   0  0  0  0  0  0  0  0  0  0  0  0
  -30.4924  -23.4265   17.2971 C   0  0  0  0  0  0  0  0  0  0  0  0
  -23.4437  -16.2232   20.6606 C   0  0  0  0  0  0  0  0  0  0  0  0
  -22.1307  -14.3456   21.6600 C   0  0  0  0  0  0  0  0  0  0  0  0
  -22.6886  -29.0701   22.2991 C   0  0  0  0  0  0  0  0  0  0  0  0
  -23.9880  -32.0285   22.5846 C   0  0  0  0  0  0  0  0  0  0  0  0
  -27.8447  -20.0375   20.9627 C   0  0  0  0  0  0  0  0  0  0  0  0
  -26.7584  -34.0095   22.3662 C   0  0  0  0  0  0  0  0  0  0  0  0
  -17.7130  -28.6819   23.3716 C   0  0  0  0  0  0  0  0  0  0  0  0
  -24.6650  -28.6094   23.7948 C   0  0  0  0  0  0  0  0  0  0  0  0
  -25.4141  -30.2726   21.4673 C   0  0  0  0  0  0  0  0  0  0  0  0
  -18.6193  -29.7512   22.7673 C   0  0  0  0  0  0  0  0  0  0  0  0
  -26.9130  -18.4973   17.7696 C   0  0  0  0  0  0  0  0  0  0  0  0
  -19.4973  -29.1511   21.6737 C   0  0  0  0  0  0  0  0  0  0  0  0
  -26.3119  -17.2278   18.3816 C   0  0  0  0  0  0  0  0  0  0  0  0
  -26.8020  -19.7281   18.6688 C   0  0  0  0  0  0  0  0  0  0  0  0
  -26.0914  -18.3512   20.6226 C   0  0  0  0  0  0  0  0  0  0  0  0
  -20.4151  -28.0607   22.2394 C   0  0  1  0  0  0  0  0  0  0  0  0
  -23.7190  -29.6593   23.2203 C   0  0  1  0  0  0  0  0  0  0  0  0
  -25.3536  -17.5492   19.5370 C   0  0  2  0  0  0  0  0  0  0  0  0
  -27.5008  -36.3930   22.6210 C   0  0  0  0  0  0  0  0  0  0  0  0
  -30.9306  -20.0863   19.7060 C   0  0  0  0  0  0  0  0  0  0  0  0
  -32.6336  -24.6848   17.6155 C   0  0  0  0  0  0  0  0  0  0  0  0
  -31.1575  -25.3945   15.7555 C   0  0  0  0  0  0  0  0  0  0  0  0
  -27.6629  -22.2298   19.8821 C   0  0  0  0  0  0  0  0  0  0  0  0
  -22.7194  -32.7087   19.8943 C   0  0  0  0  0  0  0  0  0  0  0  0
  -24.2401  -34.6929   19.7575 C   0  0  0  0  0  0  0  0  0  0  0  0
  -22.5732  -34.5263   21.6059 C   0  0  0  0  0  0  0  0  0  0  0  0
  -28.6363  -33.3133   24.5451 C   0  0  0  0  0  0  0  0  0  0  0  0
  -28.9872  -26.1322   17.8379 C   0  0  0  0  0  0  0  0  0  0  0  0
  -30.4617  -25.8429   18.1442 C   0  0  0  0  0  0  0  0  0  0  0  0
  -28.4327  -27.2140   18.7571 C   0  0  0  0  0  0  0  0  0  1  0  0
  -24.6050  -33.0219   21.6299 C   0  0  1  0  0  0  0  0  0  0  0  0
  -27.3302  -35.0494   23.3127 C   0  0  2  0  0  0  0  0  0  0  0  0
  -29.5896  -20.6787   19.2316 C   0  0  1  0  0  0  0  0  0  0  0  0
  -31.1490  -24.8148   17.1907 C   0  0  0  0  0  0  0  0  0  0  0  0
  -28.6604  -21.1724   20.3982 C   0  0  2  0  0  0  0  0  0  0  0  0
  -23.5451  -33.7112   20.7250 C   0  0  0  0  0  0  0  0  0  0  0  0
  -29.4611  -21.8016   21.5500 C   0  0  0  0  0  0  0  0  0  0  0  0
  -25.3609  -15.1477   20.0990 N   0  0  0  0  0  0  0  0  0  0  0  0
  -30.4564  -22.7981   18.4752 N   0  0  0  0  0  0  0  0  0  0  0  0
  -29.8243  -21.6474   18.1879 N   0  0  0  0  0  0  0  0  0  0  0  0
  -24.6887  -16.3113   20.1106 N   0  0  0  0  0  0  0  0  0  0  0  0
  -24.4206  -30.7001   22.4662 N   0  0  0  0  0  0  0  0  0  0  0  0
  -26.9769  -19.3883   20.0829 N   0  0  0  0  0  0  0  0  0  0  0  0
  -22.6336  -17.2992   20.7518 N   0  0  0  0  0  0  0  0  0  0  0  0
  -22.1407  -12.9804   21.9769 N   0  0  0  0  0  0  0  0  0  0  0  0
  -21.5353  -28.6548   22.9370 N   0  0  0  0  0  0  0  0  0  0  0  0
  -25.3835  -33.9453   22.4483 N   0  0  0  0  0  0  0  0  0  0  0  0
  -28.6604  -34.6107   23.8219 N   0  3  0  0  0  0  0  0  0  0  0  0
  -21.1092  -15.0276   21.9150 O   0  0  0  0  0  0  0  0  0  0  0  0
  -22.9219  -28.9989   21.0982 O   0  0  0  0  0  0  0  0  0  0  0  0
  -23.1582  -32.4182   23.4099 O   0  0  0  0  0  0  0  0  0  0  0  0
  -27.9725  -19.7303   22.1510 O   0  0  0  0  0  0  0  0  0  0  0  0
  -27.4608  -33.3253   21.6253 O   0  0  0  0  0  0  0  0  0  0  0  0
  -25.9055   -8.9246   21.3344 O   0  0  0  0  0  0  0  0  0  0  0  0
  -28.5595  -26.7794   20.1103 O   0  0  0  0  0  0  0  0  0  1  0  0
  -22.1579   -5.1081   19.9952 F   0  0  0  0  0  0  0  0  0  0  0  0
  -26.4363   -7.0387   19.3840 F   0  0  0  0  0  0  0  0  0  0  0  0
  -30.2896  -20.8983   22.1251 F   0  0  0  0  0  0  0  0  0  0  0  0
  -28.6383  -22.2640   22.5191 F   0  0  0  0  0  0  0  0  0  0  0  0
  -30.2296  -22.8349   21.1431 F   0  0  0  0  0  0  0  0  0  0  0  0
  1  2  1  0  0  0  0
  1  5  2  0  0  0  0
  2  6  2  0  0  0  0
  3  8  2  0  0  0  0
  3 17  1  0  0  0  0
  4  9  1  0  0  0  0
  4 17  2  0  0  0  0
  5 19  1  0  0  0  0
  6 21  1  0  0  0  0
  7 10  2  0  0  0  0
  7 20  1  0  0  0  0
  8 23  1  0  0  0  0
  9 23  2  0  0  0  0
 10 24  1  0  0  0  0
 11 12  2  0  0  0  0
 11 25  1  0  0  0  0
 12 26  1  0  0  0  0
 13 16  2  0  0  0  0
 13 29  1  0  0  0  0
 14 22  1  0  0  0  0
 14 24  2  0  0  0  0
 15 26  2  0  0  0  0
 15 27  1  0  0  0  0
 16 69  1  0  0  0  0
 17 28  1  0  0  0  0
 18 28  1  0  0  0  0
 18 30  2  0  0  0  0
 18 31  1  0  0  0  0
 19 21  2  0  0  0  0
 19 36  1  0  0  0  0
 20 22  2  0  0  0  0
 20 37  1  0  0  0  0
 21 45  1  0  0  0  0
 22 38  1  0  0  0  0
 23 83  1  0  0  0  0
 24 84  1  0  0  0  0
 25 27  2  0  0  0  0
 25 83  1  0  0  0  0
 26 85  1  0  0  0  0
 27 86  1  0  0  0  0
 28 67  2  0  0  0  0
 29 63  1  0  0  0  0
 29 68  2  0  0  0  0
 30 70  1  0  0  0  0
 30 73  1  0  0  0  0
 31 74  1  0  0  0  0
 31 78  2  0  0  0  0
 32 46  1  0  0  0  0
 32 75  1  0  0  0  0
 32 79  2  0  0  0  0
 33 60  1  0  0  0  0
 33 71  1  0  0  0  0
 33 80  2  0  0  0  0
 34 64  1  0  0  0  0
 34 72  1  0  0  0  0
 34 81  2  0  0  0  0
 35 61  1  0  0  0  0
 35 76  1  0  0  0  0
 35 82  2  0  0  0  0
 36 39  1  0  0  0  0
 37 46  1  0  0  0  0
 38 71  1  0  0  0  0
 39 41  1  0  0  0  0
 40 42  1  0  0  0  0
 40 43  1  0  0  0  0
 41 45  1  0  0  0  0
 42 47  1  0  0  0  0
 43 72  1  0  0  0  0
 44 47  1  0  0  0  0
 44 72  1  0  0  0  0
 45 75  1  0  0  0  0
 46 71  1  0  0  0  0
 47 70  1  0  0  0  0
 48 61  1  0  0  0  0
 49 62  1  0  0  0  0
 50 63  1  0  0  0  0
 51 63  1  0  0  0  0
 52 64  1  0  0  0  0
 53 65  1  0  0  0  0
 54 65  1  0  0  0  0
 55 65  1  0  0  0  0
 56 77  1  0  0  0  0
 57 58  1  0  0  0  0
 57 59  1  0  0  0  0
 58 63  1  0  0  0  0
 59 84  1  0  0  0  0
 60 65  1  0  0  0  0
 60 76  1  0  0  0  0
 61 77  1  0  0  0  0
 62 64  1  0  0  0  0
 62 69  1  0  0  0  0
 64 66  1  0  0  0  0
 66 87  1  0  0  0  0
 66 88  1  0  0  0  0
 66 89  1  0  0  0  0
 67 70  1  0  0  0  0
 68 69  1  0  0  0  0
M  CHG  1  77   1
M  ISO  4  34 100  59 101  64 100  84 101
M  END
> <Batch ID>
0072

> <Smiles>
CNC(C)C(=O)NC(C(=O)N1Cc2cc([101O:1][101CH2:1]CCC(C)(C)c3ccn(C(C)[100C:0](C)([100C:0](=O)N4CCCC(n5nc(-c6ccc(Oc7ccc(F)cc7F)cc6)c(C(N)=O)c5N)C4)C(F)(F)F)n3)ccc2CC1C(=O)NC1CCCc2ccccc21)C(C)(C)C

> <Shape>
0.272

> <Color>
0.100

> <Negative vol penalty>
0.000

$$$$

  -OEChem-04052318243D

 87 95  0     1  0  0  0  0  0999 V2000
  -27.8210  -35.0780   24.0140 C   0  0  0  0  0  0  0  0  0  0  0  0
  -28.0455  -33.7441   23.6887 C   0  0  0  0  0  0  0  0  0  0  0  0
  -23.0278  -11.4895   18.2871 C   0  0  0  0  0  0  0  0  0  0  0  0
  -25.2623  -10.8763   17.6029 C   0  0  0  0  0  0  0  0  0  0  0  0
  -26.5598  -35.4862   24.4460 C   0  0  0  0  0  0  0  0  0  0  0  0
  -27.0091  -32.8174   23.7964 C   0  0  0  0  0  0  0  0  0  0  0  0
  -26.7361  -29.7336   19.7888 C   0  0  0  0  0  0  0  0  0  0  0  0
  -22.5113  -10.8887   17.1392 C   0  0  0  0  0  0  0  0  0  0  0  0
  -24.7458  -10.2754   16.4549 C   0  0  0  0  0  0  0  0  0  0  0  0
  -27.6554  -28.6874   19.7268 C   0  0  0  0  0  0  0  0  0  0  0  0
  -21.8086   -7.7602   16.0661 C   0  0  0  0  0  0  0  0  0  0  0  0
  -20.6862   -6.9446   16.2103 C   0  0  0  0  0  0  0  0  0  0  0  0
  -25.9713  -27.1669   20.5459 C   0  0  0  0  0  0  0  0  0  0  0  0
  -19.4494   -8.3820   14.7132 C   0  0  0  0  0  0  0  0  0  0  0  0
  -28.8768  -21.7429   20.9886 C   0  0  0  0  0  0  0  0  0  0  0  0
  -26.8334  -21.3597   20.2577 C   0  0  0  0  0  0  0  0  0  0  0  0
  -24.4033  -11.4834   18.5190 C   0  0  0  0  0  0  0  0  0  0  0  0
  -25.1550  -11.4992   20.9567 C   0  0  0  0  0  0  0  0  0  0  0  0
  -25.5049  -34.5659   24.5498 C   0  0  0  0  0  0  0  0  0  0  0  0
  -25.4283  -29.5061   20.2410 C   0  0  0  0  0  0  0  0  0  0  0  0
  -25.7329  -33.2135   24.2315 C   0  0  0  0  0  0  0  0  0  0  0  0
  -25.0365  -28.2115   20.6103 C   0  0  0  0  0  0  0  0  0  0  0  0
  -23.3703  -10.2816   16.2231 C   0  0  0  0  0  0  0  0  0  0  0  0
  -27.2739  -27.4043   20.1080 C   0  0  0  0  0  0  0  0  0  0  0  0
  -21.7513   -8.8867   15.2456 C   0  0  0  0  0  0  0  0  0  0  0  0
  -19.5067   -7.2555   15.5338 C   0  0  0  0  0  0  0  0  0  0  0  0
  -20.5718   -9.1976   14.5691 C   0  0  0  0  0  0  0  0  0  0  0  0
  -24.9374  -12.1043   19.7044 C   0  0  0  0  0  0  0  0  0  0  0  0
  -28.1593  -20.9789   21.8786 C   0  0  0  0  0  0  0  0  0  0  0  0
  -25.6711  -12.5037   21.7384 C   0  0  0  0  0  0  0  0  0  0  0  0
  -24.9125  -10.1496   21.3758 C   0  0  0  0  0  0  0  0  0  0  0  0
  -23.6831  -30.5595   22.6799 C   0  0  0  0  0  0  0  0  0  0  0  0
  -21.3209  -28.9006   21.2001 C   0  0  0  0  0  0  0  0  0  0  0  0
  -29.2342  -16.6485   22.3730 C   0  0  0  0  0  0  0  0  0  0  0  0
  -20.4454  -26.3765   19.0765 C   0  0  0  0  0  0  0  0  0  0  0  0
  -24.1716  -35.0453   25.0667 C   0  0  0  0  0  0  0  0  0  0  0  0
  -24.4409  -30.6402   20.2767 C   0  0  0  0  0  0  0  0  0  0  0  0
  -23.6386  -27.9107   21.0836 C   0  0  0  0  0  0  0  0  0  0  0  0
  -23.0274  -34.0720   24.7952 C   0  0  0  0  0  0  0  0  0  0  0  0
  -26.0000  -17.4783   20.9314 C   0  0  0  0  0  0  0  0  0  0  0  0
  -23.4386  -32.6493   25.1609 C   0  0  0  0  0  0  0  0  0  0  0  0
  -25.4674  -16.0952   20.5591 C   0  0  0  0  0  0  0  0  0  0  0  0
  -27.5123  -17.5666   20.7439 C   0  0  0  0  0  0  0  0  0  0  0  0
  -27.7425  -15.1301   21.1117 C   0  0  0  0  0  0  0  0  0  0  0  0
  -24.6274  -32.1832   24.3117 C   0  0  1  0  0  0  0  0  0  0  0  0
  -23.2841  -30.3951   21.2407 C   0  0  1  0  0  0  0  0  0  0  0  0
  -26.2248  -14.9901   21.3159 C   0  0  2  0  0  0  0  0  0  0  0  0
  -29.3199  -20.7740   17.3591 C   0  0  0  0  0  0  0  0  0  0  0  0
  -27.7976  -21.0543   24.3517 C   0  0  0  0  0  0  0  0  0  0  0  0
  -18.4376  -25.2370   18.0928 C   0  0  0  0  0  0  0  0  0  0  0  0
  -30.1670  -18.7016   21.3371 C   0  0  0  0  0  0  0  0  0  0  0  0
  -30.8564  -17.9636   23.6242 C   0  0  0  0  0  0  0  0  0  0  0  0
  -20.8415  -27.4640   23.8489 C   0  0  0  0  0  0  0  0  0  0  0  0
  -19.5378  -25.7334   22.5945 C   0  0  0  0  0  0  0  0  0  0  0  0
  -18.7608  -28.1037   22.6176 C   0  0  0  0  0  0  0  0  0  0  0  0
  -27.1225  -22.8799   17.6976 C   0  0  0  0  0  0  0  0  0  0  0  0
  -21.2454  -27.0930   16.3186 C   0  0  0  0  0  0  0  0  0  0  0  0
  -29.5337  -22.1770   17.9215 C   0  0  0  0  0  0  0  0  0  0  0  0
  -28.7186  -24.2591   19.0752 C   0  0  0  0  0  0  0  0  0  0  0  0
  -28.5351  -18.8728   23.3124 C   0  0  0  0  0  0  0  0  0  0  0  0
  -27.6492  -25.0761   19.8002 C   0  0  0  0  0  0  0  0  0  1  0  0
  -28.5989  -20.4359   23.1729 C   0  0  1  0  0  0  0  0  0  0  0  0
  -20.8062  -27.4830   21.2674 C   0  0  1  0  0  0  0  0  0  0  0  0
  -19.4759  -26.3329   17.9092 C   0  0  2  0  0  0  0  0  0  0  0  0
  -29.6769  -18.0648   22.6414 C   0  0  0  0  0  0  0  0  0  0  0  0
  -20.0135  -27.2017   22.5751 C   0  0  0  0  0  0  0  0  0  0  0  0
  -28.3142  -22.7980   18.6848 C   0  0  1  0  0  0  0  0  0  0  0  0
  -26.8882  -20.7437   21.4177 N   0  0  0  0  0  0  0  0  0  0  0  0
  -25.2865  -13.3935   19.6871 N   0  0  0  0  0  0  0  0  0  0  0  0
  -28.0144  -21.9785   19.9552 N   0  0  0  0  0  0  0  0  0  0  0  0
  -25.7286  -13.6066   20.9381 N   0  0  0  0  0  0  0  0  0  0  0  0
  -22.7114  -29.0540   21.1069 N   0  0  0  0  0  0  0  0  0  0  0  0
  -28.1950  -16.4807   21.4576 N   0  0  0  0  0  0  0  0  0  0  0  0
  -26.0766  -12.5424   23.0255 N   0  0  0  0  0  0  0  0  0  0  0  0
  -24.3792   -9.2469   20.4458 N   0  0  0  0  0  0  0  0  0  0  0  0
  -24.1855  -31.8101   22.9851 N   0  0  0  0  0  0  0  0  0  0  0  0
  -20.0383  -27.2690   20.0455 N   0  0  0  0  0  0  0  0  0  0  0  0
  -20.2084  -26.0779   16.6367 N   0  3  0  0  0  0  0  0  0  0  0  0
  -25.1461   -9.7602   22.5451 O   0  0  0  0  0  0  0  0  0  0  0  0
  -23.5440  -29.6218   23.4564 O   0  0  0  0  0  0  0  0  0  0  0  0
  -20.5182  -29.8370   21.2219 O   0  0  0  0  0  0  0  0  0  0  0  0
  -29.7947  -15.7207   22.9623 O   0  0  0  0  0  0  0  0  0  0  0  0
  -21.4603  -25.6850   19.1256 O   0  0  0  0  0  0  0  0  0  0  0  0
  -22.8667   -9.6950   15.1029 O   0  0  0  0  0  0  0  0  0  0  0  0
  -28.1695  -26.3814   20.0490 O   0  0  0  0  0  0  0  0  0  1  0  0
  -18.4294   -6.4713   15.6711 F   0  0  0  0  0  0  0  0  0  0  0  0
  -20.5111  -10.2779   13.7784 F   0  0  0  0  0  0  0  0  0  0  0  0
  1  2  1  0  0  0  0
  1  5  2  0  0  0  0
  2  6  2  0  0  0  0
  3  8  2  0  0  0  0
  3 17  1  0  0  0  0
  4  9  1  0  0  0  0
  4 17  2  0  0  0  0
  5 19  1  0  0  0  0
  6 21  1  0  0  0  0
  7 10  2  0  0  0  0
  7 20  1  0  0  0  0
  8 23  1  0  0  0  0
  9 23  2  0  0  0  0
 10 24  1  0  0  0  0
 11 12  2  0  0  0  0
 11 25  1  0  0  0  0
 12 26  1  0  0  0  0
 13 22  1  0  0  0  0
 13 24  2  0  0  0  0
 14 26  2  0  0  0  0
 14 27  1  0  0  0  0
 15 29  2  0  0  0  0
 15 70  1  0  0  0  0
 16 68  2  0  0  0  0
 16 70  1  0  0  0  0
 17 28  1  0  0  0  0
 18 28  1  0  0  0  0
 18 30  2  0  0  0  0
 18 31  1  0  0  0  0
 19 21  2  0  0  0  0
 19 36  1  0  0  0  0
 20 22  2  0  0  0  0
 20 37  1  0  0  0  0
 21 45  1  0  0  0  0
 22 38  1  0  0  0  0
 23 84  1  0  0  0  0
 24 85  1  0  0  0  0
 25 27  2  0  0  0  0
 25 84  1  0  0  0  0
 26 86  1  0  0  0  0
 27 87  1  0  0  0  0
 28 69  2  0  0  0  0
 29 62  1  0  0  0  0
 29 68  1  0  0  0  0
 30 71  1  0  0  0  0
 30 74  1  0  0  0  0
 31 75  1  0  0  0  0
 31 79  2  0  0  0  0
 32 46  1  0  0  0  0
 32 76  1  0  0  0  0
 32 80  2  0  0  0  0
 33 63  1  0  0  0  0
 33 72  1  0  0  0  0
 33 81  2  0  0  0  0
 34 65  1  0  0  0  0
 34 73  1  0  0  0  0
 34 82  2  0  0  0  0
 35 64  1  0  0  0  0
 35 77  1  0  0  0  0
 35 83  2  0  0  0  0
 36 39  1  0  0  0  0
 37 46  1  0  0  0  0
 38 72  1  0  0  0  0
 39 41  1  0  0  0  0
 40 42  1  0  0  0  0
 40 43  1  0  0  0  0
 41 45  1  0  0  0  0
 42 47  1  0  0  0  0
 43 73  1  0  0  0  0
 44 47  1  0  0  0  0
 44 73  1  0  0  0  0
 45 76  1  0  0  0  0
 46 72  1  0  0  0  0
 47 71  1  0  0  0  0
 48 58  1  0  0  0  0
 49 62  1  0  0  0  0
 50 64  1  0  0  0  0
 51 65  1  0  0  0  0
 52 65  1  0  0  0  0
 53 66  1  0  0  0  0
 54 66  1  0  0  0  0
 55 66  1  0  0  0  0
 56 67  1  0  0  0  0
 57 78  1  0  0  0  0
 58 67  1  0  0  0  0
 59 61  1  0  0  0  0
 59 67  1  0  0  0  0
 60 62  1  0  0  0  0
 60 65  1  0  0  0  0
 61 85  1  0  0  0  0
 63 66  1  0  0  0  0
 63 77  1  0  0  0  0
 64 78  1  0  0  0  0
 67 70  1  0  0  0  0
 69 71  1  0  0  0  0
M  CHG  1  78   1
M  ISO  4  34 100  61 101  65 100  85 101
M  END
> <Batch ID>
0072

> <Smiles>
CCC(C)(C[101CH2:1][101O:1]c1ccc2c(c1)CN(C(=O)C(NC(=O)C(C)NC)C(C)(C)C)C(C(=O)NC1CCCc3ccccc31)C2)n1cnc(C(C)C[100C:0](C)(C)[100C:0](=O)N2CCCC(n3nc(-c4ccc(Oc5ccc(F)cc5F)cc4)c(C(N)=O)c3N)C2)c1

> <Shape>
0.260

> <Color>
0.065

> <Negative vol penalty>
0.000

$$$$

  -OEChem-04052318243D

 88 96  0     1  0  0  0  0  0999 V2000
  -32.2567  -26.7239   19.5273 C   0  0  0  0  0  0  0  0  0  0  0  0
  -31.0051  -26.5455   18.9469 C   0  0  0  0  0  0  0  0  0  0  0  0
  -25.8362  -19.6425   20.6380 C   0  0  0  0  0  0  0  0  0  0  0  0
  -27.7396  -18.8134   21.8735 C   0  0  0  0  0  0  0  0  0  0  0  0
  -32.3556  -27.1128   20.8626 C   0  0  0  0  0  0  0  0  0  0  0  0
  -29.8515  -26.7549   19.7017 C   0  0  0  0  0  0  0  0  0  0  0  0
  -23.0986  -29.0566   19.0561 C   0  0  0  0  0  0  0  0  0  0  0  0
  -26.6468  -20.6035   20.0339 C   0  0  0  0  0  0  0  0  0  0  0  0
  -28.5503  -19.7743   21.2694 C   0  0  0  0  0  0  0  0  0  0  0  0
  -21.7937  -28.6627   19.3493 C   0  0  0  0  0  0  0  0  0  0  0  0
  -29.1894  -23.0752   21.6256 C   0  0  0  0  0  0  0  0  0  0  0  0
  -30.0750  -23.7807   22.4401 C   0  0  0  0  0  0  0  0  0  0  0  0
  -22.0857  -29.4098   21.6243 C   0  0  0  0  0  0  0  0  0  0  0  0
  -31.9337  -22.9482   21.1403 C   0  0  0  0  0  0  0  0  0  0  0  0
  -17.8562  -19.4276   24.4196 C   0  0  0  0  0  0  0  0  0  0  0  0
  -26.3825  -18.7474   21.5578 C   0  0  0  0  0  0  0  0  0  0  0  0
  -25.2798  -16.4527   21.7184 C   0  0  0  0  0  0  0  0  0  0  0  0
  -31.2026  -27.3365   21.6314 C   0  0  0  0  0  0  0  0  0  0  0  0
  -23.9118  -29.6210   20.0494 C   0  0  0  0  0  0  0  0  0  0  0  0
  -29.9350  -27.1459   21.0489 C   0  0  0  0  0  0  0  0  0  0  0  0
  -23.3997  -29.8124   21.3406 C   0  0  0  0  0  0  0  0  0  0  0  0
  -28.0039  -20.6694   20.3496 C   0  0  0  0  0  0  0  0  0  0  0  0
  -21.2881  -28.8366   20.6343 C   0  0  0  0  0  0  0  0  0  0  0  0
  -29.6759  -22.3061   20.5684 C   0  0  0  0  0  0  0  0  0  0  0  0
  -31.4472  -23.7173   22.1974 C   0  0  0  0  0  0  0  0  0  0  0  0
  -31.0480  -22.2427   20.3258 C   0  0  0  0  0  0  0  0  0  0  0  0
  -25.5455  -17.7549   22.1826 C   0  0  0  0  0  0  0  0  0  0  0  0
  -16.8167  -20.3326   24.3512 C   0  0  0  0  0  0  0  0  0  0  0  0
  -18.7321  -19.6028   25.4715 C   0  0  0  0  0  0  0  0  0  0  0  0
  -24.4360  -15.9177   22.6609 C   0  0  0  0  0  0  0  0  0  0  0  0
  -17.5571  -21.4005   26.2162 C   0  0  0  0  0  0  0  0  0  0  0  0
  -25.7534  -15.7862   20.5406 C   0  0  0  0  0  0  0  0  0  0  0  0
  -26.6575  -28.8088   21.4298 C   0  0  0  0  0  0  0  0  0  0  0  0
  -26.3599  -31.7159   22.8380 C   0  0  0  0  0  0  0  0  0  0  0  0
  -24.3101  -34.2546   23.8378 C   0  0  0  0  0  0  0  0  0  0  0  0
  -20.7770  -18.7848   26.6310 C   0  0  0  0  0  0  0  0  0  0  0  0
  -31.3600  -27.7100   23.0841 C   0  0  0  0  0  0  0  0  0  0  0  0
  -25.3083  -30.0653   19.7102 C   0  0  0  0  0  0  0  0  0  0  0  0
  -24.2252  -30.4322   22.4373 C   0  0  0  0  0  0  0  0  0  0  0  0
  -30.0870  -28.2750   23.7091 C   0  0  0  0  0  0  0  0  0  0  0  0
  -23.3238  -16.2008   27.2994 C   0  0  0  0  0  0  0  0  0  0  0  0
  -28.8843  -27.4103   23.3449 C   0  0  0  0  0  0  0  0  0  0  0  0
  -24.1940  -16.2477   26.0446 C   0  0  0  0  0  0  0  0  0  0  0  0
  -22.6958  -17.5574   27.6048 C   0  0  0  0  0  0  0  0  0  0  0  0
  -22.7938  -18.1787   25.2101 C   0  0  0  0  0  0  0  0  0  0  0  0
  -28.6604  -27.3874   21.8280 C   0  0  1  0  0  0  0  0  0  0  0  0
  -26.2192  -30.1566   20.9305 C   0  0  1  0  0  0  0  0  0  0  0  0
  -23.4062  -16.8162   24.8516 C   0  0  1  0  0  0  0  0  0  0  0  0
  -17.3900  -22.4950   27.2153 C   0  0  0  0  0  0  0  0  0  0  0  0
  -24.3521  -36.4809   24.9951 C   0  0  0  0  0  0  0  0  0  0  0  0
  -26.6999  -30.3101   25.5246 C   0  0  0  0  0  0  0  0  0  0  0  0
  -25.8000  -32.3656   26.6352 C   0  0  0  0  0  0  0  0  0  0  0  0
  -27.9185  -32.4847   25.3235 C   0  0  0  0  0  0  0  0  0  0  0  0
  -19.8298  -17.4761   24.7442 C   0  0  0  0  0  0  0  0  0  0  0  0
  -23.2352  -35.6435   21.4557 C   0  0  0  0  0  0  0  0  0  0  0  0
  -15.5612  -25.4207   21.3795 C   0  0  0  0  0  0  0  0  0  0  0  0
  -15.8086  -20.2237   23.2351 C   0  0  0  0  0  0  0  0  0  0  0  0
  -16.1834  -21.0226   21.9816 C   0  0  0  0  0  0  0  0  0  0  0  0
  -16.4032  -22.5121   22.2631 C   0  0  0  0  0  0  0  0  0  0  0  0
  -18.4667  -26.6250   21.0530 C   0  0  0  0  0  0  0  0  0  0  0  0
  -16.7398  -23.2633   20.9829 C   0  0  0  0  0  0  0  0  0  0  0  0
  -17.8416  -25.4131   20.3787 C   0  0  0  0  0  0  0  0  0  0  0  0
  -19.4846  -27.3532   20.1838 C   0  0  0  0  0  0  0  0  0  1  0  0
  -25.7184  -32.2298   24.1042 C   0  0  1  0  0  0  0  0  0  0  0  0
  -24.4082  -35.7587   23.6579 C   0  0  2  0  0  0  0  0  0  0  0  0
  -26.5190  -31.8341   25.3770 C   0  0  0  0  0  0  0  0  0  0  0  0
  -24.9209  -18.0305   23.3306 N   0  0  0  0  0  0  0  0  0  0  0  0
  -16.6361  -21.3351   25.2359 N   0  0  0  0  0  0  0  0  0  0  0  0
  -18.6123  -20.5823   26.3916 N   0  0  0  0  0  0  0  0  0  0  0  0
  -24.2544  -16.8941   23.5957 N   0  0  0  0  0  0  0  0  0  0  0  0
  -25.5867  -30.8445   22.0579 N   0  0  0  0  0  0  0  0  0  0  0  0
  -21.9918  -18.0961   26.4404 N   0  0  0  0  0  0  0  0  0  0  0  0
  -23.8391  -14.7121   22.7729 N   0  0  0  0  0  0  0  0  0  0  0  0
  -26.6139  -16.4813   19.6800 N   0  0  0  0  0  0  0  0  0  0  0  0
  -28.0248  -28.6124   21.3924 N   0  0  0  0  0  0  0  0  0  0  0  0
  -25.5551  -33.6683   23.9243 N   0  0  0  0  0  0  0  0  0  0  0  0
  -19.8347  -18.6776   25.5852 N   0  0  0  0  0  0  0  0  0  0  0  0
  -23.2872  -36.2531   22.8094 N   0  3  0  0  0  0  0  0  0  0  0  0
  -16.9018  -24.7308   21.2989 N   0  3  1  0  0  0  0  0  0  0  0  0
  -25.4103  -14.6149   20.2513 O   0  0  0  0  0  0  0  0  0  0  0  0
  -25.8175  -28.0071   21.8213 O   0  0  0  0  0  0  0  0  0  0  0  0
  -27.5023  -32.0800   22.5480 O   0  0  0  0  0  0  0  0  0  0  0  0
  -23.2363  -33.6597   23.8995 O   0  0  0  0  0  0  0  0  0  0  0  0
  -20.5423  -19.4197   27.6661 O   0  0  0  0  0  0  0  0  0  0  0  0
  -28.7953  -21.6068   19.7602 O   0  0  0  0  0  0  0  0  0  0  0  0
  -20.0150  -28.4524   20.9233 O   0  0  0  0  0  0  0  0  0  1  0  0
  -32.2974  -24.3961   22.9788 F   0  0  0  0  0  0  0  0  0  0  0  0
  -31.5213  -21.5065   19.3109 F   0  0  0  0  0  0  0  0  0  0  0  0
  1  2  1  0  0  0  0
  1  5  2  0  0  0  0
  2  6  2  0  0  0  0
  3  8  2  0  0  0  0
  3 16  1  0  0  0  0
  4  9  1  0  0  0  0
  4 16  2  0  0  0  0
  5 18  1  0  0  0  0
  6 20  1  0  0  0  0
  7 10  2  0  0  0  0
  7 19  1  0  0  0  0
  8 22  1  0  0  0  0
  9 22  2  0  0  0  0
 10 23  1  0  0  0  0
 11 12  2  0  0  0  0
 11 24  1  0  0  0  0
 12 25  1  0  0  0  0
 13 21  1  0  0  0  0
 13 23  2  0  0  0  0
 14 25  2  0  0  0  0
 14 26  1  0  0  0  0
 15 28  1  0  0  0  0
 15 29  2  0  0  0  0
 16 27  1  0  0  0  0
 17 27  1  0  0  0  0
 17 30  2  0  0  0  0
 17 32  1  0  0  0  0
 18 20  2  0  0  0  0
 18 37  1  0  0  0  0
 19 21  2  0  0  0  0
 19 38  1  0  0  0  0
 20 46  1  0  0  0  0
 21 39  1  0  0  0  0
 22 85  1  0  0  0  0
 23 86  1  0  0  0  0
 24 26  2  0  0  0  0
 24 85  1  0  0  0  0
 25 87  1  0  0  0  0
 26 88  1  0  0  0  0
 27 67  2  0  0  0  0
 28 57  1  0  0  0  0
 28 68  2  0  0  0  0
 29 69  1  0  0  0  0
 29 77  1  0  0  0  0
 30 70  1  0  0  0  0
 30 73  1  0  0  0  0
 31 49  1  0  0  0  0
 31 68  1  0  0  0  0
 31 69  2  0  0  0  0
 32 74  1  0  0  0  0
 32 80  2  0  0  0  0
 33 47  1  0  0  0  0
 33 75  1  0  0  0  0
 33 81  2  0  0  0  0
 34 64  1  0  0  0  0
 34 71  1  0  0  0  0
 34 82  2  0  0  0  0
 35 65  1  0  0  0  0
 35 76  1  0  0  0  0
 35 83  2  0  0  0  0
 36 72  1  0  0  0  0
 36 77  1  0  0  0  0
 36 84  2  0  0  0  0
 37 40  1  0  0  0  0
 38 47  1  0  0  0  0
 39 71  1  0  0  0  0
 40 42  1  0  0  0  0
 41 43  1  0  0  0  0
 41 44  1  0  0  0  0
 42 46  1  0  0  0  0
 43 48  1  0  0  0  0
 44 72  1  0  0  0  0
 45 48  1  0  0  0  0
 45 72  1  0  0  0  0
 46 75  1  0  0  0  0
 47 71  1  0  0  0  0
 48 70  1  0  0  0  0
 50 65  1  0  0  0  0
 51 66  1  0  0  0  0
 52 66  1  0  0  0  0
 53 66  1  0  0  0  0
 54 77  1  0  0  0  0
 55 78  1  0  0  0  0
 56 79  1  0  0  0  0
 57 58  1  0  0  0  0
 58 59  1  0  0  0  0
 59 61  1  0  0  0  0
 60 62  1  0  0  0  0
 60 63  1  0  0  0  0
 61 79  1  0  0  0  0
 62 79  1  0  0  0  0
 63 86  1  0  0  0  0
 64 66  1  0  0  0  0
 64 76  1  0  0  0  0
 65 78  1  0  0  0  0
 67 70  1  0  0  0  0
M  CHG  2  78   1  79   1
M  ISO  4  36 100  63 101  77 100  86 101
M  END
> <Batch ID>
0072

> <Smiles>
CNC(C)C(=O)NC(C(=O)N1Cc2cc([101O:1][101CH2:1]CCN(C)CCCCc3cc([100N:0](C)[100C:0](=O)N4CCCC(n5nc(-c6ccc(Oc7ccc(F)cc7F)cc6)c(C(N)=O)c5N)C4)nc(C)n3)ccc2CC1C(=O)NC1CCCc2ccccc21)C(C)(C)C

> <Shape>
0.228

> <Color>
0.070

> <Negative vol penalty>
0.000

$$$$

  -OEChem-04052318243D

 85 93  0     1  0  0  0  0  0999 V2000
  -18.4761  -24.2164   21.5647 C   0  0  0  0  0  0  0  0  0  0  0  0
  -19.5470  -24.5122   20.7274 C   0  0  0  0  0  0  0  0  0  0  0  0
  -29.3555  -13.2144   18.7379 C   0  0  0  0  0  0  0  0  0  0  0  0
  -29.5062  -13.3239   21.1467 C   0  0  0  0  0  0  0  0  0  0  0  0
  -18.0341  -25.1615   22.4896 C   0  0  0  0  0  0  0  0  0  0  0  0
  -20.1758  -25.7538   20.8137 C   0  0  0  0  0  0  0  0  0  0  0  0
  -26.1279  -26.9317   19.9822 C   0  0  0  0  0  0  0  0  0  0  0  0
  -29.9472  -11.9515   18.7583 C   0  0  0  0  0  0  0  0  0  0  0  0
  -30.0980  -12.0609   21.1671 C   0  0  0  0  0  0  0  0  0  0  0  0
  -26.8443  -27.4164   18.8888 C   0  0  0  0  0  0  0  0  0  0  0  0
  -31.3192   -8.7118   21.8814 C   0  0  0  0  0  0  0  0  0  0  0  0
  -30.8613   -7.7955   22.8281 C   0  0  0  0  0  0  0  0  0  0  0  0
  -26.7170  -29.6458   19.8014 C   0  0  0  0  0  0  0  0  0  0  0  0
  -28.6437   -7.9217   21.8777 C   0  0  0  0  0  0  0  0  0  0  0  0
  -30.4811  -24.3993   19.5140 C   0  0  0  0  0  0  0  0  0  0  0  0
  -29.1350  -13.9007   19.9321 C   0  0  0  0  0  0  0  0  0  0  0  0
  -27.1501  -15.5022   19.9844 C   0  0  0  0  0  0  0  0  0  0  0  0
  -18.6640  -26.4117   22.5940 C   0  0  0  0  0  0  0  0  0  0  0  0
  -25.6904  -27.8036   20.9896 C   0  0  0  0  0  0  0  0  0  0  0  0
  -19.7410  -26.7170   21.7399 C   0  0  0  0  0  0  0  0  0  0  0  0
  -25.9974  -29.1693   20.9078 C   0  0  0  0  0  0  0  0  0  0  0  0
  -30.3184  -11.3747   19.9728 C   0  0  0  0  0  0  0  0  0  0  0  0
  -27.1365  -28.7741   18.7968 C   0  0  0  0  0  0  0  0  0  0  0  0
  -30.4393   -9.2332   20.9328 C   0  0  0  0  0  0  0  0  0  0  0  0
  -29.5236   -7.4005   22.8262 C   0  0  0  0  0  0  0  0  0  0  0  0
  -29.1016   -8.8381   20.9310 C   0  0  0  0  0  0  0  0  0  0  0  0
  -28.5243  -15.2055   19.9117 C   0  0  0  0  0  0  0  0  0  0  0  0
  -29.5813  -23.5646   20.1277 C   0  0  0  0  0  0  0  0  0  0  0  0
  -27.0913  -16.8732   19.9266 C   0  0  0  0  0  0  0  0  0  0  0  0
  -26.0272  -14.6176   20.0945 C   0  0  0  0  0  0  0  0  0  0  0  0
  -22.8526  -28.6713   22.1288 C   0  0  0  0  0  0  0  0  0  0  0  0
  -24.6498  -30.2490   24.3205 C   0  0  0  0  0  0  0  0  0  0  0  0
  -28.9217  -21.7645   21.6594 C   0  0  0  0  0  0  0  0  0  0  0  0
  -27.6360  -31.6954   25.1186 C   0  0  0  0  0  0  0  0  0  0  0  0
  -18.1205  -27.4186   23.5765 C   0  0  0  0  0  0  0  0  0  0  0  0
  -24.9418  -27.2609   22.1760 C   0  0  0  0  0  0  0  0  0  0  0  0
  -25.5681  -30.1438   21.9729 C   0  0  0  0  0  0  0  0  0  0  0  0
  -19.0807  -28.5705   23.8621 C   0  0  0  0  0  0  0  0  0  0  0  0
  -30.6435  -20.2873   18.8169 C   0  0  0  0  0  0  0  0  0  0  0  0
  -19.6596  -29.1180   22.5613 C   0  0  0  0  0  0  0  0  0  0  0  0
  -30.1494  -18.8425   18.8774 C   0  0  0  0  0  0  0  0  0  0  0  0
  -30.8158  -20.8805   20.2128 C   0  0  0  0  0  0  0  0  0  0  0  0
  -29.0901  -19.3559   21.1195 C   0  0  0  0  0  0  0  0  0  0  0  0
  -20.4648  -28.0435   21.8205 C   0  0  1  0  0  0  0  0  0  0  0  0
  -24.1011  -28.3173   22.8863 C   0  0  1  0  0  0  0  0  0  0  0  0
  -28.8742  -18.7307   19.7312 C   0  0  2  0  0  0  0  0  0  0  0  0
  -28.7916  -32.9369   26.9682 C   0  0  0  0  0  0  0  0  0  0  0  0
  -30.8930  -22.9681   22.2797 C   0  0  0  0  0  0  0  0  0  0  0  0
  -23.0925  -32.7713   23.5971 C   0  0  0  0  0  0  0  0  0  0  0  0
  -24.8765  -34.1137   24.7301 C   0  0  0  0  0  0  0  0  0  0  0  0
  -23.5258  -32.4781   26.0427 C   0  0  0  0  0  0  0  0  0  0  0  0
  -26.9694  -27.6543   16.1852 C   0  0  0  0  0  0  0  0  0  0  0  0
  -28.9604  -29.0643   15.6268 C   0  0  0  0  0  0  0  0  0  0  0  0
  -29.7009  -29.5935   25.3962 C   0  0  0  0  0  0  0  0  0  0  0  0
  -29.6948  -26.1889   16.4096 C   0  0  0  0  0  0  0  0  0  0  0  0
  -29.1945  -27.2716   17.3787 C   0  0  0  0  0  0  0  0  0  0  0  0
  -30.6606  -25.1973   17.0715 C   0  0  0  0  0  0  0  0  0  0  0  0
  -28.6146  -24.0635   22.4268 C   0  0  0  0  0  0  0  0  0  0  0  0
  -25.2593  -31.6272   24.4109 C   0  0  1  0  0  0  0  0  0  0  0  0
  -28.5164  -31.5752   26.3494 C   0  0  2  0  0  0  0  0  0  0  0  0
  -29.5215  -23.1423   21.5330 C   0  0  1  0  0  0  0  0  0  0  0  0
  -24.1951  -32.7298   24.6740 C   0  0  0  0  0  0  0  0  0  0  0  0
  -28.2376  -28.3022   16.7423 C   0  0  0  0  0  0  0  0  0  1  0  0
  -29.2837  -16.3001   19.8149 N   0  0  0  0  0  0  0  0  0  0  0  0
  -28.6610  -23.1300   19.2147 N   0  0  0  0  0  0  0  0  0  0  0  0
  -28.9634  -23.6726   18.0403 N   0  0  0  0  0  0  0  0  0  0  0  0
  -30.0551  -24.4332   18.2219 N   0  0  0  0  0  0  0  0  0  0  0  0
  -28.3835  -17.2979   19.8263 N   0  0  0  0  0  0  0  0  0  0  0  0
  -24.8331  -29.5656   23.1100 N   0  0  0  0  0  0  0  0  0  0  0  0
  -29.5884  -20.7294   21.0034 N   0  0  0  0  0  0  0  0  0  0  0  0
  -26.0608  -17.7449   19.9522 N   0  0  0  0  0  0  0  0  0  0  0  0
  -26.2660  -13.2374   20.1416 N   0  0  0  0  0  0  0  0  0  0  0  0
  -21.7652  -27.8747   22.4327 N   0  0  0  0  0  0  0  0  0  0  0  0
  -26.3008  -31.5469   25.4293 N   0  0  0  0  0  0  0  0  0  0  0  0
  -29.1205  -25.4600   22.4301 N   0  3  0  0  0  0  0  0  0  0  0  0
  -29.8208  -30.9482   25.9940 N   0  3  0  0  0  0  0  0  0  0  0  0
  -24.8459  -15.0379   20.1329 O   0  0  0  0  0  0  0  0  0  0  0  0
  -22.8739  -29.5994   21.3289 O   0  0  0  0  0  0  0  0  0  0  0  0
  -24.0397  -29.7928   25.2907 O   0  0  0  0  0  0  0  0  0  0  0  0
  -27.8901  -21.6153   22.3194 O   0  0  0  0  0  0  0  0  0  0  0  0
  -28.0873  -31.9042   23.9947 O   0  0  0  0  0  0  0  0  0  0  0  0
  -30.8956  -10.1422   19.9931 O   0  0  0  0  0  0  0  0  0  0  0  0
  -27.8350  -29.2500   17.7303 O   0  0  0  0  0  0  0  0  0  1  0  0
  -29.0844   -6.5193   23.7345 F   0  0  0  0  0  0  0  0  0  0  0  0
  -28.2519   -9.3346   20.0214 F   0  0  0  0  0  0  0  0  0  0  0  0
  1  2  1  0  0  0  0
  1  5  2  0  0  0  0
  2  6  2  0  0  0  0
  3  8  2  0  0  0  0
  3 16  1  0  0  0  0
  4  9  1  0  0  0  0
  4 16  2  0  0  0  0
  5 18  1  0  0  0  0
  6 20  1  0  0  0  0
  7 10  2  0  0  0  0
  7 19  1  0  0  0  0
  8 22  1  0  0  0  0
  9 22  2  0  0  0  0
 10 23  1  0  0  0  0
 11 12  2  0  0  0  0
 11 24  1  0  0  0  0
 12 25  1  0  0  0  0
 13 21  1  0  0  0  0
 13 23  2  0  0  0  0
 14 25  2  0  0  0  0
 14 26  1  0  0  0  0
 15 28  2  0  0  0  0
 15 67  1  0  0  0  0
 16 27  1  0  0  0  0
 17 27  1  0  0  0  0
 17 29  2  0  0  0  0
 17 30  1  0  0  0  0
 18 20  2  0  0  0  0
 18 35  1  0  0  0  0
 19 21  2  0  0  0  0
 19 36  1  0  0  0  0
 20 44  1  0  0  0  0
 21 37  1  0  0  0  0
 22 82  1  0  0  0  0
 23 83  1  0  0  0  0
 24 26  2  0  0  0  0
 24 82  1  0  0  0  0
 25 84  1  0  0  0  0
 26 85  1  0  0  0  0
 27 64  2  0  0  0  0
 28 61  1  0  0  0  0
 28 65  1  0  0  0  0
 29 68  1  0  0  0  0
 29 71  1  0  0  0  0
 30 72  1  0  0  0  0
 30 77  2  0  0  0  0
 31 45  1  0  0  0  0
 31 73  1  0  0  0  0
 31 78  2  0  0  0  0
 32 59  1  0  0  0  0
 32 69  1  0  0  0  0
 32 79  2  0  0  0  0
 33 61  1  0  0  0  0
 33 70  1  0  0  0  0
 33 80  2  0  0  0  0
 34 60  1  0  0  0  0
 34 74  1  0  0  0  0
 34 81  2  0  0  0  0
 35 38  1  0  0  0  0
 36 45  1  0  0  0  0
 37 69  1  0  0  0  0
 38 40  1  0  0  0  0
 39 41  1  0  0  0  0
 39 42  1  0  0  0  0
 40 44  1  0  0  0  0
 41 46  1  0  0  0  0
 42 70  1  0  0  0  0
 43 46  1  0  0  0  0
 43 70  1  0  0  0  0
 44 73  1  0  0  0  0
 45 69  1  0  0  0  0
 46 68  1  0  0  0  0
 47 60  1  0  0  0  0
 48 61  1  0  0  0  0
 49 62  1  0  0  0  0
 50 62  1  0  0  0  0
 51 62  1  0  0  0  0
 52 63  1  0  0  0  0
 53 63  1  0  0  0  0
 54 76  1  0  0  0  0
 55 56  1  0  0  0  0
 55 57  1  0  0  0  0
 56 63  1  0  0  0  0
 57 67  1  0  0  0  0
 58 61  1  0  0  0  0
 58 75  1  0  0  0  0
 59 62  1  0  0  0  0
 59 74  1  0  0  0  0
 60 76  1  0  0  0  0
 63 83  1  0  0  0  0
 64 68  1  0  0  0  0
 65 66  2  0  0  0  0
 66 67  1  0  0  0  0
M  CHG  2  75   1  76   1
M  ISO  4  33 100  61 100  63 101  83 101
M  END
> <Batch ID>
0072

> <Smiles>
CNC(C)C(=O)NC(C(=O)N1Cc2cc([101O:1][101C:1](C)(C)CCCn3cc([100C:0](C)(CN)[100C:0](=O)N4CCCC(n5nc(-c6ccc(Oc7ccc(F)cc7F)cc6)c(C(N)=O)c5N)C4)nn3)ccc2CC1C(=O)NC1CCCc2ccccc21)C(C)(C)C

> <Shape>
0.307

> <Color>
0.079

> <Negative vol penalty>
0.000

$$$$

  -OEChem-04052318243D

 86 94  0     1  0  0  0  0  0999 V2000
  -29.3944  -23.7841   18.0458 C   0  0  0  0  0  0  0  0  0  0  0  0
  -28.1724  -24.4206   18.2317 C   0  0  0  0  0  0  0  0  0  0  0  0
  -27.9172  -18.4552   19.4821 C   0  0  0  0  0  0  0  0  0  0  0  0
  -26.5642  -16.9439   20.7945 C   0  0  0  0  0  0  0  0  0  0  0  0
  -30.4530  -24.0493   18.9120 C   0  0  0  0  0  0  0  0  0  0  0  0
  -28.0121  -25.3313   19.2766 C   0  0  0  0  0  0  0  0  0  0  0  0
  -23.7850  -27.8440   19.4224 C   0  0  0  0  0  0  0  0  0  0  0  0
  -28.9356  -17.5033   19.4356 C   0  0  0  0  0  0  0  0  0  0  0  0
  -27.5827  -15.9919   20.7480 C   0  0  0  0  0  0  0  0  0  0  0  0
  -22.5708  -27.2567   19.7753 C   0  0  0  0  0  0  0  0  0  0  0  0
  -29.6834  -13.0256   20.6695 C   0  0  0  0  0  0  0  0  0  0  0  0
  -29.3267  -11.7063   20.3909 C   0  0  0  0  0  0  0  0  0  0  0  0
  -22.7141  -28.2833   21.9535 C   0  0  0  0  0  0  0  0  0  0  0  0
  -28.4157  -12.4018   18.2640 C   0  0  0  0  0  0  0  0  0  0  0  0
  -19.4802  -22.9038   25.4335 C   0  0  0  0  0  0  0  0  0  0  0  0
  -26.7315  -18.1756   20.1616 C   0  0  0  0  0  0  0  0  0  0  0  0
  -24.6190  -19.3152   19.2978 C   0  0  0  0  0  0  0  0  0  0  0  0
  -30.3009  -24.9545   19.9753 C   0  0  0  0  0  0  0  0  0  0  0  0
  -24.4794  -28.6480   20.3378 C   0  0  0  0  0  0  0  0  0  0  0  0
  -29.0758  -25.6303   20.1471 C   0  0  0  0  0  0  0  0  0  0  0  0
  -23.9356  -28.8818   21.6089 C   0  0  0  0  0  0  0  0  0  0  0  0
  -28.7683  -16.2716   20.0685 C   0  0  0  0  0  0  0  0  0  0  0  0
  -22.0366  -27.4739   21.0419 C   0  0  0  0  0  0  0  0  0  0  0  0
  -29.4063  -14.0331   19.7454 C   0  0  0  0  0  0  0  0  0  0  0  0
  -28.6928  -11.3943   19.1882 C   0  0  0  0  0  0  0  0  0  0  0  0
  -28.7724  -13.7211   18.5427 C   0  0  0  0  0  0  0  0  0  0  0  0
  -25.6793  -19.1588   20.2104 C   0  0  0  0  0  0  0  0  0  0  0  0
  -18.9325  -22.4310   23.4318 C   0  0  0  0  0  0  0  0  0  0  0  0
  -19.4964  -21.2842   23.9391 C   0  0  0  0  0  0  0  0  0  0  0  0
  -23.9008  -20.3798   19.7850 C   0  0  0  0  0  0  0  0  0  0  0  0
  -24.3106  -18.5651   18.1154 C   0  0  0  0  0  0  0  0  0  0  0  0
  -27.3202  -28.4929   21.7554 C   0  0  0  0  0  0  0  0  0  0  0  0
  -26.4995  -31.4336   22.8513 C   0  0  0  0  0  0  0  0  0  0  0  0
  -24.0228  -33.6568   23.6065 C   0  0  0  0  0  0  0  0  0  0  0  0
  -23.2915  -22.7230   25.2612 C   0  0  0  0  0  0  0  0  0  0  0  0
  -31.4820  -25.2101   20.8780 C   0  0  0  0  0  0  0  0  0  0  0  0
  -25.7748  -29.2960   19.9325 C   0  0  0  0  0  0  0  0  0  0  0  0
  -24.6316  -29.7532   22.6212 C   0  0  0  0  0  0  0  0  0  0  0  0
  -31.0874  -25.8440   22.2080 C   0  0  0  0  0  0  0  0  0  0  0  0
  -24.4221  -24.3977   22.3297 C   0  0  0  0  0  0  0  0  0  0  0  0
  -30.1779  -27.0391   21.9646 C   0  0  0  0  0  0  0  0  0  0  0  0
  -24.7768  -23.2590   21.3718 C   0  0  0  0  0  0  0  0  0  0  0  0
  -24.7667  -24.0470   23.7754 C   0  0  0  0  0  0  0  0  0  0  0  0
  -24.5470  -21.6386   23.3005 C   0  0  0  0  0  0  0  0  0  0  0  0
  -28.8689  -26.6017   21.2951 C   0  0  1  0  0  0  0  0  0  0  0  0
  -26.6493  -29.6791   21.1225 C   0  0  1  0  0  0  0  0  0  0  0  0
  -24.1662  -21.9236   21.8376 C   0  0  2  0  0  0  0  0  0  0  0  0
  -18.6816  -17.7497   22.6170 C   0  0  0  0  0  0  0  0  0  0  0  0
  -23.6594  -35.9656   24.5201 C   0  0  0  0  0  0  0  0  0  0  0  0
  -19.5552  -20.5039   27.3955 C   0  0  0  0  0  0  0  0  0  0  0  0
  -27.0746  -30.4074   25.6666 C   0  0  0  0  0  0  0  0  0  0  0  0
  -25.8154  -32.3756   26.5660 C   0  0  0  0  0  0  0  0  0  0  0  0
  -27.8838  -32.7307   25.2175 C   0  0  0  0  0  0  0  0  0  0  0  0
  -22.7264  -34.5676   21.1067 C   0  0  0  0  0  0  0  0  0  0  0  0
  -18.3664  -22.6681   22.0544 C   0  0  0  0  0  0  0  0  0  0  0  0
  -19.7300  -19.9567   23.3433 C   0  0  0  0  0  0  0  0  0  0  0  0
  -18.4464  -19.1039   23.2671 C   0  0  0  0  0  0  0  0  0  0  0  0
  -19.2837  -23.4885   21.1407 C   0  0  0  0  0  0  0  0  0  0  0  0
  -19.6526  -24.8507   21.7300 C   0  0  0  0  0  0  0  0  0  0  0  0
  -21.8394  -21.2682   26.6520 C   0  0  0  0  0  0  0  0  0  0  0  0
  -20.5307  -25.6521   20.7786 C   0  0  0  0  0  0  0  0  0  1  0  0
  -25.7706  -31.9570   24.0653 C   0  0  1  0  0  0  0  0  0  0  0  0
  -23.8500  -35.1261   23.2664 C   0  0  2  0  0  0  0  0  0  0  0  0
  -20.4730  -20.7371   26.1907 C   0  0  2  0  0  0  0  0  0  0  0  0
  -26.6237  -31.8497   25.3607 C   0  0  0  0  0  0  0  0  0  0  0  0
  -18.9257  -23.4356   24.3668 N   0  0  0  0  0  0  0  0  0  0  0  0
  -25.6421  -20.0526   21.2022 N   0  0  0  0  0  0  0  0  0  0  0  0
  -19.8428  -21.6026   25.2220 N   0  0  0  0  0  0  0  0  0  0  0  0
  -24.5496  -20.7809   20.9156 N   0  0  0  0  0  0  0  0  0  0  0  0
  -25.8986  -30.3594   22.1798 N   0  0  0  0  0  0  0  0  0  0  0  0
  -24.1560  -22.7707   24.1551 N   0  0  0  0  0  0  0  0  0  0  0  0
  -22.7840  -21.0026   19.3522 N   0  0  0  0  0  0  0  0  0  0  0  0
  -25.1530  -17.5030   17.7593 N   0  0  0  0  0  0  0  0  0  0  0  0
  -28.1286  -27.7773   20.8929 N   0  0  0  0  0  0  0  0  0  0  0  0
  -25.3524  -33.3154   23.7361 N   0  0  0  0  0  0  0  0  0  0  0  0
  -22.7508  -21.4757   25.5487 N   0  0  0  0  0  0  0  0  0  0  0  0
  -22.6622  -35.3181   22.3872 N   0  3  0  0  0  0  0  0  0  0  0  0
  -23.3269  -18.8393   17.3870 O   0  0  0  0  0  0  0  0  0  0  0  0
  -27.1205  -28.2461   22.9390 O   0  0  0  0  0  0  0  0  0  0  0  0
  -27.5591  -31.9631   22.5072 O   0  0  0  0  0  0  0  0  0  0  0  0
  -23.0730  -32.8894   23.7471 O   0  0  0  0  0  0  0  0  0  0  0  0
  -23.0174  -23.7193   25.9388 O   0  0  0  0  0  0  0  0  0  0  0  0
  -29.7618  -15.3423   20.0232 O   0  0  0  0  0  0  0  0  0  0  0  0
  -20.8519  -26.9013   21.3891 O   0  0  0  0  0  0  0  0  0  1  0  0
  -28.3517  -10.1271   18.9201 F   0  0  0  0  0  0  0  0  0  0  0  0
  -28.5046  -14.6845   17.6505 F   0  0  0  0  0  0  0  0  0  0  0  0
  1  2  1  0  0  0  0
  1  5  2  0  0  0  0
  2  6  2  0  0  0  0
  3  8  2  0  0  0  0
  3 16  1  0  0  0  0
  4  9  1  0  0  0  0
  4 16  2  0  0  0  0
  5 18  1  0  0  0  0
  6 20  1  0  0  0  0
  7 10  2  0  0  0  0
  7 19  1  0  0  0  0
  8 22  1  0  0  0  0
  9 22  2  0  0  0  0
 10 23  1  0  0  0  0
 11 12  2  0  0  0  0
 11 24  1  0  0  0  0
 12 25  1  0  0  0  0
 13 21  1  0  0  0  0
 13 23  2  0  0  0  0
 14 25  2  0  0  0  0
 14 26  1  0  0  0  0
 15 66  2  0  0  0  0
 15 68  1  0  0  0  0
 16 27  1  0  0  0  0
 17 27  1  0  0  0  0
 17 30  2  0  0  0  0
 17 31  1  0  0  0  0
 18 20  2  0  0  0  0
 18 36  1  0  0  0  0
 19 21  2  0  0  0  0
 19 37  1  0  0  0  0
 20 45  1  0  0  0  0
 21 38  1  0  0  0  0
 22 83  1  0  0  0  0
 23 84  1  0  0  0  0
 24 26  2  0  0  0  0
 24 83  1  0  0  0  0
 25 85  1  0  0  0  0
 26 86  1  0  0  0  0
 27 67  2  0  0  0  0
 28 29  2  0  0  0  0
 28 55  1  0  0  0  0
 28 66  1  0  0  0  0
 29 56  1  0  0  0  0
 29 68  1  0  0  0  0
 30 69  1  0  0  0  0
 30 72  1  0  0  0  0
 31 73  1  0  0  0  0
 31 78  2  0  0  0  0
 32 46  1  0  0  0  0
 32 74  1  0  0  0  0
 32 79  2  0  0  0  0
 33 62  1  0  0  0  0
 33 70  1  0  0  0  0
 33 80  2  0  0  0  0
 34 63  1  0  0  0  0
 34 75  1  0  0  0  0
 34 81  2  0  0  0  0
 35 71  1  0  0  0  0
 35 76  1  0  0  0  0
 35 82  2  0  0  0  0
 36 39  1  0  0  0  0
 37 46  1  0  0  0  0
 38 70  1  0  0  0  0
 39 41  1  0  0  0  0
 40 42  1  0  0  0  0
 40 43  1  0  0  0  0
 41 45  1  0  0  0  0
 42 47  1  0  0  0  0
 43 71  1  0  0  0  0
 44 47  1  0  0  0  0
 44 71  1  0  0  0  0
 45 74  1  0  0  0  0
 46 70  1  0  0  0  0
 47 69  1  0  0  0  0
 48 57  1  0  0  0  0
 49 63  1  0  0  0  0
 50 64  1  0  0  0  0
 51 65  1  0  0  0  0
 52 65  1  0  0  0  0
 53 65  1  0  0  0  0
 54 77  1  0  0  0  0
 55 58  1  0  0  0  0
 56 57  1  0  0  0  0
 58 59  1  0  0  0  0
 59 61  1  0  0  0  0
 60 64  1  0  0  0  0
 60 76  1  0  0  0  0
 61 84  1  0  0  0  0
 62 65  1  0  0  0  0
 62 75  1  0  0  0  0
 63 77  1  0  0  0  0
 64 68  1  0  0  0  0
 67 69  1  0  0  0  0
M  CHG  1  77   1
M  ISO  4  35 100  61 101  76 100  84 101
M  END
> <Batch ID>
0072

> <Smiles>
CCCc1c(CCC[101CH2:1][101O:1]c2ccc3c(c2)CN(C(=O)C(NC(=O)C(C)NC)C(C)(C)C)C(C(=O)NC2CCCc4ccccc42)C3)ncn1C(C)C[100NH:0][100C:0](=O)N1CCCC(n2nc(-c3ccc(Oc4ccc(F)cc4F)cc3)c(C(N)=O)c2N)C1

> <Shape>
0.224

> <Color>
0.059

> <Negative vol penalty>
0.000

$$$$

  -OEChem-04052318243D

 82 90  0     1  0  0  0  0  0999 V2000
  -32.4340  -14.0746   20.0383 C   0  0  0  0  0  0  0  0  0  0  0  0
  -31.6776  -15.0517   20.6756 C   0  0  0  0  0  0  0  0  0  0  0  0
  -29.5880  -23.9172   21.2867 C   0  0  0  0  0  0  0  0  0  0  0  0
  -29.1771  -23.4972   18.9433 C   0  0  0  0  0  0  0  0  0  0  0  0
  -31.7971  -13.0290   19.3734 C   0  0  0  0  0  0  0  0  0  0  0  0
  -30.2844  -14.9771   20.6583 C   0  0  0  0  0  0  0  0  0  0  0  0
  -26.0839  -18.8333   22.8061 C   0  0  0  0  0  0  0  0  0  0  0  0
  -29.6069  -22.5438   21.5296 C   0  0  0  0  0  0  0  0  0  0  0  0
  -29.1961  -22.1238   19.1861 C   0  0  0  0  0  0  0  0  0  0  0  0
  -25.3420  -19.9147   22.3329 C   0  0  0  0  0  0  0  0  0  0  0  0
  -31.5146  -19.7134   19.6711 C   0  0  0  0  0  0  0  0  0  0  0  0
  -32.2366  -18.9106   18.7881 C   0  0  0  0  0  0  0  0  0  0  0  0
  -23.4908  -18.4369   21.8762 C   0  0  0  0  0  0  0  0  0  0  0  0
  -30.2198  -17.6978   18.2416 C   0  0  0  0  0  0  0  0  0  0  0  0
  -23.4739  -26.9054   17.7121 C   0  0  0  0  0  0  0  0  0  0  0  0
  -29.3731  -24.3939   19.9936 C   0  0  0  0  0  0  0  0  0  0  0  0
  -30.4467  -26.6315   19.4034 C   0  0  0  0  0  0  0  0  0  0  0  0
  -30.3952  -12.9491   19.3378 C   0  0  0  0  0  0  0  0  0  0  0  0
  -25.5379  -17.5417   22.8077 C   0  0  0  0  0  0  0  0  0  0  0  0
  -29.6233  -13.9165   20.0128 C   0  0  0  0  0  0  0  0  0  0  0  0
  -24.2270  -17.3412   22.3523 C   0  0  0  0  0  0  0  0  0  0  0  0
  -29.4109  -21.6471   20.4793 C   0  0  0  0  0  0  0  0  0  0  0  0
  -24.0462  -19.7161   21.8652 C   0  0  0  0  0  0  0  0  0  0  0  0
  -30.1451  -19.5084   19.8395 C   0  0  0  0  0  0  0  0  0  0  0  0
  -31.5893  -17.9028   18.0733 C   0  0  0  0  0  0  0  0  0  0  0  0
  -29.4978  -18.5007   19.1247 C   0  0  0  0  0  0  0  0  0  0  0  0
  -29.3529  -25.8125   19.7422 C   0  0  0  0  0  0  0  0  0  0  0  0
  -24.3230  -27.5661   16.8603 C   0  0  0  0  0  0  0  0  0  0  0  0
  -29.9072  -27.8878   19.2720 C   0  0  0  0  0  0  0  0  0  0  0  0
  -31.8269  -26.2874   19.2236 C   0  0  0  0  0  0  0  0  0  0  0  0
  -26.2798  -14.7910   21.3982 C   0  0  0  0  0  0  0  0  0  0  0  0
  -23.8825  -13.6409   23.2563 C   0  0  0  0  0  0  0  0  0  0  0  0
  -24.3340  -29.7500   18.0135 C   0  0  0  0  0  0  0  0  0  0  0  0
  -21.0218  -14.2650   25.0095 C   0  0  0  0  0  0  0  0  0  0  0  0
  -29.7579  -11.7916   18.6101 C   0  0  0  0  0  0  0  0  0  0  0  0
  -26.3417  -16.3900   23.3463 C   0  0  0  0  0  0  0  0  0  0  0  0
  -23.5874  -15.9776   22.3518 C   0  0  0  0  0  0  0  0  0  0  0  0
  -28.2917  -12.0380   18.2698 C   0  0  0  0  0  0  0  0  0  0  0  0
  -26.3255  -30.6187   20.8630 C   0  0  0  0  0  0  0  0  0  0  0  0
  -27.5469  -12.5267   19.5031 C   0  0  0  0  0  0  0  0  0  0  0  0
  -27.4102  -29.5425   20.8844 C   0  0  0  0  0  0  0  0  0  0  0  0
  -24.9925  -30.0583   20.3769 C   0  0  0  0  0  0  0  0  0  0  0  0
  -26.1498  -28.3102   19.0630 C   0  0  0  0  0  0  0  0  0  0  0  0
  -28.1062  -13.8726   19.9813 C   0  0  1  0  0  0  0  0  0  0  0  0
  -25.8710  -15.0365   22.8230 C   0  0  1  0  0  0  0  0  0  0  0  0
  -27.5203  -28.8414   19.5188 C   0  0  2  0  0  0  0  0  0  0  0  0
  -19.2686  -13.1186   26.3913 C   0  0  0  0  0  0  0  0  0  0  0  0
  -23.5803  -29.6486   15.6752 C   0  0  0  0  0  0  0  0  0  0  0  0
  -25.9913  -29.4597   16.2962 C   0  0  0  0  0  0  0  0  0  0  0  0
  -22.6304  -12.5013   20.7179 C   0  0  0  0  0  0  0  0  0  0  0  0
  -20.4879  -12.2230   21.9831 C   0  0  0  0  0  0  0  0  0  0  0  0
  -22.5295  -10.9836   22.7030 C   0  0  0  0  0  0  0  0  0  0  0  0
  -21.6680  -15.8964   27.3927 C   0  0  0  0  0  0  0  0  0  0  0  0
  -23.8852  -23.6712   19.0714 C   0  0  0  0  0  0  0  0  0  0  0  0
  -23.1611  -22.5141   19.7615 C   0  0  0  0  0  0  0  0  0  0  0  0
  -23.0145  -24.3916   18.0357 C   0  0  0  0  0  0  0  0  0  0  0  0
  -24.0439  -21.8459   20.8069 C   0  0  0  0  0  0  0  0  0  1  0  0
  -22.3903  -13.4772   23.0962 C   0  0  1  0  0  0  0  0  0  0  0  0
  -20.5919  -13.8678   26.4102 C   0  0  2  0  0  0  0  0  0  0  0  0
  -24.5508  -29.0099   16.7176 C   0  0  0  0  0  0  0  0  0  0  0  0
  -22.0220  -12.3218   22.1231 C   0  0  0  0  0  0  0  0  0  0  0  0
  -28.2053  -26.4915   19.8211 N   0  0  0  0  0  0  0  0  0  0  0  0
  -24.9988  -26.6601   16.0909 N   0  0  0  0  0  0  0  0  0  0  0  0
  -24.5922  -25.4444   16.4399 N   0  0  0  0  0  0  0  0  0  0  0  0
  -23.6778  -25.5937   17.4120 N   0  0  0  0  0  0  0  0  0  0  0  0
  -28.5751  -27.7503   19.5303 N   0  0  0  0  0  0  0  0  0  0  0  0
  -24.4160  -14.8824   22.8824 N   0  0  0  0  0  0  0  0  0  0  0  0
  -25.1436  -29.3809   19.0879 N   0  0  0  0  0  0  0  0  0  0  0  0
  -30.4472  -29.0856   18.9619 N   0  0  0  0  0  0  0  0  0  0  0  0
  -32.2102  -24.9505   19.3968 N   0  0  0  0  0  0  0  0  0  0  0  0
  -27.5209  -14.1985   21.2630 N   0  0  0  0  0  0  0  0  0  0  0  0
  -21.8502  -13.3199   24.4422 N   0  0  0  0  0  0  0  0  0  0  0  0
  -20.4350  -15.0774   27.2664 N   0  3  0  0  0  0  0  0  0  0  0  0
  -32.6973  -27.1431   18.9345 O   0  0  0  0  0  0  0  0  0  0  0  0
  -25.5245  -15.1137   20.4887 O   0  0  0  0  0  0  0  0  0  0  0  0
  -24.5491  -12.7043   23.7036 O   0  0  0  0  0  0  0  0  0  0  0  0
  -23.4725  -30.6316   18.0665 O   0  0  0  0  0  0  0  0  0  0  0  0
  -20.6561  -15.3074   24.4709 O   0  0  0  0  0  0  0  0  0  0  0  0
  -29.4296  -20.3068   20.7159 O   0  0  0  0  0  0  0  0  0  0  0  0
  -23.3201  -20.7698   21.4021 O   0  0  0  0  0  0  0  0  0  1  0  0
  -32.2825  -17.1330   17.2243 F   0  0  0  0  0  0  0  0  0  0  0  0
  -28.1821  -18.2997   19.2813 F   0  0  0  0  0  0  0  0  0  0  0  0
  1  2  1  0  0  0  0
  1  5  2  0  0  0  0
  2  6  2  0  0  0  0
  3  8  2  0  0  0  0
  3 16  1  0  0  0  0
  4  9  1  0  0  0  0
  4 16  2  0  0  0  0
  5 18  1  0  0  0  0
  6 20  1  0  0  0  0
  7 10  2  0  0  0  0
  7 19  1  0  0  0  0
  8 22  1  0  0  0  0
  9 22  2  0  0  0  0
 10 23  1  0  0  0  0
 11 12  2  0  0  0  0
 11 24  1  0  0  0  0
 12 25  1  0  0  0  0
 13 21  1  0  0  0  0
 13 23  2  0  0  0  0
 14 25  2  0  0  0  0
 14 26  1  0  0  0  0
 15 28  2  0  0  0  0
 15 65  1  0  0  0  0
 16 27  1  0  0  0  0
 17 27  1  0  0  0  0
 17 29  2  0  0  0  0
 17 30  1  0  0  0  0
 18 20  2  0  0  0  0
 18 35  1  0  0  0  0
 19 21  2  0  0  0  0
 19 36  1  0  0  0  0
 20 44  1  0  0  0  0
 21 37  1  0  0  0  0
 22 79  1  0  0  0  0
 23 80  1  0  0  0  0
 24 26  2  0  0  0  0
 24 79  1  0  0  0  0
 25 81  1  0  0  0  0
 26 82  1  0  0  0  0
 27 62  2  0  0  0  0
 28 60  1  0  0  0  0
 28 63  1  0  0  0  0
 29 66  1  0  0  0  0
 29 69  1  0  0  0  0
 30 70  1  0  0  0  0
 30 74  2  0  0  0  0
 31 45  1  0  0  0  0
 31 71  1  0  0  0  0
 31 75  2  0  0  0  0
 32 58  1  0  0  0  0
 32 67  1  0  0  0  0
 32 76  2  0  0  0  0
 33 60  1  0  0  0  0
 33 68  1  0  0  0  0
 33 77  2  0  0  0  0
 34 59  1  0  0  0  0
 34 72  1  0  0  0  0
 34 78  2  0  0  0  0
 35 38  1  0  0  0  0
 36 45  1  0  0  0  0
 37 67  1  0  0  0  0
 38 40  1  0  0  0  0
 39 41  1  0  0  0  0
 39 42  1  0  0  0  0
 40 44  1  0  0  0  0
 41 46  1  0  0  0  0
 42 68  1  0  0  0  0
 43 46  1  0  0  0  0
 43 68  1  0  0  0  0
 44 71  1  0  0  0  0
 45 67  1  0  0  0  0
 46 66  1  0  0  0  0
 47 59  1  0  0  0  0
 48 60  1  0  0  0  0
 49 60  1  0  0  0  0
 50 61  1  0  0  0  0
 51 61  1  0  0  0  0
 52 61  1  0  0  0  0
 53 73  1  0  0  0  0
 54 55  1  0  0  0  0
 54 56  1  0  0  0  0
 55 57  1  0  0  0  0
 56 65  1  0  0  0  0
 57 80  1  0  0  0  0
 58 61  1  0  0  0  0
 58 72  1  0  0  0  0
 59 73  1  0  0  0  0
 62 66  1  0  0  0  0
 63 64  2  0  0  0  0
 64 65  1  0  0  0  0
M  CHG  1  73   1
M  ISO  4  33 100  57 101  60 100  80 101
M  END
> <Batch ID>
0072

> <Smiles>
CNC(C)C(=O)NC(C(=O)N1Cc2cc([101O:1][101CH2:1]CCCn3cc([100C:0](C)(C)[100C:0](=O)N4CCCC(n5nc(-c6ccc(Oc7ccc(F)cc7F)cc6)c(C(N)=O)c5N)C4)nn3)ccc2CC1C(=O)NC1CCCc2ccccc21)C(C)(C)C

> <Shape>
0.211

> <Color>
0.067

> <Negative vol penalty>
0.000

$$$$

  -OEChem-04052318243D

 84 92  0     1  0  0  0  0  0999 V2000
  -17.5107  -32.4160   23.4107 C   0  0  0  0  0  0  0  0  0  0  0  0
  -18.7325  -32.7384   22.8287 C   0  0  0  0  0  0  0  0  0  0  0  0
  -27.0603  -12.5536   19.7497 C   0  0  0  0  0  0  0  0  0  0  0  0
  -24.9142  -13.5027   20.3245 C   0  0  0  0  0  0  0  0  0  0  0  0
  -17.3816  -31.2431   24.1534 C   0  0  0  0  0  0  0  0  0  0  0  0
  -19.8262  -31.8886   22.9901 C   0  0  0  0  0  0  0  0  0  0  0  0
  -25.6769  -29.6041   19.5452 C   0  0  0  0  0  0  0  0  0  0  0  0
  -26.7375  -11.3953   20.4566 C   0  0  0  0  0  0  0  0  0  0  0  0
  -24.5913  -12.3444   21.0315 C   0  0  0  0  0  0  0  0  0  0  0  0
  -27.0530  -29.4754   19.7281 C   0  0  0  0  0  0  0  0  0  0  0  0
  -23.5218   -9.2165   20.3295 C   0  0  0  0  0  0  0  0  0  0  0  0
  -22.2495   -8.6770   20.1403 C   0  0  0  0  0  0  0  0  0  0  0  0
  -26.6916  -27.4366   20.9659 C   0  0  0  0  0  0  0  0  0  0  0  0
  -21.7822   -8.9536   22.4945 C   0  0  0  0  0  0  0  0  0  0  0  0
  -29.5408  -23.3446   19.6011 C   0  0  0  0  0  0  0  0  0  0  0  0
  -27.7142  -24.2607   18.7760 C   0  0  0  0  0  0  0  0  0  0  0  0
  -26.1487  -13.6073   19.6836 C   0  0  0  0  0  0  0  0  0  0  0  0
  -26.2335  -15.0673   17.5935 C   0  0  0  0  0  0  0  0  0  0  0  0
  -18.4717  -30.3737   24.3159 C   0  0  0  0  0  0  0  0  0  0  0  0
  -24.7956  -28.6543   20.0816 C   0  0  0  0  0  0  0  0  0  0  0  0
  -19.7119  -30.7037   23.7367 C   0  0  0  0  0  0  0  0  0  0  0  0
  -25.3049  -27.5543   20.7862 C   0  0  0  0  0  0  0  0  0  0  0  0
  -25.5030  -11.2907   21.0975 C   0  0  0  0  0  0  0  0  0  0  0  0
  -27.5604  -28.3930   20.4410 C   0  0  0  0  0  0  0  0  0  0  0  0
  -23.9244   -9.6244   21.6012 C   0  0  0  0  0  0  0  0  0  0  0  0
  -21.3797   -8.5456   21.2228 C   0  0  0  0  0  0  0  0  0  0  0  0
  -23.0545   -9.4930   22.6837 C   0  0  0  0  0  0  0  0  0  0  0  0
  -26.4818  -14.8043   18.9540 C   0  0  0  0  0  0  0  0  0  0  0  0
  -28.4259  -22.9751   20.3159 C   0  0  0  0  0  0  0  0  0  0  0  0
  -26.7363  -16.3293   17.3905 C   0  0  0  0  0  0  0  0  0  0  0  0
  -25.6046  -14.2446   16.6019 C   0  0  0  0  0  0  0  0  0  0  0  0
  -22.4423  -28.7319   22.2168 C   0  0  0  0  0  0  0  0  0  0  0  0
  -27.5739  -20.8395   21.1629 C   0  0  0  0  0  0  0  0  0  0  0  0
  -22.0266  -25.6504   21.2927 C   0  0  0  0  0  0  0  0  0  0  0  0
  -23.3743  -22.8289   19.9253 C   0  0  0  0  0  0  0  0  0  0  0  0
  -18.2966  -29.1410   25.1670 C   0  0  0  0  0  0  0  0  0  0  0  0
  -23.3156  -28.7934   19.8526 C   0  0  0  0  0  0  0  0  0  0  0  0
  -24.4025  -26.4963   21.3648 C   0  0  0  0  0  0  0  0  0  0  0  0
  -19.4036  -28.1072   24.9768 C   0  0  0  0  0  0  0  0  0  0  0  0
  -30.0805  -19.3394   18.9965 C   0  0  0  0  0  0  0  0  0  0  0  0
  -20.7726  -28.7791   25.0083 C   0  0  0  0  0  0  0  0  0  0  0  0
  -29.4194  -18.0086   18.6400 C   0  0  0  0  0  0  0  0  0  0  0  0
  -29.7554  -19.7622   20.4268 C   0  0  0  0  0  0  0  0  0  0  0  0
  -27.6281  -18.4994   20.3614 C   0  0  0  0  0  0  0  0  0  0  0  0
  -20.9149  -29.7950   23.8684 C   0  0  1  0  0  0  0  0  0  0  0  0
  -22.4784  -28.0415   20.8827 C   0  0  1  0  0  0  0  0  0  0  0  0
  -27.9064  -18.0525   18.9165 C   0  0  2  0  0  0  0  0  0  0  0  0
  -22.8003  -20.4585   19.3343 C   0  0  0  0  0  0  0  0  0  0  0  0
  -27.7690  -21.8276   24.0097 C   0  0  0  0  0  0  0  0  0  0  0  0
  -22.2150  -24.8732   24.2372 C   0  0  0  0  0  0  0  0  0  0  0  0
  -22.5907  -22.5052   23.5162 C   0  0  0  0  0  0  0  0  0  0  0  0
  -20.4516  -23.6558   22.9477 C   0  0  0  0  0  0  0  0  0  0  0  0
  -23.9135  -23.2923   17.0524 C   0  0  0  0  0  0  0  0  0  0  0  0
  -30.7948  -26.5171   19.2301 C   0  0  0  0  0  0  0  0  0  0  0  0
  -30.1038  -26.3353   17.8771 C   0  0  0  0  0  0  0  0  0  0  0  0
  -31.0441  -27.9978   19.5317 C   0  0  0  0  0  0  0  0  0  0  0  0
  -29.8913  -24.8540   17.5571 C   0  0  0  0  0  0  0  0  0  0  0  0
  -29.7490  -28.7976   19.6029 C   0  0  0  0  0  0  0  0  0  1  0  0
  -28.3484  -22.0915   21.4892 C   0  0  2  0  0  0  0  0  0  0  0  0
  -22.5731  -24.3167   21.7416 C   0  0  1  0  0  0  0  0  0  0  0  0
  -22.8691  -21.8952   18.8402 C   0  0  2  0  0  0  0  0  0  0  0  0
  -27.7349  -22.7297   22.7774 C   0  0  2  0  0  0  0  0  0  0  0  0
  -21.9747  -23.8585   23.1016 C   0  0  0  0  0  0  0  0  0  0  0  0
  -27.2920  -23.5484   19.7970 N   0  0  0  0  0  0  0  0  0  0  0  0
  -27.0948  -15.8176   19.5716 N   0  0  0  0  0  0  0  0  0  0  0  0
  -29.0690  -24.1677   18.6177 N   0  0  0  0  0  0  0  0  0  0  0  0
  -27.2360  -16.7296   18.5947 N   0  0  0  0  0  0  0  0  0  0  0  0
  -22.9625  -26.6800   21.1195 N   0  0  0  0  0  0  0  0  0  0  0  0
  -28.3059  -19.7647   20.6578 N   0  0  0  0  0  0  0  0  0  0  0  0
  -26.7953  -17.1244   16.3011 N   0  0  0  0  0  0  0  0  0  0  0  0
  -25.1455  -12.9755   16.9800 N   0  0  0  0  0  0  0  0  0  0  0  0
  -21.1769  -29.1170   22.6169 N   0  0  0  0  0  0  0  0  0  0  0  0
  -22.3371  -23.3878   20.6417 N   0  0  0  0  0  0  0  0  0  0  0  0
  -28.5200  -23.9583   23.1143 N   0  3  0  0  0  0  0  0  0  0  0  0
  -23.7717  -21.9419   17.6552 N   0  3  0  0  0  0  0  0  0  0  0  0
  -25.4689  -14.6171   15.4118 O   0  0  0  0  0  0  0  0  0  0  0  0
  -23.4850  -28.9013   22.8379 O   0  0  0  0  0  0  0  0  0  0  0  0
  -26.3545  -20.8203   21.3496 O   0  0  0  0  0  0  0  0  0  0  0  0
  -20.8150  -25.7722   21.0958 O   0  0  0  0  0  0  0  0  0  0  0  0
  -24.5695  -23.0385   20.1205 O   0  0  0  0  0  0  0  0  0  0  0  0
  -25.1876  -10.1605   21.7873 O   0  0  0  0  0  0  0  0  0  0  0  0
  -28.9032  -28.2653   20.6215 O   0  0  0  0  0  0  0  0  0  1  0  0
  -20.1573   -8.0290   21.0407 F   0  0  0  0  0  0  0  0  0  0  0  0
  -23.4352   -9.8843   23.9075 F   0  0  0  0  0  0  0  0  0  0  0  0
  1  2  1  0  0  0  0
  1  5  2  0  0  0  0
  2  6  2  0  0  0  0
  3  8  2  0  0  0  0
  3 17  1  0  0  0  0
  4  9  1  0  0  0  0
  4 17  2  0  0  0  0
  5 19  1  0  0  0  0
  6 21  1  0  0  0  0
  7 10  2  0  0  0  0
  7 20  1  0  0  0  0
  8 23  1  0  0  0  0
  9 23  2  0  0  0  0
 10 24  1  0  0  0  0
 11 12  2  0  0  0  0
 11 25  1  0  0  0  0
 12 26  1  0  0  0  0
 13 22  1  0  0  0  0
 13 24  2  0  0  0  0
 14 26  2  0  0  0  0
 14 27  1  0  0  0  0
 15 29  2  0  0  0  0
 15 66  1  0  0  0  0
 16 64  2  0  0  0  0
 16 66  1  0  0  0  0
 17 28  1  0  0  0  0
 18 28  1  0  0  0  0
 18 30  2  0  0  0  0
 18 31  1  0  0  0  0
 19 21  2  0  0  0  0
 19 36  1  0  0  0  0
 20 22  2  0  0  0  0
 20 37  1  0  0  0  0
 21 45  1  0  0  0  0
 22 38  1  0  0  0  0
 23 81  1  0  0  0  0
 24 82  1  0  0  0  0
 25 27  2  0  0  0  0
 25 81  1  0  0  0  0
 26 83  1  0  0  0  0
 27 84  1  0  0  0  0
 28 65  2  0  0  0  0
 29 59  1  0  0  0  0
 29 64  1  0  0  0  0
 30 67  1  0  0  0  0
 30 70  1  0  0  0  0
 31 71  1  0  0  0  0
 31 76  2  0  0  0  0
 32 46  1  0  0  0  0
 32 72  1  0  0  0  0
 32 77  2  0  0  0  0
 33 59  1  0  0  0  0
 33 69  1  0  0  0  0
 33 78  2  0  0  0  0
 34 60  1  0  0  0  0
 34 68  1  0  0  0  0
 34 79  2  0  0  0  0
 35 61  1  0  0  0  0
 35 73  1  0  0  0  0
 35 80  2  0  0  0  0
 36 39  1  0  0  0  0
 37 46  1  0  0  0  0
 38 68  1  0  0  0  0
 39 41  1  0  0  0  0
 40 42  1  0  0  0  0
 40 43  1  0  0  0  0
 41 45  1  0  0  0  0
 42 47  1  0  0  0  0
 43 69  1  0  0  0  0
 44 47  1  0  0  0  0
 44 69  1  0  0  0  0
 45 72  1  0  0  0  0
 46 68  1  0  0  0  0
 47 67  1  0  0  0  0
 48 61  1  0  0  0  0
 49 62  1  0  0  0  0
 50 63  1  0  0  0  0
 51 63  1  0  0  0  0
 52 63  1  0  0  0  0
 53 75  1  0  0  0  0
 54 55  1  0  0  0  0
 54 56  1  0  0  0  0
 55 57  1  0  0  0  0
 56 58  1  0  0  0  0
 57 66  1  0  0  0  0
 58 82  1  0  0  0  0
 59 62  1  0  0  0  0
 60 63  1  0  0  0  0
 60 73  1  0  0  0  0
 61 75  1  0  0  0  0
 62 74  1  0  0  0  0
 65 67  1  0  0  0  0
M  CHG  2  74   1  75   1
M  ISO  4  33 100  58 101  59 100  82 101
M  END
> <Batch ID>
0072

> <Smiles>
CNC(C)C(=O)NC(C(=O)N1Cc2cc([101O:1][101CH2:1]CCCCn3cnc([100CH:0](C(C)N)[100C:0](=O)N4CCCC(n5nc(-c6ccc(Oc7ccc(F)cc7F)cc6)c(C(N)=O)c5N)C4)c3)ccc2CC1C(=O)NC1CCCc2ccccc21)C(C)(C)C

> <Shape>
0.251

> <Color>
0.076

> <Negative vol penalty>
0.000

$$$$

  -OEChem-04052318243D

 87 95  0     1  0  0  0  0  0999 V2000
  -32.5889  -13.6486   20.3457 C   0  0  0  0  0  0  0  0  0  0  0  0
  -31.9819  -14.8945   20.4669 C   0  0  0  0  0  0  0  0  0  0  0  0
  -29.6869  -23.7074   20.8866 C   0  0  0  0  0  0  0  0  0  0  0  0
  -28.7533  -23.5567   18.6634 C   0  0  0  0  0  0  0  0  0  0  0  0
  -31.8237  -12.5308   20.0160 C   0  0  0  0  0  0  0  0  0  0  0  0
  -30.6093  -15.0235   20.2574 C   0  0  0  0  0  0  0  0  0  0  0  0
  -26.7855  -18.8333   23.1503 C   0  0  0  0  0  0  0  0  0  0  0  0
  -29.6069  -22.3208   21.0143 C   0  0  0  0  0  0  0  0  0  0  0  0
  -28.6734  -22.1700   18.7910 C   0  0  0  0  0  0  0  0  0  0  0  0
  -26.2574  -20.0757   22.8019 C   0  0  0  0  0  0  0  0  0  0  0  0
  -28.5586  -18.5581   18.3923 C   0  0  0  0  0  0  0  0  0  0  0  0
  -28.9865  -17.7812   17.3158 C   0  0  0  0  0  0  0  0  0  0  0  0
  -24.2654  -18.9917   21.9798 C   0  0  0  0  0  0  0  0  0  0  0  0
  -31.1942  -18.7458   17.4973 C   0  0  0  0  0  0  0  0  0  0  0  0
  -24.1809  -25.7673   18.9900 C   0  0  0  0  0  0  0  0  0  0  0  0
  -29.2600  -24.3254   19.7112 C   0  0  0  0  0  0  0  0  0  0  0  0
  -30.4232  -26.5046   19.0741 C   0  0  0  0  0  0  0  0  0  0  0  0
  -30.4394  -12.6444   19.8118 C   0  0  0  0  0  0  0  0  0  0  0  0
  -26.0608  -17.6580   22.9058 C   0  0  0  0  0  0  0  0  0  0  0  0
  -29.8251  -13.9063   19.9233 C   0  0  0  0  0  0  0  0  0  0  0  0
  -24.7854  -17.7358   22.3285 C   0  0  0  0  0  0  0  0  0  0  0  0
  -29.1002  -21.5520   19.9664 C   0  0  0  0  0  0  0  0  0  0  0  0
  -24.9984  -20.1548   22.2139 C   0  0  0  0  0  0  0  0  0  0  0  0
  -29.4484  -19.4289   19.0214 C   0  0  0  0  0  0  0  0  0  0  0  0
  -30.3043  -17.8751   16.8683 C   0  0  0  0  0  0  0  0  0  0  0  0
  -30.7662  -19.5227   18.5739 C   0  0  0  0  0  0  0  0  0  0  0  0
  -29.3419  -25.7579   19.5790 C   0  0  0  0  0  0  0  0  0  0  0  0
  -23.4239  -26.1670   20.0549 C   0  0  0  0  0  0  0  0  0  0  0  0
  -30.0078  -27.8110   19.1590 C   0  0  0  0  0  0  0  0  0  0  0  0
  -23.8486  -27.9486   18.8116 C   0  0  0  0  0  0  0  0  0  0  0  0
  -31.6899  -26.0573   18.5730 C   0  0  0  0  0  0  0  0  0  0  0  0
  -26.5307  -15.0605   21.1349 C   0  0  0  0  0  0  0  0  0  0  0  0
  -23.8227  -14.0445   22.6035 C   0  0  0  0  0  0  0  0  0  0  0  0
  -24.5303  -30.2794   19.2871 C   0  0  0  0  0  0  0  0  0  0  0  0
  -20.9253  -14.8495   24.2172 C   0  0  0  0  0  0  0  0  0  0  0  0
  -29.6616  -11.4160   19.4107 C   0  0  0  0  0  0  0  0  0  0  0  0
  -26.6331  -16.3276   23.3120 C   0  0  0  0  0  0  0  0  0  0  0  0
  -23.9584  -16.5053   22.0635 C   0  0  0  0  0  0  0  0  0  0  0  0
  -28.1517  -11.5714   19.5727 C   0  0  0  0  0  0  0  0  0  0  0  0
  -27.1544  -30.6837   21.6936 C   0  0  0  0  0  0  0  0  0  0  0  0
  -27.6868  -12.9032   18.9921 C   0  0  0  0  0  0  0  0  0  0  0  0
  -28.0965  -29.5177   21.3967 C   0  0  0  0  0  0  0  0  0  0  0  0
  -25.6966  -30.2953   21.4675 C   0  0  0  0  0  0  0  0  0  0  0  0
  -26.3579  -28.5870   19.8042 C   0  0  0  0  0  0  0  0  0  0  0  0
  -28.3347  -14.0821   19.7281 C   0  0  1  0  0  0  0  0  0  0  0  0
  -26.0248  -15.1566   22.5465 C   0  0  1  0  0  0  0  0  0  0  0  0
  -27.8427  -28.9462   19.9905 C   0  0  2  0  0  0  0  0  0  0  0  0
  -20.2077  -29.1173   21.5952 C   0  0  0  0  0  0  0  0  0  0  0  0
  -18.8985  -13.8050   25.2652 C   0  0  0  0  0  0  0  0  0  0  0  0
  -22.4607  -29.8793   18.0123 C   0  0  0  0  0  0  0  0  0  0  0  0
  -24.7190  -29.5685   16.9936 C   0  0  0  0  0  0  0  0  0  0  0  0
  -22.6722  -13.5003   19.8304 C   0  0  0  0  0  0  0  0  0  0  0  0
  -20.3991  -13.3821   20.8730 C   0  0  0  0  0  0  0  0  0  0  0  0
  -22.1599  -11.7439   21.5354 C   0  0  0  0  0  0  0  0  0  0  0  0
  -21.1053  -23.0537   22.2239 C   0  0  0  0  0  0  0  0  0  0  0  0
  -23.1897  -23.3405   23.5879 C   0  0  0  0  0  0  0  0  0  0  0  0
  -21.5655  -15.9924   26.8710 C   0  0  0  0  0  0  0  0  0  0  0  0
  -22.8564  -25.3716   21.2059 C   0  0  0  0  0  0  0  0  0  0  0  0
  -20.9761  -28.2186   20.6403 C   0  0  0  0  0  0  0  0  0  0  0  0
  -23.2285  -23.8864   21.0962 C   0  0  0  0  0  0  0  0  0  0  0  0
  -22.4841  -28.3646   20.8312 C   0  0  0  0  0  0  0  0  0  0  0  0
  -23.0605  -21.4988   21.9070 C   0  0  0  0  0  0  0  0  0  1  0  0
  -22.3453  -14.1437   22.3094 C   0  0  1  0  0  0  0  0  0  0  0  0
  -20.3081  -14.3248   25.5010 C   0  0  2  0  0  0  0  0  0  0  0  0
  -23.8914  -29.3395   18.2960 C   0  0  0  0  0  0  0  0  0  0  0  0
  -21.9103  -13.2157   21.1401 C   0  0  0  0  0  0  0  0  0  0  0  0
  -22.6424  -22.9607   22.2005 C   0  0  0  0  0  0  0  0  0  0  0  0
  -28.3166  -26.5260   19.9569 N   0  0  0  0  0  0  0  0  0  0  0  0
  -23.2340  -27.5211   19.9193 N   0  0  0  0  0  0  0  0  0  0  0  0
  -28.7519  -27.7690   19.6894 N   0  0  0  0  0  0  0  0  0  0  0  0
  -24.4287  -26.8898   18.2373 N   0  3  0  0  0  0  0  0  0  0  0  0
  -24.5641  -15.2273   22.4727 N   0  0  0  0  0  0  0  0  0  0  0  0
  -25.5012  -29.7361   20.1287 N   0  0  0  0  0  0  0  0  0  0  0  0
  -30.5979  -28.9800   18.8312 N   0  0  0  0  0  0  0  0  0  0  0  0
  -31.9536  -24.6809   18.5564 N   0  0  0  0  0  0  0  0  0  0  0  0
  -27.6802  -14.3057   20.9993 N   0  0  0  0  0  0  0  0  0  0  0  0
  -21.6595  -13.8786   23.5695 N   0  0  0  0  0  0  0  0  0  0  0  0
  -20.2452  -15.4058   26.5250 N   0  3  0  0  0  0  0  0  0  0  0  0
  -32.5685  -26.8556   18.1677 O   0  0  0  0  0  0  0  0  0  0  0  0
  -25.9223  -15.6279   20.2351 O   0  0  0  0  0  0  0  0  0  0  0  0
  -24.3000  -12.9592   22.9440 O   0  0  0  0  0  0  0  0  0  0  0  0
  -24.1779  -31.4616   19.3092 O   0  0  0  0  0  0  0  0  0  0  0  0
  -20.7685  -16.0040   23.8260 O   0  0  0  0  0  0  0  0  0  0  0  0
  -29.0222  -20.1988   20.0905 O   0  0  0  0  0  0  0  0  0  0  0  0
  -24.4809  -21.3661   21.8722 O   0  0  0  0  0  0  0  0  0  1  0  0
  -30.7155  -17.1279   15.8354 F   0  0  0  0  0  0  0  0  0  0  0  0
  -31.6259  -20.3566   19.1749 F   0  0  0  0  0  0  0  0  0  0  0  0
  1  2  1  0  0  0  0
  1  5  2  0  0  0  0
  2  6  2  0  0  0  0
  3  8  2  0  0  0  0
  3 16  1  0  0  0  0
  4  9  1  0  0  0  0
  4 16  2  0  0  0  0
  5 18  1  0  0  0  0
  6 20  1  0  0  0  0
  7 10  2  0  0  0  0
  7 19  1  0  0  0  0
  8 22  1  0  0  0  0
  9 22  2  0  0  0  0
 10 23  1  0  0  0  0
 11 12  2  0  0  0  0
 11 24  1  0  0  0  0
 12 25  1  0  0  0  0
 13 21  1  0  0  0  0
 13 23  2  0  0  0  0
 14 25  2  0  0  0  0
 14 26  1  0  0  0  0
 15 28  2  0  0  0  0
 15 71  1  0  0  0  0
 16 27  1  0  0  0  0
 17 27  1  0  0  0  0
 17 29  2  0  0  0  0
 17 31  1  0  0  0  0
 18 20  2  0  0  0  0
 18 36  1  0  0  0  0
 19 21  2  0  0  0  0
 19 37  1  0  0  0  0
 20 45  1  0  0  0  0
 21 38  1  0  0  0  0
 22 84  1  0  0  0  0
 23 85  1  0  0  0  0
 24 26  2  0  0  0  0
 24 84  1  0  0  0  0
 25 86  1  0  0  0  0
 26 87  1  0  0  0  0
 27 68  2  0  0  0  0
 28 58  1  0  0  0  0
 28 69  1  0  0  0  0
 29 70  1  0  0  0  0
 29 74  1  0  0  0  0
 30 65  1  0  0  0  0
 30 69  1  0  0  0  0
 30 71  2  0  0  0  0
 31 75  1  0  0  0  0
 31 79  2  0  0  0  0
 32 46  1  0  0  0  0
 32 76  1  0  0  0  0
 32 80  2  0  0  0  0
 33 63  1  0  0  0  0
 33 72  1  0  0  0  0
 33 81  2  0  0  0  0
 34 65  1  0  0  0  0
 34 73  1  0  0  0  0
 34 82  2  0  0  0  0
 35 64  1  0  0  0  0
 35 77  1  0  0  0  0
 35 83  2  0  0  0  0
 36 39  1  0  0  0  0
 37 46  1  0  0  0  0
 38 72  1  0  0  0  0
 39 41  1  0  0  0  0
 40 42  1  0  0  0  0
 40 43  1  0  0  0  0
 41 45  1  0  0  0  0
 42 47  1  0  0  0  0
 43 73  1  0  0  0  0
 44 47  1  0  0  0  0
 44 73  1  0  0  0  0
 45 76  1  0  0  0  0
 46 72  1  0  0  0  0
 47 70  1  0  0  0  0
 48 59  1  0  0  0  0
 49 64  1  0  0  0  0
 50 65  1  0  0  0  0
 51 65  1  0  0  0  0
 52 66  1  0  0  0  0
 53 66  1  0  0  0  0
 54 66  1  0  0  0  0
 55 67  1  0  0  0  0
 56 67  1  0  0  0  0
 57 78  1  0  0  0  0
 58 60  1  0  0  0  0
 59 61  1  0  0  0  0
 60 67  1  0  0  0  0
 61 69  1  0  0  0  0
 62 67  1  0  0  0  0
 62 85  1  0  0  0  0
 63 66  1  0  0  0  0
 63 77  1  0  0  0  0
 64 78  1  0  0  0  0
 68 70  1  0  0  0  0
M  CHG  2  71   1  78   1
M  ISO  4  34 100  62 101  65 100  85 101
M  END
> <Batch ID>
0072

> <Smiles>
CCCn1c(CCC(C)(C)[101CH2:1][101O:1]c2ccc3c(c2)CN(C(=O)C(NC(=O)C(C)NC)C(C)(C)C)C(C(=O)NC2CCCc4ccccc42)C3)cnc1[100C:0](C)(C)[100C:0](=O)N1CCCC(n2nc(-c3ccc(Oc4ccc(F)cc4F)cc3)c(C(N)=O)c2N)C1

> <Shape>
0.237

> <Color>
0.064

> <Negative vol penalty>
0.000

$$$$

  -OEChem-04052318243D

 84 92  0     1  0  0  0  0  0999 V2000
  -19.4338  -28.2242   23.8862 C   0  0  0  0  0  0  0  0  0  0  0  0
  -19.7291  -26.8936   23.6072 C   0  0  0  0  0  0  0  0  0  0  0  0
  -29.7616  -23.4369   20.5712 C   0  0  0  0  0  0  0  0  0  0  0  0
  -27.3862  -23.0835   20.3075 C   0  0  0  0  0  0  0  0  0  0  0  0
  -19.0459  -29.0815   22.8574 C   0  0  0  0  0  0  0  0  0  0  0  0
  -19.6356  -26.4194   22.2992 C   0  0  0  0  0  0  0  0  0  0  0  0
  -23.5952  -23.5486   20.9859 C   0  0  0  0  0  0  0  0  0  0  0  0
  -29.6099  -24.7619   20.1629 C   0  0  0  0  0  0  0  0  0  0  0  0
  -27.2344  -24.4086   19.8992 C   0  0  0  0  0  0  0  0  0  0  0  0
  -23.6123  -22.2351   21.4532 C   0  0  0  0  0  0  0  0  0  0  0  0
  -27.0734  -27.4572   21.3487 C   0  0  0  0  0  0  0  0  0  0  0  0
  -26.0163  -28.1850   21.8949 C   0  0  0  0  0  0  0  0  0  0  0  0
  -22.8163  -21.4683   19.3090 C   0  0  0  0  0  0  0  0  0  0  0  0
  -25.1086  -28.5272   19.6821 C   0  0  0  0  0  0  0  0  0  0  0  0
  -23.9323  -14.3858   22.2998 C   0  0  0  0  0  0  0  0  0  0  0  0
  -28.6498  -22.5976   20.6435 C   0  0  0  0  0  0  0  0  0  0  0  0
  -28.7339  -20.7302   22.3794 C   0  0  0  0  0  0  0  0  0  0  0  0
  -18.9569  -28.6199   21.5347 C   0  0  0  0  0  0  0  0  0  0  0  0
  -23.1775  -23.8333   19.6779 C   0  0  0  0  0  0  0  0  0  0  0  0
  -19.2449  -27.2710   21.2520 C   0  0  0  0  0  0  0  0  0  0  0  0
  -22.7973  -22.7859   18.8267 C   0  0  0  0  0  0  0  0  0  0  0  0
  -28.3463  -25.2478   19.8268 C   0  0  0  0  0  0  0  0  0  0  0  0
  -23.2201  -21.1950   20.6157 C   0  0  0  0  0  0  0  0  0  0  0  0
  -27.1482  -27.2644   19.9692 C   0  0  0  0  0  0  0  0  0  0  0  0
  -25.0339  -28.7200   21.0616 C   0  0  0  0  0  0  0  0  0  0  0  0
  -26.1658  -27.7994   19.1360 C   0  0  0  0  0  0  0  0  0  0  0  0
  -28.8060  -21.2286   21.0648 C   0  0  0  0  0  0  0  0  0  0  0  0
  -24.3371  -13.8675   21.0954 C   0  0  0  0  0  0  0  0  0  0  0  0
  -28.9486  -19.3800   22.2469 C   0  0  0  0  0  0  0  0  0  0  0  0
  -28.4943  -21.4254   23.6102 C   0  0  0  0  0  0  0  0  0  0  0  0
  -20.8092  -25.5229   18.3972 C   0  0  0  0  0  0  0  0  0  0  0  0
  -22.3282  -24.8162   15.6195 C   0  0  0  0  0  0  0  0  0  0  0  0
  -24.4322  -22.7389   13.9152 C   0  0  0  0  0  0  0  0  0  0  0  0
  -28.0201  -14.5380   19.6320 C   0  0  0  0  0  0  0  0  0  0  0  0
  -18.4876  -29.5723   20.4635 C   0  0  0  0  0  0  0  0  0  0  0  0
  -23.1903  -25.2527   19.1804 C   0  0  0  0  0  0  0  0  0  0  0  0
  -22.3598  -23.0364   17.4074 C   0  0  0  0  0  0  0  0  0  0  0  0
  -18.7753  -29.0843   19.0460 C   0  0  0  0  0  0  0  0  0  0  0  0
  -30.5283  -16.6714   18.2778 C   0  0  0  0  0  0  0  0  0  0  0  0
  -18.3731  -27.6209   18.8933 C   0  0  0  0  0  0  0  0  0  0  0  0
  -30.2938  -18.0070   18.9857 C   0  0  0  0  0  0  0  0  0  0  0  0
  -29.2148  -15.9500   17.9841 C   0  0  0  0  0  0  0  0  0  0  0  0
  -28.1035  -17.0946   19.8626 C   0  0  0  0  0  0  0  0  0  0  0  0
  -19.1790  -26.7254   19.8420 C   0  0  1  0  0  0  0  0  0  0  0  0
  -22.2564  -25.4790   17.9955 C   0  0  1  0  0  0  0  0  0  0  0  0
  -29.4020  -17.8331   20.2298 C   0  0  2  0  0  0  0  0  0  0  0  0
  -25.4540  -22.3969   11.6488 C   0  0  0  0  0  0  0  0  0  0  0  0
  -25.5900  -12.4796   19.3064 C   0  0  0  0  0  0  0  0  0  0  0  0
  -25.0182  -11.4876   21.5075 C   0  0  0  0  0  0  0  0  0  0  0  0
  -19.6699  -23.7309   14.5874 C   0  0  0  0  0  0  0  0  0  0  0  0
  -20.9315  -22.5722   12.7615 C   0  0  0  0  0  0  0  0  0  0  0  0
  -20.9723  -25.0615   12.9178 C   0  0  0  0  0  0  0  0  0  0  0  0
  -27.1776  -23.0340   14.9804 C   0  0  0  0  0  0  0  0  0  0  0  0
  -22.2213  -17.6375   22.5418 C   0  0  0  0  0  0  0  0  0  0  0  0
  -23.6278  -18.2122   22.7174 C   0  0  0  0  0  0  0  0  0  0  0  0
  -22.1381  -16.1430   22.8725 C   0  0  0  0  0  0  0  0  0  0  0  0
  -26.7958  -13.2585   21.3707 C   0  0  0  0  0  0  0  0  0  0  0  0
  -23.6642  -19.7041   22.4145 C   0  0  0  0  0  0  0  0  0  1  0  0
  -22.2513  -23.6920   14.6150 C   0  0  1  0  0  0  0  0  0  0  0  0
  -25.6263  -23.0256   13.0228 C   0  0  2  0  0  0  0  0  0  0  0  0
  -25.3688  -12.8585   20.8228 C   0  0  0  0  0  0  0  0  0  0  0  0
  -20.9626  -23.7593   13.7477 C   0  0  0  0  0  0  0  0  0  0  0  0
  -29.0477  -20.2729   20.1635 N   0  0  0  0  0  0  0  0  0  0  0  0
  -23.6133  -14.4358   20.0841 N   0  0  0  0  0  0  0  0  0  0  0  0
  -22.7632  -15.3007   20.6267 N   0  0  0  0  0  0  0  0  0  0  0  0
  -22.9562  -15.2693   21.9552 N   0  0  0  0  0  0  0  0  0  0  0  0
  -29.1295  -19.1605   20.9130 N   0  0  0  0  0  0  0  0  0  0  0  0
  -22.3834  -24.4418   16.9696 N   0  0  0  0  0  0  0  0  0  0  0  0
  -28.4169  -15.8161   19.2053 N   0  0  0  0  0  0  0  0  0  0  0  0
  -28.9985  -18.3711   23.1425 N   0  0  0  0  0  0  0  0  0  0  0  0
  -28.2938  -22.8119   23.5663 N   0  0  0  0  0  0  0  0  0  0  0  0
  -20.5113  -26.5066   19.3207 N   0  0  0  0  0  0  0  0  0  0  0  0
  -23.4912  -23.7444   13.8479 N   0  0  0  0  0  0  0  0  0  0  0  0
  -27.2718  -14.4998   20.8022 N   0  0  0  0  0  0  0  0  0  0  0  0
  -26.8723  -22.4835   13.6348 N   0  3  0  0  0  0  0  0  0  0  0  0
  -28.4755  -20.8372   24.7179 O   0  0  0  0  0  0  0  0  0  0  0  0
  -20.0209  -24.7243   17.9046 O   0  0  0  0  0  0  0  0  0  0  0  0
  -22.3461  -25.9834   15.2207 O   0  0  0  0  0  0  0  0  0  0  0  0
  -24.3415  -21.7226   14.6004 O   0  0  0  0  0  0  0  0  0  0  0  0
  -28.3156  -13.5068   19.0186 O   0  0  0  0  0  0  0  0  0  0  0  0
  -28.1978  -26.5408   19.4285 O   0  0  0  0  0  0  0  0  0  0  0  0
  -23.2351  -19.9122   21.0695 O   0  0  0  0  0  0  0  0  0  1  0  0
  -24.0180  -29.4177   21.5864 F   0  0  0  0  0  0  0  0  0  0  0  0
  -26.2316  -27.6165   17.8101 F   0  0  0  0  0  0  0  0  0  0  0  0
  1  2  1  0  0  0  0
  1  5  2  0  0  0  0
  2  6  2  0  0  0  0
  3  8  2  0  0  0  0
  3 16  1  0  0  0  0
  4  9  1  0  0  0  0
  4 16  2  0  0  0  0
  5 18  1  0  0  0  0
  6 20  1  0  0  0  0
  7 10  2  0  0  0  0
  7 19  1  0  0  0  0
  8 22  1  0  0  0  0
  9 22  2  0  0  0  0
 10 23  1  0  0  0  0
 11 12  2  0  0  0  0
 11 24  1  0  0  0  0
 12 25  1  0  0  0  0
 13 21  1  0  0  0  0
 13 23  2  0  0  0  0
 14 25  2  0  0  0  0
 14 26  1  0  0  0  0
 15 28  2  0  0  0  0
 15 66  1  0  0  0  0
 16 27  1  0  0  0  0
 17 27  1  0  0  0  0
 17 29  2  0  0  0  0
 17 30  1  0  0  0  0
 18 20  2  0  0  0  0
 18 35  1  0  0  0  0
 19 21  2  0  0  0  0
 19 36  1  0  0  0  0
 20 44  1  0  0  0  0
 21 37  1  0  0  0  0
 22 81  1  0  0  0  0
 23 82  1  0  0  0  0
 24 26  2  0  0  0  0
 24 81  1  0  0  0  0
 25 83  1  0  0  0  0
 26 84  1  0  0  0  0
 27 63  2  0  0  0  0
 28 61  1  0  0  0  0
 28 64  1  0  0  0  0
 29 67  1  0  0  0  0
 29 70  1  0  0  0  0
 30 71  1  0  0  0  0
 30 76  2  0  0  0  0
 31 45  1  0  0  0  0
 31 72  1  0  0  0  0
 31 77  2  0  0  0  0
 32 59  1  0  0  0  0
 32 68  1  0  0  0  0
 32 78  2  0  0  0  0
 33 60  1  0  0  0  0
 33 73  1  0  0  0  0
 33 79  2  0  0  0  0
 34 69  1  0  0  0  0
 34 74  1  0  0  0  0
 34 80  2  0  0  0  0
 35 38  1  0  0  0  0
 36 45  1  0  0  0  0
 37 68  1  0  0  0  0
 38 40  1  0  0  0  0
 39 41  1  0  0  0  0
 39 42  1  0  0  0  0
 40 44  1  0  0  0  0
 41 46  1  0  0  0  0
 42 69  1  0  0  0  0
 43 46  1  0  0  0  0
 43 69  1  0  0  0  0
 44 72  1  0  0  0  0
 45 68  1  0  0  0  0
 46 67  1  0  0  0  0
 47 60  1  0  0  0  0
 48 61  1  0  0  0  0
 49 61  1  0  0  0  0
 50 62  1  0  0  0  0
 51 62  1  0  0  0  0
 52 62  1  0  0  0  0
 53 75  1  0  0  0  0
 54 55  1  0  0  0  0
 54 56  1  0  0  0  0
 55 58  1  0  0  0  0
 56 66  1  0  0  0  0
 57 61  1  0  0  0  0
 57 74  1  0  0  0  0
 58 82  1  0  0  0  0
 59 62  1  0  0  0  0
 59 73  1  0  0  0  0
 60 75  1  0  0  0  0
 63 67  1  0  0  0  0
 64 65  2  0  0  0  0
 65 66  1  0  0  0  0
M  CHG  1  75   1
M  ISO  4  34 100  58 101  74 100  82 101
M  END
> <Batch ID>
0072

> <Smiles>
CNC(C)C(=O)NC(C(=O)N1Cc2cc([101O:1][101CH2:1]CCCn3cc(C(C)(C)C[100NH:0][100C:0](=O)N4CCCC(n5nc(-c6ccc(Oc7ccc(F)cc7F)cc6)c(C(N)=O)c5N)C4)nn3)ccc2CC1C(=O)NC1CCCc2ccccc21)C(C)(C)C

> <Shape>
0.183

> <Color>
0.075

> <Negative vol penalty>
0.000

$$$$

  -OEChem-04052318243D

 84 92  0     1  0  0  0  0  0999 V2000
  -27.7370  -33.2893   25.7792 C   0  0  0  0  0  0  0  0  0  0  0  0
  -27.7805  -31.8990   25.7569 C   0  0  0  0  0  0  0  0  0  0  0  0
  -21.7970  -10.6427   20.9466 C   0  0  0  0  0  0  0  0  0  0  0  0
  -23.5711  -10.0307   22.4682 C   0  0  0  0  0  0  0  0  0  0  0  0
  -26.5855  -33.9563   25.3631 C   0  0  0  0  0  0  0  0  0  0  0  0
  -26.6720  -31.1748   25.3196 C   0  0  0  0  0  0  0  0  0  0  0  0
  -27.9282  -27.4124   22.1713 C   0  0  0  0  0  0  0  0  0  0  0  0
  -21.4737   -9.2959   20.7819 C   0  0  0  0  0  0  0  0  0  0  0  0
  -23.2477   -8.6838   22.3036 C   0  0  0  0  0  0  0  0  0  0  0  0
  -28.4517  -26.2529   22.7417 C   0  0  0  0  0  0  0  0  0  0  0  0
  -22.6570   -5.1059   22.5638 C   0  0  0  0  0  0  0  0  0  0  0  0
  -22.5917   -4.3094   23.7070 C   0  0  0  0  0  0  0  0  0  0  0  0
  -26.2928  -25.1932   22.5540 C   0  0  0  0  0  0  0  0  0  0  0  0
  -20.8480   -5.7267   24.5947 C   0  0  0  0  0  0  0  0  0  0  0  0
  -29.4115  -23.0970   19.9989 C   0  0  0  0  0  0  0  0  0  0  0  0
  -22.8458  -11.0101   21.7897 C   0  0  0  0  0  0  0  0  0  0  0  0
  -22.6623  -13.2889   22.9215 C   0  0  0  0  0  0  0  0  0  0  0  0
  -25.4658  -33.2402   24.9114 C   0  0  0  0  0  0  0  0  0  0  0  0
  -26.5781  -27.4748   21.7974 C   0  0  0  0  0  0  0  0  0  0  0  0
  -25.5040  -31.8328   24.8984 C   0  0  0  0  0  0  0  0  0  0  0  0
  -25.7552  -26.3538   21.9768 C   0  0  0  0  0  0  0  0  0  0  0  0
  -29.5208  -21.9673   20.8319 C   0  0  0  0  0  0  0  0  0  0  0  0
  -22.1989   -8.3164   21.4604 C   0  0  0  0  0  0  0  0  0  0  0  0
  -27.6333  -25.1441   22.9358 C   0  0  0  0  0  0  0  0  0  0  0  0
  -21.8179   -6.2128   22.4361 C   0  0  0  0  0  0  0  0  0  0  0  0
  -21.6871   -4.6198   24.7225 C   0  0  0  0  0  0  0  0  0  0  0  0
  -20.9134   -6.5232   23.4515 C   0  0  0  0  0  0  0  0  0  0  0  0
  -23.1807  -12.4011   21.9598 C   0  0  0  0  0  0  0  0  0  0  0  0
  -29.2808  -20.9020   19.9988 C   0  0  0  0  0  0  0  0  0  0  0  0
  -23.2948  -14.4808   22.6648 C   0  0  0  0  0  0  0  0  0  0  0  0
  -21.6956  -13.0569   23.9546 C   0  0  0  0  0  0  0  0  0  0  0  0
  -24.0878  -29.2458   22.6724 C   0  0  0  0  0  0  0  0  0  0  0  0
  -22.6170  -27.6823   20.2405 C   0  0  0  0  0  0  0  0  0  0  0  0
  -22.4868  -24.9335   18.2220 C   0  0  0  0  0  0  0  0  0  0  0  0
  -28.4139  -15.8626   20.3212 C   0  0  0  0  0  0  0  0  0  0  0  0
  -24.2267  -34.0038   24.5163 C   0  0  0  0  0  0  0  0  0  0  0  0
  -26.0353  -28.7238   21.1589 C   0  0  0  0  0  0  0  0  0  0  0  0
  -24.3040  -26.3627   21.5738 C   0  0  0  0  0  0  0  0  0  0  0  0
  -23.2293  -33.1729   23.7132 C   0  0  0  0  0  0  0  0  0  0  0  0
  -25.2883  -16.9855   19.1203 C   0  0  0  0  0  0  0  0  0  0  0  0
  -23.0216  -31.8102   24.3664 C   0  0  0  0  0  0  0  0  0  0  0  0
  -24.3327  -16.0095   19.8052 C   0  0  0  0  0  0  0  0  0  0  0  0
  -26.5653  -16.2955   18.6369 C   0  0  0  0  0  0  0  0  0  0  0  0
  -26.3120  -14.5544   20.3768 C   0  0  0  0  0  0  0  0  0  0  0  0
  -24.3308  -31.0127   24.4073 C   0  0  1  0  0  0  0  0  0  0  0  0
  -24.5206  -28.8515   21.2887 C   0  0  1  0  0  0  0  0  0  0  0  0
  -25.0477  -15.2338   20.9251 C   0  0  2  0  0  0  0  0  0  0  0  0
  -21.1498  -23.9224   16.3546 C   0  0  0  0  0  0  0  0  0  0  0  0
  -20.4371  -26.9012   22.2274 C   0  0  0  0  0  0  0  0  0  0  0  0
  -19.6734  -25.1600   20.5984 C   0  0  0  0  0  0  0  0  0  0  0  0
  -19.5983  -27.5727   19.9691 C   0  0  0  0  0  0  0  0  0  0  0  0
  -28.7505  -20.7186   17.5493 C   0  0  0  0  0  0  0  0  0  0  0  0
  -29.4763  -16.3344   18.0732 C   0  0  0  0  0  0  0  0  0  0  0  0
  -24.8133  -24.9487   16.3928 C   0  0  0  0  0  0  0  0  0  0  0  0
  -29.8319  -21.9395   22.3070 C   0  0  0  0  0  0  0  0  0  0  0  0
  -29.2487  -19.4503   20.2592 C   0  0  0  0  0  0  0  0  0  0  0  0
  -28.6094  -21.6777   23.1894 C   0  0  0  0  0  0  0  0  0  0  0  0
  -30.5253  -18.6818   19.8388 C   0  0  0  0  0  0  0  0  0  0  0  0
  -30.4859  -17.1884   20.1559 C   0  0  0  0  0  0  0  0  0  0  0  0
  -27.5530  -22.7727   23.0978 C   0  0  0  0  0  0  0  0  0  1  0  0
  -21.8327  -26.3986   20.1142 C   0  0  1  0  0  0  0  0  0  0  0  0
  -22.3416  -24.7947   16.7173 C   0  0  2  0  0  0  0  0  0  0  0  0
  -20.4122  -26.5083   20.7367 C   0  0  0  0  0  0  0  0  0  0  0  0
  -29.1246  -22.7790   18.7338 N   0  0  0  0  0  0  0  0  0  0  0  0
  -24.0736  -12.9797   21.1523 N   0  0  0  0  0  0  0  0  0  0  0  0
  -29.0516  -21.4374   18.7656 N   0  0  0  0  0  0  0  0  0  0  0  0
  -24.1211  -14.2438   21.6060 N   0  0  0  0  0  0  0  0  0  0  0  0
  -23.8185  -27.6094   20.9594 N   0  0  0  0  0  0  0  0  0  0  0  0
  -27.1897  -15.5286   19.7236 N   0  0  0  0  0  0  0  0  0  0  0  0
  -23.2191  -15.6979   23.2438 N   0  0  0  0  0  0  0  0  0  0  0  0
  -21.1453  -11.7738   24.0789 N   0  0  0  0  0  0  0  0  0  0  0  0
  -24.6180  -30.4456   23.1072 N   0  0  0  0  0  0  0  0  0  0  0  0
  -21.8388  -26.0544   18.6965 N   0  0  0  0  0  0  0  0  0  0  0  0
  -29.3635  -16.5135   19.5194 N   0  0  0  0  0  0  0  0  0  0  0  0
  -23.5678  -24.1818   16.1329 N   0  3  0  0  0  0  0  0  0  0  0  0
  -21.3183  -13.9647   24.7337 O   0  0  0  0  0  0  0  0  0  0  0  0
  -23.3279  -28.5164   23.2987 O   0  0  0  0  0  0  0  0  0  0  0  0
  -22.1832  -28.7103   19.7144 O   0  0  0  0  0  0  0  0  0  0  0  0
  -23.1095  -24.1263   18.9084 O   0  0  0  0  0  0  0  0  0  0  0  0
  -28.6501  -15.5876   21.5047 O   0  0  0  0  0  0  0  0  0  0  0  0
  -21.8835   -7.0022   21.3001 O   0  0  0  0  0  0  0  0  0  0  0  0
  -28.1415  -24.0113   23.4929 O   0  0  0  0  0  0  0  0  0  1  0  0
  -21.6234   -3.8539   25.8195 F   0  0  0  0  0  0  0  0  0  0  0  0
  -20.1038   -7.5846   23.3339 F   0  0  0  0  0  0  0  0  0  0  0  0
  1  2  1  0  0  0  0
  1  5  2  0  0  0  0
  2  6  2  0  0  0  0
  3  8  2  0  0  0  0
  3 16  1  0  0  0  0
  4  9  1  0  0  0  0
  4 16  2  0  0  0  0
  5 18  1  0  0  0  0
  6 20  1  0  0  0  0
  7 10  2  0  0  0  0
  7 19  1  0  0  0  0
  8 23  1  0  0  0  0
  9 23  2  0  0  0  0
 10 24  1  0  0  0  0
 11 12  2  0  0  0  0
 11 25  1  0  0  0  0
 12 26  1  0  0  0  0
 13 21  1  0  0  0  0
 13 24  2  0  0  0  0
 14 26  2  0  0  0  0
 14 27  1  0  0  0  0
 15 22  1  0  0  0  0
 15 64  2  0  0  0  0
 16 28  1  0  0  0  0
 17 28  1  0  0  0  0
 17 30  2  0  0  0  0
 17 31  1  0  0  0  0
 18 20  2  0  0  0  0
 18 36  1  0  0  0  0
 19 21  2  0  0  0  0
 19 37  1  0  0  0  0
 20 45  1  0  0  0  0
 21 38  1  0  0  0  0
 22 29  2  0  0  0  0
 22 55  1  0  0  0  0
 23 81  1  0  0  0  0
 24 82  1  0  0  0  0
 25 27  2  0  0  0  0
 25 81  1  0  0  0  0
 26 83  1  0  0  0  0
 27 84  1  0  0  0  0
 28 65  2  0  0  0  0
 29 56  1  0  0  0  0
 29 66  1  0  0  0  0
 30 67  1  0  0  0  0
 30 70  1  0  0  0  0
 31 71  1  0  0  0  0
 31 76  2  0  0  0  0
 32 46  1  0  0  0  0
 32 72  1  0  0  0  0
 32 77  2  0  0  0  0
 33 61  1  0  0  0  0
 33 68  1  0  0  0  0
 33 78  2  0  0  0  0
 34 62  1  0  0  0  0
 34 73  1  0  0  0  0
 34 79  2  0  0  0  0
 35 69  1  0  0  0  0
 35 74  1  0  0  0  0
 35 80  2  0  0  0  0
 36 39  1  0  0  0  0
 37 46  1  0  0  0  0
 38 68  1  0  0  0  0
 39 41  1  0  0  0  0
 40 42  1  0  0  0  0
 40 43  1  0  0  0  0
 41 45  1  0  0  0  0
 42 47  1  0  0  0  0
 43 69  1  0  0  0  0
 44 47  1  0  0  0  0
 44 69  1  0  0  0  0
 45 72  1  0  0  0  0
 46 68  1  0  0  0  0
 47 67  1  0  0  0  0
 48 62  1  0  0  0  0
 49 63  1  0  0  0  0
 50 63  1  0  0  0  0
 51 63  1  0  0  0  0
 52 66  1  0  0  0  0
 53 74  1  0  0  0  0
 54 75  1  0  0  0  0
 55 57  1  0  0  0  0
 56 58  1  0  0  0  0
 57 60  1  0  0  0  0
 58 59  1  0  0  0  0
 59 74  1  0  0  0  0
 60 82  1  0  0  0  0
 61 63  1  0  0  0  0
 61 73  1  0  0  0  0
 62 75  1  0  0  0  0
 64 66  1  0  0  0  0
 65 67  1  0  0  0  0
M  CHG  1  75   1
M  ISO  4  35 100  60 101  74 100  82 101
M  END
> <Batch ID>
0072

> <Smiles>
CNC(C)C(=O)NC(C(=O)N1Cc2cc([101O:1][101CH2:1]CCc3cnn(C)c3CCC[100N:0](C)[100C:0](=O)N3CCCC(n4nc(-c5ccc(Oc6ccc(F)cc6F)cc5)c(C(N)=O)c4N)C3)ccc2CC1C(=O)NC1CCCc2ccccc21)C(C)(C)C

> <Shape>
0.278

> <Color>
0.084

> <Negative vol penalty>
0.000

$$$$

  -OEChem-04052318243D

 84 92  0     1  0  0  0  0  0999 V2000
  -30.1857  -12.0466   19.7159 C   0  0  0  0  0  0  0  0  0  0  0  0
  -30.1283  -13.2567   20.3998 C   0  0  0  0  0  0  0  0  0  0  0  0
  -28.2381  -27.9856   19.0283 C   0  0  0  0  0  0  0  0  0  0  0  0
  -27.5678  -26.8340   21.0436 C   0  0  0  0  0  0  0  0  0  0  0  0
  -29.1855  -11.7151   18.8029 C   0  0  0  0  0  0  0  0  0  0  0  0
  -29.0711  -14.1365   20.1704 C   0  0  0  0  0  0  0  0  0  0  0  0
  -26.3992  -17.8278   24.2620 C   0  0  0  0  0  0  0  0  0  0  0  0
  -29.3019  -27.0967   18.8741 C   0  0  0  0  0  0  0  0  0  0  0  0
  -28.6315  -25.9450   20.8894 C   0  0  0  0  0  0  0  0  0  0  0  0
  -26.5589  -19.1830   24.5476 C   0  0  0  0  0  0  0  0  0  0  0  0
  -30.9577  -23.1515   20.8300 C   0  0  0  0  0  0  0  0  0  0  0  0
  -30.7009  -21.7932   21.0158 C   0  0  0  0  0  0  0  0  0  0  0  0
  -24.6788  -19.6979   23.1265 C   0  0  0  0  0  0  0  0  0  0  0  0
  -29.0880  -21.8522   19.2180 C   0  0  0  0  0  0  0  0  0  0  0  0
  -26.8041  -25.1949   24.9553 C   0  0  0  0  0  0  0  0  0  0  0  0
  -27.3711  -27.8543   20.1131 C   0  0  0  0  0  0  0  0  0  0  0  0
  -24.9682  -28.6353   19.7612 C   0  0  0  0  0  0  0  0  0  0  0  0
  -28.1104  -12.5870   18.5693 C   0  0  0  0  0  0  0  0  0  0  0  0
  -25.3832  -17.3977   23.3964 C   0  0  0  0  0  0  0  0  0  0  0  0
  -28.0562  -13.8169   19.2524 C   0  0  0  0  0  0  0  0  0  0  0  0
  -24.5067  -18.3364   22.8335 C   0  0  0  0  0  0  0  0  0  0  0  0
  -29.4986  -26.0763   19.8046 C   0  0  0  0  0  0  0  0  0  0  0  0
  -25.7005  -20.1186   23.9775 C   0  0  0  0  0  0  0  0  0  0  0  0
  -30.2797  -23.8602   19.8382 C   0  0  0  0  0  0  0  0  0  0  0  0
  -29.7661  -21.1435   20.2098 C   0  0  0  0  0  0  0  0  0  0  0  0
  -29.3448  -23.2106   19.0322 C   0  0  0  0  0  0  0  0  0  0  0  0
  -26.2724  -28.7726   20.2732 C   0  0  0  0  0  0  0  0  0  0  0  0
  -24.4108  -24.7914   23.8434 C   0  0  0  0  0  0  0  0  0  0  0  0
  -25.2890  -23.7482   24.0383 C   0  0  0  0  0  0  0  0  0  0  0  0
  -25.9263  -26.2383   24.7597 C   0  0  0  0  0  0  0  0  0  0  0  0
  -24.3112  -29.7634   20.1882 C   0  0  0  0  0  0  0  0  0  0  0  0
  -24.4013  -27.5823   18.9703 C   0  0  0  0  0  0  0  0  0  0  0  0
  -25.3084  -15.8868   20.6008 C   0  0  0  0  0  0  0  0  0  0  0  0
  -22.1065  -15.9007   21.1204 C   0  0  0  0  0  0  0  0  0  0  0  0
  -19.4292  -17.3416   22.6704 C   0  0  0  0  0  0  0  0  0  0  0  0
  -25.6911  -33.4151   24.9104 C   0  0  0  0  0  0  0  0  0  0  0  0
  -27.0777  -12.2061   17.5381 C   0  0  0  0  0  0  0  0  0  0  0  0
  -25.2074  -15.9297   23.1195 C   0  0  0  0  0  0  0  0  0  0  0  0
  -23.3874  -17.9244   21.9139 C   0  0  0  0  0  0  0  0  0  0  0  0
  -25.7941  -13.0273   17.6294 C   0  0  0  0  0  0  0  0  0  0  0  0
  -25.0703  -34.3289   21.3775 C   0  0  0  0  0  0  0  0  0  0  0  0
  -26.1185  -14.5115   17.7663 C   0  0  0  0  0  0  0  0  0  0  0  0
  -25.2707  -33.0007   20.6498 C   0  0  0  0  0  0  0  0  0  0  0  0
  -25.8958  -34.4041   22.6584 C   0  0  0  0  0  0  0  0  0  0  0  0
  -25.8645  -31.9402   22.8641 C   0  0  0  0  0  0  0  0  0  0  0  0
  -26.9124  -14.7867   19.0491 C   0  0  1  0  0  0  0  0  0  0  0  0
  -24.4602  -15.6523   21.8187 C   0  0  1  0  0  0  0  0  0  0  0  0
  -25.0109  -31.8135   21.5933 C   0  0  2  0  0  0  0  0  0  0  0  0
  -23.0725  -24.5755   23.2238 C   0  0  0  0  0  0  0  0  0  0  0  0
  -16.9347  -17.1559   22.8715 C   0  0  0  0  0  0  0  0  0  0  0  0
  -21.7918  -17.1803   18.3683 C   0  0  0  0  0  0  0  0  0  0  0  0
  -19.4610  -17.8282   19.0131 C   0  0  0  0  0  0  0  0  0  0  0  0
  -20.0977  -15.4190   18.8998 C   0  0  0  0  0  0  0  0  0  0  0  0
  -25.4596  -32.4117   27.1507 C   0  0  0  0  0  0  0  0  0  0  0  0
  -19.5859  -16.8257   25.5804 C   0  0  0  0  0  0  0  0  0  0  0  0
  -24.9395  -22.3457   23.6356 C   0  0  0  0  0  0  0  0  0  1  0  0
  -25.8660  -29.8538   25.4088 C   0  0  0  0  0  0  0  0  0  0  0  0
  -24.9155  -31.0224   25.1862 C   0  0  0  0  0  0  0  0  0  0  0  0
  -25.3078  -28.5303   24.8996 C   0  0  0  0  0  0  0  0  0  0  0  0
  -20.9746  -16.8450   20.7944 C   0  0  1  0  0  0  0  0  0  0  0  0
  -18.2765  -16.7415   23.4550 C   0  0  2  0  0  0  0  0  0  0  0  0
  -20.6035  -16.8264   19.2847 C   0  0  0  0  0  0  0  0  0  0  0  0
  -26.5012  -23.9311   24.5981 N   0  0  0  0  0  0  0  0  0  0  0  0
  -26.4361  -29.8991   20.9719 N   0  0  0  0  0  0  0  0  0  0  0  0
  -24.7139  -26.0552   24.2003 N   0  0  0  0  0  0  0  0  0  0  0  0
  -25.2262  -30.4799   20.9020 N   0  0  0  0  0  0  0  0  0  0  0  0
  -23.2604  -16.4782   21.6689 N   0  0  0  0  0  0  0  0  0  0  0  0
  -25.6620  -33.2423   23.5168 N   0  0  0  0  0  0  0  0  0  0  0  0
  -23.0458  -30.2023   20.0190 N   0  0  0  0  0  0  0  0  0  0  0  0
  -25.2160  -26.4970   18.6202 N   0  0  0  0  0  0  0  0  0  0  0  0
  -26.0331  -14.7811   20.1986 N   0  0  0  0  0  0  0  0  0  0  0  0
  -19.8754  -16.4872   21.6844 N   0  0  0  0  0  0  0  0  0  0  0  0
  -25.4514  -32.2808   25.7007 N   0  0  0  0  0  0  0  0  0  0  0  0
  -18.3291  -17.1879   24.8759 N   0  3  0  0  0  0  0  0  0  0  0  0
  -23.2123  -27.6111   18.5717 O   0  0  0  0  0  0  0  0  0  0  0  0
  -25.3044  -16.9887   20.0648 O   0  0  0  0  0  0  0  0  0  0  0  0
  -21.9691  -14.6942   20.9031 O   0  0  0  0  0  0  0  0  0  0  0  0
  -19.8854  -18.4582   22.9059 O   0  0  0  0  0  0  0  0  0  0  0  0
  -25.9088  -34.5223   25.4192 O   0  0  0  0  0  0  0  0  0  0  0  0
  -30.5364  -25.2086   19.6544 O   0  0  0  0  0  0  0  0  0  0  0  0
  -25.8545  -21.4421   24.2541 O   0  0  0  0  0  0  0  0  0  1  0  0
  -26.2695  -27.5062   25.1351 O   0  0  0  0  0  0  0  0  0  0  0  0
  -29.5206  -19.8387   20.3874 F   0  0  0  0  0  0  0  0  0  0  0  0
  -28.6912  -23.8859   18.0769 F   0  0  0  0  0  0  0  0  0  0  0  0
  1  2  1  0  0  0  0
  1  5  2  0  0  0  0
  2  6  2  0  0  0  0
  3  8  2  0  0  0  0
  3 16  1  0  0  0  0
  4  9  1  0  0  0  0
  4 16  2  0  0  0  0
  5 18  1  0  0  0  0
  6 20  1  0  0  0  0
  7 10  2  0  0  0  0
  7 19  1  0  0  0  0
  8 22  1  0  0  0  0
  9 22  2  0  0  0  0
 10 23  1  0  0  0  0
 11 12  2  0  0  0  0
 11 24  1  0  0  0  0
 12 25  1  0  0  0  0
 13 21  1  0  0  0  0
 13 23  2  0  0  0  0
 14 25  2  0  0  0  0
 14 26  1  0  0  0  0
 15 30  1  0  0  0  0
 15 63  2  0  0  0  0
 16 27  1  0  0  0  0
 17 27  1  0  0  0  0
 17 31  2  0  0  0  0
 17 32  1  0  0  0  0
 18 20  2  0  0  0  0
 18 37  1  0  0  0  0
 19 21  2  0  0  0  0
 19 38  1  0  0  0  0
 20 46  1  0  0  0  0
 21 39  1  0  0  0  0
 22 80  1  0  0  0  0
 23 81  1  0  0  0  0
 24 26  2  0  0  0  0
 24 80  1  0  0  0  0
 25 83  1  0  0  0  0
 26 84  1  0  0  0  0
 27 64  2  0  0  0  0
 28 29  2  0  0  0  0
 28 49  1  0  0  0  0
 28 65  1  0  0  0  0
 29 56  1  0  0  0  0
 29 63  1  0  0  0  0
 30 65  2  0  0  0  0
 30 82  1  0  0  0  0
 31 66  1  0  0  0  0
 31 69  1  0  0  0  0
 32 70  1  0  0  0  0
 32 75  2  0  0  0  0
 33 47  1  0  0  0  0
 33 71  1  0  0  0  0
 33 76  2  0  0  0  0
 34 60  1  0  0  0  0
 34 67  1  0  0  0  0
 34 77  2  0  0  0  0
 35 61  1  0  0  0  0
 35 72  1  0  0  0  0
 35 78  2  0  0  0  0
 36 68  1  0  0  0  0
 36 73  1  0  0  0  0
 36 79  2  0  0  0  0
 37 40  1  0  0  0  0
 38 47  1  0  0  0  0
 39 67  1  0  0  0  0
 40 42  1  0  0  0  0
 41 43  1  0  0  0  0
 41 44  1  0  0  0  0
 42 46  1  0  0  0  0
 43 48  1  0  0  0  0
 44 68  1  0  0  0  0
 45 48  1  0  0  0  0
 45 68  1  0  0  0  0
 46 71  1  0  0  0  0
 47 67  1  0  0  0  0
 48 66  1  0  0  0  0
 50 61  1  0  0  0  0
 51 62  1  0  0  0  0
 52 62  1  0  0  0  0
 53 62  1  0  0  0  0
 54 73  1  0  0  0  0
 55 74  1  0  0  0  0
 56 81  1  0  0  0  0
 57 58  1  0  0  0  0
 57 59  1  0  0  0  0
 58 73  1  0  0  0  0
 59 82  1  0  0  0  0
 60 62  1  0  0  0  0
 60 72  1  0  0  0  0
 61 74  1  0  0  0  0
 64 66  1  0  0  0  0
M  CHG  1  74   1
M  ISO  4  36 100  56 101  73 100  81 101
M  END
> <Batch ID>
0072

> <Smiles>
CNC(C)C(=O)NC(C(=O)N1Cc2cc([101O:1][101CH2:1]c3ncc(OCCC[100N:0](C)[100C:0](=O)N4CCCC(n5nc(-c6ccc(Oc7ccc(F)cc7F)cc6)c(C(N)=O)c5N)C4)nc3C)ccc2CC1C(=O)NC1CCCc2ccccc21)C(C)(C)C

> <Shape>
0.237

> <Color>
0.069

> <Negative vol penalty>
0.000

$$$$

  -OEChem-04052318243D

 84 92  0     1  0  0  0  0  0999 V2000
  -19.9445  -22.2967   21.2569 C   0  0  0  0  0  0  0  0  0  0  0  0
  -20.9802  -22.2578   20.3290 C   0  0  0  0  0  0  0  0  0  0  0  0
  -23.1616  -28.6448   19.6137 C   0  0  0  0  0  0  0  0  0  0  0  0
  -23.2904  -27.9332   21.9189 C   0  0  0  0  0  0  0  0  0  0  0  0
  -20.0090  -21.5086   22.4053 C   0  0  0  0  0  0  0  0  0  0  0  0
  -22.0817  -21.4316   20.5494 C   0  0  0  0  0  0  0  0  0  0  0  0
  -26.8866  -17.4705   17.0084 C   0  0  0  0  0  0  0  0  0  0  0  0
  -21.9515  -29.2857   19.8791 C   0  0  0  0  0  0  0  0  0  0  0  0
  -22.0803  -28.5742   22.1844 C   0  0  0  0  0  0  0  0  0  0  0  0
  -28.2650  -17.2897   16.9020 C   0  0  0  0  0  0  0  0  0  0  0  0
  -18.7867  -27.9724   21.7141 C   0  0  0  0  0  0  0  0  0  0  0  0
  -17.8386  -27.2805   22.4676 C   0  0  0  0  0  0  0  0  0  0  0  0
  -28.2312  -15.9128   18.8825 C   0  0  0  0  0  0  0  0  0  0  0  0
  -17.8955  -29.0233   24.1398 C   0  0  0  0  0  0  0  0  0  0  0  0
  -31.9572  -21.5553   18.8649 C   0  0  0  0  0  0  0  0  0  0  0  0
  -23.8310  -27.9685   20.6335 C   0  0  0  0  0  0  0  0  0  0  0  0
  -26.3734  -27.8548   20.4572 C   0  0  0  0  0  0  0  0  0  0  0  0
  -21.1073  -20.6650   22.6351 C   0  0  0  0  0  0  0  0  0  0  0  0
  -26.1707  -16.8817   18.0606 C   0  0  0  0  0  0  0  0  0  0  0  0
  -22.1616  -20.6325   21.7025 C   0  0  0  0  0  0  0  0  0  0  0  0
  -26.8434  -16.0855   18.9985 C   0  0  0  0  0  0  0  0  0  0  0  0
  -21.4108  -29.2504   21.1645 C   0  0  0  0  0  0  0  0  0  0  0  0
  -28.9379  -16.5131   17.8408 C   0  0  0  0  0  0  0  0  0  0  0  0
  -19.2894  -29.1898   22.1735 C   0  0  0  0  0  0  0  0  0  0  0  0
  -17.3929  -27.8059   23.6804 C   0  0  0  0  0  0  0  0  0  0  0  0
  -18.8438  -29.7152   23.3863 C   0  0  0  0  0  0  0  0  0  0  0  0
  -25.0808  -27.3058   20.3598 C   0  0  0  0  0  0  0  0  0  0  0  0
  -31.8222  -22.2219   20.0567 C   0  0  0  0  0  0  0  0  0  0  0  0
  -27.2107  -26.8284   20.0944 C   0  0  0  0  0  0  0  0  0  0  0  0
  -26.7808  -29.1747   20.8415 C   0  0  0  0  0  0  0  0  0  0  0  0
  -24.4283  -17.9827   20.4805 C   0  0  0  0  0  0  0  0  0  0  0  0
  -28.6673  -21.4394   20.4507 C   0  0  0  0  0  0  0  0  0  0  0  0
  -23.8022  -14.8349   20.9518 C   0  0  0  0  0  0  0  0  0  0  0  0
  -24.7710  -11.5915   20.5174 C   0  0  0  0  0  0  0  0  0  0  0  0
  -21.1546  -19.8671   23.9141 C   0  0  0  0  0  0  0  0  0  0  0  0
  -24.6801  -17.0644   18.1461 C   0  0  0  0  0  0  0  0  0  0  0  0
  -26.1179  -15.4150   20.1354 C   0  0  0  0  0  0  0  0  0  0  0  0
  -22.1812  -18.7375   23.8896 C   0  0  0  0  0  0  0  0  0  0  0  0
  -26.2175  -22.3427   17.9966 C   0  0  0  0  0  0  0  0  0  0  0  0
  -23.5125  -19.2380   23.3384 C   0  0  0  0  0  0  0  0  0  0  0  0
  -25.7879  -23.7472   18.4184 C   0  0  0  0  0  0  0  0  0  0  0  0
  -26.5307  -21.4678   19.2063 C   0  0  0  0  0  0  0  0  0  0  0  0
  -27.1209  -23.4566   20.5546 C   0  0  0  0  0  0  0  0  0  0  0  0
  -23.3614  -19.7304   21.8940 C   0  0  1  0  0  0  0  0  0  0  0  0
  -24.1303  -16.8401   19.5513 C   0  0  1  0  0  0  0  0  0  0  0  0
  -26.8247  -24.3826   19.3617 C   0  0  2  0  0  0  0  0  0  0  0  0
  -31.1626  -24.2110   21.4136 C   0  0  0  0  0  0  0  0  0  0  0  0
  -30.2755  -21.1203   22.2556 C   0  0  0  0  0  0  0  0  0  0  0  0
  -24.0733   -9.2396   21.0457 C   0  0  0  0  0  0  0  0  0  0  0  0
  -24.7256  -15.2115   23.8355 C   0  0  0  0  0  0  0  0  0  0  0  0
  -24.9145  -12.7223   24.0266 C   0  0  0  0  0  0  0  0  0  0  0  0
  -22.6982  -13.7716   23.5688 C   0  0  0  0  0  0  0  0  0  0  0  0
  -24.5708  -10.8836   17.6507 C   0  0  0  0  0  0  0  0  0  0  0  0
  -32.4470  -18.1694   18.4649 C   0  0  0  0  0  0  0  0  0  0  0  0
  -33.8801  -18.6784   18.2969 C   0  0  0  0  0  0  0  0  0  0  0  0
  -32.4245  -16.6770   18.8081 C   0  0  0  0  0  0  0  0  0  0  0  0
  -33.9015  -20.1598   17.9140 C   0  0  0  0  0  0  0  0  0  0  0  0
  -31.0058  -16.1404   18.9546 C   0  0  0  0  0  0  0  0  0  1  0  0
  -30.6838  -23.0048   20.5546 C   0  0  2  0  0  0  0  0  0  0  0  0
  -29.6214  -22.1731   21.3591 C   0  0  1  0  0  0  0  0  0  0  0  0
  -24.4473  -13.7235   21.7439 C   0  0  1  0  0  0  0  0  0  0  0  0
  -24.0122  -10.3702   20.0305 C   0  0  2  0  0  0  0  0  0  0  0  0
  -24.2107  -13.8713   23.2735 C   0  0  0  0  0  0  0  0  0  0  0  0
  -25.0911  -26.0296   19.9658 N   0  0  0  0  0  0  0  0  0  0  0  0
  -32.9578  -22.0652   20.8019 N   0  0  0  0  0  0  0  0  0  0  0  0
  -33.8039  -21.3155   20.1040 N   0  0  0  0  0  0  0  0  0  0  0  0
  -33.2021  -21.0110   18.9428 N   0  0  0  0  0  0  0  0  0  0  0  0
  -26.4003  -25.7682   19.8124 N   0  0  0  0  0  0  0  0  0  0  0  0
  -24.6619  -15.6290   20.1796 N   0  0  0  0  0  0  0  0  0  0  0  0
  -27.5023  -22.1160   20.0889 N   0  0  0  0  0  0  0  0  0  0  0  0
  -28.5538  -26.7382   19.9923 N   0  0  0  0  0  0  0  0  0  0  0  0
  -25.7911  -30.1064   21.1836 N   0  0  0  0  0  0  0  0  0  0  0  0
  -23.3029  -18.6089   20.9812 N   0  0  0  0  0  0  0  0  0  0  0  0
  -23.9453  -12.4754   21.1795 N   0  0  0  0  0  0  0  0  0  0  0  0
  -24.5883   -9.8804   18.7463 N   0  3  0  0  0  0  0  0  0  0  0  0
  -27.9857  -29.5227   20.8644 O   0  0  0  0  0  0  0  0  0  0  0  0
  -25.5931  -18.2736   20.7262 O   0  0  0  0  0  0  0  0  0  0  0  0
  -28.9521  -20.3000   20.0725 O   0  0  0  0  0  0  0  0  0  0  0  0
  -22.5796  -14.9883   21.0102 O   0  0  0  0  0  0  0  0  0  0  0  0
  -25.9764  -11.7444   20.3323 O   0  0  0  0  0  0  0  0  0  0  0  0
  -20.2302  -29.8759   21.4240 O   0  0  0  0  0  0  0  0  0  0  0  0
  -30.2833  -16.3356   17.7396 O   0  0  0  0  0  0  0  0  0  1  0  0
  -16.4812  -27.1421   24.4031 F   0  0  0  0  0  0  0  0  0  0  0  0
  -19.3222  -30.8849   23.8323 F   0  0  0  0  0  0  0  0  0  0  0  0
  1  2  1  0  0  0  0
  1  5  2  0  0  0  0
  2  6  2  0  0  0  0
  3  8  2  0  0  0  0
  3 16  1  0  0  0  0
  4  9  1  0  0  0  0
  4 16  2  0  0  0  0
  5 18  1  0  0  0  0
  6 20  1  0  0  0  0
  7 10  2  0  0  0  0
  7 19  1  0  0  0  0
  8 22  1  0  0  0  0
  9 22  2  0  0  0  0
 10 23  1  0  0  0  0
 11 12  2  0  0  0  0
 11 24  1  0  0  0  0
 12 25  1  0  0  0  0
 13 21  1  0  0  0  0
 13 23  2  0  0  0  0
 14 25  2  0  0  0  0
 14 26  1  0  0  0  0
 15 28  2  0  0  0  0
 15 67  1  0  0  0  0
 16 27  1  0  0  0  0
 17 27  1  0  0  0  0
 17 29  2  0  0  0  0
 17 30  1  0  0  0  0
 18 20  2  0  0  0  0
 18 35  1  0  0  0  0
 19 21  2  0  0  0  0
 19 36  1  0  0  0  0
 20 44  1  0  0  0  0
 21 37  1  0  0  0  0
 22 81  1  0  0  0  0
 23 82  1  0  0  0  0
 24 26  2  0  0  0  0
 24 81  1  0  0  0  0
 25 83  1  0  0  0  0
 26 84  1  0  0  0  0
 27 64  2  0  0  0  0
 28 59  1  0  0  0  0
 28 65  1  0  0  0  0
 29 68  1  0  0  0  0
 29 71  1  0  0  0  0
 30 72  1  0  0  0  0
 30 76  2  0  0  0  0
 31 45  1  0  0  0  0
 31 73  1  0  0  0  0
 31 77  2  0  0  0  0
 32 60  1  0  0  0  0
 32 70  1  0  0  0  0
 32 78  2  0  0  0  0
 33 61  1  0  0  0  0
 33 69  1  0  0  0  0
 33 79  2  0  0  0  0
 34 62  1  0  0  0  0
 34 74  1  0  0  0  0
 34 80  2  0  0  0  0
 35 38  1  0  0  0  0
 36 45  1  0  0  0  0
 37 69  1  0  0  0  0
 38 40  1  0  0  0  0
 39 41  1  0  0  0  0
 39 42  1  0  0  0  0
 40 44  1  0  0  0  0
 41 46  1  0  0  0  0
 42 70  1  0  0  0  0
 43 46  1  0  0  0  0
 43 70  1  0  0  0  0
 44 73  1  0  0  0  0
 45 69  1  0  0  0  0
 46 68  1  0  0  0  0
 47 59  1  0  0  0  0
 48 60  1  0  0  0  0
 49 62  1  0  0  0  0
 50 63  1  0  0  0  0
 51 63  1  0  0  0  0
 52 63  1  0  0  0  0
 53 75  1  0  0  0  0
 54 55  1  0  0  0  0
 54 56  1  0  0  0  0
 55 57  1  0  0  0  0
 56 58  1  0  0  0  0
 57 67  1  0  0  0  0
 58 82  1  0  0  0  0
 59 60  1  0  0  0  0
 61 63  1  0  0  0  0
 61 74  1  0  0  0  0
 62 75  1  0  0  0  0
 64 68  1  0  0  0  0
 65 66  2  0  0  0  0
 66 67  1  0  0  0  0
M  CHG  1  75   1
M  ISO  4  32 100  58 101  60 100  82 101
M  END
> <Batch ID>
0072

> <Smiles>
CNC(C)C(=O)NC(C(=O)N1Cc2cc([101O:1][101CH2:1]CCCCn3cc(C(C)[100CH:0](C)[100C:0](=O)N4CCCC(n5nc(-c6ccc(Oc7ccc(F)cc7F)cc6)c(C(N)=O)c5N)C4)nn3)ccc2CC1C(=O)NC1CCCc2ccccc21)C(C)(C)C

> <Shape>
0.195

> <Color>
0.074

> <Negative vol penalty>
0.000

$$$$

  -OEChem-04052318243D

 83 91  0     1  0  0  0  0  0999 V2000
  -32.5452  -25.7537   17.2460 C   0  0  0  0  0  0  0  0  0  0  0  0
  -31.4362  -25.2475   17.9162 C   0  0  0  0  0  0  0  0  0  0  0  0
  -22.8452  -10.4689   21.1441 C   0  0  0  0  0  0  0  0  0  0  0  0
  -24.6268   -8.8661   21.4510 C   0  0  0  0  0  0  0  0  0  0  0  0
  -33.1235  -26.9519   17.6631 C   0  0  0  0  0  0  0  0  0  0  0  0
  -30.9054  -25.9388   19.0047 C   0  0  0  0  0  0  0  0  0  0  0  0
  -25.8517  -26.2236   18.8480 C   0  0  0  0  0  0  0  0  0  0  0  0
  -21.9054   -9.4427   21.2408 C   0  0  0  0  0  0  0  0  0  0  0  0
  -23.6870   -7.8400   21.5477 C   0  0  0  0  0  0  0  0  0  0  0  0
  -25.1379  -25.0885   19.2300 C   0  0  0  0  0  0  0  0  0  0  0  0
  -21.7399   -4.8478   22.2360 C   0  0  0  0  0  0  0  0  0  0  0  0
  -21.9054   -3.9097   23.2550 C   0  0  0  0  0  0  0  0  0  0  0  0
  -24.7565  -26.0666   21.4019 C   0  0  0  0  0  0  0  0  0  0  0  0
  -21.7400   -5.6696   24.9020 C   0  0  0  0  0  0  0  0  0  0  0  0
  -26.7513  -18.4221   18.5575 C   0  0  0  0  0  0  0  0  0  0  0  0
  -27.4579  -17.9820   20.5980 C   0  0  0  0  0  0  0  0  0  0  0  0
  -24.2060  -10.1806   21.2491 C   0  0  0  0  0  0  0  0  0  0  0  0
  -25.6973  -12.0190   22.1997 C   0  0  0  0  0  0  0  0  0  0  0  0
  -32.5936  -27.6631   18.7512 C   0  0  0  0  0  0  0  0  0  0  0  0
  -26.0329  -27.2858   19.7454 C   0  0  0  0  0  0  0  0  0  0  0  0
  -31.4779  -27.1469   19.4376 C   0  0  0  0  0  0  0  0  0  0  0  0
  -25.4708  -27.2151   21.0280 C   0  0  0  0  0  0  0  0  0  0  0  0
  -22.3263   -8.1283   21.4427 C   0  0  0  0  0  0  0  0  0  0  0  0
  -24.5926  -25.0086   20.5080 C   0  0  0  0  0  0  0  0  0  0  0  0
  -21.5745   -6.1968   22.5501 C   0  0  0  0  0  0  0  0  0  0  0  0
  -21.9054   -4.3206   24.5879 C   0  0  0  0  0  0  0  0  0  0  0  0
  -21.5745   -6.6076   23.8830 C   0  0  0  0  0  0  0  0  0  0  0  0
  -25.1773  -11.2401   21.1487 C   0  0  0  0  0  0  0  0  0  0  0  0
  -27.4937  -17.2653   18.5941 C   0  0  0  0  0  0  0  0  0  0  0  0
  -26.5768  -12.8783   21.5876 C   0  0  0  0  0  0  0  0  0  0  0  0
  -25.4110  -11.9702   23.6037 C   0  0  0  0  0  0  0  0  0  0  0  0
  -27.8053  -16.3978   17.4508 C   0  0  0  0  0  0  0  0  0  0  0  0
  -28.5518  -28.6748   21.0980 C   0  0  0  0  0  0  0  0  0  0  0  0
  -26.3212  -30.7533   22.2053 C   0  0  0  0  0  0  0  0  0  0  0  0
  -23.0579  -31.3432   23.0115 C   0  0  0  0  0  0  0  0  0  0  0  0
  -33.2816  -28.9298   19.1948 C   0  0  0  0  0  0  0  0  0  0  0  0
  -26.7827  -28.5146   19.3090 C   0  0  0  0  0  0  0  0  0  0  0  0
  -25.6195  -28.3368   22.0220 C   0  0  0  0  0  0  0  0  0  0  0  0
  -32.4304  -29.7922   20.1233 C   0  0  0  0  0  0  0  0  0  0  0  0
  -28.4124  -12.9276   16.8754 C   0  0  0  0  0  0  0  0  0  0  0  0
  -31.7924  -28.9352   21.2121 C   0  0  0  0  0  0  0  0  0  0  0  0
  -27.6520  -12.2390   18.0101 C   0  0  0  0  0  0  0  0  0  0  0  0
  -27.6807  -14.1729   16.3810 C   0  0  0  0  0  0  0  0  0  0  0  0
  -26.5877  -14.4628   18.5779 C   0  0  0  0  0  0  0  0  0  0  0  0
  -30.8581  -27.8803   20.6073 C   0  0  1  0  0  0  0  0  0  0  0  0
  -27.3441  -29.3185   20.4778 C   0  0  1  0  0  0  0  0  0  0  0  0
  -27.3168  -13.2311   19.1395 C   0  0  1  0  0  0  0  0  0  0  0  0
  -21.5461  -33.1243   23.9276 C   0  0  0  0  0  0  0  0  0  0  0  0
  -27.4026  -30.2257   25.0092 C   0  0  0  0  0  0  0  0  0  0  0  0
  -25.3101  -31.2443   25.9324 C   0  0  0  0  0  0  0  0  0  0  0  0
  -26.8537  -32.6193   24.5361 C   0  0  0  0  0  0  0  0  0  0  0  0
  -23.7967  -19.7850   19.2332 C   0  0  0  0  0  0  0  0  0  0  0  0
  -24.1558  -18.8725   21.5189 C   0  0  0  0  0  0  0  0  0  0  0  0
  -22.4352  -21.4386   21.4790 C   0  0  0  0  0  0  0  0  0  0  0  0
  -24.6300  -21.7479   22.5949 C   0  0  0  0  0  0  0  0  0  0  0  0
  -21.4310  -31.3964   20.5399 C   0  0  0  0  0  0  0  0  0  0  0  0
  -26.0499  -20.1203   20.3570 C   0  0  0  0  0  0  0  0  0  0  0  0
  -24.2723  -22.6628   20.2835 C   0  0  0  0  0  0  0  0  0  1  0  0
  -25.4479  -30.8299   23.4343 C   0  0  1  0  0  0  0  0  0  0  0  0
  -22.1287  -32.4946   22.6720 C   0  0  2  0  0  0  0  0  0  0  0  0
  -26.2523  -31.2076   24.7102 C   0  0  0  0  0  0  0  0  0  0  0  0
  -24.4943  -20.0663   20.5891 C   0  0  0  0  0  0  0  0  0  0  0  0
  -23.9666  -21.4577   21.2225 C   0  0  0  0  0  0  0  0  0  0  0  0
  -27.9304  -16.9968   19.8672 N   0  0  0  0  0  0  0  0  0  0  0  0
  -25.6841  -11.5749   19.9591 N   0  0  0  0  0  0  0  0  0  0  0  0
  -26.7374  -18.8698   19.8485 N   0  0  0  0  0  0  0  0  0  0  0  0
  -26.5317  -12.5738   20.2589 N   0  0  0  0  0  0  0  0  0  0  0  0
  -27.3747  -15.0696   17.4950 N   0  0  0  0  0  0  0  0  0  0  0  0
  -26.3666  -29.5145   21.5503 N   0  0  0  0  0  0  0  0  0  0  0  0
  -27.3766  -13.8570   22.0617 N   0  0  0  0  0  0  0  0  0  0  0  0
  -24.4821  -11.0269   24.0638 N   0  0  0  0  0  0  0  0  0  0  0  0
  -29.6005  -28.4821   20.2190 N   0  0  0  0  0  0  0  0  0  0  0  0
  -24.3692  -31.7576   23.1115 N   0  0  0  0  0  0  0  0  0  0  0  0
  -21.0031  -32.0177   21.8196 N   0  3  0  0  0  0  0  0  0  0  0  0
  -25.9503  -12.7513   24.4239 O   0  0  0  0  0  0  0  0  0  0  0  0
  -28.4421  -16.9147   16.5340 O   0  0  0  0  0  0  0  0  0  0  0  0
  -28.5342  -28.3764   22.2864 O   0  0  0  0  0  0  0  0  0  0  0  0
  -26.9346  -31.7577   21.8358 O   0  0  0  0  0  0  0  0  0  0  0  0
  -22.6598  -30.1921   23.1756 O   0  0  0  0  0  0  0  0  0  0  0  0
  -21.4095   -7.1268   21.5374 O   0  0  0  0  0  0  0  0  0  0  0  0
  -23.8960  -23.9016   20.8836 O   0  0  0  0  0  0  0  0  0  1  0  0
  -22.0629   -3.4194   25.5664 F   0  0  0  0  0  0  0  0  0  0  0  0
  -21.4148   -7.9021   24.1910 F   0  0  0  0  0  0  0  0  0  0  0  0
  1  2  1  0  0  0  0
  1  5  2  0  0  0  0
  2  6  2  0  0  0  0
  3  8  2  0  0  0  0
  3 17  1  0  0  0  0
  4  9  1  0  0  0  0
  4 17  2  0  0  0  0
  5 19  1  0  0  0  0
  6 21  1  0  0  0  0
  7 10  2  0  0  0  0
  7 20  1  0  0  0  0
  8 23  1  0  0  0  0
  9 23  2  0  0  0  0
 10 24  1  0  0  0  0
 11 12  2  0  0  0  0
 11 25  1  0  0  0  0
 12 26  1  0  0  0  0
 13 22  1  0  0  0  0
 13 24  2  0  0  0  0
 14 26  2  0  0  0  0
 14 27  1  0  0  0  0
 15 29  2  0  0  0  0
 15 66  1  0  0  0  0
 16 64  2  0  0  0  0
 16 66  1  0  0  0  0
 17 28  1  0  0  0  0
 18 28  1  0  0  0  0
 18 30  2  0  0  0  0
 18 31  1  0  0  0  0
 19 21  2  0  0  0  0
 19 36  1  0  0  0  0
 20 22  2  0  0  0  0
 20 37  1  0  0  0  0
 21 45  1  0  0  0  0
 22 38  1  0  0  0  0
 23 80  1  0  0  0  0
 24 81  1  0  0  0  0
 25 27  2  0  0  0  0
 25 80  1  0  0  0  0
 26 82  1  0  0  0  0
 27 83  1  0  0  0  0
 28 65  2  0  0  0  0
 29 32  1  0  0  0  0
 29 64  1  0  0  0  0
 30 67  1  0  0  0  0
 30 70  1  0  0  0  0
 31 71  1  0  0  0  0
 31 75  2  0  0  0  0
 32 68  1  0  0  0  0
 32 76  2  0  0  0  0
 33 46  1  0  0  0  0
 33 72  1  0  0  0  0
 33 77  2  0  0  0  0
 34 59  1  0  0  0  0
 34 69  1  0  0  0  0
 34 78  2  0  0  0  0
 35 60  1  0  0  0  0
 35 73  1  0  0  0  0
 35 79  2  0  0  0  0
 36 39  1  0  0  0  0
 37 46  1  0  0  0  0
 38 69  1  0  0  0  0
 39 41  1  0  0  0  0
 40 42  1  0  0  0  0
 40 43  1  0  0  0  0
 41 45  1  0  0  0  0
 42 47  1  0  0  0  0
 43 68  1  0  0  0  0
 44 47  1  0  0  0  0
 44 68  1  0  0  0  0
 45 72  1  0  0  0  0
 46 69  1  0  0  0  0
 47 67  1  0  0  0  0
 48 60  1  0  0  0  0
 49 61  1  0  0  0  0
 50 61  1  0  0  0  0
 51 61  1  0  0  0  0
 52 62  1  0  0  0  0
 53 62  1  0  0  0  0
 54 63  1  0  0  0  0
 55 63  1  0  0  0  0
 56 74  1  0  0  0  0
 57 62  1  0  0  0  0
 57 66  1  0  0  0  0
 58 63  1  0  0  0  0
 58 81  1  0  0  0  0
 59 61  1  0  0  0  0
 59 73  1  0  0  0  0
 60 74  1  0  0  0  0
 62 63  1  0  0  0  0
 65 67  1  0  0  0  0
M  CHG  1  74   1
M  ISO  4  29 100  32 100  58 101  81 101
M  END
> <Batch ID>
0072

> <Smiles>
CNC(C)C(=O)NC(C(=O)N1Cc2cc([101O:1][101CH2:1]C(C)(C)C(C)(C)Cn3cn[100c:0]([100C:0](=O)N4CCCC(n5nc(-c6ccc(Oc7ccc(F)cc7F)cc6)c(C(N)=O)c5N)C4)c3)ccc2CC1C(=O)NC1CCCc2ccccc21)C(C)(C)C

> <Shape>
0.267

> <Color>
0.107

> <Negative vol penalty>
0.000

$$$$

  -OEChem-04052318243D

 86 94  0     1  0  0  0  0  0999 V2000
  -17.7546  -30.6350   23.4132 C   0  0  0  0  0  0  0  0  0  0  0  0
  -19.0391  -30.2522   23.0406 C   0  0  0  0  0  0  0  0  0  0  0  0
  -26.1854  -18.6608   20.5859 C   0  0  0  0  0  0  0  0  0  0  0  0
  -27.8406  -17.5250   19.2416 C   0  0  0  0  0  0  0  0  0  0  0  0
  -16.7871  -29.6652   23.6728 C   0  0  0  0  0  0  0  0  0  0  0  0
  -19.3573  -28.8992   22.9285 C   0  0  0  0  0  0  0  0  0  0  0  0
  -22.0026  -27.8662   18.7356 C   0  0  0  0  0  0  0  0  0  0  0  0
  -25.5374  -17.4468   20.8139 C   0  0  0  0  0  0  0  0  0  0  0  0
  -27.1928  -16.3109   19.4696 C   0  0  0  0  0  0  0  0  0  0  0  0
  -23.3615  -28.1774   18.7473 C   0  0  0  0  0  0  0  0  0  0  0  0
  -26.1793  -12.8590   19.9943 C   0  0  0  0  0  0  0  0  0  0  0  0
  -26.9657  -11.7554   20.3247 C   0  0  0  0  0  0  0  0  0  0  0  0
  -23.8808  -25.8654   19.1995 C   0  0  0  0  0  0  0  0  0  0  0  0
  -27.7759  -12.9186   22.2812 C   0  0  0  0  0  0  0  0  0  0  0  0
  -30.4481  -27.8908   19.2506 C   0  0  0  0  0  0  0  0  0  0  0  0
  -27.3369  -18.6999   19.7997 C   0  0  0  0  0  0  0  0  0  0  0  0
  -27.4716  -21.0994   18.9442 C   0  0  0  0  0  0  0  0  0  0  0  0
  -17.0909  -28.2998   23.5545 C   0  0  0  0  0  0  0  0  0  0  0  0
  -21.5712  -26.5521   18.9670 C   0  0  0  0  0  0  0  0  0  0  0  0
  -18.3933  -27.9102   23.1882 C   0  0  0  0  0  0  0  0  0  0  0  0
  -22.5159  -25.5397   19.1877 C   0  0  0  0  0  0  0  0  0  0  0  0
  -26.0411  -16.2719   20.2558 C   0  0  0  0  0  0  0  0  0  0  0  0
  -24.3008  -27.1775   18.9822 C   0  0  0  0  0  0  0  0  0  0  0  0
  -26.1912  -13.9925   20.8072 C   0  0  0  0  0  0  0  0  0  0  0  0
  -27.7640  -11.7852   21.4682 C   0  0  0  0  0  0  0  0  0  0  0  0
  -26.9895  -14.0222   21.9507 C   0  0  0  0  0  0  0  0  0  0  0  0
  -28.0064  -19.9538   19.5634 C   0  0  0  0  0  0  0  0  0  0  0  0
  -29.7311  -27.7160   18.0845 C   0  0  0  0  0  0  0  0  0  0  0  0
  -29.7902  -27.5452   20.4134 C   0  0  0  0  0  0  0  0  0  0  0  0
  -28.4990  -22.0108   18.9628 C   0  0  0  0  0  0  0  0  0  0  0  0
  -27.9369  -26.9400   19.2446 C   0  0  0  0  0  0  0  0  0  0  0  0
  -26.1632  -21.3201   18.4010 C   0  0  0  0  0  0  0  0  0  0  0  0
  -19.7731  -25.1371   21.1734 C   0  0  0  0  0  0  0  0  0  0  0  0
  -20.1283  -22.5524   19.2459 C   0  0  0  0  0  0  0  0  0  0  0  0
  -21.9635  -20.9516   16.8550 C   0  0  0  0  0  0  0  0  0  0  0  0
  -32.6906  -24.5661   21.6173 C   0  0  0  0  0  0  0  0  0  0  0  0
  -16.0251  -27.2872   23.8914 C   0  0  0  0  0  0  0  0  0  0  0  0
  -20.1031  -26.2279   18.9246 C   0  0  0  0  0  0  0  0  0  0  0  0
  -22.1057  -24.1095   19.4214 C   0  0  0  0  0  0  0  0  0  0  0  0
  -16.3391  -25.8814   23.3860 C   0  0  0  0  0  0  0  0  0  0  0  0
  -33.3962  -21.4292   20.0879 C   0  0  0  0  0  0  0  0  0  0  0  0
  -17.7795  -25.5042   23.7176 C   0  0  0  0  0  0  0  0  0  0  0  0
  -32.0132  -20.8580   19.7700 C   0  0  0  0  0  0  0  0  0  0  0  0
  -33.3985  -22.2017   21.4052 C   0  0  0  0  0  0  0  0  0  0  0  0
  -30.9924  -22.6880   21.1869 C   0  0  0  0  0  0  0  0  0  0  0  0
  -18.7700  -26.4529   23.0318 C   0  0  1  0  0  0  0  0  0  0  0  0
  -19.7509  -24.9516   19.6825 C   0  0  1  0  0  0  0  0  0  0  0  0
  -30.9267  -21.9479   19.8400 C   0  0  2  0  0  0  0  0  0  0  0  0
  -22.5511  -19.2044   15.1523 C   0  0  0  0  0  0  0  0  0  0  0  0
  -31.6491  -27.2197   16.5287 C   0  0  0  0  0  0  0  0  0  0  0  0
  -30.7633  -29.5678   16.7235 C   0  0  0  0  0  0  0  0  0  0  0  0
  -29.4605  -27.8272   15.5174 C   0  0  0  0  0  0  0  0  0  0  0  0
  -29.6504  -27.2771   22.9835 C   0  0  0  0  0  0  0  0  0  0  0  0
  -30.8558  -29.1965   21.9740 C   0  0  0  0  0  0  0  0  0  0  0  0
  -21.1186  -21.0208   21.6921 C   0  0  0  0  0  0  0  0  0  0  0  0
  -22.0381  -19.2811   20.1440 C   0  0  0  0  0  0  0  0  0  0  0  0
  -19.5841  -19.7258   20.2012 C   0  0  0  0  0  0  0  0  0  0  0  0
  -20.5330  -22.3988   14.7060 C   0  0  0  0  0  0  0  0  0  0  0  0
  -26.5350  -26.4051   19.2417 C   0  0  0  0  0  0  0  0  0  1  0  0
  -31.8298  -26.8873   21.7916 C   0  0  0  0  0  0  0  0  0  0  0  0
  -21.1274  -21.4254   19.1421 C   0  0  1  0  0  0  0  0  0  0  0  0
  -21.5584  -20.2845   15.5529 C   0  0  2  0  0  0  0  0  0  0  0  0
  -30.3595  -28.0618   16.7762 C   0  0  0  0  0  0  0  0  0  0  0  0
  -30.4859  -27.6978   21.7246 C   0  0  0  0  0  0  0  0  0  0  0  0
  -20.9750  -20.3905   20.2924 C   0  0  0  0  0  0  0  0  0  0  0  0
  -29.2749  -20.1196   19.9471 N   0  0  0  0  0  0  0  0  0  0  0  0
  -28.4689  -27.2411   18.0447 N   0  0  0  0  0  0  0  0  0  0  0  0
  -28.5298  -27.0650   20.4473 N   0  0  0  0  0  0  0  0  0  0  0  0
  -29.5459  -21.3801   19.5680 N   0  0  0  0  0  0  0  0  0  0  0  0
  -20.6583  -23.8438   19.3765 N   0  0  0  0  0  0  0  0  0  0  0  0
  -32.3462  -23.2208   21.4063 N   0  0  0  0  0  0  0  0  0  0  0  0
  -28.5999  -23.2822   18.5202 N   0  0  0  0  0  0  0  0  0  0  0  0
  -25.9388  -21.0108   17.0526 N   0  0  0  0  0  0  0  0  0  0  0  0
  -18.9088  -26.1129   21.6319 N   0  0  0  0  0  0  0  0  0  0  0  0
  -20.9691  -20.8614   17.8060 N   0  0  0  0  0  0  0  0  0  0  0  0
  -31.6338  -25.4680   21.5964 N   0  0  0  0  0  0  0  0  0  0  0  0
  -21.4896  -21.2902   14.4552 N   0  3  0  0  0  0  0  0  0  0  0  0
  -25.2255  -21.7934   19.0867 O   0  0  0  0  0  0  0  0  0  0  0  0
  -20.5181  -24.4451   21.8573 O   0  0  0  0  0  0  0  0  0  0  0  0
  -18.9222  -22.2969   19.2053 O   0  0  0  0  0  0  0  0  0  0  0  0
  -23.0544  -21.4948   17.0139 O   0  0  0  0  0  0  0  0  0  0  0  0
  -33.8544  -24.9367   21.8046 O   0  0  0  0  0  0  0  0  0  0  0  0
  -25.4093  -15.0870   20.4782 O   0  0  0  0  0  0  0  0  0  0  0  0
  -25.6278  -27.4786   18.9948 O   0  0  0  0  0  0  0  0  0  1  0  0
  -28.5180  -10.7247   21.7862 F   0  0  0  0  0  0  0  0  0  0  0  0
  -27.0043  -15.1079   22.7362 F   0  0  0  0  0  0  0  0  0  0  0  0
  1  2  1  0  0  0  0
  1  5  2  0  0  0  0
  2  6  2  0  0  0  0
  3  8  2  0  0  0  0
  3 16  1  0  0  0  0
  4  9  1  0  0  0  0
  4 16  2  0  0  0  0
  5 18  1  0  0  0  0
  6 20  1  0  0  0  0
  7 10  2  0  0  0  0
  7 19  1  0  0  0  0
  8 22  1  0  0  0  0
  9 22  2  0  0  0  0
 10 23  1  0  0  0  0
 11 12  2  0  0  0  0
 11 24  1  0  0  0  0
 12 25  1  0  0  0  0
 13 21  1  0  0  0  0
 13 23  2  0  0  0  0
 14 25  2  0  0  0  0
 14 26  1  0  0  0  0
 15 28  1  0  0  0  0
 15 29  2  0  0  0  0
 16 27  1  0  0  0  0
 17 27  1  0  0  0  0
 17 30  2  0  0  0  0
 17 32  1  0  0  0  0
 18 20  2  0  0  0  0
 18 37  1  0  0  0  0
 19 21  2  0  0  0  0
 19 38  1  0  0  0  0
 20 46  1  0  0  0  0
 21 39  1  0  0  0  0
 22 83  1  0  0  0  0
 23 84  1  0  0  0  0
 24 26  2  0  0  0  0
 24 83  1  0  0  0  0
 25 85  1  0  0  0  0
 26 86  1  0  0  0  0
 27 66  2  0  0  0  0
 28 63  1  0  0  0  0
 28 67  2  0  0  0  0
 29 64  1  0  0  0  0
 29 68  1  0  0  0  0
 30 69  1  0  0  0  0
 30 72  1  0  0  0  0
 31 59  1  0  0  0  0
 31 67  1  0  0  0  0
 31 68  2  0  0  0  0
 32 73  1  0  0  0  0
 32 78  2  0  0  0  0
 33 47  1  0  0  0  0
 33 74  1  0  0  0  0
 33 79  2  0  0  0  0
 34 61  1  0  0  0  0
 34 70  1  0  0  0  0
 34 80  2  0  0  0  0
 35 62  1  0  0  0  0
 35 75  1  0  0  0  0
 35 81  2  0  0  0  0
 36 71  1  0  0  0  0
 36 76  1  0  0  0  0
 36 82  2  0  0  0  0
 37 40  1  0  0  0  0
 38 47  1  0  0  0  0
 39 70  1  0  0  0  0
 40 42  1  0  0  0  0
 41 43  1  0  0  0  0
 41 44  1  0  0  0  0
 42 46  1  0  0  0  0
 43 48  1  0  0  0  0
 44 71  1  0  0  0  0
 45 48  1  0  0  0  0
 45 71  1  0  0  0  0
 46 74  1  0  0  0  0
 47 70  1  0  0  0  0
 48 69  1  0  0  0  0
 49 62  1  0  0  0  0
 50 63  1  0  0  0  0
 51 63  1  0  0  0  0
 52 63  1  0  0  0  0
 53 64  1  0  0  0  0
 54 64  1  0  0  0  0
 55 65  1  0  0  0  0
 56 65  1  0  0  0  0
 57 65  1  0  0  0  0
 58 77  1  0  0  0  0
 59 84  1  0  0  0  0
 60 64  1  0  0  0  0
 60 76  1  0  0  0  0
 61 65  1  0  0  0  0
 61 75  1  0  0  0  0
 62 77  1  0  0  0  0
 66 69  1  0  0  0  0
M  CHG  1  77   1
M  ISO  4  36 100  59 101  76 100  84 101
M  END
> <Batch ID>
0072

> <Smiles>
CNC(C)C(=O)NC(C(=O)N1Cc2cc([101O:1][101CH2:1]c3nc(C(C)(C)C)cc(C(C)(C)C[100NH:0][100C:0](=O)N4CCCC(n5nc(-c6ccc(Oc7ccc(F)cc7F)cc6)c(C(N)=O)c5N)C4)n3)ccc2CC1C(=O)NC1CCCc2ccccc21)C(C)(C)C

> <Shape>
0.183

> <Color>
0.080

> <Negative vol penalty>
0.000

$$$$

  -OEChem-04052318243D

 88 96  0     1  0  0  0  0  0999 V2000
  -30.9010  -25.1328   18.5902 C   0  0  0  0  0  0  0  0  0  0  0  0
  -29.5101  -25.1181   18.5653 C   0  0  0  0  0  0  0  0  0  0  0  0
  -24.0771  -14.9647   21.4769 C   0  0  0  0  0  0  0  0  0  0  0  0
  -26.1167  -16.2497   21.3160 C   0  0  0  0  0  0  0  0  0  0  0  0
  -31.5717  -25.7328   19.6552 C   0  0  0  0  0  0  0  0  0  0  0  0
  -28.7891  -25.7024   19.6061 C   0  0  0  0  0  0  0  0  0  0  0  0
  -23.4320  -28.6392   19.1783 C   0  0  0  0  0  0  0  0  0  0  0  0
  -21.5376  -23.3432   23.7016 C   0  0  0  0  0  0  0  0  0  0  0  0
  -24.8167  -13.7835   21.4200 C   0  0  0  0  0  0  0  0  0  0  0  0
  -26.8564  -15.0685   21.2591 C   0  0  0  0  0  0  0  0  0  0  0  0
  -22.1191  -28.2349   19.4161 C   0  0  0  0  0  0  0  0  0  0  0  0
  -27.6249  -12.7189   18.9527 C   0  0  0  0  0  0  0  0  0  0  0  0
  -28.6366  -12.6332   17.9962 C   0  0  0  0  0  0  0  0  0  0  0  0
  -20.3737  -23.8868   23.1695 C   0  0  0  0  0  0  0  0  0  0  0  0
  -22.2428  -29.1622   21.6397 C   0  0  0  0  0  0  0  0  0  0  0  0
  -30.2664  -12.3062   19.7495 C   0  0  0  0  0  0  0  0  0  0  0  0
  -24.7270  -16.1979   21.4248 C   0  0  0  0  0  0  0  0  0  0  0  0
  -23.6002  -18.1398   22.6360 C   0  0  0  0  0  0  0  0  0  0  0  0
  -30.8585  -26.3333   20.7047 C   0  0  0  0  0  0  0  0  0  0  0  0
  -24.1651  -29.2995   20.1748 C   0  0  0  0  0  0  0  0  0  0  0  0
  -29.4509  -26.3098   20.6867 C   0  0  0  0  0  0  0  0  0  0  0  0
  -23.5640  -29.5761   21.4110 C   0  0  0  0  0  0  0  0  0  0  0  0
  -22.7730  -23.7200   23.1865 C   0  0  0  0  0  0  0  0  0  0  0  0
  -26.2063  -13.8354   21.3111 C   0  0  0  0  0  0  0  0  0  0  0  0
  -21.5252  -28.4938   20.6480 C   0  0  0  0  0  0  0  0  0  0  0  0
  -27.9340  -12.5984   20.3075 C   0  0  0  0  0  0  0  0  0  0  0  0
  -29.9573  -12.4268   18.3946 C   0  0  0  0  0  0  0  0  0  0  0  0
  -29.2548  -12.3920   20.7059 C   0  0  0  0  0  0  0  0  0  0  0  0
  -23.9635  -17.4184   21.4829 C   0  0  0  0  0  0  0  0  0  0  0  0
  -20.4981  -24.7958   22.1312 C   0  0  0  0  0  0  0  0  0  0  0  0
  -22.7900  -24.6364   22.1473 C   0  0  0  0  0  0  0  0  0  0  0  0
  -22.8876  -19.2128   22.1593 C   0  0  0  0  0  0  0  0  0  0  0  0
  -23.8819  -17.8645   24.0146 C   0  0  0  0  0  0  0  0  0  0  0  0
  -26.8290  -28.6681   21.7900 C   0  0  0  0  0  0  0  0  0  0  0  0
  -26.3769  -31.6660   22.9434 C   0  0  0  0  0  0  0  0  0  0  0  0
  -24.2118  -34.2195   23.6057 C   0  0  0  0  0  0  0  0  0  0  0  0
  -23.1776  -22.6749   17.3621 C   0  0  0  0  0  0  0  0  0  0  0  0
  -31.6274  -26.9279   21.8579 C   0  0  0  0  0  0  0  0  0  0  0  0
  -25.5713  -29.7528   19.8932 C   0  0  0  0  0  0  0  0  0  0  0  0
  -24.3012  -30.2998   22.5070 C   0  0  0  0  0  0  0  0  0  0  0  0
  -30.7896  -27.8547   22.7351 C   0  0  0  0  0  0  0  0  0  0  0  0
  -20.4681  -20.2297   17.9793 C   0  0  0  0  0  0  0  0  0  0  0  0
  -29.4454  -27.2111   23.0602 C   0  0  0  0  0  0  0  0  0  0  0  0
  -21.0982  -19.2853   19.0016 C   0  0  0  0  0  0  0  0  0  0  0  0
  -21.5180  -20.8706   17.0767 C   0  0  0  0  0  0  0  0  0  0  0  0
  -23.2342  -20.6238   18.8395 C   0  0  0  0  0  0  0  0  0  0  0  0
  -28.6335  -26.9551   21.7848 C   0  0  1  0  0  0  0  0  0  0  0  0
  -26.3967  -29.9615   21.1591 C   0  0  1  0  0  0  0  0  0  0  0  0
  -22.2078  -19.9971   19.7951 C   0  0  2  0  0  0  0  0  0  0  0  0
  -24.1296  -36.5286   24.5850 C   0  0  0  0  0  0  0  0  0  0  0  0
  -26.5663  -30.4805   25.7485 C   0  0  0  0  0  0  0  0  0  0  0  0
  -25.5512  -32.5910   26.6335 C   0  0  0  0  0  0  0  0  0  0  0  0
  -27.7495  -32.6644   25.4569 C   0  0  0  0  0  0  0  0  0  0  0  0
  -25.2456  -24.0120   17.4859 C   0  0  0  0  0  0  0  0  0  0  0  0
  -23.2693  -35.3925   21.0572 C   0  0  0  0  0  0  0  0  0  0  0  0
  -19.2568  -25.4064   21.5314 C   0  0  0  0  0  0  0  0  0  0  0  0
  -24.0880  -25.0801   21.5567 C   0  0  0  0  0  0  0  0  0  0  0  0
  -18.8170  -26.7036   22.2136 C   0  0  0  0  0  0  0  0  0  0  0  0
  -24.1994  -24.8688   20.0347 C   0  0  0  0  0  0  0  0  0  0  0  0
  -24.1160  -23.4088   19.5944 C   0  0  0  0  0  0  0  0  0  0  0  0
  -19.9011  -27.7750   22.2296 C   0  0  0  0  0  0  0  0  0  1  0  0
  -25.6416  -32.2588   24.1211 C   0  0  1  0  0  0  0  0  0  0  0  0
  -24.2900  -35.7074   23.3151 C   0  0  2  0  0  0  0  0  0  0  0  0
  -24.0233  -23.1402   23.7516 C   0  0  0  0  0  0  0  0  0  0  0  0
  -26.3636  -31.9833   25.4702 C   0  0  0  0  0  0  0  0  0  0  0  0
  -23.5182  -17.9852   20.3585 N   0  0  0  0  0  0  0  0  0  0  0  0
  -21.6805  -25.1860   21.6046 N   0  0  0  0  0  0  0  0  0  0  0  0
  -22.8678  -19.0742   20.8026 N   0  0  0  0  0  0  0  0  0  0  0  0
  -25.6759  -30.7173   22.1855 N   0  0  0  0  0  0  0  0  0  0  0  0
  -22.5830  -21.5024   17.8563 N   0  0  0  0  0  0  0  0  0  0  0  0
  -22.2822  -20.2520   22.7725 N   0  0  0  0  0  0  0  0  0  0  0  0
  -24.6269  -16.7198   24.3287 N   0  0  0  0  0  0  0  0  0  0  0  0
  -28.0322  -28.1841   21.3132 N   0  0  0  0  0  0  0  0  0  0  0  0
  -25.4603  -33.6744   23.8186 N   0  0  0  0  0  0  0  0  0  0  0  0
  -24.1872  -23.2580   18.1427 N   0  0  0  0  0  0  0  0  0  0  0  0
  -23.2179  -36.1056   22.3595 N   0  3  0  0  0  0  0  0  0  0  0  0
  -23.4705  -18.6028   24.9416 O   0  0  0  0  0  0  0  0  0  0  0  0
  -26.1238  -28.1485   22.6470 O   0  0  0  0  0  0  0  0  0  0  0  0
  -27.5281  -32.0365   22.7005 O   0  0  0  0  0  0  0  0  0  0  0  0
  -23.1491  -33.6033   23.6441 O   0  0  0  0  0  0  0  0  0  0  0  0
  -22.8195  -23.1776   16.2892 O   0  0  0  0  0  0  0  0  0  0  0  0
  -26.9284  -12.6829   21.2558 O   0  0  0  0  0  0  0  0  0  0  0  0
  -20.2441  -28.0998   20.8830 O   0  0  0  0  0  0  0  0  0  1  0  0
  -30.9285  -12.3429   17.4759 F   0  0  0  0  0  0  0  0  0  0  0  0
  -29.5577  -12.2742   22.0060 F   0  0  0  0  0  0  0  0  0  0  0  0
  -23.8068  -22.2538   24.7691 F   0  0  0  0  0  0  0  0  0  0  0  0
  -24.7718  -22.4538   22.8371 F   0  0  0  0  0  0  0  0  0  0  0  0
  -24.8584  -24.0897   24.2671 F   0  0  0  0  0  0  0  0  0  0  0  0
  1  2  1  0  0  0  0
  1  5  2  0  0  0  0
  2  6  2  0  0  0  0
  3  9  2  0  0  0  0
  3 17  1  0  0  0  0
  4 10  1  0  0  0  0
  4 17  2  0  0  0  0
  5 19  1  0  0  0  0
  6 21  1  0  0  0  0
  7 11  2  0  0  0  0
  7 20  1  0  0  0  0
  8 14  2  0  0  0  0
  8 23  1  0  0  0  0
  9 24  1  0  0  0  0
 10 24  2  0  0  0  0
 11 25  1  0  0  0  0
 12 13  2  0  0  0  0
 12 26  1  0  0  0  0
 13 27  1  0  0  0  0
 14 30  1  0  0  0  0
 15 22  1  0  0  0  0
 15 25  2  0  0  0  0
 16 27  2  0  0  0  0
 16 28  1  0  0  0  0
 17 29  1  0  0  0  0
 18 29  1  0  0  0  0
 18 32  2  0  0  0  0
 18 33  1  0  0  0  0
 19 21  2  0  0  0  0
 19 38  1  0  0  0  0
 20 22  2  0  0  0  0
 20 39  1  0  0  0  0
 21 47  1  0  0  0  0
 22 40  1  0  0  0  0
 23 31  2  0  0  0  0
 23 64  1  0  0  0  0
 24 82  1  0  0  0  0
 25 83  1  0  0  0  0
 26 28  2  0  0  0  0
 26 82  1  0  0  0  0
 27 84  1  0  0  0  0
 28 85  1  0  0  0  0
 29 66  2  0  0  0  0
 30 56  1  0  0  0  0
 30 67  2  0  0  0  0
 31 57  1  0  0  0  0
 31 67  1  0  0  0  0
 32 68  1  0  0  0  0
 32 71  1  0  0  0  0
 33 72  1  0  0  0  0
 33 77  2  0  0  0  0
 34 48  1  0  0  0  0
 34 73  1  0  0  0  0
 34 78  2  0  0  0  0
 35 62  1  0  0  0  0
 35 69  1  0  0  0  0
 35 79  2  0  0  0  0
 36 63  1  0  0  0  0
 36 74  1  0  0  0  0
 36 80  2  0  0  0  0
 37 70  1  0  0  0  0
 37 75  1  0  0  0  0
 37 81  2  0  0  0  0
 38 41  1  0  0  0  0
 39 48  1  0  0  0  0
 40 69  1  0  0  0  0
 41 43  1  0  0  0  0
 42 44  1  0  0  0  0
 42 45  1  0  0  0  0
 43 47  1  0  0  0  0
 44 49  1  0  0  0  0
 45 70  1  0  0  0  0
 46 49  1  0  0  0  0
 46 70  1  0  0  0  0
 47 73  1  0  0  0  0
 48 69  1  0  0  0  0
 49 68  1  0  0  0  0
 50 63  1  0  0  0  0
 51 65  1  0  0  0  0
 52 65  1  0  0  0  0
 53 65  1  0  0  0  0
 54 75  1  0  0  0  0
 55 76  1  0  0  0  0
 56 58  1  0  0  0  0
 57 59  1  0  0  0  0
 58 61  1  0  0  0  0
 59 60  1  0  0  0  0
 60 75  1  0  0  0  0
 61 83  1  0  0  0  0
 62 65  1  0  0  0  0
 62 74  1  0  0  0  0
 63 76  1  0  0  0  0
 64 86  1  0  0  0  0
 64 87  1  0  0  0  0
 64 88  1  0  0  0  0
 66 68  1  0  0  0  0
M  CHG  1  76   1
M  ISO  4  37 100  61 101  75 100  83 101
M  END
> <Batch ID>
0072

> <Smiles>
CNC(C)C(=O)NC(C(=O)N1Cc2cc([101O:1][101CH2:1]CCc3ccc(C(F)(F)F)c(CCC[100N:0](C)[100C:0](=O)N4CCCC(n5nc(-c6ccc(Oc7ccc(F)cc7F)cc6)c(C(N)=O)c5N)C4)n3)ccc2CC1C(=O)NC1CCCc2ccccc21)C(C)(C)C

> <Shape>
0.269

> <Color>
0.067

> <Negative vol penalty>
0.000

$$$$

  -OEChem-04052318243D

 86 94  0     1  0  0  0  0  0999 V2000
  -28.5073  -11.1509   19.0662 C   0  0  0  0  0  0  0  0  0  0  0  0
  -27.7848  -12.2361   19.5516 C   0  0  0  0  0  0  0  0  0  0  0  0
  -27.8310  -24.1190   25.8886 C   0  0  0  0  0  0  0  0  0  0  0  0
  -25.6417  -23.3019   25.2750 C   0  0  0  0  0  0  0  0  0  0  0  0
  -29.8872  -11.2540   18.8952 C   0  0  0  0  0  0  0  0  0  0  0  0
  -28.4419  -13.4247   19.8674 C   0  0  0  0  0  0  0  0  0  0  0  0
  -26.0044  -17.5117   18.1354 C   0  0  0  0  0  0  0  0  0  0  0  0
  -27.8306  -23.2822   27.0045 C   0  0  0  0  0  0  0  0  0  0  0  0
  -25.6413  -22.4650   26.3910 C   0  0  0  0  0  0  0  0  0  0  0  0
  -24.8923  -17.9432   18.8571 C   0  0  0  0  0  0  0  0  0  0  0  0
  -24.9087  -20.3773   29.2745 C   0  0  0  0  0  0  0  0  0  0  0  0
  -23.7472  -20.3247   30.0450 C   0  0  0  0  0  0  0  0  0  0  0  0
  -26.2407  -19.6477   19.9040 C   0  0  0  0  0  0  0  0  0  0  0  0
  -23.9332  -22.6927   30.4871 C   0  0  0  0  0  0  0  0  0  0  0  0
  -18.8025  -29.0598   23.0975 C   0  0  0  0  0  0  0  0  0  0  0  0
  -26.7365  -24.1289   25.0238 C   0  0  0  0  0  0  0  0  0  0  0  0
  -27.2106  -24.6903   22.5809 C   0  0  0  0  0  0  0  0  0  0  0  0
  -30.5602  -12.4476   19.1999 C   0  0  0  0  0  0  0  0  0  0  0  0
  -27.2476  -18.1390   18.3010 C   0  0  0  0  0  0  0  0  0  0  0  0
  -29.8323  -13.5434   19.7016 C   0  0  0  0  0  0  0  0  0  0  0  0
  -27.3664  -19.2238   19.1813 C   0  0  0  0  0  0  0  0  0  0  0  0
  -26.7358  -22.4552   27.2557 C   0  0  0  0  0  0  0  0  0  0  0  0
  -25.0110  -19.0095   19.7437 C   0  0  0  0  0  0  0  0  0  0  0  0
  -25.5826  -21.5876   29.1104 C   0  0  0  0  0  0  0  0  0  0  0  0
  -23.2594  -21.4824   30.6513 C   0  0  0  0  0  0  0  0  0  0  0  0
  -25.0947  -22.7453   29.7166 C   0  0  0  0  0  0  0  0  0  0  0  0
  -26.7360  -24.9935   23.8712 C   0  0  0  0  0  0  0  0  0  0  0  0
  -19.8267  -28.6377   22.2788 C   0  0  0  0  0  0  0  0  0  0  0  0
  -18.0213  -26.9144   23.2263 C   0  0  0  0  0  0  0  0  0  0  0  0
  -19.0450  -26.4924   22.4070 C   0  0  0  0  0  0  0  0  0  0  0  0
  -26.9861  -25.8344   21.8549 C   0  0  0  0  0  0  0  0  0  0  0  0
  -27.8013  -23.4825   22.0832 C   0  0  0  0  0  0  0  0  0  0  0  0
  -30.1130  -17.2072   19.3133 C   0  0  0  0  0  0  0  0  0  0  0  0
  -30.9802  -20.1927   18.3876 C   0  0  0  0  0  0  0  0  0  0  0  0
  -30.0495  -23.4144   17.7539 C   0  0  0  0  0  0  0  0  0  0  0  0
  -23.0935  -30.3447   22.4524 C   0  0  0  0  0  0  0  0  0  0  0  0
  -32.0595  -12.4960   19.0433 C   0  0  0  0  0  0  0  0  0  0  0  0
  -28.4313  -17.6787   17.4952 C   0  0  0  0  0  0  0  0  0  0  0  0
  -28.6740  -19.9442   19.3802 C   0  0  0  0  0  0  0  0  0  0  0  0
  -32.6269  -13.9131   19.0472 C   0  0  0  0  0  0  0  0  0  0  0  0
  -26.6448  -30.5803   22.3557 C   0  0  0  0  0  0  0  0  0  0  0  0
  -32.0254  -14.7258   20.1894 C   0  0  0  0  0  0  0  0  0  0  0  0
  -27.1137  -29.1479   22.6167 C   0  0  0  0  0  0  0  0  0  0  0  0
  -25.3951  -30.9213   23.1643 C   0  0  0  0  0  0  0  0  0  0  0  0
  -24.7416  -28.5468   23.2574 C   0  0  0  0  0  0  0  0  0  0  0  0
  -30.5058  -14.8577   20.0320 C   0  0  1  0  0  0  0  0  0  0  0  0
  -29.7675  -18.0596   18.1252 C   0  0  1  0  0  0  0  0  0  0  0  0
  -25.9667  -28.1381   22.4217 C   0  0  2  0  0  0  0  0  0  0  0  0
  -17.0087  -25.9595   23.7598 C   0  0  0  0  0  0  0  0  0  0  0  0
  -20.8483  -29.6837   20.2236 C   0  0  0  0  0  0  0  0  0  0  0  0
  -30.9866  -25.6333   17.0498 C   0  0  0  0  0  0  0  0  0  0  0  0
  -32.1395  -20.5871   21.1823 C   0  0  0  0  0  0  0  0  0  0  0  0
  -32.1873  -23.0508   20.7390 C   0  0  0  0  0  0  0  0  0  0  0  0
  -33.5468  -21.5051   19.3300 C   0  0  0  0  0  0  0  0  0  0  0  0
  -28.3604  -23.4877   15.3248 C   0  0  0  0  0  0  0  0  0  0  0  0
  -19.1893  -25.0444   22.0113 C   0  0  0  0  0  0  0  0  0  0  0  0
  -20.6438  -24.5893   21.8462 C   0  0  0  0  0  0  0  0  0  0  0  0
  -20.7686  -23.1192   21.4308 C   0  0  0  0  0  0  0  0  0  0  0  0
  -22.2352  -22.7193   21.2493 C   0  0  0  0  0  0  0  0  0  0  0  0
  -22.4206  -21.2420   20.9015 C   0  0  0  0  0  0  0  0  0  0  0  0
  -23.8788  -20.8150   20.7992 C   0  0  0  0  0  0  0  0  0  1  0  0
  -20.8270  -29.6095   21.7584 C   0  0  2  0  0  0  0  0  0  0  0  0
  -31.0339  -21.5457   19.0552 C   0  0  1  0  0  0  0  0  0  0  0  0
  -30.3435  -24.3363   16.5842 C   0  0  2  0  0  0  0  0  0  0  0  0
  -32.2026  -21.6576   20.0745 C   0  0  0  0  0  0  0  0  0  0  0  0
  -17.8814  -28.2057   23.5860 N   0  0  0  0  0  0  0  0  0  0  0  0
  -26.2472  -26.2331   23.9627 N   0  0  0  0  0  0  0  0  0  0  0  0
  -19.9663  -27.3464   21.9188 N   0  0  0  0  0  0  0  0  0  0  0  0
  -26.4134  -26.7190   22.7208 N   0  0  0  0  0  0  0  0  0  0  0  0
  -29.8039  -19.4529   18.5743 N   0  0  0  0  0  0  0  0  0  0  0  0
  -24.3451  -29.9262   22.9334 N   0  0  0  0  0  0  0  0  0  0  0  0
  -27.2247  -26.1601   20.5667 N   0  0  0  0  0  0  0  0  0  0  0  0
  -27.9582  -22.4033   22.9635 N   0  0  0  0  0  0  0  0  0  0  0  0
  -30.1858  -15.8558   19.0341 N   0  0  0  0  0  0  0  0  0  0  0  0
  -31.0830  -22.5300   17.9794 N   0  0  0  0  0  0  0  0  0  0  0  0
  -22.1574  -29.3370   22.2551 N   0  0  0  0  0  0  0  0  0  0  0  0
  -29.0853  -24.6696   15.8584 N   0  3  0  0  0  0  0  0  0  0  0  0
  -28.1939  -23.3693   20.8972 O   0  0  0  0  0  0  0  0  0  0  0  0
  -30.3012  -17.7365   20.4024 O   0  0  0  0  0  0  0  0  0  0  0  0
  -31.9434  -19.8096   17.7191 O   0  0  0  0  0  0  0  0  0  0  0  0
  -29.0088  -23.4754   18.4049 O   0  0  0  0  0  0  0  0  0  0  0  0
  -22.8316  -31.5280   22.2113 O   0  0  0  0  0  0  0  0  0  0  0  0
  -26.7352  -21.6384   28.3445 O   0  0  0  0  0  0  0  0  0  0  0  0
  -23.9273  -19.4323   20.4499 O   0  0  0  0  0  0  0  0  0  1  0  0
  -22.1431  -21.4320   31.3899 F   0  0  0  0  0  0  0  0  0  0  0  0
  -25.7371  -23.9111   29.5615 F   0  0  0  0  0  0  0  0  0  0  0  0
  1  2  1  0  0  0  0
  1  5  2  0  0  0  0
  2  6  2  0  0  0  0
  3  8  2  0  0  0  0
  3 16  1  0  0  0  0
  4  9  1  0  0  0  0
  4 16  2  0  0  0  0
  5 18  1  0  0  0  0
  6 20  1  0  0  0  0
  7 10  2  0  0  0  0
  7 19  1  0  0  0  0
  8 22  1  0  0  0  0
  9 22  2  0  0  0  0
 10 23  1  0  0  0  0
 11 12  2  0  0  0  0
 11 24  1  0  0  0  0
 12 25  1  0  0  0  0
 13 21  1  0  0  0  0
 13 23  2  0  0  0  0
 14 25  2  0  0  0  0
 14 26  1  0  0  0  0
 15 28  1  0  0  0  0
 15 66  2  0  0  0  0
 16 27  1  0  0  0  0
 17 27  1  0  0  0  0
 17 31  2  0  0  0  0
 17 32  1  0  0  0  0
 18 20  2  0  0  0  0
 18 37  1  0  0  0  0
 19 21  2  0  0  0  0
 19 38  1  0  0  0  0
 20 46  1  0  0  0  0
 21 39  1  0  0  0  0
 22 83  1  0  0  0  0
 23 84  1  0  0  0  0
 24 26  2  0  0  0  0
 24 83  1  0  0  0  0
 25 85  1  0  0  0  0
 26 86  1  0  0  0  0
 27 67  2  0  0  0  0
 28 62  1  0  0  0  0
 28 68  2  0  0  0  0
 29 30  2  0  0  0  0
 29 49  1  0  0  0  0
 29 66  1  0  0  0  0
 30 56  1  0  0  0  0
 30 68  1  0  0  0  0
 31 69  1  0  0  0  0
 31 72  1  0  0  0  0
 32 73  1  0  0  0  0
 32 78  2  0  0  0  0
 33 47  1  0  0  0  0
 33 74  1  0  0  0  0
 33 79  2  0  0  0  0
 34 63  1  0  0  0  0
 34 70  1  0  0  0  0
 34 80  2  0  0  0  0
 35 64  1  0  0  0  0
 35 75  1  0  0  0  0
 35 81  2  0  0  0  0
 36 71  1  0  0  0  0
 36 76  1  0  0  0  0
 36 82  2  0  0  0  0
 37 40  1  0  0  0  0
 38 47  1  0  0  0  0
 39 70  1  0  0  0  0
 40 42  1  0  0  0  0
 41 43  1  0  0  0  0
 41 44  1  0  0  0  0
 42 46  1  0  0  0  0
 43 48  1  0  0  0  0
 44 71  1  0  0  0  0
 45 48  1  0  0  0  0
 45 71  1  0  0  0  0
 46 74  1  0  0  0  0
 47 70  1  0  0  0  0
 48 69  1  0  0  0  0
 50 62  1  0  0  0  0
 51 64  1  0  0  0  0
 52 65  1  0  0  0  0
 53 65  1  0  0  0  0
 54 65  1  0  0  0  0
 55 77  1  0  0  0  0
 56 57  1  0  0  0  0
 57 58  1  0  0  0  0
 58 59  1  0  0  0  0
 59 60  1  0  0  0  0
 60 61  1  0  0  0  0
 61 84  1  0  0  0  0
 62 76  1  0  0  0  0
 63 65  1  0  0  0  0
 63 75  1  0  0  0  0
 64 77  1  0  0  0  0
 67 69  1  0  0  0  0
M  CHG  1  77   1
M  ISO  4  36 100  61 101  76 100  84 101
M  END
> <Batch ID>
0072

> <Smiles>
CNC(C)C(=O)NC(C(=O)N1Cc2cc([101O:1][101CH2:1]CCCCCc3nc(C(C)[100NH:0][100C:0](=O)N4CCCC(n5nc(-c6ccc(Oc7ccc(F)cc7F)cc6)c(C(N)=O)c5N)C4)cnc3C)ccc2CC1C(=O)NC1CCCc2ccccc21)C(C)(C)C

> <Shape>
0.205

> <Color>
0.072

> <Negative vol penalty>
0.000

$$$$

  -OEChem-04052318243D

 87 95  0     1  0  0  0  0  0999 V2000
  -20.5093  -18.5377   16.8021 C   0  0  0  0  0  0  0  0  0  0  0  0
  -21.6578  -19.0512   17.3960 C   0  0  0  0  0  0  0  0  0  0  0  0
  -27.0684  -31.8589   20.3112 C   0  0  0  0  0  0  0  0  0  0  0  0
  -26.1056  -31.1325   22.4046 C   0  0  0  0  0  0  0  0  0  0  0  0
  -20.1380  -17.2140   17.0344 C   0  0  0  0  0  0  0  0  0  0  0  0
  -22.4351  -18.2415   18.2234 C   0  0  0  0  0  0  0  0  0  0  0  0
  -27.3900  -18.6846   17.2759 C   0  0  0  0  0  0  0  0  0  0  0  0
  -26.9814  -33.1860   20.7317 C   0  0  0  0  0  0  0  0  0  0  0  0
  -26.0187  -32.4596   22.8251 C   0  0  0  0  0  0  0  0  0  0  0  0
  -28.0369  -19.8109   17.7825 C   0  0  0  0  0  0  0  0  0  0  0  0
  -25.2101  -35.6787   24.3062 C   0  0  0  0  0  0  0  0  0  0  0  0
  -24.0233  -36.0902   24.9127 C   0  0  0  0  0  0  0  0  0  0  0  0
  -28.8822  -18.4928   19.6174 C   0  0  0  0  0  0  0  0  0  0  0  0
  -22.8019  -35.5245   22.9064 C   0  0  0  0  0  0  0  0  0  0  0  0
  -26.4988  -23.2965   23.8918 C   0  0  0  0  0  0  0  0  0  0  0  0
  -26.6304  -30.8321   21.1476 C   0  0  0  0  0  0  0  0  0  0  0  0
  -27.7989  -28.5776   20.9037 C   0  0  0  0  0  0  0  0  0  0  0  0
  -20.9164  -16.3849   17.8573 C   0  0  0  0  0  0  0  0  0  0  0  0
  -27.4755  -17.4543   17.9433 C   0  0  0  0  0  0  0  0  0  0  0  0
  -22.0732  -16.9059   18.4679 C   0  0  0  0  0  0  0  0  0  0  0  0
  -28.2376  -17.3517   19.1159 C   0  0  0  0  0  0  0  0  0  0  0  0
  -26.4566  -33.4864   21.9886 C   0  0  0  0  0  0  0  0  0  0  0  0
  -28.7807  -19.7158   18.9550 C   0  0  0  0  0  0  0  0  0  0  0  0
  -25.1928  -35.1901   22.9998 C   0  0  0  0  0  0  0  0  0  0  0  0
  -22.8192  -36.0131   24.2128 C   0  0  0  0  0  0  0  0  0  0  0  0
  -23.9887  -35.1130   22.2999 C   0  0  0  0  0  0  0  0  0  0  0  0
  -26.7195  -29.4611   20.7136 C   0  0  0  0  0  0  0  0  0  0  0  0
  -27.2557  -22.3065   23.3314 C   0  0  0  0  0  0  0  0  0  0  0  0
  -27.3927  -27.4068   20.3116 C   0  0  0  0  0  0  0  0  0  0  0  0
  -25.2949  -22.3320   22.3041 C   0  0  0  0  0  0  0  0  0  0  0  0
  -29.0563  -28.7958   21.5572 C   0  0  0  0  0  0  0  0  0  0  0  0
  -25.3818  -15.4996   19.3214 C   0  0  0  0  0  0  0  0  0  0  0  0
  -27.9718  -13.5703   19.6245 C   0  0  0  0  0  0  0  0  0  0  0  0
  -31.3680  -13.2865   19.8031 C   0  0  0  0  0  0  0  0  0  0  0  0
  -23.1566  -23.6538   19.7755 C   0  0  0  0  0  0  0  0  0  0  0  0
  -20.4492  -14.9745   18.1166 C   0  0  0  0  0  0  0  0  0  0  0  0
  -26.7939  -16.2425   17.3695 C   0  0  0  0  0  0  0  0  0  0  0  0
  -28.3776  -16.0493   19.8593 C   0  0  0  0  0  0  0  0  0  0  0  0
  -21.5309  -14.0732   18.7064 C   0  0  0  0  0  0  0  0  0  0  0  0
  -23.4526  -26.4051   17.3170 C   0  0  0  0  0  0  0  0  0  0  0  0
  -22.2528  -14.7823   19.8478 C   0  0  0  0  0  0  0  0  0  0  0  0
  -24.3623  -27.3990   18.0373 C   0  0  0  0  0  0  0  0  0  0  0  0
  -22.6429  -25.5632   18.2984 C   0  0  0  0  0  0  0  0  0  0  0  0
  -24.3814  -25.8508   20.0331 C   0  0  0  0  0  0  0  0  0  0  0  0
  -22.9558  -16.0517   19.3519 C   0  0  1  0  0  0  0  0  0  0  0  0
  -26.5263  -15.1589   18.4094 C   0  0  1  0  0  0  0  0  0  0  0  0
  -25.2456  -26.6827   19.0737 C   0  0  2  0  0  0  0  0  0  0  0  0
  -24.1705  -20.4991   20.9858 C   0  0  0  0  0  0  0  0  0  0  0  0
  -33.1903  -11.5851   20.0893 C   0  0  0  0  0  0  0  0  0  0  0  0
  -29.7470  -24.0482   23.1725 C   0  0  0  0  0  0  0  0  0  0  0  0
  -24.6686  -25.5676   23.9624 C   0  0  0  0  0  0  0  0  0  0  0  0
  -23.1998  -23.5826   24.5182 C   0  0  0  0  0  0  0  0  0  0  0  0
  -27.3353  -13.3933   22.6033 C   0  0  0  0  0  0  0  0  0  0  0  0
  -29.6486  -12.5106   22.9741 C   0  0  0  0  0  0  0  0  0  0  0  0
  -28.0407  -11.2340   21.5572 C   0  0  0  0  0  0  0  0  0  0  0  0
  -25.5044  -22.9454   19.5198 C   0  0  0  0  0  0  0  0  0  0  0  0
  -32.5465  -13.9347   17.1668 C   0  0  0  0  0  0  0  0  0  0  0  0
  -28.6598  -21.8366   23.6259 C   0  0  0  0  0  0  0  0  0  0  0  0
  -29.5532  -22.3452   21.2933 C   0  0  0  0  0  0  0  0  0  0  0  0
  -29.5809  -20.8813   20.8674 C   0  0  0  0  0  0  0  0  0  1  0  0
  -24.1902  -21.9875   21.3747 C   0  0  2  0  0  0  0  0  0  0  0  0
  -29.0449  -13.3774   20.6686 C   0  0  1  0  0  0  0  0  0  0  0  0
  -32.3401  -12.3602   19.0948 C   0  0  2  0  0  0  0  0  0  0  0  0
  -29.7539  -22.5593   22.8070 C   0  0  1  0  0  0  0  0  0  0  0  0
  -24.1863  -24.1858   23.5165 C   0  0  0  0  0  0  0  0  0  0  0  0
  -28.5133  -12.6539   21.9381 C   0  0  0  0  0  0  0  0  0  0  0  0
  -25.7039  -28.8996   20.0523 N   0  0  0  0  0  0  0  0  0  0  0  0
  -25.2910  -23.2901   23.2366 N   0  0  0  0  0  0  0  0  0  0  0  0
  -26.1435  -27.6507   19.8216 N   0  0  0  0  0  0  0  0  0  0  0  0
  -26.4858  -21.7263   22.3522 N   0  3  0  0  0  0  0  0  0  0  0  0
  -27.6872  -14.8944   19.2617 N   0  0  0  0  0  0  0  0  0  0  0  0
  -23.5025  -24.9287   19.2982 N   0  0  0  0  0  0  0  0  0  0  0  0
  -27.9859  -26.2027   20.1674 N   0  0  0  0  0  0  0  0  0  0  0  0
  -29.3112  -30.0577   22.1114 N   0  0  0  0  0  0  0  0  0  0  0  0
  -24.1844  -15.7137   18.6657 N   0  0  0  0  0  0  0  0  0  0  0  0
  -30.1431  -12.6857   20.0024 N   0  0  0  0  0  0  0  0  0  0  0  0
  -24.2074  -22.8108   20.1676 N   0  0  0  0  0  0  0  0  0  0  0  0
  -33.2484  -13.1419   18.2089 N   0  3  0  0  0  0  0  0  0  0  0  0
  -29.9346  -27.9034   21.6326 O   0  0  0  0  0  0  0  0  0  0  0  0
  -25.5707  -15.5621   20.5306 O   0  0  0  0  0  0  0  0  0  0  0  0
  -27.4118  -12.5822   19.1431 O   0  0  0  0  0  0  0  0  0  0  0  0
  -31.6668  -14.4275   20.1486 O   0  0  0  0  0  0  0  0  0  0  0  0
  -21.9763  -23.2864   19.8381 O   0  0  0  0  0  0  0  0  0  0  0  0
  -26.3718  -34.7813   22.3994 O   0  0  0  0  0  0  0  0  0  0  0  0
  -29.4126  -20.8138   19.4519 O   0  0  0  0  0  0  0  0  0  1  0  0
  -21.6794  -36.4068   24.7958 F   0  0  0  0  0  0  0  0  0  0  0  0
  -23.9657  -34.6434   21.0450 F   0  0  0  0  0  0  0  0  0  0  0  0
  1  2  1  0  0  0  0
  1  5  2  0  0  0  0
  2  6  2  0  0  0  0
  3  8  2  0  0  0  0
  3 16  1  0  0  0  0
  4  9  1  0  0  0  0
  4 16  2  0  0  0  0
  5 18  1  0  0  0  0
  6 20  1  0  0  0  0
  7 10  2  0  0  0  0
  7 19  1  0  0  0  0
  8 22  1  0  0  0  0
  9 22  2  0  0  0  0
 10 23  1  0  0  0  0
 11 12  2  0  0  0  0
 11 24  1  0  0  0  0
 12 25  1  0  0  0  0
 13 21  1  0  0  0  0
 13 23  2  0  0  0  0
 14 25  2  0  0  0  0
 14 26  1  0  0  0  0
 15 28  2  0  0  0  0
 15 68  1  0  0  0  0
 16 27  1  0  0  0  0
 17 27  1  0  0  0  0
 17 29  2  0  0  0  0
 17 31  1  0  0  0  0
 18 20  2  0  0  0  0
 18 36  1  0  0  0  0
 19 21  2  0  0  0  0
 19 37  1  0  0  0  0
 20 45  1  0  0  0  0
 21 38  1  0  0  0  0
 22 84  1  0  0  0  0
 23 85  1  0  0  0  0
 24 26  2  0  0  0  0
 24 84  1  0  0  0  0
 25 86  1  0  0  0  0
 26 87  1  0  0  0  0
 27 67  2  0  0  0  0
 28 58  1  0  0  0  0
 28 70  1  0  0  0  0
 29 69  1  0  0  0  0
 29 73  1  0  0  0  0
 30 61  1  0  0  0  0
 30 68  1  0  0  0  0
 30 70  2  0  0  0  0
 31 74  1  0  0  0  0
 31 79  2  0  0  0  0
 32 46  1  0  0  0  0
 32 75  1  0  0  0  0
 32 80  2  0  0  0  0
 33 62  1  0  0  0  0
 33 71  1  0  0  0  0
 33 81  2  0  0  0  0
 34 63  1  0  0  0  0
 34 76  1  0  0  0  0
 34 82  2  0  0  0  0
 35 72  1  0  0  0  0
 35 77  1  0  0  0  0
 35 83  2  0  0  0  0
 36 39  1  0  0  0  0
 37 46  1  0  0  0  0
 38 71  1  0  0  0  0
 39 41  1  0  0  0  0
 40 42  1  0  0  0  0
 40 43  1  0  0  0  0
 41 45  1  0  0  0  0
 42 47  1  0  0  0  0
 43 72  1  0  0  0  0
 44 47  1  0  0  0  0
 44 72  1  0  0  0  0
 45 75  1  0  0  0  0
 46 71  1  0  0  0  0
 47 69  1  0  0  0  0
 48 61  1  0  0  0  0
 49 63  1  0  0  0  0
 50 64  1  0  0  0  0
 51 65  1  0  0  0  0
 52 65  1  0  0  0  0
 53 66  1  0  0  0  0
 54 66  1  0  0  0  0
 55 66  1  0  0  0  0
 56 77  1  0  0  0  0
 57 78  1  0  0  0  0
 58 64  1  0  0  0  0
 59 60  1  0  0  0  0
 59 64  1  0  0  0  0
 60 85  1  0  0  0  0
 61 77  1  0  0  0  0
 62 66  1  0  0  0  0
 62 76  1  0  0  0  0
 63 78  1  0  0  0  0
 65 68  1  0  0  0  0
 67 69  1  0  0  0  0
M  CHG  2  70   1  78   1
M  ISO  4  35 100  60 101  77 100  85 101
M  END
> <Batch ID>
0072

> <Smiles>
CNC(C)C(=O)NC(C(=O)N1Cc2cc([101O:1][101CH2:1]CC(C)Cc3cn(C(C)C)c(C(C)[100N:0](C)[100C:0](=O)N4CCCC(n5nc(-c6ccc(Oc7ccc(F)cc7F)cc6)c(C(N)=O)c5N)C4)n3)ccc2CC1C(=O)NC1CCCc2ccccc21)C(C)(C)C

> <Shape>
0.204

> <Color>
0.087

> <Negative vol penalty>
0.000

$$$$

  -OEChem-04052318243D

 85 93  0     1  0  0  0  0  0999 V2000
  -32.3222  -13.0078   21.2144 C   0  0  0  0  0  0  0  0  0  0  0  0
  -31.8445  -14.2707   21.5494 C   0  0  0  0  0  0  0  0  0  0  0  0
  -27.3288  -23.8719   20.7376 C   0  0  0  0  0  0  0  0  0  0  0  0
  -29.1794  -25.1507   21.6189 C   0  0  0  0  0  0  0  0  0  0  0  0
  -31.5483  -12.1576   20.4257 C   0  0  0  0  0  0  0  0  0  0  0  0
  -30.5929  -14.6846   21.0950 C   0  0  0  0  0  0  0  0  0  0  0  0
  -25.0010  -18.7179   23.0392 C   0  0  0  0  0  0  0  0  0  0  0  0
  -27.8777  -22.7074   21.2746 C   0  0  0  0  0  0  0  0  0  0  0  0
  -29.7284  -23.9863   22.1559 C   0  0  0  0  0  0  0  0  0  0  0  0
  -24.2050  -19.7578   22.5609 C   0  0  0  0  0  0  0  0  0  0  0  0
  -30.3391  -20.5256   20.4962 C   0  0  0  0  0  0  0  0  0  0  0  0
  -30.3696  -19.3908   19.6858 C   0  0  0  0  0  0  0  0  0  0  0  0
  -22.9219  -18.1741   21.2706 C   0  0  0  0  0  0  0  0  0  0  0  0
  -29.0084  -18.2066   21.2926 C   0  0  0  0  0  0  0  0  0  0  0  0
  -21.3902  -26.2353   22.1019 C   0  0  0  0  0  0  0  0  0  0  0  0
  -23.6341  -25.9336   22.6767 C   0  0  0  0  0  0  0  0  0  0  0  0
  -27.9797  -25.0935   20.9097 C   0  0  0  0  0  0  0  0  0  0  0  0
  -27.1438  -26.5624   18.9989 C   0  0  0  0  0  0  0  0  0  0  0  0
  -30.2824  -12.5576   19.9693 C   0  0  0  0  0  0  0  0  0  0  0  0
  -24.7699  -17.3974   22.6276 C   0  0  0  0  0  0  0  0  0  0  0  0
  -29.8018  -13.8395   20.2983 C   0  0  0  0  0  0  0  0  0  0  0  0
  -23.7148  -17.1189   21.7471 C   0  0  0  0  0  0  0  0  0  0  0  0
  -22.4277  -26.5411   22.9590 C   0  0  0  0  0  0  0  0  0  0  0  0
  -29.0775  -22.7646   21.9838 C   0  0  0  0  0  0  0  0  0  0  0  0
  -23.1671  -19.4864   21.6743 C   0  0  0  0  0  0  0  0  0  0  0  0
  -29.6433  -20.5009   21.7050 C   0  0  0  0  0  0  0  0  0  0  0  0
  -29.7043  -18.2313   20.0839 C   0  0  0  0  0  0  0  0  0  0  0  0
  -28.9780  -19.3414   22.1031 C   0  0  0  0  0  0  0  0  0  0  0  0
  -27.4134  -26.2966   20.3548 C   0  0  0  0  0  0  0  0  0  0  0  0
  -26.6152  -27.8301   18.9960 C   0  0  0  0  0  0  0  0  0  0  0  0
  -22.7366  -24.8731   20.8776 C   0  0  0  0  0  0  0  0  0  0  0  0
  -27.3524  -25.7371   17.8452 C   0  0  0  0  0  0  0  0  0  0  0  0
  -26.4546  -15.2125   21.0489 C   0  0  0  0  0  0  0  0  0  0  0  0
  -23.9419  -13.3013   21.7946 C   0  0  0  0  0  0  0  0  0  0  0  0
  -23.7819  -31.0058   23.2384 C   0  0  0  0  0  0  0  0  0  0  0  0
  -20.6406  -13.0467   22.6211 C   0  0  0  0  0  0  0  0  0  0  0  0
  -29.5023  -11.6220   19.0800 C   0  0  0  0  0  0  0  0  0  0  0  0
  -25.6206  -16.2836   23.1734 C   0  0  0  0  0  0  0  0  0  0  0  0
  -23.4124  -15.7160   21.2903 C   0  0  0  0  0  0  0  0  0  0  0  0
  -28.0272  -11.9929   18.9507 C   0  0  0  0  0  0  0  0  0  0  0  0
  -26.7221  -31.9456   21.4186 C   0  0  0  0  0  0  0  0  0  0  0  0
  -27.8738  -13.4870   18.6845 C   0  0  0  0  0  0  0  0  0  0  0  0
  -27.2241  -30.6233   20.8399 C   0  0  0  0  0  0  0  0  0  0  0  0
  -26.0980  -31.7508   22.7969 C   0  0  0  0  0  0  0  0  0  0  0  0
  -25.5016  -29.4123   22.2512 C   0  0  0  0  0  0  0  0  0  0  0  0
  -28.4385  -14.3151   19.8451 C   0  0  1  0  0  0  0  0  0  0  0  0
  -25.6203  -15.0420   22.2869 C   0  0  1  0  0  0  0  0  0  0  0  0
  -26.1119  -29.5596   20.8462 C   0  0  2  0  0  0  0  0  0  0  0  0
  -22.4558  -26.7152   25.4533 C   0  0  0  0  0  0  0  0  0  0  0  0
  -18.8628  -11.3507   23.1315 C   0  0  0  0  0  0  0  0  0  0  0  0
  -22.5884  -29.4543   21.7130 C   0  0  0  0  0  0  0  0  0  0  0  0
  -21.4448  -30.4876   23.6815 C   0  0  0  0  0  0  0  0  0  0  0  0
  -23.7282  -12.6351   18.8247 C   0  0  0  0  0  0  0  0  0  0  0  0
  -21.4308  -11.7412   19.2618 C   0  0  0  0  0  0  0  0  0  0  0  0
  -23.4075  -10.6848   20.3569 C   0  0  0  0  0  0  0  0  0  0  0  0
  -20.2244  -14.1310   25.3433 C   0  0  0  0  0  0  0  0  0  0  0  0
  -22.9100  -23.9338   19.7109 C   0  0  0  0  0  0  0  0  0  0  0  0
  -22.3204  -22.5418   19.9480 C   0  0  0  0  0  0  0  0  0  0  0  0
  -23.1823  -28.7223   24.1017 C   0  0  0  0  0  0  0  0  0  0  0  0
  -22.9992  -21.7838   21.0828 C   0  0  0  0  0  0  0  0  0  1  0  0
  -22.2559  -27.4605   24.1098 C   0  0  1  0  0  0  0  0  0  0  0  0
  -22.6267  -12.9594   21.1372 C   0  0  1  0  0  0  0  0  0  0  0  0
  -19.9327  -12.2627   23.7114 C   0  0  2  0  0  0  0  0  0  0  0  0
  -22.7680  -29.8917   23.1702 C   0  0  0  0  0  0  0  0  0  0  0  0
  -22.8049  -12.0319   19.9021 C   0  0  0  0  0  0  0  0  0  0  0  0
  -21.5100  -25.4023   21.0473 N   0  0  0  0  0  0  0  0  0  0  0  0
  -23.8248  -25.0909   21.6404 N   0  0  0  0  0  0  0  0  0  0  0  0
  -27.0836  -27.3138   21.1551 N   0  0  0  0  0  0  0  0  0  0  0  0
  -26.6013  -28.2311   20.2995 N   0  0  0  0  0  0  0  0  0  0  0  0
  -24.2763  -14.6619   21.8471 N   0  0  0  0  0  0  0  0  0  0  0  0
  -25.0620  -30.7168   22.7655 N   0  0  0  0  0  0  0  0  0  0  0  0
  -26.1657  -28.6298   18.0056 N   0  0  0  0  0  0  0  0  0  0  0  0
  -28.5803  -25.8235   17.1750 N   0  0  0  0  0  0  0  0  0  0  0  0
  -27.5110  -14.3267   20.9559 N   0  0  0  0  0  0  0  0  0  0  0  0
  -21.7790  -12.4020   22.1855 N   0  0  0  0  0  0  0  0  0  0  0  0
  -19.2842  -13.1917   24.6796 N   0  3  0  0  0  0  0  0  0  0  0  0
  -26.4698  -24.9584   17.4114 O   0  0  0  0  0  0  0  0  0  0  0  0
  -26.1606  -16.0825   20.2374 O   0  0  0  0  0  0  0  0  0  0  0  0
  -24.6433  -12.3951   22.2513 O   0  0  0  0  0  0  0  0  0  0  0  0
  -23.4435  -32.1005   23.6960 O   0  0  0  0  0  0  0  0  0  0  0  0
  -20.2232  -14.1215   22.1956 O   0  0  0  0  0  0  0  0  0  0  0  0
  -29.6133  -21.6286   22.5081 O   0  0  0  0  0  0  0  0  0  0  0  0
  -22.3890  -20.4996   21.2054 O   0  0  0  0  0  0  0  0  0  1  0  0
  -29.7324  -17.1421   19.3048 F   0  0  0  0  0  0  0  0  0  0  0  0
  -28.3069  -19.3120   23.2627 F   0  0  0  0  0  0  0  0  0  0  0  0
  1  2  1  0  0  0  0
  1  5  2  0  0  0  0
  2  6  2  0  0  0  0
  3  8  2  0  0  0  0
  3 17  1  0  0  0  0
  4  9  1  0  0  0  0
  4 17  2  0  0  0  0
  5 19  1  0  0  0  0
  6 21  1  0  0  0  0
  7 10  2  0  0  0  0
  7 20  1  0  0  0  0
  8 24  1  0  0  0  0
  9 24  2  0  0  0  0
 10 25  1  0  0  0  0
 11 12  2  0  0  0  0
 11 26  1  0  0  0  0
 12 27  1  0  0  0  0
 13 22  1  0  0  0  0
 13 25  2  0  0  0  0
 14 27  2  0  0  0  0
 14 28  1  0  0  0  0
 15 23  1  0  0  0  0
 15 66  2  0  0  0  0
 16 23  2  0  0  0  0
 16 67  1  0  0  0  0
 17 29  1  0  0  0  0
 18 29  1  0  0  0  0
 18 30  2  0  0  0  0
 18 32  1  0  0  0  0
 19 21  2  0  0  0  0
 19 37  1  0  0  0  0
 20 22  2  0  0  0  0
 20 38  1  0  0  0  0
 21 46  1  0  0  0  0
 22 39  1  0  0  0  0
 23 61  1  0  0  0  0
 24 82  1  0  0  0  0
 25 83  1  0  0  0  0
 26 28  2  0  0  0  0
 26 82  1  0  0  0  0
 27 84  1  0  0  0  0
 28 85  1  0  0  0  0
 29 68  2  0  0  0  0
 30 69  1  0  0  0  0
 30 72  1  0  0  0  0
 31 57  1  0  0  0  0
 31 66  1  0  0  0  0
 31 67  2  0  0  0  0
 32 73  1  0  0  0  0
 32 77  2  0  0  0  0
 33 47  1  0  0  0  0
 33 74  1  0  0  0  0
 33 78  2  0  0  0  0
 34 62  1  0  0  0  0
 34 70  1  0  0  0  0
 34 79  2  0  0  0  0
 35 64  1  0  0  0  0
 35 71  1  0  0  0  0
 35 80  2  0  0  0  0
 36 63  1  0  0  0  0
 36 75  1  0  0  0  0
 36 81  2  0  0  0  0
 37 40  1  0  0  0  0
 38 47  1  0  0  0  0
 39 70  1  0  0  0  0
 40 42  1  0  0  0  0
 41 43  1  0  0  0  0
 41 44  1  0  0  0  0
 42 46  1  0  0  0  0
 43 48  1  0  0  0  0
 44 71  1  0  0  0  0
 45 48  1  0  0  0  0
 45 71  1  0  0  0  0
 46 74  1  0  0  0  0
 47 70  1  0  0  0  0
 48 69  1  0  0  0  0
 49 61  1  0  0  0  0
 50 63  1  0  0  0  0
 51 64  1  0  0  0  0
 52 64  1  0  0  0  0
 53 65  1  0  0  0  0
 54 65  1  0  0  0  0
 55 65  1  0  0  0  0
 56 76  1  0  0  0  0
 57 58  1  0  0  0  0
 58 60  1  0  0  0  0
 59 61  1  0  0  0  0
 59 64  1  0  0  0  0
 60 83  1  0  0  0  0
 62 65  1  0  0  0  0
 62 75  1  0  0  0  0
 63 76  1  0  0  0  0
 68 69  1  0  0  0  0
M  CHG  1  76   1
M  ISO  4  35 100  60 101  64 100  83 101
M  END
> <Batch ID>
0072

> <Smiles>
CNC(C)C(=O)NC(C(=O)N1Cc2cc([101O:1][101CH2:1]CCc3ncc(C(C)C[100C:0](C)(C)[100C:0](=O)N4CCCC(n5nc(-c6ccc(Oc7ccc(F)cc7F)cc6)c(C(N)=O)c5N)C4)cn3)ccc2CC1C(=O)NC1CCCc2ccccc21)C(C)(C)C

> <Shape>
0.241

> <Color>
0.059

> <Negative vol penalty>
0.000

$$$$

  -OEChem-04052318243D

 90 99  0     1  0  0  0  0  0999 V2000
  -20.0295  -27.9336   18.8724 C   0  0  0  0  0  0  0  0  0  0  0  0
  -21.0427  -27.0348   18.5547 C   0  0  0  0  0  0  0  0  0  0  0  0
  -25.9832  -27.4882   18.9773 C   0  0  0  0  0  0  0  0  0  0  0  0
  -26.7198  -28.0710   21.2032 C   0  0  0  0  0  0  0  0  0  0  0  0
  -19.8167  -28.3016   20.2002 C   0  0  0  0  0  0  0  0  0  0  0  0
  -21.8445  -26.5042   19.5647 C   0  0  0  0  0  0  0  0  0  0  0  0
  -22.2375  -19.3917   20.6363 C   0  0  0  0  0  0  0  0  0  0  0  0
  -24.9809  -28.4549   19.0557 C   0  0  0  0  0  0  0  0  0  0  0  0
  -25.7174  -29.0379   21.2817 C   0  0  0  0  0  0  0  0  0  0  0  0
  -22.5294  -18.0339   20.7685 C   0  0  0  0  0  0  0  0  0  0  0  0
  -25.1941  -32.1784   20.1487 C   0  0  0  0  0  0  0  0  0  0  0  0
  -25.5424  -33.4313   20.6533 C   0  0  0  0  0  0  0  0  0  0  0  0
  -23.9627  -18.5149   22.6559 C   0  0  0  0  0  0  0  0  0  0  0  0
  -27.5791  -17.3790   18.9186 C   0  0  0  0  0  0  0  0  0  0  0  0
  -28.6710  -15.7150   20.2688 C   0  0  0  0  0  0  0  0  0  0  0  0
  -23.9311  -33.1624   22.4333 C   0  0  0  0  0  0  0  0  0  0  0  0
  -26.8527  -27.2961   20.0511 C   0  0  0  0  0  0  0  0  0  0  0  0
  -29.2003  -26.4696   19.4916 C   0  0  0  0  0  0  0  0  0  0  0  0
  -20.6101  -27.7679   21.2280 C   0  0  0  0  0  0  0  0  0  0  0  0
  -22.7956  -20.3156   21.5241 C   0  0  0  0  0  0  0  0  0  0  0  0
  -21.6430  -26.8665   20.9074 C   0  0  0  0  0  0  0  0  0  0  0  0
  -23.6641  -19.8748   22.5362 C   0  0  0  0  0  0  0  0  0  0  0  0
  -24.8480  -29.2298   20.2079 C   0  0  0  0  0  0  0  0  0  0  0  0
  -23.3900  -17.5967   21.7757 C   0  0  0  0  0  0  0  0  0  0  0  0
  -24.2143  -31.4175   20.7864 C   0  0  0  0  0  0  0  0  0  0  0  0
  -27.6994  -16.0578   19.3350 C   0  0  0  0  0  0  0  0  0  0  0  0
  -24.9109  -33.9233   21.7955 C   0  0  0  0  0  0  0  0  0  0  0  0
  -23.5828  -31.9095   21.9287 C   0  0  0  0  0  0  0  0  0  0  0  0
  -27.8879  -26.2972   19.9708 C   0  0  0  0  0  0  0  0  0  0  0  0
  -28.4477  -18.3119   19.4618 C   0  0  0  0  0  0  0  0  0  0  0  0
  -29.4907  -16.7224   20.7517 C   0  0  0  0  0  0  0  0  0  0  0  0
  -25.2319  -12.4681   21.4268 C   0  0  0  0  0  0  0  0  0  0  0  0
  -25.2618  -13.8172   21.7030 C   0  0  0  0  0  0  0  0  0  0  0  0
  -26.2750  -12.8540   19.4287 C   0  0  0  0  0  0  0  0  0  0  0  0
  -26.3044  -14.2033   19.7045 C   0  0  0  0  0  0  0  0  0  0  0  0
  -29.7800  -25.2316   19.6249 C   0  0  0  0  0  0  0  0  0  0  0  0
  -29.8385  -27.6439   18.9725 C   0  0  0  0  0  0  0  0  0  0  0  0
  -28.3662  -19.7212   19.0588 C   0  0  0  0  0  0  0  0  0  0  0  0
  -23.0782  -23.9033   22.5846 C   0  0  0  0  0  0  0  0  0  0  0  0
  -22.9166  -22.2265   25.1482 C   0  0  0  0  0  0  0  0  0  0  0  0
  -22.2896  -20.0650   27.7118 C   0  0  0  0  0  0  0  0  0  0  0  0
  -20.3730  -28.2319   22.6434 C   0  0  0  0  0  0  0  0  0  0  0  0
  -22.5578  -21.7944   21.3811 C   0  0  0  0  0  0  0  0  0  0  0  0
  -24.2687  -20.9083   23.4468 C   0  0  0  0  0  0  0  0  0  0  0  0
  -21.0237  -27.3367   23.6949 C   0  0  0  0  0  0  0  0  0  0  0  0
  -28.8398  -21.2088   22.3344 C   0  0  0  0  0  0  0  0  0  0  0  0
  -22.4631  -27.0152   23.3055 C   0  0  0  0  0  0  0  0  0  0  0  0
  -28.7489  -22.6998   22.0069 C   0  0  0  0  0  0  0  0  0  0  0  0
  -27.8857  -20.3907   21.4696 C   0  0  0  0  0  0  0  0  0  0  0  0
  -27.9779  -22.0848   19.6711 C   0  0  0  0  0  0  0  0  0  0  0  0
  -22.5177  -26.2503   21.9776 C   0  0  1  0  0  0  0  0  0  0  0  0
  -22.4945  -22.5289   22.7323 C   0  0  1  0  0  0  0  0  0  0  0  0
  -28.9412  -22.9519   20.5001 C   0  0  1  0  0  0  0  0  0  0  0  0
  -30.5443  -16.3906   21.7550 C   0  0  0  0  0  0  0  0  0  0  0  0
  -23.2482  -11.0254   21.9469 C   0  0  0  0  0  0  0  0  0  0  0  0
  -25.9249  -12.5460   16.9651 C   0  0  0  0  0  0  0  0  0  0  0  0
  -22.0292  -19.9907   30.2066 C   0  0  0  0  0  0  0  0  0  0  0  0
  -25.9410  -22.4616   25.4671 C   0  0  0  0  0  0  0  0  0  0  0  0
  -25.7077  -21.4537   27.7470 C   0  0  0  0  0  0  0  0  0  0  0  0
  -24.6113  -23.6341   27.2311 C   0  0  0  0  0  0  0  0  0  0  0  0
  -19.5056  -19.0815   27.5084 C   0  0  0  0  0  0  0  0  0  0  0  0
  -24.6353  -11.4922   22.3823 C   0  0  0  0  0  0  0  0  0  0  0  0
  -24.6926  -14.3709   22.9867 C   0  0  0  0  0  0  0  0  0  0  0  0
  -26.8433  -12.3117   18.1623 C   0  0  0  0  0  0  0  0  0  0  0  0
  -24.5548  -15.8891   22.9525 C   0  0  0  0  0  0  0  0  0  1  0  0
  -23.6694  -21.5079   26.2392 C   0  0  1  0  0  0  0  0  0  0  0  0
  -21.3136  -20.1346   28.8725 C   0  0  2  0  0  0  0  0  0  0  0  0
  -24.9727  -22.2506   26.6481 C   0  0  0  0  0  0  0  0  0  0  0  0
  -27.6476  -25.0480   20.3780 N   0  0  0  0  0  0  0  0  0  0  0  0
  -29.4037  -18.0166   20.3709 N   0  0  0  0  0  0  0  0  0  0  0  0
  -25.7380  -11.9622   20.2847 N   0  0  0  0  0  0  0  0  0  0  0  0
  -25.7986  -14.7091   20.8468 N   0  0  0  0  0  0  0  0  0  0  0  0
  -28.8169  -24.4242   20.1549 N   0  0  0  0  0  0  0  0  0  0  0  0
  -28.1034  -20.6748   20.0455 N   0  0  0  0  0  0  0  0  0  0  0  0
  -23.2501  -21.8991   23.8284 N   0  0  0  0  0  0  0  0  0  0  0  0
  -31.0144  -24.7657   19.3393 N   0  0  0  0  0  0  0  0  0  0  0  0
  -29.0983  -28.8322   18.9054 N   0  0  0  0  0  0  0  0  0  0  0  0
  -22.1676  -24.8607   22.1800 N   0  0  0  0  0  0  0  0  0  0  0  0
  -22.7218  -21.3181   27.3322 N   0  0  0  0  0  0  0  0  0  0  0  0
  -20.3002  -19.0474   28.7631 N   0  3  0  0  0  0  0  0  0  0  0  0
  -31.0246  -27.6356   18.5645 O   0  0  0  0  0  0  0  0  0  0  0  0
  -28.5491  -19.9555   17.8651 O   0  0  0  0  0  0  0  0  0  0  0  0
  -24.2669  -24.0836   22.8214 O   0  0  0  0  0  0  0  0  0  0  0  0
  -22.0596  -23.0600   25.4550 O   0  0  0  0  0  0  0  0  0  0  0  0
  -22.6368  -19.0048   27.1962 O   0  0  0  0  0  0  0  0  0  0  0  0
  -23.8702  -30.1735   20.2847 O   0  0  0  0  0  0  0  0  0  0  0  0
  -26.8569  -15.0893   18.8227 O   0  0  0  0  0  0  0  0  0  0  0  0
  -23.6671  -16.2693   21.9019 O   0  0  0  0  0  0  0  0  0  1  0  0
  -25.2465  -35.1258   22.2808 F   0  0  0  0  0  0  0  0  0  0  0  0
  -22.6415  -31.1826   22.5464 F   0  0  0  0  0  0  0  0  0  0  0  0
  1  2  1  0  0  0  0
  1  5  2  0  0  0  0
  2  6  2  0  0  0  0
  3  8  2  0  0  0  0
  3 17  1  0  0  0  0
  4  9  1  0  0  0  0
  4 17  2  0  0  0  0
  5 19  1  0  0  0  0
  6 21  1  0  0  0  0
  7 10  2  0  0  0  0
  7 20  1  0  0  0  0
  8 23  1  0  0  0  0
  9 23  2  0  0  0  0
 10 24  1  0  0  0  0
 11 12  2  0  0  0  0
 11 25  1  0  0  0  0
 12 27  1  0  0  0  0
 13 22  1  0  0  0  0
 13 24  2  0  0  0  0
 14 26  2  0  0  0  0
 14 30  1  0  0  0  0
 15 26  1  0  0  0  0
 15 31  2  0  0  0  0
 16 27  2  0  0  0  0
 16 28  1  0  0  0  0
 17 29  1  0  0  0  0
 18 29  1  0  0  0  0
 18 36  2  0  0  0  0
 18 37  1  0  0  0  0
 19 21  2  0  0  0  0
 19 42  1  0  0  0  0
 20 22  2  0  0  0  0
 20 43  1  0  0  0  0
 21 51  1  0  0  0  0
 22 44  1  0  0  0  0
 23 86  1  0  0  0  0
 24 88  1  0  0  0  0
 25 28  2  0  0  0  0
 25 86  1  0  0  0  0
 26 87  1  0  0  0  0
 27 89  1  0  0  0  0
 28 90  1  0  0  0  0
 29 69  2  0  0  0  0
 30 38  1  0  0  0  0
 30 70  2  0  0  0  0
 31 54  1  0  0  0  0
 31 70  1  0  0  0  0
 32 33  2  0  0  0  0
 32 62  1  0  0  0  0
 32 71  1  0  0  0  0
 33 63  1  0  0  0  0
 33 72  1  0  0  0  0
 34 35  1  0  0  0  0
 34 64  1  0  0  0  0
 34 71  2  0  0  0  0
 35 72  2  0  0  0  0
 35 87  1  0  0  0  0
 36 73  1  0  0  0  0
 36 76  1  0  0  0  0
 37 77  1  0  0  0  0
 37 81  2  0  0  0  0
 38 74  1  0  0  0  0
 38 82  2  0  0  0  0
 39 52  1  0  0  0  0
 39 78  1  0  0  0  0
 39 83  2  0  0  0  0
 40 66  1  0  0  0  0
 40 75  1  0  0  0  0
 40 84  2  0  0  0  0
 41 67  1  0  0  0  0
 41 79  1  0  0  0  0
 41 85  2  0  0  0  0
 42 45  1  0  0  0  0
 43 52  1  0  0  0  0
 44 75  1  0  0  0  0
 45 47  1  0  0  0  0
 46 48  1  0  0  0  0
 46 49  1  0  0  0  0
 47 51  1  0  0  0  0
 48 53  1  0  0  0  0
 49 74  1  0  0  0  0
 50 53  1  0  0  0  0
 50 74  1  0  0  0  0
 51 78  1  0  0  0  0
 52 75  1  0  0  0  0
 53 73  1  0  0  0  0
 55 62  1  0  0  0  0
 56 64  1  0  0  0  0
 57 67  1  0  0  0  0
 58 68  1  0  0  0  0
 59 68  1  0  0  0  0
 60 68  1  0  0  0  0
 61 80  1  0  0  0  0
 63 65  1  0  0  0  0
 65 88  1  0  0  0  0
 66 68  1  0  0  0  0
 66 79  1  0  0  0  0
 67 80  1  0  0  0  0
 69 73  1  0  0  0  0
M  CHG  1  80   1
M  ISO  4  30 100  38 100  65 101  88 101
M  END
> <Batch ID>
0072

> <Smiles>
CCc1nc(CC)c(Oc2cc(C)n[100c:0]([100C:0](=O)N3CCCC(n4nc(-c5ccc(Oc6ccc(F)cc6F)cc5)c(C(N)=O)c4N)C3)c2)nc1C[101CH2:1][101O:1]c1ccc2c(c1)CN(C(=O)C(NC(=O)C(C)NC)C(C)(C)C)C(C(=O)NC1CCCc3ccccc31)C2

> <Shape>
0.230

> <Color>
0.069

> <Negative vol penalty>
0.000

$$$$

  -OEChem-04052318243D

 87 95  0     1  0  0  0  0  0999 V2000
  -17.0693  -29.0765   24.4588 C   0  0  0  0  0  0  0  0  0  0  0  0
  -17.2700  -27.8203   23.8957 C   0  0  0  0  0  0  0  0  0  0  0  0
  -24.4120  -15.2669   22.3373 C   0  0  0  0  0  0  0  0  0  0  0  0
  -25.7646  -13.9691   20.8132 C   0  0  0  0  0  0  0  0  0  0  0  0
  -17.7927  -30.1726   23.9907 C   0  0  0  0  0  0  0  0  0  0  0  0
  -18.1935  -27.6597   22.8633 C   0  0  0  0  0  0  0  0  0  0  0  0
  -22.8346  -22.8878   20.2165 C   0  0  0  0  0  0  0  0  0  0  0  0
  -23.3564  -14.3720   22.1627 C   0  0  0  0  0  0  0  0  0  0  0  0
  -24.7091  -13.0741   20.6386 C   0  0  0  0  0  0  0  0  0  0  0  0
  -23.1652  -22.2574   19.0177 C   0  0  0  0  0  0  0  0  0  0  0  0
  -23.3325  -10.4890   22.3247 C   0  0  0  0  0  0  0  0  0  0  0  0
  -23.6273   -9.1262   22.3626 C   0  0  0  0  0  0  0  0  0  0  0  0
  -24.4151  -24.2075   18.3439 C   0  0  0  0  0  0  0  0  0  0  0  0
  -22.7906   -8.8826   20.1092 C   0  0  0  0  0  0  0  0  0  0  0  0
  -25.6063  -22.2282   13.6434 C   0  0  0  0  0  0  0  0  0  0  0  0
  -25.6161  -15.0655   21.6626 C   0  0  0  0  0  0  0  0  0  0  0  0
  -27.7289  -15.9214   22.8075 C   0  0  0  0  0  0  0  0  0  0  0  0
  -18.7326  -30.0236   22.9587 C   0  0  0  0  0  0  0  0  0  0  0  0
  -23.2835  -24.1892   20.4837 C   0  0  0  0  0  0  0  0  0  0  0  0
  -18.9292  -28.7552   22.3801 C   0  0  0  0  0  0  0  0  0  0  0  0
  -24.0910  -24.8512   19.5479 C   0  0  0  0  0  0  0  0  0  0  0  0
  -23.5050  -13.2756   21.3133 C   0  0  0  0  0  0  0  0  0  0  0  0
  -23.9531  -22.9183   18.0799 C   0  0  0  0  0  0  0  0  0  0  0  0
  -22.7667  -11.0487   21.1791 C   0  0  0  0  0  0  0  0  0  0  0  0
  -23.3564   -8.3230   21.2548 C   0  0  0  0  0  0  0  0  0  0  0  0
  -22.4958  -10.2455   20.0714 C   0  0  0  0  0  0  0  0  0  0  0  0
  -26.7066  -15.9899   21.8421 C   0  0  0  0  0  0  0  0  0  0  0  0
  -24.9462  -21.3233   14.4261 C   0  0  0  0  0  0  0  0  0  0  0  0
  -28.5095  -17.0241   22.5599 C   0  0  0  0  0  0  0  0  0  0  0  0
  -27.0681  -20.7038   14.3067 C   0  0  0  0  0  0  0  0  0  0  0  0
  -27.9530  -14.9479   23.8361 C   0  0  0  0  0  0  0  0  0  0  0  0
  -21.8685  -26.9871   21.0062 C   0  0  0  0  0  0  0  0  0  0  0  0
  -24.9007  -27.9658   21.6147 C   0  0  0  0  0  0  0  0  0  0  0  0
  -29.3529  -20.1593   17.5866 C   0  0  0  0  0  0  0  0  0  0  0  0
  -28.2475  -27.4907   21.1460 C   0  0  0  0  0  0  0  0  0  0  0  0
  -19.4565  -31.2467   22.4539 C   0  0  0  0  0  0  0  0  0  0  0  0
  -22.9404  -24.8451   21.7930 C   0  0  0  0  0  0  0  0  0  0  0  0
  -24.6151  -26.2413   19.7954 C   0  0  0  0  0  0  0  0  0  0  0  0
  -20.6873  -30.9216   21.6115 C   0  0  0  0  0  0  0  0  0  0  0  0
  -28.2853  -21.4636   20.8094 C   0  0  0  0  0  0  0  0  0  0  0  0
  -20.3621  -29.8396   20.5866 C   0  0  0  0  0  0  0  0  0  0  0  0
  -27.8243  -20.1900   21.5169 C   0  0  0  0  0  0  0  0  0  0  0  0
  -27.9779  -21.4180   19.3149 C   0  0  0  0  0  0  0  0  0  0  0  0
  -28.0799  -18.9453   19.3264 C   0  0  0  0  0  0  0  0  0  0  0  0
  -19.9401  -28.5362   21.2754 C   0  0  1  0  0  0  0  0  0  0  0  0
  -23.0247  -26.3674   21.7389 C   0  0  1  0  0  0  0  0  0  0  0  0
  -28.3991  -18.9385   20.8307 C   0  0  2  0  0  0  0  0  0  0  0  0
  -25.5234  -17.9508   14.8743 C   0  0  0  0  0  0  0  0  0  0  0  0
  -28.8547  -19.3858   13.1465 C   0  0  0  0  0  0  0  0  0  0  0  0
  -30.4788  -28.4745   21.7383 C   0  0  0  0  0  0  0  0  0  0  0  0
  -22.7468  -19.9667   14.3906 C   0  0  0  0  0  0  0  0  0  0  0  0
  -22.7071  -22.4451   14.2080 C   0  0  0  0  0  0  0  0  0  0  0  0
  -30.1212  -22.4081   16.9744 C   0  0  0  0  0  0  0  0  0  0  0  0
  -24.4588  -30.1906   19.5739 C   0  0  0  0  0  0  0  0  0  0  0  0
  -26.9389  -30.5258   19.5060 C   0  0  0  0  0  0  0  0  0  0  0  0
  -25.6902  -30.8941   21.6338 C   0  0  0  0  0  0  0  0  0  0  0  0
  -29.0936  -25.0241   22.5455 C   0  0  0  0  0  0  0  0  0  0  0  0
  -29.4910  -20.7820   15.1539 C   0  0  0  0  0  0  0  0  0  0  0  0
  -25.6108  -19.2426   15.6687 C   0  0  0  0  0  0  0  0  0  0  0  0
  -23.3402  -21.3628   16.3886 C   0  0  0  0  0  0  0  0  0  1  0  0
  -28.3399  -19.9608   14.4877 C   0  0  1  0  0  0  0  0  0  0  0  0
  -26.0266  -28.5360   20.7863 C   0  0  1  0  0  0  0  0  0  0  0  0
  -29.4081  -27.4658   22.1242 C   0  0  2  0  0  0  0  0  0  0  0  0
  -23.4659  -21.2591   14.8466 C   0  0  0  0  0  0  0  0  0  0  0  0
  -29.1869  -21.2699   16.5801 C   0  0  1  0  0  0  0  0  0  0  0  0
  -25.7673  -30.0112   20.3692 C   0  0  0  0  0  0  0  0  0  0  0  0
  -26.8242  -17.0523   21.0411 N   0  0  0  0  0  0  0  0  0  0  0  0
  -25.8747  -20.3911   14.8222 N   0  0  0  0  0  0  0  0  0  0  0  0
  -27.9296  -17.6614   21.5027 N   0  0  0  0  0  0  0  0  0  0  0  0
  -26.9172  -21.8203   13.5871 N   0  3  0  0  0  0  0  0  0  0  0  0
  -24.2470  -26.8429   21.0877 N   0  0  0  0  0  0  0  0  0  0  0  0
  -28.5183  -20.1977   18.7038 N   0  0  0  0  0  0  0  0  0  0  0  0
  -29.6283  -17.5010   23.1457 N   0  0  0  0  0  0  0  0  0  0  0  0
  -27.0547  -13.8783   23.9508 N   0  0  0  0  0  0  0  0  0  0  0  0
  -21.0997  -27.8338   21.7818 N   0  0  0  0  0  0  0  0  0  0  0  0
  -27.2452  -28.3403   21.5642 N   0  0  0  0  0  0  0  0  0  0  0  0
  -30.0286  -26.1113   22.1574 N   0  3  0  0  0  0  0  0  0  0  0  0
  -28.9119  -15.0333   24.6403 O   0  0  0  0  0  0  0  0  0  0  0  0
  -21.6881  -26.7182   19.8243 O   0  0  0  0  0  0  0  0  0  0  0  0
  -24.6164  -28.4929   22.6931 O   0  0  0  0  0  0  0  0  0  0  0  0
  -30.2012  -19.2864   17.3855 O   0  0  0  0  0  0  0  0  0  0  0  0
  -28.2332  -26.8260   20.1123 O   0  0  0  0  0  0  0  0  0  0  0  0
  -22.4753  -12.4020   21.1428 O   0  0  0  0  0  0  0  0  0  0  0  0
  -24.2767  -22.3055   16.9088 O   0  0  0  0  0  0  0  0  0  1  0  0
  -23.6410   -7.0147   21.2907 F   0  0  0  0  0  0  0  0  0  0  0  0
  -21.9533  -10.7776   18.9676 F   0  0  0  0  0  0  0  0  0  0  0  0
  -27.9167  -21.7596   16.6259 F   0  0  0  0  0  0  0  0  0  0  0  0
  1  2  1  0  0  0  0
  1  5  2  0  0  0  0
  2  6  2  0  0  0  0
  3  8  2  0  0  0  0
  3 16  1  0  0  0  0
  4  9  1  0  0  0  0
  4 16  2  0  0  0  0
  5 18  1  0  0  0  0
  6 20  1  0  0  0  0
  7 10  2  0  0  0  0
  7 19  1  0  0  0  0
  8 22  1  0  0  0  0
  9 22  2  0  0  0  0
 10 23  1  0  0  0  0
 11 12  2  0  0  0  0
 11 24  1  0  0  0  0
 12 25  1  0  0  0  0
 13 21  1  0  0  0  0
 13 23  2  0  0  0  0
 14 25  2  0  0  0  0
 14 26  1  0  0  0  0
 15 28  2  0  0  0  0
 15 70  1  0  0  0  0
 16 27  1  0  0  0  0
 17 27  1  0  0  0  0
 17 29  2  0  0  0  0
 17 31  1  0  0  0  0
 18 20  2  0  0  0  0
 18 36  1  0  0  0  0
 19 21  2  0  0  0  0
 19 37  1  0  0  0  0
 20 45  1  0  0  0  0
 21 38  1  0  0  0  0
 22 83  1  0  0  0  0
 23 84  1  0  0  0  0
 24 26  2  0  0  0  0
 24 83  1  0  0  0  0
 25 85  1  0  0  0  0
 26 86  1  0  0  0  0
 27 67  2  0  0  0  0
 28 64  1  0  0  0  0
 28 68  1  0  0  0  0
 29 69  1  0  0  0  0
 29 73  1  0  0  0  0
 30 61  1  0  0  0  0
 30 68  1  0  0  0  0
 30 70  2  0  0  0  0
 31 74  1  0  0  0  0
 31 78  2  0  0  0  0
 32 46  1  0  0  0  0
 32 75  1  0  0  0  0
 32 79  2  0  0  0  0
 33 62  1  0  0  0  0
 33 71  1  0  0  0  0
 33 80  2  0  0  0  0
 34 65  1  0  0  0  0
 34 72  1  0  0  0  0
 34 81  2  0  0  0  0
 35 63  1  0  0  0  0
 35 76  1  0  0  0  0
 35 82  2  0  0  0  0
 36 39  1  0  0  0  0
 37 46  1  0  0  0  0
 38 71  1  0  0  0  0
 39 41  1  0  0  0  0
 40 42  1  0  0  0  0
 40 43  1  0  0  0  0
 41 45  1  0  0  0  0
 42 47  1  0  0  0  0
 43 72  1  0  0  0  0
 44 47  1  0  0  0  0
 44 72  1  0  0  0  0
 45 75  1  0  0  0  0
 46 71  1  0  0  0  0
 47 69  1  0  0  0  0
 48 59  1  0  0  0  0
 49 61  1  0  0  0  0
 50 63  1  0  0  0  0
 51 64  1  0  0  0  0
 52 64  1  0  0  0  0
 53 65  1  0  0  0  0
 54 66  1  0  0  0  0
 55 66  1  0  0  0  0
 56 66  1  0  0  0  0
 57 77  1  0  0  0  0
 58 61  1  0  0  0  0
 58 65  1  0  0  0  0
 59 68  1  0  0  0  0
 60 64  1  0  0  0  0
 60 84  1  0  0  0  0
 62 66  1  0  0  0  0
 62 76  1  0  0  0  0
 63 77  1  0  0  0  0
 65 87  1  0  0  0  0
 67 69  1  0  0  0  0
M  CHG  2  70   1  77   1
M  ISO  4  34 100  60 101  65 100  84 101
M  END
> <Batch ID>
0072

> <Smiles>
CCn1c(C(C)(C)[101CH2:1][101O:1]c2ccc3c(c2)CN(C(=O)C(NC(=O)C(C)NC)C(C)(C)C)C(C(=O)NC2CCCc4ccccc42)C3)cnc1C(C)C[100C:0](C)(F)[100C:0](=O)N1CCCC(n2nc(-c3ccc(Oc4ccc(F)cc4F)cc3)c(C(N)=O)c2N)C1

> <Shape>
0.215

> <Color>
0.052

> <Negative vol penalty>
0.000

$$$$

  -OEChem-04052318243D

 89 97  0     1  0  0  0  0  0999 V2000
  -31.7037  -33.3509   22.9957 C   0  0  0  0  0  0  0  0  0  0  0  0
  -31.8056  -32.0846   22.4287 C   0  0  0  0  0  0  0  0  0  0  0  0
  -24.4531  -18.7259   23.1031 C   0  0  0  0  0  0  0  0  0  0  0  0
  -24.6429  -19.3418   20.7747 C   0  0  0  0  0  0  0  0  0  0  0  0
  -30.5799  -33.6877   23.7492 C   0  0  0  0  0  0  0  0  0  0  0  0
  -30.7842  -31.1539   22.6158 C   0  0  0  0  0  0  0  0  0  0  0  0
  -28.8696  -26.9343   18.6114 C   0  0  0  0  0  0  0  0  0  0  0  0
  -24.8317  -20.0158   23.4752 C   0  0  0  0  0  0  0  0  0  0  0  0
  -25.0215  -20.6317   21.1467 C   0  0  0  0  0  0  0  0  0  0  0  0
  -29.1463  -25.5745   18.4775 C   0  0  0  0  0  0  0  0  0  0  0  0
  -25.3984  -23.2492   25.0368 C   0  0  0  0  0  0  0  0  0  0  0  0
  -24.6691  -23.8725   26.0494 C   0  0  0  0  0  0  0  0  0  0  0  0
  -27.1405  -25.0510   19.7111 C   0  0  0  0  0  0  0  0  0  0  0  0
  -22.6626  -23.6908   24.7160 C   0  0  0  0  0  0  0  0  0  0  0  0
  -27.9670  -15.8504   18.2411 C   0  0  0  0  0  0  0  0  0  0  0  0
  -24.3588  -18.3889   21.7528 C   0  0  0  0  0  0  0  0  0  0  0  0
  -22.6614  -16.5869   21.1369 C   0  0  0  0  0  0  0  0  0  0  0  0
  -29.5399  -32.7639   23.9376 C   0  0  0  0  0  0  0  0  0  0  0  0
  -27.7300  -27.3637   19.3068 C   0  0  0  0  0  0  0  0  0  0  0  0
  -29.6461  -31.4781   23.3737 C   0  0  0  0  0  0  0  0  0  0  0  0
  -26.8502  -26.4168   19.8503 C   0  0  0  0  0  0  0  0  0  0  0  0
  -25.1158  -20.9687   22.4970 C   0  0  0  0  0  0  0  0  0  0  0  0
  -28.2833  -24.6326   19.0299 C   0  0  0  0  0  0  0  0  0  0  0  0
  -24.7598  -22.8469   23.8638 C   0  0  0  0  0  0  0  0  0  0  0  0
  -23.3012  -24.0932   25.8890 C   0  0  0  0  0  0  0  0  0  0  0  0
  -23.3919  -23.0677   23.7034 C   0  0  0  0  0  0  0  0  0  0  0  0
  -23.9683  -17.0564   21.3679 C   0  0  0  0  0  0  0  0  0  0  0  0
  -28.8089  -16.5239   19.1464 C   0  0  0  0  0  0  0  0  0  0  0  0
  -28.4097  -14.5504   18.2626 C   0  0  0  0  0  0  0  0  0  0  0  0
  -22.8259  -15.2655   20.7999 C   0  0  0  0  0  0  0  0  0  0  0  0
  -21.4106  -17.2829   21.2195 C   0  0  0  0  0  0  0  0  0  0  0  0
  -27.2182  -29.1042   21.9168 C   0  0  0  0  0  0  0  0  0  0  0  0
  -24.1118  -28.8125   21.0293 C   0  0  0  0  0  0  0  0  0  0  0  0
  -27.4854  -12.2679   18.4730 C   0  0  0  0  0  0  0  0  0  0  0  0
  -21.7398  -27.0509   19.3213 C   0  0  0  0  0  0  0  0  0  0  0  0
  -28.3664  -33.1576   24.7994 C   0  0  0  0  0  0  0  0  0  0  0  0
  -27.4316  -28.8336   19.4194 C   0  0  0  0  0  0  0  0  0  0  0  0
  -25.6027  -26.8254   20.5887 C   0  0  0  0  0  0  0  0  0  0  0  0
  -27.1568  -32.2406   24.6373 C   0  0  0  0  0  0  0  0  0  0  0  0
  -25.7351  -11.5449   21.5150 C   0  0  0  0  0  0  0  0  0  0  0  0
  -27.5863  -30.7776   24.6820 C   0  0  0  0  0  0  0  0  0  0  0  0
  -24.9874  -12.8431   21.8162 C   0  0  0  0  0  0  0  0  0  0  0  0
  -27.0914  -11.8178   20.8722 C   0  0  0  0  0  0  0  0  0  0  0  0
  -26.2738  -13.9581   19.9381 C   0  0  0  0  0  0  0  0  0  0  0  0
  -28.5477  -30.4495   23.5334 C   0  0  1  0  0  0  0  0  0  0  0  0
  -26.5139  -29.1689   20.5911 C   0  0  1  0  0  0  0  0  0  0  0  0
  -24.8853  -13.7264   20.5601 C   0  0  2  0  0  0  0  0  0  0  0  0
  -31.6053  -13.3811   18.8337 C   0  0  0  0  0  0  0  0  0  0  0  0
  -19.2826  -27.0368   18.8123 C   0  0  0  0  0  0  0  0  0  0  0  0
  -29.0742  -12.7430   16.6551 C   0  0  0  0  0  0  0  0  0  0  0  0
  -26.7119  -13.5487   16.5890 C   0  0  0  0  0  0  0  0  0  0  0  0
  -23.5392  -27.7594   23.8352 C   0  0  0  0  0  0  0  0  0  0  0  0
  -21.3500  -26.8900   22.9867 C   0  0  0  0  0  0  0  0  0  0  0  0
  -21.8186  -29.3398   22.9428 C   0  0  0  0  0  0  0  0  0  0  0  0
  -31.1153  -18.8934   19.1302 C   0  0  0  0  0  0  0  0  0  0  0  0
  -29.5814  -18.4521   17.2112 C   0  0  0  0  0  0  0  0  0  0  0  0
  -30.4461  -21.7844   20.4912 C   0  0  0  0  0  0  0  0  0  0  0  0
  -28.5122  -20.4261   21.3318 C   0  0  0  0  0  0  0  0  0  0  0  0
  -22.2224  -27.3200   16.4137 C   0  0  0  0  0  0  0  0  0  0  0  0
  -28.7773  -17.9897   19.5186 C   0  0  0  0  0  0  0  0  0  0  0  0
  -29.0741  -20.4233   18.7987 C   0  0  0  0  0  0  0  0  0  0  0  0
  -30.2471  -13.3789   19.5140 C   0  0  0  0  0  0  0  0  0  0  0  0
  -28.0972  -22.4458   19.9460 C   0  0  0  0  0  0  0  0  0  1  0  0
  -23.0086  -27.8207   21.3092 C   0  0  1  0  0  0  0  0  0  0  0  0
  -20.6581  -27.4948   18.3531 C   0  0  2  0  0  0  0  0  0  0  0  0
  -27.9429  -13.3562   17.5348 C   0  0  0  0  0  0  0  0  0  0  0  0
  -22.4535  -27.9445   22.7563 C   0  0  0  0  0  0  0  0  0  0  0  0
  -29.6498  -18.9751   18.6570 C   0  0  0  0  0  0  0  0  0  0  0  0
  -29.0503  -21.2291   20.1409 C   0  0  0  0  0  0  0  0  0  0  0  0
  -24.8947  -16.1103   21.1926 N   0  0  0  0  0  0  0  0  0  0  0  0
  -29.7175  -15.7183   19.7026 N   0  0  0  0  0  0  0  0  0  0  0  0
  -29.4491  -14.5251   19.1453 N   0  0  0  0  0  0  0  0  0  0  0  0
  -24.1689  -15.0330   20.8480 N   0  0  0  0  0  0  0  0  0  0  0  0
  -25.3578  -28.2744   20.6776 N   0  0  0  0  0  0  0  0  0  0  0  0
  -26.9541  -12.6783   19.6958 N   0  0  0  0  0  0  0  0  0  0  0  0
  -21.9512  -14.2915   20.4702 N   0  0  0  0  0  0  0  0  0  0  0  0
  -21.4222  -18.6373   21.5795 N   0  0  0  0  0  0  0  0  0  0  0  0
  -27.8184  -30.2905   22.2935 N   0  0  0  0  0  0  0  0  0  0  0  0
  -22.0077  -28.0185   20.2664 N   0  0  0  0  0  0  0  0  0  0  0  0
  -20.9130  -26.9306   16.9975 N   0  3  0  0  0  0  0  0  0  0  0  0
  -20.3139  -16.7161   20.9971 O   0  0  0  0  0  0  0  0  0  0  0  0
  -27.2158  -28.0560   22.5516 O   0  0  0  0  0  0  0  0  0  0  0  0
  -23.8748  -30.0202   21.1125 O   0  0  0  0  0  0  0  0  0  0  0  0
  -27.5950  -11.0889   18.1264 O   0  0  0  0  0  0  0  0  0  0  0  0
  -22.2894  -25.9540   19.2487 O   0  0  0  0  0  0  0  0  0  0  0  0
  -25.4850  -22.2276   22.8597 O   0  0  0  0  0  0  0  0  0  0  0  0
  -28.5532  -23.2956   18.9003 O   0  0  0  0  0  0  0  0  0  1  0  0
  -22.6007  -24.6903   26.8622 F   0  0  0  0  0  0  0  0  0  0  0  0
  -22.7726  -22.6822   22.5792 F   0  0  0  0  0  0  0  0  0  0  0  0
  1  2  1  0  0  0  0
  1  5  2  0  0  0  0
  2  6  2  0  0  0  0
  3  8  2  0  0  0  0
  3 16  1  0  0  0  0
  4  9  1  0  0  0  0
  4 16  2  0  0  0  0
  5 18  1  0  0  0  0
  6 20  1  0  0  0  0
  7 10  2  0  0  0  0
  7 19  1  0  0  0  0
  8 22  1  0  0  0  0
  9 22  2  0  0  0  0
 10 23  1  0  0  0  0
 11 12  2  0  0  0  0
 11 24  1  0  0  0  0
 12 25  1  0  0  0  0
 13 21  1  0  0  0  0
 13 23  2  0  0  0  0
 14 25  2  0  0  0  0
 14 26  1  0  0  0  0
 15 28  1  0  0  0  0
 15 29  2  0  0  0  0
 16 27  1  0  0  0  0
 17 27  1  0  0  0  0
 17 30  2  0  0  0  0
 17 31  1  0  0  0  0
 18 20  2  0  0  0  0
 18 36  1  0  0  0  0
 19 21  2  0  0  0  0
 19 37  1  0  0  0  0
 20 45  1  0  0  0  0
 21 38  1  0  0  0  0
 22 86  1  0  0  0  0
 23 87  1  0  0  0  0
 24 26  2  0  0  0  0
 24 86  1  0  0  0  0
 25 88  1  0  0  0  0
 26 89  1  0  0  0  0
 27 70  2  0  0  0  0
 28 60  1  0  0  0  0
 28 71  2  0  0  0  0
 29 66  1  0  0  0  0
 29 72  1  0  0  0  0
 30 73  1  0  0  0  0
 30 76  1  0  0  0  0
 31 77  1  0  0  0  0
 31 81  2  0  0  0  0
 32 46  1  0  0  0  0
 32 78  1  0  0  0  0
 32 82  2  0  0  0  0
 33 64  1  0  0  0  0
 33 74  1  0  0  0  0
 33 83  2  0  0  0  0
 34 66  1  0  0  0  0
 34 75  1  0  0  0  0
 34 84  2  0  0  0  0
 35 65  1  0  0  0  0
 35 79  1  0  0  0  0
 35 85  2  0  0  0  0
 36 39  1  0  0  0  0
 37 46  1  0  0  0  0
 38 74  1  0  0  0  0
 39 41  1  0  0  0  0
 40 42  1  0  0  0  0
 40 43  1  0  0  0  0
 41 45  1  0  0  0  0
 42 47  1  0  0  0  0
 43 75  1  0  0  0  0
 44 47  1  0  0  0  0
 44 75  1  0  0  0  0
 45 78  1  0  0  0  0
 46 74  1  0  0  0  0
 47 73  1  0  0  0  0
 48 62  1  0  0  0  0
 49 65  1  0  0  0  0
 50 66  1  0  0  0  0
 51 66  1  0  0  0  0
 52 67  1  0  0  0  0
 53 67  1  0  0  0  0
 54 67  1  0  0  0  0
 55 68  1  0  0  0  0
 56 68  1  0  0  0  0
 57 69  1  0  0  0  0
 58 69  1  0  0  0  0
 59 80  1  0  0  0  0
 60 68  1  0  0  0  0
 61 68  1  0  0  0  0
 61 69  1  0  0  0  0
 62 72  1  0  0  0  0
 63 69  1  0  0  0  0
 63 87  1  0  0  0  0
 64 67  1  0  0  0  0
 64 79  1  0  0  0  0
 65 80  1  0  0  0  0
 70 73  1  0  0  0  0
 71 72  1  0  0  0  0
M  CHG  1  80   1
M  ISO  4  34 100  63 101  66 100  87 101
M  END
> <Batch ID>
0072

> <Smiles>
CCn1nc(CC(C)(C)CC(C)(C)[101CH2:1][101O:1]c2ccc3c(c2)CN(C(=O)C(NC(=O)C(C)NC)C(C)(C)C)C(C(=O)NC2CCCc4ccccc42)C3)cc1[100C:0](C)(C)[100C:0](=O)N1CCCC(n2nc(-c3ccc(Oc4ccc(F)cc4F)cc3)c(C(N)=O)c2N)C1

> <Shape>
0.231

> <Color>
0.052

> <Negative vol penalty>
0.000

$$$$

  -OEChem-04052318243D

 89 97  0     1  0  0  0  0  0999 V2000
  -30.9165  -33.0359   23.3844 C   0  0  0  0  0  0  0  0  0  0  0  0
  -30.5976  -31.8152   22.7982 C   0  0  0  0  0  0  0  0  0  0  0  0
  -27.8192  -13.0530   22.5901 C   0  0  0  0  0  0  0  0  0  0  0  0
  -26.8183  -13.2635   20.4013 C   0  0  0  0  0  0  0  0  0  0  0  0
  -30.1399  -33.5287   24.4323 C   0  0  0  0  0  0  0  0  0  0  0  0
  -29.5025  -31.0860   23.2602 C   0  0  0  0  0  0  0  0  0  0  0  0
  -26.6608  -29.2508   19.4917 C   0  0  0  0  0  0  0  0  0  0  0  0
  -27.2275  -11.7988   22.7400 C   0  0  0  0  0  0  0  0  0  0  0  0
  -26.2266  -12.0092   20.5512 C   0  0  0  0  0  0  0  0  0  0  0  0
  -27.1311  -28.1146   18.8348 C   0  0  0  0  0  0  0  0  0  0  0  0
  -23.5501  -10.6913   22.1419 C   0  0  0  0  0  0  0  0  0  0  0  0
  -22.2096  -10.5596   21.7795 C   0  0  0  0  0  0  0  0  0  0  0  0
  -25.6299  -26.7475   20.1374 C   0  0  0  0  0  0  0  0  0  0  0  0
  -22.8161   -8.8884   20.1436 C   0  0  0  0  0  0  0  0  0  0  0  0
  -26.2481  -24.1941   22.6258 C   0  0  0  0  0  0  0  0  0  0  0  0
  -27.6145  -13.7854   21.4207 C   0  0  0  0  0  0  0  0  0  0  0  0
  -29.4890  -15.3650   20.7145 C   0  0  0  0  0  0  0  0  0  0  0  0
  -29.0289  -32.8098   24.9010 C   0  0  0  0  0  0  0  0  0  0  0  0
  -25.6777  -29.1426   20.4858 C   0  0  0  0  0  0  0  0  0  0  0  0
  -28.7111  -31.5690   24.3162 C   0  0  0  0  0  0  0  0  0  0  0  0
  -25.1470  -27.8842   20.8036 C   0  0  0  0  0  0  0  0  0  0  0  0
  -26.4313  -11.2769   21.7206 C   0  0  0  0  0  0  0  0  0  0  0  0
  -26.6178  -26.8624   19.1597 C   0  0  0  0  0  0  0  0  0  0  0  0
  -24.5236   -9.9216   21.5050 C   0  0  0  0  0  0  0  0  0  0  0  0
  -21.8426   -9.6581   20.7804 C   0  0  0  0  0  0  0  0  0  0  0  0
  -24.1566   -9.0201   20.5059 C   0  0  0  0  0  0  0  0  0  0  0  0
  -28.2250  -15.0813   21.2654 C   0  0  0  0  0  0  0  0  0  0  0  0
  -26.2856  -23.1863   21.6876 C   0  0  0  0  0  0  0  0  0  0  0  0
  -28.4435  -24.6722   22.2002 C   0  0  0  0  0  0  0  0  0  0  0  0
  -28.4813  -23.6639   21.2624 C   0  0  0  0  0  0  0  0  0  0  0  0
  -29.5994  -16.7317   20.7945 C   0  0  0  0  0  0  0  0  0  0  0  0
  -30.4751  -14.4730   20.1783 C   0  0  0  0  0  0  0  0  0  0  0  0
  -25.5449  -29.8076   23.5912 C   0  0  0  0  0  0  0  0  0  0  0  0
  -22.4177  -29.0264   23.2274 C   0  0  0  0  0  0  0  0  0  0  0  0
  -25.4419  -20.9693   20.9779 C   0  0  0  0  0  0  0  0  0  0  0  0
  -20.0411  -27.3349   21.4561 C   0  0  0  0  0  0  0  0  0  0  0  0
  -28.2474  -33.3604   26.0675 C   0  0  0  0  0  0  0  0  0  0  0  0
  -25.1618  -30.3808   21.1662 C   0  0  0  0  0  0  0  0  0  0  0  0
  -24.0759  -27.7164   21.8491 C   0  0  0  0  0  0  0  0  0  0  0  0
  -26.8811  -32.7044   26.2492 C   0  0  0  0  0  0  0  0  0  0  0  0
  -28.1276  -20.4704   23.3791 C   0  0  0  0  0  0  0  0  0  0  0  0
  -27.0004  -31.1868   26.1528 C   0  0  0  0  0  0  0  0  0  0  0  0
  -28.5515  -19.0353   23.0697 C   0  0  0  0  0  0  0  0  0  0  0  0
  -26.6227  -20.6604   23.2078 C   0  0  0  0  0  0  0  0  0  0  0  0
  -26.5372  -18.8256   21.5493 C   0  0  0  0  0  0  0  0  0  0  0  0
  -27.5163  -30.7605   24.7730 C   0  0  1  0  0  0  0  0  0  0  0  0
  -24.5273  -30.0961   22.5240 C   0  0  1  0  0  0  0  0  0  0  0  0
  -28.0527  -18.5997   21.6807 C   0  0  2  0  0  0  0  0  0  0  0  0
  -29.6434  -25.5067   22.4931 C   0  0  0  0  0  0  0  0  0  0  0  0
  -17.5779  -26.8563   21.4227 C   0  0  0  0  0  0  0  0  0  0  0  0
  -31.3403  -24.3224   18.7573 C   0  0  0  0  0  0  0  0  0  0  0  0
  -24.2238  -22.9923   20.2719 C   0  0  0  0  0  0  0  0  0  0  0  0
  -24.1122  -22.1357   22.6145 C   0  0  0  0  0  0  0  0  0  0  0  0
  -22.7723  -27.0532   25.5276 C   0  0  0  0  0  0  0  0  0  0  0  0
  -20.6295  -25.9623   24.8300 C   0  0  0  0  0  0  0  0  0  0  0  0
  -20.6295  -28.3416   25.5793 C   0  0  0  0  0  0  0  0  0  0  0  0
  -29.6021  -24.8756   15.8471 C   0  0  0  0  0  0  0  0  0  0  0  0
  -27.3151  -23.9469   16.2019 C   0  0  0  0  0  0  0  0  0  0  0  0
  -19.7141  -28.5973   18.7994 C   0  0  0  0  0  0  0  0  0  0  0  0
  -29.0266  -23.5895   17.9937 C   0  0  0  0  0  0  0  0  0  0  0  0
  -28.0818  -25.9401   17.5281 C   0  0  0  0  0  0  0  0  0  1  0  0
  -29.7480  -23.3547   20.4823 C   0  0  2  0  0  0  0  0  0  0  0  0
  -21.6156  -27.7514   23.3274 C   0  0  1  0  0  0  0  0  0  0  0  0
  -18.6881  -27.7657   20.9194 C   0  0  2  0  0  0  0  0  0  0  0  0
  -29.8622  -24.1794   19.1632 C   0  0  1  0  0  0  0  0  0  0  0  0
  -25.0745  -22.3661   21.4112 C   0  0  0  0  0  0  0  0  0  0  0  0
  -21.4333  -27.2797   24.7977 C   0  0  0  0  0  0  0  0  0  0  0  0
  -28.5276  -24.5948   16.9089 C   0  0  0  0  0  0  0  0  0  0  0  0
  -27.3264  -24.9552   22.8990 N   0  0  0  0  0  0  0  0  0  0  0  0
  -27.5787  -16.1794   21.6660 N   0  0  0  0  0  0  0  0  0  0  0  0
  -27.4030  -22.9030   20.9890 N   0  0  0  0  0  0  0  0  0  0  0  0
  -28.4402  -17.1665   21.3665 N   0  0  0  0  0  0  0  0  0  0  0  0
  -23.6086  -28.9563   22.4908 N   0  0  0  0  0  0  0  0  0  0  0  0
  -26.1831  -20.2084   21.8823 N   0  0  0  0  0  0  0  0  0  0  0  0
  -30.5742  -17.5919   20.4307 N   0  0  0  0  0  0  0  0  0  0  0  0
  -30.2002  -13.0987   20.1727 N   0  0  0  0  0  0  0  0  0  0  0  0
  -26.4537  -30.8289   23.7929 N   0  0  0  0  0  0  0  0  0  0  0  0
  -20.3641  -27.9998   22.6201 N   0  0  0  0  0  0  0  0  0  0  0  0
  -29.9722  -21.8989   20.2076 N   0  3  0  0  0  0  0  0  0  0  0  0
  -18.6863  -27.7293   19.4295 N   0  3  0  0  0  0  0  0  0  0  0  0
  -31.5744  -14.8810   19.7329 O   0  0  0  0  0  0  0  0  0  0  0  0
  -25.5075  -28.7382   24.1885 O   0  0  0  0  0  0  0  0  0  0  0  0
  -21.9993  -30.0487   23.7764 O   0  0  0  0  0  0  0  0  0  0  0  0
  -25.0824  -20.5692   19.8676 O   0  0  0  0  0  0  0  0  0  0  0  0
  -20.7398  -26.4901   20.9006 O   0  0  0  0  0  0  0  0  0  0  0  0
  -25.8540  -10.0529   21.8665 O   0  0  0  0  0  0  0  0  0  0  0  0
  -27.0788  -25.7436   18.5159 O   0  0  0  0  0  0  0  0  0  1  0  0
  -20.5551   -9.5307   20.4336 F   0  0  0  0  0  0  0  0  0  0  0  0
  -25.0872   -8.2771   19.8914 F   0  0  0  0  0  0  0  0  0  0  0  0
  1  2  1  0  0  0  0
  1  5  2  0  0  0  0
  2  6  2  0  0  0  0
  3  8  2  0  0  0  0
  3 16  1  0  0  0  0
  4  9  1  0  0  0  0
  4 16  2  0  0  0  0
  5 18  1  0  0  0  0
  6 20  1  0  0  0  0
  7 10  2  0  0  0  0
  7 19  1  0  0  0  0
  8 22  1  0  0  0  0
  9 22  2  0  0  0  0
 10 23  1  0  0  0  0
 11 12  2  0  0  0  0
 11 24  1  0  0  0  0
 12 25  1  0  0  0  0
 13 21  1  0  0  0  0
 13 23  2  0  0  0  0
 14 25  2  0  0  0  0
 14 26  1  0  0  0  0
 15 28  1  0  0  0  0
 15 69  2  0  0  0  0
 16 27  1  0  0  0  0
 17 27  1  0  0  0  0
 17 31  2  0  0  0  0
 17 32  1  0  0  0  0
 18 20  2  0  0  0  0
 18 37  1  0  0  0  0
 19 21  2  0  0  0  0
 19 38  1  0  0  0  0
 20 46  1  0  0  0  0
 21 39  1  0  0  0  0
 22 86  1  0  0  0  0
 23 87  1  0  0  0  0
 24 26  2  0  0  0  0
 24 86  1  0  0  0  0
 25 88  1  0  0  0  0
 26 89  1  0  0  0  0
 27 70  2  0  0  0  0
 28 66  1  0  0  0  0
 28 71  2  0  0  0  0
 29 30  2  0  0  0  0
 29 49  1  0  0  0  0
 29 69  1  0  0  0  0
 30 62  1  0  0  0  0
 30 71  1  0  0  0  0
 31 72  1  0  0  0  0
 31 75  1  0  0  0  0
 32 76  1  0  0  0  0
 32 81  2  0  0  0  0
 33 47  1  0  0  0  0
 33 77  1  0  0  0  0
 33 82  2  0  0  0  0
 34 63  1  0  0  0  0
 34 73  1  0  0  0  0
 34 83  2  0  0  0  0
 35 66  1  0  0  0  0
 35 74  1  0  0  0  0
 35 84  2  0  0  0  0
 36 64  1  0  0  0  0
 36 78  1  0  0  0  0
 36 85  2  0  0  0  0
 37 40  1  0  0  0  0
 38 47  1  0  0  0  0
 39 73  1  0  0  0  0
 40 42  1  0  0  0  0
 41 43  1  0  0  0  0
 41 44  1  0  0  0  0
 42 46  1  0  0  0  0
 43 48  1  0  0  0  0
 44 74  1  0  0  0  0
 45 48  1  0  0  0  0
 45 74  1  0  0  0  0
 46 77  1  0  0  0  0
 47 73  1  0  0  0  0
 48 72  1  0  0  0  0
 50 64  1  0  0  0  0
 51 65  1  0  0  0  0
 52 66  1  0  0  0  0
 53 66  1  0  0  0  0
 54 67  1  0  0  0  0
 55 67  1  0  0  0  0
 56 67  1  0  0  0  0
 57 68  1  0  0  0  0
 58 68  1  0  0  0  0
 59 80  1  0  0  0  0
 60 65  1  0  0  0  0
 60 68  1  0  0  0  0
 61 68  1  0  0  0  0
 61 87  1  0  0  0  0
 62 65  1  0  0  0  0
 62 79  1  0  0  0  0
 63 67  1  0  0  0  0
 63 78  1  0  0  0  0
 64 80  1  0  0  0  0
 70 72  1  0  0  0  0
M  CHG  2  79   1  80   1
M  ISO  4  35 100  61 101  66 100  87 101
M  END
> <Batch ID>
0072

> <Smiles>
CNC(C)C(=O)NC(C(=O)N1Cc2cc([101O:1][101CH2:1]C(C)(C)CC(C)C(N)c3nc([100C:0](C)(C)[100C:0](=O)N4CCCC(n5nc(-c6ccc(Oc7ccc(F)cc7F)cc6)c(C(N)=O)c5N)C4)cnc3C)ccc2CC1C(=O)NC1CCCc2ccccc21)C(C)(C)C

> <Shape>
0.278

> <Color>
0.062

> <Negative vol penalty>
0.000

$$$$

  -OEChem-04052318243D

 85 93  0     1  0  0  0  0  0999 V2000
  -17.0170  -30.3079   24.2901 C   0  0  0  0  0  0  0  0  0  0  0  0
  -17.8992  -29.6344   25.1274 C   0  0  0  0  0  0  0  0  0  0  0  0
  -27.3669  -16.7405   22.7195 C   0  0  0  0  0  0  0  0  0  0  0  0
  -29.1901  -16.7955   21.1353 C   0  0  0  0  0  0  0  0  0  0  0  0
  -16.9360  -29.9588   22.9437 C   0  0  0  0  0  0  0  0  0  0  0  0
  -18.7092  -28.6199   24.6162 C   0  0  0  0  0  0  0  0  0  0  0  0
  -24.1481  -22.8200   24.6680 C   0  0  0  0  0  0  0  0  0  0  0  0
  -26.6198  -15.9653   21.8328 C   0  0  0  0  0  0  0  0  0  0  0  0
  -28.4430  -16.0202   20.2485 C   0  0  0  0  0  0  0  0  0  0  0  0
  -24.5975  -21.7097   23.9544 C   0  0  0  0  0  0  0  0  0  0  0  0
  -24.3705  -13.6689   20.1349 C   0  0  0  0  0  0  0  0  0  0  0  0
  -23.6938  -12.5639   20.6511 C   0  0  0  0  0  0  0  0  0  0  0  0
  -31.9637  -21.9487   20.0483 C   0  0  0  0  0  0  0  0  0  0  0  0
  -24.8787  -23.0898   21.9960 C   0  0  0  0  0  0  0  0  0  0  0  0
  -25.7935  -11.6215   21.3862 C   0  0  0  0  0  0  0  0  0  0  0  0
  -31.1820  -21.4439   19.0293 C   0  0  0  0  0  0  0  0  0  0  0  0
  -28.6521  -17.1557   22.3708 C   0  0  0  0  0  0  0  0  0  0  0  0
  -30.3050  -17.4976   24.2835 C   0  0  0  0  0  0  0  0  0  0  0  0
  -17.7368  -28.9309   22.4192 C   0  0  0  0  0  0  0  0  0  0  0  0
  -24.0501  -24.0734   24.0468 C   0  0  0  0  0  0  0  0  0  0  0  0
  -18.6593  -28.2691   23.2549 C   0  0  0  0  0  0  0  0  0  0  0  0
  -24.4302  -24.2149   22.7046 C   0  0  0  0  0  0  0  0  0  0  0  0
  -27.1578  -15.6051   20.5973 C   0  0  0  0  0  0  0  0  0  0  0  0
  -24.9602  -21.8440   22.6174 C   0  0  0  0  0  0  0  0  0  0  0  0
  -25.7588  -13.7502   20.2442 C   0  0  0  0  0  0  0  0  0  0  0  0
  -24.4053  -11.5402   21.2768 C   0  0  0  0  0  0  0  0  0  0  0  0
  -26.4702  -12.7265   20.8699 C   0  0  0  0  0  0  0  0  0  0  0  0
  -29.4242  -17.9571   23.2861 C   0  0  0  0  0  0  0  0  0  0  0  0
  -31.4458  -23.0417   20.7127 C   0  0  0  0  0  0  0  0  0  0  0  0
  -30.7836  -18.6423   24.8727 C   0  0  0  0  0  0  0  0  0  0  0  0
  -29.5897  -23.0231   19.4007 C   0  0  0  0  0  0  0  0  0  0  0  0
  -30.6590  -16.1561   24.6450 C   0  0  0  0  0  0  0  0  0  0  0  0
  -21.6715  -26.0870   23.4211 C   0  0  0  0  0  0  0  0  0  0  0  0
  -24.0835  -28.0136   22.4247 C   0  0  0  0  0  0  0  0  0  0  0  0
  -31.3041  -24.2784   22.8542 C   0  0  0  0  0  0  0  0  0  0  0  0
  -27.2767  -28.2875   21.2520 C   0  0  0  0  0  0  0  0  0  0  0  0
  -17.6141  -28.5993   20.9529 C   0  0  0  0  0  0  0  0  0  0  0  0
  -23.5889  -25.2667   24.8378 C   0  0  0  0  0  0  0  0  0  0  0  0
  -24.3627  -25.5429   21.9971 C   0  0  0  0  0  0  0  0  0  0  0  0
  -18.1820  -27.2273   20.6041 C   0  0  0  0  0  0  0  0  0  0  0  0
  -29.5815  -23.1724   25.7952 C   0  0  0  0  0  0  0  0  0  0  0  0
  -19.5753  -27.0758   21.1959 C   0  0  0  0  0  0  0  0  0  0  0  0
  -29.4008  -21.6729   25.5628 C   0  0  0  0  0  0  0  0  0  0  0  0
  -29.4784  -23.9561   24.4904 C   0  0  0  0  0  0  0  0  0  0  0  0
  -30.2408  -21.9924   23.1927 C   0  0  0  0  0  0  0  0  0  0  0  0
  -19.5282  -27.1415   22.7277 C   0  0  1  0  0  0  0  0  0  0  0  0
  -23.0407  -26.3888   23.9616 C   0  0  1  0  0  0  0  0  0  0  0  0
  -30.3683  -21.1606   24.4812 C   0  0  2  0  0  0  0  0  0  0  0  0
  -29.4005  -29.4060   20.5199 C   0  0  0  0  0  0  0  0  0  0  0  0
  -33.1553  -24.7796   21.3044 C   0  0  0  0  0  0  0  0  0  0  0  0
  -33.1044  -22.6864   22.6646 C   0  0  0  0  0  0  0  0  0  0  0  0
  -22.5922  -28.3021   19.7785 C   0  0  0  0  0  0  0  0  0  0  0  0
  -24.7038  -29.1866   18.7650 C   0  0  0  0  0  0  0  0  0  0  0  0
  -23.6102  -30.4184   20.6383 C   0  0  0  0  0  0  0  0  0  0  0  0
  -26.2125  -19.6282   19.9750 C   0  0  0  0  0  0  0  0  0  0  0  0
  -24.4973  -21.4445   19.8195 C   0  0  0  0  0  0  0  0  0  0  0  0
  -28.3488  -28.3166   24.0104 C   0  0  0  0  0  0  0  0  0  0  0  0
  -28.2569  -23.6272   19.0364 C   0  0  0  0  0  0  0  0  0  0  0  0
  -27.0910  -22.6309   19.0835 C   0  0  0  0  0  0  0  0  0  0  0  0
  -26.9038  -21.9973   20.4710 C   0  0  0  0  0  0  0  0  0  0  0  0
  -24.8001  -28.2393   21.1154 C   0  0  1  0  0  0  0  0  0  0  0  0
  -28.4296  -29.1826   21.6690 C   0  0  2  0  0  0  0  0  0  0  0  0
  -32.2198  -23.6575   21.8296 C   0  0  0  0  0  0  0  0  0  0  0  0
  -23.9261  -29.0110   20.0868 C   0  0  0  0  0  0  0  0  0  0  0  0
  -25.7535  -20.9712   20.5523 C   0  0  0  0  0  0  0  0  0  1  0  0
  -29.9854  -21.9583   18.6774 N   0  0  0  0  0  0  0  0  0  0  0  0
  -29.3458  -19.2897   23.2414 N   0  0  0  0  0  0  0  0  0  0  0  0
  -30.2577  -23.6068   20.4139 N   0  0  0  0  0  0  0  0  0  0  0  0
  -30.1835  -19.6774   24.2181 N   0  0  0  0  0  0  0  0  0  0  0  0
  -23.8994  -26.6785   22.8114 N   0  0  0  0  0  0  0  0  0  0  0  0
  -30.3968  -23.4246   23.4818 N   0  0  0  0  0  0  0  0  0  0  0  0
  -31.6550  -18.8542   25.8818 N   0  0  0  0  0  0  0  0  0  0  0  0
  -30.0747  -15.0970   23.9370 N   0  0  0  0  0  0  0  0  0  0  0  0
  -20.8796  -27.2046   23.2393 N   0  0  0  0  0  0  0  0  0  0  0  0
  -26.0573  -28.9010   21.4468 N   0  0  0  0  0  0  0  0  0  0  0  0
  -29.1770  -28.5700   22.8034 N   0  3  0  0  0  0  0  0  0  0  0  0
  -31.4569  -15.9036   25.5794 O   0  0  0  0  0  0  0  0  0  0  0  0
  -21.3575  -24.9262   23.1852 O   0  0  0  0  0  0  0  0  0  0  0  0
  -23.7075  -28.9862   23.0838 O   0  0  0  0  0  0  0  0  0  0  0  0
  -31.3959  -25.4859   23.0904 O   0  0  0  0  0  0  0  0  0  0  0  0
  -27.4415  -27.1584   20.7953 O   0  0  0  0  0  0  0  0  0  0  0  0
  -26.4291  -14.8484   19.7319 O   0  0  0  0  0  0  0  0  0  0  0  0
  -25.3985  -20.7618   21.9185 O   0  0  0  0  0  0  0  0  0  1  0  0
  -23.7552  -10.4798   21.7739 F   0  0  0  0  0  0  0  0  0  0  0  0
  -27.8039  -12.7996   20.9790 F   0  0  0  0  0  0  0  0  0  0  0  0
  1  2  1  0  0  0  0
  1  5  2  0  0  0  0
  2  6  2  0  0  0  0
  3  8  2  0  0  0  0
  3 17  1  0  0  0  0
  4  9  1  0  0  0  0
  4 17  2  0  0  0  0
  5 19  1  0  0  0  0
  6 21  1  0  0  0  0
  7 10  2  0  0  0  0
  7 20  1  0  0  0  0
  8 23  1  0  0  0  0
  9 23  2  0  0  0  0
 10 24  1  0  0  0  0
 11 12  2  0  0  0  0
 11 25  1  0  0  0  0
 12 26  1  0  0  0  0
 13 16  1  0  0  0  0
 13 29  2  0  0  0  0
 14 22  1  0  0  0  0
 14 24  2  0  0  0  0
 15 26  2  0  0  0  0
 15 27  1  0  0  0  0
 16 66  2  0  0  0  0
 17 28  1  0  0  0  0
 18 28  1  0  0  0  0
 18 30  2  0  0  0  0
 18 32  1  0  0  0  0
 19 21  2  0  0  0  0
 19 37  1  0  0  0  0
 20 22  2  0  0  0  0
 20 38  1  0  0  0  0
 21 46  1  0  0  0  0
 22 39  1  0  0  0  0
 23 82  1  0  0  0  0
 24 83  1  0  0  0  0
 25 27  2  0  0  0  0
 25 82  1  0  0  0  0
 26 84  1  0  0  0  0
 27 85  1  0  0  0  0
 28 67  2  0  0  0  0
 29 63  1  0  0  0  0
 29 68  1  0  0  0  0
 30 69  1  0  0  0  0
 30 72  1  0  0  0  0
 31 58  1  0  0  0  0
 31 66  1  0  0  0  0
 31 68  2  0  0  0  0
 32 73  1  0  0  0  0
 32 77  2  0  0  0  0
 33 47  1  0  0  0  0
 33 74  1  0  0  0  0
 33 78  2  0  0  0  0
 34 61  1  0  0  0  0
 34 70  1  0  0  0  0
 34 79  2  0  0  0  0
 35 63  1  0  0  0  0
 35 71  1  0  0  0  0
 35 80  2  0  0  0  0
 36 62  1  0  0  0  0
 36 75  1  0  0  0  0
 36 81  2  0  0  0  0
 37 40  1  0  0  0  0
 38 47  1  0  0  0  0
 39 70  1  0  0  0  0
 40 42  1  0  0  0  0
 41 43  1  0  0  0  0
 41 44  1  0  0  0  0
 42 46  1  0  0  0  0
 43 48  1  0  0  0  0
 44 71  1  0  0  0  0
 45 48  1  0  0  0  0
 45 71  1  0  0  0  0
 46 74  1  0  0  0  0
 47 70  1  0  0  0  0
 48 69  1  0  0  0  0
 49 62  1  0  0  0  0
 50 63  1  0  0  0  0
 51 63  1  0  0  0  0
 52 64  1  0  0  0  0
 53 64  1  0  0  0  0
 54 64  1  0  0  0  0
 55 65  1  0  0  0  0
 56 65  1  0  0  0  0
 57 76  1  0  0  0  0
 58 59  1  0  0  0  0
 59 60  1  0  0  0  0
 60 65  1  0  0  0  0
 61 64  1  0  0  0  0
 61 75  1  0  0  0  0
 62 76  1  0  0  0  0
 65 83  1  0  0  0  0
 67 69  1  0  0  0  0
M  CHG  1  76   1
M  ISO  4  35 100  63 100  65 101  83 101
M  END
> <Batch ID>
0072

> <Smiles>
CNC(C)C(=O)NC(C(=O)N1Cc2cc([101O:1][101C:1](C)(C)CCCc3nccc([100C:0](C)(C)[100C:0](=O)N4CCCC(n5nc(-c6ccc(Oc7ccc(F)cc7F)cc6)c(C(N)=O)c5N)C4)n3)ccc2CC1C(=O)NC1CCCc2ccccc21)C(C)(C)C

> <Shape>
0.200

> <Color>
0.067

> <Negative vol penalty>
0.000

$$$$

  -OEChem-04052318243D

 81 89  0     1  0  0  0  0  0999 V2000
  -27.7939  -22.2328   28.2735 C   0  0  0  0  0  0  0  0  0  0  0  0
  -27.8600  -22.6219   26.9395 C   0  0  0  0  0  0  0  0  0  0  0  0
  -26.3952  -12.6594   21.4648 C   0  0  0  0  0  0  0  0  0  0  0  0
  -26.1702  -13.2778   19.1402 C   0  0  0  0  0  0  0  0  0  0  0  0
  -26.6098  -22.4020   28.9899 C   0  0  0  0  0  0  0  0  0  0  0  0
  -26.7417  -23.1795   26.3207 C   0  0  0  0  0  0  0  0  0  0  0  0
  -27.8862  -27.2638   23.5542 C   0  0  0  0  0  0  0  0  0  0  0  0
  -25.1452  -12.0419   21.4216 C   0  0  0  0  0  0  0  0  0  0  0  0
  -24.9202  -12.6602   19.0969 C   0  0  0  0  0  0  0  0  0  0  0  0
  -28.4603  -27.0447   22.3027 C   0  0  0  0  0  0  0  0  0  0  0  0
  -23.8442   -9.1270   20.3065 C   0  0  0  0  0  0  0  0  0  0  0  0
  -23.7241   -7.8651   20.8885 C   0  0  0  0  0  0  0  0  0  0  0  0
  -26.3129  -27.3985   21.2623 C   0  0  0  0  0  0  0  0  0  0  0  0
  -22.0520   -8.7242   22.4062 C   0  0  0  0  0  0  0  0  0  0  0  0
  -26.9076  -13.2774   20.3241 C   0  0  0  0  0  0  0  0  0  0  0  0
  -29.4475  -13.3285   20.0910 C   0  0  0  0  0  0  0  0  0  0  0  0
  -25.4793  -22.9708   28.3824 C   0  0  0  0  0  0  0  0  0  0  0  0
  -26.5166  -27.5416   23.6701 C   0  0  0  0  0  0  0  0  0  0  0  0
  -25.5409  -23.3552   27.0293 C   0  0  0  0  0  0  0  0  0  0  0  0
  -25.7243  -27.6233   22.5161 C   0  0  0  0  0  0  0  0  0  0  0  0
  -24.4077  -12.0423   20.2376 C   0  0  0  0  0  0  0  0  0  0  0  0
  -27.6731  -27.1091   21.1568 C   0  0  0  0  0  0  0  0  0  0  0  0
  -23.0683  -10.1876   20.7743 C   0  0  0  0  0  0  0  0  0  0  0  0
  -22.8280   -7.6637   21.9383 C   0  0  0  0  0  0  0  0  0  0  0  0
  -22.1722   -9.9862   21.8242 C   0  0  0  0  0  0  0  0  0  0  0  0
  -28.1985  -13.9160   20.3684 C   0  0  0  0  0  0  0  0  0  0  0  0
  -30.3530  -14.3451   20.2729 C   0  0  0  0  0  0  0  0  0  0  0  0
  -29.4873  -21.2603   17.7316 C   0  0  0  0  0  0  0  0  0  0  0  0
  -29.7610  -11.9842   19.7035 C   0  0  0  0  0  0  0  0  0  0  0  0
  -24.0484  -26.1110   25.0721 C   0  0  0  0  0  0  0  0  0  0  0  0
  -29.7849  -20.3213   20.0006 C   0  0  0  0  0  0  0  0  0  0  0  0
  -22.4723  -28.7935   24.1543 C   0  0  0  0  0  0  0  0  0  0  0  0
  -22.2779  -31.4548   22.0267 C   0  0  0  0  0  0  0  0  0  0  0  0
  -24.2073  -23.0902   29.1839 C   0  0  0  0  0  0  0  0  0  0  0  0
  -25.9178  -27.8019   25.0252 C   0  0  0  0  0  0  0  0  0  0  0  0
  -24.2531  -27.9382   22.5849 C   0  0  0  0  0  0  0  0  0  0  0  0
  -23.1814  -24.0337   28.5613 C   0  0  0  0  0  0  0  0  0  0  0  0
  -31.0210  -18.3774   22.7453 C   0  0  0  0  0  0  0  0  0  0  0  0
  -23.0337  -23.7524   27.0694 C   0  0  0  0  0  0  0  0  0  0  0  0
  -30.5265  -16.9649   22.4362 C   0  0  0  0  0  0  0  0  0  0  0  0
  -30.0143  -19.4321   22.2964 C   0  0  0  0  0  0  0  0  0  0  0  0
  -29.1382  -17.9216   20.5435 C   0  0  0  0  0  0  0  0  0  0  0  0
  -24.3566  -23.9866   26.3302 C   0  0  1  0  0  0  0  0  0  0  0  0
  -24.4107  -27.5693   25.0672 C   0  0  1  0  0  0  0  0  0  0  0  0
  -30.1393  -16.8269   20.9531 C   0  0  2  0  0  0  0  0  0  0  0  0
  -20.8572  -33.4547   21.4983 C   0  0  0  0  0  0  0  0  0  0  0  0
  -27.3383  -23.3933   14.8202 C   0  0  0  0  0  0  0  0  0  0  0  0
  -20.4195  -26.9778   22.8130 C   0  0  0  0  0  0  0  0  0  0  0  0
  -19.5970  -28.9678   21.5358 C   0  0  0  0  0  0  0  0  0  0  0  0
  -19.4455  -28.9362   24.0255 C   0  0  0  0  0  0  0  0  0  0  0  0
  -24.4990  -33.3272   22.5923 C   0  0  0  0  0  0  0  0  0  0  0  0
  -29.3993  -20.0595   18.5664 C   0  0  0  0  0  0  0  0  0  0  0  0
  -28.2462  -25.4898   17.9886 C   0  0  0  0  0  0  0  0  0  0  0  0
  -27.4063  -24.8665   16.8705 C   0  0  0  0  0  0  0  0  0  0  0  0
  -27.3915  -26.3312   18.9271 C   0  0  0  0  0  0  0  0  0  1  0  0
  -21.7044  -29.2144   22.9246 C   0  0  1  0  0  0  0  0  0  0  0  0
  -22.0520  -32.9341   22.2819 C   0  0  2  0  0  0  0  0  0  0  0  0
  -28.2388  -23.9944   15.9065 C   0  0  1  0  0  0  0  0  0  0  0  0
  -20.3189  -28.5162   22.8232 C   0  0  0  0  0  0  0  0  0  0  0  0
  -28.2979  -15.2056   20.7013 N   0  0  0  0  0  0  0  0  0  0  0  0
  -30.6708  -21.7759   17.2934 N   0  0  0  0  0  0  0  0  0  0  0  0
  -28.4125  -21.9407   17.3250 N   0  0  0  0  0  0  0  0  0  0  0  0
  -30.3585  -22.8420   16.5671 N   0  0  0  0  0  0  0  0  0  0  0  0
  -29.6200  -15.4370   20.6344 N   0  0  0  0  0  0  0  0  0  0  0  0
  -29.0203  -22.9007   16.6139 N   0  0  0  0  0  0  0  0  0  0  0  0
  -23.7129  -28.1787   23.9332 N   0  0  0  0  0  0  0  0  0  0  0  0
  -29.6553  -19.2532   20.8885 N   0  0  0  0  0  0  0  0  0  0  0  0
  -31.6968  -14.4025   20.1574 N   0  0  0  0  0  0  0  0  0  0  0  0
  -28.7104  -11.0674   19.5621 N   0  0  0  0  0  0  0  0  0  0  0  0
  -24.5811  -25.4026   26.1322 N   0  0  0  0  0  0  0  0  0  0  0  0
  -21.6379  -30.6713   22.9636 N   0  0  0  0  0  0  0  0  0  0  0  0
  -23.2544  -33.7183   21.8818 N   0  3  0  0  0  0  0  0  0  0  0  0
  -30.9395  -11.6030   19.5050 O   0  0  0  0  0  0  0  0  0  0  0  0
  -23.3370  -25.6622   24.1809 O   0  0  0  0  0  0  0  0  0  0  0  0
  -30.1919  -21.4415   20.3196 O   0  0  0  0  0  0  0  0  0  0  0  0
  -21.9924  -29.0090   25.2700 O   0  0  0  0  0  0  0  0  0  0  0  0
  -22.9515  -31.0361   21.0877 O   0  0  0  0  0  0  0  0  0  0  0  0
  -23.1881  -11.4396   20.1950 O   0  0  0  0  0  0  0  0  0  0  0  0
  -28.2308  -26.8950   19.9341 O   0  0  0  0  0  0  0  0  0  1  0  0
  -22.7116   -6.4514   22.4961 F   0  0  0  0  0  0  0  0  0  0  0  0
  -21.4233  -11.0009   22.2772 F   0  0  0  0  0  0  0  0  0  0  0  0
  1  2  1  0  0  0  0
  1  5  2  0  0  0  0
  2  6  2  0  0  0  0
  3  8  2  0  0  0  0
  3 15  1  0  0  0  0
  4  9  1  0  0  0  0
  4 15  2  0  0  0  0
  5 17  1  0  0  0  0
  6 19  1  0  0  0  0
  7 10  2  0  0  0  0
  7 18  1  0  0  0  0
  8 21  1  0  0  0  0
  9 21  2  0  0  0  0
 10 22  1  0  0  0  0
 11 12  2  0  0  0  0
 11 23  1  0  0  0  0
 12 24  1  0  0  0  0
 13 20  1  0  0  0  0
 13 22  2  0  0  0  0
 14 24  2  0  0  0  0
 14 25  1  0  0  0  0
 15 26  1  0  0  0  0
 16 26  1  0  0  0  0
 16 27  2  0  0  0  0
 16 29  1  0  0  0  0
 17 19  2  0  0  0  0
 17 34  1  0  0  0  0
 18 20  2  0  0  0  0
 18 35  1  0  0  0  0
 19 43  1  0  0  0  0
 20 36  1  0  0  0  0
 21 78  1  0  0  0  0
 22 79  1  0  0  0  0
 23 25  2  0  0  0  0
 23 78  1  0  0  0  0
 24 80  1  0  0  0  0
 25 81  1  0  0  0  0
 26 60  2  0  0  0  0
 27 64  1  0  0  0  0
 27 68  1  0  0  0  0
 28 52  1  0  0  0  0
 28 61  1  0  0  0  0
 28 62  2  0  0  0  0
 29 69  1  0  0  0  0
 29 73  2  0  0  0  0
 30 44  1  0  0  0  0
 30 70  1  0  0  0  0
 30 74  2  0  0  0  0
 31 52  1  0  0  0  0
 31 67  1  0  0  0  0
 31 75  2  0  0  0  0
 32 56  1  0  0  0  0
 32 66  1  0  0  0  0
 32 76  2  0  0  0  0
 33 57  1  0  0  0  0
 33 71  1  0  0  0  0
 33 77  2  0  0  0  0
 34 37  1  0  0  0  0
 35 44  1  0  0  0  0
 36 66  1  0  0  0  0
 37 39  1  0  0  0  0
 38 40  1  0  0  0  0
 38 41  1  0  0  0  0
 39 43  1  0  0  0  0
 40 45  1  0  0  0  0
 41 67  1  0  0  0  0
 42 45  1  0  0  0  0
 42 67  1  0  0  0  0
 43 70  1  0  0  0  0
 44 66  1  0  0  0  0
 45 64  1  0  0  0  0
 46 57  1  0  0  0  0
 47 58  1  0  0  0  0
 48 59  1  0  0  0  0
 49 59  1  0  0  0  0
 50 59  1  0  0  0  0
 51 72  1  0  0  0  0
 53 54  1  0  0  0  0
 53 55  1  0  0  0  0
 54 58  1  0  0  0  0
 55 79  1  0  0  0  0
 56 59  1  0  0  0  0
 56 71  1  0  0  0  0
 57 72  1  0  0  0  0
 58 65  1  0  0  0  0
 60 64  1  0  0  0  0
 61 63  2  0  0  0  0
 62 65  1  0  0  0  0
 63 65  1  0  0  0  0
M  CHG  1  72   1
M  ISO  4  31 100  52 100  55 101  79 101
M  END
> <Batch ID>
0072

> <Smiles>
CNC(C)C(=O)NC(C(=O)N1Cc2cc([101O:1][101CH2:1]CCC(C)n3nnc([100CH2:0][100C:0](=O)N4CCCC(n5nc(-c6ccc(Oc7ccc(F)cc7F)cc6)c(C(N)=O)c5N)C4)n3)ccc2CC1C(=O)NC1CCCc2ccccc21)C(C)(C)C

> <Shape>
0.239

> <Color>
0.072

> <Negative vol penalty>
0.000

$$$$

  -OEChem-04052318243D

 83 91  0     1  0  0  0  0  0999 V2000
  -27.7341  -25.1388   15.8877 C   0  0  0  0  0  0  0  0  0  0  0  0
  -26.5869  -25.2622   16.6649 C   0  0  0  0  0  0  0  0  0  0  0  0
  -26.8827  -14.6406   18.8971 C   0  0  0  0  0  0  0  0  0  0  0  0
  -24.5676  -14.9401   19.5195 C   0  0  0  0  0  0  0  0  0  0  0  0
  -28.9568  -25.6001   16.3736 C   0  0  0  0  0  0  0  0  0  0  0  0
  -26.6619  -25.8460   17.9290 C   0  0  0  0  0  0  0  0  0  0  0  0
  -22.9175  -29.1506   18.7679 C   0  0  0  0  0  0  0  0  0  0  0  0
  -26.9145  -13.4338   19.5959 C   0  0  0  0  0  0  0  0  0  0  0  0
  -24.5993  -13.7333   20.2183 C   0  0  0  0  0  0  0  0  0  0  0  0
  -21.6667  -28.6269   19.0920 C   0  0  0  0  0  0  0  0  0  0  0  0
  -23.9665  -10.5544   21.8652 C   0  0  0  0  0  0  0  0  0  0  0  0
  -22.8955   -9.6772   21.6950 C   0  0  0  0  0  0  0  0  0  0  0  0
  -20.3244  -23.2062   21.1973 C   0  0  0  0  0  0  0  0  0  0  0  0
  -21.4462  -22.4821   20.8336 C   0  0  0  0  0  0  0  0  0  0  0  0
  -22.0889  -29.0778   21.4239 C   0  0  0  0  0  0  0  0  0  0  0  0
  -23.3711   -9.5554   19.3294 C   0  0  0  0  0  0  0  0  0  0  0  0
  -25.7093  -15.3937   18.8589 C   0  0  0  0  0  0  0  0  0  0  0  0
  -25.3368  -16.8314   16.7848 C   0  0  0  0  0  0  0  0  0  0  0  0
  -29.0451  -26.1986   17.6403 C   0  0  0  0  0  0  0  0  0  0  0  0
  -23.7693  -29.6327   19.7722 C   0  0  0  0  0  0  0  0  0  0  0  0
  -27.8872  -26.3145   18.4328 C   0  0  0  0  0  0  0  0  0  0  0  0
  -23.3489  -29.6095   21.1097 C   0  0  0  0  0  0  0  0  0  0  0  0
  -25.7728  -12.9801   20.2565 C   0  0  0  0  0  0  0  0  0  0  0  0
  -21.2534  -28.5877   20.4205 C   0  0  0  0  0  0  0  0  0  0  0  0
  -24.7399  -10.9322   20.7675 C   0  0  0  0  0  0  0  0  0  0  0  0
  -22.5978   -9.1777   20.4271 C   0  0  0  0  0  0  0  0  0  0  0  0
  -24.4422  -10.4327   19.4996 C   0  0  0  0  0  0  0  0  0  0  0  0
  -25.6760  -16.6407   18.1377 C   0  0  0  0  0  0  0  0  0  0  0  0
  -20.4822  -24.5512   21.4642 C   0  0  0  0  0  0  0  0  0  0  0  0
  -22.6514  -23.1511   20.7608 C   0  0  0  0  0  0  0  0  0  0  0  0
  -25.4581  -18.1853   16.5880 C   0  0  0  0  0  0  0  0  0  0  0  0
  -24.9468  -15.8707   15.7946 C   0  0  0  0  0  0  0  0  0  0  0  0
  -26.6599  -28.8424   20.8321 C   0  0  0  0  0  0  0  0  0  0  0  0
  -26.2928  -31.5022   22.6522 C   0  0  0  0  0  0  0  0  0  0  0  0
  -24.1731  -33.7263   24.1380 C   0  0  0  0  0  0  0  0  0  0  0  0
  -25.1053  -22.8911   20.2536 C   0  0  0  0  0  0  0  0  0  0  0  0
  -30.3974  -26.6393   18.1422 C   0  0  0  0  0  0  0  0  0  0  0  0
  -25.1044  -30.2191   19.4034 C   0  0  0  0  0  0  0  0  0  0  0  0
  -24.2175  -30.1331   22.2232 C   0  0  0  0  0  0  0  0  0  0  0  0
  -30.3245  -27.5852   19.3382 C   0  0  0  0  0  0  0  0  0  0  0  0
  -27.8674  -22.0013   18.1905 C   0  0  0  0  0  0  0  0  0  0  0  0
  -29.3408  -27.0569   20.3775 C   0  0  0  0  0  0  0  0  0  0  0  0
  -27.5849  -20.5449   17.8148 C   0  0  0  0  0  0  0  0  0  0  0  0
  -27.4380  -22.3108   19.6236 C   0  0  0  0  0  0  0  0  0  0  0  0
  -25.7669  -20.5015   19.5698 C   0  0  0  0  0  0  0  0  0  0  0  0
  -27.9237  -26.9646   19.7989 C   0  0  1  0  0  0  0  0  0  0  0  0
  -26.1006  -30.2099   20.5588 C   0  0  1  0  0  0  0  0  0  0  0  0
  -26.1230  -20.1591   18.1138 C   0  0  2  0  0  0  0  0  0  0  0  0
  -18.3374  -24.5844   22.7812 C   0  0  0  0  0  0  0  0  0  0  0  0
  -24.1668  -35.7721   25.5912 C   0  0  0  0  0  0  0  0  0  0  0  0
  -26.9292  -29.7735   25.0846 C   0  0  0  0  0  0  0  0  0  0  0  0
  -25.9925  -31.5886   26.5326 C   0  0  0  0  0  0  0  0  0  0  0  0
  -27.9902  -32.0381   25.1078 C   0  0  0  0  0  0  0  0  0  0  0  0
  -17.3952  -26.9957   21.2202 C   0  0  0  0  0  0  0  0  0  0  0  0
  -17.9321  -25.1367   19.6495 C   0  0  0  0  0  0  0  0  0  0  0  0
  -22.8305  -35.3436   22.0547 C   0  0  0  0  0  0  0  0  0  0  0  0
  -19.5163  -27.0521   19.8913 C   0  0  0  0  0  0  0  0  0  1  0  0
  -19.2759  -25.3966   21.8680 C   0  0  2  0  0  0  0  0  0  0  0  0
  -25.7216  -31.7917   24.0193 C   0  0  1  0  0  0  0  0  0  0  0  0
  -24.1628  -35.2440   24.1651 C   0  0  2  0  0  0  0  0  0  0  0  0
  -26.6426  -31.2862   25.1655 C   0  0  0  0  0  0  0  0  0  0  0  0
  -18.5465  -26.1199   20.6662 C   0  0  0  0  0  0  0  0  0  0  0  0
  -25.9895  -17.7821   18.7566 N   0  0  0  0  0  0  0  0  0  0  0  0
  -21.6741  -25.1800   21.3850 N   0  0  0  0  0  0  0  0  0  0  0  0
  -22.7765  -24.4684   21.0273 N   0  0  0  0  0  0  0  0  0  0  0  0
  -25.8478  -18.7030   17.7881 N   0  0  0  0  0  0  0  0  0  0  0  0
  -25.5167  -30.6909   21.8125 N   0  0  0  0  0  0  0  0  0  0  0  0
  -26.0412  -21.9230   19.8321 N   0  0  0  0  0  0  0  0  0  0  0  0
  -25.2686  -18.9716   15.5071 N   0  0  0  0  0  0  0  0  0  0  0  0
  -24.8727  -14.5212   16.1656 N   0  0  0  0  0  0  0  0  0  0  0  0
  -23.8020  -22.4134   20.3868 N   0  0  0  0  0  0  0  0  0  0  0  0
  -27.3102  -28.2745   19.7531 N   0  0  0  0  0  0  0  0  0  0  0  0
  -25.4552  -33.2256   24.0552 N   0  0  0  0  0  0  0  0  0  0  0  0
  -22.9501  -35.7662   23.4739 N   0  3  0  0  0  0  0  0  0  0  0  0
  -24.6880  -16.1972   14.6114 O   0  0  0  0  0  0  0  0  0  0  0  0
  -26.5136  -28.3403   21.9403 O   0  0  0  0  0  0  0  0  0  0  0  0
  -27.3840  -31.9843   22.3383 O   0  0  0  0  0  0  0  0  0  0  0  0
  -23.1468  -33.0521   24.1893 O   0  0  0  0  0  0  0  0  0  0  0  0
  -25.4305  -24.0642   20.4535 O   0  0  0  0  0  0  0  0  0  0  0  0
  -25.8033  -11.8025   20.9383 O   0  0  0  0  0  0  0  0  0  0  0  0
  -20.0334  -28.0764   20.7396 O   0  0  0  0  0  0  0  0  0  1  0  0
  -21.5702   -8.3341   20.2641 F   0  0  0  0  0  0  0  0  0  0  0  0
  -25.1823  -10.7911   18.4415 F   0  0  0  0  0  0  0  0  0  0  0  0
  1  2  1  0  0  0  0
  1  5  2  0  0  0  0
  2  6  2  0  0  0  0
  3  8  2  0  0  0  0
  3 17  1  0  0  0  0
  4  9  1  0  0  0  0
  4 17  2  0  0  0  0
  5 19  1  0  0  0  0
  6 21  1  0  0  0  0
  7 10  2  0  0  0  0
  7 20  1  0  0  0  0
  8 23  1  0  0  0  0
  9 23  2  0  0  0  0
 10 24  1  0  0  0  0
 11 12  2  0  0  0  0
 11 25  1  0  0  0  0
 12 26  1  0  0  0  0
 13 14  2  0  0  0  0
 13 29  1  0  0  0  0
 14 30  1  0  0  0  0
 15 22  1  0  0  0  0
 15 24  2  0  0  0  0
 16 26  2  0  0  0  0
 16 27  1  0  0  0  0
 17 28  1  0  0  0  0
 18 28  1  0  0  0  0
 18 31  2  0  0  0  0
 18 32  1  0  0  0  0
 19 21  2  0  0  0  0
 19 37  1  0  0  0  0
 20 22  2  0  0  0  0
 20 38  1  0  0  0  0
 21 46  1  0  0  0  0
 22 39  1  0  0  0  0
 23 80  1  0  0  0  0
 24 81  1  0  0  0  0
 25 27  2  0  0  0  0
 25 80  1  0  0  0  0
 26 82  1  0  0  0  0
 27 83  1  0  0  0  0
 28 63  2  0  0  0  0
 29 58  1  0  0  0  0
 29 64  2  0  0  0  0
 30 65  2  0  0  0  0
 30 71  1  0  0  0  0
 31 66  1  0  0  0  0
 31 69  1  0  0  0  0
 32 70  1  0  0  0  0
 32 75  2  0  0  0  0
 33 47  1  0  0  0  0
 33 72  1  0  0  0  0
 33 76  2  0  0  0  0
 34 59  1  0  0  0  0
 34 67  1  0  0  0  0
 34 77  2  0  0  0  0
 35 60  1  0  0  0  0
 35 73  1  0  0  0  0
 35 78  2  0  0  0  0
 36 68  1  0  0  0  0
 36 71  1  0  0  0  0
 36 79  2  0  0  0  0
 37 40  1  0  0  0  0
 38 47  1  0  0  0  0
 39 67  1  0  0  0  0
 40 42  1  0  0  0  0
 41 43  1  0  0  0  0
 41 44  1  0  0  0  0
 42 46  1  0  0  0  0
 43 48  1  0  0  0  0
 44 68  1  0  0  0  0
 45 48  1  0  0  0  0
 45 68  1  0  0  0  0
 46 72  1  0  0  0  0
 47 67  1  0  0  0  0
 48 66  1  0  0  0  0
 49 58  1  0  0  0  0
 50 60  1  0  0  0  0
 51 61  1  0  0  0  0
 52 61  1  0  0  0  0
 53 61  1  0  0  0  0
 54 62  1  0  0  0  0
 55 62  1  0  0  0  0
 56 74  1  0  0  0  0
 57 62  1  0  0  0  0
 57 81  1  0  0  0  0
 58 62  1  0  0  0  0
 59 61  1  0  0  0  0
 59 73  1  0  0  0  0
 60 74  1  0  0  0  0
 63 66  1  0  0  0  0
 64 65  1  0  0  0  0
M  CHG  1  74   1
M  ISO  4  36 100  57 101  71 100  81 101
M  END
> <Batch ID>
0072

> <Smiles>
CNC(C)C(=O)NC(C(=O)N1Cc2cc([101O:1][101CH2:1]C(C)(C)C(C)c3ccc([100NH:0][100C:0](=O)N4CCCC(n5nc(-c6ccc(Oc7ccc(F)cc7F)cc6)c(C(N)=O)c5N)C4)nn3)ccc2CC1C(=O)NC1CCCc2ccccc21)C(C)(C)C

> <Shape>
0.257

> <Color>
0.072

> <Negative vol penalty>
0.000

$$$$

  -OEChem-04052318243D

 86 94  0     1  0  0  0  0  0999 V2000
  -27.7813  -24.1362   17.1908 C   0  0  0  0  0  0  0  0  0  0  0  0
  -26.6715  -24.9041   17.5250 C   0  0  0  0  0  0  0  0  0  0  0  0
  -26.5207  -13.1444   20.1718 C   0  0  0  0  0  0  0  0  0  0  0  0
  -24.2556  -13.5081   20.9297 C   0  0  0  0  0  0  0  0  0  0  0  0
  -28.9288  -24.1967   17.9787 C   0  0  0  0  0  0  0  0  0  0  0  0
  -26.7130  -25.7416   18.6402 C   0  0  0  0  0  0  0  0  0  0  0  0
  -22.8770  -28.7452   19.3235 C   0  0  0  0  0  0  0  0  0  0  0  0
  -26.4322  -11.8048   20.5503 C   0  0  0  0  0  0  0  0  0  0  0  0
  -24.1671  -12.1685   21.3081 C   0  0  0  0  0  0  0  0  0  0  0  0
  -21.6267  -28.2886   19.7384 C   0  0  0  0  0  0  0  0  0  0  0  0
  -23.6600   -9.1852   19.8035 C   0  0  0  0  0  0  0  0  0  0  0  0
  -22.5011   -8.4908   19.4570 C   0  0  0  0  0  0  0  0  0  0  0  0
  -22.0704  -29.1125   21.9618 C   0  0  0  0  0  0  0  0  0  0  0  0
  -22.0581   -8.0642   21.7934 C   0  0  0  0  0  0  0  0  0  0  0  0
  -18.3089  -24.8056   21.0742 C   0  0  0  0  0  0  0  0  0  0  0  0
  -20.1123  -24.4628   22.2848 C   0  0  0  0  0  0  0  0  0  0  0  0
  -25.4324  -13.9961   20.3616 C   0  0  0  0  0  0  0  0  0  0  0  0
  -25.1935  -15.9340   18.7200 C   0  0  0  0  0  0  0  0  0  0  0  0
  -28.9791  -25.0262   19.1111 C   0  0  0  0  0  0  0  0  0  0  0  0
  -23.7392  -29.3802   20.2289 C   0  0  0  0  0  0  0  0  0  0  0  0
  -27.8703  -25.8346   19.4343 C   0  0  0  0  0  0  0  0  0  0  0  0
  -23.3300  -29.5785   21.5553 C   0  0  0  0  0  0  0  0  0  0  0  0
  -19.0571  -25.3308   22.1448 C   0  0  0  0  0  0  0  0  0  0  0  0
  -25.2554  -11.3168   21.1183 C   0  0  0  0  0  0  0  0  0  0  0  0
  -21.2244  -28.4696   21.0584 C   0  0  0  0  0  0  0  0  0  0  0  0
  -24.0181   -9.3192   21.1450 C   0  0  0  0  0  0  0  0  0  0  0  0
  -21.7001   -7.9302   20.4519 C   0  0  0  0  0  0  0  0  0  0  0  0
  -23.2171   -8.7586   22.1400 C   0  0  0  0  0  0  0  0  0  0  0  0
  -25.5234  -15.3801   19.9714 C   0  0  0  0  0  0  0  0  0  0  0  0
  -25.4544  -17.2754   18.8586 C   0  0  0  0  0  0  0  0  0  0  0  0
  -24.6956  -15.2934   17.5379 C   0  0  0  0  0  0  0  0  0  0  0  0
  -26.6352  -28.7576   21.3819 C   0  0  0  0  0  0  0  0  0  0  0  0
  -26.2949  -31.6814   22.7450 C   0  0  0  0  0  0  0  0  0  0  0  0
  -24.1975  -34.1305   23.8629 C   0  0  0  0  0  0  0  0  0  0  0  0
  -25.1643  -22.0115   21.7963 C   0  0  0  0  0  0  0  0  0  0  0  0
  -30.2493  -25.0590   19.9241 C   0  0  0  0  0  0  0  0  0  0  0  0
  -25.0737  -29.8909   19.7591 C   0  0  0  0  0  0  0  0  0  0  0  0
  -24.2102  -30.2723   22.5615 C   0  0  0  0  0  0  0  0  0  0  0  0
  -30.0447  -25.6295   21.3237 C   0  0  0  0  0  0  0  0  0  0  0  0
  -27.8582  -19.8001   22.5239 C   0  0  0  0  0  0  0  0  0  0  0  0
  -29.2843  -26.9447   21.2429 C   0  0  0  0  0  0  0  0  0  0  0  0
  -27.4607  -18.4977   21.8270 C   0  0  0  0  0  0  0  0  0  0  0  0
  -26.6451  -20.5206   23.1081 C   0  0  0  0  0  0  0  0  0  0  0  0
  -25.1540  -19.4662   21.4533 C   0  0  0  0  0  0  0  0  0  0  0  0
  -27.8817  -26.7298   20.6602 C   0  0  1  0  0  0  0  0  0  0  0  0
  -26.0796  -30.0652   20.8928 C   0  0  1  0  0  0  0  0  0  0  0  0
  -26.3370  -18.7318   20.7995 C   0  0  2  0  0  0  0  0  0  0  0  0
  -18.5225  -26.2305   24.4331 C   0  0  0  0  0  0  0  0  0  0  0  0
  -24.2122  -36.3865   24.9617 C   0  0  0  0  0  0  0  0  0  0  0  0
  -20.0261  -21.0823   21.3837 C   0  0  0  0  0  0  0  0  0  0  0  0
  -26.9442  -30.3703   25.4227 C   0  0  0  0  0  0  0  0  0  0  0  0
  -26.0276  -32.4031   26.5611 C   0  0  0  0  0  0  0  0  0  0  0  0
  -28.0152  -32.6021   25.0670 C   0  0  0  0  0  0  0  0  0  0  0  0
  -22.0609  -24.6862   18.9631 C   0  0  0  0  0  0  0  0  0  0  0  0
  -23.2239  -22.7261   17.9872 C   0  0  0  0  0  0  0  0  0  0  0  0
  -22.8445  -35.3928   21.5532 C   0  0  0  0  0  0  0  0  0  0  0  0
  -21.3953  -22.3029   19.6500 C   0  0  0  0  0  0  0  0  0  0  0  0
  -23.6338  -23.3742   20.3965 C   0  0  0  0  0  0  0  0  0  0  0  0
  -19.8821  -27.6251   22.8307 C   0  0  0  0  0  0  0  0  0  1  0  0
  -18.7662  -26.5796   22.9623 C   0  0  1  0  0  0  0  0  0  0  0  0
  -25.7365  -32.1938   24.0506 C   0  0  1  0  0  0  0  0  0  0  0  0
  -24.1940  -35.6323   23.6413 C   0  0  2  0  0  0  0  0  0  0  0  0
  -20.8001  -22.3762   21.0800 C   0  0  1  0  0  0  0  0  0  0  0  0
  -26.6648  -31.8775   25.2571 C   0  0  0  0  0  0  0  0  0  0  0  0
  -22.5677  -23.2661   19.2810 C   0  0  0  0  0  0  0  0  0  0  0  0
  -18.8436  -23.6904   20.5697 N   0  0  0  0  0  0  0  0  0  0  0  0
  -25.9607  -16.2948   20.8410 N   0  0  0  0  0  0  0  0  0  0  0  0
  -19.9390  -23.5078   21.3266 N   0  0  0  0  0  0  0  0  0  0  0  0
  -25.9075  -17.4370   20.1349 N   0  0  0  0  0  0  0  0  0  0  0  0
  -25.5083  -30.7480   22.0553 N   0  0  0  0  0  0  0  0  0  0  0  0
  -25.6173  -20.7130   22.0823 N   0  0  0  0  0  0  0  0  0  0  0  0
  -25.3383  -18.3205   18.0121 N   0  0  0  0  0  0  0  0  0  0  0  0
  -24.4838  -13.9082   17.5674 N   0  0  0  0  0  0  0  0  0  0  0  0
  -27.2739  -28.0172   20.4056 N   0  0  0  0  0  0  0  0  0  0  0  0
  -25.4767  -33.6158   23.8534 N   0  0  0  0  0  0  0  0  0  0  0  0
  -24.1938  -22.1057   20.8064 N   0  0  0  0  0  0  0  0  0  0  0  0
  -22.9778  -36.0411   22.8832 N   0  3  0  0  0  0  0  0  0  0  0  0
  -24.4614  -15.9279   16.4814 O   0  0  0  0  0  0  0  0  0  0  0  0
  -26.4960  -28.4444   22.5585 O   0  0  0  0  0  0  0  0  0  0  0  0
  -27.3855  -32.0994   22.3482 O   0  0  0  0  0  0  0  0  0  0  0  0
  -23.1687  -33.4796   24.0316 O   0  0  0  0  0  0  0  0  0  0  0  0
  -25.5969  -23.0132   22.3763 O   0  0  0  0  0  0  0  0  0  0  0  0
  -25.1686  -10.0096   21.4875 O   0  0  0  0  0  0  0  0  0  0  0  0
  -20.0049  -28.0243   21.4662 O   0  0  0  0  0  0  0  0  0  1  0  0
  -20.5863   -7.2647   20.1191 F   0  0  0  0  0  0  0  0  0  0  0  0
  -23.5553   -8.8850   23.4305 F   0  0  0  0  0  0  0  0  0  0  0  0
  1  2  1  0  0  0  0
  1  5  2  0  0  0  0
  2  6  2  0  0  0  0
  3  8  2  0  0  0  0
  3 17  1  0  0  0  0
  4  9  1  0  0  0  0
  4 17  2  0  0  0  0
  5 19  1  0  0  0  0
  6 21  1  0  0  0  0
  7 10  2  0  0  0  0
  7 20  1  0  0  0  0
  8 24  1  0  0  0  0
  9 24  2  0  0  0  0
 10 25  1  0  0  0  0
 11 12  2  0  0  0  0
 11 26  1  0  0  0  0
 12 27  1  0  0  0  0
 13 22  1  0  0  0  0
 13 25  2  0  0  0  0
 14 27  2  0  0  0  0
 14 28  1  0  0  0  0
 15 23  1  0  0  0  0
 15 66  2  0  0  0  0
 16 23  2  0  0  0  0
 16 68  1  0  0  0  0
 17 29  1  0  0  0  0
 18 29  1  0  0  0  0
 18 30  2  0  0  0  0
 18 31  1  0  0  0  0
 19 21  2  0  0  0  0
 19 36  1  0  0  0  0
 20 22  2  0  0  0  0
 20 37  1  0  0  0  0
 21 45  1  0  0  0  0
 22 38  1  0  0  0  0
 23 60  1  0  0  0  0
 24 83  1  0  0  0  0
 25 84  1  0  0  0  0
 26 28  2  0  0  0  0
 26 83  1  0  0  0  0
 27 85  1  0  0  0  0
 28 86  1  0  0  0  0
 29 67  2  0  0  0  0
 30 69  1  0  0  0  0
 30 72  1  0  0  0  0
 31 73  1  0  0  0  0
 31 78  2  0  0  0  0
 32 46  1  0  0  0  0
 32 74  1  0  0  0  0
 32 79  2  0  0  0  0
 33 61  1  0  0  0  0
 33 70  1  0  0  0  0
 33 80  2  0  0  0  0
 34 62  1  0  0  0  0
 34 75  1  0  0  0  0
 34 81  2  0  0  0  0
 35 71  1  0  0  0  0
 35 76  1  0  0  0  0
 35 82  2  0  0  0  0
 36 39  1  0  0  0  0
 37 46  1  0  0  0  0
 38 70  1  0  0  0  0
 39 41  1  0  0  0  0
 40 42  1  0  0  0  0
 40 43  1  0  0  0  0
 41 45  1  0  0  0  0
 42 47  1  0  0  0  0
 43 71  1  0  0  0  0
 44 47  1  0  0  0  0
 44 71  1  0  0  0  0
 45 74  1  0  0  0  0
 46 70  1  0  0  0  0
 47 69  1  0  0  0  0
 48 60  1  0  0  0  0
 49 62  1  0  0  0  0
 50 63  1  0  0  0  0
 51 64  1  0  0  0  0
 52 64  1  0  0  0  0
 53 64  1  0  0  0  0
 54 65  1  0  0  0  0
 55 65  1  0  0  0  0
 56 77  1  0  0  0  0
 57 63  1  0  0  0  0
 57 65  1  0  0  0  0
 58 65  1  0  0  0  0
 58 76  1  0  0  0  0
 59 60  1  0  0  0  0
 59 84  1  0  0  0  0
 61 64  1  0  0  0  0
 61 75  1  0  0  0  0
 62 77  1  0  0  0  0
 63 68  1  0  0  0  0
 66 68  1  0  0  0  0
 67 69  1  0  0  0  0
M  CHG  1  77   1
M  ISO  4  35 100  59 101  76 100  84 101
M  END
> <Batch ID>
0072

> <Smiles>
CNC(C)C(=O)NC(C(=O)N1Cc2cc([101O:1][101CH2:1]C(C)c3cnn(C(C)CC(C)(C)C[100NH:0][100C:0](=O)N4CCCC(n5nc(-c6ccc(Oc7ccc(F)cc7F)cc6)c(C(N)=O)c5N)C4)c3)ccc2CC1C(=O)NC1CCCc2ccccc21)C(C)(C)C

> <Shape>
0.287

> <Color>
0.083

> <Negative vol penalty>
0.000

$$$$

  -OEChem-04052318243D

 82 90  0     1  0  0  0  0  0999 V2000
  -32.4402  -32.3833   18.8535 C   0  0  0  0  0  0  0  0  0  0  0  0
  -32.0152  -31.0674   18.7016 C   0  0  0  0  0  0  0  0  0  0  0  0
  -26.4102  -12.4716   21.6586 C   0  0  0  0  0  0  0  0  0  0  0  0
  -25.8676  -13.5359   19.5586 C   0  0  0  0  0  0  0  0  0  0  0  0
  -31.9198  -33.1685   19.8814 C   0  0  0  0  0  0  0  0  0  0  0  0
  -31.0702  -30.5355   19.5783 C   0  0  0  0  0  0  0  0  0  0  0  0
  -26.6919  -26.4659   18.2460 C   0  0  0  0  0  0  0  0  0  0  0  0
  -25.1887  -11.7986   21.6332 C   0  0  0  0  0  0  0  0  0  0  0  0
  -24.6461  -12.8629   19.5332 C   0  0  0  0  0  0  0  0  0  0  0  0
  -26.6127  -25.0843   18.4151 C   0  0  0  0  0  0  0  0  0  0  0  0
  -23.8650   -9.0967   20.0904 C   0  0  0  0  0  0  0  0  0  0  0  0
  -23.8671   -7.7376   20.4041 C   0  0  0  0  0  0  0  0  0  0  0  0
  -25.4236  -25.4123   20.4882 C   0  0  0  0  0  0  0  0  0  0  0  0
  -22.3717   -8.1622   22.2536 C   0  0  0  0  0  0  0  0  0  0  0  0
  -27.2448  -22.1397   23.5784 C   0  0  0  0  0  0  0  0  0  0  0  0
  -26.5450  -21.7646   22.4558 C   0  0  0  0  0  0  0  0  0  0  0  0
  -26.7496  -13.3403   20.6213 C   0  0  0  0  0  0  0  0  0  0  0  0
  -29.2352  -13.5974   20.1084 C   0  0  0  0  0  0  0  0  0  0  0  0
  -30.9609  -32.6490   20.7652 C   0  0  0  0  0  0  0  0  0  0  0  0
  -26.1463  -27.3327   19.2038 C   0  0  0  0  0  0  0  0  0  0  0  0
  -30.5375  -31.3141   20.6199 C   0  0  0  0  0  0  0  0  0  0  0  0
  -25.4950  -26.8045   20.3277 C   0  0  0  0  0  0  0  0  0  0  0  0
  -24.3067  -11.9942   20.5705 C   0  0  0  0  0  0  0  0  0  0  0  0
  -25.9810  -24.5573   19.5377 C   0  0  0  0  0  0  0  0  0  0  0  0
  -23.1164   -9.9886   20.8584 C   0  0  0  0  0  0  0  0  0  0  0  0
  -23.1204   -7.2703   21.4856 C   0  0  0  0  0  0  0  0  0  0  0  0
  -22.3697   -9.5213   21.9399 C   0  0  0  0  0  0  0  0  0  0  0  0
  -28.0110  -14.0362   20.6473 C   0  0  0  0  0  0  0  0  0  0  0  0
  -30.1183  -14.6103   20.3926 C   0  0  0  0  0  0  0  0  0  0  0  0
  -28.7096  -21.8740   22.0571 C   0  0  0  0  0  0  0  0  0  0  0  0
  -29.5464  -12.3828   19.4129 C   0  0  0  0  0  0  0  0  0  0  0  0
  -27.3207  -29.5699   21.1324 C   0  0  0  0  0  0  0  0  0  0  0  0
  -24.1891  -30.0811   21.8064 C   0  0  0  0  0  0  0  0  0  0  0  0
  -30.2112  -20.4078   20.7501 C   0  0  0  0  0  0  0  0  0  0  0  0
  -21.0072  -28.8507   21.8994 C   0  0  0  0  0  0  0  0  0  0  0  0
  -30.4623  -33.5213   21.8900 C   0  0  0  0  0  0  0  0  0  0  0  0
  -26.2166  -28.8204   18.9934 C   0  0  0  0  0  0  0  0  0  0  0  0
  -24.8752  -27.6918   21.3750 C   0  0  0  0  0  0  0  0  0  0  0  0
  -29.1872  -32.9989   22.5467 C   0  0  0  0  0  0  0  0  0  0  0  0
  -30.2572  -18.3109   23.6554 C   0  0  0  0  0  0  0  0  0  0  0  0
  -29.3072  -31.5053   22.8324 C   0  0  0  0  0  0  0  0  0  0  0  0
  -29.7714  -16.9603   23.1311 C   0  0  0  0  0  0  0  0  0  0  0  0
  -29.5637  -19.4684   22.9439 C   0  0  0  0  0  0  0  0  0  0  0  0
  -29.2032  -18.0790   20.9286 C   0  0  0  0  0  0  0  0  0  0  0  0
  -29.4958  -30.7089   21.5356 C   0  0  1  0  0  0  0  0  0  0  0  0
  -26.0781  -29.6143   20.2888 C   0  0  1  0  0  0  0  0  0  0  0  0
  -29.9012  -16.8827   21.5996 C   0  0  2  0  0  0  0  0  0  0  0  0
  -18.6651  -29.4916   22.5329 C   0  0  0  0  0  0  0  0  0  0  0  0
  -31.2000  -22.1457   22.1856 C   0  0  0  0  0  0  0  0  0  0  0  0
  -30.0788  -22.6985   20.0243 C   0  0  0  0  0  0  0  0  0  0  0  0
  -24.8992  -29.7514   24.7555 C   0  0  0  0  0  0  0  0  0  0  0  0
  -22.4608  -29.4508   25.2372 C   0  0  0  0  0  0  0  0  0  0  0  0
  -23.2841  -31.5984   24.2716 C   0  0  0  0  0  0  0  0  0  0  0  0
  -28.3971  -20.3827   19.3942 C   0  0  0  0  0  0  0  0  0  0  0  0
  -25.9873  -20.2594   19.9901 C   0  0  0  0  0  0  0  0  0  0  0  0
  -20.0274  -28.4550   19.1350 C   0  0  0  0  0  0  0  0  0  0  0  0
  -26.9581  -22.4235   19.1528 C   0  0  0  0  0  0  0  0  0  1  0  0
  -23.2094  -29.5328   22.8157 C   0  0  1  0  0  0  0  0  0  0  0  0
  -19.6901  -29.4263   21.4113 C   0  0  2  0  0  0  0  0  0  0  0  0
  -29.9720  -21.7937   21.2943 C   0  0  0  0  0  0  0  0  0  0  0  0
  -23.4767  -30.0664   24.2514 C   0  0  0  0  0  0  0  0  0  0  0  0
  -27.2315  -21.1762   20.0322 C   0  0  0  0  0  0  0  0  0  0  0  0
  -28.5917  -22.2062   23.3235 N   0  0  0  0  0  0  0  0  0  0  0  0
  -28.1041  -15.2345   21.2300 N   0  0  0  0  0  0  0  0  0  0  0  0
  -27.4967  -21.5985   21.4895 N   0  0  0  0  0  0  0  0  0  0  0  0
  -29.3974  -15.5572   21.0589 N   0  0  0  0  0  0  0  0  0  0  0  0
  -24.9755  -29.1397   21.1274 N   0  0  0  0  0  0  0  0  0  0  0  0
  -29.6906  -19.3463   21.4905 N   0  0  0  0  0  0  0  0  0  0  0  0
  -31.4333  -14.7744   20.1352 N   0  0  0  0  0  0  0  0  0  0  0  0
  -28.5211  -11.4500   19.2059 N   0  0  0  0  0  0  0  0  0  0  0  0
  -28.2335  -30.5659   20.8423 N   0  0  0  0  0  0  0  0  0  0  0  0
  -21.8791  -29.8403   22.3019 N   0  0  0  0  0  0  0  0  0  0  0  0
  -19.1328  -28.5862   20.3137 N   0  3  0  0  0  0  0  0  0  0  0  0
  -30.7032  -12.1249   19.0021 O   0  0  0  0  0  0  0  0  0  0  0  0
  -27.4416  -28.6976   21.9845 O   0  0  0  0  0  0  0  0  0  0  0  0
  -24.2492  -31.2993   21.6221 O   0  0  0  0  0  0  0  0  0  0  0  0
  -30.8396  -20.2748   19.6967 O   0  0  0  0  0  0  0  0  0  0  0  0
  -21.2382  -27.6439   21.9249 O   0  0  0  0  0  0  0  0  0  0  0  0
  -23.1148  -11.3375   20.5452 O   0  0  0  0  0  0  0  0  0  0  0  0
  -25.9028  -23.2091   19.7055 O   0  0  0  0  0  0  0  0  0  1  0  0
  -23.1212   -5.9649   21.7858 F   0  0  0  0  0  0  0  0  0  0  0  0
  -21.6476  -10.3732   22.6806 F   0  0  0  0  0  0  0  0  0  0  0  0
  1  2  1  0  0  0  0
  1  5  2  0  0  0  0
  2  6  2  0  0  0  0
  3  8  2  0  0  0  0
  3 17  1  0  0  0  0
  4  9  1  0  0  0  0
  4 17  2  0  0  0  0
  5 19  1  0  0  0  0
  6 21  1  0  0  0  0
  7 10  2  0  0  0  0
  7 20  1  0  0  0  0
  8 23  1  0  0  0  0
  9 23  2  0  0  0  0
 10 24  1  0  0  0  0
 11 12  2  0  0  0  0
 11 25  1  0  0  0  0
 12 26  1  0  0  0  0
 13 22  1  0  0  0  0
 13 24  2  0  0  0  0
 14 26  2  0  0  0  0
 14 27  1  0  0  0  0
 15 16  2  0  0  0  0
 15 63  1  0  0  0  0
 16 65  1  0  0  0  0
 17 28  1  0  0  0  0
 18 28  1  0  0  0  0
 18 29  2  0  0  0  0
 18 31  1  0  0  0  0
 19 21  2  0  0  0  0
 19 36  1  0  0  0  0
 20 22  2  0  0  0  0
 20 37  1  0  0  0  0
 21 45  1  0  0  0  0
 22 38  1  0  0  0  0
 23 79  1  0  0  0  0
 24 80  1  0  0  0  0
 25 27  2  0  0  0  0
 25 79  1  0  0  0  0
 26 81  1  0  0  0  0
 27 82  1  0  0  0  0
 28 64  2  0  0  0  0
 29 66  1  0  0  0  0
 29 69  1  0  0  0  0
 30 60  1  0  0  0  0
 30 63  2  0  0  0  0
 30 65  1  0  0  0  0
 31 70  1  0  0  0  0
 31 74  2  0  0  0  0
 32 46  1  0  0  0  0
 32 71  1  0  0  0  0
 32 75  2  0  0  0  0
 33 58  1  0  0  0  0
 33 67  1  0  0  0  0
 33 76  2  0  0  0  0
 34 60  1  0  0  0  0
 34 68  1  0  0  0  0
 34 77  2  0  0  0  0
 35 59  1  0  0  0  0
 35 72  1  0  0  0  0
 35 78  2  0  0  0  0
 36 39  1  0  0  0  0
 37 46  1  0  0  0  0
 38 67  1  0  0  0  0
 39 41  1  0  0  0  0
 40 42  1  0  0  0  0
 40 43  1  0  0  0  0
 41 45  1  0  0  0  0
 42 47  1  0  0  0  0
 43 68  1  0  0  0  0
 44 47  1  0  0  0  0
 44 68  1  0  0  0  0
 45 71  1  0  0  0  0
 46 67  1  0  0  0  0
 47 66  1  0  0  0  0
 48 59  1  0  0  0  0
 49 60  1  0  0  0  0
 50 60  1  0  0  0  0
 51 61  1  0  0  0  0
 52 61  1  0  0  0  0
 53 61  1  0  0  0  0
 54 62  1  0  0  0  0
 55 62  1  0  0  0  0
 56 73  1  0  0  0  0
 57 62  1  0  0  0  0
 57 80  1  0  0  0  0
 58 61  1  0  0  0  0
 58 72  1  0  0  0  0
 59 73  1  0  0  0  0
 62 65  1  0  0  0  0
 64 66  1  0  0  0  0
M  CHG  1  73   1
M  ISO  4  34 100  57 101  60 100  80 101
M  END
> <Batch ID>
0072

> <Smiles>
CNC(C)C(=O)NC(C(=O)N1Cc2cc([101O:1][101CH2:1]C(C)(C)n3ccnc3[100C:0](C)(C)[100C:0](=O)N3CCCC(n4nc(-c5ccc(Oc6ccc(F)cc6F)cc5)c(C(N)=O)c4N)C3)ccc2CC1C(=O)NC1CCCc2ccccc21)C(C)(C)C

> <Shape>
0.274

> <Color>
0.077

> <Negative vol penalty>
0.000

$$$$

  -OEChem-04052318243D

 88 96  0     1  0  0  0  0  0999 V2000
  -16.7975  -26.1047   25.2097 C   0  0  0  0  0  0  0  0  0  0  0  0
  -17.5134  -24.9896   24.7863 C   0  0  0  0  0  0  0  0  0  0  0  0
  -24.2104  -14.4669   16.8480 C   0  0  0  0  0  0  0  0  0  0  0  0
  -22.9238  -15.8065   18.3930 C   0  0  0  0  0  0  0  0  0  0  0  0
  -17.0249  -27.3449   24.6146 C   0  0  0  0  0  0  0  0  0  0  0  0
  -18.4565  -25.1137   23.7667 C   0  0  0  0  0  0  0  0  0  0  0  0
  -24.7304  -22.4148   21.6057 C   0  0  0  0  0  0  0  0  0  0  0  0
  -23.4986  -15.0142   15.7806 C   0  0  0  0  0  0  0  0  0  0  0  0
  -22.2119  -16.3538   17.3256 C   0  0  0  0  0  0  0  0  0  0  0  0
  -25.3306  -21.8526   20.4799 C   0  0  0  0  0  0  0  0  0  0  0  0
  -22.6928  -18.7288   14.9700 C   0  0  0  0  0  0  0  0  0  0  0  0
  -22.4884  -20.1085   14.9690 C   0  0  0  0  0  0  0  0  0  0  0  0
  -25.6959  -24.0605   19.5794 C   0  0  0  0  0  0  0  0  0  0  0  0
  -20.0985  -19.7544   14.9807 C   0  0  0  0  0  0  0  0  0  0  0  0
  -23.9230  -14.8630   18.1543 C   0  0  0  0  0  0  0  0  0  0  0  0
  -24.7333  -12.9398   19.6213 C   0  0  0  0  0  0  0  0  0  0  0  0
  -17.9781  -27.4862   23.5937 C   0  0  0  0  0  0  0  0  0  0  0  0
  -24.5985  -23.8060   21.7220 C   0  0  0  0  0  0  0  0  0  0  0  0
  -18.6959  -26.3567   23.1564 C   0  0  0  0  0  0  0  0  0  0  0  0
  -25.0960  -24.6380   20.7089 C   0  0  0  0  0  0  0  0  0  0  0  0
  -22.4994  -15.9577   16.0194 C   0  0  0  0  0  0  0  0  0  0  0  0
  -25.8108  -22.6753   19.4652 C   0  0  0  0  0  0  0  0  0  0  0  0
  -21.6001  -17.8617   14.9763 C   0  0  0  0  0  0  0  0  0  0  0  0
  -21.1912  -20.6213   14.9744 C   0  0  0  0  0  0  0  0  0  0  0  0
  -20.3030  -18.3746   14.9817 C   0  0  0  0  0  0  0  0  0  0  0  0
  -24.6575  -14.2975   19.2573 C   0  0  0  0  0  0  0  0  0  0  0  0
  -25.5483  -12.9256   20.7268 C   0  0  0  0  0  0  0  0  0  0  0  0
  -24.1218  -11.7938   19.0143 C   0  0  0  0  0  0  0  0  0  0  0  0
  -22.1461  -25.8154   21.9498 C   0  0  0  0  0  0  0  0  0  0  0  0
  -24.4902  -28.0101   22.4089 C   0  0  0  0  0  0  0  0  0  0  0  0
  -29.7988  -16.7246   22.6274 C   0  0  0  0  0  0  0  0  0  0  0  0
  -27.7353  -28.7297   21.0057 C   0  0  0  0  0  0  0  0  0  0  0  0
  -18.1552  -28.8377   22.9481 C   0  0  0  0  0  0  0  0  0  0  0  0
  -23.9727  -24.3980   22.9551 C   0  0  0  0  0  0  0  0  0  0  0  0
  -24.9971  -26.1384   20.7949 C   0  0  0  0  0  0  0  0  0  0  0  0
  -19.4393  -28.9590   22.1315 C   0  0  0  0  0  0  0  0  0  0  0  0
  -26.9004  -15.6278   24.4265 C   0  0  0  0  0  0  0  0  0  0  0  0
  -19.6202  -27.7371   21.2365 C   0  0  0  0  0  0  0  0  0  0  0  0
  -25.9917  -15.0649   23.3344 C   0  0  0  0  0  0  0  0  0  0  0  0
  -30.0307  -18.6876   20.5322 C   0  0  0  0  0  0  0  0  0  0  0  0
  -30.5384  -16.8319   18.8764 C   0  0  0  0  0  0  0  0  0  0  0  0
  -28.7936  -18.3116   17.5989 C   0  0  0  0  0  0  0  0  0  0  0  0
  -27.6971  -16.8286   23.9260 C   0  0  0  0  0  0  0  0  0  0  0  0
  -27.5897  -15.9934   21.5996 C   0  0  0  0  0  0  0  0  0  0  0  0
  -19.7449  -26.4561   22.0702 C   0  0  1  0  0  0  0  0  0  0  0  0
  -23.4289  -25.8058   22.7321 C   0  0  1  0  0  0  0  0  0  0  0  0
  -29.8545  -17.1978   20.2000 C   0  0  1  0  0  0  0  0  0  0  0  0
  -29.1218  -19.6687   19.7646 C   0  0  2  0  0  0  0  0  0  0  0  0
  -26.7896  -14.7599   22.0543 C   0  0  2  0  0  0  0  0  0  0  0  0
  -29.6897  -17.0442   17.6068 C   0  0  0  0  0  0  0  0  0  0  0  0
  -29.2665  -19.6727   18.1987 C   0  0  1  0  0  0  0  0  0  0  0  0
  -29.3175  -21.0602   20.4028 C   0  0  0  0  0  0  0  0  0  0  0  0
  -28.7450  -15.8235   17.4374 C   0  0  0  0  0  0  0  0  0  0  0  0
  -30.6330  -17.0293   16.3822 C   0  0  0  0  0  0  0  0  0  0  0  0
  -30.6734  -20.0784   17.7325 C   0  0  0  0  0  0  0  0  0  0  0  0
  -29.7332  -29.8654   22.0137 C   0  0  0  0  0  0  0  0  0  0  0  0
  -31.9648  -16.6846   21.4637 C   0  0  0  0  0  0  0  0  0  0  0  0
  -30.2707  -14.8740   21.0556 C   0  0  0  0  0  0  0  0  0  0  0  0
  -27.8251  -20.2588   16.2332 C   0  0  0  0  0  0  0  0  0  0  0  0
  -29.0550  -22.0562   17.4680 C   0  0  0  0  0  0  0  0  0  0  0  0
  -23.3457  -30.5285   21.1214 C   0  0  0  0  0  0  0  0  0  0  0  0
  -25.6864  -31.2281   20.5736 C   0  0  0  0  0  0  0  0  0  0  0  0
  -24.9942  -30.9507   22.9540 C   0  0  0  0  0  0  0  0  0  0  0  0
  -29.4943  -26.4279   20.4003 C   0  0  0  0  0  0  0  0  0  0  0  0
  -27.0767  -20.8876   18.5389 C   0  0  0  0  0  0  0  0  0  1  0  0
  -25.3120  -28.9008   21.5088 C   0  0  1  0  0  0  0  0  0  0  0  0
  -29.0810  -28.5327   21.6801 C   0  0  2  0  0  0  0  0  0  0  0  0
  -30.4772  -16.3632   21.3301 C   0  0  0  0  0  0  0  0  0  0  0  0
  -28.2911  -20.7368   17.6108 C   0  0  0  0  0  0  0  0  0  0  0  0
  -24.8245  -30.3770   21.5304 C   0  0  0  0  0  0  0  0  0  0  0  0
  -25.3676  -15.0886   20.0661 N   0  0  0  0  0  0  0  0  0  0  0  0
  -25.8972  -14.2251   20.9494 N   0  0  0  0  0  0  0  0  0  0  0  0
  -24.3713  -26.6691   22.0173 N   0  0  0  0  0  0  0  0  0  0  0  0
  -28.4229  -16.5049   22.6966 N   0  0  0  0  0  0  0  0  0  0  0  0
  -25.9932  -11.9284   21.5205 N   0  0  0  0  0  0  0  0  0  0  0  0
  -22.8524  -11.3998   19.4588 N   0  0  0  0  0  0  0  0  0  0  0  0
  -21.0723  -26.3490   22.6367 N   0  0  0  0  0  0  0  0  0  0  0  0
  -26.7012  -28.7243   21.9179 N   0  0  0  0  0  0  0  0  0  0  0  0
  -30.0001  -27.7696   20.7891 N   0  3  0  0  0  0  0  0  0  0  0  0
  -24.6915  -11.1288   18.1160 O   0  0  0  0  0  0  0  0  0  0  0  0
  -22.1319  -25.3728   20.8072 O   0  0  0  0  0  0  0  0  0  0  0  0
  -23.9787  -28.4850   23.4260 O   0  0  0  0  0  0  0  0  0  0  0  0
  -30.4737  -17.1855   23.5517 O   0  0  0  0  0  0  0  0  0  0  0  0
  -27.6139  -28.8777   19.7917 O   0  0  0  0  0  0  0  0  0  0  0  0
  -21.8048  -16.4922   14.9781 O   0  0  0  0  0  0  0  0  0  0  0  0
  -26.4006  -22.1252   18.3572 O   0  0  0  0  0  0  0  0  0  1  0  0
  -20.9950  -21.9464   14.9749 F   0  0  0  0  0  0  0  0  0  0  0  0
  -19.2493  -17.5466   14.9890 F   0  0  0  0  0  0  0  0  0  0  0  0
  1  2  1  0  0  0  0
  1  5  2  0  0  0  0
  2  6  2  0  0  0  0
  3  8  2  0  0  0  0
  3 15  1  0  0  0  0
  4  9  1  0  0  0  0
  4 15  2  0  0  0  0
  5 17  1  0  0  0  0
  6 19  1  0  0  0  0
  7 10  2  0  0  0  0
  7 18  1  0  0  0  0
  8 21  1  0  0  0  0
  9 21  2  0  0  0  0
 10 22  1  0  0  0  0
 11 12  2  0  0  0  0
 11 23  1  0  0  0  0
 12 24  1  0  0  0  0
 13 20  1  0  0  0  0
 13 22  2  0  0  0  0
 14 24  2  0  0  0  0
 14 25  1  0  0  0  0
 15 26  1  0  0  0  0
 16 26  1  0  0  0  0
 16 27  2  0  0  0  0
 16 28  1  0  0  0  0
 17 19  2  0  0  0  0
 17 33  1  0  0  0  0
 18 20  2  0  0  0  0
 18 34  1  0  0  0  0
 19 45  1  0  0  0  0
 20 35  1  0  0  0  0
 21 85  1  0  0  0  0
 22 86  1  0  0  0  0
 23 25  2  0  0  0  0
 23 85  1  0  0  0  0
 24 87  1  0  0  0  0
 25 88  1  0  0  0  0
 26 71  2  0  0  0  0
 27 72  1  0  0  0  0
 27 75  1  0  0  0  0
 28 76  1  0  0  0  0
 28 80  2  0  0  0  0
 29 46  1  0  0  0  0
 29 77  1  0  0  0  0
 29 81  2  0  0  0  0
 30 66  1  0  0  0  0
 30 73  1  0  0  0  0
 30 82  2  0  0  0  0
 31 68  1  0  0  0  0
 31 74  1  0  0  0  0
 31 83  2  0  0  0  0
 32 67  1  0  0  0  0
 32 78  1  0  0  0  0
 32 84  2  0  0  0  0
 33 36  1  0  0  0  0
 34 46  1  0  0  0  0
 35 73  1  0  0  0  0
 36 38  1  0  0  0  0
 37 39  1  0  0  0  0
 37 43  1  0  0  0  0
 38 45  1  0  0  0  0
 39 49  1  0  0  0  0
 40 47  1  0  0  0  0
 40 48  1  0  0  0  0
 41 47  1  0  0  0  0
 41 50  1  0  0  0  0
 42 50  1  0  0  0  0
 42 51  1  0  0  0  0
 43 74  1  0  0  0  0
 44 49  1  0  0  0  0
 44 74  1  0  0  0  0
 45 77  1  0  0  0  0
 46 73  1  0  0  0  0
 47 68  1  0  0  0  0
 48 51  1  0  0  0  0
 48 52  1  0  0  0  0
 49 72  1  0  0  0  0
 50 53  1  0  0  0  0
 50 54  1  0  0  0  0
 51 55  1  0  0  0  0
 51 69  1  0  0  0  0
 56 67  1  0  0  0  0
 57 68  1  0  0  0  0
 58 68  1  0  0  0  0
 59 69  1  0  0  0  0
 60 69  1  0  0  0  0
 61 70  1  0  0  0  0
 62 70  1  0  0  0  0
 63 70  1  0  0  0  0
 64 79  1  0  0  0  0
 65 69  1  0  0  0  0
 65 86  1  0  0  0  0
 66 70  1  0  0  0  0
 66 78  1  0  0  0  0
 67 79  1  0  0  0  0
 71 72  1  0  0  0  0
M  CHG  1  79   1
M  ISO  4  31 100  65 101  68 100  86 101
M  END
> <Batch ID>
0072

> <Smiles>
CNC(C)C(=O)NC(C(=O)N1Cc2cc([101O:1][101CH2:1]C(C)(C)C3(C)CC(C)(C)CC([100C:0](C)(C)[100C:0](=O)N4CCCC(n5nc(-c6ccc(Oc7ccc(F)cc7F)cc6)c(C(N)=O)c5N)C4)CC3C)ccc2CC1C(=O)NC1CCCc2ccccc21)C(C)(C)C

> <Shape>
0.207

> <Color>
0.055

> <Negative vol penalty>
0.000

$$$$

  -OEChem-04052318243D

 86 94  0     1  0  0  0  0  0999 V2000
  -20.0950  -22.1638   16.9800 C   0  0  0  0  0  0  0  0  0  0  0  0
  -21.4749  -22.0190   17.0812 C   0  0  0  0  0  0  0  0  0  0  0  0
  -22.2911  -30.0702   19.9578 C   0  0  0  0  0  0  0  0  0  0  0  0
  -22.5768  -28.8329   22.0132 C   0  0  0  0  0  0  0  0  0  0  0  0
  -19.2602  -21.5429   17.9082 C   0  0  0  0  0  0  0  0  0  0  0  0
  -22.0210  -21.2541   18.1113 C   0  0  0  0  0  0  0  0  0  0  0  0
  -27.0513  -17.7714   17.8421 C   0  0  0  0  0  0  0  0  0  0  0  0
  -20.9241  -29.7937   19.9814 C   0  0  0  0  0  0  0  0  0  0  0  0
  -21.2098  -28.5565   22.0368 C   0  0  0  0  0  0  0  0  0  0  0  0
  -28.3690  -17.9945   18.2393 C   0  0  0  0  0  0  0  0  0  0  0  0
  -18.3591  -30.1650   22.8774 C   0  0  0  0  0  0  0  0  0  0  0  0
  -17.6889  -30.3206   24.0907 C   0  0  0  0  0  0  0  0  0  0  0  0
  -27.9235  -16.8711   20.3271 C   0  0  0  0  0  0  0  0  0  0  0  0
  -30.6466  -22.1833   21.9199 C   0  0  0  0  0  0  0  0  0  0  0  0
  -28.8426  -20.6493   21.4995 C   0  0  0  0  0  0  0  0  0  0  0  0
  -17.0666  -27.9865   24.0463 C   0  0  0  0  0  0  0  0  0  0  0  0
  -23.1175  -29.5897   20.9737 C   0  0  0  0  0  0  0  0  0  0  0  0
  -25.1838  -30.9805   21.5246 C   0  0  0  0  0  0  0  0  0  0  0  0
  -19.7959  -20.7620   18.9446 C   0  0  0  0  0  0  0  0  0  0  0  0
  -26.1553  -17.1049   18.6904 C   0  0  0  0  0  0  0  0  0  0  0  0
  -21.1926  -20.6232   19.0550 C   0  0  0  0  0  0  0  0  0  0  0  0
  -26.5957  -16.6386   19.9373 C   0  0  0  0  0  0  0  0  0  0  0  0
  -30.1949  -20.8832   21.7228 C   0  0  0  0  0  0  0  0  0  0  0  0
  -20.3835  -29.0369   21.0209 C   0  0  0  0  0  0  0  0  0  0  0  0
  -28.8045  -17.5469   19.4831 C   0  0  0  0  0  0  0  0  0  0  0  0
  -18.3831  -28.9202   22.2485 C   0  0  0  0  0  0  0  0  0  0  0  0
  -17.0427  -29.2313   24.6752 C   0  0  0  0  0  0  0  0  0  0  0  0
  -17.7369  -27.8309   22.8329 C   0  0  0  0  0  0  0  0  0  0  0  0
  -24.5297  -29.8745   20.9496 C   0  0  0  0  0  0  0  0  0  0  0  0
  -29.7131  -23.2066   21.8843 C   0  0  0  0  0  0  0  0  0  0  0  0
  -27.9898  -21.7412   21.4830 C   0  0  0  0  0  0  0  0  0  0  0  0
  -26.5105  -30.7884   21.2256 C   0  0  0  0  0  0  0  0  0  0  0  0
  -24.6408  -32.0829   22.2632 C   0  0  0  0  0  0  0  0  0  0  0  0
  -23.4242  -17.8780   20.1211 C   0  0  0  0  0  0  0  0  0  0  0  0
  -23.4363  -14.7480   20.9728 C   0  0  0  0  0  0  0  0  0  0  0  0
  -25.2398  -11.9068   21.5401 C   0  0  0  0  0  0  0  0  0  0  0  0
  -29.7498  -25.9020   20.0086 C   0  0  0  0  0  0  0  0  0  0  0  0
  -18.8556  -20.1490   19.9520 C   0  0  0  0  0  0  0  0  0  0  0  0
  -24.7445  -16.8486   18.2361 C   0  0  0  0  0  0  0  0  0  0  0  0
  -25.6788  -15.9000   20.8766 C   0  0  0  0  0  0  0  0  0  0  0  0
  -19.4973  -19.0484   20.7930 C   0  0  0  0  0  0  0  0  0  0  0  0
  -29.3569  -28.7782   17.9471 C   0  0  0  0  0  0  0  0  0  0  0  0
  -20.8625  -19.4957   21.3056 C   0  0  0  0  0  0  0  0  0  0  0  0
  -28.1342  -29.4851   18.5347 C   0  0  0  0  0  0  0  0  0  0  0  0
  -29.2133  -27.2590   18.0069 C   0  0  0  0  0  0  0  0  0  0  0  0
  -27.6832  -27.4250   19.9317 C   0  0  0  0  0  0  0  0  0  0  0  0
  -21.8217  -19.7812   20.1438 C   0  0  1  0  0  0  0  0  0  0  0  0
  -23.7781  -16.6123   19.3926 C   0  0  1  0  0  0  0  0  0  0  0  0
  -27.8058  -28.9584   19.9447 C   0  0  2  0  0  0  0  0  0  0  0  0
  -30.1472  -25.0350   23.5667 C   0  0  0  0  0  0  0  0  0  0  0  0
  -24.9768   -9.5179   22.2623 C   0  0  0  0  0  0  0  0  0  0  0  0
  -25.9123  -20.6065   22.3444 C   0  0  0  0  0  0  0  0  0  0  0  0
  -26.2759  -20.8507   19.8656 C   0  0  0  0  0  0  0  0  0  0  0  0
  -25.6552  -22.8225   21.2468 C   0  0  0  0  0  0  0  0  0  0  0  0
  -23.0916  -15.6623   23.8633 C   0  0  0  0  0  0  0  0  0  0  0  0
  -23.7821  -13.3704   24.5973 C   0  0  0  0  0  0  0  0  0  0  0  0
  -21.7186  -13.6708   23.2283 C   0  0  0  0  0  0  0  0  0  0  0  0
  -26.3048  -10.8918   18.9722 C   0  0  0  0  0  0  0  0  0  0  0  0
  -31.1679  -19.7315   21.7503 C   0  0  0  0  0  0  0  0  0  0  0  0
  -31.7689  -19.4004   20.3826 C   0  0  0  0  0  0  0  0  0  0  0  0
  -30.7345  -18.9315   19.3660 C   0  0  0  0  0  0  0  0  0  1  0  0
  -30.1620  -24.6148   22.0901 C   0  0  2  0  0  0  0  0  0  0  0  0
  -23.9817  -13.9594   22.1388 C   0  0  1  0  0  0  0  0  0  0  0  0
  -25.0337  -10.4744   21.0814 C   0  0  2  0  0  0  0  0  0  0  0  0
  -26.5319  -21.5268   21.2479 C   0  0  0  0  0  0  0  0  0  0  0  0
  -23.1605  -14.1813   23.4403 C   0  0  0  0  0  0  0  0  0  0  0  0
  -25.3715  -29.0416   20.3318 N   0  0  0  0  0  0  0  0  0  0  0  0
  -28.3917  -23.0184   21.6702 N   0  0  0  0  0  0  0  0  0  0  0  0
  -26.5681  -29.6245   20.5168 N   0  0  0  0  0  0  0  0  0  0  0  0
  -24.3070  -15.6794   20.3897 N   0  0  0  0  0  0  0  0  0  0  0  0
  -28.9038  -26.8244   19.3711 N   0  0  0  0  0  0  0  0  0  0  0  0
  -27.6218  -31.5032   21.5022 N   0  0  0  0  0  0  0  0  0  0  0  0
  -23.2567  -32.1249   22.4800 N   0  0  0  0  0  0  0  0  0  0  0  0
  -22.3335  -18.5437   19.5951 N   0  0  0  0  0  0  0  0  0  0  0  0
  -24.0411  -12.5695   21.6995 N   0  0  0  0  0  0  0  0  0  0  0  0
  -29.3877  -25.5481   21.3026 N   0  0  0  0  0  0  0  0  0  0  0  0
  -26.1484  -10.0514   20.1872 N   0  3  0  0  0  0  0  0  0  0  0  0
  -25.3596  -33.0120   22.7033 O   0  0  0  0  0  0  0  0  0  0  0  0
  -24.0904  -18.2241   21.0897 O   0  0  0  0  0  0  0  0  0  0  0  0
  -22.2827  -14.5399   20.5887 O   0  0  0  0  0  0  0  0  0  0  0  0
  -26.3526  -12.3883   21.7408 O   0  0  0  0  0  0  0  0  0  0  0  0
  -30.7565  -25.4328   19.4668 O   0  0  0  0  0  0  0  0  0  0  0  0
  -19.0496  -28.7671   21.0443 O   0  0  0  0  0  0  0  0  0  0  0  0
  -30.0899  -17.7639   19.8735 O   0  0  0  0  0  0  0  0  0  1  0  0
  -16.4004  -29.3805   25.8411 F   0  0  0  0  0  0  0  0  0  0  0  0
  -17.7575  -26.6323   22.2340 F   0  0  0  0  0  0  0  0  0  0  0  0
  1  2  1  0  0  0  0
  1  5  2  0  0  0  0
  2  6  2  0  0  0  0
  3  8  2  0  0  0  0
  3 17  1  0  0  0  0
  4  9  1  0  0  0  0
  4 17  2  0  0  0  0
  5 19  1  0  0  0  0
  6 21  1  0  0  0  0
  7 10  2  0  0  0  0
  7 20  1  0  0  0  0
  8 24  1  0  0  0  0
  9 24  2  0  0  0  0
 10 25  1  0  0  0  0
 11 12  2  0  0  0  0
 11 26  1  0  0  0  0
 12 27  1  0  0  0  0
 13 22  1  0  0  0  0
 13 25  2  0  0  0  0
 14 23  1  0  0  0  0
 14 30  2  0  0  0  0
 15 23  2  0  0  0  0
 15 31  1  0  0  0  0
 16 27  2  0  0  0  0
 16 28  1  0  0  0  0
 17 29  1  0  0  0  0
 18 29  1  0  0  0  0
 18 32  2  0  0  0  0
 18 33  1  0  0  0  0
 19 21  2  0  0  0  0
 19 38  1  0  0  0  0
 20 22  2  0  0  0  0
 20 39  1  0  0  0  0
 21 47  1  0  0  0  0
 22 40  1  0  0  0  0
 23 59  1  0  0  0  0
 24 83  1  0  0  0  0
 25 84  1  0  0  0  0
 26 28  2  0  0  0  0
 26 83  1  0  0  0  0
 27 85  1  0  0  0  0
 28 86  1  0  0  0  0
 29 67  2  0  0  0  0
 30 62  1  0  0  0  0
 30 68  1  0  0  0  0
 31 65  1  0  0  0  0
 31 68  2  0  0  0  0
 32 69  1  0  0  0  0
 32 72  1  0  0  0  0
 33 73  1  0  0  0  0
 33 78  2  0  0  0  0
 34 48  1  0  0  0  0
 34 74  1  0  0  0  0
 34 79  2  0  0  0  0
 35 63  1  0  0  0  0
 35 70  1  0  0  0  0
 35 80  2  0  0  0  0
 36 64  1  0  0  0  0
 36 75  1  0  0  0  0
 36 81  2  0  0  0  0
 37 71  1  0  0  0  0
 37 76  1  0  0  0  0
 37 82  2  0  0  0  0
 38 41  1  0  0  0  0
 39 48  1  0  0  0  0
 40 70  1  0  0  0  0
 41 43  1  0  0  0  0
 42 44  1  0  0  0  0
 42 45  1  0  0  0  0
 43 47  1  0  0  0  0
 44 49  1  0  0  0  0
 45 71  1  0  0  0  0
 46 49  1  0  0  0  0
 46 71  1  0  0  0  0
 47 74  1  0  0  0  0
 48 70  1  0  0  0  0
 49 69  1  0  0  0  0
 50 62  1  0  0  0  0
 51 64  1  0  0  0  0
 52 65  1  0  0  0  0
 53 65  1  0  0  0  0
 54 65  1  0  0  0  0
 55 66  1  0  0  0  0
 56 66  1  0  0  0  0
 57 66  1  0  0  0  0
 58 77  1  0  0  0  0
 59 60  1  0  0  0  0
 60 61  1  0  0  0  0
 61 84  1  0  0  0  0
 62 76  1  0  0  0  0
 63 66  1  0  0  0  0
 63 75  1  0  0  0  0
 64 77  1  0  0  0  0
 67 69  1  0  0  0  0
M  CHG  1  77   1
M  ISO  4  37 100  61 101  76 100  84 101
M  END
> <Batch ID>
0072

> <Smiles>
CNC(C)C(=O)NC(C(=O)N1Cc2cc([101O:1][101CH2:1]CCc3cc(C(C)[100NH:0][100C:0](=O)N4CCCC(n5nc(-c6ccc(Oc7ccc(F)cc7F)cc6)c(C(N)=O)c5N)C4)nc(C(C)(C)C)c3)ccc2CC1C(=O)NC1CCCc2ccccc21)C(C)(C)C

> <Shape>
0.241

> <Color>
0.085

> <Negative vol penalty>
0.000

$$$$

  -OEChem-04052318243D

 89 97  0     1  0  0  0  0  0999 V2000
  -18.3811  -25.0605   22.3716 C   0  0  0  0  0  0  0  0  0  0  0  0
  -19.6601  -25.1317   21.8289 C   0  0  0  0  0  0  0  0  0  0  0  0
  -25.0792   -8.9934   20.1095 C   0  0  0  0  0  0  0  0  0  0  0  0
  -25.6236   -9.4813   22.4123 C   0  0  0  0  0  0  0  0  0  0  0  0
  -17.6796  -26.2313   22.6561 C   0  0  0  0  0  0  0  0  0  0  0  0
  -20.2379  -26.3740   21.5693 C   0  0  0  0  0  0  0  0  0  0  0  0
  -25.0592  -26.6314   23.0971 C   0  0  0  0  0  0  0  0  0  0  0  0
  -25.2510   -7.6316   20.3574 C   0  0  0  0  0  0  0  0  0  0  0  0
  -25.7953   -8.1194   22.6602 C   0  0  0  0  0  0  0  0  0  0  0  0
  -26.0173  -26.0244   22.2863 C   0  0  0  0  0  0  0  0  0  0  0  0
  -23.4916   -5.1167   21.7761 C   0  0  0  0  0  0  0  0  0  0  0  0
  -22.5295   -4.2401   21.2746 C   0  0  0  0  0  0  0  0  0  0  0  0
  -30.1606  -21.0208   19.2829 C   0  0  0  0  0  0  0  0  0  0  0  0
  -30.0977  -21.9908   18.2522 C   0  0  0  0  0  0  0  0  0  0  0  0
  -26.5843  -28.1765   21.3555 C   0  0  0  0  0  0  0  0  0  0  0  0
  -24.2286   -3.1204   19.9720 C   0  0  0  0  0  0  0  0  0  0  0  0
  -25.2656   -9.9183   21.1369 C   0  0  0  0  0  0  0  0  0  0  0  0
  -23.9000  -12.0690   21.0051 C   0  0  0  0  0  0  0  0  0  0  0  0
  -18.2529  -27.4886   22.4089 C   0  0  0  0  0  0  0  0  0  0  0  0
  -24.8485  -28.0164   23.0352 C   0  0  0  0  0  0  0  0  0  0  0  0
  -19.5429  -27.5627   21.8496 C   0  0  0  0  0  0  0  0  0  0  0  0
  -25.6247  -28.7989   22.1684 C   0  0  0  0  0  0  0  0  0  0  0  0
  -25.6090   -7.1945   21.6327 C   0  0  0  0  0  0  0  0  0  0  0  0
  -26.7780  -26.7965   21.4133 C   0  0  0  0  0  0  0  0  0  0  0  0
  -24.8223   -4.9952   21.3756 C   0  0  0  0  0  0  0  0  0  0  0  0
  -22.8980   -3.2420   20.3726 C   0  0  0  0  0  0  0  0  0  0  0  0
  -25.1907   -3.9970   20.4736 C   0  0  0  0  0  0  0  0  0  0  0  0
  -25.0889  -11.3253   20.8814 C   0  0  0  0  0  0  0  0  0  0  0  0
  -28.8842  -20.8603   19.7751 C   0  0  0  0  0  0  0  0  0  0  0  0
  -28.7847  -22.3936   18.1461 C   0  0  0  0  0  0  0  0  0  0  0  0
  -24.2563  -13.3473   20.6509 C   0  0  0  0  0  0  0  0  0  0  0  0
  -22.5907  -11.6425   21.4045 C   0  0  0  0  0  0  0  0  0  0  0  0
  -22.3917  -29.8793   22.2624 C   0  0  0  0  0  0  0  0  0  0  0  0
  -24.3747  -32.2452   23.2588 C   0  0  0  0  0  0  0  0  0  0  0  0
  -27.5708  -33.3041   23.8158 C   0  0  0  0  0  0  0  0  0  0  0  0
  -27.6714  -17.6076   21.0167 C   0  0  0  0  0  0  0  0  0  0  0  0
  -17.4374  -28.7261   22.6889 C   0  0  0  0  0  0  0  0  0  0  0  0
  -23.8297  -28.6594   23.9357 C   0  0  0  0  0  0  0  0  0  0  0  0
  -25.4515  -30.2924   22.0788 C   0  0  0  0  0  0  0  0  0  0  0  0
  -18.2681  -30.0060   22.7329 C   0  0  0  0  0  0  0  0  0  0  0  0
  -28.4900  -15.1173   18.5215 C   0  0  0  0  0  0  0  0  0  0  0  0
  -19.2240  -30.0631   21.5455 C   0  0  0  0  0  0  0  0  0  0  0  0
  -27.5713  -13.9642   18.9298 C   0  0  0  0  0  0  0  0  0  0  0  0
  -29.0393  -15.8461   19.7444 C   0  0  0  0  0  0  0  0  0  0  0  0
  -27.0766  -15.2027   21.0888 C   0  0  0  0  0  0  0  0  0  0  0  0
  -20.2133  -28.8918   21.5769 C   0  0  1  0  0  0  0  0  0  0  0  0
  -23.3426  -30.0094   23.4185 C   0  0  1  0  0  0  0  0  0  0  0  0
  -26.4708  -14.4400   19.8966 C   0  0  2  0  0  0  0  0  0  0  0  0
  -27.4841  -21.6036   15.3863 C   0  0  0  0  0  0  0  0  0  0  0  0
  -28.6976  -25.0825   15.2067 C   0  0  0  0  0  0  0  0  0  0  0  0
  -25.8479  -20.6823   18.6819 C   0  0  0  0  0  0  0  0  0  0  0  0
  -29.0369  -20.2602   22.2201 C   0  0  0  0  0  0  0  0  0  0  0  0
  -28.8770  -35.2995   24.5965 C   0  0  0  0  0  0  0  0  0  0  0  0
  -26.1982  -25.2194   17.4283 C   0  0  0  0  0  0  0  0  0  0  0  0
  -23.8983  -33.6061   20.5697 C   0  0  0  0  0  0  0  0  0  0  0  0
  -25.9036  -35.0367   21.0172 C   0  0  0  0  0  0  0  0  0  0  0  0
  -23.9257  -35.1554   22.5326 C   0  0  0  0  0  0  0  0  0  0  0  0
  -28.7167  -31.8069   26.0971 C   0  0  0  0  0  0  0  0  0  0  0  0
  -27.0262  -22.7470   16.2903 C   0  0  0  0  0  0  0  0  0  0  0  0
  -29.2123  -24.0438   16.2037 C   0  0  0  0  0  0  0  0  0  0  0  0
  -28.4845  -25.7806   18.3587 C   0  0  0  0  0  0  0  0  0  0  0  0
  -26.6304  -21.8338   19.2896 C   0  0  0  0  0  0  0  0  0  0  0  0
  -27.9829  -26.8190   19.3630 C   0  0  0  0  0  0  0  0  0  1  0  0
  -28.3886  -19.9773   20.8510 C   0  0  2  0  0  0  0  0  0  0  0  0
  -25.4172  -33.1151   22.5989 C   0  0  1  0  0  0  0  0  0  0  0  0
  -28.2096  -33.9960   25.0065 C   0  0  2  0  0  0  0  0  0  0  0  0
  -27.4867  -24.6306   18.0357 C   0  0  2  0  0  0  0  0  0  0  0  0
  -28.1342  -23.4349   17.1853 C   0  0  0  0  0  0  0  0  0  0  0  0
  -24.7883  -34.2000   21.6797 C   0  0  0  0  0  0  0  0  0  0  0  0
  -26.1230  -12.0691   20.4798 N   0  0  0  0  0  0  0  0  0  0  0  0
  -28.0562  -21.7000   19.0768 N   0  0  0  0  0  0  0  0  0  0  0  0
  -25.5851  -13.2936   20.3481 N   0  0  0  0  0  0  0  0  0  0  0  0
  -24.4383  -30.8736   22.9750 N   0  0  0  0  0  0  0  0  0  0  0  0
  -27.9402  -16.2889   20.6139 N   0  0  0  0  0  0  0  0  0  0  0  0
  -23.5595  -14.5008   20.5720 N   0  0  0  0  0  0  0  0  0  0  0  0
  -22.3991  -10.2939   21.7347 N   0  0  0  0  0  0  0  0  0  0  0  0
  -21.2594  -29.1396   22.5457 N   0  0  0  0  0  0  0  0  0  0  0  0
  -26.2434  -33.6501   23.6758 N   0  0  0  0  0  0  0  0  0  0  0  0
  -28.5404  -18.5759   20.5287 N   0  0  0  0  0  0  0  0  0  0  0  0
  -29.2397  -33.1152   25.6260 N   0  3  0  0  0  0  0  0  0  0  0  0
  -21.6158  -12.4304   21.4509 O   0  0  0  0  0  0  0  0  0  0  0  0
  -22.6644  -30.4119   21.1929 O   0  0  0  0  0  0  0  0  0  0  0  0
  -23.5391  -32.7626   24.0043 O   0  0  0  0  0  0  0  0  0  0  0  0
  -28.1886  -32.5366   23.0811 O   0  0  0  0  0  0  0  0  0  0  0  0
  -26.7234  -17.9015   21.7528 O   0  0  0  0  0  0  0  0  0  0  0  0
  -25.7764   -5.8657   21.8750 O   0  0  0  0  0  0  0  0  0  0  0  0
  -27.7207  -26.2019   20.6141 O   0  0  0  0  0  0  0  0  0  1  0  0
  -21.9742   -2.3993   19.8922 F   0  0  0  0  0  0  0  0  0  0  0  0
  -26.4677   -3.8746   20.0860 F   0  0  0  0  0  0  0  0  0  0  0  0
  1  2  1  0  0  0  0
  1  5  2  0  0  0  0
  2  6  2  0  0  0  0
  3  8  2  0  0  0  0
  3 17  1  0  0  0  0
  4  9  1  0  0  0  0
  4 17  2  0  0  0  0
  5 19  1  0  0  0  0
  6 21  1  0  0  0  0
  7 10  2  0  0  0  0
  7 20  1  0  0  0  0
  8 23  1  0  0  0  0
  9 23  2  0  0  0  0
 10 24  1  0  0  0  0
 11 12  2  0  0  0  0
 11 25  1  0  0  0  0
 12 26  1  0  0  0  0
 13 14  1  0  0  0  0
 13 29  2  0  0  0  0
 14 30  2  0  0  0  0
 15 22  1  0  0  0  0
 15 24  2  0  0  0  0
 16 26  2  0  0  0  0
 16 27  1  0  0  0  0
 17 28  1  0  0  0  0
 18 28  1  0  0  0  0
 18 31  2  0  0  0  0
 18 32  1  0  0  0  0
 19 21  2  0  0  0  0
 19 37  1  0  0  0  0
 20 22  2  0  0  0  0
 20 38  1  0  0  0  0
 21 46  1  0  0  0  0
 22 39  1  0  0  0  0
 23 86  1  0  0  0  0
 24 87  1  0  0  0  0
 25 27  2  0  0  0  0
 25 86  1  0  0  0  0
 26 88  1  0  0  0  0
 27 89  1  0  0  0  0
 28 70  2  0  0  0  0
 29 64  1  0  0  0  0
 29 71  1  0  0  0  0
 30 68  1  0  0  0  0
 30 71  1  0  0  0  0
 31 72  1  0  0  0  0
 31 75  1  0  0  0  0
 32 76  1  0  0  0  0
 32 81  2  0  0  0  0
 33 47  1  0  0  0  0
 33 77  1  0  0  0  0
 33 82  2  0  0  0  0
 34 65  1  0  0  0  0
 34 73  1  0  0  0  0
 34 83  2  0  0  0  0
 35 66  1  0  0  0  0
 35 78  1  0  0  0  0
 35 84  2  0  0  0  0
 36 74  1  0  0  0  0
 36 79  1  0  0  0  0
 36 85  2  0  0  0  0
 37 40  1  0  0  0  0
 38 47  1  0  0  0  0
 39 73  1  0  0  0  0
 40 42  1  0  0  0  0
 41 43  1  0  0  0  0
 41 44  1  0  0  0  0
 42 46  1  0  0  0  0
 43 48  1  0  0  0  0
 44 74  1  0  0  0  0
 45 48  1  0  0  0  0
 45 74  1  0  0  0  0
 46 77  1  0  0  0  0
 47 73  1  0  0  0  0
 48 72  1  0  0  0  0
 49 59  1  0  0  0  0
 50 60  1  0  0  0  0
 51 62  1  0  0  0  0
 52 64  1  0  0  0  0
 53 66  1  0  0  0  0
 54 67  1  0  0  0  0
 55 69  1  0  0  0  0
 56 69  1  0  0  0  0
 57 69  1  0  0  0  0
 58 80  1  0  0  0  0
 59 68  1  0  0  0  0
 60 68  1  0  0  0  0
 61 63  1  0  0  0  0
 61 67  1  0  0  0  0
 62 71  1  0  0  0  0
 63 87  1  0  0  0  0
 64 79  1  0  0  0  0
 65 69  1  0  0  0  0
 65 78  1  0  0  0  0
 66 80  1  0  0  0  0
 67 68  1  0  0  0  0
 70 72  1  0  0  0  0
M  CHG  1  80   1
M  ISO  4  36 100  63 101  79 100  87 101
M  END
> <Batch ID>
0072

> <Smiles>
CCn1c(C(C)[100NH:0][100C:0](=O)N2CCCC(n3nc(-c4ccc(Oc5ccc(F)cc5F)cc4)c(C(N)=O)c3N)C2)ccc1C(CC)(CC)C(C)C[101CH2:1][101O:1]c1ccc2c(c1)CN(C(=O)C(NC(=O)C(C)NC)C(C)(C)C)C(C(=O)NC1CCCc3ccccc31)C2

> <Shape>
0.280

> <Color>
0.081

> <Negative vol penalty>
0.000

$$$$

  -OEChem-04052318243D

 84 92  0     1  0  0  0  0  0999 V2000
  -23.1779   -8.3483   21.6043 C   0  0  0  0  0  0  0  0  0  0  0  0
  -23.7532   -9.2271   20.6920 C   0  0  0  0  0  0  0  0  0  0  0  0
  -22.2031  -28.7267   21.3644 C   0  0  0  0  0  0  0  0  0  0  0  0
  -23.3896  -28.8726   23.4640 C   0  0  0  0  0  0  0  0  0  0  0  0
  -22.1378   -8.7805   22.4260 C   0  0  0  0  0  0  0  0  0  0  0  0
  -23.2878  -10.5384   20.6002 C   0  0  0  0  0  0  0  0  0  0  0  0
  -26.5991  -15.5429   19.3770 C   0  0  0  0  0  0  0  0  0  0  0  0
  -21.0443  -29.1903   21.9870 C   0  0  0  0  0  0  0  0  0  0  0  0
  -22.2307  -29.3363   24.0866 C   0  0  0  0  0  0  0  0  0  0  0  0
  -26.8082  -16.2654   18.2032 C   0  0  0  0  0  0  0  0  0  0  0  0
  -17.6778  -29.9940   23.1027 C   0  0  0  0  0  0  0  0  0  0  0  0
  -16.4805  -29.3367   22.8199 C   0  0  0  0  0  0  0  0  0  0  0  0
  -25.0605  -17.8000   18.8436 C   0  0  0  0  0  0  0  0  0  0  0  0
  -17.4068  -27.2785   23.6820 C   0  0  0  0  0  0  0  0  0  0  0  0
  -29.0578  -19.7539   18.5163 C   0  0  0  0  0  0  0  0  0  0  0  0
  -23.3758  -28.5678   22.1029 C   0  0  0  0  0  0  0  0  0  0  0  0
  -25.5736  -28.8615   20.8415 C   0  0  0  0  0  0  0  0  0  0  0  0
  -21.6659  -10.1004   22.3509 C   0  0  0  0  0  0  0  0  0  0  0  0
  -25.6100  -15.9378   20.2893 C   0  0  0  0  0  0  0  0  0  0  0  0
  -22.2394  -10.9882   21.4207 C   0  0  0  0  0  0  0  0  0  0  0  0
  -24.8426  -17.0822   20.0295 C   0  0  0  0  0  0  0  0  0  0  0  0
  -28.8190  -20.5680   17.4279 C   0  0  0  0  0  0  0  0  0  0  0  0
  -21.0580  -29.4951   23.3481 C   0  0  0  0  0  0  0  0  0  0  0  0
  -26.0369  -17.3925   17.9349 C   0  0  0  0  0  0  0  0  0  0  0  0
  -18.7397  -29.2936   23.6751 C   0  0  0  0  0  0  0  0  0  0  0  0
  -16.3450  -27.9790   23.1096 C   0  0  0  0  0  0  0  0  0  0  0  0
  -18.6042  -27.9359   23.9647 C   0  0  0  0  0  0  0  0  0  0  0  0
  -24.5731  -28.0884   21.4604 C   0  0  0  0  0  0  0  0  0  0  0  0
  -29.0280  -21.9164   17.6336 C   0  0  0  0  0  0  0  0  0  0  0  0
  -26.4880  -27.9416   20.3896 C   0  0  0  0  0  0  0  0  0  0  0  0
  -29.6373  -21.5441   19.7917 C   0  0  0  0  0  0  0  0  0  0  0  0
  -25.6680  -30.2840   20.6888 C   0  0  0  0  0  0  0  0  0  0  0  0
  -22.9581  -14.6126   21.4359 C   0  0  0  0  0  0  0  0  0  0  0  0
  -22.9352  -17.2379   23.3410 C   0  0  0  0  0  0  0  0  0  0  0  0
  -29.5754  -23.4849   21.3293 C   0  0  0  0  0  0  0  0  0  0  0  0
  -23.9094  -20.4721   23.8289 C   0  0  0  0  0  0  0  0  0  0  0  0
  -20.5076  -10.5082   23.2266 C   0  0  0  0  0  0  0  0  0  0  0  0
  -25.4150  -15.1631   21.5637 C   0  0  0  0  0  0  0  0  0  0  0  0
  -23.7819  -17.5597   20.9862 C   0  0  0  0  0  0  0  0  0  0  0  0
  -20.3242  -12.0202   23.3291 C   0  0  0  0  0  0  0  0  0  0  0  0
  -26.2194  -22.9098   20.0512 C   0  0  0  0  0  0  0  0  0  0  0  0
  -20.4052  -12.6625   21.9479 C   0  0  0  0  0  0  0  0  0  0  0  0
  -25.5661  -24.2714   20.2843 C   0  0  0  0  0  0  0  0  0  0  0  0
  -27.2113  -22.5661   21.1593 C   0  0  0  0  0  0  0  0  0  0  0  0
  -27.6136  -24.9675   21.6019 C   0  0  0  0  0  0  0  0  0  0  0  0
  -21.7788  -12.4254   21.3088 C   0  0  1  0  0  0  0  0  0  0  0  0
  -24.0316  -15.3589   22.1763 C   0  0  1  0  0  0  0  0  0  0  0  0
  -26.6285  -25.3653   20.4900 C   0  0  2  0  0  0  0  0  0  0  0  0
  -29.3802  -24.2690   16.8413 C   0  0  0  0  0  0  0  0  0  0  0  0
  -24.2198  -22.6548   25.0276 C   0  0  0  0  0  0  0  0  0  0  0  0
  -31.6423  -22.1499   21.1721 C   0  0  0  0  0  0  0  0  0  0  0  0
  -29.6174  -21.3094   22.3668 C   0  0  0  0  0  0  0  0  0  0  0  0
  -20.0837  -17.7528   22.3850 C   0  0  0  0  0  0  0  0  0  0  0  0
  -20.2829  -20.0866   23.2692 C   0  0  0  0  0  0  0  0  0  0  0  0
  -20.4522  -18.1458   24.8272 C   0  0  0  0  0  0  0  0  0  0  0  0
  -26.4637  -19.5821   25.0301 C   0  0  0  0  0  0  0  0  0  0  0  0
  -28.3595  -19.9956   16.1107 C   0  0  0  0  0  0  0  0  0  0  0  0
  -28.8016  -22.8926   16.5267 C   0  0  0  0  0  0  0  0  0  0  0  0
  -26.8696  -20.2073   15.8334 C   0  0  0  0  0  0  0  0  0  0  0  0
  -25.9628  -19.4987   16.8329 C   0  0  0  0  0  0  0  0  0  1  0  0
  -22.3578  -18.6289   23.2375 C   0  0  1  0  0  0  0  0  0  0  0  0
  -24.5328  -21.1665   25.0263 C   0  0  2  0  0  0  0  0  0  0  0  0
  -30.0924  -22.0863   21.1043 C   0  0  0  0  0  0  0  0  0  0  0  0
  -20.8127  -18.6437   23.4106 C   0  0  0  0  0  0  0  0  0  0  0  0
  -29.4693  -20.2100   19.7175 N   0  0  0  0  0  0  0  0  0  0  0  0
  -24.8276  -26.7782   21.4082 N   0  0  0  0  0  0  0  0  0  0  0  0
  -29.4383  -22.4410   18.8070 N   0  0  0  0  0  0  0  0  0  0  0  0
  -25.9985  -26.7210   20.7510 N   0  0  0  0  0  0  0  0  0  0  0  0
  -23.6247  -16.7650   22.2155 N   0  0  0  0  0  0  0  0  0  0  0  0
  -28.1896  -23.6449   21.3426 N   0  0  0  0  0  0  0  0  0  0  0  0
  -27.6549  -28.0659   19.7224 N   0  0  0  0  0  0  0  0  0  0  0  0
  -24.6416  -31.0818   21.2125 N   0  0  0  0  0  0  0  0  0  0  0  0
  -22.7633  -13.3188   21.8805 N   0  0  0  0  0  0  0  0  0  0  0  0
  -23.0761  -19.4426   24.2124 N   0  0  0  0  0  0  0  0  0  0  0  0
  -26.0134  -20.9977   25.0101 N   0  3  0  0  0  0  0  0  0  0  0  0
  -26.6258  -30.8304   20.0908 O   0  0  0  0  0  0  0  0  0  0  0  0
  -22.3503  -15.1698   20.5293 O   0  0  0  0  0  0  0  0  0  0  0  0
  -22.7862  -16.5974   24.3846 O   0  0  0  0  0  0  0  0  0  0  0  0
  -30.3806  -24.4065   21.4856 O   0  0  0  0  0  0  0  0  0  0  0  0
  -24.1360  -20.8114   22.6696 O   0  0  0  0  0  0  0  0  0  0  0  0
  -19.9275  -29.9478   23.9560 O   0  0  0  0  0  0  0  0  0  0  0  0
  -26.2386  -18.0992   16.7896 O   0  0  0  0  0  0  0  0  0  1  0  0
  -15.1946  -27.3483   22.8394 F   0  0  0  0  0  0  0  0  0  0  0  0
  -19.6204  -27.2579   24.5157 F   0  0  0  0  0  0  0  0  0  0  0  0
  1  2  1  0  0  0  0
  1  5  2  0  0  0  0
  2  6  2  0  0  0  0
  3  8  2  0  0  0  0
  3 16  1  0  0  0  0
  4  9  1  0  0  0  0
  4 16  2  0  0  0  0
  5 18  1  0  0  0  0
  6 20  1  0  0  0  0
  7 10  2  0  0  0  0
  7 19  1  0  0  0  0
  8 23  1  0  0  0  0
  9 23  2  0  0  0  0
 10 24  1  0  0  0  0
 11 12  2  0  0  0  0
 11 25  1  0  0  0  0
 12 26  1  0  0  0  0
 13 21  1  0  0  0  0
 13 24  2  0  0  0  0
 14 26  2  0  0  0  0
 14 27  1  0  0  0  0
 15 22  1  0  0  0  0
 15 65  2  0  0  0  0
 16 28  1  0  0  0  0
 17 28  1  0  0  0  0
 17 30  2  0  0  0  0
 17 32  1  0  0  0  0
 18 20  2  0  0  0  0
 18 37  1  0  0  0  0
 19 21  2  0  0  0  0
 19 38  1  0  0  0  0
 20 46  1  0  0  0  0
 21 39  1  0  0  0  0
 22 29  2  0  0  0  0
 22 57  1  0  0  0  0
 23 81  1  0  0  0  0
 24 82  1  0  0  0  0
 25 27  2  0  0  0  0
 25 81  1  0  0  0  0
 26 83  1  0  0  0  0
 27 84  1  0  0  0  0
 28 66  2  0  0  0  0
 29 58  1  0  0  0  0
 29 67  1  0  0  0  0
 30 68  1  0  0  0  0
 30 71  1  0  0  0  0
 31 63  1  0  0  0  0
 31 65  1  0  0  0  0
 31 67  2  0  0  0  0
 32 72  1  0  0  0  0
 32 76  2  0  0  0  0
 33 47  1  0  0  0  0
 33 73  1  0  0  0  0
 33 77  2  0  0  0  0
 34 61  1  0  0  0  0
 34 69  1  0  0  0  0
 34 78  2  0  0  0  0
 35 63  1  0  0  0  0
 35 70  1  0  0  0  0
 35 79  2  0  0  0  0
 36 62  1  0  0  0  0
 36 74  1  0  0  0  0
 36 80  2  0  0  0  0
 37 40  1  0  0  0  0
 38 47  1  0  0  0  0
 39 69  1  0  0  0  0
 40 42  1  0  0  0  0
 41 43  1  0  0  0  0
 41 44  1  0  0  0  0
 42 46  1  0  0  0  0
 43 48  1  0  0  0  0
 44 70  1  0  0  0  0
 45 48  1  0  0  0  0
 45 70  1  0  0  0  0
 46 73  1  0  0  0  0
 47 69  1  0  0  0  0
 48 68  1  0  0  0  0
 49 58  1  0  0  0  0
 50 62  1  0  0  0  0
 51 63  1  0  0  0  0
 52 63  1  0  0  0  0
 53 64  1  0  0  0  0
 54 64  1  0  0  0  0
 55 64  1  0  0  0  0
 56 75  1  0  0  0  0
 57 59  1  0  0  0  0
 59 60  1  0  0  0  0
 60 82  1  0  0  0  0
 61 64  1  0  0  0  0
 61 74  1  0  0  0  0
 62 75  1  0  0  0  0
 66 68  1  0  0  0  0
M  CHG  1  75   1
M  ISO  4  35 100  60 101  63 100  82 101
M  END
> <Batch ID>
0072

> <Smiles>
CCc1nc([100C:0](C)(C)[100C:0](=O)N2CCCC(n3nc(-c4ccc(Oc5ccc(F)cc5F)cc4)c(C(N)=O)c3N)C2)ncc1CC[101CH2:1][101O:1]c1ccc2c(c1)CN(C(=O)C(NC(=O)C(C)NC)C(C)(C)C)C(C(=O)NC1CCCc3ccccc31)C2

> <Shape>
0.212

> <Color>
0.078

> <Negative vol penalty>
0.000

$$$$

  -OEChem-04052318243D

 83 91  0     1  0  0  0  0  0999 V2000
  -31.2835  -26.5753   17.4060 C   0  0  0  0  0  0  0  0  0  0  0  0
  -29.9159  -26.3424   17.5111 C   0  0  0  0  0  0  0  0  0  0  0  0
  -30.5612  -17.2075   18.9098 C   0  0  0  0  0  0  0  0  0  0  0  0
  -28.1497  -17.2295   18.7646 C   0  0  0  0  0  0  0  0  0  0  0  0
  -31.9710  -27.1718   18.4621 C   0  0  0  0  0  0  0  0  0  0  0  0
  -29.2353  -26.7049   18.6729 C   0  0  0  0  0  0  0  0  0  0  0  0
  -23.4880  -28.7810   19.0769 C   0  0  0  0  0  0  0  0  0  0  0  0
  -30.5443  -15.8146   18.9807 C   0  0  0  0  0  0  0  0  0  0  0  0
  -28.1327  -15.8365   18.8355 C   0  0  0  0  0  0  0  0  0  0  0  0
  -22.2838  -28.1529   19.3920 C   0  0  0  0  0  0  0  0  0  0  0  0
  -30.2002  -13.2157   16.8453 C   0  0  0  0  0  0  0  0  0  0  0  0
  -31.1146  -12.5153   16.0585 C   0  0  0  0  0  0  0  0  0  0  0  0
  -22.5129  -28.8758   21.6820 C   0  0  0  0  0  0  0  0  0  0  0  0
  -32.0727  -11.5325   18.0468 C   0  0  0  0  0  0  0  0  0  0  0  0
  -20.6141  -23.2477   22.0510 C   0  0  0  0  0  0  0  0  0  0  0  0
  -21.2640  -25.1172   23.0089 C   0  0  0  0  0  0  0  0  0  0  0  0
  -29.3639  -17.9150   18.8018 C   0  0  0  0  0  0  0  0  0  0  0  0
  -29.4577  -20.1455   17.5675 C   0  0  0  0  0  0  0  0  0  0  0  0
  -31.2967  -27.5505   19.6337 C   0  0  0  0  0  0  0  0  0  0  0  0
  -24.2203  -29.4530   20.0661 C   0  0  0  0  0  0  0  0  0  0  0  0
  -29.9148  -27.3057   19.7462 C   0  0  0  0  0  0  0  0  0  0  0  0
  -23.7248  -29.5137   21.3764 C   0  0  0  0  0  0  0  0  0  0  0  0
  -20.4234  -24.6424   22.0320 C   0  0  0  0  0  0  0  0  0  0  0  0
  -29.3301  -15.1291   18.9436 C   0  0  0  0  0  0  0  0  0  0  0  0
  -21.7975  -28.1978   20.6953 C   0  0  0  0  0  0  0  0  0  0  0  0
  -30.2221  -13.0745   18.2328 C   0  0  0  0  0  0  0  0  0  0  0  0
  -32.0508  -11.6738   16.6592 C   0  0  0  0  0  0  0  0  0  0  0  0
  -31.1583  -12.2329   18.8336 C   0  0  0  0  0  0  0  0  0  0  0  0
  -29.3807  -19.3539   18.7291 C   0  0  0  0  0  0  0  0  0  0  0  0
  -29.4407  -21.4383   18.0313 C   0  0  0  0  0  0  0  0  0  0  0  0
  -29.5373  -19.7479   16.1923 C   0  0  0  0  0  0  0  0  0  0  0  0
  -27.1100  -29.1041   21.3437 C   0  0  0  0  0  0  0  0  0  0  0  0
  -26.3483  -31.8709   22.8559 C   0  0  0  0  0  0  0  0  0  0  0  0
  -23.9149  -33.9750   23.9953 C   0  0  0  0  0  0  0  0  0  0  0  0
  -27.3091  -23.9485   23.0318 C   0  0  0  0  0  0  0  0  0  0  0  0
  -32.0913  -28.1491   20.7673 C   0  0  0  0  0  0  0  0  0  0  0  0
  -25.5042  -30.1481   19.7043 C   0  0  0  0  0  0  0  0  0  0  0  0
  -24.4628  -30.2395   22.4705 C   0  0  0  0  0  0  0  0  0  0  0  0
  -31.2272  -28.8448   21.8159 C   0  0  0  0  0  0  0  0  0  0  0  0
  -30.6613  -24.0670   21.8379 C   0  0  0  0  0  0  0  0  0  0  0  0
  -30.0373  -27.9685   22.1940 C   0  0  0  0  0  0  0  0  0  0  0  0
  -30.7202  -22.9440   20.8010 C   0  0  0  0  0  0  0  0  0  0  0  0
  -29.7732  -23.6948   23.0232 C   0  0  0  0  0  0  0  0  0  0  0  0
  -28.4690  -22.1384   21.6267 C   0  0  0  0  0  0  0  0  0  0  0  0
  -29.1368  -27.7073   20.9806 C   0  0  1  0  0  0  0  0  0  0  0  0
  -26.4239  -30.3658   20.9019 C   0  0  1  0  0  0  0  0  0  0  0  0
  -29.3079  -22.4893   20.3860 C   0  0  2  0  0  0  0  0  0  0  0  0
  -18.4314  -26.1776   21.9507 C   0  0  0  0  0  0  0  0  0  0  0  0
  -23.5997  -36.1398   25.2249 C   0  0  0  0  0  0  0  0  0  0  0  0
  -22.3227  -23.2626   25.8176 C   0  0  0  0  0  0  0  0  0  0  0  0
  -27.0193  -30.4732   25.4838 C   0  0  0  0  0  0  0  0  0  0  0  0
  -25.8062  -32.3035   26.6865 C   0  0  0  0  0  0  0  0  0  0  0  0
  -27.8262  -32.8348   25.3227 C   0  0  0  0  0  0  0  0  0  0  0  0
  -22.5340  -35.2168   21.6910 C   0  0  0  0  0  0  0  0  0  0  0  0
  -24.2234  -23.4263   24.1622 C   0  0  0  0  0  0  0  0  0  0  0  0
  -24.8335  -24.0870   22.9253 C   0  0  0  0  0  0  0  0  0  0  0  0
  -20.2715  -26.4303   20.2444 C   0  0  0  0  0  0  0  0  0  1  0  0
  -19.4979  -25.4453   21.1315 C   0  0  1  0  0  0  0  0  0  0  0  0
  -25.6676  -32.2266   24.1555 C   0  0  1  0  0  0  0  0  0  0  0  0
  -23.7392  -35.4770   23.8632 C   0  0  2  0  0  0  0  0  0  0  0  0
  -22.8614  -24.0156   24.5943 C   0  0  1  0  0  0  0  0  0  0  0  0
  -26.5667  -31.9441   25.3922 C   0  0  0  0  0  0  0  0  0  0  0  0
  -21.5060  -22.8617   22.9673 N   0  0  0  0  0  0  0  0  0  0  0  0
  -29.3196  -20.0828   19.8467 N   0  0  0  0  0  0  0  0  0  0  0  0
  -21.8833  -24.0209   23.5330 N   0  0  0  0  0  0  0  0  0  0  0  0
  -29.3582  -21.3459   19.3895 N   0  0  0  0  0  0  0  0  0  0  0  0
  -25.7166  -30.8981   22.0683 N   0  0  0  0  0  0  0  0  0  0  0  0
  -28.4481  -23.2743   22.5615 N   0  0  0  0  0  0  0  0  0  0  0  0
  -29.4886  -22.6335   17.4056 N   0  0  0  0  0  0  0  0  0  0  0  0
  -29.5436  -18.3789   15.8919 N   0  0  0  0  0  0  0  0  0  0  0  0
  -28.3117  -28.8640   20.7053 N   0  0  0  0  0  0  0  0  0  0  0  0
  -25.2462  -33.6175   24.0283 N   0  0  0  0  0  0  0  0  0  0  0  0
  -26.0930  -23.4908   22.5395 N   0  0  0  0  0  0  0  0  0  0  0  0
  -22.5213  -35.7876   23.0625 N   0  3  0  0  0  0  0  0  0  0  0  0
  -29.6175  -20.5817   15.2585 O   0  0  0  0  0  0  0  0  0  0  0  0
  -26.5884  -28.4013   22.2014 O   0  0  0  0  0  0  0  0  0  0  0  0
  -27.3981  -32.4406   22.5474 O   0  0  0  0  0  0  0  0  0  0  0  0
  -22.9661  -33.1970   24.0661 O   0  0  0  0  0  0  0  0  0  0  0  0
  -27.3716  -24.8922   23.8271 O   0  0  0  0  0  0  0  0  0  0  0  0
  -29.3131  -13.7698   19.0125 O   0  0  0  0  0  0  0  0  0  0  0  0
  -20.6227  -27.5851   21.0056 O   0  0  0  0  0  0  0  0  0  1  0  0
  -32.9279  -11.0001   15.9034 F   0  0  0  0  0  0  0  0  0  0  0  0
  -31.1834  -12.0923   20.1660 F   0  0  0  0  0  0  0  0  0  0  0  0
  1  2  1  0  0  0  0
  1  5  2  0  0  0  0
  2  6  2  0  0  0  0
  3  8  2  0  0  0  0
  3 17  1  0  0  0  0
  4  9  1  0  0  0  0
  4 17  2  0  0  0  0
  5 19  1  0  0  0  0
  6 21  1  0  0  0  0
  7 10  2  0  0  0  0
  7 20  1  0  0  0  0
  8 24  1  0  0  0  0
  9 24  2  0  0  0  0
 10 25  1  0  0  0  0
 11 12  2  0  0  0  0
 11 26  1  0  0  0  0
 12 27  1  0  0  0  0
 13 22  1  0  0  0  0
 13 25  2  0  0  0  0
 14 27  2  0  0  0  0
 14 28  1  0  0  0  0
 15 23  1  0  0  0  0
 15 63  2  0  0  0  0
 16 23  2  0  0  0  0
 16 65  1  0  0  0  0
 17 29  1  0  0  0  0
 18 29  1  0  0  0  0
 18 30  2  0  0  0  0
 18 31  1  0  0  0  0
 19 21  2  0  0  0  0
 19 36  1  0  0  0  0
 20 22  2  0  0  0  0
 20 37  1  0  0  0  0
 21 45  1  0  0  0  0
 22 38  1  0  0  0  0
 23 58  1  0  0  0  0
 24 80  1  0  0  0  0
 25 81  1  0  0  0  0
 26 28  2  0  0  0  0
 26 80  1  0  0  0  0
 27 82  1  0  0  0  0
 28 83  1  0  0  0  0
 29 64  2  0  0  0  0
 30 66  1  0  0  0  0
 30 69  1  0  0  0  0
 31 70  1  0  0  0  0
 31 75  2  0  0  0  0
 32 46  1  0  0  0  0
 32 71  1  0  0  0  0
 32 76  2  0  0  0  0
 33 59  1  0  0  0  0
 33 67  1  0  0  0  0
 33 77  2  0  0  0  0
 34 60  1  0  0  0  0
 34 72  1  0  0  0  0
 34 78  2  0  0  0  0
 35 68  1  0  0  0  0
 35 73  1  0  0  0  0
 35 79  2  0  0  0  0
 36 39  1  0  0  0  0
 37 46  1  0  0  0  0
 38 67  1  0  0  0  0
 39 41  1  0  0  0  0
 40 42  1  0  0  0  0
 40 43  1  0  0  0  0
 41 45  1  0  0  0  0
 42 47  1  0  0  0  0
 43 68  1  0  0  0  0
 44 47  1  0  0  0  0
 44 68  1  0  0  0  0
 45 71  1  0  0  0  0
 46 67  1  0  0  0  0
 47 66  1  0  0  0  0
 48 58  1  0  0  0  0
 49 60  1  0  0  0  0
 50 61  1  0  0  0  0
 51 62  1  0  0  0  0
 52 62  1  0  0  0  0
 53 62  1  0  0  0  0
 54 74  1  0  0  0  0
 55 56  1  0  0  0  0
 55 61  1  0  0  0  0
 56 73  1  0  0  0  0
 57 58  1  0  0  0  0
 57 81  1  0  0  0  0
 59 62  1  0  0  0  0
 59 72  1  0  0  0  0
 60 74  1  0  0  0  0
 61 65  1  0  0  0  0
 63 65  1  0  0  0  0
 64 66  1  0  0  0  0
M  CHG  1  74   1
M  ISO  4  35 100  57 101  73 100  81 101
M  END
> <Batch ID>
0072

> <Smiles>
CNC(C)C(=O)NC(C(=O)N1Cc2cc([101O:1][101CH2:1]C(C)c3cnn(C(C)CC[100NH:0][100C:0](=O)N4CCCC(n5nc(-c6ccc(Oc7ccc(F)cc7F)cc6)c(C(N)=O)c5N)C4)c3)ccc2CC1C(=O)NC1CCCc2ccccc21)C(C)(C)C

> <Shape>
0.275

> <Color>
0.069

> <Negative vol penalty>
0.000

$$$$

  -OEChem-04052318243D

 84 92  0     1  0  0  0  0  0999 V2000
  -24.1606   -5.5259   23.2878 C   0  0  0  0  0  0  0  0  0  0  0  0
  -25.3454   -6.2516   23.2173 C   0  0  0  0  0  0  0  0  0  0  0  0
  -22.6908  -28.8813   22.6778 C   0  0  0  0  0  0  0  0  0  0  0  0
  -22.8279  -26.5418   23.2652 C   0  0  0  0  0  0  0  0  0  0  0  0
  -23.0217   -5.9872   22.6289 C   0  0  0  0  0  0  0  0  0  0  0  0
  -25.3923   -7.4385   22.4868 C   0  0  0  0  0  0  0  0  0  0  0  0
  -28.5597  -13.8637   22.4731 C   0  0  0  0  0  0  0  0  0  0  0  0
  -21.3187  -28.7476   22.4654 C   0  0  0  0  0  0  0  0  0  0  0  0
  -21.4558  -26.4081   23.0529 C   0  0  0  0  0  0  0  0  0  0  0  0
  -29.2900  -14.7028   21.6326 C   0  0  0  0  0  0  0  0  0  0  0  0
  -18.5111  -28.5919   24.3432 C   0  0  0  0  0  0  0  0  0  0  0  0
  -17.6747  -29.5756   24.8706 C   0  0  0  0  0  0  0  0  0  0  0  0
  -27.2393  -15.4436   20.6005 C   0  0  0  0  0  0  0  0  0  0  0  0
  -16.8796  -30.0912   22.6482 C   0  0  0  0  0  0  0  0  0  0  0  0
  -23.4454  -27.7784   23.0776 C   0  0  0  0  0  0  0  0  0  0  0  0
  -25.5081  -28.2556   24.5006 C   0  0  0  0  0  0  0  0  0  0  0  0
  -23.0521   -7.1853   21.8980 C   0  0  0  0  0  0  0  0  0  0  0  0
  -27.1622  -13.8001   22.3761 C   0  0  0  0  0  0  0  0  0  0  0  0
  -24.2531   -7.9155   21.8164 C   0  0  0  0  0  0  0  0  0  0  0  0
  -26.4935  -14.6049   21.4427 C   0  0  0  0  0  0  0  0  0  0  0  0
  -20.7012  -27.5110   22.6530 C   0  0  0  0  0  0  0  0  0  0  0  0
  -28.6300  -15.4907   20.6941 C   0  0  0  0  0  0  0  0  0  0  0  0
  -18.5319  -28.3578   22.9682 C   0  0  0  0  0  0  0  0  0  0  0  0
  -16.8589  -30.3253   24.0231 C   0  0  0  0  0  0  0  0  0  0  0  0
  -17.7161  -29.1075   22.1207 C   0  0  0  0  0  0  0  0  0  0  0  0
  -24.8629  -27.9157   23.2965 C   0  0  0  0  0  0  0  0  0  0  0  0
  -26.8451  -28.2541   24.1861 C   0  0  0  0  0  0  0  0  0  0  0  0
  -29.4065  -21.9076   20.6636 C   0  0  0  0  0  0  0  0  0  0  0  0
  -27.8129  -20.7203   21.3023 C   0  0  0  0  0  0  0  0  0  0  0  0
  -24.9489  -28.5467   25.7884 C   0  0  0  0  0  0  0  0  0  0  0  0
  -25.0640  -11.5177   21.6751 C   0  0  0  0  0  0  0  0  0  0  0  0
  -22.9024  -13.7976   22.4823 C   0  0  0  0  0  0  0  0  0  0  0  0
  -22.1842  -17.1158   22.8295 C   0  0  0  0  0  0  0  0  0  0  0  0
  -30.0350  -25.4677   19.9539 C   0  0  0  0  0  0  0  0  0  0  0  0
  -21.8084   -7.6193   21.1634 C   0  0  0  0  0  0  0  0  0  0  0  0
  -26.3870  -12.9098   23.3083 C   0  0  0  0  0  0  0  0  0  0  0  0
  -24.9931  -14.5885   21.3123 C   0  0  0  0  0  0  0  0  0  0  0  0
  -21.8411   -9.0798   20.7203 C   0  0  0  0  0  0  0  0  0  0  0  0
  -29.8294  -28.9773   20.5170 C   0  0  0  0  0  0  0  0  0  0  0  0
  -23.1795   -9.4095   20.0669 C   0  0  0  0  0  0  0  0  0  0  0  0
  -28.5914  -29.1339   21.4019 C   0  0  0  0  0  0  0  0  0  0  0  0
  -29.6473  -27.8686   19.4828 C   0  0  0  0  0  0  0  0  0  0  0  0
  -28.0124  -26.7183   20.9242 C   0  0  0  0  0  0  0  0  0  0  0  0
  -24.3371   -9.2204   21.0546 C   0  0  1  0  0  0  0  0  0  0  0  0
  -25.0067  -12.5419   22.7730 C   0  0  1  0  0  0  0  0  0  0  0  0
  -28.1696  -27.7870   22.0193 C   0  0  2  0  0  0  0  0  0  0  0  0
  -26.6081  -20.1542   21.9350 C   0  0  0  0  0  0  0  0  0  0  0  0
  -31.4616  -23.0771   21.5412 C   0  0  0  0  0  0  0  0  0  0  0  0
  -20.3227  -18.6719   23.4706 C   0  0  0  0  0  0  0  0  0  0  0  0
  -28.1040  -18.6078   18.4257 C   0  0  0  0  0  0  0  0  0  0  0  0
  -21.5724  -13.3166   19.7787 C   0  0  0  0  0  0  0  0  0  0  0  0
  -20.3577  -15.4866   20.0685 C   0  0  0  0  0  0  0  0  0  0  0  0
  -19.9817  -13.6234   21.6839 C   0  0  0  0  0  0  0  0  0  0  0  0
  -30.9211  -18.0841   19.7187 C   0  0  0  0  0  0  0  0  0  0  0  0
  -29.7576  -17.5707   21.8588 C   0  0  0  0  0  0  0  0  0  0  0  0
  -23.7341  -18.2231   25.0946 C   0  0  0  0  0  0  0  0  0  0  0  0
  -30.2956  -23.0673   20.5276 C   0  0  2  0  0  0  0  0  0  0  0  0
  -22.1702  -14.8880   21.7381 C   0  0  1  0  0  0  0  0  0  0  0  0
  -21.5336  -17.8927   23.9599 C   0  0  2  0  0  0  0  0  0  0  0  0
  -28.4123  -18.5938   19.9329 C   0  0  1  0  0  0  0  0  0  0  0  0
  -21.0489  -14.3278   20.8182 C   0  0  0  0  0  0  0  0  0  0  0  0
  -29.5856  -17.6383   20.3326 C   0  0  0  0  0  0  0  0  0  1  0  0
  -25.7195  -27.7131   22.2919 N   0  0  0  0  0  0  0  0  0  0  0  0
  -28.3057  -21.9253   21.4714 N   0  0  0  0  0  0  0  0  0  0  0  0
  -29.6257  -20.7675   20.0052 N   0  0  0  0  0  0  0  0  0  0  0  0
  -26.9166  -27.9265   22.8641 N   0  0  0  0  0  0  0  0  0  0  0  0
  -28.5925  -20.0251   20.4313 N   0  0  0  0  0  0  0  0  0  0  0  0
  -24.2800  -13.6969   22.2419 N   0  0  0  0  0  0  0  0  0  0  0  0
  -29.2491  -26.6180   20.1335 N   0  0  0  0  0  0  0  0  0  0  0  0
  -27.9548  -28.5012   24.9141 N   0  0  0  0  0  0  0  0  0  0  0  0
  -23.5560  -28.5032   25.9372 N   0  0  0  0  0  0  0  0  0  0  0  0
  -24.4074  -10.3384   21.9709 N   0  0  0  0  0  0  0  0  0  0  0  0
  -21.6992  -15.8275   22.7500 N   0  0  0  0  0  0  0  0  0  0  0  0
  -29.5903  -24.3268   20.6106 N   0  0  0  0  0  0  0  0  0  0  0  0
  -22.5044  -18.8560   24.5521 N   0  3  0  0  0  0  0  0  0  0  0  0
  -25.6623  -28.8528   26.7737 O   0  0  0  0  0  0  0  0  0  0  0  0
  -25.6586  -11.7787   20.6358 O   0  0  0  0  0  0  0  0  0  0  0  0
  -22.2763  -13.0668   23.2542 O   0  0  0  0  0  0  0  0  0  0  0  0
  -23.0346  -17.6042   22.0887 O   0  0  0  0  0  0  0  0  0  0  0  0
  -31.0602  -25.4595   19.2641 O   0  0  0  0  0  0  0  0  0  0  0  0
  -19.3623  -27.3803   22.4462 O   0  0  0  0  0  0  0  0  0  0  0  0
  -29.3404  -16.3101   19.8720 O   0  0  0  0  0  0  0  0  0  1  0  0
  -16.0546  -31.2689   24.5299 F   0  0  0  0  0  0  0  0  0  0  0  0
  -17.7309  -28.8863   20.7991 F   0  0  0  0  0  0  0  0  0  0  0  0
  1  2  1  0  0  0  0
  1  5  2  0  0  0  0
  2  6  2  0  0  0  0
  3  8  2  0  0  0  0
  3 15  1  0  0  0  0
  4  9  1  0  0  0  0
  4 15  2  0  0  0  0
  5 17  1  0  0  0  0
  6 19  1  0  0  0  0
  7 10  2  0  0  0  0
  7 18  1  0  0  0  0
  8 21  1  0  0  0  0
  9 21  2  0  0  0  0
 10 22  1  0  0  0  0
 11 12  2  0  0  0  0
 11 23  1  0  0  0  0
 12 24  1  0  0  0  0
 13 20  1  0  0  0  0
 13 22  2  0  0  0  0
 14 24  2  0  0  0  0
 14 25  1  0  0  0  0
 15 26  1  0  0  0  0
 16 26  1  0  0  0  0
 16 27  2  0  0  0  0
 16 30  1  0  0  0  0
 17 19  2  0  0  0  0
 17 35  1  0  0  0  0
 18 20  2  0  0  0  0
 18 36  1  0  0  0  0
 19 44  1  0  0  0  0
 20 37  1  0  0  0  0
 21 81  1  0  0  0  0
 22 82  1  0  0  0  0
 23 25  2  0  0  0  0
 23 81  1  0  0  0  0
 24 83  1  0  0  0  0
 25 84  1  0  0  0  0
 26 63  2  0  0  0  0
 27 66  1  0  0  0  0
 27 70  1  0  0  0  0
 28 57  1  0  0  0  0
 28 64  1  0  0  0  0
 28 65  2  0  0  0  0
 29 47  1  0  0  0  0
 29 64  2  0  0  0  0
 29 67  1  0  0  0  0
 30 71  1  0  0  0  0
 30 76  2  0  0  0  0
 31 45  1  0  0  0  0
 31 72  1  0  0  0  0
 31 77  2  0  0  0  0
 32 58  1  0  0  0  0
 32 68  1  0  0  0  0
 32 78  2  0  0  0  0
 33 59  1  0  0  0  0
 33 73  1  0  0  0  0
 33 79  2  0  0  0  0
 34 69  1  0  0  0  0
 34 74  1  0  0  0  0
 34 80  2  0  0  0  0
 35 38  1  0  0  0  0
 36 45  1  0  0  0  0
 37 68  1  0  0  0  0
 38 40  1  0  0  0  0
 39 41  1  0  0  0  0
 39 42  1  0  0  0  0
 40 44  1  0  0  0  0
 41 46  1  0  0  0  0
 42 69  1  0  0  0  0
 43 46  1  0  0  0  0
 43 69  1  0  0  0  0
 44 72  1  0  0  0  0
 45 68  1  0  0  0  0
 46 66  1  0  0  0  0
 48 57  1  0  0  0  0
 49 59  1  0  0  0  0
 50 60  1  0  0  0  0
 51 61  1  0  0  0  0
 52 61  1  0  0  0  0
 53 61  1  0  0  0  0
 54 62  1  0  0  0  0
 55 62  1  0  0  0  0
 56 75  1  0  0  0  0
 57 74  1  0  0  0  0
 58 61  1  0  0  0  0
 58 73  1  0  0  0  0
 59 75  1  0  0  0  0
 60 62  1  0  0  0  0
 60 67  1  0  0  0  0
 62 82  1  0  0  0  0
 63 66  1  0  0  0  0
 65 67  1  0  0  0  0
M  CHG  1  75   1
M  ISO  4  34 100  62 101  74 100  82 101
M  END
> <Batch ID>
0072

> <Smiles>
CNC(C)C(=O)NC(C(=O)N1Cc2cc([101O:1][101C:1](C)(C)C(C)n3nc(C(C)[100NH:0][100C:0](=O)N4CCCC(n5nc(-c6ccc(Oc7ccc(F)cc7F)cc6)c(C(N)=O)c5N)C4)nc3C)ccc2CC1C(=O)NC1CCCc2ccccc21)C(C)(C)C

> <Shape>
0.278

> <Color>
0.079

> <Negative vol penalty>
0.000

$$$$

  -OEChem-04052318243D

 86 94  0     1  0  0  0  0  0999 V2000
  -22.1778   -8.4601   20.8102 C   0  0  0  0  0  0  0  0  0  0  0  0
  -22.1412   -9.8166   21.1165 C   0  0  0  0  0  0  0  0  0  0  0  0
  -25.7255  -27.4409   24.0027 C   0  0  0  0  0  0  0  0  0  0  0  0
  -25.9632  -28.1576   21.7077 C   0  0  0  0  0  0  0  0  0  0  0  0
  -23.3732   -7.7522   20.9275 C   0  0  0  0  0  0  0  0  0  0  0  0
  -23.2998  -10.4659   21.5413 C   0  0  0  0  0  0  0  0  0  0  0  0
  -23.9608  -14.9442   19.2714 C   0  0  0  0  0  0  0  0  0  0  0  0
  -26.9730  -26.8203   23.9382 C   0  0  0  0  0  0  0  0  0  0  0  0
  -27.2107  -27.5370   21.6432 C   0  0  0  0  0  0  0  0  0  0  0  0
  -23.1986  -16.0138   19.7392 C   0  0  0  0  0  0  0  0  0  0  0  0
  -28.4168  -24.4019   21.2598 C   0  0  0  0  0  0  0  0  0  0  0  0
  -28.7006  -23.6332   20.1310 C   0  0  0  0  0  0  0  0  0  0  0  0
  -21.6491  -26.6325   18.8016 C   0  0  0  0  0  0  0  0  0  0  0  0
  -25.0910  -16.7971   21.0136 C   0  0  0  0  0  0  0  0  0  0  0  0
  -30.5822  -25.0635   19.6300 C   0  0  0  0  0  0  0  0  0  0  0  0
  -22.4417  -25.5533   19.1247 C   0  0  0  0  0  0  0  0  0  0  0  0
  -25.2205  -28.1095   22.8875 C   0  0  0  0  0  0  0  0  0  0  0  0
  -23.6605  -30.0767   23.3393 C   0  0  0  0  0  0  0  0  0  0  0  0
  -24.5493   -8.3952   21.3447 C   0  0  0  0  0  0  0  0  0  0  0  0
  -25.2928  -14.7867   19.6805 C   0  0  0  0  0  0  0  0  0  0  0  0
  -24.5118   -9.7656   21.6656 C   0  0  0  0  0  0  0  0  0  0  0  0
  -25.8688  -15.7261   20.5476 C   0  0  0  0  0  0  0  0  0  0  0  0
  -20.3000  -26.2248   18.9453 C   0  0  0  0  0  0  0  0  0  0  0  0
  -27.7156  -26.8684   22.7584 C   0  0  0  0  0  0  0  0  0  0  0  0
  -23.7628  -16.9388   20.6127 C   0  0  0  0  0  0  0  0  0  0  0  0
  -29.2157  -25.5014   21.5737 C   0  0  0  0  0  0  0  0  0  0  0  0
  -29.7833  -23.9640   19.3161 C   0  0  0  0  0  0  0  0  0  0  0  0
  -30.2984  -25.8322   20.7588 C   0  0  0  0  0  0  0  0  0  0  0  0
  -23.9317  -28.7503   22.9534 C   0  0  0  0  0  0  0  0  0  0  0  0
  -20.3091  -24.9088   19.3521 C   0  0  0  0  0  0  0  0  0  0  0  0
  -22.2960  -30.1930   23.2334 C   0  0  0  0  0  0  0  0  0  0  0  0
  -24.5614  -31.1112   23.7561 C   0  0  0  0  0  0  0  0  0  0  0  0
  -26.8993  -12.5594   21.2811 C   0  0  0  0  0  0  0  0  0  0  0  0
  -29.4556  -14.3990   20.5043 C   0  0  0  0  0  0  0  0  0  0  0  0
  -18.2577  -27.2013   19.9389 C   0  0  0  0  0  0  0  0  0  0  0  0
  -30.6555  -17.4736   19.6361 C   0  0  0  0  0  0  0  0  0  0  0  0
  -25.8070   -7.5778   21.5017 C   0  0  0  0  0  0  0  0  0  0  0  0
  -26.1096  -13.6424   19.1458 C   0  0  0  0  0  0  0  0  0  0  0  0
  -27.3006  -15.6133   21.0010 C   0  0  0  0  0  0  0  0  0  0  0  0
  -27.0745   -8.4229   21.5989 C   0  0  0  0  0  0  0  0  0  0  0  0
  -18.2793  -27.6211   23.4974 C   0  0  0  0  0  0  0  0  0  0  0  0
  -26.8737   -9.5758   22.5773 C   0  0  0  0  0  0  0  0  0  0  0  0
  -19.7142  -28.0513   23.7995 C   0  0  0  0  0  0  0  0  0  0  0  0
  -18.2262  -26.6250   22.3433 C   0  0  0  0  0  0  0  0  0  0  0  0
  -20.3185  -27.5403   21.3914 C   0  0  0  0  0  0  0  0  0  0  0  0
  -25.7533  -10.5106   22.1059 C   0  0  1  0  0  0  0  0  0  0  0  0
  -27.3007  -13.2928   20.0327 C   0  0  1  0  0  0  0  0  0  0  0  0
  -20.4144  -28.5701   22.5310 C   0  0  2  0  0  0  0  0  0  0  0  0
  -19.1858  -23.9948   19.6494 C   0  0  0  0  0  0  0  0  0  0  0  0
  -32.7931  -18.6755   19.1038 C   0  0  0  0  0  0  0  0  0  0  0  0
  -18.1979  -26.4518   17.5954 C   0  0  0  0  0  0  0  0  0  0  0  0
  -19.3716  -28.5456   18.2828 C   0  0  0  0  0  0  0  0  0  0  0  0
  -30.1651  -14.4463   23.4715 C   0  0  0  0  0  0  0  0  0  0  0  0
  -31.6864  -16.3793   23.0056 C   0  0  0  0  0  0  0  0  0  0  0  0
  -32.1193  -14.1677   21.9360 C   0  0  0  0  0  0  0  0  0  0  0  0
  -23.4852  -24.1773   21.7518 C   0  0  0  0  0  0  0  0  0  0  0  0
  -21.4164  -22.8997   22.3296 C   0  0  0  0  0  0  0  0  0  0  0  0
  -29.7297  -18.1535   16.9085 C   0  0  0  0  0  0  0  0  0  0  0  0
  -22.7793  -20.3708   21.1627 C   0  0  0  0  0  0  0  0  0  0  0  0
  -23.4791  -21.7000   21.4628 C   0  0  0  0  0  0  0  0  0  0  0  0
  -22.0946  -23.1389   19.8761 C   0  0  0  0  0  0  0  0  0  0  0  0
  -23.7183  -19.1897   21.3792 C   0  0  0  0  0  0  0  0  0  1  0  0
  -30.1670  -15.5661   21.1451 C   0  0  1  0  0  0  0  0  0  0  0  0
  -31.6077  -17.9097   18.5372 C   0  0  2  0  0  0  0  0  0  0  0  0
  -19.1090  -27.0625   18.7019 C   0  0  0  0  0  0  0  0  0  0  0  0
  -31.0068  -15.1412   22.3827 C   0  0  0  0  0  0  0  0  0  0  0  0
  -22.5965  -22.9820   21.3430 C   0  0  0  0  0  0  0  0  0  0  0  0
  -22.8281  -28.0724   22.6268 N   0  0  0  0  0  0  0  0  0  0  0  0
  -21.6164  -24.5112   19.4581 N   0  0  0  0  0  0  0  0  0  0  0  0
  -21.8502  -28.9764   22.8074 N   0  0  0  0  0  0  0  0  0  0  0  0
  -28.0563  -14.4737   20.4556 N   0  0  0  0  0  0  0  0  0  0  0  0
  -18.9212  -27.1456   21.1647 N   0  0  0  0  0  0  0  0  0  0  0  0
  -21.4461  -31.2161   23.4641 N   0  0  0  0  0  0  0  0  0  0  0  0
  -25.9319  -30.8225   23.8087 N   0  0  0  0  0  0  0  0  0  0  0  0
  -26.2281  -11.3745   21.0463 N   0  0  0  0  0  0  0  0  0  0  0  0
  -30.9431  -16.2024   20.0863 N   0  0  0  0  0  0  0  0  0  0  0  0
  -30.9040  -18.7883   17.5605 N   0  3  0  0  0  0  0  0  0  0  0  0
  -24.1613  -32.2528   24.0884 O   0  0  0  0  0  0  0  0  0  0  0  0
  -27.1792  -13.0325   22.3763 O   0  0  0  0  0  0  0  0  0  0  0  0
  -30.1174  -13.4591   20.0568 O   0  0  0  0  0  0  0  0  0  0  0  0
  -17.0399  -27.3574   19.8172 O   0  0  0  0  0  0  0  0  0  0  0  0
  -29.7497  -18.1904   20.0559 O   0  0  0  0  0  0  0  0  0  0  0  0
  -28.9331  -26.2631   22.6951 O   0  0  0  0  0  0  0  0  0  0  0  0
  -23.0209  -17.9834   21.0713 O   0  0  0  0  0  0  0  0  0  1  0  0
  -30.0566  -23.2248   18.2330 F   0  0  0  0  0  0  0  0  0  0  0  0
  -31.0701  -26.8867   21.0560 F   0  0  0  0  0  0  0  0  0  0  0  0
  1  2  1  0  0  0  0
  1  5  2  0  0  0  0
  2  6  2  0  0  0  0
  3  8  2  0  0  0  0
  3 17  1  0  0  0  0
  4  9  1  0  0  0  0
  4 17  2  0  0  0  0
  5 19  1  0  0  0  0
  6 21  1  0  0  0  0
  7 10  2  0  0  0  0
  7 20  1  0  0  0  0
  8 24  1  0  0  0  0
  9 24  2  0  0  0  0
 10 25  1  0  0  0  0
 11 12  2  0  0  0  0
 11 26  1  0  0  0  0
 12 27  1  0  0  0  0
 13 16  2  0  0  0  0
 13 23  1  0  0  0  0
 14 22  1  0  0  0  0
 14 25  2  0  0  0  0
 15 27  2  0  0  0  0
 15 28  1  0  0  0  0
 16 69  1  0  0  0  0
 17 29  1  0  0  0  0
 18 29  1  0  0  0  0
 18 31  2  0  0  0  0
 18 32  1  0  0  0  0
 19 21  2  0  0  0  0
 19 37  1  0  0  0  0
 20 22  2  0  0  0  0
 20 38  1  0  0  0  0
 21 46  1  0  0  0  0
 22 39  1  0  0  0  0
 23 30  2  0  0  0  0
 23 65  1  0  0  0  0
 24 83  1  0  0  0  0
 25 84  1  0  0  0  0
 26 28  2  0  0  0  0
 26 83  1  0  0  0  0
 27 85  1  0  0  0  0
 28 86  1  0  0  0  0
 29 68  2  0  0  0  0
 30 49  1  0  0  0  0
 30 69  1  0  0  0  0
 31 70  1  0  0  0  0
 31 73  1  0  0  0  0
 32 74  1  0  0  0  0
 32 78  2  0  0  0  0
 33 47  1  0  0  0  0
 33 75  1  0  0  0  0
 33 79  2  0  0  0  0
 34 63  1  0  0  0  0
 34 71  1  0  0  0  0
 34 80  2  0  0  0  0
 35 65  1  0  0  0  0
 35 72  1  0  0  0  0
 35 81  2  0  0  0  0
 36 64  1  0  0  0  0
 36 76  1  0  0  0  0
 36 82  2  0  0  0  0
 37 40  1  0  0  0  0
 38 47  1  0  0  0  0
 39 71  1  0  0  0  0
 40 42  1  0  0  0  0
 41 43  1  0  0  0  0
 41 44  1  0  0  0  0
 42 46  1  0  0  0  0
 43 48  1  0  0  0  0
 44 72  1  0  0  0  0
 45 48  1  0  0  0  0
 45 72  1  0  0  0  0
 46 75  1  0  0  0  0
 47 71  1  0  0  0  0
 48 70  1  0  0  0  0
 50 64  1  0  0  0  0
 51 65  1  0  0  0  0
 52 65  1  0  0  0  0
 53 66  1  0  0  0  0
 54 66  1  0  0  0  0
 55 66  1  0  0  0  0
 56 67  1  0  0  0  0
 57 67  1  0  0  0  0
 58 77  1  0  0  0  0
 59 60  1  0  0  0  0
 59 62  1  0  0  0  0
 60 67  1  0  0  0  0
 61 67  1  0  0  0  0
 61 69  1  0  0  0  0
 62 84  1  0  0  0  0
 63 66  1  0  0  0  0
 63 76  1  0  0  0  0
 64 77  1  0  0  0  0
 68 70  1  0  0  0  0
M  CHG  1  77   1
M  ISO  4  35 100  62 101  65 100  84 101
M  END
> <Batch ID>
0072

> <Smiles>
CNC(C)C(=O)NC(C(=O)N1Cc2cc([101O:1][101CH2:1]CCC(C)(C)Cn3ccc([100C:0](C)(C)[100C:0](=O)N4CCCC(n5nc(-c6ccc(Oc7ccc(F)cc7F)cc6)c(C(N)=O)c5N)C4)c3C)ccc2CC1C(=O)NC1CCCc2ccccc21)C(C)(C)C

> <Shape>
0.252

> <Color>
0.065

> <Negative vol penalty>
0.000

$$$$

  -OEChem-04052318243D

 87 95  0     1  0  0  0  0  0999 V2000
  -23.3035  -23.8513   21.4617 C   0  0  0  0  0  0  0  0  0  0  0  0
  -24.4468  -23.0595   21.5009 C   0  0  0  0  0  0  0  0  0  0  0  0
  -22.7667  -27.7655   20.5596 C   0  0  0  0  0  0  0  0  0  0  0  0
  -23.9238  -27.4890   22.6624 C   0  0  0  0  0  0  0  0  0  0  0  0
  -22.0833  -23.3334   21.8937 C   0  0  0  0  0  0  0  0  0  0  0  0
  -24.3706  -21.7498   21.9732 C   0  0  0  0  0  0  0  0  0  0  0  0
  -26.8898  -18.4779   19.0417 C   0  0  0  0  0  0  0  0  0  0  0  0
  -21.5745  -27.3656   21.1631 C   0  0  0  0  0  0  0  0  0  0  0  0
  -22.7315  -27.0891   23.2659 C   0  0  0  0  0  0  0  0  0  0  0  0
  -28.2768  -18.4385   19.1776 C   0  0  0  0  0  0  0  0  0  0  0  0
  -18.1535  -26.7642   22.2354 C   0  0  0  0  0  0  0  0  0  0  0  0
  -17.0060  -27.5079   21.9601 C   0  0  0  0  0  0  0  0  0  0  0  0
  -28.0792  -16.4742   20.5638 C   0  0  0  0  0  0  0  0  0  0  0  0
  -18.0611  -29.4768   22.8805 C   0  0  0  0  0  0  0  0  0  0  0  0
  -30.2764  -18.9149   24.0978 C   0  0  0  0  0  0  0  0  0  0  0  0
  -23.9414  -27.8272   21.3093 C   0  0  0  0  0  0  0  0  0  0  0  0
  -25.6762  -29.5505   20.5823 C   0  0  0  0  0  0  0  0  0  0  0  0
  -21.9902  -22.0135   22.3625 C   0  0  0  0  0  0  0  0  0  0  0  0
  -26.0850  -17.5204   19.6759 C   0  0  0  0  0  0  0  0  0  0  0  0
  -23.1482  -21.2142   22.4132 C   0  0  0  0  0  0  0  0  0  0  0  0
  -26.6824  -16.5021   20.4323 C   0  0  0  0  0  0  0  0  0  0  0  0
  -21.5569  -27.0274   22.5162 C   0  0  0  0  0  0  0  0  0  0  0  0
  -28.8715  -17.4383   19.9411 C   0  0  0  0  0  0  0  0  0  0  0  0
  -19.2548  -27.3768   22.8334 C   0  0  0  0  0  0  0  0  0  0  0  0
  -16.9598  -28.8641   22.2826 C   0  0  0  0  0  0  0  0  0  0  0  0
  -19.2086  -28.7331   23.1559 C   0  0  0  0  0  0  0  0  0  0  0  0
  -25.1735  -28.2397   20.6864 C   0  0  0  0  0  0  0  0  0  0  0  0
  -31.1164  -19.2569   23.0610 C   0  0  0  0  0  0  0  0  0  0  0  0
  -30.5497  -21.4564   23.3275 C   0  0  0  0  0  0  0  0  0  0  0  0
  -29.7091  -21.1142   24.3637 C   0  0  0  0  0  0  0  0  0  0  0  0
  -26.8657  -29.4097   19.9102 C   0  0  0  0  0  0  0  0  0  0  0  0
  -25.1179  -30.7850   21.0514 C   0  0  0  0  0  0  0  0  0  0  0  0
  -23.8099  -17.6163   21.8936 C   0  0  0  0  0  0  0  0  0  0  0  0
  -23.5405  -14.4596   21.1972 C   0  0  0  0  0  0  0  0  0  0  0  0
  -24.9992  -11.6285   19.9707 C   0  0  0  0  0  0  0  0  0  0  0  0
  -30.7034  -24.8512   19.3248 C   0  0  0  0  0  0  0  0  0  0  0  0
  -20.6584  -21.5131   22.8633 C   0  0  0  0  0  0  0  0  0  0  0  0
  -24.5921  -17.5610   19.4975 C   0  0  0  0  0  0  0  0  0  0  0  0
  -25.8644  -15.4387   21.1167 C   0  0  0  0  0  0  0  0  0  0  0  0
  -20.5901  -19.9942   22.9984 C   0  0  0  0  0  0  0  0  0  0  0  0
  -29.0470  -26.6049   16.7062 C   0  0  0  0  0  0  0  0  0  0  0  0
  -21.8356  -19.4642   23.7017 C   0  0  0  0  0  0  0  0  0  0  0  0
  -27.9118  -27.3410   17.4199 C   0  0  0  0  0  0  0  0  0  0  0  0
  -29.3004  -25.2291   17.3186 C   0  0  0  0  0  0  0  0  0  0  0  0
  -28.3968  -25.9688   19.4889 C   0  0  0  0  0  0  0  0  0  0  0  0
  -23.1011  -19.7806   22.8956 C   0  0  1  0  0  0  0  0  0  0  0  0
  -23.8377  -16.8376   20.6089 C   0  0  1  0  0  0  0  0  0  0  0  0
  -28.1414  -27.3840   18.9426 C   0  0  2  0  0  0  0  0  0  0  0  0
  -24.5427   -9.1946   19.5646 C   0  0  0  0  0  0  0  0  0  0  0  0
  -23.8800  -13.9012   24.1776 C   0  0  0  0  0  0  0  0  0  0  0  0
  -24.3661  -11.5131   23.6038 C   0  0  0  0  0  0  0  0  0  0  0  0
  -22.1447  -12.5011   23.0450 C   0  0  0  0  0  0  0  0  0  0  0  0
  -25.4064  -11.9196   17.0538 C   0  0  0  0  0  0  0  0  0  0  0  0
  -31.9046  -18.1972   22.3334 C   0  0  0  0  0  0  0  0  0  0  0  0
  -30.7089  -22.8728   22.8913 C   0  0  0  0  0  0  0  0  0  0  0  0
  -32.1839  -18.5351   20.8674 C   0  0  0  0  0  0  0  0  0  0  0  0
  -31.8695  -23.1109   21.9046 C   0  0  0  0  0  0  0  0  0  0  0  0
  -31.9973  -24.5541   21.4216 C   0  0  0  0  0  0  0  0  0  0  0  0
  -30.9206  -18.6428   20.0213 C   0  0  0  0  0  0  0  0  0  1  0  0
  -24.1793  -13.1927   21.7130 C   0  0  1  0  0  0  0  0  0  0  0  0
  -24.5102  -10.5949   18.9723 C   0  0  2  0  0  0  0  0  0  0  0  0
  -28.9198  -22.1444   25.0969 C   0  0  0  0  0  0  0  0  0  0  0  0
  -23.6581  -12.7980   23.1237 C   0  0  0  0  0  0  0  0  0  0  0  0
  -29.5576  -19.8374   24.7677 N   0  0  0  0  0  0  0  0  0  0  0  0
  -25.9778  -27.3329   20.1251 N   0  0  0  0  0  0  0  0  0  0  0  0
  -31.2682  -20.5339   22.6573 N   0  0  0  0  0  0  0  0  0  0  0  0
  -26.9979  -28.0752   19.6619 N   0  0  0  0  0  0  0  0  0  0  0  0
  -24.4082  -15.5248   20.9175 N   0  0  0  0  0  0  0  0  0  0  0  0
  -29.5120  -25.3400   18.7638 N   0  0  0  0  0  0  0  0  0  0  0  0
  -27.8010  -30.2986   19.5133 N   0  0  0  0  0  0  0  0  0  0  0  0
  -23.8880  -30.7498   21.7226 N   0  0  0  0  0  0  0  0  0  0  0  0
  -23.2323  -18.8666   21.7813 N   0  0  0  0  0  0  0  0  0  0  0  0
  -23.9580  -12.1777   20.6887 N   0  0  0  0  0  0  0  0  0  0  0  0
  -30.8265  -25.0016   20.7006 N   0  0  0  0  0  0  0  0  0  0  0  0
  -25.3650  -10.6087   17.7516 N   0  3  0  0  0  0  0  0  0  0  0  0
  -25.6846  -31.8886   20.8659 O   0  0  0  0  0  0  0  0  0  0  0  0
  -24.2765  -17.1189   22.9118 O   0  0  0  0  0  0  0  0  0  0  0  0
  -22.3176  -14.5001   21.0412 O   0  0  0  0  0  0  0  0  0  0  0  0
  -26.1865  -11.9171   20.1032 O   0  0  0  0  0  0  0  0  0  0  0  0
  -31.5939  -24.3248   18.6488 O   0  0  0  0  0  0  0  0  0  0  0  0
  -20.3936  -26.6374   23.1054 O   0  0  0  0  0  0  0  0  0  0  0  0
  -30.2251  -17.3980   20.0759 O   0  0  0  0  0  0  0  0  0  1  0  0
  -15.8583  -29.5785   22.0167 F   0  0  0  0  0  0  0  0  0  0  0  0
  -20.2639  -29.3274   23.7294 F   0  0  0  0  0  0  0  0  0  0  0  0
  -29.1194  -23.4163   24.6394 F   0  0  0  0  0  0  0  0  0  0  0  0
  -27.5691  -21.9503   25.0287 F   0  0  0  0  0  0  0  0  0  0  0  0
  -29.2163  -22.1847   26.4289 F   0  0  0  0  0  0  0  0  0  0  0  0
  1  2  1  0  0  0  0
  1  5  2  0  0  0  0
  2  6  2  0  0  0  0
  3  8  2  0  0  0  0
  3 16  1  0  0  0  0
  4  9  1  0  0  0  0
  4 16  2  0  0  0  0
  5 18  1  0  0  0  0
  6 20  1  0  0  0  0
  7 10  2  0  0  0  0
  7 19  1  0  0  0  0
  8 22  1  0  0  0  0
  9 22  2  0  0  0  0
 10 23  1  0  0  0  0
 11 12  2  0  0  0  0
 11 24  1  0  0  0  0
 12 25  1  0  0  0  0
 13 21  1  0  0  0  0
 13 23  2  0  0  0  0
 14 25  2  0  0  0  0
 14 26  1  0  0  0  0
 15 28  1  0  0  0  0
 15 64  2  0  0  0  0
 16 27  1  0  0  0  0
 17 27  1  0  0  0  0
 17 31  2  0  0  0  0
 17 32  1  0  0  0  0
 18 20  2  0  0  0  0
 18 37  1  0  0  0  0
 19 21  2  0  0  0  0
 19 38  1  0  0  0  0
 20 46  1  0  0  0  0
 21 39  1  0  0  0  0
 22 81  1  0  0  0  0
 23 82  1  0  0  0  0
 24 26  2  0  0  0  0
 24 81  1  0  0  0  0
 25 83  1  0  0  0  0
 26 84  1  0  0  0  0
 27 65  2  0  0  0  0
 28 54  1  0  0  0  0
 28 66  2  0  0  0  0
 29 30  2  0  0  0  0
 29 55  1  0  0  0  0
 29 66  1  0  0  0  0
 30 62  1  0  0  0  0
 30 64  1  0  0  0  0
 31 67  1  0  0  0  0
 31 70  1  0  0  0  0
 32 71  1  0  0  0  0
 32 76  2  0  0  0  0
 33 47  1  0  0  0  0
 33 72  1  0  0  0  0
 33 77  2  0  0  0  0
 34 60  1  0  0  0  0
 34 68  1  0  0  0  0
 34 78  2  0  0  0  0
 35 61  1  0  0  0  0
 35 73  1  0  0  0  0
 35 79  2  0  0  0  0
 36 69  1  0  0  0  0
 36 74  1  0  0  0  0
 36 80  2  0  0  0  0
 37 40  1  0  0  0  0
 38 47  1  0  0  0  0
 39 68  1  0  0  0  0
 40 42  1  0  0  0  0
 41 43  1  0  0  0  0
 41 44  1  0  0  0  0
 42 46  1  0  0  0  0
 43 48  1  0  0  0  0
 44 69  1  0  0  0  0
 45 48  1  0  0  0  0
 45 69  1  0  0  0  0
 46 72  1  0  0  0  0
 47 68  1  0  0  0  0
 48 67  1  0  0  0  0
 49 61  1  0  0  0  0
 50 63  1  0  0  0  0
 51 63  1  0  0  0  0
 52 63  1  0  0  0  0
 53 75  1  0  0  0  0
 54 56  1  0  0  0  0
 55 57  1  0  0  0  0
 56 59  1  0  0  0  0
 57 58  1  0  0  0  0
 58 74  1  0  0  0  0
 59 82  1  0  0  0  0
 60 63  1  0  0  0  0
 60 73  1  0  0  0  0
 61 75  1  0  0  0  0
 62 85  1  0  0  0  0
 62 86  1  0  0  0  0
 62 87  1  0  0  0  0
 65 67  1  0  0  0  0
M  CHG  1  75   1
M  ISO  4  36 100  59 101  74 100  82 101
M  END
> <Batch ID>
0072

> <Smiles>
CNC(C)C(=O)NC(C(=O)N1Cc2cc([101O:1][101CH2:1]CCc3cnc(C(F)(F)F)c(CCC[100NH:0][100C:0](=O)N4CCCC(n5nc(-c6ccc(Oc7ccc(F)cc7F)cc6)c(C(N)=O)c5N)C4)n3)ccc2CC1C(=O)NC1CCCc2ccccc21)C(C)(C)C

> <Shape>
0.217

> <Color>
0.071

> <Negative vol penalty>
0.000

$$$$

  -OEChem-04052318243D

 87 95  0     1  0  0  0  0  0999 V2000
  -11.8408  -26.2966   19.3414 C   0  0  0  0  0  0  0  0  0  0  0  0
  -12.5450  -25.2270   19.8850 C   0  0  0  0  0  0  0  0  0  0  0  0
  -30.8996  -19.1717   19.2964 C   0  0  0  0  0  0  0  0  0  0  0  0
  -28.9772  -19.5128   20.7194 C   0  0  0  0  0  0  0  0  0  0  0  0
  -12.5242  -27.3135   18.6760 C   0  0  0  0  0  0  0  0  0  0  0  0
  -13.9330  -25.1731   19.7625 C   0  0  0  0  0  0  0  0  0  0  0  0
  -19.7633  -22.9220   23.2634 C   0  0  0  0  0  0  0  0  0  0  0  0
  -30.7667  -20.4705   18.8055 C   0  0  0  0  0  0  0  0  0  0  0  0
  -28.8443  -20.8116   20.2285 C   0  0  0  0  0  0  0  0  0  0  0  0
  -20.9003  -22.1388   23.0701 C   0  0  0  0  0  0  0  0  0  0  0  0
  -28.8334  -22.0991   16.5617 C   0  0  0  0  0  0  0  0  0  0  0  0
  -28.9433  -22.2847   15.1836 C   0  0  0  0  0  0  0  0  0  0  0  0
  -21.9823  -23.9921   21.9683 C   0  0  0  0  0  0  0  0  0  0  0  0
  -30.8247  -23.7598   15.5323 C   0  0  0  0  0  0  0  0  0  0  0  0
  -24.1917  -15.6982   18.8522 C   0  0  0  0  0  0  0  0  0  0  0  0
  -30.0048  -18.6928   20.2533 C   0  0  0  0  0  0  0  0  0  0  0  0
  -30.8931  -16.9361   21.8759 C   0  0  0  0  0  0  0  0  0  0  0  0
  -13.9222  -27.2770   18.5537 C   0  0  0  0  0  0  0  0  0  0  0  0
  -19.7231  -24.2450   22.8002 C   0  0  0  0  0  0  0  0  0  0  0  0
  -14.6356  -26.1898   19.0937 C   0  0  0  0  0  0  0  0  0  0  0  0
  -20.8445  -24.7908   22.1593 C   0  0  0  0  0  0  0  0  0  0  0  0
  -29.7390  -21.2905   19.2716 C   0  0  0  0  0  0  0  0  0  0  0  0
  -22.0090  -22.6728   22.4199 C   0  0  0  0  0  0  0  0  0  0  0  0
  -29.7191  -22.7439   17.4251 C   0  0  0  0  0  0  0  0  0  0  0  0
  -29.9389  -23.1150   14.6689 C   0  0  0  0  0  0  0  0  0  0  0  0
  -30.7147  -23.5742   16.9104 C   0  0  0  0  0  0  0  0  0  0  0  0
  -30.1412  -17.3510   20.7604 C   0  0  0  0  0  0  0  0  0  0  0  0
  -24.8203  -16.3529   19.8736 C   0  0  0  0  0  0  0  0  0  0  0  0
  -30.6963  -15.5782   21.9369 C   0  0  0  0  0  0  0  0  0  0  0  0
  -25.0259  -14.1774   20.2277 C   0  0  0  0  0  0  0  0  0  0  0  0
  -31.6975  -17.7092   22.7765 C   0  0  0  0  0  0  0  0  0  0  0  0
  -17.9453  -25.8323   20.6970 C   0  0  0  0  0  0  0  0  0  0  0  0
  -19.5953  -28.3898   21.8192 C   0  0  0  0  0  0  0  0  0  0  0  0
  -26.2560  -12.0724   19.9106 C   0  0  0  0  0  0  0  0  0  0  0  0
  -22.4065  -29.5822   23.3430 C   0  0  0  0  0  0  0  0  0  0  0  0
  -14.6125  -28.3753   17.7844 C   0  0  0  0  0  0  0  0  0  0  0  0
  -18.4989  -25.0852   23.0404 C   0  0  0  0  0  0  0  0  0  0  0  0
  -20.8595  -26.2121   21.6611 C   0  0  0  0  0  0  0  0  0  0  0  0
  -16.1190  -28.4326   18.0241 C   0  0  0  0  0  0  0  0  0  0  0  0
  -29.7523  -11.7959   19.1762 C   0  0  0  0  0  0  0  0  0  0  0  0
  -16.7278  -27.0370   17.9315 C   0  0  0  0  0  0  0  0  0  0  0  0
  -30.3118  -13.1612   19.5739 C   0  0  0  0  0  0  0  0  0  0  0  0
  -28.3458  -11.9157   18.5980 C   0  0  0  0  0  0  0  0  0  0  0  0
  -27.9354  -13.9831   19.8938 C   0  0  0  0  0  0  0  0  0  0  0  0
  -16.1440  -26.1083   19.0030 C   0  0  1  0  0  0  0  0  0  0  0  0
  -18.3792  -26.2574   22.0713 C   0  0  1  0  0  0  0  0  0  0  0  0
  -29.3429  -13.9038   20.5111 C   0  0  2  0  0  0  0  0  0  0  0  0
  -20.3052  -11.7253   17.7773 C   0  0  0  0  0  0  0  0  0  0  0  0
  -23.4857  -31.7210   24.0901 C   0  0  0  0  0  0  0  0  0  0  0  0
  -26.2939  -12.9656   22.1332 C   0  0  0  0  0  0  0  0  0  0  0  0
  -20.3312  -29.0258   18.9272 C   0  0  0  0  0  0  0  0  0  0  0  0
  -22.1282  -30.5402   19.7907 C   0  0  0  0  0  0  0  0  0  0  0  0
  -19.7370  -31.0196   20.3151 C   0  0  0  0  0  0  0  0  0  0  0  0
  -22.4301  -28.7173   26.1732 C   0  0  0  0  0  0  0  0  0  0  0  0
  -24.9992  -17.8238   20.1534 C   0  0  0  0  0  0  0  0  0  0  0  0
  -21.7915  -11.9611   17.5611 C   0  0  0  0  0  0  0  0  0  0  0  0
  -23.8766  -18.4340   21.0000 C   0  0  0  0  0  0  0  0  0  0  0  0
  -22.3143  -13.0895   18.4487 C   0  0  0  0  0  0  0  0  0  0  0  0
  -24.0353  -19.9408   21.2082 C   0  0  0  0  0  0  0  0  0  0  0  0
  -23.8161  -13.2936   18.2552 C   0  0  0  0  0  0  0  0  0  0  0  0
  -24.1650  -11.9812   21.1788 C   0  0  0  0  0  0  0  0  0  0  0  0
  -22.9254  -20.5039   22.0855 C   0  0  0  0  0  0  0  0  0  1  0  0
  -20.8884  -29.0745   21.4477 C   0  0  1  0  0  0  0  0  0  0  0  0
  -22.5933  -30.5569   24.4916 C   0  0  2  0  0  0  0  0  0  0  0  0
  -25.4012  -12.8839   20.8512 C   0  0  1  0  0  0  0  0  0  0  0  0
  -20.7705  -29.8876   20.1277 C   0  0  0  0  0  0  0  0  0  0  0  0
  -29.5137  -16.3386   20.1561 N   0  0  0  0  0  0  0  0  0  0  0  0
  -24.3351  -14.3536   19.0966 N   0  0  0  0  0  0  0  0  0  0  0  0
  -29.8709  -15.2740   20.8946 N   0  0  0  0  0  0  0  0  0  0  0  0
  -25.3269  -15.3875   20.7098 N   0  3  0  0  0  0  0  0  0  0  0  0
  -19.6364  -26.9915   21.9142 N   0  0  0  0  0  0  0  0  0  0  0  0
  -27.4619  -12.6466   19.5078 N   0  0  0  0  0  0  0  0  0  0  0  0
  -31.1505  -14.6266   22.7798 N   0  0  0  0  0  0  0  0  0  0  0  0
  -31.7908  -19.0922   22.5697 N   0  0  0  0  0  0  0  0  0  0  0  0
  -16.7444  -26.3823   20.2909 N   0  0  0  0  0  0  0  0  0  0  0  0
  -21.2766  -29.8704   22.6071 N   0  0  0  0  0  0  0  0  0  0  0  0
  -23.2483  -12.6560   22.1330 N   0  3  0  0  0  0  0  0  0  0  0  0
  -23.2145  -29.8693   25.6587 N   0  3  0  0  0  0  0  0  0  0  0  0
  -32.3284  -17.1865   23.7264 O   0  0  0  0  0  0  0  0  0  0  0  0
  -18.6487  -25.0635   20.0522 O   0  0  0  0  0  0  0  0  0  0  0  0
  -18.5877  -29.0710   22.0247 O   0  0  0  0  0  0  0  0  0  0  0  0
  -25.8634  -10.9604   19.5480 O   0  0  0  0  0  0  0  0  0  0  0  0
  -23.1871  -28.6598   23.1185 O   0  0  0  0  0  0  0  0  0  0  0  0
  -29.6092  -22.5580   18.7929 O   0  0  0  0  0  0  0  0  0  0  0  0
  -23.1199  -21.9102   22.2292 O   0  0  0  0  0  0  0  0  0  1  0  0
  -30.0453  -23.2919   13.3454 F   0  0  0  0  0  0  0  0  0  0  0  0
  -31.5693  -24.1954   17.7348 F   0  0  0  0  0  0  0  0  0  0  0  0
  1  2  1  0  0  0  0
  1  5  2  0  0  0  0
  2  6  2  0  0  0  0
  3  8  2  0  0  0  0
  3 16  1  0  0  0  0
  4  9  1  0  0  0  0
  4 16  2  0  0  0  0
  5 18  1  0  0  0  0
  6 20  1  0  0  0  0
  7 10  2  0  0  0  0
  7 19  1  0  0  0  0
  8 22  1  0  0  0  0
  9 22  2  0  0  0  0
 10 23  1  0  0  0  0
 11 12  2  0  0  0  0
 11 24  1  0  0  0  0
 12 25  1  0  0  0  0
 13 21  1  0  0  0  0
 13 23  2  0  0  0  0
 14 25  2  0  0  0  0
 14 26  1  0  0  0  0
 15 28  2  0  0  0  0
 15 68  1  0  0  0  0
 16 27  1  0  0  0  0
 17 27  1  0  0  0  0
 17 29  2  0  0  0  0
 17 31  1  0  0  0  0
 18 20  2  0  0  0  0
 18 36  1  0  0  0  0
 19 21  2  0  0  0  0
 19 37  1  0  0  0  0
 20 45  1  0  0  0  0
 21 38  1  0  0  0  0
 22 84  1  0  0  0  0
 23 85  1  0  0  0  0
 24 26  2  0  0  0  0
 24 84  1  0  0  0  0
 25 86  1  0  0  0  0
 26 87  1  0  0  0  0
 27 67  2  0  0  0  0
 28 55  1  0  0  0  0
 28 70  1  0  0  0  0
 29 69  1  0  0  0  0
 29 73  1  0  0  0  0
 30 65  1  0  0  0  0
 30 68  1  0  0  0  0
 30 70  2  0  0  0  0
 31 74  1  0  0  0  0
 31 79  2  0  0  0  0
 32 46  1  0  0  0  0
 32 75  1  0  0  0  0
 32 80  2  0  0  0  0
 33 63  1  0  0  0  0
 33 71  1  0  0  0  0
 33 81  2  0  0  0  0
 34 65  1  0  0  0  0
 34 72  1  0  0  0  0
 34 82  2  0  0  0  0
 35 64  1  0  0  0  0
 35 76  1  0  0  0  0
 35 83  2  0  0  0  0
 36 39  1  0  0  0  0
 37 46  1  0  0  0  0
 38 71  1  0  0  0  0
 39 41  1  0  0  0  0
 40 42  1  0  0  0  0
 40 43  1  0  0  0  0
 41 45  1  0  0  0  0
 42 47  1  0  0  0  0
 43 72  1  0  0  0  0
 44 47  1  0  0  0  0
 44 72  1  0  0  0  0
 45 75  1  0  0  0  0
 46 71  1  0  0  0  0
 47 69  1  0  0  0  0
 48 56  1  0  0  0  0
 49 64  1  0  0  0  0
 50 65  1  0  0  0  0
 51 66  1  0  0  0  0
 52 66  1  0  0  0  0
 53 66  1  0  0  0  0
 54 78  1  0  0  0  0
 55 57  1  0  0  0  0
 56 58  1  0  0  0  0
 57 59  1  0  0  0  0
 58 60  1  0  0  0  0
 59 62  1  0  0  0  0
 60 68  1  0  0  0  0
 61 65  1  0  0  0  0
 61 77  1  0  0  0  0
 62 85  1  0  0  0  0
 63 66  1  0  0  0  0
 63 76  1  0  0  0  0
 64 78  1  0  0  0  0
 67 69  1  0  0  0  0
M  CHG  3  70   1  77   1  78   1
M  ISO  4  34 100  62 101  65 100  85 101
M  END
> <Batch ID>
0072

> <Smiles>
CCCCn1cc(CCC[101CH2:1][101O:1]c2ccc3c(c2)CN(C(=O)C(NC(=O)C(C)NC)C(C)(C)C)C(C(=O)NC2CCCc4ccccc42)C3)nc1[100C:0](C)(CN)[100C:0](=O)N1CCCC(n2nc(-c3ccc(Oc4ccc(F)cc4F)cc3)c(C(N)=O)c2N)C1

> <Shape>
0.230

> <Color>
0.083

> <Negative vol penalty>
0.000

$$$$

  -OEChem-04052318243D

 88 96  0     1  0  0  0  0  0999 V2000
  -24.5998  -31.3955   22.1934 C   0  0  0  0  0  0  0  0  0  0  0  0
  -25.1062  -30.2169   22.7318 C   0  0  0  0  0  0  0  0  0  0  0  0
  -23.8378  -23.7734   22.9981 C   0  0  0  0  0  0  0  0  0  0  0  0
  -21.5931  -22.9428   23.3276 C   0  0  0  0  0  0  0  0  0  0  0  0
  -24.3088  -31.4701   20.8319 C   0  0  0  0  0  0  0  0  0  0  0  0
  -25.3208  -29.1117   21.9090 C   0  0  0  0  0  0  0  0  0  0  0  0
  -29.7024  -23.4980   21.1311 C   0  0  0  0  0  0  0  0  0  0  0  0
  -23.3885  -25.0753   23.2192 C   0  0  0  0  0  0  0  0  0  0  0  0
  -21.1438  -24.2446   23.5487 C   0  0  0  0  0  0  0  0  0  0  0  0
  -29.6617  -22.1123   20.9837 C   0  0  0  0  0  0  0  0  0  0  0  0
  -19.3386  -27.3853   23.8447 C   0  0  0  0  0  0  0  0  0  0  0  0
  -18.1587  -27.7798   23.2141 C   0  0  0  0  0  0  0  0  0  0  0  0
  -29.1971  -22.3821   18.6320 C   0  0  0  0  0  0  0  0  0  0  0  0
  -19.1658  -27.3500   21.0605 C   0  0  0  0  0  0  0  0  0  0  0  0
  -22.9401  -22.7072   23.0522 C   0  0  0  0  0  0  0  0  0  0  0  0
  -23.8812  -20.4523   23.7855 C   0  0  0  0  0  0  0  0  0  0  0  0
  -24.5291  -30.3684   19.9903 C   0  0  0  0  0  0  0  0  0  0  0  0
  -29.4796  -24.3378   20.0304 C   0  0  0  0  0  0  0  0  0  0  0  0
  -25.0313  -29.1712   20.5352 C   0  0  0  0  0  0  0  0  0  0  0  0
  -29.2381  -23.7782   18.7676 C   0  0  0  0  0  0  0  0  0  0  0  0
  -22.0415  -25.3109   23.4946 C   0  0  0  0  0  0  0  0  0  0  0  0
  -29.4062  -21.5541   19.7346 C   0  0  0  0  0  0  0  0  0  0  0  0
  -20.4323  -26.9732   23.0831 C   0  0  0  0  0  0  0  0  0  0  0  0
  -18.0722  -27.7622   21.8221 C   0  0  0  0  0  0  0  0  0  0  0  0
  -20.3458  -26.9556   21.6911 C   0  0  0  0  0  0  0  0  0  0  0  0
  -23.4035  -21.3622   22.8233 C   0  0  0  0  0  0  0  0  0  0  0  0
  -25.5129  -12.8790   22.3792 C   0  0  0  0  0  0  0  0  0  0  0  0
  -25.8246  -13.9144   21.5259 C   0  0  0  0  0  0  0  0  0  0  0  0
  -24.4808  -11.7751   20.6629 C   0  0  0  0  0  0  0  0  0  0  0  0
  -24.7918  -12.8109   19.8096 C   0  0  0  0  0  0  0  0  0  0  0  0
  -24.1922  -19.3241   23.0665 C   0  0  0  0  0  0  0  0  0  0  0  0
  -24.0303  -20.6126   25.2024 C   0  0  0  0  0  0  0  0  0  0  0  0
  -27.3115  -26.5423   19.2933 C   0  0  0  0  0  0  0  0  0  0  0  0
  -29.2295  -27.0081   16.7191 C   0  0  0  0  0  0  0  0  0  0  0  0
  -31.5795  -25.7454   14.5908 C   0  0  0  0  0  0  0  0  0  0  0  0
  -22.8941  -15.5809   19.2916 C   0  0  0  0  0  0  0  0  0  0  0  0
  -24.1549  -30.4814   18.5336 C   0  0  0  0  0  0  0  0  0  0  0  0
  -29.5534  -25.8304   20.2007 C   0  0  0  0  0  0  0  0  0  0  0  0
  -29.0124  -24.6358   17.5502 C   0  0  0  0  0  0  0  0  0  0  0  0
  -24.7634  -29.3860   17.6617 C   0  0  0  0  0  0  0  0  0  0  0  0
  -24.5067  -18.5825   18.0723 C   0  0  0  0  0  0  0  0  0  0  0  0
  -24.5831  -28.0204   18.3170 C   0  0  0  0  0  0  0  0  0  0  0  0
  -24.4000  -19.5015   19.2906 C   0  0  0  0  0  0  0  0  0  0  0  0
  -23.2573  -17.7202   17.9191 C   0  0  0  0  0  0  0  0  0  0  0  0
  -22.8105  -17.8248   20.3405 C   0  0  0  0  0  0  0  0  0  0  0  0
  -25.3011  -27.9589   19.6706 C   0  0  1  0  0  0  0  0  0  0  0  0
  -28.8024  -26.5936   19.1139 C   0  0  1  0  0  0  0  0  0  0  0  0
  -24.0527  -18.7066   20.5633 C   0  0  2  0  0  0  0  0  0  0  0  0
  -25.9114  -12.9079   23.8151 C   0  0  0  0  0  0  0  0  0  0  0  0
  -23.2228   -9.7159   21.3437 C   0  0  0  0  0  0  0  0  0  0  0  0
  -32.9272  -26.3493   12.5618 C   0  0  0  0  0  0  0  0  0  0  0  0
  -22.4363  -12.9368   16.7680 C   0  0  0  0  0  0  0  0  0  0  0  0
  -26.7618  -26.6190   14.9672 C   0  0  0  0  0  0  0  0  0  0  0  0
  -28.2887  -26.2842   13.0116 C   0  0  0  0  0  0  0  0  0  0  0  0
  -28.2846  -28.4609   14.2301 C   0  0  0  0  0  0  0  0  0  0  0  0
  -34.1352  -25.4025   16.0433 C   0  0  0  0  0  0  0  0  0  0  0  0
  -23.7310  -10.5769   20.1897 C   0  0  0  0  0  0  0  0  0  0  0  0
  -26.5844  -15.1261   22.0044 C   0  0  0  0  0  0  0  0  0  0  0  0
  -24.3928  -12.7818   18.3738 C   0  0  0  0  0  0  0  0  0  0  0  0
  -27.0751  -16.0363   20.8728 C   0  0  0  0  0  0  0  0  0  0  0  0
  -27.7768  -17.2996   21.3813 C   0  0  0  0  0  0  0  0  0  0  0  0
  -28.2752  -18.1604   20.2218 C   0  0  0  0  0  0  0  0  0  0  0  0
  -28.9370  -19.4390   20.7155 C   0  0  0  0  0  0  0  0  0  1  0  0
  -29.3112  -26.4278   15.3278 C   0  0  1  0  0  0  0  0  0  0  0  0
  -32.8896  -26.3191   14.0818 C   0  0  2  0  0  0  0  0  0  0  0  0
  -23.0058  -13.4054   18.1034 C   0  0  1  0  0  0  0  0  0  0  0  0
  -28.1638  -26.9316   14.4073 C   0  0  0  0  0  0  0  0  0  0  0  0
  -23.4089  -20.8558   21.5874 N   0  0  0  0  0  0  0  0  0  0  0  0
  -24.8354  -11.7907   21.9630 N   0  0  0  0  0  0  0  0  0  0  0  0
  -25.4696  -13.8990   20.2257 N   0  0  0  0  0  0  0  0  0  0  0  0
  -23.8939  -19.6156   21.7680 N   0  0  0  0  0  0  0  0  0  0  0  0
  -29.0883  -26.0897   17.7691 N   0  0  0  0  0  0  0  0  0  0  0  0
  -22.9930  -16.9758   19.1585 N   0  0  0  0  0  0  0  0  0  0  0  0
  -24.6892  -18.1212   23.4247 N   0  0  0  0  0  0  0  0  0  0  0  0
  -23.6629  -21.8362   25.7788 N   0  0  0  0  0  0  0  0  0  0  0  0
  -26.7244  -27.7792   19.4801 N   0  0  0  0  0  0  0  0  0  0  0  0
  -30.6501  -26.7340   14.8358 N   0  0  0  0  0  0  0  0  0  0  0  0
  -23.0727  -14.8497   18.1236 N   0  0  0  0  0  0  0  0  0  0  0  0
  -34.0364  -25.4985   14.5641 N   0  3  0  0  0  0  0  0  0  0  0  0
  -24.4916  -19.7036   25.9335 O   0  0  0  0  0  0  0  0  0  0  0  0
  -26.7362  -25.4607   19.2631 O   0  0  0  0  0  0  0  0  0  0  0  0
  -29.2959  -28.2306   16.8693 O   0  0  0  0  0  0  0  0  0  0  0  0
  -31.3976  -24.5405   14.7511 O   0  0  0  0  0  0  0  0  0  0  0  0
  -22.6686  -15.0270   20.3731 O   0  0  0  0  0  0  0  0  0  0  0  0
  -21.6028  -26.5811   23.7106 O   0  0  0  0  0  0  0  0  0  0  0  0
  -29.3652  -20.2018   19.5881 O   0  0  0  0  0  0  0  0  0  1  0  0
  -16.9385  -28.1396   21.2167 F   0  0  0  0  0  0  0  0  0  0  0  0
  -21.3927  -26.5595   20.9542 F   0  0  0  0  0  0  0  0  0  0  0  0
  1  2  1  0  0  0  0
  1  5  2  0  0  0  0
  2  6  2  0  0  0  0
  3  8  2  0  0  0  0
  3 15  1  0  0  0  0
  4  9  1  0  0  0  0
  4 15  2  0  0  0  0
  5 17  1  0  0  0  0
  6 19  1  0  0  0  0
  7 10  2  0  0  0  0
  7 18  1  0  0  0  0
  8 21  1  0  0  0  0
  9 21  2  0  0  0  0
 10 22  1  0  0  0  0
 11 12  2  0  0  0  0
 11 23  1  0  0  0  0
 12 24  1  0  0  0  0
 13 20  1  0  0  0  0
 13 22  2  0  0  0  0
 14 24  2  0  0  0  0
 14 25  1  0  0  0  0
 15 26  1  0  0  0  0
 16 26  1  0  0  0  0
 16 31  2  0  0  0  0
 16 32  1  0  0  0  0
 17 19  2  0  0  0  0
 17 37  1  0  0  0  0
 18 20  2  0  0  0  0
 18 38  1  0  0  0  0
 19 46  1  0  0  0  0
 20 39  1  0  0  0  0
 21 85  1  0  0  0  0
 22 86  1  0  0  0  0
 23 25  2  0  0  0  0
 23 85  1  0  0  0  0
 24 87  1  0  0  0  0
 25 88  1  0  0  0  0
 26 68  2  0  0  0  0
 27 28  1  0  0  0  0
 27 49  1  0  0  0  0
 27 69  2  0  0  0  0
 28 58  1  0  0  0  0
 28 70  2  0  0  0  0
 29 30  2  0  0  0  0
 29 57  1  0  0  0  0
 29 69  1  0  0  0  0
 30 59  1  0  0  0  0
 30 70  1  0  0  0  0
 31 71  1  0  0  0  0
 31 74  1  0  0  0  0
 32 75  1  0  0  0  0
 32 80  2  0  0  0  0
 33 47  1  0  0  0  0
 33 76  1  0  0  0  0
 33 81  2  0  0  0  0
 34 64  1  0  0  0  0
 34 72  1  0  0  0  0
 34 82  2  0  0  0  0
 35 65  1  0  0  0  0
 35 77  1  0  0  0  0
 35 83  2  0  0  0  0
 36 73  1  0  0  0  0
 36 78  1  0  0  0  0
 36 84  2  0  0  0  0
 37 40  1  0  0  0  0
 38 47  1  0  0  0  0
 39 72  1  0  0  0  0
 40 42  1  0  0  0  0
 41 43  1  0  0  0  0
 41 44  1  0  0  0  0
 42 46  1  0  0  0  0
 43 48  1  0  0  0  0
 44 73  1  0  0  0  0
 45 48  1  0  0  0  0
 45 73  1  0  0  0  0
 46 76  1  0  0  0  0
 47 72  1  0  0  0  0
 48 71  1  0  0  0  0
 50 57  1  0  0  0  0
 51 65  1  0  0  0  0
 52 66  1  0  0  0  0
 53 67  1  0  0  0  0
 54 67  1  0  0  0  0
 55 67  1  0  0  0  0
 56 79  1  0  0  0  0
 58 60  1  0  0  0  0
 59 66  1  0  0  0  0
 60 61  1  0  0  0  0
 61 62  1  0  0  0  0
 62 63  1  0  0  0  0
 63 86  1  0  0  0  0
 64 67  1  0  0  0  0
 64 77  1  0  0  0  0
 65 79  1  0  0  0  0
 66 78  1  0  0  0  0
 68 71  1  0  0  0  0
M  CHG  1  79   1
M  ISO  4  36 100  63 101  78 100  86 101
M  END
> <Batch ID>
0072

> <Smiles>
CCc1nc(C)c(CCCC[101CH2:1][101O:1]c2ccc3c(c2)CN(C(=O)C(NC(=O)C(C)NC)C(C)(C)C)C(C(=O)NC2CCCc4ccccc42)C3)nc1CC(C)[100NH:0][100C:0](=O)N1CCCC(n2nc(-c3ccc(Oc4ccc(F)cc4F)cc3)c(C(N)=O)c2N)C1

> <Shape>
0.207

> <Color>
0.081

> <Negative vol penalty>
0.000

$$$$
