
  -OEChem-04052318273D

 86 94  0     1  0  0  0  0  0999 V2000
  -22.2783  -34.4591   20.6337 C   0  0  0  0  0  0  0  0  0  0  0  0
  -23.3619  -33.5898   20.7088 C   0  0  0  0  0  0  0  0  0  0  0  0
  -25.7356  -13.2518   21.9190 C   0  0  0  0  0  0  0  0  0  0  0  0
  -25.8405  -13.8530   19.5813 C   0  0  0  0  0  0  0  0  0  0  0  0
  -21.1137  -34.1831   21.3488 C   0  0  0  0  0  0  0  0  0  0  0  0
  -23.2818  -32.4444   21.5001 C   0  0  0  0  0  0  0  0  0  0  0  0
  -25.0898  -28.3348   19.1577 C   0  0  0  0  0  0  0  0  0  0  0  0
  -24.6557  -12.4097   21.6540 C   0  0  0  0  0  0  0  0  0  0  0  0
  -24.7606  -13.0108   19.3163 C   0  0  0  0  0  0  0  0  0  0  0  0
  -26.4755  -28.1912   19.1027 C   0  0  0  0  0  0  0  0  0  0  0  0
  -24.1625   -9.3191   20.3741 C   0  0  0  0  0  0  0  0  0  0  0  0
  -24.1752   -8.0483   20.9489 C   0  0  0  0  0  0  0  0  0  0  0  0
  -26.3823  -26.6430   20.9503 C   0  0  0  0  0  0  0  0  0  0  0  0
  -22.1154   -8.5515   22.1070 C   0  0  0  0  0  0  0  0  0  0  0  0
  -32.7133  -23.6448   18.7441 C   0  0  0  0  0  0  0  0  0  0  0  0
  -26.3280  -13.9735   20.8826 C   0  0  0  0  0  0  0  0  0  0  0  0
  -28.8100  -14.5081   21.1305 C   0  0  0  0  0  0  0  0  0  0  0  0
  -21.0159  -33.0287   22.1416 C   0  0  0  0  0  0  0  0  0  0  0  0
  -24.3398  -27.6408   20.1181 C   0  0  0  0  0  0  0  0  0  0  0  0
  -22.1153  -32.1534   22.2275 C   0  0  0  0  0  0  0  0  0  0  0  0
  -24.9870  -26.7776   21.0137 C   0  0  0  0  0  0  0  0  0  0  0  0
  -24.1682  -12.2891   20.3527 C   0  0  0  0  0  0  0  0  0  0  0  0
  -27.1223  -27.3474   20.0009 C   0  0  0  0  0  0  0  0  0  0  0  0
  -23.1263  -10.2062   20.6658 C   0  0  0  0  0  0  0  0  0  0  0  0
  -23.1517   -7.6645   21.8154 C   0  0  0  0  0  0  0  0  0  0  0  0
  -22.1027   -9.8224   21.5322 C   0  0  0  0  0  0  0  0  0  0  0  0
  -27.4432  -14.8441   21.1558 C   0  0  0  0  0  0  0  0  0  0  0  0
  -32.0284  -22.4228   18.8835 C   0  0  0  0  0  0  0  0  0  0  0  0
  -32.0524  -24.2952   17.7308 C   0  0  0  0  0  0  0  0  0  0  0  0
  -29.4565  -15.6746   21.4586 C   0  0  0  0  0  0  0  0  0  0  0  0
  -29.4391  -13.2536   20.8366 C   0  0  0  0  0  0  0  0  0  0  0  0
  -22.4611  -28.4878   22.5382 C   0  0  0  0  0  0  0  0  0  0  0  0
  -21.8887  -25.2989   22.6998 C   0  0  0  0  0  0  0  0  0  0  0  0
  -22.9534  -22.1266   22.0291 C   0  0  0  0  0  0  0  0  0  0  0  0
  -30.1030  -21.1932   20.9362 C   0  0  0  0  0  0  0  0  0  0  0  0
  -19.7535  -32.7971   22.9338 C   0  0  0  0  0  0  0  0  0  0  0  0
  -22.8430  -27.7861   20.1470 C   0  0  0  0  0  0  0  0  0  0  0  0
  -24.2254  -25.9946   22.0507 C   0  0  0  0  0  0  0  0  0  0  0  0
  -19.6141  -31.3685   23.4533 C   0  0  0  0  0  0  0  0  0  0  0  0
  -27.6516  -20.0472   23.2500 C   0  0  0  0  0  0  0  0  0  0  0  0
  -20.9213  -30.9000   24.0847 C   0  0  0  0  0  0  0  0  0  0  0  0
  -27.4873  -18.5660   22.9052 C   0  0  0  0  0  0  0  0  0  0  0  0
  -27.8866  -20.8946   22.0016 C   0  0  0  0  0  0  0  0  0  0  0  0
  -28.8373  -18.9624   20.8030 C   0  0  0  0  0  0  0  0  0  0  0  0
  -22.0579  -30.8879   23.0554 C   0  0  1  0  0  0  0  0  0  0  0  0
  -22.2339  -27.4268   21.4987 C   0  0  1  0  0  0  0  0  0  0  0  0
  -28.6537  -18.0601   22.0353 C   0  0  2  0  0  0  0  0  0  0  0  0
  -22.2880  -19.7239   22.3141 C   0  0  0  0  0  0  0  0  0  0  0  0
  -32.9600  -21.7536   21.1972 C   0  0  0  0  0  0  0  0  0  0  0  0
  -33.3060  -20.2938   19.2081 C   0  0  0  0  0  0  0  0  0  0  0  0
  -33.5092  -26.3309   17.7869 C   0  0  0  0  0  0  0  0  0  0  0  0
  -32.6434  -25.6064   15.5806 C   0  0  0  0  0  0  0  0  0  0  0  0
  -22.6677  -25.4352   25.6467 C   0  0  0  0  0  0  0  0  0  0  0  0
  -22.9066  -22.9431   25.6270 C   0  0  0  0  0  0  0  0  0  0  0  0
  -20.6897  -23.9855   25.1566 C   0  0  0  0  0  0  0  0  0  0  0  0
  -30.0762  -23.6924   16.3005 C   0  0  0  0  0  0  0  0  0  0  0  0
  -22.9036  -21.6729   19.1050 C   0  0  0  0  0  0  0  0  0  0  0  0
  -30.3373  -26.4764   18.6215 C   0  0  0  0  0  0  0  0  0  0  0  0
  -31.0602  -26.6115   17.2758 C   0  0  0  0  0  0  0  0  0  0  0  0
  -29.0961  -27.3593   18.6744 C   0  0  0  0  0  0  0  0  0  1  0  0
  -22.5225  -24.1342   23.4214 C   0  0  1  0  0  0  0  0  0  0  0  0
  -22.2473  -20.9389   21.4005 C   0  0  2  0  0  0  0  0  0  0  0  0
  -32.3204  -21.3335   19.8305 C   0  0  0  0  0  0  0  0  0  0  0  0
  -32.2935  -25.6726   17.0869 C   0  0  0  0  0  0  0  0  0  0  0  0
  -22.2115  -24.1406   24.9447 C   0  0  0  0  0  0  0  0  0  0  0  0
  -27.2326  -16.1238   21.4749 N   0  0  0  0  0  0  0  0  0  0  0  0
  -31.0104  -22.3017   18.0273 N   0  0  0  0  0  0  0  0  0  0  0  0
  -31.0507  -23.4560   17.3403 N   0  0  0  0  0  0  0  0  0  0  0  0
  -28.4758  -16.6023   21.6532 N   0  0  0  0  0  0  0  0  0  0  0  0
  -22.7643  -26.1752   22.0430 N   0  0  0  0  0  0  0  0  0  0  0  0
  -29.0068  -20.3626   21.2217 N   0  0  0  0  0  0  0  0  0  0  0  0
  -30.7625  -15.9872   21.5968 N   0  0  0  0  0  0  0  0  0  0  0  0
  -28.6264  -12.1569   20.5189 N   0  0  0  0  0  0  0  0  0  0  0  0
  -21.9514  -29.7264   22.1986 N   0  0  0  0  0  0  0  0  0  0  0  0
  -22.0771  -22.9317   22.7256 N   0  0  0  0  0  0  0  0  0  0  0  0
  -31.1244  -20.6085   20.1976 N   0  0  0  0  0  0  0  0  0  0  0  0
  -22.8940  -20.5767   20.1076 N   0  3  0  0  0  0  0  0  0  0  0  0
  -30.6842  -13.1055   20.8712 O   0  0  0  0  0  0  0  0  0  0  0  0
  -23.0537  -28.2032   23.5724 O   0  0  0  0  0  0  0  0  0  0  0  0
  -20.6614  -25.4226   22.7122 O   0  0  0  0  0  0  0  0  0  0  0  0
  -24.1621  -22.3188   21.9168 O   0  0  0  0  0  0  0  0  0  0  0  0
  -30.1691  -22.3671   21.3163 O   0  0  0  0  0  0  0  0  0  0  0  0
  -23.1146  -11.4673   20.0937 O   0  0  0  0  0  0  0  0  0  0  0  0
  -28.4747  -27.2059   19.9498 O   0  0  0  0  0  0  0  0  0  1  0  0
  -23.1632   -6.4435   22.3661 F   0  0  0  0  0  0  0  0  0  0  0  0
  -21.1039  -10.6698   21.8153 F   0  0  0  0  0  0  0  0  0  0  0  0
  1  2  1  0  0  0  0
  1  5  2  0  0  0  0
  2  6  2  0  0  0  0
  3  8  2  0  0  0  0
  3 16  1  0  0  0  0
  4  9  1  0  0  0  0
  4 16  2  0  0  0  0
  5 18  1  0  0  0  0
  6 20  1  0  0  0  0
  7 10  2  0  0  0  0
  7 19  1  0  0  0  0
  8 22  1  0  0  0  0
  9 22  2  0  0  0  0
 10 23  1  0  0  0  0
 11 12  2  0  0  0  0
 11 24  1  0  0  0  0
 12 25  1  0  0  0  0
 13 21  1  0  0  0  0
 13 23  2  0  0  0  0
 14 25  2  0  0  0  0
 14 26  1  0  0  0  0
 15 28  1  0  0  0  0
 15 29  2  0  0  0  0
 16 27  1  0  0  0  0
 17 27  1  0  0  0  0
 17 30  2  0  0  0  0
 17 31  1  0  0  0  0
 18 20  2  0  0  0  0
 18 36  1  0  0  0  0
 19 21  2  0  0  0  0
 19 37  1  0  0  0  0
 20 45  1  0  0  0  0
 21 38  1  0  0  0  0
 22 83  1  0  0  0  0
 23 84  1  0  0  0  0
 24 26  2  0  0  0  0
 24 83  1  0  0  0  0
 25 85  1  0  0  0  0
 26 86  1  0  0  0  0
 27 66  2  0  0  0  0
 28 63  1  0  0  0  0
 28 67  2  0  0  0  0
 29 64  1  0  0  0  0
 29 68  1  0  0  0  0
 30 69  1  0  0  0  0
 30 72  1  0  0  0  0
 31 73  1  0  0  0  0
 31 78  2  0  0  0  0
 32 46  1  0  0  0  0
 32 74  1  0  0  0  0
 32 79  2  0  0  0  0
 33 61  1  0  0  0  0
 33 70  1  0  0  0  0
 33 80  2  0  0  0  0
 34 62  1  0  0  0  0
 34 75  1  0  0  0  0
 34 81  2  0  0  0  0
 35 71  1  0  0  0  0
 35 76  1  0  0  0  0
 35 82  2  0  0  0  0
 36 39  1  0  0  0  0
 37 46  1  0  0  0  0
 38 70  1  0  0  0  0
 39 41  1  0  0  0  0
 40 42  1  0  0  0  0
 40 43  1  0  0  0  0
 41 45  1  0  0  0  0
 42 47  1  0  0  0  0
 43 71  1  0  0  0  0
 44 47  1  0  0  0  0
 44 71  1  0  0  0  0
 45 74  1  0  0  0  0
 46 70  1  0  0  0  0
 47 69  1  0  0  0  0
 48 62  1  0  0  0  0
 49 63  1  0  0  0  0
 50 63  1  0  0  0  0
 51 64  1  0  0  0  0
 52 64  1  0  0  0  0
 53 65  1  0  0  0  0
 54 65  1  0  0  0  0
 55 65  1  0  0  0  0
 56 68  1  0  0  0  0
 57 77  1  0  0  0  0
 58 59  1  0  0  0  0
 58 60  1  0  0  0  0
 59 64  1  0  0  0  0
 60 84  1  0  0  0  0
 61 65  1  0  0  0  0
 61 75  1  0  0  0  0
 62 77  1  0  0  0  0
 63 76  1  0  0  0  0
 66 69  1  0  0  0  0
 67 68  1  0  0  0  0
M  CHG  1  77   1
M  ISO  4  35 100  60 101  76 100  84 101
M  END
> <Batch ID>
0073

> <Smiles>
CNC(C)C(=O)NC(C(=O)N1Cc2cc([101O:1][101CH2:1]CCC(C)(C)c3cc(C(C)(C)[100NH:0][100C:0](=O)N4CCCC(n5nc(-c6ccc(Oc7ccc(F)cc7F)cc6)c(C(N)=O)c5N)C4)nn3C)ccc2CC1C(=O)NC1CCCc2ccccc21)C(C)(C)C

> <Shape>
0.224

> <Color>
0.080

> <Negative vol penalty>
0.000

$$$$

  -OEChem-04052318273D

 86 94  0     1  0  0  0  0  0999 V2000
  -21.2722  -23.0237   19.6541 C   0  0  0  0  0  0  0  0  0  0  0  0
  -22.3361  -22.5102   18.9193 C   0  0  0  0  0  0  0  0  0  0  0  0
  -26.1063  -28.0660   18.8998 C   0  0  0  0  0  0  0  0  0  0  0  0
  -26.3258  -27.8132   21.2925 C   0  0  0  0  0  0  0  0  0  0  0  0
  -20.9847  -22.5068   20.9167 C   0  0  0  0  0  0  0  0  0  0  0  0
  -23.1139  -21.4802   19.4472 C   0  0  0  0  0  0  0  0  0  0  0  0
  -26.8471  -15.7081   17.4316 C   0  0  0  0  0  0  0  0  0  0  0  0
  -25.0726  -28.9826   19.0914 C   0  0  0  0  0  0  0  0  0  0  0  0
  -25.2921  -28.7299   21.4842 C   0  0  0  0  0  0  0  0  0  0  0  0
  -28.1124  -15.1402   17.5737 C   0  0  0  0  0  0  0  0  0  0  0  0
  -21.9141  -28.7408   21.3437 C   0  0  0  0  0  0  0  0  0  0  0  0
  -20.9312  -28.4226   22.2808 C   0  0  0  0  0  0  0  0  0  0  0  0
  -27.4736  -14.2716   19.7317 C   0  0  0  0  0  0  0  0  0  0  0  0
  -21.4842  -30.4115   23.5361 C   0  0  0  0  0  0  0  0  0  0  0  0
  -32.4424  -18.1824   22.1821 C   0  0  0  0  0  0  0  0  0  0  0  0
  -26.7329  -27.4812   20.0003 C   0  0  0  0  0  0  0  0  0  0  0  0
  -29.1770  -26.8122   19.7063 C   0  0  0  0  0  0  0  0  0  0  0  0
  -21.7534  -21.4634   21.4563 C   0  0  0  0  0  0  0  0  0  0  0  0
  -25.8875  -15.5711   18.4450 C   0  0  0  0  0  0  0  0  0  0  0  0
  -22.8372  -20.9498   20.7187 C   0  0  0  0  0  0  0  0  0  0  0  0
  -26.1960  -14.8366   19.5989 C   0  0  0  0  0  0  0  0  0  0  0  0
  -24.6655  -29.3146   20.3836 C   0  0  0  0  0  0  0  0  0  0  0  0
  -28.4268  -14.4243   18.7251 C   0  0  0  0  0  0  0  0  0  0  0  0
  -22.6821  -29.8943   21.5027 C   0  0  0  0  0  0  0  0  0  0  0  0
  -20.7163  -29.2579   23.3770 C   0  0  0  0  0  0  0  0  0  0  0  0
  -22.4672  -30.7296   22.5989 C   0  0  0  0  0  0  0  0  0  0  0  0
  -27.8004  -26.5338   19.8030 C   0  0  0  0  0  0  0  0  0  0  0  0
  -31.3951  -17.7674   21.3893 C   0  0  0  0  0  0  0  0  0  0  0  0
  -33.9245  -17.5171   20.5726 C   0  0  0  0  0  0  0  0  0  0  0  0
  -32.8773  -17.1014   19.7801 C   0  0  0  0  0  0  0  0  0  0  0  0
  -29.7637  -25.5838   19.5236 C   0  0  0  0  0  0  0  0  0  0  0  0
  -29.8640  -28.0687   19.7756 C   0  0  0  0  0  0  0  0  0  0  0  0
  -24.3211  -17.5873   20.3384 C   0  0  0  0  0  0  0  0  0  0  0  0
  -22.7422  -14.9012   21.2407 C   0  0  0  0  0  0  0  0  0  0  0  0
  -22.7388  -11.5004   21.5265 C   0  0  0  0  0  0  0  0  0  0  0  0
  -29.2092  -20.1999   21.2894 C   0  0  0  0  0  0  0  0  0  0  0  0
  -21.4337  -20.9693   22.8449 C   0  0  0  0  0  0  0  0  0  0  0  0
  -24.5183  -16.1671   18.2647 C   0  0  0  0  0  0  0  0  0  0  0  0
  -25.1946  -14.6432   20.7071 C   0  0  0  0  0  0  0  0  0  0  0  0
  -22.0742  -19.6236   23.1751 C   0  0  0  0  0  0  0  0  0  0  0  0
  -28.1872  -21.1670   17.9551 C   0  0  0  0  0  0  0  0  0  0  0  0
  -23.5420  -19.6148   22.7600 C   0  0  0  0  0  0  0  0  0  0  0  0
  -28.1185  -22.6894   18.0876 C   0  0  0  0  0  0  0  0  0  0  0  0
  -27.7037  -20.4789   19.2283 C   0  0  0  0  0  0  0  0  0  0  0  0
  -28.3519  -22.4209   20.6002 C   0  0  0  0  0  0  0  0  0  0  0  0
  -23.6886  -19.8157   21.2469 C   0  0  1  0  0  0  0  0  0  0  0  0
  -23.7900  -16.4010   19.5847 C   0  0  1  0  0  0  0  0  0  0  0  0
  -28.8489  -23.1752   19.3536 C   0  0  2  0  0  0  0  0  0  0  0  0
  -35.3397  -17.3811   20.1249 C   0  0  0  0  0  0  0  0  0  0  0  0
  -29.8870  -15.5914   22.9492 C   0  0  0  0  0  0  0  0  0  0  0  0
  -21.3234   -9.5931   22.3363 C   0  0  0  0  0  0  0  0  0  0  0  0
  -33.5818  -14.4661   17.0175 C   0  0  0  0  0  0  0  0  0  0  0  0
  -23.4448  -15.6074   24.1247 C   0  0  0  0  0  0  0  0  0  0  0  0
  -22.8637  -13.2586   24.7679 C   0  0  0  0  0  0  0  0  0  0  0  0
  -21.1175  -14.7524   23.7974 C   0  0  0  0  0  0  0  0  0  0  0  0
  -22.6223  -10.2894   18.8286 C   0  0  0  0  0  0  0  0  0  0  0  0
  -33.1139  -16.4885   18.4207 C   0  0  0  0  0  0  0  0  0  0  0  0
  -29.2516  -16.5564   21.9558 C   0  0  0  0  0  0  0  0  0  0  0  0
  -32.0230  -14.2631   19.0170 C   0  0  0  0  0  0  0  0  0  0  0  0
  -30.7490  -14.5326   18.2237 C   0  0  0  0  0  0  0  0  0  1  0  0
  -29.9896  -17.9139   21.8571 C   0  0  2  0  0  0  0  0  0  0  0  0
  -22.9450  -13.8477   22.3027 C   0  0  1  0  0  0  0  0  0  0  0  0
  -21.7029  -10.4585   21.1448 C   0  0  2  0  0  0  0  0  0  0  0  0
  -33.2761  -14.9513   18.4392 C   0  0  1  0  0  0  0  0  0  0  0  0
  -22.6125  -14.3716   23.7283 C   0  0  0  0  0  0  0  0  0  0  0  0
  -33.7259  -18.0647   21.7879 N   0  0  0  0  0  0  0  0  0  0  0  0
  -27.5287  -25.2309   19.6907 N   0  0  0  0  0  0  0  0  0  0  0  0
  -31.5938  -17.2194   20.1741 N   0  0  0  0  0  0  0  0  0  0  0  0
  -28.7426  -24.6796   19.5216 N   0  0  0  0  0  0  0  0  0  0  0  0
  -23.8716  -15.2505   20.4868 N   0  0  0  0  0  0  0  0  0  0  0  0
  -28.4516  -20.9722   20.3934 N   0  0  0  0  0  0  0  0  0  0  0  0
  -31.0482  -25.1997   19.3659 N   0  0  0  0  0  0  0  0  0  0  0  0
  -29.1085  -29.2336   19.9672 N   0  0  0  0  0  0  0  0  0  0  0  0
  -23.3895  -18.5872   20.5427 N   0  0  0  0  0  0  0  0  0  0  0  0
  -22.1525  -12.6943   21.8901 N   0  0  0  0  0  0  0  0  0  0  0  0
  -29.2468  -18.8359   21.0270 N   0  0  0  0  0  0  0  0  0  0  0  0
  -22.2314   -9.5723   20.0695 N   0  3  0  0  0  0  0  0  0  0  0  0
  -31.1093  -28.1577   19.6543 O   0  0  0  0  0  0  0  0  0  0  0  0
  -25.4893  -17.5943   20.7087 O   0  0  0  0  0  0  0  0  0  0  0  0
  -21.6213  -15.3909   21.0808 O   0  0  0  0  0  0  0  0  0  0  0  0
  -23.9471  -11.2764   21.5078 O   0  0  0  0  0  0  0  0  0  0  0  0
  -29.8124  -20.6905   22.2499 O   0  0  0  0  0  0  0  0  0  0  0  0
  -23.6570  -30.2092   20.5710 O   0  0  0  0  0  0  0  0  0  0  0  0
  -29.6613  -13.8694   18.8667 O   0  0  0  0  0  0  0  0  0  1  0  0
  -19.7713  -28.9530   24.2761 F   0  0  0  0  0  0  0  0  0  0  0  0
  -23.2010  -31.8398   22.7564 F   0  0  0  0  0  0  0  0  0  0  0  0
  1  2  1  0  0  0  0
  1  5  2  0  0  0  0
  2  6  2  0  0  0  0
  3  8  2  0  0  0  0
  3 16  1  0  0  0  0
  4  9  1  0  0  0  0
  4 16  2  0  0  0  0
  5 18  1  0  0  0  0
  6 20  1  0  0  0  0
  7 10  2  0  0  0  0
  7 19  1  0  0  0  0
  8 22  1  0  0  0  0
  9 22  2  0  0  0  0
 10 23  1  0  0  0  0
 11 12  2  0  0  0  0
 11 24  1  0  0  0  0
 12 25  1  0  0  0  0
 13 21  1  0  0  0  0
 13 23  2  0  0  0  0
 14 25  2  0  0  0  0
 14 26  1  0  0  0  0
 15 28  1  0  0  0  0
 15 66  2  0  0  0  0
 16 27  1  0  0  0  0
 17 27  1  0  0  0  0
 17 31  2  0  0  0  0
 17 32  1  0  0  0  0
 18 20  2  0  0  0  0
 18 37  1  0  0  0  0
 19 21  2  0  0  0  0
 19 38  1  0  0  0  0
 20 46  1  0  0  0  0
 21 39  1  0  0  0  0
 22 83  1  0  0  0  0
 23 84  1  0  0  0  0
 24 26  2  0  0  0  0
 24 83  1  0  0  0  0
 25 85  1  0  0  0  0
 26 86  1  0  0  0  0
 27 67  2  0  0  0  0
 28 61  1  0  0  0  0
 28 68  2  0  0  0  0
 29 30  2  0  0  0  0
 29 49  1  0  0  0  0
 29 66  1  0  0  0  0
 30 57  1  0  0  0  0
 30 68  1  0  0  0  0
 31 69  1  0  0  0  0
 31 72  1  0  0  0  0
 32 73  1  0  0  0  0
 32 78  2  0  0  0  0
 33 47  1  0  0  0  0
 33 74  1  0  0  0  0
 33 79  2  0  0  0  0
 34 62  1  0  0  0  0
 34 70  1  0  0  0  0
 34 80  2  0  0  0  0
 35 63  1  0  0  0  0
 35 75  1  0  0  0  0
 35 81  2  0  0  0  0
 36 71  1  0  0  0  0
 36 76  1  0  0  0  0
 36 82  2  0  0  0  0
 37 40  1  0  0  0  0
 38 47  1  0  0  0  0
 39 70  1  0  0  0  0
 40 42  1  0  0  0  0
 41 43  1  0  0  0  0
 41 44  1  0  0  0  0
 42 46  1  0  0  0  0
 43 48  1  0  0  0  0
 44 71  1  0  0  0  0
 45 48  1  0  0  0  0
 45 71  1  0  0  0  0
 46 74  1  0  0  0  0
 47 70  1  0  0  0  0
 48 69  1  0  0  0  0
 50 58  1  0  0  0  0
 51 63  1  0  0  0  0
 52 64  1  0  0  0  0
 53 65  1  0  0  0  0
 54 65  1  0  0  0  0
 55 65  1  0  0  0  0
 56 77  1  0  0  0  0
 57 64  1  0  0  0  0
 58 61  1  0  0  0  0
 59 60  1  0  0  0  0
 59 64  1  0  0  0  0
 60 84  1  0  0  0  0
 61 76  1  0  0  0  0
 62 65  1  0  0  0  0
 62 75  1  0  0  0  0
 63 77  1  0  0  0  0
 67 69  1  0  0  0  0
M  CHG  1  77   1
M  ISO  4  36 100  60 101  76 100  84 101
M  END
> <Batch ID>
0073

> <Smiles>
CCC([100NH:0][100C:0](=O)N1CCCC(n2nc(-c3ccc(Oc4ccc(F)cc4F)cc3)c(C(N)=O)c2N)C1)c1cnc(C)c(CC(C)C[101CH2:1][101O:1]c2ccc3c(c2)CN(C(=O)C(NC(=O)C(C)NC)C(C)(C)C)C(C(=O)NC2CCCc4ccccc42)C3)n1

> <Shape>
0.249

> <Color>
0.059

> <Negative vol penalty>
0.000

$$$$

  -OEChem-04052318273D

 84 92  0     1  0  0  0  0  0999 V2000
  -17.1966  -30.8003   23.0580 C   0  0  0  0  0  0  0  0  0  0  0  0
  -18.5661  -31.0004   22.9181 C   0  0  0  0  0  0  0  0  0  0  0  0
  -27.5634  -18.0838   20.7357 C   0  0  0  0  0  0  0  0  0  0  0  0
  -29.6165  -17.5754   19.5682 C   0  0  0  0  0  0  0  0  0  0  0  0
  -16.7035  -29.5238   23.3251 C   0  0  0  0  0  0  0  0  0  0  0  0
  -19.4436  -29.9243   23.0464 C   0  0  0  0  0  0  0  0  0  0  0  0
  -24.6745  -29.0539   19.9828 C   0  0  0  0  0  0  0  0  0  0  0  0
  -27.0585  -16.8292   20.3943 C   0  0  0  0  0  0  0  0  0  0  0  0
  -29.1117  -16.3207   19.2269 C   0  0  0  0  0  0  0  0  0  0  0  0
  -26.0074  -29.2902   20.3164 C   0  0  0  0  0  0  0  0  0  0  0  0
  -28.6912  -13.3171   20.7176 C   0  0  0  0  0  0  0  0  0  0  0  0
  -29.5344  -12.2169   20.8726 C   0  0  0  0  0  0  0  0  0  0  0  0
  -26.2378  -26.9888   21.0016 C   0  0  0  0  0  0  0  0  0  0  0  0
  -29.3495  -11.7425   18.5109 C   0  0  0  0  0  0  0  0  0  0  0  0
  -32.6901  -28.4981   17.2543 C   0  0  0  0  0  0  0  0  0  0  0  0
  -28.8424  -18.4570   20.3225 C   0  0  0  0  0  0  0  0  0  0  0  0
  -29.5677  -20.2646   21.9700 C   0  0  0  0  0  0  0  0  0  0  0  0
  -17.5746  -28.4298   23.4472 C   0  0  0  0  0  0  0  0  0  0  0  0
  -24.1093  -27.7838   20.1666 C   0  0  0  0  0  0  0  0  0  0  0  0
  -18.9618  -28.6322   23.3168 C   0  0  0  0  0  0  0  0  0  0  0  0
  -24.8982  -26.7382   20.6671 C   0  0  0  0  0  0  0  0  0  0  0  0
  -32.7872  -28.5173   18.6307 C   0  0  0  0  0  0  0  0  0  0  0  0
  -27.8327  -15.9476   19.6400 C   0  0  0  0  0  0  0  0  0  0  0  0
  -26.7885  -28.2584   20.8286 C   0  0  0  0  0  0  0  0  0  0  0  0
  -28.1770  -13.6300   19.4593 C   0  0  0  0  0  0  0  0  0  0  0  0
  -29.8636  -11.4296   19.7692 C   0  0  0  0  0  0  0  0  0  0  0  0
  -28.5061  -12.8427   18.3559 C   0  0  0  0  0  0  0  0  0  0  0  0
  -29.3642  -19.7532   20.6743 C   0  0  0  0  0  0  0  0  0  0  0  0
  -33.1184  -27.3156   19.2227 C   0  0  0  0  0  0  0  0  0  0  0  0
  -30.0760  -21.5241   21.7661 C   0  0  0  0  0  0  0  0  0  0  0  0
  -33.2150  -26.2872   17.1978 C   0  0  0  0  0  0  0  0  0  0  0  0
  -29.3194  -19.6555   23.2440 C   0  0  0  0  0  0  0  0  0  0  0  0
  -21.7311  -26.6201   21.9256 C   0  0  0  0  0  0  0  0  0  0  0  0
  -22.3673  -23.8966   20.2823 C   0  0  0  0  0  0  0  0  0  0  0  0
  -33.0826  -23.8139   17.1843 C   0  0  0  0  0  0  0  0  0  0  0  0
  -24.6166  -22.0414   18.5087 C   0  0  0  0  0  0  0  0  0  0  0  0
  -16.9985  -27.0770   23.7832 C   0  0  0  0  0  0  0  0  0  0  0  0
  -22.6774  -27.5383   19.7767 C   0  0  0  0  0  0  0  0  0  0  0  0
  -24.3447  -25.3515   20.8644 C   0  0  0  0  0  0  0  0  0  0  0  0
  -17.9664  -25.9235   23.5329 C   0  0  0  0  0  0  0  0  0  0  0  0
  -30.0191  -25.1320   18.6350 C   0  0  0  0  0  0  0  0  0  0  0  0
  -19.3433  -26.2486   24.1033 C   0  0  0  0  0  0  0  0  0  0  0  0
  -29.5098  -23.9253   19.4221 C   0  0  0  0  0  0  0  0  0  0  0  0
  -30.7081  -24.7077   17.3406 C   0  0  0  0  0  0  0  0  0  0  0  0
  -31.3112  -22.5205   18.3291 C   0  0  0  0  0  0  0  0  0  0  0  0
  -19.9436  -27.4856   23.4244 C   0  0  1  0  0  0  0  0  0  0  0  0
  -22.0622  -26.3368   20.4876 C   0  0  1  0  0  0  0  0  0  0  0  0
  -30.6365  -22.9039   19.6568 C   0  0  2  0  0  0  0  0  0  0  0  0
  -33.2520  -27.2169   20.7066 C   0  0  0  0  0  0  0  0  0  0  0  0
  -25.4806  -20.1547   17.0978 C   0  0  0  0  0  0  0  0  0  0  0  0
  -34.9508  -24.9173   16.0133 C   0  0  0  0  0  0  0  0  0  0  0  0
  -32.6324  -24.9126   15.0865 C   0  0  0  0  0  0  0  0  0  0  0  0
  -22.6185  -22.4802   22.9732 C   0  0  0  0  0  0  0  0  0  0  0  0
  -23.7660  -20.5932   21.7940 C   0  0  0  0  0  0  0  0  0  0  0  0
  -21.4101  -21.1743   21.2157 C   0  0  0  0  0  0  0  0  0  0  0  0
  -23.8609  -23.4177   16.0000 C   0  0  0  0  0  0  0  0  0  0  0  0
  -32.5419  -29.7828   19.4132 C   0  0  0  0  0  0  0  0  0  0  0  0
  -31.0598  -30.1492   19.5491 C   0  0  0  0  0  0  0  0  0  0  0  0
  -30.2546  -29.1077   20.3275 C   0  0  0  0  0  0  0  0  0  0  0  0
  -28.7817  -29.4854   20.4076 C   0  0  0  0  0  0  0  0  0  1  0  0
  -23.2803  -22.7123   20.4884 C   0  0  1  0  0  0  0  0  0  0  0  0
  -24.4977  -21.3119   17.1828 C   0  0  2  0  0  0  0  0  0  0  0  0
  -33.4534  -25.0486   16.4020 C   0  0  0  0  0  0  0  0  0  0  0  0
  -22.7789  -21.7665   21.6160 C   0  0  0  0  0  0  0  0  0  0  0  0
  -32.8982  -27.3967   16.5035 N   0  0  0  0  0  0  0  0  0  0  0  0
  -29.7145  -20.6173   19.7180 N   0  0  0  0  0  0  0  0  0  0  0  0
  -33.3399  -26.1766   18.5341 N   0  0  0  0  0  0  0  0  0  0  0  0
  -30.1432  -21.6845   20.4134 N   0  0  0  0  0  0  0  0  0  0  0  0
  -22.9376  -25.1630   20.4743 N   0  0  0  0  0  0  0  0  0  0  0  0
  -31.7559  -23.7141   17.6039 N   0  0  0  0  0  0  0  0  0  0  0  0
  -30.4676  -22.4991   22.6138 N   0  0  0  0  0  0  0  0  0  0  0  0
  -30.3464  -18.9110   23.8401 N   0  0  0  0  0  0  0  0  0  0  0  0
  -20.4665  -27.1422   22.1194 N   0  0  0  0  0  0  0  0  0  0  0  0
  -23.4156  -22.0696   19.1856 N   0  0  0  0  0  0  0  0  0  0  0  0
  -24.7703  -22.2441   16.0525 N   0  3  0  0  0  0  0  0  0  0  0  0
  -28.2140  -19.7545   23.8287 O   0  0  0  0  0  0  0  0  0  0  0  0
  -22.5610  -26.3813   22.7950 O   0  0  0  0  0  0  0  0  0  0  0  0
  -21.1931  -23.7055   19.9559 O   0  0  0  0  0  0  0  0  0  0  0  0
  -33.9482  -22.9661   17.4169 O   0  0  0  0  0  0  0  0  0  0  0  0
  -25.6703  -22.5336   18.9061 O   0  0  0  0  0  0  0  0  0  0  0  0
  -27.3405  -14.7231   19.3069 O   0  0  0  0  0  0  0  0  0  0  0  0
  -28.0895  -28.4866   21.1557 O   0  0  0  0  0  0  0  0  0  1  0  0
  -30.6747  -10.3740   19.9179 F   0  0  0  0  0  0  0  0  0  0  0  0
  -28.0162  -13.1390   17.1443 F   0  0  0  0  0  0  0  0  0  0  0  0
  1  2  1  0  0  0  0
  1  5  2  0  0  0  0
  2  6  2  0  0  0  0
  3  8  2  0  0  0  0
  3 16  1  0  0  0  0
  4  9  1  0  0  0  0
  4 16  2  0  0  0  0
  5 18  1  0  0  0  0
  6 20  1  0  0  0  0
  7 10  2  0  0  0  0
  7 19  1  0  0  0  0
  8 23  1  0  0  0  0
  9 23  2  0  0  0  0
 10 24  1  0  0  0  0
 11 12  2  0  0  0  0
 11 25  1  0  0  0  0
 12 26  1  0  0  0  0
 13 21  1  0  0  0  0
 13 24  2  0  0  0  0
 14 26  2  0  0  0  0
 14 27  1  0  0  0  0
 15 22  1  0  0  0  0
 15 65  2  0  0  0  0
 16 28  1  0  0  0  0
 17 28  1  0  0  0  0
 17 30  2  0  0  0  0
 17 32  1  0  0  0  0
 18 20  2  0  0  0  0
 18 37  1  0  0  0  0
 19 21  2  0  0  0  0
 19 38  1  0  0  0  0
 20 46  1  0  0  0  0
 21 39  1  0  0  0  0
 22 29  2  0  0  0  0
 22 57  1  0  0  0  0
 23 81  1  0  0  0  0
 24 82  1  0  0  0  0
 25 27  2  0  0  0  0
 25 81  1  0  0  0  0
 26 83  1  0  0  0  0
 27 84  1  0  0  0  0
 28 66  2  0  0  0  0
 29 49  1  0  0  0  0
 29 67  1  0  0  0  0
 30 68  1  0  0  0  0
 30 71  1  0  0  0  0
 31 63  1  0  0  0  0
 31 65  1  0  0  0  0
 31 67  2  0  0  0  0
 32 72  1  0  0  0  0
 32 76  2  0  0  0  0
 33 47  1  0  0  0  0
 33 73  1  0  0  0  0
 33 77  2  0  0  0  0
 34 61  1  0  0  0  0
 34 69  1  0  0  0  0
 34 78  2  0  0  0  0
 35 63  1  0  0  0  0
 35 70  1  0  0  0  0
 35 79  2  0  0  0  0
 36 62  1  0  0  0  0
 36 74  1  0  0  0  0
 36 80  2  0  0  0  0
 37 40  1  0  0  0  0
 38 47  1  0  0  0  0
 39 69  1  0  0  0  0
 40 42  1  0  0  0  0
 41 43  1  0  0  0  0
 41 44  1  0  0  0  0
 42 46  1  0  0  0  0
 43 48  1  0  0  0  0
 44 70  1  0  0  0  0
 45 48  1  0  0  0  0
 45 70  1  0  0  0  0
 46 73  1  0  0  0  0
 47 69  1  0  0  0  0
 48 68  1  0  0  0  0
 50 62  1  0  0  0  0
 51 63  1  0  0  0  0
 52 63  1  0  0  0  0
 53 64  1  0  0  0  0
 54 64  1  0  0  0  0
 55 64  1  0  0  0  0
 56 75  1  0  0  0  0
 57 58  1  0  0  0  0
 58 59  1  0  0  0  0
 59 60  1  0  0  0  0
 60 82  1  0  0  0  0
 61 64  1  0  0  0  0
 61 74  1  0  0  0  0
 62 75  1  0  0  0  0
 66 68  1  0  0  0  0
M  CHG  1  75   1
M  ISO  4  35 100  60 101  63 100  82 101
M  END
> <Batch ID>
0073

> <Smiles>
CNC(C)C(=O)NC(C(=O)N1Cc2cc([101O:1][101CH2:1]CCCc3cnc([100C:0](C)(C)[100C:0](=O)N4CCCC(n5nc(-c6ccc(Oc7ccc(F)cc7F)cc6)c(C(N)=O)c5N)C4)nc3C)ccc2CC1C(=O)NC1CCCc2ccccc21)C(C)(C)C

> <Shape>
0.219

> <Color>
0.063

> <Negative vol penalty>
0.000

$$$$

  -OEChem-04052318273D

 85 93  0     1  0  0  0  0  0999 V2000
  -23.2999  -18.7600   23.8754 C   0  0  0  0  0  0  0  0  0  0  0  0
  -24.2786  -19.6138   24.3738 C   0  0  0  0  0  0  0  0  0  0  0  0
  -25.1750  -13.5631   21.5109 C   0  0  0  0  0  0  0  0  0  0  0  0
  -26.8403  -13.0843   19.8272 C   0  0  0  0  0  0  0  0  0  0  0  0
  -22.5347  -19.1453   22.7754 C   0  0  0  0  0  0  0  0  0  0  0  0
  -24.4936  -20.8530   23.7718 C   0  0  0  0  0  0  0  0  0  0  0  0
  -26.1112  -26.0651   26.5509 C   0  0  0  0  0  0  0  0  0  0  0  0
  -24.3904  -12.5133   21.0335 C   0  0  0  0  0  0  0  0  0  0  0  0
  -26.0557  -12.0344   19.3498 C   0  0  0  0  0  0  0  0  0  0  0  0
  -27.3417  -26.7013   26.7086 C   0  0  0  0  0  0  0  0  0  0  0  0
  -24.3220   -9.1419   21.2817 C   0  0  0  0  0  0  0  0  0  0  0  0
  -23.7560   -8.2775   22.2188 C   0  0  0  0  0  0  0  0  0  0  0  0
  -26.8655  -28.0846   24.7906 C   0  0  0  0  0  0  0  0  0  0  0  0
  -31.7373  -24.8524   21.5774 C   0  0  0  0  0  0  0  0  0  0  0  0
  -21.5500   -8.8634   21.4267 C   0  0  0  0  0  0  0  0  0  0  0  0
  -26.3999  -13.8486   20.9077 C   0  0  0  0  0  0  0  0  0  0  0  0
  -28.2014  -14.8690   22.3980 C   0  0  0  0  0  0  0  0  0  0  0  0
  -22.7339  -20.3939   22.1655 C   0  0  0  0  0  0  0  0  0  0  0  0
  -25.2518  -26.4270   25.5036 C   0  0  0  0  0  0  0  0  0  0  0  0
  -23.7313  -21.2548   22.6617 C   0  0  0  0  0  0  0  0  0  0  0  0
  -25.6235  -27.4533   24.6233 C   0  0  0  0  0  0  0  0  0  0  0  0
  -31.4041  -26.1640   21.8662 C   0  0  0  0  0  0  0  0  0  0  0  0
  -24.8308  -11.7489   19.9530 C   0  0  0  0  0  0  0  0  0  0  0  0
  -27.7203  -27.7092   25.8266 C   0  0  0  0  0  0  0  0  0  0  0  0
  -23.5020   -9.8671   20.4172 C   0  0  0  0  0  0  0  0  0  0  0  0
  -22.3700   -8.1382   22.2913 C   0  0  0  0  0  0  0  0  0  0  0  0
  -22.1161   -9.7279   20.4897 C   0  0  0  0  0  0  0  0  0  0  0  0
  -27.2106  -14.9333   21.4001 C   0  0  0  0  0  0  0  0  0  0  0  0
  -31.3350  -24.3361   20.3621 C   0  0  0  0  0  0  0  0  0  0  0  0
  -30.6908  -26.8727   20.9203 C   0  0  0  0  0  0  0  0  0  0  0  0
  -28.6728  -16.1553   22.4972 C   0  0  0  0  0  0  0  0  0  0  0  0
  -28.6552  -13.7470   23.1666 C   0  0  0  0  0  0  0  0  0  0  0  0
  -24.0293  -24.9237   22.9839 C   0  0  0  0  0  0  0  0  0  0  0  0
  -22.3664  -27.6865   22.6321 C   0  0  0  0  0  0  0  0  0  0  0  0
  -22.1550  -31.0382   23.2392 C   0  0  0  0  0  0  0  0  0  0  0  0
  -30.4861  -20.7515   20.1448 C   0  0  0  0  0  0  0  0  0  0  0  0
  -21.9144  -20.7468   20.9495 C   0  0  0  0  0  0  0  0  0  0  0  0
  -23.9163  -25.7495   25.3632 C   0  0  0  0  0  0  0  0  0  0  0  0
  -24.7283  -27.8930   23.4948 C   0  0  0  0  0  0  0  0  0  0  0  0
  -21.9499  -22.2326   20.6014 C   0  0  0  0  0  0  0  0  0  0  0  0
  -26.9002  -20.4733   20.5467 C   0  0  0  0  0  0  0  0  0  0  0  0
  -23.3815  -22.7572   20.6452 C   0  0  0  0  0  0  0  0  0  0  0  0
  -26.7467  -18.9903   20.8893 C   0  0  0  0  0  0  0  0  0  0  0  0
  -27.9988  -20.6904   19.5103 C   0  0  0  0  0  0  0  0  0  0  0  0
  -29.1752  -18.6501   20.2363 C   0  0  0  0  0  0  0  0  0  0  0  0
  -23.9775  -22.6175   22.0513 C   0  0  1  0  0  0  0  0  0  0  0  0
  -23.3432  -25.8449   23.9525 C   0  0  1  0  0  0  0  0  0  0  0  0
  -28.0950  -18.3667   21.2960 C   0  0  2  0  0  0  0  0  0  0  0  0
  -30.2956  -28.2903   21.1622 C   0  0  0  0  0  0  0  0  0  0  0  0
  -32.5306  -22.8234   18.7361 C   0  0  0  0  0  0  0  0  0  0  0  0
  -20.6993  -33.0330   22.7931 C   0  0  0  0  0  0  0  0  0  0  0  0
  -30.4302  -28.2345   27.8414 C   0  0  0  0  0  0  0  0  0  0  0  0
  -23.4046  -27.8000   19.7652 C   0  0  0  0  0  0  0  0  0  0  0  0
  -22.7293  -30.2097   19.6899 C   0  0  0  0  0  0  0  0  0  0  0  0
  -21.0023  -28.4423   20.0308 C   0  0  0  0  0  0  0  0  0  0  0  0
  -21.6821  -31.4842   26.1264 C   0  0  0  0  0  0  0  0  0  0  0  0
  -31.8197  -26.7772   23.1796 C   0  0  0  0  0  0  0  0  0  0  0  0
  -30.6926  -26.8404   24.2172 C   0  0  0  0  0  0  0  0  0  0  0  0
  -31.1339  -27.4762   25.5428 C   0  0  0  0  0  0  0  0  0  0  0  0
  -31.6680  -22.9286   20.0027 C   0  0  2  0  0  0  0  0  0  0  0  0
  -22.6016  -28.9914   21.9103 C   0  0  1  0  0  0  0  0  0  0  0  0
  -21.0157  -31.8985   23.7551 C   0  0  2  0  0  0  0  0  0  0  0  0
  -29.9818  -27.5660   26.5486 C   0  0  2  0  0  0  0  0  0  1  0  0
  -22.4524  -28.8515   20.3691 C   0  0  0  0  0  0  0  0  0  0  0  0
  -27.0604  -16.1631   20.9010 N   0  0  0  0  0  0  0  0  0  0  0  0
  -30.6377  -25.0527   19.4552 N   0  0  0  0  0  0  0  0  0  0  0  0
  -30.3105  -26.3420   19.7389 N   0  0  0  0  0  0  0  0  0  0  0  0
  -27.9630  -16.8835   21.5883 N   0  0  0  0  0  0  0  0  0  0  0  0
  -23.4353  -27.1959   23.3952 N   0  0  0  0  0  0  0  0  0  0  0  0
  -29.2601  -20.0893   19.9665 N   0  0  0  0  0  0  0  0  0  0  0  0
  -29.6209  -16.7232   23.2725 N   0  0  0  0  0  0  0  0  0  0  0  0
  -28.0635  -12.4972   22.9378 N   0  0  0  0  0  0  0  0  0  0  0  0
  -23.4738  -23.6600   22.9195 N   0  0  0  0  0  0  0  0  0  0  0  0
  -21.6931  -29.9608   22.5131 N   0  0  0  0  0  0  0  0  0  0  0  0
  -30.4833  -22.1117   19.8610 N   0  0  0  0  0  0  0  0  0  0  0  0
  -21.3697  -32.4884   25.0772 N   0  3  0  0  0  0  0  0  0  0  0  0
  -29.5472  -13.8528   24.0422 O   0  0  0  0  0  0  0  0  0  0  0  0
  -24.9904  -25.3297   22.3412 O   0  0  0  0  0  0  0  0  0  0  0  0
  -21.2720  -27.1269   22.5284 O   0  0  0  0  0  0  0  0  0  0  0  0
  -23.3367  -31.2981   23.4552 O   0  0  0  0  0  0  0  0  0  0  0  0
  -31.5072  -20.1741   20.5334 O   0  0  0  0  0  0  0  0  0  0  0  0
  -24.0655  -10.7243   19.4870 O   0  0  0  0  0  0  0  0  0  0  0  0
  -28.9211  -28.3313   25.9778 O   0  0  0  0  0  0  0  0  0  1  0  0
  -21.8267   -7.3069   23.1901 F   0  0  0  0  0  0  0  0  0  0  0  0
  -21.3232  -10.4211   19.6611 F   0  0  0  0  0  0  0  0  0  0  0  0
  1  2  1  0  0  0  0
  1  5  2  0  0  0  0
  2  6  2  0  0  0  0
  3  8  2  0  0  0  0
  3 16  1  0  0  0  0
  4  9  1  0  0  0  0
  4 16  2  0  0  0  0
  5 18  1  0  0  0  0
  6 20  1  0  0  0  0
  7 10  2  0  0  0  0
  7 19  1  0  0  0  0
  8 23  1  0  0  0  0
  9 23  2  0  0  0  0
 10 24  1  0  0  0  0
 11 12  2  0  0  0  0
 11 25  1  0  0  0  0
 12 26  1  0  0  0  0
 13 21  1  0  0  0  0
 13 24  2  0  0  0  0
 14 22  1  0  0  0  0
 14 29  2  0  0  0  0
 15 26  2  0  0  0  0
 15 27  1  0  0  0  0
 16 28  1  0  0  0  0
 17 28  1  0  0  0  0
 17 31  2  0  0  0  0
 17 32  1  0  0  0  0
 18 20  2  0  0  0  0
 18 37  1  0  0  0  0
 19 21  2  0  0  0  0
 19 38  1  0  0  0  0
 20 46  1  0  0  0  0
 21 39  1  0  0  0  0
 22 30  2  0  0  0  0
 22 57  1  0  0  0  0
 23 82  1  0  0  0  0
 24 83  1  0  0  0  0
 25 27  2  0  0  0  0
 25 82  1  0  0  0  0
 26 84  1  0  0  0  0
 27 85  1  0  0  0  0
 28 65  2  0  0  0  0
 29 60  1  0  0  0  0
 29 66  1  0  0  0  0
 30 49  1  0  0  0  0
 30 67  1  0  0  0  0
 31 68  1  0  0  0  0
 31 71  1  0  0  0  0
 32 72  1  0  0  0  0
 32 77  2  0  0  0  0
 33 47  1  0  0  0  0
 33 73  1  0  0  0  0
 33 78  2  0  0  0  0
 34 61  1  0  0  0  0
 34 69  1  0  0  0  0
 34 79  2  0  0  0  0
 35 62  1  0  0  0  0
 35 74  1  0  0  0  0
 35 80  2  0  0  0  0
 36 70  1  0  0  0  0
 36 75  1  0  0  0  0
 36 81  2  0  0  0  0
 37 40  1  0  0  0  0
 38 47  1  0  0  0  0
 39 69  1  0  0  0  0
 40 42  1  0  0  0  0
 41 43  1  0  0  0  0
 41 44  1  0  0  0  0
 42 46  1  0  0  0  0
 43 48  1  0  0  0  0
 44 70  1  0  0  0  0
 45 48  1  0  0  0  0
 45 70  1  0  0  0  0
 46 73  1  0  0  0  0
 47 69  1  0  0  0  0
 48 68  1  0  0  0  0
 50 60  1  0  0  0  0
 51 62  1  0  0  0  0
 52 63  1  0  0  0  0
 53 64  1  0  0  0  0
 54 64  1  0  0  0  0
 55 64  1  0  0  0  0
 56 76  1  0  0  0  0
 57 58  1  0  0  0  0
 58 59  1  0  0  0  0
 59 63  1  0  0  0  0
 60 75  1  0  0  0  0
 61 64  1  0  0  0  0
 61 74  1  0  0  0  0
 62 76  1  0  0  0  0
 63 83  1  0  0  0  0
 65 68  1  0  0  0  0
 66 67  2  0  0  0  0
M  CHG  1  76   1
M  ISO  4  36 100  63 101  75 100  83 101
M  END
> <Batch ID>
0073

> <Smiles>
CNC(C)C(=O)NC(C(=O)N1Cc2cc([101O:1][101CH:1](C)CCCc3cc(C(C)[100NH:0][100C:0](=O)N4CCCC(n5nc(-c6ccc(Oc7ccc(F)cc7F)cc6)c(C(N)=O)c5N)C4)nnc3C)ccc2CC1C(=O)NC1CCCc2ccccc21)C(C)(C)C

> <Shape>
0.195

> <Color>
0.076

> <Negative vol penalty>
0.000

$$$$

  -OEChem-04052318273D

 86 94  0     1  0  0  0  0  0999 V2000
  -24.1110  -18.3758   16.7599 C   0  0  0  0  0  0  0  0  0  0  0  0
  -25.0437  -18.8639   17.6694 C   0  0  0  0  0  0  0  0  0  0  0  0
  -26.0817  -13.3185   21.1985 C   0  0  0  0  0  0  0  0  0  0  0  0
  -26.3691  -13.3109   18.7997 C   0  0  0  0  0  0  0  0  0  0  0  0
  -23.2821  -19.2601   16.0709 C   0  0  0  0  0  0  0  0  0  0  0  0
  -25.1488  -20.2368   17.8896 C   0  0  0  0  0  0  0  0  0  0  0  0
  -26.4898  -23.0260   23.1743 C   0  0  0  0  0  0  0  0  0  0  0  0
  -24.9235  -12.5533   21.0622 C   0  0  0  0  0  0  0  0  0  0  0  0
  -25.2109  -12.5456   18.6634 C   0  0  0  0  0  0  0  0  0  0  0  0
  -27.6769  -23.5513   23.6828 C   0  0  0  0  0  0  0  0  0  0  0  0
  -22.0898  -10.2972   21.3707 C   0  0  0  0  0  0  0  0  0  0  0  0
  -21.9221   -9.2150   22.2346 C   0  0  0  0  0  0  0  0  0  0  0  0
  -27.0363  -25.7411   22.8995 C   0  0  0  0  0  0  0  0  0  0  0  0
  -23.9602   -8.2274   21.3931 C   0  0  0  0  0  0  0  0  0  0  0  0
  -32.2386  -23.4006   20.3852 C   0  0  0  0  0  0  0  0  0  0  0  0
  -26.8045  -13.6974   20.0672 C   0  0  0  0  0  0  0  0  0  0  0  0
  -29.3176  -14.0171   20.3664 C   0  0  0  0  0  0  0  0  0  0  0  0
  -23.3704  -20.6439   16.2898 C   0  0  0  0  0  0  0  0  0  0  0  0
  -25.5705  -23.8537   22.5139 C   0  0  0  0  0  0  0  0  0  0  0  0
  -24.3212  -21.1406   17.2018 C   0  0  0  0  0  0  0  0  0  0  0  0
  -25.8371  -25.2243   22.3858 C   0  0  0  0  0  0  0  0  0  0  0  0
  -24.4881  -12.1668   19.7947 C   0  0  0  0  0  0  0  0  0  0  0  0
  -27.9516  -24.9085   23.5429 C   0  0  0  0  0  0  0  0  0  0  0  0
  -23.1926  -10.3444   20.5179 C   0  0  0  0  0  0  0  0  0  0  0  0
  -22.8573   -8.1801   22.2458 C   0  0  0  0  0  0  0  0  0  0  0  0
  -24.1278   -9.3096   20.5291 C   0  0  0  0  0  0  0  0  0  0  0  0
  -28.0007  -14.4883   20.2073 C   0  0  0  0  0  0  0  0  0  0  0  0
  -31.6707  -23.8264   19.2047 C   0  0  0  0  0  0  0  0  0  0  0  0
  -31.0289  -25.7745   20.2162 C   0  0  0  0  0  0  0  0  0  0  0  0
  -31.5961  -25.3482   21.3969 C   0  0  0  0  0  0  0  0  0  0  0  0
  -30.0814  -15.1553   20.4534 C   0  0  0  0  0  0  0  0  0  0  0  0
  -29.8068  -12.6708   20.4297 C   0  0  0  0  0  0  0  0  0  0  0  0
  -24.3694  -23.9737   19.5733 C   0  0  0  0  0  0  0  0  0  0  0  0
  -22.5033  -26.2996   20.8502 C   0  0  0  0  0  0  0  0  0  0  0  0
  -22.0763  -28.6707   23.2672 C   0  0  0  0  0  0  0  0  0  0  0  0
  -29.4619  -20.5470   18.4157 C   0  0  0  0  0  0  0  0  0  0  0  0
  -22.4856  -21.5640   15.4865 C   0  0  0  0  0  0  0  0  0  0  0  0
  -24.2822  -23.2765   21.9946 C   0  0  0  0  0  0  0  0  0  0  0  0
  -24.8736  -26.1592   21.7031 C   0  0  0  0  0  0  0  0  0  0  0  0
  -22.4032  -22.9787   16.0540 C   0  0  0  0  0  0  0  0  0  0  0  0
  -29.8660  -19.7248   21.8263 C   0  0  0  0  0  0  0  0  0  0  0  0
  -23.7947  -23.4939   16.4076 C   0  0  0  0  0  0  0  0  0  0  0  0
  -29.5506  -18.2297   21.8166 C   0  0  0  0  0  0  0  0  0  0  0  0
  -28.9395  -20.5135   20.8991 C   0  0  0  0  0  0  0  0  0  0  0  0
  -28.5850  -18.5020   19.5025 C   0  0  0  0  0  0  0  0  0  0  0  0
  -24.4484  -22.6215   17.4862 C   0  0  1  0  0  0  0  0  0  0  0  0
  -23.6544  -24.1171   20.8871 C   0  0  1  0  0  0  0  0  0  0  0  0
  -29.5405  -17.6789   20.3800 C   0  0  2  0  0  0  0  0  0  0  0  0
  -30.3521  -27.0985   20.1127 C   0  0  0  0  0  0  0  0  0  0  0  0
  -20.4679  -30.4400   24.0288 C   0  0  0  0  0  0  0  0  0  0  0  0
  -32.4455  -21.5865   18.1658 C   0  0  0  0  0  0  0  0  0  0  0  0
  -32.5038  -23.6840   16.8418 C   0  0  0  0  0  0  0  0  0  0  0  0
  -23.4290  -28.1150   18.5792 C   0  0  0  0  0  0  0  0  0  0  0  0
  -22.5822  -30.0718   19.8916 C   0  0  0  0  0  0  0  0  0  0  0  0
  -20.9980  -28.2988   19.1369 C   0  0  0  0  0  0  0  0  0  0  0  0
  -28.4411  -22.7751   19.0469 C   0  0  0  0  0  0  0  0  0  0  0  0
  -21.6753  -27.3445   25.8824 C   0  0  0  0  0  0  0  0  0  0  0  0
  -31.5590  -26.2009   22.6399 C   0  0  0  0  0  0  0  0  0  0  0  0
  -31.5069  -25.3940   23.9391 C   0  0  0  0  0  0  0  0  0  0  0  0
  -30.2901  -22.6444   17.4190 C   0  0  0  0  0  0  0  0  0  0  0  0
  -30.2417  -24.5555   24.0788 C   0  0  0  0  0  0  0  0  0  1  0  0
  -22.6198  -27.7962   21.0102 C   0  0  1  0  0  0  0  0  0  0  0  0
  -20.8978  -28.9881   24.1699 C   0  0  2  0  0  0  0  0  0  0  0  0
  -31.7190  -22.9671   17.9902 C   0  0  0  0  0  0  0  0  0  0  0  0
  -22.4265  -28.5528   19.6657 C   0  0  0  0  0  0  0  0  0  0  0  0
  -32.2114  -24.1538   21.5026 N   0  0  0  0  0  0  0  0  0  0  0  0
  -27.9283  -15.8220   20.1940 N   0  0  0  0  0  0  0  0  0  0  0  0
  -31.0557  -25.0211   19.0990 N   0  0  0  0  0  0  0  0  0  0  0  0
  -29.2095  -16.1985   20.3458 N   0  0  0  0  0  0  0  0  0  0  0  0
  -23.6307  -25.5460   21.2065 N   0  0  0  0  0  0  0  0  0  0  0  0
  -28.9229  -19.9265   19.5523 N   0  0  0  0  0  0  0  0  0  0  0  0
  -31.4072  -15.3556   20.6109 N   0  0  0  0  0  0  0  0  0  0  0  0
  -28.8859  -11.6196   20.3235 N   0  0  0  0  0  0  0  0  0  0  0  0
  -23.9030  -22.9357   18.7894 N   0  0  0  0  0  0  0  0  0  0  0  0
  -21.6667  -28.1710   22.0492 N   0  0  0  0  0  0  0  0  0  0  0  0
  -29.4473  -21.9495   18.3818 N   0  0  0  0  0  0  0  0  0  0  0  0
  -21.2555  -28.7403   25.5952 N   0  3  0  0  0  0  0  0  0  0  0  0
  -31.0225  -12.4079   20.5926 O   0  0  0  0  0  0  0  0  0  0  0  0
  -25.2760  -24.7483   19.2912 O   0  0  0  0  0  0  0  0  0  0  0  0
  -21.4484  -25.8164   20.4314 O   0  0  0  0  0  0  0  0  0  0  0  0
  -23.2435  -28.8517   23.6072 O   0  0  0  0  0  0  0  0  0  0  0  0
  -29.9242  -19.8850   17.4775 O   0  0  0  0  0  0  0  0  0  0  0  0
  -23.3581  -11.4199   19.6613 O   0  0  0  0  0  0  0  0  0  0  0  0
  -29.1099  -25.4237   24.0378 O   0  0  0  0  0  0  0  0  0  1  0  0
  -22.6970   -7.1417   23.0766 F   0  0  0  0  0  0  0  0  0  0  0  0
  -25.1899   -9.3500   19.7130 F   0  0  0  0  0  0  0  0  0  0  0  0
  1  2  1  0  0  0  0
  1  5  2  0  0  0  0
  2  6  2  0  0  0  0
  3  8  2  0  0  0  0
  3 16  1  0  0  0  0
  4  9  1  0  0  0  0
  4 16  2  0  0  0  0
  5 18  1  0  0  0  0
  6 20  1  0  0  0  0
  7 10  2  0  0  0  0
  7 19  1  0  0  0  0
  8 22  1  0  0  0  0
  9 22  2  0  0  0  0
 10 23  1  0  0  0  0
 11 12  2  0  0  0  0
 11 24  1  0  0  0  0
 12 25  1  0  0  0  0
 13 21  1  0  0  0  0
 13 23  2  0  0  0  0
 14 25  2  0  0  0  0
 14 26  1  0  0  0  0
 15 28  1  0  0  0  0
 15 66  2  0  0  0  0
 16 27  1  0  0  0  0
 17 27  1  0  0  0  0
 17 31  2  0  0  0  0
 17 32  1  0  0  0  0
 18 20  2  0  0  0  0
 18 37  1  0  0  0  0
 19 21  2  0  0  0  0
 19 38  1  0  0  0  0
 20 46  1  0  0  0  0
 21 39  1  0  0  0  0
 22 83  1  0  0  0  0
 23 84  1  0  0  0  0
 24 26  2  0  0  0  0
 24 83  1  0  0  0  0
 25 85  1  0  0  0  0
 26 86  1  0  0  0  0
 27 67  2  0  0  0  0
 28 64  1  0  0  0  0
 28 68  2  0  0  0  0
 29 30  2  0  0  0  0
 29 49  1  0  0  0  0
 29 68  1  0  0  0  0
 30 58  1  0  0  0  0
 30 66  1  0  0  0  0
 31 69  1  0  0  0  0
 31 72  1  0  0  0  0
 32 73  1  0  0  0  0
 32 78  2  0  0  0  0
 33 47  1  0  0  0  0
 33 74  1  0  0  0  0
 33 79  2  0  0  0  0
 34 62  1  0  0  0  0
 34 70  1  0  0  0  0
 34 80  2  0  0  0  0
 35 63  1  0  0  0  0
 35 75  1  0  0  0  0
 35 81  2  0  0  0  0
 36 71  1  0  0  0  0
 36 76  1  0  0  0  0
 36 82  2  0  0  0  0
 37 40  1  0  0  0  0
 38 47  1  0  0  0  0
 39 70  1  0  0  0  0
 40 42  1  0  0  0  0
 41 43  1  0  0  0  0
 41 44  1  0  0  0  0
 42 46  1  0  0  0  0
 43 48  1  0  0  0  0
 44 71  1  0  0  0  0
 45 48  1  0  0  0  0
 45 71  1  0  0  0  0
 46 74  1  0  0  0  0
 47 70  1  0  0  0  0
 48 69  1  0  0  0  0
 50 63  1  0  0  0  0
 51 64  1  0  0  0  0
 52 64  1  0  0  0  0
 53 65  1  0  0  0  0
 54 65  1  0  0  0  0
 55 65  1  0  0  0  0
 56 76  1  0  0  0  0
 57 77  1  0  0  0  0
 58 59  1  0  0  0  0
 59 61  1  0  0  0  0
 60 64  1  0  0  0  0
 60 76  1  0  0  0  0
 61 84  1  0  0  0  0
 62 65  1  0  0  0  0
 62 75  1  0  0  0  0
 63 77  1  0  0  0  0
 67 69  1  0  0  0  0
M  CHG  1  77   1
M  ISO  4  36 100  61 101  76 100  84 101
M  END
> <Batch ID>
0073

> <Smiles>
CNC(C)C(=O)NC(C(=O)N1Cc2cc([101O:1][101CH2:1]CCc3ncc(C(C)(C)C[100N:0](C)[100C:0](=O)N4CCCC(n5nc(-c6ccc(Oc7ccc(F)cc7F)cc6)c(C(N)=O)c5N)C4)nc3C)ccc2CC1C(=O)NC1CCCc2ccccc21)C(C)(C)C

> <Shape>
0.217

> <Color>
0.070

> <Negative vol penalty>
0.000

$$$$

  -OEChem-04052318273D

 83 91  0     1  0  0  0  0  0999 V2000
  -21.3346  -12.8764   20.9539 C   0  0  0  0  0  0  0  0  0  0  0  0
  -21.6225  -14.1600   21.4066 C   0  0  0  0  0  0  0  0  0  0  0  0
  -21.7987  -24.1824   22.1436 C   0  0  0  0  0  0  0  0  0  0  0  0
  -22.1663  -24.6395   24.4873 C   0  0  0  0  0  0  0  0  0  0  0  0
  -22.3721  -12.0104   20.6110 C   0  0  0  0  0  0  0  0  0  0  0  0
  -22.9481  -14.5779   21.5176 C   0  0  0  0  0  0  0  0  0  0  0  0
  -25.1252  -20.2167   20.5323 C   0  0  0  0  0  0  0  0  0  0  0  0
  -21.7887  -22.8137   22.4122 C   0  0  0  0  0  0  0  0  0  0  0  0
  -22.1562  -23.2708   24.7559 C   0  0  0  0  0  0  0  0  0  0  0  0
  -25.4456  -21.2627   21.3965 C   0  0  0  0  0  0  0  0  0  0  0  0
  -21.8673  -19.9103   26.1129 C   0  0  0  0  0  0  0  0  0  0  0  0
  -21.1336  -19.4702   27.2145 C   0  0  0  0  0  0  0  0  0  0  0  0
  -26.3259  -28.5222   26.0870 C   0  0  0  0  0  0  0  0  0  0  0  0
  -27.7545  -20.5644   21.3759 C   0  0  0  0  0  0  0  0  0  0  0  0
  -19.1207  -20.3828   26.2386 C   0  0  0  0  0  0  0  0  0  0  0  0
  -26.8426  -27.2456   26.1048 C   0  0  0  0  0  0  0  0  0  0  0  0
  -27.8608  -28.3560   24.4480 C   0  0  0  0  0  0  0  0  0  0  0  0
  -21.9876  -25.0953   23.1812 C   0  0  0  0  0  0  0  0  0  0  0  0
  -20.8961  -27.3847   22.9067 C   0  0  0  0  0  0  0  0  0  0  0  0
  -23.7108  -12.4212   20.7086 C   0  0  0  0  0  0  0  0  0  0  0  0
  -26.1168  -19.3286   20.0913 C   0  0  0  0  0  0  0  0  0  0  0  0
  -24.0045  -13.7162   21.1769 C   0  0  0  0  0  0  0  0  0  0  0  0
  -27.4445  -19.5095   20.5041 C   0  0  0  0  0  0  0  0  0  0  0  0
  -26.9701  -29.2248   25.0389 C   0  0  0  0  0  0  0  0  0  0  0  0
  -21.9674  -22.3579   23.7183 C   0  0  0  0  0  0  0  0  0  0  0  0
  -26.7599  -21.4350   21.8208 C   0  0  0  0  0  0  0  0  0  0  0  0
  -21.2277  -20.5867   25.0741 C   0  0  0  0  0  0  0  0  0  0  0  0
  -19.7603  -19.7064   27.2774 C   0  0  0  0  0  0  0  0  0  0  0  0
  -19.8544  -20.8230   25.1370 C   0  0  0  0  0  0  0  0  0  0  0  0
  -21.9987  -26.5093   22.9044 C   0  0  0  0  0  0  0  0  0  0  0  0
  -21.4291  -28.6090   22.5852 C   0  0  0  0  0  0  0  0  0  0  0  0
  -19.5138  -27.1152   23.1756 C   0  0  0  0  0  0  0  0  0  0  0  0
  -26.6187  -16.2033   20.3810 C   0  0  0  0  0  0  0  0  0  0  0  0
  -29.0726  -16.8036   18.3463 C   0  0  0  0  0  0  0  0  0  0  0  0
  -26.9717  -30.8537   23.1796 C   0  0  0  0  0  0  0  0  0  0  0  0
  -31.2912  -19.0605   17.0690 C   0  0  0  0  0  0  0  0  0  0  0  0
  -24.7997  -11.4337   20.3714 C   0  0  0  0  0  0  0  0  0  0  0  0
  -25.7596  -18.2214   19.1380 C   0  0  0  0  0  0  0  0  0  0  0  0
  -28.5497  -18.5957   20.0435 C   0  0  0  0  0  0  0  0  0  0  0  0
  -26.1659  -12.0816   20.1614 C   0  0  0  0  0  0  0  0  0  0  0  0
  -25.0321  -30.6172   20.1760 C   0  0  0  0  0  0  0  0  0  0  0  0
  -26.4604  -13.0799   21.2765 C   0  0  0  0  0  0  0  0  0  0  0  0
  -23.9512  -29.5953   20.5261 C   0  0  0  0  0  0  0  0  0  0  0  0
  -26.3573  -30.2827   20.8535 C   0  0  0  0  0  0  0  0  0  0  0  0
  -25.1806  -29.1148   22.6901 C   0  0  0  0  0  0  0  0  0  0  0  0
  -25.4291  -14.2148   21.2874 C   0  0  1  0  0  0  0  0  0  0  0  0
  -26.7582  -17.0683   19.1604 C   0  0  1  0  0  0  0  0  0  0  0  0
  -23.8174  -29.4326   22.0506 C   0  0  2  0  0  0  0  0  0  0  0  0
  -33.1992  -19.2473   15.4498 C   0  0  0  0  0  0  0  0  0  0  0  0
  -29.4948  -25.5384   25.9487 C   0  0  0  0  0  0  0  0  0  0  0  0
  -27.6822  -31.6006   25.4142 C   0  0  0  0  0  0  0  0  0  0  0  0
  -25.2839  -31.1775   24.8637 C   0  0  0  0  0  0  0  0  0  0  0  0
  -30.9121  -15.4351   20.3596 C   0  0  0  0  0  0  0  0  0  0  0  0
  -32.8610  -16.4729   19.1794 C   0  0  0  0  0  0  0  0  0  0  0  0
  -31.3800  -14.8720   17.9683 C   0  0  0  0  0  0  0  0  0  0  0  0
  -29.8384  -21.0303   15.4052 C   0  0  0  0  0  0  0  0  0  0  0  0
  -27.1497  -24.8374   22.9432 C   0  0  0  0  0  0  0  0  0  0  0  0
  -27.7139  -24.7105   24.3608 C   0  0  0  0  0  0  0  0  0  0  0  0
  -26.2842  -23.6392   22.5766 C   0  0  0  0  0  0  0  0  0  1  0  0
  -30.5235  -17.1893   18.5055 C   0  0  1  0  0  0  0  0  0  0  0  0
  -31.6961  -19.3773   15.6407 C   0  0  2  0  0  0  0  0  0  0  0  0
  -28.5864  -25.9157   24.7719 C   0  0  1  0  0  0  0  0  0  0  0  0
  -26.7327  -30.6285   24.6514 C   0  0  0  0  0  0  0  0  0  0  0  0
  -31.3982  -16.0085   19.0136 C   0  0  0  0  0  0  0  0  0  0  0  0
  -23.1454  -27.1252   22.6049 N   0  0  0  0  0  0  0  0  0  0  0  0
  -27.7745  -27.1558   25.1040 N   0  0  0  0  0  0  0  0  0  0  0  0
  -22.7663  -28.4006   22.4160 N   0  0  0  0  0  0  0  0  0  0  0  0
  -28.1490  -17.5242   19.1168 N   0  0  0  0  0  0  0  0  0  0  0  0
  -26.1838  -30.1142   22.2974 N   0  0  0  0  0  0  0  0  0  0  0  0
  -20.8797  -29.8327   22.4334 N   0  0  0  0  0  0  0  0  0  0  0  0
  -19.1380  -25.8020   23.4899 N   0  0  0  0  0  0  0  0  0  0  0  0
  -25.7151  -15.1678   20.2365 N   0  0  0  0  0  0  0  0  0  0  0  0
  -30.9444  -17.7345   17.2194 N   0  0  0  0  0  0  0  0  0  0  0  0
  -31.2957  -20.7681   15.2852 N   0  3  0  0  0  0  0  0  0  0  0  0
  -18.6354  -28.0091   23.1222 O   0  0  0  0  0  0  0  0  0  0  0  0
  -27.2828  -16.4557   21.3795 O   0  0  0  0  0  0  0  0  0  0  0  0
  -28.7693  -15.9014   17.5618 O   0  0  0  0  0  0  0  0  0  0  0  0
  -27.8314  -31.6652   22.8266 O   0  0  0  0  0  0  0  0  0  0  0  0
  -31.2868  -19.9041   17.9628 O   0  0  0  0  0  0  0  0  0  0  0  0
  -21.9573  -21.0223   23.9807 O   0  0  0  0  0  0  0  0  0  0  0  0
  -27.0753  -22.4548   22.6648 O   0  0  0  0  0  0  0  0  0  1  0  0
  -19.0556  -19.2824   28.3346 F   0  0  0  0  0  0  0  0  0  0  0  0
  -19.2342  -21.4713   24.1415 F   0  0  0  0  0  0  0  0  0  0  0  0
  1  2  1  0  0  0  0
  1  5  2  0  0  0  0
  2  6  2  0  0  0  0
  3  8  2  0  0  0  0
  3 18  1  0  0  0  0
  4  9  1  0  0  0  0
  4 18  2  0  0  0  0
  5 20  1  0  0  0  0
  6 22  1  0  0  0  0
  7 10  2  0  0  0  0
  7 21  1  0  0  0  0
  8 25  1  0  0  0  0
  9 25  2  0  0  0  0
 10 26  1  0  0  0  0
 11 12  2  0  0  0  0
 11 27  1  0  0  0  0
 12 28  1  0  0  0  0
 13 16  2  0  0  0  0
 13 24  1  0  0  0  0
 14 23  1  0  0  0  0
 14 26  2  0  0  0  0
 15 28  2  0  0  0  0
 15 29  1  0  0  0  0
 16 66  1  0  0  0  0
 17 24  2  0  0  0  0
 17 66  1  0  0  0  0
 18 30  1  0  0  0  0
 19 30  1  0  0  0  0
 19 31  2  0  0  0  0
 19 32  1  0  0  0  0
 20 22  2  0  0  0  0
 20 37  1  0  0  0  0
 21 23  2  0  0  0  0
 21 38  1  0  0  0  0
 22 46  1  0  0  0  0
 23 39  1  0  0  0  0
 24 63  1  0  0  0  0
 25 80  1  0  0  0  0
 26 81  1  0  0  0  0
 27 29  2  0  0  0  0
 27 80  1  0  0  0  0
 28 82  1  0  0  0  0
 29 83  1  0  0  0  0
 30 65  2  0  0  0  0
 31 67  1  0  0  0  0
 31 70  1  0  0  0  0
 32 71  1  0  0  0  0
 32 75  2  0  0  0  0
 33 47  1  0  0  0  0
 33 72  1  0  0  0  0
 33 76  2  0  0  0  0
 34 60  1  0  0  0  0
 34 68  1  0  0  0  0
 34 77  2  0  0  0  0
 35 63  1  0  0  0  0
 35 69  1  0  0  0  0
 35 78  2  0  0  0  0
 36 61  1  0  0  0  0
 36 73  1  0  0  0  0
 36 79  2  0  0  0  0
 37 40  1  0  0  0  0
 38 47  1  0  0  0  0
 39 68  1  0  0  0  0
 40 42  1  0  0  0  0
 41 43  1  0  0  0  0
 41 44  1  0  0  0  0
 42 46  1  0  0  0  0
 43 48  1  0  0  0  0
 44 69  1  0  0  0  0
 45 48  1  0  0  0  0
 45 69  1  0  0  0  0
 46 72  1  0  0  0  0
 47 68  1  0  0  0  0
 48 67  1  0  0  0  0
 49 61  1  0  0  0  0
 50 62  1  0  0  0  0
 51 63  1  0  0  0  0
 52 63  1  0  0  0  0
 53 64  1  0  0  0  0
 54 64  1  0  0  0  0
 55 64  1  0  0  0  0
 56 74  1  0  0  0  0
 57 58  1  0  0  0  0
 57 59  1  0  0  0  0
 58 62  1  0  0  0  0
 59 81  1  0  0  0  0
 60 64  1  0  0  0  0
 60 73  1  0  0  0  0
 61 74  1  0  0  0  0
 62 66  1  0  0  0  0
 65 67  1  0  0  0  0
M  CHG  1  74   1
M  ISO  4  35 100  59 101  63 100  81 101
M  END
> <Batch ID>
0073

> <Smiles>
CNC(C)C(=O)NC(C(=O)N1Cc2cc([101O:1][101CH2:1]CCC(C)n3ccc([100C:0](C)(C)[100C:0](=O)N4CCCC(n5nc(-c6ccc(Oc7ccc(F)cc7F)cc6)c(C(N)=O)c5N)C4)c3)ccc2CC1C(=O)NC1CCCc2ccccc21)C(C)(C)C

> <Shape>
0.204

> <Color>
0.078

> <Negative vol penalty>
0.000

$$$$

  -OEChem-04052318273D

 87 95  0     1  0  0  0  0  0999 V2000
  -26.7639  -31.5713   26.7239 C   0  0  0  0  0  0  0  0  0  0  0  0
  -26.6942  -30.8485   25.5372 C   0  0  0  0  0  0  0  0  0  0  0  0
  -26.8918  -15.1981   21.8648 C   0  0  0  0  0  0  0  0  0  0  0  0
  -26.7266  -15.8874   19.5551 C   0  0  0  0  0  0  0  0  0  0  0  0
  -26.1593  -31.0747   27.8778 C   0  0  0  0  0  0  0  0  0  0  0  0
  -26.0206  -29.6280   25.5042 C   0  0  0  0  0  0  0  0  0  0  0  0
  -23.0268  -29.1705   21.4455 C   0  0  0  0  0  0  0  0  0  0  0  0
  -25.6519  -14.5671   21.7652 C   0  0  0  0  0  0  0  0  0  0  0  0
  -25.4867  -15.2563   19.4555 C   0  0  0  0  0  0  0  0  0  0  0  0
  -23.6405  -28.8564   20.2338 C   0  0  0  0  0  0  0  0  0  0  0  0
  -24.4224  -11.6735   20.5210 C   0  0  0  0  0  0  0  0  0  0  0  0
  -24.3020  -10.3923   21.0592 C   0  0  0  0  0  0  0  0  0  0  0  0
  -22.9938  -26.5491   20.5112 C   0  0  0  0  0  0  0  0  0  0  0  0
  -22.5753  -11.1822   22.5531 C   0  0  0  0  0  0  0  0  0  0  0  0
  -30.1943  -26.7886   18.5911 C   0  0  0  0  0  0  0  0  0  0  0  0
  -27.4292  -15.8584   20.7598 C   0  0  0  0  0  0  0  0  0  0  0  0
  -29.9738  -15.9479   20.6035 C   0  0  0  0  0  0  0  0  0  0  0  0
  -25.4697  -29.8521   27.8566 C   0  0  0  0  0  0  0  0  0  0  0  0
  -22.4003  -28.1726   22.2058 C   0  0  0  0  0  0  0  0  0  0  0  0
  -25.4074  -29.1139   26.6593 C   0  0  0  0  0  0  0  0  0  0  0  0
  -22.3706  -26.8535   21.7310 C   0  0  0  0  0  0  0  0  0  0  0  0
  -24.9493  -14.5961   20.5605 C   0  0  0  0  0  0  0  0  0  0  0  0
  -23.6266  -27.5450   19.7678 C   0  0  0  0  0  0  0  0  0  0  0  0
  -23.6193  -12.7090   20.9988 C   0  0  0  0  0  0  0  0  0  0  0  0
  -23.3784  -10.1466   22.0752 C   0  0  0  0  0  0  0  0  0  0  0  0
  -22.6957  -12.4634   22.0148 C   0  0  0  0  0  0  0  0  0  0  0  0
  -28.7097  -16.5109   20.8622 C   0  0  0  0  0  0  0  0  0  0  0  0
  -28.9604  -27.3126   18.9083 C   0  0  0  0  0  0  0  0  0  0  0  0
  -30.0210  -25.3230   20.3379 C   0  0  0  0  0  0  0  0  0  0  0  0
  -28.7875  -25.8474   20.6556 C   0  0  0  0  0  0  0  0  0  0  0  0
  -30.8602  -16.9692   20.8440 C   0  0  0  0  0  0  0  0  0  0  0  0
  -30.3162  -14.6205   20.1834 C   0  0  0  0  0  0  0  0  0  0  0  0
  -22.8454  -26.9510   25.1064 C   0  0  0  0  0  0  0  0  0  0  0  0
  -30.1573  -22.8632   20.6392 C   0  0  0  0  0  0  0  0  0  0  0  0
  -20.1125  -25.3428   24.4230 C   0  0  0  0  0  0  0  0  0  0  0  0
  -17.9974  -24.1018   22.0495 C   0  0  0  0  0  0  0  0  0  0  0  0
  -24.8725  -29.3331   29.1406 C   0  0  0  0  0  0  0  0  0  0  0  0
  -21.7196  -28.5325   23.4979 C   0  0  0  0  0  0  0  0  0  0  0  0
  -21.6938  -25.7491   22.4996 C   0  0  0  0  0  0  0  0  0  0  0  0
  -23.8577  -28.2121   28.9309 C   0  0  0  0  0  0  0  0  0  0  0  0
  -31.4007  -20.9311   23.4584 C   0  0  0  0  0  0  0  0  0  0  0  0
  -24.4023  -27.1749   27.9539 C   0  0  0  0  0  0  0  0  0  0  0  0
  -30.9351  -19.5224   23.0926 C   0  0  0  0  0  0  0  0  0  0  0  0
  -30.3932  -21.9883   23.0142 C   0  0  0  0  0  0  0  0  0  0  0  0
  -29.5912  -20.5189   21.1916 C   0  0  0  0  0  0  0  0  0  0  0  0
  -24.6647  -27.7979   26.5775 C   0  0  1  0  0  0  0  0  0  0  0  0
  -21.5574  -27.3431   24.4394 C   0  0  1  0  0  0  0  0  0  0  0  0
  -30.5941  -19.4252   21.5953 C   0  0  2  0  0  0  0  0  0  0  0  0
  -32.1513  -24.2385   21.1613 C   0  0  0  0  0  0  0  0  0  0  0  0
  -15.8662  -22.8015   21.7961 C   0  0  0  0  0  0  0  0  0  0  0  0
  -21.6041  -22.7698   25.1045 C   0  0  0  0  0  0  0  0  0  0  0  0
  -19.7885  -21.4928   23.9465 C   0  0  0  0  0  0  0  0  0  0  0  0
  -19.2549  -22.8706   25.9563 C   0  0  0  0  0  0  0  0  0  0  0  0
  -16.6577  -26.3453   20.6599 C   0  0  0  0  0  0  0  0  0  0  0  0
  -28.3730  -28.4360   18.0917 C   0  0  0  0  0  0  0  0  0  0  0  0
  -27.5176  -27.9619   16.9116 C   0  0  0  0  0  0  0  0  0  0  0  0
  -26.2800  -27.1759   17.3468 C   0  0  0  0  0  0  0  0  0  0  0  0
  -26.1570  -25.2826   23.1568 C   0  0  0  0  0  0  0  0  0  0  0  0
  -25.9336  -23.8037   22.8911 C   0  0  0  0  0  0  0  0  0  0  0  0
  -25.3490  -28.0265   18.2001 C   0  0  0  0  0  0  0  0  0  1  0  0
  -26.8045  -25.9691   21.9628 C   0  0  0  0  0  0  0  0  0  0  0  0
  -30.6163  -24.2120   21.1330 C   0  0  1  0  0  0  0  0  0  0  0  0
  -19.7841  -24.0225   23.7688 C   0  0  1  0  0  0  0  0  0  0  0  0
  -16.4889  -24.1849   21.9020 C   0  0  2  0  0  0  0  0  0  0  0  0
  -20.1224  -22.8091   24.6803 C   0  0  0  0  0  0  0  0  0  0  0  0
  -30.7467  -25.7844   19.3002 N   0  0  0  0  0  0  0  0  0  0  0  0
  -28.7823  -17.7905   21.2383 N   0  0  0  0  0  0  0  0  0  0  0  0
  -28.2349  -26.8514   19.9463 N   0  0  0  0  0  0  0  0  0  0  0  0
  -30.1027  -18.0400   21.2179 N   0  0  0  0  0  0  0  0  0  0  0  0
  -21.0478  -26.1501   23.7603 N   0  0  0  0  0  0  0  0  0  0  0  0
  -30.0741  -21.8445   21.5888 N   0  0  0  0  0  0  0  0  0  0  0  0
  -32.2059  -17.0467   20.7701 N   0  0  0  0  0  0  0  0  0  0  0  0
  -29.2823  -13.6959   19.9822 N   0  0  0  0  0  0  0  0  0  0  0  0
  -23.4233  -27.9611   25.8516 N   0  0  0  0  0  0  0  0  0  0  0  0
  -18.3818  -24.1003   23.3737 N   0  0  0  0  0  0  0  0  0  0  0  0
  -25.3445  -23.1767   24.0986 N   0  3  0  0  0  0  0  0  0  0  0  0
  -16.1297  -24.9569   20.6789 N   0  3  0  0  0  0  0  0  0  0  0  0
  -31.5049  -14.2602   20.0079 O   0  0  0  0  0  0  0  0  0  0  0  0
  -23.2818  -25.8157   24.9573 O   0  0  0  0  0  0  0  0  0  0  0  0
  -29.8840  -22.7205   19.4446 O   0  0  0  0  0  0  0  0  0  0  0  0
  -19.5542  -25.6497   25.4793 O   0  0  0  0  0  0  0  0  0  0  0  0
  -18.7585  -24.0404   21.0864 O   0  0  0  0  0  0  0  0  0  0  0  0
  -23.7395  -13.9803   20.4629 O   0  0  0  0  0  0  0  0  0  0  0  0
  -24.2255  -27.2356   18.5856 O   0  0  0  0  0  0  0  0  0  1  0  0
  -28.0689  -25.3632   21.7125 O   0  0  0  0  0  0  0  0  0  0  0  0
  -23.2618   -8.9159   22.5909 F   0  0  0  0  0  0  0  0  0  0  0  0
  -21.9206  -13.4539   22.4772 F   0  0  0  0  0  0  0  0  0  0  0  0
  1  2  1  0  0  0  0
  1  5  2  0  0  0  0
  2  6  2  0  0  0  0
  3  8  2  0  0  0  0
  3 16  1  0  0  0  0
  4  9  1  0  0  0  0
  4 16  2  0  0  0  0
  5 18  1  0  0  0  0
  6 20  1  0  0  0  0
  7 10  2  0  0  0  0
  7 19  1  0  0  0  0
  8 22  1  0  0  0  0
  9 22  2  0  0  0  0
 10 23  1  0  0  0  0
 11 12  2  0  0  0  0
 11 24  1  0  0  0  0
 12 25  1  0  0  0  0
 13 21  1  0  0  0  0
 13 23  2  0  0  0  0
 14 25  2  0  0  0  0
 14 26  1  0  0  0  0
 15 28  1  0  0  0  0
 15 66  2  0  0  0  0
 16 27  1  0  0  0  0
 17 27  1  0  0  0  0
 17 31  2  0  0  0  0
 17 32  1  0  0  0  0
 18 20  2  0  0  0  0
 18 37  1  0  0  0  0
 19 21  2  0  0  0  0
 19 38  1  0  0  0  0
 20 46  1  0  0  0  0
 21 39  1  0  0  0  0
 22 83  1  0  0  0  0
 23 84  1  0  0  0  0
 24 26  2  0  0  0  0
 24 83  1  0  0  0  0
 25 86  1  0  0  0  0
 26 87  1  0  0  0  0
 27 67  2  0  0  0  0
 28 55  1  0  0  0  0
 28 68  2  0  0  0  0
 29 30  2  0  0  0  0
 29 62  1  0  0  0  0
 29 66  1  0  0  0  0
 30 68  1  0  0  0  0
 30 85  1  0  0  0  0
 31 69  1  0  0  0  0
 31 72  1  0  0  0  0
 32 73  1  0  0  0  0
 32 78  2  0  0  0  0
 33 47  1  0  0  0  0
 33 74  1  0  0  0  0
 33 79  2  0  0  0  0
 34 62  1  0  0  0  0
 34 71  1  0  0  0  0
 34 80  2  0  0  0  0
 35 63  1  0  0  0  0
 35 70  1  0  0  0  0
 35 81  2  0  0  0  0
 36 64  1  0  0  0  0
 36 75  1  0  0  0  0
 36 82  2  0  0  0  0
 37 40  1  0  0  0  0
 38 47  1  0  0  0  0
 39 70  1  0  0  0  0
 40 42  1  0  0  0  0
 41 43  1  0  0  0  0
 41 44  1  0  0  0  0
 42 46  1  0  0  0  0
 43 48  1  0  0  0  0
 44 71  1  0  0  0  0
 45 48  1  0  0  0  0
 45 71  1  0  0  0  0
 46 74  1  0  0  0  0
 47 70  1  0  0  0  0
 48 69  1  0  0  0  0
 49 62  1  0  0  0  0
 50 64  1  0  0  0  0
 51 65  1  0  0  0  0
 52 65  1  0  0  0  0
 53 65  1  0  0  0  0
 54 77  1  0  0  0  0
 55 56  1  0  0  0  0
 56 57  1  0  0  0  0
 57 60  1  0  0  0  0
 58 59  1  0  0  0  0
 58 61  1  0  0  0  0
 59 76  1  0  0  0  0
 60 84  1  0  0  0  0
 61 85  1  0  0  0  0
 63 65  1  0  0  0  0
 63 75  1  0  0  0  0
 64 77  1  0  0  0  0
 67 69  1  0  0  0  0
M  CHG  2  76   1  77   1
M  ISO  4  34 100  60 101  62 100  84 101
M  END
> <Batch ID>
0073

> <Smiles>
CNC(C)C(=O)NC(C(=O)N1Cc2cc([101O:1][101CH2:1]CCCc3cnc([100CH:0](C)[100C:0](=O)N4CCCC(n5nc(-c6ccc(Oc7ccc(F)cc7F)cc6)c(C(N)=O)c5N)C4)c(OCCCN)n3)ccc2CC1C(=O)NC1CCCc2ccccc21)C(C)(C)C

> <Shape>
0.233

> <Color>
0.053

> <Negative vol penalty>
0.000

$$$$

  -OEChem-04052318273D

 87 95  0     1  0  0  0  0  0999 V2000
  -24.9345  -27.4420   28.0695 C   0  0  0  0  0  0  0  0  0  0  0  0
  -25.1443  -26.9326   26.7920 C   0  0  0  0  0  0  0  0  0  0  0  0
  -22.3401  -10.3462   20.8175 C   0  0  0  0  0  0  0  0  0  0  0  0
  -23.7521   -9.6853   22.6632 C   0  0  0  0  0  0  0  0  0  0  0  0
  -23.9280  -28.3818   28.2874 C   0  0  0  0  0  0  0  0  0  0  0  0
  -24.3468  -27.3620   25.7318 C   0  0  0  0  0  0  0  0  0  0  0  0
  -27.0398  -28.3957   21.5696 C   0  0  0  0  0  0  0  0  0  0  0  0
  -21.9713   -9.0152   20.6230 C   0  0  0  0  0  0  0  0  0  0  0  0
  -23.3832   -8.3542   22.4687 C   0  0  0  0  0  0  0  0  0  0  0  0
  -27.4654  -27.3129   20.8014 C   0  0  0  0  0  0  0  0  0  0  0  0
  -22.5342   -4.8259   22.6880 C   0  0  0  0  0  0  0  0  0  0  0  0
  -22.2041   -4.0724   23.8144 C   0  0  0  0  0  0  0  0  0  0  0  0
  -25.6424  -27.6921   19.2678 C   0  0  0  0  0  0  0  0  0  0  0  0
  -20.4146   -5.6143   24.3215 C   0  0  0  0  0  0  0  0  0  0  0  0
  -23.2305  -10.6813   21.8376 C   0  0  0  0  0  0  0  0  0  0  0  0
  -22.9768  -13.0028   22.8642 C   0  0  0  0  0  0  0  0  0  0  0  0
  -23.1240  -28.8301   27.2275 C   0  0  0  0  0  0  0  0  0  0  0  0
  -25.9039  -29.1294   21.1980 C   0  0  0  0  0  0  0  0  0  0  0  0
  -23.3276  -28.3077   25.9360 C   0  0  0  0  0  0  0  0  0  0  0  0
  -25.2059  -28.7854   20.0316 C   0  0  0  0  0  0  0  0  0  0  0  0
  -28.6371  -19.8320   19.4892 C   0  0  0  0  0  0  0  0  0  0  0  0
  -22.4928   -8.0192   21.4486 C   0  0  0  0  0  0  0  0  0  0  0  0
  -26.7650  -26.9592   19.6519 C   0  0  0  0  0  0  0  0  0  0  0  0
  -21.8045   -5.9737   22.3783 C   0  0  0  0  0  0  0  0  0  0  0  0
  -21.1443   -4.4665   24.6312 C   0  0  0  0  0  0  0  0  0  0  0  0
  -20.7447   -6.3678   23.1951 C   0  0  0  0  0  0  0  0  0  0  0  0
  -23.6124  -12.0560   22.0387 C   0  0  0  0  0  0  0  0  0  0  0  0
  -29.8156  -19.2438   19.0775 C   0  0  0  0  0  0  0  0  0  0  0  0
  -28.0352  -19.2564   20.5896 C   0  0  0  0  0  0  0  0  0  0  0  0
  -23.7189  -14.1479   22.7077 C   0  0  0  0  0  0  0  0  0  0  0  0
  -29.6905  -17.7065   20.7473 C   0  0  0  0  0  0  0  0  0  0  0  0
  -21.8192  -12.8599   23.6980 C   0  0  0  0  0  0  0  0  0  0  0  0
  -23.0768  -29.7138   22.5282 C   0  0  0  0  0  0  0  0  0  0  0  0
  -22.7272  -31.6978   19.9859 C   0  0  0  0  0  0  0  0  0  0  0  0
  -29.2047  -15.6699   22.0702 C   0  0  0  0  0  0  0  0  0  0  0  0
  -23.6215  -32.4985   16.7912 C   0  0  0  0  0  0  0  0  0  0  0  0
  -22.0174  -29.8120   27.5208 C   0  0  0  0  0  0  0  0  0  0  0  0
  -25.4734  -30.3112   22.0228 C   0  0  0  0  0  0  0  0  0  0  0  0
  -23.9921  -29.5532   19.5782 C   0  0  0  0  0  0  0  0  0  0  0  0
  -21.4619  -30.4941   26.2732 C   0  0  0  0  0  0  0  0  0  0  0  0
  -26.8595  -15.8376   19.2955 C   0  0  0  0  0  0  0  0  0  0  0  0
  -21.2015  -29.4680   25.1749 C   0  0  0  0  0  0  0  0  0  0  0  0
  -25.7295  -14.9387   19.7956 C   0  0  0  0  0  0  0  0  0  0  0  0
  -28.2249  -15.3281   19.7497 C   0  0  0  0  0  0  0  0  0  0  0  0
  -27.2094  -14.2468   21.7306 C   0  0  0  0  0  0  0  0  0  0  0  0
  -22.4995  -28.7673   24.7557 C   0  0  1  0  0  0  0  0  0  0  0  0
  -24.0030  -30.6697   21.8311 C   0  0  1  0  0  0  0  0  0  0  0  0
  -25.8131  -14.7432   21.3195 C   0  0  2  0  0  0  0  0  0  0  0  0
  -31.6415  -18.8247   17.4111 C   0  0  0  0  0  0  0  0  0  0  0  0
  -26.8729  -20.2280   22.5875 C   0  0  0  0  0  0  0  0  0  0  0  0
  -23.1376  -34.1508   14.9655 C   0  0  0  0  0  0  0  0  0  0  0  0
  -31.2302  -16.9766   22.5883 C   0  0  0  0  0  0  0  0  0  0  0  0
  -31.0766  -15.5317   20.5578 C   0  0  0  0  0  0  0  0  0  0  0  0
  -20.1023  -30.2625   19.3858 C   0  0  0  0  0  0  0  0  0  0  0  0
  -20.1552  -31.2712   17.0949 C   0  0  0  0  0  0  0  0  0  0  0  0
  -20.0218  -32.7460   19.1024 C   0  0  0  0  0  0  0  0  0  0  0  0
  -26.4175  -33.4683   16.7690 C   0  0  0  0  0  0  0  0  0  0  0  0
  -28.0468  -21.0267   18.7836 C   0  0  0  0  0  0  0  0  0  0  0  0
  -30.5567  -19.7810   17.8974 C   0  0  0  0  0  0  0  0  0  0  0  0
  -26.7546  -19.8062   21.1259 C   0  0  0  0  0  0  0  0  0  0  0  0
  -28.2525  -22.3501   19.5290 C   0  0  0  0  0  0  0  0  0  0  0  0
  -27.5811  -23.5374   18.8373 C   0  0  0  0  0  0  0  0  0  0  0  0
  -27.8401  -24.8389   19.5840 C   0  0  0  0  0  0  0  0  0  1  0  0
  -22.1894  -31.5530   18.5827 C   0  0  1  0  0  0  0  0  0  0  0  0
  -24.0212  -33.8190   16.1580 C   0  0  2  0  0  0  0  0  0  0  0  0
  -30.2770  -16.5280   21.4477 C   0  0  0  0  0  0  0  0  0  0  0  0
  -20.6389  -31.4423   18.5508 C   0  0  0  0  0  0  0  0  0  0  0  0
  -24.6762  -12.5563   21.4046 N   0  0  0  0  0  0  0  0  0  0  0  0
  -30.3729  -18.1761   19.6855 N   0  0  0  0  0  0  0  0  0  0  0  0
  -28.5361  -18.1890   21.2454 N   0  0  0  0  0  0  0  0  0  0  0  0
  -24.7148  -13.8299   21.8318 N   0  0  0  0  0  0  0  0  0  0  0  0
  -23.6069  -30.6968   20.4216 N   0  0  0  0  0  0  0  0  0  0  0  0
  -28.2548  -15.1287   21.2036 N   0  0  0  0  0  0  0  0  0  0  0  0
  -23.6100  -15.3858   23.2352 N   0  0  0  0  0  0  0  0  0  0  0  0
  -21.1773  -11.6148   23.7423 N   0  0  0  0  0  0  0  0  0  0  0  0
  -23.2813  -29.6260   23.8920 N   0  0  0  0  0  0  0  0  0  0  0  0
  -22.7240  -32.6776   17.8225 N   0  0  0  0  0  0  0  0  0  0  0  0
  -25.4362  -33.7634   15.6935 N   0  3  0  0  0  0  0  0  0  0  0  0
  -21.3578  -13.8127   24.3708 O   0  0  0  0  0  0  0  0  0  0  0  0
  -22.2378  -29.1023   21.8772 O   0  0  0  0  0  0  0  0  0  0  0  0
  -22.3851  -32.6673   20.6675 O   0  0  0  0  0  0  0  0  0  0  0  0
  -29.2112  -15.4893   23.2907 O   0  0  0  0  0  0  0  0  0  0  0  0
  -24.0586  -31.4161   16.4067 O   0  0  0  0  0  0  0  0  0  0  0  0
  -22.1329   -6.7202   21.2592 O   0  0  0  0  0  0  0  0  0  0  0  0
  -27.1780  -25.9023   18.9006 O   0  0  0  0  0  0  0  0  0  1  0  0
  -20.8265   -3.7420   25.7120 F   0  0  0  0  0  0  0  0  0  0  0  0
  -20.0393   -7.4689   22.9021 F   0  0  0  0  0  0  0  0  0  0  0  0
  1  2  1  0  0  0  0
  1  5  2  0  0  0  0
  2  6  2  0  0  0  0
  3  8  2  0  0  0  0
  3 15  1  0  0  0  0
  4  9  1  0  0  0  0
  4 15  2  0  0  0  0
  5 17  1  0  0  0  0
  6 19  1  0  0  0  0
  7 10  2  0  0  0  0
  7 18  1  0  0  0  0
  8 22  1  0  0  0  0
  9 22  2  0  0  0  0
 10 23  1  0  0  0  0
 11 12  2  0  0  0  0
 11 24  1  0  0  0  0
 12 25  1  0  0  0  0
 13 20  1  0  0  0  0
 13 23  2  0  0  0  0
 14 25  2  0  0  0  0
 14 26  1  0  0  0  0
 15 27  1  0  0  0  0
 16 27  1  0  0  0  0
 16 30  2  0  0  0  0
 16 32  1  0  0  0  0
 17 19  2  0  0  0  0
 17 37  1  0  0  0  0
 18 20  2  0  0  0  0
 18 38  1  0  0  0  0
 19 46  1  0  0  0  0
 20 39  1  0  0  0  0
 21 28  2  0  0  0  0
 21 29  1  0  0  0  0
 21 58  1  0  0  0  0
 22 84  1  0  0  0  0
 23 85  1  0  0  0  0
 24 26  2  0  0  0  0
 24 84  1  0  0  0  0
 25 86  1  0  0  0  0
 26 87  1  0  0  0  0
 27 68  2  0  0  0  0
 28 59  1  0  0  0  0
 28 69  1  0  0  0  0
 29 60  1  0  0  0  0
 29 70  2  0  0  0  0
 30 71  1  0  0  0  0
 30 74  1  0  0  0  0
 31 66  1  0  0  0  0
 31 69  2  0  0  0  0
 31 70  1  0  0  0  0
 32 75  1  0  0  0  0
 32 79  2  0  0  0  0
 33 47  1  0  0  0  0
 33 76  1  0  0  0  0
 33 80  2  0  0  0  0
 34 64  1  0  0  0  0
 34 72  1  0  0  0  0
 34 81  2  0  0  0  0
 35 66  1  0  0  0  0
 35 73  1  0  0  0  0
 35 82  2  0  0  0  0
 36 65  1  0  0  0  0
 36 77  1  0  0  0  0
 36 83  2  0  0  0  0
 37 40  1  0  0  0  0
 38 47  1  0  0  0  0
 39 72  1  0  0  0  0
 40 42  1  0  0  0  0
 41 43  1  0  0  0  0
 41 44  1  0  0  0  0
 42 46  1  0  0  0  0
 43 48  1  0  0  0  0
 44 73  1  0  0  0  0
 45 48  1  0  0  0  0
 45 73  1  0  0  0  0
 46 76  1  0  0  0  0
 47 72  1  0  0  0  0
 48 71  1  0  0  0  0
 49 59  1  0  0  0  0
 50 60  1  0  0  0  0
 51 65  1  0  0  0  0
 52 66  1  0  0  0  0
 53 66  1  0  0  0  0
 54 67  1  0  0  0  0
 55 67  1  0  0  0  0
 56 67  1  0  0  0  0
 57 78  1  0  0  0  0
 58 61  1  0  0  0  0
 61 62  1  0  0  0  0
 62 63  1  0  0  0  0
 63 85  1  0  0  0  0
 64 67  1  0  0  0  0
 64 77  1  0  0  0  0
 65 78  1  0  0  0  0
 68 71  1  0  0  0  0
M  CHG  1  78   1
M  ISO  4  35 100  63 101  66 100  85 101
M  END
> <Batch ID>
0073

> <Smiles>
CCc1nc([100C:0](C)(C)[100C:0](=O)N2CCCC(n3nc(-c4ccc(Oc5ccc(F)cc5F)cc4)c(C(N)=O)c3N)C2)nc(CC)c1CCC[101CH2:1][101O:1]c1ccc2c(c1)CN(C(=O)C(NC(=O)C(C)NC)C(C)(C)C)C(C(=O)NC1CCCc3ccccc31)C2

> <Shape>
0.265

> <Color>
0.095

> <Negative vol penalty>
0.000

$$$$

  -OEChem-04052318273D

 83 91  0     1  0  0  0  0  0999 V2000
  -20.2408  -19.2861   23.1526 C   0  0  0  0  0  0  0  0  0  0  0  0
  -21.5862  -19.6095   23.0084 C   0  0  0  0  0  0  0  0  0  0  0  0
  -21.7379  -28.5752   20.9202 C   0  0  0  0  0  0  0  0  0  0  0  0
  -22.7691  -28.1551   23.0643 C   0  0  0  0  0  0  0  0  0  0  0  0
  -19.8654  -17.9676   23.4065 C   0  0  0  0  0  0  0  0  0  0  0  0
  -22.5570  -18.6147   23.1190 C   0  0  0  0  0  0  0  0  0  0  0  0
  -26.0749  -18.9210   19.4893 C   0  0  0  0  0  0  0  0  0  0  0  0
  -20.5108  -28.1467   21.4264 C   0  0  0  0  0  0  0  0  0  0  0  0
  -21.5420  -27.7266   23.5705 C   0  0  0  0  0  0  0  0  0  0  0  0
  -27.0634  -19.8924   19.6409 C   0  0  0  0  0  0  0  0  0  0  0  0
  -18.7588  -26.1822   25.3250 C   0  0  0  0  0  0  0  0  0  0  0  0
  -18.7444  -25.0152   26.0889 C   0  0  0  0  0  0  0  0  0  0  0  0
  -28.5845  -18.2083   20.4590 C   0  0  0  0  0  0  0  0  0  0  0  0
  -19.6149  -23.7735   24.2081 C   0  0  0  0  0  0  0  0  0  0  0  0
  -30.4357  -23.5448   25.2402 C   0  0  0  0  0  0  0  0  0  0  0  0
  -22.8671  -28.5793   21.7392 C   0  0  0  0  0  0  0  0  0  0  0  0
  -24.6484  -30.3321   21.2269 C   0  0  0  0  0  0  0  0  0  0  0  0
  -20.8314  -16.9544   23.5108 C   0  0  0  0  0  0  0  0  0  0  0  0
  -26.3308  -17.5856   19.8322 C   0  0  0  0  0  0  0  0  0  0  0  0
  -22.1942  -17.2816   23.3759 C   0  0  0  0  0  0  0  0  0  0  0  0
  -27.5984  -17.2214   20.3084 C   0  0  0  0  0  0  0  0  0  0  0  0
  -20.4129  -27.7225   22.7515 C   0  0  0  0  0  0  0  0  0  0  0  0
  -28.3175  -19.5367   20.1286 C   0  0  0  0  0  0  0  0  0  0  0  0
  -19.2011  -26.1449   24.0027 C   0  0  0  0  0  0  0  0  0  0  0  0
  -19.1725  -23.8108   25.5304 C   0  0  0  0  0  0  0  0  0  0  0  0
  -19.6293  -24.9405   23.4442 C   0  0  0  0  0  0  0  0  0  0  0  0
  -24.1351  -29.0213   21.2167 C   0  0  0  0  0  0  0  0  0  0  0  0
  -25.8746  -30.2254   20.6172 C   0  0  0  0  0  0  0  0  0  0  0  0
  -30.4869  -24.7503   23.4366 C   0  0  0  0  0  0  0  0  0  0  0  0
  -24.0688  -31.5383   21.7415 C   0  0  0  0  0  0  0  0  0  0  0  0
  -25.1237  -15.5417   21.9463 C   0  0  0  0  0  0  0  0  0  0  0  0
  -27.0773  -13.4347   20.4409 C   0  0  0  0  0  0  0  0  0  0  0  0
  -29.8690  -12.9152   18.5480 C   0  0  0  0  0  0  0  0  0  0  0  0
  -29.7211  -25.6839   19.9621 C   0  0  0  0  0  0  0  0  0  0  0  0
  -20.3805  -15.5518   23.8330 C   0  0  0  0  0  0  0  0  0  0  0  0
  -25.2624  -16.5450   19.6375 C   0  0  0  0  0  0  0  0  0  0  0  0
  -27.9301  -15.7979   20.6717 C   0  0  0  0  0  0  0  0  0  0  0  0
  -21.4461  -14.4924   23.5637 C   0  0  0  0  0  0  0  0  0  0  0  0
  -28.2276  -27.6152   17.3706 C   0  0  0  0  0  0  0  0  0  0  0  0
  -22.7919  -14.9325   24.1311 C   0  0  0  0  0  0  0  0  0  0  0  0
  -27.0557  -28.3128   18.0633 C   0  0  0  0  0  0  0  0  0  0  0  0
  -28.4391  -26.2010   17.9065 C   0  0  0  0  0  0  0  0  0  0  0  0
  -27.4135  -26.8068   20.0640 C   0  0  0  0  0  0  0  0  0  0  0  0
  -23.2751  -16.2262   23.4645 C   0  0  1  0  0  0  0  0  0  0  0  0
  -25.4700  -15.3061   20.5033 C   0  0  1  0  0  0  0  0  0  0  0  0
  -27.1963  -28.2561   19.5964 C   0  0  2  0  0  0  0  0  0  0  0  0
  -31.6449  -27.5422   23.0012 C   0  0  0  0  0  0  0  0  0  0  0  0
  -31.2309  -11.0818   17.5081 C   0  0  0  0  0  0  0  0  0  0  0  0
  -28.2395  -12.7490   23.1775 C   0  0  0  0  0  0  0  0  0  0  0  0
  -30.1745  -11.6729   22.0088 C   0  0  0  0  0  0  0  0  0  0  0  0
  -27.8682  -10.7815   21.6791 C   0  0  0  0  0  0  0  0  0  0  0  0
  -29.4135  -13.9664   15.8192 C   0  0  0  0  0  0  0  0  0  0  0  0
  -32.0085  -26.3186   22.1688 C   0  0  0  0  0  0  0  0  0  0  0  0
  -31.7399  -21.4826   22.9502 C   0  0  0  0  0  0  0  0  0  0  0  0
  -30.6990  -21.6320   21.8394 C   0  0  0  0  0  0  0  0  0  0  0  0
  -32.2012  -22.8267   23.5248 C   0  0  0  0  0  0  0  0  0  0  0  0
  -30.2391  -20.2771   21.3182 C   0  0  0  0  0  0  0  0  0  1  0  0
  -30.8891  -25.2425   22.1069 C   0  0  2  0  0  0  0  0  0  0  0  0
  -28.5077  -12.9866   20.6207 C   0  0  1  0  0  0  0  0  0  0  0  0
  -30.1004  -12.0782   17.3029 C   0  0  2  0  0  0  0  0  0  0  0  0
  -28.6909  -12.0748   21.8666 C   0  0  0  0  0  0  0  0  0  0  0  0
  -29.5084  -24.4684   25.3564 N   0  0  0  0  0  0  0  0  0  0  0  0
  -24.9670  -28.1462   20.6457 N   0  0  0  0  0  0  0  0  0  0  0  0
  -29.5410  -25.2354   24.2089 N   0  0  0  0  0  0  0  0  0  0  0  0
  -31.0764  -23.6849   24.0466 N   0  0  0  0  0  0  0  0  0  0  0  0
  -26.0155  -28.9086   20.2913 N   0  0  0  0  0  0  0  0  0  0  0  0
  -26.8502  -14.8179   20.4696 N   0  0  0  0  0  0  0  0  0  0  0  0
  -28.5666  -26.2171   19.3657 N   0  0  0  0  0  0  0  0  0  0  0  0
  -26.8351  -31.1305   20.3334 N   0  0  0  0  0  0  0  0  0  0  0  0
  -22.8017  -31.4696   22.3366 N   0  0  0  0  0  0  0  0  0  0  0  0
  -23.8187  -15.9464   22.1528 N   0  0  0  0  0  0  0  0  0  0  0  0
  -28.9017  -12.3641   19.3615 N   0  0  0  0  0  0  0  0  0  0  0  0
  -29.7643  -25.7446   21.3496 N   0  0  0  0  0  0  0  0  0  0  0  0
  -30.4489  -12.9531   16.1479 N   0  3  0  0  0  0  0  0  0  0  0  0
  -24.6499  -32.6470   21.6609 O   0  0  0  0  0  0  0  0  0  0  0  0
  -25.9768  -15.3678   22.8086 O   0  0  0  0  0  0  0  0  0  0  0  0
  -26.1951  -12.5889   20.2738 O   0  0  0  0  0  0  0  0  0  0  0  0
  -30.4874  -13.9522   18.7779 O   0  0  0  0  0  0  0  0  0  0  0  0
  -30.6474  -25.1950   19.3063 O   0  0  0  0  0  0  0  0  0  0  0  0
  -19.2156  -27.3045   23.2459 O   0  0  0  0  0  0  0  0  0  0  0  0
  -29.2839  -20.4830   20.2782 O   0  0  0  0  0  0  0  0  0  1  0  0
  -19.1601  -22.6905   26.2645 F   0  0  0  0  0  0  0  0  0  0  0  0
  -20.0565  -24.8987   22.1747 F   0  0  0  0  0  0  0  0  0  0  0  0
  1  2  1  0  0  0  0
  1  5  2  0  0  0  0
  2  6  2  0  0  0  0
  3  8  2  0  0  0  0
  3 16  1  0  0  0  0
  4  9  1  0  0  0  0
  4 16  2  0  0  0  0
  5 18  1  0  0  0  0
  6 20  1  0  0  0  0
  7 10  2  0  0  0  0
  7 19  1  0  0  0  0
  8 22  1  0  0  0  0
  9 22  2  0  0  0  0
 10 23  1  0  0  0  0
 11 12  2  0  0  0  0
 11 24  1  0  0  0  0
 12 25  1  0  0  0  0
 13 21  1  0  0  0  0
 13 23  2  0  0  0  0
 14 25  2  0  0  0  0
 14 26  1  0  0  0  0
 15 62  2  0  0  0  0
 15 65  1  0  0  0  0
 16 27  1  0  0  0  0
 17 27  1  0  0  0  0
 17 28  2  0  0  0  0
 17 30  1  0  0  0  0
 18 20  2  0  0  0  0
 18 35  1  0  0  0  0
 19 21  2  0  0  0  0
 19 36  1  0  0  0  0
 20 44  1  0  0  0  0
 21 37  1  0  0  0  0
 22 80  1  0  0  0  0
 23 81  1  0  0  0  0
 24 26  2  0  0  0  0
 24 80  1  0  0  0  0
 25 82  1  0  0  0  0
 26 83  1  0  0  0  0
 27 63  2  0  0  0  0
 28 66  1  0  0  0  0
 28 69  1  0  0  0  0
 29 58  1  0  0  0  0
 29 64  2  0  0  0  0
 29 65  1  0  0  0  0
 30 70  1  0  0  0  0
 30 75  2  0  0  0  0
 31 45  1  0  0  0  0
 31 71  1  0  0  0  0
 31 76  2  0  0  0  0
 32 59  1  0  0  0  0
 32 67  1  0  0  0  0
 32 77  2  0  0  0  0
 33 60  1  0  0  0  0
 33 72  1  0  0  0  0
 33 78  2  0  0  0  0
 34 68  1  0  0  0  0
 34 73  1  0  0  0  0
 34 79  2  0  0  0  0
 35 38  1  0  0  0  0
 36 45  1  0  0  0  0
 37 67  1  0  0  0  0
 38 40  1  0  0  0  0
 39 41  1  0  0  0  0
 39 42  1  0  0  0  0
 40 44  1  0  0  0  0
 41 46  1  0  0  0  0
 42 68  1  0  0  0  0
 43 46  1  0  0  0  0
 43 68  1  0  0  0  0
 44 71  1  0  0  0  0
 45 67  1  0  0  0  0
 46 66  1  0  0  0  0
 47 53  1  0  0  0  0
 48 60  1  0  0  0  0
 49 61  1  0  0  0  0
 50 61  1  0  0  0  0
 51 61  1  0  0  0  0
 52 74  1  0  0  0  0
 53 58  1  0  0  0  0
 54 55  1  0  0  0  0
 54 56  1  0  0  0  0
 55 57  1  0  0  0  0
 56 65  1  0  0  0  0
 57 81  1  0  0  0  0
 58 73  1  0  0  0  0
 59 61  1  0  0  0  0
 59 72  1  0  0  0  0
 60 74  1  0  0  0  0
 62 64  1  0  0  0  0
 63 66  1  0  0  0  0
M  CHG  1  74   1
M  ISO  4  34 100  57 101  73 100  81 101
M  END
> <Batch ID>
0073

> <Smiles>
CCC([100NH:0][100C:0](=O)N1CCCC(n2nc(-c3ccc(Oc4ccc(F)cc4F)cc3)c(C(N)=O)c2N)C1)c1nncn1CCC[101CH2:1][101O:1]c1ccc2c(c1)CN(C(=O)C(NC(=O)C(C)NC)C(C)(C)C)C(C(=O)NC1CCCc3ccccc31)C2

> <Shape>
0.223

> <Color>
0.051

> <Negative vol penalty>
0.000

$$$$

  -OEChem-04052318273D

 91 99  0     1  0  0  0  0  0999 V2000
  -35.8457   -9.0120   20.3698 C   0  0  0  0  0  0  0  0  0  0  0  0
  -35.4403  -10.3429   20.3680 C   0  0  0  0  0  0  0  0  0  0  0  0
  -25.6102  -27.0617   20.6048 C   0  0  0  0  0  0  0  0  0  0  0  0
  -27.0690  -28.9815   20.4530 C   0  0  0  0  0  0  0  0  0  0  0  0
  -35.0979   -8.0558   19.6840 C   0  0  0  0  0  0  0  0  0  0  0  0
  -34.2874  -10.7184   19.6793 C   0  0  0  0  0  0  0  0  0  0  0  0
  -30.2982  -15.0800   21.2820 C   0  0  0  0  0  0  0  0  0  0  0  0
  -24.4999  -27.8941   20.4635 C   0  0  0  0  0  0  0  0  0  0  0  0
  -25.9587  -29.8140   20.3117 C   0  0  0  0  0  0  0  0  0  0  0  0
  -30.1421  -16.4041   20.8743 C   0  0  0  0  0  0  0  0  0  0  0  0
  -23.4947  -32.4855   20.2717 C   0  0  0  0  0  0  0  0  0  0  0  0
  -23.4693  -33.6645   21.0167 C   0  0  0  0  0  0  0  0  0  0  0  0
  -28.4666  -15.7104   19.2835 C   0  0  0  0  0  0  0  0  0  0  0  0
  -23.5847  -32.3771   23.0579 C   0  0  0  0  0  0  0  0  0  0  0  0
  -26.8947  -27.6054   20.5997 C   0  0  0  0  0  0  0  0  0  0  0  0
  -28.3383  -25.9015   21.8328 C   0  0  0  0  0  0  0  0  0  0  0  0
  -33.9299   -8.4182   18.9946 C   0  0  0  0  0  0  0  0  0  0  0  0
  -29.5462  -14.0580   20.6848 C   0  0  0  0  0  0  0  0  0  0  0  0
  -33.5240   -9.7664   18.9825 C   0  0  0  0  0  0  0  0  0  0  0  0
  -28.6131  -14.3745   19.6872 C   0  0  0  0  0  0  0  0  0  0  0  0
  -24.6742  -29.2702   20.3169 C   0  0  0  0  0  0  0  0  0  0  0  0
  -29.2283  -16.7191   19.8729 C   0  0  0  0  0  0  0  0  0  0  0  0
  -23.5651  -31.2523   20.9198 C   0  0  0  0  0  0  0  0  0  0  0  0
  -23.5143  -33.6103   22.4098 C   0  0  0  0  0  0  0  0  0  0  0  0
  -23.6101  -31.1981   22.3129 C   0  0  0  0  0  0  0  0  0  0  0  0
  -28.0420  -26.7461   20.7462 C   0  0  0  0  0  0  0  0  0  0  0  0
  -29.5269  -25.3048   21.4897 C   0  0  0  0  0  0  0  0  0  0  0  0
  -27.7366  -24.9717   18.1411 C   0  0  0  0  0  0  0  0  0  0  0  0
  -28.9866  -23.2069   17.5414 C   0  0  0  0  0  0  0  0  0  0  0  0
  -28.0381  -23.2711   19.5744 C   0  0  0  0  0  0  0  0  0  0  0  0
  -27.6047  -25.6765   23.0439 C   0  0  0  0  0  0  0  0  0  0  0  0
  -30.2399  -11.4597   18.9905 C   0  0  0  0  0  0  0  0  0  0  0  0
  -27.0549  -10.9077   19.2613 C   0  0  0  0  0  0  0  0  0  0  0  0
  -32.2489  -23.2917   16.7690 C   0  0  0  0  0  0  0  0  0  0  0  0
  -23.9262  -12.1777   19.7569 C   0  0  0  0  0  0  0  0  0  0  0  0
  -33.1804   -7.3572   18.2284 C   0  0  0  0  0  0  0  0  0  0  0  0
  -29.7071  -12.6382   21.1545 C   0  0  0  0  0  0  0  0  0  0  0  0
  -27.7669  -13.3169   19.0285 C   0  0  0  0  0  0  0  0  0  0  0  0
  -31.7658   -7.7747   17.8351 C   0  0  0  0  0  0  0  0  0  0  0  0
  -33.1909  -26.3628   18.3568 C   0  0  0  0  0  0  0  0  0  0  0  0
  -31.7691   -9.1809   17.2438 C   0  0  0  0  0  0  0  0  0  0  0  0
  -31.9759  -26.7101   19.2161 C   0  0  0  0  0  0  0  0  0  0  0  0
  -32.7777  -25.6907   17.0512 C   0  0  0  0  0  0  0  0  0  0  0  0
  -30.7092  -24.8224   18.0948 C   0  0  0  0  0  0  0  0  0  0  0  0
  -32.2656  -10.2087   18.2678 C   0  0  1  0  0  0  0  0  0  0  0  0
  -29.2591  -11.6118   20.1186 C   0  0  1  0  0  0  0  0  0  0  0  0
  -31.0841  -25.4755   19.4370 C   0  0  2  0  0  0  0  0  0  0  0  0
  -27.1416  -26.3008   17.8215 C   0  0  0  0  0  0  0  0  0  0  0  0
  -21.5174  -11.4863   19.8872 C   0  0  0  0  0  0  0  0  0  0  0  0
  -29.9768  -23.3258   15.1884 C   0  0  0  0  0  0  0  0  0  0  0  0
  -29.1421  -21.1744   16.0246 C   0  0  0  0  0  0  0  0  0  0  0  0
  -26.2984  -22.3777   21.2138 C   0  0  0  0  0  0  0  0  0  0  0  0
  -31.9066  -20.9054   16.3803 C   0  0  0  0  0  0  0  0  0  0  0  0
  -31.4129  -21.9160   18.5972 C   0  0  0  0  0  0  0  0  0  0  0  0
  -26.9698  -10.6403   16.2230 C   0  0  0  0  0  0  0  0  0  0  0  0
  -24.4828  -10.9041   16.3390 C   0  0  0  0  0  0  0  0  0  0  0  0
  -25.5831   -8.9644   17.4569 C   0  0  0  0  0  0  0  0  0  0  0  0
  -23.6842  -13.1275   22.5494 C   0  0  0  0  0  0  0  0  0  0  0  0
  -28.4174  -20.2227   20.1393 C   0  0  0  0  0  0  0  0  0  0  0  0
  -29.3114  -19.0254   20.4476 C   0  0  0  0  0  0  0  0  0  1  0  0
  -25.8338  -11.2746   18.4530 C   0  0  1  0  0  0  0  0  0  0  0  0
  -22.7954  -11.7418   20.6710 C   0  0  2  0  0  0  0  0  0  0  0  0
  -29.8297  -22.5053   16.5317 C   0  0  0  0  0  0  0  0  0  0  0  0
  -27.7845  -22.6298   20.9328 C   0  0  1  0  0  0  0  0  0  0  0  0
  -31.3124  -22.1500   17.0744 C   0  0  0  0  0  0  0  0  0  0  0  0
  -25.7346  -10.4657   17.1288 C   0  0  0  0  0  0  0  0  0  0  0  0
  -28.6314  -21.3585   21.1361 C   0  0  0  0  0  0  0  0  0  0  0  0
  -28.9678  -26.6935   19.7849 N   0  0  0  0  0  0  0  0  0  0  0  0
  -28.4844  -24.3996   17.1836 N   0  0  0  0  0  0  0  0  0  0  0  0
  -27.4702  -24.4683   19.3572 N   0  0  0  0  0  0  0  0  0  0  0  0
  -28.8067  -22.5817   18.7160 N   0  0  0  0  0  0  0  0  0  0  0  0
  -29.8576  -25.8089   20.2663 N   0  0  0  0  0  0  0  0  0  0  0  0
  -27.9653  -11.9426   19.5179 N   0  0  0  0  0  0  0  0  0  0  0  0
  -31.9134  -24.5362   17.3027 N   0  0  0  0  0  0  0  0  0  0  0  0
  -30.3110  -24.4035   22.1183 N   0  0  0  0  0  0  0  0  0  0  0  0
  -27.8801  -26.4885   24.1526 N   0  0  0  0  0  0  0  0  0  0  0  0
  -31.2222  -10.5159   19.2224 N   0  0  0  0  0  0  0  0  0  0  0  0
  -24.6898  -11.1068   19.3427 N   0  0  0  0  0  0  0  0  0  0  0  0
  -22.5190  -12.7929   21.6906 N   0  3  0  0  0  0  0  0  0  0  0  0
  -26.7424  -24.7711   23.1452 O   0  0  0  0  0  0  0  0  0  0  0  0
  -30.1138  -12.1466   17.9835 O   0  0  0  0  0  0  0  0  0  0  0  0
  -27.1922   -9.7473   19.6566 O   0  0  0  0  0  0  0  0  0  0  0  0
  -33.2499  -23.0812   16.0792 O   0  0  0  0  0  0  0  0  0  0  0  0
  -24.1113  -13.3503   19.4389 O   0  0  0  0  0  0  0  0  0  0  0  0
  -23.5910  -30.0828   20.1787 O   0  0  0  0  0  0  0  0  0  0  0  0
  -29.0744  -18.0106   19.4727 O   0  0  0  0  0  0  0  0  0  1  0  0
  -23.4914  -34.7425   23.1250 F   0  0  0  0  0  0  0  0  0  0  0  0
  -23.6789  -30.0164   22.9411 F   0  0  0  0  0  0  0  0  0  0  0  0
  -28.1816  -23.4890   21.9377 F   0  0  0  0  0  0  0  0  0  0  0  0
  -28.3832  -20.8822   22.3898 F   0  0  0  0  0  0  0  0  0  0  0  0
  -29.9489  -21.7052   21.1249 F   0  0  0  0  0  0  0  0  0  0  0  0
  1  2  1  0  0  0  0
  1  5  2  0  0  0  0
  2  6  2  0  0  0  0
  3  8  2  0  0  0  0
  3 15  1  0  0  0  0
  4  9  1  0  0  0  0
  4 15  2  0  0  0  0
  5 17  1  0  0  0  0
  6 19  1  0  0  0  0
  7 10  2  0  0  0  0
  7 18  1  0  0  0  0
  8 21  1  0  0  0  0
  9 21  2  0  0  0  0
 10 22  1  0  0  0  0
 11 12  2  0  0  0  0
 11 23  1  0  0  0  0
 12 24  1  0  0  0  0
 13 20  1  0  0  0  0
 13 22  2  0  0  0  0
 14 24  2  0  0  0  0
 14 25  1  0  0  0  0
 15 26  1  0  0  0  0
 16 26  1  0  0  0  0
 16 27  2  0  0  0  0
 16 31  1  0  0  0  0
 17 19  2  0  0  0  0
 17 36  1  0  0  0  0
 18 20  2  0  0  0  0
 18 37  1  0  0  0  0
 19 45  1  0  0  0  0
 20 38  1  0  0  0  0
 21 85  1  0  0  0  0
 22 86  1  0  0  0  0
 23 25  2  0  0  0  0
 23 85  1  0  0  0  0
 24 87  1  0  0  0  0
 25 88  1  0  0  0  0
 26 68  2  0  0  0  0
 27 72  1  0  0  0  0
 27 75  1  0  0  0  0
 28 48  1  0  0  0  0
 28 69  1  0  0  0  0
 28 70  2  0  0  0  0
 29 63  1  0  0  0  0
 29 69  2  0  0  0  0
 29 71  1  0  0  0  0
 30 64  1  0  0  0  0
 30 70  1  0  0  0  0
 30 71  2  0  0  0  0
 31 76  1  0  0  0  0
 31 80  2  0  0  0  0
 32 46  1  0  0  0  0
 32 77  1  0  0  0  0
 32 81  2  0  0  0  0
 33 61  1  0  0  0  0
 33 73  1  0  0  0  0
 33 82  2  0  0  0  0
 34 65  1  0  0  0  0
 34 74  1  0  0  0  0
 34 83  2  0  0  0  0
 35 62  1  0  0  0  0
 35 78  1  0  0  0  0
 35 84  2  0  0  0  0
 36 39  1  0  0  0  0
 37 46  1  0  0  0  0
 38 73  1  0  0  0  0
 39 41  1  0  0  0  0
 40 42  1  0  0  0  0
 40 43  1  0  0  0  0
 41 45  1  0  0  0  0
 42 47  1  0  0  0  0
 43 74  1  0  0  0  0
 44 47  1  0  0  0  0
 44 74  1  0  0  0  0
 45 77  1  0  0  0  0
 46 73  1  0  0  0  0
 47 72  1  0  0  0  0
 49 62  1  0  0  0  0
 50 63  1  0  0  0  0
 51 63  1  0  0  0  0
 52 64  1  0  0  0  0
 53 65  1  0  0  0  0
 54 65  1  0  0  0  0
 55 66  1  0  0  0  0
 56 66  1  0  0  0  0
 57 66  1  0  0  0  0
 58 79  1  0  0  0  0
 59 60  1  0  0  0  0
 59 67  1  0  0  0  0
 60 86  1  0  0  0  0
 61 66  1  0  0  0  0
 61 78  1  0  0  0  0
 62 79  1  0  0  0  0
 63 65  1  0  0  0  0
 64 67  1  0  0  0  0
 64 89  1  0  0  0  0
 67 90  1  0  0  0  0
 67 91  1  0  0  0  0
 68 72  1  0  0  0  0
M  CHG  1  79   1
M  ISO  4  34 100  60 101  65 100  86 101
M  END
> <Batch ID>
0073

> <Smiles>
CNC(C)C(=O)NC(C(=O)N1Cc2cc([101O:1][101CH2:1]CC(F)(F)C(C)(F)c3nc(C)nc(C(C)(C)[100C:0](C)(C)[100C:0](=O)N4CCCC(n5nc(-c6ccc(Oc7ccc(F)cc7F)cc6)c(C(N)=O)c5N)C4)n3)ccc2CC1C(=O)NC1CCCc2ccccc21)C(C)(C)C

> <Shape>
0.262

> <Color>
0.073

> <Negative vol penalty>
0.000

$$$$

  -OEChem-04052318273D

 81 89  0     1  0  0  0  0  0999 V2000
  -33.6318  -20.7404   23.2422 C   0  0  0  0  0  0  0  0  0  0  0  0
  -32.4756  -21.4510   23.5481 C   0  0  0  0  0  0  0  0  0  0  0  0
  -29.3868  -26.5704   17.6608 C   0  0  0  0  0  0  0  0  0  0  0  0
  -29.0054  -25.1445   19.5735 C   0  0  0  0  0  0  0  0  0  0  0  0
  -33.6542  -19.8898   22.1377 C   0  0  0  0  0  0  0  0  0  0  0  0
  -31.3413  -21.3121   22.7491 C   0  0  0  0  0  0  0  0  0  0  0  0
  -24.1893  -21.3447   23.1538 C   0  0  0  0  0  0  0  0  0  0  0  0
  -30.6980  -26.1027   17.5735 C   0  0  0  0  0  0  0  0  0  0  0  0
  -30.3166  -24.6767   19.4862 C   0  0  0  0  0  0  0  0  0  0  0  0
  -23.0799  -21.9508   22.5657 C   0  0  0  0  0  0  0  0  0  0  0  0
  -34.2565  -25.5499   17.0686 C   0  0  0  0  0  0  0  0  0  0  0  0
  -35.2690  -26.4877   16.8663 C   0  0  0  0  0  0  0  0  0  0  0  0
  -23.2095  -20.3922   20.7291 C   0  0  0  0  0  0  0  0  0  0  0  0
  -34.6618  -27.5883   18.9296 C   0  0  0  0  0  0  0  0  0  0  0  0
  -18.2467  -27.2897   22.5803 C   0  0  0  0  0  0  0  0  0  0  0  0
  -28.5405  -26.0913   18.6608 C   0  0  0  0  0  0  0  0  0  0  0  0
  -26.0473  -26.0358   18.1235 C   0  0  0  0  0  0  0  0  0  0  0  0
  -32.5165  -19.7331   21.3303 C   0  0  0  0  0  0  0  0  0  0  0  0
  -24.8248  -20.2629   22.5275 C   0  0  0  0  0  0  0  0  0  0  0  0
  -31.3488  -20.4596   21.6320 C   0  0  0  0  0  0  0  0  0  0  0  0
  -24.3252  -19.7725   21.3126 C   0  0  0  0  0  0  0  0  0  0  0  0
  -31.1629  -25.1559   18.4862 C   0  0  0  0  0  0  0  0  0  0  0  0
  -22.5917  -21.4764   21.3518 C   0  0  0  0  0  0  0  0  0  0  0  0
  -33.4466  -25.6314   18.2014 C   0  0  0  0  0  0  0  0  0  0  0  0
  -19.5350  -27.0798   22.1528 C   0  0  0  0  0  0  0  0  0  0  0  0
  -35.4717  -27.5069   17.7968 C   0  0  0  0  0  0  0  0  0  0  0  0
  -33.6493  -26.6505   19.1319 C   0  0  0  0  0  0  0  0  0  0  0  0
  -27.1861  -26.5744   18.7518 C   0  0  0  0  0  0  0  0  0  0  0  0
  -20.2079  -28.2769   22.4623 C   0  0  0  0  0  0  0  0  0  0  0  0
  -25.0163  -26.8493   18.5254 C   0  0  0  0  0  0  0  0  0  0  0  0
  -25.9319  -24.9014   17.2542 C   0  0  0  0  0  0  0  0  0  0  0  0
  -27.7347  -19.7406   21.3600 C   0  0  0  0  0  0  0  0  0  0  0  0
  -26.6090  -16.7247   20.9604 C   0  0  0  0  0  0  0  0  0  0  0  0
  -23.9154  -14.6654   20.5728 C   0  0  0  0  0  0  0  0  0  0  0  0
  -22.3011  -29.6787   22.4782 C   0  0  0  0  0  0  0  0  0  0  0  0
  -32.6034  -18.8382   20.1194 C   0  0  0  0  0  0  0  0  0  0  0  0
  -26.0040  -19.6031   23.1881 C   0  0  0  0  0  0  0  0  0  0  0  0
  -24.9590  -18.6009   20.6096 C   0  0  0  0  0  0  0  0  0  0  0  0
  -31.2416  -18.4611   19.5418 C   0  0  0  0  0  0  0  0  0  0  0  0
  -25.0792  -31.2945   20.9457 C   0  0  0  0  0  0  0  0  0  0  0  0
  -30.3506  -19.6938   19.4268 C   0  0  0  0  0  0  0  0  0  0  0  0
  -25.7813  -30.1662   20.1866 C   0  0  0  0  0  0  0  0  0  0  0  0
  -24.5038  -30.8109   22.2757 C   0  0  0  0  0  0  0  0  0  0  0  0
  -24.3328  -28.5056   21.4241 C   0  0  0  0  0  0  0  0  0  0  0  0
  -30.0904  -20.3168   20.8037 C   0  0  1  0  0  0  0  0  0  0  0  0
  -26.8860  -18.8359   22.2078 C   0  0  1  0  0  0  0  0  0  0  0  0
  -24.8722  -28.9293   20.0481 C   0  0  2  0  0  0  0  0  0  0  0  0
  -23.3128  -12.2534   20.2314 C   0  0  0  0  0  0  0  0  0  0  0  0
  -27.4604  -16.9283   18.0375 C   0  0  0  0  0  0  0  0  0  0  0  0
  -26.0128  -14.9445   17.5501 C   0  0  0  0  0  0  0  0  0  0  0  0
  -27.9438  -14.7232   19.1138 C   0  0  0  0  0  0  0  0  0  0  0  0
  -17.0868  -29.2218   23.6762 C   0  0  0  0  0  0  0  0  0  0  0  0
  -22.3812  -14.5704   23.1019 C   0  0  0  0  0  0  0  0  0  0  0  0
  -19.7490  -23.7133   20.6723 C   0  0  0  0  0  0  0  0  0  0  0  0
  -20.9234  -23.1673   21.4690 C   0  0  0  0  0  0  0  0  0  1  0  0
  -19.0746  -24.8786   21.3792 C   0  0  0  0  0  0  0  0  0  0  0  0
  -25.8864  -15.9908   19.8567 C   0  0  1  0  0  0  0  0  0  0  0  0
  -23.5400  -13.3596   21.2499 C   0  0  2  0  0  0  0  0  0  0  0  0
  -26.8149  -15.6700   18.6516 C   0  0  0  0  0  0  0  0  0  0  0  0
  -26.9053  -27.6473   19.4962 N   0  0  0  0  0  0  0  0  0  0  0  0
  -19.4129  -29.1805   23.0415 N   0  0  0  0  0  0  0  0  0  0  0  0
  -18.2270  -28.5508   23.0993 N   0  0  0  0  0  0  0  0  0  0  0  0
  -25.5783  -27.7893   19.3381 N   0  0  0  0  0  0  0  0  0  0  0  0
  -26.1134  -17.9936   21.2924 N   0  0  0  0  0  0  0  0  0  0  0  0
  -23.6499  -29.6398   22.0659 N   0  0  0  0  0  0  0  0  0  0  0  0
  -23.6928  -26.8450   18.2593 N   0  0  0  0  0  0  0  0  0  0  0  0
  -27.0907  -24.1766   16.9440 N   0  0  0  0  0  0  0  0  0  0  0  0
  -21.5786  -28.5195   22.1973 N   0  0  0  0  0  0  0  0  0  0  0  0
  -29.0940  -19.5532   21.5238 N   0  0  0  0  0  0  0  0  0  0  0  0
  -25.2825  -14.8155   20.4752 N   0  0  0  0  0  0  0  0  0  0  0  0
  -22.2917  -13.5291   22.0461 N   0  3  0  0  0  0  0  0  0  0  0  0
  -24.8363  -24.5509   16.7539 O   0  0  0  0  0  0  0  0  0  0  0  0
  -27.1963  -20.5478   20.6116 O   0  0  0  0  0  0  0  0  0  0  0  0
  -27.5730  -16.1888   21.5128 O   0  0  0  0  0  0  0  0  0  0  0  0
  -23.0793  -15.4698   20.1674 O   0  0  0  0  0  0  0  0  0  0  0  0
  -21.8150  -30.6777   23.0145 O   0  0  0  0  0  0  0  0  0  0  0  0
  -32.4422  -24.6991   18.4012 O   0  0  0  0  0  0  0  0  0  0  0  0
  -21.5095  -22.0666   20.7753 O   0  0  0  0  0  0  0  0  0  1  0  0
  -20.0061  -25.9362   21.5623 O   0  0  0  0  0  0  0  0  0  0  0  0
  -36.4451  -28.4064   17.6032 F   0  0  0  0  0  0  0  0  0  0  0  0
  -32.8751  -26.7332   20.2226 F   0  0  0  0  0  0  0  0  0  0  0  0
  1  2  1  0  0  0  0
  1  5  2  0  0  0  0
  2  6  2  0  0  0  0
  3  8  2  0  0  0  0
  3 16  1  0  0  0  0
  4  9  1  0  0  0  0
  4 16  2  0  0  0  0
  5 18  1  0  0  0  0
  6 20  1  0  0  0  0
  7 10  2  0  0  0  0
  7 19  1  0  0  0  0
  8 22  1  0  0  0  0
  9 22  2  0  0  0  0
 10 23  1  0  0  0  0
 11 12  2  0  0  0  0
 11 24  1  0  0  0  0
 12 26  1  0  0  0  0
 13 21  1  0  0  0  0
 13 23  2  0  0  0  0
 14 26  2  0  0  0  0
 14 27  1  0  0  0  0
 15 25  2  0  0  0  0
 15 62  1  0  0  0  0
 16 28  1  0  0  0  0
 17 28  1  0  0  0  0
 17 30  2  0  0  0  0
 17 31  1  0  0  0  0
 18 20  2  0  0  0  0
 18 36  1  0  0  0  0
 19 21  2  0  0  0  0
 19 37  1  0  0  0  0
 20 45  1  0  0  0  0
 21 38  1  0  0  0  0
 22 77  1  0  0  0  0
 23 78  1  0  0  0  0
 24 27  2  0  0  0  0
 24 77  1  0  0  0  0
 25 29  1  0  0  0  0
 25 79  1  0  0  0  0
 26 80  1  0  0  0  0
 27 81  1  0  0  0  0
 28 60  2  0  0  0  0
 29 61  2  0  0  0  0
 29 68  1  0  0  0  0
 30 63  1  0  0  0  0
 30 66  1  0  0  0  0
 31 67  1  0  0  0  0
 31 72  2  0  0  0  0
 32 46  1  0  0  0  0
 32 69  1  0  0  0  0
 32 73  2  0  0  0  0
 33 57  1  0  0  0  0
 33 64  1  0  0  0  0
 33 74  2  0  0  0  0
 34 58  1  0  0  0  0
 34 70  1  0  0  0  0
 34 75  2  0  0  0  0
 35 65  1  0  0  0  0
 35 68  1  0  0  0  0
 35 76  2  0  0  0  0
 36 39  1  0  0  0  0
 37 46  1  0  0  0  0
 38 64  1  0  0  0  0
 39 41  1  0  0  0  0
 40 42  1  0  0  0  0
 40 43  1  0  0  0  0
 41 45  1  0  0  0  0
 42 47  1  0  0  0  0
 43 65  1  0  0  0  0
 44 47  1  0  0  0  0
 44 65  1  0  0  0  0
 45 69  1  0  0  0  0
 46 64  1  0  0  0  0
 47 63  1  0  0  0  0
 48 58  1  0  0  0  0
 49 59  1  0  0  0  0
 50 59  1  0  0  0  0
 51 59  1  0  0  0  0
 52 62  1  0  0  0  0
 53 71  1  0  0  0  0
 54 55  1  0  0  0  0
 54 56  1  0  0  0  0
 55 78  1  0  0  0  0
 56 79  1  0  0  0  0
 57 59  1  0  0  0  0
 57 70  1  0  0  0  0
 58 71  1  0  0  0  0
 60 63  1  0  0  0  0
 61 62  1  0  0  0  0
M  CHG  1  71   1
M  ISO  4  35 100  55 101  68 100  78 101
M  END
> <Batch ID>
0073

> <Smiles>
CNC(C)C(=O)NC(C(=O)N1Cc2cc([101O:1][101CH2:1]CCOc3cn(C)nc3[100NH:0][100C:0](=O)N3CCCC(n4nc(-c5ccc(Oc6ccc(F)cc6F)cc5)c(C(N)=O)c4N)C3)ccc2CC1C(=O)NC1CCCc2ccccc21)C(C)(C)C

> <Shape>
0.208

> <Color>
0.075

> <Negative vol penalty>
0.000

$$$$

  -OEChem-04052318273D

 86 94  0     1  0  0  0  0  0999 V2000
  -36.1800  -31.0622   23.5050 C   0  0  0  0  0  0  0  0  0  0  0  0
  -35.9174  -29.8866   22.8091 C   0  0  0  0  0  0  0  0  0  0  0  0
  -23.0689   -9.8688   19.9521 C   0  0  0  0  0  0  0  0  0  0  0  0
  -23.8596   -9.8754   22.2350 C   0  0  0  0  0  0  0  0  0  0  0  0
  -35.4403  -31.3767   24.6442 C   0  0  0  0  0  0  0  0  0  0  0  0
  -34.9155  -29.0241   23.2528 C   0  0  0  0  0  0  0  0  0  0  0  0
  -31.9756  -27.3581   19.4810 C   0  0  0  0  0  0  0  0  0  0  0  0
  -22.3326   -8.7126   20.2105 C   0  0  0  0  0  0  0  0  0  0  0  0
  -23.1233   -8.7192   22.4934 C   0  0  0  0  0  0  0  0  0  0  0  0
  -32.4867  -26.3396   18.6777 C   0  0  0  0  0  0  0  0  0  0  0  0
  -19.9065   -7.9089   23.1384 C   0  0  0  0  0  0  0  0  0  0  0  0
  -19.1656   -7.8647   24.3193 C   0  0  0  0  0  0  0  0  0  0  0  0
  -31.1868  -24.7237   19.9099 C   0  0  0  0  0  0  0  0  0  0  0  0
  -20.4238   -5.9307   25.0362 C   0  0  0  0  0  0  0  0  0  0  0  0
  -33.9575  -19.8834   21.7193 C   0  0  0  0  0  0  0  0  0  0  0  0
  -33.3614  -18.7324   19.9431 C   0  0  0  0  0  0  0  0  0  0  0  0
  -23.8325  -10.4502   20.9644 C   0  0  0  0  0  0  0  0  0  0  0  0
  -24.1635  -12.9767   20.8433 C   0  0  0  0  0  0  0  0  0  0  0  0
  -34.4223  -30.5224   25.0965 C   0  0  0  0  0  0  0  0  0  0  0  0
  -31.0732  -27.0651   20.5135 C   0  0  0  0  0  0  0  0  0  0  0  0
  -34.1623  -29.3268   24.3999 C   0  0  0  0  0  0  0  0  0  0  0  0
  -30.6638  -25.7406   20.7232 C   0  0  0  0  0  0  0  0  0  0  0  0
  -34.3757  -19.5238   20.4240 C   0  0  0  0  0  0  0  0  0  0  0  0
  -22.3598   -8.1378   21.4811 C   0  0  0  0  0  0  0  0  0  0  0  0
  -32.0945  -25.0218   18.8939 C   0  0  0  0  0  0  0  0  0  0  0  0
  -20.9060   -6.9640   22.9063 C   0  0  0  0  0  0  0  0  0  0  0  0
  -19.4242   -6.8756   25.2683 C   0  0  0  0  0  0  0  0  0  0  0  0
  -21.1647   -5.9750   23.8552 C   0  0  0  0  0  0  0  0  0  0  0  0
  -24.5937  -11.6442   20.6980 C   0  0  0  0  0  0  0  0  0  0  0  0
  -25.2480  -13.7306   20.4664 C   0  0  0  0  0  0  0  0  0  0  0  0
  -22.8970  -13.4873   21.2800 C   0  0  0  0  0  0  0  0  0  0  0  0
  -31.0997  -27.3908   23.6753 C   0  0  0  0  0  0  0  0  0  0  0  0
  -30.7525  -14.7027   20.6786 C   0  0  0  0  0  0  0  0  0  0  0  0
  -28.0245  -26.3921   23.4136 C   0  0  0  0  0  0  0  0  0  0  0  0
  -25.6712  -24.7002   21.6119 C   0  0  0  0  0  0  0  0  0  0  0  0
  -33.6813  -30.8815   26.3601 C   0  0  0  0  0  0  0  0  0  0  0  0
  -30.5105  -28.1784   21.3540 C   0  0  0  0  0  0  0  0  0  0  0  0
  -29.6819  -25.3759   21.8055 C   0  0  0  0  0  0  0  0  0  0  0  0
  -32.3850  -30.0980   26.5495 C   0  0  0  0  0  0  0  0  0  0  0  0
  -29.5624  -12.4053   18.1997 C   0  0  0  0  0  0  0  0  0  0  0  0
  -32.6142  -28.6139   26.2816 C   0  0  0  0  0  0  0  0  0  0  0  0
  -28.1392  -12.0888   18.6574 C   0  0  0  0  0  0  0  0  0  0  0  0
  -30.4983  -12.6097   19.3868 C   0  0  0  0  0  0  0  0  0  0  0  0
  -28.6114  -13.3356   20.8131 C   0  0  0  0  0  0  0  0  0  0  0  0
  -33.0670  -28.3779   24.8356 C   0  0  1  0  0  0  0  0  0  0  0  0
  -29.9930  -27.7022   22.7078 C   0  0  1  0  0  0  0  0  0  0  0  0
  -27.6267  -13.1522   19.6448 C   0  0  2  0  0  0  0  0  0  0  0  0
  -36.5173  -18.6855   19.4245 C   0  0  0  0  0  0  0  0  0  0  0  0
  -23.2557  -24.0228   21.6718 C   0  0  0  0  0  0  0  0  0  0  0  0
  -30.7013  -17.4262   23.3732 C   0  0  0  0  0  0  0  0  0  0  0  0
  -30.0236  -18.9548   20.9691 C   0  0  0  0  0  0  0  0  0  0  0  0
  -28.6848  -24.2276   25.4603 C   0  0  0  0  0  0  0  0  0  0  0  0
  -26.5903  -23.0391   24.7757 C   0  0  0  0  0  0  0  0  0  0  0  0
  -26.4574  -25.3194   25.7783 C   0  0  0  0  0  0  0  0  0  0  0  0
  -25.0691  -26.1997   19.1323 C   0  0  0  0  0  0  0  0  0  0  0  0
  -30.1337  -15.6933   21.6326 C   0  0  0  0  0  0  0  0  0  0  0  0
  -34.7125  -22.0628   18.6617 C   0  0  0  0  0  0  0  0  0  0  0  0
  -34.5719  -22.8591   17.3601 C   0  0  0  0  0  0  0  0  0  0  0  0
  -35.4110  -20.7193   18.4157 C   0  0  0  0  0  0  0  0  0  0  0  0
  -33.9038  -24.2108   17.5806 C   0  0  0  0  0  0  0  0  0  1  0  0
  -35.6582  -19.9224   19.7144 C   0  0  1  0  0  0  0  0  0  0  0  0
  -27.3318  -25.0508   23.4213 C   0  0  1  0  0  0  0  0  0  0  0  0
  -24.2558  -25.0695   21.2060 C   0  0  2  0  0  0  0  0  0  0  0  0
  -31.0896  -16.8462   22.0045 C   0  0  1  0  0  0  0  0  0  0  0  0
  -31.1833  -17.9484   20.9023 C   0  0  2  0  0  0  0  0  0  0  0  0
  -27.2861  -24.4155   24.8397 C   0  0  0  0  0  0  0  0  0  0  0  0
  -32.7701  -19.3632   22.0407 N   0  0  0  0  0  0  0  0  0  0  0  0
  -25.8531  -11.5535   20.2625 N   0  0  0  0  0  0  0  0  0  0  0  0
  -32.4333  -18.6688   20.9405 N   0  0  0  0  0  0  0  0  0  0  0  0
  -26.2236  -12.8386   20.1309 N   0  0  0  0  0  0  0  0  0  0  0  0
  -29.1648  -26.4990   22.6048 N   0  0  0  0  0  0  0  0  0  0  0  0
  -29.9653  -13.6108   20.3125 N   0  0  0  0  0  0  0  0  0  0  0  0
  -25.4526  -15.0629   20.3924 N   0  0  0  0  0  0  0  0  0  0  0  0
  -21.8930  -12.5741   21.6297 N   0  0  0  0  0  0  0  0  0  0  0  0
  -31.9385  -28.4582   23.9331 N   0  0  0  0  0  0  0  0  0  0  0  0
  -26.0199  -25.2655   22.8202 N   0  0  0  0  0  0  0  0  0  0  0  0
  -24.1562  -25.1878   19.7237 N   0  3  0  0  0  0  0  0  0  0  0  0
  -22.6571  -14.7170   21.3423 O   0  0  0  0  0  0  0  0  0  0  0  0
  -31.1852  -26.2659   24.1538 O   0  0  0  0  0  0  0  0  0  0  0  0
  -31.9003  -14.8970   20.2699 O   0  0  0  0  0  0  0  0  0  0  0  0
  -27.5666  -27.3132   24.0944 O   0  0  0  0  0  0  0  0  0  0  0  0
  -26.3938  -23.9792   20.9274 O   0  0  0  0  0  0  0  0  0  0  0  0
  -21.6413   -7.0098   21.7337 O   0  0  0  0  0  0  0  0  0  0  0  0
  -32.5923  -24.0257   18.1117 O   0  0  0  0  0  0  0  0  0  1  0  0
  -18.7137   -6.8342   26.4030 F   0  0  0  0  0  0  0  0  0  0  0  0
  -22.1245   -5.0653   23.6384 F   0  0  0  0  0  0  0  0  0  0  0  0
  1  2  1  0  0  0  0
  1  5  2  0  0  0  0
  2  6  2  0  0  0  0
  3  8  2  0  0  0  0
  3 17  1  0  0  0  0
  4  9  1  0  0  0  0
  4 17  2  0  0  0  0
  5 19  1  0  0  0  0
  6 21  1  0  0  0  0
  7 10  2  0  0  0  0
  7 20  1  0  0  0  0
  8 24  1  0  0  0  0
  9 24  2  0  0  0  0
 10 25  1  0  0  0  0
 11 12  2  0  0  0  0
 11 26  1  0  0  0  0
 12 27  1  0  0  0  0
 13 22  1  0  0  0  0
 13 25  2  0  0  0  0
 14 27  2  0  0  0  0
 14 28  1  0  0  0  0
 15 23  1  0  0  0  0
 15 67  2  0  0  0  0
 16 23  2  0  0  0  0
 16 69  1  0  0  0  0
 17 29  1  0  0  0  0
 18 29  1  0  0  0  0
 18 30  2  0  0  0  0
 18 31  1  0  0  0  0
 19 21  2  0  0  0  0
 19 36  1  0  0  0  0
 20 22  2  0  0  0  0
 20 37  1  0  0  0  0
 21 45  1  0  0  0  0
 22 38  1  0  0  0  0
 23 61  1  0  0  0  0
 24 83  1  0  0  0  0
 25 84  1  0  0  0  0
 26 28  2  0  0  0  0
 26 83  1  0  0  0  0
 27 85  1  0  0  0  0
 28 86  1  0  0  0  0
 29 68  2  0  0  0  0
 30 70  1  0  0  0  0
 30 73  1  0  0  0  0
 31 74  1  0  0  0  0
 31 78  2  0  0  0  0
 32 46  1  0  0  0  0
 32 75  1  0  0  0  0
 32 79  2  0  0  0  0
 33 56  1  0  0  0  0
 33 72  1  0  0  0  0
 33 80  2  0  0  0  0
 34 62  1  0  0  0  0
 34 71  1  0  0  0  0
 34 81  2  0  0  0  0
 35 63  1  0  0  0  0
 35 76  1  0  0  0  0
 35 82  2  0  0  0  0
 36 39  1  0  0  0  0
 37 46  1  0  0  0  0
 38 71  1  0  0  0  0
 39 41  1  0  0  0  0
 40 42  1  0  0  0  0
 40 43  1  0  0  0  0
 41 45  1  0  0  0  0
 42 47  1  0  0  0  0
 43 72  1  0  0  0  0
 44 47  1  0  0  0  0
 44 72  1  0  0  0  0
 45 75  1  0  0  0  0
 46 71  1  0  0  0  0
 47 70  1  0  0  0  0
 48 61  1  0  0  0  0
 49 63  1  0  0  0  0
 50 64  1  0  0  0  0
 51 65  1  0  0  0  0
 52 66  1  0  0  0  0
 53 66  1  0  0  0  0
 54 66  1  0  0  0  0
 55 77  1  0  0  0  0
 56 64  1  0  0  0  0
 57 58  1  0  0  0  0
 57 59  1  0  0  0  0
 58 60  1  0  0  0  0
 59 61  1  0  0  0  0
 60 84  1  0  0  0  0
 62 66  1  0  0  0  0
 62 76  1  0  0  0  0
 63 77  1  0  0  0  0
 64 65  1  0  0  0  0
 65 69  1  0  0  0  0
 67 69  1  0  0  0  0
 68 70  1  0  0  0  0
M  CHG  1  77   1
M  ISO  4  33 100  56 100  60 101  84 101
M  END
> <Batch ID>
0073

> <Smiles>
CNC(C)C(=O)NC(C(=O)N1Cc2cc([101O:1][101CH2:1]CCCC(C)c3cnn(C(C)C(C)[100CH2:0][100C:0](=O)N4CCCC(n5nc(-c6ccc(Oc7ccc(F)cc7F)cc6)c(C(N)=O)c5N)C4)c3)ccc2CC1C(=O)NC1CCCc2ccccc21)C(C)(C)C

> <Shape>
0.213

> <Color>
0.187

> <Negative vol penalty>
0.000

$$$$

  -OEChem-04052318273D

 84 92  0     1  0  0  0  0  0999 V2000
  -19.2710  -24.3165   21.7740 C   0  0  0  0  0  0  0  0  0  0  0  0
  -20.2428  -24.7960   20.9016 C   0  0  0  0  0  0  0  0  0  0  0  0
  -27.4410  -13.2130   21.2283 C   0  0  0  0  0  0  0  0  0  0  0  0
  -25.1984  -13.9520   20.7167 C   0  0  0  0  0  0  0  0  0  0  0  0
  -18.5870  -25.2002   22.6078 C   0  0  0  0  0  0  0  0  0  0  0  0
  -20.5304  -26.1599   20.8618 C   0  0  0  0  0  0  0  0  0  0  0  0
  -25.5069  -27.0941   20.7799 C   0  0  0  0  0  0  0  0  0  0  0  0
  -26.9280  -12.0416   21.7853 C   0  0  0  0  0  0  0  0  0  0  0  0
  -24.6853  -12.7806   21.2737 C   0  0  0  0  0  0  0  0  0  0  0  0
  -26.1662  -26.9268   19.5629 C   0  0  0  0  0  0  0  0  0  0  0  0
  -24.3083   -9.5484   20.3622 C   0  0  0  0  0  0  0  0  0  0  0  0
  -23.3085   -8.8802   19.6553 C   0  0  0  0  0  0  0  0  0  0  0  0
  -26.0877  -29.3103   19.1996 C   0  0  0  0  0  0  0  0  0  0  0  0
  -21.8039   -9.1526   21.5258 C   0  0  0  0  0  0  0  0  0  0  0  0
  -29.1483  -24.3044   22.4145 C   0  0  0  0  0  0  0  0  0  0  0  0
  -26.5762  -14.1682   20.6940 C   0  0  0  0  0  0  0  0  0  0  0  0
  -27.4807  -15.5899   18.7787 C   0  0  0  0  0  0  0  0  0  0  0  0
  -18.8732  -26.5743   22.5850 C   0  0  0  0  0  0  0  0  0  0  0  0
  -25.1227  -28.3718   21.2115 C   0  0  0  0  0  0  0  0  0  0  0  0
  -19.8487  -27.0630   21.6950 C   0  0  0  0  0  0  0  0  0  0  0  0
  -25.4259  -29.4914   20.4237 C   0  0  0  0  0  0  0  0  0  0  0  0
  -25.5501  -11.8254   21.8080 C   0  0  0  0  0  0  0  0  0  0  0  0
  -26.4542  -28.0347   18.7712 C   0  0  0  0  0  0  0  0  0  0  0  0
  -24.0558  -10.0186   21.6510 C   0  0  0  0  0  0  0  0  0  0  0  0
  -22.0563   -8.6824   20.2371 C   0  0  0  0  0  0  0  0  0  0  0  0
  -22.8036   -9.8208   22.2328 C   0  0  0  0  0  0  0  0  0  0  0  0
  -27.1056  -15.3787   20.1190 C   0  0  0  0  0  0  0  0  0  0  0  0
  -28.1164  -23.4578   21.9857 C   0  0  0  0  0  0  0  0  0  0  0  0
  -27.9165  -16.8920   18.7452 C   0  0  0  0  0  0  0  0  0  0  0  0
  -27.4389  -14.6896   17.6636 C   0  0  0  0  0  0  0  0  0  0  0  0
  -22.3481  -29.7792   21.8634 C   0  0  0  0  0  0  0  0  0  0  0  0
  -24.2572  -32.2107   22.8461 C   0  0  0  0  0  0  0  0  0  0  0  0
  -26.5833  -21.5337   22.2024 C   0  0  0  0  0  0  0  0  0  0  0  0
  -27.2816  -33.7797   22.6520 C   0  0  0  0  0  0  0  0  0  0  0  0
  -18.0745  -27.4970   23.4711 C   0  0  0  0  0  0  0  0  0  0  0  0
  -24.4360  -28.5382   22.5393 C   0  0  0  0  0  0  0  0  0  0  0  0
  -25.0529  -30.8866   20.8514 C   0  0  0  0  0  0  0  0  0  0  0  0
  -18.7023  -28.8788   23.6350 C   0  0  0  0  0  0  0  0  0  0  0  0
  -29.9123  -20.2528   21.4921 C   0  0  0  0  0  0  0  0  0  0  0  0
  -19.1412  -29.4296   22.2820 C   0  0  0  0  0  0  0  0  0  0  0  0
  -29.5952  -18.8559   20.9601 C   0  0  0  0  0  0  0  0  0  0  0  0
  -28.9409  -20.6676   22.5941 C   0  0  0  0  0  0  0  0  0  0  0  0
  -27.1848  -19.1963   21.6583 C   0  0  0  0  0  0  0  0  0  0  0  0
  -20.2065  -28.5324   21.6403 C   0  0  1  0  0  0  0  0  0  0  0  0
  -23.6338  -29.8320   22.6392 C   0  0  1  0  0  0  0  0  0  0  0  0
  -28.1233  -18.7525   20.5237 C   0  0  2  0  0  0  0  0  0  0  0  0
  -28.5321  -35.7643   23.5435 C   0  0  0  0  0  0  0  0  0  0  0  0
  -25.7566  -23.7778   22.7742 C   0  0  0  0  0  0  0  0  0  0  0  0
  -27.3220  -22.5267   24.2636 C   0  0  0  0  0  0  0  0  0  0  0  0
  -22.6663  -34.0416   20.9948 C   0  0  0  0  0  0  0  0  0  0  0  0
  -24.5074  -35.7265   21.1936 C   0  0  0  0  0  0  0  0  0  0  0  0
  -23.2251  -35.0380   23.2195 C   0  0  0  0  0  0  0  0  0  0  0  0
  -26.1517  -25.7349   17.1214 C   0  0  0  0  0  0  0  0  0  0  0  0
  -28.1121  -26.6012   15.8290 C   0  0  0  0  0  0  0  0  0  0  0  0
  -29.3567  -32.0655   23.8828 C   0  0  0  0  0  0  0  0  0  0  0  0
  -28.8840  -24.5208   17.9494 C   0  0  0  0  0  0  0  0  0  0  0  0
  -28.4352  -25.9611   18.2423 C   0  0  0  0  0  0  0  0  0  0  0  0
  -29.8820  -23.9858   18.9847 C   0  0  0  0  0  0  0  0  0  0  0  0
  -24.8715  -33.4214   22.1860 C   0  0  1  0  0  0  0  0  0  0  0  0
  -28.2244  -34.2865   23.7284 C   0  0  2  0  0  0  0  0  0  0  0  0
  -27.0213  -22.8631   22.7633 C   0  0  0  0  0  0  0  0  0  0  0  0
  -23.8230  -34.5305   21.8892 C   0  0  0  0  0  0  0  0  0  0  0  0
  -27.4473  -26.5424   17.2083 C   0  0  0  0  0  0  0  0  0  1  0  0
  -29.9374  -24.6156   21.3824 N   0  0  0  0  0  0  0  0  0  0  0  0
  -27.2874  -16.4600   20.8818 N   0  0  0  0  0  0  0  0  0  0  0  0
  -28.2378  -23.2231   20.6761 N   0  0  0  0  0  0  0  0  0  0  0  0
  -27.7816  -17.3631   20.0179 N   0  0  0  0  0  0  0  0  0  0  0  0
  -29.3363  -23.9401   20.3897 N   0  0  0  0  0  0  0  0  0  0  0  0
  -24.3773  -30.9968   22.1548 N   0  0  0  0  0  0  0  0  0  0  0  0
  -27.5494  -20.5287   22.1483 N   0  0  0  0  0  0  0  0  0  0  0  0
  -28.3983  -17.6684   17.7514 N   0  0  0  0  0  0  0  0  0  0  0  0
  -26.9630  -13.3881   17.8732 N   0  0  0  0  0  0  0  0  0  0  0  0
  -21.4971  -28.7627   22.2533 N   0  0  0  0  0  0  0  0  0  0  0  0
  -25.9642  -33.8487   23.0530 N   0  0  0  0  0  0  0  0  0  0  0  0
  -29.5083  -33.5308   23.6903 N   0  3  0  0  0  0  0  0  0  0  0  0
  -27.8278  -15.0241   16.5189 O   0  0  0  0  0  0  0  0  0  0  0  0
  -22.1428  -30.6007   20.9776 O   0  0  0  0  0  0  0  0  0  0  0  0
  -23.6978  -32.3360   23.9383 O   0  0  0  0  0  0  0  0  0  0  0  0
  -25.4179  -21.3953   21.8217 O   0  0  0  0  0  0  0  0  0  0  0  0
  -27.6744  -33.3675   21.5628 O   0  0  0  0  0  0  0  0  0  0  0  0
  -25.0492  -10.6824   22.3512 O   0  0  0  0  0  0  0  0  0  0  0  0
  -27.0970  -27.8742   17.5826 O   0  0  0  0  0  0  0  0  0  1  0  0
  -21.0959   -8.0421   19.5575 F   0  0  0  0  0  0  0  0  0  0  0  0
  -22.5548  -10.2713   23.4701 F   0  0  0  0  0  0  0  0  0  0  0  0
  1  2  1  0  0  0  0
  1  5  2  0  0  0  0
  2  6  2  0  0  0  0
  3  8  2  0  0  0  0
  3 16  1  0  0  0  0
  4  9  1  0  0  0  0
  4 16  2  0  0  0  0
  5 18  1  0  0  0  0
  6 20  1  0  0  0  0
  7 10  2  0  0  0  0
  7 19  1  0  0  0  0
  8 22  1  0  0  0  0
  9 22  2  0  0  0  0
 10 23  1  0  0  0  0
 11 12  2  0  0  0  0
 11 24  1  0  0  0  0
 12 25  1  0  0  0  0
 13 21  1  0  0  0  0
 13 23  2  0  0  0  0
 14 25  2  0  0  0  0
 14 26  1  0  0  0  0
 15 28  1  0  0  0  0
 15 64  2  0  0  0  0
 16 27  1  0  0  0  0
 17 27  1  0  0  0  0
 17 29  2  0  0  0  0
 17 30  1  0  0  0  0
 18 20  2  0  0  0  0
 18 35  1  0  0  0  0
 19 21  2  0  0  0  0
 19 36  1  0  0  0  0
 20 44  1  0  0  0  0
 21 37  1  0  0  0  0
 22 81  1  0  0  0  0
 23 82  1  0  0  0  0
 24 26  2  0  0  0  0
 24 81  1  0  0  0  0
 25 83  1  0  0  0  0
 26 84  1  0  0  0  0
 27 65  2  0  0  0  0
 28 61  1  0  0  0  0
 28 66  2  0  0  0  0
 29 67  1  0  0  0  0
 29 71  1  0  0  0  0
 30 72  1  0  0  0  0
 30 76  2  0  0  0  0
 31 45  1  0  0  0  0
 31 73  1  0  0  0  0
 31 77  2  0  0  0  0
 32 59  1  0  0  0  0
 32 69  1  0  0  0  0
 32 78  2  0  0  0  0
 33 61  1  0  0  0  0
 33 70  1  0  0  0  0
 33 79  2  0  0  0  0
 34 60  1  0  0  0  0
 34 74  1  0  0  0  0
 34 80  2  0  0  0  0
 35 38  1  0  0  0  0
 36 45  1  0  0  0  0
 37 69  1  0  0  0  0
 38 40  1  0  0  0  0
 39 41  1  0  0  0  0
 39 42  1  0  0  0  0
 40 44  1  0  0  0  0
 41 46  1  0  0  0  0
 42 70  1  0  0  0  0
 43 46  1  0  0  0  0
 43 70  1  0  0  0  0
 44 73  1  0  0  0  0
 45 69  1  0  0  0  0
 46 67  1  0  0  0  0
 47 60  1  0  0  0  0
 48 61  1  0  0  0  0
 49 61  1  0  0  0  0
 50 62  1  0  0  0  0
 51 62  1  0  0  0  0
 52 62  1  0  0  0  0
 53 63  1  0  0  0  0
 54 63  1  0  0  0  0
 55 75  1  0  0  0  0
 56 57  1  0  0  0  0
 56 58  1  0  0  0  0
 57 63  1  0  0  0  0
 58 68  1  0  0  0  0
 59 62  1  0  0  0  0
 59 74  1  0  0  0  0
 60 75  1  0  0  0  0
 63 82  1  0  0  0  0
 64 68  1  0  0  0  0
 65 67  1  0  0  0  0
 66 68  1  0  0  0  0
M  CHG  1  75   1
M  ISO  4  33 100  61 100  63 101  82 101
M  END
> <Batch ID>
0073

> <Smiles>
CNC(C)C(=O)NC(C(=O)N1Cc2cc([101O:1][101C:1](C)(C)CCCn3ncc([100C:0](C)(C)[100C:0](=O)N4CCCC(n5nc(-c6ccc(Oc7ccc(F)cc7F)cc6)c(C(N)=O)c5N)C4)n3)ccc2CC1C(=O)NC1CCCc2ccccc21)C(C)(C)C

> <Shape>
0.276

> <Color>
0.106

> <Negative vol penalty>
0.000

$$$$

  -OEChem-04052318273D

 86 94  0     1  0  0  0  0  0999 V2000
  -29.3453  -24.1586   17.7858 C   0  0  0  0  0  0  0  0  0  0  0  0
  -28.0481  -24.4019   18.2256 C   0  0  0  0  0  0  0  0  0  0  0  0
  -26.9205  -17.7326   18.9133 C   0  0  0  0  0  0  0  0  0  0  0  0
  -25.9300  -19.2198   20.5394 C   0  0  0  0  0  0  0  0  0  0  0  0
  -30.4289  -24.6776   18.4932 C   0  0  0  0  0  0  0  0  0  0  0  0
  -27.8338  -25.1636   19.3738 C   0  0  0  0  0  0  0  0  0  0  0  0
  -24.1441  -28.5806   18.7778 C   0  0  0  0  0  0  0  0  0  0  0  0
  -28.0530  -18.5450   18.8601 C   0  0  0  0  0  0  0  0  0  0  0  0
  -27.0625  -20.0322   20.4862 C   0  0  0  0  0  0  0  0  0  0  0  0
  -22.8307  -28.1182   18.8481 C   0  0  0  0  0  0  0  0  0  0  0  0
  -31.3563  -20.0338   18.5654 C   0  0  0  0  0  0  0  0  0  0  0  0
  -32.6037  -19.4104   18.5964 C   0  0  0  0  0  0  0  0  0  0  0  0
  -22.6830  -28.9019   21.1248 C   0  0  0  0  0  0  0  0  0  0  0  0
  -32.0735  -18.4566   20.7519 C   0  0  0  0  0  0  0  0  0  0  0  0
  -17.1983  -23.2135   20.6445 C   0  0  0  0  0  0  0  0  0  0  0  0
  -25.8589  -18.0700   19.7529 C   0  0  0  0  0  0  0  0  0  0  0  0
  -24.4639  -16.1406   20.6690 C   0  0  0  0  0  0  0  0  0  0  0  0
  -30.2274  -25.4541   19.6452 C   0  0  0  0  0  0  0  0  0  0  0  0
  -24.7414  -29.1983   19.8860 C   0  0  0  0  0  0  0  0  0  0  0  0
  -28.9157  -25.6923   20.0981 C   0  0  0  0  0  0  0  0  0  0  0  0
  -24.0032  -29.3735   21.0652 C   0  0  0  0  0  0  0  0  0  0  0  0
  -18.3563  -23.3382   21.3848 C   0  0  0  0  0  0  0  0  0  0  0  0
  -28.1241  -19.6948   19.6466 C   0  0  0  0  0  0  0  0  0  0  0  0
  -22.1008  -28.2763   20.0226 C   0  0  0  0  0  0  0  0  0  0  0  0
  -30.4675  -19.8687   19.6277 C   0  0  0  0  0  0  0  0  0  0  0  0
  -32.9623  -18.6218   19.6896 C   0  0  0  0  0  0  0  0  0  0  0  0
  -30.8261  -19.0801   20.7210 C   0  0  0  0  0  0  0  0  0  0  0  0
  -24.6885  -17.2314   19.8079 C   0  0  0  0  0  0  0  0  0  0  0  0
  -19.1568  -22.2153   21.4346 C   0  0  0  0  0  0  0  0  0  0  0  0
  -23.2145  -15.6844   20.3265 C   0  0  0  0  0  0  0  0  0  0  0  0
  -17.7037  -21.0594   20.1234 C   0  0  0  0  0  0  0  0  0  0  0  0
  -25.3090  -15.5892   21.6875 C   0  0  0  0  0  0  0  0  0  0  0  0
  -27.2441  -28.5517   21.7360 C   0  0  0  0  0  0  0  0  0  0  0  0
  -26.5538  -31.4512   23.0161 C   0  0  0  0  0  0  0  0  0  0  0  0
  -24.2308  -33.8826   23.5978 C   0  0  0  0  0  0  0  0  0  0  0  0
  -18.4703  -18.3086   17.7853 C   0  0  0  0  0  0  0  0  0  0  0  0
  -31.4315  -25.9542   20.4033 C   0  0  0  0  0  0  0  0  0  0  0  0
  -26.1503  -29.7155   19.7853 C   0  0  0  0  0  0  0  0  0  0  0  0
  -24.5917  -30.0482   22.2763 C   0  0  0  0  0  0  0  0  0  0  0  0
  -31.1064  -27.0650   21.3986 C   0  0  0  0  0  0  0  0  0  0  0  0
  -20.2087  -15.4311   16.6127 C   0  0  0  0  0  0  0  0  0  0  0  0
  -29.8747  -26.7008   22.2215 C   0  0  0  0  0  0  0  0  0  0  0  0
  -21.5337  -15.4678   17.3763 C   0  0  0  0  0  0  0  0  0  0  0  0
  -19.7305  -16.8339   16.2446 C   0  0  0  0  0  0  0  0  0  0  0  0
  -20.9649  -17.8111   18.1407 C   0  0  0  0  0  0  0  0  0  0  0  0
  -28.6417  -26.5346   21.3251 C   0  0  1  0  0  0  0  0  0  0  0  0
  -26.8291  -29.8684   21.1430 C   0  0  1  0  0  0  0  0  0  0  0  0
  -21.4594  -16.4231   18.5826 C   0  0  2  0  0  0  0  0  0  0  0  0
  -22.9506  -21.9550   22.1014 C   0  0  0  0  0  0  0  0  0  0  0  0
  -16.4969  -18.8510   20.2913 C   0  0  0  0  0  0  0  0  0  0  0  0
  -23.9539  -36.1187   24.7025 C   0  0  0  0  0  0  0  0  0  0  0  0
  -26.4948  -30.0919   25.7472 C   0  0  0  0  0  0  0  0  0  0  0  0
  -25.3087  -32.1052   26.6461 C   0  0  0  0  0  0  0  0  0  0  0  0
  -27.6138  -32.3282   25.7190 C   0  0  0  0  0  0  0  0  0  0  0  0
  -23.5150  -35.1875   21.0397 C   0  0  0  0  0  0  0  0  0  0  0  0
  -18.7004  -24.6289   22.0844 C   0  0  0  0  0  0  0  0  0  0  0  0
  -20.4352  -22.2337   22.2059 C   0  0  0  0  0  0  0  0  0  0  0  0
  -21.6463  -21.9027   21.3218 C   0  0  0  0  0  0  0  0  0  0  0  0
  -19.7860  -25.4468   21.3760 C   0  0  0  0  0  0  0  0  0  0  0  0
  -19.3671  -25.9176   19.9825 C   0  0  0  0  0  0  0  0  0  0  0  0
  -20.4837  -26.6916   19.2949 C   0  0  0  0  0  0  0  0  0  1  0  0
  -17.3418  -19.7939   19.4223 C   0  0  2  0  0  0  0  0  0  0  0  0
  -25.6758  -31.9410   24.1422 C   0  0  1  0  0  0  0  0  0  0  0  0
  -24.2795  -35.3881   23.4091 C   0  0  2  0  0  0  0  0  0  0  0  0
  -26.2626  -31.6021   25.5416 C   0  0  0  0  0  0  0  0  0  0  0  0
  -16.8396  -22.0847   19.9984 N   0  0  0  0  0  0  0  0  0  0  0  0
  -23.6640  -17.4546   18.9805 N   0  0  0  0  0  0  0  0  0  0  0  0
  -18.8600  -21.0549   20.8137 N   0  0  0  0  0  0  0  0  0  0  0  0
  -22.7836  -16.4977   19.3200 N   0  0  0  0  0  0  0  0  0  0  0  0
  -25.9748  -30.5312   22.1306 N   0  0  0  0  0  0  0  0  0  0  0  0
  -19.6808  -17.6892   17.4329 N   0  0  0  0  0  0  0  0  0  0  0  0
  -22.4535  -14.6707   20.7910 N   0  0  0  0  0  0  0  0  0  0  0  0
  -26.5607  -16.1795   21.9090 N   0  0  0  0  0  0  0  0  0  0  0  0
  -28.1155  -27.8279   20.9446 N   0  0  0  0  0  0  0  0  0  0  0  0
  -25.4708  -33.3666   23.9095 N   0  0  0  0  0  0  0  0  0  0  0  0
  -18.5088  -19.0971   18.9288 N   0  0  0  0  0  0  0  0  0  0  0  0
  -23.2987  -35.8119   22.3702 N   0  3  0  0  0  0  0  0  0  0  0  0
  -24.9712  -14.5920   22.3695 O   0  0  0  0  0  0  0  0  0  0  0  0
  -26.8072  -28.2177   22.8311 O   0  0  0  0  0  0  0  0  0  0  0  0
  -27.7085  -31.8748   22.9214 O   0  0  0  0  0  0  0  0  0  0  0  0
  -23.1954  -33.2302   23.4839 O   0  0  0  0  0  0  0  0  0  0  0  0
  -17.4310  -18.1649   17.1326 O   0  0  0  0  0  0  0  0  0  0  0  0
  -29.2292  -20.4877   19.5951 O   0  0  0  0  0  0  0  0  0  0  0  0
  -20.8189  -27.8253   20.0940 O   0  0  0  0  0  0  0  0  0  1  0  0
  -34.1596  -18.0219   19.7185 F   0  0  0  0  0  0  0  0  0  0  0  0
  -29.9760  -18.9169   21.7439 F   0  0  0  0  0  0  0  0  0  0  0  0
  1  2  1  0  0  0  0
  1  5  2  0  0  0  0
  2  6  2  0  0  0  0
  3  8  2  0  0  0  0
  3 16  1  0  0  0  0
  4  9  1  0  0  0  0
  4 16  2  0  0  0  0
  5 18  1  0  0  0  0
  6 20  1  0  0  0  0
  7 10  2  0  0  0  0
  7 19  1  0  0  0  0
  8 23  1  0  0  0  0
  9 23  2  0  0  0  0
 10 24  1  0  0  0  0
 11 12  2  0  0  0  0
 11 25  1  0  0  0  0
 12 26  1  0  0  0  0
 13 21  1  0  0  0  0
 13 24  2  0  0  0  0
 14 26  2  0  0  0  0
 14 27  1  0  0  0  0
 15 22  1  0  0  0  0
 15 66  2  0  0  0  0
 16 28  1  0  0  0  0
 17 28  1  0  0  0  0
 17 30  2  0  0  0  0
 17 32  1  0  0  0  0
 18 20  2  0  0  0  0
 18 37  1  0  0  0  0
 19 21  2  0  0  0  0
 19 38  1  0  0  0  0
 20 46  1  0  0  0  0
 21 39  1  0  0  0  0
 22 29  2  0  0  0  0
 22 56  1  0  0  0  0
 23 83  1  0  0  0  0
 24 84  1  0  0  0  0
 25 27  2  0  0  0  0
 25 83  1  0  0  0  0
 26 85  1  0  0  0  0
 27 86  1  0  0  0  0
 28 67  2  0  0  0  0
 29 57  1  0  0  0  0
 29 68  1  0  0  0  0
 30 69  1  0  0  0  0
 30 72  1  0  0  0  0
 31 62  1  0  0  0  0
 31 66  1  0  0  0  0
 31 68  2  0  0  0  0
 32 73  1  0  0  0  0
 32 78  2  0  0  0  0
 33 47  1  0  0  0  0
 33 74  1  0  0  0  0
 33 79  2  0  0  0  0
 34 63  1  0  0  0  0
 34 70  1  0  0  0  0
 34 80  2  0  0  0  0
 35 64  1  0  0  0  0
 35 75  1  0  0  0  0
 35 81  2  0  0  0  0
 36 71  1  0  0  0  0
 36 76  1  0  0  0  0
 36 82  2  0  0  0  0
 37 40  1  0  0  0  0
 38 47  1  0  0  0  0
 39 70  1  0  0  0  0
 40 42  1  0  0  0  0
 41 43  1  0  0  0  0
 41 44  1  0  0  0  0
 42 46  1  0  0  0  0
 43 48  1  0  0  0  0
 44 71  1  0  0  0  0
 45 48  1  0  0  0  0
 45 71  1  0  0  0  0
 46 74  1  0  0  0  0
 47 70  1  0  0  0  0
 48 69  1  0  0  0  0
 49 58  1  0  0  0  0
 50 62  1  0  0  0  0
 51 64  1  0  0  0  0
 52 65  1  0  0  0  0
 53 65  1  0  0  0  0
 54 65  1  0  0  0  0
 55 77  1  0  0  0  0
 56 59  1  0  0  0  0
 57 58  1  0  0  0  0
 59 60  1  0  0  0  0
 60 61  1  0  0  0  0
 61 84  1  0  0  0  0
 62 76  1  0  0  0  0
 63 65  1  0  0  0  0
 63 75  1  0  0  0  0
 64 77  1  0  0  0  0
 67 69  1  0  0  0  0
M  CHG  1  77   1
M  ISO  4  36 100  61 101  76 100  84 101
M  END
> <Batch ID>
0073

> <Smiles>
CCCc1nc(C(C)[100NH:0][100C:0](=O)N2CCCC(n3nc(-c4ccc(Oc5ccc(F)cc5F)cc4)c(C(N)=O)c3N)C2)ncc1CCC[101CH2:1][101O:1]c1ccc2c(c1)CN(C(=O)C(NC(=O)C(C)NC)C(C)(C)C)C(C(=O)NC1CCCc3ccccc31)C2

> <Shape>
0.228

> <Color>
0.078

> <Negative vol penalty>
0.000

$$$$

  -OEChem-04052318273D

 87 95  0     1  0  0  0  0  0999 V2000
  -20.6704   -8.2270   18.6630 C   0  0  0  0  0  0  0  0  0  0  0  0
  -20.4192   -9.5913   18.7688 C   0  0  0  0  0  0  0  0  0  0  0  0
  -23.0162  -31.3746   22.3625 C   0  0  0  0  0  0  0  0  0  0  0  0
  -24.0675  -30.4493   24.3312 C   0  0  0  0  0  0  0  0  0  0  0  0
  -21.6739   -7.6423   19.4343 C   0  0  0  0  0  0  0  0  0  0  0  0
  -21.1707  -10.3714   19.6468 C   0  0  0  0  0  0  0  0  0  0  0  0
  -23.8467  -16.9789   20.3514 C   0  0  0  0  0  0  0  0  0  0  0  0
  -21.7707  -31.2805   22.9834 C   0  0  0  0  0  0  0  0  0  0  0  0
  -22.8220  -30.3552   24.9521 C   0  0  0  0  0  0  0  0  0  0  0  0
  -23.8762  -18.0381   21.2575 C   0  0  0  0  0  0  0  0  0  0  0  0
  -18.2717  -30.9487   23.9166 C   0  0  0  0  0  0  0  0  0  0  0  0
  -17.2105  -30.4361   23.1705 C   0  0  0  0  0  0  0  0  0  0  0  0
  -25.6372  -16.9339   22.4817 C   0  0  0  0  0  0  0  0  0  0  0  0
  -18.4178  -28.3641   22.8769 C   0  0  0  0  0  0  0  0  0  0  0  0
  -29.9099  -22.6150   22.6619 C   0  0  0  0  0  0  0  0  0  0  0  0
  -24.1646  -30.9590   23.0364 C   0  0  0  0  0  0  0  0  0  0  0  0
  -26.3405  -32.1462   22.4334 C   0  0  0  0  0  0  0  0  0  0  0  0
  -22.4446   -8.4175   20.3152 C   0  0  0  0  0  0  0  0  0  0  0  0
  -24.7062  -15.8824   20.5101 C   0  0  0  0  0  0  0  0  0  0  0  0
  -22.1846   -9.7963   20.4316 C   0  0  0  0  0  0  0  0  0  0  0  0
  -25.6185  -15.8633   21.5747 C   0  0  0  0  0  0  0  0  0  0  0  0
  -21.6736  -30.7708   24.2782 C   0  0  0  0  0  0  0  0  0  0  0  0
  -24.7695  -18.0143   22.3245 C   0  0  0  0  0  0  0  0  0  0  0  0
  -19.4060  -30.1690   24.1428 C   0  0  0  0  0  0  0  0  0  0  0  0
  -17.2836  -29.1438   22.6507 C   0  0  0  0  0  0  0  0  0  0  0  0
  -19.4791  -28.8767   23.6230 C   0  0  0  0  0  0  0  0  0  0  0  0
  -25.4514  -31.0554   22.3953 C   0  0  0  0  0  0  0  0  0  0  0  0
  -31.2315  -22.9603   22.6263 C   0  0  0  0  0  0  0  0  0  0  0  0
  -27.4112  -31.7432   21.6733 C   0  0  0  0  0  0  0  0  0  0  0  0
  -30.0420  -24.7568   22.1185 C   0  0  0  0  0  0  0  0  0  0  0  0
  -26.2103  -33.4106   23.0967 C   0  0  0  0  0  0  0  0  0  0  0  0
  -24.3020  -12.7691   21.0080 C   0  0  0  0  0  0  0  0  0  0  0  0
  -29.5010  -26.2896   20.2578 C   0  0  0  0  0  0  0  0  0  0  0  0
  -27.5216  -12.6856   20.6213 C   0  0  0  0  0  0  0  0  0  0  0  0
  -30.4996  -14.3470   20.7542 C   0  0  0  0  0  0  0  0  0  0  0  0
  -23.4869   -7.7323   21.1631 C   0  0  0  0  0  0  0  0  0  0  0  0
  -24.6806  -14.7603   19.5087 C   0  0  0  0  0  0  0  0  0  0  0  0
  -26.5762  -14.7188   21.7780 C   0  0  0  0  0  0  0  0  0  0  0  0
  -24.4887   -8.6961   21.7937 C   0  0  0  0  0  0  0  0  0  0  0  0
  -28.5510  -28.9070   18.0024 C   0  0  0  0  0  0  0  0  0  0  0  0
  -23.7655   -9.8862   22.4162 C   0  0  0  0  0  0  0  0  0  0  0  0
  -27.7056  -29.8389   18.8697 C   0  0  0  0  0  0  0  0  0  0  0  0
  -28.3551  -27.4465   18.3970 C   0  0  0  0  0  0  0  0  0  0  0  0
  -27.7704  -28.0982   20.7111 C   0  0  0  0  0  0  0  0  0  0  0  0
  -22.9951  -10.6804   21.3545 C   0  0  1  0  0  0  0  0  0  0  0  0
  -25.2449  -13.4545   20.0600 C   0  0  1  0  0  0  0  0  0  0  0  0
  -27.9621  -29.5857   20.3658 C   0  0  2  0  0  0  0  0  0  0  0  0
  -32.4439  -22.1763   22.8758 C   0  0  0  0  0  0  0  0  0  0  0  0
  -32.9631  -14.0044   20.4206 C   0  0  0  0  0  0  0  0  0  0  0  0
  -27.6803  -11.2359   23.3014 C   0  0  0  0  0  0  0  0  0  0  0  0
  -30.1265  -11.7658   23.3641 C   0  0  0  0  0  0  0  0  0  0  0  0
  -29.2080  -10.3371   21.5371 C   0  0  0  0  0  0  0  0  0  0  0  0
  -25.0668  -25.3287   23.0044 C   0  0  0  0  0  0  0  0  0  0  0  0
  -25.0717  -24.1018   25.1708 C   0  0  0  0  0  0  0  0  0  0  0  0
  -30.6020  -16.3525   18.5801 C   0  0  0  0  0  0  0  0  0  0  0  0
  -25.1576  -21.4370   23.5027 C   0  0  0  0  0  0  0  0  0  0  0  0
  -24.7937  -22.8371   22.9873 C   0  0  0  0  0  0  0  0  0  0  0  0
  -27.0622  -23.9053   23.6615 C   0  0  0  0  0  0  0  0  0  0  0  0
  -27.6918  -23.8287   22.2640 C   0  0  0  0  0  0  0  0  0  0  0  0
  -30.7003  -27.2226   22.1993 C   0  0  0  0  0  0  0  0  0  0  0  0
  -24.4476  -20.3379   22.7162 C   0  0  0  0  0  0  0  0  0  1  0  0
  -29.6876  -26.1496   21.7477 C   0  0  2  0  0  0  0  0  0  0  0  0
  -28.7124  -12.8163   21.5398 C   0  0  1  0  0  0  0  0  0  0  0  0
  -31.6540  -14.4256   19.7714 C   0  0  2  0  0  0  0  0  0  0  0  0
  -28.9126  -11.5596   22.4332 C   0  0  0  0  0  0  0  0  0  0  0  0
  -25.5126  -24.0211   23.6935 C   0  0  0  0  0  0  0  0  0  0  0  0
  -25.9167  -30.0360   21.6684 N   0  0  0  0  0  0  0  0  0  0  0  0
  -29.1968  -23.7457   22.3442 N   0  0  0  0  0  0  0  0  0  0  0  0
  -27.1098  -30.4847   21.2426 N   0  0  0  0  0  0  0  0  0  0  0  0
  -31.2836  -24.2908   22.2873 N   0  3  0  0  0  0  0  0  0  0  0  0
  -26.5084  -13.6424   20.7758 N   0  0  0  0  0  0  0  0  0  0  0  0
  -28.5859  -27.2515   19.8294 N   0  0  0  0  0  0  0  0  0  0  0  0
  -28.5715  -32.3461   21.3379 N   0  0  0  0  0  0  0  0  0  0  0  0
  -25.0458  -33.6609   23.8353 N   0  0  0  0  0  0  0  0  0  0  0  0
  -23.8994  -11.5143   20.5922 N   0  0  0  0  0  0  0  0  0  0  0  0
  -29.8534  -13.1309   20.6868 N   0  0  0  0  0  0  0  0  0  0  0  0
  -30.8475  -27.1808   23.6762 N   0  3  0  0  0  0  0  0  0  0  0  0
  -31.8080  -15.8182   19.2636 N   0  3  0  0  0  0  0  0  0  0  0  0
  -27.0931  -34.2987   23.0227 O   0  0  0  0  0  0  0  0  0  0  0  0
  -23.9658  -13.3360   22.0411 O   0  0  0  0  0  0  0  0  0  0  0  0
  -30.1522  -25.5669   19.4990 O   0  0  0  0  0  0  0  0  0  0  0  0
  -27.4946  -11.7726   19.7922 O   0  0  0  0  0  0  0  0  0  0  0  0
  -30.2034  -15.2706   21.5090 O   0  0  0  0  0  0  0  0  0  0  0  0
  -20.4584  -30.6791   24.8844 O   0  0  0  0  0  0  0  0  0  0  0  0
  -24.7999  -19.0465   23.2108 O   0  0  0  0  0  0  0  0  0  1  0  0
  -16.2638  -28.6511   21.9355 F   0  0  0  0  0  0  0  0  0  0  0  0
  -20.5657  -28.1225   23.8380 F   0  0  0  0  0  0  0  0  0  0  0  0
  1  2  1  0  0  0  0
  1  5  2  0  0  0  0
  2  6  2  0  0  0  0
  3  8  2  0  0  0  0
  3 16  1  0  0  0  0
  4  9  1  0  0  0  0
  4 16  2  0  0  0  0
  5 18  1  0  0  0  0
  6 20  1  0  0  0  0
  7 10  2  0  0  0  0
  7 19  1  0  0  0  0
  8 22  1  0  0  0  0
  9 22  2  0  0  0  0
 10 23  1  0  0  0  0
 11 12  2  0  0  0  0
 11 24  1  0  0  0  0
 12 25  1  0  0  0  0
 13 21  1  0  0  0  0
 13 23  2  0  0  0  0
 14 25  2  0  0  0  0
 14 26  1  0  0  0  0
 15 28  2  0  0  0  0
 15 68  1  0  0  0  0
 16 27  1  0  0  0  0
 17 27  1  0  0  0  0
 17 29  2  0  0  0  0
 17 31  1  0  0  0  0
 18 20  2  0  0  0  0
 18 36  1  0  0  0  0
 19 21  2  0  0  0  0
 19 37  1  0  0  0  0
 20 45  1  0  0  0  0
 21 38  1  0  0  0  0
 22 84  1  0  0  0  0
 23 85  1  0  0  0  0
 24 26  2  0  0  0  0
 24 84  1  0  0  0  0
 25 86  1  0  0  0  0
 26 87  1  0  0  0  0
 27 67  2  0  0  0  0
 28 48  1  0  0  0  0
 28 70  1  0  0  0  0
 29 69  1  0  0  0  0
 29 73  1  0  0  0  0
 30 62  1  0  0  0  0
 30 68  1  0  0  0  0
 30 70  2  0  0  0  0
 31 74  1  0  0  0  0
 31 79  2  0  0  0  0
 32 46  1  0  0  0  0
 32 75  1  0  0  0  0
 32 80  2  0  0  0  0
 33 62  1  0  0  0  0
 33 72  1  0  0  0  0
 33 81  2  0  0  0  0
 34 63  1  0  0  0  0
 34 71  1  0  0  0  0
 34 82  2  0  0  0  0
 35 64  1  0  0  0  0
 35 76  1  0  0  0  0
 35 83  2  0  0  0  0
 36 39  1  0  0  0  0
 37 46  1  0  0  0  0
 38 71  1  0  0  0  0
 39 41  1  0  0  0  0
 40 42  1  0  0  0  0
 40 43  1  0  0  0  0
 41 45  1  0  0  0  0
 42 47  1  0  0  0  0
 43 72  1  0  0  0  0
 44 47  1  0  0  0  0
 44 72  1  0  0  0  0
 45 75  1  0  0  0  0
 46 71  1  0  0  0  0
 47 69  1  0  0  0  0
 49 64  1  0  0  0  0
 50 65  1  0  0  0  0
 51 65  1  0  0  0  0
 52 65  1  0  0  0  0
 53 66  1  0  0  0  0
 54 66  1  0  0  0  0
 55 78  1  0  0  0  0
 56 57  1  0  0  0  0
 56 61  1  0  0  0  0
 57 66  1  0  0  0  0
 58 59  1  0  0  0  0
 58 66  1  0  0  0  0
 59 68  1  0  0  0  0
 60 62  1  0  0  0  0
 60 77  1  0  0  0  0
 61 85  1  0  0  0  0
 63 65  1  0  0  0  0
 63 76  1  0  0  0  0
 64 78  1  0  0  0  0
 67 69  1  0  0  0  0
M  CHG  3  70   1  77   1  78   1
M  ISO  4  33 100  61 101  62 100  85 101
M  END
> <Batch ID>
0073

> <Smiles>
CNC(C)C(=O)NC(C(=O)N1Cc2cc([101O:1][101CH2:1]CCC(C)(C)CCn3cc(C)nc3[100CH:0](CN)[100C:0](=O)N3CCCC(n4nc(-c5ccc(Oc6ccc(F)cc6F)cc5)c(C(N)=O)c4N)C3)ccc2CC1C(=O)NC1CCCc2ccccc21)C(C)(C)C

> <Shape>
0.275

> <Color>
0.062

> <Negative vol penalty>
0.000

$$$$

  -OEChem-04052318273D

 86 94  0     1  0  0  0  0  0999 V2000
  -16.8882  -29.0224   23.7753 C   0  0  0  0  0  0  0  0  0  0  0  0
  -17.5166  -28.1548   22.8877 C   0  0  0  0  0  0  0  0  0  0  0  0
  -26.8953  -10.1876   21.5276 C   0  0  0  0  0  0  0  0  0  0  0  0
  -25.2962  -11.9403   21.0715 C   0  0  0  0  0  0  0  0  0  0  0  0
  -17.4221  -30.2897   24.0052 C   0  0  0  0  0  0  0  0  0  0  0  0
  -18.6787  -28.5544   22.2287 C   0  0  0  0  0  0  0  0  0  0  0  0
  -22.2479  -24.9619   22.2336 C   0  0  0  0  0  0  0  0  0  0  0  0
  -25.8869   -9.4189   22.1089 C   0  0  0  0  0  0  0  0  0  0  0  0
  -24.2878  -11.1716   21.6528 C   0  0  0  0  0  0  0  0  0  0  0  0
  -22.1000  -23.9162   21.3234 C   0  0  0  0  0  0  0  0  0  0  0  0
  -22.3388   -8.5521   20.7808 C   0  0  0  0  0  0  0  0  0  0  0  0
  -21.1200   -8.4687   20.1077 C   0  0  0  0  0  0  0  0  0  0  0  0
  -23.6926  -24.9771   19.8548 C   0  0  0  0  0  0  0  0  0  0  0  0
  -19.9996   -9.4374   22.0165 C   0  0  0  0  0  0  0  0  0  0  0  0
  -25.0680  -18.6412   19.0858 C   0  0  0  0  0  0  0  0  0  0  0  0
  -26.5999  -11.4484   21.0089 C   0  0  0  0  0  0  0  0  0  0  0  0
  -28.0335  -12.2495   19.0568 C   0  0  0  0  0  0  0  0  0  0  0  0
  -18.5967  -30.7015   23.3560 C   0  0  0  0  0  0  0  0  0  0  0  0
  -23.1125  -26.0303   21.9558 C   0  0  0  0  0  0  0  0  0  0  0  0
  -19.2280  -29.8289   22.4492 C   0  0  0  0  0  0  0  0  0  0  0  0
  -23.8517  -26.0339   20.7642 C   0  0  0  0  0  0  0  0  0  0  0  0
  -24.5832   -9.9109   22.1715 C   0  0  0  0  0  0  0  0  0  0  0  0
  -22.8202  -23.9251   20.1325 C   0  0  0  0  0  0  0  0  0  0  0  0
  -22.3880   -9.0781   22.0718 C   0  0  0  0  0  0  0  0  0  0  0  0
  -19.9504   -8.9114   20.7255 C   0  0  0  0  0  0  0  0  0  0  0  0
  -21.2184   -9.5207   22.6896 C   0  0  0  0  0  0  0  0  0  0  0  0
  -27.6412  -12.2431   20.4088 C   0  0  0  0  0  0  0  0  0  0  0  0
  -23.8211  -18.9392   18.5749 C   0  0  0  0  0  0  0  0  0  0  0  0
  -25.8734  -19.7263   19.3654 C   0  0  0  0  0  0  0  0  0  0  0  0
  -29.0541  -13.1669   18.9997 C   0  0  0  0  0  0  0  0  0  0  0  0
  -24.2617  -21.1674   18.6637 C   0  0  0  0  0  0  0  0  0  0  0  0
  -27.5211  -11.4937   17.9514 C   0  0  0  0  0  0  0  0  0  0  0  0
  -22.7509  -29.1629   21.5556 C   0  0  0  0  0  0  0  0  0  0  0  0
  -25.9927  -29.1290   21.4457 C   0  0  0  0  0  0  0  0  0  0  0  0
  -28.8529  -27.3678   20.8423 C   0  0  0  0  0  0  0  0  0  0  0  0
  -30.4785  -17.8972   22.3829 C   0  0  0  0  0  0  0  0  0  0  0  0
  -19.1099  -32.0984   23.6008 C   0  0  0  0  0  0  0  0  0  0  0  0
  -23.2810  -27.1374   22.9600 C   0  0  0  0  0  0  0  0  0  0  0  0
  -24.8083  -27.1475   20.4278 C   0  0  0  0  0  0  0  0  0  0  0  0
  -20.5524  -32.3057   23.1465 C   0  0  0  0  0  0  0  0  0  0  0  0
  -32.5295  -15.0733   21.6789 C   0  0  0  0  0  0  0  0  0  0  0  0
  -20.7605  -31.7285   21.7499 C   0  0  0  0  0  0  0  0  0  0  0  0
  -31.5446  -14.0283   21.1516 C   0  0  0  0  0  0  0  0  0  0  0  0
  -31.9130  -15.9193   22.7908 C   0  0  0  0  0  0  0  0  0  0  0  0
  -29.6449  -15.5131   21.9165 C   0  0  0  0  0  0  0  0  0  0  0  0
  -20.5041  -30.2167   21.7340 C   0  0  1  0  0  0  0  0  0  0  0  0
  -23.8019  -28.4310   22.3415 C   0  0  1  0  0  0  0  0  0  0  0  0
  -30.2025  -14.6724   20.7552 C   0  0  2  0  0  0  0  0  0  0  0  0
  -22.8789  -17.8312   18.2421 C   0  0  0  0  0  0  0  0  0  0  0  0
  -28.3472  -19.9081   18.9119 C   0  0  0  0  0  0  0  0  0  0  0  0
  -23.4419  -22.8444   16.9728 C   0  0  0  0  0  0  0  0  0  0  0  0
  -31.3493  -27.6199   20.7981 C   0  0  0  0  0  0  0  0  0  0  0  0
  -25.7933  -30.6127   18.7869 C   0  0  0  0  0  0  0  0  0  0  0  0
  -28.1802  -29.9995   18.3454 C   0  0  0  0  0  0  0  0  0  0  0  0
  -27.6042  -31.4314   20.3052 C   0  0  0  0  0  0  0  0  0  0  0  0
  -27.3413  -21.6292   21.4248 C   0  0  0  0  0  0  0  0  0  0  0  0
  -26.4769  -19.4935   22.3794 C   0  0  0  0  0  0  0  0  0  0  0  0
  -29.2127  -25.3274   22.9557 C   0  0  0  0  0  0  0  0  0  0  0  0
  -28.9296  -19.7779   21.9106 C   0  0  0  0  0  0  0  0  0  0  0  0
  -27.2393  -19.5033   19.9230 C   0  0  1  0  0  0  0  0  0  0  0  0
  -23.8071  -22.5899   18.4298 C   0  0  1  0  0  0  0  0  0  1  0  0
  -27.0238  -28.9711   20.3544 C   0  0  1  0  0  0  0  0  0  0  0  0
  -30.1401  -27.2344   21.6360 C   0  0  2  0  0  0  0  0  0  0  0  0
  -27.1310  -30.2335   19.4531 C   0  0  0  0  0  0  0  0  0  0  0  0
  -27.4996  -20.0931   21.3839 C   0  0  0  0  0  0  0  0  0  0  0  0
  -28.3545  -13.0892   21.1566 N   0  0  0  0  0  0  0  0  0  0  0  0
  -23.3837  -20.1956   18.3504 N   0  0  0  0  0  0  0  0  0  0  0  0
  -25.5010  -21.0076   19.1658 N   0  0  0  0  0  0  0  0  0  0  0  0
  -29.2054  -13.6358   20.2715 N   0  0  0  0  0  0  0  0  0  0  0  0
  -24.9336  -28.2103   21.4389 N   0  0  0  0  0  0  0  0  0  0  0  0
  -30.6436  -16.5027   22.3502 N   0  0  0  0  0  0  0  0  0  0  0  0
  -29.8279  -13.6101   17.9862 N   0  0  0  0  0  0  0  0  0  0  0  0
  -26.4710  -10.5956   18.1856 N   0  0  0  0  0  0  0  0  0  0  0  0
  -21.6342  -29.5065   22.2933 N   0  0  0  0  0  0  0  0  0  0  0  0
  -28.2694  -28.6044   21.0196 N   0  0  0  0  0  0  0  0  0  0  0  0
  -29.2476  -18.3677   21.9422 N   0  0  0  0  0  0  0  0  0  0  0  0
  -30.3189  -25.8298   22.1008 N   0  3  0  0  0  0  0  0  0  0  0  0
  -27.9919  -11.5994   16.7934 O   0  0  0  0  0  0  0  0  0  0  0  0
  -22.9399  -29.3997   20.3682 O   0  0  0  0  0  0  0  0  0  0  0  0
  -26.1260  -30.0298   22.2778 O   0  0  0  0  0  0  0  0  0  0  0  0
  -28.4114  -26.4665   20.1329 O   0  0  0  0  0  0  0  0  0  0  0  0
  -31.3644  -18.6664   22.7708 O   0  0  0  0  0  0  0  0  0  0  0  0
  -23.5990   -9.1609   22.7384 O   0  0  0  0  0  0  0  0  0  0  0  0
  -22.6772  -22.9060   19.2421 O   0  0  0  0  0  0  0  0  0  1  0  0
  -18.7802   -8.8326   20.0784 F   0  0  0  0  0  0  0  0  0  0  0  0
  -21.2596  -10.0280   23.9293 F   0  0  0  0  0  0  0  0  0  0  0  0
  1  2  1  0  0  0  0
  1  5  2  0  0  0  0
  2  6  2  0  0  0  0
  3  8  2  0  0  0  0
  3 16  1  0  0  0  0
  4  9  1  0  0  0  0
  4 16  2  0  0  0  0
  5 18  1  0  0  0  0
  6 20  1  0  0  0  0
  7 10  2  0  0  0  0
  7 19  1  0  0  0  0
  8 22  1  0  0  0  0
  9 22  2  0  0  0  0
 10 23  1  0  0  0  0
 11 12  2  0  0  0  0
 11 24  1  0  0  0  0
 12 25  1  0  0  0  0
 13 21  1  0  0  0  0
 13 23  2  0  0  0  0
 14 25  2  0  0  0  0
 14 26  1  0  0  0  0
 15 28  1  0  0  0  0
 15 29  2  0  0  0  0
 16 27  1  0  0  0  0
 17 27  1  0  0  0  0
 17 30  2  0  0  0  0
 17 32  1  0  0  0  0
 18 20  2  0  0  0  0
 18 37  1  0  0  0  0
 19 21  2  0  0  0  0
 19 38  1  0  0  0  0
 20 46  1  0  0  0  0
 21 39  1  0  0  0  0
 22 83  1  0  0  0  0
 23 84  1  0  0  0  0
 24 26  2  0  0  0  0
 24 83  1  0  0  0  0
 25 85  1  0  0  0  0
 26 86  1  0  0  0  0
 27 66  2  0  0  0  0
 28 49  1  0  0  0  0
 28 67  2  0  0  0  0
 29 60  1  0  0  0  0
 29 68  1  0  0  0  0
 30 69  1  0  0  0  0
 30 72  1  0  0  0  0
 31 61  1  0  0  0  0
 31 67  1  0  0  0  0
 31 68  2  0  0  0  0
 32 73  1  0  0  0  0
 32 78  2  0  0  0  0
 33 47  1  0  0  0  0
 33 74  1  0  0  0  0
 33 79  2  0  0  0  0
 34 62  1  0  0  0  0
 34 70  1  0  0  0  0
 34 80  2  0  0  0  0
 35 63  1  0  0  0  0
 35 75  1  0  0  0  0
 35 81  2  0  0  0  0
 36 71  1  0  0  0  0
 36 76  1  0  0  0  0
 36 82  2  0  0  0  0
 37 40  1  0  0  0  0
 38 47  1  0  0  0  0
 39 70  1  0  0  0  0
 40 42  1  0  0  0  0
 41 43  1  0  0  0  0
 41 44  1  0  0  0  0
 42 46  1  0  0  0  0
 43 48  1  0  0  0  0
 44 71  1  0  0  0  0
 45 48  1  0  0  0  0
 45 71  1  0  0  0  0
 46 74  1  0  0  0  0
 47 70  1  0  0  0  0
 48 69  1  0  0  0  0
 50 60  1  0  0  0  0
 51 61  1  0  0  0  0
 52 63  1  0  0  0  0
 53 64  1  0  0  0  0
 54 64  1  0  0  0  0
 55 64  1  0  0  0  0
 56 65  1  0  0  0  0
 57 65  1  0  0  0  0
 58 77  1  0  0  0  0
 59 65  1  0  0  0  0
 59 76  1  0  0  0  0
 60 65  1  0  0  0  0
 61 84  1  0  0  0  0
 62 64  1  0  0  0  0
 62 75  1  0  0  0  0
 63 77  1  0  0  0  0
 66 69  1  0  0  0  0
M  CHG  1  77   1
M  ISO  4  36 100  61 101  76 100  84 101
M  END
> <Batch ID>
0073

> <Smiles>
CNC(C)C(=O)NC(C(=O)N1Cc2cc([101O:1][101CH:1](C)c3nc(C)cc(C(C)C(C)(C)C[100NH:0][100C:0](=O)N4CCCC(n5nc(-c6ccc(Oc7ccc(F)cc7F)cc6)c(C(N)=O)c5N)C4)n3)ccc2CC1C(=O)NC1CCCc2ccccc21)C(C)(C)C

> <Shape>
0.267

> <Color>
0.061

> <Negative vol penalty>
0.000

$$$$

  -OEChem-04052318273D

 83 91  0     1  0  0  0  0  0999 V2000
  -18.0520  -28.7927   23.3310 C   0  0  0  0  0  0  0  0  0  0  0  0
  -19.4357  -28.8296   23.4696 C   0  0  0  0  0  0  0  0  0  0  0  0
  -25.2782  -16.2794   21.5197 C   0  0  0  0  0  0  0  0  0  0  0  0
  -25.1372  -15.8579   19.1450 C   0  0  0  0  0  0  0  0  0  0  0  0
  -17.4627  -27.8619   22.4764 C   0  0  0  0  0  0  0  0  0  0  0  0
  -20.2311  -27.9349   22.7545 C   0  0  0  0  0  0  0  0  0  0  0  0
  -25.7964  -29.0011   20.4315 C   0  0  0  0  0  0  0  0  0  0  0  0
  -24.1029  -15.5549   21.7181 C   0  0  0  0  0  0  0  0  0  0  0  0
  -23.9619  -15.1334   19.3433 C   0  0  0  0  0  0  0  0  0  0  0  0
  -27.0780  -28.7018   20.8917 C   0  0  0  0  0  0  0  0  0  0  0  0
  -21.1194  -12.8679   19.2665 C   0  0  0  0  0  0  0  0  0  0  0  0
  -20.9883  -11.6487   18.6017 C   0  0  0  0  0  0  0  0  0  0  0  0
  -27.0929  -26.7075   19.5346 C   0  0  0  0  0  0  0  0  0  0  0  0
  -22.9575  -10.8213   19.7307 C   0  0  0  0  0  0  0  0  0  0  0  0
  -31.2643  -28.7674   17.1580 C   0  0  0  0  0  0  0  0  0  0  0  0
  -32.4286  -28.7412   16.4433 C   0  0  0  0  0  0  0  0  0  0  0  0
  -25.7953  -16.4310   20.2331 C   0  0  0  0  0  0  0  0  0  0  0  0
  -28.3263  -16.6831   20.0373 C   0  0  0  0  0  0  0  0  0  0  0  0
  -18.2518  -26.9618   21.7431 C   0  0  0  0  0  0  0  0  0  0  0  0
  -25.1480  -28.1487   19.5263 C   0  0  0  0  0  0  0  0  0  0  0  0
  -19.6517  -26.9903   21.8903 C   0  0  0  0  0  0  0  0  0  0  0  0
  -25.8042  -26.9995   19.0626 C   0  0  0  0  0  0  0  0  0  0  0  0
  -23.4448  -14.9818   20.6299 C   0  0  0  0  0  0  0  0  0  0  0  0
  -27.7253  -27.5533   20.4455 C   0  0  0  0  0  0  0  0  0  0  0  0
  -22.1696  -13.0639   20.1634 C   0  0  0  0  0  0  0  0  0  0  0  0
  -21.9073  -10.6254   18.8338 C   0  0  0  0  0  0  0  0  0  0  0  0
  -23.0887  -12.0406   20.3955 C   0  0  0  0  0  0  0  0  0  0  0  0
  -27.0090  -17.1798   20.0275 C   0  0  0  0  0  0  0  0  0  0  0  0
  -29.1102  -17.7845   19.7944 C   0  0  0  0  0  0  0  0  0  0  0  0
  -32.2467  -26.8177   17.5238 C   0  0  0  0  0  0  0  0  0  0  0  0
  -28.7989  -15.3459   20.2470 C   0  0  0  0  0  0  0  0  0  0  0  0
  -22.4877  -26.4103   19.5939 C   0  0  0  0  0  0  0  0  0  0  0  0
  -23.2158  -25.8850   16.4768 C   0  0  0  0  0  0  0  0  0  0  0  0
  -25.6003  -25.7709   14.0379 C   0  0  0  0  0  0  0  0  0  0  0  0
  -30.1950  -22.3094   16.9143 C   0  0  0  0  0  0  0  0  0  0  0  0
  -17.5668  -25.9423   20.8678 C   0  0  0  0  0  0  0  0  0  0  0  0
  -23.7762  -28.4996   19.0190 C   0  0  0  0  0  0  0  0  0  0  0  0
  -25.1596  -26.0623   18.0753 C   0  0  0  0  0  0  0  0  0  0  0  0
  -18.5018  -25.2775   19.8608 C   0  0  0  0  0  0  0  0  0  0  0  0
  -27.9448  -22.7066   19.7207 C   0  0  0  0  0  0  0  0  0  0  0  0
  -19.7975  -24.8453   20.5400 C   0  0  0  0  0  0  0  0  0  0  0  0
  -27.6100  -21.2509   20.0505 C   0  0  0  0  0  0  0  0  0  0  0  0
  -28.0664  -22.9184   18.2146 C   0  0  0  0  0  0  0  0  0  0  0  0
  -28.7165  -20.5660   17.8719 C   0  0  0  0  0  0  0  0  0  0  0  0
  -20.5496  -26.0527   21.1126 C   0  0  1  0  0  0  0  0  0  0  0  0
  -23.0065  -27.2919   18.4933 C   0  0  1  0  0  0  0  0  0  0  0  0
  -28.6024  -20.2820   19.3807 C   0  0  2  0  0  0  0  0  0  0  0  0
  -25.8986  -25.2743   11.5963 C   0  0  0  0  0  0  0  0  0  0  0  0
  -23.0086  -22.8975   17.0616 C   0  0  0  0  0  0  0  0  0  0  0  0
  -24.2175  -22.4638   14.9125 C   0  0  0  0  0  0  0  0  0  0  0  0
  -22.0004  -23.6069   14.8857 C   0  0  0  0  0  0  0  0  0  0  0  0
  -29.9804  -29.3031   20.1249 C   0  0  0  0  0  0  0  0  0  0  0  0
  -31.3610  -27.3435   20.8556 C   0  0  0  0  0  0  0  0  0  0  0  0
  -26.5638  -28.5129   13.4791 C   0  0  0  0  0  0  0  0  0  0  0  0
  -32.5443  -25.4530   18.0253 C   0  0  0  0  0  0  0  0  0  0  0  0
  -32.7799  -24.3973   16.9227 C   0  0  0  0  0  0  0  0  0  0  0  0
  -30.0441  -27.1524   18.7286 C   0  0  0  0  0  0  0  0  0  0  0  0
  -31.5759  -24.1634   16.0127 C   0  0  0  0  0  0  0  0  0  0  0  0
  -24.0298  -24.8579   15.7274 C   0  0  1  0  0  0  0  0  0  0  0  0
  -25.6360  -26.3525   12.6362 C   0  0  2  0  0  0  0  0  0  0  0  0
  -23.3257  -23.4730   15.6669 C   0  0  0  0  0  0  0  0  0  0  0  0
  -30.0736  -27.7751   20.1421 C   0  0  0  0  0  0  0  0  0  1  0  0
  -26.9553  -18.4943   19.7969 N   0  0  0  0  0  0  0  0  0  0  0  0
  -31.1771  -27.5645   17.8165 N   0  0  0  0  0  0  0  0  0  0  0  0
  -28.2485  -18.8330   19.6596 N   0  0  0  0  0  0  0  0  0  0  0  0
  -33.0159  -27.5234   16.6885 N   0  3  0  0  0  0  0  0  0  0  0  0
  -23.8152  -26.4455   17.6136 N   0  0  0  0  0  0  0  0  0  0  0  0
  -29.0398  -21.9780   17.6415 N   0  0  0  0  0  0  0  0  0  0  0  0
  -30.4457  -17.9486   19.6853 N   0  0  0  0  0  0  0  0  0  0  0  0
  -27.8582  -14.3341   20.4831 N   0  0  0  0  0  0  0  0  0  0  0  0
  -21.2360  -26.7673   20.0578 N   0  0  0  0  0  0  0  0  0  0  0  0
  -24.3178  -25.4395   14.4208 N   0  0  0  0  0  0  0  0  0  0  0  0
  -30.4251  -23.6679   16.7346 N   0  0  0  0  0  0  0  0  0  0  0  0
  -26.7099  -27.3803   12.5290 N   0  3  0  0  0  0  0  0  0  0  0  0
  -30.0202  -15.0596   20.2419 O   0  0  0  0  0  0  0  0  0  0  0  0
  -23.1717  -25.4746   19.9916 O   0  0  0  0  0  0  0  0  0  0  0  0
  -22.0924  -26.1843   16.0644 O   0  0  0  0  0  0  0  0  0  0  0  0
  -26.6096  -25.6219   14.7232 O   0  0  0  0  0  0  0  0  0  0  0  0
  -30.9679  -21.4574   16.4627 O   0  0  0  0  0  0  0  0  0  0  0  0
  -22.2980  -14.2746   20.8232 O   0  0  0  0  0  0  0  0  0  0  0  0
  -28.9760  -27.2585   20.8935 O   0  0  0  0  0  0  0  0  0  1  0  0
  -21.7803   -9.4541   18.1965 F   0  0  0  0  0  0  0  0  0  0  0  0
  -24.0990  -12.2225   21.2568 F   0  0  0  0  0  0  0  0  0  0  0  0
  1  2  1  0  0  0  0
  1  5  2  0  0  0  0
  2  6  2  0  0  0  0
  3  8  2  0  0  0  0
  3 17  1  0  0  0  0
  4  9  1  0  0  0  0
  4 17  2  0  0  0  0
  5 19  1  0  0  0  0
  6 21  1  0  0  0  0
  7 10  2  0  0  0  0
  7 20  1  0  0  0  0
  8 23  1  0  0  0  0
  9 23  2  0  0  0  0
 10 24  1  0  0  0  0
 11 12  2  0  0  0  0
 11 25  1  0  0  0  0
 12 26  1  0  0  0  0
 13 22  1  0  0  0  0
 13 24  2  0  0  0  0
 14 26  2  0  0  0  0
 14 27  1  0  0  0  0
 15 16  2  0  0  0  0
 15 64  1  0  0  0  0
 16 66  1  0  0  0  0
 17 28  1  0  0  0  0
 18 28  1  0  0  0  0
 18 29  2  0  0  0  0
 18 31  1  0  0  0  0
 19 21  2  0  0  0  0
 19 36  1  0  0  0  0
 20 22  2  0  0  0  0
 20 37  1  0  0  0  0
 21 45  1  0  0  0  0
 22 38  1  0  0  0  0
 23 80  1  0  0  0  0
 24 81  1  0  0  0  0
 25 27  2  0  0  0  0
 25 80  1  0  0  0  0
 26 82  1  0  0  0  0
 27 83  1  0  0  0  0
 28 63  2  0  0  0  0
 29 65  1  0  0  0  0
 29 69  1  0  0  0  0
 30 55  1  0  0  0  0
 30 64  1  0  0  0  0
 30 66  2  0  0  0  0
 31 70  1  0  0  0  0
 31 75  2  0  0  0  0
 32 46  1  0  0  0  0
 32 71  1  0  0  0  0
 32 76  2  0  0  0  0
 33 59  1  0  0  0  0
 33 67  1  0  0  0  0
 33 77  2  0  0  0  0
 34 60  1  0  0  0  0
 34 72  1  0  0  0  0
 34 78  2  0  0  0  0
 35 68  1  0  0  0  0
 35 73  1  0  0  0  0
 35 79  2  0  0  0  0
 36 39  1  0  0  0  0
 37 46  1  0  0  0  0
 38 67  1  0  0  0  0
 39 41  1  0  0  0  0
 40 42  1  0  0  0  0
 40 43  1  0  0  0  0
 41 45  1  0  0  0  0
 42 47  1  0  0  0  0
 43 68  1  0  0  0  0
 44 47  1  0  0  0  0
 44 68  1  0  0  0  0
 45 71  1  0  0  0  0
 46 67  1  0  0  0  0
 47 65  1  0  0  0  0
 48 60  1  0  0  0  0
 49 61  1  0  0  0  0
 50 61  1  0  0  0  0
 51 61  1  0  0  0  0
 52 62  1  0  0  0  0
 53 62  1  0  0  0  0
 54 74  1  0  0  0  0
 55 56  1  0  0  0  0
 56 58  1  0  0  0  0
 57 62  1  0  0  0  0
 57 64  1  0  0  0  0
 58 73  1  0  0  0  0
 59 61  1  0  0  0  0
 59 72  1  0  0  0  0
 60 74  1  0  0  0  0
 62 81  1  0  0  0  0
 63 65  1  0  0  0  0
M  CHG  2  66   1  74   1
M  ISO  4  35 100  62 101  73 100  81 101
M  END
> <Batch ID>
0073

> <Smiles>
CNC(C)C(=O)NC(C(=O)N1Cc2cc([101O:1][101C:1](C)(C)Cn3ccnc3CCC[100NH:0][100C:0](=O)N3CCCC(n4nc(-c5ccc(Oc6ccc(F)cc6F)cc5)c(C(N)=O)c4N)C3)ccc2CC1C(=O)NC1CCCc2ccccc21)C(C)(C)C

> <Shape>
0.230

> <Color>
0.065

> <Negative vol penalty>
0.000

$$$$

  -OEChem-04052318273D

 87 95  0     1  0  0  0  0  0999 V2000
  -29.3696  -23.5146   16.2421 C   0  0  0  0  0  0  0  0  0  0  0  0
  -28.2039  -23.8779   16.9070 C   0  0  0  0  0  0  0  0  0  0  0  0
  -27.9794  -16.8365   18.8942 C   0  0  0  0  0  0  0  0  0  0  0  0
  -28.0889  -17.0569   21.2976 C   0  0  0  0  0  0  0  0  0  0  0  0
  -30.5669  -24.1631   16.5375 C   0  0  0  0  0  0  0  0  0  0  0  0
  -28.2327  -24.8978   17.8588 C   0  0  0  0  0  0  0  0  0  0  0  0
  -23.9103  -26.3645   19.6942 C   0  0  0  0  0  0  0  0  0  0  0  0
  -22.7796  -18.4186   24.2105 C   0  0  0  0  0  0  0  0  0  0  0  0
  -28.7942  -17.9599   18.7541 C   0  0  0  0  0  0  0  0  0  0  0  0
  -28.9038  -18.1802   21.1575 C   0  0  0  0  0  0  0  0  0  0  0  0
  -23.1646  -25.5873   20.5795 C   0  0  0  0  0  0  0  0  0  0  0  0
  -28.5226  -21.4588   20.4248 C   0  0  0  0  0  0  0  0  0  0  0  0
  -28.2321  -22.5725   21.2126 C   0  0  0  0  0  0  0  0  0  0  0  0
  -22.6818  -17.0515   23.9767 C   0  0  0  0  0  0  0  0  0  0  0  0
  -23.8854  -26.9876   22.4067 C   0  0  0  0  0  0  0  0  0  0  0  0
  -30.4254  -22.4348   22.2163 C   0  0  0  0  0  0  0  0  0  0  0  0
  -27.6266  -16.3850   20.1660 C   0  0  0  0  0  0  0  0  0  0  0  0
  -27.1965  -13.8830   20.4159 C   0  0  0  0  0  0  0  0  0  0  0  0
  -30.6119  -25.1828   17.5024 C   0  0  0  0  0  0  0  0  0  0  0  0
  -24.6591  -27.4544   20.1610 C   0  0  0  0  0  0  0  0  0  0  0  0
  -29.4266  -25.5806   18.1537 C   0  0  0  0  0  0  0  0  0  0  0  0
  -24.6377  -27.7786   21.5250 C   0  0  0  0  0  0  0  0  0  0  0  0
  -21.6338  -19.1535   24.4939 C   0  0  0  0  0  0  0  0  0  0  0  0
  -29.2565  -18.6317   19.8857 C   0  0  0  0  0  0  0  0  0  0  0  0
  -23.1544  -25.8970   21.9363 C   0  0  0  0  0  0  0  0  0  0  0  0
  -29.7646  -20.8329   20.5327 C   0  0  0  0  0  0  0  0  0  0  0  0
  -29.1834  -23.0606   22.1083 C   0  0  0  0  0  0  0  0  0  0  0  0
  -30.7160  -21.3210   21.4284 C   0  0  0  0  0  0  0  0  0  0  0  0
  -26.7844  -15.2250   20.3114 C   0  0  0  0  0  0  0  0  0  0  0  0
  -21.4249  -16.4714   24.0373 C   0  0  0  0  0  0  0  0  0  0  0  0
  -20.4238  -18.4794   24.5312 C   0  0  0  0  0  0  0  0  0  0  0  0
  -26.0269  -13.1729   20.5351 C   0  0  0  0  0  0  0  0  0  0  0  0
  -28.5185  -13.3279   20.4061 C   0  0  0  0  0  0  0  0  0  0  0  0
  -27.7478  -28.2047   20.1930 C   0  0  0  0  0  0  0  0  0  0  0  0
  -20.5655  -14.7365   22.4948 C   0  0  0  0  0  0  0  0  0  0  0  0
  -26.6507  -31.0264   21.3577 C   0  0  0  0  0  0  0  0  0  0  0  0
  -24.1788  -32.7230   22.9879 C   0  0  0  0  0  0  0  0  0  0  0  0
  -31.9332  -25.8566   17.7773 C   0  0  0  0  0  0  0  0  0  0  0  0
  -25.4370  -28.2990   19.1894 C   0  0  0  0  0  0  0  0  0  0  0  0
  -25.4084  -28.9506   22.0737 C   0  0  0  0  0  0  0  0  0  0  0  0
  -31.9525  -26.6083   19.1042 C   0  0  0  0  0  0  0  0  0  0  0  0
  -21.4104  -13.3146   19.3161 C   0  0  0  0  0  0  0  0  0  0  0  0
  -30.7261  -27.5019   19.2133 C   0  0  0  0  0  0  0  0  0  0  0  0
  -22.9169  -13.5468   19.2080 C   0  0  0  0  0  0  0  0  0  0  0  0
  -20.7189  -14.4644   20.0419 C   0  0  0  0  0  0  0  0  0  0  0  0
  -22.7907  -14.9896   21.2882 C   0  0  0  0  0  0  0  0  0  0  0  0
  -29.4398  -26.6662   19.2147 C   0  0  1  0  0  0  0  0  0  0  0  0
  -26.5727  -29.0755   19.8486 C   0  0  1  0  0  0  0  0  0  0  0  0
  -23.5320  -13.8366   20.5886 C   0  0  2  0  0  0  0  0  0  0  0  0
  -19.1607  -19.2169   24.8337 C   0  0  0  0  0  0  0  0  0  0  0  0
  -23.5833  -35.0120   23.8265 C   0  0  0  0  0  0  0  0  0  0  0  0
  -28.5852  -30.6723   23.6906 C   0  0  0  0  0  0  0  0  0  0  0  0
  -27.3017  -32.4282   24.9306 C   0  0  0  0  0  0  0  0  0  0  0  0
  -28.4501  -33.0022   22.7919 C   0  0  0  0  0  0  0  0  0  0  0  0
  -19.2735  -14.5858   25.3988 C   0  0  0  0  0  0  0  0  0  0  0  0
  -20.6113  -12.6507   24.5560 C   0  0  0  0  0  0  0  0  0  0  0  0
  -21.7786  -32.8578   21.2616 C   0  0  0  0  0  0  0  0  0  0  0  0
  -21.7333  -20.6367   24.7471 C   0  0  0  0  0  0  0  0  0  0  0  0
  -21.9272  -21.4703   23.4756 C   0  0  0  0  0  0  0  0  0  0  0  0
  -22.1030  -22.9628   23.7592 C   0  0  0  0  0  0  0  0  0  0  0  0
  -22.2529  -23.7625   22.4721 C   0  0  0  0  0  0  0  0  0  1  0  0
  -21.5974  -14.2305   26.2342 C   0  0  0  0  0  0  0  0  0  0  0  0
  -21.2835  -15.0060   23.7933 C   0  0  2  0  0  0  0  0  0  0  0  0
  -26.3636  -31.5756   22.7342 C   0  0  1  0  0  0  0  0  0  0  0  0
  -23.4758  -34.0304   22.6700 C   0  0  2  0  0  0  0  0  0  0  0  0
  -27.6620  -31.8963   23.5271 C   0  0  0  0  0  0  0  0  0  0  0  0
  -20.6887  -14.1389   24.9793 C   0  0  0  0  0  0  0  0  0  0  0  0
  -25.4567  -15.3619   20.3598 N   0  0  0  0  0  0  0  0  0  0  0  0
  -20.2894  -17.1526   24.3095 N   0  0  0  0  0  0  0  0  0  0  0  0
  -25.0243  -14.0968   20.4960 N   0  0  0  0  0  0  0  0  0  0  0  0
  -26.1586  -29.7422   21.0848 N   0  0  0  0  0  0  0  0  0  0  0  0
  -21.3465  -14.7230   21.3390 N   0  0  0  0  0  0  0  0  0  0  0  0
  -25.7685  -11.8546   20.6685 N   0  0  0  0  0  0  0  0  0  0  0  0
  -29.6082  -14.1995   20.2758 N   0  0  0  0  0  0  0  0  0  0  0  0
  -28.3013  -27.5518   19.1082 N   0  0  0  0  0  0  0  0  0  0  0  0
  -25.4831  -32.7226   22.5406 N   0  0  0  0  0  0  0  0  0  0  0  0
  -22.0318  -33.7879   22.3921 N   0  3  0  0  0  0  0  0  0  0  0  0
  -28.7263  -12.0939   20.4934 O   0  0  0  0  0  0  0  0  0  0  0  0
  -28.1253  -28.1317   21.3565 O   0  0  0  0  0  0  0  0  0  0  0  0
  -19.3474  -14.5412   22.5097 O   0  0  0  0  0  0  0  0  0  0  0  0
  -27.2821  -31.7145   20.5517 O   0  0  0  0  0  0  0  0  0  0  0  0
  -23.6272  -31.7964   23.5775 O   0  0  0  0  0  0  0  0  0  0  0  0
  -22.9281  -13.8279   25.9367 O   0  0  0  0  0  0  0  0  0  0  0  0
  -30.0519  -19.7278   19.7493 O   0  0  0  0  0  0  0  0  0  0  0  0
  -22.4278  -25.1397   22.8026 O   0  0  0  0  0  0  0  0  0  1  0  0
  -28.9048  -24.1311   22.8637 F   0  0  0  0  0  0  0  0  0  0  0  0
  -31.9113  -20.7247   21.5357 F   0  0  0  0  0  0  0  0  0  0  0  0
  1  2  1  0  0  0  0
  1  5  2  0  0  0  0
  2  6  2  0  0  0  0
  3  9  2  0  0  0  0
  3 17  1  0  0  0  0
  4 10  1  0  0  0  0
  4 17  2  0  0  0  0
  5 19  1  0  0  0  0
  6 21  1  0  0  0  0
  7 11  2  0  0  0  0
  7 20  1  0  0  0  0
  8 14  2  0  0  0  0
  8 23  1  0  0  0  0
  9 24  1  0  0  0  0
 10 24  2  0  0  0  0
 11 25  1  0  0  0  0
 12 13  2  0  0  0  0
 12 26  1  0  0  0  0
 13 27  1  0  0  0  0
 14 30  1  0  0  0  0
 15 22  1  0  0  0  0
 15 25  2  0  0  0  0
 16 27  2  0  0  0  0
 16 28  1  0  0  0  0
 17 29  1  0  0  0  0
 18 29  1  0  0  0  0
 18 32  2  0  0  0  0
 18 33  1  0  0  0  0
 19 21  2  0  0  0  0
 19 38  1  0  0  0  0
 20 22  2  0  0  0  0
 20 39  1  0  0  0  0
 21 47  1  0  0  0  0
 22 40  1  0  0  0  0
 23 31  2  0  0  0  0
 23 58  1  0  0  0  0
 24 84  1  0  0  0  0
 25 85  1  0  0  0  0
 26 28  2  0  0  0  0
 26 84  1  0  0  0  0
 27 86  1  0  0  0  0
 28 87  1  0  0  0  0
 29 68  2  0  0  0  0
 30 63  1  0  0  0  0
 30 69  2  0  0  0  0
 31 50  1  0  0  0  0
 31 69  1  0  0  0  0
 32 70  1  0  0  0  0
 32 73  1  0  0  0  0
 33 74  1  0  0  0  0
 33 78  2  0  0  0  0
 34 48  1  0  0  0  0
 34 75  1  0  0  0  0
 34 79  2  0  0  0  0
 35 63  1  0  0  0  0
 35 72  1  0  0  0  0
 35 80  2  0  0  0  0
 36 64  1  0  0  0  0
 36 71  1  0  0  0  0
 36 81  2  0  0  0  0
 37 65  1  0  0  0  0
 37 76  1  0  0  0  0
 37 82  2  0  0  0  0
 38 41  1  0  0  0  0
 39 48  1  0  0  0  0
 40 71  1  0  0  0  0
 41 43  1  0  0  0  0
 42 44  1  0  0  0  0
 42 45  1  0  0  0  0
 43 47  1  0  0  0  0
 44 49  1  0  0  0  0
 45 72  1  0  0  0  0
 46 49  1  0  0  0  0
 46 72  1  0  0  0  0
 47 75  1  0  0  0  0
 48 71  1  0  0  0  0
 49 70  1  0  0  0  0
 51 65  1  0  0  0  0
 52 66  1  0  0  0  0
 53 66  1  0  0  0  0
 54 66  1  0  0  0  0
 55 67  1  0  0  0  0
 56 67  1  0  0  0  0
 57 77  1  0  0  0  0
 58 59  1  0  0  0  0
 59 60  1  0  0  0  0
 60 61  1  0  0  0  0
 61 85  1  0  0  0  0
 62 67  1  0  0  0  0
 62 83  1  0  0  0  0
 63 67  1  0  0  0  0
 64 66  1  0  0  0  0
 64 76  1  0  0  0  0
 65 77  1  0  0  0  0
 68 70  1  0  0  0  0
M  CHG  1  77   1
M  ISO  4  35 100  61 101  63 100  85 101
M  END
> <Batch ID>
0073

> <Smiles>
CNC(C)C(=O)NC(C(=O)N1Cc2cc([101O:1][101CH2:1]CCCc3ccc([100CH:0]([100C:0](=O)N4CCCC(n5nc(-c6ccc(Oc7ccc(F)cc7F)cc6)c(C(N)=O)c5N)C4)C(C)(C)CO)nc3C)ccc2CC1C(=O)NC1CCCc2ccccc21)C(C)(C)C

> <Shape>
0.249

> <Color>
0.070

> <Negative vol penalty>
0.000

$$$$

  -OEChem-04052318273D

 81 89  0     1  0  0  0  0  0999 V2000
  -29.4717  -22.2908   27.3227 C   0  0  0  0  0  0  0  0  0  0  0  0
  -29.5330  -22.9079   26.0774 C   0  0  0  0  0  0  0  0  0  0  0  0
  -25.7524  -13.8931   19.5908 C   0  0  0  0  0  0  0  0  0  0  0  0
  -25.9976  -13.0772   21.8517 C   0  0  0  0  0  0  0  0  0  0  0  0
  -28.2353  -21.9588   27.8748 C   0  0  0  0  0  0  0  0  0  0  0  0
  -28.3577  -23.1923   25.3829 C   0  0  0  0  0  0  0  0  0  0  0  0
  -28.3576  -27.8474   23.3891 C   0  0  0  0  0  0  0  0  0  0  0  0
  -25.2981  -12.6377   19.1870 C   0  0  0  0  0  0  0  0  0  0  0  0
  -25.5432  -11.8218   21.4479 C   0  0  0  0  0  0  0  0  0  0  0  0
  -29.0879  -28.0380   22.2168 C   0  0  0  0  0  0  0  0  0  0  0  0
  -24.1055   -8.5021   21.0861 C   0  0  0  0  0  0  0  0  0  0  0  0
  -23.1629   -7.8629   21.8913 C   0  0  0  0  0  0  0  0  0  0  0  0
  -27.0521  -27.8882   20.9314 C   0  0  0  0  0  0  0  0  0  0  0  0
  -21.6360   -9.7071   21.5680 C   0  0  0  0  0  0  0  0  0  0  0  0
  -30.9778  -24.0308   18.1550 C   0  0  0  0  0  0  0  0  0  0  0  0
  -29.3127  -23.5855   20.1937 C   0  0  0  0  0  0  0  0  0  0  0  0
  -26.1022  -14.1129   20.9231 C   0  0  0  0  0  0  0  0  0  0  0  0
  -25.7947  -16.4838   21.8130 C   0  0  0  0  0  0  0  0  0  0  0  0
  -27.0439  -22.2480   27.1911 C   0  0  0  0  0  0  0  0  0  0  0  0
  -26.9681  -27.6645   23.3402 C   0  0  0  0  0  0  0  0  0  0  0  0
  -27.1042  -22.8627   25.9258 C   0  0  0  0  0  0  0  0  0  0  0  0
  -26.3062  -27.6980   22.1046 C   0  0  0  0  0  0  0  0  0  0  0  0
  -25.1935  -11.6020   20.1155 C   0  0  0  0  0  0  0  0  0  0  0  0
  -28.4355  -28.0555   20.9875 C   0  0  0  0  0  0  0  0  0  0  0  0
  -23.8134   -9.7439   20.5218 C   0  0  0  0  0  0  0  0  0  0  0  0
  -21.9281   -8.4653   22.1323 C   0  0  0  0  0  0  0  0  0  0  0  0
  -22.5786  -10.3464   20.7627 C   0  0  0  0  0  0  0  0  0  0  0  0
  -26.5721  -15.4094   21.3408 C   0  0  0  0  0  0  0  0  0  0  0  0
  -30.0558  -24.9791   18.5398 C   0  0  0  0  0  0  0  0  0  0  0  0
  -30.2341  -22.6369   19.8084 C   0  0  0  0  0  0  0  0  0  0  0  0
  -26.7056  -17.4781   22.0739 C   0  0  0  0  0  0  0  0  0  0  0  0
  -24.3760  -16.5749   21.9992 C   0  0  0  0  0  0  0  0  0  0  0  0
  -24.9839  -25.3209   24.1611 C   0  0  0  0  0  0  0  0  0  0  0  0
  -22.7103  -27.5034   23.3931 C   0  0  0  0  0  0  0  0  0  0  0  0
  -21.8573  -30.3034   21.6383 C   0  0  0  0  0  0  0  0  0  0  0  0
  -31.2043  -20.3764   20.1880 C   0  0  0  0  0  0  0  0  0  0  0  0
  -25.7330  -21.8274   27.8070 C   0  0  0  0  0  0  0  0  0  0  0  0
  -26.1914  -27.4868   24.6160 C   0  0  0  0  0  0  0  0  0  0  0  0
  -24.8135  -27.5268   21.9998 C   0  0  0  0  0  0  0  0  0  0  0  0
  -24.5185  -22.5020   27.1743 C   0  0  0  0  0  0  0  0  0  0  0  0
  -31.7501  -17.3778   22.2667 C   0  0  0  0  0  0  0  0  0  0  0  0
  -24.6135  -22.4538   25.6526 C   0  0  0  0  0  0  0  0  0  0  0  0
  -30.4035  -16.6604   22.1896 C   0  0  0  0  0  0  0  0  0  0  0  0
  -32.0327  -18.1898   21.0062 C   0  0  0  0  0  0  0  0  0  0  0  0
  -29.6060  -18.4420   20.5849 C   0  0  0  0  0  0  0  0  0  0  0  0
  -25.8504  -23.2099   25.1528 C   0  0  1  0  0  0  0  0  0  0  0  0
  -24.8469  -26.7971   24.4058 C   0  0  1  0  0  0  0  0  0  0  0  0
  -29.2729  -17.6497   21.8582 C   0  0  1  0  0  0  0  0  0  0  0  0
  -19.9165  -31.8275   21.1826 C   0  0  0  0  0  0  0  0  0  0  0  0
  -21.5031  -25.4065   21.5342 C   0  0  0  0  0  0  0  0  0  0  0  0
  -20.1989  -27.2366   20.4306 C   0  0  0  0  0  0  0  0  0  0  0  0
  -19.8306  -26.7259   22.8444 C   0  0  0  0  0  0  0  0  0  0  0  0
  -29.5318  -21.2782   21.7876 C   0  0  0  0  0  0  0  0  0  0  0  0
  -23.2777  -32.6405   22.7693 C   0  0  0  0  0  0  0  0  0  0  0  0
  -29.9659  -26.2980   17.8146 C   0  0  0  0  0  0  0  0  0  0  0  0
  -30.8657  -27.3869   18.4030 C   0  0  0  0  0  0  0  0  0  0  0  0
  -30.4937  -27.7717   19.8302 C   0  0  0  0  0  0  0  0  0  1  0  0
  -21.9673  -27.8748   22.1326 C   0  0  1  0  0  0  0  0  0  0  0  0
  -21.1359  -31.5724   22.0549 C   0  0  2  0  0  0  0  0  0  0  0  0
  -20.9034  -26.8123   21.7369 C   0  0  0  0  0  0  0  0  0  0  0  0
  -29.2069  -24.7736   19.5663 N   0  0  0  0  0  0  0  0  0  0  0  0
  -31.0833  -22.8425   18.7822 N   0  0  0  0  0  0  0  0  0  0  0  0
  -27.8765  -15.6943   21.3027 N   0  0  0  0  0  0  0  0  0  0  0  0
  -27.9257  -16.9591   21.7542 N   0  0  0  0  0  0  0  0  0  0  0  0
  -24.0989  -27.3497   23.2747 N   0  0  0  0  0  0  0  0  0  0  0  0
  -30.9229  -19.0892   20.6883 N   0  0  0  0  0  0  0  0  0  0  0  0
  -26.5740  -18.7370   22.5433 N   0  0  0  0  0  0  0  0  0  0  0  0
  -23.5876  -15.4605   21.6818 N   0  0  0  0  0  0  0  0  0  0  0  0
  -25.6162  -24.6377   25.1824 N   0  0  0  0  0  0  0  0  0  0  0  0
  -21.4236  -29.2098   22.3575 N   0  0  0  0  0  0  0  0  0  0  0  0
  -30.2832  -21.3890   20.5331 N   0  0  0  0  0  0  0  0  0  0  0  0
  -22.0471  -32.7465   21.9439 N   0  3  0  0  0  0  0  0  0  0  0  0
  -23.8222  -17.6193   22.4188 O   0  0  0  0  0  0  0  0  0  0  0  0
  -24.5468  -24.8373   23.1234 O   0  0  0  0  0  0  0  0  0  0  0  0
  -22.0827  -27.3621   24.4457 O   0  0  0  0  0  0  0  0  0  0  0  0
  -22.7168  -30.2835   20.7600 O   0  0  0  0  0  0  0  0  0  0  0  0
  -32.2141  -20.6073   19.5122 O   0  0  0  0  0  0  0  0  0  0  0  0
  -24.7499  -10.3769   19.7219 O   0  0  0  0  0  0  0  0  0  0  0  0
  -29.1460  -28.2407   19.8417 O   0  0  0  0  0  0  0  0  0  1  0  0
  -21.0225   -7.8506   22.9044 F   0  0  0  0  0  0  0  0  0  0  0  0
  -22.2918  -11.5387   20.2224 F   0  0  0  0  0  0  0  0  0  0  0  0
  1  2  1  0  0  0  0
  1  5  2  0  0  0  0
  2  6  2  0  0  0  0
  3  8  2  0  0  0  0
  3 17  1  0  0  0  0
  4  9  1  0  0  0  0
  4 17  2  0  0  0  0
  5 19  1  0  0  0  0
  6 21  1  0  0  0  0
  7 10  2  0  0  0  0
  7 20  1  0  0  0  0
  8 23  1  0  0  0  0
  9 23  2  0  0  0  0
 10 24  1  0  0  0  0
 11 12  2  0  0  0  0
 11 25  1  0  0  0  0
 12 26  1  0  0  0  0
 13 22  1  0  0  0  0
 13 24  2  0  0  0  0
 14 26  2  0  0  0  0
 14 27  1  0  0  0  0
 15 29  1  0  0  0  0
 15 62  2  0  0  0  0
 16 30  2  0  0  0  0
 16 61  1  0  0  0  0
 17 28  1  0  0  0  0
 18 28  1  0  0  0  0
 18 31  2  0  0  0  0
 18 32  1  0  0  0  0
 19 21  2  0  0  0  0
 19 37  1  0  0  0  0
 20 22  2  0  0  0  0
 20 38  1  0  0  0  0
 21 46  1  0  0  0  0
 22 39  1  0  0  0  0
 23 78  1  0  0  0  0
 24 79  1  0  0  0  0
 25 27  2  0  0  0  0
 25 78  1  0  0  0  0
 26 80  1  0  0  0  0
 27 81  1  0  0  0  0
 28 63  2  0  0  0  0
 29 55  1  0  0  0  0
 29 61  2  0  0  0  0
 30 62  1  0  0  0  0
 30 71  1  0  0  0  0
 31 64  1  0  0  0  0
 31 67  1  0  0  0  0
 32 68  1  0  0  0  0
 32 73  2  0  0  0  0
 33 47  1  0  0  0  0
 33 69  1  0  0  0  0
 33 74  2  0  0  0  0
 34 58  1  0  0  0  0
 34 65  1  0  0  0  0
 34 75  2  0  0  0  0
 35 59  1  0  0  0  0
 35 70  1  0  0  0  0
 35 76  2  0  0  0  0
 36 66  1  0  0  0  0
 36 71  1  0  0  0  0
 36 77  2  0  0  0  0
 37 40  1  0  0  0  0
 38 47  1  0  0  0  0
 39 65  1  0  0  0  0
 40 42  1  0  0  0  0
 41 43  1  0  0  0  0
 41 44  1  0  0  0  0
 42 46  1  0  0  0  0
 43 48  1  0  0  0  0
 44 66  1  0  0  0  0
 45 48  1  0  0  0  0
 45 66  1  0  0  0  0
 46 69  1  0  0  0  0
 47 65  1  0  0  0  0
 48 64  1  0  0  0  0
 49 59  1  0  0  0  0
 50 60  1  0  0  0  0
 51 60  1  0  0  0  0
 52 60  1  0  0  0  0
 53 71  1  0  0  0  0
 54 72  1  0  0  0  0
 55 56  1  0  0  0  0
 56 57  1  0  0  0  0
 57 79  1  0  0  0  0
 58 60  1  0  0  0  0
 58 70  1  0  0  0  0
 59 72  1  0  0  0  0
 63 64  1  0  0  0  0
M  CHG  1  72   1
M  ISO  4  36 100  57 101  71 100  79 101
M  END
> <Batch ID>
0073

> <Smiles>
CNC(C)C(=O)NC(C(=O)N1Cc2cc([101O:1][101CH2:1]CCc3cnc([100N:0](C)[100C:0](=O)N4CCCC(n5nc(-c6ccc(Oc7ccc(F)cc7F)cc6)c(C(N)=O)c5N)C4)cn3)ccc2CC1C(=O)NC1CCCc2ccccc21)C(C)(C)C

> <Shape>
0.232

> <Color>
0.055

> <Negative vol penalty>
0.000

$$$$

  -OEChem-04052318273D

 86 94  0     1  0  0  0  0  0999 V2000
  -19.8316  -33.6236   20.0331 C   0  0  0  0  0  0  0  0  0  0  0  0
  -21.0987  -33.0977   19.8024 C   0  0  0  0  0  0  0  0  0  0  0  0
  -25.8953  -13.7704   21.9083 C   0  0  0  0  0  0  0  0  0  0  0  0
  -25.6692  -14.5286   19.6255 C   0  0  0  0  0  0  0  0  0  0  0  0
  -19.1164  -33.2437   21.1680 C   0  0  0  0  0  0  0  0  0  0  0  0
  -21.6519  -32.1923   20.7072 C   0  0  0  0  0  0  0  0  0  0  0  0
  -25.3009  -27.4497   19.4042 C   0  0  0  0  0  0  0  0  0  0  0  0
  -24.8809  -12.8363   21.6985 C   0  0  0  0  0  0  0  0  0  0  0  0
  -24.6549  -13.5944   19.4156 C   0  0  0  0  0  0  0  0  0  0  0  0
  -26.6848  -27.2890   19.4561 C   0  0  0  0  0  0  0  0  0  0  0  0
  -24.5522   -9.7995   20.2483 C   0  0  0  0  0  0  0  0  0  0  0  0
  -24.7572   -8.5030   20.7200 C   0  0  0  0  0  0  0  0  0  0  0  0
  -26.4815  -26.2971   21.6456 C   0  0  0  0  0  0  0  0  0  0  0  0
  -22.8053   -8.7070   22.1291 C   0  0  0  0  0  0  0  0  0  0  0  0
  -30.5087  -21.7593   17.8647 C   0  0  0  0  0  0  0  0  0  0  0  0
  -26.2894  -14.6167   20.8718 C   0  0  0  0  0  0  0  0  0  0  0  0
  -28.7181  -15.3969   20.8895 C   0  0  0  0  0  0  0  0  0  0  0  0
  -19.6571  -32.3257   22.0822 C   0  0  0  0  0  0  0  0  0  0  0  0
  -24.4965  -27.0445   20.4790 C   0  0  0  0  0  0  0  0  0  0  0  0
  -20.9438  -31.8007   21.8562 C   0  0  0  0  0  0  0  0  0  0  0  0
  -25.0874  -26.4514   21.6038 C   0  0  0  0  0  0  0  0  0  0  0  0
  -24.2607  -12.7482   20.4522 C   0  0  0  0  0  0  0  0  0  0  0  0
  -27.2756  -26.7153   20.5781 C   0  0  0  0  0  0  0  0  0  0  0  0
  -23.4737  -10.5499   20.7170 C   0  0  0  0  0  0  0  0  0  0  0  0
  -23.8838   -7.9568   21.6604 C   0  0  0  0  0  0  0  0  0  0  0  0
  -22.6003  -10.0036   21.6573 C   0  0  0  0  0  0  0  0  0  0  0  0
  -27.3368  -15.5822   21.0880 C   0  0  0  0  0  0  0  0  0  0  0  0
  -29.9251  -20.6506   18.4430 C   0  0  0  0  0  0  0  0  0  0  0  0
  -29.8051  -22.9394   17.9926 C   0  0  0  0  0  0  0  0  0  0  0  0
  -29.2792  -16.6025   21.2334 C   0  0  0  0  0  0  0  0  0  0  0  0
  -28.1575  -21.8899   19.1549 C   0  0  0  0  0  0  0  0  0  0  0  0
  -29.4303  -14.2386   20.4347 C   0  0  0  0  0  0  0  0  0  0  0  0
  -22.5277  -28.5230   22.4893 C   0  0  0  0  0  0  0  0  0  0  0  0
  -27.0445  -22.1795   21.3547 C   0  0  0  0  0  0  0  0  0  0  0  0
  -21.8910  -25.4991   23.4757 C   0  0  0  0  0  0  0  0  0  0  0  0
  -22.9268  -22.2577   23.7352 C   0  0  0  0  0  0  0  0  0  0  0  0
  -18.8658  -31.9813   23.3191 C   0  0  0  0  0  0  0  0  0  0  0  0
  -23.0028  -27.2003   20.3963 C   0  0  0  0  0  0  0  0  0  0  0  0
  -24.2665  -25.9811   22.7757 C   0  0  0  0  0  0  0  0  0  0  0  0
  -19.3686  -30.7304   24.0351 C   0  0  0  0  0  0  0  0  0  0  0  0
  -28.5861  -20.3956   24.0530 C   0  0  0  0  0  0  0  0  0  0  0  0
  -20.8870  -30.7696   24.1755 C   0  0  0  0  0  0  0  0  0  0  0  0
  -28.5403  -18.9390   23.5930 C   0  0  0  0  0  0  0  0  0  0  0  0
  -27.3544  -21.1667   23.5891 C   0  0  0  0  0  0  0  0  0  0  0  0
  -27.0750  -19.6532   21.6518 C   0  0  0  0  0  0  0  0  0  0  0  0
  -21.5676  -30.7971   22.8016 C   0  0  1  0  0  0  0  0  0  0  0  0
  -22.3277  -27.2223   21.7642 C   0  0  1  0  0  0  0  0  0  0  0  0
  -28.3158  -18.8461   22.0733 C   0  0  2  0  0  0  0  0  0  0  0  0
  -30.6123  -19.3290   18.3572 C   0  0  0  0  0  0  0  0  0  0  0  0
  -25.9179  -23.0504   19.3263 C   0  0  0  0  0  0  0  0  0  0  0  0
  -22.2060  -20.0245   24.6243 C   0  0  0  0  0  0  0  0  0  0  0  0
  -31.5078  -26.3270   20.5861 C   0  0  0  0  0  0  0  0  0  0  0  0
  -22.5404  -26.4209   26.3109 C   0  0  0  0  0  0  0  0  0  0  0  0
  -22.7348  -24.0145   26.9741 C   0  0  0  0  0  0  0  0  0  0  0  0
  -20.5603  -24.9035   26.1352 C   0  0  0  0  0  0  0  0  0  0  0  0
  -31.7279  -26.3053   17.4513 C   0  0  0  0  0  0  0  0  0  0  0  0
  -32.5877  -24.2838   18.6168 C   0  0  0  0  0  0  0  0  0  0  0  0
  -22.9990  -21.0324   21.0422 C   0  0  0  0  0  0  0  0  0  0  0  0
  -30.3657  -24.2099   17.3928 C   0  0  0  0  0  0  0  0  0  0  0  0
  -29.3065  -26.3581   19.3931 C   0  0  0  0  0  0  0  0  0  1  0  0
  -26.8534  -21.9638   19.8745 C   0  0  1  0  0  0  0  0  0  0  0  0
  -22.4708  -24.5687   24.5136 C   0  0  1  0  0  0  0  0  0  0  0  0
  -22.2280  -20.9483   23.4165 C   0  0  2  0  0  0  0  0  0  0  0  0
  -30.5897  -25.5376   19.6310 C   0  0  1  0  0  0  0  0  0  0  0  0
  -22.0925  -24.9874   25.9624 C   0  0  0  0  0  0  0  0  0  0  0  0
  -31.3015  -25.0825   18.2997 C   0  0  0  0  0  0  0  0  0  0  0  0
  -27.0386  -16.8089   21.5244 N   0  0  0  0  0  0  0  0  0  0  0  0
  -28.7461  -20.6800   19.0982 N   0  0  0  0  0  0  0  0  0  0  0  0
  -28.6221  -23.0413   18.6333 N   0  0  0  0  0  0  0  0  0  0  0  0
  -28.2404  -17.4052   21.6030 N   0  0  0  0  0  0  0  0  0  0  0  0
  -22.8106  -26.1610   22.6499 N   0  0  0  0  0  0  0  0  0  0  0  0
  -27.1631  -21.0351   22.1436 N   0  0  0  0  0  0  0  0  0  0  0  0
  -30.5549  -17.0435   21.2528 N   0  0  0  0  0  0  0  0  0  0  0  0
  -28.6992  -13.0839   20.1244 N   0  0  0  0  0  0  0  0  0  0  0  0
  -21.5667  -29.4760   22.2106 N   0  0  0  0  0  0  0  0  0  0  0  0
  -22.0351  -23.2256   24.1467 N   0  0  0  0  0  0  0  0  0  0  0  0
  -22.9249  -20.2473   22.3012 N   0  3  0  0  0  0  0  0  0  0  0  0
  -30.6796  -14.2228   20.3230 O   0  0  0  0  0  0  0  0  0  0  0  0
  -23.4823  -28.6519   23.2468 O   0  0  0  0  0  0  0  0  0  0  0  0
  -27.0897  -23.3314   21.7943 O   0  0  0  0  0  0  0  0  0  0  0  0
  -20.6668  -25.6282   23.3958 O   0  0  0  0  0  0  0  0  0  0  0  0
  -24.1426  -22.4059   23.6332 O   0  0  0  0  0  0  0  0  0  0  0  0
  -23.2710  -11.8366   20.2470 O   0  0  0  0  0  0  0  0  0  0  0  0
  -28.6263  -26.5579   20.6316 O   0  0  0  0  0  0  0  0  0  1  0  0
  -24.0799   -6.7111   22.1122 F   0  0  0  0  0  0  0  0  0  0  0  0
  -21.5618  -10.7192   22.1104 F   0  0  0  0  0  0  0  0  0  0  0  0
  1  2  1  0  0  0  0
  1  5  2  0  0  0  0
  2  6  2  0  0  0  0
  3  8  2  0  0  0  0
  3 16  1  0  0  0  0
  4  9  1  0  0  0  0
  4 16  2  0  0  0  0
  5 18  1  0  0  0  0
  6 20  1  0  0  0  0
  7 10  2  0  0  0  0
  7 19  1  0  0  0  0
  8 22  1  0  0  0  0
  9 22  2  0  0  0  0
 10 23  1  0  0  0  0
 11 12  2  0  0  0  0
 11 24  1  0  0  0  0
 12 25  1  0  0  0  0
 13 21  1  0  0  0  0
 13 23  2  0  0  0  0
 14 25  2  0  0  0  0
 14 26  1  0  0  0  0
 15 28  2  0  0  0  0
 15 29  1  0  0  0  0
 16 27  1  0  0  0  0
 17 27  1  0  0  0  0
 17 30  2  0  0  0  0
 17 32  1  0  0  0  0
 18 20  2  0  0  0  0
 18 37  1  0  0  0  0
 19 21  2  0  0  0  0
 19 38  1  0  0  0  0
 20 46  1  0  0  0  0
 21 39  1  0  0  0  0
 22 83  1  0  0  0  0
 23 84  1  0  0  0  0
 24 26  2  0  0  0  0
 24 83  1  0  0  0  0
 25 85  1  0  0  0  0
 26 86  1  0  0  0  0
 27 67  2  0  0  0  0
 28 49  1  0  0  0  0
 28 68  1  0  0  0  0
 29 59  1  0  0  0  0
 29 69  2  0  0  0  0
 30 70  1  0  0  0  0
 30 73  1  0  0  0  0
 31 61  1  0  0  0  0
 31 68  2  0  0  0  0
 31 69  1  0  0  0  0
 32 74  1  0  0  0  0
 32 78  2  0  0  0  0
 33 47  1  0  0  0  0
 33 75  1  0  0  0  0
 33 79  2  0  0  0  0
 34 61  1  0  0  0  0
 34 72  1  0  0  0  0
 34 80  2  0  0  0  0
 35 62  1  0  0  0  0
 35 71  1  0  0  0  0
 35 81  2  0  0  0  0
 36 63  1  0  0  0  0
 36 76  1  0  0  0  0
 36 82  2  0  0  0  0
 37 40  1  0  0  0  0
 38 47  1  0  0  0  0
 39 71  1  0  0  0  0
 40 42  1  0  0  0  0
 41 43  1  0  0  0  0
 41 44  1  0  0  0  0
 42 46  1  0  0  0  0
 43 48  1  0  0  0  0
 44 72  1  0  0  0  0
 45 48  1  0  0  0  0
 45 72  1  0  0  0  0
 46 75  1  0  0  0  0
 47 71  1  0  0  0  0
 48 70  1  0  0  0  0
 50 61  1  0  0  0  0
 51 63  1  0  0  0  0
 52 64  1  0  0  0  0
 53 65  1  0  0  0  0
 54 65  1  0  0  0  0
 55 65  1  0  0  0  0
 56 66  1  0  0  0  0
 57 66  1  0  0  0  0
 58 77  1  0  0  0  0
 59 66  1  0  0  0  0
 60 64  1  0  0  0  0
 60 84  1  0  0  0  0
 62 65  1  0  0  0  0
 62 76  1  0  0  0  0
 63 77  1  0  0  0  0
 64 66  1  0  0  0  0
 67 70  1  0  0  0  0
M  CHG  1  77   1
M  ISO  4  34 100  60 101  61 100  84 101
M  END
> <Batch ID>
0073

> <Smiles>
CNC(C)C(=O)NC(C(=O)N1Cc2cc([101O:1][101CH2:1]C(C)C(C)(C)Cc3cc(C)nc([100CH:0](C)[100C:0](=O)N4CCCC(n5nc(-c6ccc(Oc7ccc(F)cc7F)cc6)c(C(N)=O)c5N)C4)n3)ccc2CC1C(=O)NC1CCCc2ccccc21)C(C)(C)C

> <Shape>
0.232

> <Color>
0.100

> <Negative vol penalty>
0.000

$$$$

  -OEChem-04052318273D

 86 94  0     1  0  0  0  0  0999 V2000
  -25.3162  -21.0301   21.2697 C   0  0  0  0  0  0  0  0  0  0  0  0
  -26.5737  -21.2783   21.8104 C   0  0  0  0  0  0  0  0  0  0  0  0
  -23.0673   -9.8730   19.9496 C   0  0  0  0  0  0  0  0  0  0  0  0
  -23.8608   -9.8735   22.2316 C   0  0  0  0  0  0  0  0  0  0  0  0
  -25.1836  -20.7718   19.9060 C   0  0  0  0  0  0  0  0  0  0  0  0
  -27.6996  -21.2673   20.9879 C   0  0  0  0  0  0  0  0  0  0  0  0
  -30.8014  -25.1677   21.8883 C   0  0  0  0  0  0  0  0  0  0  0  0
  -22.3304   -8.7168   20.2062 C   0  0  0  0  0  0  0  0  0  0  0  0
  -23.1239   -8.7174   22.4882 C   0  0  0  0  0  0  0  0  0  0  0  0
  -31.6273  -25.0791   23.0080 C   0  0  0  0  0  0  0  0  0  0  0  0
  -19.9072   -7.9082   23.1351 C   0  0  0  0  0  0  0  0  0  0  0  0
  -19.1677   -7.8617   24.3168 C   0  0  0  0  0  0  0  0  0  0  0  0
  -33.4664  -24.4219   21.5919 C   0  0  0  0  0  0  0  0  0  0  0  0
  -20.4252   -5.9251   25.0276 C   0  0  0  0  0  0  0  0  0  0  0  0
  -34.8994  -18.9511   23.1766 C   0  0  0  0  0  0  0  0  0  0  0  0
  -23.8326  -10.4513   20.9624 C   0  0  0  0  0  0  0  0  0  0  0  0
  -24.1656  -12.9779   20.8468 C   0  0  0  0  0  0  0  0  0  0  0  0
  -26.3074  -20.7672   19.0646 C   0  0  0  0  0  0  0  0  0  0  0  0
  -31.2997  -24.8730   20.6111 C   0  0  0  0  0  0  0  0  0  0  0  0
  -27.5822  -21.0074   19.6119 C   0  0  0  0  0  0  0  0  0  0  0  0
  -32.6453  -24.5100   20.4573 C   0  0  0  0  0  0  0  0  0  0  0  0
  -22.3586   -8.1390   21.4754 C   0  0  0  0  0  0  0  0  0  0  0  0
  -32.9593  -24.7033   22.8602 C   0  0  0  0  0  0  0  0  0  0  0  0
  -20.9056   -6.9630   22.8996 C   0  0  0  0  0  0  0  0  0  0  0  0
  -19.4267   -6.8702   25.2631 C   0  0  0  0  0  0  0  0  0  0  0  0
  -21.1646   -5.9715   23.8458 C   0  0  0  0  0  0  0  0  0  0  0  0
  -24.5945  -11.6453   20.6978 C   0  0  0  0  0  0  0  0  0  0  0  0
  -34.1023  -19.3627   24.2072 C   0  0  0  0  0  0  0  0  0  0  0  0
  -25.2502  -13.7318   20.4704 C   0  0  0  0  0  0  0  0  0  0  0  0
  -33.1547  -17.5922   23.2757 C   0  0  0  0  0  0  0  0  0  0  0  0
  -22.9000  -13.4885   21.2863 C   0  0  0  0  0  0  0  0  0  0  0  0
  -30.6250  -22.7069   18.3848 C   0  0  0  0  0  0  0  0  0  0  0  0
  -30.7557  -14.6989   20.6783 C   0  0  0  0  0  0  0  0  0  0  0  0
  -32.7621  -24.4087   16.6357 C   0  0  0  0  0  0  0  0  0  0  0  0
  -35.4313  -26.5347   16.5925 C   0  0  0  0  0  0  0  0  0  0  0  0
  -26.1202  -20.4362   17.6052 C   0  0  0  0  0  0  0  0  0  0  0  0
  -30.4028  -24.9993   19.4103 C   0  0  0  0  0  0  0  0  0  0  0  0
  -33.2343  -24.2030   19.1056 C   0  0  0  0  0  0  0  0  0  0  0  0
  -27.3177  -20.8129   16.7367 C   0  0  0  0  0  0  0  0  0  0  0  0
  -29.5607  -12.4083   18.1953 C   0  0  0  0  0  0  0  0  0  0  0  0
  -28.6167  -20.3497   17.3886 C   0  0  0  0  0  0  0  0  0  0  0  0
  -28.1378  -12.0919   18.6540 C   0  0  0  0  0  0  0  0  0  0  0  0
  -30.4982  -12.6091   19.3818 C   0  0  0  0  0  0  0  0  0  0  0  0
  -28.6137  -13.3332   20.8121 C   0  0  0  0  0  0  0  0  0  0  0  0
  -28.8244  -21.0286   18.7479 C   0  0  1  0  0  0  0  0  0  0  0  0
  -30.8821  -24.1778   18.2175 C   0  0  1  0  0  0  0  0  0  0  0  0
  -27.6274  -13.1533   19.6445 C   0  0  2  0  0  0  0  0  0  0  0  0
  -31.5784  -15.9678   24.3179 C   0  0  0  0  0  0  0  0  0  0  0  0
  -36.9813  -27.7187   15.0135 C   0  0  0  0  0  0  0  0  0  0  0  0
  -30.2389  -18.0961   22.3731 C   0  0  0  0  0  0  0  0  0  0  0  0
  -33.3588  -25.4033   26.1813 C   0  0  0  0  0  0  0  0  0  0  0  0
  -34.2474  -21.7908   16.1347 C   0  0  0  0  0  0  0  0  0  0  0  0
  -36.2264  -23.1356   15.3976 C   0  0  0  0  0  0  0  0  0  0  0  0
  -34.0769  -23.2915   14.1414 C   0  0  0  0  0  0  0  0  0  0  0  0
  -34.8004  -17.0992   21.4913 C   0  0  0  0  0  0  0  0  0  0  0  0
  -34.5817  -29.1958   17.5701 C   0  0  0  0  0  0  0  0  0  0  0  0
  -34.2448  -20.5040   25.1825 C   0  0  0  0  0  0  0  0  0  0  0  0
  -30.1389  -15.6877   21.6353 C   0  0  0  0  0  0  0  0  0  0  0  0
  -33.6008  -21.8107   24.7043 C   0  0  0  0  0  0  0  0  0  0  0  0
  -33.7654  -22.9613   25.7068 C   0  0  0  0  0  0  0  0  0  0  0  0
  -32.1949  -16.4949   22.9967 C   0  0  1  0  0  0  0  0  0  0  0  0
  -34.2564  -24.3560   16.4276 C   0  0  1  0  0  0  0  0  0  0  0  0
  -35.6902  -27.8107   15.8119 C   0  0  2  0  0  0  0  0  0  0  0  0
  -31.0718  -16.8742   21.9565 C   0  0  2  0  0  0  0  0  0  0  0  0
  -33.1507  -24.2660   25.1901 C   0  0  2  0  0  0  0  0  0  1  0  0
  -34.6904  -23.1474   15.5512 C   0  0  0  0  0  0  0  0  0  0  0  0
  -25.8533  -11.5546   20.2606 N   0  0  0  0  0  0  0  0  0  0  0  0
  -34.2892  -17.8537   22.6184 N   0  0  0  0  0  0  0  0  0  0  0  0
  -26.2247  -12.8397   20.1316 N   0  0  0  0  0  0  0  0  0  0  0  0
  -33.0301  -18.5042   24.2453 N   0  3  0  0  0  0  0  0  0  0  0  0
  -32.3156  -24.3345   17.9627 N   0  0  0  0  0  0  0  0  0  0  0  0
  -29.9672  -13.6085   20.3105 N   0  0  0  0  0  0  0  0  0  0  0  0
  -25.4558  -15.0641   20.3993 N   0  0  0  0  0  0  0  0  0  0  0  0
  -21.8957  -12.5752   21.6350 N   0  0  0  0  0  0  0  0  0  0  0  0
  -29.2936  -22.3858   18.5685 N   0  0  0  0  0  0  0  0  0  0  0  0
  -34.6390  -25.6553   15.8854 N   0  0  0  0  0  0  0  0  0  0  0  0
  -35.7926  -28.9732   16.7387 N   0  3  0  0  0  0  0  0  0  0  0  0
  -22.6612  -14.7182   21.3518 O   0  0  0  0  0  0  0  0  0  0  0  0
  -31.5648  -21.9213   18.3484 O   0  0  0  0  0  0  0  0  0  0  0  0
  -31.9032  -14.8932   20.2685 O   0  0  0  0  0  0  0  0  0  0  0  0
  -32.0188  -24.5190   15.6575 O   0  0  0  0  0  0  0  0  0  0  0  0
  -35.8894  -26.3364   17.7156 O   0  0  0  0  0  0  0  0  0  0  0  0
  -21.6395   -7.0109   21.7262 O   0  0  0  0  0  0  0  0  0  0  0  0
  -33.7675  -24.6154   23.9516 O   0  0  0  0  0  0  0  0  0  1  0  0
  -18.7175   -6.8267   26.3986 F   0  0  0  0  0  0  0  0  0  0  0  0
  -22.1234   -5.0615   23.6257 F   0  0  0  0  0  0  0  0  0  0  0  0
  1  2  1  0  0  0  0
  1  5  2  0  0  0  0
  2  6  2  0  0  0  0
  3  8  2  0  0  0  0
  3 16  1  0  0  0  0
  4  9  1  0  0  0  0
  4 16  2  0  0  0  0
  5 18  1  0  0  0  0
  6 20  1  0  0  0  0
  7 10  2  0  0  0  0
  7 19  1  0  0  0  0
  8 22  1  0  0  0  0
  9 22  2  0  0  0  0
 10 23  1  0  0  0  0
 11 12  2  0  0  0  0
 11 24  1  0  0  0  0
 12 25  1  0  0  0  0
 13 21  1  0  0  0  0
 13 23  2  0  0  0  0
 14 25  2  0  0  0  0
 14 26  1  0  0  0  0
 15 28  2  0  0  0  0
 15 68  1  0  0  0  0
 16 27  1  0  0  0  0
 17 27  1  0  0  0  0
 17 29  2  0  0  0  0
 17 31  1  0  0  0  0
 18 20  2  0  0  0  0
 18 36  1  0  0  0  0
 19 21  2  0  0  0  0
 19 37  1  0  0  0  0
 20 45  1  0  0  0  0
 21 38  1  0  0  0  0
 22 83  1  0  0  0  0
 23 84  1  0  0  0  0
 24 26  2  0  0  0  0
 24 83  1  0  0  0  0
 25 85  1  0  0  0  0
 26 86  1  0  0  0  0
 27 67  2  0  0  0  0
 28 57  1  0  0  0  0
 28 70  1  0  0  0  0
 29 69  1  0  0  0  0
 29 73  1  0  0  0  0
 30 61  1  0  0  0  0
 30 68  1  0  0  0  0
 30 70  2  0  0  0  0
 31 74  1  0  0  0  0
 31 78  2  0  0  0  0
 32 46  1  0  0  0  0
 32 75  1  0  0  0  0
 32 79  2  0  0  0  0
 33 58  1  0  0  0  0
 33 72  1  0  0  0  0
 33 80  2  0  0  0  0
 34 62  1  0  0  0  0
 34 71  1  0  0  0  0
 34 81  2  0  0  0  0
 35 63  1  0  0  0  0
 35 76  1  0  0  0  0
 35 82  2  0  0  0  0
 36 39  1  0  0  0  0
 37 46  1  0  0  0  0
 38 71  1  0  0  0  0
 39 41  1  0  0  0  0
 40 42  1  0  0  0  0
 40 43  1  0  0  0  0
 41 45  1  0  0  0  0
 42 47  1  0  0  0  0
 43 72  1  0  0  0  0
 44 47  1  0  0  0  0
 44 72  1  0  0  0  0
 45 75  1  0  0  0  0
 46 71  1  0  0  0  0
 47 69  1  0  0  0  0
 48 61  1  0  0  0  0
 49 63  1  0  0  0  0
 50 64  1  0  0  0  0
 51 65  1  0  0  0  0
 52 66  1  0  0  0  0
 53 66  1  0  0  0  0
 54 66  1  0  0  0  0
 55 68  1  0  0  0  0
 56 77  1  0  0  0  0
 57 59  1  0  0  0  0
 58 64  1  0  0  0  0
 59 60  1  0  0  0  0
 60 65  1  0  0  0  0
 61 64  1  0  0  0  0
 62 66  1  0  0  0  0
 62 76  1  0  0  0  0
 63 77  1  0  0  0  0
 65 84  1  0  0  0  0
 67 69  1  0  0  0  0
M  CHG  2  70   1  77   1
M  ISO  4  33 100  58 100  65 101  84 101
M  END
> <Batch ID>
0073

> <Smiles>
CNC(C)C(=O)NC(C(=O)N1Cc2cc([101O:1][101CH:1](C)CCCc3cn(C)c(C(C)C(C)[100CH2:0][100C:0](=O)N4CCCC(n5nc(-c6ccc(Oc7ccc(F)cc7F)cc6)c(C(N)=O)c5N)C4)n3)ccc2CC1C(=O)NC1CCCc2ccccc21)C(C)(C)C

> <Shape>
0.220

> <Color>
0.187

> <Negative vol penalty>
0.000

$$$$

  -OEChem-04052318273D

 84 92  0     1  0  0  0  0  0999 V2000
  -16.8078  -29.0308   24.4927 C   0  0  0  0  0  0  0  0  0  0  0  0
  -17.1652  -28.1253   23.4989 C   0  0  0  0  0  0  0  0  0  0  0  0
  -26.7658  -13.5936   21.2365 C   0  0  0  0  0  0  0  0  0  0  0  0
  -26.8877  -13.4878   18.8259 C   0  0  0  0  0  0  0  0  0  0  0  0
  -17.5344  -30.2099   24.6538 C   0  0  0  0  0  0  0  0  0  0  0  0
  -18.2487  -28.3987   22.6649 C   0  0  0  0  0  0  0  0  0  0  0  0
  -22.1933  -24.3507   20.3071 C   0  0  0  0  0  0  0  0  0  0  0  0
  -26.0502  -12.3965   21.2529 C   0  0  0  0  0  0  0  0  0  0  0  0
  -26.1721  -12.2905   18.8423 C   0  0  0  0  0  0  0  0  0  0  0  0
  -22.2717  -23.7353   19.0585 C   0  0  0  0  0  0  0  0  0  0  0  0
  -24.5038   -9.1820   21.9535 C   0  0  0  0  0  0  0  0  0  0  0  0
  -24.8743   -8.2178   22.8909 C   0  0  0  0  0  0  0  0  0  0  0  0
  -23.8450  -25.4151   18.3360 C   0  0  0  0  0  0  0  0  0  0  0  0
  -27.0863   -8.1270   21.9233 C   0  0  0  0  0  0  0  0  0  0  0  0
  -26.6808  -19.7812   13.3220 C   0  0  0  0  0  0  0  0  0  0  0  0
  -24.6316  -19.4169   12.8764 C   0  0  0  0  0  0  0  0  0  0  0  0
  -27.1845  -14.1394   20.0230 C   0  0  0  0  0  0  0  0  0  0  0  0
  -29.3208  -15.5328   20.0689 C   0  0  0  0  0  0  0  0  0  0  0  0
  -18.6333  -30.4934   23.8276 C   0  0  0  0  0  0  0  0  0  0  0  0
  -22.9331  -25.5112   20.5763 C   0  0  0  0  0  0  0  0  0  0  0  0
  -18.9898  -29.5833   22.8142 C   0  0  0  0  0  0  0  0  0  0  0  0
  -23.7762  -26.0419   19.5896 C   0  0  0  0  0  0  0  0  0  0  0  0
  -25.7534  -11.7449   20.0558 C   0  0  0  0  0  0  0  0  0  0  0  0
  -23.0954  -24.2691   18.0718 C   0  0  0  0  0  0  0  0  0  0  0  0
  -25.4245   -9.6187   21.0009 C   0  0  0  0  0  0  0  0  0  0  0  0
  -26.1655   -7.6904   22.8758 C   0  0  0  0  0  0  0  0  0  0  0  0
  -26.7157   -9.0912   20.9858 C   0  0  0  0  0  0  0  0  0  0  0  0
  -27.9232  -15.3763   20.0053 C   0  0  0  0  0  0  0  0  0  0  0  0
  -25.9686  -20.5248   14.2333 C   0  0  0  0  0  0  0  0  0  0  0  0
  -29.5169  -16.8913   20.0183 C   0  0  0  0  0  0  0  0  0  0  0  0
  -30.3498  -14.5390   20.1650 C   0  0  0  0  0  0  0  0  0  0  0  0
  -22.2040  -28.5088   21.3420 C   0  0  0  0  0  0  0  0  0  0  0  0
  -25.4177  -28.7925   21.6795 C   0  0  0  0  0  0  0  0  0  0  0  0
  -28.5287  -27.6534   20.8602 C   0  0  0  0  0  0  0  0  0  0  0  0
  -26.2613  -21.4010   17.8014 C   0  0  0  0  0  0  0  0  0  0  0  0
  -19.3591  -31.8029   24.0090 C   0  0  0  0  0  0  0  0  0  0  0  0
  -22.8579  -26.1478   21.9370 C   0  0  0  0  0  0  0  0  0  0  0  0
  -24.6064  -27.2744   19.8349 C   0  0  0  0  0  0  0  0  0  0  0  0
  -20.7245  -31.8421   23.3274 C   0  0  0  0  0  0  0  0  0  0  0  0
  -27.3946  -21.0257   21.1557 C   0  0  0  0  0  0  0  0  0  0  0  0
  -20.6272  -31.2977   21.9058 C   0  0  0  0  0  0  0  0  0  0  0  0
  -27.7847  -19.5494   21.2469 C   0  0  0  0  0  0  0  0  0  0  0  0
  -26.1671  -21.2314   20.2709 C   0  0  0  0  0  0  0  0  0  0  0  0
  -26.6622  -19.1715   19.0118 C   0  0  0  0  0  0  0  0  0  0  0  0
  -20.1742  -29.8327   21.9058 C   0  0  1  0  0  0  0  0  0  0  0  0
  -23.2616  -27.6190   21.9314 C   0  0  1  0  0  0  0  0  0  0  0  0
  -27.9284  -18.9199   19.8483 C   0  0  2  0  0  0  0  0  0  0  0  0
  -27.7501  -22.1143   15.0466 C   0  0  0  0  0  0  0  0  0  0  0  0
  -30.9631  -28.1111   21.2622 C   0  0  0  0  0  0  0  0  0  0  0  0
  -25.2813  -31.1746   19.7776 C   0  0  0  0  0  0  0  0  0  0  0  0
  -27.7593  -30.9851   19.4740 C   0  0  0  0  0  0  0  0  0  0  0  0
  -26.8153  -31.4837   21.7285 C   0  0  0  0  0  0  0  0  0  0  0  0
  -21.8899  -24.4359   14.3481 C   0  0  0  0  0  0  0  0  0  0  0  0
  -20.6483  -22.2697   14.4145 C   0  0  0  0  0  0  0  0  0  0  0  0
  -28.9485  -24.9875   22.0750 C   0  0  0  0  0  0  0  0  0  0  0  0
  -23.1870  -22.3026   14.2062 C   0  0  0  0  0  0  0  0  0  0  0  0
  -23.4479  -20.8525   14.6348 C   0  0  0  0  0  0  0  0  0  0  0  0
  -22.0134  -22.9772   16.3936 C   0  0  0  0  0  0  0  0  0  1  0  0
  -26.4032  -21.4146   15.3237 C   0  0  2  0  0  0  0  0  0  0  0  0
  -26.5604  -29.1605   20.7643 C   0  0  1  0  0  0  0  0  0  0  0  0
  -29.7401  -27.3291   21.7156 C   0  0  2  0  0  0  0  0  0  0  0  0
  -26.5871  -30.6789   20.4305 C   0  0  0  0  0  0  0  0  0  0  0  0
  -21.9435  -22.9771   14.8514 C   0  0  0  0  0  0  0  0  0  0  0  0
  -25.8426  -19.0941   12.4799 N   0  0  0  0  0  0  0  0  0  0  0  0
  -27.2771  -16.5423   19.9209 N   0  0  0  0  0  0  0  0  0  0  0  0
  -24.6575  -20.2816   13.9351 N   0  0  0  0  0  0  0  0  0  0  0  0
  -28.2732  -17.4444   19.9312 N   0  0  0  0  0  0  0  0  0  0  0  0
  -24.4937  -27.8642   21.1792 N   0  0  0  0  0  0  0  0  0  0  0  0
  -26.3687  -20.6123   18.9587 N   0  0  0  0  0  0  0  0  0  0  0  0
  -30.6300  -17.6547   20.0404 N   0  0  0  0  0  0  0  0  0  0  0  0
  -29.9736  -13.1895   20.2060 N   0  0  0  0  0  0  0  0  0  0  0  0
  -21.2757  -28.9631   22.2592 N   0  0  0  0  0  0  0  0  0  0  0  0
  -27.7737  -28.6689   21.4082 N   0  0  0  0  0  0  0  0  0  0  0  0
  -26.4733  -20.7372   16.5992 N   0  0  0  0  0  0  0  0  0  0  0  0
  -30.0561  -25.8748   21.6359 N   0  3  0  0  0  0  0  0  0  0  0  0
  -31.5660  -14.8396   20.2297 O   0  0  0  0  0  0  0  0  0  0  0  0
  -22.2293  -28.7655   20.1440 O   0  0  0  0  0  0  0  0  0  0  0  0
  -25.3514  -29.3043   22.7999 O   0  0  0  0  0  0  0  0  0  0  0  0
  -28.2791  -27.0673   19.8092 O   0  0  0  0  0  0  0  0  0  0  0  0
  -26.0015  -22.6085   17.8370 O   0  0  0  0  0  0  0  0  0  0  0  0
  -25.0554  -10.5765   20.0715 O   0  0  0  0  0  0  0  0  0  0  0  0
  -23.1733  -23.6707   16.8521 O   0  0  0  0  0  0  0  0  0  1  0  0
  -26.5217   -6.7656   23.7770 F   0  0  0  0  0  0  0  0  0  0  0  0
  -27.6049   -9.5077   20.0739 F   0  0  0  0  0  0  0  0  0  0  0  0
  1  2  1  0  0  0  0
  1  5  2  0  0  0  0
  2  6  2  0  0  0  0
  3  8  2  0  0  0  0
  3 17  1  0  0  0  0
  4  9  1  0  0  0  0
  4 17  2  0  0  0  0
  5 19  1  0  0  0  0
  6 21  1  0  0  0  0
  7 10  2  0  0  0  0
  7 20  1  0  0  0  0
  8 23  1  0  0  0  0
  9 23  2  0  0  0  0
 10 24  1  0  0  0  0
 11 12  2  0  0  0  0
 11 25  1  0  0  0  0
 12 26  1  0  0  0  0
 13 22  1  0  0  0  0
 13 24  2  0  0  0  0
 14 26  2  0  0  0  0
 14 27  1  0  0  0  0
 15 29  2  0  0  0  0
 15 64  1  0  0  0  0
 16 64  2  0  0  0  0
 16 66  1  0  0  0  0
 17 28  1  0  0  0  0
 18 28  1  0  0  0  0
 18 30  2  0  0  0  0
 18 31  1  0  0  0  0
 19 21  2  0  0  0  0
 19 36  1  0  0  0  0
 20 22  2  0  0  0  0
 20 37  1  0  0  0  0
 21 45  1  0  0  0  0
 22 38  1  0  0  0  0
 23 81  1  0  0  0  0
 24 82  1  0  0  0  0
 25 27  2  0  0  0  0
 25 81  1  0  0  0  0
 26 83  1  0  0  0  0
 27 84  1  0  0  0  0
 28 65  2  0  0  0  0
 29 59  1  0  0  0  0
 29 66  1  0  0  0  0
 30 67  1  0  0  0  0
 30 70  1  0  0  0  0
 31 71  1  0  0  0  0
 31 76  2  0  0  0  0
 32 46  1  0  0  0  0
 32 72  1  0  0  0  0
 32 77  2  0  0  0  0
 33 60  1  0  0  0  0
 33 68  1  0  0  0  0
 33 78  2  0  0  0  0
 34 61  1  0  0  0  0
 34 73  1  0  0  0  0
 34 79  2  0  0  0  0
 35 69  1  0  0  0  0
 35 74  1  0  0  0  0
 35 80  2  0  0  0  0
 36 39  1  0  0  0  0
 37 46  1  0  0  0  0
 38 68  1  0  0  0  0
 39 41  1  0  0  0  0
 40 42  1  0  0  0  0
 40 43  1  0  0  0  0
 41 45  1  0  0  0  0
 42 47  1  0  0  0  0
 43 69  1  0  0  0  0
 44 47  1  0  0  0  0
 44 69  1  0  0  0  0
 45 72  1  0  0  0  0
 46 68  1  0  0  0  0
 47 67  1  0  0  0  0
 48 59  1  0  0  0  0
 49 61  1  0  0  0  0
 50 62  1  0  0  0  0
 51 62  1  0  0  0  0
 52 62  1  0  0  0  0
 53 63  1  0  0  0  0
 54 63  1  0  0  0  0
 55 75  1  0  0  0  0
 56 57  1  0  0  0  0
 56 63  1  0  0  0  0
 57 66  1  0  0  0  0
 58 63  1  0  0  0  0
 58 82  1  0  0  0  0
 59 74  1  0  0  0  0
 60 62  1  0  0  0  0
 60 73  1  0  0  0  0
 61 75  1  0  0  0  0
 65 67  1  0  0  0  0
M  CHG  1  75   1
M  ISO  4  35 100  58 101  74 100  82 101
M  END
> <Batch ID>
0073

> <Smiles>
CNC(C)C(=O)NC(C(=O)N1Cc2cc([101O:1][101CH2:1]C(C)(C)CCn3cncc3C(C)[100NH:0][100C:0](=O)N3CCCC(n4nc(-c5ccc(Oc6ccc(F)cc6F)cc5)c(C(N)=O)c4N)C3)ccc2CC1C(=O)NC1CCCc2ccccc21)C(C)(C)C

> <Shape>
0.218

> <Color>
0.091

> <Negative vol penalty>
0.000

$$$$

  -OEChem-04052318273D

 82 90  0     1  0  0  0  0  0999 V2000
  -32.3705  -12.7743   21.6042 C   0  0  0  0  0  0  0  0  0  0  0  0
  -31.9423  -14.0841   21.7954 C   0  0  0  0  0  0  0  0  0  0  0  0
  -29.9846  -23.9019   18.8110 C   0  0  0  0  0  0  0  0  0  0  0  0
  -28.8293  -23.6679   20.9199 C   0  0  0  0  0  0  0  0  0  0  0  0
  -31.5945  -11.8908   20.8551 C   0  0  0  0  0  0  0  0  0  0  0  0
  -30.7384  -14.5114   21.2367 C   0  0  0  0  0  0  0  0  0  0  0  0
  -25.2713  -18.9670   22.4922 C   0  0  0  0  0  0  0  0  0  0  0  0
  -30.1053  -22.5151   18.7232 C   0  0  0  0  0  0  0  0  0  0  0  0
  -28.9500  -22.2811   20.8321 C   0  0  0  0  0  0  0  0  0  0  0  0
  -24.5554  -19.9933   21.8776 C   0  0  0  0  0  0  0  0  0  0  0  0
  -31.3383  -19.9492   21.3695 C   0  0  0  0  0  0  0  0  0  0  0  0
  -31.7417  -19.2601   22.5132 C   0  0  0  0  0  0  0  0  0  0  0  0
  -23.2590  -18.3570   20.6688 C   0  0  0  0  0  0  0  0  0  0  0  0
  -29.6767  -18.0063   22.4861 C   0  0  0  0  0  0  0  0  0  0  0  0
  -24.8850  -26.1136   16.2093 C   0  0  0  0  0  0  0  0  0  0  0  0
  -23.5322  -27.2153   17.5476 C   0  0  0  0  0  0  0  0  0  0  0  0
  -29.3466  -24.4784   19.9094 C   0  0  0  0  0  0  0  0  0  0  0  0
  -30.2664  -26.8545   20.0356 C   0  0  0  0  0  0  0  0  0  0  0  0
  -30.3757  -12.3048   20.2950 C   0  0  0  0  0  0  0  0  0  0  0  0
  -24.9934  -17.6259   22.1910 C   0  0  0  0  0  0  0  0  0  0  0  0
  -29.9460  -13.6330   20.4782 C   0  0  0  0  0  0  0  0  0  0  0  0
  -23.9712  -17.3154   21.2828 C   0  0  0  0  0  0  0  0  0  0  0  0
  -23.7924  -25.9497   17.0818 C   0  0  0  0  0  0  0  0  0  0  0  0
  -29.5880  -21.7047   19.7337 C   0  0  0  0  0  0  0  0  0  0  0  0
  -23.5510  -19.6885   20.9635 C   0  0  0  0  0  0  0  0  0  0  0  0
  -30.1041  -19.6669   20.7841 C   0  0  0  0  0  0  0  0  0  0  0  0
  -30.9110  -18.2886   23.0714 C   0  0  0  0  0  0  0  0  0  0  0  0
  -29.2733  -18.6954   21.3424 C   0  0  0  0  0  0  0  0  0  0  0  0
  -29.2222  -25.9109   20.0010 C   0  0  0  0  0  0  0  0  0  0  0  0
  -29.6296  -28.0682   20.1251 C   0  0  0  0  0  0  0  0  0  0  0  0
  -31.6850  -26.6520   19.9907 C   0  0  0  0  0  0  0  0  0  0  0  0
  -26.6405  -15.2257   20.9142 C   0  0  0  0  0  0  0  0  0  0  0  0
  -23.9979  -13.5128   21.6919 C   0  0  0  0  0  0  0  0  0  0  0  0
  -24.1168  -29.8356   18.5135 C   0  0  0  0  0  0  0  0  0  0  0  0
  -20.6503  -13.4918   22.3548 C   0  0  0  0  0  0  0  0  0  0  0  0
  -29.5943  -11.3272   19.4533 C   0  0  0  0  0  0  0  0  0  0  0  0
  -25.7567  -16.5298   22.8826 C   0  0  0  0  0  0  0  0  0  0  0  0
  -23.6202  -15.8914   20.9403 C   0  0  0  0  0  0  0  0  0  0  0  0
  -28.1488  -11.7529   19.2094 C   0  0  0  0  0  0  0  0  0  0  0  0
  -25.6213  -30.0912   21.7557 C   0  0  0  0  0  0  0  0  0  0  0  0
  -28.0864  -13.2209   18.7995 C   0  0  0  0  0  0  0  0  0  0  0  0
  -26.7930  -29.1128   21.6858 C   0  0  0  0  0  0  0  0  0  0  0  0
  -24.4248  -29.5876   20.9544 C   0  0  0  0  0  0  0  0  0  0  0  0
  -25.9094  -28.2956   19.4550 C   0  0  0  0  0  0  0  0  0  0  0  0
  -28.6338  -14.1271   19.9089 C   0  0  1  0  0  0  0  0  0  0  0  0
  -25.7370  -15.2117   22.1147 C   0  0  1  0  0  0  0  0  0  0  0  0
  -27.1498  -28.7809   20.2260 C   0  0  2  0  0  0  0  0  0  0  0  0
  -18.7636  -11.9364   22.9193 C   0  0  0  0  0  0  0  0  0  0  0  0
  -23.6895  -30.1874   16.1018 C   0  0  0  0  0  0  0  0  0  0  0  0
  -26.0100  -29.9965   16.9982 C   0  0  0  0  0  0  0  0  0  0  0  0
  -23.9006  -12.5808   18.7881 C   0  0  0  0  0  0  0  0  0  0  0  0
  -21.5408  -11.8405   19.1777 C   0  0  0  0  0  0  0  0  0  0  0  0
  -23.4024  -10.8005   20.4723 C   0  0  0  0  0  0  0  0  0  0  0  0
  -20.1535  -14.8458   24.9391 C   0  0  0  0  0  0  0  0  0  0  0  0
  -23.0672  -24.6734   17.4268 C   0  0  0  0  0  0  0  0  0  0  0  0
  -23.6515  -23.9372   18.6376 C   0  0  0  0  0  0  0  0  0  0  0  0
  -22.9520  -22.6079   18.9247 C   0  0  0  0  0  0  0  0  0  0  0  0
  -23.5323  -21.9254   20.1560 C   0  0  0  0  0  0  0  0  0  1  0  0
  -22.7017  -13.1724   20.9969 C   0  0  1  0  0  0  0  0  0  0  0  0
  -19.8486  -12.8478   23.4715 C   0  0  2  0  0  0  0  0  0  0  0  0
  -24.5733  -29.4554   17.1275 C   0  0  0  0  0  0  0  0  0  0  0  0
  -22.8941  -12.1255   19.8635 C   0  0  0  0  0  0  0  0  0  0  0  0
  -25.2908  -27.3832   16.1240 N   0  0  0  0  0  0  0  0  0  0  0  0
  -28.0138  -26.4766   20.0636 N   0  0  0  0  0  0  0  0  0  0  0  0
  -24.4487  -28.0287   16.9489 N   0  0  0  0  0  0  0  0  0  0  0  0
  -28.2947  -27.7887   20.1385 N   0  0  0  0  0  0  0  0  0  0  0  0
  -24.3992  -14.8551   21.6381 N   0  0  0  0  0  0  0  0  0  0  0  0
  -24.8096  -29.2622   19.5799 N   0  0  0  0  0  0  0  0  0  0  0  0
  -30.0869  -29.3365   20.1930 N   0  0  0  0  0  0  0  0  0  0  0  0
  -32.3741  -26.4815   21.1992 N   0  0  0  0  0  0  0  0  0  0  0  0
  -27.6531  -14.2866   20.9611 N   0  0  0  0  0  0  0  0  0  0  0  0
  -21.7744  -12.7565   22.0435 N   0  0  0  0  0  0  0  0  0  0  0  0
  -19.2008  -13.8931   24.3133 N   0  3  0  0  0  0  0  0  0  0  0  0
  -32.3251  -26.6394   18.9120 O   0  0  0  0  0  0  0  0  0  0  0  0
  -26.4334  -16.0282   20.0116 O   0  0  0  0  0  0  0  0  0  0  0  0
  -24.6275  -12.6218   22.2676 O   0  0  0  0  0  0  0  0  0  0  0  0
  -23.1744  -30.6214   18.6425 O   0  0  0  0  0  0  0  0  0  0  0  0
  -20.3111  -14.5402   21.8103 O   0  0  0  0  0  0  0  0  0  0  0  0
  -29.7053  -20.3514   19.6483 O   0  0  0  0  0  0  0  0  0  0  0  0
  -22.8511  -20.6884   20.3617 O   0  0  0  0  0  0  0  0  0  1  0  0
  -31.2992  -17.6258   24.1688 F   0  0  0  0  0  0  0  0  0  0  0  0
  -28.0869  -18.4190   20.7839 F   0  0  0  0  0  0  0  0  0  0  0  0
  1  2  1  0  0  0  0
  1  5  2  0  0  0  0
  2  6  2  0  0  0  0
  3  8  2  0  0  0  0
  3 17  1  0  0  0  0
  4  9  1  0  0  0  0
  4 17  2  0  0  0  0
  5 19  1  0  0  0  0
  6 21  1  0  0  0  0
  7 10  2  0  0  0  0
  7 20  1  0  0  0  0
  8 24  1  0  0  0  0
  9 24  2  0  0  0  0
 10 25  1  0  0  0  0
 11 12  2  0  0  0  0
 11 26  1  0  0  0  0
 12 27  1  0  0  0  0
 13 22  1  0  0  0  0
 13 25  2  0  0  0  0
 14 27  2  0  0  0  0
 14 28  1  0  0  0  0
 15 23  1  0  0  0  0
 15 63  2  0  0  0  0
 16 23  2  0  0  0  0
 16 65  1  0  0  0  0
 17 29  1  0  0  0  0
 18 29  1  0  0  0  0
 18 30  2  0  0  0  0
 18 31  1  0  0  0  0
 19 21  2  0  0  0  0
 19 36  1  0  0  0  0
 20 22  2  0  0  0  0
 20 37  1  0  0  0  0
 21 45  1  0  0  0  0
 22 38  1  0  0  0  0
 23 55  1  0  0  0  0
 24 79  1  0  0  0  0
 25 80  1  0  0  0  0
 26 28  2  0  0  0  0
 26 79  1  0  0  0  0
 27 81  1  0  0  0  0
 28 82  1  0  0  0  0
 29 64  2  0  0  0  0
 30 66  1  0  0  0  0
 30 69  1  0  0  0  0
 31 70  1  0  0  0  0
 31 74  2  0  0  0  0
 32 46  1  0  0  0  0
 32 71  1  0  0  0  0
 32 75  2  0  0  0  0
 33 59  1  0  0  0  0
 33 67  1  0  0  0  0
 33 76  2  0  0  0  0
 34 61  1  0  0  0  0
 34 68  1  0  0  0  0
 34 77  2  0  0  0  0
 35 60  1  0  0  0  0
 35 72  1  0  0  0  0
 35 78  2  0  0  0  0
 36 39  1  0  0  0  0
 37 46  1  0  0  0  0
 38 67  1  0  0  0  0
 39 41  1  0  0  0  0
 40 42  1  0  0  0  0
 40 43  1  0  0  0  0
 41 45  1  0  0  0  0
 42 47  1  0  0  0  0
 43 68  1  0  0  0  0
 44 47  1  0  0  0  0
 44 68  1  0  0  0  0
 45 71  1  0  0  0  0
 46 67  1  0  0  0  0
 47 66  1  0  0  0  0
 48 60  1  0  0  0  0
 49 61  1  0  0  0  0
 50 61  1  0  0  0  0
 51 62  1  0  0  0  0
 52 62  1  0  0  0  0
 53 62  1  0  0  0  0
 54 73  1  0  0  0  0
 55 56  1  0  0  0  0
 56 57  1  0  0  0  0
 57 58  1  0  0  0  0
 58 80  1  0  0  0  0
 59 62  1  0  0  0  0
 59 72  1  0  0  0  0
 60 73  1  0  0  0  0
 61 65  1  0  0  0  0
 63 65  1  0  0  0  0
 64 66  1  0  0  0  0
M  CHG  1  73   1
M  ISO  4  34 100  58 101  61 100  80 101
M  END
> <Batch ID>
0073

> <Smiles>
CNC(C)C(=O)NC(C(=O)N1Cc2cc([101O:1][101CH2:1]CCCc3cnn([100C:0](C)(C)[100C:0](=O)N4CCCC(n5nc(-c6ccc(Oc7ccc(F)cc7F)cc6)c(C(N)=O)c5N)C4)c3)ccc2CC1C(=O)NC1CCCc2ccccc21)C(C)(C)C

> <Shape>
0.239

> <Color>
0.080

> <Negative vol penalty>
0.000

$$$$

  -OEChem-04052318273D

 83 91  0     1  0  0  0  0  0999 V2000
  -24.5541  -19.2164   13.0473 C   0  0  0  0  0  0  0  0  0  0  0  0
  -25.3221  -18.9665   14.1801 C   0  0  0  0  0  0  0  0  0  0  0  0
  -25.0520  -30.7636   21.0892 C   0  0  0  0  0  0  0  0  0  0  0  0
  -24.7859  -29.1738   22.8890 C   0  0  0  0  0  0  0  0  0  0  0  0
  -23.1631  -19.1617   13.1236 C   0  0  0  0  0  0  0  0  0  0  0  0
  -24.6994  -18.6628   15.3902 C   0  0  0  0  0  0  0  0  0  0  0  0
  -26.8858  -14.7680   17.7766 C   0  0  0  0  0  0  0  0  0  0  0  0
  -24.2824  -31.6895   21.7933 C   0  0  0  0  0  0  0  0  0  0  0  0
  -24.0162  -30.0999   23.5931 C   0  0  0  0  0  0  0  0  0  0  0  0
  -28.0730  -15.0257   18.4606 C   0  0  0  0  0  0  0  0  0  0  0  0
  -22.6891  -34.6014   23.2757 C   0  0  0  0  0  0  0  0  0  0  0  0
  -23.1486  -35.9172   23.3322 C   0  0  0  0  0  0  0  0  0  0  0  0
  -26.8477  -15.1304   20.5359 C   0  0  0  0  0  0  0  0  0  0  0  0
  -25.1715  -35.1643   24.4175 C   0  0  0  0  0  0  0  0  0  0  0  0
  -30.1869  -20.3016   20.3685 C   0  0  0  0  0  0  0  0  0  0  0  0
  -28.3989  -19.0478   20.1117 C   0  0  0  0  0  0  0  0  0  0  0  0
  -25.3037  -29.5056   21.6370 C   0  0  0  0  0  0  0  0  0  0  0  0
  -27.4949  -28.3824   20.9701 C   0  0  0  0  0  0  0  0  0  0  0  0
  -22.5232  -18.8477   14.3330 C   0  0  0  0  0  0  0  0  0  0  0  0
  -25.6670  -14.7003   18.4669 C   0  0  0  0  0  0  0  0  0  0  0  0
  -23.2984  -18.6052   15.4831 C   0  0  0  0  0  0  0  0  0  0  0  0
  -25.6467  -14.8692   19.8587 C   0  0  0  0  0  0  0  0  0  0  0  0
  -29.6282  -19.0595   20.7243 C   0  0  0  0  0  0  0  0  0  0  0  0
  -23.7645  -31.3577   23.0453 C   0  0  0  0  0  0  0  0  0  0  0  0
  -28.0537  -15.2098   19.8400 C   0  0  0  0  0  0  0  0  0  0  0  0
  -23.4709  -33.5671   23.7902 C   0  0  0  0  0  0  0  0  0  0  0  0
  -24.3898  -36.1987   23.9030 C   0  0  0  0  0  0  0  0  0  0  0  0
  -24.7120  -33.8485   24.3611 C   0  0  0  0  0  0  0  0  0  0  0  0
  -26.0982  -28.5485   20.9100 C   0  0  0  0  0  0  0  0  0  0  0  0
  -27.7559  -27.3523   20.0999 C   0  0  0  0  0  0  0  0  0  0  0  0
  -28.4691  -29.0955   21.7434 C   0  0  0  0  0  0  0  0  0  0  0  0
  -22.9489  -16.3463   18.3863 C   0  0  0  0  0  0  0  0  0  0  0  0
  -21.9577  -14.0616   20.4647 C   0  0  0  0  0  0  0  0  0  0  0  0
  -25.3614  -22.3661   18.3247 C   0  0  0  0  0  0  0  0  0  0  0  0
  -22.7847  -11.7077   22.7932 C   0  0  0  0  0  0  0  0  0  0  0  0
  -21.0156  -18.8468   14.3778 C   0  0  0  0  0  0  0  0  0  0  0  0
  -24.3987  -14.3950   17.7181 C   0  0  0  0  0  0  0  0  0  0  0  0
  -24.3673  -14.7862   20.6491 C   0  0  0  0  0  0  0  0  0  0  0  0
  -20.4433  -18.1500   15.6095 C   0  0  0  0  0  0  0  0  0  0  0  0
  -25.3776  -25.3130   16.2861 C   0  0  0  0  0  0  0  0  0  0  0  0
  -21.1712  -18.6090   16.8690 C   0  0  0  0  0  0  0  0  0  0  0  0
  -25.6691  -26.4359   17.2807 C   0  0  0  0  0  0  0  0  0  0  0  0
  -24.5232  -24.2172   16.9158 C   0  0  0  0  0  0  0  0  0  0  0  0
  -25.3897  -24.7662   19.1673 C   0  0  0  0  0  0  0  0  0  0  0  0
  -22.6603  -18.2481   16.8081 C   0  0  1  0  0  0  0  0  0  0  0  0
  -23.1447  -14.8581   18.4531 C   0  0  1  0  0  0  0  0  0  0  0  0
  -26.2761  -25.8791   18.5807 C   0  0  2  0  0  0  0  0  0  0  0  0
  -21.7556  -10.0267   24.3464 C   0  0  0  0  0  0  0  0  0  0  0  0
  -27.6095  -20.8284   17.1879 C   0  0  0  0  0  0  0  0  0  0  0  0
  -26.0061  -21.8573   20.6277 C   0  0  0  0  0  0  0  0  0  0  0  0
  -21.1371  -16.3129   22.3536 C   0  0  0  0  0  0  0  0  0  0  0  0
  -21.0204  -14.6267   24.2005 C   0  0  0  0  0  0  0  0  0  0  0  0
  -19.5130  -14.4156   22.2242 C   0  0  0  0  0  0  0  0  0  0  0  0
  -24.1717   -9.4569   21.4630 C   0  0  0  0  0  0  0  0  0  0  0  0
  -30.2405  -17.9813   21.5823 C   0  0  0  0  0  0  0  0  0  0  0  0
  -31.0636  -16.9601   20.7940 C   0  0  0  0  0  0  0  0  0  0  0  0
  -30.2352  -16.1560   19.7987 C   0  0  0  0  0  0  0  0  0  1  0  0
  -21.9749  -13.9017   21.9657 C   0  0  1  0  0  0  0  0  0  0  0  0
  -22.3472  -10.2643   22.9658 C   0  0  2  0  0  0  0  0  0  0  0  0
  -27.1810  -20.6857   18.6583 C   0  0  2  0  0  0  0  0  0  0  0  0
  -26.5298  -21.9849   19.1985 C   0  0  1  0  0  0  0  0  0  0  0  0
  -20.9353  -14.8178   22.6712 C   0  0  0  0  0  0  0  0  0  0  0  0
  -29.3790  -21.0264   19.5900 N   0  0  0  0  0  0  0  0  0  0  0  0
  -25.5129  -27.6925   20.0680 N   0  0  0  0  0  0  0  0  0  0  0  0
  -28.3001  -20.2372   19.4516 N   0  0  0  0  0  0  0  0  0  0  0  0
  -26.5469  -26.9787   19.5910 N   0  0  0  0  0  0  0  0  0  0  0  0
  -23.1528  -14.4918   19.8709 N   0  0  0  0  0  0  0  0  0  0  0  0
  -25.1222  -23.7305   18.1598 N   0  0  0  0  0  0  0  0  0  0  0  0
  -28.8994  -26.7387   19.7280 N   0  0  0  0  0  0  0  0  0  0  0  0
  -28.0295  -30.1249   22.5867 N   0  0  0  0  0  0  0  0  0  0  0  0
  -22.8525  -16.8439   17.1007 N   0  0  0  0  0  0  0  0  0  0  0  0
  -21.7913  -12.4782   22.2267 N   0  0  0  0  0  0  0  0  0  0  0  0
  -23.5077   -9.3465   22.7874 N   0  3  0  0  0  0  0  0  0  0  0  0
  -29.6951  -28.8385   21.6758 O   0  0  0  0  0  0  0  0  0  0  0  0
  -22.8884  -16.9950   19.4242 O   0  0  0  0  0  0  0  0  0  0  0  0
  -20.9242  -13.8070   19.8412 O   0  0  0  0  0  0  0  0  0  0  0  0
  -24.6845  -21.4764   17.8027 O   0  0  0  0  0  0  0  0  0  0  0  0
  -23.8951  -12.1121   23.1308 O   0  0  0  0  0  0  0  0  0  0  0  0
  -23.0137  -32.2612   23.7327 O   0  0  0  0  0  0  0  0  0  0  0  0
  -29.2111  -15.4621   20.5100 O   0  0  0  0  0  0  0  0  0  1  0  0
  -24.8315  -37.4621   23.9558 F   0  0  0  0  0  0  0  0  0  0  0  0
  -25.4680  -32.8588   24.8559 F   0  0  0  0  0  0  0  0  0  0  0  0
  -27.4505  -22.9899   19.1834 F   0  0  0  0  0  0  0  0  0  0  0  0
  1  2  1  0  0  0  0
  1  5  2  0  0  0  0
  2  6  2  0  0  0  0
  3  8  2  0  0  0  0
  3 17  1  0  0  0  0
  4  9  1  0  0  0  0
  4 17  2  0  0  0  0
  5 19  1  0  0  0  0
  6 21  1  0  0  0  0
  7 10  2  0  0  0  0
  7 20  1  0  0  0  0
  8 24  1  0  0  0  0
  9 24  2  0  0  0  0
 10 25  1  0  0  0  0
 11 12  2  0  0  0  0
 11 26  1  0  0  0  0
 12 27  1  0  0  0  0
 13 22  1  0  0  0  0
 13 25  2  0  0  0  0
 14 27  2  0  0  0  0
 14 28  1  0  0  0  0
 15 23  1  0  0  0  0
 15 63  2  0  0  0  0
 16 23  2  0  0  0  0
 16 65  1  0  0  0  0
 17 29  1  0  0  0  0
 18 29  1  0  0  0  0
 18 30  2  0  0  0  0
 18 31  1  0  0  0  0
 19 21  2  0  0  0  0
 19 36  1  0  0  0  0
 20 22  2  0  0  0  0
 20 37  1  0  0  0  0
 21 45  1  0  0  0  0
 22 38  1  0  0  0  0
 23 55  1  0  0  0  0
 24 79  1  0  0  0  0
 25 80  1  0  0  0  0
 26 28  2  0  0  0  0
 26 79  1  0  0  0  0
 27 81  1  0  0  0  0
 28 82  1  0  0  0  0
 29 64  2  0  0  0  0
 30 66  1  0  0  0  0
 30 69  1  0  0  0  0
 31 70  1  0  0  0  0
 31 74  2  0  0  0  0
 32 46  1  0  0  0  0
 32 71  1  0  0  0  0
 32 75  2  0  0  0  0
 33 58  1  0  0  0  0
 33 67  1  0  0  0  0
 33 76  2  0  0  0  0
 34 61  1  0  0  0  0
 34 68  1  0  0  0  0
 34 77  2  0  0  0  0
 35 59  1  0  0  0  0
 35 72  1  0  0  0  0
 35 78  2  0  0  0  0
 36 39  1  0  0  0  0
 37 46  1  0  0  0  0
 38 67  1  0  0  0  0
 39 41  1  0  0  0  0
 40 42  1  0  0  0  0
 40 43  1  0  0  0  0
 41 45  1  0  0  0  0
 42 47  1  0  0  0  0
 43 68  1  0  0  0  0
 44 47  1  0  0  0  0
 44 68  1  0  0  0  0
 45 71  1  0  0  0  0
 46 67  1  0  0  0  0
 47 66  1  0  0  0  0
 48 59  1  0  0  0  0
 49 60  1  0  0  0  0
 50 61  1  0  0  0  0
 51 62  1  0  0  0  0
 52 62  1  0  0  0  0
 53 62  1  0  0  0  0
 54 73  1  0  0  0  0
 55 56  1  0  0  0  0
 56 57  1  0  0  0  0
 57 80  1  0  0  0  0
 58 62  1  0  0  0  0
 58 72  1  0  0  0  0
 59 73  1  0  0  0  0
 60 61  1  0  0  0  0
 60 65  1  0  0  0  0
 61 83  1  0  0  0  0
 63 65  1  0  0  0  0
 64 66  1  0  0  0  0
M  CHG  1  73   1
M  ISO  4  34 100  57 101  61 100  80 101
M  END
> <Batch ID>
0073

> <Smiles>
CNC(C)C(=O)NC(C(=O)N1Cc2cc([101O:1][101CH2:1]CCc3cnn(C(C)[100C:0](C)(F)[100C:0](=O)N4CCCC(n5nc(-c6ccc(Oc7ccc(F)cc7F)cc6)c(C(N)=O)c5N)C4)c3)ccc2CC1C(=O)NC1CCCc2ccccc21)C(C)(C)C

> <Shape>
0.221

> <Color>
0.071

> <Negative vol penalty>
0.000

$$$$

  -OEChem-04052318273D

 85 93  0     1  0  0  0  0  0999 V2000
  -19.6100   -8.6109   19.7653 C   0  0  0  0  0  0  0  0  0  0  0  0
  -19.8586   -9.9104   20.1954 C   0  0  0  0  0  0  0  0  0  0  0  0
  -24.7454  -30.7458   20.9121 C   0  0  0  0  0  0  0  0  0  0  0  0
  -25.3698  -29.5420   22.9116 C   0  0  0  0  0  0  0  0  0  0  0  0
  -20.5494   -7.6080   20.0016 C   0  0  0  0  0  0  0  0  0  0  0  0
  -21.0463  -10.2076   20.8629 C   0  0  0  0  0  0  0  0  0  0  0  0
  -23.2032  -14.4713   19.1855 C   0  0  0  0  0  0  0  0  0  0  0  0
  -23.9942  -31.6342   21.6816 C   0  0  0  0  0  0  0  0  0  0  0  0
  -24.6187  -30.4304   23.6811 C   0  0  0  0  0  0  0  0  0  0  0  0
  -22.6607  -15.6765   19.6293 C   0  0  0  0  0  0  0  0  0  0  0  0
  -22.2046  -34.4334   23.1570 C   0  0  0  0  0  0  0  0  0  0  0  0
  -22.3288  -35.7951   22.8816 C   0  0  0  0  0  0  0  0  0  0  0  0
  -24.4265  -15.8632   21.2621 C   0  0  0  0  0  0  0  0  0  0  0  0
  -24.4982  -20.2462   19.3129 C   0  0  0  0  0  0  0  0  0  0  0  0
  -24.6898  -35.6809   23.3817 C   0  0  0  0  0  0  0  0  0  0  0  0
  -24.3771  -20.7393   21.5065 C   0  0  0  0  0  0  0  0  0  0  0  0
  -25.4331  -29.6996   21.5272 C   0  0  0  0  0  0  0  0  0  0  0  0
  -27.5665  -28.8993   20.3801 C   0  0  0  0  0  0  0  0  0  0  0  0
  -21.7534   -7.8950   20.6638 C   0  0  0  0  0  0  0  0  0  0  0  0
  -24.3572  -13.9466   19.7851 C   0  0  0  0  0  0  0  0  0  0  0  0
  -22.0020   -9.2073   21.1094 C   0  0  0  0  0  0  0  0  0  0  0  0
  -24.9831  -14.6524   20.8225 C   0  0  0  0  0  0  0  0  0  0  0  0
  -23.6430  -20.2645   20.4422 C   0  0  0  0  0  0  0  0  0  0  0  0
  -23.9309  -31.4765   23.0661 C   0  0  0  0  0  0  0  0  0  0  0  0
  -23.2707  -16.3712   20.6697 C   0  0  0  0  0  0  0  0  0  0  0  0
  -23.3230  -33.6954   23.5449 C   0  0  0  0  0  0  0  0  0  0  0  0
  -23.5714  -36.4189   22.9939 C   0  0  0  0  0  0  0  0  0  0  0  0
  -24.5655  -34.3192   23.6572 C   0  0  0  0  0  0  0  0  0  0  0  0
  -26.2088  -28.7812   20.7328 C   0  0  0  0  0  0  0  0  0  0  0  0
  -25.7291  -20.7103   19.7216 C   0  0  0  0  0  0  0  0  0  0  0  0
  -27.8242  -27.7800   19.6268 C   0  0  0  0  0  0  0  0  0  0  0  0
  -28.5105  -29.9286   20.7044 C   0  0  0  0  0  0  0  0  0  0  0  0
  -25.0403  -11.2909   21.3926 C   0  0  0  0  0  0  0  0  0  0  0  0
  -28.0719  -12.4325   21.2226 C   0  0  0  0  0  0  0  0  0  0  0  0
  -27.4342  -22.3317   18.9620 C   0  0  0  0  0  0  0  0  0  0  0  0
  -30.1379  -15.1256   20.8684 C   0  0  0  0  0  0  0  0  0  0  0  0
  -22.7175   -6.7681   20.9381 C   0  0  0  0  0  0  0  0  0  0  0  0
  -24.9451  -12.6587   19.2770 C   0  0  0  0  0  0  0  0  0  0  0  0
  -26.2353  -14.1421   21.4860 C   0  0  0  0  0  0  0  0  0  0  0  0
  -24.1168   -7.2432   21.3209 C   0  0  0  0  0  0  0  0  0  0  0  0
  -24.7007  -24.3394   17.6490 C   0  0  0  0  0  0  0  0  0  0  0  0
  -24.0369   -8.3530   22.3643 C   0  0  0  0  0  0  0  0  0  0  0  0
  -24.9500  -25.6816   18.3356 C   0  0  0  0  0  0  0  0  0  0  0  0
  -25.0683  -23.1681   18.5560 C   0  0  0  0  0  0  0  0  0  0  0  0
  -26.7214  -24.5631   19.7583 C   0  0  0  0  0  0  0  0  0  0  0  0
  -23.2896   -9.5741   21.8149 C   0  0  1  0  0  0  0  0  0  0  0  0
  -25.8308  -11.9600   20.3040 C   0  0  1  0  0  0  0  0  0  0  0  0
  -26.3918  -25.7710   18.8654 C   0  0  2  0  0  0  0  0  0  0  0  0
  -32.5677  -15.7498   20.8079 C   0  0  0  0  0  0  0  0  0  0  0  0
  -20.2940  -22.8674   18.8193 C   0  0  0  0  0  0  0  0  0  0  0  0
  -20.6729  -22.4399   21.2543 C   0  0  0  0  0  0  0  0  0  0  0  0
  -26.7880  -20.4934   17.4579 C   0  0  0  0  0  0  0  0  0  0  0  0
  -28.2322  -20.1164   19.4595 C   0  0  0  0  0  0  0  0  0  0  0  0
  -28.2228  -12.1289   24.2549 C   0  0  0  0  0  0  0  0  0  0  0  0
  -30.2370  -13.6159   24.2336 C   0  0  0  0  0  0  0  0  0  0  0  0
  -30.2897  -11.4303   23.0324 C   0  0  0  0  0  0  0  0  0  0  0  0
  -26.7148  -21.5235   21.8804 C   0  0  0  0  0  0  0  0  0  0  0  0
  -29.9194  -16.1734   18.1092 C   0  0  0  0  0  0  0  0  0  0  0  0
  -21.2947  -20.6704   19.5193 C   0  0  0  0  0  0  0  0  0  0  0  0
  -22.0440  -18.3403   20.1463 C   0  0  0  0  0  0  0  0  0  1  0  0
  -22.1821  -19.8387   20.4747 C   0  0  1  0  0  0  0  0  0  0  0  0
  -28.9244  -13.3343   22.0822 C   0  0  1  0  0  0  0  0  0  0  0  0
  -31.3511  -15.3552   19.9853 C   0  0  2  0  0  0  0  0  0  0  0  0
  -21.2005  -22.1774   19.8431 C   0  0  0  0  0  0  0  0  0  0  0  0
  -26.9762  -20.8951   18.9510 C   0  0  0  0  0  0  0  0  0  0  0  0
  -29.3938  -12.6363   23.3898 C   0  0  0  0  0  0  0  0  0  0  0  0
  -25.6433  -27.6744   20.2437 N   0  0  0  0  0  0  0  0  0  0  0  0
  -25.6438  -21.0067   21.0569 N   0  0  0  0  0  0  0  0  0  0  0  0
  -26.6507  -27.0868   19.5758 N   0  0  0  0  0  0  0  0  0  0  0  0
  -26.7682  -12.8754   20.9579 N   0  0  0  0  0  0  0  0  0  0  0  0
  -26.4394  -23.3047   19.0618 N   0  0  0  0  0  0  0  0  0  0  0  0
  -28.9377  -27.3311   19.0096 N   0  0  0  0  0  0  0  0  0  0  0  0
  -28.0793  -31.0077   21.4879 N   0  0  0  0  0  0  0  0  0  0  0  0
  -24.1483  -10.3391   20.9365 N   0  0  0  0  0  0  0  0  0  0  0  0
  -30.0128  -13.8009   21.2300 N   0  0  0  0  0  0  0  0  0  0  0  0
  -31.0773  -16.4401   19.0009 N   0  3  0  0  0  0  0  0  0  0  0  0
  -29.6967  -29.9006   20.2974 O   0  0  0  0  0  0  0  0  0  0  0  0
  -25.2270  -11.6131   22.5601 O   0  0  0  0  0  0  0  0  0  0  0  0
  -28.5475  -11.3775   20.7956 O   0  0  0  0  0  0  0  0  0  0  0  0
  -28.6400  -22.5798   18.8814 O   0  0  0  0  0  0  0  0  0  0  0  0
  -29.3794  -16.0314   21.2069 O   0  0  0  0  0  0  0  0  0  0  0  0
  -23.1982  -32.3434   23.8172 O   0  0  0  0  0  0  0  0  0  0  0  0
  -22.7429  -17.5475   21.1051 O   0  0  0  0  0  0  0  0  0  1  0  0
  -23.6908  -37.7262   22.7279 F   0  0  0  0  0  0  0  0  0  0  0  0
  -25.6437  -33.6152   24.0283 F   0  0  0  0  0  0  0  0  0  0  0  0
  1  2  1  0  0  0  0
  1  5  2  0  0  0  0
  2  6  2  0  0  0  0
  3  8  2  0  0  0  0
  3 17  1  0  0  0  0
  4  9  1  0  0  0  0
  4 17  2  0  0  0  0
  5 19  1  0  0  0  0
  6 21  1  0  0  0  0
  7 10  2  0  0  0  0
  7 20  1  0  0  0  0
  8 24  1  0  0  0  0
  9 24  2  0  0  0  0
 10 25  1  0  0  0  0
 11 12  2  0  0  0  0
 11 26  1  0  0  0  0
 12 27  1  0  0  0  0
 13 22  1  0  0  0  0
 13 25  2  0  0  0  0
 14 23  1  0  0  0  0
 14 30  2  0  0  0  0
 15 27  2  0  0  0  0
 15 28  1  0  0  0  0
 16 23  2  0  0  0  0
 16 68  1  0  0  0  0
 17 29  1  0  0  0  0
 18 29  1  0  0  0  0
 18 31  2  0  0  0  0
 18 32  1  0  0  0  0
 19 21  2  0  0  0  0
 19 37  1  0  0  0  0
 20 22  2  0  0  0  0
 20 38  1  0  0  0  0
 21 46  1  0  0  0  0
 22 39  1  0  0  0  0
 23 61  1  0  0  0  0
 24 82  1  0  0  0  0
 25 83  1  0  0  0  0
 26 28  2  0  0  0  0
 26 82  1  0  0  0  0
 27 84  1  0  0  0  0
 28 85  1  0  0  0  0
 29 67  2  0  0  0  0
 30 65  1  0  0  0  0
 30 68  1  0  0  0  0
 31 69  1  0  0  0  0
 31 72  1  0  0  0  0
 32 73  1  0  0  0  0
 32 77  2  0  0  0  0
 33 47  1  0  0  0  0
 33 74  1  0  0  0  0
 33 78  2  0  0  0  0
 34 62  1  0  0  0  0
 34 70  1  0  0  0  0
 34 79  2  0  0  0  0
 35 65  1  0  0  0  0
 35 71  1  0  0  0  0
 35 80  2  0  0  0  0
 36 63  1  0  0  0  0
 36 75  1  0  0  0  0
 36 81  2  0  0  0  0
 37 40  1  0  0  0  0
 38 47  1  0  0  0  0
 39 70  1  0  0  0  0
 40 42  1  0  0  0  0
 41 43  1  0  0  0  0
 41 44  1  0  0  0  0
 42 46  1  0  0  0  0
 43 48  1  0  0  0  0
 44 71  1  0  0  0  0
 45 48  1  0  0  0  0
 45 71  1  0  0  0  0
 46 74  1  0  0  0  0
 47 70  1  0  0  0  0
 48 69  1  0  0  0  0
 49 63  1  0  0  0  0
 50 64  1  0  0  0  0
 51 64  1  0  0  0  0
 52 65  1  0  0  0  0
 53 65  1  0  0  0  0
 54 66  1  0  0  0  0
 55 66  1  0  0  0  0
 56 66  1  0  0  0  0
 57 68  1  0  0  0  0
 58 76  1  0  0  0  0
 59 61  1  0  0  0  0
 59 64  1  0  0  0  0
 60 61  1  0  0  0  0
 60 83  1  0  0  0  0
 62 66  1  0  0  0  0
 62 75  1  0  0  0  0
 63 76  1  0  0  0  0
 67 69  1  0  0  0  0
M  CHG  1  76   1
M  ISO  4  35 100  60 101  65 100  83 101
M  END
> <Batch ID>
0073

> <Smiles>
CNC(C)C(=O)NC(C(=O)N1Cc2cc([101O:1][101CH2:1]C(CC(C)C)c3cc([100C:0](C)(C)[100C:0](=O)N4CCCC(n5nc(-c6ccc(Oc7ccc(F)cc7F)cc6)c(C(N)=O)c5N)C4)n(C)c3)ccc2CC1C(=O)NC1CCCc2ccccc21)C(C)(C)C

> <Shape>
0.243

> <Color>
0.065

> <Negative vol penalty>
0.000

$$$$

  -OEChem-04052318273D

 85 93  0     1  0  0  0  0  0999 V2000
  -19.6730  -31.4775   23.0086 C   0  0  0  0  0  0  0  0  0  0  0  0
  -20.9965  -31.0563   23.0879 C   0  0  0  0  0  0  0  0  0  0  0  0
  -27.6666  -18.3522   18.9888 C   0  0  0  0  0  0  0  0  0  0  0  0
  -29.8730  -17.7064   19.7317 C   0  0  0  0  0  0  0  0  0  0  0  0
  -18.6572  -30.5455   22.8001 C   0  0  0  0  0  0  0  0  0  0  0  0
  -21.3049  -29.7024   22.9599 C   0  0  0  0  0  0  0  0  0  0  0  0
  -25.2759  -28.8933   19.9232 C   0  0  0  0  0  0  0  0  0  0  0  0
  -27.4602  -17.0679   18.4852 C   0  0  0  0  0  0  0  0  0  0  0  0
  -29.6666  -16.4221   19.2281 C   0  0  0  0  0  0  0  0  0  0  0  0
  -26.5430  -29.1241   20.4569 C   0  0  0  0  0  0  0  0  0  0  0  0
  -28.0403  -13.6122   20.1662 C   0  0  0  0  0  0  0  0  0  0  0  0
  -28.4101  -12.5349   20.9712 C   0  0  0  0  0  0  0  0  0  0  0  0
  -26.8124  -26.7554   20.8259 C   0  0  0  0  0  0  0  0  0  0  0  0
  -29.9531  -11.7912   19.2673 C   0  0  0  0  0  0  0  0  0  0  0  0
  -34.1650  -26.7159   21.4005 C   0  0  0  0  0  0  0  0  0  0  0  0
  -28.8730  -18.6715   19.6120 C   0  0  0  0  0  0  0  0  0  0  0  0
  -28.7871  -20.4624   21.4267 C   0  0  0  0  0  0  0  0  0  0  0  0
  -18.9543  -29.1807   22.6598 C   0  0  0  0  0  0  0  0  0  0  0  0
  -24.7622  -27.5907   19.8468 C   0  0  0  0  0  0  0  0  0  0  0  0
  -20.2921  -28.7511   22.7507 C   0  0  0  0  0  0  0  0  0  0  0  0
  -25.5395  -26.5105   20.2885 C   0  0  0  0  0  0  0  0  0  0  0  0
  -28.4602  -16.1029   18.6049 C   0  0  0  0  0  0  0  0  0  0  0  0
  -27.3103  -28.0554   20.9110 C   0  0  0  0  0  0  0  0  0  0  0  0
  -28.6268  -13.7790   18.9116 C   0  0  0  0  0  0  0  0  0  0  0  0
  -29.3666  -11.6244   20.5219 C   0  0  0  0  0  0  0  0  0  0  0  0
  -29.5832  -12.8685   18.4622 C   0  0  0  0  0  0  0  0  0  0  0  0
  -29.0869  -19.9981   20.1319 C   0  0  0  0  0  0  0  0  0  0  0  0
  -35.0397  -26.2881   20.4420 C   0  0  0  0  0  0  0  0  0  0  0  0
  -29.1765  -21.7795   21.4179 C   0  0  0  0  0  0  0  0  0  0  0  0
  -34.3740  -28.3280   19.8979 C   0  0  0  0  0  0  0  0  0  0  0  0
  -28.2084  -19.7653   22.5380 C   0  0  0  0  0  0  0  0  0  0  0  0
  -22.2532  -26.0919   21.0968 C   0  0  0  0  0  0  0  0  0  0  0  0
  -23.2330  -23.6708   19.1730 C   0  0  0  0  0  0  0  0  0  0  0  0
  -25.7801  -22.1846   17.4554 C   0  0  0  0  0  0  0  0  0  0  0  0
  -33.1851  -24.8248   18.1764 C   0  0  0  0  0  0  0  0  0  0  0  0
  -17.8180  -28.2048   22.4830 C   0  0  0  0  0  0  0  0  0  0  0  0
  -23.4044  -27.3558   19.2438 C   0  0  0  0  0  0  0  0  0  0  0  0
  -25.0422  -25.0910   20.2099 C   0  0  0  0  0  0  0  0  0  0  0  0
  -18.2651  -26.8334   21.9835 C   0  0  0  0  0  0  0  0  0  0  0  0
  -29.7032  -25.5089   18.4675 C   0  0  0  0  0  0  0  0  0  0  0  0
  -19.4766  -26.3468   22.7723 C   0  0  0  0  0  0  0  0  0  0  0  0
  -29.1233  -24.2160   19.0439 C   0  0  0  0  0  0  0  0  0  0  0  0
  -30.8404  -25.2296   17.4873 C   0  0  0  0  0  0  0  0  0  0  0  0
  -31.3418  -23.0862   18.5956 C   0  0  0  0  0  0  0  0  0  0  0  0
  -20.6690  -27.2940   22.5920 C   0  0  1  0  0  0  0  0  0  0  0  0
  -22.7729  -26.0400   19.6879 C   0  0  1  0  0  0  0  0  0  0  0  0
  -30.2290  -23.3189   19.6320 C   0  0  2  0  0  0  0  0  0  0  0  0
  -34.2254  -29.6092   19.1636 C   0  0  0  0  0  0  0  0  0  0  0  0
  -26.2839  -20.1975   16.0080 C   0  0  0  0  0  0  0  0  0  0  0  0
  -35.5530  -23.9516   21.4289 C   0  0  0  0  0  0  0  0  0  0  0  0
  -37.3326  -25.2759   20.3176 C   0  0  0  0  0  0  0  0  0  0  0  0
  -23.2293  -21.8758   21.6403 C   0  0  0  0  0  0  0  0  0  0  0  0
  -24.6135  -20.2295   20.3589 C   0  0  0  0  0  0  0  0  0  0  0  0
  -22.3180  -20.8068   19.5712 C   0  0  0  0  0  0  0  0  0  0  0  0
  -26.5540  -23.8991   15.1705 C   0  0  0  0  0  0  0  0  0  0  0  0
  -31.3862  -28.8628   21.2272 C   0  0  0  0  0  0  0  0  0  0  0  0
  -30.3984  -29.6623   22.0784 C   0  0  0  0  0  0  0  0  0  0  0  0
  -32.8027  -28.8418   21.8127 C   0  0  0  0  0  0  0  0  0  0  0  0
  -35.4839  -24.2806   18.9370 C   0  0  0  0  0  0  0  0  0  0  0  0
  -28.9963  -29.6315   21.4851 C   0  0  0  0  0  0  0  0  0  1  0  0
  -24.1769  -22.5022   19.3218 C   0  0  1  0  0  0  0  0  0  0  0  0
  -25.8643  -21.6590   16.0337 C   0  0  2  0  0  0  0  0  0  0  0  0
  -35.7787  -25.0312   20.2974 C   0  0  0  0  0  0  0  0  0  0  0  0
  -23.5933  -21.3804   20.2265 C   0  0  0  0  0  0  0  0  0  0  0  0
  -29.6251  -20.9435   19.3570 N   0  0  0  0  0  0  0  0  0  0  0  0
  -33.7694  -27.9811   21.0388 N   0  0  0  0  0  0  0  0  0  0  0  0
  -29.6664  -22.0150   20.1671 N   0  0  0  0  0  0  0  0  0  0  0  0
  -35.1500  -27.3053   19.5248 N   0  3  0  0  0  0  0  0  0  0  0  0
  -23.7058  -24.9134   19.6182 N   0  0  0  0  0  0  0  0  0  0  0  0
  -31.8562  -24.3753   18.1072 N   0  0  0  0  0  0  0  0  0  0  0  0
  -29.1440  -22.7476   22.3582 N   0  0  0  0  0  0  0  0  0  0  0  0
  -27.8672  -18.4156   22.3757 N   0  0  0  0  0  0  0  0  0  0  0  0
  -21.3020  -27.0713   21.3098 N   0  0  0  0  0  0  0  0  0  0  0  0
  -24.5055  -22.0679   17.9683 N   0  0  0  0  0  0  0  0  0  0  0  0
  -34.0829  -23.9565   18.7852 N   0  0  0  0  0  0  0  0  0  0  0  0
  -26.8561  -22.4466   15.2482 N   0  3  0  0  0  0  0  0  0  0  0  0
  -27.9850  -20.3272   23.6370 O   0  0  0  0  0  0  0  0  0  0  0  0
  -22.6824  -25.3009   21.9286 O   0  0  0  0  0  0  0  0  0  0  0  0
  -22.1198  -23.4893   18.6734 O   0  0  0  0  0  0  0  0  0  0  0  0
  -26.7489  -22.6486   18.0525 O   0  0  0  0  0  0  0  0  0  0  0  0
  -33.5438  -25.9213   17.7335 O   0  0  0  0  0  0  0  0  0  0  0  0
  -28.2591  -14.8495   18.1138 O   0  0  0  0  0  0  0  0  0  0  0  0
  -28.5472  -28.2780   21.4330 O   0  0  0  0  0  0  0  0  0  1  0  0
  -29.7228  -10.5907   21.2957 F   0  0  0  0  0  0  0  0  0  0  0  0
  -30.1510  -13.0242   17.2584 F   0  0  0  0  0  0  0  0  0  0  0  0
  1  2  1  0  0  0  0
  1  5  2  0  0  0  0
  2  6  2  0  0  0  0
  3  8  2  0  0  0  0
  3 16  1  0  0  0  0
  4  9  1  0  0  0  0
  4 16  2  0  0  0  0
  5 18  1  0  0  0  0
  6 20  1  0  0  0  0
  7 10  2  0  0  0  0
  7 19  1  0  0  0  0
  8 22  1  0  0  0  0
  9 22  2  0  0  0  0
 10 23  1  0  0  0  0
 11 12  2  0  0  0  0
 11 24  1  0  0  0  0
 12 25  1  0  0  0  0
 13 21  1  0  0  0  0
 13 23  2  0  0  0  0
 14 25  2  0  0  0  0
 14 26  1  0  0  0  0
 15 28  2  0  0  0  0
 15 66  1  0  0  0  0
 16 27  1  0  0  0  0
 17 27  1  0  0  0  0
 17 29  2  0  0  0  0
 17 31  1  0  0  0  0
 18 20  2  0  0  0  0
 18 36  1  0  0  0  0
 19 21  2  0  0  0  0
 19 37  1  0  0  0  0
 20 45  1  0  0  0  0
 21 38  1  0  0  0  0
 22 82  1  0  0  0  0
 23 83  1  0  0  0  0
 24 26  2  0  0  0  0
 24 82  1  0  0  0  0
 25 84  1  0  0  0  0
 26 85  1  0  0  0  0
 27 65  2  0  0  0  0
 28 63  1  0  0  0  0
 28 68  1  0  0  0  0
 29 67  1  0  0  0  0
 29 71  1  0  0  0  0
 30 48  1  0  0  0  0
 30 66  1  0  0  0  0
 30 68  2  0  0  0  0
 31 72  1  0  0  0  0
 31 77  2  0  0  0  0
 32 46  1  0  0  0  0
 32 73  1  0  0  0  0
 32 78  2  0  0  0  0
 33 61  1  0  0  0  0
 33 69  1  0  0  0  0
 33 79  2  0  0  0  0
 34 62  1  0  0  0  0
 34 74  1  0  0  0  0
 34 80  2  0  0  0  0
 35 70  1  0  0  0  0
 35 75  1  0  0  0  0
 35 81  2  0  0  0  0
 36 39  1  0  0  0  0
 37 46  1  0  0  0  0
 38 69  1  0  0  0  0
 39 41  1  0  0  0  0
 40 42  1  0  0  0  0
 40 43  1  0  0  0  0
 41 45  1  0  0  0  0
 42 47  1  0  0  0  0
 43 70  1  0  0  0  0
 44 47  1  0  0  0  0
 44 70  1  0  0  0  0
 45 73  1  0  0  0  0
 46 69  1  0  0  0  0
 47 67  1  0  0  0  0
 49 62  1  0  0  0  0
 50 63  1  0  0  0  0
 51 63  1  0  0  0  0
 52 64  1  0  0  0  0
 53 64  1  0  0  0  0
 54 64  1  0  0  0  0
 55 76  1  0  0  0  0
 56 57  1  0  0  0  0
 56 58  1  0  0  0  0
 57 60  1  0  0  0  0
 58 66  1  0  0  0  0
 59 63  1  0  0  0  0
 59 75  1  0  0  0  0
 60 83  1  0  0  0  0
 61 64  1  0  0  0  0
 61 74  1  0  0  0  0
 62 76  1  0  0  0  0
 65 67  1  0  0  0  0
M  CHG  2  68   1  76   1
M  ISO  4  35 100  60 101  75 100  83 101
M  END
> <Batch ID>
0073

> <Smiles>
CNC(C)C(=O)NC(C(=O)N1Cc2cc([101O:1][101CH2:1]CCCn3cc(C(C)(C)C[100NH:0][100C:0](=O)N4CCCC(n5nc(-c6ccc(Oc7ccc(F)cc7F)cc6)c(C(N)=O)c5N)C4)nc3C)ccc2CC1C(=O)NC1CCCc2ccccc21)C(C)(C)C

> <Shape>
0.229

> <Color>
0.061

> <Negative vol penalty>
0.000

$$$$

  -OEChem-04052318273D

 83 91  0     1  0  0  0  0  0999 V2000
  -33.4426  -27.5575   22.1962 C   0  0  0  0  0  0  0  0  0  0  0  0
  -32.6248  -26.4639   22.4616 C   0  0  0  0  0  0  0  0  0  0  0  0
  -23.1817   -9.8214   19.9352 C   0  0  0  0  0  0  0  0  0  0  0  0
  -23.5587  -10.0056   22.3145 C   0  0  0  0  0  0  0  0  0  0  0  0
  -32.8761  -28.7775   21.8295 C   0  0  0  0  0  0  0  0  0  0  0  0
  -31.2397  -26.5899   22.3615 C   0  0  0  0  0  0  0  0  0  0  0  0
  -29.1055  -22.6975   19.9245 C   0  0  0  0  0  0  0  0  0  0  0  0
  -22.4107   -8.6783   20.1458 C   0  0  0  0  0  0  0  0  0  0  0  0
  -22.7876   -8.8624   22.5251 C   0  0  0  0  0  0  0  0  0  0  0  0
  -28.9388  -21.5126   20.6400 C   0  0  0  0  0  0  0  0  0  0  0  0
  -23.1756   -5.5136   22.2688 C   0  0  0  0  0  0  0  0  0  0  0  0
  -23.6694   -4.5523   23.1506 C   0  0  0  0  0  0  0  0  0  0  0  0
  -26.6216  -22.0706   21.0122 C   0  0  0  0  0  0  0  0  0  0  0  0
  -21.7127   -4.8232   24.5417 C   0  0  0  0  0  0  0  0  0  0  0  0
  -28.5841  -12.0055   24.5918 C   0  0  0  0  0  0  0  0  0  0  0  0
  -27.2465  -13.3086   25.6131 C   0  0  0  0  0  0  0  0  0  0  0  0
  -23.7557  -10.4850   21.0195 C   0  0  0  0  0  0  0  0  0  0  0  0
  -24.1047  -12.9998   20.7705 C   0  0  0  0  0  0  0  0  0  0  0  0
  -31.4838  -28.9160   21.7155 C   0  0  0  0  0  0  0  0  0  0  0  0
  -28.0325  -23.5846   19.7565 C   0  0  0  0  0  0  0  0  0  0  0  0
  -30.6538  -27.8133   21.9943 C   0  0  0  0  0  0  0  0  0  0  0  0
  -26.7767  -23.2649   20.2920 C   0  0  0  0  0  0  0  0  0  0  0  0
  -22.2136   -8.1988   21.4408 C   0  0  0  0  0  0  0  0  0  0  0  0
  -27.6974  -21.2003   21.1865 C   0  0  0  0  0  0  0  0  0  0  0  0
  -21.9504   -6.1298   22.5235 C   0  0  0  0  0  0  0  0  0  0  0  0
  -22.9380   -4.2070   24.2870 C   0  0  0  0  0  0  0  0  0  0  0  0
  -21.2189   -5.7846   23.6599 C   0  0  0  0  0  0  0  0  0  0  0  0
  -24.5528  -11.6656   20.8025 C   0  0  0  0  0  0  0  0  0  0  0  0
  -28.8825  -13.2683   24.1371 C   0  0  0  0  0  0  0  0  0  0  0  0
  -25.2390  -13.7374   20.5345 C   0  0  0  0  0  0  0  0  0  0  0  0
  -22.7814  -13.5253   20.9390 C   0  0  0  0  0  0  0  0  0  0  0  0
  -27.4541  -26.5920   20.6076 C   0  0  0  0  0  0  0  0  0  0  0  0
  -24.7833  -26.1754   18.8144 C   0  0  0  0  0  0  0  0  0  0  0  0
  -22.5060  -24.0209   17.4659 C   0  0  0  0  0  0  0  0  0  0  0  0
  -31.0743  -12.1856   21.5735 C   0  0  0  0  0  0  0  0  0  0  0  0
  -30.9152  -30.2675   21.3620 C   0  0  0  0  0  0  0  0  0  0  0  0
  -28.2220  -24.8459   18.9592 C   0  0  0  0  0  0  0  0  0  0  0  0
  -25.5877  -24.1738   20.1227 C   0  0  0  0  0  0  0  0  0  0  0  0
  -29.4567  -30.2165   20.9144 C   0  0  0  0  0  0  0  0  0  0  0  0
  -29.5344  -13.4621   18.4588 C   0  0  0  0  0  0  0  0  0  0  0  0
  -28.6367  -29.3495   21.8645 C   0  0  0  0  0  0  0  0  0  0  0  0
  -28.0486  -13.1885   18.6854 C   0  0  0  0  0  0  0  0  0  0  0  0
  -30.4152  -12.4699   19.2120 C   0  0  0  0  0  0  0  0  0  0  0  0
  -28.6392  -12.1189   20.8962 C   0  0  0  0  0  0  0  0  0  0  0  0
  -29.1482  -27.9039   21.8725 C   0  0  1  0  0  0  0  0  0  0  0  0
  -27.1916  -25.9215   19.2888 C   0  0  1  0  0  0  0  0  0  0  0  0
  -27.7245  -13.1298   20.1884 C   0  0  2  0  0  0  0  0  0  0  0  0
  -20.4140  -23.9790   16.0805 C   0  0  0  0  0  0  0  0  0  0  0  0
  -23.1677  -27.1041   21.2304 C   0  0  0  0  0  0  0  0  0  0  0  0
  -21.1239  -26.1521   20.1420 C   0  0  0  0  0  0  0  0  0  0  0  0
  -22.3750  -28.0055   19.0365 C   0  0  0  0  0  0  0  0  0  0  0  0
  -31.9276  -12.5604   23.8562 C   0  0  0  0  0  0  0  0  0  0  0  0
  -23.8062  -22.4225   15.3414 C   0  0  0  0  0  0  0  0  0  0  0  0
  -29.8791  -13.7484   23.1646 C   0  0  0  0  0  0  0  0  0  0  0  0
  -27.0527  -17.5219   23.2914 C   0  0  0  0  0  0  0  0  0  0  0  0
  -27.1870  -16.0010   23.3907 C   0  0  0  0  0  0  0  0  0  0  0  0
  -26.3585  -17.9341   21.9900 C   0  0  0  0  0  0  0  0  0  0  0  0
  -27.9169  -15.5908   24.6717 C   0  0  0  0  0  0  0  0  0  0  0  0
  -26.2366  -19.4471   21.8558 C   0  0  0  0  0  0  0  0  0  1  0  0
  -23.3806  -25.6863   19.0832 C   0  0  1  0  0  0  0  0  0  0  0  0
  -21.9330  -23.9081   16.0647 C   0  0  2  0  0  0  0  0  0  0  0  0
  -22.5345  -26.7206   19.8781 C   0  0  0  0  0  0  0  0  0  0  0  0
  -27.5646  -12.0374   25.5101 N   0  0  0  0  0  0  0  0  0  0  0  0
  -25.8691  -11.5589   20.6027 N   0  0  0  0  0  0  0  0  0  0  0  0
  -28.0172  -14.0924   24.7999 N   0  0  0  0  0  0  0  0  0  0  0  0
  -26.2578  -12.8353   20.4428 N   0  0  0  0  0  0  0  0  0  0  0  0
  -25.8250  -25.3982   19.3404 N   0  0  0  0  0  0  0  0  0  0  0  0
  -30.0573  -12.4023   20.6292 N   0  0  0  0  0  0  0  0  0  0  0  0
  -25.4543  -15.0631   20.3985 N   0  0  0  0  0  0  0  0  0  0  0  0
  -21.7309  -12.6278   21.1741 N   0  0  0  0  0  0  0  0  0  0  0  0
  -28.6921  -27.1999   20.6932 N   0  0  0  0  0  0  0  0  0  0  0  0
  -22.8187  -25.3251   17.7862 N   0  0  0  0  0  0  0  0  0  0  0  0
  -30.8954  -12.7477   22.8465 N   0  0  0  0  0  0  0  0  0  0  0  0
  -22.3366  -22.6154   15.4426 N   0  3  0  0  0  0  0  0  0  0  0  0
  -22.5351  -14.7532   20.8664 O   0  0  0  0  0  0  0  0  0  0  0  0
  -26.5963  -26.5614   21.4823 O   0  0  0  0  0  0  0  0  0  0  0  0
  -24.9488  -27.2052   18.1557 O   0  0  0  0  0  0  0  0  0  0  0  0
  -22.6572  -23.0499   18.2039 O   0  0  0  0  0  0  0  0  0  0  0  0
  -32.0890  -11.5354   21.2915 O   0  0  0  0  0  0  0  0  0  0  0  0
  -21.4611   -7.0835   21.6467 O   0  0  0  0  0  0  0  0  0  0  0  0
  -27.5320  -20.0448   21.8859 O   0  0  0  0  0  0  0  0  0  1  0  0
  -23.4115   -3.2827   25.1329 F   0  0  0  0  0  0  0  0  0  0  0  0
  -20.0407   -6.3722   23.9092 F   0  0  0  0  0  0  0  0  0  0  0  0
  1  2  1  0  0  0  0
  1  5  2  0  0  0  0
  2  6  2  0  0  0  0
  3  8  2  0  0  0  0
  3 17  1  0  0  0  0
  4  9  1  0  0  0  0
  4 17  2  0  0  0  0
  5 19  1  0  0  0  0
  6 21  1  0  0  0  0
  7 10  2  0  0  0  0
  7 20  1  0  0  0  0
  8 23  1  0  0  0  0
  9 23  2  0  0  0  0
 10 24  1  0  0  0  0
 11 12  2  0  0  0  0
 11 25  1  0  0  0  0
 12 26  1  0  0  0  0
 13 22  1  0  0  0  0
 13 24  2  0  0  0  0
 14 26  2  0  0  0  0
 14 27  1  0  0  0  0
 15 29  2  0  0  0  0
 15 63  1  0  0  0  0
 16 63  2  0  0  0  0
 16 65  1  0  0  0  0
 17 28  1  0  0  0  0
 18 28  1  0  0  0  0
 18 30  2  0  0  0  0
 18 31  1  0  0  0  0
 19 21  2  0  0  0  0
 19 36  1  0  0  0  0
 20 22  2  0  0  0  0
 20 37  1  0  0  0  0
 21 45  1  0  0  0  0
 22 38  1  0  0  0  0
 23 80  1  0  0  0  0
 24 81  1  0  0  0  0
 25 27  2  0  0  0  0
 25 80  1  0  0  0  0
 26 82  1  0  0  0  0
 27 83  1  0  0  0  0
 28 64  2  0  0  0  0
 29 54  1  0  0  0  0
 29 65  1  0  0  0  0
 30 66  1  0  0  0  0
 30 69  1  0  0  0  0
 31 70  1  0  0  0  0
 31 75  2  0  0  0  0
 32 46  1  0  0  0  0
 32 71  1  0  0  0  0
 32 76  2  0  0  0  0
 33 60  1  0  0  0  0
 33 67  1  0  0  0  0
 33 77  2  0  0  0  0
 34 61  1  0  0  0  0
 34 72  1  0  0  0  0
 34 78  2  0  0  0  0
 35 68  1  0  0  0  0
 35 73  1  0  0  0  0
 35 79  2  0  0  0  0
 36 39  1  0  0  0  0
 37 46  1  0  0  0  0
 38 67  1  0  0  0  0
 39 41  1  0  0  0  0
 40 42  1  0  0  0  0
 40 43  1  0  0  0  0
 41 45  1  0  0  0  0
 42 47  1  0  0  0  0
 43 68  1  0  0  0  0
 44 47  1  0  0  0  0
 44 68  1  0  0  0  0
 45 71  1  0  0  0  0
 46 67  1  0  0  0  0
 47 66  1  0  0  0  0
 48 61  1  0  0  0  0
 49 62  1  0  0  0  0
 50 62  1  0  0  0  0
 51 62  1  0  0  0  0
 52 73  1  0  0  0  0
 53 74  1  0  0  0  0
 54 73  1  0  0  0  0
 55 56  1  0  0  0  0
 55 57  1  0  0  0  0
 56 58  1  0  0  0  0
 57 59  1  0  0  0  0
 58 65  1  0  0  0  0
 59 81  1  0  0  0  0
 60 62  1  0  0  0  0
 60 72  1  0  0  0  0
 61 74  1  0  0  0  0
 64 66  1  0  0  0  0
M  CHG  1  74   1
M  ISO  4  35 100  59 101  73 100  81 101
M  END
> <Batch ID>
0073

> <Smiles>
CNC(C)C(=O)NC(C(=O)N1Cc2cc([101O:1][101CH2:1]CCCCn3cncc3C[100N:0](C)[100C:0](=O)N3CCCC(n4nc(-c5ccc(Oc6ccc(F)cc6F)cc5)c(C(N)=O)c4N)C3)ccc2CC1C(=O)NC1CCCc2ccccc21)C(C)(C)C

> <Shape>
0.224

> <Color>
0.186

> <Negative vol penalty>
0.000

$$$$

  -OEChem-04052318273D

 81 89  0     1  0  0  0  0  0999 V2000
  -26.8808  -30.7955   30.4633 C   0  0  0  0  0  0  0  0  0  0  0  0
  -27.5119  -29.6774   29.9277 C   0  0  0  0  0  0  0  0  0  0  0  0
  -23.1006   -9.8583   21.4220 C   0  0  0  0  0  0  0  0  0  0  0  0
  -23.8882  -10.7047   23.5434 C   0  0  0  0  0  0  0  0  0  0  0  0
  -25.8805  -31.4435   29.7397 C   0  0  0  0  0  0  0  0  0  0  0  0
  -27.1423  -29.2059   28.6685 C   0  0  0  0  0  0  0  0  0  0  0  0
  -30.7996  -26.6429   24.4779 C   0  0  0  0  0  0  0  0  0  0  0  0
  -22.3889   -8.8586   22.0851 C   0  0  0  0  0  0  0  0  0  0  0  0
  -23.1764   -9.7051   24.2065 C   0  0  0  0  0  0  0  0  0  0  0  0
  -31.0524  -25.3140   24.1405 C   0  0  0  0  0  0  0  0  0  0  0  0
  -20.6533   -5.8642   23.2009 C   0  0  0  0  0  0  0  0  0  0  0  0
  -20.7308   -4.5666   22.6952 C   0  0  0  0  0  0  0  0  0  0  0  0
  -29.4253  -25.4614   22.3657 C   0  0  0  0  0  0  0  0  0  0  0  0
  -23.1232   -4.5781   23.0320 C   0  0  0  0  0  0  0  0  0  0  0  0
  -30.7906  -18.1704   19.7590 C   0  0  0  0  0  0  0  0  0  0  0  0
  -23.8504  -10.7813   22.1511 C   0  0  0  0  0  0  0  0  0  0  0  0
  -24.1276  -13.0999   21.1241 C   0  0  0  0  0  0  0  0  0  0  0  0
  -25.5052  -30.9855   28.4669 C   0  0  0  0  0  0  0  0  0  0  0  0
  -29.8482  -27.3890   23.7675 C   0  0  0  0  0  0  0  0  0  0  0  0
  -26.1352  -29.8476   27.9278 C   0  0  0  0  0  0  0  0  0  0  0  0
  -29.1641  -26.8003   22.6944 C   0  0  0  0  0  0  0  0  0  0  0  0
  -31.8352  -19.0311   19.9927 C   0  0  0  0  0  0  0  0  0  0  0  0
  -22.4268   -8.7820   23.4773 C   0  0  0  0  0  0  0  0  0  0  0  0
  -30.3631  -24.7221   23.0861 C   0  0  0  0  0  0  0  0  0  0  0  0
  -21.8108   -6.5189   23.6221 C   0  0  0  0  0  0  0  0  0  0  0  0
  -21.9657   -3.9235   22.6107 C   0  0  0  0  0  0  0  0  0  0  0  0
  -23.0457   -5.8758   23.5377 C   0  0  0  0  0  0  0  0  0  0  0  0
  -24.5863  -11.8138   21.4667 C   0  0  0  0  0  0  0  0  0  0  0  0
  -32.5216  -18.4636   21.0829 C   0  0  0  0  0  0  0  0  0  0  0  0
  -25.1962  -13.6888   20.4933 C   0  0  0  0  0  0  0  0  0  0  0  0
  -22.8499  -13.7079   21.3553 C   0  0  0  0  0  0  0  0  0  0  0  0
  -27.1152  -28.8304   24.5134 C   0  0  0  0  0  0  0  0  0  0  0  0
  -30.6784  -14.7839   20.3044 C   0  0  0  0  0  0  0  0  0  0  0  0
  -27.2963  -29.8999   21.4563 C   0  0  0  0  0  0  0  0  0  0  0  0
  -28.5062  -29.4513   18.2970 C   0  0  0  0  0  0  0  0  0  0  0  0
  -24.3858  -31.6905   27.7427 C   0  0  0  0  0  0  0  0  0  0  0  0
  -29.6064  -28.8295   24.1267 C   0  0  0  0  0  0  0  0  0  0  0  0
  -28.1476  -27.5642   21.8871 C   0  0  0  0  0  0  0  0  0  0  0  0
  -24.3134  -31.3513   26.2561 C   0  0  0  0  0  0  0  0  0  0  0  0
  -29.5407  -11.7227   18.8297 C   0  0  0  0  0  0  0  0  0  0  0  0
  -24.4311  -29.8451   26.0458 C   0  0  0  0  0  0  0  0  0  0  0  0
  -28.1240  -11.5639   19.3801 C   0  0  0  0  0  0  0  0  0  0  0  0
  -30.4705  -12.3609   19.8569 C   0  0  0  0  0  0  0  0  0  0  0  0
  -28.5668  -13.5142   20.9373 C   0  0  0  0  0  0  0  0  0  0  0  0
  -25.7793  -29.3207   26.5545 C   0  0  1  0  0  0  0  0  0  0  0  0
  -28.2452  -29.3402   23.6645 C   0  0  1  0  0  0  0  0  0  0  0  0
  -27.5877  -12.9014   19.9204 C   0  0  2  0  0  0  0  0  0  0  0  0
  -33.7298  -18.9742   21.7541 C   0  0  0  0  0  0  0  0  0  0  0  0
  -28.4519  -30.4691   16.0038 C   0  0  0  0  0  0  0  0  0  0  0  0
  -24.4831  -28.7959   21.0357 C   0  0  0  0  0  0  0  0  0  0  0  0
  -24.8575  -28.9747   18.5666 C   0  0  0  0  0  0  0  0  0  0  0  0
  -24.8963  -31.0270   19.9840 C   0  0  0  0  0  0  0  0  0  0  0  0
  -31.4331  -29.8902   18.2959 C   0  0  0  0  0  0  0  0  0  0  0  0
  -32.1620  -20.2974   19.2420 C   0  0  0  0  0  0  0  0  0  0  0  0
  -30.0374  -16.0392   20.8405 C   0  0  0  0  0  0  0  0  0  0  0  0
  -31.2543  -21.4800   19.5981 C   0  0  0  0  0  0  0  0  0  0  0  0
  -31.3783  -21.9108   21.0603 C   0  0  0  0  0  0  0  0  0  0  0  0
  -30.4343  -23.0602   21.3865 C   0  0  0  0  0  0  0  0  0  1  0  0
  -26.8208  -29.3927   20.1163 C   0  0  1  0  0  0  0  0  0  0  0  0
  -29.1868  -30.4072   17.3338 C   0  0  2  0  0  0  0  0  0  0  0  0
  -25.2821  -29.5323   19.9419 C   0  0  0  0  0  0  0  0  0  0  0  0
  -25.8479  -11.5977   21.0851 N   0  0  0  0  0  0  0  0  0  0  0  0
  -31.9603  -17.3302   21.5122 N   0  0  0  0  0  0  0  0  0  0  0  0
  -30.9100  -17.1786   20.6875 N   0  0  0  0  0  0  0  0  0  0  0  0
  -26.1911  -12.7559   20.4961 N   0  0  0  0  0  0  0  0  0  0  0  0
  -27.9418  -28.9678   22.2812 N   0  0  0  0  0  0  0  0  0  0  0  0
  -29.9151  -13.6176   20.3623 N   0  0  0  0  0  0  0  0  0  0  0  0
  -25.3724  -14.9084   19.9421 N   0  0  0  0  0  0  0  0  0  0  0  0
  -21.8652  -12.9622   22.0176 N   0  0  0  0  0  0  0  0  0  0  0  0
  -26.8301  -29.6254   25.6071 N   0  0  0  0  0  0  0  0  0  0  0  0
  -27.6031  -30.1026   19.1101 N   0  0  0  0  0  0  0  0  0  0  0  0
  -30.5887  -29.9723   17.0763 N   0  3  0  0  0  0  0  0  0  0  0  0
  -22.5837  -14.8720   20.9711 O   0  0  0  0  0  0  0  0  0  0  0  0
  -26.5432  -27.7934   24.1986 O   0  0  0  0  0  0  0  0  0  0  0  0
  -31.8223  -14.8408   19.8456 O   0  0  0  0  0  0  0  0  0  0  0  0
  -27.1086  -31.0814   21.7571 O   0  0  0  0  0  0  0  0  0  0  0  0
  -28.7487  -28.2467   18.3226 O   0  0  0  0  0  0  0  0  0  0  0  0
  -21.7322   -7.8068   24.1247 O   0  0  0  0  0  0  0  0  0  0  0  0
  -30.6075  -23.4250   22.7552 O   0  0  0  0  0  0  0  0  0  1  0  0
  -22.0397   -2.6769   22.1265 F   0  0  0  0  0  0  0  0  0  0  0  0
  -24.1610   -6.4991   23.9420 F   0  0  0  0  0  0  0  0  0  0  0  0
  1  2  1  0  0  0  0
  1  5  2  0  0  0  0
  2  6  2  0  0  0  0
  3  8  2  0  0  0  0
  3 16  1  0  0  0  0
  4  9  1  0  0  0  0
  4 16  2  0  0  0  0
  5 18  1  0  0  0  0
  6 20  1  0  0  0  0
  7 10  2  0  0  0  0
  7 19  1  0  0  0  0
  8 23  1  0  0  0  0
  9 23  2  0  0  0  0
 10 24  1  0  0  0  0
 11 12  2  0  0  0  0
 11 25  1  0  0  0  0
 12 26  1  0  0  0  0
 13 21  1  0  0  0  0
 13 24  2  0  0  0  0
 14 26  2  0  0  0  0
 14 27  1  0  0  0  0
 15 22  2  0  0  0  0
 15 64  1  0  0  0  0
 16 28  1  0  0  0  0
 17 28  1  0  0  0  0
 17 30  2  0  0  0  0
 17 31  1  0  0  0  0
 18 20  2  0  0  0  0
 18 36  1  0  0  0  0
 19 21  2  0  0  0  0
 19 37  1  0  0  0  0
 20 45  1  0  0  0  0
 21 38  1  0  0  0  0
 22 29  1  0  0  0  0
 22 54  1  0  0  0  0
 23 78  1  0  0  0  0
 24 79  1  0  0  0  0
 25 27  2  0  0  0  0
 25 78  1  0  0  0  0
 26 80  1  0  0  0  0
 27 81  1  0  0  0  0
 28 62  2  0  0  0  0
 29 48  1  0  0  0  0
 29 63  2  0  0  0  0
 30 65  1  0  0  0  0
 30 68  1  0  0  0  0
 31 69  1  0  0  0  0
 31 73  2  0  0  0  0
 32 46  1  0  0  0  0
 32 70  1  0  0  0  0
 32 74  2  0  0  0  0
 33 55  1  0  0  0  0
 33 67  1  0  0  0  0
 33 75  2  0  0  0  0
 34 59  1  0  0  0  0
 34 66  1  0  0  0  0
 34 76  2  0  0  0  0
 35 60  1  0  0  0  0
 35 71  1  0  0  0  0
 35 77  2  0  0  0  0
 36 39  1  0  0  0  0
 37 46  1  0  0  0  0
 38 66  1  0  0  0  0
 39 41  1  0  0  0  0
 40 42  1  0  0  0  0
 40 43  1  0  0  0  0
 41 45  1  0  0  0  0
 42 47  1  0  0  0  0
 43 67  1  0  0  0  0
 44 47  1  0  0  0  0
 44 67  1  0  0  0  0
 45 70  1  0  0  0  0
 46 66  1  0  0  0  0
 47 65  1  0  0  0  0
 49 60  1  0  0  0  0
 50 61  1  0  0  0  0
 51 61  1  0  0  0  0
 52 61  1  0  0  0  0
 53 72  1  0  0  0  0
 54 56  1  0  0  0  0
 55 64  1  0  0  0  0
 56 57  1  0  0  0  0
 57 58  1  0  0  0  0
 58 79  1  0  0  0  0
 59 61  1  0  0  0  0
 59 71  1  0  0  0  0
 60 72  1  0  0  0  0
 62 65  1  0  0  0  0
 63 64  1  0  0  0  0
M  CHG  1  72   1
M  ISO  4  33 100  55 100  58 101  79 101
M  END
> <Batch ID>
0073

> <Smiles>
CNC(C)C(=O)NC(C(=O)N1Cc2cc([101O:1][101CH2:1]CCCc3cn([100CH2:0][100C:0](=O)N4CCCC(n5nc(-c6ccc(Oc7ccc(F)cc7F)cc6)c(C(N)=O)c5N)C4)nc3C)ccc2CC1C(=O)NC1CCCc2ccccc21)C(C)(C)C

> <Shape>
0.242

> <Color>
0.162

> <Negative vol penalty>
0.000

$$$$

  -OEChem-04052318273D

 86 94  0     1  0  0  0  0  0999 V2000
  -28.0734  -34.5645   24.6138 C   0  0  0  0  0  0  0  0  0  0  0  0
  -28.2577  -33.3289   24.0016 C   0  0  0  0  0  0  0  0  0  0  0  0
  -26.6052  -12.2182   21.4710 C   0  0  0  0  0  0  0  0  0  0  0  0
  -25.1825  -13.9380   20.5459 C   0  0  0  0  0  0  0  0  0  0  0  0
  -26.9019  -34.8209   25.3250 C   0  0  0  0  0  0  0  0  0  0  0  0
  -27.2710  -32.3486   24.1011 C   0  0  0  0  0  0  0  0  0  0  0  0
  -26.3440  -30.0689   19.6752 C   0  0  0  0  0  0  0  0  0  0  0  0
  -25.4864  -11.4190   21.7058 C   0  0  0  0  0  0  0  0  0  0  0  0
  -24.0637  -13.1387   20.7807 C   0  0  0  0  0  0  0  0  0  0  0  0
  -27.2542  -29.0999   19.2552 C   0  0  0  0  0  0  0  0  0  0  0  0
  -23.4479   -9.3998   19.9169 C   0  0  0  0  0  0  0  0  0  0  0  0
  -23.5285   -8.0524   19.5651 C   0  0  0  0  0  0  0  0  0  0  0  0
  -28.3646  -19.4517   19.1095 C   0  0  0  0  0  0  0  0  0  0  0  0
  -27.7363  -19.4109   20.3786 C   0  0  0  0  0  0  0  0  0  0  0  0
  -25.7645  -27.3708   20.0363 C   0  0  0  0  0  0  0  0  0  0  0  0
  -23.1216   -7.4282   21.8634 C   0  0  0  0  0  0  0  0  0  0  0  0
  -26.4533  -13.4778   20.8911 C   0  0  0  0  0  0  0  0  0  0  0  0
  -28.4023  -14.3359   19.4866 C   0  0  0  0  0  0  0  0  0  0  0  0
  -25.8962  -33.8467   25.4251 C   0  0  0  0  0  0  0  0  0  0  0  0
  -25.1401  -29.6958   20.2899 C   0  0  0  0  0  0  0  0  0  0  0  0
  -26.0856  -32.5918   24.8154 C   0  0  0  0  0  0  0  0  0  0  0  0
  -24.8396  -28.3369   20.4609 C   0  0  0  0  0  0  0  0  0  0  0  0
  -24.2157  -11.8792   21.3606 C   0  0  0  0  0  0  0  0  0  0  0  0
  -26.9658  -27.7507   19.4383 C   0  0  0  0  0  0  0  0  0  0  0  0
  -23.2043   -9.7614   21.2419 C   0  0  0  0  0  0  0  0  0  0  0  0
  -23.3653   -7.0666   20.5384 C   0  0  0  0  0  0  0  0  0  0  0  0
  -23.0411   -8.7755   22.2151 C   0  0  0  0  0  0  0  0  0  0  0  0
  -27.6085  -14.3041   20.6488 C   0  0  0  0  0  0  0  0  0  0  0  0
  -29.4940  -20.2302   19.2345 C   0  0  0  0  0  0  0  0  0  0  0  0
  -28.5008  -20.1659   21.2405 C   0  0  0  0  0  0  0  0  0  0  0  0
  -29.3654  -15.2778   19.7543 C   0  0  0  0  0  0  0  0  0  0  0  0
  -28.2800  -13.5815   18.2735 C   0  0  0  0  0  0  0  0  0  0  0  0
  -23.8359  -30.1814   23.1476 C   0  0  0  0  0  0  0  0  0  0  0  0
  -21.2759  -28.7178   21.7961 C   0  0  0  0  0  0  0  0  0  0  0  0
  -29.4576  -19.9667   23.5117 C   0  0  0  0  0  0  0  0  0  0  0  0
  -20.0792  -26.6009   19.4016 C   0  0  0  0  0  0  0  0  0  0  0  0
  -24.6675  -34.1533   26.2443 C   0  0  0  0  0  0  0  0  0  0  0  0
  -24.1569  -30.7524   20.7131 C   0  0  0  0  0  0  0  0  0  0  0  0
  -23.5519  -27.8834   21.0970 C   0  0  0  0  0  0  0  0  0  0  0  0
  -23.5087  -33.1936   25.9868 C   0  0  0  0  0  0  0  0  0  0  0  0
  -31.7857  -17.2464   23.3717 C   0  0  0  0  0  0  0  0  0  0  0  0
  -24.0000  -31.7495   25.9930 C   0  0  0  0  0  0  0  0  0  0  0  0
  -31.0396  -16.1759   22.5764 C   0  0  0  0  0  0  0  0  0  0  0  0
  -30.8354  -18.0516   24.2523 C   0  0  0  0  0  0  0  0  0  0  0  0
  -28.9508  -17.6054   22.7126 C   0  0  0  0  0  0  0  0  0  0  0  0
  -25.0276  -31.5117   24.8799 C   0  0  1  0  0  0  0  0  0  0  0  0
  -23.1921  -30.2726   21.7930 C   0  0  1  0  0  0  0  0  0  0  0  0
  -29.8697  -16.7890   21.7865 C   0  0  2  0  0  0  0  0  0  0  0  0
  -30.5066  -20.5986   18.2236 C   0  0  0  0  0  0  0  0  0  0  0  0
  -17.9473  -25.5704   18.5705 C   0  0  0  0  0  0  0  0  0  0  0  0
  -31.8246  -23.8331   21.0332 C   0  0  0  0  0  0  0  0  0  0  0  0
  -31.9951  -20.7821   21.0501 C   0  0  0  0  0  0  0  0  0  0  0  0
  -27.0216  -19.7594   23.2253 C   0  0  0  0  0  0  0  0  0  0  0  0
  -28.1863  -21.9627   23.0734 C   0  0  0  0  0  0  0  0  0  0  0  0
  -21.2931  -26.7843   24.1565 C   0  0  0  0  0  0  0  0  0  0  0  0
  -19.8159  -25.2600   22.8289 C   0  0  0  0  0  0  0  0  0  0  0  0
  -19.0184  -27.5419   23.4452 C   0  0  0  0  0  0  0  0  0  0  0  0
  -20.3693  -27.8647   16.7413 C   0  0  0  0  0  0  0  0  0  0  0  0
  -29.2753  -24.9700   19.7037 C   0  0  0  0  0  0  0  0  0  0  0  0
  -29.3497  -23.6624   20.4962 C   0  0  0  0  0  0  0  0  0  0  0  0
  -27.8787  -25.5788   19.7628 C   0  0  0  0  0  0  0  0  0  1  0  0
  -20.8032  -27.2894   21.6724 C   0  0  1  0  0  0  0  0  0  0  0  0
  -18.9199  -26.7311   18.4303 C   0  0  2  0  0  0  0  0  0  0  0  0
  -30.7271  -22.9527   20.4164 C   0  0  2  0  0  0  0  0  0  0  0  0
  -30.6645  -21.5487   21.1064 C   0  0  1  0  0  0  0  0  0  0  0  0
  -28.3019  -20.4557   22.6756 C   0  0  0  0  0  0  0  0  0  0  0  0
  -20.2579  -26.7271   23.0155 C   0  0  0  0  0  0  0  0  0  0  0  0
  -28.0308  -15.1578   21.5852 N   0  0  0  0  0  0  0  0  0  0  0  0
  -29.5665  -20.6592   20.5341 N   0  0  0  0  0  0  0  0  0  0  0  0
  -29.1005  -15.7349   21.0118 N   0  0  0  0  0  0  0  0  0  0  0  0
  -22.6257  -28.9545   21.4998 N   0  0  0  0  0  0  0  0  0  0  0  0
  -29.7260  -18.5984   23.4690 N   0  0  0  0  0  0  0  0  0  0  0  0
  -30.4047  -15.7513   19.0345 N   0  0  0  0  0  0  0  0  0  0  0  0
  -27.2331  -12.6560   18.1650 N   0  0  0  0  0  0  0  0  0  0  0  0
  -24.3647  -31.3749   23.6008 N   0  0  0  0  0  0  0  0  0  0  0  0
  -19.8354  -27.2728   20.5808 N   0  0  0  0  0  0  0  0  0  0  0  0
  -19.4205  -26.7578   17.0269 N   0  3  0  0  0  0  0  0  0  0  0  0
  -29.0852  -13.7121   17.3206 O   0  0  0  0  0  0  0  0  0  0  0  0
  -23.8504  -29.1080   23.7386 O   0  0  0  0  0  0  0  0  0  0  0  0
  -20.4752  -29.5924   22.1360 O   0  0  0  0  0  0  0  0  0  0  0  0
  -30.1032  -20.7785   24.1799 O   0  0  0  0  0  0  0  0  0  0  0  0
  -21.0974  -25.9635   19.1419 O   0  0  0  0  0  0  0  0  0  0  0  0
  -23.1238  -11.0994   21.5893 O   0  0  0  0  0  0  0  0  0  0  0  0
  -27.8527  -26.8029   19.0298 O   0  0  0  0  0  0  0  0  0  1  0  0
  -23.4411   -5.7728   20.2002 F   0  0  0  0  0  0  0  0  0  0  0  0
  -22.8056   -9.1168   23.4894 F   0  0  0  0  0  0  0  0  0  0  0  0
  1  2  1  0  0  0  0
  1  5  2  0  0  0  0
  2  6  2  0  0  0  0
  3  8  2  0  0  0  0
  3 17  1  0  0  0  0
  4  9  1  0  0  0  0
  4 17  2  0  0  0  0
  5 19  1  0  0  0  0
  6 21  1  0  0  0  0
  7 10  2  0  0  0  0
  7 20  1  0  0  0  0
  8 23  1  0  0  0  0
  9 23  2  0  0  0  0
 10 24  1  0  0  0  0
 11 12  2  0  0  0  0
 11 25  1  0  0  0  0
 12 26  1  0  0  0  0
 13 14  1  0  0  0  0
 13 29  2  0  0  0  0
 14 30  2  0  0  0  0
 15 22  1  0  0  0  0
 15 24  2  0  0  0  0
 16 26  2  0  0  0  0
 16 27  1  0  0  0  0
 17 28  1  0  0  0  0
 18 28  1  0  0  0  0
 18 31  2  0  0  0  0
 18 32  1  0  0  0  0
 19 21  2  0  0  0  0
 19 37  1  0  0  0  0
 20 22  2  0  0  0  0
 20 38  1  0  0  0  0
 21 46  1  0  0  0  0
 22 39  1  0  0  0  0
 23 83  1  0  0  0  0
 24 84  1  0  0  0  0
 25 27  2  0  0  0  0
 25 83  1  0  0  0  0
 26 85  1  0  0  0  0
 27 86  1  0  0  0  0
 28 68  2  0  0  0  0
 29 49  1  0  0  0  0
 29 69  1  0  0  0  0
 30 66  1  0  0  0  0
 30 69  1  0  0  0  0
 31 70  1  0  0  0  0
 31 73  1  0  0  0  0
 32 74  1  0  0  0  0
 32 78  2  0  0  0  0
 33 47  1  0  0  0  0
 33 75  1  0  0  0  0
 33 79  2  0  0  0  0
 34 62  1  0  0  0  0
 34 71  1  0  0  0  0
 34 80  2  0  0  0  0
 35 66  1  0  0  0  0
 35 72  1  0  0  0  0
 35 81  2  0  0  0  0
 36 63  1  0  0  0  0
 36 76  1  0  0  0  0
 36 82  2  0  0  0  0
 37 40  1  0  0  0  0
 38 47  1  0  0  0  0
 39 71  1  0  0  0  0
 40 42  1  0  0  0  0
 41 43  1  0  0  0  0
 41 44  1  0  0  0  0
 42 46  1  0  0  0  0
 43 48  1  0  0  0  0
 44 72  1  0  0  0  0
 45 48  1  0  0  0  0
 45 72  1  0  0  0  0
 46 75  1  0  0  0  0
 47 71  1  0  0  0  0
 48 70  1  0  0  0  0
 50 63  1  0  0  0  0
 51 64  1  0  0  0  0
 52 65  1  0  0  0  0
 53 66  1  0  0  0  0
 54 66  1  0  0  0  0
 55 67  1  0  0  0  0
 56 67  1  0  0  0  0
 57 67  1  0  0  0  0
 58 77  1  0  0  0  0
 59 60  1  0  0  0  0
 59 61  1  0  0  0  0
 60 64  1  0  0  0  0
 61 84  1  0  0  0  0
 62 67  1  0  0  0  0
 62 76  1  0  0  0  0
 63 77  1  0  0  0  0
 64 65  1  0  0  0  0
 65 69  1  0  0  0  0
 68 70  1  0  0  0  0
M  CHG  1  77   1
M  ISO  4  35 100  61 101  66 100  84 101
M  END
> <Batch ID>
0073

> <Smiles>
CNC(C)C(=O)NC(C(=O)N1Cc2cc([101O:1][101CH2:1]CCC(C)C(C)n3c(C)ccc3[100C:0](C)(C)[100C:0](=O)N3CCCC(n4nc(-c5ccc(Oc6ccc(F)cc6F)cc5)c(C(N)=O)c4N)C3)ccc2CC1C(=O)NC1CCCc2ccccc21)C(C)(C)C

> <Shape>
0.329

> <Color>
0.062

> <Negative vol penalty>
0.000

$$$$

  -OEChem-04052318273D

 83 91  0     1  0  0  0  0  0999 V2000
  -24.9666  -28.6397   32.0846 C   0  0  0  0  0  0  0  0  0  0  0  0
  -25.3686  -27.4122   31.5679 C   0  0  0  0  0  0  0  0  0  0  0  0
  -23.0662   -9.8875   20.0814 C   0  0  0  0  0  0  0  0  0  0  0  0
  -23.7707  -10.0642   22.3857 C   0  0  0  0  0  0  0  0  0  0  0  0
  -23.8744  -29.3047   31.5290 C   0  0  0  0  0  0  0  0  0  0  0  0
  -24.6779  -26.8485   30.4957 C   0  0  0  0  0  0  0  0  0  0  0  0
  -27.0404  -23.4921   25.9504 C   0  0  0  0  0  0  0  0  0  0  0  0
  -22.3039   -8.7638   20.4006 C   0  0  0  0  0  0  0  0  0  0  0  0
  -23.0083   -8.9406   22.7049 C   0  0  0  0  0  0  0  0  0  0  0  0
  -27.1071  -22.1159   25.7376 C   0  0  0  0  0  0  0  0  0  0  0  0
  -19.7580   -8.2209   23.2865 C   0  0  0  0  0  0  0  0  0  0  0  0
  -18.9727   -8.2782   24.4378 C   0  0  0  0  0  0  0  0  0  0  0  0
  -25.1220  -22.2368   24.3724 C   0  0  0  0  0  0  0  0  0  0  0  0
  -20.1747   -6.3920   25.3515 C   0  0  0  0  0  0  0  0  0  0  0  0
  -28.2136  -20.1704   21.8162 C   0  0  0  0  0  0  0  0  0  0  0  0
  -23.7996  -10.5377   21.0740 C   0  0  0  0  0  0  0  0  0  0  0  0
  -24.1719  -13.0429   20.7689 C   0  0  0  0  0  0  0  0  0  0  0  0
  -23.1759  -28.7534   30.4432 C   0  0  0  0  0  0  0  0  0  0  0  0
  -26.0059  -24.2506   25.3839 C   0  0  0  0  0  0  0  0  0  0  0  0
  -23.5745  -27.5061   29.9258 C   0  0  0  0  0  0  0  0  0  0  0  0
  -25.0458  -23.6229   24.5775 C   0  0  0  0  0  0  0  0  0  0  0  0
  -22.2749   -8.2904   21.7124 C   0  0  0  0  0  0  0  0  0  0  0  0
  -26.1462  -21.4876   24.9508 C   0  0  0  0  0  0  0  0  0  0  0  0
  -20.7517   -7.2492   23.1676 C   0  0  0  0  0  0  0  0  0  0  0  0
  -19.1810   -7.3638   25.4703 C   0  0  0  0  0  0  0  0  0  0  0  0
  -20.9600   -6.3348   24.2001 C   0  0  0  0  0  0  0  0  0  0  0  0
  -24.5877  -11.6981   20.7447 C   0  0  0  0  0  0  0  0  0  0  0  0
  -28.3204  -18.8246   21.5423 C   0  0  0  0  0  0  0  0  0  0  0  0
  -27.0370  -18.3497   23.3744 C   0  0  0  0  0  0  0  0  0  0  0  0
  -26.9304  -19.6955   23.6485 C   0  0  0  0  0  0  0  0  0  1  0  0
  -25.2807  -13.7522   20.3764 C   0  0  0  0  0  0  0  0  0  0  0  0
  -22.8975  -13.6009   21.1152 C   0  0  0  0  0  0  0  0  0  0  0  0
  -23.6412  -26.0342   26.5373 C   0  0  0  0  0  0  0  0  0  0  0  0
  -23.1729  -26.7456   23.4073 C   0  0  0  0  0  0  0  0  0  0  0  0
  -23.5647  -25.8401   20.1403 C   0  0  0  0  0  0  0  0  0  0  0  0
  -30.7692  -14.7328   20.6223 C   0  0  0  0  0  0  0  0  0  0  0  0
  -21.9723  -29.4869   29.9065 C   0  0  0  0  0  0  0  0  0  0  0  0
  -25.9632  -25.7384   25.6011 C   0  0  0  0  0  0  0  0  0  0  0  0
  -23.9266  -24.3953   23.9299 C   0  0  0  0  0  0  0  0  0  0  0  0
  -21.5255  -28.9994   28.5307 C   0  0  0  0  0  0  0  0  0  0  0  0
  -29.6633  -12.1820   18.3981 C   0  0  0  0  0  0  0  0  0  0  0  0
  -21.4783  -27.4752   28.4938 C   0  0  0  0  0  0  0  0  0  0  0  0
  -28.2127  -11.9355   18.8164 C   0  0  0  0  0  0  0  0  0  0  0  0
  -30.5536  -12.4863   19.6009 C   0  0  0  0  0  0  0  0  0  0  0  0
  -28.6271  -13.3393   20.8796 C   0  0  0  0  0  0  0  0  0  0  0  0
  -22.8660  -26.8739   28.7475 C   0  0  1  0  0  0  0  0  0  0  0  0
  -24.5729  -26.3324   25.3969 C   0  0  1  0  0  0  0  0  0  0  0  0
  -27.6798  -13.0833   19.6950 C   0  0  2  0  0  0  0  0  0  0  0  0
  -27.1459  -17.0952   25.5426 C   0  0  0  0  0  0  0  0  0  0  0  0
  -23.0451  -26.6063   17.8079 C   0  0  0  0  0  0  0  0  0  0  0  0
  -31.3124  -19.3722   21.0583 C   0  0  0  0  0  0  0  0  0  0  0  0
  -20.2662  -25.8949   23.7780 C   0  0  0  0  0  0  0  0  0  0  0  0
  -20.0582  -25.7688   21.2862 C   0  0  0  0  0  0  0  0  0  0  0  0
  -20.5829  -27.9466   22.3836 C   0  0  0  0  0  0  0  0  0  0  0  0
  -26.4325  -25.9763   19.4218 C   0  0  0  0  0  0  0  0  0  0  0  0
  -29.0991  -18.3530   20.3641 C   0  0  0  0  0  0  0  0  0  0  0  0
  -26.3817  -17.3302   24.2417 C   0  0  0  0  0  0  0  0  0  0  0  0
  -30.8288  -16.9716   21.6916 C   0  0  0  0  0  0  0  0  0  0  0  0
  -22.3577  -26.1487   22.2857 C   0  0  1  0  0  0  0  0  0  0  0  0
  -24.0670  -26.6129   18.9341 C   0  0  2  0  0  0  0  0  0  0  0  0
  -30.6001  -18.0781   20.6482 C   0  0  2  0  0  0  0  0  0  0  0  0
  -20.8361  -26.4246   22.4470 C   0  0  0  0  0  0  0  0  0  0  0  0
  -27.5165  -20.6301   22.8743 N   0  0  0  0  0  0  0  0  0  0  0  0
  -25.8612  -11.5589   20.3666 N   0  0  0  0  0  0  0  0  0  0  0  0
  -27.7341  -17.8900   22.3163 N   0  0  0  0  0  0  0  0  0  0  0  0
  -26.2551  -12.8252   20.1495 N   0  0  0  0  0  0  0  0  0  0  0  0
  -23.9243  -25.8466   24.1773 N   0  0  0  0  0  0  0  0  0  0  0  0
  -29.9932  -13.5850   20.3913 N   0  0  0  0  0  0  0  0  0  0  0  0
  -25.5074  -15.0721   20.2066 N   0  0  0  0  0  0  0  0  0  0  0  0
  -21.8678  -12.7297   21.4961 N   0  0  0  0  0  0  0  0  0  0  0  0
  -23.6825  -26.9668   27.5562 N   0  0  0  0  0  0  0  0  0  0  0  0
  -22.9302  -26.6633   21.0464 N   0  0  0  0  0  0  0  0  0  0  0  0
  -30.1601  -15.7292   21.3753 N   0  0  0  0  0  0  0  0  0  0  0  0
  -25.3321  -26.0125   18.4244 N   0  3  0  0  0  0  0  0  0  0  0  0
  -22.6734  -14.8344   21.0720 O   0  0  0  0  0  0  0  0  0  0  0  0
  -22.9358  -25.0330   26.4953 O   0  0  0  0  0  0  0  0  0  0  0  0
  -23.1495  -27.9655   23.5890 O   0  0  0  0  0  0  0  0  0  0  0  0
  -23.7165  -24.6268   20.2645 O   0  0  0  0  0  0  0  0  0  0  0  0
  -31.9176  -14.8625   20.1849 O   0  0  0  0  0  0  0  0  0  0  0  0
  -21.5310   -7.1941   22.0243 O   0  0  0  0  0  0  0  0  0  0  0  0
  -26.2087  -20.1443   24.7420 O   0  0  0  0  0  0  0  0  0  1  0  0
  -18.4278   -7.4199   26.5765 F   0  0  0  0  0  0  0  0  0  0  0  0
  -21.9138   -5.3997   24.0922 F   0  0  0  0  0  0  0  0  0  0  0  0
  1  2  1  0  0  0  0
  1  5  2  0  0  0  0
  2  6  2  0  0  0  0
  3  8  2  0  0  0  0
  3 16  1  0  0  0  0
  4  9  1  0  0  0  0
  4 16  2  0  0  0  0
  5 18  1  0  0  0  0
  6 20  1  0  0  0  0
  7 10  2  0  0  0  0
  7 19  1  0  0  0  0
  8 22  1  0  0  0  0
  9 22  2  0  0  0  0
 10 23  1  0  0  0  0
 11 12  2  0  0  0  0
 11 24  1  0  0  0  0
 12 25  1  0  0  0  0
 13 21  1  0  0  0  0
 13 23  2  0  0  0  0
 14 25  2  0  0  0  0
 14 26  1  0  0  0  0
 15 28  1  0  0  0  0
 15 63  2  0  0  0  0
 16 27  1  0  0  0  0
 17 27  1  0  0  0  0
 17 31  2  0  0  0  0
 17 32  1  0  0  0  0
 18 20  2  0  0  0  0
 18 37  1  0  0  0  0
 19 21  2  0  0  0  0
 19 38  1  0  0  0  0
 20 46  1  0  0  0  0
 21 39  1  0  0  0  0
 22 80  1  0  0  0  0
 23 81  1  0  0  0  0
 24 26  2  0  0  0  0
 24 80  1  0  0  0  0
 25 82  1  0  0  0  0
 26 83  1  0  0  0  0
 27 64  2  0  0  0  0
 28 56  1  0  0  0  0
 28 65  2  0  0  0  0
 29 30  2  0  0  0  0
 29 57  1  0  0  0  0
 29 65  1  0  0  0  0
 30 63  1  0  0  0  0
 30 81  1  0  0  0  0
 31 66  1  0  0  0  0
 31 69  1  0  0  0  0
 32 70  1  0  0  0  0
 32 75  2  0  0  0  0
 33 47  1  0  0  0  0
 33 71  1  0  0  0  0
 33 76  2  0  0  0  0
 34 59  1  0  0  0  0
 34 67  1  0  0  0  0
 34 77  2  0  0  0  0
 35 60  1  0  0  0  0
 35 72  1  0  0  0  0
 35 78  2  0  0  0  0
 36 68  1  0  0  0  0
 36 73  1  0  0  0  0
 36 79  2  0  0  0  0
 37 40  1  0  0  0  0
 38 47  1  0  0  0  0
 39 67  1  0  0  0  0
 40 42  1  0  0  0  0
 41 43  1  0  0  0  0
 41 44  1  0  0  0  0
 42 46  1  0  0  0  0
 43 48  1  0  0  0  0
 44 68  1  0  0  0  0
 45 48  1  0  0  0  0
 45 68  1  0  0  0  0
 46 71  1  0  0  0  0
 47 67  1  0  0  0  0
 48 66  1  0  0  0  0
 49 57  1  0  0  0  0
 50 60  1  0  0  0  0
 51 61  1  0  0  0  0
 52 62  1  0  0  0  0
 53 62  1  0  0  0  0
 54 62  1  0  0  0  0
 55 74  1  0  0  0  0
 56 61  1  0  0  0  0
 58 61  1  0  0  0  0
 58 73  1  0  0  0  0
 59 62  1  0  0  0  0
 59 72  1  0  0  0  0
 60 74  1  0  0  0  0
 64 66  1  0  0  0  0
M  CHG  1  74   1
M  ISO  4  30 101  36 100  73 100  81 101
M  END
> <Batch ID>
0073

> <Smiles>
CCc1nc(CC(C)C[100NH:0][100C:0](=O)N2CCCC(n3nc(-c4ccc(Oc5ccc(F)cc5F)cc4)c(C(N)=O)c3N)C2)cn[101c:1]1[101O:1]c1ccc2c(c1)CN(C(=O)C(NC(=O)C(C)NC)C(C)(C)C)C(C(=O)NC1CCCc3ccccc31)C2

> <Shape>
0.224

> <Color>
0.187

> <Negative vol penalty>
0.000

$$$$

  -OEChem-04052318273D

 82 90  0     1  0  0  0  0  0999 V2000
  -32.4021  -12.6840   21.1619 C   0  0  0  0  0  0  0  0  0  0  0  0
  -32.0291  -13.8612   21.8025 C   0  0  0  0  0  0  0  0  0  0  0  0
  -28.9877  -25.4951   18.1115 C   0  0  0  0  0  0  0  0  0  0  0  0
  -27.1192  -23.9868   18.3785 C   0  0  0  0  0  0  0  0  0  0  0  0
  -31.5677  -12.1227   20.1962 C   0  0  0  0  0  0  0  0  0  0  0  0
  -30.8219  -14.4785   21.4769 C   0  0  0  0  0  0  0  0  0  0  0  0
  -25.5698  -18.3667   24.4118 C   0  0  0  0  0  0  0  0  0  0  0  0
  -21.6741  -23.4586   24.4252 C   0  0  0  0  0  0  0  0  0  0  0  0
  -29.8695  -24.4177   18.1966 C   0  0  0  0  0  0  0  0  0  0  0  0
  -28.0011  -22.9095   18.4637 C   0  0  0  0  0  0  0  0  0  0  0  0
  -24.8697  -19.5558   24.2126 C   0  0  0  0  0  0  0  0  0  0  0  0
  -29.7756  -19.8045   19.1120 C   0  0  0  0  0  0  0  0  0  0  0  0
  -29.5503  -18.8598   20.1132 C   0  0  0  0  0  0  0  0  0  0  0  0
  -20.8538  -24.5357   24.1087 C   0  0  0  0  0  0  0  0  0  0  0  0
  -23.4716  -18.4528   22.5854 C   0  0  0  0  0  0  0  0  0  0  0  0
  -29.8010  -20.5791   21.7919 C   0  0  0  0  0  0  0  0  0  0  0  0
  -27.6125  -25.2796   18.2025 C   0  0  0  0  0  0  0  0  0  0  0  0
  -26.1102  -26.9176   16.9504 C   0  0  0  0  0  0  0  0  0  0  0  0
  -30.3452  -12.7282   19.8655 C   0  0  0  0  0  0  0  0  0  0  0  0
  -25.2326  -17.2127   23.6902 C   0  0  0  0  0  0  0  0  0  0  0  0
  -29.9710  -13.9255   20.5048 C   0  0  0  0  0  0  0  0  0  0  0  0
  -24.1673  -17.2497   22.7792 C   0  0  0  0  0  0  0  0  0  0  0  0
  -22.6585  -23.0550   23.5300 C   0  0  0  0  0  0  0  0  0  0  0  0
  -29.3763  -23.1249   18.3727 C   0  0  0  0  0  0  0  0  0  0  0  0
  -23.8223  -19.5998   23.2971 C   0  0  0  0  0  0  0  0  0  0  0  0
  -30.0137  -21.1366   19.4508 C   0  0  0  0  0  0  0  0  0  0  0  0
  -29.5630  -19.2471   21.4531 C   0  0  0  0  0  0  0  0  0  0  0  0
  -30.0264  -21.5238   20.7907 C   0  0  0  0  0  0  0  0  0  0  0  0
  -26.7011  -26.3922   18.1151 C   0  0  0  0  0  0  0  0  0  0  0  0
  -21.0569  -25.1706   22.8940 C   0  0  0  0  0  0  0  0  0  0  0  0
  -22.7807  -23.7560   22.3411 C   0  0  0  0  0  0  0  0  0  0  0  0
  -25.3335  -27.9579   17.3988 C   0  0  0  0  0  0  0  0  0  0  0  0
  -26.2507  -26.5025   15.5853 C   0  0  0  0  0  0  0  0  0  0  0  0
  -26.7437  -15.3494   21.6049 C   0  0  0  0  0  0  0  0  0  0  0  0
  -24.0707  -13.5328   21.8829 C   0  0  0  0  0  0  0  0  0  0  0  0
  -20.7509  -13.3624   22.6553 C   0  0  0  0  0  0  0  0  0  0  0  0
  -22.7427  -29.1365   22.6666 C   0  0  0  0  0  0  0  0  0  0  0  0
  -29.4986  -12.1098   18.7812 C   0  0  0  0  0  0  0  0  0  0  0  0
  -25.9802  -15.9309   23.9362 C   0  0  0  0  0  0  0  0  0  0  0  0
  -23.7525  -16.0331   21.9941 C   0  0  0  0  0  0  0  0  0  0  0  0
  -28.0616  -12.6244   18.7625 C   0  0  0  0  0  0  0  0  0  0  0  0
  -25.0696  -31.1876   20.9188 C   0  0  0  0  0  0  0  0  0  0  0  0
  -28.0377  -14.1455   18.8739 C   0  0  0  0  0  0  0  0  0  0  0  0
  -25.6983  -30.2386   19.8970 C   0  0  0  0  0  0  0  0  0  0  0  0
  -24.7792  -30.4811   22.2411 C   0  0  0  0  0  0  0  0  0  0  0  0
  -24.6004  -28.3037   21.1008 C   0  0  0  0  0  0  0  0  0  0  0  0
  -28.6577  -14.6115   20.1968 C   0  0  1  0  0  0  0  0  0  0  0  0
  -25.8847  -14.9504   22.7713 C   0  0  1  0  0  0  0  0  0  0  0  0
  -24.8600  -28.9567   19.7324 C   0  0  2  0  0  0  0  0  0  0  0  0
  -23.2370  -22.5945   20.1665 C   0  0  0  0  0  0  0  0  0  0  0  0
  -18.8308  -11.7495   22.7507 C   0  0  0  0  0  0  0  0  0  0  0  0
  -23.8337  -13.6388   18.8428 C   0  0  0  0  0  0  0  0  0  0  0  0
  -21.4644  -12.8622   19.0700 C   0  0  0  0  0  0  0  0  0  0  0  0
  -23.3329  -11.4056   19.8509 C   0  0  0  0  0  0  0  0  0  0  0  0
  -20.3983  -13.7744   25.5648 C   0  0  0  0  0  0  0  0  0  0  0  0
  -23.5459  -21.8925   23.8654 C   0  0  0  0  0  0  0  0  0  1  0  0
  -20.1957  -26.3315   22.5228 C   0  0  0  0  0  0  0  0  0  0  0  0
  -23.8225  -23.3692   21.3432 C   0  0  0  0  0  0  0  0  0  0  0  0
  -20.7563  -27.6825   22.9817 C   0  0  0  0  0  0  0  0  0  0  0  0
  -22.7385  -13.4757   21.1751 C   0  0  1  0  0  0  0  0  0  0  0  0
  -19.9676  -12.3969   23.5262 C   0  0  2  0  0  0  0  0  0  0  0  0
  -22.8512  -12.8692   19.7479 C   0  0  0  0  0  0  0  0  0  0  0  0
  -26.3315  -27.0449   19.2203 N   0  0  0  0  0  0  0  0  0  0  0  0
  -22.0026  -24.8073   21.9989 N   0  0  0  0  0  0  0  0  0  0  0  0
  -25.5001  -27.9912   18.7521 N   0  0  0  0  0  0  0  0  0  0  0  0
  -24.5182  -14.8053   22.2654 N   0  0  0  0  0  0  0  0  0  0  0  0
  -23.9796  -29.2747   22.0154 N   0  0  0  0  0  0  0  0  0  0  0  0
  -24.5311  -28.8383   16.7636 N   0  0  0  0  0  0  0  0  0  0  0  0
  -27.0884  -25.4155   15.3004 N   0  0  0  0  0  0  0  0  0  0  0  0
  -27.7225  -14.4276   21.2858 N   0  0  0  0  0  0  0  0  0  0  0  0
  -21.8354  -12.7510   22.0627 N   0  0  0  0  0  0  0  0  0  0  0  0
  -22.0460  -27.9660   22.3925 N   0  0  0  0  0  0  0  0  0  0  0  0
  -19.3893  -13.1103   24.7000 N   0  3  0  0  0  0  0  0  0  0  0  0
  -25.6641  -27.0887   14.6442 O   0  0  0  0  0  0  0  0  0  0  0  0
  -26.5331  -16.4139   21.0356 O   0  0  0  0  0  0  0  0  0  0  0  0
  -24.6881  -12.4861   22.0952 O   0  0  0  0  0  0  0  0  0  0  0  0
  -20.4304  -14.5403   22.5119 O   0  0  0  0  0  0  0  0  0  0  0  0
  -22.2902  -29.9953   23.4313 O   0  0  0  0  0  0  0  0  0  0  0  0
  -30.2365  -22.0734   18.4556 O   0  0  0  0  0  0  0  0  0  0  0  0
  -23.1377  -20.7593   23.1002 O   0  0  0  0  0  0  0  0  0  1  0  0
  -29.3451  -18.3401   22.4144 F   0  0  0  0  0  0  0  0  0  0  0  0
  -30.2534  -22.8023   21.1223 F   0  0  0  0  0  0  0  0  0  0  0  0
  1  2  1  0  0  0  0
  1  5  2  0  0  0  0
  2  6  2  0  0  0  0
  3  9  2  0  0  0  0
  3 17  1  0  0  0  0
  4 10  1  0  0  0  0
  4 17  2  0  0  0  0
  5 19  1  0  0  0  0
  6 21  1  0  0  0  0
  7 11  2  0  0  0  0
  7 20  1  0  0  0  0
  8 14  2  0  0  0  0
  8 23  1  0  0  0  0
  9 24  1  0  0  0  0
 10 24  2  0  0  0  0
 11 25  1  0  0  0  0
 12 13  2  0  0  0  0
 12 26  1  0  0  0  0
 13 27  1  0  0  0  0
 14 30  1  0  0  0  0
 15 22  1  0  0  0  0
 15 25  2  0  0  0  0
 16 27  2  0  0  0  0
 16 28  1  0  0  0  0
 17 29  1  0  0  0  0
 18 29  1  0  0  0  0
 18 32  2  0  0  0  0
 18 33  1  0  0  0  0
 19 21  2  0  0  0  0
 19 38  1  0  0  0  0
 20 22  2  0  0  0  0
 20 39  1  0  0  0  0
 21 47  1  0  0  0  0
 22 40  1  0  0  0  0
 23 31  2  0  0  0  0
 23 56  1  0  0  0  0
 24 79  1  0  0  0  0
 25 80  1  0  0  0  0
 26 28  2  0  0  0  0
 26 79  1  0  0  0  0
 27 81  1  0  0  0  0
 28 82  1  0  0  0  0
 29 63  2  0  0  0  0
 30 57  1  0  0  0  0
 30 64  2  0  0  0  0
 31 58  1  0  0  0  0
 31 64  1  0  0  0  0
 32 65  1  0  0  0  0
 32 68  1  0  0  0  0
 33 69  1  0  0  0  0
 33 74  2  0  0  0  0
 34 48  1  0  0  0  0
 34 70  1  0  0  0  0
 34 75  2  0  0  0  0
 35 60  1  0  0  0  0
 35 66  1  0  0  0  0
 35 76  2  0  0  0  0
 36 61  1  0  0  0  0
 36 71  1  0  0  0  0
 36 77  2  0  0  0  0
 37 67  1  0  0  0  0
 37 72  1  0  0  0  0
 37 78  2  0  0  0  0
 38 41  1  0  0  0  0
 39 48  1  0  0  0  0
 40 66  1  0  0  0  0
 41 43  1  0  0  0  0
 42 44  1  0  0  0  0
 42 45  1  0  0  0  0
 43 47  1  0  0  0  0
 44 49  1  0  0  0  0
 45 67  1  0  0  0  0
 46 49  1  0  0  0  0
 46 67  1  0  0  0  0
 47 70  1  0  0  0  0
 48 66  1  0  0  0  0
 49 65  1  0  0  0  0
 50 58  1  0  0  0  0
 51 61  1  0  0  0  0
 52 62  1  0  0  0  0
 53 62  1  0  0  0  0
 54 62  1  0  0  0  0
 55 73  1  0  0  0  0
 56 80  1  0  0  0  0
 57 59  1  0  0  0  0
 59 72  1  0  0  0  0
 60 62  1  0  0  0  0
 60 71  1  0  0  0  0
 61 73  1  0  0  0  0
 63 65  1  0  0  0  0
M  CHG  1  73   1
M  ISO  4  37 100  56 101  72 100  80 101
M  END
> <Batch ID>
0073

> <Smiles>
CCc1nc(CC[100NH:0][100C:0](=O)N2CCCC(n3nc(-c4ccc(Oc5ccc(F)cc5F)cc4)c(C(N)=O)c3N)C2)ccc1[101CH2:1][101O:1]c1ccc2c(c1)CN(C(=O)C(NC(=O)C(C)NC)C(C)(C)C)C(C(=O)NC1CCCc3ccccc31)C2

> <Shape>
0.224

> <Color>
0.053

> <Negative vol penalty>
0.000

$$$$

  -OEChem-04052318273D

 85 93  0     1  0  0  0  0  0999 V2000
  -17.4852  -27.8349   19.7403 C   0  0  0  0  0  0  0  0  0  0  0  0
  -18.7958  -27.7841   19.2766 C   0  0  0  0  0  0  0  0  0  0  0  0
  -25.5690  -12.9491   19.3442 C   0  0  0  0  0  0  0  0  0  0  0  0
  -25.4268  -14.2574   21.3703 C   0  0  0  0  0  0  0  0  0  0  0  0
  -17.1799  -28.5704   20.8847 C   0  0  0  0  0  0  0  0  0  0  0  0
  -19.8018  -28.4699   19.9564 C   0  0  0  0  0  0  0  0  0  0  0  0
  -23.9905  -25.6865   20.5506 C   0  0  0  0  0  0  0  0  0  0  0  0
  -25.3074  -11.7898   20.0744 C   0  0  0  0  0  0  0  0  0  0  0  0
  -25.1651  -13.0981   22.1006 C   0  0  0  0  0  0  0  0  0  0  0  0
  -24.8327  -25.5599   19.4468 C   0  0  0  0  0  0  0  0  0  0  0  0
  -24.3195   -8.5322   21.3500 C   0  0  0  0  0  0  0  0  0  0  0  0
  -23.3943   -7.6301   20.8250 C   0  0  0  0  0  0  0  0  0  0  0  0
  -26.2782  -27.2603   20.3623 C   0  0  0  0  0  0  0  0  0  0  0  0
  -21.6895   -9.3409   20.8898 C   0  0  0  0  0  0  0  0  0  0  0  0
  -29.0583  -23.7626   20.5235 C   0  0  0  0  0  0  0  0  0  0  0  0
  -29.3423  -22.3230   18.8859 C   0  0  0  0  0  0  0  0  0  0  0  0
  -25.6288  -14.1829   19.9922 C   0  0  0  0  0  0  0  0  0  0  0  0
  -24.9593  -16.2296   18.6246 C   0  0  0  0  0  0  0  0  0  0  0  0
  -18.1842  -29.2577   21.5844 C   0  0  0  0  0  0  0  0  0  0  0  0
  -24.2805  -26.6103   21.5650 C   0  0  0  0  0  0  0  0  0  0  0  0
  -19.5094  -29.2164   21.1105 C   0  0  0  0  0  0  0  0  0  0  0  0
  -25.4394  -27.3949   21.4792 C   0  0  0  0  0  0  0  0  0  0  0  0
  -29.2682  -23.6718   19.1344 C   0  0  0  0  0  0  0  0  0  0  0  0
  -25.1054  -11.8643   21.4526 C   0  0  0  0  0  0  0  0  0  0  0  0
  -25.9752  -26.3489   19.3511 C   0  0  0  0  0  0  0  0  0  0  0  0
  -23.9298   -9.8387   21.6450 C   0  0  0  0  0  0  0  0  0  0  0  0
  -22.0793   -8.0344   20.5949 C   0  0  0  0  0  0  0  0  0  0  0  0
  -22.6148  -10.2430   21.4148 C   0  0  0  0  0  0  0  0  0  0  0  0
  -25.8996  -15.3807   19.2385 C   0  0  0  0  0  0  0  0  0  0  0  0
  -25.7165  -17.2162   18.0417 C   0  0  0  0  0  0  0  0  0  0  0  0
  -23.5292  -16.1349   18.5849 C   0  0  0  0  0  0  0  0  0  0  0  0
  -22.8219  -29.1752   22.7471 C   0  0  0  0  0  0  0  0  0  0  0  0
  -25.2350  -29.0683   24.9123 C   0  0  0  0  0  0  0  0  0  0  0  0
  -31.2120  -19.3124   19.2735 C   0  0  0  0  0  0  0  0  0  0  0  0
  -28.4087  -28.0655   25.6662 C   0  0  0  0  0  0  0  0  0  0  0  0
  -17.7979  -30.0781   22.7896 C   0  0  0  0  0  0  0  0  0  0  0  0
  -23.3760  -26.7158   22.7621 C   0  0  0  0  0  0  0  0  0  0  0  0
  -25.8064  -28.3872   22.5512 C   0  0  0  0  0  0  0  0  0  0  0  0
  -18.9851  -30.4701   23.6655 C   0  0  0  0  0  0  0  0  0  0  0  0
  -30.0303  -18.0118   16.1506 C   0  0  0  0  0  0  0  0  0  0  0  0
  -20.1296  -31.0000   22.8075 C   0  0  0  0  0  0  0  0  0  0  0  0
  -28.7673  -17.2430   16.5368 C   0  0  0  0  0  0  0  0  0  0  0  0
  -31.0970  -17.9148   17.2368 C   0  0  0  0  0  0  0  0  0  0  0  0
  -29.3678  -17.5857   18.9755 C   0  0  0  0  0  0  0  0  0  0  0  0
  -20.6325  -29.9266   21.8347 C   0  0  1  0  0  0  0  0  0  0  0  0
  -23.4960  -28.0536   23.4856 C   0  0  1  0  0  0  0  0  0  0  0  0
  -28.2531  -17.6833   17.9189 C   0  0  2  0  0  0  0  0  0  0  0  0
  -31.9264  -24.9861   18.4146 C   0  0  0  0  0  0  0  0  0  0  0  0
  -30.1206  -28.1573   27.4988 C   0  0  0  0  0  0  0  0  0  0  0  0
  -28.1457  -19.9204   21.4221 C   0  0  0  0  0  0  0  0  0  0  0  0
  -30.5937  -18.4146   21.4742 C   0  0  0  0  0  0  0  0  0  0  0  0
  -31.5621  -20.7095   21.2208 C   0  0  0  0  0  0  0  0  0  0  0  0
  -25.8231  -31.9797   24.2138 C   0  0  0  0  0  0  0  0  0  0  0  0
  -28.0541  -31.7218   25.3204 C   0  0  0  0  0  0  0  0  0  0  0  0
  -25.9634  -31.4432   26.6524 C   0  0  0  0  0  0  0  0  0  0  0  0
  -28.4735  -25.1169   25.9117 C   0  0  0  0  0  0  0  0  0  0  0  0
  -30.7654  -24.8343   17.4386 C   0  0  0  0  0  0  0  0  0  0  0  0
  -28.2655  -24.7597   17.0682 C   0  0  0  0  0  0  0  0  0  0  0  0
  -26.8669  -24.9466   17.6499 C   0  0  0  0  0  0  0  0  0  1  0  0
  -29.3841  -24.8093   18.1319 C   0  0  1  0  0  0  0  0  0  0  0  0
  -26.6245  -29.6528   24.9943 C   0  0  1  0  0  0  0  0  0  0  0  0
  -28.9802  -27.3613   26.8836 C   0  0  2  0  0  0  0  0  0  0  0  0
  -29.1804  -20.2899   20.3415 C   0  0  2  0  0  0  0  0  0  0  0  0
  -30.6006  -19.6786   20.6024 C   0  0  0  0  0  0  0  0  0  0  0  0
  -26.6086  -31.1821   25.2739 C   0  0  0  0  0  0  0  0  0  0  0  0
  -29.0026  -22.5668   21.1159 N   0  0  0  0  0  0  0  0  0  0  0  0
  -27.1581  -15.7919   19.0619 N   0  0  0  0  0  0  0  0  0  0  0  0
  -29.1784  -21.7117   20.0941 N   0  0  0  0  0  0  0  0  0  0  0  0
  -27.0138  -16.9100   18.3304 N   0  0  0  0  0  0  0  0  0  0  0  0
  -24.8870  -28.4581   23.6989 N   0  0  0  0  0  0  0  0  0  0  0  0
  -30.5631  -18.3202   18.5383 N   0  0  0  0  0  0  0  0  0  0  0  0
  -25.3925  -18.3071   17.3154 N   0  0  0  0  0  0  0  0  0  0  0  0
  -22.9126  -15.0579   19.2362 N   0  0  0  0  0  0  0  0  0  0  0  0
  -21.4732  -28.9724   22.5254 N   0  0  0  0  0  0  0  0  0  0  0  0
  -27.3383  -28.8694   25.9968 N   0  0  0  0  0  0  0  0  0  0  0  0
  -29.4960  -26.0145   26.5083 N   0  3  0  0  0  0  0  0  0  0  0  0
  -22.8202  -16.9713   17.9755 O   0  0  0  0  0  0  0  0  0  0  0  0
  -23.4767  -30.1530   22.4052 O   0  0  0  0  0  0  0  0  0  0  0  0
  -24.4884  -29.1440   25.8913 O   0  0  0  0  0  0  0  0  0  0  0  0
  -32.2341  -19.8940   18.9003 O   0  0  0  0  0  0  0  0  0  0  0  0
  -28.8685  -27.9202   24.5357 O   0  0  0  0  0  0  0  0  0  0  0  0
  -24.8498  -10.7333   22.1654 O   0  0  0  0  0  0  0  0  0  0  0  0
  -26.7987  -26.2278   18.2745 O   0  0  0  0  0  0  0  0  0  1  0  0
  -21.1912   -7.1684   20.0893 F   0  0  0  0  0  0  0  0  0  0  0  0
  -22.2348  -11.4972   21.6950 F   0  0  0  0  0  0  0  0  0  0  0  0
  1  2  1  0  0  0  0
  1  5  2  0  0  0  0
  2  6  2  0  0  0  0
  3  8  2  0  0  0  0
  3 17  1  0  0  0  0
  4  9  1  0  0  0  0
  4 17  2  0  0  0  0
  5 19  1  0  0  0  0
  6 21  1  0  0  0  0
  7 10  2  0  0  0  0
  7 20  1  0  0  0  0
  8 24  1  0  0  0  0
  9 24  2  0  0  0  0
 10 25  1  0  0  0  0
 11 12  2  0  0  0  0
 11 26  1  0  0  0  0
 12 27  1  0  0  0  0
 13 22  1  0  0  0  0
 13 25  2  0  0  0  0
 14 27  2  0  0  0  0
 14 28  1  0  0  0  0
 15 23  1  0  0  0  0
 15 66  2  0  0  0  0
 16 23  2  0  0  0  0
 16 68  1  0  0  0  0
 17 29  1  0  0  0  0
 18 29  1  0  0  0  0
 18 30  2  0  0  0  0
 18 31  1  0  0  0  0
 19 21  2  0  0  0  0
 19 36  1  0  0  0  0
 20 22  2  0  0  0  0
 20 37  1  0  0  0  0
 21 45  1  0  0  0  0
 22 38  1  0  0  0  0
 23 60  1  0  0  0  0
 24 82  1  0  0  0  0
 25 83  1  0  0  0  0
 26 28  2  0  0  0  0
 26 82  1  0  0  0  0
 27 84  1  0  0  0  0
 28 85  1  0  0  0  0
 29 67  2  0  0  0  0
 30 69  1  0  0  0  0
 30 72  1  0  0  0  0
 31 73  1  0  0  0  0
 31 77  2  0  0  0  0
 32 46  1  0  0  0  0
 32 74  1  0  0  0  0
 32 78  2  0  0  0  0
 33 61  1  0  0  0  0
 33 70  1  0  0  0  0
 33 79  2  0  0  0  0
 34 64  1  0  0  0  0
 34 71  1  0  0  0  0
 34 80  2  0  0  0  0
 35 62  1  0  0  0  0
 35 75  1  0  0  0  0
 35 81  2  0  0  0  0
 36 39  1  0  0  0  0
 37 46  1  0  0  0  0
 38 70  1  0  0  0  0
 39 41  1  0  0  0  0
 40 42  1  0  0  0  0
 40 43  1  0  0  0  0
 41 45  1  0  0  0  0
 42 47  1  0  0  0  0
 43 71  1  0  0  0  0
 44 47  1  0  0  0  0
 44 71  1  0  0  0  0
 45 74  1  0  0  0  0
 46 70  1  0  0  0  0
 47 69  1  0  0  0  0
 48 57  1  0  0  0  0
 49 62  1  0  0  0  0
 50 63  1  0  0  0  0
 51 64  1  0  0  0  0
 52 64  1  0  0  0  0
 53 65  1  0  0  0  0
 54 65  1  0  0  0  0
 55 65  1  0  0  0  0
 56 76  1  0  0  0  0
 57 60  1  0  0  0  0
 58 59  1  0  0  0  0
 58 60  1  0  0  0  0
 59 83  1  0  0  0  0
 61 65  1  0  0  0  0
 61 75  1  0  0  0  0
 62 76  1  0  0  0  0
 63 64  1  0  0  0  0
 63 68  1  0  0  0  0
 66 68  1  0  0  0  0
 67 69  1  0  0  0  0
M  CHG  1  76   1
M  ISO  4  34 100  59 101  64 100  83 101
M  END
> <Batch ID>
0073

> <Smiles>
CCC(C[101CH2:1][101O:1]c1ccc2c(c1)CN(C(=O)C(NC(=O)C(C)NC)C(C)(C)C)C(C(=O)NC1CCCc3ccccc31)C2)c1cnn(C(C)[100C:0](C)(C)[100C:0](=O)N2CCCC(n3nc(-c4ccc(Oc5ccc(F)cc5F)cc4)c(C(N)=O)c3N)C2)c1

> <Shape>
0.264

> <Color>
0.071

> <Negative vol penalty>
0.000

$$$$

  -OEChem-04052318273D

 88 96  0     1  0  0  0  0  0999 V2000
  -30.0741  -25.6096   17.3541 C   0  0  0  0  0  0  0  0  0  0  0  0
  -28.6887  -25.7336   17.3843 C   0  0  0  0  0  0  0  0  0  0  0  0
  -25.4842  -12.7132   21.6611 C   0  0  0  0  0  0  0  0  0  0  0  0
  -25.7821  -13.0402   19.2860 C   0  0  0  0  0  0  0  0  0  0  0  0
  -30.8297  -25.9711   18.4687 C   0  0  0  0  0  0  0  0  0  0  0  0
  -28.0581  -26.2182   18.5297 C   0  0  0  0  0  0  0  0  0  0  0  0
  -23.0191  -29.6906   18.7680 C   0  0  0  0  0  0  0  0  0  0  0  0
  -25.3238  -11.3434   21.4525 C   0  0  0  0  0  0  0  0  0  0  0  0
  -25.6217  -11.6704   19.0773 C   0  0  0  0  0  0  0  0  0  0  0  0
  -21.6784  -29.3836   18.9961 C   0  0  0  0  0  0  0  0  0  0  0  0
  -22.8834   -9.2529   20.4044 C   0  0  0  0  0  0  0  0  0  0  0  0
  -21.8395   -8.6140   21.0734 C   0  0  0  0  0  0  0  0  0  0  0  0
  -21.9532  -29.9420   21.3267 C   0  0  0  0  0  0  0  0  0  0  0  0
  -23.4308   -7.1685   22.1760 C   0  0  0  0  0  0  0  0  0  0  0  0
  -20.9850  -25.9058   21.7075 C   0  0  0  0  0  0  0  0  0  0  0  0
  -25.7133  -13.5616   20.5779 C   0  0  0  0  0  0  0  0  0  0  0  0
  -27.0820  -15.6646   21.0382 C   0  0  0  0  0  0  0  0  0  0  0  0
  -30.2087  -26.4695   19.6248 C   0  0  0  0  0  0  0  0  0  0  0  0
  -23.8411  -30.1158   19.8216 C   0  0  0  0  0  0  0  0  0  0  0  0
  -28.8060  -26.5855   19.6613 C   0  0  0  0  0  0  0  0  0  0  0  0
  -23.3034  -30.2562   21.1089 C   0  0  0  0  0  0  0  0  0  0  0  0
  -19.6340  -25.7233   21.4934 C   0  0  0  0  0  0  0  0  0  0  0  0
  -25.3926  -10.8220   20.1606 C   0  0  0  0  0  0  0  0  0  0  0  0
  -21.1459  -29.5065   20.2761 C   0  0  0  0  0  0  0  0  0  0  0  0
  -24.2011   -8.8495   20.6210 C   0  0  0  0  0  0  0  0  0  0  0  0
  -22.1132   -7.5718   21.9593 C   0  0  0  0  0  0  0  0  0  0  0  0
  -24.4748   -7.8074   21.5068 C   0  0  0  0  0  0  0  0  0  0  0  0
  -25.8784  -14.9768   20.7927 C   0  0  0  0  0  0  0  0  0  0  0  0
  -19.2638  -24.4704   21.0491 C   0  0  0  0  0  0  0  0  0  0  0  0
  -26.7054  -16.9787   21.1710 C   0  0  0  0  0  0  0  0  0  0  0  0
  -21.4255  -23.7678   21.0732 C   0  0  0  0  0  0  0  0  0  0  0  0
  -28.4206  -15.1606   21.1371 C   0  0  0  0  0  0  0  0  0  0  0  0
  -26.4675  -28.9889   21.2129 C   0  0  0  0  0  0  0  0  0  0  0  0
  -26.3532  -31.8037   22.8212 C   0  0  0  0  0  0  0  0  0  0  0  0
  -23.8414  -21.2914   19.3065 C   0  0  0  0  0  0  0  0  0  0  0  0
  -24.4775  -34.4226   23.9479 C   0  0  0  0  0  0  0  0  0  0  0  0
  -31.0637  -26.8027   20.8218 C   0  0  0  0  0  0  0  0  0  0  0  0
  -25.2785  -30.4687   19.5538 C   0  0  0  0  0  0  0  0  0  0  0  0
  -24.1385  -30.7282   22.2700 C   0  0  0  0  0  0  0  0  0  0  0  0
  -30.3476  -27.6604   21.8619 C   0  0  0  0  0  0  0  0  0  0  0  0
  -22.1331  -19.0740   21.6286 C   0  0  0  0  0  0  0  0  0  0  0  0
  -28.9536  -27.1077   22.1415 C   0  0  0  0  0  0  0  0  0  0  0  0
  -23.0478  -17.8501   21.6114 C   0  0  0  0  0  0  0  0  0  0  0  0
  -22.0644  -19.7426   20.2581 C   0  0  0  0  0  0  0  0  0  0  0  0
  -24.3166  -18.8928   19.6838 C   0  0  0  0  0  0  0  0  0  0  0  0
  -28.0872  -27.1305   20.8764 C   0  0  1  0  0  0  0  0  0  0  0  0
  -26.1532  -30.3996   20.8018 C   0  0  1  0  0  0  0  0  0  0  0  0
  -24.4372  -18.2072   21.0551 C   0  0  2  0  0  0  0  0  0  0  0  0
  -17.5837  -22.6613   20.6119 C   0  0  0  0  0  0  0  0  0  0  0  0
  -24.6564  -36.5508   25.2655 C   0  0  0  0  0  0  0  0  0  0  0  0
  -21.6313  -22.0478   18.4845 C   0  0  0  0  0  0  0  0  0  0  0  0
  -26.4931  -30.1886   25.4062 C   0  0  0  0  0  0  0  0  0  0  0  0
  -25.7215  -32.2265   26.6392 C   0  0  0  0  0  0  0  0  0  0  0  0
  -27.8848  -32.2665   25.3977 C   0  0  0  0  0  0  0  0  0  0  0  0
  -23.5942  -36.0587   21.6453 C   0  0  0  0  0  0  0  0  0  0  0  0
  -18.6475  -26.8375   21.7365 C   0  0  0  0  0  0  0  0  0  0  0  0
  -17.8281  -24.1576   20.7839 C   0  0  0  0  0  0  0  0  0  0  0  0
  -22.4203  -22.6814   20.8404 C   0  0  0  0  0  0  0  0  0  0  0  0
  -18.1459  -27.5064   20.4549 C   0  0  0  0  0  0  0  0  0  0  0  0
  -19.2472  -28.2092   19.6697 C   0  0  0  0  0  0  0  0  0  1  0  0
  -25.7128  -32.2769   24.1037 C   0  0  1  0  0  0  0  0  0  0  0  0
  -24.6994  -35.9229   23.8811 C   0  0  2  0  0  0  0  0  0  0  0  0
  -22.8359  -22.4138   19.3615 C   0  0  1  0  0  0  0  0  0  0  0  0
  -26.4375  -31.7288   25.3654 C   0  0  0  0  0  0  0  0  0  0  0  0
  -23.5272  -23.6529   18.7824 C   0  0  0  0  0  0  0  0  0  0  0  0
  -21.9120  -24.9463   21.5068 N   0  0  0  0  0  0  0  0  0  0  0  0
  -24.8168  -15.7870   20.7707 N   0  0  0  0  0  0  0  0  0  0  0  0
  -20.1364  -23.4655   20.8275 N   0  0  0  0  0  0  0  0  0  0  0  0
  -25.3520  -16.9974   21.0040 N   0  0  0  0  0  0  0  0  0  0  0  0
  -25.5399  -31.0549   21.9588 N   0  0  0  0  0  0  0  0  0  0  0  0
  -23.4089  -20.0417   19.7509 N   0  0  0  0  0  0  0  0  0  0  0  0
  -27.4034  -18.1086   21.4134 N   0  0  0  0  0  0  0  0  0  0  0  0
  -28.6301  -13.7844   20.9747 N   0  0  0  0  0  0  0  0  0  0  0  0
  -27.6024  -28.4697   20.6198 N   0  0  0  0  0  0  0  0  0  0  0  0
  -25.6691  -33.7330   24.0250 N   0  0  0  0  0  0  0  0  0  0  0  0
  -23.6493  -36.5649   23.0409 N   0  3  0  0  0  0  0  0  0  0  0  0
  -29.3998  -15.9063   21.3792 O   0  0  0  0  0  0  0  0  0  0  0  0
  -25.7353  -28.4146   22.0103 O   0  0  0  0  0  0  0  0  0  0  0  0
  -27.5296  -32.0939   22.5897 O   0  0  0  0  0  0  0  0  0  0  0  0
  -24.9774  -21.5211   18.8836 O   0  0  0  0  0  0  0  0  0  0  0  0
  -23.3589  -33.9136   23.9368 O   0  0  0  0  0  0  0  0  0  0  0  0
  -25.2364   -9.4854   19.9566 O   0  0  0  0  0  0  0  0  0  0  0  0
  -19.8378  -29.2069   20.5016 O   0  0  0  0  0  0  0  0  0  1  0  0
  -21.1108   -6.9594   22.6029 F   0  0  0  0  0  0  0  0  0  0  0  0
  -25.7387   -7.4163   21.7200 F   0  0  0  0  0  0  0  0  0  0  0  0
  -23.9179  -23.4432   17.5046 F   0  0  0  0  0  0  0  0  0  0  0  0
  -24.6296  -23.9858   19.4910 F   0  0  0  0  0  0  0  0  0  0  0  0
  -22.7055  -24.7267   18.7820 F   0  0  0  0  0  0  0  0  0  0  0  0
  1  2  1  0  0  0  0
  1  5  2  0  0  0  0
  2  6  2  0  0  0  0
  3  8  2  0  0  0  0
  3 16  1  0  0  0  0
  4  9  1  0  0  0  0
  4 16  2  0  0  0  0
  5 18  1  0  0  0  0
  6 20  1  0  0  0  0
  7 10  2  0  0  0  0
  7 19  1  0  0  0  0
  8 23  1  0  0  0  0
  9 23  2  0  0  0  0
 10 24  1  0  0  0  0
 11 12  2  0  0  0  0
 11 25  1  0  0  0  0
 12 26  1  0  0  0  0
 13 21  1  0  0  0  0
 13 24  2  0  0  0  0
 14 26  2  0  0  0  0
 14 27  1  0  0  0  0
 15 22  1  0  0  0  0
 15 66  2  0  0  0  0
 16 28  1  0  0  0  0
 17 28  1  0  0  0  0
 17 30  2  0  0  0  0
 17 32  1  0  0  0  0
 18 20  2  0  0  0  0
 18 37  1  0  0  0  0
 19 21  2  0  0  0  0
 19 38  1  0  0  0  0
 20 46  1  0  0  0  0
 21 39  1  0  0  0  0
 22 29  2  0  0  0  0
 22 56  1  0  0  0  0
 23 82  1  0  0  0  0
 24 83  1  0  0  0  0
 25 27  2  0  0  0  0
 25 82  1  0  0  0  0
 26 84  1  0  0  0  0
 27 85  1  0  0  0  0
 28 67  2  0  0  0  0
 29 57  1  0  0  0  0
 29 68  1  0  0  0  0
 30 69  1  0  0  0  0
 30 72  1  0  0  0  0
 31 58  1  0  0  0  0
 31 66  1  0  0  0  0
 31 68  2  0  0  0  0
 32 73  1  0  0  0  0
 32 77  2  0  0  0  0
 33 47  1  0  0  0  0
 33 74  1  0  0  0  0
 33 78  2  0  0  0  0
 34 61  1  0  0  0  0
 34 70  1  0  0  0  0
 34 79  2  0  0  0  0
 35 63  1  0  0  0  0
 35 71  1  0  0  0  0
 35 80  2  0  0  0  0
 36 62  1  0  0  0  0
 36 75  1  0  0  0  0
 36 81  2  0  0  0  0
 37 40  1  0  0  0  0
 38 47  1  0  0  0  0
 39 70  1  0  0  0  0
 40 42  1  0  0  0  0
 41 43  1  0  0  0  0
 41 44  1  0  0  0  0
 42 46  1  0  0  0  0
 43 48  1  0  0  0  0
 44 71  1  0  0  0  0
 45 48  1  0  0  0  0
 45 71  1  0  0  0  0
 46 74  1  0  0  0  0
 47 70  1  0  0  0  0
 48 69  1  0  0  0  0
 49 57  1  0  0  0  0
 50 62  1  0  0  0  0
 51 63  1  0  0  0  0
 52 64  1  0  0  0  0
 53 64  1  0  0  0  0
 54 64  1  0  0  0  0
 55 76  1  0  0  0  0
 56 59  1  0  0  0  0
 58 63  1  0  0  0  0
 59 60  1  0  0  0  0
 60 83  1  0  0  0  0
 61 64  1  0  0  0  0
 61 75  1  0  0  0  0
 62 76  1  0  0  0  0
 63 65  1  0  0  0  0
 65 86  1  0  0  0  0
 65 87  1  0  0  0  0
 65 88  1  0  0  0  0
 67 69  1  0  0  0  0
M  CHG  1  76   1
M  ISO  4  35 100  60 101  63 100  83 101
M  END
> <Batch ID>
0073

> <Smiles>
CCc1nc(C[100C:0](C)([100C:0](=O)N2CCCC(n3nc(-c4ccc(Oc5ccc(F)cc5F)cc4)c(C(N)=O)c3N)C2)C(F)(F)F)ncc1CC[101CH2:1][101O:1]c1ccc2c(c1)CN(C(=O)C(NC(=O)C(C)NC)C(C)(C)C)C(C(=O)NC1CCCc3ccccc31)C2

> <Shape>
0.308

> <Color>
0.079

> <Negative vol penalty>
0.000

$$$$

  -OEChem-04052318273D

 90 98  0     1  0  0  0  0  0999 V2000
  -25.3184  -36.9025   16.5616 C   0  0  0  0  0  0  0  0  0  0  0  0
  -25.9477  -35.6622   16.5945 C   0  0  0  0  0  0  0  0  0  0  0  0
  -24.4456  -11.0036   20.0200 C   0  0  0  0  0  0  0  0  0  0  0  0
  -25.5347  -11.7912   22.0276 C   0  0  0  0  0  0  0  0  0  0  0  0
  -24.8354  -37.4693   17.7403 C   0  0  0  0  0  0  0  0  0  0  0  0
  -26.0954  -34.9885   17.8064 C   0  0  0  0  0  0  0  0  0  0  0  0
  -25.9022  -28.9328   18.6993 C   0  0  0  0  0  0  0  0  0  0  0  0
  -24.6225   -9.6857   20.4410 C   0  0  0  0  0  0  0  0  0  0  0  0
  -25.7116  -10.4732   22.4487 C   0  0  0  0  0  0  0  0  0  0  0  0
  -26.9036  -27.9721   18.8336 C   0  0  0  0  0  0  0  0  0  0  0  0
  -23.1593   -7.5469   22.6130 C   0  0  0  0  0  0  0  0  0  0  0  0
  -22.0756   -6.6770   22.4930 C   0  0  0  0  0  0  0  0  0  0  0  0
  -26.7419  -28.1480   21.2341 C   0  0  0  0  0  0  0  0  0  0  0  0
  -23.3787   -5.2540   21.0390 C   0  0  0  0  0  0  0  0  0  0  0  0
  -27.5119  -21.0073   21.1130 C   0  0  0  0  0  0  0  0  0  0  0  0
  -24.9018  -12.0564   20.8132 C   0  0  0  0  0  0  0  0  0  0  0  0
  -23.6209  -14.2562   20.6462 C   0  0  0  0  0  0  0  0  0  0  0  0
  -24.9687  -36.7978   18.9658 C   0  0  0  0  0  0  0  0  0  0  0  0
  -25.3198  -29.5173   19.8331 C   0  0  0  0  0  0  0  0  0  0  0  0
  -25.6149  -35.5474   19.0028 C   0  0  0  0  0  0  0  0  0  0  0  0
  -25.7316  -29.1140   21.1114 C   0  0  0  0  0  0  0  0  0  0  0  0
  -25.2555   -9.4205   21.6553 C   0  0  0  0  0  0  0  0  0  0  0  0
  -27.3256  -27.5816   20.1011 C   0  0  0  0  0  0  0  0  0  0  0  0
  -24.3528   -7.2704   21.9459 C   0  0  0  0  0  0  0  0  0  0  0  0
  -22.1852   -5.5306   21.7060 C   0  0  0  0  0  0  0  0  0  0  0  0
  -24.4624   -6.1239   21.1589 C   0  0  0  0  0  0  0  0  0  0  0  0
  -24.7198  -13.4181   20.3786 C   0  0  0  0  0  0  0  0  0  0  0  0
  -26.9669  -20.2694   20.0821 C   0  0  0  0  0  0  0  0  0  0  0  0
  -28.8475  -21.3270   20.9773 C   0  0  0  0  0  0  0  0  0  0  0  0
  -23.9287  -15.4375   20.0167 C   0  0  0  0  0  0  0  0  0  0  0  0
  -28.9560  -20.2434   18.9820 C   0  0  0  0  0  0  0  0  0  0  0  0
  -22.4284  -13.9907   21.3967 C   0  0  0  0  0  0  0  0  0  0  0  0
  -25.1438  -32.4710   20.9943 C   0  0  0  0  0  0  0  0  0  0  0  0
  -23.1758  -31.0818   23.1668 C   0  0  0  0  0  0  0  0  0  0  0  0
  -29.5181  -17.4987   18.8299 C   0  0  0  0  0  0  0  0  0  0  0  0
  -22.2018  -28.2464   24.7974 C   0  0  0  0  0  0  0  0  0  0  0  0
  -24.4728  -37.4718   20.2206 C   0  0  0  0  0  0  0  0  0  0  0  0
  -24.2221  -30.5328   19.6715 C   0  0  0  0  0  0  0  0  0  0  0  0
  -25.1241  -29.6962   22.3606 C   0  0  0  0  0  0  0  0  0  0  0  0
  -24.3356  -36.5228   21.4083 C   0  0  0  0  0  0  0  0  0  0  0  0
  -26.9152  -16.8242   16.3386 C   0  0  0  0  0  0  0  0  0  0  0  0
  -25.5786  -35.6484   21.5394 C   0  0  0  0  0  0  0  0  0  0  0  0
  -26.1777  -15.7692   17.1697 C   0  0  0  0  0  0  0  0  0  0  0  0
  -27.6286  -17.8831   17.1785 C   0  0  0  0  0  0  0  0  0  0  0  0
  -27.2832  -16.5836   19.2785 C   0  0  0  0  0  0  0  0  0  0  0  0
  -25.7721  -34.7744   20.2943 C   0  0  1  0  0  0  0  0  0  0  0  0
  -24.0595  -31.4360   20.8901 C   0  0  1  0  0  0  0  0  0  0  0  0
  -25.9403  -16.2410   18.6110 C   0  0  2  0  0  0  0  0  0  0  0  0
  -24.6169  -20.9169   19.4950 C   0  0  0  0  0  0  0  0  0  0  0  0
  -20.5942  -27.4318   26.5436 C   0  0  0  0  0  0  0  0  0  0  0  0
  -29.4557  -21.3612   23.4060 C   0  0  0  0  0  0  0  0  0  0  0  0
  -31.0521  -22.3905   21.8141 C   0  0  0  0  0  0  0  0  0  0  0  0
  -30.9184  -20.8405   17.4578 C   0  0  0  0  0  0  0  0  0  0  0  0
  -28.8967  -19.8591   16.4711 C   0  0  0  0  0  0  0  0  0  0  0  0
  -31.7850  -18.3867   18.6479 C   0  0  0  0  0  0  0  0  0  0  0  0
  -30.5765  -17.5636   16.6374 C   0  0  0  0  0  0  0  0  0  0  0  0
  -24.9369  -32.2877   25.3472 C   0  0  0  0  0  0  0  0  0  0  0  0
  -23.8865  -30.7023   26.9754 C   0  0  0  0  0  0  0  0  0  0  0  0
  -22.4815  -32.4010   25.8080 C   0  0  0  0  0  0  0  0  0  0  0  0
  -20.8671  -26.4244   22.8848 C   0  0  0  0  0  0  0  0  0  0  0  0
  -25.5287  -19.8764   20.1395 C   0  0  0  0  0  0  0  0  0  0  0  0
  -28.8796  -24.4684   21.0707 C   0  0  0  0  0  0  0  0  0  0  0  0
  -28.8446  -23.5298   22.2829 C   0  0  0  0  0  0  0  0  0  0  0  0
  -28.2581  -25.8207   21.3993 C   0  0  0  0  0  0  0  0  0  1  0  0
  -23.3643  -30.4191   24.5100 C   0  0  1  0  0  0  0  0  0  0  0  0
  -20.8279  -27.6556   25.0577 C   0  0  2  0  0  0  0  0  0  0  0  0
  -29.5455  -22.1500   22.0752 C   0  0  0  0  0  0  0  0  0  0  0  0
  -29.7576  -19.8226   17.7970 C   0  0  0  0  0  0  0  0  0  0  0  0
  -30.4052  -18.3482   17.9561 C   0  0  0  0  0  0  0  0  0  0  0  0
  -23.6803  -31.4428   25.6368 C   0  0  0  0  0  0  0  0  0  0  0  0
  -25.6558  -14.0161   19.6368 N   0  0  0  0  0  0  0  0  0  0  0  0
  -27.6625  -19.8690   18.9976 N   0  0  0  0  0  0  0  0  0  0  0  0
  -29.6026  -20.9599   19.9212 N   0  0  0  0  0  0  0  0  0  0  0  0
  -25.1458  -15.2426   19.4328 N   0  0  0  0  0  0  0  0  0  0  0  0
  -24.0586  -30.6902   22.1503 N   0  0  0  0  0  0  0  0  0  0  0  0
  -28.2026  -17.3148   18.4005 N   0  0  0  0  0  0  0  0  0  0  0  0
  -23.2743  -16.6135   19.9112 N   0  0  0  0  0  0  0  0  0  0  0  0
  -22.2723  -12.7246   21.9772 N   0  0  0  0  0  0  0  0  0  0  0  0
  -24.8660  -33.6463   20.3228 N   0  0  0  0  0  0  0  0  0  0  0  0
  -22.1640  -29.6237   24.7448 N   0  0  0  0  0  0  0  0  0  0  0  0
  -20.6851  -26.3480   24.3573 N   0  3  0  0  0  0  0  0  0  0  0  0
  -21.5205  -14.8453   21.5343 O   0  0  0  0  0  0  0  0  0  0  0  0
  -26.1567  -32.2222   21.6376 O   0  0  0  0  0  0  0  0  0  0  0  0
  -22.2739  -31.9109   23.0227 O   0  0  0  0  0  0  0  0  0  0  0  0
  -29.9763  -17.0076   19.8651 O   0  0  0  0  0  0  0  0  0  0  0  0
  -23.2086  -27.5553   24.6585 O   0  0  0  0  0  0  0  0  0  0  0  0
  -25.4281   -8.1345   22.0666 O   0  0  0  0  0  0  0  0  0  0  0  0
  -28.3033  -26.6445   20.2351 O   0  0  0  0  0  0  0  0  0  1  0  0
  -21.1449   -4.6945   21.5922 F   0  0  0  0  0  0  0  0  0  0  0  0
  -25.6068   -5.8524   20.5167 F   0  0  0  0  0  0  0  0  0  0  0  0
  1  2  1  0  0  0  0
  1  5  2  0  0  0  0
  2  6  2  0  0  0  0
  3  8  2  0  0  0  0
  3 16  1  0  0  0  0
  4  9  1  0  0  0  0
  4 16  2  0  0  0  0
  5 18  1  0  0  0  0
  6 20  1  0  0  0  0
  7 10  2  0  0  0  0
  7 19  1  0  0  0  0
  8 22  1  0  0  0  0
  9 22  2  0  0  0  0
 10 23  1  0  0  0  0
 11 12  2  0  0  0  0
 11 24  1  0  0  0  0
 12 25  1  0  0  0  0
 13 21  1  0  0  0  0
 13 23  2  0  0  0  0
 14 25  2  0  0  0  0
 14 26  1  0  0  0  0
 15 28  1  0  0  0  0
 15 29  2  0  0  0  0
 16 27  1  0  0  0  0
 17 27  1  0  0  0  0
 17 30  2  0  0  0  0
 17 32  1  0  0  0  0
 18 20  2  0  0  0  0
 18 37  1  0  0  0  0
 19 21  2  0  0  0  0
 19 38  1  0  0  0  0
 20 46  1  0  0  0  0
 21 39  1  0  0  0  0
 22 87  1  0  0  0  0
 23 88  1  0  0  0  0
 24 26  2  0  0  0  0
 24 87  1  0  0  0  0
 25 89  1  0  0  0  0
 26 90  1  0  0  0  0
 27 71  2  0  0  0  0
 28 61  1  0  0  0  0
 28 72  2  0  0  0  0
 29 67  1  0  0  0  0
 29 73  1  0  0  0  0
 30 74  1  0  0  0  0
 30 77  1  0  0  0  0
 31 68  1  0  0  0  0
 31 72  1  0  0  0  0
 31 73  2  0  0  0  0
 32 78  1  0  0  0  0
 32 82  2  0  0  0  0
 33 47  1  0  0  0  0
 33 79  1  0  0  0  0
 33 83  2  0  0  0  0
 34 65  1  0  0  0  0
 34 75  1  0  0  0  0
 34 84  2  0  0  0  0
 35 69  1  0  0  0  0
 35 76  1  0  0  0  0
 35 85  2  0  0  0  0
 36 66  1  0  0  0  0
 36 80  1  0  0  0  0
 36 86  2  0  0  0  0
 37 40  1  0  0  0  0
 38 47  1  0  0  0  0
 39 75  1  0  0  0  0
 40 42  1  0  0  0  0
 41 43  1  0  0  0  0
 41 44  1  0  0  0  0
 42 46  1  0  0  0  0
 43 48  1  0  0  0  0
 44 76  1  0  0  0  0
 45 48  1  0  0  0  0
 45 76  1  0  0  0  0
 46 79  1  0  0  0  0
 47 75  1  0  0  0  0
 48 74  1  0  0  0  0
 49 61  1  0  0  0  0
 50 66  1  0  0  0  0
 51 67  1  0  0  0  0
 52 67  1  0  0  0  0
 53 68  1  0  0  0  0
 54 68  1  0  0  0  0
 55 69  1  0  0  0  0
 56 69  1  0  0  0  0
 57 70  1  0  0  0  0
 58 70  1  0  0  0  0
 59 70  1  0  0  0  0
 60 81  1  0  0  0  0
 62 63  1  0  0  0  0
 62 64  1  0  0  0  0
 63 67  1  0  0  0  0
 64 88  1  0  0  0  0
 65 70  1  0  0  0  0
 65 80  1  0  0  0  0
 66 81  1  0  0  0  0
 68 69  1  0  0  0  0
 71 74  1  0  0  0  0
M  CHG  1  81   1
M  ISO  4  35 100  64 101  69 100  88 101
M  END
> <Batch ID>
0073

> <Smiles>
CCc1cc(C(C)(C)CC[101CH2:1][101O:1]c2ccc3c(c2)CN(C(=O)C(NC(=O)C(C)NC)C(C)(C)C)C(C(=O)NC2CCCc4ccccc42)C3)nc(C(C)(C)[100C:0](C)(C)[100C:0](=O)N2CCCC(n3nc(-c4ccc(Oc5ccc(F)cc5F)cc4)c(C(N)=O)c3N)C2)n1

> <Shape>
0.247

> <Color>
0.103

> <Negative vol penalty>
0.000

$$$$

  -OEChem-04052318273D

 85 93  0     1  0  0  0  0  0999 V2000
  -20.8281  -19.4874   24.6662 C   0  0  0  0  0  0  0  0  0  0  0  0
  -22.0705  -20.0813   24.8571 C   0  0  0  0  0  0  0  0  0  0  0  0
  -26.9654  -13.0343   21.1032 C   0  0  0  0  0  0  0  0  0  0  0  0
  -26.6857  -13.5646   18.7628 C   0  0  0  0  0  0  0  0  0  0  0  0
  -19.9174  -20.0554   23.7777 C   0  0  0  0  0  0  0  0  0  0  0  0
  -22.3982  -21.2500   24.1687 C   0  0  0  0  0  0  0  0  0  0  0  0
  -26.6230  -23.4542   25.3916 C   0  0  0  0  0  0  0  0  0  0  0  0
  -26.2837  -11.8325   20.9123 C   0  0  0  0  0  0  0  0  0  0  0  0
  -26.0041  -12.3627   18.5719 C   0  0  0  0  0  0  0  0  0  0  0  0
  -27.8709  -22.9309   25.0560 C   0  0  0  0  0  0  0  0  0  0  0  0
  -23.0770  -10.8100   20.6028 C   0  0  0  0  0  0  0  0  0  0  0  0
  -22.1056  -10.4607   21.5409 C   0  0  0  0  0  0  0  0  0  0  0  0
  -28.0734  -24.5622   23.2904 C   0  0  0  0  0  0  0  0  0  0  0  0
  -23.3287   -8.4417   22.0556 C   0  0  0  0  0  0  0  0  0  0  0  0
  -33.3050  -21.4317   23.7904 C   0  0  0  0  0  0  0  0  0  0  0  0
  -27.1663  -13.9005   20.0284 C   0  0  0  0  0  0  0  0  0  0  0  0
  -29.2555  -15.3621   20.1091 C   0  0  0  0  0  0  0  0  0  0  0  0
  -20.2397  -21.2246   23.0692 C   0  0  0  0  0  0  0  0  0  0  0  0
  -26.0852  -24.5303   24.6710 C   0  0  0  0  0  0  0  0  0  0  0  0
  -21.4835  -21.8518   23.2857 C   0  0  0  0  0  0  0  0  0  0  0  0
  -26.8196  -25.0990   23.6206 C   0  0  0  0  0  0  0  0  0  0  0  0
  -25.8032  -11.4966   19.6467 C   0  0  0  0  0  0  0  0  0  0  0  0
  -28.5950  -23.4830   24.0034 C   0  0  0  0  0  0  0  0  0  0  0  0
  -24.1742   -9.9752   20.3911 C   0  0  0  0  0  0  0  0  0  0  0  0
  -22.2314   -9.2766   22.2673 C   0  0  0  0  0  0  0  0  0  0  0  0
  -24.3001   -8.7911   21.1175 C   0  0  0  0  0  0  0  0  0  0  0  0
  -27.8698  -15.1425   20.2251 C   0  0  0  0  0  0  0  0  0  0  0  0
  -34.3618  -22.2275   23.4488 C   0  0  0  0  0  0  0  0  0  0  0  0
  -29.4164  -16.6967   20.3913 C   0  0  0  0  0  0  0  0  0  0  0  0
  -32.7379  -22.5834   21.9871 C   0  0  0  0  0  0  0  0  0  0  0  0
  -30.3035  -14.4422   19.7759 C   0  0  0  0  0  0  0  0  0  0  0  0
  -23.4936  -24.9597   22.8814 C   0  0  0  0  0  0  0  0  0  0  0  0
  -24.5023  -28.0425   22.8500 C   0  0  0  0  0  0  0  0  0  0  0  0
  -27.0878  -30.2482   23.1608 C   0  0  0  0  0  0  0  0  0  0  0  0
  -27.8339  -22.0176   19.8180 C   0  0  0  0  0  0  0  0  0  0  0  0
  -19.2135  -21.8011   22.1259 C   0  0  0  0  0  0  0  0  0  0  0  0
  -24.7496  -25.1005   25.0628 C   0  0  0  0  0  0  0  0  0  0  0  0
  -26.2957  -26.2681   22.8287 C   0  0  0  0  0  0  0  0  0  0  0  0
  -19.8135  -22.7770   21.1190 C   0  0  0  0  0  0  0  0  0  0  0  0
  -26.1665  -20.0748   22.2922 C   0  0  0  0  0  0  0  0  0  0  0  0
  -20.6871  -23.7941   21.8380 C   0  0  0  0  0  0  0  0  0  0  0  0
  -26.5702  -18.6369   21.9616 C   0  0  0  0  0  0  0  0  0  0  0  0
  -25.9772  -20.9124   21.0295 C   0  0  0  0  0  0  0  0  0  0  0  0
  -27.5293  -19.4678   19.7733 C   0  0  0  0  0  0  0  0  0  0  0  0
  -21.8736  -23.1062   22.5250 C   0  0  1  0  0  0  0  0  0  0  0  0
  -24.0717  -25.8663   23.9309 C   0  0  1  0  0  0  0  0  0  0  0  0
  -27.7863  -18.5991   21.0165 C   0  0  2  0  0  0  0  0  0  0  0  0
  -35.6827  -22.3977   24.0595 C   0  0  0  0  0  0  0  0  0  0  0  0
  -27.6102  -32.7000   23.0458 C   0  0  0  0  0  0  0  0  0  0  0  0
  -24.3547  -27.9286   19.8044 C   0  0  0  0  0  0  0  0  0  0  0  0
  -25.7566  -30.0015   19.7285 C   0  0  0  0  0  0  0  0  0  0  0  0
  -23.5098  -30.0564   20.8109 C   0  0  0  0  0  0  0  0  0  0  0  0
  -31.3874  -21.5492   17.2693 C   0  0  0  0  0  0  0  0  0  0  0  0
  -31.9467  -23.9133   17.8199 C   0  0  0  0  0  0  0  0  0  0  0  0
  -27.9952  -30.3053   25.9773 C   0  0  0  0  0  0  0  0  0  0  0  0
  -31.9802  -23.1259   20.8318 C   0  0  0  0  0  0  0  0  0  0  0  0
  -31.9439  -22.1413   19.6430 C   0  0  0  0  0  0  0  0  0  0  0  0
  -30.9584  -21.0095   22.8597 C   0  0  0  0  0  0  0  0  0  0  0  0
  -29.7506  -22.9763   18.5664 C   0  0  0  0  0  0  0  0  0  0  0  0
  -30.0242  -21.5840   23.9191 C   0  0  0  0  0  0  0  0  0  1  0  0
  -25.4137  -28.8602   21.9670 C   0  0  1  0  0  0  0  0  0  0  0  0
  -27.2213  -31.5392   23.9481 C   0  0  2  0  0  0  0  0  0  0  0  0
  -24.7680  -29.1884   20.5912 C   0  0  0  0  0  0  0  0  0  0  0  0
  -31.2458  -22.6450   18.3481 C   0  0  0  0  0  0  0  0  0  0  0  0
  -27.1982  -16.2487   20.5554 N   0  0  0  0  0  0  0  0  0  0  0  0
  -32.3142  -21.6727   22.8694 N   0  0  0  0  0  0  0  0  0  0  0  0
  -28.1660  -17.1764   20.6495 N   0  0  0  0  0  0  0  0  0  0  0  0
  -33.9832  -22.9288   22.3295 N   0  3  0  0  0  0  0  0  0  0  0  0
  -24.9823  -26.7861   23.2460 N   0  0  0  0  0  0  0  0  0  0  0  0
  -27.1663  -20.8352   20.1774 N   0  0  0  0  0  0  0  0  0  0  0  0
  -30.5040  -17.4948   20.4415 N   0  0  0  0  0  0  0  0  0  0  0  0
  -29.9633  -13.1078   19.5149 N   0  0  0  0  0  0  0  0  0  0  0  0
  -22.5554  -24.0671   23.3637 N   0  0  0  0  0  0  0  0  0  0  0  0
  -25.7903  -30.0350   22.7458 N   0  0  0  0  0  0  0  0  0  0  0  0
  -28.9552  -21.8546   19.0137 N   0  0  0  0  0  0  0  0  0  0  0  0
  -28.2624  -31.3962   25.0049 N   0  3  0  0  0  0  0  0  0  0  0  0
  -31.5079  -14.7894   19.7275 O   0  0  0  0  0  0  0  0  0  0  0  0
  -23.8697  -25.0632   21.7197 O   0  0  0  0  0  0  0  0  0  0  0  0
  -23.4078  -28.5046   23.1821 O   0  0  0  0  0  0  0  0  0  0  0  0
  -28.0400  -29.5052   22.9333 O   0  0  0  0  0  0  0  0  0  0  0  0
  -27.4616  -23.1353   20.1909 O   0  0  0  0  0  0  0  0  0  0  0  0
  -25.1382  -10.3238   19.4600 O   0  0  0  0  0  0  0  0  0  0  0  0
  -29.8130  -22.9737   23.6732 O   0  0  0  0  0  0  0  0  0  1  0  0
  -21.2993   -8.9420   23.1691 F   0  0  0  0  0  0  0  0  0  0  0  0
  -25.3526   -7.9856   20.9193 F   0  0  0  0  0  0  0  0  0  0  0  0
  1  2  1  0  0  0  0
  1  5  2  0  0  0  0
  2  6  2  0  0  0  0
  3  8  2  0  0  0  0
  3 16  1  0  0  0  0
  4  9  1  0  0  0  0
  4 16  2  0  0  0  0
  5 18  1  0  0  0  0
  6 20  1  0  0  0  0
  7 10  2  0  0  0  0
  7 19  1  0  0  0  0
  8 22  1  0  0  0  0
  9 22  2  0  0  0  0
 10 23  1  0  0  0  0
 11 12  2  0  0  0  0
 11 24  1  0  0  0  0
 12 25  1  0  0  0  0
 13 21  1  0  0  0  0
 13 23  2  0  0  0  0
 14 25  2  0  0  0  0
 14 26  1  0  0  0  0
 15 28  2  0  0  0  0
 15 66  1  0  0  0  0
 16 27  1  0  0  0  0
 17 27  1  0  0  0  0
 17 29  2  0  0  0  0
 17 31  1  0  0  0  0
 18 20  2  0  0  0  0
 18 36  1  0  0  0  0
 19 21  2  0  0  0  0
 19 37  1  0  0  0  0
 20 45  1  0  0  0  0
 21 38  1  0  0  0  0
 22 82  1  0  0  0  0
 23 83  1  0  0  0  0
 24 26  2  0  0  0  0
 24 82  1  0  0  0  0
 25 84  1  0  0  0  0
 26 85  1  0  0  0  0
 27 65  2  0  0  0  0
 28 48  1  0  0  0  0
 28 68  1  0  0  0  0
 29 67  1  0  0  0  0
 29 71  1  0  0  0  0
 30 56  1  0  0  0  0
 30 66  1  0  0  0  0
 30 68  2  0  0  0  0
 31 72  1  0  0  0  0
 31 77  2  0  0  0  0
 32 46  1  0  0  0  0
 32 73  1  0  0  0  0
 32 78  2  0  0  0  0
 33 61  1  0  0  0  0
 33 69  1  0  0  0  0
 33 79  2  0  0  0  0
 34 62  1  0  0  0  0
 34 74  1  0  0  0  0
 34 80  2  0  0  0  0
 35 70  1  0  0  0  0
 35 75  1  0  0  0  0
 35 81  2  0  0  0  0
 36 39  1  0  0  0  0
 37 46  1  0  0  0  0
 38 69  1  0  0  0  0
 39 41  1  0  0  0  0
 40 42  1  0  0  0  0
 40 43  1  0  0  0  0
 41 45  1  0  0  0  0
 42 47  1  0  0  0  0
 43 70  1  0  0  0  0
 44 47  1  0  0  0  0
 44 70  1  0  0  0  0
 45 73  1  0  0  0  0
 46 69  1  0  0  0  0
 47 67  1  0  0  0  0
 49 62  1  0  0  0  0
 50 63  1  0  0  0  0
 51 63  1  0  0  0  0
 52 63  1  0  0  0  0
 53 64  1  0  0  0  0
 54 64  1  0  0  0  0
 55 76  1  0  0  0  0
 56 57  1  0  0  0  0
 57 64  1  0  0  0  0
 58 60  1  0  0  0  0
 58 66  1  0  0  0  0
 59 64  1  0  0  0  0
 59 75  1  0  0  0  0
 60 83  1  0  0  0  0
 61 63  1  0  0  0  0
 61 74  1  0  0  0  0
 62 76  1  0  0  0  0
 65 67  1  0  0  0  0
M  CHG  2  68   1  76   1
M  ISO  4  35 100  60 101  75 100  83 101
M  END
> <Batch ID>
0073

> <Smiles>
CNC(C)C(=O)NC(C(=O)N1Cc2cc([101O:1][101CH2:1]Cn3cc(C)nc3CCC(C)(C)C[100NH:0][100C:0](=O)N3CCCC(n4nc(-c5ccc(Oc6ccc(F)cc6F)cc5)c(C(N)=O)c4N)C3)ccc2CC1C(=O)NC1CCCc2ccccc21)C(C)(C)C

> <Shape>
0.191

> <Color>
0.065

> <Negative vol penalty>
0.000

$$$$

  -OEChem-04052318273D

 85 93  0     1  0  0  0  0  0999 V2000
  -28.2920  -18.3996   17.2558 C   0  0  0  0  0  0  0  0  0  0  0  0
  -27.2435  -19.3133   17.2864 C   0  0  0  0  0  0  0  0  0  0  0  0
  -22.9849  -18.7200   20.9911 C   0  0  0  0  0  0  0  0  0  0  0  0
  -25.2343  -19.5208   21.3596 C   0  0  0  0  0  0  0  0  0  0  0  0
  -29.3242  -18.4932   18.1885 C   0  0  0  0  0  0  0  0  0  0  0  0
  -27.2258  -20.3206   18.2505 C   0  0  0  0  0  0  0  0  0  0  0  0
  -25.1427  -27.1093   19.1942 C   0  0  0  0  0  0  0  0  0  0  0  0
  -23.4871  -17.4617   20.6595 C   0  0  0  0  0  0  0  0  0  0  0  0
  -25.7366  -18.2625   21.0280 C   0  0  0  0  0  0  0  0  0  0  0  0
  -24.3890  -27.8933   20.0666 C   0  0  0  0  0  0  0  0  0  0  0  0
  -24.6694  -14.7437   22.2866 C   0  0  0  0  0  0  0  0  0  0  0  0
  -24.0397  -13.6282   22.8388 C   0  0  0  0  0  0  0  0  0  0  0  0
  -26.2661  -28.0058   21.5775 C   0  0  0  0  0  0  0  0  0  0  0  0
  -23.5256  -12.8204   20.6206 C   0  0  0  0  0  0  0  0  0  0  0  0
  -19.5914  -27.9808   21.7012 C   0  0  0  0  0  0  0  0  0  0  0  0
  -23.8585  -19.7496   21.3411 C   0  0  0  0  0  0  0  0  0  0  0  0
  -22.5695  -21.8994   20.8671 C   0  0  0  0  0  0  0  0  0  0  0  0
  -29.3241  -19.5080   19.1584 C   0  0  0  0  0  0  0  0  0  0  0  0
  -26.4624  -26.7580   19.5125 C   0  0  0  0  0  0  0  0  0  0  0  0
  -28.2582  -20.4271   19.1978 C   0  0  0  0  0  0  0  0  0  0  0  0
  -27.0353  -27.2194   20.7063 C   0  0  0  0  0  0  0  0  0  0  0  0
  -24.8630  -17.2329   20.6780 C   0  0  0  0  0  0  0  0  0  0  0  0
  -24.9497  -28.3392   21.2598 C   0  0  0  0  0  0  0  0  0  0  0  0
  -24.7272  -14.8975   20.9014 C   0  0  0  0  0  0  0  0  0  0  0  0
  -23.4678  -12.6666   22.0058 C   0  0  0  0  0  0  0  0  0  0  0  0
  -24.1553  -13.9359   20.0684 C   0  0  0  0  0  0  0  0  0  0  0  0
  -23.3403  -21.0498   21.6832 C   0  0  0  0  0  0  0  0  0  0  0  0
  -18.7201  -26.9289   21.7358 C   0  0  0  0  0  0  0  0  0  0  0  0
  -22.3330  -23.0041   21.6482 C   0  0  0  0  0  0  0  0  0  0  0  0
  -19.0587  -27.6044   23.8166 C   0  0  0  0  0  0  0  0  0  0  0  0
  -22.1085  -21.7071   19.5232 C   0  0  0  0  0  0  0  0  0  0  0  0
  -27.9943  -24.0196   20.0207 C   0  0  0  0  0  0  0  0  0  0  0  0
  -30.5986  -25.9496   20.1417 C   0  0  0  0  0  0  0  0  0  0  0  0
  -31.8706  -29.0680   20.6939 C   0  0  0  0  0  0  0  0  0  0  0  0
  -20.9241  -25.2959   26.5378 C   0  0  0  0  0  0  0  0  0  0  0  0
  -30.4375  -19.5402   20.1753 C   0  0  0  0  0  0  0  0  0  0  0  0
  -27.2709  -25.9339   18.5483 C   0  0  0  0  0  0  0  0  0  0  0  0
  -28.4546  -26.8869   21.0851 C   0  0  0  0  0  0  0  0  0  0  0  0
  -30.5355  -20.8639   20.9294 C   0  0  0  0  0  0  0  0  0  0  0  0
  -24.3376  -24.3930   26.0798 C   0  0  0  0  0  0  0  0  0  0  0  0
  -29.1561  -21.3129   21.4012 C   0  0  0  0  0  0  0  0  0  0  0  0
  -24.3177  -23.5082   24.8321 C   0  0  0  0  0  0  0  0  0  0  0  0
  -23.0971  -24.1779   26.9440 C   0  0  0  0  0  0  0  0  0  0  0  0
  -21.7936  -23.4435   24.9856 C   0  0  0  0  0  0  0  0  0  0  0  0
  -28.2163  -21.5488   20.2128 C   0  0  1  0  0  0  0  0  0  0  0  0
  -28.4358  -25.2076   19.2137 C   0  0  1  0  0  0  0  0  0  0  0  0
  -22.9974  -23.6657   24.0541 C   0  0  2  0  0  0  0  0  0  0  0  0
  -18.1534  -26.1057   20.6645 C   0  0  0  0  0  0  0  0  0  0  0  0
  -17.8962  -28.6964   25.7608 C   0  0  0  0  0  0  0  0  0  0  0  0
  -34.0399  -30.3279   20.7565 C   0  0  0  0  0  0  0  0  0  0  0  0
  -31.2431  -24.7006   22.8500 C   0  0  0  0  0  0  0  0  0  0  0  0
  -32.8077  -26.6076   23.2789 C   0  0  0  0  0  0  0  0  0  0  0  0
  -33.2256  -25.0592   21.3683 C   0  0  0  0  0  0  0  0  0  0  0  0
  -22.8896  -30.4971   24.0581 C   0  0  0  0  0  0  0  0  0  0  0  0
  -22.5130  -28.0652   24.4694 C   0  0  0  0  0  0  0  0  0  0  0  0
  -31.0171  -30.8760   18.5118 C   0  0  0  0  0  0  0  0  0  0  0  0
  -20.6744  -29.5180   23.4402 C   0  0  0  0  0  0  0  0  0  0  0  0
  -18.7355  -26.3307   25.9919 C   0  0  0  0  0  0  0  0  0  0  0  0
  -22.8046  -28.8948   22.1233 C   0  0  0  0  0  0  0  0  0  1  0  0
  -18.9781  -27.6953   25.2958 C   0  0  1  0  0  0  0  0  0  0  0  0
  -31.3159  -26.7103   21.2307 C   0  0  1  0  0  0  0  0  0  0  0  0
  -32.8542  -29.9095   19.9010 C   0  0  2  0  0  0  0  0  0  0  0  0
  -32.1207  -25.7743   22.1760 C   0  0  0  0  0  0  0  0  0  0  0  0
  -22.2035  -29.2265   23.5069 C   0  0  0  0  0  0  0  0  0  0  0  0
  -23.5778  -21.5702   22.8901 N   0  0  0  0  0  0  0  0  0  0  0  0
  -19.7827  -28.3791   23.0023 N   0  0  0  0  0  0  0  0  0  0  0  0
  -22.9526  -22.7588   22.8382 N   0  0  0  0  0  0  0  0  0  0  0  0
  -18.4074  -26.7176   23.0571 N   0  3  0  0  0  0  0  0  0  0  0  0
  -29.2023  -26.0732   20.1123 N   0  0  0  0  0  0  0  0  0  0  0  0
  -21.8793  -24.3431   26.1468 N   0  0  0  0  0  0  0  0  0  0  0  0
  -21.6576  -24.1517   21.4264 N   0  0  0  0  0  0  0  0  0  0  0  0
  -22.9237  -22.1407   18.4687 N   0  0  0  0  0  0  0  0  0  0  0  0
  -28.5108  -22.8163   19.5794 N   0  0  0  0  0  0  0  0  0  0  0  0
  -32.1261  -27.7198   20.5578 N   0  0  0  0  0  0  0  0  0  0  0  0
  -19.8025  -25.3925   25.7234 N   0  0  0  0  0  0  0  0  0  0  0  0
  -32.1875  -31.1397   19.3880 N   0  3  0  0  0  0  0  0  0  0  0  0
  -20.9990  -21.1817   19.2654 O   0  0  0  0  0  0  0  0  0  0  0  0
  -27.2419  -24.1827   20.9741 O   0  0  0  0  0  0  0  0  0  0  0  0
  -31.2537  -25.2765   19.3421 O   0  0  0  0  0  0  0  0  0  0  0  0
  -30.9683  -29.5577   21.3697 O   0  0  0  0  0  0  0  0  0  0  0  0
  -21.0633  -26.0114   27.5357 O   0  0  0  0  0  0  0  0  0  0  0  0
  -25.3534  -16.0051   20.3547 O   0  0  0  0  0  0  0  0  0  0  0  0
  -24.2161  -29.1041   22.1135 O   0  0  0  0  0  0  0  0  0  1  0  0
  -22.8645  -11.5948   22.5362 F   0  0  0  0  0  0  0  0  0  0  0  0
  -24.2087  -14.0776   18.7369 F   0  0  0  0  0  0  0  0  0  0  0  0
  1  2  1  0  0  0  0
  1  5  2  0  0  0  0
  2  6  2  0  0  0  0
  3  8  2  0  0  0  0
  3 16  1  0  0  0  0
  4  9  1  0  0  0  0
  4 16  2  0  0  0  0
  5 18  1  0  0  0  0
  6 20  1  0  0  0  0
  7 10  2  0  0  0  0
  7 19  1  0  0  0  0
  8 22  1  0  0  0  0
  9 22  2  0  0  0  0
 10 23  1  0  0  0  0
 11 12  2  0  0  0  0
 11 24  1  0  0  0  0
 12 25  1  0  0  0  0
 13 21  1  0  0  0  0
 13 23  2  0  0  0  0
 14 25  2  0  0  0  0
 14 26  1  0  0  0  0
 15 28  2  0  0  0  0
 15 66  1  0  0  0  0
 16 27  1  0  0  0  0
 17 27  1  0  0  0  0
 17 29  2  0  0  0  0
 17 31  1  0  0  0  0
 18 20  2  0  0  0  0
 18 36  1  0  0  0  0
 19 21  2  0  0  0  0
 19 37  1  0  0  0  0
 20 45  1  0  0  0  0
 21 38  1  0  0  0  0
 22 82  1  0  0  0  0
 23 83  1  0  0  0  0
 24 26  2  0  0  0  0
 24 82  1  0  0  0  0
 25 84  1  0  0  0  0
 26 85  1  0  0  0  0
 27 65  2  0  0  0  0
 28 48  1  0  0  0  0
 28 68  1  0  0  0  0
 29 67  1  0  0  0  0
 29 71  1  0  0  0  0
 30 60  1  0  0  0  0
 30 66  1  0  0  0  0
 30 68  2  0  0  0  0
 31 72  1  0  0  0  0
 31 77  2  0  0  0  0
 32 46  1  0  0  0  0
 32 73  1  0  0  0  0
 32 78  2  0  0  0  0
 33 61  1  0  0  0  0
 33 69  1  0  0  0  0
 33 79  2  0  0  0  0
 34 62  1  0  0  0  0
 34 74  1  0  0  0  0
 34 80  2  0  0  0  0
 35 70  1  0  0  0  0
 35 75  1  0  0  0  0
 35 81  2  0  0  0  0
 36 39  1  0  0  0  0
 37 46  1  0  0  0  0
 38 69  1  0  0  0  0
 39 41  1  0  0  0  0
 40 42  1  0  0  0  0
 40 43  1  0  0  0  0
 41 45  1  0  0  0  0
 42 47  1  0  0  0  0
 43 70  1  0  0  0  0
 44 47  1  0  0  0  0
 44 70  1  0  0  0  0
 45 73  1  0  0  0  0
 46 69  1  0  0  0  0
 47 67  1  0  0  0  0
 49 60  1  0  0  0  0
 50 62  1  0  0  0  0
 51 63  1  0  0  0  0
 52 63  1  0  0  0  0
 53 63  1  0  0  0  0
 54 64  1  0  0  0  0
 55 64  1  0  0  0  0
 56 76  1  0  0  0  0
 57 64  1  0  0  0  0
 57 66  1  0  0  0  0
 58 60  1  0  0  0  0
 58 75  1  0  0  0  0
 59 64  1  0  0  0  0
 59 83  1  0  0  0  0
 61 63  1  0  0  0  0
 61 74  1  0  0  0  0
 62 76  1  0  0  0  0
 65 67  1  0  0  0  0
M  CHG  2  68   1  76   1
M  ISO  4  35 100  59 101  75 100  83 101
M  END
> <Batch ID>
0073

> <Smiles>
CNC(C)C(=O)NC(C(=O)N1Cc2cc([101O:1][101CH2:1]C(C)(C)Cn3cc(C)nc3C(C)C[100NH:0][100C:0](=O)N3CCCC(n4nc(-c5ccc(Oc6ccc(F)cc6F)cc5)c(C(N)=O)c4N)C3)ccc2CC1C(=O)NC1CCCc2ccccc21)C(C)(C)C

> <Shape>
0.193

> <Color>
0.053

> <Negative vol penalty>
0.000

$$$$

  -OEChem-04052318273D

 85 93  0     1  0  0  0  0  0999 V2000
  -27.7725  -10.0110   20.3263 C   0  0  0  0  0  0  0  0  0  0  0  0
  -28.5753  -11.1422   20.4326 C   0  0  0  0  0  0  0  0  0  0  0  0
  -26.3722  -28.2373   18.9535 C   0  0  0  0  0  0  0  0  0  0  0  0
  -26.3176  -27.2552   21.1602 C   0  0  0  0  0  0  0  0  0  0  0  0
  -26.3843  -10.1381   20.3489 C   0  0  0  0  0  0  0  0  0  0  0  0
  -27.9902  -12.4014   20.5604 C   0  0  0  0  0  0  0  0  0  0  0  0
  -30.2129  -15.2230   24.1302 C   0  0  0  0  0  0  0  0  0  0  0  0
  -25.2452  -28.9981   19.2642 C   0  0  0  0  0  0  0  0  0  0  0  0
  -25.1906  -28.0160   21.4709 C   0  0  0  0  0  0  0  0  0  0  0  0
  -31.4251  -15.8277   23.8007 C   0  0  0  0  0  0  0  0  0  0  0  0
  -22.5135  -29.9666   22.9697 C   0  0  0  0  0  0  0  0  0  0  0  0
  -22.4826  -30.6048   24.2096 C   0  0  0  0  0  0  0  0  0  0  0  0
  -33.6447  -19.7713   20.2046 C   0  0  0  0  0  0  0  0  0  0  0  0
  -30.2713  -17.9075   23.3978 C   0  0  0  0  0  0  0  0  0  0  0  0
  -24.4765  -31.8375   23.6249 C   0  0  0  0  0  0  0  0  0  0  0  0
  -32.8368  -19.8060   19.0944 C   0  0  0  0  0  0  0  0  0  0  0  0
  -26.9084  -27.3658   19.9015 C   0  0  0  0  0  0  0  0  0  0  0  0
  -29.4200  -26.9373   19.7739 C   0  0  0  0  0  0  0  0  0  0  0  0
  -25.7819  -11.3986   20.4867 C   0  0  0  0  0  0  0  0  0  0  0  0
  -29.0173  -15.9545   24.0853 C   0  0  0  0  0  0  0  0  0  0  0  0
  -26.5926  -12.5457   20.5835 C   0  0  0  0  0  0  0  0  0  0  0  0
  -29.0456  -17.3105   23.7297 C   0  0  0  0  0  0  0  0  0  0  0  0
  -24.6544  -28.8875   20.5229 C   0  0  0  0  0  0  0  0  0  0  0  0
  -31.4542  -17.1693   23.4316 C   0  0  0  0  0  0  0  0  0  0  0  0
  -23.5259  -30.2638   22.0574 C   0  0  0  0  0  0  0  0  0  0  0  0
  -23.4641  -31.5402   24.5372 C   0  0  0  0  0  0  0  0  0  0  0  0
  -24.5074  -31.1992   22.3850 C   0  0  0  0  0  0  0  0  0  0  0  0
  -28.0723  -26.5791   19.5809 C   0  0  0  0  0  0  0  0  0  0  0  0
  -33.7956  -18.4005   20.4874 C   0  0  0  0  0  0  0  0  0  0  0  0
  -30.1318  -25.8574   19.3118 C   0  0  0  0  0  0  0  0  0  0  0  0
  -29.9784  -28.1388   20.3220 C   0  0  0  0  0  0  0  0  0  0  0  0
  -26.3161  -15.7378   22.4238 C   0  0  0  0  0  0  0  0  0  0  0  0
  -25.3704  -18.1371   24.3914 C   0  0  0  0  0  0  0  0  0  0  0  0
  -26.2493  -20.7357   26.4216 C   0  0  0  0  0  0  0  0  0  0  0  0
  -28.9676  -20.1949   18.8789 C   0  0  0  0  0  0  0  0  0  0  0  0
  -24.2768  -11.4910   20.4585 C   0  0  0  0  0  0  0  0  0  0  0  0
  -27.7214  -15.2946   24.4695 C   0  0  0  0  0  0  0  0  0  0  0  0
  -27.7926  -18.1451   23.6855 C   0  0  0  0  0  0  0  0  0  0  0  0
  -23.7385  -12.8233   20.9736 C   0  0  0  0  0  0  0  0  0  0  0  0
  -29.8895  -22.2669   16.1717 C   0  0  0  0  0  0  0  0  0  0  0  0
  -24.5132  -13.9852   20.3599 C   0  0  0  0  0  0  0  0  0  0  0  0
  -29.6494  -23.6569   16.7591 C   0  0  0  0  0  0  0  0  0  0  0  0
  -28.8038  -21.2723   16.5867 C   0  0  0  0  0  0  0  0  0  0  0  0
  -28.3541  -22.5819   18.6375 C   0  0  0  0  0  0  0  0  0  0  0  0
  -25.9955  -13.9265   20.7485 C   0  0  1  0  0  0  0  0  0  0  0  0
  -26.4978  -15.9995   23.8922 C   0  0  1  0  0  0  0  0  0  0  0  0
  -29.4632  -23.5849   18.2846 C   0  0  2  0  0  0  0  0  0  0  0  0
  -36.7144  -17.4067   20.1350 C   0  0  0  0  0  0  0  0  0  0  0  0
  -25.2546  -22.5343   27.8614 C   0  0  0  0  0  0  0  0  0  0  0  0
  -35.3111  -18.7968   22.5469 C   0  0  0  0  0  0  0  0  0  0  0  0
  -24.6382  -19.7287   21.8932 C   0  0  0  0  0  0  0  0  0  0  0  0
  -24.5651  -21.7898   23.3125 C   0  0  0  0  0  0  0  0  0  0  0  0
  -22.9900  -19.9092   23.7655 C   0  0  0  0  0  0  0  0  0  0  0  0
  -27.9386  -18.5225   17.2823 C   0  0  0  0  0  0  0  0  0  0  0  0
  -27.5663  -19.6795   28.8523 C   0  0  0  0  0  0  0  0  0  0  0  0
  -35.6827  -16.7811   21.0697 C   0  0  0  0  0  0  0  0  0  0  0  0
  -30.5919  -17.1215   18.1342 C   0  0  0  0  0  0  0  0  0  0  0  0
  -31.7469  -18.0332   17.6988 C   0  0  0  0  0  0  0  0  0  0  0  0
  -29.5431  -17.8013   19.0119 C   0  0  0  0  0  0  0  0  0  0  0  0
  -33.6432  -16.9309   22.5333 C   0  0  0  0  0  0  0  0  0  1  0  0
  -25.4361  -19.6447   24.3472 C   0  0  1  0  0  0  0  0  0  0  0  0
  -25.8022  -21.1161   27.8215 C   0  0  2  0  0  0  0  0  0  0  0  0
  -34.6050  -17.7619   21.6343 C   0  0  2  0  0  0  0  0  0  0  0  0
  -24.4309  -20.2521   23.3285 C   0  0  0  0  0  0  0  0  0  0  0  0
  -27.9337  -25.3665   19.0384 N   0  0  0  0  0  0  0  0  0  0  0  0
  -33.1363  -17.6208   19.6263 N   0  0  0  0  0  0  0  0  0  0  0  0
  -32.5632  -18.5046   18.7917 N   0  0  0  0  0  0  0  0  0  0  0  0
  -29.2034  -24.9534   18.8864 N   0  0  0  0  0  0  0  0  0  0  0  0
  -26.5494  -17.4529   24.0637 N   0  0  0  0  0  0  0  0  0  0  0  0
  -28.6257  -21.2698   18.0452 N   0  0  0  0  0  0  0  0  0  0  0  0
  -31.4551  -25.6025   19.2319 N   0  0  0  0  0  0  0  0  0  0  0  0
  -29.1042  -29.1478   20.7486 N   0  0  0  0  0  0  0  0  0  0  0  0
  -26.1820  -14.4005   22.1031 N   0  0  0  0  0  0  0  0  0  0  0  0
  -25.2459  -20.1019   25.7195 N   0  0  0  0  0  0  0  0  0  0  0  0
  -28.8798  -18.9055   18.3329 N   0  0  0  0  0  0  0  0  0  0  0  0
  -26.9459  -21.0270   28.7727 N   0  3  0  0  0  0  0  0  0  0  0  0
  -31.2163  -28.3191   20.4150 O   0  0  0  0  0  0  0  0  0  0  0  0
  -26.2975  -16.6797   21.6400 O   0  0  0  0  0  0  0  0  0  0  0  0
  -24.3138  -17.5870   24.7119 O   0  0  0  0  0  0  0  0  0  0  0  0
  -27.3747  -20.9800   25.9923 O   0  0  0  0  0  0  0  0  0  0  0  0
  -29.3245  -20.3753   20.0503 O   0  0  0  0  0  0  0  0  0  0  0  0
  -23.5548  -29.6299   20.8265 O   0  0  0  0  0  0  0  0  0  0  0  0
  -32.6360  -17.7618   23.1089 O   0  0  0  0  0  0  0  0  0  1  0  0
  -23.4334  -32.1541   25.7273 F   0  0  0  0  0  0  0  0  0  0  0  0
  -25.4819  -31.4898   21.5121 F   0  0  0  0  0  0  0  0  0  0  0  0
  1  2  1  0  0  0  0
  1  5  2  0  0  0  0
  2  6  2  0  0  0  0
  3  8  2  0  0  0  0
  3 17  1  0  0  0  0
  4  9  1  0  0  0  0
  4 17  2  0  0  0  0
  5 19  1  0  0  0  0
  6 21  1  0  0  0  0
  7 10  2  0  0  0  0
  7 20  1  0  0  0  0
  8 23  1  0  0  0  0
  9 23  2  0  0  0  0
 10 24  1  0  0  0  0
 11 12  2  0  0  0  0
 11 25  1  0  0  0  0
 12 26  1  0  0  0  0
 13 16  2  0  0  0  0
 13 29  1  0  0  0  0
 14 22  1  0  0  0  0
 14 24  2  0  0  0  0
 15 26  2  0  0  0  0
 15 27  1  0  0  0  0
 16 67  1  0  0  0  0
 17 28  1  0  0  0  0
 18 28  1  0  0  0  0
 18 30  2  0  0  0  0
 18 31  1  0  0  0  0
 19 21  2  0  0  0  0
 19 36  1  0  0  0  0
 20 22  2  0  0  0  0
 20 37  1  0  0  0  0
 21 45  1  0  0  0  0
 22 38  1  0  0  0  0
 23 82  1  0  0  0  0
 24 83  1  0  0  0  0
 25 27  2  0  0  0  0
 25 82  1  0  0  0  0
 26 84  1  0  0  0  0
 27 85  1  0  0  0  0
 28 65  2  0  0  0  0
 29 63  1  0  0  0  0
 29 66  2  0  0  0  0
 30 68  1  0  0  0  0
 30 71  1  0  0  0  0
 31 72  1  0  0  0  0
 31 77  2  0  0  0  0
 32 46  1  0  0  0  0
 32 73  1  0  0  0  0
 32 78  2  0  0  0  0
 33 61  1  0  0  0  0
 33 69  1  0  0  0  0
 33 79  2  0  0  0  0
 34 62  1  0  0  0  0
 34 74  1  0  0  0  0
 34 80  2  0  0  0  0
 35 70  1  0  0  0  0
 35 75  1  0  0  0  0
 35 81  2  0  0  0  0
 36 39  1  0  0  0  0
 37 46  1  0  0  0  0
 38 69  1  0  0  0  0
 39 41  1  0  0  0  0
 40 42  1  0  0  0  0
 40 43  1  0  0  0  0
 41 45  1  0  0  0  0
 42 47  1  0  0  0  0
 43 70  1  0  0  0  0
 44 47  1  0  0  0  0
 44 70  1  0  0  0  0
 45 73  1  0  0  0  0
 46 69  1  0  0  0  0
 47 68  1  0  0  0  0
 48 56  1  0  0  0  0
 49 62  1  0  0  0  0
 50 63  1  0  0  0  0
 51 64  1  0  0  0  0
 52 64  1  0  0  0  0
 53 64  1  0  0  0  0
 54 75  1  0  0  0  0
 55 76  1  0  0  0  0
 56 63  1  0  0  0  0
 57 58  1  0  0  0  0
 57 59  1  0  0  0  0
 58 67  1  0  0  0  0
 59 75  1  0  0  0  0
 60 63  1  0  0  0  0
 60 83  1  0  0  0  0
 61 64  1  0  0  0  0
 61 74  1  0  0  0  0
 62 76  1  0  0  0  0
 65 68  1  0  0  0  0
 66 67  1  0  0  0  0
M  CHG  1  76   1
M  ISO  4  35 100  60 101  75 100  83 101
M  END
> <Batch ID>
0073

> <Smiles>
CCC(C)(c1ccn(CCC[100N:0](C)[100C:0](=O)N2CCCC(n3nc(-c4ccc(Oc5ccc(F)cc5F)cc4)c(C(N)=O)c3N)C2)n1)[101CH2:1][101O:1]c1ccc2c(c1)CN(C(=O)C(NC(=O)C(C)NC)C(C)(C)C)C(C(=O)NC1CCCc3ccccc31)C2

> <Shape>
0.208

> <Color>
0.067

> <Negative vol penalty>
0.000

$$$$

  -OEChem-04052318273D

 85 93  0     1  0  0  0  0  0999 V2000
  -17.1181  -29.5420   24.9050 C   0  0  0  0  0  0  0  0  0  0  0  0
  -17.8161  -28.3910   24.5538 C   0  0  0  0  0  0  0  0  0  0  0  0
  -26.4066  -11.8534   21.1871 C   0  0  0  0  0  0  0  0  0  0  0  0
  -26.1378  -13.7915   19.7699 C   0  0  0  0  0  0  0  0  0  0  0  0
  -17.2883  -30.7120   24.1660 C   0  0  0  0  0  0  0  0  0  0  0  0
  -18.6841  -28.4091   23.4625 C   0  0  0  0  0  0  0  0  0  0  0  0
  -23.0968  -26.1302   24.4523 C   0  0  0  0  0  0  0  0  0  0  0  0
  -25.0809  -11.4930   20.9457 C   0  0  0  0  0  0  0  0  0  0  0  0
  -24.8121  -13.4311   19.5284 C   0  0  0  0  0  0  0  0  0  0  0  0
  -23.1121  -24.7363   24.4323 C   0  0  0  0  0  0  0  0  0  0  0  0
  -22.0135  -12.4142   22.0259 C   0  0  0  0  0  0  0  0  0  0  0  0
  -21.2415  -12.0173   23.1177 C   0  0  0  0  0  0  0  0  0  0  0  0
  -24.0575  -24.7846   22.2135 C   0  0  0  0  0  0  0  0  0  0  0  0
  -20.8880   -9.8622   22.0844 C   0  0  0  0  0  0  0  0  0  0  0  0
  -27.7284  -21.9820   23.4205 C   0  0  0  0  0  0  0  0  0  0  0  0
  -26.9351  -13.0027   20.5992 C   0  0  0  0  0  0  0  0  0  0  0  0
  -29.4383  -12.9919   20.1082 C   0  0  0  0  0  0  0  0  0  0  0  0
  -18.1661  -30.7470   23.0711 C   0  0  0  0  0  0  0  0  0  0  0  0
  -23.5524  -26.8630   23.3469 C   0  0  0  0  0  0  0  0  0  0  0  0
  -18.8652  -29.5802   22.7074 C   0  0  0  0  0  0  0  0  0  0  0  0
  -24.0493  -26.1877   22.2230 C   0  0  0  0  0  0  0  0  0  0  0  0
  -24.2837  -12.2818   20.1164 C   0  0  0  0  0  0  0  0  0  0  0  0
  -23.5898  -24.0632   23.3116 C   0  0  0  0  0  0  0  0  0  0  0  0
  -22.2228  -11.5351   20.9633 C   0  0  0  0  0  0  0  0  0  0  0  0
  -20.6788  -10.7414   23.1470 C   0  0  0  0  0  0  0  0  0  0  0  0
  -21.6600  -10.2591   20.9926 C   0  0  0  0  0  0  0  0  0  0  0  0
  -28.3042  -13.3758   20.8487 C   0  0  0  0  0  0  0  0  0  0  0  0
  -28.2129  -21.0178   22.5642 C   0  0  0  0  0  0  0  0  0  0  0  0
  -26.2794  -19.8228   22.8159 C   0  0  0  0  0  0  0  0  0  0  0  0
  -25.7953  -20.7867   23.6727 C   0  0  0  0  0  0  0  0  0  0  0  0
  -30.4887  -13.6052   20.7463 C   0  0  0  0  0  0  0  0  0  0  0  0
  -29.5338  -12.1557   18.9475 C   0  0  0  0  0  0  0  0  0  0  0  0
  -22.2291  -28.9278   21.3247 C   0  0  0  0  0  0  0  0  0  0  0  0
  -25.2735  -29.2236   20.2448 C   0  0  0  0  0  0  0  0  0  0  0  0
  -28.3819  -27.8507   19.9292 C   0  0  0  0  0  0  0  0  0  0  0  0
  -30.8771  -18.4858   24.1930 C   0  0  0  0  0  0  0  0  0  0  0  0
  -18.2815  -32.0219   22.2736 C   0  0  0  0  0  0  0  0  0  0  0  0
  -23.5541  -28.3664   23.3948 C   0  0  0  0  0  0  0  0  0  0  0  0
  -24.5686  -26.9280   21.0185 C   0  0  0  0  0  0  0  0  0  0  0  0
  -19.5038  -32.0605   21.3600 C   0  0  0  0  0  0  0  0  0  0  0  0
  -31.8520  -15.1721   25.0564 C   0  0  0  0  0  0  0  0  0  0  0  0
  -19.6365  -30.7502   20.5903 C   0  0  0  0  0  0  0  0  0  0  0  0
  -31.1556  -14.3013   24.0091 C   0  0  0  0  0  0  0  0  0  0  0  0
  -30.9879  -16.3630   25.4650 C   0  0  0  0  0  0  0  0  0  0  0  0
  -29.8155  -16.3253   23.2976 C   0  0  0  0  0  0  0  0  0  0  0  0
  -19.8346  -29.5669   21.5453 C   0  0  1  0  0  0  0  0  0  0  0  0
  -23.5634  -29.0082   22.0108 C   0  0  1  0  0  0  0  0  0  0  0  0
  -30.6712  -15.1425   22.8129 C   0  0  2  0  0  0  0  0  0  0  0  0
  -26.3106  -17.5416   21.7759 C   0  0  0  0  0  0  0  0  0  0  0  0
  -24.4862  -19.8693   25.6160 C   0  0  0  0  0  0  0  0  0  0  0  0
  -30.6517  -28.3146   18.9647 C   0  0  0  0  0  0  0  0  0  0  0  0
  -32.0527  -20.6975   22.1215 C   0  0  0  0  0  0  0  0  0  0  0  0
  -24.2099  -28.6080   17.4520 C   0  0  0  0  0  0  0  0  0  0  0  0
  -26.5636  -28.1492   16.7326 C   0  0  0  0  0  0  0  0  0  0  0  0
  -25.9281  -30.4232   17.5373 C   0  0  0  0  0  0  0  0  0  0  0  0
  -29.6687  -27.7139   22.5909 C   0  0  0  0  0  0  0  0  0  0  0  0
  -29.5633  -21.1592   21.9540 C   0  0  0  0  0  0  0  0  0  0  0  0
  -25.4770  -18.6146   22.4723 C   0  0  0  0  0  0  0  0  0  0  0  0
  -23.7685  -22.0343   24.5394 C   0  0  0  0  0  0  0  0  0  1  0  0
  -24.4195  -20.6636   24.3086 C   0  0  1  0  0  0  0  0  0  0  0  0
  -26.1094  -28.5263   19.1989 C   0  0  1  0  0  0  0  0  0  0  0  0
  -29.7650  -28.4168   20.1960 C   0  0  2  0  0  0  0  0  0  0  0  0
  -30.6953  -20.5295   22.7968 C   0  0  1  0  0  0  0  0  0  0  0  0
  -25.6912  -28.9124   17.7520 C   0  0  0  0  0  0  0  0  0  0  0  0
  -26.5109  -21.8837   23.9902 N   0  0  0  0  0  0  0  0  0  0  0  0
  -28.6057  -14.1712   21.8784 N   0  0  0  0  0  0  0  0  0  0  0  0
  -27.4970  -19.9210   22.2465 N   0  0  0  0  0  0  0  0  0  0  0  0
  -29.9413  -14.2921   21.7897 N   0  0  0  0  0  0  0  0  0  0  0  0
  -24.5437  -28.3971   21.1109 N   0  0  0  0  0  0  0  0  0  0  0  0
  -30.5630  -17.1198   24.2849 N   0  0  0  0  0  0  0  0  0  0  0  0
  -31.8180  -13.6184   20.5111 N   0  0  0  0  0  0  0  0  0  0  0  0
  -28.3567  -11.6066   18.4210 N   0  0  0  0  0  0  0  0  0  0  0  0
  -21.1995  -29.5274   22.0247 N   0  0  0  0  0  0  0  0  0  0  0  0
  -27.5001  -28.8284   19.5197 N   0  0  0  0  0  0  0  0  0  0  0  0
  -30.4428  -19.1265   23.0390 N   0  0  0  0  0  0  0  0  0  0  0  0
  -30.4214  -27.6768   21.3106 N   0  3  0  0  0  0  0  0  0  0  0  0
  -30.6323  -11.8898   18.4033 O   0  0  0  0  0  0  0  0  0  0  0  0
  -22.1404  -28.3649   20.2399 O   0  0  0  0  0  0  0  0  0  0  0  0
  -25.2739  -30.4561   20.2962 O   0  0  0  0  0  0  0  0  0  0  0  0
  -28.1118  -26.6596   20.0666 O   0  0  0  0  0  0  0  0  0  0  0  0
  -31.5031  -19.0884   25.0716 O   0  0  0  0  0  0  0  0  0  0  0  0
  -22.9901  -11.9303   19.8804 O   0  0  0  0  0  0  0  0  0  0  0  0
  -23.6053  -22.7026   23.2892 O   0  0  0  0  0  0  0  0  0  1  0  0
  -19.9387  -10.3598   24.1963 F   0  0  0  0  0  0  0  0  0  0  0  0
  -21.8585   -9.4097   19.9752 F   0  0  0  0  0  0  0  0  0  0  0  0
  1  2  1  0  0  0  0
  1  5  2  0  0  0  0
  2  6  2  0  0  0  0
  3  8  2  0  0  0  0
  3 16  1  0  0  0  0
  4  9  1  0  0  0  0
  4 16  2  0  0  0  0
  5 18  1  0  0  0  0
  6 20  1  0  0  0  0
  7 10  2  0  0  0  0
  7 19  1  0  0  0  0
  8 22  1  0  0  0  0
  9 22  2  0  0  0  0
 10 23  1  0  0  0  0
 11 12  2  0  0  0  0
 11 24  1  0  0  0  0
 12 25  1  0  0  0  0
 13 21  1  0  0  0  0
 13 23  2  0  0  0  0
 14 25  2  0  0  0  0
 14 26  1  0  0  0  0
 15 28  1  0  0  0  0
 15 65  2  0  0  0  0
 16 27  1  0  0  0  0
 17 27  1  0  0  0  0
 17 31  2  0  0  0  0
 17 32  1  0  0  0  0
 18 20  2  0  0  0  0
 18 37  1  0  0  0  0
 19 21  2  0  0  0  0
 19 38  1  0  0  0  0
 20 46  1  0  0  0  0
 21 39  1  0  0  0  0
 22 82  1  0  0  0  0
 23 83  1  0  0  0  0
 24 26  2  0  0  0  0
 24 82  1  0  0  0  0
 25 84  1  0  0  0  0
 26 85  1  0  0  0  0
 27 66  2  0  0  0  0
 28 57  1  0  0  0  0
 28 67  2  0  0  0  0
 29 30  2  0  0  0  0
 29 58  1  0  0  0  0
 29 67  1  0  0  0  0
 30 60  1  0  0  0  0
 30 65  1  0  0  0  0
 31 68  1  0  0  0  0
 31 71  1  0  0  0  0
 32 72  1  0  0  0  0
 32 77  2  0  0  0  0
 33 47  1  0  0  0  0
 33 73  1  0  0  0  0
 33 78  2  0  0  0  0
 34 61  1  0  0  0  0
 34 69  1  0  0  0  0
 34 79  2  0  0  0  0
 35 62  1  0  0  0  0
 35 74  1  0  0  0  0
 35 80  2  0  0  0  0
 36 70  1  0  0  0  0
 36 75  1  0  0  0  0
 36 81  2  0  0  0  0
 37 40  1  0  0  0  0
 38 47  1  0  0  0  0
 39 69  1  0  0  0  0
 40 42  1  0  0  0  0
 41 43  1  0  0  0  0
 41 44  1  0  0  0  0
 42 46  1  0  0  0  0
 43 48  1  0  0  0  0
 44 70  1  0  0  0  0
 45 48  1  0  0  0  0
 45 70  1  0  0  0  0
 46 73  1  0  0  0  0
 47 69  1  0  0  0  0
 48 68  1  0  0  0  0
 49 58  1  0  0  0  0
 50 60  1  0  0  0  0
 51 62  1  0  0  0  0
 52 63  1  0  0  0  0
 53 64  1  0  0  0  0
 54 64  1  0  0  0  0
 55 64  1  0  0  0  0
 56 76  1  0  0  0  0
 57 63  1  0  0  0  0
 59 60  1  0  0  0  0
 59 83  1  0  0  0  0
 61 64  1  0  0  0  0
 61 74  1  0  0  0  0
 62 76  1  0  0  0  0
 63 75  1  0  0  0  0
 66 68  1  0  0  0  0
M  CHG  1  76   1
M  ISO  4  36 100  59 101  75 100  83 101
M  END
> <Batch ID>
0073

> <Smiles>
CCc1nc(CC(C)[100NH:0][100C:0](=O)N2CCCC(n3nc(-c4ccc(Oc5ccc(F)cc5F)cc4)c(C(N)=O)c3N)C2)cnc1C(C)[101CH2:1][101O:1]c1ccc2c(c1)CN(C(=O)C(NC(=O)C(C)NC)C(C)(C)C)C(C(=O)NC1CCCc3ccccc31)C2

> <Shape>
0.224

> <Color>
0.068

> <Negative vol penalty>
0.000

$$$$

  -OEChem-04052318273D

 89 97  0     1  0  0  0  0  0999 V2000
  -32.2294  -12.7048   21.2821 C   0  0  0  0  0  0  0  0  0  0  0  0
  -31.4107  -13.4070   22.1593 C   0  0  0  0  0  0  0  0  0  0  0  0
  -22.2369  -27.9468   21.0603 C   0  0  0  0  0  0  0  0  0  0  0  0
  -23.6143  -27.9593   23.0451 C   0  0  0  0  0  0  0  0  0  0  0  0
  -31.7366  -12.3092   20.0403 C   0  0  0  0  0  0  0  0  0  0  0  0
  -30.0954  -13.7035   21.8000 C   0  0  0  0  0  0  0  0  0  0  0  0
  -25.8357  -16.9583   24.6963 C   0  0  0  0  0  0  0  0  0  0  0  0
  -21.0917  -27.9007   21.8552 C   0  0  0  0  0  0  0  0  0  0  0  0
  -22.4690  -27.9133   23.8401 C   0  0  0  0  0  0  0  0  0  0  0  0
  -25.3946  -18.2805   24.7267 C   0  0  0  0  0  0  0  0  0  0  0  0
  -19.2346  -30.0618   23.6756 C   0  0  0  0  0  0  0  0  0  0  0  0
  -18.1791  -30.9103   23.3416 C   0  0  0  0  0  0  0  0  0  0  0  0
  -23.6479  -17.7275   23.1576 C   0  0  0  0  0  0  0  0  0  0  0  0
  -16.7378  -28.9959   23.0335 C   0  0  0  0  0  0  0  0  0  0  0  0
  -23.4982  -27.9760   21.6552 C   0  0  0  0  0  0  0  0  0  0  0  0
  -25.3463  -29.1721   20.3663 C   0  0  0  0  0  0  0  0  0  0  0  0
  -30.4184  -12.6122   19.6614 C   0  0  0  0  0  0  0  0  0  0  0  0
  -25.1918  -16.0116   23.8866 C   0  0  0  0  0  0  0  0  0  0  0  0
  -29.5722  -13.2920   20.5609 C   0  0  0  0  0  0  0  0  0  0  0  0
  -24.0811  -16.3933   23.1206 C   0  0  0  0  0  0  0  0  0  0  0  0
  -21.2077  -27.8840   23.2451 C   0  0  0  0  0  0  0  0  0  0  0  0
  -24.3024  -18.6660   23.9551 C   0  0  0  0  0  0  0  0  0  0  0  0
  -19.0417  -28.6804   23.6885 C   0  0  0  0  0  0  0  0  0  0  0  0
  -16.9307  -30.3773   23.0205 C   0  0  0  0  0  0  0  0  0  0  0  0
  -17.7933  -28.1474   23.3675 C   0  0  0  0  0  0  0  0  0  0  0  0
  -24.6816  -28.0229   20.8346 C   0  0  0  0  0  0  0  0  0  0  0  0
  -26.4031  -28.6844   19.6371 C   0  0  0  0  0  0  0  0  0  0  0  0
  -25.8645  -21.9744   21.8999 C   0  0  0  0  0  0  0  0  0  0  0  0
  -25.3354  -22.8511   22.7622 C   0  0  0  0  0  0  0  0  0  0  0  0
  -26.2090  -23.9877   23.2074 C   0  0  0  0  0  0  0  0  0  0  0  0
  -27.9158  -23.1439   21.8591 C   0  0  0  0  0  0  0  0  0  0  0  0
  -25.0363  -30.5568   20.5722 C   0  0  0  0  0  0  0  0  0  0  0  0
  -26.0662  -14.1982   21.4268 C   0  0  0  0  0  0  0  0  0  0  0  0
  -23.1000  -12.9399   21.8017 C   0  0  0  0  0  0  0  0  0  0  0  0
  -29.3615  -23.4586   19.8624 C   0  0  0  0  0  0  0  0  0  0  0  0
  -19.9070  -13.3370   22.9393 C   0  0  0  0  0  0  0  0  0  0  0  0
  -29.9342  -12.1531   18.3086 C   0  0  0  0  0  0  0  0  0  0  0  0
  -25.6633  -14.5832   23.8855 C   0  0  0  0  0  0  0  0  0  0  0  0
  -23.3426  -15.4108   22.2502 C   0  0  0  0  0  0  0  0  0  0  0  0
  -28.6850  -12.8932   17.8418 C   0  0  0  0  0  0  0  0  0  0  0  0
  -27.7354  -24.9160   17.0213 C   0  0  0  0  0  0  0  0  0  0  0  0
  -27.6387  -12.8951   18.9463 C   0  0  0  0  0  0  0  0  0  0  0  0
  -26.8075  -25.9627   17.6365 C   0  0  0  0  0  0  0  0  0  0  0  0
  -27.8570  -23.6843   17.9131 C   0  0  0  0  0  0  0  0  0  0  0  0
  -27.3646  -25.0332   19.9280 C   0  0  0  0  0  0  0  0  0  0  0  0
  -28.1477  -13.6523   20.1794 C   0  0  1  0  0  0  0  0  0  0  0  0
  -25.2515  -13.8191   22.6310 C   0  0  1  0  0  0  0  0  0  0  0  0
  -27.2381  -26.3068   19.0734 C   0  0  2  0  0  0  0  0  0  0  0  0
  -17.7000  -12.1496   23.0689 C   0  0  0  0  0  0  0  0  0  0  0  0
  -30.1139  -22.0575   21.7602 C   0  0  0  0  0  0  0  0  0  0  0  0
  -29.9401  -24.5526   22.0043 C   0  0  0  0  0  0  0  0  0  0  0  0
  -27.5340  -18.2053   19.2430 C   0  0  0  0  0  0  0  0  0  0  0  0
  -29.0396  -17.4365   21.0945 C   0  0  0  0  0  0  0  0  0  0  0  0
  -29.8121  -19.1990   19.5002 C   0  0  0  0  0  0  0  0  0  0  0  0
  -22.6146  -13.5249   18.8467 C   0  0  0  0  0  0  0  0  0  0  0  0
  -20.1643  -13.2199   19.2605 C   0  0  0  0  0  0  0  0  0  0  0  0
  -21.7361  -11.3188   19.6314 C   0  0  0  0  0  0  0  0  0  0  0  0
  -19.9196  -13.3919   25.8983 C   0  0  0  0  0  0  0  0  0  0  0  0
  -23.9469  -22.7643   23.2974 C   0  0  0  0  0  0  0  0  0  0  0  0
  -23.9343  -22.2364   24.7282 C   0  0  0  0  0  0  0  0  0  0  0  0
  -28.0461  -19.7811   21.1784 C   0  0  0  0  0  0  0  0  0  0  0  0
  -27.6711  -21.0815   20.4691 C   0  0  0  0  0  0  0  0  0  0  0  0
  -24.5825  -20.8620   24.8240 C   0  0  0  0  0  0  0  0  0  1  0  0
  -21.7280  -13.2555   21.2566 C   0  0  1  0  0  0  0  0  0  0  0  0
  -19.0161  -12.4357   23.7751 C   0  0  2  0  0  0  0  0  0  0  0  0
  -29.3367  -23.3078   21.3626 C   0  0  0  0  0  0  0  0  0  0  0  0
  -28.5915  -18.6518   20.2659 C   0  0  0  0  0  0  0  0  0  0  0  0
  -21.5756  -12.8490   19.7636 C   0  0  0  0  0  0  0  0  0  0  0  0
  -25.2669  -26.8904   20.4361 N   0  0  0  0  0  0  0  0  0  0  0  0
  -27.4938  -24.0500   22.6973 N   0  0  0  0  0  0  0  0  0  0  0  0
  -26.3105  -27.3256   19.7098 N   0  0  0  0  0  0  0  0  0  0  0  0
  -27.1515  -22.0672   21.4114 N   0  0  0  0  0  0  0  0  0  0  0  0
  -23.8456  -14.0275   22.2782 N   0  0  0  0  0  0  0  0  0  0  0  0
  -28.2458  -24.0553   19.2748 N   0  0  0  0  0  0  0  0  0  0  0  0
  -27.3931  -29.2895   18.9471 N   0  0  0  0  0  0  0  0  0  0  0  0
  -23.9149  -30.8823   21.3473 N   0  0  0  0  0  0  0  0  0  0  0  0
  -27.2201  -13.4541   21.2712 N   0  0  0  0  0  0  0  0  0  0  0  0
  -20.7745  -12.6096   22.1521 N   0  0  0  0  0  0  0  0  0  0  0  0
  -18.7160  -13.0764   25.0868 N   0  3  0  0  0  0  0  0  0  0  0  0
  -25.7668  -24.8173   23.9983 O   0  0  0  0  0  0  0  0  0  0  0  0
  -25.7236  -31.4780   20.0696 O   0  0  0  0  0  0  0  0  0  0  0  0
  -25.6760  -15.0982   20.6922 O   0  0  0  0  0  0  0  0  0  0  0  0
  -23.4926  -11.7706   21.8112 O   0  0  0  0  0  0  0  0  0  0  0  0
  -30.3453  -23.0600   19.2334 O   0  0  0  0  0  0  0  0  0  0  0  0
  -19.8376  -14.5634   22.9780 O   0  0  0  0  0  0  0  0  0  0  0  0
  -20.0904  -27.8394   24.0212 O   0  0  0  0  0  0  0  0  0  0  0  0
  -23.8702  -19.9561   23.9824 O   0  0  0  0  0  0  0  0  0  1  0  0
  -15.9167  -31.1923   22.7013 F   0  0  0  0  0  0  0  0  0  0  0  0
  -17.6017  -26.8212   23.3794 F   0  0  0  0  0  0  0  0  0  0  0  0
  1  2  1  0  0  0  0
  1  5  2  0  0  0  0
  2  6  2  0  0  0  0
  3  8  2  0  0  0  0
  3 15  1  0  0  0  0
  4  9  1  0  0  0  0
  4 15  2  0  0  0  0
  5 17  1  0  0  0  0
  6 19  1  0  0  0  0
  7 10  2  0  0  0  0
  7 18  1  0  0  0  0
  8 21  1  0  0  0  0
  9 21  2  0  0  0  0
 10 22  1  0  0  0  0
 11 12  2  0  0  0  0
 11 23  1  0  0  0  0
 12 24  1  0  0  0  0
 13 20  1  0  0  0  0
 13 22  2  0  0  0  0
 14 24  2  0  0  0  0
 14 25  1  0  0  0  0
 15 26  1  0  0  0  0
 16 26  1  0  0  0  0
 16 27  2  0  0  0  0
 16 32  1  0  0  0  0
 17 19  2  0  0  0  0
 17 37  1  0  0  0  0
 18 20  2  0  0  0  0
 18 38  1  0  0  0  0
 19 46  1  0  0  0  0
 20 39  1  0  0  0  0
 21 86  1  0  0  0  0
 22 87  1  0  0  0  0
 23 25  2  0  0  0  0
 23 86  1  0  0  0  0
 24 88  1  0  0  0  0
 25 89  1  0  0  0  0
 26 69  2  0  0  0  0
 27 71  1  0  0  0  0
 27 75  1  0  0  0  0
 28 29  2  0  0  0  0
 28 72  1  0  0  0  0
 29 30  1  0  0  0  0
 29 59  1  0  0  0  0
 30 70  1  0  0  0  0
 30 80  2  0  0  0  0
 31 66  1  0  0  0  0
 31 70  2  0  0  0  0
 31 72  1  0  0  0  0
 32 76  1  0  0  0  0
 32 81  2  0  0  0  0
 33 47  1  0  0  0  0
 33 77  1  0  0  0  0
 33 82  2  0  0  0  0
 34 64  1  0  0  0  0
 34 73  1  0  0  0  0
 34 83  2  0  0  0  0
 35 66  1  0  0  0  0
 35 74  1  0  0  0  0
 35 84  2  0  0  0  0
 36 65  1  0  0  0  0
 36 78  1  0  0  0  0
 36 85  2  0  0  0  0
 37 40  1  0  0  0  0
 38 47  1  0  0  0  0
 39 73  1  0  0  0  0
 40 42  1  0  0  0  0
 41 43  1  0  0  0  0
 41 44  1  0  0  0  0
 42 46  1  0  0  0  0
 43 48  1  0  0  0  0
 44 74  1  0  0  0  0
 45 48  1  0  0  0  0
 45 74  1  0  0  0  0
 46 77  1  0  0  0  0
 47 73  1  0  0  0  0
 48 71  1  0  0  0  0
 49 65  1  0  0  0  0
 50 66  1  0  0  0  0
 51 66  1  0  0  0  0
 52 67  1  0  0  0  0
 53 67  1  0  0  0  0
 54 67  1  0  0  0  0
 55 68  1  0  0  0  0
 56 68  1  0  0  0  0
 57 68  1  0  0  0  0
 58 79  1  0  0  0  0
 59 60  1  0  0  0  0
 60 63  1  0  0  0  0
 61 62  1  0  0  0  0
 61 67  1  0  0  0  0
 62 72  1  0  0  0  0
 63 87  1  0  0  0  0
 64 68  1  0  0  0  0
 64 78  1  0  0  0  0
 65 79  1  0  0  0  0
 69 71  1  0  0  0  0
M  CHG  1  79   1
M  ISO  4  35 100  63 101  66 100  87 101
M  END
> <Batch ID>
0073

> <Smiles>
CNC(C)C(=O)NC(C(=O)N1Cc2cc([101O:1][101CH2:1]CCc3cn(CCC(C)(C)C)c([100C:0](C)(C)[100C:0](=O)N4CCCC(n5nc(-c6ccc(Oc7ccc(F)cc7F)cc6)c(C(N)=O)c5N)C4)nc3=O)ccc2CC1C(=O)NC1CCCc2ccccc21)C(C)(C)C

> <Shape>
0.273

> <Color>
0.070

> <Negative vol penalty>
0.000

$$$$

  -OEChem-04052318273D

 84 92  0     1  0  0  0  0  0999 V2000
  -29.6364  -36.1599   21.6215 C   0  0  0  0  0  0  0  0  0  0  0  0
  -29.6853  -34.7720   21.5388 C   0  0  0  0  0  0  0  0  0  0  0  0
  -26.9471  -14.8330   21.9386 C   0  0  0  0  0  0  0  0  0  0  0  0
  -26.2323  -15.0937   19.6456 C   0  0  0  0  0  0  0  0  0  0  0  0
  -28.6437  -36.7773   22.3813 C   0  0  0  0  0  0  0  0  0  0  0  0
  -28.7420  -34.0007   22.2168 C   0  0  0  0  0  0  0  0  0  0  0  0
  -26.8911  -30.2466   19.3663 C   0  0  0  0  0  0  0  0  0  0  0  0
  -26.6129  -13.4797   21.8890 C   0  0  0  0  0  0  0  0  0  0  0  0
  -25.8980  -13.7404   19.5959 C   0  0  0  0  0  0  0  0  0  0  0  0
  -27.6902  -29.1154   19.2060 C   0  0  0  0  0  0  0  0  0  0  0  0
  -27.9566  -10.6250   20.6734 C   0  0  0  0  0  0  0  0  0  0  0  0
  -28.8681   -9.7122   21.2040 C   0  0  0  0  0  0  0  0  0  0  0  0
  -26.4005  -27.9725   20.8941 C   0  0  0  0  0  0  0  0  0  0  0  0
  -27.1992   -8.9628   22.7820 C   0  0  0  0  0  0  0  0  0  0  0  0
  -24.8003  -21.9045   17.3540 C   0  0  0  0  0  0  0  0  0  0  0  0
  -24.7467  -23.7439   18.5576 C   0  0  0  0  0  0  0  0  0  0  0  0
  -26.7568  -15.6401   20.8169 C   0  0  0  0  0  0  0  0  0  0  0  0
  -28.3424  -17.6201   20.5468 C   0  0  0  0  0  0  0  0  0  0  0  0
  -27.6820  -36.0135   23.0611 C   0  0  0  0  0  0  0  0  0  0  0  0
  -25.8458  -30.2529   20.3011 C   0  0  0  0  0  0  0  0  0  0  0  0
  -27.7363  -34.6085   22.9875 C   0  0  0  0  0  0  0  0  0  0  0  0
  -25.5880  -29.1041   21.0625 C   0  0  0  0  0  0  0  0  0  0  0  0
  -24.1617  -22.5054   18.4553 C   0  0  0  0  0  0  0  0  0  0  0  0
  -26.0883  -12.9334   20.7176 C   0  0  0  0  0  0  0  0  0  0  0  0
  -27.4468  -27.9791   19.9720 C   0  0  0  0  0  0  0  0  0  0  0  0
  -26.6663  -10.7067   21.1971 C   0  0  0  0  0  0  0  0  0  0  0  0
  -28.4894   -8.8811   22.2583 C   0  0  0  0  0  0  0  0  0  0  0  0
  -26.2876   -9.8756   22.2514 C   0  0  0  0  0  0  0  0  0  0  0  0
  -27.1014  -17.0382   20.8677 C   0  0  0  0  0  0  0  0  0  0  0  0
  -28.1559  -18.9645   20.7569 C   0  0  0  0  0  0  0  0  0  0  0  0
  -29.5554  -17.0007   20.0987 C   0  0  0  0  0  0  0  0  0  0  0  0
  -25.1813  -31.9403   22.9117 C   0  0  0  0  0  0  0  0  0  0  0  0
  -23.2115  -22.3799   20.7431 C   0  0  0  0  0  0  0  0  0  0  0  0
  -22.3912  -30.2898   22.7955 C   0  0  0  0  0  0  0  0  0  0  0  0
  -20.7102  -27.5112   21.7464 C   0  0  0  0  0  0  0  0  0  0  0  0
  -26.6565  -36.7244   23.9082 C   0  0  0  0  0  0  0  0  0  0  0  0
  -24.9761  -31.4719   20.4430 C   0  0  0  0  0  0  0  0  0  0  0  0
  -24.4653  -29.0528   22.0653 C   0  0  0  0  0  0  0  0  0  0  0  0
  -25.4689  -35.8457   24.2924 C   0  0  0  0  0  0  0  0  0  0  0  0
  -25.6076  -22.0335   23.3848 C   0  0  0  0  0  0  0  0  0  0  0  0
  -25.9494  -34.4850   24.7868 C   0  0  0  0  0  0  0  0  0  0  0  0
  -26.3560  -20.7508   23.0247 C   0  0  0  0  0  0  0  0  0  0  0  0
  -24.1349  -21.9487   22.9960 C   0  0  0  0  0  0  0  0  0  0  0  0
  -24.6520  -20.3325   21.1954 C   0  0  0  0  0  0  0  0  0  0  0  0
  -26.7159  -33.7382   23.6885 C   0  0  1  0  0  0  0  0  0  0  0  0
  -24.2635  -31.5440   21.7900 C   0  0  1  0  0  0  0  0  0  0  0  0
  -26.1501  -20.3880   21.5434 C   0  0  2  0  0  0  0  0  0  0  0  0
  -18.4496  -26.4254   21.8364 C   0  0  0  0  0  0  0  0  0  0  0  0
  -29.7378  -24.3975   19.4728 C   0  0  0  0  0  0  0  0  0  0  0  0
  -22.9105  -29.4537   25.6836 C   0  0  0  0  0  0  0  0  0  0  0  0
  -21.1832  -27.6632   25.4025 C   0  0  0  0  0  0  0  0  0  0  0  0
  -20.5368  -30.0626   25.1846 C   0  0  0  0  0  0  0  0  0  0  0  0
  -20.4269  -27.5897   18.8015 C   0  0  0  0  0  0  0  0  0  0  0  0
  -28.0281  -24.7607   17.6751 C   0  0  0  0  0  0  0  0  0  0  0  0
  -26.5716  -24.9708   17.2384 C   0  0  0  0  0  0  0  0  0  0  0  0
  -27.6150  -25.6089   20.0690 C   0  0  0  0  0  0  0  0  0  1  0  0
  -23.1033  -21.9378   19.3055 C   0  0  1  0  0  0  0  0  0  0  0  0
  -21.9022  -28.9758   23.3553 C   0  0  1  0  0  0  0  0  0  0  0  0
  -19.3705  -27.3469   21.0518 C   0  0  2  0  0  0  0  0  0  0  0  0
  -28.2356  -24.5176   19.1863 C   0  0  2  0  0  0  0  0  0  0  0  0
  -21.6770  -22.2262   18.8007 C   0  0  0  0  0  0  0  0  0  0  0  0
  -21.6556  -29.0401   24.8891 C   0  0  0  0  0  0  0  0  0  0  0  0
  -25.7204  -22.6960   16.7965 N   0  0  0  0  0  0  0  0  0  0  0  0
  -26.1936  -17.9392   21.2527 N   0  0  0  0  0  0  0  0  0  0  0  0
  -25.6642  -23.8071   17.5504 N   0  0  0  0  0  0  0  0  0  0  0  0
  -26.8648  -19.1008   21.1750 N   0  0  0  0  0  0  0  0  0  0  0  0
  -23.6469  -30.2719   22.1720 N   0  0  0  0  0  0  0  0  0  0  0  0
  -23.9816  -21.5799   21.5876 N   0  0  0  0  0  0  0  0  0  0  0  0
  -28.9719  -20.0316   20.6231 N   0  0  0  0  0  0  0  0  0  0  0  0
  -29.5741  -15.6088   19.9354 N   0  0  0  0  0  0  0  0  0  0  0  0
  -25.7953  -33.1649   22.7303 N   0  0  0  0  0  0  0  0  0  0  0  0
  -20.7239  -28.6131   22.5753 N   0  0  0  0  0  0  0  0  0  0  0  0
  -19.5603  -26.7729   19.6896 N   0  3  0  0  0  0  0  0  0  0  0  0
  -30.5968  -17.6602   19.8662 O   0  0  0  0  0  0  0  0  0  0  0  0
  -25.3210  -31.1912   23.8714 O   0  0  0  0  0  0  0  0  0  0  0  0
  -22.6306  -23.4074   21.1023 O   0  0  0  0  0  0  0  0  0  0  0  0
  -21.6819  -31.2935   22.9011 O   0  0  0  0  0  0  0  0  0  0  0  0
  -21.6493  -26.7373   21.5741 O   0  0  0  0  0  0  0  0  0  0  0  0
  -25.7623  -11.6129   20.6688 O   0  0  0  0  0  0  0  0  0  0  0  0
  -28.2257  -26.8739   19.8180 O   0  0  0  0  0  0  0  0  0  1  0  0
  -29.3644   -8.0035   22.7667 F   0  0  0  0  0  0  0  0  0  0  0  0
  -25.0491   -9.9487   22.7579 F   0  0  0  0  0  0  0  0  0  0  0  0
  -21.5013  -21.7310   17.5511 F   0  0  0  0  0  0  0  0  0  0  0  0
  -21.4513  -23.5632   18.7234 F   0  0  0  0  0  0  0  0  0  0  0  0
  1  2  1  0  0  0  0
  1  5  2  0  0  0  0
  2  6  2  0  0  0  0
  3  8  2  0  0  0  0
  3 17  1  0  0  0  0
  4  9  1  0  0  0  0
  4 17  2  0  0  0  0
  5 19  1  0  0  0  0
  6 21  1  0  0  0  0
  7 10  2  0  0  0  0
  7 20  1  0  0  0  0
  8 24  1  0  0  0  0
  9 24  2  0  0  0  0
 10 25  1  0  0  0  0
 11 12  2  0  0  0  0
 11 26  1  0  0  0  0
 12 27  1  0  0  0  0
 13 22  1  0  0  0  0
 13 25  2  0  0  0  0
 14 27  2  0  0  0  0
 14 28  1  0  0  0  0
 15 23  1  0  0  0  0
 15 63  2  0  0  0  0
 16 23  2  0  0  0  0
 16 65  1  0  0  0  0
 17 29  1  0  0  0  0
 18 29  1  0  0  0  0
 18 30  2  0  0  0  0
 18 31  1  0  0  0  0
 19 21  2  0  0  0  0
 19 36  1  0  0  0  0
 20 22  2  0  0  0  0
 20 37  1  0  0  0  0
 21 45  1  0  0  0  0
 22 38  1  0  0  0  0
 23 57  1  0  0  0  0
 24 79  1  0  0  0  0
 25 80  1  0  0  0  0
 26 28  2  0  0  0  0
 26 79  1  0  0  0  0
 27 81  1  0  0  0  0
 28 82  1  0  0  0  0
 29 64  2  0  0  0  0
 30 66  1  0  0  0  0
 30 69  1  0  0  0  0
 31 70  1  0  0  0  0
 31 74  2  0  0  0  0
 32 46  1  0  0  0  0
 32 71  1  0  0  0  0
 32 75  2  0  0  0  0
 33 57  1  0  0  0  0
 33 68  1  0  0  0  0
 33 76  2  0  0  0  0
 34 58  1  0  0  0  0
 34 67  1  0  0  0  0
 34 77  2  0  0  0  0
 35 59  1  0  0  0  0
 35 72  1  0  0  0  0
 35 78  2  0  0  0  0
 36 39  1  0  0  0  0
 37 46  1  0  0  0  0
 38 67  1  0  0  0  0
 39 41  1  0  0  0  0
 40 42  1  0  0  0  0
 40 43  1  0  0  0  0
 41 45  1  0  0  0  0
 42 47  1  0  0  0  0
 43 68  1  0  0  0  0
 44 47  1  0  0  0  0
 44 68  1  0  0  0  0
 45 71  1  0  0  0  0
 46 67  1  0  0  0  0
 47 66  1  0  0  0  0
 48 59  1  0  0  0  0
 49 60  1  0  0  0  0
 50 62  1  0  0  0  0
 51 62  1  0  0  0  0
 52 62  1  0  0  0  0
 53 73  1  0  0  0  0
 54 55  1  0  0  0  0
 54 60  1  0  0  0  0
 55 65  1  0  0  0  0
 56 60  1  0  0  0  0
 56 80  1  0  0  0  0
 57 61  1  0  0  0  0
 58 62  1  0  0  0  0
 58 72  1  0  0  0  0
 59 73  1  0  0  0  0
 61 83  1  0  0  0  0
 61 84  1  0  0  0  0
 63 65  1  0  0  0  0
 64 66  1  0  0  0  0
M  CHG  1  73   1
M  ISO  4  33 100  56 101  57 100  80 101
M  END
> <Batch ID>
0073

> <Smiles>
CNC(C)C(=O)NC(C(=O)N1Cc2cc([101O:1][101CH2:1]C(C)CCn3cc([100CH:0](C(F)F)[100C:0](=O)N4CCCC(n5nc(-c6ccc(Oc7ccc(F)cc7F)cc6)c(C(N)=O)c5N)C4)cn3)ccc2CC1C(=O)NC1CCCc2ccccc21)C(C)(C)C

> <Shape>
0.232

> <Color>
0.099

> <Negative vol penalty>
0.000

$$$$

  -OEChem-04052318273D

 84 92  0     1  0  0  0  0  0999 V2000
  -28.2034  -24.1423   17.1062 C   0  0  0  0  0  0  0  0  0  0  0  0
  -27.0182  -24.3591   17.8015 C   0  0  0  0  0  0  0  0  0  0  0  0
  -19.5690  -25.1034   24.9194 C   0  0  0  0  0  0  0  0  0  0  0  0
  -27.7916  -15.0399   19.9999 C   0  0  0  0  0  0  0  0  0  0  0  0
  -25.4476  -15.4489   19.5808 C   0  0  0  0  0  0  0  0  0  0  0  0
  -29.3948  -24.6973   17.5715 C   0  0  0  0  0  0  0  0  0  0  0  0
  -27.0238  -25.1303   18.9633 C   0  0  0  0  0  0  0  0  0  0  0  0
  -23.1993  -28.4464   19.1121 C   0  0  0  0  0  0  0  0  0  0  0  0
  -27.5048  -13.7096   20.3058 C   0  0  0  0  0  0  0  0  0  0  0  0
  -25.1608  -14.1185   19.8867 C   0  0  0  0  0  0  0  0  0  0  0  0
  -21.9413  -27.9526   19.4546 C   0  0  0  0  0  0  0  0  0  0  0  0
  -26.8457  -10.8527   18.6215 C   0  0  0  0  0  0  0  0  0  0  0  0
  -27.6705   -9.8696   18.0750 C   0  0  0  0  0  0  0  0  0  0  0  0
  -20.6977  -24.2991   24.8078 C   0  0  0  0  0  0  0  0  0  0  0  0
  -18.9298  -25.5580   23.7712 C   0  0  0  0  0  0  0  0  0  0  0  0
  -22.2433  -28.7625   21.7068 C   0  0  0  0  0  0  0  0  0  0  0  0
  -28.2621   -9.1302   20.2977 C   0  0  0  0  0  0  0  0  0  0  0  0
  -26.7630  -15.9096   19.6374 C   0  0  0  0  0  0  0  0  0  0  0  0
  -27.3771  -17.8167   18.0583 C   0  0  0  0  0  0  0  0  0  0  0  0
  -29.4133  -25.4838   18.7342 C   0  0  0  0  0  0  0  0  0  0  0  0
  -23.9947  -29.0935   20.0688 C   0  0  0  0  0  0  0  0  0  0  0  0
  -28.2167  -25.6954   19.4453 C   0  0  0  0  0  0  0  0  0  0  0  0
  -23.5100  -29.2659   21.3732 C   0  0  0  0  0  0  0  0  0  0  0  0
  -26.1895  -13.2489   20.2491 C   0  0  0  0  0  0  0  0  0  0  0  0
  -21.4644  -28.1080   20.7529 C   0  0  0  0  0  0  0  0  0  0  0  0
  -26.7292  -10.9747   20.0062 C   0  0  0  0  0  0  0  0  0  0  0  0
  -28.3787   -9.0083   18.9130 C   0  0  0  0  0  0  0  0  0  0  0  0
  -27.4374  -10.1134   20.8442 C   0  0  0  0  0  0  0  0  0  0  0  0
  -27.0585  -17.2841   19.3219 C   0  0  0  0  0  0  0  0  0  0  0  0
  -21.1437  -23.9804   23.5353 C   0  0  0  0  0  0  0  0  0  0  0  0
  -19.4551  -25.1831   22.5451 C   0  0  0  0  0  0  0  0  0  0  0  0
  -27.5689  -19.1570   18.2891 C   0  0  0  0  0  0  0  0  0  0  0  0
  -27.4896  -17.1587   16.7895 C   0  0  0  0  0  0  0  0  0  0  0  0
  -26.8405  -28.5337   21.3694 C   0  0  0  0  0  0  0  0  0  0  0  0
  -26.3498  -31.4319   22.7413 C   0  0  0  0  0  0  0  0  0  0  0  0
  -24.1309  -33.8124   23.7692 C   0  0  0  0  0  0  0  0  0  0  0  0
  -25.5592  -22.8958   22.5121 C   0  0  0  0  0  0  0  0  0  0  0  0
  -30.7335  -26.0236   19.2244 C   0  0  0  0  0  0  0  0  0  0  0  0
  -25.3383  -29.6441   19.6764 C   0  0  0  0  0  0  0  0  0  0  0  0
  -24.3163  -29.9710   22.4320 C   0  0  0  0  0  0  0  0  0  0  0  0
  -30.5899  -27.1391   20.2566 C   0  0  0  0  0  0  0  0  0  0  0  0
  -28.9575  -22.2077   21.7031 C   0  0  0  0  0  0  0  0  0  0  0  0
  -29.5639  -26.7554   21.3181 C   0  0  0  0  0  0  0  0  0  0  0  0
  -28.8849  -20.9159   20.8871 C   0  0  0  0  0  0  0  0  0  0  0  0
  -27.9229  -22.2247   22.8262 C   0  0  0  0  0  0  0  0  0  0  0  0
  -26.4630  -20.6806   21.5780 C   0  0  0  0  0  0  0  0  0  0  0  0
  -28.1779  -26.5467   20.6958 C   0  0  1  0  0  0  0  0  0  0  0  0
  -26.2771  -29.8318   20.8642 C   0  0  1  0  0  0  0  0  0  0  0  0
  -27.4499  -20.6410   20.3988 C   0  0  2  0  0  0  0  0  0  0  0  0
  -21.9945  -21.6182   23.3942 C   0  0  0  0  0  0  0  0  0  0  0  0
  -24.0265  -36.0554   24.8896 C   0  0  0  0  0  0  0  0  0  0  0  0
  -17.5294  -26.5536   21.5000 C   0  0  0  0  0  0  0  0  0  0  0  0
  -18.2971  -24.4400   20.4413 C   0  0  0  0  0  0  0  0  0  0  0  0
  -26.8898  -30.1079   25.4368 C   0  0  0  0  0  0  0  0  0  0  0  0
  -25.8597  -32.1029   26.5445 C   0  0  0  0  0  0  0  0  0  0  0  0
  -27.9183  -32.3708   25.1614 C   0  0  0  0  0  0  0  0  0  0  0  0
  -22.8700  -35.0651   21.4028 C   0  0  0  0  0  0  0  0  0  0  0  0
  -23.1715  -23.4357   22.1036 C   0  0  0  0  0  0  0  0  0  0  0  0
  -19.7756  -26.4742   20.3858 C   0  0  0  0  0  0  0  0  0  1  0  0
  -22.3520  -23.1187   23.3776 C   0  0  1  0  0  0  0  0  0  0  0  0
  -25.7089  -31.9147   24.0201 C   0  0  1  0  0  0  0  0  0  0  0  0
  -24.0991  -35.3160   23.5627 C   0  0  2  0  0  0  0  0  0  0  0  0
  -18.7737  -25.6674   21.2516 C   0  0  0  0  0  0  0  0  0  0  0  0
  -26.5796  -31.6091   25.2715 C   0  0  0  0  0  0  0  0  0  0  0  0
  -27.0476  -18.2105   20.2841 N   0  0  0  0  0  0  0  0  0  0  0  0
  -20.5494  -24.4032   22.3970 N   0  0  0  0  0  0  0  0  0  0  0  0
  -27.3618  -19.3387   19.6249 N   0  0  0  0  0  0  0  0  0  0  0  0
  -25.6264  -30.4862   22.0011 N   0  0  0  0  0  0  0  0  0  0  0  0
  -26.5834  -21.9591   22.2962 N   0  0  0  0  0  0  0  0  0  0  0  0
  -27.8928  -20.1861   17.4776 N   0  0  0  0  0  0  0  0  0  0  0  0
  -27.2600  -15.7773   16.7305 N   0  0  0  0  0  0  0  0  0  0  0  0
  -27.5500  -27.8215   20.4215 N   0  0  0  0  0  0  0  0  0  0  0  0
  -25.4221  -33.3315   23.8233 N   0  0  0  0  0  0  0  0  0  0  0  0
  -24.3217  -22.5696   21.9708 N   0  0  0  0  0  0  0  0  0  0  0  0
  -22.9147  -35.7016   22.7445 N   0  3  0  0  0  0  0  0  0  0  0  0
  -27.8012  -17.7745   15.7420 O   0  0  0  0  0  0  0  0  0  0  0  0
  -26.6471  -28.2036   22.5336 O   0  0  0  0  0  0  0  0  0  0  0  0
  -27.4485  -31.8828   22.4078 O   0  0  0  0  0  0  0  0  0  0  0  0
  -23.1123  -33.1330   23.8759 O   0  0  0  0  0  0  0  0  0  0  0  0
  -25.7359  -23.9476   23.1360 O   0  0  0  0  0  0  0  0  0  0  0  0
  -25.9093  -11.9508   20.5473 O   0  0  0  0  0  0  0  0  0  0  0  0
  -20.2371  -27.6263   21.0900 O   0  0  0  0  0  0  0  0  0  1  0  0
  -29.1695   -8.0633   18.3880 F   0  0  0  0  0  0  0  0  0  0  0  0
  -27.3285  -10.2250   22.1752 F   0  0  0  0  0  0  0  0  0  0  0  0
  1  2  1  0  0  0  0
  1  6  2  0  0  0  0
  2  7  2  0  0  0  0
  3 14  1  0  0  0  0
  3 15  2  0  0  0  0
  4  9  2  0  0  0  0
  4 18  1  0  0  0  0
  5 10  1  0  0  0  0
  5 18  2  0  0  0  0
  6 20  1  0  0  0  0
  7 22  1  0  0  0  0
  8 11  2  0  0  0  0
  8 21  1  0  0  0  0
  9 24  1  0  0  0  0
 10 24  2  0  0  0  0
 11 25  1  0  0  0  0
 12 13  2  0  0  0  0
 12 26  1  0  0  0  0
 13 27  1  0  0  0  0
 14 30  2  0  0  0  0
 15 31  1  0  0  0  0
 16 23  1  0  0  0  0
 16 25  2  0  0  0  0
 17 27  2  0  0  0  0
 17 28  1  0  0  0  0
 18 29  1  0  0  0  0
 19 29  1  0  0  0  0
 19 32  2  0  0  0  0
 19 33  1  0  0  0  0
 20 22  2  0  0  0  0
 20 38  1  0  0  0  0
 21 23  2  0  0  0  0
 21 39  1  0  0  0  0
 22 47  1  0  0  0  0
 23 40  1  0  0  0  0
 24 81  1  0  0  0  0
 25 82  1  0  0  0  0
 26 28  2  0  0  0  0
 26 81  1  0  0  0  0
 27 83  1  0  0  0  0
 28 84  1  0  0  0  0
 29 65  2  0  0  0  0
 30 60  1  0  0  0  0
 30 66  1  0  0  0  0
 31 63  1  0  0  0  0
 31 66  2  0  0  0  0
 32 67  1  0  0  0  0
 32 70  1  0  0  0  0
 33 71  1  0  0  0  0
 33 76  2  0  0  0  0
 34 48  1  0  0  0  0
 34 72  1  0  0  0  0
 34 77  2  0  0  0  0
 35 61  1  0  0  0  0
 35 68  1  0  0  0  0
 35 78  2  0  0  0  0
 36 62  1  0  0  0  0
 36 73  1  0  0  0  0
 36 79  2  0  0  0  0
 37 69  1  0  0  0  0
 37 74  1  0  0  0  0
 37 80  2  0  0  0  0
 38 41  1  0  0  0  0
 39 48  1  0  0  0  0
 40 68  1  0  0  0  0
 41 43  1  0  0  0  0
 42 44  1  0  0  0  0
 42 45  1  0  0  0  0
 43 47  1  0  0  0  0
 44 49  1  0  0  0  0
 45 69  1  0  0  0  0
 46 49  1  0  0  0  0
 46 69  1  0  0  0  0
 47 72  1  0  0  0  0
 48 68  1  0  0  0  0
 49 67  1  0  0  0  0
 50 60  1  0  0  0  0
 51 62  1  0  0  0  0
 52 63  1  0  0  0  0
 53 63  1  0  0  0  0
 54 64  1  0  0  0  0
 55 64  1  0  0  0  0
 56 64  1  0  0  0  0
 57 75  1  0  0  0  0
 58 60  1  0  0  0  0
 58 74  1  0  0  0  0
 59 63  1  0  0  0  0
 59 82  1  0  0  0  0
 61 64  1  0  0  0  0
 61 73  1  0  0  0  0
 62 75  1  0  0  0  0
 65 67  1  0  0  0  0
M  CHG  1  75   1
M  ISO  4  37 100  59 101  74 100  82 101
M  END
> <Batch ID>
0073

> <Smiles>
CNC(C)C(=O)NC(C(=O)N1Cc2cc([101O:1][101CH2:1]C(C)(C)c3cccc(C(C)C[100NH:0][100C:0](=O)N4CCCC(n5nc(-c6ccc(Oc7ccc(F)cc7F)cc6)c(C(N)=O)c5N)C4)n3)ccc2CC1C(=O)NC1CCCc2ccccc21)C(C)(C)C

> <Shape>
0.277

> <Color>
0.067

> <Negative vol penalty>
0.000

$$$$

  -OEChem-04052318273D

 81 89  0     1  0  0  0  0  0999 V2000
  -26.8808  -30.7955   30.4633 C   0  0  0  0  0  0  0  0  0  0  0  0
  -27.5119  -29.6774   29.9277 C   0  0  0  0  0  0  0  0  0  0  0  0
  -23.1006   -9.8583   21.4220 C   0  0  0  0  0  0  0  0  0  0  0  0
  -23.8882  -10.7047   23.5434 C   0  0  0  0  0  0  0  0  0  0  0  0
  -25.8805  -31.4435   29.7397 C   0  0  0  0  0  0  0  0  0  0  0  0
  -27.1423  -29.2059   28.6685 C   0  0  0  0  0  0  0  0  0  0  0  0
  -30.7996  -26.6429   24.4779 C   0  0  0  0  0  0  0  0  0  0  0  0
  -22.3889   -8.8586   22.0851 C   0  0  0  0  0  0  0  0  0  0  0  0
  -23.1764   -9.7051   24.2065 C   0  0  0  0  0  0  0  0  0  0  0  0
  -31.0524  -25.3140   24.1405 C   0  0  0  0  0  0  0  0  0  0  0  0
  -20.6533   -5.8642   23.2009 C   0  0  0  0  0  0  0  0  0  0  0  0
  -20.7308   -4.5666   22.6952 C   0  0  0  0  0  0  0  0  0  0  0  0
  -29.4253  -25.4614   22.3657 C   0  0  0  0  0  0  0  0  0  0  0  0
  -23.1232   -4.5781   23.0320 C   0  0  0  0  0  0  0  0  0  0  0  0
  -30.7906  -18.1704   19.7590 C   0  0  0  0  0  0  0  0  0  0  0  0
  -23.8504  -10.7813   22.1511 C   0  0  0  0  0  0  0  0  0  0  0  0
  -24.1276  -13.0999   21.1241 C   0  0  0  0  0  0  0  0  0  0  0  0
  -25.5052  -30.9855   28.4669 C   0  0  0  0  0  0  0  0  0  0  0  0
  -29.8482  -27.3890   23.7675 C   0  0  0  0  0  0  0  0  0  0  0  0
  -26.1352  -29.8476   27.9278 C   0  0  0  0  0  0  0  0  0  0  0  0
  -29.1641  -26.8003   22.6944 C   0  0  0  0  0  0  0  0  0  0  0  0
  -31.8352  -19.0311   19.9927 C   0  0  0  0  0  0  0  0  0  0  0  0
  -22.4268   -8.7820   23.4773 C   0  0  0  0  0  0  0  0  0  0  0  0
  -30.3631  -24.7221   23.0861 C   0  0  0  0  0  0  0  0  0  0  0  0
  -21.8108   -6.5189   23.6221 C   0  0  0  0  0  0  0  0  0  0  0  0
  -21.9657   -3.9235   22.6107 C   0  0  0  0  0  0  0  0  0  0  0  0
  -23.0457   -5.8758   23.5377 C   0  0  0  0  0  0  0  0  0  0  0  0
  -24.5863  -11.8138   21.4667 C   0  0  0  0  0  0  0  0  0  0  0  0
  -32.5216  -18.4636   21.0829 C   0  0  0  0  0  0  0  0  0  0  0  0
  -25.1962  -13.6888   20.4933 C   0  0  0  0  0  0  0  0  0  0  0  0
  -22.8499  -13.7079   21.3553 C   0  0  0  0  0  0  0  0  0  0  0  0
  -27.1152  -28.8304   24.5134 C   0  0  0  0  0  0  0  0  0  0  0  0
  -30.6784  -14.7839   20.3044 C   0  0  0  0  0  0  0  0  0  0  0  0
  -27.2963  -29.8999   21.4563 C   0  0  0  0  0  0  0  0  0  0  0  0
  -28.5062  -29.4513   18.2970 C   0  0  0  0  0  0  0  0  0  0  0  0
  -24.3858  -31.6905   27.7427 C   0  0  0  0  0  0  0  0  0  0  0  0
  -29.6064  -28.8295   24.1267 C   0  0  0  0  0  0  0  0  0  0  0  0
  -28.1476  -27.5642   21.8871 C   0  0  0  0  0  0  0  0  0  0  0  0
  -24.3134  -31.3513   26.2561 C   0  0  0  0  0  0  0  0  0  0  0  0
  -29.5407  -11.7227   18.8297 C   0  0  0  0  0  0  0  0  0  0  0  0
  -24.4311  -29.8451   26.0458 C   0  0  0  0  0  0  0  0  0  0  0  0
  -28.1240  -11.5639   19.3801 C   0  0  0  0  0  0  0  0  0  0  0  0
  -30.4705  -12.3609   19.8569 C   0  0  0  0  0  0  0  0  0  0  0  0
  -28.5668  -13.5142   20.9373 C   0  0  0  0  0  0  0  0  0  0  0  0
  -25.7793  -29.3207   26.5545 C   0  0  1  0  0  0  0  0  0  0  0  0
  -28.2452  -29.3402   23.6645 C   0  0  1  0  0  0  0  0  0  0  0  0
  -27.5877  -12.9014   19.9204 C   0  0  2  0  0  0  0  0  0  0  0  0
  -33.7298  -18.9742   21.7541 C   0  0  0  0  0  0  0  0  0  0  0  0
  -28.4519  -30.4691   16.0038 C   0  0  0  0  0  0  0  0  0  0  0  0
  -24.4831  -28.7959   21.0357 C   0  0  0  0  0  0  0  0  0  0  0  0
  -24.8575  -28.9747   18.5666 C   0  0  0  0  0  0  0  0  0  0  0  0
  -24.8963  -31.0270   19.9840 C   0  0  0  0  0  0  0  0  0  0  0  0
  -31.4331  -29.8902   18.2959 C   0  0  0  0  0  0  0  0  0  0  0  0
  -32.1620  -20.2974   19.2420 C   0  0  0  0  0  0  0  0  0  0  0  0
  -30.0374  -16.0392   20.8405 C   0  0  0  0  0  0  0  0  0  0  0  0
  -31.2543  -21.4800   19.5981 C   0  0  0  0  0  0  0  0  0  0  0  0
  -31.3783  -21.9108   21.0603 C   0  0  0  0  0  0  0  0  0  0  0  0
  -30.4343  -23.0602   21.3865 C   0  0  0  0  0  0  0  0  0  1  0  0
  -26.8208  -29.3927   20.1163 C   0  0  1  0  0  0  0  0  0  0  0  0
  -29.1868  -30.4072   17.3338 C   0  0  2  0  0  0  0  0  0  0  0  0
  -25.2821  -29.5323   19.9419 C   0  0  0  0  0  0  0  0  0  0  0  0
  -25.8479  -11.5977   21.0851 N   0  0  0  0  0  0  0  0  0  0  0  0
  -31.9603  -17.3302   21.5122 N   0  0  0  0  0  0  0  0  0  0  0  0
  -30.9100  -17.1786   20.6875 N   0  0  0  0  0  0  0  0  0  0  0  0
  -26.1911  -12.7559   20.4961 N   0  0  0  0  0  0  0  0  0  0  0  0
  -27.9418  -28.9678   22.2812 N   0  0  0  0  0  0  0  0  0  0  0  0
  -29.9151  -13.6176   20.3623 N   0  0  0  0  0  0  0  0  0  0  0  0
  -25.3724  -14.9084   19.9421 N   0  0  0  0  0  0  0  0  0  0  0  0
  -21.8652  -12.9622   22.0176 N   0  0  0  0  0  0  0  0  0  0  0  0
  -26.8301  -29.6254   25.6071 N   0  0  0  0  0  0  0  0  0  0  0  0
  -27.6031  -30.1026   19.1101 N   0  0  0  0  0  0  0  0  0  0  0  0
  -30.5887  -29.9723   17.0763 N   0  3  0  0  0  0  0  0  0  0  0  0
  -22.5837  -14.8720   20.9711 O   0  0  0  0  0  0  0  0  0  0  0  0
  -26.5432  -27.7934   24.1986 O   0  0  0  0  0  0  0  0  0  0  0  0
  -31.8223  -14.8408   19.8456 O   0  0  0  0  0  0  0  0  0  0  0  0
  -27.1086  -31.0814   21.7571 O   0  0  0  0  0  0  0  0  0  0  0  0
  -28.7487  -28.2467   18.3226 O   0  0  0  0  0  0  0  0  0  0  0  0
  -21.7322   -7.8068   24.1247 O   0  0  0  0  0  0  0  0  0  0  0  0
  -30.6075  -23.4250   22.7552 O   0  0  0  0  0  0  0  0  0  1  0  0
  -22.0397   -2.6769   22.1265 F   0  0  0  0  0  0  0  0  0  0  0  0
  -24.1610   -6.4991   23.9420 F   0  0  0  0  0  0  0  0  0  0  0  0
  1  2  1  0  0  0  0
  1  5  2  0  0  0  0
  2  6  2  0  0  0  0
  3  8  2  0  0  0  0
  3 16  1  0  0  0  0
  4  9  1  0  0  0  0
  4 16  2  0  0  0  0
  5 18  1  0  0  0  0
  6 20  1  0  0  0  0
  7 10  2  0  0  0  0
  7 19  1  0  0  0  0
  8 23  1  0  0  0  0
  9 23  2  0  0  0  0
 10 24  1  0  0  0  0
 11 12  2  0  0  0  0
 11 25  1  0  0  0  0
 12 26  1  0  0  0  0
 13 21  1  0  0  0  0
 13 24  2  0  0  0  0
 14 26  2  0  0  0  0
 14 27  1  0  0  0  0
 15 22  2  0  0  0  0
 15 64  1  0  0  0  0
 16 28  1  0  0  0  0
 17 28  1  0  0  0  0
 17 30  2  0  0  0  0
 17 31  1  0  0  0  0
 18 20  2  0  0  0  0
 18 36  1  0  0  0  0
 19 21  2  0  0  0  0
 19 37  1  0  0  0  0
 20 45  1  0  0  0  0
 21 38  1  0  0  0  0
 22 29  1  0  0  0  0
 22 54  1  0  0  0  0
 23 78  1  0  0  0  0
 24 79  1  0  0  0  0
 25 27  2  0  0  0  0
 25 78  1  0  0  0  0
 26 80  1  0  0  0  0
 27 81  1  0  0  0  0
 28 62  2  0  0  0  0
 29 48  1  0  0  0  0
 29 63  2  0  0  0  0
 30 65  1  0  0  0  0
 30 68  1  0  0  0  0
 31 69  1  0  0  0  0
 31 73  2  0  0  0  0
 32 46  1  0  0  0  0
 32 70  1  0  0  0  0
 32 74  2  0  0  0  0
 33 55  1  0  0  0  0
 33 67  1  0  0  0  0
 33 75  2  0  0  0  0
 34 59  1  0  0  0  0
 34 66  1  0  0  0  0
 34 76  2  0  0  0  0
 35 60  1  0  0  0  0
 35 71  1  0  0  0  0
 35 77  2  0  0  0  0
 36 39  1  0  0  0  0
 37 46  1  0  0  0  0
 38 66  1  0  0  0  0
 39 41  1  0  0  0  0
 40 42  1  0  0  0  0
 40 43  1  0  0  0  0
 41 45  1  0  0  0  0
 42 47  1  0  0  0  0
 43 67  1  0  0  0  0
 44 47  1  0  0  0  0
 44 67  1  0  0  0  0
 45 70  1  0  0  0  0
 46 66  1  0  0  0  0
 47 65  1  0  0  0  0
 49 60  1  0  0  0  0
 50 61  1  0  0  0  0
 51 61  1  0  0  0  0
 52 61  1  0  0  0  0
 53 72  1  0  0  0  0
 54 56  1  0  0  0  0
 55 64  1  0  0  0  0
 56 57  1  0  0  0  0
 57 58  1  0  0  0  0
 58 79  1  0  0  0  0
 59 61  1  0  0  0  0
 59 71  1  0  0  0  0
 60 72  1  0  0  0  0
 62 65  1  0  0  0  0
 63 64  1  0  0  0  0
M  CHG  1  72   1
M  ISO  4  33 100  55 100  58 101  79 101
M  END
> <Batch ID>
0073

> <Smiles>
CNC(C)C(=O)NC(C(=O)N1Cc2cc([101O:1][101CH2:1]CCCc3cn([100CH2:0][100C:0](=O)N4CCCC(n5nc(-c6ccc(Oc7ccc(F)cc7F)cc6)c(C(N)=O)c5N)C4)nc3C)ccc2CC1C(=O)NC1CCCc2ccccc21)C(C)(C)C

> <Shape>
0.242

> <Color>
0.162

> <Negative vol penalty>
0.000

$$$$

  -OEChem-04052318273D

 85 93  0     1  0  0  0  0  0999 V2000
  -29.7094  -12.5221   19.9027 C   0  0  0  0  0  0  0  0  0  0  0  0
  -29.5837  -13.8409   19.4779 C   0  0  0  0  0  0  0  0  0  0  0  0
  -23.9869  -28.4480   21.4498 C   0  0  0  0  0  0  0  0  0  0  0  0
  -24.8009  -26.2243   21.9291 C   0  0  0  0  0  0  0  0  0  0  0  0
  -28.5703  -11.7752   20.2001 C   0  0  0  0  0  0  0  0  0  0  0  0
  -28.3186  -14.4131   19.3493 C   0  0  0  0  0  0  0  0  0  0  0  0
  -28.0904  -19.0808   21.3001 C   0  0  0  0  0  0  0  0  0  0  0  0
  -22.8644  -28.2079   22.2421 C   0  0  0  0  0  0  0  0  0  0  0  0
  -23.6784  -25.9842   22.7215 C   0  0  0  0  0  0  0  0  0  0  0  0
  -28.6285  -20.1166   20.5376 C   0  0  0  0  0  0  0  0  0  0  0  0
  -19.9154  -26.5813   21.9553 C   0  0  0  0  0  0  0  0  0  0  0  0
  -18.6730  -26.9664   21.4514 C   0  0  0  0  0  0  0  0  0  0  0  0
  -26.4118  -20.7166   19.7991 C   0  0  0  0  0  0  0  0  0  0  0  0
  -18.3619  -28.4372   23.3427 C   0  0  0  0  0  0  0  0  0  0  0  0
  -31.2975  -23.0356   15.1032 C   0  0  0  0  0  0  0  0  0  0  0  0
  -31.6624  -25.0183   15.9933 C   0  0  0  0  0  0  0  0  0  0  0  0
  -24.9552  -27.4562   21.2932 C   0  0  0  0  0  0  0  0  0  0  0  0
  -27.3475  -28.2434   20.8873 C   0  0  0  0  0  0  0  0  0  0  0  0
  -27.2911  -12.3416   20.0844 C   0  0  0  0  0  0  0  0  0  0  0  0
  -26.7076  -18.8479   21.3092 C   0  0  0  0  0  0  0  0  0  0  0  0
  -27.1613  -13.6726   19.6442 C   0  0  0  0  0  0  0  0  0  0  0  0
  -25.8584  -19.6788   20.5645 C   0  0  0  0  0  0  0  0  0  0  0  0
  -22.7101  -26.9760   22.8780 C   0  0  0  0  0  0  0  0  0  0  0  0
  -27.7895  -20.9328   19.7847 C   0  0  0  0  0  0  0  0  0  0  0  0
  -20.3810  -27.1241   23.1529 C   0  0  0  0  0  0  0  0  0  0  0  0
  -17.8963  -27.8943   22.1451 C   0  0  0  0  0  0  0  0  0  0  0  0
  -19.6042  -28.0521   23.8466 C   0  0  0  0  0  0  0  0  0  0  0  0
  -26.1147  -27.7034   20.4744 C   0  0  0  0  0  0  0  0  0  0  0  0
  -30.9528  -24.0466   14.2375 C   0  0  0  0  0  0  0  0  0  0  0  0
  -28.1086  -28.2748   19.7445 C   0  0  0  0  0  0  0  0  0  0  0  0
  -27.7671  -28.6778   22.1877 C   0  0  0  0  0  0  0  0  0  0  0  0
  -24.8347  -16.4281   20.4486 C   0  0  0  0  0  0  0  0  0  0  0  0
  -22.5100  -18.2704   21.7618 C   0  0  0  0  0  0  0  0  0  0  0  0
  -21.4425  -21.3853   22.6589 C   0  0  0  0  0  0  0  0  0  0  0  0
  -27.9305  -25.0383   14.8100 C   0  0  0  0  0  0  0  0  0  0  0  0
  -26.0870  -11.4801   20.3718 C   0  0  0  0  0  0  0  0  0  0  0  0
  -26.1402  -17.7433   22.1580 C   0  0  0  0  0  0  0  0  0  0  0  0
  -24.3650  -19.4833   20.5562 C   0  0  0  0  0  0  0  0  0  0  0  0
  -24.8005  -12.2777   20.5692 C   0  0  0  0  0  0  0  0  0  0  0  0
  -27.7109  -28.6462   14.9893 C   0  0  0  0  0  0  0  0  0  0  0  0
  -24.6514  -13.3297   19.4747 C   0  0  0  0  0  0  0  0  0  0  0  0
  -27.3914  -28.8583   16.4702 C   0  0  0  0  0  0  0  0  0  0  0  0
  -27.0081  -27.4065   14.4442 C   0  0  0  0  0  0  0  0  0  0  0  0
  -26.9795  -26.3627   16.6765 C   0  0  0  0  0  0  0  0  0  0  0  0
  -25.8074  -14.3365   19.5161 C   0  0  1  0  0  0  0  0  0  0  0  0
  -24.7666  -17.2744   21.6883 C   0  0  1  0  0  0  0  0  0  0  0  0
  -27.6784  -27.5882   17.2928 C   0  0  2  0  0  0  0  0  0  0  0  0
  -32.3408  -25.1501   11.7079 C   0  0  0  0  0  0  0  0  0  0  0  0
  -19.4834  -22.5793   23.6755 C   0  0  0  0  0  0  0  0  0  0  0  0
  -28.0702  -24.0314   20.1942 C   0  0  0  0  0  0  0  0  0  0  0  0
  -20.9829  -17.9966   19.1344 C   0  0  0  0  0  0  0  0  0  0  0  0
  -19.5550  -19.9270   19.8439 C   0  0  0  0  0  0  0  0  0  0  0  0
  -19.5654  -17.8254   21.1877 C   0  0  0  0  0  0  0  0  0  0  0  0
  -23.0690  -22.3634   24.9297 C   0  0  0  0  0  0  0  0  0  0  0  0
  -30.8320  -25.0920   11.9156 C   0  0  0  0  0  0  0  0  0  0  0  0
  -31.1338  -22.4577   18.3758 C   0  0  0  0  0  0  0  0  0  0  0  0
  -30.1352  -23.5316   18.8283 C   0  0  0  0  0  0  0  0  0  0  0  0
  -32.2500  -23.0159   17.4853 C   0  0  0  0  0  0  0  0  0  0  0  0
  -28.8502  -23.8336   12.8453 C   0  0  0  0  0  0  0  0  0  0  0  0
  -30.4062  -23.9330   12.8768 C   0  0  2  0  0  0  0  0  0  0  0  0
  -21.5833  -19.3473   21.2513 C   0  0  1  0  0  0  0  0  0  0  0  0
  -20.8209  -21.9063   23.9420 C   0  0  2  0  0  0  0  0  0  0  0  0
  -29.0427  -22.9535   19.7348 C   0  0  2  0  0  0  0  0  0  1  0  0
  -20.4499  -18.7768   20.3528 C   0  0  0  0  0  0  0  0  0  0  0  0
  -31.1826  -25.2784   14.7974 N   0  0  0  0  0  0  0  0  0  0  0  0
  -26.0898  -27.4128   19.1710 N   0  0  0  0  0  0  0  0  0  0  0  0
  -31.7508  -23.6735   16.2234 N   0  0  0  0  0  0  0  0  0  0  0  0
  -27.3163  -27.7716   18.7550 N   0  0  0  0  0  0  0  0  0  0  0  0
  -23.8589  -18.3860   21.3972 N   0  0  0  0  0  0  0  0  0  0  0  0
  -27.3378  -26.2296   15.2605 N   0  0  0  0  0  0  0  0  0  0  0  0
  -29.3717  -28.6836   19.4994 N   0  0  0  0  0  0  0  0  0  0  0  0
  -26.8599  -28.5758   23.2512 N   0  0  0  0  0  0  0  0  0  0  0  0
  -25.6081  -15.2912   20.5853 N   0  0  0  0  0  0  0  0  0  0  0  0
  -21.1079  -20.0678   22.4274 N   0  0  0  0  0  0  0  0  0  0  0  0
  -28.2324  -24.9904   13.4545 N   0  0  0  0  0  0  0  0  0  0  0  0
  -21.7250  -22.8978   24.5903 N   0  3  0  0  0  0  0  0  0  0  0  0
  -28.9069  -29.1579   22.3970 O   0  0  0  0  0  0  0  0  0  0  0  0
  -24.2291  -16.7798   19.4430 O   0  0  0  0  0  0  0  0  0  0  0  0
  -22.0552  -17.3641   22.4642 O   0  0  0  0  0  0  0  0  0  0  0  0
  -22.1509  -22.0788   21.9324 O   0  0  0  0  0  0  0  0  0  0  0  0
  -28.1776  -24.0890   15.5615 O   0  0  0  0  0  0  0  0  0  0  0  0
  -21.6149  -26.7414   23.6514 O   0  0  0  0  0  0  0  0  0  0  0  0
  -28.3122  -21.9441   19.0391 O   0  0  0  0  0  0  0  0  0  1  0  0
  -16.7040  -28.2652   21.6603 F   0  0  0  0  0  0  0  0  0  0  0  0
  -20.0467  -28.5779   24.9970 F   0  0  0  0  0  0  0  0  0  0  0  0
  1  2  1  0  0  0  0
  1  5  2  0  0  0  0
  2  6  2  0  0  0  0
  3  8  2  0  0  0  0
  3 17  1  0  0  0  0
  4  9  1  0  0  0  0
  4 17  2  0  0  0  0
  5 19  1  0  0  0  0
  6 21  1  0  0  0  0
  7 10  2  0  0  0  0
  7 20  1  0  0  0  0
  8 23  1  0  0  0  0
  9 23  2  0  0  0  0
 10 24  1  0  0  0  0
 11 12  2  0  0  0  0
 11 25  1  0  0  0  0
 12 26  1  0  0  0  0
 13 22  1  0  0  0  0
 13 24  2  0  0  0  0
 14 26  2  0  0  0  0
 14 27  1  0  0  0  0
 15 29  2  0  0  0  0
 15 67  1  0  0  0  0
 16 65  2  0  0  0  0
 16 67  1  0  0  0  0
 17 28  1  0  0  0  0
 18 28  1  0  0  0  0
 18 30  2  0  0  0  0
 18 31  1  0  0  0  0
 19 21  2  0  0  0  0
 19 36  1  0  0  0  0
 20 22  2  0  0  0  0
 20 37  1  0  0  0  0
 21 45  1  0  0  0  0
 22 38  1  0  0  0  0
 23 82  1  0  0  0  0
 24 83  1  0  0  0  0
 25 27  2  0  0  0  0
 25 82  1  0  0  0  0
 26 84  1  0  0  0  0
 27 85  1  0  0  0  0
 28 66  2  0  0  0  0
 29 60  1  0  0  0  0
 29 65  1  0  0  0  0
 30 68  1  0  0  0  0
 30 71  1  0  0  0  0
 31 72  1  0  0  0  0
 31 77  2  0  0  0  0
 32 46  1  0  0  0  0
 32 73  1  0  0  0  0
 32 78  2  0  0  0  0
 33 61  1  0  0  0  0
 33 69  1  0  0  0  0
 33 79  2  0  0  0  0
 34 62  1  0  0  0  0
 34 74  1  0  0  0  0
 34 80  2  0  0  0  0
 35 70  1  0  0  0  0
 35 75  1  0  0  0  0
 35 81  2  0  0  0  0
 36 39  1  0  0  0  0
 37 46  1  0  0  0  0
 38 69  1  0  0  0  0
 39 41  1  0  0  0  0
 40 42  1  0  0  0  0
 40 43  1  0  0  0  0
 41 45  1  0  0  0  0
 42 47  1  0  0  0  0
 43 70  1  0  0  0  0
 44 47  1  0  0  0  0
 44 70  1  0  0  0  0
 45 73  1  0  0  0  0
 46 69  1  0  0  0  0
 47 68  1  0  0  0  0
 48 55  1  0  0  0  0
 49 62  1  0  0  0  0
 50 63  1  0  0  0  0
 51 64  1  0  0  0  0
 52 64  1  0  0  0  0
 53 64  1  0  0  0  0
 54 76  1  0  0  0  0
 55 60  1  0  0  0  0
 56 57  1  0  0  0  0
 56 58  1  0  0  0  0
 57 63  1  0  0  0  0
 58 67  1  0  0  0  0
 59 60  1  0  0  0  0
 59 75  1  0  0  0  0
 61 64  1  0  0  0  0
 61 74  1  0  0  0  0
 62 76  1  0  0  0  0
 63 83  1  0  0  0  0
 66 68  1  0  0  0  0
M  CHG  1  76   1
M  ISO  4  35 100  63 101  75 100  83 101
M  END
> <Batch ID>
0073

> <Smiles>
CCC(C[100NH:0][100C:0](=O)N1CCCC(n2nc(-c3ccc(Oc4ccc(F)cc4F)cc3)c(C(N)=O)c2N)C1)c1cn(CCC[101CH:1](C)[101O:1]c2ccc3c(c2)CN(C(=O)C(NC(=O)C(C)NC)C(C)(C)C)C(C(=O)NC2CCCc4ccccc42)C3)cn1

> <Shape>
0.193

> <Color>
0.062

> <Negative vol penalty>
0.000

$$$$

  -OEChem-04052318273D

 85 93  0     1  0  0  0  0  0999 V2000
  -19.9589  -31.3181   24.0595 C   0  0  0  0  0  0  0  0  0  0  0  0
  -21.2480  -30.8060   23.9529 C   0  0  0  0  0  0  0  0  0  0  0  0
  -26.2878  -12.9190   21.2634 C   0  0  0  0  0  0  0  0  0  0  0  0
  -26.1841  -13.1471   18.8604 C   0  0  0  0  0  0  0  0  0  0  0  0
  -18.8703  -30.5560   23.6375 C   0  0  0  0  0  0  0  0  0  0  0  0
  -21.4492  -29.5310   23.4254 C   0  0  0  0  0  0  0  0  0  0  0  0
  -25.2703  -29.3828   20.1055 C   0  0  0  0  0  0  0  0  0  0  0  0
  -25.1015  -12.1855   21.2450 C   0  0  0  0  0  0  0  0  0  0  0  0
  -24.9978  -12.4136   18.8420 C   0  0  0  0  0  0  0  0  0  0  0  0
  -26.5643  -29.3643   20.6244 C   0  0  0  0  0  0  0  0  0  0  0  0
  -24.1392   -9.0226   20.5358 C   0  0  0  0  0  0  0  0  0  0  0  0
  -24.0840   -7.8599   21.3044 C   0  0  0  0  0  0  0  0  0  0  0  0
  -26.6615  -26.9785   20.2808 C   0  0  0  0  0  0  0  0  0  0  0  0
  -22.2371   -8.7790   22.5619 C   0  0  0  0  0  0  0  0  0  0  0  0
  -31.1611  -23.3282   21.6320 C   0  0  0  0  0  0  0  0  0  0  0  0
  -26.8291  -13.3998   20.0711 C   0  0  0  0  0  0  0  0  0  0  0  0
  -29.3656  -13.6571   19.9851 C   0  0  0  0  0  0  0  0  0  0  0  0
  -19.0589  -29.2749   23.0956 C   0  0  0  0  0  0  0  0  0  0  0  0
  -24.6572  -28.1957   19.6798 C   0  0  0  0  0  0  0  0  0  0  0  0
  -20.3619  -28.7505   22.9970 C   0  0  0  0  0  0  0  0  0  0  0  0
  -25.3607  -26.9850   19.7545 C   0  0  0  0  0  0  0  0  0  0  0  0
  -31.4716  -24.6415   21.8876 C   0  0  0  0  0  0  0  0  0  0  0  0
  -24.4565  -11.9328   20.0343 C   0  0  0  0  0  0  0  0  0  0  0  0
  -27.2590  -28.1617   20.7148 C   0  0  0  0  0  0  0  0  0  0  0  0
  -23.2434  -10.0636   20.7804 C   0  0  0  0  0  0  0  0  0  0  0  0
  -23.1329   -7.7381   22.3174 C   0  0  0  0  0  0  0  0  0  0  0  0
  -22.2924   -9.9417   21.7934 C   0  0  0  0  0  0  0  0  0  0  0  0
  -28.0542  -14.1581   20.0895 C   0  0  0  0  0  0  0  0  0  0  0  0
  -31.5954  -25.2282   20.6139 C   0  0  0  0  0  0  0  0  0  0  0  0
  -30.1655  -14.7714   20.0555 C   0  0  0  0  0  0  0  0  0  0  0  0
  -29.8202  -12.3053   19.8376 C   0  0  0  0  0  0  0  0  0  0  0  0
  -22.0731  -26.5659   20.5574 C   0  0  0  0  0  0  0  0  0  0  0  0
  -22.8175  -24.7516   17.9735 C   0  0  0  0  0  0  0  0  0  0  0  0
  -29.0596  -20.4487   18.7064 C   0  0  0  0  0  0  0  0  0  0  0  0
  -25.2005  -23.6663   15.7848 C   0  0  0  0  0  0  0  0  0  0  0  0
  -17.8475  -28.4698   22.6968 C   0  0  0  0  0  0  0  0  0  0  0  0
  -23.2709  -28.2364   19.0976 C   0  0  0  0  0  0  0  0  0  0  0  0
  -24.7548  -25.6859   19.2922 C   0  0  0  0  0  0  0  0  0  0  0  0
  -18.1763  -27.2771   21.8025 C   0  0  0  0  0  0  0  0  0  0  0  0
  -30.3011  -19.1837   21.8822 C   0  0  0  0  0  0  0  0  0  0  0  0
  -19.3664  -26.5033   22.3607 C   0  0  0  0  0  0  0  0  0  0  0  0
  -29.9537  -17.6994   21.7767 C   0  0  0  0  0  0  0  0  0  0  0  0
  -29.2437  -20.0567   21.2112 C   0  0  0  0  0  0  0  0  0  0  0  0
  -28.6346  -18.2129   19.6769 C   0  0  0  0  0  0  0  0  0  0  0  0
  -20.6227  -27.3815   22.4072 C   0  0  1  0  0  0  0  0  0  0  0  0
  -22.5522  -26.8927   19.1712 C   0  0  1  0  0  0  0  0  0  0  0  0
  -29.6918  -17.2964   20.3150 C   0  0  2  0  0  0  0  0  0  0  0  0
  -31.6358  -25.2803   23.2042 C   0  0  0  0  0  0  0  0  0  0  0  0
  -25.5154  -22.1586   13.8037 C   0  0  0  0  0  0  0  0  0  0  0  0
  -33.3085  -27.1551   20.8195 C   0  0  0  0  0  0  0  0  0  0  0  0
  -32.0022  -26.8356   18.7371 C   0  0  0  0  0  0  0  0  0  0  0  0
  -28.3380  -22.5125   19.8697 C   0  0  0  0  0  0  0  0  0  0  0  0
  -29.3515  -22.6101   17.5869 C   0  0  0  0  0  0  0  0  0  0  0  0
  -22.7383  -22.3197   19.8147 C   0  0  0  0  0  0  0  0  0  0  0  0
  -23.9608  -21.0311   18.0503 C   0  0  0  0  0  0  0  0  0  0  0  0
  -21.6972  -21.9624   17.5691 C   0  0  0  0  0  0  0  0  0  0  0  0
  -26.0459  -25.9175   14.0595 C   0  0  0  0  0  0  0  0  0  0  0  0
  -30.8356  -27.6615   20.8073 C   0  0  0  0  0  0  0  0  0  0  0  0
  -30.8309  -22.0129   19.5247 C   0  0  0  0  0  0  0  0  0  0  0  0
  -29.4038  -27.1342   20.7260 C   0  0  0  0  0  0  0  0  0  1  0  0
  -23.6731  -23.5309   17.7349 C   0  0  1  0  0  0  0  0  0  0  0  0
  -25.2092  -23.5734   14.2696 C   0  0  2  0  0  0  0  0  0  0  0  0
  -31.9348  -26.6917   20.2781 C   0  0  0  0  0  0  0  0  0  0  0  0
  -29.3986  -21.8980   18.9486 C   0  0  0  0  0  0  0  0  0  0  0  0
  -23.0283  -22.2350   18.3028 C   0  0  0  0  0  0  0  0  0  0  0  0
  -28.0186  -15.4872   20.2167 N   0  0  0  0  0  0  0  0  0  0  0  0
  -31.3811  -24.3588   19.6227 N   0  0  0  0  0  0  0  0  0  0  0  0
  -31.1197  -23.2125   20.2736 N   0  0  0  0  0  0  0  0  0  0  0  0
  -29.3176  -15.8308   20.1928 N   0  0  0  0  0  0  0  0  0  0  0  0
  -23.3945  -25.7766   18.7364 N   0  0  0  0  0  0  0  0  0  0  0  0
  -29.0035  -19.6232   19.8296 N   0  0  0  0  0  0  0  0  0  0  0  0
  -31.5044  -14.9386   20.0129 N   0  0  0  0  0  0  0  0  0  0  0  0
  -28.8647  -11.2814   19.7824 N   0  0  0  0  0  0  0  0  0  0  0  0
  -21.2049  -27.5010   21.0876 N   0  0  0  0  0  0  0  0  0  0  0  0
  -23.9339  -23.4893   16.3001 N   0  0  0  0  0  0  0  0  0  0  0  0
  -26.2383  -24.4888   13.7004 N   0  3  0  0  0  0  0  0  0  0  0  0
  -31.0382  -12.0124   19.7736 O   0  0  0  0  0  0  0  0  0  0  0  0
  -22.4612  -25.5405   21.1047 O   0  0  0  0  0  0  0  0  0  0  0  0
  -21.6817  -24.7970   17.4943 O   0  0  0  0  0  0  0  0  0  0  0  0
  -28.8539  -20.0633   17.5526 O   0  0  0  0  0  0  0  0  0  0  0  0
  -26.2164  -23.8715   16.4454 O   0  0  0  0  0  0  0  0  0  0  0  0
  -23.2991  -11.2169   20.0160 O   0  0  0  0  0  0  0  0  0  0  0  0
  -28.5218  -28.1407   21.2214 O   0  0  0  0  0  0  0  0  0  1  0  0
  -23.0790   -6.6209   23.0543 F   0  0  0  0  0  0  0  0  0  0  0  0
  -21.4284  -10.9378   22.0322 F   0  0  0  0  0  0  0  0  0  0  0  0
  1  2  1  0  0  0  0
  1  5  2  0  0  0  0
  2  6  2  0  0  0  0
  3  8  2  0  0  0  0
  3 16  1  0  0  0  0
  4  9  1  0  0  0  0
  4 16  2  0  0  0  0
  5 18  1  0  0  0  0
  6 20  1  0  0  0  0
  7 10  2  0  0  0  0
  7 19  1  0  0  0  0
  8 23  1  0  0  0  0
  9 23  2  0  0  0  0
 10 24  1  0  0  0  0
 11 12  2  0  0  0  0
 11 25  1  0  0  0  0
 12 26  1  0  0  0  0
 13 21  1  0  0  0  0
 13 24  2  0  0  0  0
 14 26  2  0  0  0  0
 14 27  1  0  0  0  0
 15 22  2  0  0  0  0
 15 68  1  0  0  0  0
 16 28  1  0  0  0  0
 17 28  1  0  0  0  0
 17 30  2  0  0  0  0
 17 31  1  0  0  0  0
 18 20  2  0  0  0  0
 18 36  1  0  0  0  0
 19 21  2  0  0  0  0
 19 37  1  0  0  0  0
 20 45  1  0  0  0  0
 21 38  1  0  0  0  0
 22 29  1  0  0  0  0
 22 48  1  0  0  0  0
 23 82  1  0  0  0  0
 24 83  1  0  0  0  0
 25 27  2  0  0  0  0
 25 82  1  0  0  0  0
 26 84  1  0  0  0  0
 27 85  1  0  0  0  0
 28 66  2  0  0  0  0
 29 63  1  0  0  0  0
 29 67  2  0  0  0  0
 30 69  1  0  0  0  0
 30 72  1  0  0  0  0
 31 73  1  0  0  0  0
 31 77  2  0  0  0  0
 32 46  1  0  0  0  0
 32 74  1  0  0  0  0
 32 78  2  0  0  0  0
 33 61  1  0  0  0  0
 33 70  1  0  0  0  0
 33 79  2  0  0  0  0
 34 64  1  0  0  0  0
 34 71  1  0  0  0  0
 34 80  2  0  0  0  0
 35 62  1  0  0  0  0
 35 75  1  0  0  0  0
 35 81  2  0  0  0  0
 36 39  1  0  0  0  0
 37 46  1  0  0  0  0
 38 70  1  0  0  0  0
 39 41  1  0  0  0  0
 40 42  1  0  0  0  0
 40 43  1  0  0  0  0
 41 45  1  0  0  0  0
 42 47  1  0  0  0  0
 43 71  1  0  0  0  0
 44 47  1  0  0  0  0
 44 71  1  0  0  0  0
 45 74  1  0  0  0  0
 46 70  1  0  0  0  0
 47 69  1  0  0  0  0
 49 62  1  0  0  0  0
 50 63  1  0  0  0  0
 51 63  1  0  0  0  0
 52 64  1  0  0  0  0
 53 64  1  0  0  0  0
 54 65  1  0  0  0  0
 55 65  1  0  0  0  0
 56 65  1  0  0  0  0
 57 76  1  0  0  0  0
 58 60  1  0  0  0  0
 58 63  1  0  0  0  0
 59 64  1  0  0  0  0
 59 68  1  0  0  0  0
 60 83  1  0  0  0  0
 61 65  1  0  0  0  0
 61 75  1  0  0  0  0
 62 76  1  0  0  0  0
 66 69  1  0  0  0  0
 67 68  1  0  0  0  0
M  CHG  1  76   1
M  ISO  4  34 100  60 101  64 100  83 101
M  END
> <Batch ID>
0073

> <Smiles>
CNC(C)C(=O)NC(C(=O)N1Cc2cc([101O:1][101CH2:1]CC(C)(C)c3nn(C[100C:0](C)(C)[100C:0](=O)N4CCCC(n5nc(-c6ccc(Oc7ccc(F)cc7F)cc6)c(C(N)=O)c5N)C4)cc3C)ccc2CC1C(=O)NC1CCCc2ccccc21)C(C)(C)C

> <Shape>
0.313

> <Color>
0.087

> <Negative vol penalty>
0.000

$$$$

  -OEChem-04052318273D

 84 92  0     1  0  0  0  0  0999 V2000
  -16.8078  -29.0308   24.4927 C   0  0  0  0  0  0  0  0  0  0  0  0
  -17.1652  -28.1253   23.4989 C   0  0  0  0  0  0  0  0  0  0  0  0
  -26.7658  -13.5936   21.2365 C   0  0  0  0  0  0  0  0  0  0  0  0
  -26.8877  -13.4878   18.8259 C   0  0  0  0  0  0  0  0  0  0  0  0
  -17.5344  -30.2099   24.6538 C   0  0  0  0  0  0  0  0  0  0  0  0
  -18.2487  -28.3987   22.6649 C   0  0  0  0  0  0  0  0  0  0  0  0
  -22.1933  -24.3507   20.3071 C   0  0  0  0  0  0  0  0  0  0  0  0
  -26.0502  -12.3965   21.2529 C   0  0  0  0  0  0  0  0  0  0  0  0
  -26.1721  -12.2905   18.8423 C   0  0  0  0  0  0  0  0  0  0  0  0
  -22.2717  -23.7353   19.0585 C   0  0  0  0  0  0  0  0  0  0  0  0
  -24.5038   -9.1820   21.9535 C   0  0  0  0  0  0  0  0  0  0  0  0
  -24.8743   -8.2178   22.8909 C   0  0  0  0  0  0  0  0  0  0  0  0
  -23.8450  -25.4151   18.3360 C   0  0  0  0  0  0  0  0  0  0  0  0
  -27.0863   -8.1270   21.9233 C   0  0  0  0  0  0  0  0  0  0  0  0
  -26.6808  -19.7812   13.3220 C   0  0  0  0  0  0  0  0  0  0  0  0
  -24.6316  -19.4169   12.8764 C   0  0  0  0  0  0  0  0  0  0  0  0
  -27.1845  -14.1394   20.0230 C   0  0  0  0  0  0  0  0  0  0  0  0
  -29.3208  -15.5328   20.0689 C   0  0  0  0  0  0  0  0  0  0  0  0
  -18.6333  -30.4934   23.8276 C   0  0  0  0  0  0  0  0  0  0  0  0
  -22.9331  -25.5112   20.5763 C   0  0  0  0  0  0  0  0  0  0  0  0
  -18.9898  -29.5833   22.8142 C   0  0  0  0  0  0  0  0  0  0  0  0
  -23.7762  -26.0419   19.5896 C   0  0  0  0  0  0  0  0  0  0  0  0
  -25.7534  -11.7449   20.0558 C   0  0  0  0  0  0  0  0  0  0  0  0
  -23.0954  -24.2691   18.0718 C   0  0  0  0  0  0  0  0  0  0  0  0
  -25.4245   -9.6187   21.0009 C   0  0  0  0  0  0  0  0  0  0  0  0
  -26.1655   -7.6904   22.8758 C   0  0  0  0  0  0  0  0  0  0  0  0
  -26.7157   -9.0912   20.9858 C   0  0  0  0  0  0  0  0  0  0  0  0
  -27.9232  -15.3763   20.0053 C   0  0  0  0  0  0  0  0  0  0  0  0
  -25.9686  -20.5248   14.2333 C   0  0  0  0  0  0  0  0  0  0  0  0
  -29.5169  -16.8913   20.0183 C   0  0  0  0  0  0  0  0  0  0  0  0
  -30.3498  -14.5390   20.1650 C   0  0  0  0  0  0  0  0  0  0  0  0
  -22.2040  -28.5088   21.3420 C   0  0  0  0  0  0  0  0  0  0  0  0
  -25.4177  -28.7925   21.6795 C   0  0  0  0  0  0  0  0  0  0  0  0
  -28.5287  -27.6534   20.8602 C   0  0  0  0  0  0  0  0  0  0  0  0
  -26.2613  -21.4010   17.8014 C   0  0  0  0  0  0  0  0  0  0  0  0
  -19.3591  -31.8029   24.0090 C   0  0  0  0  0  0  0  0  0  0  0  0
  -22.8579  -26.1478   21.9370 C   0  0  0  0  0  0  0  0  0  0  0  0
  -24.6064  -27.2744   19.8349 C   0  0  0  0  0  0  0  0  0  0  0  0
  -20.7245  -31.8421   23.3274 C   0  0  0  0  0  0  0  0  0  0  0  0
  -27.3946  -21.0257   21.1557 C   0  0  0  0  0  0  0  0  0  0  0  0
  -20.6272  -31.2977   21.9058 C   0  0  0  0  0  0  0  0  0  0  0  0
  -27.7847  -19.5494   21.2469 C   0  0  0  0  0  0  0  0  0  0  0  0
  -26.1671  -21.2314   20.2709 C   0  0  0  0  0  0  0  0  0  0  0  0
  -26.6622  -19.1715   19.0118 C   0  0  0  0  0  0  0  0  0  0  0  0
  -20.1742  -29.8327   21.9058 C   0  0  1  0  0  0  0  0  0  0  0  0
  -23.2616  -27.6190   21.9314 C   0  0  1  0  0  0  0  0  0  0  0  0
  -27.9284  -18.9199   19.8483 C   0  0  2  0  0  0  0  0  0  0  0  0
  -27.7501  -22.1143   15.0466 C   0  0  0  0  0  0  0  0  0  0  0  0
  -30.9631  -28.1111   21.2622 C   0  0  0  0  0  0  0  0  0  0  0  0
  -25.2813  -31.1746   19.7776 C   0  0  0  0  0  0  0  0  0  0  0  0
  -27.7593  -30.9851   19.4740 C   0  0  0  0  0  0  0  0  0  0  0  0
  -26.8153  -31.4837   21.7285 C   0  0  0  0  0  0  0  0  0  0  0  0
  -21.8899  -24.4359   14.3481 C   0  0  0  0  0  0  0  0  0  0  0  0
  -20.6483  -22.2697   14.4145 C   0  0  0  0  0  0  0  0  0  0  0  0
  -28.9485  -24.9875   22.0750 C   0  0  0  0  0  0  0  0  0  0  0  0
  -23.1870  -22.3026   14.2062 C   0  0  0  0  0  0  0  0  0  0  0  0
  -23.4479  -20.8525   14.6348 C   0  0  0  0  0  0  0  0  0  0  0  0
  -22.0134  -22.9772   16.3936 C   0  0  0  0  0  0  0  0  0  1  0  0
  -26.4032  -21.4146   15.3237 C   0  0  2  0  0  0  0  0  0  0  0  0
  -26.5604  -29.1605   20.7643 C   0  0  1  0  0  0  0  0  0  0  0  0
  -29.7401  -27.3291   21.7156 C   0  0  2  0  0  0  0  0  0  0  0  0
  -26.5871  -30.6789   20.4305 C   0  0  0  0  0  0  0  0  0  0  0  0
  -21.9435  -22.9771   14.8514 C   0  0  0  0  0  0  0  0  0  0  0  0
  -25.8426  -19.0941   12.4799 N   0  0  0  0  0  0  0  0  0  0  0  0
  -27.2771  -16.5423   19.9209 N   0  0  0  0  0  0  0  0  0  0  0  0
  -24.6575  -20.2816   13.9351 N   0  0  0  0  0  0  0  0  0  0  0  0
  -28.2732  -17.4444   19.9312 N   0  0  0  0  0  0  0  0  0  0  0  0
  -24.4937  -27.8642   21.1792 N   0  0  0  0  0  0  0  0  0  0  0  0
  -26.3687  -20.6123   18.9587 N   0  0  0  0  0  0  0  0  0  0  0  0
  -30.6300  -17.6547   20.0404 N   0  0  0  0  0  0  0  0  0  0  0  0
  -29.9736  -13.1895   20.2060 N   0  0  0  0  0  0  0  0  0  0  0  0
  -21.2757  -28.9631   22.2592 N   0  0  0  0  0  0  0  0  0  0  0  0
  -27.7737  -28.6689   21.4082 N   0  0  0  0  0  0  0  0  0  0  0  0
  -26.4733  -20.7372   16.5992 N   0  0  0  0  0  0  0  0  0  0  0  0
  -30.0561  -25.8748   21.6359 N   0  3  0  0  0  0  0  0  0  0  0  0
  -31.5660  -14.8396   20.2297 O   0  0  0  0  0  0  0  0  0  0  0  0
  -22.2293  -28.7655   20.1440 O   0  0  0  0  0  0  0  0  0  0  0  0
  -25.3514  -29.3043   22.7999 O   0  0  0  0  0  0  0  0  0  0  0  0
  -28.2791  -27.0673   19.8092 O   0  0  0  0  0  0  0  0  0  0  0  0
  -26.0015  -22.6085   17.8370 O   0  0  0  0  0  0  0  0  0  0  0  0
  -25.0554  -10.5765   20.0715 O   0  0  0  0  0  0  0  0  0  0  0  0
  -23.1733  -23.6707   16.8521 O   0  0  0  0  0  0  0  0  0  1  0  0
  -26.5217   -6.7656   23.7770 F   0  0  0  0  0  0  0  0  0  0  0  0
  -27.6049   -9.5077   20.0739 F   0  0  0  0  0  0  0  0  0  0  0  0
  1  2  1  0  0  0  0
  1  5  2  0  0  0  0
  2  6  2  0  0  0  0
  3  8  2  0  0  0  0
  3 17  1  0  0  0  0
  4  9  1  0  0  0  0
  4 17  2  0  0  0  0
  5 19  1  0  0  0  0
  6 21  1  0  0  0  0
  7 10  2  0  0  0  0
  7 20  1  0  0  0  0
  8 23  1  0  0  0  0
  9 23  2  0  0  0  0
 10 24  1  0  0  0  0
 11 12  2  0  0  0  0
 11 25  1  0  0  0  0
 12 26  1  0  0  0  0
 13 22  1  0  0  0  0
 13 24  2  0  0  0  0
 14 26  2  0  0  0  0
 14 27  1  0  0  0  0
 15 29  2  0  0  0  0
 15 64  1  0  0  0  0
 16 64  2  0  0  0  0
 16 66  1  0  0  0  0
 17 28  1  0  0  0  0
 18 28  1  0  0  0  0
 18 30  2  0  0  0  0
 18 31  1  0  0  0  0
 19 21  2  0  0  0  0
 19 36  1  0  0  0  0
 20 22  2  0  0  0  0
 20 37  1  0  0  0  0
 21 45  1  0  0  0  0
 22 38  1  0  0  0  0
 23 81  1  0  0  0  0
 24 82  1  0  0  0  0
 25 27  2  0  0  0  0
 25 81  1  0  0  0  0
 26 83  1  0  0  0  0
 27 84  1  0  0  0  0
 28 65  2  0  0  0  0
 29 59  1  0  0  0  0
 29 66  1  0  0  0  0
 30 67  1  0  0  0  0
 30 70  1  0  0  0  0
 31 71  1  0  0  0  0
 31 76  2  0  0  0  0
 32 46  1  0  0  0  0
 32 72  1  0  0  0  0
 32 77  2  0  0  0  0
 33 60  1  0  0  0  0
 33 68  1  0  0  0  0
 33 78  2  0  0  0  0
 34 61  1  0  0  0  0
 34 73  1  0  0  0  0
 34 79  2  0  0  0  0
 35 69  1  0  0  0  0
 35 74  1  0  0  0  0
 35 80  2  0  0  0  0
 36 39  1  0  0  0  0
 37 46  1  0  0  0  0
 38 68  1  0  0  0  0
 39 41  1  0  0  0  0
 40 42  1  0  0  0  0
 40 43  1  0  0  0  0
 41 45  1  0  0  0  0
 42 47  1  0  0  0  0
 43 69  1  0  0  0  0
 44 47  1  0  0  0  0
 44 69  1  0  0  0  0
 45 72  1  0  0  0  0
 46 68  1  0  0  0  0
 47 67  1  0  0  0  0
 48 59  1  0  0  0  0
 49 61  1  0  0  0  0
 50 62  1  0  0  0  0
 51 62  1  0  0  0  0
 52 62  1  0  0  0  0
 53 63  1  0  0  0  0
 54 63  1  0  0  0  0
 55 75  1  0  0  0  0
 56 57  1  0  0  0  0
 56 63  1  0  0  0  0
 57 66  1  0  0  0  0
 58 63  1  0  0  0  0
 58 82  1  0  0  0  0
 59 74  1  0  0  0  0
 60 62  1  0  0  0  0
 60 73  1  0  0  0  0
 61 75  1  0  0  0  0
 65 67  1  0  0  0  0
M  CHG  1  75   1
M  ISO  4  35 100  58 101  74 100  82 101
M  END
> <Batch ID>
0073

> <Smiles>
CNC(C)C(=O)NC(C(=O)N1Cc2cc([101O:1][101CH2:1]C(C)(C)CCn3cncc3C(C)[100NH:0][100C:0](=O)N3CCCC(n4nc(-c5ccc(Oc6ccc(F)cc6F)cc5)c(C(N)=O)c4N)C3)ccc2CC1C(=O)NC1CCCc2ccccc21)C(C)(C)C

> <Shape>
0.218

> <Color>
0.091

> <Negative vol penalty>
0.000

$$$$

  -OEChem-04052318273D

 84 92  0     1  0  0  0  0  0999 V2000
  -29.0691  -22.4573   14.9052 C   0  0  0  0  0  0  0  0  0  0  0  0
  -28.4102  -22.3395   16.1248 C   0  0  0  0  0  0  0  0  0  0  0  0
  -24.6499   -8.4955   21.3419 C   0  0  0  0  0  0  0  0  0  0  0  0
  -23.2517  -10.4586   21.5101 C   0  0  0  0  0  0  0  0  0  0  0  0
  -29.8463  -23.5841   14.6402 C   0  0  0  0  0  0  0  0  0  0  0  0
  -28.5290  -23.3479   17.0805 C   0  0  0  0  0  0  0  0  0  0  0  0
  -24.0869  -24.5593   19.1889 C   0  0  0  0  0  0  0  0  0  0  0  0
  -23.9041   -7.8783   22.3462 C   0  0  0  0  0  0  0  0  0  0  0  0
  -22.5059   -9.8414   22.5143 C   0  0  0  0  0  0  0  0  0  0  0  0
  -23.5914  -23.6995   20.1682 C   0  0  0  0  0  0  0  0  0  0  0  0
  -22.1442   -5.6476   24.6137 C   0  0  0  0  0  0  0  0  0  0  0  0
  -21.7664   -4.3193   24.4176 C   0  0  0  0  0  0  0  0  0  0  0  0
  -24.3927  -25.1977   21.8806 C   0  0  0  0  0  0  0  0  0  0  0  0
  -20.5554   -4.9577   22.4269 C   0  0  0  0  0  0  0  0  0  0  0  0
  -25.8764  -19.2642   22.8301 C   0  0  0  0  0  0  0  0  0  0  0  0
  -24.4379  -18.2277   21.3093 C   0  0  0  0  0  0  0  0  0  0  0  0
  -24.3237   -9.7857   20.9239 C   0  0  0  0  0  0  0  0  0  0  0  0
  -24.8579  -10.3748   18.5000 C   0  0  0  0  0  0  0  0  0  0  0  0
  -29.9669  -24.6113   15.5894 C   0  0  0  0  0  0  0  0  0  0  0  0
  -24.7498  -25.7414   19.5489 C   0  0  0  0  0  0  0  0  0  0  0  0
  -29.3096  -24.4888   16.8285 C   0  0  0  0  0  0  0  0  0  0  0  0
  -24.8935  -26.0721   20.9040 C   0  0  0  0  0  0  0  0  0  0  0  0
  -24.5788  -18.9704   22.4638 C   0  0  0  0  0  0  0  0  0  0  0  0
  -22.8321   -8.5512   22.9323 C   0  0  0  0  0  0  0  0  0  0  0  0
  -23.7468  -24.0172   21.5143 C   0  0  0  0  0  0  0  0  0  0  0  0
  -21.7275   -6.6310   23.7165 C   0  0  0  0  0  0  0  0  0  0  0  0
  -20.9720   -3.9743   23.3242 C   0  0  0  0  0  0  0  0  0  0  0  0
  -20.9331   -6.2860   22.6231 C   0  0  0  0  0  0  0  0  0  0  0  0
  -25.0940  -10.4240   19.8869 C   0  0  0  0  0  0  0  0  0  0  0  0
  -25.8612  -11.1372   17.9536 C   0  0  0  0  0  0  0  0  0  0  0  0
  -26.6918  -18.1502   21.0242 C   0  0  0  0  0  0  0  0  0  0  0  0
  -23.8239   -9.7003   17.7708 C   0  0  0  0  0  0  0  0  0  0  0  0
  -27.6837  -26.8873   19.1211 C   0  0  0  0  0  0  0  0  0  0  0  0
  -26.4187  -29.5526   20.4697 C   0  0  0  0  0  0  0  0  0  0  0  0
  -24.0231  -30.9275   22.4741 C   0  0  0  0  0  0  0  0  0  0  0  0
  -29.2085  -15.6146   20.0983 C   0  0  0  0  0  0  0  0  0  0  0  0
  -30.8564  -25.7883   15.2762 C   0  0  0  0  0  0  0  0  0  0  0  0
  -25.2550  -26.6714   18.4802 C   0  0  0  0  0  0  0  0  0  0  0  0
  -25.5796  -27.3391   21.3426 C   0  0  0  0  0  0  0  0  0  0  0  0
  -30.6282  -26.9858   16.1951 C   0  0  0  0  0  0  0  0  0  0  0  0
  -30.3683  -12.5272   18.7568 C   0  0  0  0  0  0  0  0  0  0  0  0
  -30.5645  -26.5367   17.6514 C   0  0  0  0  0  0  0  0  0  0  0  0
  -29.1267  -11.6336   18.7692 C   0  0  0  0  0  0  0  0  0  0  0  0
  -30.4101  -13.4521   19.9713 C   0  0  0  0  0  0  0  0  0  0  0  0
  -27.9559  -13.3740   20.1831 C   0  0  0  0  0  0  0  0  0  0  0  0
  -29.3940  -25.5730   17.8809 C   0  0  1  0  0  0  0  0  0  0  0  0
  -26.3670  -27.5948   18.9684 C   0  0  1  0  0  0  0  0  0  0  0  0
  -27.8409  -12.4628   18.9491 C   0  0  2  0  0  0  0  0  0  0  0  0
  -27.8529  -18.2431   18.7870 C   0  0  0  0  0  0  0  0  0  0  0  0
  -23.2694  -33.1269   23.4186 C   0  0  0  0  0  0  0  0  0  0  0  0
  -22.0035  -19.0055   22.7025 C   0  0  0  0  0  0  0  0  0  0  0  0
  -23.4601  -18.8088   24.6986 C   0  0  0  0  0  0  0  0  0  0  0  0
  -28.7138  -29.4737   22.4787 C   0  0  0  0  0  0  0  0  0  0  0  0
  -27.4160  -31.0586   23.9182 C   0  0  0  0  0  0  0  0  0  0  0  0
  -28.1425  -31.7582   21.6367 C   0  0  0  0  0  0  0  0  0  0  0  0
  -21.3921  -30.7336   21.1329 C   0  0  0  0  0  0  0  0  0  0  0  0
  -23.3673  -20.9926   23.4531 C   0  0  0  0  0  0  0  0  0  0  0  0
  -23.2220  -21.7884   22.1568 C   0  0  0  0  0  0  0  0  0  1  0  0
  -27.8645  -17.6972   20.2224 C   0  0  2  0  0  0  0  0  0  0  0  0
  -26.2746  -30.0718   21.8799 C   0  0  1  0  0  0  0  0  0  0  0  0
  -23.1162  -32.1294   22.2808 C   0  0  2  0  0  0  0  0  0  0  0  0
  -23.3675  -19.4429   23.2882 C   0  0  0  0  0  0  0  0  0  0  0  0
  -27.6255  -30.5657   22.4704 C   0  0  0  0  0  0  0  0  0  0  0  0
  -26.9604  -18.8687   22.1311 N   0  0  0  0  0  0  0  0  0  0  0  0
  -25.4765  -17.7995   20.5620 N   0  0  0  0  0  0  0  0  0  0  0  0
  -26.1635  -11.1594   20.2021 N   0  0  0  0  0  0  0  0  0  0  0  0
  -26.6084  -11.5792   19.0055 N   0  0  0  0  0  0  0  0  0  0  0  0
  -26.0619  -28.2129   20.2603 N   0  0  0  0  0  0  0  0  0  0  0  0
  -29.1620  -14.2108   20.0838 N   0  0  0  0  0  0  0  0  0  0  0  0
  -26.1684  -11.4659   16.6808 N   0  0  0  0  0  0  0  0  0  0  0  0
  -22.8736   -8.9611   18.4882 N   0  0  0  0  0  0  0  0  0  0  0  0
  -28.1464  -26.3024   17.9579 N   0  0  0  0  0  0  0  0  0  0  0  0
  -25.2334  -31.0928   21.8345 N   0  0  0  0  0  0  0  0  0  0  0  0
  -27.9802  -16.2561   20.2012 N   0  0  0  0  0  0  0  0  0  0  0  0
  -21.6908  -31.6986   22.2221 N   0  3  0  0  0  0  0  0  0  0  0  0
  -23.7548   -9.7382   16.5188 O   0  0  0  0  0  0  0  0  0  0  0  0
  -28.2395  -26.8744   20.2132 O   0  0  0  0  0  0  0  0  0  0  0  0
  -26.8257  -30.3098   19.5851 O   0  0  0  0  0  0  0  0  0  0  0  0
  -23.6925  -29.9422   23.1302 O   0  0  0  0  0  0  0  0  0  0  0  0
  -30.2658  -16.2493   20.0198 O   0  0  0  0  0  0  0  0  0  0  0  0
  -22.1040   -7.9492   23.9121 O   0  0  0  0  0  0  0  0  0  0  0  0
  -23.2646  -23.1794   22.4722 O   0  0  0  0  0  0  0  0  0  1  0  0
  -20.6106   -2.6985   23.1351 F   0  0  0  0  0  0  0  0  0  0  0  0
  -20.5307   -7.2262   21.7570 F   0  0  0  0  0  0  0  0  0  0  0  0
  1  2  1  0  0  0  0
  1  5  2  0  0  0  0
  2  6  2  0  0  0  0
  3  8  2  0  0  0  0
  3 17  1  0  0  0  0
  4  9  1  0  0  0  0
  4 17  2  0  0  0  0
  5 19  1  0  0  0  0
  6 21  1  0  0  0  0
  7 10  2  0  0  0  0
  7 20  1  0  0  0  0
  8 24  1  0  0  0  0
  9 24  2  0  0  0  0
 10 25  1  0  0  0  0
 11 12  2  0  0  0  0
 11 26  1  0  0  0  0
 12 27  1  0  0  0  0
 13 22  1  0  0  0  0
 13 25  2  0  0  0  0
 14 27  2  0  0  0  0
 14 28  1  0  0  0  0
 15 23  1  0  0  0  0
 15 64  2  0  0  0  0
 16 23  2  0  0  0  0
 16 65  1  0  0  0  0
 17 29  1  0  0  0  0
 18 29  1  0  0  0  0
 18 30  2  0  0  0  0
 18 32  1  0  0  0  0
 19 21  2  0  0  0  0
 19 37  1  0  0  0  0
 20 22  2  0  0  0  0
 20 38  1  0  0  0  0
 21 46  1  0  0  0  0
 22 39  1  0  0  0  0
 23 62  1  0  0  0  0
 24 81  1  0  0  0  0
 25 82  1  0  0  0  0
 26 28  2  0  0  0  0
 26 81  1  0  0  0  0
 27 83  1  0  0  0  0
 28 84  1  0  0  0  0
 29 66  2  0  0  0  0
 30 67  1  0  0  0  0
 30 70  1  0  0  0  0
 31 59  1  0  0  0  0
 31 64  1  0  0  0  0
 31 65  2  0  0  0  0
 32 71  1  0  0  0  0
 32 76  2  0  0  0  0
 33 47  1  0  0  0  0
 33 72  1  0  0  0  0
 33 77  2  0  0  0  0
 34 60  1  0  0  0  0
 34 68  1  0  0  0  0
 34 78  2  0  0  0  0
 35 61  1  0  0  0  0
 35 73  1  0  0  0  0
 35 79  2  0  0  0  0
 36 69  1  0  0  0  0
 36 74  1  0  0  0  0
 36 80  2  0  0  0  0
 37 40  1  0  0  0  0
 38 47  1  0  0  0  0
 39 68  1  0  0  0  0
 40 42  1  0  0  0  0
 41 43  1  0  0  0  0
 41 44  1  0  0  0  0
 42 46  1  0  0  0  0
 43 48  1  0  0  0  0
 44 69  1  0  0  0  0
 45 48  1  0  0  0  0
 45 69  1  0  0  0  0
 46 72  1  0  0  0  0
 47 68  1  0  0  0  0
 48 67  1  0  0  0  0
 49 59  1  0  0  0  0
 50 61  1  0  0  0  0
 51 62  1  0  0  0  0
 52 62  1  0  0  0  0
 53 63  1  0  0  0  0
 54 63  1  0  0  0  0
 55 63  1  0  0  0  0
 56 75  1  0  0  0  0
 57 58  1  0  0  0  0
 57 62  1  0  0  0  0
 58 82  1  0  0  0  0
 59 74  1  0  0  0  0
 60 63  1  0  0  0  0
 60 73  1  0  0  0  0
 61 75  1  0  0  0  0
 66 67  1  0  0  0  0
M  CHG  1  75   1
M  ISO  4  36 100  58 101  74 100  82 101
M  END
> <Batch ID>
0073

> <Smiles>
CNC(C)C(=O)NC(C(=O)N1Cc2cc([101O:1][101CH2:1]CC(C)(C)c3cnc(C(C)[100NH:0][100C:0](=O)N4CCCC(n5nc(-c6ccc(Oc7ccc(F)cc7F)cc6)c(C(N)=O)c5N)C4)nc3)ccc2CC1C(=O)NC1CCCc2ccccc21)C(C)(C)C

> <Shape>
0.236

> <Color>
0.084

> <Negative vol penalty>
0.000

$$$$

  -OEChem-04052318273D

 88 96  0     1  0  0  0  0  0999 V2000
  -16.8535  -29.0781   24.2379 C   0  0  0  0  0  0  0  0  0  0  0  0
  -17.4418  -28.1140   23.4257 C   0  0  0  0  0  0  0  0  0  0  0  0
  -24.8454  -11.6501   20.1958 C   0  0  0  0  0  0  0  0  0  0  0  0
  -27.0009  -11.3988   21.2576 C   0  0  0  0  0  0  0  0  0  0  0  0
  -17.3588  -30.3775   24.2535 C   0  0  0  0  0  0  0  0  0  0  0  0
  -18.5353  -28.4489   22.6278 C   0  0  0  0  0  0  0  0  0  0  0  0
  -22.2177  -24.9780   22.8217 C   0  0  0  0  0  0  0  0  0  0  0  0
  -24.7087  -10.2629   20.1448 C   0  0  0  0  0  0  0  0  0  0  0  0
  -26.8642  -10.0115   21.2067 C   0  0  0  0  0  0  0  0  0  0  0  0
  -22.0370  -23.8156   22.0735 C   0  0  0  0  0  0  0  0  0  0  0  0
  -23.6314   -6.7919   20.0623 C   0  0  0  0  0  0  0  0  0  0  0  0
  -22.4033   -6.2471   20.4370 C   0  0  0  0  0  0  0  0  0  0  0  0
  -23.4742  -24.7067   20.3531 C   0  0  0  0  0  0  0  0  0  0  0  0
  -22.6444   -7.2167   22.6368 C   0  0  0  0  0  0  0  0  0  0  0  0
  -25.9915  -12.2181   20.7521 C   0  0  0  0  0  0  0  0  0  0  0  0
  -25.7225  -14.5086   21.8424 C   0  0  0  0  0  0  0  0  0  0  0  0
  -18.4650  -30.7261   23.4627 C   0  0  0  0  0  0  0  0  0  0  0  0
  -23.0206  -26.0198   22.3354 C   0  0  0  0  0  0  0  0  0  0  0  0
  -19.0550  -29.7545   22.6318 C   0  0  0  0  0  0  0  0  0  0  0  0
  -23.6655  -25.8802   21.0982 C   0  0  0  0  0  0  0  0  0  0  0  0
  -25.7180   -9.4436   20.6503 C   0  0  0  0  0  0  0  0  0  0  0  0
  -22.6629  -23.6809   20.8377 C   0  0  0  0  0  0  0  0  0  0  0  0
  -24.3661   -7.5491   20.9748 C   0  0  0  0  0  0  0  0  0  0  0  0
  -21.9098   -6.4595   21.7243 C   0  0  0  0  0  0  0  0  0  0  0  0
  -23.8726   -7.7615   22.2620 C   0  0  0  0  0  0  0  0  0  0  0  0
  -26.1336  -13.6509   20.8045 C   0  0  0  0  0  0  0  0  0  0  0  0
  -26.0810  -15.7631   21.4135 C   0  0  0  0  0  0  0  0  0  0  0  0
  -30.1246  -23.4240   18.5731 C   0  0  0  0  0  0  0  0  0  0  0  0
  -30.2401  -21.8873   19.9810 C   0  0  0  0  0  0  0  0  0  0  0  0
  -25.0745  -14.1989   23.0834 C   0  0  0  0  0  0  0  0  0  0  0  0
  -22.5201  -29.0598   21.5531 C   0  0  0  0  0  0  0  0  0  0  0  0
  -29.8667  -19.1675   19.0964 C   0  0  0  0  0  0  0  0  0  0  0  0
  -25.7430  -29.0903   21.1873 C   0  0  0  0  0  0  0  0  0  0  0  0
  -28.6083  -27.3337   20.5943 C   0  0  0  0  0  0  0  0  0  0  0  0
  -18.9463  -32.1554   23.4774 C   0  0  0  0  0  0  0  0  0  0  0  0
  -23.2268  -27.2563   23.1668 C   0  0  0  0  0  0  0  0  0  0  0  0
  -24.5540  -26.9611   20.5407 C   0  0  0  0  0  0  0  0  0  0  0  0
  -20.3416  -32.3344   22.8846 C   0  0  0  0  0  0  0  0  0  0  0  0
  -27.6708  -17.3797   16.9005 C   0  0  0  0  0  0  0  0  0  0  0  0
  -20.4619  -31.5789   21.5649 C   0  0  0  0  0  0  0  0  0  0  0  0
  -27.0645  -16.3021   17.7983 C   0  0  0  0  0  0  0  0  0  0  0  0
  -29.1206  -17.6690   17.2764 C   0  0  0  0  0  0  0  0  0  0  0  0
  -28.7086  -16.9618   19.6113 C   0  0  0  0  0  0  0  0  0  0  0  0
  -20.2580  -30.0730   21.7708 C   0  0  1  0  0  0  0  0  0  0  0  0
  -23.6531  -28.4667   22.3418 C   0  0  1  0  0  0  0  0  0  0  0  0
  -27.2350  -16.6611   19.2851 C   0  0  2  0  0  0  0  0  0  0  0  0
  -30.5399  -24.4041   17.5627 C   0  0  0  0  0  0  0  0  0  0  0  0
  -31.0836  -27.6382   20.3155 C   0  0  0  0  0  0  0  0  0  0  0  0
  -32.1932  -20.5387   20.7913 C   0  0  0  0  0  0  0  0  0  0  0  0
  -30.4096  -21.0677   22.4304 C   0  0  0  0  0  0  0  0  0  0  0  0
  -25.2884  -30.1955   18.3798 C   0  0  0  0  0  0  0  0  0  0  0  0
  -27.6543  -29.5865   17.8324 C   0  0  0  0  0  0  0  0  0  0  0  0
  -27.1807  -31.2557   19.6246 C   0  0  0  0  0  0  0  0  0  0  0  0
  -21.8730  -19.7081   18.9395 C   0  0  0  0  0  0  0  0  0  0  0  0
  -22.9817  -18.9275   21.0329 C   0  0  0  0  0  0  0  0  0  0  0  0
  -29.2003  -25.6072   22.9241 C   0  0  0  0  0  0  0  0  0  0  0  0
  -29.9521  -19.4240   20.5799 C   0  0  0  0  0  0  0  0  0  0  0  0
  -25.2912  -20.9765   20.3882 C   0  0  0  0  0  0  0  0  0  0  0  0
  -26.5933  -21.3774   19.6794 C   0  0  0  0  0  0  0  0  0  0  0  0
  -24.2047  -20.4839   19.4230 C   0  0  0  0  0  0  0  0  0  0  0  0
  -27.7336  -21.8277   20.6012 C   0  0  0  0  0  0  0  0  0  0  0  0
  -22.2549  -21.3380   20.8255 C   0  0  0  0  0  0  0  0  0  1  0  0
  -26.6922  -28.8114   20.0470 C   0  0  1  0  0  0  0  0  0  0  0  0
  -29.9565  -27.3403   21.2921 C   0  0  2  0  0  0  0  0  0  0  0  0
  -30.6486  -20.8050   20.8944 C   0  0  0  0  0  0  0  0  0  0  0  0
  -26.6857  -29.9425   18.9803 C   0  0  0  0  0  0  0  0  0  0  0  0
  -22.8385  -20.1222   20.0718 C   0  0  0  0  0  0  0  0  0  0  0  0
  -26.7091  -14.3054   19.7923 N   0  0  0  0  0  0  0  0  0  0  0  0
  -31.0107  -22.5729   19.1689 N   0  0  0  0  0  0  0  0  0  0  0  0
  -28.8541  -23.3083   18.9656 N   0  0  0  0  0  0  0  0  0  0  0  0
  -26.6621  -15.5876   20.1922 N   0  0  0  0  0  0  0  0  0  0  0  0
  -28.9554  -22.3189   19.8661 N   0  0  0  0  0  0  0  0  0  0  0  0
  -24.7193  -28.1536   21.3881 N   0  0  0  0  0  0  0  0  0  0  0  0
  -29.2436  -17.9837   18.7009 N   0  0  0  0  0  0  0  0  0  0  0  0
  -25.9527  -16.9883   21.9656 N   0  0  0  0  0  0  0  0  0  0  0  0
  -24.7782  -12.8585   23.3661 N   0  0  0  0  0  0  0  0  0  0  0  0
  -21.4519  -29.4727   22.3264 N   0  0  0  0  0  0  0  0  0  0  0  0
  -27.9972  -28.5684   20.6523 N   0  0  0  0  0  0  0  0  0  0  0  0
  -30.2194  -26.0162   21.9235 N   0  3  0  0  0  0  0  0  0  0  0  0
  -24.7527  -15.0862   23.9096 O   0  0  0  0  0  0  0  0  0  0  0  0
  -22.6090  -29.1384   20.3335 O   0  0  0  0  0  0  0  0  0  0  0  0
  -30.3376  -19.9970   18.3139 O   0  0  0  0  0  0  0  0  0  0  0  0
  -25.9082  -30.0983   21.8789 O   0  0  0  0  0  0  0  0  0  0  0  0
  -28.1454  -26.3343   20.0490 O   0  0  0  0  0  0  0  0  0  0  0  0
  -25.5849   -8.0900   20.6010 O   0  0  0  0  0  0  0  0  0  0  0  0
  -22.4877  -22.5476   20.1051 O   0  0  0  0  0  0  0  0  0  1  0  0
  -20.7297   -5.9376   22.0835 F   0  0  0  0  0  0  0  0  0  0  0  0
  -24.5733   -8.4890   23.1427 F   0  0  0  0  0  0  0  0  0  0  0  0
  1  2  1  0  0  0  0
  1  5  2  0  0  0  0
  2  6  2  0  0  0  0
  3  8  2  0  0  0  0
  3 15  1  0  0  0  0
  4  9  1  0  0  0  0
  4 15  2  0  0  0  0
  5 17  1  0  0  0  0
  6 19  1  0  0  0  0
  7 10  2  0  0  0  0
  7 18  1  0  0  0  0
  8 21  1  0  0  0  0
  9 21  2  0  0  0  0
 10 22  1  0  0  0  0
 11 12  2  0  0  0  0
 11 23  1  0  0  0  0
 12 24  1  0  0  0  0
 13 20  1  0  0  0  0
 13 22  2  0  0  0  0
 14 24  2  0  0  0  0
 14 25  1  0  0  0  0
 15 26  1  0  0  0  0
 16 26  1  0  0  0  0
 16 27  2  0  0  0  0
 16 30  1  0  0  0  0
 17 19  2  0  0  0  0
 17 35  1  0  0  0  0
 18 20  2  0  0  0  0
 18 36  1  0  0  0  0
 19 44  1  0  0  0  0
 20 37  1  0  0  0  0
 21 85  1  0  0  0  0
 22 86  1  0  0  0  0
 23 25  2  0  0  0  0
 23 85  1  0  0  0  0
 24 87  1  0  0  0  0
 25 88  1  0  0  0  0
 26 68  2  0  0  0  0
 27 71  1  0  0  0  0
 27 75  1  0  0  0  0
 28 47  1  0  0  0  0
 28 69  1  0  0  0  0
 28 70  2  0  0  0  0
 29 65  1  0  0  0  0
 29 69  2  0  0  0  0
 29 72  1  0  0  0  0
 30 76  1  0  0  0  0
 30 80  2  0  0  0  0
 31 45  1  0  0  0  0
 31 77  1  0  0  0  0
 31 81  2  0  0  0  0
 32 57  1  0  0  0  0
 32 74  1  0  0  0  0
 32 82  2  0  0  0  0
 33 63  1  0  0  0  0
 33 73  1  0  0  0  0
 33 83  2  0  0  0  0
 34 64  1  0  0  0  0
 34 78  1  0  0  0  0
 34 84  2  0  0  0  0
 35 38  1  0  0  0  0
 36 45  1  0  0  0  0
 37 73  1  0  0  0  0
 38 40  1  0  0  0  0
 39 41  1  0  0  0  0
 39 42  1  0  0  0  0
 40 44  1  0  0  0  0
 41 46  1  0  0  0  0
 42 74  1  0  0  0  0
 43 46  1  0  0  0  0
 43 74  1  0  0  0  0
 44 77  1  0  0  0  0
 45 73  1  0  0  0  0
 46 71  1  0  0  0  0
 48 64  1  0  0  0  0
 49 65  1  0  0  0  0
 50 65  1  0  0  0  0
 51 66  1  0  0  0  0
 52 66  1  0  0  0  0
 53 66  1  0  0  0  0
 54 67  1  0  0  0  0
 55 67  1  0  0  0  0
 56 79  1  0  0  0  0
 57 65  1  0  0  0  0
 58 59  1  0  0  0  0
 58 60  1  0  0  0  0
 59 61  1  0  0  0  0
 60 67  1  0  0  0  0
 61 72  1  0  0  0  0
 62 67  1  0  0  0  0
 62 86  1  0  0  0  0
 63 66  1  0  0  0  0
 63 78  1  0  0  0  0
 64 79  1  0  0  0  0
 68 71  1  0  0  0  0
 70 72  1  0  0  0  0
M  CHG  1  79   1
M  ISO  4  32 100  57 100  62 101  86 101
M  END
> <Batch ID>
0073

> <Smiles>
CNC(C)C(=O)NC(C(=O)N1Cc2cc([101O:1][101CH2:1]C(C)(C)CCCCn3nc(C)nc3C(C)(C)[100CH2:0][100C:0](=O)N3CCCC(n4nc(-c5ccc(Oc6ccc(F)cc6F)cc5)c(C(N)=O)c4N)C3)ccc2CC1C(=O)NC1CCCc2ccccc21)C(C)(C)C

> <Shape>
0.259

> <Color>
0.070

> <Negative vol penalty>
0.000

$$$$

  -OEChem-04052318273D

 87 95  0     1  0  0  0  0  0999 V2000
  -16.7976  -24.1798   26.4899 C   0  0  0  0  0  0  0  0  0  0  0  0
  -17.6517  -23.3727   25.7454 C   0  0  0  0  0  0  0  0  0  0  0  0
  -26.0849  -12.7410   21.6500 C   0  0  0  0  0  0  0  0  0  0  0  0
  -25.1597  -13.9094   19.7484 C   0  0  0  0  0  0  0  0  0  0  0  0
  -16.6588  -25.5293   26.1682 C   0  0  0  0  0  0  0  0  0  0  0  0
  -18.3668  -23.9144   24.6778 C   0  0  0  0  0  0  0  0  0  0  0  0
  -24.0072  -22.3671   22.8620 C   0  0  0  0  0  0  0  0  0  0  0  0
  -24.9399  -11.9476   21.7197 C   0  0  0  0  0  0  0  0  0  0  0  0
  -24.0146  -13.1159   19.8180 C   0  0  0  0  0  0  0  0  0  0  0  0
  -24.4694  -21.5284   21.8487 C   0  0  0  0  0  0  0  0  0  0  0  0
  -23.6730   -9.2557   20.1129 C   0  0  0  0  0  0  0  0  0  0  0  0
  -23.8453   -7.8834   20.2936 C   0  0  0  0  0  0  0  0  0  0  0  0
  -24.7207  -23.4357   20.3932 C   0  0  0  0  0  0  0  0  0  0  0  0
  -22.5876   -7.9967   22.3533 C   0  0  0  0  0  0  0  0  0  0  0  0
  -30.2137  -24.0078   16.7877 C   0  0  0  0  0  0  0  0  0  0  0  0
  -26.1948  -13.7220   20.6644 C   0  0  0  0  0  0  0  0  0  0  0  0
  -28.5505  -14.2799   19.8599 C   0  0  0  0  0  0  0  0  0  0  0  0
  -17.3799  -26.0900   25.1023 C   0  0  0  0  0  0  0  0  0  0  0  0
  -23.8878  -23.7472   22.6446 C   0  0  0  0  0  0  0  0  0  0  0  0
  -18.2365  -25.2724   24.3407 C   0  0  0  0  0  0  0  0  0  0  0  0
  -24.2592  -24.2900   21.4062 C   0  0  0  0  0  0  0  0  0  0  0  0
  -23.9047  -12.1350   20.8037 C   0  0  0  0  0  0  0  0  0  0  0  0
  -24.8235  -22.0623   20.6131 C   0  0  0  0  0  0  0  0  0  0  0  0
  -22.9581   -9.9986   21.0525 C   0  0  0  0  0  0  0  0  0  0  0  0
  -23.3026   -7.2539   21.4138 C   0  0  0  0  0  0  0  0  0  0  0  0
  -22.4154   -9.3691   22.1726 C   0  0  0  0  0  0  0  0  0  0  0  0
  -27.3772  -14.5423   20.5922 C   0  0  0  0  0  0  0  0  0  0  0  0
  -31.4262  -23.3958   17.0317 C   0  0  0  0  0  0  0  0  0  0  0  0
  -29.4193  -24.2218   17.8956 C   0  0  0  0  0  0  0  0  0  0  0  0
  -29.3660  -15.3536   20.1217 C   0  0  0  0  0  0  0  0  0  0  0  0
  -30.9776  -23.2812   19.2572 C   0  0  0  0  0  0  0  0  0  0  0  0
  -28.8742  -13.1653   19.0181 C   0  0  0  0  0  0  0  0  0  0  0  0
  -21.4769  -25.8187   22.6512 C   0  0  0  0  0  0  0  0  0  0  0  0
  -23.8554  -27.9924   22.2766 C   0  0  0  0  0  0  0  0  0  0  0  0
  -27.0384  -28.6541   21.2387 C   0  0  0  0  0  0  0  0  0  0  0  0
  -30.1249  -20.7556   20.5579 C   0  0  0  0  0  0  0  0  0  0  0  0
  -17.1611  -27.5431   24.7626 C   0  0  0  0  0  0  0  0  0  0  0  0
  -23.4130  -24.6418   23.7567 C   0  0  0  0  0  0  0  0  0  0  0  0
  -24.1688  -25.7676   21.1288 C   0  0  0  0  0  0  0  0  0  0  0  0
  -18.2389  -28.1246   23.8513 C   0  0  0  0  0  0  0  0  0  0  0  0
  -28.9305  -19.0681   23.5283 C   0  0  0  0  0  0  0  0  0  0  0  0
  -18.5221  -27.1788   22.6885 C   0  0  0  0  0  0  0  0  0  0  0  0
  -28.5152  -17.7098   22.9602 C   0  0  0  0  0  0  0  0  0  0  0  0
  -28.6087  -20.1968   22.5533 C   0  0  0  0  0  0  0  0  0  0  0  0
  -28.7876  -18.6700   20.6270 C   0  0  0  0  0  0  0  0  0  0  0  0
  -19.0480  -25.8288   23.1909 C   0  0  1  0  0  0  0  0  0  0  0  0
  -22.8441  -25.9661   23.2568 C   0  0  1  0  0  0  0  0  0  0  0  0
  -29.1072  -17.4849   21.5562 C   0  0  2  0  0  0  0  0  0  0  0  0
  -32.3541  -23.1232   15.8955 C   0  0  0  0  0  0  0  0  0  0  0  0
  -28.6900  -30.5311   21.0234 C   0  0  0  0  0  0  0  0  0  0  0  0
  -31.5072  -24.0372   21.6690 C   0  0  0  0  0  0  0  0  0  0  0  0
  -32.8012  -22.2014   20.5909 C   0  0  0  0  0  0  0  0  0  0  0  0
  -22.3471  -29.0367   19.8385 C   0  0  0  0  0  0  0  0  0  0  0  0
  -24.4404  -30.2166   19.1357 C   0  0  0  0  0  0  0  0  0  0  0  0
  -23.3381  -30.8140   21.2923 C   0  0  0  0  0  0  0  0  0  0  0  0
  -26.0952  -20.7588   17.4281 C   0  0  0  0  0  0  0  0  0  0  0  0
  -24.3528  -22.5116   17.8241 C   0  0  0  0  0  0  0  0  0  0  0  0
  -28.9591  -27.3273   23.0578 C   0  0  0  0  0  0  0  0  0  0  0  0
  -28.0760  -24.8866   17.7292 C   0  0  0  0  0  0  0  0  0  0  0  0
  -26.9251  -23.9039   17.4762 C   0  0  0  0  0  0  0  0  0  0  0  0
  -26.7541  -22.8812   18.6104 C   0  0  0  0  0  0  0  0  0  0  0  0
  -24.5622  -28.6107   21.0946 C   0  0  1  0  0  0  0  0  0  0  0  0
  -28.1801  -29.4012   21.9043 C   0  0  2  0  0  0  0  0  0  0  0  0
  -31.4029  -22.8813   20.6294 C   0  0  0  0  0  0  0  0  0  0  0  0
  -23.6719  -29.6414   20.3446 C   0  0  0  0  0  0  0  0  0  0  0  0
  -25.6194  -21.8602   18.3811 C   0  0  0  0  0  0  0  0  0  1  0  0
  -27.4379  -15.6924   21.2687 N   0  0  0  0  0  0  0  0  0  0  0  0
  -31.8417  -23.0178   18.2584 N   0  0  0  0  0  0  0  0  0  0  0  0
  -29.7712  -23.8698   19.1496 N   0  0  0  0  0  0  0  0  0  0  0  0
  -28.6592  -16.1622   20.9625 N   0  0  0  0  0  0  0  0  0  0  0  0
  -23.6928  -26.6001   22.2459 N   0  0  0  0  0  0  0  0  0  0  0  0
  -29.2167  -19.9306   21.2420 N   0  0  0  0  0  0  0  0  0  0  0  0
  -30.6115  -15.6755   19.7125 N   0  0  0  0  0  0  0  0  0  0  0  0
  -27.9217  -12.1497   18.8585 N   0  0  0  0  0  0  0  0  0  0  0  0
  -20.4431  -25.9358   23.5606 N   0  0  0  0  0  0  0  0  0  0  0  0
  -25.8112  -29.1623   21.6087 N   0  0  0  0  0  0  0  0  0  0  0  0
  -30.4745  -21.9341   21.2056 N   0  0  0  0  0  0  0  0  0  0  0  0
  -29.3133  -28.4741   22.1824 N   0  3  0  0  0  0  0  0  0  0  0  0
  -29.9819  -13.0648   18.4381 O   0  0  0  0  0  0  0  0  0  0  0  0
  -21.3679  -25.6154   21.4477 O   0  0  0  0  0  0  0  0  0  0  0  0
  -23.4684  -28.7171   23.1967 O   0  0  0  0  0  0  0  0  0  0  0  0
  -27.2175  -27.7162   20.4649 O   0  0  0  0  0  0  0  0  0  0  0  0
  -30.5940  -20.4611   19.4532 O   0  0  0  0  0  0  0  0  0  0  0  0
  -22.7873  -11.3608   20.8713 O   0  0  0  0  0  0  0  0  0  0  0  0
  -25.2742  -21.2459   19.6220 O   0  0  0  0  0  0  0  0  0  1  0  0
  -23.4667   -5.9357   21.5864 F   0  0  0  0  0  0  0  0  0  0  0  0
  -21.7266  -10.0772   23.0781 F   0  0  0  0  0  0  0  0  0  0  0  0
  1  2  1  0  0  0  0
  1  5  2  0  0  0  0
  2  6  2  0  0  0  0
  3  8  2  0  0  0  0
  3 16  1  0  0  0  0
  4  9  1  0  0  0  0
  4 16  2  0  0  0  0
  5 18  1  0  0  0  0
  6 20  1  0  0  0  0
  7 10  2  0  0  0  0
  7 19  1  0  0  0  0
  8 22  1  0  0  0  0
  9 22  2  0  0  0  0
 10 23  1  0  0  0  0
 11 12  2  0  0  0  0
 11 24  1  0  0  0  0
 12 25  1  0  0  0  0
 13 21  1  0  0  0  0
 13 23  2  0  0  0  0
 14 25  2  0  0  0  0
 14 26  1  0  0  0  0
 15 28  2  0  0  0  0
 15 29  1  0  0  0  0
 16 27  1  0  0  0  0
 17 27  1  0  0  0  0
 17 30  2  0  0  0  0
 17 32  1  0  0  0  0
 18 20  2  0  0  0  0
 18 37  1  0  0  0  0
 19 21  2  0  0  0  0
 19 38  1  0  0  0  0
 20 46  1  0  0  0  0
 21 39  1  0  0  0  0
 22 84  1  0  0  0  0
 23 85  1  0  0  0  0
 24 26  2  0  0  0  0
 24 84  1  0  0  0  0
 25 86  1  0  0  0  0
 26 87  1  0  0  0  0
 27 67  2  0  0  0  0
 28 49  1  0  0  0  0
 28 68  1  0  0  0  0
 29 59  1  0  0  0  0
 29 69  2  0  0  0  0
 30 70  1  0  0  0  0
 30 73  1  0  0  0  0
 31 64  1  0  0  0  0
 31 68  2  0  0  0  0
 31 69  1  0  0  0  0
 32 74  1  0  0  0  0
 32 79  2  0  0  0  0
 33 47  1  0  0  0  0
 33 75  1  0  0  0  0
 33 80  2  0  0  0  0
 34 62  1  0  0  0  0
 34 71  1  0  0  0  0
 34 81  2  0  0  0  0
 35 63  1  0  0  0  0
 35 76  1  0  0  0  0
 35 82  2  0  0  0  0
 36 72  1  0  0  0  0
 36 77  1  0  0  0  0
 36 83  2  0  0  0  0
 37 40  1  0  0  0  0
 38 47  1  0  0  0  0
 39 71  1  0  0  0  0
 40 42  1  0  0  0  0
 41 43  1  0  0  0  0
 41 44  1  0  0  0  0
 42 46  1  0  0  0  0
 43 48  1  0  0  0  0
 44 72  1  0  0  0  0
 45 48  1  0  0  0  0
 45 72  1  0  0  0  0
 46 75  1  0  0  0  0
 47 71  1  0  0  0  0
 48 70  1  0  0  0  0
 50 63  1  0  0  0  0
 51 64  1  0  0  0  0
 52 64  1  0  0  0  0
 53 65  1  0  0  0  0
 54 65  1  0  0  0  0
 55 65  1  0  0  0  0
 56 66  1  0  0  0  0
 57 66  1  0  0  0  0
 58 78  1  0  0  0  0
 59 60  1  0  0  0  0
 60 61  1  0  0  0  0
 61 66  1  0  0  0  0
 62 65  1  0  0  0  0
 62 76  1  0  0  0  0
 63 78  1  0  0  0  0
 64 77  1  0  0  0  0
 66 85  1  0  0  0  0
 67 70  1  0  0  0  0
M  CHG  1  78   1
M  ISO  4  36 100  66 101  77 100  85 101
M  END
> <Batch ID>
0073

> <Smiles>
CNC(C)C(=O)NC(C(=O)N1Cc2cc([101O:1][101C:1](C)(C)CCCc3cc(C)nc(C(C)(C)[100NH:0][100C:0](=O)N4CCCC(n5nc(-c6ccc(Oc7ccc(F)cc7F)cc6)c(C(N)=O)c5N)C4)n3)ccc2CC1C(=O)NC1CCCc2ccccc21)C(C)(C)C

> <Shape>
0.246

> <Color>
0.058

> <Negative vol penalty>
0.000

$$$$

  -OEChem-04052318273D

 83 91  0     1  0  0  0  0  0999 V2000
  -16.1084  -24.8211   21.9798 C   0  0  0  0  0  0  0  0  0  0  0  0
  -17.1275  -24.3582   21.1537 C   0  0  0  0  0  0  0  0  0  0  0  0
  -25.7820  -13.4337   18.5174 C   0  0  0  0  0  0  0  0  0  0  0  0
  -25.0489  -13.7757   20.7940 C   0  0  0  0  0  0  0  0  0  0  0  0
  -16.1115  -26.1464   22.4130 C   0  0  0  0  0  0  0  0  0  0  0  0
  -18.1499  -25.2205   20.7595 C   0  0  0  0  0  0  0  0  0  0  0  0
  -24.0314  -23.7809   19.8419 C   0  0  0  0  0  0  0  0  0  0  0  0
  -25.7888  -12.0546   18.7268 C   0  0  0  0  0  0  0  0  0  0  0  0
  -25.0557  -12.3967   21.0033 C   0  0  0  0  0  0  0  0  0  0  0  0
  -24.7591  -23.5005   18.6863 C   0  0  0  0  0  0  0  0  0  0  0  0
  -24.5328   -8.9480   22.0287 C   0  0  0  0  0  0  0  0  0  0  0  0
  -23.4398   -8.3861   22.6885 C   0  0  0  0  0  0  0  0  0  0  0  0
  -25.4963  -25.7959   18.6010 C   0  0  0  0  0  0  0  0  0  0  0  0
  -21.9728   -9.1958   20.9480 C   0  0  0  0  0  0  0  0  0  0  0  0
  -30.7673  -23.4571   20.2426 C   0  0  0  0  0  0  0  0  0  0  0  0
  -25.4121  -14.2942   19.5510 C   0  0  0  0  0  0  0  0  0  0  0  0
  -24.3324  -16.5035   18.8723 C   0  0  0  0  0  0  0  0  0  0  0  0
  -17.1397  -27.0228   22.0317 C   0  0  0  0  0  0  0  0  0  0  0  0
  -24.0218  -25.0756   20.3805 C   0  0  0  0  0  0  0  0  0  0  0  0
  -18.1661  -26.5591   21.1869 C   0  0  0  0  0  0  0  0  0  0  0  0
  -24.7696  -26.0894   19.7650 C   0  0  0  0  0  0  0  0  0  0  0  0
  -25.4256  -11.5361   19.9697 C   0  0  0  0  0  0  0  0  0  0  0  0
  -25.4894  -24.5088   18.0640 C   0  0  0  0  0  0  0  0  0  0  0  0
  -24.3457   -9.6339   20.8285 C   0  0  0  0  0  0  0  0  0  0  0  0
  -22.1599   -8.5100   22.1481 C   0  0  0  0  0  0  0  0  0  0  0  0
  -23.0658   -9.7578   20.2882 C   0  0  0  0  0  0  0  0  0  0  0  0
  -25.4054  -15.7189   19.3355 C   0  0  0  0  0  0  0  0  0  0  0  0
  -29.4422  -23.0821   20.2136 C   0  0  0  0  0  0  0  0  0  0  0  0
  -30.8175  -23.4571   17.9564 C   0  0  0  0  0  0  0  0  0  0  0  0
  -29.4925  -23.0814   17.9273 C   0  0  0  0  0  0  0  0  0  0  0  0
  -24.8308  -17.7830   18.8415 C   0  0  0  0  0  0  0  0  0  0  0  0
  -23.0037  -16.1110   18.5030 C   0  0  0  0  0  0  0  0  0  0  0  0
  -21.7821  -27.2677   20.9114 C   0  0  0  0  0  0  0  0  0  0  0  0
  -24.2187  -28.8431   22.3615 C   0  0  0  0  0  0  0  0  0  0  0  0
  -27.6046  -21.8408   21.3150 C   0  0  0  0  0  0  0  0  0  0  0  0
  -27.5834  -29.3302   22.6595 C   0  0  0  0  0  0  0  0  0  0  0  0
  -17.0751  -28.4593   22.4867 C   0  0  0  0  0  0  0  0  0  0  0  0
  -23.2531  -25.3554   21.6428 C   0  0  0  0  0  0  0  0  0  0  0  0
  -24.8087  -27.4911   20.3147 C   0  0  0  0  0  0  0  0  0  0  0  0
  -18.3957  -29.2083   22.3286 C   0  0  0  0  0  0  0  0  0  0  0  0
  -29.5554  -19.4993   19.3303 C   0  0  0  0  0  0  0  0  0  0  0  0
  -18.9962  -28.9468   20.9509 C   0  0  0  0  0  0  0  0  0  0  0  0
  -28.5609  -18.3541   19.1439 C   0  0  0  0  0  0  0  0  0  0  0  0
  -29.4056  -20.1553   20.7004 C   0  0  0  0  0  0  0  0  0  0  0  0
  -27.0241  -19.4904   20.8052 C   0  0  0  0  0  0  0  0  0  0  0  0
  -19.3059  -27.4574   20.7579 C   0  0  1  0  0  0  0  0  0  0  0  0
  -22.9011  -26.8299   21.8135 C   0  0  1  0  0  0  0  0  0  0  0  0
  -27.1220  -18.8217   19.4239 C   0  0  2  0  0  0  0  0  0  0  0  0
  -31.5932  -23.6685   16.7012 C   0  0  0  0  0  0  0  0  0  0  0  0
  -29.7321  -30.2320   23.5906 C   0  0  0  0  0  0  0  0  0  0  0  0
  -27.9987  -24.1925   21.9388 C   0  0  0  0  0  0  0  0  0  0  0  0
  -29.5121  -22.3561   22.6945 C   0  0  0  0  0  0  0  0  0  0  0  0
  -23.5597  -31.2375   20.5888 C   0  0  0  0  0  0  0  0  0  0  0  0
  -25.7989  -32.1953   21.1694 C   0  0  0  0  0  0  0  0  0  0  0  0
  -24.1048  -31.8141   22.9604 C   0  0  0  0  0  0  0  0  0  0  0  0
  -27.7848  -27.1342   24.6333 C   0  0  0  0  0  0  0  0  0  0  0  0
  -28.7648  -22.8663   16.6243 C   0  0  0  0  0  0  0  0  0  0  0  0
  -28.3712  -24.1649   15.9170 C   0  0  0  0  0  0  0  0  0  0  0  0
  -27.3802  -25.0083   16.7106 C   0  0  0  0  0  0  0  0  0  1  0  0
  -25.2705  -29.8294   21.9142 C   0  0  1  0  0  0  0  0  0  0  0  0
  -28.4857  -29.4094   23.8777 C   0  0  2  0  0  0  0  0  0  0  0  0
  -28.6872  -22.8775   21.4801 C   0  0  0  0  0  0  0  0  0  0  0  0
  -24.6814  -31.2432   21.6465 C   0  0  0  0  0  0  0  0  0  0  0  0
  -31.4788  -23.6514   19.1145 N   0  0  0  0  0  0  0  0  0  0  0  0
  -26.5028  -16.4395   19.5812 N   0  0  0  0  0  0  0  0  0  0  0  0
  -28.7810  -22.8875   19.0554 N   0  0  0  0  0  0  0  0  0  0  0  0
  -26.1220  -17.6905   19.2710 N   0  0  0  0  0  0  0  0  0  0  0  0
  -24.0358  -27.7164   21.5473 N   0  0  0  0  0  0  0  0  0  0  0  0
  -28.0155  -20.5615   20.9398 N   0  0  0  0  0  0  0  0  0  0  0  0
  -24.2863  -18.9669   18.4890 N   0  0  0  0  0  0  0  0  0  0  0  0
  -22.6577  -14.7559   18.5944 N   0  0  0  0  0  0  0  0  0  0  0  0
  -20.5228  -27.0997   21.4549 N   0  0  0  0  0  0  0  0  0  0  0  0
  -26.3160  -29.8005   22.9312 N   0  0  0  0  0  0  0  0  0  0  0  0
  -28.9102  -28.0439   24.2975 N   0  3  0  0  0  0  0  0  0  0  0  0
  -22.1538  -16.9350   18.0882 O   0  0  0  0  0  0  0  0  0  0  0  0
  -22.0420  -27.7254   19.8047 O   0  0  0  0  0  0  0  0  0  0  0  0
  -23.5879  -29.0607   23.3990 O   0  0  0  0  0  0  0  0  0  0  0  0
  -26.4295  -22.1611   21.5113 O   0  0  0  0  0  0  0  0  0  0  0  0
  -27.9657  -28.8980   21.5744 O   0  0  0  0  0  0  0  0  0  0  0  0
  -25.4319  -10.1905   20.1743 O   0  0  0  0  0  0  0  0  0  0  0  0
  -26.2002  -24.2380   16.9355 O   0  0  0  0  0  0  0  0  0  1  0  0
  -21.1106   -7.9690   22.7810 F   0  0  0  0  0  0  0  0  0  0  0  0
  -22.8800  -10.4145   19.1349 F   0  0  0  0  0  0  0  0  0  0  0  0
  1  2  1  0  0  0  0
  1  5  2  0  0  0  0
  2  6  2  0  0  0  0
  3  8  2  0  0  0  0
  3 16  1  0  0  0  0
  4  9  1  0  0  0  0
  4 16  2  0  0  0  0
  5 18  1  0  0  0  0
  6 20  1  0  0  0  0
  7 10  2  0  0  0  0
  7 19  1  0  0  0  0
  8 22  1  0  0  0  0
  9 22  2  0  0  0  0
 10 23  1  0  0  0  0
 11 12  2  0  0  0  0
 11 24  1  0  0  0  0
 12 25  1  0  0  0  0
 13 21  1  0  0  0  0
 13 23  2  0  0  0  0
 14 25  2  0  0  0  0
 14 26  1  0  0  0  0
 15 28  1  0  0  0  0
 15 64  2  0  0  0  0
 16 27  1  0  0  0  0
 17 27  1  0  0  0  0
 17 31  2  0  0  0  0
 17 32  1  0  0  0  0
 18 20  2  0  0  0  0
 18 37  1  0  0  0  0
 19 21  2  0  0  0  0
 19 38  1  0  0  0  0
 20 46  1  0  0  0  0
 21 39  1  0  0  0  0
 22 80  1  0  0  0  0
 23 81  1  0  0  0  0
 24 26  2  0  0  0  0
 24 80  1  0  0  0  0
 25 82  1  0  0  0  0
 26 83  1  0  0  0  0
 27 65  2  0  0  0  0
 28 62  1  0  0  0  0
 28 66  2  0  0  0  0
 29 30  2  0  0  0  0
 29 49  1  0  0  0  0
 29 64  1  0  0  0  0
 30 57  1  0  0  0  0
 30 66  1  0  0  0  0
 31 67  1  0  0  0  0
 31 70  1  0  0  0  0
 32 71  1  0  0  0  0
 32 75  2  0  0  0  0
 33 47  1  0  0  0  0
 33 72  1  0  0  0  0
 33 76  2  0  0  0  0
 34 60  1  0  0  0  0
 34 68  1  0  0  0  0
 34 77  2  0  0  0  0
 35 62  1  0  0  0  0
 35 69  1  0  0  0  0
 35 78  2  0  0  0  0
 36 61  1  0  0  0  0
 36 73  1  0  0  0  0
 36 79  2  0  0  0  0
 37 40  1  0  0  0  0
 38 47  1  0  0  0  0
 39 68  1  0  0  0  0
 40 42  1  0  0  0  0
 41 43  1  0  0  0  0
 41 44  1  0  0  0  0
 42 46  1  0  0  0  0
 43 48  1  0  0  0  0
 44 69  1  0  0  0  0
 45 48  1  0  0  0  0
 45 69  1  0  0  0  0
 46 72  1  0  0  0  0
 47 68  1  0  0  0  0
 48 67  1  0  0  0  0
 50 61  1  0  0  0  0
 51 62  1  0  0  0  0
 52 62  1  0  0  0  0
 53 63  1  0  0  0  0
 54 63  1  0  0  0  0
 55 63  1  0  0  0  0
 56 74  1  0  0  0  0
 57 58  1  0  0  0  0
 58 59  1  0  0  0  0
 59 81  1  0  0  0  0
 60 63  1  0  0  0  0
 60 73  1  0  0  0  0
 61 74  1  0  0  0  0
 65 67  1  0  0  0  0
M  CHG  1  74   1
M  ISO  4  35 100  59 101  62 100  81 101
M  END
> <Batch ID>
0073

> <Smiles>
CNC(C)C(=O)NC(C(=O)N1Cc2cc([101O:1][101CH2:1]CCc3nc([100C:0](C)(C)[100C:0](=O)N4CCCC(n5nc(-c6ccc(Oc7ccc(F)cc7F)cc6)c(C(N)=O)c5N)C4)cnc3C)ccc2CC1C(=O)NC1CCCc2ccccc21)C(C)(C)C

> <Shape>
0.256

> <Color>
0.064

> <Negative vol penalty>
0.000

$$$$

  -OEChem-04052318273D

 84 92  0     1  0  0  0  0  0999 V2000
  -18.4396  -24.0140   23.3141 C   0  0  0  0  0  0  0  0  0  0  0  0
  -19.8037  -23.8560   23.0911 C   0  0  0  0  0  0  0  0  0  0  0  0
  -23.5993  -13.7176   21.2789 C   0  0  0  0  0  0  0  0  0  0  0  0
  -25.9096  -13.8787   20.5908 C   0  0  0  0  0  0  0  0  0  0  0  0
  -17.8603  -25.2784   23.2160 C   0  0  0  0  0  0  0  0  0  0  0  0
  -20.5891  -24.9622   22.7687 C   0  0  0  0  0  0  0  0  0  0  0  0
  -24.9484  -25.0665   25.3437 C   0  0  0  0  0  0  0  0  0  0  0  0
  -23.5438  -12.4133   20.7877 C   0  0  0  0  0  0  0  0  0  0  0  0
  -25.8542  -12.5743   20.0996 C   0  0  0  0  0  0  0  0  0  0  0  0
  -25.9680  -24.2235   24.9039 C   0  0  0  0  0  0  0  0  0  0  0  0
  -24.5232   -9.3334   21.7817 C   0  0  0  0  0  0  0  0  0  0  0  0
  -23.9173   -8.3646   22.5816 C   0  0  0  0  0  0  0  0  0  0  0  0
  -27.0145  -26.0847   23.7815 C   0  0  0  0  0  0  0  0  0  0  0  0
  -22.2943   -7.9434   20.8422 C   0  0  0  0  0  0  0  0  0  0  0  0
  -29.4205  -22.7913   20.0542 C   0  0  0  0  0  0  0  0  0  0  0  0
  -27.3474  -23.2993   20.5823 C   0  0  0  0  0  0  0  0  0  0  0  0
  -24.7821  -14.4503   21.1805 C   0  0  0  0  0  0  0  0  0  0  0  0
  -25.1989  -16.2027   22.9868 C   0  0  0  0  0  0  0  0  0  0  0  0
  -18.6407  -26.4022   22.9018 C   0  0  0  0  0  0  0  0  0  0  0  0
  -24.9484  -26.4250   24.9960 C   0  0  0  0  0  0  0  0  0  0  0  0
  -20.0194  -26.2426   22.6650 C   0  0  0  0  0  0  0  0  0  0  0  0
  -25.9951  -26.9434   24.2203 C   0  0  0  0  0  0  0  0  0  0  0  0
  -28.4528  -22.6431   21.0658 C   0  0  0  0  0  0  0  0  0  0  0  0
  -24.6713  -11.8416   20.1980 C   0  0  0  0  0  0  0  0  0  0  0  0
  -26.9997  -24.7319   24.1202 C   0  0  0  0  0  0  0  0  0  0  0  0
  -24.0146   -9.6073   20.5120 C   0  0  0  0  0  0  0  0  0  0  0  0
  -22.8029   -7.6696   22.1119 C   0  0  0  0  0  0  0  0  0  0  0  0
  -22.9002   -8.9123   20.0423 C   0  0  0  0  0  0  0  0  0  0  0  0
  -24.8398  -15.7979   21.6872 C   0  0  0  0  0  0  0  0  0  0  0  0
  -25.0964  -17.5721   22.9605 C   0  0  0  0  0  0  0  0  0  0  0  0
  -25.5901  -15.4116   24.1168 C   0  0  0  0  0  0  0  0  0  0  0  0
  -22.9992  -28.3183   23.3468 C   0  0  0  0  0  0  0  0  0  0  0  0
  -25.0217  -30.6392   24.3692 C   0  0  0  0  0  0  0  0  0  0  0  0
  -28.1330  -31.4842   25.4883 C   0  0  0  0  0  0  0  0  0  0  0  0
  -25.5382  -21.4652   18.5442 C   0  0  0  0  0  0  0  0  0  0  0  0
  -17.9613  -27.7412   22.7605 C   0  0  0  0  0  0  0  0  0  0  0  0
  -23.8554  -27.3267   25.5008 C   0  0  0  0  0  0  0  0  0  0  0  0
  -26.0521  -28.3987   23.8364 C   0  0  0  0  0  0  0  0  0  0  0  0
  -18.9298  -28.9210   22.7825 C   0  0  0  0  0  0  0  0  0  0  0  0
  -22.7171  -21.1081   20.7827 C   0  0  0  0  0  0  0  0  0  0  0  0
  -20.1207  -28.6511   21.8684 C   0  0  0  0  0  0  0  0  0  0  0  0
  -22.9854  -19.7313   21.3930 C   0  0  0  0  0  0  0  0  0  0  0  0
  -23.1079  -21.1450   19.3083 C   0  0  0  0  0  0  0  0  0  0  0  0
  -24.7889  -19.3743   19.6438 C   0  0  0  0  0  0  0  0  0  0  0  0
  -20.9090  -27.4222   22.3375 C   0  0  1  0  0  0  0  0  0  0  0  0
  -23.6830  -28.5864   24.6576 C   0  0  1  0  0  0  0  0  0  0  0  0
  -24.4356  -19.2789   21.1392 C   0  0  2  0  0  0  0  0  0  0  0  0
  -29.4981  -33.4641   26.2055 C   0  0  0  0  0  0  0  0  0  0  0  0
  -30.0395  -21.9207   22.9736 C   0  0  0  0  0  0  0  0  0  0  0  0
  -28.2010  -20.4259   22.2234 C   0  0  0  0  0  0  0  0  0  0  0  0
  -25.3359  -31.4763   21.4519 C   0  0  0  0  0  0  0  0  0  0  0  0
  -27.3717  -32.7735   22.1161 C   0  0  0  0  0  0  0  0  0  0  0  0
  -25.1458  -33.3758   23.0676 C   0  0  0  0  0  0  0  0  0  0  0  0
  -25.8118  -25.4147   19.1788 C   0  0  0  0  0  0  0  0  0  0  0  0
  -27.7675  -25.5171   17.6555 C   0  0  0  0  0  0  0  0  0  0  0  0
  -28.5360  -30.3704   28.2004 C   0  0  0  0  0  0  0  0  0  0  0  0
  -26.1405  -23.6126   17.4564 C   0  0  0  0  0  0  0  0  0  0  0  0
  -27.6606  -22.5410   23.4729 C   0  0  0  0  0  0  0  0  0  1  0  0
  -26.2925  -31.2591   23.8402 C   0  0  1  0  0  0  0  0  0  0  0  0
  -28.5848  -32.3364   26.6605 C   0  0  2  0  0  0  0  0  0  0  0  0
  -28.5975  -21.9083   22.4117 C   0  0  0  0  0  0  0  0  0  0  0  0
  -26.0347  -32.1933   22.6244 C   0  0  0  0  0  0  0  0  0  0  0  0
  -26.8722  -24.5446   18.4604 C   0  0  0  0  0  0  0  0  0  0  0  0
  -28.9694  -23.4869   19.0070 N   0  0  0  0  0  0  0  0  0  0  0  0
  -24.5321  -16.8268   20.8932 N   0  0  0  0  0  0  0  0  0  0  0  0
  -27.7060  -23.7816   19.3580 N   0  0  0  0  0  0  0  0  0  0  0  0
  -24.6974  -17.8918   21.6961 N   0  0  0  0  0  0  0  0  0  0  0  0
  -24.9571  -29.2388   24.3490 N   0  0  0  0  0  0  0  0  0  0  0  0
  -24.5048  -20.7212   19.1374 N   0  0  0  0  0  0  0  0  0  0  0  0
  -25.3095  -18.5219   23.8958 N   0  0  0  0  0  0  0  0  0  0  0  0
  -25.6431  -14.0187   23.9711 N   0  0  0  0  0  0  0  0  0  0  0  0
  -21.7419  -27.7589   23.4721 N   0  0  0  0  0  0  0  0  0  0  0  0
  -26.9287  -31.9180   24.9758 N   0  0  0  0  0  0  0  0  0  0  0  0
  -25.1845  -22.7279   18.0844 N   0  0  0  0  0  0  0  0  0  0  0  0
  -29.3238  -31.5040   27.6515 N   0  3  0  0  0  0  0  0  0  0  0  0
  -25.8682  -15.9237   25.2277 O   0  0  0  0  0  0  0  0  0  0  0  0
  -23.5695  -28.5996   22.2992 O   0  0  0  0  0  0  0  0  0  0  0  0
  -24.1225  -31.3704   24.7916 O   0  0  0  0  0  0  0  0  0  0  0  0
  -28.7852  -30.5316   25.0668 O   0  0  0  0  0  0  0  0  0  0  0  0
  -26.6928  -21.0380   18.4369 O   0  0  0  0  0  0  0  0  0  0  0  0
  -24.6177  -10.5689   19.7188 O   0  0  0  0  0  0  0  0  0  0  0  0
  -27.9959  -23.9112   23.6890 O   0  0  0  0  0  0  0  0  0  1  0  0
  -22.2221   -6.7381   22.8796 F   0  0  0  0  0  0  0  0  0  0  0  0
  -22.4077   -9.1702   18.8230 F   0  0  0  0  0  0  0  0  0  0  0  0
  1  2  1  0  0  0  0
  1  5  2  0  0  0  0
  2  6  2  0  0  0  0
  3  8  2  0  0  0  0
  3 17  1  0  0  0  0
  4  9  1  0  0  0  0
  4 17  2  0  0  0  0
  5 19  1  0  0  0  0
  6 21  1  0  0  0  0
  7 10  2  0  0  0  0
  7 20  1  0  0  0  0
  8 24  1  0  0  0  0
  9 24  2  0  0  0  0
 10 25  1  0  0  0  0
 11 12  2  0  0  0  0
 11 26  1  0  0  0  0
 12 27  1  0  0  0  0
 13 22  1  0  0  0  0
 13 25  2  0  0  0  0
 14 27  2  0  0  0  0
 14 28  1  0  0  0  0
 15 23  1  0  0  0  0
 15 64  2  0  0  0  0
 16 23  2  0  0  0  0
 16 66  1  0  0  0  0
 17 29  1  0  0  0  0
 18 29  1  0  0  0  0
 18 30  2  0  0  0  0
 18 31  1  0  0  0  0
 19 21  2  0  0  0  0
 19 36  1  0  0  0  0
 20 22  2  0  0  0  0
 20 37  1  0  0  0  0
 21 45  1  0  0  0  0
 22 38  1  0  0  0  0
 23 61  1  0  0  0  0
 24 81  1  0  0  0  0
 25 82  1  0  0  0  0
 26 28  2  0  0  0  0
 26 81  1  0  0  0  0
 27 83  1  0  0  0  0
 28 84  1  0  0  0  0
 29 65  2  0  0  0  0
 30 67  1  0  0  0  0
 30 70  1  0  0  0  0
 31 71  1  0  0  0  0
 31 76  2  0  0  0  0
 32 46  1  0  0  0  0
 32 72  1  0  0  0  0
 32 77  2  0  0  0  0
 33 59  1  0  0  0  0
 33 68  1  0  0  0  0
 33 78  2  0  0  0  0
 34 60  1  0  0  0  0
 34 73  1  0  0  0  0
 34 79  2  0  0  0  0
 35 69  1  0  0  0  0
 35 74  1  0  0  0  0
 35 80  2  0  0  0  0
 36 39  1  0  0  0  0
 37 46  1  0  0  0  0
 38 68  1  0  0  0  0
 39 41  1  0  0  0  0
 40 42  1  0  0  0  0
 40 43  1  0  0  0  0
 41 45  1  0  0  0  0
 42 47  1  0  0  0  0
 43 69  1  0  0  0  0
 44 47  1  0  0  0  0
 44 69  1  0  0  0  0
 45 72  1  0  0  0  0
 46 68  1  0  0  0  0
 47 67  1  0  0  0  0
 48 60  1  0  0  0  0
 49 61  1  0  0  0  0
 50 61  1  0  0  0  0
 51 62  1  0  0  0  0
 52 62  1  0  0  0  0
 53 62  1  0  0  0  0
 54 63  1  0  0  0  0
 55 63  1  0  0  0  0
 56 75  1  0  0  0  0
 57 63  1  0  0  0  0
 57 74  1  0  0  0  0
 58 61  1  0  0  0  0
 58 82  1  0  0  0  0
 59 62  1  0  0  0  0
 59 73  1  0  0  0  0
 60 75  1  0  0  0  0
 63 66  1  0  0  0  0
 64 66  1  0  0  0  0
 65 67  1  0  0  0  0
M  CHG  1  75   1
M  ISO  4  35 100  58 101  74 100  82 101
M  END
> <Batch ID>
0073

> <Smiles>
CNC(C)C(=O)NC(C(=O)N1Cc2cc([101O:1][101CH2:1]C(C)(C)c3cnn(C(C)(C)C[100NH:0][100C:0](=O)N4CCCC(n5nc(-c6ccc(Oc7ccc(F)cc7F)cc6)c(C(N)=O)c5N)C4)c3)ccc2CC1C(=O)NC1CCCc2ccccc21)C(C)(C)C

> <Shape>
0.225

> <Color>
0.067

> <Negative vol penalty>
0.000

$$$$

  -OEChem-04052318273D

 85 93  0     1  0  0  0  0  0999 V2000
  -29.5453  -33.2930   15.1770 C   0  0  0  0  0  0  0  0  0  0  0  0
  -29.7430  -31.9962   15.6402 C   0  0  0  0  0  0  0  0  0  0  0  0
  -22.3827  -16.7423   21.0859 C   0  0  0  0  0  0  0  0  0  0  0  0
  -23.9050  -17.7542   19.5061 C   0  0  0  0  0  0  0  0  0  0  0  0
  -28.8752  -34.2215   15.9725 C   0  0  0  0  0  0  0  0  0  0  0  0
  -29.2717  -31.6274   16.8998 C   0  0  0  0  0  0  0  0  0  0  0  0
  -27.0621  -26.1587   18.5478 C   0  0  0  0  0  0  0  0  0  0  0  0
  -21.5841  -17.8853   21.0486 C   0  0  0  0  0  0  0  0  0  0  0  0
  -23.1064  -18.8972   19.4687 C   0  0  0  0  0  0  0  0  0  0  0  0
  -27.6389  -25.0737   19.2066 C   0  0  0  0  0  0  0  0  0  0  0  0
  -22.5742  -21.6284   21.3892 C   0  0  0  0  0  0  0  0  0  0  0  0
  -23.2115  -22.8669   21.4628 C   0  0  0  0  0  0  0  0  0  0  0  0
  -26.7309  -25.8674   21.2958 C   0  0  0  0  0  0  0  0  0  0  0  0
  -22.2994  -23.4645   19.3069 C   0  0  0  0  0  0  0  0  0  0  0  0
  -23.5432  -16.6767   20.3148 C   0  0  0  0  0  0  0  0  0  0  0  0
  -23.9929  -14.1844   20.0084 C   0  0  0  0  0  0  0  0  0  0  0  0
  -28.3870  -33.8613   17.2384 C   0  0  0  0  0  0  0  0  0  0  0  0
  -26.3233  -27.1136   19.2610 C   0  0  0  0  0  0  0  0  0  0  0  0
  -28.5957  -32.5524   17.7135 C   0  0  0  0  0  0  0  0  0  0  0  0
  -26.1436  -26.9621   20.6433 C   0  0  0  0  0  0  0  0  0  0  0  0
  -21.9459  -18.9627   20.2400 C   0  0  0  0  0  0  0  0  0  0  0  0
  -27.4758  -24.9295   20.5813 C   0  0  0  0  0  0  0  0  0  0  0  0
  -21.7995  -21.3078   20.2743 C   0  0  0  0  0  0  0  0  0  0  0  0
  -23.0741  -23.7850   20.4217 C   0  0  0  0  0  0  0  0  0  0  0  0
  -21.6621  -22.2259   19.2332 C   0  0  0  0  0  0  0  0  0  0  0  0
  -24.3688  -15.4965   20.3534 C   0  0  0  0  0  0  0  0  0  0  0  0
  -25.1264  -13.4368   20.2157 C   0  0  0  0  0  0  0  0  0  0  0  0
  -30.0911  -16.6376   18.7292 C   0  0  0  0  0  0  0  0  0  0  0  0
  -28.9478  -18.2175   17.9851 C   0  0  0  0  0  0  0  0  0  0  0  0
  -22.7320  -13.6860   19.5423 C   0  0  0  0  0  0  0  0  0  0  0  0
  -26.6176  -30.2322   19.8007 C   0  0  0  0  0  0  0  0  0  0  0  0
  -23.7200  -29.8657   21.2119 C   0  0  0  0  0  0  0  0  0  0  0  0
  -30.9515  -14.9120   20.2719 C   0  0  0  0  0  0  0  0  0  0  0  0
  -21.4827  -27.7893   22.7384 C   0  0  0  0  0  0  0  0  0  0  0  0
  -27.7104  -34.9128   18.0817 C   0  0  0  0  0  0  0  0  0  0  0  0
  -25.6850  -28.2637   18.5314 C   0  0  0  0  0  0  0  0  0  0  0  0
  -25.3425  -27.9486   21.4517 C   0  0  0  0  0  0  0  0  0  0  0  0
  -26.9131  -34.3371   19.2493 C   0  0  0  0  0  0  0  0  0  0  0  0
  -29.0931  -13.2939   22.8734 C   0  0  0  0  0  0  0  0  0  0  0  0
  -27.7324  -33.2826   19.9866 C   0  0  0  0  0  0  0  0  0  0  0  0
  -27.6376  -13.5803   22.5062 C   0  0  0  0  0  0  0  0  0  0  0  0
  -30.0012  -14.4646   22.5104 C   0  0  0  0  0  0  0  0  0  0  0  0
  -28.4584  -15.1675   20.7084 C   0  0  0  0  0  0  0  0  0  0  0  0
  -28.0775  -32.1075   19.0639 C   0  0  1  0  0  0  0  0  0  0  0  0
  -25.3849  -29.4535   19.4378 C   0  0  1  0  0  0  0  0  0  0  0  0
  -27.5117  -13.9977   21.0303 C   0  0  2  0  0  0  0  0  0  0  0  0
  -28.0657  -19.1133   17.2158 C   0  0  0  0  0  0  0  0  0  0  0  0
  -19.3223  -27.0610   23.7871 C   0  0  0  0  0  0  0  0  0  0  0  0
  -32.0829  -15.2421   18.1141 C   0  0  0  0  0  0  0  0  0  0  0  0
  -29.8693  -14.0998   18.2850 C   0  0  0  0  0  0  0  0  0  0  0  0
  -24.9046  -31.1781   23.6988 C   0  0  0  0  0  0  0  0  0  0  0  0
  -22.9575  -30.2998   25.0047 C   0  0  0  0  0  0  0  0  0  0  0  0
  -22.5803  -31.9119   23.1388 C   0  0  0  0  0  0  0  0  0  0  0  0
  -26.6823  -21.4291   22.0722 C   0  0  0  0  0  0  0  0  0  0  0  0
  -29.1391  -21.5339   22.5096 C   0  0  0  0  0  0  0  0  0  0  0  0
  -20.3460  -26.9970   20.1232 C   0  0  0  0  0  0  0  0  0  0  0  0
  -28.2194  -20.0951   20.6192 C   0  0  0  0  0  0  0  0  0  0  0  0
  -29.5252  -19.9324   19.8299 C   0  0  0  0  0  0  0  0  0  0  0  0
  -28.1915  -22.6637   20.4831 C   0  0  0  0  0  0  0  0  0  1  0  0
  -23.2439  -29.5314   22.6050 C   0  0  1  0  0  0  0  0  0  0  0  0
  -19.9940  -27.5816   22.5259 C   0  0  2  0  0  0  0  0  0  0  0  0
  -30.7013  -15.3072   18.8383 C   0  0  0  0  0  0  0  0  0  0  0  0
  -23.4383  -30.7126   23.5972 C   0  0  0  0  0  0  0  0  0  0  0  0
  -28.0741  -21.4298   21.4035 C   0  0  0  0  0  0  0  0  0  0  0  0
  -25.6415  -15.5809   20.7498 N   0  0  0  0  0  0  0  0  0  0  0  0
  -29.2534  -16.9721   17.7041 N   0  0  0  0  0  0  0  0  0  0  0  0
  -30.3232  -17.5976   19.6268 N   0  0  0  0  0  0  0  0  0  0  0  0
  -26.0752  -14.3124   20.6554 N   0  0  0  0  0  0  0  0  0  0  0  0
  -29.5803  -18.5973   19.1277 N   0  0  0  0  0  0  0  0  0  0  0  0
  -24.7435  -29.0596   20.6938 N   0  0  0  0  0  0  0  0  0  0  0  0
  -29.8358  -14.8451   21.1065 N   0  0  0  0  0  0  0  0  0  0  0  0
  -25.3939  -12.1225   20.0630 N   0  0  0  0  0  0  0  0  0  0  0  0
  -22.4932  -13.6597   18.1615 N   0  0  0  0  0  0  0  0  0  0  0  0
  -26.9328  -31.2363   18.9052 N   0  0  0  0  0  0  0  0  0  0  0  0
  -21.8609  -29.0875   22.4682 N   0  0  0  0  0  0  0  0  0  0  0  0
  -19.7592  -26.6004   21.4291 N   0  3  0  0  0  0  0  0  0  0  0  0
  -21.8371  -13.2914   20.3277 O   0  0  0  0  0  0  0  0  0  0  0  0
  -27.2362  -29.9443   20.8187 O   0  0  0  0  0  0  0  0  0  0  0  0
  -23.1979  -30.8029   20.6031 O   0  0  0  0  0  0  0  0  0  0  0  0
  -32.1046  -14.6674   20.6364 O   0  0  0  0  0  0  0  0  0  0  0  0
  -22.2341  -26.8909   23.1107 O   0  0  0  0  0  0  0  0  0  0  0  0
  -21.1668  -20.0781   20.2031 O   0  0  0  0  0  0  0  0  0  0  0  0
  -28.0383  -23.8719   21.2269 O   0  0  0  0  0  0  0  0  0  1  0  0
  -23.6849  -24.9749   20.4932 F   0  0  0  0  0  0  0  0  0  0  0  0
  -20.9182  -21.9241   18.1602 F   0  0  0  0  0  0  0  0  0  0  0  0
  1  2  1  0  0  0  0
  1  5  2  0  0  0  0
  2  6  2  0  0  0  0
  3  8  2  0  0  0  0
  3 15  1  0  0  0  0
  4  9  1  0  0  0  0
  4 15  2  0  0  0  0
  5 17  1  0  0  0  0
  6 19  1  0  0  0  0
  7 10  2  0  0  0  0
  7 18  1  0  0  0  0
  8 21  1  0  0  0  0
  9 21  2  0  0  0  0
 10 22  1  0  0  0  0
 11 12  2  0  0  0  0
 11 23  1  0  0  0  0
 12 24  1  0  0  0  0
 13 20  1  0  0  0  0
 13 22  2  0  0  0  0
 14 24  2  0  0  0  0
 14 25  1  0  0  0  0
 15 26  1  0  0  0  0
 16 26  1  0  0  0  0
 16 27  2  0  0  0  0
 16 30  1  0  0  0  0
 17 19  2  0  0  0  0
 17 35  1  0  0  0  0
 18 20  2  0  0  0  0
 18 36  1  0  0  0  0
 19 44  1  0  0  0  0
 20 37  1  0  0  0  0
 21 82  1  0  0  0  0
 22 83  1  0  0  0  0
 23 25  2  0  0  0  0
 23 82  1  0  0  0  0
 24 84  1  0  0  0  0
 25 85  1  0  0  0  0
 26 65  2  0  0  0  0
 27 68  1  0  0  0  0
 27 72  1  0  0  0  0
 28 62  1  0  0  0  0
 28 66  1  0  0  0  0
 28 67  2  0  0  0  0
 29 47  1  0  0  0  0
 29 66  2  0  0  0  0
 29 69  1  0  0  0  0
 30 73  1  0  0  0  0
 30 77  2  0  0  0  0
 31 45  1  0  0  0  0
 31 74  1  0  0  0  0
 31 78  2  0  0  0  0
 32 60  1  0  0  0  0
 32 70  1  0  0  0  0
 32 79  2  0  0  0  0
 33 62  1  0  0  0  0
 33 71  1  0  0  0  0
 33 80  2  0  0  0  0
 34 61  1  0  0  0  0
 34 75  1  0  0  0  0
 34 81  2  0  0  0  0
 35 38  1  0  0  0  0
 36 45  1  0  0  0  0
 37 70  1  0  0  0  0
 38 40  1  0  0  0  0
 39 41  1  0  0  0  0
 39 42  1  0  0  0  0
 40 44  1  0  0  0  0
 41 46  1  0  0  0  0
 42 71  1  0  0  0  0
 43 46  1  0  0  0  0
 43 71  1  0  0  0  0
 44 74  1  0  0  0  0
 45 70  1  0  0  0  0
 46 68  1  0  0  0  0
 48 61  1  0  0  0  0
 49 62  1  0  0  0  0
 50 62  1  0  0  0  0
 51 63  1  0  0  0  0
 52 63  1  0  0  0  0
 53 63  1  0  0  0  0
 54 64  1  0  0  0  0
 55 64  1  0  0  0  0
 56 76  1  0  0  0  0
 57 58  1  0  0  0  0
 57 64  1  0  0  0  0
 58 69  1  0  0  0  0
 59 64  1  0  0  0  0
 59 83  1  0  0  0  0
 60 63  1  0  0  0  0
 60 75  1  0  0  0  0
 61 76  1  0  0  0  0
 65 68  1  0  0  0  0
 67 69  1  0  0  0  0
M  CHG  1  76   1
M  ISO  4  33 100  59 101  62 100  83 101
M  END
> <Batch ID>
0073

> <Smiles>
CNC(C)C(=O)NC(C(=O)N1Cc2cc([101O:1][101CH2:1]C(C)(C)CCn3nc([100C:0](C)(C)[100C:0](=O)N4CCCC(n5nc(-c6ccc(Oc7ccc(F)cc7F)cc6)c(C(N)=O)c5N)C4)nc3C)ccc2CC1C(=O)NC1CCCc2ccccc21)C(C)(C)C

> <Shape>
0.228

> <Color>
0.085

> <Negative vol penalty>
0.000

$$$$

  -OEChem-04052318273D

 88 96  0     1  0  0  0  0  0999 V2000
  -34.2721  -10.0112   21.4535 C   0  0  0  0  0  0  0  0  0  0  0  0
  -34.1442  -11.3949   21.3872 C   0  0  0  0  0  0  0  0  0  0  0  0
  -24.0655  -32.1805   23.7806 C   0  0  0  0  0  0  0  0  0  0  0  0
  -24.7123  -31.4983   21.5549 C   0  0  0  0  0  0  0  0  0  0  0  0
  -33.3584   -9.1951   20.7880 C   0  0  0  0  0  0  0  0  0  0  0  0
  -33.1030  -11.9634   20.6542 C   0  0  0  0  0  0  0  0  0  0  0  0
  -30.0506  -17.1058   21.9746 C   0  0  0  0  0  0  0  0  0  0  0  0
  -24.8809  -33.3070   23.6722 C   0  0  0  0  0  0  0  0  0  0  0  0
  -25.5276  -32.6249   21.4466 C   0  0  0  0  0  0  0  0  0  0  0  0
  -30.1723  -18.4146   21.5096 C   0  0  0  0  0  0  0  0  0  0  0  0
  -24.7395  -36.3530   22.2113 C   0  0  0  0  0  0  0  0  0  0  0  0
  -24.2149  -37.5756   22.6305 C   0  0  0  0  0  0  0  0  0  0  0  0
  -28.4188  -18.0013   19.9054 C   0  0  0  0  0  0  0  0  0  0  0  0
  -27.8750  -24.2937   17.9698 C   0  0  0  0  0  0  0  0  0  0  0  0
  -25.6992  -24.2913   18.9946 C   0  0  0  0  0  0  0  0  0  0  0  0
  -25.9863  -37.7764   24.2612 C   0  0  0  0  0  0  0  0  0  0  0  0
  -23.9813  -31.2761   22.7219 C   0  0  0  0  0  0  0  0  0  0  0  0
  -21.7833  -30.0056   22.4717 C   0  0  0  0  0  0  0  0  0  0  0  0
  -32.2998   -9.7537   20.0544 C   0  0  0  0  0  0  0  0  0  0  0  0
  -29.1179  -16.2303   21.4002 C   0  0  0  0  0  0  0  0  0  0  0  0
  -32.1750  -11.1540   19.9771 C   0  0  0  0  0  0  0  0  0  0  0  0
  -28.2854  -16.6828   20.3666 C   0  0  0  0  0  0  0  0  0  0  0  0
  -26.5635  -24.7539   18.0085 C   0  0  0  0  0  0  0  0  0  0  0  0
  -25.6119  -33.5292   22.5053 C   0  0  0  0  0  0  0  0  0  0  0  0
  -29.3584  -18.8616   20.4729 C   0  0  0  0  0  0  0  0  0  0  0  0
  -25.8874  -35.8421   22.8170 C   0  0  0  0  0  0  0  0  0  0  0  0
  -24.8383  -38.2873   23.6554 C   0  0  0  0  0  0  0  0  0  0  0  0
  -26.5108  -36.5538   23.8419 C   0  0  0  0  0  0  0  0  0  0  0  0
  -23.1397  -30.1119   22.8334 C   0  0  0  0  0  0  0  0  0  0  0  0
  -28.2700  -23.3786   18.9322 C   0  0  0  0  0  0  0  0  0  0  0  0
  -26.1915  -23.3761   19.9111 C   0  0  0  0  0  0  0  0  0  0  0  0
  -21.4487  -28.7076   22.7713 C   0  0  0  0  0  0  0  0  0  0  0  0
  -20.9045  -30.9920   21.9145 C   0  0  0  0  0  0  0  0  0  0  0  0
  -29.3012  -13.4719   19.8312 C   0  0  0  0  0  0  0  0  0  0  0  0
  -26.0662  -13.5847   20.0416 C   0  0  0  0  0  0  0  0  0  0  0  0
  -23.2508  -15.4791   20.4041 C   0  0  0  0  0  0  0  0  0  0  0  0
  -24.6569  -23.6737   23.2380 C   0  0  0  0  0  0  0  0  0  0  0  0
  -31.3646   -8.8317   19.3127 C   0  0  0  0  0  0  0  0  0  0  0  0
  -28.9805  -14.8297   21.9311 C   0  0  0  0  0  0  0  0  0  0  0  0
  -27.2544  -15.7884   19.7298 C   0  0  0  0  0  0  0  0  0  0  0  0
  -30.0705   -9.5072   18.8663 C   0  0  0  0  0  0  0  0  0  0  0  0
  -22.5924  -25.1366   25.7429 C   0  0  0  0  0  0  0  0  0  0  0  0
  -30.3681  -10.8558   18.2187 C   0  0  0  0  0  0  0  0  0  0  0  0
  -22.3762  -26.5680   25.2486 C   0  0  0  0  0  0  0  0  0  0  0  0
  -23.9994  -24.6359   25.4239 C   0  0  0  0  0  0  0  0  0  0  0  0
  -24.1746  -26.1814   23.5123 C   0  0  0  0  0  0  0  0  0  0  0  0
  -31.0445  -11.8078   19.2126 C   0  0  1  0  0  0  0  0  0  0  0  0
  -28.3522  -13.8688   20.9265 C   0  0  1  0  0  0  0  0  0  0  0  0
  -22.7518  -26.7104   23.7614 C   0  0  2  0  0  0  0  0  0  0  0  0
  -26.0861  -25.7402   16.9972 C   0  0  0  0  0  0  0  0  0  0  0  0
  -20.7500  -15.2929   20.4998 C   0  0  0  0  0  0  0  0  0  0  0  0
  -22.9284  -20.2863   19.1698 C   0  0  0  0  0  0  0  0  0  0  0  0
  -25.0671  -19.8264   20.3819 C   0  0  0  0  0  0  0  0  0  0  0  0
  -25.9811  -13.2035   17.0155 C   0  0  0  0  0  0  0  0  0  0  0  0
  -23.5971  -13.9671   17.0563 C   0  0  0  0  0  0  0  0  0  0  0  0
  -24.2633  -11.8980   18.2801 C   0  0  0  0  0  0  0  0  0  0  0  0
  -29.6188  -21.7850   16.6006 C   0  0  0  0  0  0  0  0  0  0  0  0
  -31.4746  -21.2696   18.1812 C   0  0  0  0  0  0  0  0  0  0  0  0
  -23.1577  -16.5828   23.1485 C   0  0  0  0  0  0  0  0  0  0  0  0
  -29.6882  -22.8577   18.9223 C   0  0  0  0  0  0  0  0  0  0  0  0
  -24.0123  -22.1507   20.4604 C   0  0  0  0  0  0  0  0  0  0  0  0
  -29.1672  -20.3679   18.6425 C   0  0  0  0  0  0  0  0  0  1  0  0
  -25.2911  -22.8571   20.9818 C   0  0  2  0  0  0  0  0  0  0  0  0
  -24.9585  -14.1530   19.1877 C   0  0  1  0  0  0  0  0  0  0  0  0
  -22.0396  -15.3212   21.3055 C   0  0  2  0  0  0  0  0  0  0  0  0
  -24.2658  -20.8821   19.6191 C   0  0  0  0  0  0  0  0  0  0  0  0
  -24.7207  -13.3219   17.8954 C   0  0  0  0  0  0  0  0  0  0  0  0
  -29.9618  -21.5718   18.0877 C   0  0  0  0  0  0  0  0  0  0  0  0
  -23.6329  -28.9723   23.3255 N   0  0  0  0  0  0  0  0  0  0  0  0
  -27.4591  -22.9062   19.9053 N   0  0  0  0  0  0  0  0  0  0  0  0
  -22.5808  -28.1377   23.2751 N   0  0  0  0  0  0  0  0  0  0  0  0
  -27.1625  -14.4258   20.2795 N   0  0  0  0  0  0  0  0  0  0  0  0
  -24.2924  -24.7975   23.9978 N   0  0  0  0  0  0  0  0  0  0  0  0
  -20.2995  -28.0097   22.6505 N   0  0  0  0  0  0  0  0  0  0  0  0
  -21.4108  -32.2756   21.6690 N   0  0  0  0  0  0  0  0  0  0  0  0
  -30.0684  -12.3612   20.1266 N   0  0  0  0  0  0  0  0  0  0  0  0
  -23.7891  -14.2590   20.0536 N   0  0  0  0  0  0  0  0  0  0  0  0
  -24.9114  -23.9135   21.8932 N   0  0  0  0  0  0  0  0  0  0  0  0
  -21.9639  -16.4512   22.2741 N   0  3  0  0  0  0  0  0  0  0  0  0
  -19.7013  -30.7471   21.6576 O   0  0  0  0  0  0  0  0  0  0  0  0
  -29.3339  -14.1241   18.7943 O   0  0  0  0  0  0  0  0  0  0  0  0
  -25.9594  -12.4394   20.4872 O   0  0  0  0  0  0  0  0  0  0  0  0
  -23.6745  -16.5750   20.0436 O   0  0  0  0  0  0  0  0  0  0  0  0
  -24.7437  -22.5396   23.7211 O   0  0  0  0  0  0  0  0  0  0  0  0
  -26.4074  -34.6285   22.3991 O   0  0  0  0  0  0  0  0  0  0  0  0
  -29.4756  -20.1383   20.0167 O   0  0  0  0  0  0  0  0  0  1  0  0
  -24.3354  -39.4620   24.0569 F   0  0  0  0  0  0  0  0  0  0  0  0
  -27.6146  -36.0686   24.4269 F   0  0  0  0  0  0  0  0  0  0  0  0
  1  2  1  0  0  0  0
  1  5  2  0  0  0  0
  2  6  2  0  0  0  0
  3  8  2  0  0  0  0
  3 17  1  0  0  0  0
  4  9  1  0  0  0  0
  4 17  2  0  0  0  0
  5 19  1  0  0  0  0
  6 21  1  0  0  0  0
  7 10  2  0  0  0  0
  7 20  1  0  0  0  0
  8 24  1  0  0  0  0
  9 24  2  0  0  0  0
 10 25  1  0  0  0  0
 11 12  2  0  0  0  0
 11 26  1  0  0  0  0
 12 27  1  0  0  0  0
 13 22  1  0  0  0  0
 13 25  2  0  0  0  0
 14 23  2  0  0  0  0
 14 30  1  0  0  0  0
 15 23  1  0  0  0  0
 15 31  2  0  0  0  0
 16 27  2  0  0  0  0
 16 28  1  0  0  0  0
 17 29  1  0  0  0  0
 18 29  1  0  0  0  0
 18 32  2  0  0  0  0
 18 33  1  0  0  0  0
 19 21  2  0  0  0  0
 19 38  1  0  0  0  0
 20 22  2  0  0  0  0
 20 39  1  0  0  0  0
 21 47  1  0  0  0  0
 22 40  1  0  0  0  0
 23 50  1  0  0  0  0
 24 85  1  0  0  0  0
 25 86  1  0  0  0  0
 26 28  2  0  0  0  0
 26 85  1  0  0  0  0
 27 87  1  0  0  0  0
 28 88  1  0  0  0  0
 29 69  2  0  0  0  0
 30 60  1  0  0  0  0
 30 70  2  0  0  0  0
 31 63  1  0  0  0  0
 31 70  1  0  0  0  0
 32 71  1  0  0  0  0
 32 74  1  0  0  0  0
 33 75  1  0  0  0  0
 33 80  2  0  0  0  0
 34 48  1  0  0  0  0
 34 76  1  0  0  0  0
 34 81  2  0  0  0  0
 35 64  1  0  0  0  0
 35 72  1  0  0  0  0
 35 82  2  0  0  0  0
 36 65  1  0  0  0  0
 36 77  1  0  0  0  0
 36 83  2  0  0  0  0
 37 73  1  0  0  0  0
 37 78  1  0  0  0  0
 37 84  2  0  0  0  0
 38 41  1  0  0  0  0
 39 48  1  0  0  0  0
 40 72  1  0  0  0  0
 41 43  1  0  0  0  0
 42 44  1  0  0  0  0
 42 45  1  0  0  0  0
 43 47  1  0  0  0  0
 44 49  1  0  0  0  0
 45 73  1  0  0  0  0
 46 49  1  0  0  0  0
 46 73  1  0  0  0  0
 47 76  1  0  0  0  0
 48 72  1  0  0  0  0
 49 71  1  0  0  0  0
 51 65  1  0  0  0  0
 52 66  1  0  0  0  0
 53 66  1  0  0  0  0
 54 67  1  0  0  0  0
 55 67  1  0  0  0  0
 56 67  1  0  0  0  0
 57 68  1  0  0  0  0
 58 68  1  0  0  0  0
 59 79  1  0  0  0  0
 60 68  1  0  0  0  0
 61 63  1  0  0  0  0
 61 66  1  0  0  0  0
 62 68  1  0  0  0  0
 62 86  1  0  0  0  0
 63 78  1  0  0  0  0
 64 67  1  0  0  0  0
 64 77  1  0  0  0  0
 65 79  1  0  0  0  0
 69 71  1  0  0  0  0
M  CHG  1  79   1
M  ISO  4  37 100  62 101  78 100  86 101
M  END
> <Batch ID>
0073

> <Smiles>
CNC(C)C(=O)NC(C(=O)N1Cc2cc([101O:1][101CH2:1]C(C)(C)Cc3cc(C)cc(C(CC(C)C)[100NH:0][100C:0](=O)N4CCCC(n5nc(-c6ccc(Oc7ccc(F)cc7F)cc6)c(C(N)=O)c5N)C4)n3)ccc2CC1C(=O)NC1CCCc2ccccc21)C(C)(C)C

> <Shape>
0.237

> <Color>
0.063

> <Negative vol penalty>
0.000

$$$$

  -OEChem-04052318273D

 88 96  0     1  0  0  0  0  0999 V2000
  -18.6286  -33.6764   24.3460 C   0  0  0  0  0  0  0  0  0  0  0  0
  -19.6559  -33.0246   25.0207 C   0  0  0  0  0  0  0  0  0  0  0  0
  -23.0731   -9.7564   19.9812 C   0  0  0  0  0  0  0  0  0  0  0  0
  -23.6580   -9.9919   22.3135 C   0  0  0  0  0  0  0  0  0  0  0  0
  -17.6131  -32.9361   23.7421 C   0  0  0  0  0  0  0  0  0  0  0  0
  -19.6676  -31.6321   25.0929 C   0  0  0  0  0  0  0  0  0  0  0  0
  -24.2028  -26.0912   25.3096 C   0  0  0  0  0  0  0  0  0  0  0  0
  -22.3068   -8.6318   20.2869 C   0  0  0  0  0  0  0  0  0  0  0  0
  -22.8915   -8.8672   22.6192 C   0  0  0  0  0  0  0  0  0  0  0  0
  -24.4761  -24.9520   26.0655 C   0  0  0  0  0  0  0  0  0  0  0  0
  -23.2069   -5.5072   22.4161 C   0  0  0  0  0  0  0  0  0  0  0  0
  -23.7614   -4.5593   23.2762 C   0  0  0  0  0  0  0  0  0  0  0  0
  -22.7121  -23.7739   24.9168 C   0  0  0  0  0  0  0  0  0  0  0  0
  -21.9370   -4.8966   24.8239 C   0  0  0  0  0  0  0  0  0  0  0  0
  -27.0358  -21.2536   23.4344 C   0  0  0  0  0  0  0  0  0  0  0  0
  -23.7488  -10.4364   20.9945 C   0  0  0  0  0  0  0  0  0  0  0  0
  -24.1114  -12.9382   20.6519 C   0  0  0  0  0  0  0  0  0  0  0  0
  -17.6176  -31.5335   23.7986 C   0  0  0  0  0  0  0  0  0  0  0  0
  -23.1731  -26.0836   24.3577 C   0  0  0  0  0  0  0  0  0  0  0  0
  -18.6505  -30.8724   24.4904 C   0  0  0  0  0  0  0  0  0  0  0  0
  -22.4294  -24.9134   24.1484 C   0  0  0  0  0  0  0  0  0  0  0  0
  -22.2159   -8.1872   21.6059 C   0  0  0  0  0  0  0  0  0  0  0  0
  -23.7289  -23.7940   25.8712 C   0  0  0  0  0  0  0  0  0  0  0  0
  -22.0176   -6.1498   22.7599 C   0  0  0  0  0  0  0  0  0  0  0  0
  -23.1264   -4.2540   24.4801 C   0  0  0  0  0  0  0  0  0  0  0  0
  -21.3826   -5.8445   23.9637 C   0  0  0  0  0  0  0  0  0  0  0  0
  -24.5411  -11.5979   20.6793 C   0  0  0  0  0  0  0  0  0  0  0  0
  -25.7825  -20.8303   23.8186 C   0  0  0  0  0  0  0  0  0  0  0  0
  -26.2084  -18.7654   22.9328 C   0  0  0  0  0  0  0  0  0  0  0  0
  -27.4613  -19.1890   22.5478 C   0  0  0  0  0  0  0  0  0  0  0  0
  -25.2316  -13.6508   20.3000 C   0  0  0  0  0  0  0  0  0  0  0  0
  -22.8156  -13.4898   20.9207 C   0  0  0  0  0  0  0  0  0  0  0  0
  -20.4561  -27.6894   23.9794 C   0  0  0  0  0  0  0  0  0  0  0  0
  -20.3613  -26.0952   21.1559 C   0  0  0  0  0  0  0  0  0  0  0  0
  -21.3379  -23.3865   19.3240 C   0  0  0  0  0  0  0  0  0  0  0  0
  -30.6906  -14.6969   20.8004 C   0  0  0  0  0  0  0  0  0  0  0  0
  -16.4730  -30.7780   23.1711 C   0  0  0  0  0  0  0  0  0  0  0  0
  -22.9083  -27.3124   23.5317 C   0  0  0  0  0  0  0  0  0  0  0  0
  -21.3266  -24.8472   23.1247 C   0  0  0  0  0  0  0  0  0  0  0  0
  -16.7600  -29.2918   22.9730 C   0  0  0  0  0  0  0  0  0  0  0  0
  -29.7242  -12.0854   18.5816 C   0  0  0  0  0  0  0  0  0  0  0  0
  -17.3726  -28.6935   24.2354 C   0  0  0  0  0  0  0  0  0  0  0  0
  -28.2568  -11.8324   18.9316 C   0  0  0  0  0  0  0  0  0  0  0  0
  -30.5493  -12.4260   19.8207 C   0  0  0  0  0  0  0  0  0  0  0  0
  -28.5521  -13.2859   20.9807 C   0  0  0  0  0  0  0  0  0  0  0  0
  -18.7115  -29.3624   24.5693 C   0  0  1  0  0  0  0  0  0  0  0  0
  -21.4980  -27.3498   22.9513 C   0  0  1  0  0  0  0  0  0  0  0  0
  -27.6687  -12.9934   19.7559 C   0  0  2  0  0  0  0  0  0  0  0  0
  -25.7385  -17.3779   22.6574 C   0  0  0  0  0  0  0  0  0  0  0  0
  -28.6468  -18.7294   20.3702 C   0  0  0  0  0  0  0  0  0  0  0  0
  -21.0694  -22.3396   17.0592 C   0  0  0  0  0  0  0  0  0  0  0  0
  -17.5653  -25.1483   21.9278 C   0  0  0  0  0  0  0  0  0  0  0  0
  -17.7404  -23.4006   20.1436 C   0  0  0  0  0  0  0  0  0  0  0  0
  -17.8154  -25.8176   19.5311 C   0  0  0  0  0  0  0  0  0  0  0  0
  -30.6102  -19.2179   22.8600 C   0  0  0  0  0  0  0  0  0  0  0  0
  -29.4479  -17.3194   23.9845 C   0  0  0  0  0  0  0  0  0  0  0  0
  -26.3390  -22.1549   26.5838 C   0  0  0  0  0  0  0  0  0  0  0  0
  -24.5822  -20.3679   26.6007 C   0  0  0  0  0  0  0  0  0  0  0  0
  -24.2382  -23.5741   18.7654 C   0  0  0  0  0  0  0  0  0  0  0  0
  -24.8419  -21.7710   24.5368 C   0  0  0  0  0  0  0  0  0  0  0  0
  -30.6739  -16.9593   21.8204 C   0  0  0  0  0  0  0  0  0  0  0  0
  -28.4053  -18.2795   21.8381 C   0  0  1  0  0  0  0  0  0  0  0  0
  -19.8017  -24.7714   20.6939 C   0  0  1  0  0  0  0  0  0  0  0  0
  -21.9070  -23.2712   17.9213 C   0  0  2  0  0  0  0  0  0  0  0  0
  -18.2502  -24.7860   20.5948 C   0  0  0  0  0  0  0  0  0  0  0  0
  -29.7662  -17.9491   22.6066 C   0  0  0  0  0  0  0  0  0  0  0  0
  -24.9483  -21.7627   26.0780 C   0  0  0  0  0  0  0  0  0  1  0  0
  -27.8977  -20.4405   22.7920 N   0  0  0  0  0  0  0  0  0  0  0  0
  -25.8334  -11.4643   20.3692 N   0  0  0  0  0  0  0  0  0  0  0  0
  -25.3463  -19.5785   23.5748 N   0  0  0  0  0  0  0  0  0  0  0  0
  -26.2254  -12.7298   20.1436 N   0  0  0  0  0  0  0  0  0  0  0  0
  -21.1018  -26.0765   22.3464 N   0  0  0  0  0  0  0  0  0  0  0  0
  -29.9387  -13.5357   20.5567 N   0  0  0  0  0  0  0  0  0  0  0  0
  -25.4536  -14.9690   20.1119 N   0  0  0  0  0  0  0  0  0  0  0  0
  -21.7766  -12.6159   21.2687 N   0  0  0  0  0  0  0  0  0  0  0  0
  -19.7592  -28.8521   23.7113 N   0  0  0  0  0  0  0  0  0  0  0  0
  -20.4777  -24.4580   19.4396 N   0  0  0  0  0  0  0  0  0  0  0  0
  -30.0344  -15.7029   21.4990 N   0  0  0  0  0  0  0  0  0  0  0  0
  -23.2994  -22.7424   17.9692 N   0  3  0  0  0  0  0  0  0  0  0  0
  -22.5819  -14.7194   20.8383 O   0  0  0  0  0  0  0  0  0  0  0  0
  -20.2954  -26.9505   24.9436 O   0  0  0  0  0  0  0  0  0  0  0  0
  -20.1552  -27.1073   20.4815 O   0  0  0  0  0  0  0  0  0  0  0  0
  -21.6246  -22.6022   20.2257 O   0  0  0  0  0  0  0  0  0  0  0  0
  -31.8584  -14.8294   20.4188 O   0  0  0  0  0  0  0  0  0  0  0  0
  -21.4680   -7.0900   21.9046 O   0  0  0  0  0  0  0  0  0  0  0  0
  -23.9932  -22.6809   26.6081 O   0  0  0  0  0  0  0  0  0  1  0  0
  -23.6582   -3.3426   25.3052 F   0  0  0  0  0  0  0  0  0  0  0  0
  -20.2392   -6.4577   24.2989 F   0  0  0  0  0  0  0  0  0  0  0  0
  1  2  1  0  0  0  0
  1  5  2  0  0  0  0
  2  6  2  0  0  0  0
  3  8  2  0  0  0  0
  3 16  1  0  0  0  0
  4  9  1  0  0  0  0
  4 16  2  0  0  0  0
  5 18  1  0  0  0  0
  6 20  1  0  0  0  0
  7 10  2  0  0  0  0
  7 19  1  0  0  0  0
  8 22  1  0  0  0  0
  9 22  2  0  0  0  0
 10 23  1  0  0  0  0
 11 12  2  0  0  0  0
 11 24  1  0  0  0  0
 12 25  1  0  0  0  0
 13 21  1  0  0  0  0
 13 23  2  0  0  0  0
 14 25  2  0  0  0  0
 14 26  1  0  0  0  0
 15 28  1  0  0  0  0
 15 68  2  0  0  0  0
 16 27  1  0  0  0  0
 17 27  1  0  0  0  0
 17 31  2  0  0  0  0
 17 32  1  0  0  0  0
 18 20  2  0  0  0  0
 18 37  1  0  0  0  0
 19 21  2  0  0  0  0
 19 38  1  0  0  0  0
 20 46  1  0  0  0  0
 21 39  1  0  0  0  0
 22 85  1  0  0  0  0
 23 86  1  0  0  0  0
 24 26  2  0  0  0  0
 24 85  1  0  0  0  0
 25 87  1  0  0  0  0
 26 88  1  0  0  0  0
 27 69  2  0  0  0  0
 28 60  1  0  0  0  0
 28 70  2  0  0  0  0
 29 30  2  0  0  0  0
 29 49  1  0  0  0  0
 29 70  1  0  0  0  0
 30 62  1  0  0  0  0
 30 68  1  0  0  0  0
 31 71  1  0  0  0  0
 31 74  1  0  0  0  0
 32 75  1  0  0  0  0
 32 80  2  0  0  0  0
 33 47  1  0  0  0  0
 33 76  1  0  0  0  0
 33 81  2  0  0  0  0
 34 63  1  0  0  0  0
 34 72  1  0  0  0  0
 34 82  2  0  0  0  0
 35 64  1  0  0  0  0
 35 77  1  0  0  0  0
 35 83  2  0  0  0  0
 36 73  1  0  0  0  0
 36 78  1  0  0  0  0
 36 84  2  0  0  0  0
 37 40  1  0  0  0  0
 38 47  1  0  0  0  0
 39 72  1  0  0  0  0
 40 42  1  0  0  0  0
 41 43  1  0  0  0  0
 41 44  1  0  0  0  0
 42 46  1  0  0  0  0
 43 48  1  0  0  0  0
 44 73  1  0  0  0  0
 45 48  1  0  0  0  0
 45 73  1  0  0  0  0
 46 76  1  0  0  0  0
 47 72  1  0  0  0  0
 48 71  1  0  0  0  0
 50 62  1  0  0  0  0
 51 64  1  0  0  0  0
 52 65  1  0  0  0  0
 53 65  1  0  0  0  0
 54 65  1  0  0  0  0
 55 66  1  0  0  0  0
 56 66  1  0  0  0  0
 57 67  1  0  0  0  0
 58 67  1  0  0  0  0
 59 79  1  0  0  0  0
 60 67  1  0  0  0  0
 61 66  1  0  0  0  0
 61 78  1  0  0  0  0
 62 66  1  0  0  0  0
 63 65  1  0  0  0  0
 63 77  1  0  0  0  0
 64 79  1  0  0  0  0
 67 86  1  0  0  0  0
 69 71  1  0  0  0  0
M  CHG  1  79   1
M  ISO  4  36 100  67 101  78 100  86 101
M  END
> <Batch ID>
0073

> <Smiles>
CNC(C)C(=O)NC(C(=O)N1Cc2cc([101O:1][101C:1](C)(C)Cc3cnc(C(C)C(C)(C)C[100NH:0][100C:0](=O)N4CCCC(n5nc(-c6ccc(Oc7ccc(F)cc7F)cc6)c(C(N)=O)c5N)C4)c(C)n3)ccc2CC1C(=O)NC1CCCc2ccccc21)C(C)(C)C

> <Shape>
0.264

> <Color>
0.190

> <Negative vol penalty>
0.000

$$$$

  -OEChem-04052318273D

 77 84  0     1  0  0  0  0  0999 V2000
  -18.1026  -19.1926   14.0437 C   0  0  0  0  0  0  0  0  0  0  0  0
  -19.3748  -18.8814   14.5130 C   0  0  0  0  0  0  0  0  0  0  0  0
  -23.0557   -9.8929   19.9697 C   0  0  0  0  0  0  0  0  0  0  0  0
  -23.9280   -9.8789   22.2227 C   0  0  0  0  0  0  0  0  0  0  0  0
  -17.5434  -20.4389   14.3231 C   0  0  0  0  0  0  0  0  0  0  0  0
  -20.0889  -19.8167   15.2611 C   0  0  0  0  0  0  0  0  0  0  0  0
  -23.9327  -18.6692   19.8886 C   0  0  0  0  0  0  0  0  0  0  0  0
  -22.3349   -8.7301   20.2416 C   0  0  0  0  0  0  0  0  0  0  0  0
  -23.2071   -8.7160   22.4946 C   0  0  0  0  0  0  0  0  0  0  0  0
  -25.3226  -18.5804   19.9535 C   0  0  0  0  0  0  0  0  0  0  0  0
  -21.3140   -5.9450   23.8929 C   0  0  0  0  0  0  0  0  0  0  0  0
  -20.6170   -5.8803   25.0994 C   0  0  0  0  0  0  0  0  0  0  0  0
  -25.4298  -20.8800   20.6743 C   0  0  0  0  0  0  0  0  0  0  0  0
  -19.3214   -7.8149   24.4546 C   0  0  0  0  0  0  0  0  0  0  0  0
  -23.8523  -10.4673   20.9603 C   0  0  0  0  0  0  0  0  0  0  0  0
  -24.1664  -12.9967   20.8554 C   0  0  0  0  0  0  0  0  0  0  0  0
  -18.2471  -21.3863   15.0832 C   0  0  0  0  0  0  0  0  0  0  0  0
  -23.2806  -19.8694   20.2061 C   0  0  0  0  0  0  0  0  0  0  0  0
  -19.5391  -21.0773   15.5498 C   0  0  0  0  0  0  0  0  0  0  0  0
  -24.0315  -20.9807   20.6151 C   0  0  0  0  0  0  0  0  0  0  0  0
  -22.4106   -8.1416   21.5040 C   0  0  0  0  0  0  0  0  0  0  0  0
  -26.0715  -19.6867   20.3436 C   0  0  0  0  0  0  0  0  0  0  0  0
  -21.0148   -6.9447   22.9673 C   0  0  0  0  0  0  0  0  0  0  0  0
  -19.6207   -6.8152   25.3802 C   0  0  0  0  0  0  0  0  0  0  0  0
  -20.0185   -7.8796   23.2481 C   0  0  0  0  0  0  0  0  0  0  0  0
  -24.5976  -11.6681   20.6799 C   0  0  0  0  0  0  0  0  0  0  0  0
  -25.2328  -13.7604   20.4481 C   0  0  0  0  0  0  0  0  0  0  0  0
  -22.9138  -13.4958   21.3429 C   0  0  0  0  0  0  0  0  0  0  0  0
  -21.4285  -21.9049   18.6154 C   0  0  0  0  0  0  0  0  0  0  0  0
  -30.7365  -14.7594   20.4734 C   0  0  0  0  0  0  0  0  0  0  0  0
  -21.1347  -23.3060   21.5262 C   0  0  0  0  0  0  0  0  0  0  0  0
  -22.4384  -23.8236   24.6373 C   0  0  0  0  0  0  0  0  0  0  0  0
  -17.6205  -22.7377   15.3195 C   0  0  0  0  0  0  0  0  0  0  0  0
  -21.7790  -19.9410   20.1569 C   0  0  0  0  0  0  0  0  0  0  0  0
  -23.3782  -22.2862   20.9860 C   0  0  0  0  0  0  0  0  0  0  0  0
  -18.2912  -23.5332   16.4365 C   0  0  0  0  0  0  0  0  0  0  0  0
  -29.4694  -12.4828   18.0134 C   0  0  0  0  0  0  0  0  0  0  0  0
  -19.8084  -23.4927   16.2839 C   0  0  0  0  0  0  0  0  0  0  0  0
  -28.0651  -12.1538   18.5184 C   0  0  0  0  0  0  0  0  0  0  0  0
  -30.4463  -12.6792   19.1685 C   0  0  0  0  0  0  0  0  0  0  0  0
  -28.6084  -13.3796   20.6695 C   0  0  0  0  0  0  0  0  0  0  0  0
  -20.3350  -22.0561   16.3856 C   0  0  1  0  0  0  0  0  0  0  0  0
  -21.2533  -21.3652   20.0067 C   0  0  1  0  0  0  0  0  0  0  0  0
  -27.5833  -13.2036   19.5353 C   0  0  2  0  0  0  0  0  0  0  0  0
  -30.3009  -16.3162   22.3165 C   0  0  0  0  0  0  0  0  0  0  0  0
  -21.9900  -25.0455   26.7828 C   0  0  0  0  0  0  0  0  0  0  0  0
  -22.0088  -25.9199   20.2173 C   0  0  0  0  0  0  0  0  0  0  0  0
  -22.4570  -26.8343   22.5045 C   0  0  0  0  0  0  0  0  0  0  0  0
  -20.1438  -26.1521   21.8672 C   0  0  0  0  0  0  0  0  0  0  0  0
  -31.8534  -17.5890   19.9402 C   0  0  0  0  0  0  0  0  0  0  0  0
  -30.0687  -16.7566   18.4071 C   0  0  0  0  0  0  0  0  0  0  0  0
  -22.3181  -21.3027   26.1832 C   0  0  0  0  0  0  0  0  0  0  0  0
  -29.5352  -18.4839   20.1725 C   0  0  0  0  0  0  0  0  0  0  0  0
  -28.0187  -18.3509   20.0603 C   0  0  0  0  0  0  0  0  0  1  0  0
  -30.0144  -16.0310   20.8417 C   0  0  1  0  0  0  0  0  0  0  0  0
  -21.8913  -24.3724   22.2807 C   0  0  1  0  0  0  0  0  0  0  0  0
  -21.8125  -23.7431   26.0180 C   0  0  2  0  0  0  0  0  0  0  0  0
  -21.6380  -25.7958   21.7086 C   0  0  0  0  0  0  0  0  0  0  0  0
  -30.3589  -17.1990   19.8606 C   0  0  0  0  0  0  0  0  0  0  0  0
  -25.8409  -11.5889   20.1986 N   0  0  0  0  0  0  0  0  0  0  0  0
  -26.2002  -12.8773   20.0680 N   0  0  0  0  0  0  0  0  0  0  0  0
  -21.9078  -22.3081   20.9160 N   0  0  0  0  0  0  0  0  0  0  0  0
  -29.9421  -13.6674   20.1237 N   0  0  0  0  0  0  0  0  0  0  0  0
  -25.4281  -15.0945   20.3816 N   0  0  0  0  0  0  0  0  0  0  0  0
  -21.9276  -12.5734   21.7183 N   0  0  0  0  0  0  0  0  0  0  0  0
  -20.3729  -21.6284   17.7676 N   0  0  0  0  0  0  0  0  0  0  0  0
  -21.5237  -24.2183   23.6840 N   0  0  0  0  0  0  0  0  0  0  0  0
  -22.4388  -22.6453   26.8075 N   0  3  0  0  0  0  0  0  0  0  0  0
  -22.6703  -14.7234   21.4274 O   0  0  0  0  0  0  0  0  0  0  0  0
  -22.4455  -22.5273   18.3324 O   0  0  0  0  0  0  0  0  0  0  0  0
  -31.9700  -14.7401   20.4936 O   0  0  0  0  0  0  0  0  0  0  0  0
  -19.9027  -23.3525   21.4860 O   0  0  0  0  0  0  0  0  0  0  0  0
  -23.6215  -23.5660   24.4263 O   0  0  0  0  0  0  0  0  0  0  0  0
  -21.7071   -7.0071   21.7696 O   0  0  0  0  0  0  0  0  0  0  0  0
  -27.4283  -19.6030   20.4071 O   0  0  0  0  0  0  0  0  0  1  0  0
  -18.9503   -6.7520   26.5382 F   0  0  0  0  0  0  0  0  0  0  0  0
  -19.7257   -8.8416   22.3623 F   0  0  0  0  0  0  0  0  0  0  0  0
  1  2  1  0  0  0  0
  1  5  2  0  0  0  0
  2  6  2  0  0  0  0
  3  8  2  0  0  0  0
  3 15  1  0  0  0  0
  4  9  1  0  0  0  0
  4 15  2  0  0  0  0
  5 17  1  0  0  0  0
  6 19  1  0  0  0  0
  7 10  2  0  0  0  0
  7 18  1  0  0  0  0
  8 21  1  0  0  0  0
  9 21  2  0  0  0  0
 10 22  1  0  0  0  0
 11 12  2  0  0  0  0
 11 23  1  0  0  0  0
 12 24  1  0  0  0  0
 13 20  1  0  0  0  0
 13 22  2  0  0  0  0
 14 24  2  0  0  0  0
 14 25  1  0  0  0  0
 15 26  1  0  0  0  0
 16 26  1  0  0  0  0
 16 27  2  0  0  0  0
 16 28  1  0  0  0  0
 17 19  2  0  0  0  0
 17 33  1  0  0  0  0
 18 20  2  0  0  0  0
 18 34  1  0  0  0  0
 19 42  1  0  0  0  0
 20 35  1  0  0  0  0
 21 74  1  0  0  0  0
 22 75  1  0  0  0  0
 23 25  2  0  0  0  0
 23 74  1  0  0  0  0
 24 76  1  0  0  0  0
 25 77  1  0  0  0  0
 26 60  2  0  0  0  0
 27 61  1  0  0  0  0
 27 64  1  0  0  0  0
 28 65  1  0  0  0  0
 28 69  2  0  0  0  0
 29 43  1  0  0  0  0
 29 66  1  0  0  0  0
 29 70  2  0  0  0  0
 30 55  1  0  0  0  0
 30 63  1  0  0  0  0
 30 71  2  0  0  0  0
 31 56  1  0  0  0  0
 31 62  1  0  0  0  0
 31 72  2  0  0  0  0
 32 57  1  0  0  0  0
 32 67  1  0  0  0  0
 32 73  2  0  0  0  0
 33 36  1  0  0  0  0
 34 43  1  0  0  0  0
 35 62  1  0  0  0  0
 36 38  1  0  0  0  0
 37 39  1  0  0  0  0
 37 40  1  0  0  0  0
 38 42  1  0  0  0  0
 39 44  1  0  0  0  0
 40 63  1  0  0  0  0
 41 44  1  0  0  0  0
 41 63  1  0  0  0  0
 42 66  1  0  0  0  0
 43 62  1  0  0  0  0
 44 61  1  0  0  0  0
 45 55  1  0  0  0  0
 46 57  1  0  0  0  0
 47 58  1  0  0  0  0
 48 58  1  0  0  0  0
 49 58  1  0  0  0  0
 50 59  1  0  0  0  0
 51 59  1  0  0  0  0
 52 68  1  0  0  0  0
 53 54  1  0  0  0  0
 53 59  1  0  0  0  0
 54 75  1  0  0  0  0
 55 59  1  0  0  0  0
 56 58  1  0  0  0  0
 56 67  1  0  0  0  0
 57 68  1  0  0  0  0
 60 61  1  0  0  0  0
M  CHG  1  68   1
M  ISO  4  30 100  54 101  55 100  75 101
M  END
> <Batch ID>
0073

> <Smiles>
CNC(C)C(=O)NC(C(=O)N1Cc2cc([101O:1][101CH2:1]CC(C)(C)[100CH:0](C)[100C:0](=O)N3CCCC(n4nc(-c5ccc(Oc6ccc(F)cc6F)cc5)c(C(N)=O)c4N)C3)ccc2CC1C(=O)NC1CCCc2ccccc21)C(C)(C)C

> <Shape>
0.205

> <Color>
0.193

> <Negative vol penalty>
0.000

$$$$

  -OEChem-04052318273D

 85 93  0     1  0  0  0  0  0999 V2000
  -15.1454  -27.1670   24.7484 C   0  0  0  0  0  0  0  0  0  0  0  0
  -15.6232  -26.3575   23.7229 C   0  0  0  0  0  0  0  0  0  0  0  0
  -26.8817  -13.1027   20.9824 C   0  0  0  0  0  0  0  0  0  0  0  0
  -27.0121  -13.1394   18.5702 C   0  0  0  0  0  0  0  0  0  0  0  0
  -15.7297  -28.4111   24.9827 C   0  0  0  0  0  0  0  0  0  0  0  0
  -16.6849  -26.7921   22.9302 C   0  0  0  0  0  0  0  0  0  0  0  0
  -21.1108  -23.3355   20.4868 C   0  0  0  0  0  0  0  0  0  0  0  0
  -26.2892  -11.8410   20.9312 C   0  0  0  0  0  0  0  0  0  0  0  0
  -26.4196  -11.8776   18.5190 C   0  0  0  0  0  0  0  0  0  0  0  0
  -21.2835  -22.7949   19.2134 C   0  0  0  0  0  0  0  0  0  0  0  0
  -24.4136   -8.7641   21.4193 C   0  0  0  0  0  0  0  0  0  0  0  0
  -23.3024   -8.5344   22.2306 C   0  0  0  0  0  0  0  0  0  0  0  0
  -22.6693  -24.6750   18.6099 C   0  0  0  0  0  0  0  0  0  0  0  0
  -22.1171  -10.3181   21.1122 C   0  0  0  0  0  0  0  0  0  0  0  0
  -24.2290  -19.0740   12.8928 C   0  0  0  0  0  0  0  0  0  0  0  0
  -27.2431  -13.7519   19.8018 C   0  0  0  0  0  0  0  0  0  0  0  0
  -29.2298  -15.3469   19.9325 C   0  0  0  0  0  0  0  0  0  0  0  0
  -16.8054  -28.8570   24.1986 C   0  0  0  0  0  0  0  0  0  0  0  0
  -21.7081  -24.5573   20.8285 C   0  0  0  0  0  0  0  0  0  0  0  0
  -17.2832  -28.0438   23.1533 C   0  0  0  0  0  0  0  0  0  0  0  0
  -22.5047  -25.2276   19.8892 C   0  0  0  0  0  0  0  0  0  0  0  0
  -26.0581  -11.2285   19.6996 C   0  0  0  0  0  0  0  0  0  0  0  0
  -22.0605  -23.4661   18.2737 C   0  0  0  0  0  0  0  0  0  0  0  0
  -24.3765   -9.7709   20.4545 C   0  0  0  0  0  0  0  0  0  0  0  0
  -22.1542   -9.3114   22.0770 C   0  0  0  0  0  0  0  0  0  0  0  0
  -23.2283  -10.5478   20.3009 C   0  0  0  0  0  0  0  0  0  0  0  0
  -27.8547  -15.0555   19.8540 C   0  0  0  0  0  0  0  0  0  0  0  0
  -25.5547  -18.9656   12.5801 C   0  0  0  0  0  0  0  0  0  0  0  0
  -29.2892  -16.7189   19.9557 C   0  0  0  0  0  0  0  0  0  0  0  0
  -25.3767  -20.2734   14.3573 C   0  0  0  0  0  0  0  0  0  0  0  0
  -30.3529  -14.4569   19.9801 C   0  0  0  0  0  0  0  0  0  0  0  0
  -20.6274  -27.4123   21.7144 C   0  0  0  0  0  0  0  0  0  0  0  0
  -23.7806  -28.0397   22.1460 C   0  0  0  0  0  0  0  0  0  0  0  0
  -27.0167  -27.3003   21.3535 C   0  0  0  0  0  0  0  0  0  0  0  0
  -25.5985  -20.9943   17.9682 C   0  0  0  0  0  0  0  0  0  0  0  0
  -17.3737  -30.2295   24.4592 C   0  0  0  0  0  0  0  0  0  0  0  0
  -21.5339  -25.1137   22.2150 C   0  0  0  0  0  0  0  0  0  0  0  0
  -23.1842  -26.5323   20.2127 C   0  0  0  0  0  0  0  0  0  0  0  0
  -18.7389  -30.4559   23.8149 C   0  0  0  0  0  0  0  0  0  0  0  0
  -26.7658  -20.5540   21.3029 C   0  0  0  0  0  0  0  0  0  0  0  0
  -18.7326  -29.9746   22.3674 C   0  0  0  0  0  0  0  0  0  0  0  0
  -27.3013  -19.1211   21.3168 C   0  0  0  0  0  0  0  0  0  0  0  0
  -25.5232  -20.6836   20.4246 C   0  0  0  0  0  0  0  0  0  0  0  0
  -26.2207  -18.7540   19.0593 C   0  0  0  0  0  0  0  0  0  0  0  0
  -18.4493  -28.4696   22.2877 C   0  0  1  0  0  0  0  0  0  0  0  0
  -21.7675  -26.6195   22.2883 C   0  0  1  0  0  0  0  0  0  0  0  0
  -27.5062  -18.5852   19.8871 C   0  0  2  0  0  0  0  0  0  0  0  0
  -26.2406  -18.2339   11.5120 C   0  0  0  0  0  0  0  0  0  0  0  0
  -27.0087  -21.9820   15.2397 C   0  0  0  0  0  0  0  0  0  0  0  0
  -29.3747  -28.0092   21.8378 C   0  0  0  0  0  0  0  0  0  0  0  0
  -23.4118  -30.4818   20.3543 C   0  0  0  0  0  0  0  0  0  0  0  0
  -25.9007  -30.5880   20.1049 C   0  0  0  0  0  0  0  0  0  0  0  0
  -24.8615  -30.8656   22.3557 C   0  0  0  0  0  0  0  0  0  0  0  0
  -20.9180  -23.6788   14.5325 C   0  0  0  0  0  0  0  0  0  0  0  0
  -19.9300  -21.3858   14.4665 C   0  0  0  0  0  0  0  0  0  0  0  0
  -27.7131  -24.6422   22.4529 C   0  0  0  0  0  0  0  0  0  0  0  0
  -22.4521  -21.7150   14.3243 C   0  0  0  0  0  0  0  0  0  0  0  0
  -22.8678  -20.2842   14.6913 C   0  0  0  0  0  0  0  0  0  0  0  0
  -21.1662  -22.1446   16.5103 C   0  0  0  0  0  0  0  0  0  1  0  0
  -25.7368  -21.1552   15.4955 C   0  0  2  0  0  0  0  0  0  0  0  0
  -24.8920  -28.5787   21.2781 C   0  0  1  0  0  0  0  0  0  0  0  0
  -28.2400  -27.0729   22.2232 C   0  0  2  0  0  0  0  0  0  0  0  0
  -24.7522  -30.1049   21.0162 C   0  0  0  0  0  0  0  0  0  0  0  0
  -21.1273  -22.2124   14.9685 C   0  0  0  0  0  0  0  0  0  0  0  0
  -27.0955  -16.1541   19.8291 N   0  0  0  0  0  0  0  0  0  0  0  0
  -24.1482  -19.8884   13.9966 N   0  0  0  0  0  0  0  0  0  0  0  0
  -27.9966  -17.1491   19.8925 N   0  0  0  0  0  0  0  0  0  0  0  0
  -26.2414  -19.7178   13.5023 N   0  3  0  0  0  0  0  0  0  0  0  0
  -22.9785  -27.0388   21.5797 N   0  0  0  0  0  0  0  0  0  0  0  0
  -25.7848  -20.1591   19.0821 N   0  0  0  0  0  0  0  0  0  0  0  0
  -30.3207  -17.5872   20.0239 N   0  0  0  0  0  0  0  0  0  0  0  0
  -30.1133  -13.0764   19.9469 N   0  0  0  0  0  0  0  0  0  0  0  0
  -19.6354  -27.7134   22.6280 N   0  0  0  0  0  0  0  0  0  0  0  0
  -26.1403  -28.1959   21.9289 N   0  0  0  0  0  0  0  0  0  0  0  0
  -25.8749  -20.4206   16.7332 N   0  0  0  0  0  0  0  0  0  0  0  0
  -28.7210  -25.6693   22.0838 N   0  3  0  0  0  0  0  0  0  0  0  0
  -31.5330  -14.8733   20.0665 O   0  0  0  0  0  0  0  0  0  0  0  0
  -20.6471  -27.7288   20.5307 O   0  0  0  0  0  0  0  0  0  0  0  0
  -23.6342  -28.4850   23.2870 O   0  0  0  0  0  0  0  0  0  0  0  0
  -26.8564  -26.7422   20.2703 O   0  0  0  0  0  0  0  0  0  0  0  0
  -25.2195  -22.1663   18.0673 O   0  0  0  0  0  0  0  0  0  0  0  0
  -25.4802   -9.9972   19.6493 O   0  0  0  0  0  0  0  0  0  0  0  0
  -22.2302  -22.9411   17.0298 O   0  0  0  0  0  0  0  0  0  1  0  0
  -21.0867   -9.0896   22.8551 F   0  0  0  0  0  0  0  0  0  0  0  0
  -23.1863  -11.5156   19.3750 F   0  0  0  0  0  0  0  0  0  0  0  0
  1  2  1  0  0  0  0
  1  5  2  0  0  0  0
  2  6  2  0  0  0  0
  3  8  2  0  0  0  0
  3 16  1  0  0  0  0
  4  9  1  0  0  0  0
  4 16  2  0  0  0  0
  5 18  1  0  0  0  0
  6 20  1  0  0  0  0
  7 10  2  0  0  0  0
  7 19  1  0  0  0  0
  8 22  1  0  0  0  0
  9 22  2  0  0  0  0
 10 23  1  0  0  0  0
 11 12  2  0  0  0  0
 11 24  1  0  0  0  0
 12 25  1  0  0  0  0
 13 21  1  0  0  0  0
 13 23  2  0  0  0  0
 14 25  2  0  0  0  0
 14 26  1  0  0  0  0
 15 28  2  0  0  0  0
 15 66  1  0  0  0  0
 16 27  1  0  0  0  0
 17 27  1  0  0  0  0
 17 29  2  0  0  0  0
 17 31  1  0  0  0  0
 18 20  2  0  0  0  0
 18 36  1  0  0  0  0
 19 21  2  0  0  0  0
 19 37  1  0  0  0  0
 20 45  1  0  0  0  0
 21 38  1  0  0  0  0
 22 82  1  0  0  0  0
 23 83  1  0  0  0  0
 24 26  2  0  0  0  0
 24 82  1  0  0  0  0
 25 84  1  0  0  0  0
 26 85  1  0  0  0  0
 27 65  2  0  0  0  0
 28 48  1  0  0  0  0
 28 68  1  0  0  0  0
 29 67  1  0  0  0  0
 29 71  1  0  0  0  0
 30 60  1  0  0  0  0
 30 66  1  0  0  0  0
 30 68  2  0  0  0  0
 31 72  1  0  0  0  0
 31 77  2  0  0  0  0
 32 46  1  0  0  0  0
 32 73  1  0  0  0  0
 32 78  2  0  0  0  0
 33 61  1  0  0  0  0
 33 69  1  0  0  0  0
 33 79  2  0  0  0  0
 34 62  1  0  0  0  0
 34 74  1  0  0  0  0
 34 80  2  0  0  0  0
 35 70  1  0  0  0  0
 35 75  1  0  0  0  0
 35 81  2  0  0  0  0
 36 39  1  0  0  0  0
 37 46  1  0  0  0  0
 38 69  1  0  0  0  0
 39 41  1  0  0  0  0
 40 42  1  0  0  0  0
 40 43  1  0  0  0  0
 41 45  1  0  0  0  0
 42 47  1  0  0  0  0
 43 70  1  0  0  0  0
 44 47  1  0  0  0  0
 44 70  1  0  0  0  0
 45 73  1  0  0  0  0
 46 69  1  0  0  0  0
 47 67  1  0  0  0  0
 49 60  1  0  0  0  0
 50 62  1  0  0  0  0
 51 63  1  0  0  0  0
 52 63  1  0  0  0  0
 53 63  1  0  0  0  0
 54 64  1  0  0  0  0
 55 64  1  0  0  0  0
 56 76  1  0  0  0  0
 57 58  1  0  0  0  0
 57 64  1  0  0  0  0
 58 66  1  0  0  0  0
 59 64  1  0  0  0  0
 59 83  1  0  0  0  0
 60 75  1  0  0  0  0
 61 63  1  0  0  0  0
 61 74  1  0  0  0  0
 62 76  1  0  0  0  0
 65 67  1  0  0  0  0
M  CHG  2  68   1  76   1
M  ISO  4  35 100  59 101  75 100  83 101
M  END
> <Batch ID>
0073

> <Smiles>
CNC(C)C(=O)NC(C(=O)N1Cc2cc([101O:1][101CH2:1]C(C)(C)CCn3cc(C)nc3C(C)[100NH:0][100C:0](=O)N3CCCC(n4nc(-c5ccc(Oc6ccc(F)cc6F)cc5)c(C(N)=O)c4N)C3)ccc2CC1C(=O)NC1CCCc2ccccc21)C(C)(C)C

> <Shape>
0.216

> <Color>
0.092

> <Negative vol penalty>
0.000

$$$$

  -OEChem-04052318273D

 85 93  0     1  0  0  0  0  0999 V2000
  -30.3218  -12.5848   20.1527 C   0  0  0  0  0  0  0  0  0  0  0  0
  -30.1246  -13.8910   20.5891 C   0  0  0  0  0  0  0  0  0  0  0  0
  -28.9998  -24.3368   20.8532 C   0  0  0  0  0  0  0  0  0  0  0  0
  -27.8089  -25.3154   18.9928 C   0  0  0  0  0  0  0  0  0  0  0  0
  -29.3764  -11.9763   19.3283 C   0  0  0  0  0  0  0  0  0  0  0  0
  -28.9822  -14.5898   20.2004 C   0  0  0  0  0  0  0  0  0  0  0  0
  -25.8696  -18.6918   23.5156 C   0  0  0  0  0  0  0  0  0  0  0  0
  -28.7842  -23.0651   20.3223 C   0  0  0  0  0  0  0  0  0  0  0  0
  -27.5933  -24.0437   18.4619 C   0  0  0  0  0  0  0  0  0  0  0  0
  -25.8783  -20.0859   23.5316 C   0  0  0  0  0  0  0  0  0  0  0  0
  -30.0980  -21.1293   17.8812 C   0  0  0  0  0  0  0  0  0  0  0  0
  -31.1766  -20.2451   17.8578 C   0  0  0  0  0  0  0  0  0  0  0  0
  -23.9745  -20.1088   22.0503 C   0  0  0  0  0  0  0  0  0  0  0  0
  -29.9408  -18.7009   19.2453 C   0  0  0  0  0  0  0  0  0  0  0  0
  -28.5121  -25.4620   20.1884 C   0  0  0  0  0  0  0  0  0  0  0  0
  -29.8259  -27.6284   20.4858 C   0  0  0  0  0  0  0  0  0  0  0  0
  -28.2171  -12.6646   18.9371 C   0  0  0  0  0  0  0  0  0  0  0  0
  -24.9184  -17.9946   22.7569 C   0  0  0  0  0  0  0  0  0  0  0  0
  -28.0210  -13.9903   19.3688 C   0  0  0  0  0  0  0  0  0  0  0  0
  -23.9542  -18.7059   22.0284 C   0  0  0  0  0  0  0  0  0  0  0  0
  -23.2302  -26.6292   21.5892 C   0  0  0  0  0  0  0  0  0  0  0  0
  -28.0810  -22.9185   19.1267 C   0  0  0  0  0  0  0  0  0  0  0  0
  -24.9325  -20.7946   22.7966 C   0  0  0  0  0  0  0  0  0  0  0  0
  -28.9408  -20.7992   18.5867 C   0  0  0  0  0  0  0  0  0  0  0  0
  -31.0980  -19.0309   18.5399 C   0  0  0  0  0  0  0  0  0  0  0  0
  -28.8622  -19.5850   19.2687 C   0  0  0  0  0  0  0  0  0  0  0  0
  -28.7340  -26.7759   20.7366 C   0  0  0  0  0  0  0  0  0  0  0  0
  -22.7968  -27.2587   22.7382 C   0  0  0  0  0  0  0  0  0  0  0  0
  -23.7914  -27.4513   20.6335 C   0  0  0  0  0  0  0  0  0  0  0  0
  -29.5677  -28.7477   21.2387 C   0  0  0  0  0  0  0  0  0  0  0  0
  -23.4639  -29.2807   21.9422 C   0  0  0  0  0  0  0  0  0  0  0  0
  -30.9711  -27.4265   19.6471 C   0  0  0  0  0  0  0  0  0  0  0  0
  -25.0472  -15.9718   20.3084 C   0  0  0  0  0  0  0  0  0  0  0  0
  -21.8552  -15.7389   20.8369 C   0  0  0  0  0  0  0  0  0  0  0  0
  -24.4422  -31.0711   23.3465 C   0  0  0  0  0  0  0  0  0  0  0  0
  -19.0162  -17.1538   22.0958 C   0  0  0  0  0  0  0  0  0  0  0  0
  -27.2465  -11.9816   18.0065 C   0  0  0  0  0  0  0  0  0  0  0  0
  -24.9058  -16.4906   22.7714 C   0  0  0  0  0  0  0  0  0  0  0  0
  -22.8991  -18.0046   21.2139 C   0  0  0  0  0  0  0  0  0  0  0  0
  -25.8808  -12.6608   17.9453 C   0  0  0  0  0  0  0  0  0  0  0  0
  -27.3510  -30.1566   25.2287 C   0  0  0  0  0  0  0  0  0  0  0  0
  -26.0415  -14.1696   17.7893 C   0  0  0  0  0  0  0  0  0  0  0  0
  -28.1205  -29.2407   24.2778 C   0  0  0  0  0  0  0  0  0  0  0  0
  -25.8434  -29.9856   25.0706 C   0  0  0  0  0  0  0  0  0  0  0  0
  -26.1212  -29.2657   22.7199 C   0  0  0  0  0  0  0  0  0  0  0  0
  -26.7825  -14.7725   18.9889 C   0  0  1  0  0  0  0  0  0  0  0  0
  -24.2117  -15.8871   21.5543 C   0  0  1  0  0  0  0  0  0  0  0  0
  -27.6478  -29.4291   22.8254 C   0  0  2  0  0  0  0  0  0  0  0  0
  -22.1728  -26.4706   23.8427 C   0  0  0  0  0  0  0  0  0  0  0  0
  -25.1531  -27.8782   18.5719 C   0  0  0  0  0  0  0  0  0  0  0  0
  -16.5535  -16.7413   22.3460 C   0  0  0  0  0  0  0  0  0  0  0  0
  -22.2076  -31.4111   22.3617 C   0  0  0  0  0  0  0  0  0  0  0  0
  -24.2878  -31.5379   20.9866 C   0  0  0  0  0  0  0  0  0  0  0  0
  -21.4444  -16.4193   17.8911 C   0  0  0  0  0  0  0  0  0  0  0  0
  -19.0483  -16.9234   18.4135 C   0  0  0  0  0  0  0  0  0  0  0  0
  -19.9422  -14.6213   18.7658 C   0  0  0  0  0  0  0  0  0  0  0  0
  -19.1854  -17.2315   25.0495 C   0  0  0  0  0  0  0  0  0  0  0  0
  -23.1005  -25.1399   21.3922 C   0  0  0  0  0  0  0  0  0  0  0  0
  -24.2954  -26.8830   19.3478 C   0  0  0  0  0  0  0  0  0  0  0  0
  -24.1337  -24.3232   22.1713 C   0  0  0  0  0  0  0  0  0  0  0  0
  -23.9413  -22.8174   22.0340 C   0  0  0  0  0  0  0  0  0  1  0  0
  -20.6331  -16.4738   20.3415 C   0  0  1  0  0  0  0  0  0  0  0  0
  -17.9236  -16.5957   22.9898 C   0  0  2  0  0  0  0  0  0  0  0  0
  -23.5962  -30.7528   22.1394 C   0  0  0  0  0  0  0  0  0  0  0  0
  -20.2879  -16.1230   18.8667 C   0  0  0  0  0  0  0  0  0  0  0  0
  -27.8482  -27.3080   21.5829 N   0  0  0  0  0  0  0  0  0  0  0  0
  -22.8985  -28.5875   22.9488 N   0  0  0  0  0  0  0  0  0  0  0  0
  -23.9244  -28.7862   20.7774 N   0  0  0  0  0  0  0  0  0  0  0  0
  -28.3832  -28.5068   21.8705 N   0  0  0  0  0  0  0  0  0  0  0  0
  -22.9321  -16.5333   21.2551 N   0  0  0  0  0  0  0  0  0  0  0  0
  -25.4374  -30.1499   23.6737 N   0  0  0  0  0  0  0  0  0  0  0  0
  -30.2407  -29.9045   21.4155 N   0  0  0  0  0  0  0  0  0  0  0  0
  -31.0796  -26.2192   18.9436 N   0  0  0  0  0  0  0  0  0  0  0  0
  -25.8925  -14.8944   20.1235 N   0  0  0  0  0  0  0  0  0  0  0  0
  -19.5660  -16.1782   21.2915 N   0  0  0  0  0  0  0  0  0  0  0  0
  -17.9073  -17.3120   24.2966 N   0  3  0  0  0  0  0  0  0  0  0  0
  -31.8797  -28.2844   19.5379 O   0  0  0  0  0  0  0  0  0  0  0  0
  -24.9323  -16.9420   19.5686 O   0  0  0  0  0  0  0  0  0  0  0  0
  -21.8516  -14.5056   20.8590 O   0  0  0  0  0  0  0  0  0  0  0  0
  -24.2255  -32.1094   23.9767 O   0  0  0  0  0  0  0  0  0  0  0  0
  -19.3461  -18.3377   22.1071 O   0  0  0  0  0  0  0  0  0  0  0  0
  -27.8706  -21.6777   18.6082 O   0  0  0  0  0  0  0  0  0  0  0  0
  -24.9392  -22.1554   22.8099 O   0  0  0  0  0  0  0  0  0  1  0  0
  -32.1333  -18.1813   18.5161 F   0  0  0  0  0  0  0  0  0  0  0  0
  -27.7527  -19.2620   19.9472 F   0  0  0  0  0  0  0  0  0  0  0  0
  1  2  1  0  0  0  0
  1  5  2  0  0  0  0
  2  6  2  0  0  0  0
  3  8  2  0  0  0  0
  3 15  1  0  0  0  0
  4  9  1  0  0  0  0
  4 15  2  0  0  0  0
  5 17  1  0  0  0  0
  6 19  1  0  0  0  0
  7 10  2  0  0  0  0
  7 18  1  0  0  0  0
  8 22  1  0  0  0  0
  9 22  2  0  0  0  0
 10 23  1  0  0  0  0
 11 12  2  0  0  0  0
 11 24  1  0  0  0  0
 12 25  1  0  0  0  0
 13 20  1  0  0  0  0
 13 23  2  0  0  0  0
 14 25  2  0  0  0  0
 14 26  1  0  0  0  0
 15 27  1  0  0  0  0
 16 27  1  0  0  0  0
 16 30  2  0  0  0  0
 16 32  1  0  0  0  0
 17 19  2  0  0  0  0
 17 37  1  0  0  0  0
 18 20  2  0  0  0  0
 18 38  1  0  0  0  0
 19 46  1  0  0  0  0
 20 39  1  0  0  0  0
 21 28  1  0  0  0  0
 21 29  2  0  0  0  0
 21 58  1  0  0  0  0
 22 82  1  0  0  0  0
 23 83  1  0  0  0  0
 24 26  2  0  0  0  0
 24 82  1  0  0  0  0
 25 84  1  0  0  0  0
 26 85  1  0  0  0  0
 27 66  2  0  0  0  0
 28 49  1  0  0  0  0
 28 67  2  0  0  0  0
 29 59  1  0  0  0  0
 29 68  1  0  0  0  0
 30 69  1  0  0  0  0
 30 72  1  0  0  0  0
 31 64  1  0  0  0  0
 31 67  1  0  0  0  0
 31 68  2  0  0  0  0
 32 73  1  0  0  0  0
 32 77  2  0  0  0  0
 33 47  1  0  0  0  0
 33 74  1  0  0  0  0
 33 78  2  0  0  0  0
 34 62  1  0  0  0  0
 34 70  1  0  0  0  0
 34 79  2  0  0  0  0
 35 64  1  0  0  0  0
 35 71  1  0  0  0  0
 35 80  2  0  0  0  0
 36 63  1  0  0  0  0
 36 75  1  0  0  0  0
 36 81  2  0  0  0  0
 37 40  1  0  0  0  0
 38 47  1  0  0  0  0
 39 70  1  0  0  0  0
 40 42  1  0  0  0  0
 41 43  1  0  0  0  0
 41 44  1  0  0  0  0
 42 46  1  0  0  0  0
 43 48  1  0  0  0  0
 44 71  1  0  0  0  0
 45 48  1  0  0  0  0
 45 71  1  0  0  0  0
 46 74  1  0  0  0  0
 47 70  1  0  0  0  0
 48 69  1  0  0  0  0
 50 59  1  0  0  0  0
 51 63  1  0  0  0  0
 52 64  1  0  0  0  0
 53 64  1  0  0  0  0
 54 65  1  0  0  0  0
 55 65  1  0  0  0  0
 56 65  1  0  0  0  0
 57 76  1  0  0  0  0
 58 60  1  0  0  0  0
 60 61  1  0  0  0  0
 61 83  1  0  0  0  0
 62 65  1  0  0  0  0
 62 75  1  0  0  0  0
 63 76  1  0  0  0  0
 66 69  1  0  0  0  0
M  CHG  1  76   1
M  ISO  4  35 100  61 101  64 100  83 101
M  END
> <Batch ID>
0073

> <Smiles>
CCc1nc([100C:0](C)(C)[100C:0](=O)N2CCCC(n3nc(-c4ccc(Oc5ccc(F)cc5F)cc4)c(C(N)=O)c3N)C2)nc(C)c1CC[101CH2:1][101O:1]c1ccc2c(c1)CN(C(=O)C(NC(=O)C(C)NC)C(C)(C)C)C(C(=O)NC1CCCc3ccccc31)C2

> <Shape>
0.228

> <Color>
0.065

> <Negative vol penalty>
0.000

$$$$

  -OEChem-04052318273D

 82 90  0     1  0  0  0  0  0999 V2000
  -18.8489  -22.4856   24.2234 C   0  0  0  0  0  0  0  0  0  0  0  0
  -20.1688  -22.1131   24.4568 C   0  0  0  0  0  0  0  0  0  0  0  0
  -25.8168  -14.0526   21.3446 C   0  0  0  0  0  0  0  0  0  0  0  0
  -26.0147  -14.3714   18.9579 C   0  0  0  0  0  0  0  0  0  0  0  0
  -18.5594  -23.4620   23.2712 C   0  0  0  0  0  0  0  0  0  0  0  0
  -21.1999  -22.7160   23.7373 C   0  0  0  0  0  0  0  0  0  0  0  0
  -28.0322  -24.7581   24.4200 C   0  0  0  0  0  0  0  0  0  0  0  0
  -24.8051  -13.1154   21.1355 C   0  0  0  0  0  0  0  0  0  0  0  0
  -25.0030  -13.4341   18.7488 C   0  0  0  0  0  0  0  0  0  0  0  0
  -29.2665  -24.6185   23.7868 C   0  0  0  0  0  0  0  0  0  0  0  0
  -24.5678   -9.8668   20.2284 C   0  0  0  0  0  0  0  0  0  0  0  0
  -24.6243   -8.6786   20.9569 C   0  0  0  0  0  0  0  0  0  0  0  0
  -28.6533  -26.3499   22.2231 C   0  0  0  0  0  0  0  0  0  0  0  0
  -22.4774   -9.1820   21.9441 C   0  0  0  0  0  0  0  0  0  0  0  0
  -30.8386  -22.8323   18.8187 C   0  0  0  0  0  0  0  0  0  0  0  0
  -26.4215  -14.6807   20.2557 C   0  0  0  0  0  0  0  0  0  0  0  0
  -28.8499  -15.4034   20.5527 C   0  0  0  0  0  0  0  0  0  0  0  0
  -19.5882  -24.0841   22.5465 C   0  0  0  0  0  0  0  0  0  0  0  0
  -27.0934  -25.6886   23.9519 C   0  0  0  0  0  0  0  0  0  0  0  0
  -20.9238  -23.7007   22.7735 C   0  0  0  0  0  0  0  0  0  0  0  0
  -27.4089  -26.5012   22.8536 C   0  0  0  0  0  0  0  0  0  0  0  0
  -24.3982  -12.8061   19.8377 C   0  0  0  0  0  0  0  0  0  0  0  0
  -29.5761  -25.4124   22.6865 C   0  0  0  0  0  0  0  0  0  0  0  0
  -23.4662  -10.7126   20.3578 C   0  0  0  0  0  0  0  0  0  0  0  0
  -23.5791   -8.3362   21.8147 C   0  0  0  0  0  0  0  0  0  0  0  0
  -22.4210  -10.3701   21.2156 C   0  0  0  0  0  0  0  0  0  0  0  0
  -27.4662  -15.6494   20.4711 C   0  0  0  0  0  0  0  0  0  0  0  0
  -30.1193  -23.4709   17.8399 C   0  0  0  0  0  0  0  0  0  0  0  0
  -29.4068  -16.6412   20.7634 C   0  0  0  0  0  0  0  0  0  0  0  0
  -29.5677  -14.1667   20.4475 C   0  0  0  0  0  0  0  0  0  0  0  0
  -24.1494  -25.5030   22.7678 C   0  0  0  0  0  0  0  0  0  0  0  0
  -24.3083  -28.7399   22.9075 C   0  0  0  0  0  0  0  0  0  0  0  0
  -26.2507  -31.5453   22.9674 C   0  0  0  0  0  0  0  0  0  0  0  0
  -27.5906  -22.2010   19.4826 C   0  0  0  0  0  0  0  0  0  0  0  0
  -19.2226  -25.1005   21.4939 C   0  0  0  0  0  0  0  0  0  0  0  0
  -25.7769  -25.8457   24.6624 C   0  0  0  0  0  0  0  0  0  0  0  0
  -26.4437  -27.5293   22.3245 C   0  0  0  0  0  0  0  0  0  0  0  0
  -20.4010  -25.9585   21.0404 C   0  0  0  0  0  0  0  0  0  0  0  0
  -28.4278  -20.9085   22.6927 C   0  0  0  0  0  0  0  0  0  0  0  0
  -21.6212  -25.0861   20.7636 C   0  0  0  0  0  0  0  0  0  0  0  0
  -28.4011  -19.3919   22.4947 C   0  0  0  0  0  0  0  0  0  0  0  0
  -27.3424  -21.6037   21.8738 C   0  0  0  0  0  0  0  0  0  0  0  0
  -27.3208  -19.7610   20.2375 C   0  0  0  0  0  0  0  0  0  0  0  0
  -22.0717  -24.3494   22.0308 C   0  0  1  0  0  0  0  0  0  0  0  0
  -24.6944  -26.4658   23.7844 C   0  0  1  0  0  0  0  0  0  0  0  0
  -28.4331  -19.0209   20.9999 C   0  0  2  0  0  0  0  0  0  0  0  0
  -26.0937  -34.0486   23.0456 C   0  0  0  0  0  0  0  0  0  0  0  0
  -29.9068  -21.5231   16.1494 C   0  0  0  0  0  0  0  0  0  0  0  0
  -29.3766  -23.8506   15.4731 C   0  0  0  0  0  0  0  0  0  0  0  0
  -23.5274  -28.7806   19.9581 C   0  0  0  0  0  0  0  0  0  0  0  0
  -24.3037  -31.1587   19.8572 C   0  0  0  0  0  0  0  0  0  0  0  0
  -22.4124  -30.5285   21.3567 C   0  0  0  0  0  0  0  0  0  0  0  0
  -27.7111  -31.6725   25.5384 C   0  0  0  0  0  0  0  0  0  0  0  0
  -32.1787  -23.7571   20.8162 C   0  0  0  0  0  0  0  0  0  0  0  0
  -27.8430  -22.6396   17.0529 C   0  0  0  0  0  0  0  0  0  0  0  0
  -31.3864  -23.9865   22.0986 C   0  0  0  0  0  0  0  0  0  1  0  0
  -24.7641  -29.8294   21.9672 C   0  0  1  0  0  0  0  0  0  0  0  0
  -26.2215  -32.7717   23.8616 C   0  0  2  0  0  0  0  0  0  0  0  0
  -29.3666  -22.8925   16.7194 C   0  0  0  0  0  0  0  0  0  0  0  0
  -23.7696  -30.0537   20.7933 C   0  0  0  0  0  0  0  0  0  0  0  0
  -27.1627  -16.9418   20.6180 N   0  0  0  0  0  0  0  0  0  0  0  0
  -30.1780  -24.8229   18.0348 N   0  0  0  0  0  0  0  0  0  0  0  0
  -30.9192  -25.0480   19.1141 N   0  0  0  0  0  0  0  0  0  0  0  0
  -31.3144  -23.8532   19.5825 N   0  0  0  0  0  0  0  0  0  0  0  0
  -28.3635  -17.5190   20.7942 N   0  0  0  0  0  0  0  0  0  0  0  0
  -25.1671  -27.6407   23.0493 N   0  0  0  0  0  0  0  0  0  0  0  0
  -27.4290  -21.2105   20.4653 N   0  0  0  0  0  0  0  0  0  0  0  0
  -30.6823  -17.0533   20.9235 N   0  0  0  0  0  0  0  0  0  0  0  0
  -28.8404  -12.9885   20.2306 N   0  0  0  0  0  0  0  0  0  0  0  0
  -22.7987  -25.2450   22.9047 N   0  0  0  0  0  0  0  0  0  0  0  0
  -24.9916  -31.0114   22.7917 N   0  0  0  0  0  0  0  0  0  0  0  0
  -27.6701  -21.7422   18.1734 N   0  0  0  0  0  0  0  0  0  0  0  0
  -27.4711  -32.8534   24.6696 N   0  3  0  0  0  0  0  0  0  0  0  0
  -30.8156  -14.1061   20.5594 O   0  0  0  0  0  0  0  0  0  0  0  0
  -24.8984  -25.0303   21.9209 O   0  0  0  0  0  0  0  0  0  0  0  0
  -23.2333  -28.8629   23.4998 O   0  0  0  0  0  0  0  0  0  0  0  0
  -27.2862  -31.1072   22.4712 O   0  0  0  0  0  0  0  0  0  0  0  0
  -27.6644  -23.4046   19.7523 O   0  0  0  0  0  0  0  0  0  0  0  0
  -23.4113  -11.8914   19.6333 O   0  0  0  0  0  0  0  0  0  0  0  0
  -30.7798  -25.2778   22.0662 O   0  0  0  0  0  0  0  0  0  1  0  0
  -23.6327   -7.1944   22.5131 F   0  0  0  0  0  0  0  0  0  0  0  0
  -21.3595  -11.1781   21.3432 F   0  0  0  0  0  0  0  0  0  0  0  0
  1  2  1  0  0  0  0
  1  5  2  0  0  0  0
  2  6  2  0  0  0  0
  3  8  2  0  0  0  0
  3 16  1  0  0  0  0
  4  9  1  0  0  0  0
  4 16  2  0  0  0  0
  5 18  1  0  0  0  0
  6 20  1  0  0  0  0
  7 10  2  0  0  0  0
  7 19  1  0  0  0  0
  8 22  1  0  0  0  0
  9 22  2  0  0  0  0
 10 23  1  0  0  0  0
 11 12  2  0  0  0  0
 11 24  1  0  0  0  0
 12 25  1  0  0  0  0
 13 21  1  0  0  0  0
 13 23  2  0  0  0  0
 14 25  2  0  0  0  0
 14 26  1  0  0  0  0
 15 28  2  0  0  0  0
 15 64  1  0  0  0  0
 16 27  1  0  0  0  0
 17 27  1  0  0  0  0
 17 29  2  0  0  0  0
 17 30  1  0  0  0  0
 18 20  2  0  0  0  0
 18 35  1  0  0  0  0
 19 21  2  0  0  0  0
 19 36  1  0  0  0  0
 20 44  1  0  0  0  0
 21 37  1  0  0  0  0
 22 79  1  0  0  0  0
 23 80  1  0  0  0  0
 24 26  2  0  0  0  0
 24 79  1  0  0  0  0
 25 81  1  0  0  0  0
 26 82  1  0  0  0  0
 27 61  2  0  0  0  0
 28 59  1  0  0  0  0
 28 62  1  0  0  0  0
 29 65  1  0  0  0  0
 29 68  1  0  0  0  0
 30 69  1  0  0  0  0
 30 74  2  0  0  0  0
 31 45  1  0  0  0  0
 31 70  1  0  0  0  0
 31 75  2  0  0  0  0
 32 57  1  0  0  0  0
 32 66  1  0  0  0  0
 32 76  2  0  0  0  0
 33 58  1  0  0  0  0
 33 71  1  0  0  0  0
 33 77  2  0  0  0  0
 34 67  1  0  0  0  0
 34 72  1  0  0  0  0
 34 78  2  0  0  0  0
 35 38  1  0  0  0  0
 36 45  1  0  0  0  0
 37 66  1  0  0  0  0
 38 40  1  0  0  0  0
 39 41  1  0  0  0  0
 39 42  1  0  0  0  0
 40 44  1  0  0  0  0
 41 46  1  0  0  0  0
 42 67  1  0  0  0  0
 43 46  1  0  0  0  0
 43 67  1  0  0  0  0
 44 70  1  0  0  0  0
 45 66  1  0  0  0  0
 46 65  1  0  0  0  0
 47 58  1  0  0  0  0
 48 59  1  0  0  0  0
 49 59  1  0  0  0  0
 50 60  1  0  0  0  0
 51 60  1  0  0  0  0
 52 60  1  0  0  0  0
 53 73  1  0  0  0  0
 54 56  1  0  0  0  0
 54 64  1  0  0  0  0
 55 59  1  0  0  0  0
 55 72  1  0  0  0  0
 56 80  1  0  0  0  0
 57 60  1  0  0  0  0
 57 71  1  0  0  0  0
 58 73  1  0  0  0  0
 61 65  1  0  0  0  0
 62 63  2  0  0  0  0
 63 64  1  0  0  0  0
M  CHG  1  73   1
M  ISO  4  34 100  56 101  72 100  80 101
M  END
> <Batch ID>
0073

> <Smiles>
CNC(C)C(=O)NC(C(=O)N1Cc2cc([101O:1][101CH2:1]Cn3cc(C(C)(C)C[100NH:0][100C:0](=O)N4CCCC(n5nc(-c6ccc(Oc7ccc(F)cc7F)cc6)c(C(N)=O)c5N)C4)nn3)ccc2CC1C(=O)NC1CCCc2ccccc21)C(C)(C)C

> <Shape>
0.260

> <Color>
0.062

> <Negative vol penalty>
0.000

$$$$

  -OEChem-04052318273D

 88 96  0     1  0  0  0  0  0999 V2000
  -17.2261  -30.7095   23.6371 C   0  0  0  0  0  0  0  0  0  0  0  0
  -18.5755  -31.0372   23.5527 C   0  0  0  0  0  0  0  0  0  0  0  0
  -21.2974  -15.9461   18.7997 C   0  0  0  0  0  0  0  0  0  0  0  0
  -23.3195  -15.6952   17.5016 C   0  0  0  0  0  0  0  0  0  0  0  0
  -16.8166  -29.3910   23.4427 C   0  0  0  0  0  0  0  0  0  0  0  0
  -19.5164  -30.0463   23.2749 C   0  0  0  0  0  0  0  0  0  0  0  0
  -25.7811  -29.0739   19.9396 C   0  0  0  0  0  0  0  0  0  0  0  0
  -20.5592  -16.0809   17.6239 C   0  0  0  0  0  0  0  0  0  0  0  0
  -22.5814  -15.8300   16.3257 C   0  0  0  0  0  0  0  0  0  0  0  0
  -27.0566  -28.5608   20.1715 C   0  0  0  0  0  0  0  0  0  0  0  0
  -19.9278  -18.4938   15.3427 C   0  0  0  0  0  0  0  0  0  0  0  0
  -18.9766  -19.5126   15.2888 C   0  0  0  0  0  0  0  0  0  0  0  0
  -26.2250  -26.3312   19.7758 C   0  0  0  0  0  0  0  0  0  0  0  0
  -17.2413  -17.8728   14.9189 C   0  0  0  0  0  0  0  0  0  0  0  0
  -31.4520  -22.5803   20.4548 C   0  0  0  0  0  0  0  0  0  0  0  0
  -22.6775  -15.7532   18.7386 C   0  0  0  0  0  0  0  0  0  0  0  0
  -23.7344  -14.4218   20.6406 C   0  0  0  0  0  0  0  0  0  0  0  0
  -17.7520  -28.3851   23.1529 C   0  0  0  0  0  0  0  0  0  0  0  0
  -24.7139  -28.2170   19.6342 C   0  0  0  0  0  0  0  0  0  0  0  0
  -19.1192  -28.7129   23.0778 C   0  0  0  0  0  0  0  0  0  0  0  0
  -24.9376  -26.8361   19.5379 C   0  0  0  0  0  0  0  0  0  0  0  0
  -30.6442  -22.9438   19.3966 C   0  0  0  0  0  0  0  0  0  0  0  0
  -21.2012  -16.0229   16.3869 C   0  0  0  0  0  0  0  0  0  0  0  0
  -27.2781  -27.1890   20.0925 C   0  0  0  0  0  0  0  0  0  0  0  0
  -19.5358  -17.1645   15.1847 C   0  0  0  0  0  0  0  0  0  0  0  0
  -17.6334  -19.2021   15.0769 C   0  0  0  0  0  0  0  0  0  0  0  0
  -18.1925  -16.8540   14.9728 C   0  0  0  0  0  0  0  0  0  0  0  0
  -23.4406  -15.6145   19.9528 C   0  0  0  0  0  0  0  0  0  0  0  0
  -29.6378  -22.0541   19.0808 C   0  0  0  0  0  0  0  0  0  0  0  0
  -24.4795  -14.8237   21.7221 C   0  0  0  0  0  0  0  0  0  0  0  0
  -30.2811  -20.6549   20.7527 C   0  0  0  0  0  0  0  0  0  0  0  0
  -23.3666  -13.0713   20.3297 C   0  0  0  0  0  0  0  0  0  0  0  0
  -21.9384  -27.5113   21.0134 C   0  0  0  0  0  0  0  0  0  0  0  0
  -21.4715  -25.7949   18.3008 C   0  0  0  0  0  0  0  0  0  0  0  0
  -22.5714  -23.6114   15.6476 C   0  0  0  0  0  0  0  0  0  0  0  0
  -27.9374  -19.6045   22.7411 C   0  0  0  0  0  0  0  0  0  0  0  0
  -17.2668  -26.9656   22.9973 C   0  0  0  0  0  0  0  0  0  0  0  0
  -23.3498  -28.7886   19.3604 C   0  0  0  0  0  0  0  0  0  0  0  0
  -23.8299  -25.8755   19.1933 C   0  0  0  0  0  0  0  0  0  0  0  0
  -18.2870  -26.0422   22.3365 C   0  0  0  0  0  0  0  0  0  0  0  0
  -25.1212  -18.5535   24.6492 C   0  0  0  0  0  0  0  0  0  0  0  0
  -19.6654  -26.2363   22.9602 C   0  0  0  0  0  0  0  0  0  0  0  0
  -24.3976  -17.5735   23.7240 C   0  0  0  0  0  0  0  0  0  0  0  0
  -25.7359  -19.7150   23.8713 C   0  0  0  0  0  0  0  0  0  0  0  0
  -25.8960  -18.3369   21.8343 C   0  0  0  0  0  0  0  0  0  0  0  0
  -20.1674  -27.6705   22.7538 C   0  0  1  0  0  0  0  0  0  0  0  0
  -22.2263  -27.7766   19.5628 C   0  0  1  0  0  0  0  0  0  0  0  0
  -25.3074  -17.1190   22.5668 C   0  0  2  0  0  0  0  0  0  0  0  0
  -26.5106  -21.7312   16.8400 C   0  0  0  0  0  0  0  0  0  0  0  0
  -21.3441  -22.7343   13.6421 C   0  0  0  0  0  0  0  0  0  0  0  0
  -30.5429  -16.8903   21.8723 C   0  0  0  0  0  0  0  0  0  0  0  0
  -32.3959  -18.3249   20.9961 C   0  0  0  0  0  0  0  0  0  0  0  0
  -30.4429  -17.7672   19.5442 C   0  0  0  0  0  0  0  0  0  0  0  0
  -20.8828  -23.3844   20.0764 C   0  0  0  0  0  0  0  0  0  0  0  0
  -21.1987  -21.9184   18.0716 C   0  0  0  0  0  0  0  0  0  0  0  0
  -19.3714  -23.6163   18.0975 C   0  0  0  0  0  0  0  0  0  0  0  0
  -24.6233  -24.6581   13.7894 C   0  0  0  0  0  0  0  0  0  0  0  0
  -30.8688  -24.2347   18.6505 C   0  0  0  0  0  0  0  0  0  0  0  0
  -28.7017  -22.3427   17.9539 C   0  0  0  0  0  0  0  0  0  0  0  0
  -27.4792  -21.4135   17.9681 C   0  0  0  0  0  0  0  0  0  0  0  0
  -30.3790  -25.4740   19.4026 C   0  0  0  0  0  0  0  0  0  0  0  0
  -28.8720  -25.4853   19.6311 C   0  0  0  0  0  0  0  0  0  1  0  0
  -30.0789  -19.3839   21.5063 C   0  0  2  0  0  0  0  0  0  0  0  0
  -21.7702  -24.3805   17.8659 C   0  0  1  0  0  0  0  0  0  0  0  0
  -22.3130  -23.7850   14.1618 C   0  0  2  0  0  0  0  0  0  0  0  0
  -30.8699  -18.1137   20.9901 C   0  0  0  0  0  0  0  0  0  0  0  0
  -20.8264  -23.3426   18.5362 C   0  0  0  0  0  0  0  0  0  0  0  0
  -31.2983  -21.4390   21.1577 N   0  0  0  0  0  0  0  0  0  0  0  0
  -23.9569  -16.6932   20.5476 N   0  0  0  0  0  0  0  0  0  0  0  0
  -29.4268  -20.8960   19.7400 N   0  0  0  0  0  0  0  0  0  0  0  0
  -24.5825  -16.1799   21.6206 N   0  0  0  0  0  0  0  0  0  0  0  0
  -22.5126  -26.4824   18.9406 N   0  0  0  0  0  0  0  0  0  0  0  0
  -26.5884  -19.2161   22.7895 N   0  0  0  0  0  0  0  0  0  0  0  0
  -25.0501  -14.1459   22.7406 N   0  0  0  0  0  0  0  0  0  0  0  0
  -22.5991  -12.8355   19.1809 N   0  0  0  0  0  0  0  0  0  0  0  0
  -20.6554  -27.8456   21.4026 N   0  0  0  0  0  0  0  0  0  0  0  0
  -21.7174  -24.3820   16.4079 N   0  0  0  0  0  0  0  0  0  0  0  0
  -28.6765  -19.0815   21.6871 N   0  0  0  0  0  0  0  0  0  0  0  0
  -23.5870  -23.6686   13.3974 N   0  3  0  0  0  0  0  0  0  0  0  0
  -23.6947  -12.1042   21.0580 O   0  0  0  0  0  0  0  0  0  0  0  0
  -22.8149  -27.0370   21.7264 O   0  0  0  0  0  0  0  0  0  0  0  0
  -20.3578  -26.2747   18.0746 O   0  0  0  0  0  0  0  0  0  0  0  0
  -23.4411  -22.8638   16.0895 O   0  0  0  0  0  0  0  0  0  0  0  0
  -28.4469  -20.3570   23.5784 O   0  0  0  0  0  0  0  0  0  0  0  0
  -20.4812  -16.1541   15.2393 O   0  0  0  0  0  0  0  0  0  0  0  0
  -28.5219  -26.6855   20.3191 O   0  0  0  0  0  0  0  0  0  1  0  0
  -16.7198  -20.1804   15.0266 F   0  0  0  0  0  0  0  0  0  0  0  0
  -17.8097  -15.5787   14.8215 F   0  0  0  0  0  0  0  0  0  0  0  0
  1  2  1  0  0  0  0
  1  5  2  0  0  0  0
  2  6  2  0  0  0  0
  3  8  2  0  0  0  0
  3 16  1  0  0  0  0
  4  9  1  0  0  0  0
  4 16  2  0  0  0  0
  5 18  1  0  0  0  0
  6 20  1  0  0  0  0
  7 10  2  0  0  0  0
  7 19  1  0  0  0  0
  8 23  1  0  0  0  0
  9 23  2  0  0  0  0
 10 24  1  0  0  0  0
 11 12  2  0  0  0  0
 11 25  1  0  0  0  0
 12 26  1  0  0  0  0
 13 21  1  0  0  0  0
 13 24  2  0  0  0  0
 14 26  2  0  0  0  0
 14 27  1  0  0  0  0
 15 22  1  0  0  0  0
 15 68  2  0  0  0  0
 16 28  1  0  0  0  0
 17 28  1  0  0  0  0
 17 30  2  0  0  0  0
 17 32  1  0  0  0  0
 18 20  2  0  0  0  0
 18 37  1  0  0  0  0
 19 21  2  0  0  0  0
 19 38  1  0  0  0  0
 20 46  1  0  0  0  0
 21 39  1  0  0  0  0
 22 29  2  0  0  0  0
 22 58  1  0  0  0  0
 23 85  1  0  0  0  0
 24 86  1  0  0  0  0
 25 27  2  0  0  0  0
 25 85  1  0  0  0  0
 26 87  1  0  0  0  0
 27 88  1  0  0  0  0
 28 69  2  0  0  0  0
 29 59  1  0  0  0  0
 29 70  1  0  0  0  0
 30 71  1  0  0  0  0
 30 74  1  0  0  0  0
 31 63  1  0  0  0  0
 31 68  1  0  0  0  0
 31 70  2  0  0  0  0
 32 75  1  0  0  0  0
 32 80  2  0  0  0  0
 33 47  1  0  0  0  0
 33 76  1  0  0  0  0
 33 81  2  0  0  0  0
 34 64  1  0  0  0  0
 34 72  1  0  0  0  0
 34 82  2  0  0  0  0
 35 65  1  0  0  0  0
 35 77  1  0  0  0  0
 35 83  2  0  0  0  0
 36 73  1  0  0  0  0
 36 78  1  0  0  0  0
 36 84  2  0  0  0  0
 37 40  1  0  0  0  0
 38 47  1  0  0  0  0
 39 72  1  0  0  0  0
 40 42  1  0  0  0  0
 41 43  1  0  0  0  0
 41 44  1  0  0  0  0
 42 46  1  0  0  0  0
 43 48  1  0  0  0  0
 44 73  1  0  0  0  0
 45 48  1  0  0  0  0
 45 73  1  0  0  0  0
 46 76  1  0  0  0  0
 47 72  1  0  0  0  0
 48 71  1  0  0  0  0
 49 60  1  0  0  0  0
 50 65  1  0  0  0  0
 51 66  1  0  0  0  0
 52 66  1  0  0  0  0
 53 66  1  0  0  0  0
 54 67  1  0  0  0  0
 55 67  1  0  0  0  0
 56 67  1  0  0  0  0
 57 79  1  0  0  0  0
 58 61  1  0  0  0  0
 59 60  1  0  0  0  0
 61 62  1  0  0  0  0
 62 86  1  0  0  0  0
 63 66  1  0  0  0  0
 63 78  1  0  0  0  0
 64 67  1  0  0  0  0
 64 77  1  0  0  0  0
 65 79  1  0  0  0  0
 69 71  1  0  0  0  0
M  CHG  1  79   1
M  ISO  4  36 100  62 101  78 100  86 101
M  END
> <Batch ID>
0073

> <Smiles>
CCCc1nc(C([100NH:0][100C:0](=O)N2CCCC(n3nc(-c4ccc(Oc5ccc(F)cc5F)cc4)c(C(N)=O)c3N)C2)C(C)(C)C)ncc1CC[101CH2:1][101O:1]c1ccc2c(c1)CN(C(=O)C(NC(=O)C(C)NC)C(C)(C)C)C(C(=O)NC1CCCc3ccccc31)C2

> <Shape>
0.197

> <Color>
0.069

> <Negative vol penalty>
0.000

$$$$

  -OEChem-04052318273D

 87 95  0     1  0  0  0  0  0999 V2000
  -27.1754  -30.7473   17.9078 C   0  0  0  0  0  0  0  0  0  0  0  0
  -27.3929  -29.3863   18.0973 C   0  0  0  0  0  0  0  0  0  0  0  0
  -28.5834  -20.1516   20.8275 C   0  0  0  0  0  0  0  0  0  0  0  0
  -29.9238  -19.9168   18.8311 C   0  0  0  0  0  0  0  0  0  0  0  0
  -26.2829  -31.4309   18.7324 C   0  0  0  0  0  0  0  0  0  0  0  0
  -26.7187  -28.7084   19.1124 C   0  0  0  0  0  0  0  0  0  0  0  0
  -24.7231  -22.9200   18.9785 C   0  0  0  0  0  0  0  0  0  0  0  0
  -28.4216  -21.5107   20.5590 C   0  0  0  0  0  0  0  0  0  0  0  0
  -29.7619  -21.2760   18.5626 C   0  0  0  0  0  0  0  0  0  0  0  0
  -25.2537  -21.7330   19.4819 C   0  0  0  0  0  0  0  0  0  0  0  0
  -30.2268  -24.3482   20.8970 C   0  0  0  0  0  0  0  0  0  0  0  0
  -30.3878  -25.2409   21.9566 C   0  0  0  0  0  0  0  0  0  0  0  0
  -23.8874  -21.9668   21.4562 C   0  0  0  0  0  0  0  0  0  0  0  0
  -28.1177  -26.0104   21.6531 C   0  0  0  0  0  0  0  0  0  0  0  0
  -29.3346  -19.3546   19.9635 C   0  0  0  0  0  0  0  0  0  0  0  0
  -30.0912  -17.3739   21.3820 C   0  0  0  0  0  0  0  0  0  0  0  0
  -25.5902  -30.7590   19.7519 C   0  0  0  0  0  0  0  0  0  0  0  0
  -23.7772  -23.6461   19.7163 C   0  0  0  0  0  0  0  0  0  0  0  0
  -25.8171  -29.3840   19.9523 C   0  0  0  0  0  0  0  0  0  0  0  0
  -23.3445  -23.1613   20.9588 C   0  0  0  0  0  0  0  0  0  0  0  0
  -29.0108  -22.0730   19.4266 C   0  0  0  0  0  0  0  0  0  0  0  0
  -24.8380  -21.2577   20.7223 C   0  0  0  0  0  0  0  0  0  0  0  0
  -29.0113  -24.2866   20.2154 C   0  0  0  0  0  0  0  0  0  0  0  0
  -29.3332  -26.0720   22.3346 C   0  0  0  0  0  0  0  0  0  0  0  0
  -27.9568  -25.1176   20.5935 C   0  0  0  0  0  0  0  0  0  0  0  0
  -29.5026  -17.9506   20.2406 C   0  0  0  0  0  0  0  0  0  0  0  0
  -30.0080  -16.0203   21.1644 C   0  0  0  0  0  0  0  0  0  0  0  0
  -25.8046  -11.5083   21.5815 C   0  0  0  0  0  0  0  0  0  0  0  0
  -25.0978  -13.4339   21.1946 C   0  0  0  0  0  0  0  0  0  0  0  0
  -30.6622  -18.0053   22.5357 C   0  0  0  0  0  0  0  0  0  0  0  0
  -23.6824  -26.5543   20.9958 C   0  0  0  0  0  0  0  0  0  0  0  0
  -26.2969  -12.7210   17.7799 C   0  0  0  0  0  0  0  0  0  0  0  0
  -20.6086  -25.7449   21.6432 C   0  0  0  0  0  0  0  0  0  0  0  0
  -18.3089  -23.2756   22.1537 C   0  0  0  0  0  0  0  0  0  0  0  0
  -24.6710  -31.5503   20.6483 C   0  0  0  0  0  0  0  0  0  0  0  0
  -23.1947  -24.9108   19.1473 C   0  0  0  0  0  0  0  0  0  0  0  0
  -22.3163  -23.8928   21.7811 C   0  0  0  0  0  0  0  0  0  0  0  0
  -23.7148  -30.6804   21.4604 C   0  0  0  0  0  0  0  0  0  0  0  0
  -29.8773  -12.7855   17.6520 C   0  0  0  0  0  0  0  0  0  0  0  0
  -24.4641  -29.5139   22.0966 C   0  0  0  0  0  0  0  0  0  0  0  0
  -30.2393  -14.0793   18.3801 C   0  0  0  0  0  0  0  0  0  0  0  0
  -28.5821  -12.9342   16.8599 C   0  0  0  0  0  0  0  0  0  0  0  0
  -27.7796  -14.6910   18.4062 C   0  0  0  0  0  0  0  0  0  0  0  0
  -25.0860  -28.6085   21.0266 C   0  0  1  0  0  0  0  0  0  0  0  0
  -22.6186  -25.8363   20.2145 C   0  0  1  0  0  0  0  0  0  0  0  0
  -29.0656  -14.5747   19.2435 C   0  0  2  0  0  0  0  0  0  0  0  0
  -26.2248  -10.3165   22.3277 C   0  0  0  0  0  0  0  0  0  0  0  0
  -21.6261  -15.9671   23.2969 C   0  0  0  0  0  0  0  0  0  0  0  0
  -25.6300  -17.2293   24.9658 C   0  0  0  0  0  0  0  0  0  0  0  0
  -23.8480  -13.0031   18.0940 C   0  0  0  0  0  0  0  0  0  0  0  0
  -15.8852  -22.9233   22.7004 C   0  0  0  0  0  0  0  0  0  0  0  0
  -21.1622  -26.4708   24.5547 C   0  0  0  0  0  0  0  0  0  0  0  0
  -19.0828  -25.2282   25.1872 C   0  0  0  0  0  0  0  0  0  0  0  0
  -18.9368  -27.2233   23.6969 C   0  0  0  0  0  0  0  0  0  0  0  0
  -17.8228  -21.8463   19.6081 C   0  0  0  0  0  0  0  0  0  0  0  0
  -24.5653  -14.8454   21.2586 C   0  0  0  0  0  0  0  0  0  0  0  0
  -22.5482  -16.9031   22.5200 C   0  0  0  0  0  0  0  0  0  0  0  0
  -24.2116  -17.2255   24.4037 C   0  0  0  0  0  0  0  0  0  0  0  0
  -24.6467  -15.4080   22.6863 C   0  0  0  0  0  0  0  0  0  0  0  0
  -24.8646  -17.8370   21.9756 C   0  0  0  0  0  0  0  0  0  0  0  0
  -24.5201  -19.3248   22.0708 C   0  0  0  0  0  0  0  0  0  1  0  0
  -25.2285  -13.2896   18.6795 C   0  0  1  0  0  0  0  0  0  0  0  0
  -19.9005  -25.0682   22.7920 C   0  0  1  0  0  0  0  0  0  0  0  0
  -16.9151  -23.0651   21.5904 C   0  0  2  0  0  0  0  0  0  0  0  0
  -19.7914  -25.9846   24.0433 C   0  0  0  0  0  0  0  0  0  0  0  0
  -24.0646  -16.8480   22.8926 C   0  0  0  0  0  0  0  0  0  0  0  0
  -29.0770  -17.0381   19.3630 N   0  0  0  0  0  0  0  0  0  0  0  0
  -25.3640  -12.6401   22.2057 N   0  0  0  0  0  0  0  0  0  0  0  0
  -25.8278  -11.5520   20.2477 N   0  0  0  0  0  0  0  0  0  0  0  0
  -29.3986  -15.8743   19.9530 N   0  0  0  0  0  0  0  0  0  0  0  0
  -25.3711  -12.7940   20.0260 N   0  0  0  0  0  0  0  0  0  0  0  0
  -21.7812  -25.1279   21.1847 N   0  0  0  0  0  0  0  0  0  0  0  0
  -27.4975  -13.4280   17.7101 N   0  0  0  0  0  0  0  0  0  0  0  0
  -30.3974  -14.9527   21.8930 N   0  0  0  0  0  0  0  0  0  0  0  0
  -32.0275  -18.3213   22.5174 N   0  0  0  0  0  0  0  0  0  0  0  0
  -24.0764  -27.7553   20.4374 N   0  0  0  0  0  0  0  0  0  0  0  0
  -18.6161  -24.6148   22.2697 N   0  0  0  0  0  0  0  0  0  0  0  0
  -16.8756  -21.8333   20.7525 N   0  3  0  0  0  0  0  0  0  0  0  0
  -29.9853  -18.2661   23.5591 O   0  0  0  0  0  0  0  0  0  0  0  0
  -24.1127  -26.0564   22.0295 O   0  0  0  0  0  0  0  0  0  0  0  0
  -26.0704  -11.6781   17.1609 O   0  0  0  0  0  0  0  0  0  0  0  0
  -20.1348  -26.7788   21.1655 O   0  0  0  0  0  0  0  0  0  0  0  0
  -19.0496  -22.3451   22.4636 O   0  0  0  0  0  0  0  0  0  0  0  0
  -28.8529  -23.3991   19.1642 O   0  0  0  0  0  0  0  0  0  0  0  0
  -25.3589  -20.0905   21.2202 O   0  0  0  0  0  0  0  0  0  1  0  0
  -29.4874  -26.9282   23.3531 F   0  0  0  0  0  0  0  0  0  0  0  0
  -26.7864  -25.0621   19.9432 F   0  0  0  0  0  0  0  0  0  0  0  0
  1  2  1  0  0  0  0
  1  5  2  0  0  0  0
  2  6  2  0  0  0  0
  3  8  2  0  0  0  0
  3 15  1  0  0  0  0
  4  9  1  0  0  0  0
  4 15  2  0  0  0  0
  5 17  1  0  0  0  0
  6 19  1  0  0  0  0
  7 10  2  0  0  0  0
  7 18  1  0  0  0  0
  8 21  1  0  0  0  0
  9 21  2  0  0  0  0
 10 22  1  0  0  0  0
 11 12  2  0  0  0  0
 11 23  1  0  0  0  0
 12 24  1  0  0  0  0
 13 20  1  0  0  0  0
 13 22  2  0  0  0  0
 14 24  2  0  0  0  0
 14 25  1  0  0  0  0
 15 26  1  0  0  0  0
 16 26  1  0  0  0  0
 16 27  2  0  0  0  0
 16 30  1  0  0  0  0
 17 19  2  0  0  0  0
 17 35  1  0  0  0  0
 18 20  2  0  0  0  0
 18 36  1  0  0  0  0
 19 44  1  0  0  0  0
 20 37  1  0  0  0  0
 21 84  1  0  0  0  0
 22 85  1  0  0  0  0
 23 25  2  0  0  0  0
 23 84  1  0  0  0  0
 24 86  1  0  0  0  0
 25 87  1  0  0  0  0
 26 67  2  0  0  0  0
 27 70  1  0  0  0  0
 27 74  1  0  0  0  0
 28 47  1  0  0  0  0
 28 68  1  0  0  0  0
 28 69  2  0  0  0  0
 29 56  1  0  0  0  0
 29 68  2  0  0  0  0
 29 71  1  0  0  0  0
 30 75  1  0  0  0  0
 30 79  2  0  0  0  0
 31 45  1  0  0  0  0
 31 76  1  0  0  0  0
 31 80  2  0  0  0  0
 32 62  1  0  0  0  0
 32 73  1  0  0  0  0
 32 81  2  0  0  0  0
 33 63  1  0  0  0  0
 33 72  1  0  0  0  0
 33 82  2  0  0  0  0
 34 64  1  0  0  0  0
 34 77  1  0  0  0  0
 34 83  2  0  0  0  0
 35 38  1  0  0  0  0
 36 45  1  0  0  0  0
 37 72  1  0  0  0  0
 38 40  1  0  0  0  0
 39 41  1  0  0  0  0
 39 42  1  0  0  0  0
 40 44  1  0  0  0  0
 41 46  1  0  0  0  0
 42 73  1  0  0  0  0
 43 46  1  0  0  0  0
 43 73  1  0  0  0  0
 44 76  1  0  0  0  0
 45 72  1  0  0  0  0
 46 70  1  0  0  0  0
 48 57  1  0  0  0  0
 49 58  1  0  0  0  0
 50 62  1  0  0  0  0
 51 64  1  0  0  0  0
 52 65  1  0  0  0  0
 53 65  1  0  0  0  0
 54 65  1  0  0  0  0
 55 78  1  0  0  0  0
 56 59  1  0  0  0  0
 57 66  1  0  0  0  0
 58 66  1  0  0  0  0
 59 66  1  0  0  0  0
 60 61  1  0  0  0  0
 60 66  1  0  0  0  0
 61 85  1  0  0  0  0
 62 71  1  0  0  0  0
 63 65  1  0  0  0  0
 63 77  1  0  0  0  0
 64 78  1  0  0  0  0
 67 70  1  0  0  0  0
 69 71  1  0  0  0  0
M  CHG  1  78   1
M  ISO  4  32 100  61 101  62 100  85 101
M  END
> <Batch ID>
0073

> <Smiles>
CCC(CC)(CCc1nc(C)nn1[100CH:0](C)[100C:0](=O)N1CCCC(n2nc(-c3ccc(Oc4ccc(F)cc4F)cc3)c(C(N)=O)c2N)C1)C[101CH2:1][101O:1]c1ccc2c(c1)CN(C(=O)C(NC(=O)C(C)NC)C(C)(C)C)C(C(=O)NC1CCCc3ccccc31)C2

> <Shape>
0.206

> <Color>
0.046

> <Negative vol penalty>
0.000

$$$$

  -OEChem-04052318273D

 83 91  0     1  0  0  0  0  0999 V2000
  -19.7654  -16.0622   23.7216 C   0  0  0  0  0  0  0  0  0  0  0  0
  -20.9071  -16.8559   23.6757 C   0  0  0  0  0  0  0  0  0  0  0  0
  -23.0000   -9.8933   20.0000 C   0  0  0  0  0  0  0  0  0  0  0  0
  -23.8185   -9.9309   22.2728 C   0  0  0  0  0  0  0  0  0  0  0  0
  -18.7784  -16.3171   24.6727 C   0  0  0  0  0  0  0  0  0  0  0  0
  -21.0618  -17.9057   24.5803 C   0  0  0  0  0  0  0  0  0  0  0  0
  -25.7122  -18.0797   26.5775 C   0  0  0  0  0  0  0  0  0  0  0  0
  -22.2589   -8.7467   20.2858 C   0  0  0  0  0  0  0  0  0  0  0  0
  -23.0774   -8.7843   22.5587 C   0  0  0  0  0  0  0  0  0  0  0  0
  -26.7248  -18.6213   25.7869 C   0  0  0  0  0  0  0  0  0  0  0  0
  -23.3428   -5.4535   22.0430 C   0  0  0  0  0  0  0  0  0  0  0  0
  -23.9731   -4.4365   22.7599 C   0  0  0  0  0  0  0  0  0  0  0  0
  -26.5344  -20.7076   26.9827 C   0  0  0  0  0  0  0  0  0  0  0  0
  -29.4914  -18.2460   21.0890 C   0  0  0  0  0  0  0  0  0  0  0  0
  -22.3166   -4.6414   24.5068 C   0  0  0  0  0  0  0  0  0  0  0  0
  -32.1820  -18.6908   21.1828 C   0  0  0  0  0  0  0  0  0  0  0  0
  -23.7799  -10.4854   20.9934 C   0  0  0  0  0  0  0  0  0  0  0  0
  -24.1270  -13.0072   20.8276 C   0  0  0  0  0  0  0  0  0  0  0  0
  -18.9255  -17.3645   25.5957 C   0  0  0  0  0  0  0  0  0  0  0  0
  -25.0945  -18.8528   27.5711 C   0  0  0  0  0  0  0  0  0  0  0  0
  -20.0752  -18.1757   25.5439 C   0  0  0  0  0  0  0  0  0  0  0  0
  -25.5160  -20.1727   27.7863 C   0  0  0  0  0  0  0  0  0  0  0  0
  -29.9622  -19.5316   21.3318 C   0  0  0  0  0  0  0  0  0  0  0  0
  -31.3317  -19.7667   21.3811 C   0  0  0  0  0  0  0  0  0  0  0  0
  -22.2976   -8.1922   21.5652 C   0  0  0  0  0  0  0  0  0  0  0  0
  -27.1341  -19.9363   25.9875 C   0  0  0  0  0  0  0  0  0  0  0  0
  -22.1994   -6.0645   22.5579 C   0  0  0  0  0  0  0  0  0  0  0  0
  -23.4600   -4.0304   23.9918 C   0  0  0  0  0  0  0  0  0  0  0  0
  -21.6864   -5.6584   23.7898 C   0  0  0  0  0  0  0  0  0  0  0  0
  -24.5461  -11.6695   20.6986 C   0  0  0  0  0  0  0  0  0  0  0  0
  -30.4241  -17.2382   20.9036 C   0  0  0  0  0  0  0  0  0  0  0  0
  -25.2119  -13.7472   20.4255 C   0  0  0  0  0  0  0  0  0  0  0  0
  -22.8694  -13.5338   21.2713 C   0  0  0  0  0  0  0  0  0  0  0  0
  -22.1327  -19.8802   28.0962 C   0  0  0  0  0  0  0  0  0  0  0  0
  -23.4090  -20.9321   30.8867 C   0  0  0  0  0  0  0  0  0  0  0  0
  -26.1840  -21.9052   32.6185 C   0  0  0  0  0  0  0  0  0  0  0  0
  -30.6843  -14.7749   20.4447 C   0  0  0  0  0  0  0  0  0  0  0  0
  -17.8100  -17.6312   26.5750 C   0  0  0  0  0  0  0  0  0  0  0  0
  -24.0221  -18.2454   28.4333 C   0  0  0  0  0  0  0  0  0  0  0  0
  -24.8989  -21.0382   28.8534 C   0  0  0  0  0  0  0  0  0  0  0  0
  -18.2230  -18.5280   27.7393 C   0  0  0  0  0  0  0  0  0  0  0  0
  -29.5014  -12.3309   18.1415 C   0  0  0  0  0  0  0  0  0  0  0  0
  -19.0000  -19.7384   27.2313 C   0  0  0  0  0  0  0  0  0  0  0  0
  -28.0723  -12.0510   18.6121 C   0  0  0  0  0  0  0  0  0  0  0  0
  -30.4478  -12.5738   19.3159 C   0  0  0  0  0  0  0  0  0  0  0  0
  -28.5794  -13.3255   20.7347 C   0  0  0  0  0  0  0  0  0  0  0  0
  -20.2908  -19.3082   26.5242 C   0  0  1  0  0  0  0  0  0  0  0  0
  -23.1084  -19.2865   29.0725 C   0  0  1  0  0  0  0  0  0  0  0  0
  -27.5760  -13.1387   19.5848 C   0  0  2  0  0  0  0  0  0  0  0  0
  -32.8125  -21.6146   20.5202 C   0  0  0  0  0  0  0  0  0  0  0  0
  -26.9069  -22.7458   34.8698 C   0  0  0  0  0  0  0  0  0  0  0  0
  -22.2935  -23.6908   30.2120 C   0  0  0  0  0  0  0  0  0  0  0  0
  -23.8163  -24.6548   31.9499 C   0  0  0  0  0  0  0  0  0  0  0  0
  -22.0477  -23.0240   32.6098 C   0  0  0  0  0  0  0  0  0  0  0  0
  -27.9368  -19.5616   33.0597 C   0  0  0  0  0  0  0  0  0  0  0  0
  -28.9736  -20.6515   21.5372 C   0  0  0  0  0  0  0  0  0  0  0  0
  -28.8134  -21.0710   23.0000 C   0  0  0  0  0  0  0  0  0  0  0  0
  -28.2474  -19.9675   23.8861 C   0  0  0  0  0  0  0  0  0  1  0  0
  -31.8895  -21.1237   21.6378 C   0  0  2  0  0  0  0  0  0  0  0  0
  -24.0774  -22.2063   31.3434 C   0  0  1  0  0  0  0  0  0  0  0  0
  -26.6997  -21.5203   33.9934 C   0  0  2  0  0  0  0  0  0  0  0  0
  -23.0692  -23.3786   31.5073 C   0  0  0  0  0  0  0  0  0  0  0  0
  -31.7620  -17.4281   20.9445 N   0  0  0  0  0  0  0  0  0  0  0  0
  -25.7994  -11.5628   20.2495 N   0  0  0  0  0  0  0  0  0  0  0  0
  -26.1772  -12.8430   20.0927 N   0  0  0  0  0  0  0  0  0  0  0  0
  -23.8498  -20.4009   29.6663 N   0  0  0  0  0  0  0  0  0  0  0  0
  -29.9150  -13.6194   20.1920 N   0  0  0  0  0  0  0  0  0  0  0  0
  -25.4249  -15.0767   20.3275 N   0  0  0  0  0  0  0  0  0  0  0  0
  -21.8634  -12.6335   21.6477 N   0  0  0  0  0  0  0  0  0  0  0  0
  -29.9348  -15.9312   20.6584 N   0  0  0  0  0  0  0  0  0  0  0  0
  -21.3041  -18.9525   27.4943 N   0  0  0  0  0  0  0  0  0  0  0  0
  -24.8068  -21.8707   32.5615 N   0  0  0  0  0  0  0  0  0  0  0  0
  -27.9996  -20.8010   33.8764 N   0  3  0  0  0  0  0  0  0  0  0  0
  -22.6388  -14.7660   21.3165 O   0  0  0  0  0  0  0  0  0  0  0  0
  -22.1307  -21.0905   27.9043 O   0  0  0  0  0  0  0  0  0  0  0  0
  -22.5332  -20.4229   31.5904 O   0  0  0  0  0  0  0  0  0  0  0  0
  -26.9284  -22.2097   31.6892 O   0  0  0  0  0  0  0  0  0  0  0  0
  -31.9176  -14.7466   20.4428 O   0  0  0  0  0  0  0  0  0  0  0  0
  -32.6405  -21.1000   22.8578 O   0  0  0  0  0  0  0  0  0  0  0  0
  -21.5744   -7.0735   21.8445 O   0  0  0  0  0  0  0  0  0  0  0  0
  -28.1218  -20.4676   25.2167 O   0  0  0  0  0  0  0  0  0  1  0  0
  -24.0645   -3.0527   24.6795 F   0  0  0  0  0  0  0  0  0  0  0  0
  -20.5876   -6.2409   24.2890 F   0  0  0  0  0  0  0  0  0  0  0  0
  1  2  1  0  0  0  0
  1  5  2  0  0  0  0
  2  6  2  0  0  0  0
  3  8  2  0  0  0  0
  3 17  1  0  0  0  0
  4  9  1  0  0  0  0
  4 17  2  0  0  0  0
  5 19  1  0  0  0  0
  6 21  1  0  0  0  0
  7 10  2  0  0  0  0
  7 20  1  0  0  0  0
  8 25  1  0  0  0  0
  9 25  2  0  0  0  0
 10 26  1  0  0  0  0
 11 12  2  0  0  0  0
 11 27  1  0  0  0  0
 12 28  1  0  0  0  0
 13 22  1  0  0  0  0
 13 26  2  0  0  0  0
 14 23  1  0  0  0  0
 14 31  2  0  0  0  0
 15 28  2  0  0  0  0
 15 29  1  0  0  0  0
 16 24  1  0  0  0  0
 16 63  2  0  0  0  0
 17 30  1  0  0  0  0
 18 30  1  0  0  0  0
 18 32  2  0  0  0  0
 18 33  1  0  0  0  0
 19 21  2  0  0  0  0
 19 38  1  0  0  0  0
 20 22  2  0  0  0  0
 20 39  1  0  0  0  0
 21 47  1  0  0  0  0
 22 40  1  0  0  0  0
 23 24  2  0  0  0  0
 23 56  1  0  0  0  0
 24 59  1  0  0  0  0
 25 80  1  0  0  0  0
 26 81  1  0  0  0  0
 27 29  2  0  0  0  0
 27 80  1  0  0  0  0
 28 82  1  0  0  0  0
 29 83  1  0  0  0  0
 30 64  2  0  0  0  0
 31 63  1  0  0  0  0
 31 70  1  0  0  0  0
 32 65  1  0  0  0  0
 32 68  1  0  0  0  0
 33 69  1  0  0  0  0
 33 74  2  0  0  0  0
 34 48  1  0  0  0  0
 34 71  1  0  0  0  0
 34 75  2  0  0  0  0
 35 60  1  0  0  0  0
 35 66  1  0  0  0  0
 35 76  2  0  0  0  0
 36 61  1  0  0  0  0
 36 72  1  0  0  0  0
 36 77  2  0  0  0  0
 37 67  1  0  0  0  0
 37 70  1  0  0  0  0
 37 78  2  0  0  0  0
 38 41  1  0  0  0  0
 39 48  1  0  0  0  0
 40 66  1  0  0  0  0
 41 43  1  0  0  0  0
 42 44  1  0  0  0  0
 42 45  1  0  0  0  0
 43 47  1  0  0  0  0
 44 49  1  0  0  0  0
 45 67  1  0  0  0  0
 46 49  1  0  0  0  0
 46 67  1  0  0  0  0
 47 71  1  0  0  0  0
 48 66  1  0  0  0  0
 49 65  1  0  0  0  0
 50 59  1  0  0  0  0
 51 61  1  0  0  0  0
 52 62  1  0  0  0  0
 53 62  1  0  0  0  0
 54 62  1  0  0  0  0
 55 73  1  0  0  0  0
 56 57  1  0  0  0  0
 57 58  1  0  0  0  0
 58 81  1  0  0  0  0
 59 79  1  0  0  0  0
 60 62  1  0  0  0  0
 60 72  1  0  0  0  0
 61 73  1  0  0  0  0
 64 65  1  0  0  0  0
M  CHG  1  73   1
M  ISO  4  37 100  58 101  70 100  81 101
M  END
> <Batch ID>
0073

> <Smiles>
CNC(C)C(=O)NC(C(=O)N1Cc2cc([101O:1][101CH2:1]CCc3cc([100NH:0][100C:0](=O)N4CCCC(n5nc(-c6ccc(Oc7ccc(F)cc7F)cc6)c(C(N)=O)c5N)C4)ncc3C(C)O)ccc2CC1C(=O)NC1CCCc2ccccc21)C(C)(C)C

> <Shape>
0.184

> <Color>
0.188

> <Negative vol penalty>
0.000

$$$$

  -OEChem-04052318273D

 86 94  0     1  0  0  0  0  0999 V2000
  -18.6111  -12.5147   19.9687 C   0  0  0  0  0  0  0  0  0  0  0  0
  -19.2683  -13.4790   19.2114 C   0  0  0  0  0  0  0  0  0  0  0  0
  -21.5713  -28.4872   20.8235 C   0  0  0  0  0  0  0  0  0  0  0  0
  -22.2716  -28.6888   23.1270 C   0  0  0  0  0  0  0  0  0  0  0  0
  -19.1808  -12.0541   21.1550 C   0  0  0  0  0  0  0  0  0  0  0  0
  -20.4951  -13.9842   19.6405 C   0  0  0  0  0  0  0  0  0  0  0  0
  -26.7086  -16.4728   17.0879 C   0  0  0  0  0  0  0  0  0  0  0  0
  -20.4244  -27.8064   21.2317 C   0  0  0  0  0  0  0  0  0  0  0  0
  -21.1246  -28.0080   23.5353 C   0  0  0  0  0  0  0  0  0  0  0  0
  -27.5555  -17.5745   17.2009 C   0  0  0  0  0  0  0  0  0  0  0  0
  -17.4079  -28.5760   22.5513 C   0  0  0  0  0  0  0  0  0  0  0  0
  -16.1937  -28.9469   21.9736 C   0  0  0  0  0  0  0  0  0  0  0  0
  -28.4820  -16.6469   19.2259 C   0  0  0  0  0  0  0  0  0  0  0  0
  -15.9168  -26.7051   21.1162 C   0  0  0  0  0  0  0  0  0  0  0  0
  -22.4949  -28.9284   21.7712 C   0  0  0  0  0  0  0  0  0  0  0  0
  -23.8302  -31.0209   21.1830 C   0  0  0  0  0  0  0  0  0  0  0  0
  -20.4199  -12.5469   21.5939 C   0  0  0  0  0  0  0  0  0  0  0  0
  -26.7344  -15.4535   18.0505 C   0  0  0  0  0  0  0  0  0  0  0  0
  -21.0813  -13.5308   20.8344 C   0  0  0  0  0  0  0  0  0  0  0  0
  -27.6362  -15.5321   19.1214 C   0  0  0  0  0  0  0  0  0  0  0  0
  -20.2010  -27.5668   22.5876 C   0  0  0  0  0  0  0  0  0  0  0  0
  -28.4404  -17.6631   18.2716 C   0  0  0  0  0  0  0  0  0  0  0  0
  -17.8766  -27.2696   22.4115 C   0  0  0  0  0  0  0  0  0  0  0  0
  -15.4482  -28.0115   21.2561 C   0  0  0  0  0  0  0  0  0  0  0  0
  -17.1310  -26.3342   21.6940 C   0  0  0  0  0  0  0  0  0  0  0  0
  -23.6802  -29.6312   21.3500 C   0  0  0  0  0  0  0  0  0  0  0  0
  -30.5504  -24.4205   18.5781 C   0  0  0  0  0  0  0  0  0  0  0  0
  -29.5100  -23.6330   19.0195 C   0  0  0  0  0  0  0  0  0  0  0  0
  -29.4138  -24.8454   20.9561 C   0  0  0  0  0  0  0  0  0  0  0  0
  -30.4547  -25.6324   20.5151 C   0  0  0  0  0  0  0  0  0  0  0  0
  -25.1319  -31.1791   20.7744 C   0  0  0  0  0  0  0  0  0  0  0  0
  -22.8780  -32.0747   21.3798 C   0  0  0  0  0  0  0  0  0  0  0  0
  -24.6306  -14.2647   20.1156 C   0  0  0  0  0  0  0  0  0  0  0  0
  -26.9776  -12.0923   20.6584 C   0  0  0  0  0  0  0  0  0  0  0  0
  -29.9232  -27.7765   21.6349 C   0  0  0  0  0  0  0  0  0  0  0  0
  -30.3031  -11.3328   20.5534 C   0  0  0  0  0  0  0  0  0  0  0  0
  -20.9735  -12.0531   22.9071 C   0  0  0  0  0  0  0  0  0  0  0  0
  -25.8332  -14.2587   17.8998 C   0  0  0  0  0  0  0  0  0  0  0  0
  -27.7172  -14.4546   20.1706 C   0  0  0  0  0  0  0  0  0  0  0  0
  -22.4550  -12.3664   23.0998 C   0  0  0  0  0  0  0  0  0  0  0  0
  -28.6308  -28.9203   18.4336 C   0  0  0  0  0  0  0  0  0  0  0  0
  -22.7465  -13.8172   22.7294 C   0  0  0  0  0  0  0  0  0  0  0  0
  -27.2084  -29.3341   18.8085 C   0  0  0  0  0  0  0  0  0  0  0  0
  -29.0911  -27.7047   19.2340 C   0  0  0  0  0  0  0  0  0  0  0  0
  -27.5665  -28.2975   21.0911 C   0  0  0  0  0  0  0  0  0  0  0  0
  -22.4255  -14.0850   21.2540 C   0  0  1  0  0  0  0  0  0  0  0  0
  -25.5831  -13.5291   19.2160 C   0  0  1  0  0  0  0  0  0  0  0  0
  -27.0755  -29.5389   20.3277 C   0  0  2  0  0  0  0  0  0  0  0  0
  -32.5045  -24.9532   17.1001 C   0  0  0  0  0  0  0  0  0  0  0  0
  -27.2885  -24.7190   22.2803 C   0  0  0  0  0  0  0  0  0  0  0  0
  -31.9220   -9.4944   21.0983 C   0  0  0  0  0  0  0  0  0  0  0  0
  -32.1464  -27.4822   20.6109 C   0  0  0  0  0  0  0  0  0  0  0  0
  -31.5230  -26.3629   22.7539 C   0  0  0  0  0  0  0  0  0  0  0  0
  -26.7525  -12.7761   23.6235 C   0  0  0  0  0  0  0  0  0  0  0  0
  -28.9673  -11.6636   23.9769 C   0  0  0  0  0  0  0  0  0  0  0  0
  -27.0290  -10.3395   23.1329 C   0  0  0  0  0  0  0  0  0  0  0  0
  -31.1676  -11.1002   17.7325 C   0  0  0  0  0  0  0  0  0  0  0  0
  -31.1901  -24.1912   17.2515 C   0  0  0  0  0  0  0  0  0  0  0  0
  -28.7731  -25.0754   22.2821 C   0  0  0  0  0  0  0  0  0  0  0  0
  -28.9694  -22.5018   18.1818 C   0  0  0  0  0  0  0  0  0  0  0  0
  -29.4189  -21.1170   18.6531 C   0  0  0  0  0  0  0  0  0  0  0  0
  -28.7994  -19.9766   17.8537 C   0  0  0  0  0  0  0  0  0  1  0  0
  -28.1555  -12.0034   21.5985 C   0  0  1  0  0  0  0  0  0  0  0  0
  -31.0424  -10.1168   20.0251 C   0  0  2  0  0  0  0  0  0  0  0  0
  -30.9891  -26.7504   21.3435 C   0  0  0  0  0  0  0  0  0  0  0  0
  -27.7234  -11.7171   23.0644 C   0  0  0  0  0  0  0  0  0  0  0  0
  -24.7973  -28.9547   21.0702 N   0  0  0  0  0  0  0  0  0  0  0  0
  -28.9229  -23.8313   20.2163 N   0  0  0  0  0  0  0  0  0  0  0  0
  -31.0415  -25.4343   19.3181 N   0  0  0  0  0  0  0  0  0  0  0  0
  -25.6617  -29.9234   20.7231 N   0  0  0  0  0  0  0  0  0  0  0  0
  -26.8112  -13.3095   19.9827 N   0  0  0  0  0  0  0  0  0  0  0  0
  -28.9227  -27.9293   20.6747 N   0  0  0  0  0  0  0  0  0  0  0  0
  -25.8635  -32.2685   20.4574 N   0  0  0  0  0  0  0  0  0  0  0  0
  -21.5850  -31.7366   21.8017 N   0  0  0  0  0  0  0  0  0  0  0  0
  -23.4756  -13.5637   20.4056 N   0  0  0  0  0  0  0  0  0  0  0  0
  -29.0537  -11.0020   21.0339 N   0  0  0  0  0  0  0  0  0  0  0  0
  -31.9061  -10.4964   18.8714 N   0  3  0  0  0  0  0  0  0  0  0  0
  -23.1606  -33.2789   21.1714 O   0  0  0  0  0  0  0  0  0  0  0  0
  -24.9226  -15.3847   20.5181 O   0  0  0  0  0  0  0  0  0  0  0  0
  -26.2368  -11.1153   20.5231 O   0  0  0  0  0  0  0  0  0  0  0  0
  -29.9813  -28.4236   22.6837 O   0  0  0  0  0  0  0  0  0  0  0  0
  -30.7872  -12.4625   20.5445 O   0  0  0  0  0  0  0  0  0  0  0  0
  -19.0818  -26.9027   22.9863 O   0  0  0  0  0  0  0  0  0  0  0  0
  -29.2677  -18.7377   18.3847 O   0  0  0  0  0  0  0  0  0  1  0  0
  -14.2815  -28.3674   20.7026 F   0  0  0  0  0  0  0  0  0  0  0  0
  -17.5756  -25.0775   21.5572 F   0  0  0  0  0  0  0  0  0  0  0  0
  1  2  1  0  0  0  0
  1  5  2  0  0  0  0
  2  6  2  0  0  0  0
  3  8  2  0  0  0  0
  3 15  1  0  0  0  0
  4  9  1  0  0  0  0
  4 15  2  0  0  0  0
  5 17  1  0  0  0  0
  6 19  1  0  0  0  0
  7 10  2  0  0  0  0
  7 18  1  0  0  0  0
  8 21  1  0  0  0  0
  9 21  2  0  0  0  0
 10 22  1  0  0  0  0
 11 12  2  0  0  0  0
 11 23  1  0  0  0  0
 12 24  1  0  0  0  0
 13 20  1  0  0  0  0
 13 22  2  0  0  0  0
 14 24  2  0  0  0  0
 14 25  1  0  0  0  0
 15 26  1  0  0  0  0
 16 26  1  0  0  0  0
 16 31  2  0  0  0  0
 16 32  1  0  0  0  0
 17 19  2  0  0  0  0
 17 37  1  0  0  0  0
 18 20  2  0  0  0  0
 18 38  1  0  0  0  0
 19 46  1  0  0  0  0
 20 39  1  0  0  0  0
 21 83  1  0  0  0  0
 22 84  1  0  0  0  0
 23 25  2  0  0  0  0
 23 83  1  0  0  0  0
 24 85  1  0  0  0  0
 25 86  1  0  0  0  0
 26 67  2  0  0  0  0
 27 28  2  0  0  0  0
 27 58  1  0  0  0  0
 27 69  1  0  0  0  0
 28 60  1  0  0  0  0
 28 68  1  0  0  0  0
 29 30  1  0  0  0  0
 29 59  1  0  0  0  0
 29 68  2  0  0  0  0
 30 65  1  0  0  0  0
 30 69  2  0  0  0  0
 31 70  1  0  0  0  0
 31 73  1  0  0  0  0
 32 74  1  0  0  0  0
 32 78  2  0  0  0  0
 33 47  1  0  0  0  0
 33 75  1  0  0  0  0
 33 79  2  0  0  0  0
 34 63  1  0  0  0  0
 34 71  1  0  0  0  0
 34 80  2  0  0  0  0
 35 65  1  0  0  0  0
 35 72  1  0  0  0  0
 35 81  2  0  0  0  0
 36 64  1  0  0  0  0
 36 76  1  0  0  0  0
 36 82  2  0  0  0  0
 37 40  1  0  0  0  0
 38 47  1  0  0  0  0
 39 71  1  0  0  0  0
 40 42  1  0  0  0  0
 41 43  1  0  0  0  0
 41 44  1  0  0  0  0
 42 46  1  0  0  0  0
 43 48  1  0  0  0  0
 44 72  1  0  0  0  0
 45 48  1  0  0  0  0
 45 72  1  0  0  0  0
 46 75  1  0  0  0  0
 47 71  1  0  0  0  0
 48 70  1  0  0  0  0
 49 58  1  0  0  0  0
 50 59  1  0  0  0  0
 51 64  1  0  0  0  0
 52 65  1  0  0  0  0
 53 65  1  0  0  0  0
 54 66  1  0  0  0  0
 55 66  1  0  0  0  0
 56 66  1  0  0  0  0
 57 77  1  0  0  0  0
 60 61  1  0  0  0  0
 61 62  1  0  0  0  0
 62 84  1  0  0  0  0
 63 66  1  0  0  0  0
 63 76  1  0  0  0  0
 64 77  1  0  0  0  0
 67 70  1  0  0  0  0
M  CHG  1  77   1
M  ISO  4  35 100  62 101  65 100  84 101
M  END
> <Batch ID>
0073

> <Smiles>
CCc1nc([100C:0](C)(C)[100C:0](=O)N2CCCC(n3nc(-c4ccc(Oc5ccc(F)cc5F)cc4)c(C(N)=O)c3N)C2)c(CC)nc1CC[101CH2:1][101O:1]c1ccc2c(c1)CN(C(=O)C(NC(=O)C(C)NC)C(C)(C)C)C(C(=O)NC1CCCc3ccccc31)C2

> <Shape>
0.286

> <Color>
0.063

> <Negative vol penalty>
0.000

$$$$

  -OEChem-04052318273D

 85 93  0     1  0  0  0  0  0999 V2000
  -29.1487   -9.8302   22.0410 C   0  0  0  0  0  0  0  0  0  0  0  0
  -28.5893  -10.8188   22.8441 C   0  0  0  0  0  0  0  0  0  0  0  0
  -29.0126  -26.2228   21.2272 C   0  0  0  0  0  0  0  0  0  0  0  0
  -27.0215  -24.8877   20.9266 C   0  0  0  0  0  0  0  0  0  0  0  0
  -29.4381  -10.1006   20.7042 C   0  0  0  0  0  0  0  0  0  0  0  0
  -28.3199  -12.0789   22.3112 C   0  0  0  0  0  0  0  0  0  0  0  0
  -23.6762  -17.5039   22.8780 C   0  0  0  0  0  0  0  0  0  0  0  0
  -29.6750  -25.1155   21.7570 C   0  0  0  0  0  0  0  0  0  0  0  0
  -27.6840  -23.7804   21.4564 C   0  0  0  0  0  0  0  0  0  0  0  0
  -23.6511  -18.8846   23.0701 C   0  0  0  0  0  0  0  0  0  0  0  0
  -28.9631  -20.5094   22.3957 C   0  0  0  0  0  0  0  0  0  0  0  0
  -28.8206  -19.2897   21.7342 C   0  0  0  0  0  0  0  0  0  0  0  0
  -24.1196  -19.2132   20.7267 C   0  0  0  0  0  0  0  0  0  0  0  0
  -29.7829  -20.2583   19.7410 C   0  0  0  0  0  0  0  0  0  0  0  0
  -18.6528  -25.6554   23.0317 C   0  0  0  0  0  0  0  0  0  0  0  0
  -27.6858  -26.1089   20.8120 C   0  0  0  0  0  0  0  0  0  0  0  0
  -26.9428  -27.6427   18.9138 C   0  0  0  0  0  0  0  0  0  0  0  0
  -29.1632  -11.3616   20.1520 C   0  0  0  0  0  0  0  0  0  0  0  0
  -23.9344  -16.9666   21.6087 C   0  0  0  0  0  0  0  0  0  0  0  0
  -28.6072  -12.3669   20.9661 C   0  0  0  0  0  0  0  0  0  0  0  0
  -24.1449  -17.8254   20.5205 C   0  0  0  0  0  0  0  0  0  0  0  0
  -29.0108  -23.8944   21.8716 C   0  0  0  0  0  0  0  0  0  0  0  0
  -23.8757  -19.7394   21.9950 C   0  0  0  0  0  0  0  0  0  0  0  0
  -29.5155  -21.6036   21.7299 C   0  0  0  0  0  0  0  0  0  0  0  0
  -29.2305  -19.1642   20.4069 C   0  0  0  0  0  0  0  0  0  0  0  0
  -29.9254  -21.4781   20.4025 C   0  0  0  0  0  0  0  0  0  0  0  0
  -27.0007  -27.2525   20.2652 C   0  0  0  0  0  0  0  0  0  0  0  0
  -17.9716  -26.7368   23.5524 C   0  0  0  0  0  0  0  0  0  0  0  0
  -19.7606  -25.9596   22.2672 C   0  0  0  0  0  0  0  0  0  0  0  0
  -26.1767  -28.7827   18.9182 C   0  0  0  0  0  0  0  0  0  0  0  0
  -19.4322  -28.1861   22.5865 C   0  0  0  0  0  0  0  0  0  0  0  0
  -27.5291  -27.0295   17.7580 C   0  0  0  0  0  0  0  0  0  0  0  0
  -26.2013  -15.1090   20.3781 C   0  0  0  0  0  0  0  0  0  0  0  0
  -24.2985  -15.1907   17.7524 C   0  0  0  0  0  0  0  0  0  0  0  0
  -21.8841  -16.8197   15.9735 C   0  0  0  0  0  0  0  0  0  0  0  0
  -21.9767  -30.8587   22.6466 C   0  0  0  0  0  0  0  0  0  0  0  0
  -29.5372  -11.6217   18.7143 C   0  0  0  0  0  0  0  0  0  0  0  0
  -23.9316  -15.4753   21.4126 C   0  0  0  0  0  0  0  0  0  0  0  0
  -24.4064  -17.2991   19.1338 C   0  0  0  0  0  0  0  0  0  0  0  0
  -28.8748  -12.8659   18.1281 C   0  0  0  0  0  0  0  0  0  0  0  0
  -24.9968  -32.4906   21.7020 C   0  0  0  0  0  0  0  0  0  0  0  0
  -28.9929  -14.0395   19.0954 C   0  0  0  0  0  0  0  0  0  0  0  0
  -25.8476  -31.3684   21.1048 C   0  0  0  0  0  0  0  0  0  0  0  0
  -24.1630  -31.9991   22.8832 C   0  0  0  0  0  0  0  0  0  0  0  0
  -24.1752  -29.6969   22.0035 C   0  0  0  0  0  0  0  0  0  0  0  0
  -28.2775  -13.7384   20.4180 C   0  0  1  0  0  0  0  0  0  0  0  0
  -24.7139  -15.0332   20.1797 C   0  0  1  0  0  0  0  0  0  0  0  0
  -24.9916  -30.1310   20.7742 C   0  0  2  0  0  0  0  0  0  0  0  0
  -16.7604  -26.5074   24.3926 C   0  0  0  0  0  0  0  0  0  0  0  0
  -19.2180  -30.2040   21.0886 C   0  0  0  0  0  0  0  0  0  0  0  0
  -20.5594  -16.6622   13.8481 C   0  0  0  0  0  0  0  0  0  0  0  0
  -26.7390  -16.1061   16.1662 C   0  0  0  0  0  0  0  0  0  0  0  0
  -25.1911  -16.8324   14.3373 C   0  0  0  0  0  0  0  0  0  0  0  0
  -25.3020  -14.4283   14.9937 C   0  0  0  0  0  0  0  0  0  0  0  0
  -19.3202  -16.6819   17.4453 C   0  0  0  0  0  0  0  0  0  0  0  0
  -22.7878  -23.1702   21.5806 C   0  0  0  0  0  0  0  0  0  0  0  0
  -22.3065  -24.0486   20.4311 C   0  0  0  0  0  0  0  0  0  0  0  0
  -23.4344  -21.8875   21.0748 C   0  0  0  0  0  0  0  0  0  1  0  0
  -21.6217  -25.3106   20.9365 C   0  0  0  0  0  0  0  0  0  0  0  0
  -19.8651  -29.5914   22.3393 C   0  0  2  0  0  0  0  0  0  0  0  0
  -24.1847  -16.0856   16.5419 C   0  0  1  0  0  0  0  0  0  0  0  0
  -20.6007  -16.3258   15.3306 C   0  0  2  0  0  0  0  0  0  0  0  0
  -25.3512  -15.8733   15.5362 C   0  0  0  0  0  0  0  0  0  0  0  0
  -26.3253  -28.0776   21.0696 N   0  0  0  0  0  0  0  0  0  0  0  0
  -18.3348  -28.0201   23.3491 N   0  0  0  0  0  0  0  0  0  0  0  0
  -20.1803  -27.2183   22.0230 N   0  0  0  0  0  0  0  0  0  0  0  0
  -25.8359  -28.9978   20.2211 N   0  0  0  0  0  0  0  0  0  0  0  0
  -24.3999  -15.8335   18.9943 N   0  0  0  0  0  0  0  0  0  0  0  0
  -23.3736  -30.8251   22.5029 N   0  0  0  0  0  0  0  0  0  0  0  0
  -25.7682  -29.6121   17.9345 N   0  0  0  0  0  0  0  0  0  0  0  0
  -28.2860  -25.8628   17.9321 N   0  0  0  0  0  0  0  0  0  0  0  0
  -26.8467  -13.8924   20.2651 N   0  0  0  0  0  0  0  0  0  0  0  0
  -22.8600  -15.8456   15.9799 N   0  0  0  0  0  0  0  0  0  0  0  0
  -21.3041  -29.7069   22.2570 N   0  0  0  0  0  0  0  0  0  0  0  0
  -19.4183  -16.9511   15.9876 N   0  3  0  0  0  0  0  0  0  0  0  0
  -27.3996  -27.5113   16.6071 O   0  0  0  0  0  0  0  0  0  0  0  0
  -26.7250  -16.1914   20.6147 O   0  0  0  0  0  0  0  0  0  0  0  0
  -24.2902  -13.9664   17.6021 O   0  0  0  0  0  0  0  0  0  0  0  0
  -22.0097  -17.9572   16.4217 O   0  0  0  0  0  0  0  0  0  0  0  0
  -21.3732  -31.8441   23.0843 O   0  0  0  0  0  0  0  0  0  0  0  0
  -29.6570  -22.8136   22.3883 O   0  0  0  0  0  0  0  0  0  0  0  0
  -23.8524  -21.0874   22.1800 O   0  0  0  0  0  0  0  0  0  1  0  0
  -20.4915  -24.9404   21.7141 O   0  0  0  0  0  0  0  0  0  0  0  0
  -29.0950  -17.9924   19.7722 F   0  0  0  0  0  0  0  0  0  0  0  0
  -30.4578  -22.5254   19.7580 F   0  0  0  0  0  0  0  0  0  0  0  0
  1  2  1  0  0  0  0
  1  5  2  0  0  0  0
  2  6  2  0  0  0  0
  3  8  2  0  0  0  0
  3 16  1  0  0  0  0
  4  9  1  0  0  0  0
  4 16  2  0  0  0  0
  5 18  1  0  0  0  0
  6 20  1  0  0  0  0
  7 10  2  0  0  0  0
  7 19  1  0  0  0  0
  8 22  1  0  0  0  0
  9 22  2  0  0  0  0
 10 23  1  0  0  0  0
 11 12  2  0  0  0  0
 11 24  1  0  0  0  0
 12 25  1  0  0  0  0
 13 21  1  0  0  0  0
 13 23  2  0  0  0  0
 14 25  2  0  0  0  0
 14 26  1  0  0  0  0
 15 28  2  0  0  0  0
 15 29  1  0  0  0  0
 16 27  1  0  0  0  0
 17 27  1  0  0  0  0
 17 30  2  0  0  0  0
 17 32  1  0  0  0  0
 18 20  2  0  0  0  0
 18 37  1  0  0  0  0
 19 21  2  0  0  0  0
 19 38  1  0  0  0  0
 20 46  1  0  0  0  0
 21 39  1  0  0  0  0
 22 81  1  0  0  0  0
 23 82  1  0  0  0  0
 24 26  2  0  0  0  0
 24 81  1  0  0  0  0
 25 84  1  0  0  0  0
 26 85  1  0  0  0  0
 27 64  2  0  0  0  0
 28 49  1  0  0  0  0
 28 65  1  0  0  0  0
 29 66  2  0  0  0  0
 29 83  1  0  0  0  0
 30 67  1  0  0  0  0
 30 70  1  0  0  0  0
 31 60  1  0  0  0  0
 31 65  2  0  0  0  0
 31 66  1  0  0  0  0
 32 71  1  0  0  0  0
 32 76  2  0  0  0  0
 33 47  1  0  0  0  0
 33 72  1  0  0  0  0
 33 77  2  0  0  0  0
 34 61  1  0  0  0  0
 34 68  1  0  0  0  0
 34 78  2  0  0  0  0
 35 62  1  0  0  0  0
 35 73  1  0  0  0  0
 35 79  2  0  0  0  0
 36 69  1  0  0  0  0
 36 74  1  0  0  0  0
 36 80  2  0  0  0  0
 37 40  1  0  0  0  0
 38 47  1  0  0  0  0
 39 68  1  0  0  0  0
 40 42  1  0  0  0  0
 41 43  1  0  0  0  0
 41 44  1  0  0  0  0
 42 46  1  0  0  0  0
 43 48  1  0  0  0  0
 44 69  1  0  0  0  0
 45 48  1  0  0  0  0
 45 69  1  0  0  0  0
 46 72  1  0  0  0  0
 47 68  1  0  0  0  0
 48 67  1  0  0  0  0
 50 60  1  0  0  0  0
 51 62  1  0  0  0  0
 52 63  1  0  0  0  0
 53 63  1  0  0  0  0
 54 63  1  0  0  0  0
 55 75  1  0  0  0  0
 56 57  1  0  0  0  0
 56 58  1  0  0  0  0
 57 59  1  0  0  0  0
 58 82  1  0  0  0  0
 59 83  1  0  0  0  0
 60 74  1  0  0  0  0
 61 63  1  0  0  0  0
 61 73  1  0  0  0  0
 62 75  1  0  0  0  0
 64 67  1  0  0  0  0
M  CHG  1  75   1
M  ISO  4  36 100  58 101  74 100  82 101
M  END
> <Batch ID>
0073

> <Smiles>
CNC(C)C(=O)NC(C(=O)N1Cc2cc([101O:1][101CH2:1]CCCOc3cc(C)nc(C(C)[100NH:0][100C:0](=O)N4CCCC(n5nc(-c6ccc(Oc7ccc(F)cc7F)cc6)c(C(N)=O)c5N)C4)n3)ccc2CC1C(=O)NC1CCCc2ccccc21)C(C)(C)C

> <Shape>
0.228

> <Color>
0.065

> <Negative vol penalty>
0.000

$$$$

  -OEChem-04052318273D

 84 92  0     1  0  0  0  0  0999 V2000
  -18.2273  -29.0232   26.2925 C   0  0  0  0  0  0  0  0  0  0  0  0
  -19.5839  -28.7279   26.3817 C   0  0  0  0  0  0  0  0  0  0  0  0
  -28.5575  -14.0564   20.4853 C   0  0  0  0  0  0  0  0  0  0  0  0
  -26.4298  -15.1365   20.1065 C   0  0  0  0  0  0  0  0  0  0  0  0
  -17.5844  -28.9751   25.0562 C   0  0  0  0  0  0  0  0  0  0  0  0
  -20.2981  -28.3832   25.2347 C   0  0  0  0  0  0  0  0  0  0  0  0
  -26.8212  -28.9709   22.3328 C   0  0  0  0  0  0  0  0  0  0  0  0
  -27.9113  -12.8264   20.6083 C   0  0  0  0  0  0  0  0  0  0  0  0
  -25.7836  -13.9065   20.2294 C   0  0  0  0  0  0  0  0  0  0  0  0
  -27.8184  -28.1853   21.7565 C   0  0  0  0  0  0  0  0  0  0  0  0
  -24.8015  -11.8465   22.7240 C   0  0  0  0  0  0  0  0  0  0  0  0
  -23.6467  -11.7963   23.5047 C   0  0  0  0  0  0  0  0  0  0  0  0
  -26.6207  -28.2117   19.6627 C   0  0  0  0  0  0  0  0  0  0  0  0
  -22.3807  -11.0565   21.5845 C   0  0  0  0  0  0  0  0  0  0  0  0
  -25.9294  -23.3539   21.3367 C   0  0  0  0  0  0  0  0  0  0  0  0
  -27.8168  -15.2115   20.2345 C   0  0  0  0  0  0  0  0  0  0  0  0
  -28.9885  -17.0640   18.9295 C   0  0  0  0  0  0  0  0  0  0  0  0
  -18.2933  -28.6391   23.8921 C   0  0  0  0  0  0  0  0  0  0  0  0
  -25.7089  -29.3744   21.5802 C   0  0  0  0  0  0  0  0  0  0  0  0
  -19.6638  -28.3293   23.9820 C   0  0  0  0  0  0  0  0  0  0  0  0
  -25.6120  -29.0046   20.2311 C   0  0  0  0  0  0  0  0  0  0  0  0
  -26.5243  -12.7514   20.4803 C   0  0  0  0  0  0  0  0  0  0  0  0
  -27.7168  -27.8032   20.4221 C   0  0  0  0  0  0  0  0  0  0  0  0
  -24.7459  -11.5018   21.3735 C   0  0  0  0  0  0  0  0  0  0  0  0
  -22.4364  -11.4013   22.9350 C   0  0  0  0  0  0  0  0  0  0  0  0
  -23.5356  -11.1068   20.8038 C   0  0  0  0  0  0  0  0  0  0  0  0
  -28.4837  -16.4824   20.1080 C   0  0  0  0  0  0  0  0  0  0  0  0
  -27.7270  -23.5561   20.2150 C   0  0  0  0  0  0  0  0  0  0  0  0
  -27.8901  -22.4176   20.9686 C   0  0  0  0  0  0  0  0  0  0  0  0
  -29.5224  -18.2613   19.3389 C   0  0  0  0  0  0  0  0  0  0  0  0
  -28.9758  -16.5663   17.5849 C   0  0  0  0  0  0  0  0  0  0  0  0
  -22.5735  -28.8898   21.7746 C   0  0  0  0  0  0  0  0  0  0  0  0
  -22.4868  -31.0147   19.3252 C   0  0  0  0  0  0  0  0  0  0  0  0
  -28.3591  -21.7603   24.0841 C   0  0  0  0  0  0  0  0  0  0  0  0
  -24.1094  -32.4884   16.7093 C   0  0  0  0  0  0  0  0  0  0  0  0
  -17.5448  -28.5541   22.5855 C   0  0  0  0  0  0  0  0  0  0  0  0
  -24.6551  -30.2440   22.2092 C   0  0  0  0  0  0  0  0  0  0  0  0
  -24.4482  -29.4286   19.3742 C   0  0  0  0  0  0  0  0  0  0  0  0
  -18.4562  -28.5451   21.3609 C   0  0  0  0  0  0  0  0  0  0  0  0
  -31.5232  -20.3788   23.1247 C   0  0  0  0  0  0  0  0  0  0  0  0
  -19.6094  -27.5668   21.5609 C   0  0  0  0  0  0  0  0  0  0  0  0
  -31.1467  -19.2573   22.1572 C   0  0  0  0  0  0  0  0  0  0  0  0
  -30.4937  -20.5220   24.2413 C   0  0  0  0  0  0  0  0  0  0  0  0
  -28.7158  -19.6005   22.7880 C   0  0  0  0  0  0  0  0  0  0  0  0
  -20.4783  -27.9752   22.7566 C   0  0  1  0  0  0  0  0  0  0  0  0
  -23.3111  -30.1679   21.4915 C   0  0  1  0  0  0  0  0  0  0  0  0
  -29.7138  -19.4423   21.6273 C   0  0  2  0  0  0  0  0  0  0  0  0
  -29.0045  -21.4589   21.0728 C   0  0  0  0  0  0  0  0  0  0  0  0
  -23.7673  -34.1591   14.8684 C   0  0  0  0  0  0  0  0  0  0  0  0
  -24.9036  -20.8893   22.5246 C   0  0  0  0  0  0  0  0  0  0  0  0
  -26.5678  -20.4120   25.0864 C   0  0  0  0  0  0  0  0  0  0  0  0
  -26.2744  -22.8588   24.6442 C   0  0  0  0  0  0  0  0  0  0  0  0
  -20.8633  -28.9573   17.7628 C   0  0  0  0  0  0  0  0  0  0  0  0
  -21.3661  -30.2473   15.6769 C   0  0  0  0  0  0  0  0  0  0  0  0
  -20.0684  -31.3160   17.5199 C   0  0  0  0  0  0  0  0  0  0  0  0
  -26.2519  -34.2458   17.7486 C   0  0  0  0  0  0  0  0  0  0  0  0
  -28.6890  -24.1779   19.2344 C   0  0  0  0  0  0  0  0  0  0  0  0
  -29.8427  -24.9329   19.8980 C   0  0  0  0  0  0  0  0  0  0  0  0
  -29.3862  -26.1351   20.7164 C   0  0  0  0  0  0  0  0  0  1  0  0
  -22.5464  -30.9142   17.8201 C   0  0  1  0  0  0  0  0  0  0  0  0
  -24.2419  -33.9434   16.2971 C   0  0  2  0  0  0  0  0  0  0  0  0
  -26.3948  -21.2638   22.6284 C   0  0  2  0  0  0  0  0  0  0  0  0
  -26.8663  -21.5475   24.0968 C   0  0  0  0  0  0  0  0  0  0  0  0
  -21.2322  -30.3489   17.2113 C   0  0  0  0  0  0  0  0  0  0  0  0
  -26.5045  -24.1344   20.4490 N   0  0  0  0  0  0  0  0  0  0  0  0
  -28.6796  -17.2473   21.1853 N   0  0  0  0  0  0  0  0  0  0  0  0
  -26.7306  -22.3013   21.6822 N   0  0  0  0  0  0  0  0  0  0  0  0
  -29.3135  -18.3217   20.6854 N   0  0  0  0  0  0  0  0  0  0  0  0
  -23.4404  -30.2730   20.0367 N   0  0  0  0  0  0  0  0  0  0  0  0
  -29.1429  -20.6730   23.6973 N   0  0  0  0  0  0  0  0  0  0  0  0
  -30.1457  -19.2579   18.6750 N   0  0  0  0  0  0  0  0  0  0  0  0
  -28.3868  -15.3184   17.3399 N   0  0  0  0  0  0  0  0  0  0  0  0
  -21.3523  -29.0707   22.3954 N   0  0  0  0  0  0  0  0  0  0  0  0
  -22.9060  -32.2427   17.3362 N   0  0  0  0  0  0  0  0  0  0  0  0
  -25.6633  -34.3811   16.3913 N   0  3  0  0  0  0  0  0  0  0  0  0
  -29.4866  -17.2019   16.6317 O   0  0  0  0  0  0  0  0  0  0  0  0
  -23.0745  -27.8190   21.4522 O   0  0  0  0  0  0  0  0  0  0  0  0
  -21.6304  -31.7307   19.8500 O   0  0  0  0  0  0  0  0  0  0  0  0
  -28.8130  -22.8615   24.4058 O   0  0  0  0  0  0  0  0  0  0  0  0
  -24.9841  -31.6525   16.4934 O   0  0  0  0  0  0  0  0  0  0  0  0
  -25.8935  -11.5513   20.5999 O   0  0  0  0  0  0  0  0  0  0  0  0
  -28.6884  -27.0358   19.8572 O   0  0  0  0  0  0  0  0  0  1  0  0
  -21.3278  -11.3517   23.6852 F   0  0  0  0  0  0  0  0  0  0  0  0
  -23.4762  -10.7733   19.5072 F   0  0  0  0  0  0  0  0  0  0  0  0
  1  2  1  0  0  0  0
  1  5  2  0  0  0  0
  2  6  2  0  0  0  0
  3  8  2  0  0  0  0
  3 16  1  0  0  0  0
  4  9  1  0  0  0  0
  4 16  2  0  0  0  0
  5 18  1  0  0  0  0
  6 20  1  0  0  0  0
  7 10  2  0  0  0  0
  7 19  1  0  0  0  0
  8 22  1  0  0  0  0
  9 22  2  0  0  0  0
 10 23  1  0  0  0  0
 11 12  2  0  0  0  0
 11 24  1  0  0  0  0
 12 25  1  0  0  0  0
 13 21  1  0  0  0  0
 13 23  2  0  0  0  0
 14 25  2  0  0  0  0
 14 26  1  0  0  0  0
 15 65  2  0  0  0  0
 15 67  1  0  0  0  0
 16 27  1  0  0  0  0
 17 27  1  0  0  0  0
 17 30  2  0  0  0  0
 17 31  1  0  0  0  0
 18 20  2  0  0  0  0
 18 36  1  0  0  0  0
 19 21  2  0  0  0  0
 19 37  1  0  0  0  0
 20 45  1  0  0  0  0
 21 38  1  0  0  0  0
 22 81  1  0  0  0  0
 23 82  1  0  0  0  0
 24 26  2  0  0  0  0
 24 81  1  0  0  0  0
 25 83  1  0  0  0  0
 26 84  1  0  0  0  0
 27 66  2  0  0  0  0
 28 29  2  0  0  0  0
 28 57  1  0  0  0  0
 28 65  1  0  0  0  0
 29 48  1  0  0  0  0
 29 67  1  0  0  0  0
 30 68  1  0  0  0  0
 30 71  1  0  0  0  0
 31 72  1  0  0  0  0
 31 76  2  0  0  0  0
 32 46  1  0  0  0  0
 32 73  1  0  0  0  0
 32 77  2  0  0  0  0
 33 60  1  0  0  0  0
 33 69  1  0  0  0  0
 33 78  2  0  0  0  0
 34 63  1  0  0  0  0
 34 70  1  0  0  0  0
 34 79  2  0  0  0  0
 35 61  1  0  0  0  0
 35 74  1  0  0  0  0
 35 80  2  0  0  0  0
 36 39  1  0  0  0  0
 37 46  1  0  0  0  0
 38 69  1  0  0  0  0
 39 41  1  0  0  0  0
 40 42  1  0  0  0  0
 40 43  1  0  0  0  0
 41 45  1  0  0  0  0
 42 47  1  0  0  0  0
 43 70  1  0  0  0  0
 44 47  1  0  0  0  0
 44 70  1  0  0  0  0
 45 73  1  0  0  0  0
 46 69  1  0  0  0  0
 47 68  1  0  0  0  0
 49 61  1  0  0  0  0
 50 62  1  0  0  0  0
 51 63  1  0  0  0  0
 52 63  1  0  0  0  0
 53 64  1  0  0  0  0
 54 64  1  0  0  0  0
 55 64  1  0  0  0  0
 56 75  1  0  0  0  0
 57 58  1  0  0  0  0
 58 59  1  0  0  0  0
 59 82  1  0  0  0  0
 60 64  1  0  0  0  0
 60 74  1  0  0  0  0
 61 75  1  0  0  0  0
 62 63  1  0  0  0  0
 62 67  1  0  0  0  0
 66 68  1  0  0  0  0
M  CHG  1  75   1
M  ISO  4  34 100  59 101  63 100  82 101
M  END
> <Batch ID>
0073

> <Smiles>
CNC(C)C(=O)NC(C(=O)N1Cc2cc([101O:1][101CH2:1]CCc3ncn(C(C)[100C:0](C)(C)[100C:0](=O)N4CCCC(n5nc(-c6ccc(Oc7ccc(F)cc7F)cc6)c(C(N)=O)c5N)C4)c3C)ccc2CC1C(=O)NC1CCCc2ccccc21)C(C)(C)C

> <Shape>
0.243

> <Color>
0.088

> <Negative vol penalty>
0.000

$$$$

  -OEChem-04052318273D

 88 96  0     1  0  0  0  0  0999 V2000
  -26.2034  -37.7183   27.3891 C   0  0  0  0  0  0  0  0  0  0  0  0
  -25.8123  -36.4461   27.7939 C   0  0  0  0  0  0  0  0  0  0  0  0
  -24.2948   -9.4172   21.8953 C   0  0  0  0  0  0  0  0  0  0  0  0
  -22.8295   -9.9283   20.0436 C   0  0  0  0  0  0  0  0  0  0  0  0
  -26.0074  -38.1192   26.0682 C   0  0  0  0  0  0  0  0  0  0  0  0
  -25.2239  -35.5744   26.8783 C   0  0  0  0  0  0  0  0  0  0  0  0
  -25.8456  -29.4854   26.6691 C   0  0  0  0  0  0  0  0  0  0  0  0
  -23.6539   -8.1898   22.0637 C   0  0  0  0  0  0  0  0  0  0  0  0
  -22.1886   -8.7008   20.2120 C   0  0  0  0  0  0  0  0  0  0  0  0
  -25.0417  -28.4441   27.1308 C   0  0  0  0  0  0  0  0  0  0  0  0
  -20.7845   -7.0463   23.4360 C   0  0  0  0  0  0  0  0  0  0  0  0
  -20.4492   -6.6640   24.7349 C   0  0  0  0  0  0  0  0  0  0  0  0
  -24.0602  -28.2371   24.9369 C   0  0  0  0  0  0  0  0  0  0  0  0
  -21.8304   -4.6943   24.5117 C   0  0  0  0  0  0  0  0  0  0  0  0
  -23.8826  -10.2864   20.8852 C   0  0  0  0  0  0  0  0  0  0  0  0
  -25.6625  -11.8260   19.9006 C   0  0  0  0  0  0  0  0  0  0  0  0
  -25.4251  -37.2485   25.1335 C   0  0  0  0  0  0  0  0  0  0  0  0
  -25.7549  -29.9184   25.3384 C   0  0  0  0  0  0  0  0  0  0  0  0
  -25.0187  -35.9645   25.5440 C   0  0  0  0  0  0  0  0  0  0  0  0
  -24.8659  -29.2824   24.4601 C   0  0  0  0  0  0  0  0  0  0  0  0
  -22.6008   -7.8316   21.2220 C   0  0  0  0  0  0  0  0  0  0  0  0
  -24.1468  -27.8216   26.2654 C   0  0  0  0  0  0  0  0  0  0  0  0
  -21.6428   -6.2526   22.6750 C   0  0  0  0  0  0  0  0  0  0  0  0
  -20.9721   -5.4880   25.2727 C   0  0  0  0  0  0  0  0  0  0  0  0
  -22.1657   -5.0766   23.2128 C   0  0  0  0  0  0  0  0  0  0  0  0
  -24.5439  -11.5547   20.7111 C   0  0  0  0  0  0  0  0  0  0  0  0
  -25.9004  -13.1666   20.0812 C   0  0  0  0  0  0  0  0  0  0  0  0
  -23.2938  -22.9382   24.4515 C   0  0  0  0  0  0  0  0  0  0  0  0
  -23.5788  -23.8980   26.3767 C   0  0  0  0  0  0  0  0  0  0  0  0
  -26.4188  -10.9449   19.0595 C   0  0  0  0  0  0  0  0  0  0  0  0
  -24.9583  -32.6476   23.9169 C   0  0  0  0  0  0  0  0  0  0  0  0
  -25.8890  -31.0721   21.2385 C   0  0  0  0  0  0  0  0  0  0  0  0
  -26.4008  -28.0886   19.6626 C   0  0  0  0  0  0  0  0  0  0  0  0
  -22.5259  -17.6703   21.4729 C   0  0  0  0  0  0  0  0  0  0  0  0
  -25.1904  -37.7435   23.7283 C   0  0  0  0  0  0  0  0  0  0  0  0
  -26.6480  -31.0253   24.8489 C   0  0  0  0  0  0  0  0  0  0  0  0
  -24.7447  -29.6962   23.0170 C   0  0  0  0  0  0  0  0  0  0  0  0
  -24.9023  -36.6260   22.7291 C   0  0  0  0  0  0  0  0  0  0  0  0
  -25.3881  -16.6718   23.2848 C   0  0  0  0  0  0  0  0  0  0  0  0
  -23.8756  -35.6522   23.2987 C   0  0  0  0  0  0  0  0  0  0  0  0
  -25.6037  -15.2554   22.7534 C   0  0  0  0  0  0  0  0  0  0  0  0
  -23.9058  -16.9886   23.4911 C   0  0  0  0  0  0  0  0  0  0  0  0
  -23.2860  -15.3312   21.7615 C   0  0  0  0  0  0  0  0  0  0  0  0
  -24.3997  -34.9815   24.5742 C   0  0  1  0  0  0  0  0  0  0  0  0
  -26.1047  -31.7269   23.6079 C   0  0  1  0  0  0  0  0  0  0  0  0
  -24.7631  -15.0084   21.4887 C   0  0  2  0  0  0  0  0  0  0  0  0
  -20.5732  -22.6794   26.5570 C   0  0  0  0  0  0  0  0  0  0  0  0
  -23.7042  -23.7419   28.8850 C   0  0  0  0  0  0  0  0  0  0  0  0
  -27.1286  -27.1213   17.4644 C   0  0  0  0  0  0  0  0  0  0  0  0
  -23.1741  -31.7718   20.0345 C   0  0  0  0  0  0  0  0  0  0  0  0
  -23.5764  -30.0240   18.2876 C   0  0  0  0  0  0  0  0  0  0  0  0
  -25.1024  -31.9901   18.4570 C   0  0  0  0  0  0  0  0  0  0  0  0
  -24.1106  -20.1991   20.3307 C   0  0  0  0  0  0  0  0  0  0  0  0
  -22.5231  -22.1105   20.1531 C   0  0  0  0  0  0  0  0  0  0  0  0
  -21.6430  -18.9052   23.4978 C   0  0  0  0  0  0  0  0  0  0  0  0
  -28.7064  -26.7075   20.9018 C   0  0  0  0  0  0  0  0  0  0  0  0
  -22.6228  -22.3846   23.2619 C   0  0  0  0  0  0  0  0  0  0  0  0
  -23.5691  -21.5202   22.3938 C   0  0  0  0  0  0  0  0  0  0  0  0
  -21.1950  -23.6908   25.6094 C   0  0  0  0  0  0  0  0  0  0  0  0
  -21.7809  -20.0139   21.2983 C   0  0  0  0  0  0  0  0  0  0  0  0
  -23.8839  -25.9945   27.7648 C   0  0  0  0  0  0  0  0  0  1  0  0
  -23.2621  -24.5932   27.6915 C   0  0  1  0  0  0  0  0  0  0  0  0
  -25.2031  -30.1868   20.2262 C   0  0  1  0  0  0  0  0  0  0  0  0
  -27.5716  -27.5668   18.8493 C   0  0  2  0  0  0  0  0  0  0  0  0
  -24.2646  -30.9864   19.2789 C   0  0  0  0  0  0  0  0  0  0  0  0
  -22.9849  -20.9574   21.0672 C   0  0  0  0  0  0  0  0  0  0  0  0
  -24.1019  -12.6361   21.3587 N   0  0  0  0  0  0  0  0  0  0  0  0
  -24.5850  -22.9619   24.6934 N   0  0  0  0  0  0  0  0  0  0  0  0
  -24.7663  -23.5726   25.9183 N   0  0  0  0  0  0  0  0  0  0  0  0
  -24.9472  -13.5998   20.9552 N   0  0  0  0  0  0  0  0  0  0  0  0
  -22.6223  -23.5172   25.4852 N   0  0  0  0  0  0  0  0  0  0  0  0
  -25.6349  -30.7874   22.5877 N   0  0  0  0  0  0  0  0  0  0  0  0
  -23.1333  -16.6941   22.2764 N   0  0  0  0  0  0  0  0  0  0  0  0
  -26.8299  -14.0052   19.5762 N   0  0  0  0  0  0  0  0  0  0  0  0
  -26.0384   -9.5978   18.9896 N   0  0  0  0  0  0  0  0  0  0  0  0
  -25.3423  -33.9342   24.2437 N   0  0  0  0  0  0  0  0  0  0  0  0
  -26.2623  -29.4550   19.5399 N   0  0  0  0  0  0  0  0  0  0  0  0
  -22.0882  -18.8427   22.1071 N   0  0  0  0  0  0  0  0  0  0  0  0
  -28.2032  -26.4053   19.5370 N   0  3  0  0  0  0  0  0  0  0  0  0
  -27.4128  -11.3370   18.4024 O   0  0  0  0  0  0  0  0  0  0  0  0
  -23.8102  -32.2227   23.8614 O   0  0  0  0  0  0  0  0  0  0  0  0
  -26.6287  -31.9781   20.8468 O   0  0  0  0  0  0  0  0  0  0  0  0
  -25.6788  -27.3567   20.3361 O   0  0  0  0  0  0  0  0  0  0  0  0
  -22.3749  -17.5015   20.2561 O   0  0  0  0  0  0  0  0  0  0  0  0
  -21.9754   -6.6339   21.3859 O   0  0  0  0  0  0  0  0  0  0  0  0
  -23.3606  -26.8054   26.7137 O   0  0  0  0  0  0  0  0  0  1  0  0
  -20.6512   -5.1218   26.5206 F   0  0  0  0  0  0  0  0  0  0  0  0
  -22.9916   -4.3106   22.4870 F   0  0  0  0  0  0  0  0  0  0  0  0
  1  2  1  0  0  0  0
  1  5  2  0  0  0  0
  2  6  2  0  0  0  0
  3  8  2  0  0  0  0
  3 15  1  0  0  0  0
  4  9  1  0  0  0  0
  4 15  2  0  0  0  0
  5 17  1  0  0  0  0
  6 19  1  0  0  0  0
  7 10  2  0  0  0  0
  7 18  1  0  0  0  0
  8 21  1  0  0  0  0
  9 21  2  0  0  0  0
 10 22  1  0  0  0  0
 11 12  2  0  0  0  0
 11 23  1  0  0  0  0
 12 24  1  0  0  0  0
 13 20  1  0  0  0  0
 13 22  2  0  0  0  0
 14 24  2  0  0  0  0
 14 25  1  0  0  0  0
 15 26  1  0  0  0  0
 16 26  1  0  0  0  0
 16 27  2  0  0  0  0
 16 30  1  0  0  0  0
 17 19  2  0  0  0  0
 17 35  1  0  0  0  0
 18 20  2  0  0  0  0
 18 36  1  0  0  0  0
 19 44  1  0  0  0  0
 20 37  1  0  0  0  0
 21 85  1  0  0  0  0
 22 86  1  0  0  0  0
 23 25  2  0  0  0  0
 23 85  1  0  0  0  0
 24 87  1  0  0  0  0
 25 88  1  0  0  0  0
 26 67  2  0  0  0  0
 27 70  1  0  0  0  0
 27 74  1  0  0  0  0
 28 57  1  0  0  0  0
 28 68  2  0  0  0  0
 28 71  1  0  0  0  0
 29 62  1  0  0  0  0
 29 69  2  0  0  0  0
 29 71  1  0  0  0  0
 30 75  1  0  0  0  0
 30 80  2  0  0  0  0
 31 45  1  0  0  0  0
 31 76  1  0  0  0  0
 31 81  2  0  0  0  0
 32 63  1  0  0  0  0
 32 72  1  0  0  0  0
 32 82  2  0  0  0  0
 33 64  1  0  0  0  0
 33 77  1  0  0  0  0
 33 83  2  0  0  0  0
 34 73  1  0  0  0  0
 34 78  1  0  0  0  0
 34 84  2  0  0  0  0
 35 38  1  0  0  0  0
 36 45  1  0  0  0  0
 37 72  1  0  0  0  0
 38 40  1  0  0  0  0
 39 41  1  0  0  0  0
 39 42  1  0  0  0  0
 40 44  1  0  0  0  0
 41 46  1  0  0  0  0
 42 73  1  0  0  0  0
 43 46  1  0  0  0  0
 43 73  1  0  0  0  0
 44 76  1  0  0  0  0
 45 72  1  0  0  0  0
 46 70  1  0  0  0  0
 47 59  1  0  0  0  0
 48 62  1  0  0  0  0
 49 64  1  0  0  0  0
 50 65  1  0  0  0  0
 51 65  1  0  0  0  0
 52 65  1  0  0  0  0
 53 66  1  0  0  0  0
 54 66  1  0  0  0  0
 55 78  1  0  0  0  0
 56 79  1  0  0  0  0
 57 58  1  0  0  0  0
 58 66  1  0  0  0  0
 59 71  1  0  0  0  0
 60 66  1  0  0  0  0
 60 78  1  0  0  0  0
 61 62  1  0  0  0  0
 61 86  1  0  0  0  0
 63 65  1  0  0  0  0
 63 77  1  0  0  0  0
 64 79  1  0  0  0  0
 67 70  1  0  0  0  0
 68 69  1  0  0  0  0
M  CHG  1  79   1
M  ISO  4  34 100  61 101  78 100  86 101
M  END
> <Batch ID>
0073

> <Smiles>
CCn1c(CCC(C)(C)C[100N:0](C)[100C:0](=O)N2CCCC(n3nc(-c4ccc(Oc5ccc(F)cc5F)cc4)c(C(N)=O)c3N)C2)nnc1C(C)[101CH2:1][101O:1]c1ccc2c(c1)CN(C(=O)C(NC(=O)C(C)NC)C(C)(C)C)C(C(=O)NC1CCCc3ccccc31)C2

> <Shape>
0.253

> <Color>
0.098

> <Negative vol penalty>
0.000

$$$$

  -OEChem-04052318273D

 85 93  0     1  0  0  0  0  0999 V2000
  -27.5556  -35.1196   23.0505 C   0  0  0  0  0  0  0  0  0  0  0  0
  -27.8919  -33.7830   23.2395 C   0  0  0  0  0  0  0  0  0  0  0  0
  -24.0488   -9.5092   21.3689 C   0  0  0  0  0  0  0  0  0  0  0  0
  -24.6007  -10.5411   23.4826 C   0  0  0  0  0  0  0  0  0  0  0  0
  -26.2151  -35.4983   22.9913 C   0  0  0  0  0  0  0  0  0  0  0  0
  -26.8878  -32.8244   23.3705 C   0  0  0  0  0  0  0  0  0  0  0  0
  -27.8068  -28.6622   20.6362 C   0  0  0  0  0  0  0  0  0  0  0  0
  -23.6109   -8.3678   22.0405 C   0  0  0  0  0  0  0  0  0  0  0  0
  -24.1627   -9.3997   24.1542 C   0  0  0  0  0  0  0  0  0  0  0  0
  -28.7310  -27.7538   21.1503 C   0  0  0  0  0  0  0  0  0  0  0  0
  -20.8649   -7.3832   23.7502 C   0  0  0  0  0  0  0  0  0  0  0  0
  -19.6561   -6.8169   23.3458 C   0  0  0  0  0  0  0  0  0  0  0  0
  -30.3309  -18.9739   20.9519 C   0  0  0  0  0  0  0  0  0  0  0  0
  -30.0173  -17.6262   20.9687 C   0  0  0  0  0  0  0  0  0  0  0  0
  -26.9211  -26.3771   21.9553 C   0  0  0  0  0  0  0  0  0  0  0  0
  -20.7996   -4.7562   22.8135 C   0  0  0  0  0  0  0  0  0  0  0  0
  -24.5438  -10.5959   22.0900 C   0  0  0  0  0  0  0  0  0  0  0  0
  -24.2301  -12.9025   21.0467 C   0  0  0  0  0  0  0  0  0  0  0  0
  -25.1941  -34.5425   23.1120 C   0  0  0  0  0  0  0  0  0  0  0  0
  -26.4305  -28.4399   20.7876 C   0  0  0  0  0  0  0  0  0  0  0  0
  -25.5323  -33.1908   23.3142 C   0  0  0  0  0  0  0  0  0  0  0  0
  -25.9814  -27.2828   21.4400 C   0  0  0  0  0  0  0  0  0  0  0  0
  -23.6678   -8.3130   23.4331 C   0  0  0  0  0  0  0  0  0  0  0  0
  -28.2883  -26.6125   21.8125 C   0  0  0  0  0  0  0  0  0  0  0  0
  -22.0412   -6.6361   23.6862 C   0  0  0  0  0  0  0  0  0  0  0  0
  -19.6234   -5.5034   22.8775 C   0  0  0  0  0  0  0  0  0  0  0  0
  -22.0085   -5.3226   23.2178 C   0  0  0  0  0  0  0  0  0  0  0  0
  -24.9968  -11.7750   21.3968 C   0  0  0  0  0  0  0  0  0  0  0  0
  -30.5414  -19.6033   22.1623 C   0  0  0  0  0  0  0  0  0  0  0  0
  -29.9353  -16.9970   22.1946 C   0  0  0  0  0  0  0  0  0  0  0  0
  -25.1164  -13.7360   20.4093 C   0  0  0  0  0  0  0  0  0  0  0  0
  -22.8409  -13.1724   21.2771 C   0  0  0  0  0  0  0  0  0  0  0  0
  -24.0541  -29.9834   22.2278 C   0  0  0  0  0  0  0  0  0  0  0  0
  -22.2331  -27.7054   20.8075 C   0  0  0  0  0  0  0  0  0  0  0  0
  -31.0980  -14.2235   20.7181 C   0  0  0  0  0  0  0  0  0  0  0  0
  -22.0385  -24.5770   19.4577 C   0  0  0  0  0  0  0  0  0  0  0  0
  -23.7591  -35.0063   23.0888 C   0  0  0  0  0  0  0  0  0  0  0  0
  -25.4461  -29.4159   20.2038 C   0  0  0  0  0  0  0  0  0  0  0  0
  -24.5144  -26.9877   21.6111 C   0  0  0  0  0  0  0  0  0  0  0  0
  -22.7576  -33.8769   22.8615 C   0  0  0  0  0  0  0  0  0  0  0  0
  -29.1099  -13.6689   17.7890 C   0  0  0  0  0  0  0  0  0  0  0  0
  -23.0839  -32.6858   23.7568 C   0  0  0  0  0  0  0  0  0  0  0  0
  -27.7693  -13.1955   18.3494 C   0  0  0  0  0  0  0  0  0  0  0  0
  -30.2764  -13.1713   18.6367 C   0  0  0  0  0  0  0  0  0  0  0  0
  -28.8355  -13.0628   20.6452 C   0  0  0  0  0  0  0  0  0  0  0  0
  -24.4718  -32.1181   23.4358 C   0  0  1  0  0  0  0  0  0  0  0  0
  -24.0734  -29.3484   20.8661 C   0  0  1  0  0  0  0  0  0  0  0  0
  -27.6286  -13.5691   19.8357 C   0  0  2  0  0  0  0  0  0  0  0  0
  -28.6932  -15.2151   23.4814 C   0  0  0  0  0  0  0  0  0  0  0  0
  -20.4085  -22.9800   18.4137 C   0  0  0  0  0  0  0  0  0  0  0  0
  -30.6357  -13.2334   22.9175 C   0  0  0  0  0  0  0  0  0  0  0  0
  -32.1279  -15.2279   22.6667 C   0  0  0  0  0  0  0  0  0  0  0  0
  -21.0716  -27.0941   23.5619 C   0  0  0  0  0  0  0  0  0  0  0  0
  -20.2066  -24.9328   22.6406 C   0  0  0  0  0  0  0  0  0  0  0  0
  -19.3995  -27.0986   21.7022 C   0  0  0  0  0  0  0  0  0  0  0  0
  -23.5546  -24.5089   16.9169 C   0  0  0  0  0  0  0  0  0  0  0  0
  -30.8837  -21.0714   22.2005 C   0  0  0  0  0  0  0  0  0  0  0  0
  -29.6601  -21.9904   22.2871 C   0  0  0  0  0  0  0  0  0  0  0  0
  -30.0228  -23.4755   22.2470 C   0  0  0  0  0  0  0  0  0  0  0  0
  -28.7874  -24.3563   22.3752 C   0  0  0  0  0  0  0  0  0  1  0  0
  -29.6042  -15.5457   22.2667 C   0  0  2  0  0  0  0  0  0  0  0  0
  -21.7526  -26.3271   21.1926 C   0  0  1  0  0  0  0  0  0  0  0  0
  -21.4316  -24.0761   18.1595 C   0  0  2  0  0  0  0  0  0  0  0  0
  -30.8364  -14.5570   22.1653 C   0  0  0  0  0  0  0  0  0  0  0  0
  -20.6353  -26.3694   22.2730 C   0  0  0  0  0  0  0  0  0  0  0  0
  -26.2720  -11.8793   21.0135 N   0  0  0  0  0  0  0  0  0  0  0  0
  -30.4545  -18.9626   23.3473 N   0  0  0  0  0  0  0  0  0  0  0  0
  -30.1467  -17.6379   23.3636 N   0  0  0  0  0  0  0  0  0  0  0  0
  -26.3134  -13.0823   20.4158 N   0  0  0  0  0  0  0  0  0  0  0  0
  -23.5911  -27.9754   21.0284 N   0  0  0  0  0  0  0  0  0  0  0  0
  -30.0943  -13.5265   20.0452 N   0  0  0  0  0  0  0  0  0  0  0  0
  -24.9808  -14.9569   19.8495 N   0  0  0  0  0  0  0  0  0  0  0  0
  -22.0751  -12.2084   21.9468 N   0  0  0  0  0  0  0  0  0  0  0  0
  -24.4234  -31.3150   22.2329 N   0  0  0  0  0  0  0  0  0  0  0  0
  -21.3585  -25.6705   19.9508 N   0  0  0  0  0  0  0  0  0  0  0  0
  -22.4937  -23.5300   17.2680 N   0  3  0  0  0  0  0  0  0  0  0  0
  -22.2912  -14.2298   20.8857 O   0  0  0  0  0  0  0  0  0  0  0  0
  -23.7269  -29.3152   23.2015 O   0  0  0  0  0  0  0  0  0  0  0  0
  -21.4346  -28.5105   20.3217 O   0  0  0  0  0  0  0  0  0  0  0  0
  -32.1620  -14.5754   20.2021 O   0  0  0  0  0  0  0  0  0  0  0  0
  -23.0156  -24.0487   19.9837 O   0  0  0  0  0  0  0  0  0  0  0  0
  -23.2404   -7.1995   24.0888 O   0  0  0  0  0  0  0  0  0  0  0  0
  -29.1884  -25.7246   22.3159 O   0  0  0  0  0  0  0  0  0  1  0  0
  -18.4622   -4.9592   22.4906 F   0  0  0  0  0  0  0  0  0  0  0  0
  -23.1350   -4.5995   23.1551 F   0  0  0  0  0  0  0  0  0  0  0  0
  1  2  1  0  0  0  0
  1  5  2  0  0  0  0
  2  6  2  0  0  0  0
  3  8  2  0  0  0  0
  3 17  1  0  0  0  0
  4  9  1  0  0  0  0
  4 17  2  0  0  0  0
  5 19  1  0  0  0  0
  6 21  1  0  0  0  0
  7 10  2  0  0  0  0
  7 20  1  0  0  0  0
  8 23  1  0  0  0  0
  9 23  2  0  0  0  0
 10 24  1  0  0  0  0
 11 12  2  0  0  0  0
 11 25  1  0  0  0  0
 12 26  1  0  0  0  0
 13 14  2  0  0  0  0
 13 29  1  0  0  0  0
 14 30  1  0  0  0  0
 15 22  1  0  0  0  0
 15 24  2  0  0  0  0
 16 26  2  0  0  0  0
 16 27  1  0  0  0  0
 17 28  1  0  0  0  0
 18 28  1  0  0  0  0
 18 31  2  0  0  0  0
 18 32  1  0  0  0  0
 19 21  2  0  0  0  0
 19 37  1  0  0  0  0
 20 22  2  0  0  0  0
 20 38  1  0  0  0  0
 21 46  1  0  0  0  0
 22 39  1  0  0  0  0
 23 82  1  0  0  0  0
 24 83  1  0  0  0  0
 25 27  2  0  0  0  0
 25 82  1  0  0  0  0
 26 84  1  0  0  0  0
 27 85  1  0  0  0  0
 28 66  2  0  0  0  0
 29 57  1  0  0  0  0
 29 67  2  0  0  0  0
 30 61  1  0  0  0  0
 30 68  2  0  0  0  0
 31 69  1  0  0  0  0
 31 72  1  0  0  0  0
 32 73  1  0  0  0  0
 32 77  2  0  0  0  0
 33 47  1  0  0  0  0
 33 74  1  0  0  0  0
 33 78  2  0  0  0  0
 34 62  1  0  0  0  0
 34 70  1  0  0  0  0
 34 79  2  0  0  0  0
 35 64  1  0  0  0  0
 35 71  1  0  0  0  0
 35 80  2  0  0  0  0
 36 63  1  0  0  0  0
 36 75  1  0  0  0  0
 36 81  2  0  0  0  0
 37 40  1  0  0  0  0
 38 47  1  0  0  0  0
 39 70  1  0  0  0  0
 40 42  1  0  0  0  0
 41 43  1  0  0  0  0
 41 44  1  0  0  0  0
 42 46  1  0  0  0  0
 43 48  1  0  0  0  0
 44 71  1  0  0  0  0
 45 48  1  0  0  0  0
 45 71  1  0  0  0  0
 46 74  1  0  0  0  0
 47 70  1  0  0  0  0
 48 69  1  0  0  0  0
 49 61  1  0  0  0  0
 50 63  1  0  0  0  0
 51 64  1  0  0  0  0
 52 64  1  0  0  0  0
 53 65  1  0  0  0  0
 54 65  1  0  0  0  0
 55 65  1  0  0  0  0
 56 76  1  0  0  0  0
 57 58  1  0  0  0  0
 58 59  1  0  0  0  0
 59 60  1  0  0  0  0
 60 83  1  0  0  0  0
 61 64  1  0  0  0  0
 62 65  1  0  0  0  0
 62 75  1  0  0  0  0
 63 76  1  0  0  0  0
 66 69  1  0  0  0  0
 67 68  1  0  0  0  0
M  CHG  1  76   1
M  ISO  4  35 100  60 101  64 100  83 101
M  END
> <Batch ID>
0073

> <Smiles>
CNC(C)C(=O)NC(C(=O)N1Cc2cc([101O:1][101CH2:1]CCCc3ccc(C(C)[100C:0](C)(C)[100C:0](=O)N4CCCC(n5nc(-c6ccc(Oc7ccc(F)cc7F)cc6)c(C(N)=O)c5N)C4)nn3)ccc2CC1C(=O)NC1CCCc2ccccc21)C(C)(C)C

> <Shape>
0.321

> <Color>
0.138

> <Negative vol penalty>
0.000

$$$$

  -OEChem-04052318273D

 82 90  0     1  0  0  0  0  0999 V2000
  -32.2687  -12.2168   21.2663 C   0  0  0  0  0  0  0  0  0  0  0  0
  -32.3988  -13.5682   20.9626 C   0  0  0  0  0  0  0  0  0  0  0  0
  -22.2955  -27.2467   23.1039 C   0  0  0  0  0  0  0  0  0  0  0  0
  -22.8816  -28.3387   21.0300 C   0  0  0  0  0  0  0  0  0  0  0  0
  -31.1038  -11.5343   20.9182 C   0  0  0  0  0  0  0  0  0  0  0  0
  -31.3645  -14.2377   20.3097 C   0  0  0  0  0  0  0  0  0  0  0  0
  -29.6726  -20.0693   21.1069 C   0  0  0  0  0  0  0  0  0  0  0  0
  -21.3207  -28.2162   23.3389 C   0  0  0  0  0  0  0  0  0  0  0  0
  -21.9067  -29.3082   21.2650 C   0  0  0  0  0  0  0  0  0  0  0  0
  -29.9512  -21.2330   20.3914 C   0  0  0  0  0  0  0  0  0  0  0  0
  -18.1799  -28.8966   22.2877 C   0  0  0  0  0  0  0  0  0  0  0  0
  -16.9267  -28.4640   22.7214 C   0  0  0  0  0  0  0  0  0  0  0  0
  -27.8740  -20.9847   19.1904 C   0  0  0  0  0  0  0  0  0  0  0  0
  -17.1763  -29.7661   24.7411 C   0  0  0  0  0  0  0  0  0  0  0  0
  -32.2587  -24.6003   15.9427 C   0  0  0  0  0  0  0  0  0  0  0  0
  -23.0761  -27.3079   21.9495 C   0  0  0  0  0  0  0  0  0  0  0  0
  -23.9234  -25.0888   21.0194 C   0  0  0  0  0  0  0  0  0  0  0  0
  -30.0507  -12.1981   20.2693 C   0  0  0  0  0  0  0  0  0  0  0  0
  -28.4957  -19.3474   20.8614 C   0  0  0  0  0  0  0  0  0  0  0  0
  -30.1849  -13.5631   19.9514 C   0  0  0  0  0  0  0  0  0  0  0  0
  -27.5815  -19.8136   19.9059 C   0  0  0  0  0  0  0  0  0  0  0  0
  -21.1262  -29.2469   22.4195 C   0  0  0  0  0  0  0  0  0  0  0  0
  -29.0533  -21.6893   19.4310 C   0  0  0  0  0  0  0  0  0  0  0  0
  -18.9313  -29.7639   23.0807 C   0  0  0  0  0  0  0  0  0  0  0  0
  -16.4249  -28.8988   23.9481 C   0  0  0  0  0  0  0  0  0  0  0  0
  -18.4295  -30.1986   24.3074 C   0  0  0  0  0  0  0  0  0  0  0  0
  -24.0837  -26.3070   21.7064 C   0  0  0  0  0  0  0  0  0  0  0  0
  -31.3221  -24.9025   16.8905 C   0  0  0  0  0  0  0  0  0  0  0  0
  -25.1658  -24.5046   21.0620 C   0  0  0  0  0  0  0  0  0  0  0  0
  -30.2967  -23.8722   15.2209 C   0  0  0  0  0  0  0  0  0  0  0  0
  -22.7560  -24.5347   20.3983 C   0  0  0  0  0  0  0  0  0  0  0  0
  -27.8376  -16.4141   19.8287 C   0  0  0  0  0  0  0  0  0  0  0  0
  -24.7879  -17.2749   20.5220 C   0  0  0  0  0  0  0  0  0  0  0  0
  -22.5139  -19.7812   20.9624 C   0  0  0  0  0  0  0  0  0  0  0  0
  -30.6971  -26.7234   21.6381 C   0  0  0  0  0  0  0  0  0  0  0  0
  -28.8300  -11.4070   19.8708 C   0  0  0  0  0  0  0  0  0  0  0  0
  -28.1971  -18.1086   21.6605 C   0  0  0  0  0  0  0  0  0  0  0  0
  -26.2942  -19.0862   19.6189 C   0  0  0  0  0  0  0  0  0  0  0  0
  -27.6284  -12.2789   19.5155 C   0  0  0  0  0  0  0  0  0  0  0  0
  -29.1258  -24.3176   23.7404 C   0  0  0  0  0  0  0  0  0  0  0  0
  -28.0485  -13.4145   18.5878 C   0  0  0  0  0  0  0  0  0  0  0  0
  -27.6410  -24.4447   23.3955 C   0  0  0  0  0  0  0  0  0  0  0  0
  -29.8309  -25.6717   23.7069 C   0  0  0  0  0  0  0  0  0  0  0  0
  -28.1775  -26.5540   22.1064 C   0  0  0  0  0  0  0  0  0  0  0  0
  -29.0749  -14.3300   19.2660 C   0  0  1  0  0  0  0  0  0  0  0  0
  -27.2132  -17.1722   20.9659 C   0  0  1  0  0  0  0  0  0  0  0  0
  -27.4358  -25.2068   22.0724 C   0  0  2  0  0  0  0  0  0  0  0  0
  -29.2570  -23.2484   14.3653 C   0  0  0  0  0  0  0  0  0  0  0  0
  -20.0909  -20.1733   21.4847 C   0  0  0  0  0  0  0  0  0  0  0  0
  -24.0464  -16.4724   17.6731 C   0  0  0  0  0  0  0  0  0  0  0  0
  -21.9077  -17.7452   17.9456 C   0  0  0  0  0  0  0  0  0  0  0  0
  -22.3879  -15.7874   19.4151 C   0  0  0  0  0  0  0  0  0  0  0  0
  -23.1684  -21.2771   23.4308 C   0  0  0  0  0  0  0  0  0  0  0  0
  -31.4625  -25.5796   18.1854 C   0  0  0  0  0  0  0  0  0  0  0  0
  -31.2962  -27.1215   18.1471 C   0  0  0  0  0  0  0  0  0  0  0  0
  -28.7918  -24.5535   17.1306 C   0  0  0  0  0  0  0  0  0  0  0  0
  -31.4103  -27.7918   19.5146 C   0  0  0  0  0  0  0  0  0  0  0  0
  -28.3591  -23.2345   17.7617 C   0  0  0  0  0  0  0  0  0  1  0  0
  -23.6661  -17.9409   19.7624 C   0  0  1  0  0  0  0  0  0  0  0  0
  -21.4930  -20.0342   22.0570 C   0  0  2  0  0  0  0  0  0  0  0  0
  -23.0271  -16.9993   18.7029 C   0  0  0  0  0  0  0  0  0  0  0  0
  -25.3296  -26.4873   22.1528 N   0  0  0  0  0  0  0  0  0  0  0  0
  -30.1174  -24.4410   16.4175 N   0  0  0  0  0  0  0  0  0  0  0  0
  -25.9635  -25.3744   21.7455 N   0  0  0  0  0  0  0  0  0  0  0  0
  -31.5965  -23.9632   14.9212 N   0  3  0  0  0  0  0  0  0  0  0  0
  -26.0504  -17.8766   20.4219 N   0  0  0  0  0  0  0  0  0  0  0  0
  -29.5981  -26.3418   22.4252 N   0  0  0  0  0  0  0  0  0  0  0  0
  -25.6427  -23.3368   20.5810 N   0  0  0  0  0  0  0  0  0  0  0  0
  -21.5619  -25.2669   20.4473 N   0  0  0  0  0  0  0  0  0  0  0  0
  -28.4194  -15.2176   20.2024 N   0  0  0  0  0  0  0  0  0  0  0  0
  -22.7293  -18.4335   20.7665 N   0  0  0  0  0  0  0  0  0  0  0  0
  -30.3881  -27.3470   20.4355 N   0  0  0  0  0  0  0  0  0  0  0  0
  -21.8252  -21.2849   22.7961 N   0  3  0  0  0  0  0  0  0  0  0  0
  -22.7672  -23.4158   19.8314 O   0  0  0  0  0  0  0  0  0  0  0  0
  -27.7936  -16.8794   18.6959 O   0  0  0  0  0  0  0  0  0  0  0  0
  -24.5513  -16.2624   21.1856 O   0  0  0  0  0  0  0  0  0  0  0  0
  -23.0624  -20.6884   20.3405 O   0  0  0  0  0  0  0  0  0  0  0  0
  -31.8670  -26.5184   21.9791 O   0  0  0  0  0  0  0  0  0  0  0  0
  -20.1749  -30.1930   22.6484 O   0  0  0  0  0  0  0  0  0  0  0  0
  -29.3231  -22.8245   18.7307 O   0  0  0  0  0  0  0  0  0  1  0  0
  -15.2208  -28.4845   24.3637 F   0  0  0  0  0  0  0  0  0  0  0  0
  -19.1462  -31.0328   25.0731 F   0  0  0  0  0  0  0  0  0  0  0  0
  1  2  1  0  0  0  0
  1  5  2  0  0  0  0
  2  6  2  0  0  0  0
  3  8  2  0  0  0  0
  3 16  1  0  0  0  0
  4  9  1  0  0  0  0
  4 16  2  0  0  0  0
  5 18  1  0  0  0  0
  6 20  1  0  0  0  0
  7 10  2  0  0  0  0
  7 19  1  0  0  0  0
  8 22  1  0  0  0  0
  9 22  2  0  0  0  0
 10 23  1  0  0  0  0
 11 12  2  0  0  0  0
 11 24  1  0  0  0  0
 12 25  1  0  0  0  0
 13 21  1  0  0  0  0
 13 23  2  0  0  0  0
 14 25  2  0  0  0  0
 14 26  1  0  0  0  0
 15 28  2  0  0  0  0
 15 65  1  0  0  0  0
 16 27  1  0  0  0  0
 17 27  1  0  0  0  0
 17 29  2  0  0  0  0
 17 31  1  0  0  0  0
 18 20  2  0  0  0  0
 18 36  1  0  0  0  0
 19 21  2  0  0  0  0
 19 37  1  0  0  0  0
 20 45  1  0  0  0  0
 21 38  1  0  0  0  0
 22 79  1  0  0  0  0
 23 80  1  0  0  0  0
 24 26  2  0  0  0  0
 24 79  1  0  0  0  0
 25 81  1  0  0  0  0
 26 82  1  0  0  0  0
 27 62  2  0  0  0  0
 28 54  1  0  0  0  0
 28 63  1  0  0  0  0
 29 64  1  0  0  0  0
 29 68  1  0  0  0  0
 30 48  1  0  0  0  0
 30 63  1  0  0  0  0
 30 65  2  0  0  0  0
 31 69  1  0  0  0  0
 31 74  2  0  0  0  0
 32 46  1  0  0  0  0
 32 70  1  0  0  0  0
 32 75  2  0  0  0  0
 33 59  1  0  0  0  0
 33 66  1  0  0  0  0
 33 76  2  0  0  0  0
 34 60  1  0  0  0  0
 34 71  1  0  0  0  0
 34 77  2  0  0  0  0
 35 67  1  0  0  0  0
 35 72  1  0  0  0  0
 35 78  2  0  0  0  0
 36 39  1  0  0  0  0
 37 46  1  0  0  0  0
 38 66  1  0  0  0  0
 39 41  1  0  0  0  0
 40 42  1  0  0  0  0
 40 43  1  0  0  0  0
 41 45  1  0  0  0  0
 42 47  1  0  0  0  0
 43 67  1  0  0  0  0
 44 47  1  0  0  0  0
 44 67  1  0  0  0  0
 45 70  1  0  0  0  0
 46 66  1  0  0  0  0
 47 64  1  0  0  0  0
 49 60  1  0  0  0  0
 50 61  1  0  0  0  0
 51 61  1  0  0  0  0
 52 61  1  0  0  0  0
 53 73  1  0  0  0  0
 54 55  1  0  0  0  0
 55 57  1  0  0  0  0
 56 58  1  0  0  0  0
 56 63  1  0  0  0  0
 57 72  1  0  0  0  0
 58 80  1  0  0  0  0
 59 61  1  0  0  0  0
 59 71  1  0  0  0  0
 60 73  1  0  0  0  0
 62 64  1  0  0  0  0
M  CHG  2  65   1  73   1
M  ISO  4  35 100  58 101  72 100  80 101
M  END
> <Batch ID>
0073

> <Smiles>
CNC(C)C(=O)NC(C(=O)N1Cc2cc([101O:1][101CH2:1]Cn3c(CCC[100NH:0][100C:0](=O)N4CCCC(n5nc(-c6ccc(Oc7ccc(F)cc7F)cc6)c(C(N)=O)c5N)C4)cnc3C)ccc2CC1C(=O)NC1CCCc2ccccc21)C(C)(C)C

> <Shape>
0.201

> <Color>
0.054

> <Negative vol penalty>
0.000

$$$$

  -OEChem-04052318273D

 86 94  0     1  0  0  0  0  0999 V2000
  -17.4706  -30.9133   24.9534 C   0  0  0  0  0  0  0  0  0  0  0  0
  -17.5694  -29.6546   24.3692 C   0  0  0  0  0  0  0  0  0  0  0  0
  -24.0754   -9.3934   21.2868 C   0  0  0  0  0  0  0  0  0  0  0  0
  -24.7473  -10.3155   23.4164 C   0  0  0  0  0  0  0  0  0  0  0  0
  -18.2514  -31.9653   24.4762 C   0  0  0  0  0  0  0  0  0  0  0  0
  -18.4483  -29.4474   23.3066 C   0  0  0  0  0  0  0  0  0  0  0  0
  -23.6974  -24.5331   23.7404 C   0  0  0  0  0  0  0  0  0  0  0  0
  -23.6647   -8.2222   21.9235 C   0  0  0  0  0  0  0  0  0  0  0  0
  -24.3365   -9.1444   24.0531 C   0  0  0  0  0  0  0  0  0  0  0  0
  -24.5939  -23.4669   23.6661 C   0  0  0  0  0  0  0  0  0  0  0  0
  -21.0058   -7.1685   23.7270 C   0  0  0  0  0  0  0  0  0  0  0  0
  -19.7726   -6.6296   23.3604 C   0  0  0  0  0  0  0  0  0  0  0  0
  -25.3070  -24.2051   21.4765 C   0  0  0  0  0  0  0  0  0  0  0  0
  -20.8694   -4.5919   22.6661 C   0  0  0  0  0  0  0  0  0  0  0  0
  -30.0838  -17.5099   21.0039 C   0  0  0  0  0  0  0  0  0  0  0  0
  -24.6168  -10.4400   22.0332 C   0  0  0  0  0  0  0  0  0  0  0  0
  -24.2666  -12.7975   21.1238 C   0  0  0  0  0  0  0  0  0  0  0  0
  -19.1474  -31.7684   23.4135 C   0  0  0  0  0  0  0  0  0  0  0  0
  -23.6133  -25.4493   22.6884 C   0  0  0  0  0  0  0  0  0  0  0  0
  -19.2408  -30.4980   22.8139 C   0  0  0  0  0  0  0  0  0  0  0  0
  -24.4198  -25.2822   21.5507 C   0  0  0  0  0  0  0  0  0  0  0  0
  -23.7952   -8.0978   23.3066 C   0  0  0  0  0  0  0  0  0  0  0  0
  -25.3965  -23.3032   22.5368 C   0  0  0  0  0  0  0  0  0  0  0  0
  -22.1708   -6.4191   23.5631 C   0  0  0  0  0  0  0  0  0  0  0  0
  -19.7044   -5.3413   22.8300 C   0  0  0  0  0  0  0  0  0  0  0  0
  -22.1026   -5.1309   23.0327 C   0  0  0  0  0  0  0  0  0  0  0  0
  -25.0418  -11.6498   21.3760 C   0  0  0  0  0  0  0  0  0  0  0  0
  -30.0552  -16.7970   22.1749 C   0  0  0  0  0  0  0  0  0  0  0  0
  -25.1245  -13.6570   20.4819 C   0  0  0  0  0  0  0  0  0  0  0  0
  -30.6516  -19.3538   22.1774 C   0  0  0  0  0  0  0  0  0  0  0  0
  -22.8940  -13.0631   21.4414 C   0  0  0  0  0  0  0  0  0  0  0  0
  -22.0117  -28.5573   21.3277 C   0  0  0  0  0  0  0  0  0  0  0  0
  -24.9910  -28.7033   20.6113 C   0  0  0  0  0  0  0  0  0  0  0  0
  -31.1177  -14.0961   20.4935 C   0  0  0  0  0  0  0  0  0  0  0  0
  -28.3950  -28.6822   20.3882 C   0  0  0  0  0  0  0  0  0  0  0  0
  -19.9360  -32.9475   22.9011 C   0  0  0  0  0  0  0  0  0  0  0  0
  -22.6180  -26.5777   22.6989 C   0  0  0  0  0  0  0  0  0  0  0  0
  -24.2705  -26.2727   20.4283 C   0  0  0  0  0  0  0  0  0  0  0  0
  -21.1161  -32.5529   22.0168 C   0  0  0  0  0  0  0  0  0  0  0  0
  -28.9721  -13.6990   17.6513 C   0  0  0  0  0  0  0  0  0  0  0  0
  -20.6881  -31.5096   20.9896 C   0  0  0  0  0  0  0  0  0  0  0  0
  -27.6595  -13.2056   18.2585 C   0  0  0  0  0  0  0  0  0  0  0  0
  -30.1780  -13.1535   18.4096 C   0  0  0  0  0  0  0  0  0  0  0  0
  -28.8453  -12.9527   20.4845 C   0  0  0  0  0  0  0  0  0  0  0  0
  -20.2007  -30.2276   21.6756 C   0  0  1  0  0  0  0  0  0  0  0  0
  -23.1439  -27.8526   22.0154 C   0  0  1  0  0  0  0  0  0  0  0  0
  -27.6011  -13.5053   19.7669 C   0  0  2  0  0  0  0  0  0  0  0  0
  -28.8702  -14.9537   23.4287 C   0  0  0  0  0  0  0  0  0  0  0  0
  -30.3194  -30.0292   19.5053 C   0  0  0  0  0  0  0  0  0  0  0  0
  -30.4295  -23.1881   21.6099 C   0  0  0  0  0  0  0  0  0  0  0  0
  -30.7652  -13.0000   22.6628 C   0  0  0  0  0  0  0  0  0  0  0  0
  -32.2581  -14.9964   22.4314 C   0  0  0  0  0  0  0  0  0  0  0  0
  -24.3334  -27.7798   17.7796 C   0  0  0  0  0  0  0  0  0  0  0  0
  -26.6944  -28.3075   17.1353 C   0  0  0  0  0  0  0  0  0  0  0  0
  -25.1873  -30.1249   17.9407 C   0  0  0  0  0  0  0  0  0  0  0  0
  -29.5581  -29.0068   23.0902 C   0  0  0  0  0  0  0  0  0  0  0  0
  -30.9982  -20.8229   22.2104 C   0  0  0  0  0  0  0  0  0  0  0  0
  -28.5704  -21.5948   22.2985 C   0  0  0  0  0  0  0  0  0  0  0  0
  -27.4629  -22.4629   21.7112 C   0  0  0  0  0  0  0  0  0  1  0  0
  -29.7189  -15.3487   22.1867 C   0  0  2  0  0  0  0  0  0  0  0  0
  -26.0615  -28.4183   19.5885 C   0  0  1  0  0  0  0  0  0  0  0  0
  -29.4321  -29.7439   20.7070 C   0  0  2  0  0  0  0  0  0  0  0  0
  -29.9262  -21.7403   21.5788 C   0  0  1  0  0  0  0  0  0  0  0  0
  -30.9363  -14.3584   21.9674 C   0  0  0  0  0  0  0  0  0  0  0  0
  -25.5637  -28.6395   18.1322 C   0  0  0  0  0  0  0  0  0  0  0  0
  -30.3855  -18.8169   20.9774 N   0  0  0  0  0  0  0  0  0  0  0  0
  -26.2956  -11.7662   20.9306 N   0  0  0  0  0  0  0  0  0  0  0  0
  -30.3314  -17.3905   23.3503 N   0  0  0  0  0  0  0  0  0  0  0  0
  -30.6385  -18.7043   23.3581 N   0  0  0  0  0  0  0  0  0  0  0  0
  -26.3148  -12.9973   20.3919 N   0  0  0  0  0  0  0  0  0  0  0  0
  -24.1605  -27.6353   20.9721 N   0  0  0  0  0  0  0  0  0  0  0  0
  -30.0740  -13.4390   19.8417 N   0  0  0  0  0  0  0  0  0  0  0  0
  -24.9691  -14.9050   19.9913 N   0  0  0  0  0  0  0  0  0  0  0  0
  -22.1571  -12.0711   22.1026 N   0  0  0  0  0  0  0  0  0  0  0  0
  -21.3254  -29.4424   22.1370 N   0  0  0  0  0  0  0  0  0  0  0  0
  -27.2090  -29.2394   19.9589 N   0  0  0  0  0  0  0  0  0  0  0  0
  -30.2980  -29.2997   21.8357 N   0  3  0  0  0  0  0  0  0  0  0  0
  -22.3327  -14.1417   21.1329 O   0  0  0  0  0  0  0  0  0  0  0  0
  -21.7779  -28.3177   20.1488 O   0  0  0  0  0  0  0  0  0  0  0  0
  -24.8881  -29.8423   21.0753 O   0  0  0  0  0  0  0  0  0  0  0  0
  -32.1555  -14.4675   19.9393 O   0  0  0  0  0  0  0  0  0  0  0  0
  -28.6161  -27.4789   20.5046 O   0  0  0  0  0  0  0  0  0  0  0  0
  -23.3943   -6.9553   23.9283 O   0  0  0  0  0  0  0  0  0  0  0  0
  -26.2728  -22.2626   22.4727 O   0  0  0  0  0  0  0  0  0  1  0  0
  -18.5199   -4.8234   22.4794 F   0  0  0  0  0  0  0  0  0  0  0  0
  -23.2183   -4.4057   22.8740 F   0  0  0  0  0  0  0  0  0  0  0  0
  1  2  1  0  0  0  0
  1  5  2  0  0  0  0
  2  6  2  0  0  0  0
  3  8  2  0  0  0  0
  3 16  1  0  0  0  0
  4  9  1  0  0  0  0
  4 16  2  0  0  0  0
  5 18  1  0  0  0  0
  6 20  1  0  0  0  0
  7 10  2  0  0  0  0
  7 19  1  0  0  0  0
  8 22  1  0  0  0  0
  9 22  2  0  0  0  0
 10 23  1  0  0  0  0
 11 12  2  0  0  0  0
 11 24  1  0  0  0  0
 12 25  1  0  0  0  0
 13 21  1  0  0  0  0
 13 23  2  0  0  0  0
 14 25  2  0  0  0  0
 14 26  1  0  0  0  0
 15 28  1  0  0  0  0
 15 66  2  0  0  0  0
 16 27  1  0  0  0  0
 17 27  1  0  0  0  0
 17 29  2  0  0  0  0
 17 31  1  0  0  0  0
 18 20  2  0  0  0  0
 18 36  1  0  0  0  0
 19 21  2  0  0  0  0
 19 37  1  0  0  0  0
 20 45  1  0  0  0  0
 21 38  1  0  0  0  0
 22 83  1  0  0  0  0
 23 84  1  0  0  0  0
 24 26  2  0  0  0  0
 24 83  1  0  0  0  0
 25 85  1  0  0  0  0
 26 86  1  0  0  0  0
 27 67  2  0  0  0  0
 28 60  1  0  0  0  0
 28 68  2  0  0  0  0
 29 70  1  0  0  0  0
 29 73  1  0  0  0  0
 30 57  1  0  0  0  0
 30 66  1  0  0  0  0
 30 69  2  0  0  0  0
 31 74  1  0  0  0  0
 31 78  2  0  0  0  0
 32 46  1  0  0  0  0
 32 75  1  0  0  0  0
 32 79  2  0  0  0  0
 33 61  1  0  0  0  0
 33 71  1  0  0  0  0
 33 80  2  0  0  0  0
 34 64  1  0  0  0  0
 34 72  1  0  0  0  0
 34 81  2  0  0  0  0
 35 62  1  0  0  0  0
 35 76  1  0  0  0  0
 35 82  2  0  0  0  0
 36 39  1  0  0  0  0
 37 46  1  0  0  0  0
 38 71  1  0  0  0  0
 39 41  1  0  0  0  0
 40 42  1  0  0  0  0
 40 43  1  0  0  0  0
 41 45  1  0  0  0  0
 42 47  1  0  0  0  0
 43 72  1  0  0  0  0
 44 47  1  0  0  0  0
 44 72  1  0  0  0  0
 45 75  1  0  0  0  0
 46 71  1  0  0  0  0
 47 70  1  0  0  0  0
 48 60  1  0  0  0  0
 49 62  1  0  0  0  0
 50 63  1  0  0  0  0
 51 64  1  0  0  0  0
 52 64  1  0  0  0  0
 53 65  1  0  0  0  0
 54 65  1  0  0  0  0
 55 65  1  0  0  0  0
 56 77  1  0  0  0  0
 57 63  1  0  0  0  0
 58 59  1  0  0  0  0
 58 63  1  0  0  0  0
 59 84  1  0  0  0  0
 60 64  1  0  0  0  0
 61 65  1  0  0  0  0
 61 76  1  0  0  0  0
 62 77  1  0  0  0  0
 67 70  1  0  0  0  0
 68 69  1  0  0  0  0
M  CHG  1  77   1
M  ISO  4  34 100  59 101  64 100  84 101
M  END
> <Batch ID>
0073

> <Smiles>
CNC(C)C(=O)NC(C(=O)N1Cc2cc([101O:1][101CH2:1]CC(C)Cc3ncc(C(C)[100C:0](C)(C)[100C:0](=O)N4CCCC(n5nc(-c6ccc(Oc7ccc(F)cc7F)cc6)c(C(N)=O)c5N)C4)nn3)ccc2CC1C(=O)NC1CCCc2ccccc21)C(C)(C)C

> <Shape>
0.289

> <Color>
0.145

> <Negative vol penalty>
0.000

$$$$

  -OEChem-04052318273D

 89 97  0     1  0  0  0  0  0999 V2000
  -30.5022  -23.4415   17.2260 C   0  0  0  0  0  0  0  0  0  0  0  0
  -29.5910  -22.9032   18.1289 C   0  0  0  0  0  0  0  0  0  0  0  0
  -24.6725  -14.1116   19.4490 C   0  0  0  0  0  0  0  0  0  0  0  0
  -23.7846  -15.4276   21.2702 C   0  0  0  0  0  0  0  0  0  0  0  0
  -30.7928  -24.8047   17.2597 C   0  0  0  0  0  0  0  0  0  0  0  0
  -28.9705  -23.7276   19.0668 C   0  0  0  0  0  0  0  0  0  0  0  0
  -24.0003  -22.8363   19.4507 C   0  0  0  0  0  0  0  0  0  0  0  0
  -23.8030  -13.0714   19.7768 C   0  0  0  0  0  0  0  0  0  0  0  0
  -22.9150  -14.3874   21.5980 C   0  0  0  0  0  0  0  0  0  0  0  0
  -23.6089  -21.7180   20.1855 C   0  0  0  0  0  0  0  0  0  0  0  0
  -23.6332  -10.5977   22.0739 C   0  0  0  0  0  0  0  0  0  0  0  0
  -24.1539   -9.3041   22.1045 C   0  0  0  0  0  0  0  0  0  0  0  0
  -23.1251  -23.1367   22.0756 C   0  0  0  0  0  0  0  0  0  0  0  0
  -22.5901   -8.6340   20.3891 C   0  0  0  0  0  0  0  0  0  0  0  0
  -24.9168  -22.0814   27.1084 C   0  0  0  0  0  0  0  0  0  0  0  0
  -25.7600  -22.9265   27.7729 C   0  0  0  0  0  0  0  0  0  0  0  0
  -24.6633  -15.2898   20.1958 C   0  0  0  0  0  0  0  0  0  0  0  0
  -25.3176  -17.4292   18.9700 C   0  0  0  0  0  0  0  0  0  0  0  0
  -30.1683  -25.6480   18.1922 C   0  0  0  0  0  0  0  0  0  0  0  0
  -23.9673  -24.1141   20.0274 C   0  0  0  0  0  0  0  0  0  0  0  0
  -29.2540  -25.1032   19.1139 C   0  0  0  0  0  0  0  0  0  0  0  0
  -23.5142  -24.2699   21.3451 C   0  0  0  0  0  0  0  0  0  0  0  0
  -22.9242  -13.2093   20.8512 C   0  0  0  0  0  0  0  0  0  0  0  0
  -23.1739  -21.8677   21.4991 C   0  0  0  0  0  0  0  0  0  0  0  0
  -22.5908  -10.9095   21.2009 C   0  0  0  0  0  0  0  0  0  0  0  0
  -23.6324   -8.3223   21.2621 C   0  0  0  0  0  0  0  0  0  0  0  0
  -22.0693   -9.9277   20.3585 C   0  0  0  0  0  0  0  0  0  0  0  0
  -25.5617  -16.3645   19.8581 C   0  0  0  0  0  0  0  0  0  0  0  0
  -26.4729  -18.1714   18.9981 C   0  0  0  0  0  0  0  0  0  0  0  0
  -26.9279  -21.8910   26.2031 C   0  0  0  0  0  0  0  0  0  0  0  0
  -24.1508  -17.7212   18.1896 C   0  0  0  0  0  0  0  0  0  0  0  0
  -26.1434  -26.3372   20.6804 C   0  0  0  0  0  0  0  0  0  0  0  0
  -23.5394  -28.0916   21.4950 C   0  0  0  0  0  0  0  0  0  0  0  0
  -20.2827  -28.1415   22.5142 C   0  0  0  0  0  0  0  0  0  0  0  0
  -30.6139  -19.8572   22.6756 C   0  0  0  0  0  0  0  0  0  0  0  0
  -30.5499  -27.1069   18.2212 C   0  0  0  0  0  0  0  0  0  0  0  0
  -24.3675  -25.3134   19.2126 C   0  0  0  0  0  0  0  0  0  0  0  0
  -23.4407  -25.6224   22.0038 C   0  0  0  0  0  0  0  0  0  0  0  0
  -29.5683  -27.9778   19.0011 C   0  0  0  0  0  0  0  0  0  0  0  0
  -31.1605  -17.2736   20.2876 C   0  0  0  0  0  0  0  0  0  0  0  0
  -29.2228  -27.3277   20.3371 C   0  0  0  0  0  0  0  0  0  0  0  0
  -29.7498  -16.8748   19.8508 C   0  0  0  0  0  0  0  0  0  0  0  0
  -31.2123  -17.6298   21.7716 C   0  0  0  0  0  0  0  0  0  0  0  0
  -28.8282  -18.2540   21.7605 C   0  0  0  0  0  0  0  0  0  0  0  0
  -28.5418  -25.9695   20.1300 C   0  0  1  0  0  0  0  0  0  0  0  0
  -24.7813  -26.5063   20.0689 C   0  0  1  0  0  0  0  0  0  0  0  0
  -28.7143  -17.9398   20.2590 C   0  0  2  0  0  0  0  0  0  0  0  0
  -18.4363  -29.7242   23.1329 C   0  0  0  0  0  0  0  0  0  0  0  0
  -24.8760  -28.5928   24.1917 C   0  0  0  0  0  0  0  0  0  0  0  0
  -22.6544  -29.3346   25.0764 C   0  0  0  0  0  0  0  0  0  0  0  0
  -23.7321  -30.5872   23.2077 C   0  0  0  0  0  0  0  0  0  0  0  0
  -27.6090  -23.2043   23.4714 C   0  0  0  0  0  0  0  0  0  0  0  0
  -29.2128  -23.7555   25.2951 C   0  0  0  0  0  0  0  0  0  0  0  0
  -24.8877  -19.6256   22.0104 C   0  0  0  0  0  0  0  0  0  0  0  0
  -23.1530  -18.9143   23.6761 C   0  0  0  0  0  0  0  0  0  0  0  0
  -18.5532  -27.1648   20.3202 C   0  0  0  0  0  0  0  0  0  0  0  0
  -24.3496  -21.0951   24.0282 C   0  0  0  0  0  0  0  0  0  0  0  0
  -25.1408  -20.4316   25.1644 C   0  0  0  0  0  0  0  0  0  0  0  0
  -29.8604  -22.0603   23.5347 C   0  0  0  0  0  0  0  0  0  0  0  0
  -28.0591  -21.4689   25.3403 C   0  0  2  0  0  0  0  0  0  0  0  0
  -22.7459  -28.3023   22.7619 C   0  0  1  0  0  0  0  0  0  0  0  0
  -19.0822  -28.9237   22.0128 C   0  0  2  0  0  0  0  0  0  0  0  0
  -29.1347  -20.6439   26.1074 C   0  0  0  0  0  0  0  0  0  0  0  0
  -23.5052  -29.1784   23.7980 C   0  0  0  0  0  0  0  0  0  0  0  0
  -28.6936  -22.6027   24.3999 C   0  0  0  0  0  0  0  0  0  0  0  0
  -23.8027  -20.1112   22.9740 C   0  0  0  0  0  0  0  0  0  1  0  0
  -26.7767  -16.4215   20.4099 N   0  0  0  0  0  0  0  0  0  0  0  0
  -25.6658  -21.4540   26.1423 N   0  0  0  0  0  0  0  0  0  0  0  0
  -27.3064  -17.5309   19.8671 N   0  0  0  0  0  0  0  0  0  0  0  0
  -26.9976  -22.7879   27.1921 N   0  3  0  0  0  0  0  0  0  0  0  0
  -23.8487  -26.7637   21.1681 N   0  0  0  0  0  0  0  0  0  0  0  0
  -30.2070  -18.6458   22.0925 N   0  0  0  0  0  0  0  0  0  0  0  0
  -26.8470  -19.3028   18.3638 N   0  0  0  0  0  0  0  0  0  0  0  0
  -23.0529  -16.8547   18.2794 N   0  0  0  0  0  0  0  0  0  0  0  0
  -27.1551  -26.1509   19.7578 N   0  0  0  0  0  0  0  0  0  0  0  0
  -21.4564  -28.8464   22.3502 N   0  0  0  0  0  0  0  0  0  0  0  0
  -29.5986  -20.7677   22.9418 N   0  0  0  0  0  0  0  0  0  0  0  0
  -18.0604  -27.9981   21.4470 N   0  3  0  0  0  0  0  0  0  0  0  0
  -24.0900  -18.7118   17.4225 O   0  0  0  0  0  0  0  0  0  0  0  0
  -26.2674  -26.3745   21.8990 O   0  0  0  0  0  0  0  0  0  0  0  0
  -23.8663  -29.0686   20.8167 O   0  0  0  0  0  0  0  0  0  0  0  0
  -20.1883  -27.0190   23.0058 O   0  0  0  0  0  0  0  0  0  0  0  0
  -31.7953  -20.1109   22.9346 O   0  0  0  0  0  0  0  0  0  0  0  0
  -22.0754  -12.1945   21.1711 O   0  0  0  0  0  0  0  0  0  0  0  0
  -22.7919  -20.7777   22.2187 O   0  0  0  0  0  0  0  0  0  1  0  0
  -24.1336   -7.0804   21.2905 F   0  0  0  0  0  0  0  0  0  0  0  0
  -21.0687  -10.2215   19.5169 F   0  0  0  0  0  0  0  0  0  0  0  0
  -28.5516  -19.5212   26.6049 F   0  0  0  0  0  0  0  0  0  0  0  0
  -29.6271  -21.3273   27.1650 F   0  0  0  0  0  0  0  0  0  0  0  0
  1  2  1  0  0  0  0
  1  5  2  0  0  0  0
  2  6  2  0  0  0  0
  3  8  2  0  0  0  0
  3 17  1  0  0  0  0
  4  9  1  0  0  0  0
  4 17  2  0  0  0  0
  5 19  1  0  0  0  0
  6 21  1  0  0  0  0
  7 10  2  0  0  0  0
  7 20  1  0  0  0  0
  8 23  1  0  0  0  0
  9 23  2  0  0  0  0
 10 24  1  0  0  0  0
 11 12  2  0  0  0  0
 11 25  1  0  0  0  0
 12 26  1  0  0  0  0
 13 22  1  0  0  0  0
 13 24  2  0  0  0  0
 14 26  2  0  0  0  0
 14 27  1  0  0  0  0
 15 16  2  0  0  0  0
 15 68  1  0  0  0  0
 16 70  1  0  0  0  0
 17 28  1  0  0  0  0
 18 28  1  0  0  0  0
 18 29  2  0  0  0  0
 18 31  1  0  0  0  0
 19 21  2  0  0  0  0
 19 36  1  0  0  0  0
 20 22  2  0  0  0  0
 20 37  1  0  0  0  0
 21 45  1  0  0  0  0
 22 38  1  0  0  0  0
 23 84  1  0  0  0  0
 24 85  1  0  0  0  0
 25 27  2  0  0  0  0
 25 84  1  0  0  0  0
 26 86  1  0  0  0  0
 27 87  1  0  0  0  0
 28 67  2  0  0  0  0
 29 69  1  0  0  0  0
 29 73  1  0  0  0  0
 30 60  1  0  0  0  0
 30 68  1  0  0  0  0
 30 70  2  0  0  0  0
 31 74  1  0  0  0  0
 31 79  2  0  0  0  0
 32 46  1  0  0  0  0
 32 75  1  0  0  0  0
 32 80  2  0  0  0  0
 33 61  1  0  0  0  0
 33 71  1  0  0  0  0
 33 81  2  0  0  0  0
 34 62  1  0  0  0  0
 34 76  1  0  0  0  0
 34 82  2  0  0  0  0
 35 72  1  0  0  0  0
 35 77  1  0  0  0  0
 35 83  2  0  0  0  0
 36 39  1  0  0  0  0
 37 46  1  0  0  0  0
 38 71  1  0  0  0  0
 39 41  1  0  0  0  0
 40 42  1  0  0  0  0
 40 43  1  0  0  0  0
 41 45  1  0  0  0  0
 42 47  1  0  0  0  0
 43 72  1  0  0  0  0
 44 47  1  0  0  0  0
 44 72  1  0  0  0  0
 45 75  1  0  0  0  0
 46 71  1  0  0  0  0
 47 69  1  0  0  0  0
 48 62  1  0  0  0  0
 49 64  1  0  0  0  0
 50 64  1  0  0  0  0
 51 64  1  0  0  0  0
 52 65  1  0  0  0  0
 53 65  1  0  0  0  0
 54 66  1  0  0  0  0
 55 66  1  0  0  0  0
 56 78  1  0  0  0  0
 57 58  1  0  0  0  0
 57 66  1  0  0  0  0
 58 68  1  0  0  0  0
 59 65  1  0  0  0  0
 59 77  1  0  0  0  0
 60 63  1  0  0  0  0
 60 65  1  0  0  0  0
 61 64  1  0  0  0  0
 61 76  1  0  0  0  0
 62 78  1  0  0  0  0
 63 88  1  0  0  0  0
 63 89  1  0  0  0  0
 66 85  1  0  0  0  0
 67 69  1  0  0  0  0
M  CHG  2  70   1  78   1
M  ISO  4  35 100  66 101  77 100  85 101
M  END
> <Batch ID>
0073

> <Smiles>
CNC(C)C(=O)NC(C(=O)N1Cc2cc([101O:1][101C:1](C)(C)CCn3ccnc3C(C(F)F)C(C)(C)C[100NH:0][100C:0](=O)N3CCCC(n4nc(-c5ccc(Oc6ccc(F)cc6F)cc5)c(C(N)=O)c4N)C3)ccc2CC1C(=O)NC1CCCc2ccccc21)C(C)(C)C

> <Shape>
0.223

> <Color>
0.030

> <Negative vol penalty>
0.000

$$$$

  -OEChem-04052318273D

 83 91  0     1  0  0  0  0  0999 V2000
  -23.5294  -16.5424   25.5005 C   0  0  0  0  0  0  0  0  0  0  0  0
  -24.3094  -17.4880   24.8425 C   0  0  0  0  0  0  0  0  0  0  0  0
  -26.7287  -13.6556   21.2505 C   0  0  0  0  0  0  0  0  0  0  0  0
  -26.7597  -13.7883   18.8383 C   0  0  0  0  0  0  0  0  0  0  0  0
  -22.1441  -16.6933   25.5466 C   0  0  0  0  0  0  0  0  0  0  0  0
  -23.7043  -18.5846   24.2293 C   0  0  0  0  0  0  0  0  0  0  0  0
  -26.1199  -22.9290   25.1968 C   0  0  0  0  0  0  0  0  0  0  0  0
  -25.9245  -12.5183   21.1776 C   0  0  0  0  0  0  0  0  0  0  0  0
  -25.9555  -12.6509   18.7654 C   0  0  0  0  0  0  0  0  0  0  0  0
  -27.2882  -23.1814   24.4791 C   0  0  0  0  0  0  0  0  0  0  0  0
  -22.6634  -11.8039   20.6491 C   0  0  0  0  0  0  0  0  0  0  0  0
  -21.5646  -11.7321   21.5053 C   0  0  0  0  0  0  0  0  0  0  0  0
  -26.0555  -24.6273   22.9927 C   0  0  0  0  0  0  0  0  0  0  0  0
  -22.4645   -9.7183   22.4912 C   0  0  0  0  0  0  0  0  0  0  0  0
  -30.7600  -25.7636   20.2211 C   0  0  0  0  0  0  0  0  0  0  0  0
  -31.4649  -23.7725   20.8324 C   0  0  0  0  0  0  0  0  0  0  0  0
  -27.1463  -14.2906   20.0808 C   0  0  0  0  0  0  0  0  0  0  0  0
  -29.3835  -15.5128   20.1759 C   0  0  0  0  0  0  0  0  0  0  0  0
  -21.5226  -17.7973   24.9420 C   0  0  0  0  0  0  0  0  0  0  0  0
  -24.9064  -23.5162   24.8107 C   0  0  0  0  0  0  0  0  0  0  0  0
  -22.3093  -18.7496   24.2663 C   0  0  0  0  0  0  0  0  0  0  0  0
  -24.8737  -24.3827   23.7088 C   0  0  0  0  0  0  0  0  0  0  0  0
  -30.9438  -24.9355   21.3446 C   0  0  0  0  0  0  0  0  0  0  0  0
  -25.5379  -12.0159   19.9351 C   0  0  0  0  0  0  0  0  0  0  0  0
  -27.2555  -24.0284   23.3751 C   0  0  0  0  0  0  0  0  0  0  0  0
  -23.6627  -10.8329   20.7138 C   0  0  0  0  0  0  0  0  0  0  0  0
  -21.4652  -10.6894   22.4264 C   0  0  0  0  0  0  0  0  0  0  0  0
  -23.5633   -9.7902   21.6349 C   0  0  0  0  0  0  0  0  0  0  0  0
  -27.9766  -15.4658   20.1555 C   0  0  0  0  0  0  0  0  0  0  0  0
  -29.6812  -16.8515   20.2526 C   0  0  0  0  0  0  0  0  0  0  0  0
  -30.3360  -14.4422   20.1297 C   0  0  0  0  0  0  0  0  0  0  0  0
  -22.0934  -22.4118   23.8253 C   0  0  0  0  0  0  0  0  0  0  0  0
  -21.2397  -25.5356   24.0139 C   0  0  0  0  0  0  0  0  0  0  0  0
  -22.2046  -28.8090   23.9941 C   0  0  0  0  0  0  0  0  0  0  0  0
  -28.8484  -22.1235   18.6223 C   0  0  0  0  0  0  0  0  0  0  0  0
  -20.0179  -17.8927   24.9776 C   0  0  0  0  0  0  0  0  0  0  0  0
  -23.6602  -23.2549   25.6114 C   0  0  0  0  0  0  0  0  0  0  0  0
  -23.6005  -25.0541   23.2654 C   0  0  0  0  0  0  0  0  0  0  0  0
  -19.4870  -19.2797   24.6245 C   0  0  0  0  0  0  0  0  0  0  0  0
  -26.7046  -20.8397   21.1586 C   0  0  0  0  0  0  0  0  0  0  0  0
  -20.1836  -19.8166   23.3782 C   0  0  0  0  0  0  0  0  0  0  0  0
  -26.9559  -19.3312   21.1210 C   0  0  0  0  0  0  0  0  0  0  0  0
  -26.7529  -21.4549   19.7618 C   0  0  0  0  0  0  0  0  0  0  0  0
  -28.2314  -19.6534   18.9604 C   0  0  0  0  0  0  0  0  0  0  0  0
  -21.6921  -19.9657   23.6103 C   0  0  1  0  0  0  0  0  0  0  0  0
  -22.3792  -23.5008   24.8204 C   0  0  1  0  0  0  0  0  0  0  0  0
  -28.2480  -18.9971   20.3515 C   0  0  2  0  0  0  0  0  0  0  0  0
  -21.2773  -31.1369   24.1291 C   0  0  0  0  0  0  0  0  0  0  0  0
  -33.3112  -23.5518   17.8226 C   0  0  0  0  0  0  0  0  0  0  0  0
  -30.0532  -26.6778   23.0329 C   0  0  0  0  0  0  0  0  0  0  0  0
  -31.9420  -25.1801   23.6388 C   0  0  0  0  0  0  0  0  0  0  0  0
  -20.2807  -25.3184   21.1254 C   0  0  0  0  0  0  0  0  0  0  0  0
  -20.2638  -27.8196   21.0162 C   0  0  0  0  0  0  0  0  0  0  0  0
  -18.7751  -26.6332   22.6284 C   0  0  0  0  0  0  0  0  0  0  0  0
  -23.7281  -29.3975   26.4622 C   0  0  0  0  0  0  0  0  0  0  0  0
  -30.9887  -22.6352   17.4750 C   0  0  0  0  0  0  0  0  0  0  0  0
  -29.6249  -24.2324   23.3936 C   0  0  0  0  0  0  0  0  0  1  0  0
  -21.2642  -26.7097   23.0652 C   0  0  1  0  0  0  0  0  0  0  0  0
  -21.8555  -29.9676   24.9108 C   0  0  2  0  0  0  0  0  0  0  0  0
  -32.0523  -23.0196   18.5157 C   0  0  2  0  0  0  0  0  0  0  0  0
  -30.6341  -25.2594   22.8182 C   0  0  0  0  0  0  0  0  0  0  0  0
  -20.1697  -26.6062   21.9658 C   0  0  0  0  0  0  0  0  0  0  0  0
  -31.1339  -25.1766   19.0811 N   0  0  0  0  0  0  0  0  0  0  0  0
  -27.4193  -16.6782   20.2145 N   0  0  0  0  0  0  0  0  0  0  0  0
  -31.5581  -23.9672   19.4857 N   0  0  0  0  0  0  0  0  0  0  0  0
  -28.4814  -17.4997   20.2729 N   0  0  0  0  0  0  0  0  0  0  0  0
  -22.4073  -24.7620   24.0769 N   0  0  0  0  0  0  0  0  0  0  0  0
  -28.0039  -21.1015   19.0865 N   0  0  0  0  0  0  0  0  0  0  0  0
  -30.8497  -17.5256   20.3039 N   0  0  0  0  0  0  0  0  0  0  0  0
  -29.8591  -13.1266   20.0520 N   0  0  0  0  0  0  0  0  0  0  0  0
  -21.9688  -21.1553   24.3867 N   0  0  0  0  0  0  0  0  0  0  0  0
  -21.1671  -27.9063   23.8942 N   0  0  0  0  0  0  0  0  0  0  0  0
  -30.0168  -21.7019   17.9996 N   0  0  0  0  0  0  0  0  0  0  0  0
  -23.0700  -30.4403   25.6337 N   0  3  0  0  0  0  0  0  0  0  0  0
  -31.5731  -14.6452   20.1732 O   0  0  0  0  0  0  0  0  0  0  0  0
  -21.9918  -22.6912   22.6365 O   0  0  0  0  0  0  0  0  0  0  0  0
  -20.2246  -25.3173   24.6798 O   0  0  0  0  0  0  0  0  0  0  0  0
  -23.2878  -28.7162   23.4209 O   0  0  0  0  0  0  0  0  0  0  0  0
  -28.5833  -23.3228   18.7578 O   0  0  0  0  0  0  0  0  0  0  0  0
  -24.7533  -10.9060   19.8636 O   0  0  0  0  0  0  0  0  0  0  0  0
  -28.3943  -24.2760   22.6724 O   0  0  0  0  0  0  0  0  0  1  0  0
  -20.4108  -10.6214   23.2496 F   0  0  0  0  0  0  0  0  0  0  0  0
  -24.5208   -8.8550   21.7026 F   0  0  0  0  0  0  0  0  0  0  0  0
  1  2  1  0  0  0  0
  1  5  2  0  0  0  0
  2  6  2  0  0  0  0
  3  8  2  0  0  0  0
  3 17  1  0  0  0  0
  4  9  1  0  0  0  0
  4 17  2  0  0  0  0
  5 19  1  0  0  0  0
  6 21  1  0  0  0  0
  7 10  2  0  0  0  0
  7 20  1  0  0  0  0
  8 24  1  0  0  0  0
  9 24  2  0  0  0  0
 10 25  1  0  0  0  0
 11 12  2  0  0  0  0
 11 26  1  0  0  0  0
 12 27  1  0  0  0  0
 13 22  1  0  0  0  0
 13 25  2  0  0  0  0
 14 27  2  0  0  0  0
 14 28  1  0  0  0  0
 15 23  1  0  0  0  0
 15 63  2  0  0  0  0
 16 23  2  0  0  0  0
 16 65  1  0  0  0  0
 17 29  1  0  0  0  0
 18 29  1  0  0  0  0
 18 30  2  0  0  0  0
 18 31  1  0  0  0  0
 19 21  2  0  0  0  0
 19 36  1  0  0  0  0
 20 22  2  0  0  0  0
 20 37  1  0  0  0  0
 21 45  1  0  0  0  0
 22 38  1  0  0  0  0
 23 61  1  0  0  0  0
 24 80  1  0  0  0  0
 25 81  1  0  0  0  0
 26 28  2  0  0  0  0
 26 80  1  0  0  0  0
 27 82  1  0  0  0  0
 28 83  1  0  0  0  0
 29 64  2  0  0  0  0
 30 66  1  0  0  0  0
 30 69  1  0  0  0  0
 31 70  1  0  0  0  0
 31 75  2  0  0  0  0
 32 46  1  0  0  0  0
 32 71  1  0  0  0  0
 32 76  2  0  0  0  0
 33 58  1  0  0  0  0
 33 67  1  0  0  0  0
 33 77  2  0  0  0  0
 34 59  1  0  0  0  0
 34 72  1  0  0  0  0
 34 78  2  0  0  0  0
 35 68  1  0  0  0  0
 35 73  1  0  0  0  0
 35 79  2  0  0  0  0
 36 39  1  0  0  0  0
 37 46  1  0  0  0  0
 38 67  1  0  0  0  0
 39 41  1  0  0  0  0
 40 42  1  0  0  0  0
 40 43  1  0  0  0  0
 41 45  1  0  0  0  0
 42 47  1  0  0  0  0
 43 68  1  0  0  0  0
 44 47  1  0  0  0  0
 44 68  1  0  0  0  0
 45 71  1  0  0  0  0
 46 67  1  0  0  0  0
 47 66  1  0  0  0  0
 48 59  1  0  0  0  0
 49 60  1  0  0  0  0
 50 61  1  0  0  0  0
 51 61  1  0  0  0  0
 52 62  1  0  0  0  0
 53 62  1  0  0  0  0
 54 62  1  0  0  0  0
 55 74  1  0  0  0  0
 56 60  1  0  0  0  0
 56 73  1  0  0  0  0
 57 61  1  0  0  0  0
 57 81  1  0  0  0  0
 58 62  1  0  0  0  0
 58 72  1  0  0  0  0
 59 74  1  0  0  0  0
 60 65  1  0  0  0  0
 63 65  1  0  0  0  0
 64 66  1  0  0  0  0
M  CHG  1  74   1
M  ISO  4  35 100  57 101  73 100  81 101
M  END
> <Batch ID>
0073

> <Smiles>
CNC(C)C(=O)NC(C(=O)N1Cc2cc([101O:1][101CH2:1]C(C)(C)c3cnn(C(C)C[100NH:0][100C:0](=O)N4CCCC(n5nc(-c6ccc(Oc7ccc(F)cc7F)cc6)c(C(N)=O)c5N)C4)c3)ccc2CC1C(=O)NC1CCCc2ccccc21)C(C)(C)C

> <Shape>
0.196

> <Color>
0.085

> <Negative vol penalty>
0.000

$$$$

  -OEChem-04052318273D

 85 93  0     1  0  0  0  0  0999 V2000
  -29.7841  -24.9912   17.0405 C   0  0  0  0  0  0  0  0  0  0  0  0
  -28.5449  -24.9892   17.6728 C   0  0  0  0  0  0  0  0  0  0  0  0
  -24.1100  -12.4327   19.4917 C   0  0  0  0  0  0  0  0  0  0  0  0
  -25.5639  -13.1558   21.2807 C   0  0  0  0  0  0  0  0  0  0  0  0
  -30.8467  -25.7042   17.5941 C   0  0  0  0  0  0  0  0  0  0  0  0
  -28.3679  -25.6992   18.8598 C   0  0  0  0  0  0  0  0  0  0  0  0
  -24.0642  -28.3677   18.9041 C   0  0  0  0  0  0  0  0  0  0  0  0
  -24.6949  -11.1670   19.5279 C   0  0  0  0  0  0  0  0  0  0  0  0
  -26.1488  -11.8900   21.3169 C   0  0  0  0  0  0  0  0  0  0  0  0
  -22.8842  -27.6687   19.1547 C   0  0  0  0  0  0  0  0  0  0  0  0
  -25.5575   -7.6381   19.3940 C   0  0  0  0  0  0  0  0  0  0  0  0
  -24.7105   -6.5308   19.3491 C   0  0  0  0  0  0  0  0  0  0  0  0
  -22.9367  -28.4146   21.4482 C   0  0  0  0  0  0  0  0  0  0  0  0
  -23.6365   -7.2698   21.3832 C   0  0  0  0  0  0  0  0  0  0  0  0
  -18.5892  -23.0712   19.3511 C   0  0  0  0  0  0  0  0  0  0  0  0
  -24.5445  -13.4272   20.3681 C   0  0  0  0  0  0  0  0  0  0  0  0
  -22.8221  -15.1761   21.0623 C   0  0  0  0  0  0  0  0  0  0  0  0
  -30.6800  -26.4312   18.7833 C   0  0  0  0  0  0  0  0  0  0  0  0
  -24.6962  -29.0876   19.9281 C   0  0  0  0  0  0  0  0  0  0  0  0
  -29.4297  -26.4215   19.4306 C   0  0  0  0  0  0  0  0  0  0  0  0
  -24.1232  -29.1239   21.2074 C   0  0  0  0  0  0  0  0  0  0  0  0
  -25.7143  -10.8956   20.4405 C   0  0  0  0  0  0  0  0  0  0  0  0
  -22.3218  -27.6897   20.4277 C   0  0  0  0  0  0  0  0  0  0  0  0
  -25.4441   -8.5613   20.4335 C   0  0  0  0  0  0  0  0  0  0  0  0
  -23.7500   -6.3466   20.3437 C   0  0  0  0  0  0  0  0  0  0  0  0
  -24.4836   -8.3771   21.4281 C   0  0  0  0  0  0  0  0  0  0  0  0
  -23.9411  -14.7351   20.3308 C   0  0  0  0  0  0  0  0  0  0  0  0
  -19.7617  -23.5828   19.8310 C   0  0  0  0  0  0  0  0  0  0  0  0
  -22.6513  -16.4825   20.6741 C   0  0  0  0  0  0  0  0  0  0  0  0
  -20.2337  -21.7423   18.6952 C   0  0  0  0  0  0  0  0  0  0  0  0
  -22.0096  -14.4683   22.0080 C   0  0  0  0  0  0  0  0  0  0  0  0
  -27.5233  -28.9216   21.3717 C   0  0  0  0  0  0  0  0  0  0  0  0
  -26.5093  -31.6435   22.8157 C   0  0  0  0  0  0  0  0  0  0  0  0
  -23.8911  -33.6002   23.7971 C   0  0  0  0  0  0  0  0  0  0  0  0
  -25.2233  -21.4665   19.7457 C   0  0  0  0  0  0  0  0  0  0  0  0
  -31.8708  -27.1481   19.3688 C   0  0  0  0  0  0  0  0  0  0  0  0
  -25.9542  -29.8582   19.6348 C   0  0  0  0  0  0  0  0  0  0  0  0
  -24.7516  -29.8983   22.3361 C   0  0  0  0  0  0  0  0  0  0  0  0
  -31.4989  -28.1804   20.4302 C   0  0  0  0  0  0  0  0  0  0  0  0
  -24.7561  -19.1222   16.9195 C   0  0  0  0  0  0  0  0  0  0  0  0
  -30.4928  -27.5942   21.4156 C   0  0  0  0  0  0  0  0  0  0  0  0
  -24.4816  -17.7968   17.6280 C   0  0  0  0  0  0  0  0  0  0  0  0
  -25.6241  -20.0485   17.7657 C   0  0  0  0  0  0  0  0  0  0  0  0
  -24.8108  -18.9737   19.8387 C   0  0  0  0  0  0  0  0  0  0  0  0
  -29.1917  -27.1998   20.7064 C   0  0  1  0  0  0  0  0  0  0  0  0
  -26.7885  -30.1370   20.8813 C   0  0  1  0  0  0  0  0  0  0  0  0
  -23.9002  -18.0356   19.0323 C   0  0  2  0  0  0  0  0  0  0  0  0
  -20.0971  -19.8440   17.0629 C   0  0  0  0  0  0  0  0  0  0  0  0
  -23.3748  -35.7472   24.9892 C   0  0  0  0  0  0  0  0  0  0  0  0
  -20.7023  -24.5366   22.0411 C   0  0  0  0  0  0  0  0  0  0  0  0
  -18.6843  -25.5364   20.9895 C   0  0  0  0  0  0  0  0  0  0  0  0
  -27.1113  -30.3012   25.4888 C   0  0  0  0  0  0  0  0  0  0  0  0
  -25.7222  -32.0595   26.6054 C   0  0  0  0  0  0  0  0  0  0  0  0
  -27.7814  -32.7069   25.3552 C   0  0  0  0  0  0  0  0  0  0  0  0
  -24.5591  -22.7151   21.7654 C   0  0  0  0  0  0  0  0  0  0  0  0
  -22.5724  -34.7450   21.4076 C   0  0  0  0  0  0  0  0  0  0  0  0
  -20.9634  -20.6186   18.0571 C   0  0  0  0  0  0  0  0  0  0  0  0
  -22.1765  -22.9008   19.6935 C   0  0  0  0  0  0  0  0  0  0  0  0
  -22.7867  -21.6879   20.3910 C   0  0  0  0  0  0  0  0  0  0  0  0
  -20.9345  -25.8303   19.9044 C   0  0  0  0  0  0  0  0  0  1  0  0
  -25.7345  -31.9628   24.0714 C   0  0  1  0  0  0  0  0  0  0  0  0
  -23.6324  -35.0881   23.6431 C   0  0  2  0  0  0  0  0  0  0  0  0
  -20.0293  -24.8393   20.6807 C   0  0  0  0  0  0  0  0  0  0  0  0
  -26.5763  -31.7413   25.3596 C   0  0  0  0  0  0  0  0  0  0  0  0
  -24.4456  -15.6842   19.5379 N   0  0  0  0  0  0  0  0  0  0  0  0
  -20.7625  -22.7404   19.4105 N   0  0  0  0  0  0  0  0  0  0  0  0
  -23.6398  -16.7346   19.7688 N   0  0  0  0  0  0  0  0  0  0  0  0
  -18.9111  -21.9329   18.6520 N   0  3  0  0  0  0  0  0  0  0  0  0
  -25.9842  -30.6304   22.0010 N   0  0  0  0  0  0  0  0  0  0  0  0
  -25.0713  -20.2237   19.1091 N   0  0  0  0  0  0  0  0  0  0  0  0
  -21.7536  -17.4287   21.0223 N   0  0  0  0  0  0  0  0  0  0  0  0
  -22.3243  -13.1322   22.2913 N   0  0  0  0  0  0  0  0  0  0  0  0
  -28.3850  -28.3718   20.4418 N   0  0  0  0  0  0  0  0  0  0  0  0
  -25.2375  -33.3248   23.9091 N   0  0  0  0  0  0  0  0  0  0  0  0
  -24.2166  -21.8527   20.6434 N   0  0  0  0  0  0  0  0  0  0  0  0
  -22.4460  -35.3201   22.7715 N   0  3  0  0  0  0  0  0  0  0  0  0
  -21.0235  -14.9997   22.5726 O   0  0  0  0  0  0  0  0  0  0  0  0
  -27.3244  -28.5137   22.5100 O   0  0  0  0  0  0  0  0  0  0  0  0
  -27.5385  -32.2748   22.5632 O   0  0  0  0  0  0  0  0  0  0  0  0
  -22.9887  -32.7661   23.8197 O   0  0  0  0  0  0  0  0  0  0  0  0
  -26.1983  -22.1939   19.5170 O   0  0  0  0  0  0  0  0  0  0  0  0
  -26.2852   -9.6605   20.4763 O   0  0  0  0  0  0  0  0  0  0  0  0
  -21.1704  -27.0078   20.6752 O   0  0  0  0  0  0  0  0  0  1  0  0
  -22.9357   -5.2840   20.2997 F   0  0  0  0  0  0  0  0  0  0  0  0
  -24.3691   -9.2612   22.4286 F   0  0  0  0  0  0  0  0  0  0  0  0
  1  2  1  0  0  0  0
  1  5  2  0  0  0  0
  2  6  2  0  0  0  0
  3  8  2  0  0  0  0
  3 16  1  0  0  0  0
  4  9  1  0  0  0  0
  4 16  2  0  0  0  0
  5 18  1  0  0  0  0
  6 20  1  0  0  0  0
  7 10  2  0  0  0  0
  7 19  1  0  0  0  0
  8 22  1  0  0  0  0
  9 22  2  0  0  0  0
 10 23  1  0  0  0  0
 11 12  2  0  0  0  0
 11 24  1  0  0  0  0
 12 25  1  0  0  0  0
 13 21  1  0  0  0  0
 13 23  2  0  0  0  0
 14 25  2  0  0  0  0
 14 26  1  0  0  0  0
 15 28  2  0  0  0  0
 15 68  1  0  0  0  0
 16 27  1  0  0  0  0
 17 27  1  0  0  0  0
 17 29  2  0  0  0  0
 17 31  1  0  0  0  0
 18 20  2  0  0  0  0
 18 36  1  0  0  0  0
 19 21  2  0  0  0  0
 19 37  1  0  0  0  0
 20 45  1  0  0  0  0
 21 38  1  0  0  0  0
 22 82  1  0  0  0  0
 23 83  1  0  0  0  0
 24 26  2  0  0  0  0
 24 82  1  0  0  0  0
 25 84  1  0  0  0  0
 26 85  1  0  0  0  0
 27 65  2  0  0  0  0
 28 63  1  0  0  0  0
 28 66  1  0  0  0  0
 29 67  1  0  0  0  0
 29 71  1  0  0  0  0
 30 57  1  0  0  0  0
 30 66  1  0  0  0  0
 30 68  2  0  0  0  0
 31 72  1  0  0  0  0
 31 77  2  0  0  0  0
 32 46  1  0  0  0  0
 32 73  1  0  0  0  0
 32 78  2  0  0  0  0
 33 61  1  0  0  0  0
 33 69  1  0  0  0  0
 33 79  2  0  0  0  0
 34 62  1  0  0  0  0
 34 74  1  0  0  0  0
 34 80  2  0  0  0  0
 35 70  1  0  0  0  0
 35 75  1  0  0  0  0
 35 81  2  0  0  0  0
 36 39  1  0  0  0  0
 37 46  1  0  0  0  0
 38 69  1  0  0  0  0
 39 41  1  0  0  0  0
 40 42  1  0  0  0  0
 40 43  1  0  0  0  0
 41 45  1  0  0  0  0
 42 47  1  0  0  0  0
 43 70  1  0  0  0  0
 44 47  1  0  0  0  0
 44 70  1  0  0  0  0
 45 73  1  0  0  0  0
 46 69  1  0  0  0  0
 47 67  1  0  0  0  0
 48 57  1  0  0  0  0
 49 62  1  0  0  0  0
 50 63  1  0  0  0  0
 51 63  1  0  0  0  0
 52 64  1  0  0  0  0
 53 64  1  0  0  0  0
 54 64  1  0  0  0  0
 55 75  1  0  0  0  0
 56 76  1  0  0  0  0
 58 59  1  0  0  0  0
 58 66  1  0  0  0  0
 59 75  1  0  0  0  0
 60 63  1  0  0  0  0
 60 83  1  0  0  0  0
 61 64  1  0  0  0  0
 61 74  1  0  0  0  0
 62 76  1  0  0  0  0
 65 67  1  0  0  0  0
M  CHG  2  68   1  76   1
M  ISO  4  35 100  60 101  75 100  83 101
M  END
> <Batch ID>
0073

> <Smiles>
CCc1ncc(C(C)(C)[101CH2:1][101O:1]c2ccc3c(c2)CN(C(=O)C(NC(=O)C(C)NC)C(C)(C)C)C(C(=O)NC2CCCc4ccccc42)C3)n1CC[100N:0](C)[100C:0](=O)N1CCCC(n2nc(-c3ccc(Oc4ccc(F)cc4F)cc3)c(C(N)=O)c2N)C1

> <Shape>
0.237

> <Color>
0.079

> <Negative vol penalty>
0.000

$$$$

  -OEChem-04052318273D

 88 96  0     1  0  0  0  0  0999 V2000
  -28.3148  -25.6342   13.3977 C   0  0  0  0  0  0  0  0  0  0  0  0
  -27.6313  -25.1680   14.5161 C   0  0  0  0  0  0  0  0  0  0  0  0
  -29.6814  -17.1271   19.1886 C   0  0  0  0  0  0  0  0  0  0  0  0
  -28.0260  -17.8711   20.7834 C   0  0  0  0  0  0  0  0  0  0  0  0
  -29.3632  -26.5405   13.5505 C   0  0  0  0  0  0  0  0  0  0  0  0
  -27.9966  -25.6070   15.7882 C   0  0  0  0  0  0  0  0  0  0  0  0
  -23.9976  -26.8319   18.6434 C   0  0  0  0  0  0  0  0  0  0  0  0
  -29.8682  -18.4439   18.7683 C   0  0  0  0  0  0  0  0  0  0  0  0
  -28.2128  -19.1879   20.3630 C   0  0  0  0  0  0  0  0  0  0  0  0
  -23.2810  -25.7835   19.2188 C   0  0  0  0  0  0  0  0  0  0  0  0
  -30.4567  -21.6653   20.8613 C   0  0  0  0  0  0  0  0  0  0  0  0
  -30.5711  -22.6478   21.8447 C   0  0  0  0  0  0  0  0  0  0  0  0
  -24.4228  -26.1591   21.3104 C   0  0  0  0  0  0  0  0  0  0  0  0
  -28.6299  -23.7720   20.9474 C   0  0  0  0  0  0  0  0  0  0  0  0
  -28.7602  -16.8407   20.1962 C   0  0  0  0  0  0  0  0  0  0  0  0
  -29.5321  -14.6194   21.1850 C   0  0  0  0  0  0  0  0  0  0  0  0
  -29.7353  -26.9982   14.8244 C   0  0  0  0  0  0  0  0  0  0  0  0
  -24.9416  -27.5459   19.3953 C   0  0  0  0  0  0  0  0  0  0  0  0
  -29.0519  -26.5192   15.9583 C   0  0  0  0  0  0  0  0  0  0  0  0
  -25.1482  -27.2178   20.7428 C   0  0  0  0  0  0  0  0  0  0  0  0
  -21.9219  -19.5588   21.0182 C   0  0  0  0  0  0  0  0  0  0  0  0
  -29.1340  -19.4743   19.3555 C   0  0  0  0  0  0  0  0  0  0  0  0
  -23.4956  -25.4451   20.5517 C   0  0  0  0  0  0  0  0  0  0  0  0
  -29.4289  -21.7361   19.9209 C   0  0  0  0  0  0  0  0  0  0  0  0
  -29.6577  -23.7011   21.8878 C   0  0  0  0  0  0  0  0  0  0  0  0
  -28.5155  -22.7894   19.9639 C   0  0  0  0  0  0  0  0  0  0  0  0
  -28.5664  -15.4806   20.6305 C   0  0  0  0  0  0  0  0  0  0  0  0
  -23.0904  -18.8988   21.3400 C   0  0  0  0  0  0  0  0  0  0  0  0
  -20.7582  -18.9606   21.4566 C   0  0  0  0  0  0  0  0  0  0  0  0
  -28.8520  -13.4508   21.4264 C   0  0  0  0  0  0  0  0  0  0  0  0
  -21.9305  -17.2608   22.4071 C   0  0  0  0  0  0  0  0  0  0  0  0
  -30.9199  -14.8548   21.4577 C   0  0  0  0  0  0  0  0  0  0  0  0
  -28.0786  -28.0168   19.1929 C   0  0  0  0  0  0  0  0  0  0  0  0
  -27.5364  -30.0642   21.6499 C   0  0  0  0  0  0  0  0  0  0  0  0
  -23.0224  -12.3173   22.3448 C   0  0  0  0  0  0  0  0  0  0  0  0
  -25.5566  -30.9808   24.2742 C   0  0  0  0  0  0  0  0  0  0  0  0
  -30.9059  -27.9417   14.9434 C   0  0  0  0  0  0  0  0  0  0  0  0
  -25.6870  -28.6915   18.7674 C   0  0  0  0  0  0  0  0  0  0  0  0
  -26.1357  -27.9664   21.5989 C   0  0  0  0  0  0  0  0  0  0  0  0
  -30.9862  -28.6450   16.2959 C   0  0  0  0  0  0  0  0  0  0  0  0
  -25.1533  -10.8687   19.8546 C   0  0  0  0  0  0  0  0  0  0  0  0
  -30.7873  -27.6449   17.4303 C   0  0  0  0  0  0  0  0  0  0  0  0
  -26.3445  -11.8244   19.8014 C   0  0  0  0  0  0  0  0  0  0  0  0
  -23.8502  -11.6150   20.1231 C   0  0  0  0  0  0  0  0  0  0  0  0
  -25.0672  -13.4164   21.3045 C   0  0  0  0  0  0  0  0  0  0  0  0
  -29.4024  -26.9910   17.3528 C   0  0  1  0  0  0  0  0  0  0  0  0
  -26.9950  -29.0167   19.4821 C   0  0  1  0  0  0  0  0  0  0  0  0
  -26.4079  -12.6995   21.0658 C   0  0  2  0  0  0  0  0  0  0  0  0
  -24.4120  -19.4522   20.9186 C   0  0  0  0  0  0  0  0  0  0  0  0
  -18.3083  -18.9596   21.9899 C   0  0  0  0  0  0  0  0  0  0  0  0
  -25.3915  -32.6724   26.1205 C   0  0  0  0  0  0  0  0  0  0  0  0
  -20.9184  -14.3015   21.5547 C   0  0  0  0  0  0  0  0  0  0  0  0
  -29.7032  -28.5786   23.2015 C   0  0  0  0  0  0  0  0  0  0  0  0
  -28.8455  -29.6546   25.2931 C   0  0  0  0  0  0  0  0  0  0  0  0
  -29.7609  -31.0663   23.4514 C   0  0  0  0  0  0  0  0  0  0  0  0
  -22.9851  -32.0240   23.2456 C   0  0  0  0  0  0  0  0  0  0  0  0
  -21.9177  -20.8502   20.2398 C   0  0  0  0  0  0  0  0  0  0  0  0
  -19.4319  -19.5826   21.1668 C   0  0  0  0  0  0  0  0  0  0  0  0
  -21.9353  -15.9861   23.1808 C   0  0  0  0  0  0  0  0  0  0  0  0
  -22.3216  -22.0708   21.0696 C   0  0  0  0  0  0  0  0  0  0  0  0
  -22.3974  -23.3567   20.2547 C   0  0  0  0  0  0  0  0  0  1  0  0
  -27.5138  -29.9462   23.1547 C   0  0  1  0  0  0  0  0  0  0  0  0
  -24.9984  -32.3293   24.6920 C   0  0  2  0  0  0  0  0  0  0  0  0
  -22.1797  -14.7160   22.3224 C   0  0  1  0  0  0  0  0  0  0  0  0
  -22.7304  -13.5514   23.1607 C   0  0  0  0  0  0  0  0  0  0  0  0
  -28.9386  -29.7959   23.7588 C   0  0  0  0  0  0  0  0  0  0  0  0
  -27.3643  -14.9078   20.5255 N   0  0  0  0  0  0  0  0  0  0  0  0
  -23.1315  -17.7436   22.0358 N   0  0  0  0  0  0  0  0  0  0  0  0
  -20.7255  -17.8073   22.1559 N   0  0  0  0  0  0  0  0  0  0  0  0
  -27.5702  -13.6742   21.0174 N   0  0  0  0  0  0  0  0  0  0  0  0
  -26.8445  -29.0744   20.9375 N   0  0  0  0  0  0  0  0  0  0  0  0
  -23.9585  -12.4520   21.3193 N   0  0  0  0  0  0  0  0  0  0  0  0
  -29.2313  -12.2642   21.9465 N   0  0  0  0  0  0  0  0  0  0  0  0
  -31.2768  -15.3661   22.7129 N   0  0  0  0  0  0  0  0  0  0  0  0
  -28.3882  -27.8947   17.8518 N   0  0  0  0  0  0  0  0  0  0  0  0
  -26.7767  -31.1062   23.6441 N   0  0  0  0  0  0  0  0  0  0  0  0
  -23.5109  -32.3245   24.6022 N   0  3  0  0  0  0  0  0  0  0  0  0
  -31.8154  -14.6342   20.6074 O   0  0  0  0  0  0  0  0  0  0  0  0
  -28.5967  -27.4027   20.1183 O   0  0  0  0  0  0  0  0  0  0  0  0
  -28.1394  -31.0042   21.1260 O   0  0  0  0  0  0  0  0  0  0  0  0
  -22.4372  -11.2651   22.6143 O   0  0  0  0  0  0  0  0  0  0  0  0
  -24.9708  -29.9219   24.4889 O   0  0  0  0  0  0  0  0  0  0  0  0
  -29.3162  -20.7594   18.9457 O   0  0  0  0  0  0  0  0  0  0  0  0
  -22.7980  -24.4218   21.1157 O   0  0  0  0  0  0  0  0  0  1  0  0
  -29.7668  -24.6438   22.8331 F   0  0  0  0  0  0  0  0  0  0  0  0
  -27.5254  -22.8621   19.0639 F   0  0  0  0  0  0  0  0  0  0  0  0
  -21.8355  -13.2621   24.1458 F   0  0  0  0  0  0  0  0  0  0  0  0
  -23.8580  -13.9690   23.8005 F   0  0  0  0  0  0  0  0  0  0  0  0
  1  2  1  0  0  0  0
  1  5  2  0  0  0  0
  2  6  2  0  0  0  0
  3  8  2  0  0  0  0
  3 15  1  0  0  0  0
  4  9  1  0  0  0  0
  4 15  2  0  0  0  0
  5 17  1  0  0  0  0
  6 19  1  0  0  0  0
  7 10  2  0  0  0  0
  7 18  1  0  0  0  0
  8 22  1  0  0  0  0
  9 22  2  0  0  0  0
 10 23  1  0  0  0  0
 11 12  2  0  0  0  0
 11 24  1  0  0  0  0
 12 25  1  0  0  0  0
 13 20  1  0  0  0  0
 13 23  2  0  0  0  0
 14 25  2  0  0  0  0
 14 26  1  0  0  0  0
 15 27  1  0  0  0  0
 16 27  1  0  0  0  0
 16 30  2  0  0  0  0
 16 32  1  0  0  0  0
 17 19  2  0  0  0  0
 17 37  1  0  0  0  0
 18 20  2  0  0  0  0
 18 38  1  0  0  0  0
 19 46  1  0  0  0  0
 20 39  1  0  0  0  0
 21 28  1  0  0  0  0
 21 29  2  0  0  0  0
 21 57  1  0  0  0  0
 22 83  1  0  0  0  0
 23 84  1  0  0  0  0
 24 26  2  0  0  0  0
 24 83  1  0  0  0  0
 25 85  1  0  0  0  0
 26 86  1  0  0  0  0
 27 67  2  0  0  0  0
 28 49  1  0  0  0  0
 28 68  2  0  0  0  0
 29 58  1  0  0  0  0
 29 69  1  0  0  0  0
 30 70  1  0  0  0  0
 30 73  1  0  0  0  0
 31 59  1  0  0  0  0
 31 68  1  0  0  0  0
 31 69  2  0  0  0  0
 32 74  1  0  0  0  0
 32 78  2  0  0  0  0
 33 47  1  0  0  0  0
 33 75  1  0  0  0  0
 33 79  2  0  0  0  0
 34 62  1  0  0  0  0
 34 71  1  0  0  0  0
 34 80  2  0  0  0  0
 35 65  1  0  0  0  0
 35 72  1  0  0  0  0
 35 81  2  0  0  0  0
 36 63  1  0  0  0  0
 36 76  1  0  0  0  0
 36 82  2  0  0  0  0
 37 40  1  0  0  0  0
 38 47  1  0  0  0  0
 39 71  1  0  0  0  0
 40 42  1  0  0  0  0
 41 43  1  0  0  0  0
 41 44  1  0  0  0  0
 42 46  1  0  0  0  0
 43 48  1  0  0  0  0
 44 72  1  0  0  0  0
 45 48  1  0  0  0  0
 45 72  1  0  0  0  0
 46 75  1  0  0  0  0
 47 71  1  0  0  0  0
 48 70  1  0  0  0  0
 50 58  1  0  0  0  0
 51 63  1  0  0  0  0
 52 64  1  0  0  0  0
 53 66  1  0  0  0  0
 54 66  1  0  0  0  0
 55 66  1  0  0  0  0
 56 77  1  0  0  0  0
 57 60  1  0  0  0  0
 59 64  1  0  0  0  0
 60 61  1  0  0  0  0
 61 84  1  0  0  0  0
 62 66  1  0  0  0  0
 62 76  1  0  0  0  0
 63 77  1  0  0  0  0
 64 65  1  0  0  0  0
 65 87  1  0  0  0  0
 65 88  1  0  0  0  0
 67 70  1  0  0  0  0
M  CHG  1  77   1
M  ISO  4  35 100  61 101  65 100  84 101
M  END
> <Batch ID>
0073

> <Smiles>
CCc1nc(CC(C)[100C:0](F)(F)[100C:0](=O)N2CCCC(n3nc(-c4ccc(Oc5ccc(F)cc5F)cc4)c(C(N)=O)c3N)C2)nc(C)c1CC[101CH2:1][101O:1]c1ccc2c(c1)CN(C(=O)C(NC(=O)C(C)NC)C(C)(C)C)C(C(=O)NC1CCCc3ccccc31)C2

> <Shape>
0.230

> <Color>
0.065

> <Negative vol penalty>
0.000

$$$$

  -OEChem-04052318273D

 88 96  0     1  0  0  0  0  0999 V2000
  -39.8400  -18.8365    8.9307 C   0  0  0  0  0  0  0  0  0  0  0  0
  -38.8032  -18.5119    9.7997 C   0  0  0  0  0  0  0  0  0  0  0  0
  -23.0266   -9.9094   19.9506 C   0  0  0  0  0  0  0  0  0  0  0  0
  -23.7407   -9.9212   22.2586 C   0  0  0  0  0  0  0  0  0  0  0  0
  -39.6235  -19.7491    7.8991 C   0  0  0  0  0  0  0  0  0  0  0  0
  -37.5495  -19.1007    9.6383 C   0  0  0  0  0  0  0  0  0  0  0  0
  -33.7669  -15.7578   10.0398 C   0  0  0  0  0  0  0  0  0  0  0  0
  -22.2649   -8.7662   20.1920 C   0  0  0  0  0  0  0  0  0  0  0  0
  -22.9789   -8.7779   22.5001 C   0  0  0  0  0  0  0  0  0  0  0  0
  -33.4052  -15.3569   11.3252 C   0  0  0  0  0  0  0  0  0  0  0  0
  -23.2430   -5.4497   21.9673 C   0  0  0  0  0  0  0  0  0  0  0  0
  -23.8324   -4.4217   22.7031 C   0  0  0  0  0  0  0  0  0  0  0  0
  -31.5474  -16.8949   11.2754 C   0  0  0  0  0  0  0  0  0  0  0  0
  -22.0994   -4.6244   24.3742 C   0  0  0  0  0  0  0  0  0  0  0  0
  -23.7646  -10.4869   20.9839 C   0  0  0  0  0  0  0  0  0  0  0  0
  -24.1375  -13.0073   20.8566 C   0  0  0  0  0  0  0  0  0  0  0  0
  -38.3639  -20.3421    7.7191 C   0  0  0  0  0  0  0  0  0  0  0  0
  -33.0268  -16.7397    9.3657 C   0  0  0  0  0  0  0  0  0  0  0  0
  -37.3164  -20.0232    8.6042 C   0  0  0  0  0  0  0  0  0  0  0  0
  -31.9003  -17.3046    9.9806 C   0  0  0  0  0  0  0  0  0  0  0  0
  -31.8622  -17.1986   17.1589 C   0  0  0  0  0  0  0  0  0  0  0  0
  -22.2409   -8.2005   21.4668 C   0  0  0  0  0  0  0  0  0  0  0  0
  -32.2970  -15.9276   11.9444 C   0  0  0  0  0  0  0  0  0  0  0  0
  -22.0819   -6.0651   22.4349 C   0  0  0  0  0  0  0  0  0  0  0  0
  -23.2606   -4.0090   23.9066 C   0  0  0  0  0  0  0  0  0  0  0  0
  -21.5100   -5.6524   23.6384 C   0  0  0  0  0  0  0  0  0  0  0  0
  -24.5522  -11.6675   20.7350 C   0  0  0  0  0  0  0  0  0  0  0  0
  -32.6951  -17.7422   18.1156 C   0  0  0  0  0  0  0  0  0  0  0  0
  -30.5669  -16.9518   17.5657 C   0  0  0  0  0  0  0  0  0  0  0  0
  -25.2451  -13.7423   20.5111 C   0  0  0  0  0  0  0  0  0  0  0  0
  -31.0174  -17.7408   19.6493 C   0  0  0  0  0  0  0  0  0  0  0  0
  -22.8648  -13.5398   21.2472 C   0  0  0  0  0  0  0  0  0  0  0  0
  -33.6612  -19.6378    8.2245 C   0  0  0  0  0  0  0  0  0  0  0  0
  -30.6518  -19.4030    7.0367 C   0  0  0  0  0  0  0  0  0  0  0  0
  -27.5530  -17.9900    7.2549 C   0  0  0  0  0  0  0  0  0  0  0  0
  -30.7352  -14.7007   20.8035 C   0  0  0  0  0  0  0  0  0  0  0  0
  -38.1908  -21.3588    6.6186 C   0  0  0  0  0  0  0  0  0  0  0  0
  -33.4143  -17.1419    7.9691 C   0  0  0  0  0  0  0  0  0  0  0  0
  -31.0605  -18.3480    9.2918 C   0  0  0  0  0  0  0  0  0  0  0  0
  -36.7304  -21.6547    6.2870 C   0  0  0  0  0  0  0  0  0  0  0  0
  -29.6184  -12.3153   18.4078 C   0  0  0  0  0  0  0  0  0  0  0  0
  -35.9271  -21.8766    7.5646 C   0  0  0  0  0  0  0  0  0  0  0  0
  -28.1694  -12.0403   18.8135 C   0  0  0  0  0  0  0  0  0  0  0  0
  -30.5139  -12.5327   19.6255 C   0  0  0  0  0  0  0  0  0  0  0  0
  -28.5933  -13.2932   20.9697 C   0  0  0  0  0  0  0  0  0  0  0  0
  -35.9356  -20.6221    8.4465 C   0  0  1  0  0  0  0  0  0  0  0  0
  -32.8920  -18.5208    7.5777 C   0  0  1  0  0  0  0  0  0  0  0  0
  -27.6409  -13.1228   19.7738 C   0  0  2  0  0  0  0  0  0  0  0  0
  -34.9484  -18.3409   19.0378 C   0  0  0  0  0  0  0  0  0  0  0  0
  -28.1451  -16.4607   17.1411 C   0  0  0  0  0  0  0  0  0  0  0  0
  -25.2914  -18.0243    6.1681 C   0  0  0  0  0  0  0  0  0  0  0  0
  -29.0290  -18.4161   21.1615 C   0  0  0  0  0  0  0  0  0  0  0  0
  -31.3109  -19.2817   21.6082 C   0  0  0  0  0  0  0  0  0  0  0  0
  -30.0425  -22.0668    8.3944 C   0  0  0  0  0  0  0  0  0  0  0  0
  -27.6045  -21.5826    8.0941 C   0  0  0  0  0  0  0  0  0  0  0  0
  -29.0817  -21.8223    6.0984 C   0  0  0  0  0  0  0  0  0  0  0  0
  -27.7282  -15.1252    6.5330 C   0  0  0  0  0  0  0  0  0  0  0  0
  -32.3365  -16.8961   15.7599 C   0  0  0  0  0  0  0  0  0  0  0  0
  -34.1192  -18.0525   17.7900 C   0  0  0  0  0  0  0  0  0  0  0  0
  -29.5748  -16.3635   16.6172 C   0  0  0  0  0  0  0  0  0  0  0  0
  -32.5934  -15.4094   15.5047 C   0  0  0  0  0  0  0  0  0  0  0  0
  -30.8008  -16.8575   22.0294 C   0  0  0  0  0  0  0  0  0  0  0  0
  -32.9897  -15.1036   14.0650 C   0  0  0  0  0  0  0  0  0  1  0  0
  -29.2730  -19.7547    7.5409 C   0  0  1  0  0  0  0  0  0  0  0  0
  -26.6579  -17.3579    6.2043 C   0  0  2  0  0  0  0  0  0  0  0  0
  -30.5475  -18.0444   21.0315 C   0  0  0  0  0  0  0  0  0  0  0  0
  -29.0172  -21.2883    7.5459 C   0  0  0  0  0  0  0  0  0  0  0  0
  -25.8239  -11.5550   20.3426 N   0  0  0  0  0  0  0  0  0  0  0  0
  -32.3044  -18.0270   19.3751 N   0  0  0  0  0  0  0  0  0  0  0  0
  -30.1089  -17.2114   18.8080 N   0  0  0  0  0  0  0  0  0  0  0  0
  -26.2179  -12.8335   20.2147 N   0  0  0  0  0  0  0  0  0  0  0  0
  -31.4836  -18.7126    7.9296 N   0  0  0  0  0  0  0  0  0  0  0  0
  -29.9575  -13.5725   20.4946 N   0  0  0  0  0  0  0  0  0  0  0  0
  -25.4720  -15.0709   20.4349 N   0  0  0  0  0  0  0  0  0  0  0  0
  -21.8361  -12.6441   21.5692 N   0  0  0  0  0  0  0  0  0  0  0  0
  -35.0113  -19.6353    7.9303 N   0  0  0  0  0  0  0  0  0  0  0  0
  -28.3334  -18.9949    6.7234 N   0  0  0  0  0  0  0  0  0  0  0  0
  -30.1300  -15.6410   21.6282 N   0  0  0  0  0  0  0  0  0  0  0  0
  -26.4664  -15.9081    6.4913 N   0  3  0  0  0  0  0  0  0  0  0  0
  -22.6415  -14.7733   21.2929 O   0  0  0  0  0  0  0  0  0  0  0  0
  -33.0730  -20.4433    8.9365 O   0  0  0  0  0  0  0  0  0  0  0  0
  -30.9763  -19.7227    5.8903 O   0  0  0  0  0  0  0  0  0  0  0  0
  -27.5567  -17.6309    8.4303 O   0  0  0  0  0  0  0  0  0  0  0  0
  -31.8819  -14.8607   20.3717 O   0  0  0  0  0  0  0  0  0  0  0  0
  -21.4975   -7.0850   21.7028 O   0  0  0  0  0  0  0  0  0  0  0  0
  -31.9421  -15.5386   13.1992 O   0  0  0  0  0  0  0  0  0  1  0  0
  -23.8258   -3.0208   24.6123 F   0  0  0  0  0  0  0  0  0  0  0  0
  -20.3939   -6.2390   24.0922 F   0  0  0  0  0  0  0  0  0  0  0  0
  1  2  1  0  0  0  0
  1  5  2  0  0  0  0
  2  6  2  0  0  0  0
  3  8  2  0  0  0  0
  3 15  1  0  0  0  0
  4  9  1  0  0  0  0
  4 15  2  0  0  0  0
  5 17  1  0  0  0  0
  6 19  1  0  0  0  0
  7 10  2  0  0  0  0
  7 18  1  0  0  0  0
  8 22  1  0  0  0  0
  9 22  2  0  0  0  0
 10 23  1  0  0  0  0
 11 12  2  0  0  0  0
 11 24  1  0  0  0  0
 12 25  1  0  0  0  0
 13 20  1  0  0  0  0
 13 23  2  0  0  0  0
 14 25  2  0  0  0  0
 14 26  1  0  0  0  0
 15 27  1  0  0  0  0
 16 27  1  0  0  0  0
 16 30  2  0  0  0  0
 16 32  1  0  0  0  0
 17 19  2  0  0  0  0
 17 37  1  0  0  0  0
 18 20  2  0  0  0  0
 18 38  1  0  0  0  0
 19 46  1  0  0  0  0
 20 39  1  0  0  0  0
 21 28  2  0  0  0  0
 21 29  1  0  0  0  0
 21 58  1  0  0  0  0
 22 85  1  0  0  0  0
 23 86  1  0  0  0  0
 24 26  2  0  0  0  0
 24 85  1  0  0  0  0
 25 87  1  0  0  0  0
 26 88  1  0  0  0  0
 27 68  2  0  0  0  0
 28 59  1  0  0  0  0
 28 69  1  0  0  0  0
 29 60  1  0  0  0  0
 29 70  2  0  0  0  0
 30 71  1  0  0  0  0
 30 74  1  0  0  0  0
 31 66  1  0  0  0  0
 31 69  2  0  0  0  0
 31 70  1  0  0  0  0
 32 75  1  0  0  0  0
 32 80  2  0  0  0  0
 33 47  1  0  0  0  0
 33 76  1  0  0  0  0
 33 81  2  0  0  0  0
 34 64  1  0  0  0  0
 34 72  1  0  0  0  0
 34 82  2  0  0  0  0
 35 65  1  0  0  0  0
 35 77  1  0  0  0  0
 35 83  2  0  0  0  0
 36 73  1  0  0  0  0
 36 78  1  0  0  0  0
 36 84  2  0  0  0  0
 37 40  1  0  0  0  0
 38 47  1  0  0  0  0
 39 72  1  0  0  0  0
 40 42  1  0  0  0  0
 41 43  1  0  0  0  0
 41 44  1  0  0  0  0
 42 46  1  0  0  0  0
 43 48  1  0  0  0  0
 44 73  1  0  0  0  0
 45 48  1  0  0  0  0
 45 73  1  0  0  0  0
 46 76  1  0  0  0  0
 47 72  1  0  0  0  0
 48 71  1  0  0  0  0
 49 59  1  0  0  0  0
 50 60  1  0  0  0  0
 51 65  1  0  0  0  0
 52 66  1  0  0  0  0
 53 66  1  0  0  0  0
 54 67  1  0  0  0  0
 55 67  1  0  0  0  0
 56 67  1  0  0  0  0
 57 79  1  0  0  0  0
 58 61  1  0  0  0  0
 61 63  1  0  0  0  0
 62 66  1  0  0  0  0
 62 78  1  0  0  0  0
 63 86  1  0  0  0  0
 64 67  1  0  0  0  0
 64 77  1  0  0  0  0
 65 79  1  0  0  0  0
 68 71  1  0  0  0  0
M  CHG  1  79   1
M  ISO  4  36 100  63 101  78 100  86 101
M  END
> <Batch ID>
0073

> <Smiles>
CCc1nc(C(C)(C)C[100NH:0][100C:0](=O)N2CCCC(n3nc(-c4ccc(Oc5ccc(F)cc5F)cc4)c(C(N)=O)c3N)C2)nc(CC)c1CC[101CH2:1][101O:1]c1ccc2c(c1)CN(C(=O)C(NC(=O)C(C)NC)C(C)(C)C)C(C(=O)NC1CCCc3ccccc31)C2

> <Shape>
0.186

> <Color>
0.190

> <Negative vol penalty>
0.000

$$$$

  -OEChem-04052318273D

 90 98  0     1  0  0  0  0  0999 V2000
  -16.9748  -29.1934   24.6815 C   0  0  0  0  0  0  0  0  0  0  0  0
  -17.5957  -28.1294   24.0351 C   0  0  0  0  0  0  0  0  0  0  0  0
  -24.3363  -13.5958   23.9869 C   0  0  0  0  0  0  0  0  0  0  0  0
  -24.1076  -15.4531   22.4587 C   0  0  0  0  0  0  0  0  0  0  0  0
  -17.3287  -30.5037   24.3625 C   0  0  0  0  0  0  0  0  0  0  0  0
  -18.5702  -28.3751   23.0684 C   0  0  0  0  0  0  0  0  0  0  0  0
  -22.6257  -25.3884   23.5950 C   0  0  0  0  0  0  0  0  0  0  0  0
  -23.8282  -14.3833   25.0200 C   0  0  0  0  0  0  0  0  0  0  0  0
  -23.5995  -16.2406   23.4919 C   0  0  0  0  0  0  0  0  0  0  0  0
  -22.5136  -24.0760   23.1379 C   0  0  0  0  0  0  0  0  0  0  0  0
  -21.9047  -18.6308   25.6442 C   0  0  0  0  0  0  0  0  0  0  0  0
  -20.7775  -19.4070   25.3748 C   0  0  0  0  0  0  0  0  0  0  0  0
  -23.6847  -24.6855   21.1189 C   0  0  0  0  0  0  0  0  0  0  0  0
  -19.5290  -17.4087   24.8408 C   0  0  0  0  0  0  0  0  0  0  0  0
  -24.4760  -14.1307   22.7062 C   0  0  0  0  0  0  0  0  0  0  0  0
  -24.2718  -12.5008   20.7545 C   0  0  0  0  0  0  0  0  0  0  0  0
  -18.3149  -30.7654   23.3984 C   0  0  0  0  0  0  0  0  0  0  0  0
  -23.2596  -26.3633   22.8113 C   0  0  0  0  0  0  0  0  0  0  0  0
  -18.9367  -29.6902   22.7353 C   0  0  0  0  0  0  0  0  0  0  0  0
  -23.8058  -26.0089   21.5694 C   0  0  0  0  0  0  0  0  0  0  0  0
  -23.4598  -15.7056   24.7725 C   0  0  0  0  0  0  0  0  0  0  0  0
  -23.0405  -23.7251   21.8985 C   0  0  0  0  0  0  0  0  0  0  0  0
  -21.8441  -17.2435   25.5118 C   0  0  0  0  0  0  0  0  0  0  0  0
  -19.5897  -18.7960   24.9731 C   0  0  0  0  0  0  0  0  0  0  0  0
  -20.6563  -16.6325   25.1101 C   0  0  0  0  0  0  0  0  0  0  0  0
  -25.0013  -13.3180   21.6387 C   0  0  0  0  0  0  0  0  0  0  0  0
  -26.7635  -17.8214   17.8612 C   0  0  0  0  0  0  0  0  0  0  0  0
  -26.4887  -17.7921   19.2081 C   0  0  0  0  0  0  0  0  0  0  0  0
  -25.2242  -11.9453   19.9355 C   0  0  0  0  0  0  0  0  0  0  0  0
  -28.3570  -16.7198   18.7431 C   0  0  0  0  0  0  0  0  0  0  0  0
  -22.8595  -12.2651   20.6800 C   0  0  0  0  0  0  0  0  0  0  0  0
  -22.3508  -29.0909   21.4556 C   0  0  0  0  0  0  0  0  0  0  0  0
  -25.5052  -29.3332   20.7389 C   0  0  0  0  0  0  0  0  0  0  0  0
  -30.7430  -13.7571   18.3952 C   0  0  0  0  0  0  0  0  0  0  0  0
  -28.4886  -27.7581   20.2244 C   0  0  0  0  0  0  0  0  0  0  0  0
  -18.6303  -32.1994   23.0533 C   0  0  0  0  0  0  0  0  0  0  0  0
  -23.3959  -27.7684   23.3304 C   0  0  0  0  0  0  0  0  0  0  0  0
  -24.5137  -27.0135   20.6988 C   0  0  0  0  0  0  0  0  0  0  0  0
  -19.9391  -32.3675   22.2859 C   0  0  0  0  0  0  0  0  0  0  0  0
  -29.8156  -10.6283   19.8753 C   0  0  0  0  0  0  0  0  0  0  0  0
  -20.0288  -31.3491   21.1538 C   0  0  0  0  0  0  0  0  0  0  0  0
  -28.4213  -10.8976   20.4399 C   0  0  0  0  0  0  0  0  0  0  0  0
  -30.7085  -11.8606   19.9816 C   0  0  0  0  0  0  0  0  0  0  0  0
  -28.7385  -13.3558   19.9093 C   0  0  0  0  0  0  0  0  0  0  0  0
  -20.0160  -29.9158   21.6988 C   0  0  1  0  0  0  0  0  0  0  0  0
  -23.6084  -28.7964   22.2233 C   0  0  1  0  0  0  0  0  0  0  0  0
  -27.7947  -12.1458   19.7934 C   0  0  2  0  0  0  0  0  0  0  0  0
  -25.9867  -18.4524   16.7825 C   0  0  0  0  0  0  0  0  0  0  0  0
  -30.7830  -16.8320   19.4330 C   0  0  0  0  0  0  0  0  0  0  0  0
  -30.8795  -28.2173   19.6159 C   0  0  0  0  0  0  0  0  0  0  0  0
  -27.9594  -19.0275   24.3621 C   0  0  0  0  0  0  0  0  0  0  0  0
  -29.1900  -16.9370   23.7485 C   0  0  0  0  0  0  0  0  0  0  0  0
  -30.9388  -15.5839   16.7656 C   0  0  0  0  0  0  0  0  0  0  0  0
  -28.7812  -14.3616   17.1099 C   0  0  0  0  0  0  0  0  0  0  0  0
  -24.6848  -29.7332   17.8274 C   0  0  0  0  0  0  0  0  0  0  0  0
  -27.0477  -29.2358   17.1660 C   0  0  0  0  0  0  0  0  0  0  0  0
  -26.5458  -31.2145   18.5998 C   0  0  0  0  0  0  0  0  0  0  0  0
  -29.4739  -26.6606   22.7903 C   0  0  0  0  0  0  0  0  0  0  0  0
  -25.3530  -18.3679   20.0159 C   0  0  0  0  0  0  0  0  0  0  0  0
  -25.2108  -19.8886   19.8878 C   0  0  0  0  0  0  0  0  0  0  0  0
  -24.1039  -20.4631   20.7730 C   0  0  0  0  0  0  0  0  0  0  0  0
  -27.7379  -18.0410   22.0213 C   0  0  0  0  0  0  0  0  0  0  0  0
  -27.6888  -16.7761   21.1619 C   0  0  0  0  0  0  0  0  0  0  0  0
  -23.9660  -21.9683   20.5895 C   0  0  0  0  0  0  0  0  0  1  0  0
  -29.5888  -15.9387   18.9792 C   0  0  2  0  0  0  0  0  0  0  0  0
  -26.3768  -28.8933   19.5875 C   0  0  1  0  0  0  0  0  0  0  0  0
  -29.8830  -28.0446   20.7516 C   0  0  2  0  0  0  0  0  0  0  0  0
  -27.9131  -17.7500   23.5226 C   0  0  0  0  0  0  0  0  0  0  0  0
  -30.0181  -14.9457   17.8159 C   0  0  0  0  0  0  0  0  0  0  0  0
  -26.1488  -29.7505   18.3105 C   0  0  0  0  0  0  0  0  0  0  0  0
  -26.3158  -13.2871   21.4037 N   0  0  0  0  0  0  0  0  0  0  0  0
  -27.9277  -17.1519   17.5782 N   0  0  0  0  0  0  0  0  0  0  0  0
  -27.5181  -17.0827   19.7598 N   0  0  0  0  0  0  0  0  0  0  0  0
  -26.4198  -12.4438   20.3625 N   0  0  0  0  0  0  0  0  0  0  0  0
  -24.6159  -28.3759   21.2474 N   0  0  0  0  0  0  0  0  0  0  0  0
  -30.0685  -13.0297   19.3760 N   0  0  0  0  0  0  0  0  0  0  0  0
  -25.1473  -11.0839   18.8989 N   0  0  0  0  0  0  0  0  0  0  0  0
  -22.0241  -12.9164   21.5978 N   0  0  0  0  0  0  0  0  0  0  0  0
  -21.3142  -29.5675   22.2352 N   0  0  0  0  0  0  0  0  0  0  0  0
  -27.7487  -28.9130   20.0833 N   0  0  0  0  0  0  0  0  0  0  0  0
  -30.3487  -26.9259   21.6193 N   0  3  0  0  0  0  0  0  0  0  0  0
  -22.3550  -11.4869   19.8355 O   0  0  0  0  0  0  0  0  0  0  0  0
  -22.3235  -28.9013   20.2452 O   0  0  0  0  0  0  0  0  0  0  0  0
  -25.6146  -30.4816   21.1759 O   0  0  0  0  0  0  0  0  0  0  0  0
  -31.8739  -13.4831   17.9850 O   0  0  0  0  0  0  0  0  0  0  0  0
  -28.0964  -26.6236   19.9603 O   0  0  0  0  0  0  0  0  0  0  0  0
  -22.9638  -16.4742   25.7804 O   0  0  0  0  0  0  0  0  0  0  0  0
  -22.9319  -22.4450   21.4497 O   0  0  0  0  0  0  0  0  0  1  0  0
  -18.5069  -19.5413   24.7160 F   0  0  0  0  0  0  0  0  0  0  0  0
  -20.5916  -15.3001   24.9823 F   0  0  0  0  0  0  0  0  0  0  0  0
  1  2  1  0  0  0  0
  1  5  2  0  0  0  0
  2  6  2  0  0  0  0
  3  8  2  0  0  0  0
  3 15  1  0  0  0  0
  4  9  1  0  0  0  0
  4 15  2  0  0  0  0
  5 17  1  0  0  0  0
  6 19  1  0  0  0  0
  7 10  2  0  0  0  0
  7 18  1  0  0  0  0
  8 21  1  0  0  0  0
  9 21  2  0  0  0  0
 10 22  1  0  0  0  0
 11 12  2  0  0  0  0
 11 23  1  0  0  0  0
 12 24  1  0  0  0  0
 13 20  1  0  0  0  0
 13 22  2  0  0  0  0
 14 24  2  0  0  0  0
 14 25  1  0  0  0  0
 15 26  1  0  0  0  0
 16 26  1  0  0  0  0
 16 29  2  0  0  0  0
 16 31  1  0  0  0  0
 17 19  2  0  0  0  0
 17 36  1  0  0  0  0
 18 20  2  0  0  0  0
 18 37  1  0  0  0  0
 19 45  1  0  0  0  0
 20 38  1  0  0  0  0
 21 87  1  0  0  0  0
 22 88  1  0  0  0  0
 23 25  2  0  0  0  0
 23 87  1  0  0  0  0
 24 89  1  0  0  0  0
 25 90  1  0  0  0  0
 26 71  2  0  0  0  0
 27 28  2  0  0  0  0
 27 48  1  0  0  0  0
 27 72  1  0  0  0  0
 28 59  1  0  0  0  0
 28 73  1  0  0  0  0
 29 74  1  0  0  0  0
 29 77  1  0  0  0  0
 30 65  1  0  0  0  0
 30 72  2  0  0  0  0
 30 73  1  0  0  0  0
 31 78  1  0  0  0  0
 31 82  2  0  0  0  0
 32 46  1  0  0  0  0
 32 79  1  0  0  0  0
 32 83  2  0  0  0  0
 33 66  1  0  0  0  0
 33 75  1  0  0  0  0
 33 84  2  0  0  0  0
 34 69  1  0  0  0  0
 34 76  1  0  0  0  0
 34 85  2  0  0  0  0
 35 67  1  0  0  0  0
 35 80  1  0  0  0  0
 35 86  2  0  0  0  0
 36 39  1  0  0  0  0
 37 46  1  0  0  0  0
 38 75  1  0  0  0  0
 39 41  1  0  0  0  0
 40 42  1  0  0  0  0
 40 43  1  0  0  0  0
 41 45  1  0  0  0  0
 42 47  1  0  0  0  0
 43 76  1  0  0  0  0
 44 47  1  0  0  0  0
 44 76  1  0  0  0  0
 45 79  1  0  0  0  0
 46 75  1  0  0  0  0
 47 74  1  0  0  0  0
 49 65  1  0  0  0  0
 50 67  1  0  0  0  0
 51 68  1  0  0  0  0
 52 68  1  0  0  0  0
 53 69  1  0  0  0  0
 54 69  1  0  0  0  0
 55 70  1  0  0  0  0
 56 70  1  0  0  0  0
 57 70  1  0  0  0  0
 58 81  1  0  0  0  0
 59 60  1  0  0  0  0
 60 61  1  0  0  0  0
 61 64  1  0  0  0  0
 62 63  1  0  0  0  0
 62 68  1  0  0  0  0
 63 73  1  0  0  0  0
 64 88  1  0  0  0  0
 65 69  1  0  0  0  0
 66 70  1  0  0  0  0
 66 80  1  0  0  0  0
 67 81  1  0  0  0  0
 71 74  1  0  0  0  0
M  CHG  1  81   1
M  ISO  4  34 100  64 101  69 100  88 101
M  END
> <Batch ID>
0073

> <Smiles>
CNC(C)C(=O)NC(C(=O)N1Cc2cc([101O:1][101CH2:1]CCCc3c(C)nc(C(C)[100C:0](C)(C)[100C:0](=O)N4CCCC(n5nc(-c6ccc(Oc7ccc(F)cc7F)cc6)c(C(N)=O)c5N)C4)n3CCC(C)C)ccc2CC1C(=O)NC1CCCc2ccccc21)C(C)(C)C

> <Shape>
0.205

> <Color>
0.096

> <Negative vol penalty>
0.000

$$$$

  -OEChem-04052318273D

 84 92  0     1  0  0  0  0  0999 V2000
  -27.2164  -23.6003   18.1424 C   0  0  0  0  0  0  0  0  0  0  0  0
  -26.0356  -24.1362   18.6464 C   0  0  0  0  0  0  0  0  0  0  0  0
  -26.7381  -14.6453   21.6255 C   0  0  0  0  0  0  0  0  0  0  0  0
  -26.3461  -14.7304   19.2431 C   0  0  0  0  0  0  0  0  0  0  0  0
  -28.4366  -23.9279   18.7320 C   0  0  0  0  0  0  0  0  0  0  0  0
  -26.0743  -24.9992   19.7410 C   0  0  0  0  0  0  0  0  0  0  0  0
  -23.1164  -29.0620   19.1173 C   0  0  0  0  0  0  0  0  0  0  0  0
  -26.5573  -13.2623   21.6059 C   0  0  0  0  0  0  0  0  0  0  0  0
  -26.1654  -13.3474   19.2234 C   0  0  0  0  0  0  0  0  0  0  0  0
  -21.7468  -28.8884   19.3118 C   0  0  0  0  0  0  0  0  0  0  0  0
  -23.7226  -11.1428   19.9999 C   0  0  0  0  0  0  0  0  0  0  0  0
  -22.6416  -10.6408   19.2754 C   0  0  0  0  0  0  0  0  0  0  0  0
  -21.9471  -29.8328   21.5225 C   0  0  0  0  0  0  0  0  0  0  0  0
  -24.1609   -9.3832   17.8799 C   0  0  0  0  0  0  0  0  0  0  0  0
  -19.1166  -25.7678   21.8775 C   0  0  0  0  0  0  0  0  0  0  0  0
  -26.6324  -15.3793   20.4441 C   0  0  0  0  0  0  0  0  0  0  0  0
  -28.0259  -17.5105   20.2902 C   0  0  0  0  0  0  0  0  0  0  0  0
  -28.4912  -24.8029   19.8283 C   0  0  0  0  0  0  0  0  0  0  0  0
  -23.9148  -29.6132   20.1298 C   0  0  0  0  0  0  0  0  0  0  0  0
  -27.2963  -25.3377   20.3466 C   0  0  0  0  0  0  0  0  0  0  0  0
  -23.3261  -30.0148   21.3374 C   0  0  0  0  0  0  0  0  0  0  0  0
  -18.2528  -26.7118   21.3606 C   0  0  0  0  0  0  0  0  0  0  0  0
  -26.2711  -12.6134   20.4048 C   0  0  0  0  0  0  0  0  0  0  0  0
  -21.1624  -29.2711   20.5156 C   0  0  0  0  0  0  0  0  0  0  0  0
  -25.0228  -10.7652   19.6644 C   0  0  0  0  0  0  0  0  0  0  0  0
  -22.8607   -9.7610   18.2154 C   0  0  0  0  0  0  0  0  0  0  0  0
  -25.2419   -9.8854   18.6045 C   0  0  0  0  0  0  0  0  0  0  0  0
  -26.8184  -16.8080   20.4639 C   0  0  0  0  0  0  0  0  0  0  0  0
  -17.5748  -26.3385   20.2181 C   0  0  0  0  0  0  0  0  0  0  0  0
  -27.6716  -18.8334   20.3949 C   0  0  0  0  0  0  0  0  0  0  0  0
  -18.5918  -24.3056   20.2180 C   0  0  0  0  0  0  0  0  0  0  0  0
  -29.3495  -17.0119   20.0551 C   0  0  0  0  0  0  0  0  0  0  0  0
  -26.3773  -28.5829   21.8556 C   0  0  0  0  0  0  0  0  0  0  0  0
  -26.3950  -31.6400   22.9403 C   0  0  0  0  0  0  0  0  0  0  0  0
  -24.6674  -34.5339   23.4766 C   0  0  0  0  0  0  0  0  0  0  0  0
  -22.5774  -21.6344   19.3658 C   0  0  0  0  0  0  0  0  0  0  0  0
  -29.8294  -25.0903   20.4619 C   0  0  0  0  0  0  0  0  0  0  0  0
  -25.3861  -29.8186   19.8943 C   0  0  0  0  0  0  0  0  0  0  0  0
  -24.1359  -30.6302   22.4483 C   0  0  0  0  0  0  0  0  0  0  0  0
  -29.8182  -26.3071   21.3836 C   0  0  0  0  0  0  0  0  0  0  0  0
  -24.4407  -21.6921   22.4677 C   0  0  0  0  0  0  0  0  0  0  0  0
  -28.6097  -26.2615   22.3132 C   0  0  0  0  0  0  0  0  0  0  0  0
  -25.3818  -20.5008   22.2795 C   0  0  0  0  0  0  0  0  0  0  0  0
  -23.0631  -21.4072   21.8768 C   0  0  0  0  0  0  0  0  0  0  0  0
  -24.0186  -19.8220   20.2495 C   0  0  0  0  0  0  0  0  0  0  0  0
  -27.2995  -26.2970   21.5171 C   0  0  1  0  0  0  0  0  0  0  0  0
  -26.1904  -29.9155   21.1870 C   0  0  1  0  0  0  0  0  0  0  0  0
  -25.4348  -20.0561   20.8059 C   0  0  2  0  0  0  0  0  0  0  0  0
  -16.6130  -27.2792   19.5702 C   0  0  0  0  0  0  0  0  0  0  0  0
  -17.5142  -27.9179   23.4417 C   0  0  0  0  0  0  0  0  0  0  0  0
  -24.9400  -36.8461   24.4130 C   0  0  0  0  0  0  0  0  0  0  0  0
  -26.2853  -30.5043   25.7701 C   0  0  0  0  0  0  0  0  0  0  0  0
  -25.6086  -32.7745   26.5802 C   0  0  0  0  0  0  0  0  0  0  0  0
  -27.8276  -32.4525   25.4870 C   0  0  0  0  0  0  0  0  0  0  0  0
  -24.0242  -35.7889   20.8747 C   0  0  0  0  0  0  0  0  0  0  0  0
  -18.7794  -22.9690   19.5836 C   0  0  0  0  0  0  0  0  0  0  0  0
  -19.7087  -22.9711   18.3537 C   0  0  0  0  0  0  0  0  0  0  0  0
  -21.1150  -23.4989   18.6296 C   0  0  0  0  0  0  0  0  0  0  0  0
  -19.3868  -28.8703   22.0461 C   0  0  0  0  0  0  0  0  0  1  0  0
  -18.0787  -28.0678   22.0263 C   0  0  1  0  0  0  0  0  0  0  0  0
  -25.7292  -32.3742   24.0790 C   0  0  1  0  0  0  0  0  0  0  0  0
  -25.0042  -35.9807   23.1641 C   0  0  2  0  0  0  0  0  0  0  0  0
  -26.3475  -32.0130   25.4591 C   0  0  0  0  0  0  0  0  0  0  0  0
  -19.3112  -24.5502   21.3298 N   0  0  0  0  0  0  0  0  0  0  0  0
  -25.7750  -17.6176   20.6640 N   0  0  0  0  0  0  0  0  0  0  0  0
  -17.7207  -25.1391   19.6178 N   0  0  0  0  0  0  0  0  0  0  0  0
  -26.3259  -18.8425   20.6167 N   0  0  0  0  0  0  0  0  0  0  0  0
  -25.5715  -30.8045   22.1724 N   0  0  0  0  0  0  0  0  0  0  0  0
  -23.1825  -21.0072   20.4676 N   0  0  0  0  0  0  0  0  0  0  0  0
  -28.3830  -19.9781   20.3180 N   0  0  0  0  0  0  0  0  0  0  0  0
  -29.5367  -15.6252   19.9755 N   0  0  0  0  0  0  0  0  0  0  0  0
  -27.0167  -27.6437   21.0691 N   0  0  0  0  0  0  0  0  0  0  0  0
  -25.7986  -33.7929   23.7460 N   0  0  0  0  0  0  0  0  0  0  0  0
  -21.7963  -22.7456   19.6588 N   0  0  0  0  0  0  0  0  0  0  0  0
  -24.0480  -36.5303   22.1618 N   0  3  0  0  0  0  0  0  0  0  0  0
  -30.3395  -17.7729   19.9360 O   0  0  0  0  0  0  0  0  0  0  0  0
  -25.9728  -28.4195   23.0007 O   0  0  0  0  0  0  0  0  0  0  0  0
  -27.5998  -31.8073   22.7351 O   0  0  0  0  0  0  0  0  0  0  0  0
  -23.5157  -34.1049   23.4849 O   0  0  0  0  0  0  0  0  0  0  0  0
  -22.7265  -21.2366   18.2053 O   0  0  0  0  0  0  0  0  0  0  0  0
  -26.0949  -11.2639   20.3852 O   0  0  0  0  0  0  0  0  0  0  0  0
  -19.8259  -29.1021   20.7083 O   0  0  0  0  0  0  0  0  0  1  0  0
  -21.8225   -9.2777   17.5207 F   0  0  0  0  0  0  0  0  0  0  0  0
  -26.4887   -9.5180   18.2782 F   0  0  0  0  0  0  0  0  0  0  0  0
  1  2  1  0  0  0  0
  1  5  2  0  0  0  0
  2  6  2  0  0  0  0
  3  8  2  0  0  0  0
  3 16  1  0  0  0  0
  4  9  1  0  0  0  0
  4 16  2  0  0  0  0
  5 18  1  0  0  0  0
  6 20  1  0  0  0  0
  7 10  2  0  0  0  0
  7 19  1  0  0  0  0
  8 23  1  0  0  0  0
  9 23  2  0  0  0  0
 10 24  1  0  0  0  0
 11 12  2  0  0  0  0
 11 25  1  0  0  0  0
 12 26  1  0  0  0  0
 13 21  1  0  0  0  0
 13 24  2  0  0  0  0
 14 26  2  0  0  0  0
 14 27  1  0  0  0  0
 15 22  1  0  0  0  0
 15 64  2  0  0  0  0
 16 28  1  0  0  0  0
 17 28  1  0  0  0  0
 17 30  2  0  0  0  0
 17 32  1  0  0  0  0
 18 20  2  0  0  0  0
 18 37  1  0  0  0  0
 19 21  2  0  0  0  0
 19 38  1  0  0  0  0
 20 46  1  0  0  0  0
 21 39  1  0  0  0  0
 22 29  2  0  0  0  0
 22 60  1  0  0  0  0
 23 81  1  0  0  0  0
 24 82  1  0  0  0  0
 25 27  2  0  0  0  0
 25 81  1  0  0  0  0
 26 83  1  0  0  0  0
 27 84  1  0  0  0  0
 28 65  2  0  0  0  0
 29 49  1  0  0  0  0
 29 66  1  0  0  0  0
 30 67  1  0  0  0  0
 30 70  1  0  0  0  0
 31 56  1  0  0  0  0
 31 64  1  0  0  0  0
 31 66  2  0  0  0  0
 32 71  1  0  0  0  0
 32 76  2  0  0  0  0
 33 47  1  0  0  0  0
 33 72  1  0  0  0  0
 33 77  2  0  0  0  0
 34 61  1  0  0  0  0
 34 68  1  0  0  0  0
 34 78  2  0  0  0  0
 35 62  1  0  0  0  0
 35 73  1  0  0  0  0
 35 79  2  0  0  0  0
 36 69  1  0  0  0  0
 36 74  1  0  0  0  0
 36 80  2  0  0  0  0
 37 40  1  0  0  0  0
 38 47  1  0  0  0  0
 39 68  1  0  0  0  0
 40 42  1  0  0  0  0
 41 43  1  0  0  0  0
 41 44  1  0  0  0  0
 42 46  1  0  0  0  0
 43 48  1  0  0  0  0
 44 69  1  0  0  0  0
 45 48  1  0  0  0  0
 45 69  1  0  0  0  0
 46 72  1  0  0  0  0
 47 68  1  0  0  0  0
 48 67  1  0  0  0  0
 50 60  1  0  0  0  0
 51 62  1  0  0  0  0
 52 63  1  0  0  0  0
 53 63  1  0  0  0  0
 54 63  1  0  0  0  0
 55 75  1  0  0  0  0
 56 57  1  0  0  0  0
 57 58  1  0  0  0  0
 58 74  1  0  0  0  0
 59 60  1  0  0  0  0
 59 82  1  0  0  0  0
 61 63  1  0  0  0  0
 61 73  1  0  0  0  0
 62 75  1  0  0  0  0
 65 67  1  0  0  0  0
M  CHG  1  75   1
M  ISO  4  36 100  59 101  74 100  82 101
M  END
> <Batch ID>
0073

> <Smiles>
CNC(C)C(=O)NC(C(=O)N1Cc2cc([101O:1][101CH2:1]C(C)c3cnc(CCC[100NH:0][100C:0](=O)N4CCCC(n5nc(-c6ccc(Oc7ccc(F)cc7F)cc6)c(C(N)=O)c5N)C4)nc3C)ccc2CC1C(=O)NC1CCCc2ccccc21)C(C)(C)C

> <Shape>
0.271

> <Color>
0.085

> <Negative vol penalty>
0.000

$$$$

  -OEChem-04052318273D

 83 91  0     1  0  0  0  0  0999 V2000
  -28.6600  -23.2920   18.8642 C   0  0  0  0  0  0  0  0  0  0  0  0
  -27.4213  -23.6634   19.3770 C   0  0  0  0  0  0  0  0  0  0  0  0
  -24.2069   -9.6193   21.7169 C   0  0  0  0  0  0  0  0  0  0  0  0
  -22.0859  -10.2904   20.7745 C   0  0  0  0  0  0  0  0  0  0  0  0
  -29.8225  -23.8854   19.3545 C   0  0  0  0  0  0  0  0  0  0  0  0
  -27.3444  -24.6278   20.3813 C   0  0  0  0  0  0  0  0  0  0  0  0
  -23.6896  -28.0289   19.5329 C   0  0  0  0  0  0  0  0  0  0  0  0
  -23.8305   -8.2804   21.6107 C   0  0  0  0  0  0  0  0  0  0  0  0
  -21.7095   -8.9514   20.6682 C   0  0  0  0  0  0  0  0  0  0  0  0
  -22.3807  -27.6408   19.8154 C   0  0  0  0  0  0  0  0  0  0  0  0
  -21.8799   -6.1001   23.3035 C   0  0  0  0  0  0  0  0  0  0  0  0
  -22.1256   -5.2699   24.3971 C   0  0  0  0  0  0  0  0  0  0  0  0
  -22.4878  -28.8277   21.9128 C   0  0  0  0  0  0  0  0  0  0  0  0
  -23.5292   -3.8684   23.0176 C   0  0  0  0  0  0  0  0  0  0  0  0
  -22.6505  -22.1061   22.0993 C   0  0  0  0  0  0  0  0  0  0  0  0
  -23.3346  -10.6243   21.2988 C   0  0  0  0  0  0  0  0  0  0  0  0
  -24.3957  -12.7810   20.4441 C   0  0  0  0  0  0  0  0  0  0  0  0
  -29.7591  -24.8645   20.3584 C   0  0  0  0  0  0  0  0  0  0  0  0
  -24.4125  -28.8115   20.4448 C   0  0  0  0  0  0  0  0  0  0  0  0
  -28.5072  -25.2339   20.8864 C   0  0  0  0  0  0  0  0  0  0  0  0
  -23.8049  -29.2265   21.6384 C   0  0  0  0  0  0  0  0  0  0  0  0
  -22.5818   -7.9465   21.0864 C   0  0  0  0  0  0  0  0  0  0  0  0
  -21.7806  -28.0378   21.0068 C   0  0  0  0  0  0  0  0  0  0  0  0
  -22.4587   -5.8144   22.0669 C   0  0  0  0  0  0  0  0  0  0  0  0
  -22.9503   -4.1540   24.2541 C   0  0  0  0  0  0  0  0  0  0  0  0
  -23.2834   -4.6986   21.9240 C   0  0  0  0  0  0  0  0  0  0  0  0
  -23.7226  -12.0076   21.4088 C   0  0  0  0  0  0  0  0  0  0  0  0
  -21.2903  -22.0062   22.4236 C   0  0  0  0  0  0  0  0  0  0  0  0
  -24.5273  -14.0179   21.0265 C   0  0  0  0  0  0  0  0  0  0  0  0
  -24.8603  -12.4141   19.1383 C   0  0  0  0  0  0  0  0  0  0  0  0
  -27.0788  -28.4076   22.1274 C   0  0  0  0  0  0  0  0  0  0  0  0
  -22.2893  -18.2421   23.9312 C   0  0  0  0  0  0  0  0  0  0  0  0
  -26.5900  -31.5162   22.9148 C   0  0  0  0  0  0  0  0  0  0  0  0
  -24.3946  -34.1054   23.2652 C   0  0  0  0  0  0  0  0  0  0  0  0
  -31.0463  -25.4436   20.8899 C   0  0  0  0  0  0  0  0  0  0  0  0
  -25.8144  -29.2441   20.1131 C   0  0  0  0  0  0  0  0  0  0  0  0
  -24.5309  -30.0840   22.6414 C   0  0  0  0  0  0  0  0  0  0  0  0
  -30.8512  -26.7281   21.6914 C   0  0  0  0  0  0  0  0  0  0  0  0
  -23.7297  -15.5307   25.7787 C   0  0  0  0  0  0  0  0  0  0  0  0
  -29.7039  -26.5688   22.6840 C   0  0  0  0  0  0  0  0  0  0  0  0
  -23.8834  -14.4261   24.7340 C   0  0  0  0  0  0  0  0  0  0  0  0
  -22.4770  -16.3647   25.5294 C   0  0  0  0  0  0  0  0  0  0  0  0
  -22.5544  -15.8488   23.1108 C   0  0  0  0  0  0  0  0  0  0  0  0
  -28.3811  -26.2942   21.9588 C   0  0  1  0  0  0  0  0  0  0  0  0
  -26.6338  -29.6116   21.3463 C   0  0  1  0  0  0  0  0  0  0  0  0
  -23.8241  -15.0018   23.3080 C   0  0  2  0  0  0  0  0  0  0  0  0
  -24.2838  -36.5136   23.9623 C   0  0  0  0  0  0  0  0  0  0  0  0
  -26.7849  -30.6754   25.8414 C   0  0  0  0  0  0  0  0  0  0  0  0
  -25.7438  -32.8646   26.4673 C   0  0  0  0  0  0  0  0  0  0  0  0
  -27.9444  -32.8224   25.2934 C   0  0  0  0  0  0  0  0  0  0  0  0
  -17.8145  -24.5194   19.8505 C   0  0  0  0  0  0  0  0  0  0  0  0
  -17.3178  -24.0147   22.2469 C   0  0  0  0  0  0  0  0  0  0  0  0
  -23.4460  -34.9556   20.5938 C   0  0  0  0  0  0  0  0  0  0  0  0
  -20.2610  -23.1018   22.5646 C   0  0  0  0  0  0  0  0  0  0  0  0
  -22.2720  -18.6921   22.4920 C   0  0  0  0  0  0  0  0  0  0  0  0
  -19.5592  -23.3833   21.2289 C   0  0  0  0  0  0  0  0  0  0  0  0
  -19.0020  -25.8312   21.6763 C   0  0  0  0  0  0  0  0  0  0  0  0
  -20.0617  -26.4152   20.7447 C   0  0  0  0  0  0  0  0  0  1  0  0
  -25.8448  -32.2365   24.0125 C   0  0  1  0  0  0  0  0  0  0  0  0
  -24.4568  -35.5489   22.7995 C   0  0  2  0  0  0  0  0  0  0  0  0
  -26.5662  -32.1320   25.3858 C   0  0  0  0  0  0  0  0  0  0  0  0
  -18.4232  -24.4504   21.2673 C   0  0  0  0  0  0  0  0  0  0  0  0
  -23.2024  -20.8896   22.0808 N   0  0  0  0  0  0  0  0  0  0  0  0
  -23.4460  -12.6955   22.5198 N   0  0  0  0  0  0  0  0  0  0  0  0
  -20.9628  -20.7250   22.6134 N   0  0  0  0  0  0  0  0  0  0  0  0
  -23.9479  -13.9141   22.2568 N   0  0  0  0  0  0  0  0  0  0  0  0
  -22.1438  -20.1251   22.3939 N   0  0  0  0  0  0  0  0  0  0  0  0
  -25.9018  -30.4759   22.2744 N   0  0  0  0  0  0  0  0  0  0  0  0
  -22.4471  -16.8747   24.1575 N   0  0  0  0  0  0  0  0  0  0  0  0
  -25.0810  -15.1732   20.6011 N   0  0  0  0  0  0  0  0  0  0  0  0
  -24.6427  -11.1022   18.6958 N   0  0  0  0  0  0  0  0  0  0  0  0
  -27.8470  -27.5180   21.4007 N   0  0  0  0  0  0  0  0  0  0  0  0
  -25.6485  -33.6039   23.5432 N   0  0  0  0  0  0  0  0  0  0  0  0
  -23.3830  -35.8181   21.8018 N   0  3  0  0  0  0  0  0  0  0  0  0
  -25.4655  -13.2210   18.3926 O   0  0  0  0  0  0  0  0  0  0  0  0
  -26.7508  -28.2948   23.3027 O   0  0  0  0  0  0  0  0  0  0  0  0
  -22.1691  -19.0827   24.8262 O   0  0  0  0  0  0  0  0  0  0  0  0
  -27.7376  -31.8683   22.6311 O   0  0  0  0  0  0  0  0  0  0  0  0
  -23.3388  -33.4860   23.3752 O   0  0  0  0  0  0  0  0  0  0  0  0
  -22.2143   -6.6401   20.9824 O   0  0  0  0  0  0  0  0  0  0  0  0
  -20.5033  -27.6598   21.2853 O   0  0  0  0  0  0  0  0  0  1  0  0
  -23.1875   -3.3577   25.3048 F   0  0  0  0  0  0  0  0  0  0  0  0
  -23.8432   -4.4197   20.7388 F   0  0  0  0  0  0  0  0  0  0  0  0
  1  2  1  0  0  0  0
  1  5  2  0  0  0  0
  2  6  2  0  0  0  0
  3  8  2  0  0  0  0
  3 16  1  0  0  0  0
  4  9  1  0  0  0  0
  4 16  2  0  0  0  0
  5 18  1  0  0  0  0
  6 20  1  0  0  0  0
  7 10  2  0  0  0  0
  7 19  1  0  0  0  0
  8 22  1  0  0  0  0
  9 22  2  0  0  0  0
 10 23  1  0  0  0  0
 11 12  2  0  0  0  0
 11 24  1  0  0  0  0
 12 25  1  0  0  0  0
 13 21  1  0  0  0  0
 13 23  2  0  0  0  0
 14 25  2  0  0  0  0
 14 26  1  0  0  0  0
 15 28  1  0  0  0  0
 15 63  2  0  0  0  0
 16 27  1  0  0  0  0
 17 27  1  0  0  0  0
 17 29  2  0  0  0  0
 17 30  1  0  0  0  0
 18 20  2  0  0  0  0
 18 35  1  0  0  0  0
 19 21  2  0  0  0  0
 19 36  1  0  0  0  0
 20 44  1  0  0  0  0
 21 37  1  0  0  0  0
 22 80  1  0  0  0  0
 23 81  1  0  0  0  0
 24 26  2  0  0  0  0
 24 80  1  0  0  0  0
 25 82  1  0  0  0  0
 26 83  1  0  0  0  0
 27 64  2  0  0  0  0
 28 54  1  0  0  0  0
 28 65  2  0  0  0  0
 29 66  1  0  0  0  0
 29 70  1  0  0  0  0
 30 71  1  0  0  0  0
 30 75  2  0  0  0  0
 31 45  1  0  0  0  0
 31 72  1  0  0  0  0
 31 76  2  0  0  0  0
 32 55  1  0  0  0  0
 32 69  1  0  0  0  0
 32 77  2  0  0  0  0
 33 59  1  0  0  0  0
 33 68  1  0  0  0  0
 33 78  2  0  0  0  0
 34 60  1  0  0  0  0
 34 73  1  0  0  0  0
 34 79  2  0  0  0  0
 35 38  1  0  0  0  0
 36 45  1  0  0  0  0
 37 68  1  0  0  0  0
 38 40  1  0  0  0  0
 39 41  1  0  0  0  0
 39 42  1  0  0  0  0
 40 44  1  0  0  0  0
 41 46  1  0  0  0  0
 42 69  1  0  0  0  0
 43 46  1  0  0  0  0
 43 69  1  0  0  0  0
 44 72  1  0  0  0  0
 45 68  1  0  0  0  0
 46 66  1  0  0  0  0
 47 60  1  0  0  0  0
 48 61  1  0  0  0  0
 49 61  1  0  0  0  0
 50 61  1  0  0  0  0
 51 62  1  0  0  0  0
 52 62  1  0  0  0  0
 53 74  1  0  0  0  0
 54 56  1  0  0  0  0
 55 67  1  0  0  0  0
 56 62  1  0  0  0  0
 57 58  1  0  0  0  0
 57 62  1  0  0  0  0
 58 81  1  0  0  0  0
 59 61  1  0  0  0  0
 59 73  1  0  0  0  0
 60 74  1  0  0  0  0
 63 67  1  0  0  0  0
 64 66  1  0  0  0  0
 65 67  1  0  0  0  0
M  CHG  1  74   1
M  ISO  4  32 100  55 100  58 101  81 101
M  END
> <Batch ID>
0073

> <Smiles>
CNC(C)C(=O)NC(C(=O)N1Cc2cc([101O:1][101CH2:1]CC(C)(C)CCc3cnn([100CH2:0][100C:0](=O)N4CCCC(n5nc(-c6ccc(Oc7ccc(F)cc7F)cc6)c(C(N)=O)c5N)C4)n3)ccc2CC1C(=O)NC1CCCc2ccccc21)C(C)(C)C

> <Shape>
0.271

> <Color>
0.103

> <Negative vol penalty>
0.000

$$$$

  -OEChem-04052318273D

 85 93  0     1  0  0  0  0  0999 V2000
  -34.3463  -15.4027   24.1090 C   0  0  0  0  0  0  0  0  0  0  0  0
  -33.4604  -16.2867   24.7164 C   0  0  0  0  0  0  0  0  0  0  0  0
  -27.7238  -23.8525   18.5993 C   0  0  0  0  0  0  0  0  0  0  0  0
  -26.6607  -23.1073   20.6368 C   0  0  0  0  0  0  0  0  0  0  0  0
  -34.1057  -14.9593   22.8092 C   0  0  0  0  0  0  0  0  0  0  0  0
  -32.3338  -16.7289   24.0238 C   0  0  0  0  0  0  0  0  0  0  0  0
  -25.5282  -18.6867   25.1042 C   0  0  0  0  0  0  0  0  0  0  0  0
  -28.6522  -22.8169   18.7049 C   0  0  0  0  0  0  0  0  0  0  0  0
  -27.5891  -22.0716   20.7424 C   0  0  0  0  0  0  0  0  0  0  0  0
  -24.6515  -19.7343   24.8252 C   0  0  0  0  0  0  0  0  0  0  0  0
  -31.0822  -20.1527   18.2439 C   0  0  0  0  0  0  0  0  0  0  0  0
  -31.3729  -19.4224   17.0917 C   0  0  0  0  0  0  0  0  0  0  0  0
  -24.2959  -18.8396   22.6134 C   0  0  0  0  0  0  0  0  0  0  0  0
  -29.0540  -18.7653   16.9233 C   0  0  0  0  0  0  0  0  0  0  0  0
  -20.0809  -27.3341   23.5496 C   0  0  0  0  0  0  0  0  0  0  0  0
  -26.7281  -23.9978   19.5653 C   0  0  0  0  0  0  0  0  0  0  0  0
  -24.5268  -25.0322   18.7960 C   0  0  0  0  0  0  0  0  0  0  0  0
  -32.9705  -15.3887   22.1039 C   0  0  0  0  0  0  0  0  0  0  0  0
  -25.8041  -17.7121   24.1345 C   0  0  0  0  0  0  0  0  0  0  0  0
  -32.0784  -16.2920   22.7129 C   0  0  0  0  0  0  0  0  0  0  0  0
  -25.1744  -17.7793   22.8834 C   0  0  0  0  0  0  0  0  0  0  0  0
  -28.5848  -21.9264   19.7764 C   0  0  0  0  0  0  0  0  0  0  0  0
  -24.0375  -19.8125   23.5786 C   0  0  0  0  0  0  0  0  0  0  0  0
  -29.7775  -20.1893   18.7360 C   0  0  0  0  0  0  0  0  0  0  0  0
  -30.3588  -18.7287   16.4314 C   0  0  0  0  0  0  0  0  0  0  0  0
  -28.7634  -19.4956   18.0756 C   0  0  0  0  0  0  0  0  0  0  0  0
  -25.7692  -25.0677   19.4571 C   0  0  0  0  0  0  0  0  0  0  0  0
  -19.3457  -28.4439   23.2167 C   0  0  0  0  0  0  0  0  0  0  0  0
  -24.0024  -26.2878   18.9827 C   0  0  0  0  0  0  0  0  0  0  0  0
  -23.9024  -23.9599   18.0775 C   0  0  0  0  0  0  0  0  0  0  0  0
  -28.4149  -16.7580   22.5927 C   0  0  0  0  0  0  0  0  0  0  0  0
  -26.4283  -14.4626   21.4495 C   0  0  0  0  0  0  0  0  0  0  0  0
  -23.2364  -13.4822   20.7441 C   0  0  0  0  0  0  0  0  0  0  0  0
  -22.8997  -30.6623   22.2681 C   0  0  0  0  0  0  0  0  0  0  0  0
  -32.7775  -14.9191   20.6837 C   0  0  0  0  0  0  0  0  0  0  0  0
  -26.7315  -16.5736   24.4603 C   0  0  0  0  0  0  0  0  0  0  0  0
  -25.4214  -16.7469   21.8149 C   0  0  0  0  0  0  0  0  0  0  0  0
  -31.3630  -15.1427   20.1551 C   0  0  0  0  0  0  0  0  0  0  0  0
  -26.1304  -30.5105   20.7793 C   0  0  0  0  0  0  0  0  0  0  0  0
  -30.8858  -16.5530   20.4868 C   0  0  0  0  0  0  0  0  0  0  0  0
  -26.2241  -29.0769   20.2540 C   0  0  0  0  0  0  0  0  0  0  0  0
  -25.3699  -30.5784   22.1018 C   0  0  0  0  0  0  0  0  0  0  0  0
  -24.1269  -28.5217   21.5550 C   0  0  0  0  0  0  0  0  0  0  0  0
  -30.8322  -16.7750   22.0032 C   0  0  1  0  0  0  0  0  0  0  0  0
  -27.3360  -15.9217   23.2205 C   0  0  1  0  0  0  0  0  0  0  0  0
  -24.8368  -28.4096   20.1949 C   0  0  2  0  0  0  0  0  0  0  0  0
  -21.9313  -11.5676   19.7805 C   0  0  0  0  0  0  0  0  0  0  0  0
  -20.4107  -30.1468   24.8484 C   0  0  0  0  0  0  0  0  0  0  0  0
  -18.2803  -30.6666   23.6879 C   0  0  0  0  0  0  0  0  0  0  0  0
  -27.2888  -15.2921   18.6421 C   0  0  0  0  0  0  0  0  0  0  0  0
  -25.3071  -14.0533   17.7441 C   0  0  0  0  0  0  0  0  0  0  0  0
  -27.0875  -12.8230   18.9847 C   0  0  0  0  0  0  0  0  0  0  0  0
  -21.7562  -13.0669   23.2730 C   0  0  0  0  0  0  0  0  0  0  0  0
  -21.3987  -23.0490   22.5422 C   0  0  0  0  0  0  0  0  0  0  0  0
  -21.0593  -24.5381   22.4492 C   0  0  0  0  0  0  0  0  0  0  0  0
  -22.7500  -22.7458   21.8883 C   0  0  0  0  0  0  0  0  0  0  0  0
  -19.6907  -24.8349   23.0663 C   0  0  0  0  0  0  0  0  0  0  0  0
  -20.4212  -30.5946   22.3742 C   0  0  0  0  0  0  0  0  0  0  0  0
  -23.0981  -21.2633   21.9451 C   0  0  0  0  0  0  0  0  0  1  0  0
  -25.5128  -14.3387   20.2555 C   0  0  1  0  0  0  0  0  0  0  0  0
  -22.4867  -12.1977   21.0482 C   0  0  2  0  0  0  0  0  0  0  0  0
  -19.6161  -29.8561   23.5157 C   0  0  0  0  0  0  0  0  0  0  0  0
  -26.2957  -14.1474   18.9259 C   0  0  0  0  0  0  0  0  0  0  0  0
  -26.0193  -26.2522   20.0214 N   0  0  0  0  0  0  0  0  0  0  0  0
  -18.2371  -28.0660   22.5113 N   0  0  0  0  0  0  0  0  0  0  0  0
  -18.2591  -26.7428   22.3944 N   0  0  0  0  0  0  0  0  0  0  0  0
  -19.3653  -26.3059   23.0178 N   0  0  0  0  0  0  0  0  0  0  0  0
  -24.9268  -26.9726   19.7154 N   0  0  0  0  0  0  0  0  0  0  0  0
  -26.3410  -15.6565   22.1794 N   0  0  0  0  0  0  0  0  0  0  0  0
  -24.0624  -29.9296   21.9777 N   0  0  0  0  0  0  0  0  0  0  0  0
  -22.8455  -26.8620   18.5899 N   0  0  0  0  0  0  0  0  0  0  0  0
  -24.5792  -22.7363   17.9822 N   0  0  0  0  0  0  0  0  0  0  0  0
  -29.6546  -16.1482   22.5643 N   0  0  0  0  0  0  0  0  0  0  0  0
  -24.5846  -13.2562   20.5634 N   0  0  0  0  0  0  0  0  0  0  0  0
  -21.7020  -29.9740   22.1188 N   0  0  0  0  0  0  0  0  0  0  0  0
  -21.3515  -12.4676   21.9753 N   0  3  0  0  0  0  0  0  0  0  0  0
  -22.7850  -24.0884   17.5221 O   0  0  0  0  0  0  0  0  0  0  0  0
  -28.1425  -17.8733   22.1642 O   0  0  0  0  0  0  0  0  0  0  0  0
  -27.1875  -13.5313   21.7286 O   0  0  0  0  0  0  0  0  0  0  0  0
  -22.6810  -14.5760   20.6701 O   0  0  0  0  0  0  0  0  0  0  0  0
  -22.9268  -31.8441   22.6281 O   0  0  0  0  0  0  0  0  0  0  0  0
  -29.4904  -20.9155   19.8796 O   0  0  0  0  0  0  0  0  0  0  0  0
  -23.1819  -20.8343   23.3035 O   0  0  0  0  0  0  0  0  0  1  0  0
  -30.6377  -18.0286   15.3240 F   0  0  0  0  0  0  0  0  0  0  0  0
  -27.5078  -19.5280   18.5428 F   0  0  0  0  0  0  0  0  0  0  0  0
  1  2  1  0  0  0  0
  1  5  2  0  0  0  0
  2  6  2  0  0  0  0
  3  8  2  0  0  0  0
  3 16  1  0  0  0  0
  4  9  1  0  0  0  0
  4 16  2  0  0  0  0
  5 18  1  0  0  0  0
  6 20  1  0  0  0  0
  7 10  2  0  0  0  0
  7 19  1  0  0  0  0
  8 22  1  0  0  0  0
  9 22  2  0  0  0  0
 10 23  1  0  0  0  0
 11 12  2  0  0  0  0
 11 24  1  0  0  0  0
 12 25  1  0  0  0  0
 13 21  1  0  0  0  0
 13 23  2  0  0  0  0
 14 25  2  0  0  0  0
 14 26  1  0  0  0  0
 15 28  2  0  0  0  0
 15 67  1  0  0  0  0
 16 27  1  0  0  0  0
 17 27  1  0  0  0  0
 17 29  2  0  0  0  0
 17 30  1  0  0  0  0
 18 20  2  0  0  0  0
 18 35  1  0  0  0  0
 19 21  2  0  0  0  0
 19 36  1  0  0  0  0
 20 44  1  0  0  0  0
 21 37  1  0  0  0  0
 22 82  1  0  0  0  0
 23 83  1  0  0  0  0
 24 26  2  0  0  0  0
 24 82  1  0  0  0  0
 25 84  1  0  0  0  0
 26 85  1  0  0  0  0
 27 64  2  0  0  0  0
 28 62  1  0  0  0  0
 28 65  1  0  0  0  0
 29 68  1  0  0  0  0
 29 71  1  0  0  0  0
 30 72  1  0  0  0  0
 30 77  2  0  0  0  0
 31 45  1  0  0  0  0
 31 73  1  0  0  0  0
 31 78  2  0  0  0  0
 32 60  1  0  0  0  0
 32 69  1  0  0  0  0
 32 79  2  0  0  0  0
 33 61  1  0  0  0  0
 33 74  1  0  0  0  0
 33 80  2  0  0  0  0
 34 70  1  0  0  0  0
 34 75  1  0  0  0  0
 34 81  2  0  0  0  0
 35 38  1  0  0  0  0
 36 45  1  0  0  0  0
 37 69  1  0  0  0  0
 38 40  1  0  0  0  0
 39 41  1  0  0  0  0
 39 42  1  0  0  0  0
 40 44  1  0  0  0  0
 41 46  1  0  0  0  0
 42 70  1  0  0  0  0
 43 46  1  0  0  0  0
 43 70  1  0  0  0  0
 44 73  1  0  0  0  0
 45 69  1  0  0  0  0
 46 68  1  0  0  0  0
 47 61  1  0  0  0  0
 48 62  1  0  0  0  0
 49 62  1  0  0  0  0
 50 63  1  0  0  0  0
 51 63  1  0  0  0  0
 52 63  1  0  0  0  0
 53 76  1  0  0  0  0
 54 55  1  0  0  0  0
 54 56  1  0  0  0  0
 55 57  1  0  0  0  0
 56 59  1  0  0  0  0
 57 67  1  0  0  0  0
 58 62  1  0  0  0  0
 58 75  1  0  0  0  0
 59 83  1  0  0  0  0
 60 63  1  0  0  0  0
 60 74  1  0  0  0  0
 61 76  1  0  0  0  0
 64 68  1  0  0  0  0
 65 66  2  0  0  0  0
 66 67  1  0  0  0  0
M  CHG  1  76   1
M  ISO  4  34 100  59 101  75 100  83 101
M  END
> <Batch ID>
0073

> <Smiles>
CNC(C)C(=O)NC(C(=O)N1Cc2cc([101O:1][101CH2:1]CCCCn3cc(C(C)(C)C[100NH:0][100C:0](=O)N4CCCC(n5nc(-c6ccc(Oc7ccc(F)cc7F)cc6)c(C(N)=O)c5N)C4)nn3)ccc2CC1C(=O)NC1CCCc2ccccc21)C(C)(C)C

> <Shape>
0.239

> <Color>
0.082

> <Negative vol penalty>
0.000

$$$$

  -OEChem-04052318273D

 84 92  0     1  0  0  0  0  0999 V2000
  -34.4674   -6.6866   38.1296 C   0  0  0  0  0  0  0  0  0  0  0  0
  -34.5659   -6.5766   36.7462 C   0  0  0  0  0  0  0  0  0  0  0  0
  -23.1895   -9.8188   19.9313 C   0  0  0  0  0  0  0  0  0  0  0  0
  -23.5648   -9.9995   22.3111 C   0  0  0  0  0  0  0  0  0  0  0  0
  -33.2429   -6.4685   38.7596 C   0  0  0  0  0  0  0  0  0  0  0  0
  -33.4402   -6.2473   35.9922 C   0  0  0  0  0  0  0  0  0  0  0  0
  -32.0591   -8.2496   30.3717 C   0  0  0  0  0  0  0  0  0  0  0  0
  -22.4221   -8.6728   20.1393 C   0  0  0  0  0  0  0  0  0  0  0  0
  -22.7973   -8.8535   22.5192 C   0  0  0  0  0  0  0  0  0  0  0  0
  -32.2203   -7.6828   29.1082 C   0  0  0  0  0  0  0  0  0  0  0  0
  -23.1963   -5.5064   22.2564 C   0  0  0  0  0  0  0  0  0  0  0  0
  -23.6928   -4.5449   23.1365 C   0  0  0  0  0  0  0  0  0  0  0  0
  -29.9463   -6.8815   29.1841 C   0  0  0  0  0  0  0  0  0  0  0  0
  -21.7345   -4.8067   24.5272 C   0  0  0  0  0  0  0  0  0  0  0  0
  -30.4380  -10.1026   22.6982 C   0  0  0  0  0  0  0  0  0  0  0  0
  -23.7609  -10.4822   21.0172 C   0  0  0  0  0  0  0  0  0  0  0  0
  -24.1018  -12.9985   20.7733 C   0  0  0  0  0  0  0  0  0  0  0  0
  -32.0994   -6.1458   38.0120 C   0  0  0  0  0  0  0  0  0  0  0  0
  -30.8417   -8.1270   31.0568 C   0  0  0  0  0  0  0  0  0  0  0  0
  -32.1995   -6.0234   36.6129 C   0  0  0  0  0  0  0  0  0  0  0  0
  -29.7714   -7.4498   30.4551 C   0  0  0  0  0  0  0  0  0  0  0  0
  -22.2260   -8.1901   21.4332 C   0  0  0  0  0  0  0  0  0  0  0  0
  -31.1648   -6.9962   28.5154 C   0  0  0  0  0  0  0  0  0  0  0  0
  -21.9689   -6.1181   22.5117 C   0  0  0  0  0  0  0  0  0  0  0  0
  -22.9619   -4.1951   24.2719 C   0  0  0  0  0  0  0  0  0  0  0  0
  -21.2381   -5.7683   23.6471 C   0  0  0  0  0  0  0  0  0  0  0  0
  -24.5542  -11.6658   20.8030 C   0  0  0  0  0  0  0  0  0  0  0  0
  -30.0207  -11.2390   23.3553 C   0  0  0  0  0  0  0  0  0  0  0  0
  -28.5579   -9.9879   24.5901 C   0  0  0  0  0  0  0  0  0  0  0  0
  -28.9747   -8.8516   23.9324 C   0  0  0  0  0  0  0  0  0  0  0  0
  -25.2338  -13.7403   20.5394 C   0  0  0  0  0  0  0  0  0  0  0  0
  -22.7767  -13.5194   20.9422 C   0  0  0  0  0  0  0  0  0  0  0  0
  -29.9345   -6.7991   33.7985 C   0  0  0  0  0  0  0  0  0  0  0  0
  -27.0939   -8.1926   33.0834 C   0  0  0  0  0  0  0  0  0  0  0  0
  -31.0467  -12.6270   21.5800 C   0  0  0  0  0  0  0  0  0  0  0  0
  -25.0013   -9.4463   30.6967 C   0  0  0  0  0  0  0  0  0  0  0  0
  -30.8081   -5.8727   38.7418 C   0  0  0  0  0  0  0  0  0  0  0  0
  -30.6753   -8.7670   32.4077 C   0  0  0  0  0  0  0  0  0  0  0  0
  -28.4376   -7.3075   31.1401 C   0  0  0  0  0  0  0  0  0  0  0  0
  -29.5798   -5.8954   37.8358 C   0  0  0  0  0  0  0  0  0  0  0  0
  -29.5229  -13.4840   18.4522 C   0  0  0  0  0  0  0  0  0  0  0  0
  -29.8384   -5.0913   36.5656 C   0  0  0  0  0  0  0  0  0  0  0  0
  -28.0384  -13.2089   18.6887 C   0  0  0  0  0  0  0  0  0  0  0  0
  -30.4017  -12.4842   19.1972 C   0  0  0  0  0  0  0  0  0  0  0  0
  -28.6443  -12.1351   20.9034 C   0  0  0  0  0  0  0  0  0  0  0  0
  -30.9953   -5.6923   35.7582 C   0  0  1  0  0  0  0  0  0  0  0  0
  -29.5564   -8.1387   33.2328 C   0  0  1  0  0  0  0  0  0  0  0  0
  -27.7217  -13.1414   20.1932 C   0  0  2  0  0  0  0  0  0  0  0  0
  -27.5093   -9.9330   25.6480 C   0  0  0  0  0  0  0  0  0  0  0  0
  -22.7327  -10.4808   30.4123 C   0  0  0  0  0  0  0  0  0  0  0  0
  -31.8660  -12.8507   23.8938 C   0  0  0  0  0  0  0  0  0  0  0  0
  -29.6690  -13.7946   23.1756 C   0  0  0  0  0  0  0  0  0  0  0  0
  -25.8021   -5.4511   33.4377 C   0  0  0  0  0  0  0  0  0  0  0  0
  -23.7834   -6.3251   32.2420 C   0  0  0  0  0  0  0  0  0  0  0  0
  -24.4944   -7.3529   34.4009 C   0  0  0  0  0  0  0  0  0  0  0  0
  -26.1496  -11.9434   29.5990 C   0  0  0  0  0  0  0  0  0  0  0  0
  -28.3898   -7.4989   24.2518 C   0  0  0  0  0  0  0  0  0  0  0  0
  -29.3732   -6.3387   24.0623 C   0  0  0  0  0  0  0  0  0  0  0  0
  -30.5790   -6.4168   24.9998 C   0  0  0  0  0  0  0  0  0  0  0  0
  -30.1564   -6.3489   26.4611 C   0  0  0  0  0  0  0  0  0  1  0  0
  -25.8617   -7.7763   32.3169 C   0  0  1  0  0  0  0  0  0  0  0  0
  -24.2153  -10.7432   30.6268 C   0  0  2  0  0  0  0  0  0  0  0  0
  -30.6120  -12.5640   23.0226 C   0  0  0  0  0  0  0  0  0  0  0  0
  -25.0110   -6.7272   33.0870 C   0  0  0  0  0  0  0  0  0  0  0  0
  -29.9225   -8.8884   22.9749 N   0  0  0  0  0  0  0  0  0  0  0  0
  -25.8709  -11.5637   20.6036 N   0  0  0  0  0  0  0  0  0  0  0  0
  -29.0732  -11.2021   24.3131 N   0  0  0  0  0  0  0  0  0  0  0  0
  -26.2556  -12.8417   20.4464 N   0  0  0  0  0  0  0  0  0  0  0  0
  -28.3263   -7.9452   32.4624 N   0  0  0  0  0  0  0  0  0  0  0  0
  -30.0547  -12.4333   20.6185 N   0  0  0  0  0  0  0  0  0  0  0  0
  -25.4449  -15.0669   20.4061 N   0  0  0  0  0  0  0  0  0  0  0  0
  -21.7291  -12.6180   21.1751 N   0  0  0  0  0  0  0  0  0  0  0  0
  -30.5511   -6.8635   35.0334 N   0  0  0  0  0  0  0  0  0  0  0  0
  -25.1460   -9.0062   31.9954 N   0  0  0  0  0  0  0  0  0  0  0  0
  -24.7101  -11.5889   29.5039 N   0  3  0  0  0  0  0  0  0  0  0  0
  -22.5265  -14.7466   20.8719 O   0  0  0  0  0  0  0  0  0  0  0  0
  -29.6838   -5.7821   33.1624 O   0  0  0  0  0  0  0  0  0  0  0  0
  -26.9672   -8.7245   34.1892 O   0  0  0  0  0  0  0  0  0  0  0  0
  -32.2324  -12.8449   21.3175 O   0  0  0  0  0  0  0  0  0  0  0  0
  -25.4397   -8.8785   29.6988 O   0  0  0  0  0  0  0  0  0  0  0  0
  -21.4770   -7.0720   21.6365 O   0  0  0  0  0  0  0  0  0  0  0  0
  -31.3196   -6.4415   27.2824 O   0  0  0  0  0  0  0  0  0  1  0  0
  -23.4381   -3.2706   25.1162 F   0  0  0  0  0  0  0  0  0  0  0  0
  -20.0578   -6.3516   23.8970 F   0  0  0  0  0  0  0  0  0  0  0  0
  1  2  1  0  0  0  0
  1  5  2  0  0  0  0
  2  6  2  0  0  0  0
  3  8  2  0  0  0  0
  3 16  1  0  0  0  0
  4  9  1  0  0  0  0
  4 16  2  0  0  0  0
  5 18  1  0  0  0  0
  6 20  1  0  0  0  0
  7 10  2  0  0  0  0
  7 19  1  0  0  0  0
  8 22  1  0  0  0  0
  9 22  2  0  0  0  0
 10 23  1  0  0  0  0
 11 12  2  0  0  0  0
 11 24  1  0  0  0  0
 12 25  1  0  0  0  0
 13 21  1  0  0  0  0
 13 23  2  0  0  0  0
 14 25  2  0  0  0  0
 14 26  1  0  0  0  0
 15 28  1  0  0  0  0
 15 65  2  0  0  0  0
 16 27  1  0  0  0  0
 17 27  1  0  0  0  0
 17 31  2  0  0  0  0
 17 32  1  0  0  0  0
 18 20  2  0  0  0  0
 18 37  1  0  0  0  0
 19 21  2  0  0  0  0
 19 38  1  0  0  0  0
 20 46  1  0  0  0  0
 21 39  1  0  0  0  0
 22 81  1  0  0  0  0
 23 82  1  0  0  0  0
 24 26  2  0  0  0  0
 24 81  1  0  0  0  0
 25 83  1  0  0  0  0
 26 84  1  0  0  0  0
 27 66  2  0  0  0  0
 28 63  1  0  0  0  0
 28 67  2  0  0  0  0
 29 30  2  0  0  0  0
 29 49  1  0  0  0  0
 29 67  1  0  0  0  0
 30 57  1  0  0  0  0
 30 65  1  0  0  0  0
 31 68  1  0  0  0  0
 31 71  1  0  0  0  0
 32 72  1  0  0  0  0
 32 76  2  0  0  0  0
 33 47  1  0  0  0  0
 33 73  1  0  0  0  0
 33 77  2  0  0  0  0
 34 61  1  0  0  0  0
 34 69  1  0  0  0  0
 34 78  2  0  0  0  0
 35 63  1  0  0  0  0
 35 70  1  0  0  0  0
 35 79  2  0  0  0  0
 36 62  1  0  0  0  0
 36 74  1  0  0  0  0
 36 80  2  0  0  0  0
 37 40  1  0  0  0  0
 38 47  1  0  0  0  0
 39 69  1  0  0  0  0
 40 42  1  0  0  0  0
 41 43  1  0  0  0  0
 41 44  1  0  0  0  0
 42 46  1  0  0  0  0
 43 48  1  0  0  0  0
 44 70  1  0  0  0  0
 45 48  1  0  0  0  0
 45 70  1  0  0  0  0
 46 73  1  0  0  0  0
 47 69  1  0  0  0  0
 48 68  1  0  0  0  0
 50 62  1  0  0  0  0
 51 63  1  0  0  0  0
 52 63  1  0  0  0  0
 53 64  1  0  0  0  0
 54 64  1  0  0  0  0
 55 64  1  0  0  0  0
 56 75  1  0  0  0  0
 57 58  1  0  0  0  0
 58 59  1  0  0  0  0
 59 60  1  0  0  0  0
 60 82  1  0  0  0  0
 61 64  1  0  0  0  0
 61 74  1  0  0  0  0
 62 75  1  0  0  0  0
 66 68  1  0  0  0  0
M  CHG  1  75   1
M  ISO  4  35 100  60 101  63 100  82 101
M  END
> <Batch ID>
0073

> <Smiles>
CNC(C)C(=O)NC(C(=O)N1Cc2cc([101O:1][101CH2:1]CCCc3ncc([100C:0](C)(C)[100C:0](=O)N4CCCC(n5nc(-c6ccc(Oc7ccc(F)cc7F)cc6)c(C(N)=O)c5N)C4)nc3C)ccc2CC1C(=O)NC1CCCc2ccccc21)C(C)(C)C

> <Shape>
0.141

> <Color>
0.182

> <Negative vol penalty>
0.000

$$$$

  -OEChem-04052318273D

 85 93  0     1  0  0  0  0  0999 V2000
  -26.6198  -32.6984   27.0246 C   0  0  0  0  0  0  0  0  0  0  0  0
  -27.4922  -31.8519   26.3479 C   0  0  0  0  0  0  0  0  0  0  0  0
  -25.6227  -13.8417   21.2342 C   0  0  0  0  0  0  0  0  0  0  0  0
  -25.5939  -14.0995   18.8322 C   0  0  0  0  0  0  0  0  0  0  0  0
  -25.2428  -32.5059   26.9210 C   0  0  0  0  0  0  0  0  0  0  0  0
  -26.9880  -30.8118   25.5679 C   0  0  0  0  0  0  0  0  0  0  0  0
  -29.3437  -28.6519   20.3438 C   0  0  0  0  0  0  0  0  0  0  0  0
  -24.6950  -12.8049   21.1341 C   0  0  0  0  0  0  0  0  0  0  0  0
  -24.6662  -13.0627   18.7320 C   0  0  0  0  0  0  0  0  0  0  0  0
  -30.1505  -27.5500   20.0636 C   0  0  0  0  0  0  0  0  0  0  0  0
  -22.6067   -9.8497   21.4818 C   0  0  0  0  0  0  0  0  0  0  0  0
  -22.8370   -8.6984   22.2348 C   0  0  0  0  0  0  0  0  0  0  0  0
  -28.1888  -26.2651   19.4979 C   0  0  0  0  0  0  0  0  0  0  0  0
  -24.9369   -8.3675   21.0868 C   0  0  0  0  0  0  0  0  0  0  0  0
  -28.5396  -19.4283   17.9792 C   0  0  0  0  0  0  0  0  0  0  0  0
  -26.0721  -14.4890   20.0833 C   0  0  0  0  0  0  0  0  0  0  0  0
  -28.4333  -15.4519   20.1575 C   0  0  0  0  0  0  0  0  0  0  0  0
  -24.7212  -31.4688   26.1316 C   0  0  0  0  0  0  0  0  0  0  0  0
  -27.9502  -28.5653   20.2134 C   0  0  0  0  0  0  0  0  0  0  0  0
  -25.6028  -30.6044   25.4547 C   0  0  0  0  0  0  0  0  0  0  0  0
  -27.3667  -27.3682   19.7746 C   0  0  0  0  0  0  0  0  0  0  0  0
  -24.2168  -12.4154   19.8830 C   0  0  0  0  0  0  0  0  0  0  0  0
  -29.5729  -26.3555   19.6434 C   0  0  0  0  0  0  0  0  0  0  0  0
  -23.5414  -10.2599   20.5311 C   0  0  0  0  0  0  0  0  0  0  0  0
  -24.0021   -7.9574   22.0374 C   0  0  0  0  0  0  0  0  0  0  0  0
  -24.7065   -9.5188   20.3337 C   0  0  0  0  0  0  0  0  0  0  0  0
  -27.0300  -15.5605   20.1862 C   0  0  0  0  0  0  0  0  0  0  0  0
  -27.9163  -20.4639   17.3185 C   0  0  0  0  0  0  0  0  0  0  0  0
  -30.5487  -20.4988   17.7617 C   0  0  0  0  0  0  0  0  0  0  0  0
  -29.9255  -21.5341   17.1003 C   0  0  0  0  0  0  0  0  0  0  0  0
  -28.8804  -16.7438   20.2900 C   0  0  0  0  0  0  0  0  0  0  0  0
  -29.2588  -14.2874   20.0230 C   0  0  0  0  0  0  0  0  0  0  0  0
  -25.4889  -28.8506   22.2044 C   0  0  0  0  0  0  0  0  0  0  0  0
  -23.7532  -28.5856   19.4769 C   0  0  0  0  0  0  0  0  0  0  0  0
  -26.3101  -22.0283   19.0328 C   0  0  0  0  0  0  0  0  0  0  0  0
  -23.5787  -27.4929   16.2486 C   0  0  0  0  0  0  0  0  0  0  0  0
  -23.2267  -31.2709   26.0880 C   0  0  0  0  0  0  0  0  0  0  0  0
  -27.0959  -29.7711   20.4938 C   0  0  0  0  0  0  0  0  0  0  0  0
  -25.8773  -27.2296   19.5991 C   0  0  0  0  0  0  0  0  0  0  0  0
  -22.7639  -30.3762   24.9411 C   0  0  0  0  0  0  0  0  0  0  0  0
  -27.6631  -20.9611   22.1745 C   0  0  0  0  0  0  0  0  0  0  0  0
  -23.6291  -29.1225   24.8595 C   0  0  0  0  0  0  0  0  0  0  0  0
  -27.7550  -19.4427   22.0286 C   0  0  0  0  0  0  0  0  0  0  0  0
  -26.4428  -21.5189   21.4488 C   0  0  0  0  0  0  0  0  0  0  0  0
  -26.4627  -19.6260   19.8557 C   0  0  0  0  0  0  0  0  0  0  0  0
  -25.0936  -29.4802   24.5789 C   0  0  1  0  0  0  0  0  0  0  0  0
  -25.6490  -29.4152   20.8212 C   0  0  1  0  0  0  0  0  0  0  0  0
  -27.6987  -19.0252   20.5484 C   0  0  2  0  0  0  0  0  0  0  0  0
  -32.0178  -20.5097   18.0135 C   0  0  0  0  0  0  0  0  0  0  0  0
  -26.1040  -20.2930   15.5691 C   0  0  0  0  0  0  0  0  0  0  0  0
  -22.0178  -27.3867   14.2865 C   0  0  0  0  0  0  0  0  0  0  0  0
  -24.1817  -21.1836   18.1453 C   0  0  0  0  0  0  0  0  0  0  0  0
  -25.5636  -22.8418   16.8771 C   0  0  0  0  0  0  0  0  0  0  0  0
  -22.2250  -26.3108   20.8187 C   0  0  0  0  0  0  0  0  0  0  0  0
  -21.3793  -25.6397   18.5598 C   0  0  0  0  0  0  0  0  0  0  0  0
  -20.8032  -27.8815   19.4899 C   0  0  0  0  0  0  0  0  0  0  0  0
  -25.3982  -29.1104   14.5658 C   0  0  0  0  0  0  0  0  0  0  0  0
  -30.7005  -22.7269   16.6000 C   0  0  0  0  0  0  0  0  0  0  0  0
  -31.0877  -23.7160   17.7015 C   0  0  0  0  0  0  0  0  0  0  0  0
  -29.8868  -24.3659   18.3789 C   0  0  0  0  0  0  0  0  0  1  0  0
  -26.4475  -20.4317   17.0790 C   0  0  2  0  0  0  0  0  0  0  0  0
  -23.1615  -27.4388   18.6934 C   0  0  1  0  0  0  0  0  0  0  0  0
  -23.1168  -28.1800   14.9761 C   0  0  2  0  0  0  0  0  0  0  0  0
  -25.6144  -21.5884   17.7692 C   0  0  0  0  0  0  0  0  0  0  0  0
  -21.9202  -26.8194   19.3955 C   0  0  0  0  0  0  0  0  0  0  0  0
  -29.8670  -19.4272   18.2127 N   0  0  0  0  0  0  0  0  0  0  0  0
  -26.6132  -16.8217   20.3261 N   0  0  0  0  0  0  0  0  0  0  0  0
  -28.5981  -21.5354   16.8671 N   0  0  0  0  0  0  0  0  0  0  0  0
  -27.7613  -17.5175   20.3866 N   0  0  0  0  0  0  0  0  0  0  0  0
  -25.0839  -28.4348   19.8918 N   0  0  0  0  0  0  0  0  0  0  0  0
  -26.4139  -21.0815   20.0520 N   0  0  0  0  0  0  0  0  0  0  0  0
  -30.1177  -17.2821   20.3322 N   0  0  0  0  0  0  0  0  0  0  0  0
  -28.6363  -13.0380   19.8971 N   0  0  0  0  0  0  0  0  0  0  0  0
  -25.2755  -29.8053   23.1805 N   0  0  0  0  0  0  0  0  0  0  0  0
  -22.8958  -27.9534   17.3544 N   0  0  0  0  0  0  0  0  0  0  0  0
  -24.2551  -28.3300   14.0260 N   0  3  0  0  0  0  0  0  0  0  0  0
  -30.5116  -14.3511   20.0312 O   0  0  0  0  0  0  0  0  0  0  0  0
  -25.5526  -27.6386   22.3734 O   0  0  0  0  0  0  0  0  0  0  0  0
  -23.0624  -29.5816   19.7060 O   0  0  0  0  0  0  0  0  0  0  0  0
  -26.7501  -23.1784   19.1086 O   0  0  0  0  0  0  0  0  0  0  0  0
  -24.4547  -26.6310   16.2598 O   0  0  0  0  0  0  0  0  0  0  0  0
  -23.3117  -11.4036   19.7849 O   0  0  0  0  0  0  0  0  0  0  0  0
  -30.3580  -25.2782   19.3699 O   0  0  0  0  0  0  0  0  0  1  0  0
  -24.2238   -6.8527   22.7617 F   0  0  0  0  0  0  0  0  0  0  0  0
  -25.6088   -9.9086   19.4227 F   0  0  0  0  0  0  0  0  0  0  0  0
  1  2  1  0  0  0  0
  1  5  2  0  0  0  0
  2  6  2  0  0  0  0
  3  8  2  0  0  0  0
  3 16  1  0  0  0  0
  4  9  1  0  0  0  0
  4 16  2  0  0  0  0
  5 18  1  0  0  0  0
  6 20  1  0  0  0  0
  7 10  2  0  0  0  0
  7 19  1  0  0  0  0
  8 22  1  0  0  0  0
  9 22  2  0  0  0  0
 10 23  1  0  0  0  0
 11 12  2  0  0  0  0
 11 24  1  0  0  0  0
 12 25  1  0  0  0  0
 13 21  1  0  0  0  0
 13 23  2  0  0  0  0
 14 25  2  0  0  0  0
 14 26  1  0  0  0  0
 15 28  1  0  0  0  0
 15 66  2  0  0  0  0
 16 27  1  0  0  0  0
 17 27  1  0  0  0  0
 17 31  2  0  0  0  0
 17 32  1  0  0  0  0
 18 20  2  0  0  0  0
 18 37  1  0  0  0  0
 19 21  2  0  0  0  0
 19 38  1  0  0  0  0
 20 46  1  0  0  0  0
 21 39  1  0  0  0  0
 22 82  1  0  0  0  0
 23 83  1  0  0  0  0
 24 26  2  0  0  0  0
 24 82  1  0  0  0  0
 25 84  1  0  0  0  0
 26 85  1  0  0  0  0
 27 67  2  0  0  0  0
 28 61  1  0  0  0  0
 28 68  2  0  0  0  0
 29 30  2  0  0  0  0
 29 49  1  0  0  0  0
 29 66  1  0  0  0  0
 30 58  1  0  0  0  0
 30 68  1  0  0  0  0
 31 69  1  0  0  0  0
 31 72  1  0  0  0  0
 32 73  1  0  0  0  0
 32 77  2  0  0  0  0
 33 47  1  0  0  0  0
 33 74  1  0  0  0  0
 33 78  2  0  0  0  0
 34 62  1  0  0  0  0
 34 70  1  0  0  0  0
 34 79  2  0  0  0  0
 35 64  1  0  0  0  0
 35 71  1  0  0  0  0
 35 80  2  0  0  0  0
 36 63  1  0  0  0  0
 36 75  1  0  0  0  0
 36 81  2  0  0  0  0
 37 40  1  0  0  0  0
 38 47  1  0  0  0  0
 39 70  1  0  0  0  0
 40 42  1  0  0  0  0
 41 43  1  0  0  0  0
 41 44  1  0  0  0  0
 42 46  1  0  0  0  0
 43 48  1  0  0  0  0
 44 71  1  0  0  0  0
 45 48  1  0  0  0  0
 45 71  1  0  0  0  0
 46 74  1  0  0  0  0
 47 70  1  0  0  0  0
 48 69  1  0  0  0  0
 50 61  1  0  0  0  0
 51 63  1  0  0  0  0
 52 64  1  0  0  0  0
 53 64  1  0  0  0  0
 54 65  1  0  0  0  0
 55 65  1  0  0  0  0
 56 65  1  0  0  0  0
 57 76  1  0  0  0  0
 58 59  1  0  0  0  0
 59 60  1  0  0  0  0
 60 83  1  0  0  0  0
 61 64  1  0  0  0  0
 62 65  1  0  0  0  0
 62 75  1  0  0  0  0
 63 76  1  0  0  0  0
 67 69  1  0  0  0  0
M  CHG  1  76   1
M  ISO  4  35 100  60 101  64 100  83 101
M  END
> <Batch ID>
0073

> <Smiles>
CNC(C)C(=O)NC(C(=O)N1Cc2cc([101O:1][101CH2:1]CCc3nc(C(C)[100C:0](C)(C)[100C:0](=O)N4CCCC(n5nc(-c6ccc(Oc7ccc(F)cc7F)cc6)c(C(N)=O)c5N)C4)cnc3C)ccc2CC1C(=O)NC1CCCc2ccccc21)C(C)(C)C

> <Shape>
0.263

> <Color>
0.066

> <Negative vol penalty>
0.000

$$$$

  -OEChem-04052318273D

 87 95  0     1  0  0  0  0  0999 V2000
  -21.7519  -11.9222   19.9507 C   0  0  0  0  0  0  0  0  0  0  0  0
  -21.6683  -13.2861   20.2114 C   0  0  0  0  0  0  0  0  0  0  0  0
  -29.7065  -28.0235   19.9839 C   0  0  0  0  0  0  0  0  0  0  0  0
  -28.9432  -26.8414   21.9479 C   0  0  0  0  0  0  0  0  0  0  0  0
  -22.9699  -11.2593   20.0957 C   0  0  0  0  0  0  0  0  0  0  0  0
  -22.8025  -13.9878   20.6185 C   0  0  0  0  0  0  0  0  0  0  0  0
  -23.3232  -18.4081   18.2028 C   0  0  0  0  0  0  0  0  0  0  0  0
  -31.0214  -27.6624   20.2776 C   0  0  0  0  0  0  0  0  0  0  0  0
  -30.2581  -26.4803   22.2416 C   0  0  0  0  0  0  0  0  0  0  0  0
  -22.5233  -19.4663   18.6320 C   0  0  0  0  0  0  0  0  0  0  0  0
  -33.4513  -25.5493   23.7068 C   0  0  0  0  0  0  0  0  0  0  0  0
  -33.8798  -25.6797   25.0278 C   0  0  0  0  0  0  0  0  0  0  0  0
  -24.3824  -20.3549   19.8863 C   0  0  0  0  0  0  0  0  0  0  0  0
  -33.4175  -28.0496   24.9439 C   0  0  0  0  0  0  0  0  0  0  0  0
  -20.0437  -26.6194   20.7562 C   0  0  0  0  0  0  0  0  0  0  0  0
  -28.6674  -27.6130   20.8191 C   0  0  0  0  0  0  0  0  0  0  0  0
  -26.3866  -27.2721   19.7286 C   0  0  0  0  0  0  0  0  0  0  0  0
  -24.1217  -11.9551   20.4954 C   0  0  0  0  0  0  0  0  0  0  0  0
  -24.6578  -18.3092   18.6217 C   0  0  0  0  0  0  0  0  0  0  0  0
  -24.0367  -13.3334   20.7703 C   0  0  0  0  0  0  0  0  0  0  0  0
  -25.1979  -19.2958   19.4590 C   0  0  0  0  0  0  0  0  0  0  0  0
  -31.2972  -26.8907   21.4064 C   0  0  0  0  0  0  0  0  0  0  0  0
  -23.0521  -20.4383   19.4762 C   0  0  0  0  0  0  0  0  0  0  0  0
  -33.0060  -26.6691   23.0043 C   0  0  0  0  0  0  0  0  0  0  0  0
  -33.8629  -26.9297   25.6463 C   0  0  0  0  0  0  0  0  0  0  0  0
  -32.9891  -27.9192   23.6229 C   0  0  0  0  0  0  0  0  0  0  0  0
  -27.3089  -27.9862   20.5166 C   0  0  0  0  0  0  0  0  0  0  0  0
  -19.3568  -26.5848   21.9436 C   0  0  0  0  0  0  0  0  0  0  0  0
  -25.2487  -28.0411   19.7502 C   0  0  0  0  0  0  0  0  0  0  0  0
  -26.5442  -26.0251   19.0387 C   0  0  0  0  0  0  0  0  0  0  0  0
  -26.3308  -16.1917   20.3013 C   0  0  0  0  0  0  0  0  0  0  0  0
  -28.8274  -18.0897   19.4727 C   0  0  0  0  0  0  0  0  0  0  0  0
  -29.9274  -21.1725   18.5067 C   0  0  0  0  0  0  0  0  0  0  0  0
  -21.5230  -31.1432   22.5145 C   0  0  0  0  0  0  0  0  0  0  0  0
  -25.4054  -11.1862   20.6840 C   0  0  0  0  0  0  0  0  0  0  0  0
  -25.5151  -17.1761   18.1284 C   0  0  0  0  0  0  0  0  0  0  0  0
  -26.6306  -19.2466   19.9210 C   0  0  0  0  0  0  0  0  0  0  0  0
  -26.6434  -12.0764   20.7575 C   0  0  0  0  0  0  0  0  0  0  0  0
  -24.4955  -32.7604   21.4074 C   0  0  0  0  0  0  0  0  0  0  0  0
  -26.3994  -13.2537   21.6962 C   0  0  0  0  0  0  0  0  0  0  0  0
  -25.4179  -31.6039   21.0182 C   0  0  0  0  0  0  0  0  0  0  0  0
  -23.6444  -32.4173   22.6280 C   0  0  0  0  0  0  0  0  0  0  0  0
  -23.7943  -30.0097   22.1232 C   0  0  0  0  0  0  0  0  0  0  0  0
  -25.2504  -14.1341   21.1899 C   0  0  1  0  0  0  0  0  0  0  0  0
  -26.7131  -16.8965   19.0306 C   0  0  1  0  0  0  0  0  0  0  0  0
  -24.6323  -30.2877   20.8636 C   0  0  2  0  0  0  0  0  0  0  0  0
  -18.2003  -27.3720   17.6006 C   0  0  0  0  0  0  0  0  0  0  0  0
  -32.0259  -22.4276   17.9422 C   0  0  0  0  0  0  0  0  0  0  0  0
  -29.5210  -18.2594   22.4392 C   0  0  0  0  0  0  0  0  0  0  0  0
  -30.9787  -20.2261   21.9144 C   0  0  0  0  0  0  0  0  0  0  0  0
  -31.4906  -17.9961   20.9207 C   0  0  0  0  0  0  0  0  0  0  0  0
  -17.4799  -28.6452   23.3757 C   0  0  0  0  0  0  0  0  0  0  0  0
  -19.4141  -29.2322   24.8275 C   0  0  0  0  0  0  0  0  0  0  0  0
  -28.9920  -21.7299   15.7547 C   0  0  0  0  0  0  0  0  0  0  0  0
  -19.6462  -27.2878   23.2001 C   0  0  0  0  0  0  0  0  0  0  0  0
  -18.4684  -25.8721   17.5589 C   0  0  0  0  0  0  0  0  0  0  0  0
  -21.0056  -23.3940   19.2199 C   0  0  0  0  0  0  0  0  0  0  0  0
  -19.8867  -23.9179   18.3149 C   0  0  0  0  0  0  0  0  0  0  0  0
  -19.4846  -29.7367   22.3532 C   0  0  0  0  0  0  0  0  0  0  0  0
  -21.2341  -21.9018   19.0187 C   0  0  0  0  0  0  0  0  0  1  0  0
  -29.4963  -19.3008   20.0768 C   0  0  1  0  0  0  0  0  0  0  0  0
  -30.8695  -21.6038   17.3972 C   0  0  2  0  0  0  0  0  0  0  0  0
  -19.6128  -25.4294   18.4993 C   0  0  2  0  0  0  0  0  0  0  0  0
  -30.3441  -18.9458   21.3308 C   0  0  0  0  0  0  0  0  0  0  0  0
  -19.0198  -28.7198   23.4230 C   0  0  0  0  0  0  0  0  0  0  0  0
  -26.8011  -29.1217   21.0032 N   0  0  0  0  0  0  0  0  0  0  0  0
  -18.2755  -25.7565   21.8250 N   0  0  0  0  0  0  0  0  0  0  0  0
  -18.2684  -25.2689   20.5891 N   0  0  0  0  0  0  0  0  0  0  0  0
  -19.3295  -25.7874   19.9500 N   0  0  0  0  0  0  0  0  0  0  0  0
  -25.5472  -29.1269   20.5196 N   0  0  0  0  0  0  0  0  0  0  0  0
  -27.4267  -18.1156   19.4165 N   0  0  0  0  0  0  0  0  0  0  0  0
  -22.9241  -31.1594   22.4162 N   0  0  0  0  0  0  0  0  0  0  0  0
  -24.0320  -27.8876   19.1858 N   0  0  0  0  0  0  0  0  0  0  0  0
  -27.7789  -25.3671   19.1217 N   0  0  0  0  0  0  0  0  0  0  0  0
  -25.7009  -14.9778   20.1038 N   0  0  0  0  0  0  0  0  0  0  0  0
  -30.2555  -19.9274   19.0000 N   0  0  0  0  0  0  0  0  0  0  0  0
  -20.9187  -29.9117   22.2932 N   0  0  0  0  0  0  0  0  0  0  0  0
  -30.1412  -22.4252   16.3894 N   0  3  0  0  0  0  0  0  0  0  0  0
  -25.6228  -25.5177   18.3552 O   0  0  0  0  0  0  0  0  0  0  0  0
  -26.5895  -16.7102   21.3811 O   0  0  0  0  0  0  0  0  0  0  0  0
  -29.5225  -17.1583   19.0592 O   0  0  0  0  0  0  0  0  0  0  0  0
  -28.9961  -21.8719   18.8992 O   0  0  0  0  0  0  0  0  0  0  0  0
  -20.8594  -32.1526   22.7745 O   0  0  0  0  0  0  0  0  0  0  0  0
  -32.5801  -26.5380   21.6932 O   0  0  0  0  0  0  0  0  0  0  0  0
  -22.2734  -21.4719   19.8971 O   0  0  0  0  0  0  0  0  0  1  0  0
  -34.2730  -27.0545   26.9154 F   0  0  0  0  0  0  0  0  0  0  0  0
  -32.5612  -28.9984   22.9535 F   0  0  0  0  0  0  0  0  0  0  0  0
  1  2  1  0  0  0  0
  1  5  2  0  0  0  0
  2  6  2  0  0  0  0
  3  8  2  0  0  0  0
  3 16  1  0  0  0  0
  4  9  1  0  0  0  0
  4 16  2  0  0  0  0
  5 18  1  0  0  0  0
  6 20  1  0  0  0  0
  7 10  2  0  0  0  0
  7 19  1  0  0  0  0
  8 22  1  0  0  0  0
  9 22  2  0  0  0  0
 10 23  1  0  0  0  0
 11 12  2  0  0  0  0
 11 24  1  0  0  0  0
 12 25  1  0  0  0  0
 13 21  1  0  0  0  0
 13 23  2  0  0  0  0
 14 25  2  0  0  0  0
 14 26  1  0  0  0  0
 15 28  2  0  0  0  0
 15 69  1  0  0  0  0
 16 27  1  0  0  0  0
 17 27  1  0  0  0  0
 17 29  2  0  0  0  0
 17 30  1  0  0  0  0
 18 20  2  0  0  0  0
 18 35  1  0  0  0  0
 19 21  2  0  0  0  0
 19 36  1  0  0  0  0
 20 44  1  0  0  0  0
 21 37  1  0  0  0  0
 22 84  1  0  0  0  0
 23 85  1  0  0  0  0
 24 26  2  0  0  0  0
 24 84  1  0  0  0  0
 25 86  1  0  0  0  0
 26 87  1  0  0  0  0
 27 66  2  0  0  0  0
 28 55  1  0  0  0  0
 28 67  1  0  0  0  0
 29 70  1  0  0  0  0
 29 73  1  0  0  0  0
 30 74  1  0  0  0  0
 30 79  2  0  0  0  0
 31 45  1  0  0  0  0
 31 75  1  0  0  0  0
 31 80  2  0  0  0  0
 32 61  1  0  0  0  0
 32 71  1  0  0  0  0
 32 81  2  0  0  0  0
 33 62  1  0  0  0  0
 33 76  1  0  0  0  0
 33 82  2  0  0  0  0
 34 72  1  0  0  0  0
 34 77  1  0  0  0  0
 34 83  2  0  0  0  0
 35 38  1  0  0  0  0
 36 45  1  0  0  0  0
 37 71  1  0  0  0  0
 38 40  1  0  0  0  0
 39 41  1  0  0  0  0
 39 42  1  0  0  0  0
 40 44  1  0  0  0  0
 41 46  1  0  0  0  0
 42 72  1  0  0  0  0
 43 46  1  0  0  0  0
 43 72  1  0  0  0  0
 44 75  1  0  0  0  0
 45 71  1  0  0  0  0
 46 70  1  0  0  0  0
 47 56  1  0  0  0  0
 48 62  1  0  0  0  0
 49 64  1  0  0  0  0
 50 64  1  0  0  0  0
 51 64  1  0  0  0  0
 52 65  1  0  0  0  0
 53 65  1  0  0  0  0
 54 78  1  0  0  0  0
 55 65  1  0  0  0  0
 56 63  1  0  0  0  0
 57 58  1  0  0  0  0
 57 60  1  0  0  0  0
 58 63  1  0  0  0  0
 59 65  1  0  0  0  0
 59 77  1  0  0  0  0
 60 85  1  0  0  0  0
 61 64  1  0  0  0  0
 61 76  1  0  0  0  0
 62 78  1  0  0  0  0
 63 69  1  0  0  0  0
 66 70  1  0  0  0  0
 67 68  2  0  0  0  0
 68 69  1  0  0  0  0
M  CHG  1  78   1
M  ISO  4  34 100  60 101  77 100  85 101
M  END
> <Batch ID>
0073

> <Smiles>
CCC(CC[101CH2:1][101O:1]c1ccc2c(c1)CN(C(=O)C(NC(=O)C(C)NC)C(C)(C)C)C(C(=O)NC1CCCc3ccccc31)C2)n1cc(CC(C)(C)C[100NH:0][100C:0](=O)N2CCCC(n3nc(-c4ccc(Oc5ccc(F)cc5F)cc4)c(C(N)=O)c3N)C2)nn1

> <Shape>
0.260

> <Color>
0.070

> <Negative vol penalty>
0.000

$$$$

  -OEChem-04052318273D

 86 94  0     1  0  0  0  0  0999 V2000
  -16.7858  -29.8249   24.4365 C   0  0  0  0  0  0  0  0  0  0  0  0
  -17.9841  -30.2467   25.0036 C   0  0  0  0  0  0  0  0  0  0  0  0
  -26.9052  -22.3345   21.6475 C   0  0  0  0  0  0  0  0  0  0  0  0
  -28.8442  -23.5501   22.4215 C   0  0  0  0  0  0  0  0  0  0  0  0
  -16.7968  -28.8957   23.3970 C   0  0  0  0  0  0  0  0  0  0  0  0
  -19.1942  -29.7387   24.5321 C   0  0  0  0  0  0  0  0  0  0  0  0
  -26.0291  -31.6312   23.5230 C   0  0  0  0  0  0  0  0  0  0  0  0
  -27.4864  -22.2109   20.3855 C   0  0  0  0  0  0  0  0  0  0  0  0
  -29.4255  -23.4266   21.1596 C   0  0  0  0  0  0  0  0  0  0  0  0
  -27.3213  -31.1987   23.8182 C   0  0  0  0  0  0  0  0  0  0  0  0
  -29.1479  -24.9078   18.1331 C   0  0  0  0  0  0  0  0  0  0  0  0
  -29.7446  -26.0411   17.5806 C   0  0  0  0  0  0  0  0  0  0  0  0
  -27.2224  -29.6579   21.9647 C   0  0  0  0  0  0  0  0  0  0  0  0
  -31.8616  -24.8808   17.4869 C   0  0  0  0  0  0  0  0  0  0  0  0
  -26.0843  -27.9048   29.5320 C   0  0  0  0  0  0  0  0  0  0  0  0
  -27.5841  -23.0041   22.6655 C   0  0  0  0  0  0  0  0  0  0  0  0
  -27.1086  -22.2436   25.0536 C   0  0  0  0  0  0  0  0  0  0  0  0
  -18.0081  -28.3834   22.9061 C   0  0  0  0  0  0  0  0  0  0  0  0
  -25.3186  -31.0716   22.4514 C   0  0  0  0  0  0  0  0  0  0  0  0
  -19.2213  -28.8008   23.4860 C   0  0  0  0  0  0  0  0  0  0  0  0
  -25.9224  -30.0868   21.6565 C   0  0  0  0  0  0  0  0  0  0  0  0
  -28.7465  -22.7570   20.1416 C   0  0  0  0  0  0  0  0  0  0  0  0
  -27.9170  -30.2099   23.0407 C   0  0  0  0  0  0  0  0  0  0  0  0
  -29.9081  -23.7610   18.3625 C   0  0  0  0  0  0  0  0  0  0  0  0
  -31.1014  -26.0276   17.2575 C   0  0  0  0  0  0  0  0  0  0  0  0
  -31.2649  -23.7475   18.0394 C   0  0  0  0  0  0  0  0  0  0  0  0
  -26.9840  -23.1325   23.9691 C   0  0  0  0  0  0  0  0  0  0  0  0
  -28.0234  -27.0510   29.7354 C   0  0  0  0  0  0  0  0  0  0  0  0
  -27.9719  -27.5449   28.4532 C   0  0  0  0  0  0  0  0  0  0  0  0
  -26.3551  -22.8118   26.0516 C   0  0  0  0  0  0  0  0  0  0  0  0
  -27.8401  -21.0144   25.1503 C   0  0  0  0  0  0  0  0  0  0  0  0
  -22.6180  -29.4189   22.1696 C   0  0  0  0  0  0  0  0  0  0  0  0
  -24.6827  -28.4918   27.0777 C   0  0  0  0  0  0  0  0  0  0  0  0
  -23.1931  -29.7671   18.9962 C   0  0  0  0  0  0  0  0  0  0  0  0
  -25.4634  -30.3000   16.5046 C   0  0  0  0  0  0  0  0  0  0  0  0
  -17.9672  -27.3453   21.8128 C   0  0  0  0  0  0  0  0  0  0  0  0
  -23.9357  -31.5679   22.1297 C   0  0  0  0  0  0  0  0  0  0  0  0
  -25.2098  -29.4684   20.4825 C   0  0  0  0  0  0  0  0  0  0  0  0
  -19.3112  -27.1379   21.1193 C   0  0  0  0  0  0  0  0  0  0  0  0
  -22.5579  -25.6254   26.7469 C   0  0  0  0  0  0  0  0  0  0  0  0
  -20.4295  -27.0123   22.1491 C   0  0  0  0  0  0  0  0  0  0  0  0
  -23.4549  -24.5899   26.0698 C   0  0  0  0  0  0  0  0  0  0  0  0
  -22.8621  -27.0362   26.2525 C   0  0  0  0  0  0  0  0  0  0  0  0
  -25.1937  -26.4010   25.7215 C   0  0  0  0  0  0  0  0  0  0  0  0
  -20.5555  -28.2915   22.9854 C   0  0  1  0  0  0  0  0  0  0  0  0
  -23.1112  -30.5636   21.3304 C   0  0  1  0  0  0  0  0  0  0  0  0
  -24.9402  -24.9656   26.2152 C   0  0  2  0  0  0  0  0  0  0  0  0
  -31.0199  -26.5374   32.1149 C   0  0  0  0  0  0  0  0  0  0  0  0
  -26.4430  -30.2438   27.1627 C   0  0  0  0  0  0  0  0  0  0  0  0
  -25.6399  -30.4946   14.0089 C   0  0  0  0  0  0  0  0  0  0  0  0
  -32.1671  -29.7457   26.6687 C   0  0  0  0  0  0  0  0  0  0  0  0
  -22.9316  -26.7376   18.7439 C   0  0  0  0  0  0  0  0  0  0  0  0
  -24.0321  -26.8993   16.5009 C   0  0  0  0  0  0  0  0  0  0  0  0
  -21.8476  -28.0353   16.9013 C   0  0  0  0  0  0  0  0  0  0  0  0
  -26.4748  -33.0761   16.6764 C   0  0  0  0  0  0  0  0  0  0  0  0
  -29.1350  -26.3578   30.4055 C   0  0  0  0  0  0  0  0  0  0  0  0
  -28.9855  -27.5518   27.3360 C   0  0  0  0  0  0  0  0  0  0  0  0
  -29.8965  -27.2662   31.3946 C   0  0  0  0  0  0  0  0  0  0  0  0
  -30.0513  -28.6487   27.4656 C   0  0  0  0  0  0  0  0  0  0  0  0
  -30.6147  -28.7417   24.9362 C   0  0  0  0  0  0  0  0  0  0  0  0
  -29.5877  -29.8417   24.6928 C   0  0  0  0  0  0  0  0  0  1  0  0
  -26.1664  -28.7425   27.1772 C   0  0  1  0  0  0  0  0  0  0  0  0
  -23.9452  -28.9766   17.9530 C   0  0  1  0  0  0  0  0  0  0  0  0
  -25.4528  -31.2463   15.3176 C   0  0  2  0  0  0  0  0  0  0  0  0
  -31.1468  -28.6387   26.3781 C   0  0  1  0  0  0  0  0  0  0  0  0
  -23.2021  -27.6722   17.5480 C   0  0  0  0  0  0  0  0  0  0  0  0
  -26.8452  -27.2780   30.4016 N   0  0  0  0  0  0  0  0  0  0  0  0
  -26.2119  -24.1853   24.2514 N   0  0  0  0  0  0  0  0  0  0  0  0
  -26.7236  -28.0884   28.3375 N   0  0  0  0  0  0  0  0  0  0  0  0
  -25.8445  -23.9615   25.5246 N   0  0  0  0  0  0  0  0  0  0  0  0
  -23.8571  -29.9828   20.2121 N   0  0  0  0  0  0  0  0  0  0  0  0
  -24.2865  -27.3465   26.3867 N   0  0  0  0  0  0  0  0  0  0  0  0
  -26.0859  -22.4350   27.3197 N   0  0  0  0  0  0  0  0  0  0  0  0
  -28.5609  -20.5759   24.0311 N   0  0  0  0  0  0  0  0  0  0  0  0
  -21.2412  -29.3210   22.2342 N   0  0  0  0  0  0  0  0  0  0  0  0
  -24.1907  -29.8931   16.8448 N   0  0  0  0  0  0  0  0  0  0  0  0
  -26.5481  -32.2488   15.4446 N   0  3  0  0  0  0  0  0  0  0  0  0
  -27.8410  -20.3168   26.1929 O   0  0  0  0  0  0  0  0  0  0  0  0
  -23.4268  -28.6786   22.7168 O   0  0  0  0  0  0  0  0  0  0  0  0
  -23.9009  -29.2895   27.6017 O   0  0  0  0  0  0  0  0  0  0  0  0
  -22.0610  -30.1841   18.7391 O   0  0  0  0  0  0  0  0  0  0  0  0
  -26.4977  -29.9534   17.0709 O   0  0  0  0  0  0  0  0  0  0  0  0
  -29.3141  -22.6364   18.9103 O   0  0  0  0  0  0  0  0  0  0  0  0
  -29.1779  -29.7855   23.3270 O   0  0  0  0  0  0  0  0  0  1  0  0
  -31.6739  -27.1155   16.7256 F   0  0  0  0  0  0  0  0  0  0  0  0
  -32.0001  -22.6483   18.2565 F   0  0  0  0  0  0  0  0  0  0  0  0
  1  2  1  0  0  0  0
  1  5  2  0  0  0  0
  2  6  2  0  0  0  0
  3  8  2  0  0  0  0
  3 16  1  0  0  0  0
  4  9  1  0  0  0  0
  4 16  2  0  0  0  0
  5 18  1  0  0  0  0
  6 20  1  0  0  0  0
  7 10  2  0  0  0  0
  7 19  1  0  0  0  0
  8 22  1  0  0  0  0
  9 22  2  0  0  0  0
 10 23  1  0  0  0  0
 11 12  2  0  0  0  0
 11 24  1  0  0  0  0
 12 25  1  0  0  0  0
 13 21  1  0  0  0  0
 13 23  2  0  0  0  0
 14 25  2  0  0  0  0
 14 26  1  0  0  0  0
 15 67  2  0  0  0  0
 15 69  1  0  0  0  0
 16 27  1  0  0  0  0
 17 27  1  0  0  0  0
 17 30  2  0  0  0  0
 17 31  1  0  0  0  0
 18 20  2  0  0  0  0
 18 36  1  0  0  0  0
 19 21  2  0  0  0  0
 19 37  1  0  0  0  0
 20 45  1  0  0  0  0
 21 38  1  0  0  0  0
 22 83  1  0  0  0  0
 23 84  1  0  0  0  0
 24 26  2  0  0  0  0
 24 83  1  0  0  0  0
 25 85  1  0  0  0  0
 26 86  1  0  0  0  0
 27 68  2  0  0  0  0
 28 29  2  0  0  0  0
 28 56  1  0  0  0  0
 28 67  1  0  0  0  0
 29 57  1  0  0  0  0
 29 69  1  0  0  0  0
 30 70  1  0  0  0  0
 30 73  1  0  0  0  0
 31 74  1  0  0  0  0
 31 78  2  0  0  0  0
 32 46  1  0  0  0  0
 32 75  1  0  0  0  0
 32 79  2  0  0  0  0
 33 62  1  0  0  0  0
 33 72  1  0  0  0  0
 33 80  2  0  0  0  0
 34 63  1  0  0  0  0
 34 71  1  0  0  0  0
 34 81  2  0  0  0  0
 35 64  1  0  0  0  0
 35 76  1  0  0  0  0
 35 82  2  0  0  0  0
 36 39  1  0  0  0  0
 37 46  1  0  0  0  0
 38 71  1  0  0  0  0
 39 41  1  0  0  0  0
 40 42  1  0  0  0  0
 40 43  1  0  0  0  0
 41 45  1  0  0  0  0
 42 47  1  0  0  0  0
 43 72  1  0  0  0  0
 44 47  1  0  0  0  0
 44 72  1  0  0  0  0
 45 75  1  0  0  0  0
 46 71  1  0  0  0  0
 47 70  1  0  0  0  0
 48 58  1  0  0  0  0
 49 62  1  0  0  0  0
 50 64  1  0  0  0  0
 51 65  1  0  0  0  0
 52 66  1  0  0  0  0
 53 66  1  0  0  0  0
 54 66  1  0  0  0  0
 55 77  1  0  0  0  0
 56 58  1  0  0  0  0
 57 59  1  0  0  0  0
 59 65  1  0  0  0  0
 60 61  1  0  0  0  0
 60 65  1  0  0  0  0
 61 84  1  0  0  0  0
 62 69  1  0  0  0  0
 63 66  1  0  0  0  0
 63 76  1  0  0  0  0
 64 77  1  0  0  0  0
 68 70  1  0  0  0  0
M  CHG  1  77   1
M  ISO  4  33 100  61 101  62 100  84 101
M  END
> <Batch ID>
0073

> <Smiles>
CCCc1ncn([100CH:0](C)[100C:0](=O)N2CCCC(n3nc(-c4ccc(Oc5ccc(F)cc5F)cc4)c(C(N)=O)c3N)C2)c1CCC(C)C[101CH2:1][101O:1]c1ccc2c(c1)CN(C(=O)C(NC(=O)C(C)NC)C(C)(C)C)C(C(=O)NC1CCCc3ccccc31)C2

> <Shape>
0.192

> <Color>
0.092

> <Negative vol penalty>
0.000

$$$$

  -OEChem-04052318273D

 88 96  0     1  0  0  0  0  0999 V2000
  -22.6072  -31.4232   24.1335 C   0  0  0  0  0  0  0  0  0  0  0  0
  -22.1740  -30.1152   23.9414 C   0  0  0  0  0  0  0  0  0  0  0  0
  -28.6508  -14.0410   20.8682 C   0  0  0  0  0  0  0  0  0  0  0  0
  -28.0312  -13.9599   18.5344 C   0  0  0  0  0  0  0  0  0  0  0  0
  -23.5090  -31.9963   23.2379 C   0  0  0  0  0  0  0  0  0  0  0  0
  -22.6416  -29.3799   22.8528 C   0  0  0  0  0  0  0  0  0  0  0  0
  -23.7631  -23.3616   22.6841 C   0  0  0  0  0  0  0  0  0  0  0  0
  -29.6875  -13.1402   20.6243 C   0  0  0  0  0  0  0  0  0  0  0  0
  -29.0679  -13.0591   18.2905 C   0  0  0  0  0  0  0  0  0  0  0  0
  -23.0177  -22.2814   22.2136 C   0  0  0  0  0  0  0  0  0  0  0  0
  -32.7221  -11.1401   20.5467 C   0  0  0  0  0  0  0  0  0  0  0  0
  -33.9672  -11.4158   21.1116 C   0  0  0  0  0  0  0  0  0  0  0  0
  -24.2108  -22.3781   20.1192 C   0  0  0  0  0  0  0  0  0  0  0  0
  -34.0567  -13.5020   19.8963 C   0  0  0  0  0  0  0  0  0  0  0  0
  -19.1978  -17.5631   17.0157 C   0  0  0  0  0  0  0  0  0  0  0  0
  -27.8226  -14.4508   19.8233 C   0  0  0  0  0  0  0  0  0  0  0  0
  -26.8123  -16.7858   20.0095 C   0  0  0  0  0  0  0  0  0  0  0  0
  -23.9953  -31.2644   22.1431 C   0  0  0  0  0  0  0  0  0  0  0  0
  -24.7320  -23.9661   21.8703 C   0  0  0  0  0  0  0  0  0  0  0  0
  -23.5497  -29.9442   21.9409 C   0  0  0  0  0  0  0  0  0  0  0  0
  -24.9689  -23.4642   20.5827 C   0  0  0  0  0  0  0  0  0  0  0  0
  -29.8960  -12.6493   19.3354 C   0  0  0  0  0  0  0  0  0  0  0  0
  -23.2395  -21.7913   20.9299 C   0  0  0  0  0  0  0  0  0  0  0  0
  -32.1442  -12.0453   19.6564 C   0  0  0  0  0  0  0  0  0  0  0  0
  -34.6345  -12.5968   20.7865 C   0  0  0  0  0  0  0  0  0  0  0  0
  -32.8115  -13.2262   19.3313 C   0  0  0  0  0  0  0  0  0  0  0  0
  -26.7513  -15.3809   20.0747 C   0  0  0  0  0  0  0  0  0  0  0  0
  -19.8267  -18.7761   17.0287 C   0  0  0  0  0  0  0  0  0  0  0  0
  -25.5429  -17.1999   20.3313 C   0  0  0  0  0  0  0  0  0  0  0  0
  -21.2262  -17.2901   16.1721 C   0  0  0  0  0  0  0  0  0  0  0  0
  -27.9176  -17.6401   19.6869 C   0  0  0  0  0  0  0  0  0  0  0  0
  -25.1344  -26.8697   20.6411 C   0  0  0  0  0  0  0  0  0  0  0  0
  -27.9796  -25.6436   19.6801 C   0  0  0  0  0  0  0  0  0  0  0  0
  -29.8303  -22.8841   18.9011 C   0  0  0  0  0  0  0  0  0  0  0  0
  -20.1747  -14.5780   19.9323 C   0  0  0  0  0  0  0  0  0  0  0  0
  -24.9325  -31.9424   21.1753 C   0  0  0  0  0  0  0  0  0  0  0  0
  -25.5462  -25.1135   22.4024 C   0  0  0  0  0  0  0  0  0  0  0  0
  -26.0116  -24.0649   19.6768 C   0  0  0  0  0  0  0  0  0  0  0  0
  -25.6685  -30.9697   20.2575 C   0  0  0  0  0  0  0  0  0  0  0  0
  -21.7058  -15.8852   22.8689 C   0  0  0  0  0  0  0  0  0  0  0  0
  -24.6983  -29.9458   19.6767 C   0  0  0  0  0  0  0  0  0  0  0  0
  -23.1780  -16.0310   22.4799 C   0  0  0  0  0  0  0  0  0  0  0  0
  -21.0757  -14.6451   22.2389 C   0  0  0  0  0  0  0  0  0  0  0  0
  -22.7000  -14.6947   20.3860 C   0  0  0  0  0  0  0  0  0  0  0  0
  -24.0532  -29.1060   20.7859 C   0  0  1  0  0  0  0  0  0  0  0  0
  -26.1493  -25.9796   21.3008 C   0  0  1  0  0  0  0  0  0  0  0  0
  -23.3639  -15.9615   20.9522 C   0  0  2  0  0  0  0  0  0  0  0  0
  -32.1127  -22.2012   18.1126 C   0  0  0  0  0  0  0  0  0  0  0  0
  -19.4030  -21.1335   16.2989 C   0  0  0  0  0  0  0  0  0  0  0  0
  -17.8945  -20.1820   18.0197 C   0  0  0  0  0  0  0  0  0  0  0  0
  -22.1390  -16.0497   14.1786 C   0  0  0  0  0  0  0  0  0  0  0  0
  -23.0301  -15.5589   16.4811 C   0  0  0  0  0  0  0  0  0  0  0  0
  -23.6357  -17.6731   15.3216 C   0  0  0  0  0  0  0  0  0  0  0  0
  -27.2668  -26.5366   16.8509 C   0  0  0  0  0  0  0  0  0  0  0  0
  -29.0705  -25.0261   15.9945 C   0  0  0  0  0  0  0  0  0  0  0  0
  -29.6499  -26.9293   17.4995 C   0  0  0  0  0  0  0  0  0  0  0  0
  -30.3381  -21.3173   21.3600 C   0  0  0  0  0  0  0  0  0  0  0  0
  -20.3271  -19.9103   19.9170 C   0  0  0  0  0  0  0  0  0  0  0  0
  -20.2887  -20.7281   18.6203 C   0  0  0  0  0  0  0  0  0  0  0  0
  -19.8247  -15.2506   16.2814 C   0  0  0  0  0  0  0  0  0  0  0  0
  -19.4247  -14.5314   17.5671 C   0  0  0  0  0  0  0  0  0  0  0  0
  -21.1873  -20.5904   20.9753 C   0  0  0  0  0  0  0  0  0  1  0  0
  -28.4681  -24.9089   18.4551 C   0  0  1  0  0  0  0  0  0  0  0  0
  -31.2247  -22.4550   19.3208 C   0  0  2  0  0  0  0  0  0  0  0  0
  -19.3541  -20.1617   17.5049 C   0  0  0  0  0  0  0  0  0  0  0  0
  -22.4428  -16.6871   15.5729 C   0  0  0  0  0  0  0  0  0  0  0  0
  -28.5928  -25.8399   17.2161 C   0  0  0  0  0  0  0  0  0  0  0  0
  -25.5390  -14.9325   20.4116 N   0  0  0  0  0  0  0  0  0  0  0  0
  -20.0866  -16.6624   16.4801 N   0  0  0  0  0  0  0  0  0  0  0  0
  -24.8267  -16.0622   20.5611 N   0  0  0  0  0  0  0  0  0  0  0  0
  -21.0799  -18.5775   16.5015 N   0  3  0  0  0  0  0  0  0  0  0  0
  -26.7774  -25.1890   20.2403 N   0  0  0  0  0  0  0  0  0  0  0  0
  -21.2860  -14.6408   20.7891 N   0  0  0  0  0  0  0  0  0  0  0  0
  -24.9807  -18.4227   20.4374 N   0  0  0  0  0  0  0  0  0  0  0  0
  -29.1513  -17.0496   19.3806 N   0  0  0  0  0  0  0  0  0  0  0  0
  -24.9767  -28.0964   21.2574 N   0  0  0  0  0  0  0  0  0  0  0  0
  -29.7150  -24.2568   18.8404 N   0  0  0  0  0  0  0  0  0  0  0  0
  -20.4621  -14.5850   18.5729 N   0  0  0  0  0  0  0  0  0  0  0  0
  -31.1606  -21.2040   20.1281 N   0  3  0  0  0  0  0  0  0  0  0  0
  -27.8186  -18.8906   19.6866 O   0  0  0  0  0  0  0  0  0  0  0  0
  -24.5395  -26.4735   19.6457 O   0  0  0  0  0  0  0  0  0  0  0  0
  -28.6440  -26.5815   20.1278 O   0  0  0  0  0  0  0  0  0  0  0  0
  -28.9343  -22.0817   18.6485 O   0  0  0  0  0  0  0  0  0  0  0  0
  -19.0122  -14.5254   20.3480 O   0  0  0  0  0  0  0  0  0  0  0  0
  -30.9077  -11.7704   19.0970 O   0  0  0  0  0  0  0  0  0  0  0  0
  -22.5129  -20.7375   20.4680 O   0  0  0  0  0  0  0  0  0  1  0  0
  -35.8295  -12.8622   21.3303 F   0  0  0  0  0  0  0  0  0  0  0  0
  -32.2609  -14.1002   18.4776 F   0  0  0  0  0  0  0  0  0  0  0  0
  1  2  1  0  0  0  0
  1  5  2  0  0  0  0
  2  6  2  0  0  0  0
  3  8  2  0  0  0  0
  3 16  1  0  0  0  0
  4  9  1  0  0  0  0
  4 16  2  0  0  0  0
  5 18  1  0  0  0  0
  6 20  1  0  0  0  0
  7 10  2  0  0  0  0
  7 19  1  0  0  0  0
  8 22  1  0  0  0  0
  9 22  2  0  0  0  0
 10 23  1  0  0  0  0
 11 12  2  0  0  0  0
 11 24  1  0  0  0  0
 12 25  1  0  0  0  0
 13 21  1  0  0  0  0
 13 23  2  0  0  0  0
 14 25  2  0  0  0  0
 14 26  1  0  0  0  0
 15 28  2  0  0  0  0
 15 69  1  0  0  0  0
 16 27  1  0  0  0  0
 17 27  1  0  0  0  0
 17 29  2  0  0  0  0
 17 31  1  0  0  0  0
 18 20  2  0  0  0  0
 18 36  1  0  0  0  0
 19 21  2  0  0  0  0
 19 37  1  0  0  0  0
 20 45  1  0  0  0  0
 21 38  1  0  0  0  0
 22 85  1  0  0  0  0
 23 86  1  0  0  0  0
 24 26  2  0  0  0  0
 24 85  1  0  0  0  0
 25 87  1  0  0  0  0
 26 88  1  0  0  0  0
 27 68  2  0  0  0  0
 28 65  1  0  0  0  0
 28 71  1  0  0  0  0
 29 70  1  0  0  0  0
 29 74  1  0  0  0  0
 30 66  1  0  0  0  0
 30 69  1  0  0  0  0
 30 71  2  0  0  0  0
 31 75  1  0  0  0  0
 31 80  2  0  0  0  0
 32 46  1  0  0  0  0
 32 76  1  0  0  0  0
 32 81  2  0  0  0  0
 33 63  1  0  0  0  0
 33 72  1  0  0  0  0
 33 82  2  0  0  0  0
 34 64  1  0  0  0  0
 34 77  1  0  0  0  0
 34 83  2  0  0  0  0
 35 73  1  0  0  0  0
 35 78  1  0  0  0  0
 35 84  2  0  0  0  0
 36 39  1  0  0  0  0
 37 46  1  0  0  0  0
 38 72  1  0  0  0  0
 39 41  1  0  0  0  0
 40 42  1  0  0  0  0
 40 43  1  0  0  0  0
 41 45  1  0  0  0  0
 42 47  1  0  0  0  0
 43 73  1  0  0  0  0
 44 47  1  0  0  0  0
 44 73  1  0  0  0  0
 45 76  1  0  0  0  0
 46 72  1  0  0  0  0
 47 70  1  0  0  0  0
 48 64  1  0  0  0  0
 49 65  1  0  0  0  0
 50 65  1  0  0  0  0
 51 66  1  0  0  0  0
 52 66  1  0  0  0  0
 53 66  1  0  0  0  0
 54 67  1  0  0  0  0
 55 67  1  0  0  0  0
 56 67  1  0  0  0  0
 57 79  1  0  0  0  0
 58 59  1  0  0  0  0
 58 62  1  0  0  0  0
 59 65  1  0  0  0  0
 60 61  1  0  0  0  0
 60 69  1  0  0  0  0
 61 78  1  0  0  0  0
 62 86  1  0  0  0  0
 63 67  1  0  0  0  0
 63 77  1  0  0  0  0
 64 79  1  0  0  0  0
 68 70  1  0  0  0  0
M  CHG  2  71   1  79   1
M  ISO  4  35 100  62 101  78 100  86 101
M  END
> <Batch ID>
0073

> <Smiles>
CNC(C)C(=O)NC(C(=O)N1Cc2cc([101O:1][101CH2:1]CCC(C)(C)c3cn(CC[100NH:0][100C:0](=O)N4CCCC(n5nc(-c6ccc(Oc7ccc(F)cc7F)cc6)c(C(N)=O)c5N)C4)c(C(C)(C)C)n3)ccc2CC1C(=O)NC1CCCc2ccccc21)C(C)(C)C

> <Shape>
0.180

> <Color>
0.066

> <Negative vol penalty>
0.000

$$$$

  -OEChem-04052318273D

 84 92  0     1  0  0  0  0  0999 V2000
  -31.1128  -12.1947   22.3446 C   0  0  0  0  0  0  0  0  0  0  0  0
  -30.9278  -13.5735   22.3427 C   0  0  0  0  0  0  0  0  0  0  0  0
  -28.7636  -23.9428   18.3665 C   0  0  0  0  0  0  0  0  0  0  0  0
  -29.6016  -24.0849   20.6280 C   0  0  0  0  0  0  0  0  0  0  0  0
  -30.3174  -11.3846   21.5353 C   0  0  0  0  0  0  0  0  0  0  0  0
  -29.9478  -14.1432   21.5306 C   0  0  0  0  0  0  0  0  0  0  0  0
  -26.5295  -19.0665   22.7880 C   0  0  0  0  0  0  0  0  0  0  0  0
  -28.7308  -22.5519   18.4661 C   0  0  0  0  0  0  0  0  0  0  0  0
  -29.5688  -22.6940   20.7276 C   0  0  0  0  0  0  0  0  0  0  0  0
  -26.6397  -20.4052   22.4144 C   0  0  0  0  0  0  0  0  0  0  0  0
  -30.9286  -19.9900   18.2898 C   0  0  0  0  0  0  0  0  0  0  0  0
  -31.4304  -19.2523   17.2176 C   0  0  0  0  0  0  0  0  0  0  0  0
  -25.0946  -20.0206   20.6023 C   0  0  0  0  0  0  0  0  0  0  0  0
  -29.2715  -18.2077   16.9259 C   0  0  0  0  0  0  0  0  0  0  0  0
  -24.1982  -27.5622   19.7468 C   0  0  0  0  0  0  0  0  0  0  0  0
  -29.1991  -24.7093   19.4475 C   0  0  0  0  0  0  0  0  0  0  0  0
  -29.9709  -26.9152   18.4248 C   0  0  0  0  0  0  0  0  0  0  0  0
  -29.3207  -11.9438   20.7201 C   0  0  0  0  0  0  0  0  0  0  0  0
  -25.7080  -18.1908   22.0636 C   0  0  0  0  0  0  0  0  0  0  0  0
  -29.1392  -13.3400   20.7086 C   0  0  0  0  0  0  0  0  0  0  0  0
  -24.9737  -18.6718   20.9702 C   0  0  0  0  0  0  0  0  0  0  0  0
  -29.1334  -21.9275   19.6466 C   0  0  0  0  0  0  0  0  0  0  0  0
  -25.9244  -20.8818   21.3197 C   0  0  0  0  0  0  0  0  0  0  0  0
  -29.5982  -19.8366   18.6801 C   0  0  0  0  0  0  0  0  0  0  0  0
  -30.6019  -18.3611   16.5357 C   0  0  0  0  0  0  0  0  0  0  0  0
  -28.7697  -18.9454   17.9981 C   0  0  0  0  0  0  0  0  0  0  0  0
  -29.2337  -26.1461   19.3451 C   0  0  0  0  0  0  0  0  0  0  0  0
  -23.6235  -26.4722   20.4274 C   0  0  0  0  0  0  0  0  0  0  0  0
  -23.8472  -28.6585   20.4960 C   0  0  0  0  0  0  0  0  0  0  0  0
  -29.6631  -28.2161   18.7403 C   0  0  0  0  0  0  0  0  0  0  0  0
  -30.8547  -26.4917   17.3784 C   0  0  0  0  0  0  0  0  0  0  0  0
  -26.1926  -15.5439   20.3717 C   0  0  0  0  0  0  0  0  0  0  0  0
  -22.9524  -15.5121   20.2227 C   0  0  0  0  0  0  0  0  0  0  0  0
  -24.9069  -30.6632   21.4793 C   0  0  0  0  0  0  0  0  0  0  0  0
  -20.0279  -17.2647   20.3727 C   0  0  0  0  0  0  0  0  0  0  0  0
  -28.5172  -11.0320   19.8269 C   0  0  0  0  0  0  0  0  0  0  0  0
  -25.5793  -16.7558   22.4956 C   0  0  0  0  0  0  0  0  0  0  0  0
  -24.0623  -17.7772   20.1718 C   0  0  0  0  0  0  0  0  0  0  0  0
  -27.2496  -11.6805   19.2767 C   0  0  0  0  0  0  0  0  0  0  0  0
  -28.3526  -30.9776   22.4111 C   0  0  0  0  0  0  0  0  0  0  0  0
  -27.5526  -13.0774   18.7441 C   0  0  0  0  0  0  0  0  0  0  0  0
  -29.0315  -29.8269   21.6694 C   0  0  0  0  0  0  0  0  0  0  0  0
  -26.9495  -30.5948   22.8712 C   0  0  0  0  0  0  0  0  0  0  0  0
  -26.7386  -28.9562   21.0294 C   0  0  0  0  0  0  0  0  0  0  0  0
  -28.0699  -13.9931   19.8600 C   0  0  1  0  0  0  0  0  0  0  0  0
  -25.1113  -15.8338   21.3739 C   0  0  1  0  0  0  0  0  0  0  0  0
  -28.1468  -29.3115   20.5204 C   0  0  2  0  0  0  0  0  0  0  0  0
  -17.5434  -16.9716   20.1758 C   0  0  0  0  0  0  0  0  0  0  0  0
  -23.1029  -28.5795   23.9724 C   0  0  0  0  0  0  0  0  0  0  0  0
  -20.9893  -28.8393   22.6043 C   0  0  0  0  0  0  0  0  0  0  0  0
  -22.8357  -30.9319   20.1783 C   0  0  0  0  0  0  0  0  0  0  0  0
  -25.0325  -30.4721   19.0844 C   0  0  0  0  0  0  0  0  0  0  0  0
  -23.2185  -15.3145   17.1896 C   0  0  0  0  0  0  0  0  0  0  0  0
  -20.8111  -15.9767   17.0050 C   0  0  0  0  0  0  0  0  0  0  0  0
  -21.4357  -13.8651   18.1770 C   0  0  0  0  0  0  0  0  0  0  0  0
  -19.5817  -18.1929   23.1473 C   0  0  0  0  0  0  0  0  0  0  0  0
  -23.6877  -25.0144   20.0474 C   0  0  0  0  0  0  0  0  0  0  0  0
  -24.8829  -24.2729   20.6501 C   0  0  0  0  0  0  0  0  0  0  0  0
  -24.8922  -22.7824   20.3308 C   0  0  0  0  0  0  0  0  0  1  0  0
  -21.9197  -16.0863   19.2832 C   0  0  1  0  0  0  0  0  0  0  0  0
  -18.7338  -17.0026   21.1217 C   0  0  2  0  0  0  0  0  0  0  0  0
  -22.5155  -28.9447   22.6077 C   0  0  0  0  0  0  0  0  0  0  0  0
  -24.1416  -30.0915   20.3125 C   0  0  0  0  0  0  0  0  0  0  0  0
  -21.8648  -15.3273   17.9273 C   0  0  0  0  0  0  0  0  0  0  0  0
  -28.5121  -26.8959   20.1825 N   0  0  0  0  0  0  0  0  0  0  0  0
  -22.9581  -26.8423   21.5248 N   0  0  0  0  0  0  0  0  0  0  0  0
  -23.1126  -28.1772   21.5395 N   0  0  0  0  0  0  0  0  0  0  0  0
  -28.7944  -28.1497   19.7897 N   0  0  0  0  0  0  0  0  0  0  0  0
  -23.9749  -16.3807   20.6297 N   0  0  0  0  0  0  0  0  0  0  0  0
  -26.1480  -30.0891   21.7554 N   0  0  0  0  0  0  0  0  0  0  0  0
  -30.0536  -29.3989   18.2197 N   0  0  0  0  0  0  0  0  0  0  0  0
  -32.2141  -26.3276   17.6775 N   0  0  0  0  0  0  0  0  0  0  0  0
  -26.9742  -14.4492   20.6882 N   0  0  0  0  0  0  0  0  0  0  0  0
  -20.6585  -16.0913   20.0166 N   0  0  0  0  0  0  0  0  0  0  0  0
  -18.4989  -18.0669   22.1381 N   0  3  0  0  0  0  0  0  0  0  0  0
  -30.4538  -26.2812   16.2085 O   0  0  0  0  0  0  0  0  0  0  0  0
  -26.3083  -16.2594   19.3836 O   0  0  0  0  0  0  0  0  0  0  0  0
  -22.8514  -14.3382   20.5879 O   0  0  0  0  0  0  0  0  0  0  0  0
  -24.4160  -31.5942   22.1232 O   0  0  0  0  0  0  0  0  0  0  0  0
  -20.4365  -18.3970   20.1248 O   0  0  0  0  0  0  0  0  0  0  0  0
  -29.1013  -20.5703   19.7442 O   0  0  0  0  0  0  0  0  0  0  0  0
  -26.0307  -22.1878   20.9526 O   0  0  0  0  0  0  0  0  0  1  0  0
  -31.0835  -17.6539   15.5052 F   0  0  0  0  0  0  0  0  0  0  0  0
  -27.4905  -18.7946   18.3677 F   0  0  0  0  0  0  0  0  0  0  0  0
  1  2  1  0  0  0  0
  1  5  2  0  0  0  0
  2  6  2  0  0  0  0
  3  8  2  0  0  0  0
  3 16  1  0  0  0  0
  4  9  1  0  0  0  0
  4 16  2  0  0  0  0
  5 18  1  0  0  0  0
  6 20  1  0  0  0  0
  7 10  2  0  0  0  0
  7 19  1  0  0  0  0
  8 22  1  0  0  0  0
  9 22  2  0  0  0  0
 10 23  1  0  0  0  0
 11 12  2  0  0  0  0
 11 24  1  0  0  0  0
 12 25  1  0  0  0  0
 13 21  1  0  0  0  0
 13 23  2  0  0  0  0
 14 25  2  0  0  0  0
 14 26  1  0  0  0  0
 15 28  1  0  0  0  0
 15 29  2  0  0  0  0
 16 27  1  0  0  0  0
 17 27  1  0  0  0  0
 17 30  2  0  0  0  0
 17 31  1  0  0  0  0
 18 20  2  0  0  0  0
 18 36  1  0  0  0  0
 19 21  2  0  0  0  0
 19 37  1  0  0  0  0
 20 45  1  0  0  0  0
 21 38  1  0  0  0  0
 22 81  1  0  0  0  0
 23 82  1  0  0  0  0
 24 26  2  0  0  0  0
 24 81  1  0  0  0  0
 25 83  1  0  0  0  0
 26 84  1  0  0  0  0
 27 65  2  0  0  0  0
 28 57  1  0  0  0  0
 28 66  2  0  0  0  0
 29 63  1  0  0  0  0
 29 67  1  0  0  0  0
 30 68  1  0  0  0  0
 30 71  1  0  0  0  0
 31 72  1  0  0  0  0
 31 76  2  0  0  0  0
 32 46  1  0  0  0  0
 32 73  1  0  0  0  0
 32 77  2  0  0  0  0
 33 60  1  0  0  0  0
 33 69  1  0  0  0  0
 33 78  2  0  0  0  0
 34 63  1  0  0  0  0
 34 70  1  0  0  0  0
 34 79  2  0  0  0  0
 35 61  1  0  0  0  0
 35 74  1  0  0  0  0
 35 80  2  0  0  0  0
 36 39  1  0  0  0  0
 37 46  1  0  0  0  0
 38 69  1  0  0  0  0
 39 41  1  0  0  0  0
 40 42  1  0  0  0  0
 40 43  1  0  0  0  0
 41 45  1  0  0  0  0
 42 47  1  0  0  0  0
 43 70  1  0  0  0  0
 44 47  1  0  0  0  0
 44 70  1  0  0  0  0
 45 73  1  0  0  0  0
 46 69  1  0  0  0  0
 47 68  1  0  0  0  0
 48 61  1  0  0  0  0
 49 62  1  0  0  0  0
 50 62  1  0  0  0  0
 51 63  1  0  0  0  0
 52 63  1  0  0  0  0
 53 64  1  0  0  0  0
 54 64  1  0  0  0  0
 55 64  1  0  0  0  0
 56 75  1  0  0  0  0
 57 58  1  0  0  0  0
 58 59  1  0  0  0  0
 59 82  1  0  0  0  0
 60 64  1  0  0  0  0
 60 74  1  0  0  0  0
 61 75  1  0  0  0  0
 62 67  1  0  0  0  0
 65 68  1  0  0  0  0
 66 67  1  0  0  0  0
M  CHG  1  75   1
M  ISO  4  34 100  59 101  63 100  82 101
M  END
> <Batch ID>
0073

> <Smiles>
CNC(C)C(=O)NC(C(=O)N1Cc2cc([101O:1][101CH2:1]CCc3cc([100C:0](C)(C)[100C:0](=O)N4CCCC(n5nc(-c6ccc(Oc7ccc(F)cc7F)cc6)c(C(N)=O)c5N)C4)n(C(C)C)n3)ccc2CC1C(=O)NC1CCCc2ccccc21)C(C)(C)C

> <Shape>
0.230

> <Color>
0.061

> <Negative vol penalty>
0.000

$$$$

  -OEChem-04052318273D

 84 92  0     1  0  0  0  0  0999 V2000
  -19.3488  -26.9570   26.3741 C   0  0  0  0  0  0  0  0  0  0  0  0
  -20.6281  -26.6463   25.9242 C   0  0  0  0  0  0  0  0  0  0  0  0
  -28.1189  -14.8046   20.8908 C   0  0  0  0  0  0  0  0  0  0  0  0
  -25.8951  -15.6825   20.5427 C   0  0  0  0  0  0  0  0  0  0  0  0
  -18.4151  -27.5027   25.4942 C   0  0  0  0  0  0  0  0  0  0  0  0
  -20.9740  -26.8801   24.5938 C   0  0  0  0  0  0  0  0  0  0  0  0
  -26.4462  -28.6187   22.4634 C   0  0  0  0  0  0  0  0  0  0  0  0
  -27.6089  -13.5065   20.8757 C   0  0  0  0  0  0  0  0  0  0  0  0
  -25.3850  -14.3843   20.5275 C   0  0  0  0  0  0  0  0  0  0  0  0
  -27.4998  -27.9065   21.8921 C   0  0  0  0  0  0  0  0  0  0  0  0
  -26.5951  -11.2553   18.5654 C   0  0  0  0  0  0  0  0  0  0  0  0
  -27.2813  -10.2979   17.8183 C   0  0  0  0  0  0  0  0  0  0  0  0
  -27.6068  -22.3603   19.5630 C   0  0  0  0  0  0  0  0  0  0  0  0
  -26.5409  -21.7183   20.1685 C   0  0  0  0  0  0  0  0  0  0  0  0
  -26.6720  -28.4566   19.6941 C   0  0  0  0  0  0  0  0  0  0  0  0
  -27.6293   -8.9871   19.8178 C   0  0  0  0  0  0  0  0  0  0  0  0
  -27.2620  -15.8926   20.7244 C   0  0  0  0  0  0  0  0  0  0  0  0
  -28.7496  -17.7804   19.8694 C   0  0  0  0  0  0  0  0  0  0  0  0
  -18.7527  -27.7523   24.1547 C   0  0  0  0  0  0  0  0  0  0  0  0
  -25.4898  -29.2472   21.6530 C   0  0  0  0  0  0  0  0  0  0  0  0
  -20.0434  -27.4284   23.6948 C   0  0  0  0  0  0  0  0  0  0  0  0
  -25.6086  -29.1784   20.2575 C   0  0  0  0  0  0  0  0  0  0  0  0
  -26.2420  -13.2963   20.6940 C   0  0  0  0  0  0  0  0  0  0  0  0
  -27.6112  -27.8229   20.5073 C   0  0  0  0  0  0  0  0  0  0  0  0
  -26.4261  -11.0786   19.9387 C   0  0  0  0  0  0  0  0  0  0  0  0
  -27.7984   -9.1638   18.4445 C   0  0  0  0  0  0  0  0  0  0  0  0
  -26.9432   -9.9445   20.5649 C   0  0  0  0  0  0  0  0  0  0  0  0
  -27.7882  -17.2339   20.7405 C   0  0  0  0  0  0  0  0  0  0  0  0
  -27.5176  -23.7250   19.3763 C   0  0  0  0  0  0  0  0  0  0  0  0
  -25.4564  -22.4837   20.5474 C   0  0  0  0  0  0  0  0  0  0  0  0
  -28.9052  -19.0757   20.2990 C   0  0  0  0  0  0  0  0  0  0  0  0
  -29.4402  -17.1717   18.7702 C   0  0  0  0  0  0  0  0  0  0  0  0
  -22.3521  -28.9477   21.2422 C   0  0  0  0  0  0  0  0  0  0  0  0
  -22.7470  -31.5432   19.3370 C   0  0  0  0  0  0  0  0  0  0  0  0
  -25.2627  -22.7575   23.3466 C   0  0  0  0  0  0  0  0  0  0  0  0
  -24.8327  -33.4222   17.3965 C   0  0  0  0  0  0  0  0  0  0  0  0
  -17.6949  -28.2994   23.2292 C   0  0  0  0  0  0  0  0  0  0  0  0
  -24.3743  -30.0340   22.2846 C   0  0  0  0  0  0  0  0  0  0  0  0
  -24.6196  -29.8523   19.3432 C   0  0  0  0  0  0  0  0  0  0  0  0
  -18.2575  -28.8644   21.9275 C   0  0  0  0  0  0  0  0  0  0  0  0
  -28.6018  -21.7917   24.2168 C   0  0  0  0  0  0  0  0  0  0  0  0
  -19.2732  -27.9007   21.3221 C   0  0  0  0  0  0  0  0  0  0  0  0
  -28.8487  -20.5466   23.3660 C   0  0  0  0  0  0  0  0  0  0  0  0
  -27.1500  -21.8742   24.6778 C   0  0  0  0  0  0  0  0  0  0  0  0
  -26.3998  -20.5721   22.7123 C   0  0  0  0  0  0  0  0  0  0  0  0
  -20.4641  -27.6904   22.2649 C   0  0  1  0  0  0  0  0  0  0  0  0
  -23.1680  -30.2033   21.3661 C   0  0  1  0  0  0  0  0  0  0  0  0
  -27.8472  -20.4663   22.2002 C   0  0  2  0  0  0  0  0  0  0  0  0
  -23.0163  -21.8811   20.3094 C   0  0  0  0  0  0  0  0  0  0  0  0
  -25.5821  -35.3455   15.9694 C   0  0  0  0  0  0  0  0  0  0  0  0
  -23.3398  -21.2463   23.5705 C   0  0  0  0  0  0  0  0  0  0  0  0
  -23.0807  -23.5730   22.6831 C   0  0  0  0  0  0  0  0  0  0  0  0
  -21.3425  -29.9782   17.1261 C   0  0  0  0  0  0  0  0  0  0  0  0
  -22.2301  -31.6427   15.4799 C   0  0  0  0  0  0  0  0  0  0  0  0
  -20.6770  -32.3836   17.2859 C   0  0  0  0  0  0  0  0  0  0  0  0
  -25.7199  -34.9764   19.7537 C   0  0  0  0  0  0  0  0  0  0  0  0
  -28.6502  -24.4729   18.7196 C   0  0  0  0  0  0  0  0  0  0  0  0
  -29.7003  -24.9900   19.7052 C   0  0  0  0  0  0  0  0  0  0  0  0
  -29.1522  -26.0203   20.6858 C   0  0  0  0  0  0  0  0  0  1  0  0
  -24.2845  -21.8407   21.2065 C   0  0  2  0  0  0  0  0  0  0  0  0
  -23.0551  -31.7593   17.8751 C   0  0  1  0  0  0  0  0  0  0  0  0
  -25.0799  -34.9189   17.3400 C   0  0  2  0  0  0  0  0  0  0  0  0
  -23.9799  -22.3236   22.6830 C   0  0  0  0  0  0  0  0  0  0  0  0
  -21.8439  -31.4265   16.9587 C   0  0  0  0  0  0  0  0  0  0  0  0
  -27.3631  -18.1102   21.6545 N   0  0  0  0  0  0  0  0  0  0  0  0
  -26.4437  -24.4489   19.7571 N   0  0  0  0  0  0  0  0  0  0  0  0
  -25.3963  -23.8180   20.3525 N   0  0  0  0  0  0  0  0  0  0  0  0
  -28.0607  -19.2205   21.3601 N   0  0  0  0  0  0  0  0  0  0  0  0
  -23.5430  -30.6045   20.0087 N   0  0  0  0  0  0  0  0  0  0  0  0
  -26.2298  -21.7717   23.5438 N   0  0  0  0  0  0  0  0  0  0  0  0
  -29.6807  -20.0935   19.8688 N   0  0  0  0  0  0  0  0  0  0  0  0
  -28.8649  -17.2491   17.4945 N   0  0  0  0  0  0  0  0  0  0  0  0
  -21.3651  -28.8212   22.2011 N   0  0  0  0  0  0  0  0  0  0  0  0
  -23.5339  -33.1323   17.7574 N   0  0  0  0  0  0  0  0  0  0  0  0
  -26.0950  -35.3150   18.3567 N   0  3  0  0  0  0  0  0  0  0  0  0
  -30.5268  -16.5626   18.9178 O   0  0  0  0  0  0  0  0  0  0  0  0
  -22.5987  -28.1532   20.3424 O   0  0  0  0  0  0  0  0  0  0  0  0
  -21.8385  -32.1888   19.8655 O   0  0  0  0  0  0  0  0  0  0  0  0
  -25.4003  -23.9384   23.6765 O   0  0  0  0  0  0  0  0  0  0  0  0
  -25.7036  -32.5932   17.1420 O   0  0  0  0  0  0  0  0  0  0  0  0
  -25.7440  -12.0297   20.6789 O   0  0  0  0  0  0  0  0  0  0  0  0
  -28.6383  -27.1278   19.9471 O   0  0  0  0  0  0  0  0  0  1  0  0
  -28.4559   -8.2437   17.7267 F   0  0  0  0  0  0  0  0  0  0  0  0
  -26.7830   -9.7688   21.8837 F   0  0  0  0  0  0  0  0  0  0  0  0
  1  2  1  0  0  0  0
  1  5  2  0  0  0  0
  2  6  2  0  0  0  0
  3  8  2  0  0  0  0
  3 17  1  0  0  0  0
  4  9  1  0  0  0  0
  4 17  2  0  0  0  0
  5 19  1  0  0  0  0
  6 21  1  0  0  0  0
  7 10  2  0  0  0  0
  7 20  1  0  0  0  0
  8 23  1  0  0  0  0
  9 23  2  0  0  0  0
 10 24  1  0  0  0  0
 11 12  2  0  0  0  0
 11 25  1  0  0  0  0
 12 26  1  0  0  0  0
 13 14  2  0  0  0  0
 13 29  1  0  0  0  0
 14 30  1  0  0  0  0
 15 22  1  0  0  0  0
 15 24  2  0  0  0  0
 16 26  2  0  0  0  0
 16 27  1  0  0  0  0
 17 28  1  0  0  0  0
 18 28  1  0  0  0  0
 18 31  2  0  0  0  0
 18 32  1  0  0  0  0
 19 21  2  0  0  0  0
 19 37  1  0  0  0  0
 20 22  2  0  0  0  0
 20 38  1  0  0  0  0
 21 46  1  0  0  0  0
 22 39  1  0  0  0  0
 23 81  1  0  0  0  0
 24 82  1  0  0  0  0
 25 27  2  0  0  0  0
 25 81  1  0  0  0  0
 26 83  1  0  0  0  0
 27 84  1  0  0  0  0
 28 65  2  0  0  0  0
 29 57  1  0  0  0  0
 29 66  2  0  0  0  0
 30 60  1  0  0  0  0
 30 67  2  0  0  0  0
 31 68  1  0  0  0  0
 31 71  1  0  0  0  0
 32 72  1  0  0  0  0
 32 76  2  0  0  0  0
 33 47  1  0  0  0  0
 33 73  1  0  0  0  0
 33 77  2  0  0  0  0
 34 61  1  0  0  0  0
 34 69  1  0  0  0  0
 34 78  2  0  0  0  0
 35 63  1  0  0  0  0
 35 70  1  0  0  0  0
 35 79  2  0  0  0  0
 36 62  1  0  0  0  0
 36 74  1  0  0  0  0
 36 80  2  0  0  0  0
 37 40  1  0  0  0  0
 38 47  1  0  0  0  0
 39 69  1  0  0  0  0
 40 42  1  0  0  0  0
 41 43  1  0  0  0  0
 41 44  1  0  0  0  0
 42 46  1  0  0  0  0
 43 48  1  0  0  0  0
 44 70  1  0  0  0  0
 45 48  1  0  0  0  0
 45 70  1  0  0  0  0
 46 73  1  0  0  0  0
 47 69  1  0  0  0  0
 48 68  1  0  0  0  0
 49 60  1  0  0  0  0
 50 62  1  0  0  0  0
 51 63  1  0  0  0  0
 52 63  1  0  0  0  0
 53 64  1  0  0  0  0
 54 64  1  0  0  0  0
 55 64  1  0  0  0  0
 56 75  1  0  0  0  0
 57 58  1  0  0  0  0
 58 59  1  0  0  0  0
 59 82  1  0  0  0  0
 60 63  1  0  0  0  0
 61 64  1  0  0  0  0
 61 74  1  0  0  0  0
 62 75  1  0  0  0  0
 65 68  1  0  0  0  0
 66 67  1  0  0  0  0
M  CHG  1  75   1
M  ISO  4  35 100  59 101  63 100  82 101
M  END
> <Batch ID>
0073

> <Smiles>
CNC(C)C(=O)NC(C(=O)N1Cc2cc([101O:1][101CH2:1]CCc3ccc(C(C)[100C:0](C)(C)[100C:0](=O)N4CCCC(n5nc(-c6ccc(Oc7ccc(F)cc7F)cc6)c(C(N)=O)c5N)C4)nn3)ccc2CC1C(=O)NC1CCCc2ccccc21)C(C)(C)C

> <Shape>
0.202

> <Color>
0.100

> <Negative vol penalty>
0.000

$$$$

  -OEChem-04052318273D

 86 94  0     1  0  0  0  0  0999 V2000
  -19.8324  -24.8842   23.9439 C   0  0  0  0  0  0  0  0  0  0  0  0
  -21.0600  -25.2387   23.3937 C   0  0  0  0  0  0  0  0  0  0  0  0
  -24.4085  -14.2733   19.7113 C   0  0  0  0  0  0  0  0  0  0  0  0
  -25.6301  -14.7621   21.7376 C   0  0  0  0  0  0  0  0  0  0  0  0
  -18.7366  -25.7354   23.8070 C   0  0  0  0  0  0  0  0  0  0  0  0
  -21.1923  -26.4441   22.7053 C   0  0  0  0  0  0  0  0  0  0  0  0
  -25.4002  -28.9572   23.9794 C   0  0  0  0  0  0  0  0  0  0  0  0
  -24.7628  -12.9287   19.8220 C   0  0  0  0  0  0  0  0  0  0  0  0
  -25.9844  -13.4175   21.8483 C   0  0  0  0  0  0  0  0  0  0  0  0
  -26.5992  -28.5154   23.4217 C   0  0  0  0  0  0  0  0  0  0  0  0
  -23.7734  -10.2306   21.6037 C   0  0  0  0  0  0  0  0  0  0  0  0
  -22.7759   -9.2781   21.3953 C   0  0  0  0  0  0  0  0  0  0  0  0
  -26.4822  -30.2836   21.7849 C   0  0  0  0  0  0  0  0  0  0  0  0
  -24.0450   -8.3504   19.5606 C   0  0  0  0  0  0  0  0  0  0  0  0
  -28.2396  -27.7200   17.3452 C   0  0  0  0  0  0  0  0  0  0  0  0
  -24.8422  -15.1900   20.6691 C   0  0  0  0  0  0  0  0  0  0  0  0
  -23.3362  -17.2051   21.0920 C   0  0  0  0  0  0  0  0  0  0  0  0
  -18.8580  -26.9563   23.1249 C   0  0  0  0  0  0  0  0  0  0  0  0
  -24.7265  -30.0607   23.4364 C   0  0  0  0  0  0  0  0  0  0  0  0
  -20.0968  -27.3118   22.5581 C   0  0  0  0  0  0  0  0  0  0  0  0
  -25.2762  -30.7389   22.3391 C   0  0  0  0  0  0  0  0  0  0  0  0
  -25.5507  -12.5008   20.8905 C   0  0  0  0  0  0  0  0  0  0  0  0
  -27.1389  -29.1769   22.3224 C   0  0  0  0  0  0  0  0  0  0  0  0
  -24.9066  -10.2431   20.7904 C   0  0  0  0  0  0  0  0  0  0  0  0
  -22.9117   -8.3380   20.3739 C   0  0  0  0  0  0  0  0  0  0  0  0
  -25.0424   -9.3030   19.7690 C   0  0  0  0  0  0  0  0  0  0  0  0
  -24.4770  -16.5791   20.5549 C   0  0  0  0  0  0  0  0  0  0  0  0
  -29.1787  -27.8595   18.3279 C   0  0  0  0  0  0  0  0  0  0  0  0
  -23.4517  -18.5183   20.7066 C   0  0  0  0  0  0  0  0  0  0  0  0
  -27.6349  -26.4488   19.0537 C   0  0  0  0  0  0  0  0  0  0  0  0
  -22.2677  -16.6492   21.8698 C   0  0  0  0  0  0  0  0  0  0  0  0
  -21.8828  -30.5124   22.0899 C   0  0  0  0  0  0  0  0  0  0  0  0
  -22.7778  -33.6295   22.1620 C   0  0  0  0  0  0  0  0  0  0  0  0
  -25.3101  -35.9150   22.2672 C   0  0  0  0  0  0  0  0  0  0  0  0
  -26.4379  -23.0722   20.1665 C   0  0  0  0  0  0  0  0  0  0  0  0
  -17.6335  -27.8216   22.9619 C   0  0  0  0  0  0  0  0  0  0  0  0
  -23.4478  -30.5411   24.0662 C   0  0  0  0  0  0  0  0  0  0  0  0
  -24.6025  -31.9411   21.7314 C   0  0  0  0  0  0  0  0  0  0  0  0
  -17.9516  -29.2541   22.5410 C   0  0  0  0  0  0  0  0  0  0  0  0
  -26.6022  -20.7223   17.4190 C   0  0  0  0  0  0  0  0  0  0  0  0
  -18.9604  -29.2628   21.3969 C   0  0  0  0  0  0  0  0  0  0  0  0
  -25.9643  -19.4798   18.0430 C   0  0  0  0  0  0  0  0  0  0  0  0
  -27.4575  -21.4739   18.4348 C   0  0  0  0  0  0  0  0  0  0  0  0
  -26.0985  -20.6211   20.3056 C   0  0  0  0  0  0  0  0  0  0  0  0
  -20.2862  -28.6225   21.8256 C   0  0  1  0  0  0  0  0  0  0  0  0
  -22.5835  -31.3608   23.1131 C   0  0  1  0  0  0  0  0  0  0  0  0
  -25.2028  -19.8298   19.3352 C   0  0  2  0  0  0  0  0  0  0  0  0
  -30.8731  -24.7796   19.9763 C   0  0  0  0  0  0  0  0  0  0  0  0
  -25.7318  -38.3887   22.2771 C   0  0  0  0  0  0  0  0  0  0  0  0
  -30.6145  -29.4804   17.0407 C   0  0  0  0  0  0  0  0  0  0  0  0
  -31.6858  -27.7872   18.5643 C   0  0  0  0  0  0  0  0  0  0  0  0
  -30.4862  -29.7492   19.5091 C   0  0  0  0  0  0  0  0  0  0  0  0
  -22.1772  -33.7414   19.1726 C   0  0  0  0  0  0  0  0  0  0  0  0
  -23.4859  -35.8729   19.0603 C   0  0  0  0  0  0  0  0  0  0  0  0
  -21.4270  -35.7479   20.4632 C   0  0  0  0  0  0  0  0  0  0  0  0
  -30.8295  -27.7291   20.8034 C   0  0  0  0  0  0  0  0  0  0  0  0
  -26.6288  -35.7968   24.9141 C   0  0  0  0  0  0  0  0  0  0  0  0
  -26.8649  -25.5017   19.8979 C   0  0  0  0  0  0  0  0  0  0  0  0
  -29.8814  -25.3926   20.9610 C   0  0  0  0  0  0  0  0  0  0  0  0
  -28.5981  -27.3534   21.8734 C   0  0  0  0  0  0  0  0  0  1  0  0
  -23.5198  -34.5507   21.2240 C   0  0  1  0  0  0  0  0  0  0  0  0
  -25.5199  -37.1469   23.1290 C   0  0  2  0  0  0  0  0  0  0  0  0
  -30.4030  -28.6685   18.3664 C   0  0  0  0  0  0  0  0  0  0  0  0
  -22.6644  -34.9544   19.9900 C   0  0  0  0  0  0  0  0  0  0  0  0
  -29.5269  -26.8941   20.7114 C   0  0  1  0  0  0  0  0  0  0  0  0
  -25.2596  -17.4251   19.8797 N   0  0  0  0  0  0  0  0  0  0  0  0
  -28.7790  -27.0623   19.3733 N   0  0  0  0  0  0  0  0  0  0  0  0
  -24.6094  -18.5960   19.9897 N   0  0  0  0  0  0  0  0  0  0  0  0
  -27.2966  -26.8413   17.8213 N   0  3  0  0  0  0  0  0  0  0  0  0
  -23.3513  -32.3685   22.3789 N   0  0  0  0  0  0  0  0  0  0  0  0
  -26.6684  -21.7933   19.6330 N   0  0  0  0  0  0  0  0  0  0  0  0
  -22.6748  -19.6026   20.9143 N   0  0  0  0  0  0  0  0  0  0  0  0
  -22.3053  -15.2820   22.1760 N   0  0  0  0  0  0  0  0  0  0  0  0
  -21.0565  -29.5460   22.6308 N   0  0  0  0  0  0  0  0  0  0  0  0
  -23.9722  -35.6780   22.0321 N   0  0  0  0  0  0  0  0  0  0  0  0
  -27.0183  -24.1278   19.4739 N   0  0  0  0  0  0  0  0  0  0  0  0
  -26.7122  -36.9691   24.0053 N   0  3  0  0  0  0  0  0  0  0  0  0
  -21.2996  -17.3409   22.2671 O   0  0  0  0  0  0  0  0  0  0  0  0
  -22.0764  -30.7203   20.8978 O   0  0  0  0  0  0  0  0  0  0  0  0
  -21.7319  -34.0172   22.6886 O   0  0  0  0  0  0  0  0  0  0  0  0
  -26.2401  -35.2334   21.8418 O   0  0  0  0  0  0  0  0  0  0  0  0
  -25.7600  -23.2603   21.1825 O   0  0  0  0  0  0  0  0  0  0  0  0
  -25.8964  -11.1888   20.9990 O   0  0  0  0  0  0  0  0  0  0  0  0
  -28.3087  -28.7474   21.7757 O   0  0  0  0  0  0  0  0  0  1  0  0
  -21.9545   -7.4224   20.1749 F   0  0  0  0  0  0  0  0  0  0  0  0
  -26.1294   -9.3092   18.9852 F   0  0  0  0  0  0  0  0  0  0  0  0
  1  2  1  0  0  0  0
  1  5  2  0  0  0  0
  2  6  2  0  0  0  0
  3  8  2  0  0  0  0
  3 16  1  0  0  0  0
  4  9  1  0  0  0  0
  4 16  2  0  0  0  0
  5 18  1  0  0  0  0
  6 20  1  0  0  0  0
  7 10  2  0  0  0  0
  7 19  1  0  0  0  0
  8 22  1  0  0  0  0
  9 22  2  0  0  0  0
 10 23  1  0  0  0  0
 11 12  2  0  0  0  0
 11 24  1  0  0  0  0
 12 25  1  0  0  0  0
 13 21  1  0  0  0  0
 13 23  2  0  0  0  0
 14 25  2  0  0  0  0
 14 26  1  0  0  0  0
 15 28  2  0  0  0  0
 15 69  1  0  0  0  0
 16 27  1  0  0  0  0
 17 27  1  0  0  0  0
 17 29  2  0  0  0  0
 17 31  1  0  0  0  0
 18 20  2  0  0  0  0
 18 36  1  0  0  0  0
 19 21  2  0  0  0  0
 19 37  1  0  0  0  0
 20 45  1  0  0  0  0
 21 38  1  0  0  0  0
 22 83  1  0  0  0  0
 23 84  1  0  0  0  0
 24 26  2  0  0  0  0
 24 83  1  0  0  0  0
 25 85  1  0  0  0  0
 26 86  1  0  0  0  0
 27 66  2  0  0  0  0
 28 63  1  0  0  0  0
 28 67  1  0  0  0  0
 29 68  1  0  0  0  0
 29 72  1  0  0  0  0
 30 58  1  0  0  0  0
 30 67  1  0  0  0  0
 30 69  2  0  0  0  0
 31 73  1  0  0  0  0
 31 78  2  0  0  0  0
 32 46  1  0  0  0  0
 32 74  1  0  0  0  0
 32 79  2  0  0  0  0
 33 61  1  0  0  0  0
 33 70  1  0  0  0  0
 33 80  2  0  0  0  0
 34 62  1  0  0  0  0
 34 75  1  0  0  0  0
 34 81  2  0  0  0  0
 35 71  1  0  0  0  0
 35 76  1  0  0  0  0
 35 82  2  0  0  0  0
 36 39  1  0  0  0  0
 37 46  1  0  0  0  0
 38 70  1  0  0  0  0
 39 41  1  0  0  0  0
 40 42  1  0  0  0  0
 40 43  1  0  0  0  0
 41 45  1  0  0  0  0
 42 47  1  0  0  0  0
 43 71  1  0  0  0  0
 44 47  1  0  0  0  0
 44 71  1  0  0  0  0
 45 74  1  0  0  0  0
 46 70  1  0  0  0  0
 47 68  1  0  0  0  0
 48 59  1  0  0  0  0
 49 62  1  0  0  0  0
 50 63  1  0  0  0  0
 51 63  1  0  0  0  0
 52 63  1  0  0  0  0
 53 64  1  0  0  0  0
 54 64  1  0  0  0  0
 55 64  1  0  0  0  0
 56 65  1  0  0  0  0
 57 77  1  0  0  0  0
 58 76  1  0  0  0  0
 59 65  1  0  0  0  0
 60 65  1  0  0  0  0
 60 84  1  0  0  0  0
 61 64  1  0  0  0  0
 61 75  1  0  0  0  0
 62 77  1  0  0  0  0
 65 67  1  0  0  0  0
 66 68  1  0  0  0  0
M  CHG  2  69   1  77   1
M  ISO  4  35 100  60 101  76 100  84 101
M  END
> <Batch ID>
0073

> <Smiles>
CCC(C)(n1c(C(C)(C)C)cnc1C[100NH:0][100C:0](=O)N1CCCC(n2nc(-c3ccc(Oc4ccc(F)cc4F)cc3)c(C(N)=O)c2N)C1)[101CH2:1][101O:1]c1ccc2c(c1)CN(C(=O)C(NC(=O)C(C)NC)C(C)(C)C)C(C(=O)NC1CCCc3ccccc31)C2

> <Shape>
0.236

> <Color>
0.093

> <Negative vol penalty>
0.000

$$$$

  -OEChem-04052318273D

 85 93  0     1  0  0  0  0  0999 V2000
  -32.0993  -16.8259   14.4916 C   0  0  0  0  0  0  0  0  0  0  0  0
  -30.9534  -16.6673   15.2644 C   0  0  0  0  0  0  0  0  0  0  0  0
  -23.3351   -9.7089   20.3165 C   0  0  0  0  0  0  0  0  0  0  0  0
  -23.7969  -10.2140   22.6335 C   0  0  0  0  0  0  0  0  0  0  0  0
  -33.0717  -17.7505   14.8703 C   0  0  0  0  0  0  0  0  0  0  0  0
  -30.7798  -17.4326   16.4171 C   0  0  0  0  0  0  0  0  0  0  0  0
  -25.6499  -20.5352   20.3381 C   0  0  0  0  0  0  0  0  0  0  0  0
  -22.6465   -8.5595   20.7043 C   0  0  0  0  0  0  0  0  0  0  0  0
  -23.1083   -9.0646   23.0213 C   0  0  0  0  0  0  0  0  0  0  0  0
  -25.1893  -20.5994   21.6525 C   0  0  0  0  0  0  0  0  0  0  0  0
  -23.6947   -5.7379   23.1633 C   0  0  0  0  0  0  0  0  0  0  0  0
  -24.2836   -4.9256   24.1324 C   0  0  0  0  0  0  0  0  0  0  0  0
  -26.8988  -22.2222   22.1659 C   0  0  0  0  0  0  0  0  0  0  0  0
  -22.3724   -5.2583   25.5725 C   0  0  0  0  0  0  0  0  0  0  0  0
  -28.0219  -19.8428   25.0679 C   0  0  0  0  0  0  0  0  0  0  0  0
  -23.9103  -10.5362   21.2811 C   0  0  0  0  0  0  0  0  0  0  0  0
  -24.0904  -13.0149   20.7059 C   0  0  0  0  0  0  0  0  0  0  0  0
  -32.9054  -18.5343   16.0230 C   0  0  0  0  0  0  0  0  0  0  0  0
  -26.7472  -21.3072   19.9299 C   0  0  0  0  0  0  0  0  0  0  0  0
  -31.7515  -18.3676   16.8123 C   0  0  0  0  0  0  0  0  0  0  0  0
  -27.3698  -22.1679   20.8452 C   0  0  0  0  0  0  0  0  0  0  0  0
  -26.8372  -19.1595   25.2521 C   0  0  0  0  0  0  0  0  0  0  0  0
  -22.5331   -8.2373   22.0567 C   0  0  0  0  0  0  0  0  0  0  0  0
  -25.8156  -21.4408   22.5673 C   0  0  0  0  0  0  0  0  0  0  0  0
  -22.4447   -6.3104   23.3988 C   0  0  0  0  0  0  0  0  0  0  0  0
  -23.6224   -4.6858   25.3370 C   0  0  0  0  0  0  0  0  0  0  0  0
  -21.7836   -6.0706   24.6034 C   0  0  0  0  0  0  0  0  0  0  0  0
  -24.6222  -11.7233   20.8812 C   0  0  0  0  0  0  0  0  0  0  0  0
  -26.9027  -17.7926   25.0751 C   0  0  0  0  0  0  0  0  0  0  0  0
  -25.1656  -13.7803   20.3256 C   0  0  0  0  0  0  0  0  0  0  0  0
  -29.1209  -17.9106   24.5928 C   0  0  0  0  0  0  0  0  0  0  0  0
  -22.7447  -13.4812   20.8720 C   0  0  0  0  0  0  0  0  0  0  0  0
  -29.6488  -20.6623   18.8038 C   0  0  0  0  0  0  0  0  0  0  0  0
  -29.7966  -23.8818   18.4366 C   0  0  0  0  0  0  0  0  0  0  0  0
  -28.6768  -26.9611   19.3910 C   0  0  0  0  0  0  0  0  0  0  0  0
  -31.0650  -13.2421   21.1962 C   0  0  0  0  0  0  0  0  0  0  0  0
  -34.0059  -19.4870   16.4179 C   0  0  0  0  0  0  0  0  0  0  0  0
  -27.2150  -21.2466   18.5017 C   0  0  0  0  0  0  0  0  0  0  0  0
  -28.5387  -23.0324   20.4520 C   0  0  0  0  0  0  0  0  0  0  0  0
  -33.5715  -20.5257   17.4489 C   0  0  0  0  0  0  0  0  0  0  0  0
  -29.3739  -13.4676   18.0711 C   0  0  0  0  0  0  0  0  0  0  0  0
  -32.7938  -19.8616   18.5807 C   0  0  0  0  0  0  0  0  0  0  0  0
  -27.9164  -13.1626   18.4211 C   0  0  0  0  0  0  0  0  0  0  0  0
  -30.3416  -12.6325   18.9067 C   0  0  0  0  0  0  0  0  0  0  0  0
  -28.6805  -12.4182   20.7147 C   0  0  0  0  0  0  0  0  0  0  0  0
  -31.5154  -19.1969   18.0559 C   0  0  1  0  0  0  0  0  0  0  0  0
  -28.6637  -21.6923   18.3281 C   0  0  1  0  0  0  0  0  0  0  0  0
  -27.6681  -13.2766   19.9372 C   0  0  2  0  0  0  0  0  0  0  0  0
  -25.6824  -16.9496   25.2505 C   0  0  0  0  0  0  0  0  0  0  0  0
  -29.0118  -29.4065   18.9381 C   0  0  0  0  0  0  0  0  0  0  0  0
  -23.3254  -20.6438   24.7565 C   0  0  0  0  0  0  0  0  0  0  0  0
  -32.3957  -23.8191   20.0336 C   0  0  0  0  0  0  0  0  0  0  0  0
  -32.1734  -26.2914   20.3601 C   0  0  0  0  0  0  0  0  0  0  0  0
  -32.4204  -25.3559   18.0608 C   0  0  0  0  0  0  0  0  0  0  0  0
  -25.8717  -27.3010   18.5108 C   0  0  0  0  0  0  0  0  0  0  0  0
  -25.5653  -19.8852   25.6228 C   0  0  0  0  0  0  0  0  0  0  0  0
  -31.5993  -15.3410   23.7099 C   0  0  0  0  0  0  0  0  0  0  0  0
  -31.6359  -13.8284   23.5391 C   0  0  0  0  0  0  0  0  0  0  0  0
  -30.2221  -15.8598   24.1053 C   0  0  0  0  0  0  0  0  0  0  0  0
  -30.2404  -25.0372   19.3010 C   0  0  1  0  0  0  0  0  0  0  0  0
  -28.2158  -28.1604   18.5826 C   0  0  2  0  0  0  0  0  0  0  0  0
  -24.7697  -20.3269   24.3898 C   0  0  2  0  0  0  0  0  0  1  0  0
  -31.7867  -25.1083   19.4471 C   0  0  0  0  0  0  0  0  0  0  0  0
  -29.1866  -19.2479   24.7367 N   0  0  0  0  0  0  0  0  0  0  0  0
  -25.9333  -11.6674   20.6325 N   0  0  0  0  0  0  0  0  0  0  0  0
  -28.0319  -17.1328   24.7439 N   0  0  0  0  0  0  0  0  0  0  0  0
  -26.2344  -12.9335   20.2970 N   0  0  0  0  0  0  0  0  0  0  0  0
  -28.9632  -22.9330   19.0457 N   0  0  0  0  0  0  0  0  0  0  0  0
  -30.0535  -12.7862   20.3348 N   0  0  0  0  0  0  0  0  0  0  0  0
  -25.2916  -15.0882   20.0161 N   0  0  0  0  0  0  0  0  0  0  0  0
  -21.7632  -12.5621   21.2672 N   0  0  0  0  0  0  0  0  0  0  0  0
  -30.4913  -20.1907   17.8152 N   0  0  0  0  0  0  0  0  0  0  0  0
  -29.6392  -26.2341   18.7228 N   0  0  0  0  0  0  0  0  0  0  0  0
  -30.7064  -13.3656   22.5329 N   0  0  0  0  0  0  0  0  0  0  0  0
  -26.7737  -28.4348   18.8393 N   0  3  0  0  0  0  0  0  0  0  0  0
  -22.4192  -14.6739   20.6599 O   0  0  0  0  0  0  0  0  0  0  0  0
  -29.6458  -20.3217   19.9810 O   0  0  0  0  0  0  0  0  0  0  0  0
  -30.1697  -23.8271   17.2621 O   0  0  0  0  0  0  0  0  0  0  0  0
  -28.2307  -26.6978   20.5056 O   0  0  0  0  0  0  0  0  0  0  0  0
  -32.2019  -13.5236   20.8022 O   0  0  0  0  0  0  0  0  0  0  0  0
  -21.8611   -7.1160   22.4354 O   0  0  0  0  0  0  0  0  0  0  0  0
  -25.3684  -21.5049   23.8510 O   0  0  0  0  0  0  0  0  0  1  0  0
  -30.2911  -17.2702   24.2572 O   0  0  0  0  0  0  0  0  0  0  0  0
  -24.1873   -3.9045   26.2669 F   0  0  0  0  0  0  0  0  0  0  0  0
  -20.5820   -6.6169   24.8349 F   0  0  0  0  0  0  0  0  0  0  0  0
  1  2  1  0  0  0  0
  1  5  2  0  0  0  0
  2  6  2  0  0  0  0
  3  8  2  0  0  0  0
  3 16  1  0  0  0  0
  4  9  1  0  0  0  0
  4 16  2  0  0  0  0
  5 18  1  0  0  0  0
  6 20  1  0  0  0  0
  7 10  2  0  0  0  0
  7 19  1  0  0  0  0
  8 23  1  0  0  0  0
  9 23  2  0  0  0  0
 10 24  1  0  0  0  0
 11 12  2  0  0  0  0
 11 25  1  0  0  0  0
 12 26  1  0  0  0  0
 13 21  1  0  0  0  0
 13 24  2  0  0  0  0
 14 26  2  0  0  0  0
 14 27  1  0  0  0  0
 15 22  1  0  0  0  0
 15 64  2  0  0  0  0
 16 28  1  0  0  0  0
 17 28  1  0  0  0  0
 17 30  2  0  0  0  0
 17 32  1  0  0  0  0
 18 20  2  0  0  0  0
 18 37  1  0  0  0  0
 19 21  2  0  0  0  0
 19 38  1  0  0  0  0
 20 46  1  0  0  0  0
 21 39  1  0  0  0  0
 22 29  2  0  0  0  0
 22 56  1  0  0  0  0
 23 81  1  0  0  0  0
 24 82  1  0  0  0  0
 25 27  2  0  0  0  0
 25 81  1  0  0  0  0
 26 84  1  0  0  0  0
 27 85  1  0  0  0  0
 28 65  2  0  0  0  0
 29 49  1  0  0  0  0
 29 66  1  0  0  0  0
 30 67  1  0  0  0  0
 30 70  1  0  0  0  0
 31 64  1  0  0  0  0
 31 66  2  0  0  0  0
 31 83  1  0  0  0  0
 32 71  1  0  0  0  0
 32 76  2  0  0  0  0
 33 47  1  0  0  0  0
 33 72  1  0  0  0  0
 33 77  2  0  0  0  0
 34 60  1  0  0  0  0
 34 68  1  0  0  0  0
 34 78  2  0  0  0  0
 35 61  1  0  0  0  0
 35 73  1  0  0  0  0
 35 79  2  0  0  0  0
 36 69  1  0  0  0  0
 36 74  1  0  0  0  0
 36 80  2  0  0  0  0
 37 40  1  0  0  0  0
 38 47  1  0  0  0  0
 39 68  1  0  0  0  0
 40 42  1  0  0  0  0
 41 43  1  0  0  0  0
 41 44  1  0  0  0  0
 42 46  1  0  0  0  0
 43 48  1  0  0  0  0
 44 69  1  0  0  0  0
 45 48  1  0  0  0  0
 45 69  1  0  0  0  0
 46 72  1  0  0  0  0
 47 68  1  0  0  0  0
 48 67  1  0  0  0  0
 50 61  1  0  0  0  0
 51 62  1  0  0  0  0
 52 63  1  0  0  0  0
 53 63  1  0  0  0  0
 54 63  1  0  0  0  0
 55 75  1  0  0  0  0
 56 62  1  0  0  0  0
 57 58  1  0  0  0  0
 57 59  1  0  0  0  0
 58 74  1  0  0  0  0
 59 83  1  0  0  0  0
 60 63  1  0  0  0  0
 60 73  1  0  0  0  0
 61 75  1  0  0  0  0
 62 82  1  0  0  0  0
 65 67  1  0  0  0  0
M  CHG  1  75   1
M  ISO  4  36 100  62 101  74 100  82 101
M  END
> <Batch ID>
0073

> <Smiles>
CNC(C)C(=O)NC(C(=O)N1Cc2cc([101O:1][101CH:1](C)Cc3cnc(OCCC[100NH:0][100C:0](=O)N4CCCC(n5nc(-c6ccc(Oc7ccc(F)cc7F)cc6)c(C(N)=O)c5N)C4)nc3C)ccc2CC1C(=O)NC1CCCc2ccccc21)C(C)(C)C

> <Shape>
0.234

> <Color>
0.189

> <Negative vol penalty>
0.000

$$$$

  -OEChem-04052318273D

 85 93  0     1  0  0  0  0  0999 V2000
  -16.8080  -28.2909   23.5225 C   0  0  0  0  0  0  0  0  0  0  0  0
  -17.4913  -27.8091   22.4105 C   0  0  0  0  0  0  0  0  0  0  0  0
  -22.9790  -12.3718   20.6557 C   0  0  0  0  0  0  0  0  0  0  0  0
  -24.1326  -12.4089   18.5332 C   0  0  0  0  0  0  0  0  0  0  0  0
  -17.3234  -29.3672   24.2435 C   0  0  0  0  0  0  0  0  0  0  0  0
  -18.6899  -28.4040   22.0183 C   0  0  0  0  0  0  0  0  0  0  0  0
  -22.2626  -25.0034   20.8708 C   0  0  0  0  0  0  0  0  0  0  0  0
  -21.9524  -11.6198   20.0846 C   0  0  0  0  0  0  0  0  0  0  0  0
  -23.1060  -11.6568   17.9621 C   0  0  0  0  0  0  0  0  0  0  0  0
  -22.1728  -24.3808   19.6266 C   0  0  0  0  0  0  0  0  0  0  0  0
  -21.4091   -8.3956   19.2229 C   0  0  0  0  0  0  0  0  0  0  0  0
  -20.9355   -7.2961   19.9387 C   0  0  0  0  0  0  0  0  0  0  0  0
  -23.8481  -25.8847   18.7599 C   0  0  0  0  0  0  0  0  0  0  0  0
  -18.7298   -8.2805   19.9918 C   0  0  0  0  0  0  0  0  0  0  0  0
  -27.7306  -23.3421   15.4828 C   0  0  0  0  0  0  0  0  0  0  0  0
  -26.7997  -21.6184   16.4814 C   0  0  0  0  0  0  0  0  0  0  0  0
  -24.0691  -12.7664   19.8800 C   0  0  0  0  0  0  0  0  0  0  0  0
  -26.2941  -13.0576   21.0934 C   0  0  0  0  0  0  0  0  0  0  0  0
  -18.5338  -29.9695   23.8656 C   0  0  0  0  0  0  0  0  0  0  0  0
  -23.1393  -26.0802   21.0663 C   0  0  0  0  0  0  0  0  0  0  0  0
  -19.2212  -29.4903   22.7341 C   0  0  0  0  0  0  0  0  0  0  0  0
  -23.9490  -26.5176   20.0083 C   0  0  0  0  0  0  0  0  0  0  0  0
  -26.5467  -22.5824   15.5363 C   0  0  0  0  0  0  0  0  0  0  0  0
  -22.0159  -11.2623   18.7378 C   0  0  0  0  0  0  0  0  0  0  0  0
  -22.9635  -24.8233   18.5701 C   0  0  0  0  0  0  0  0  0  0  0  0
  -20.5430   -9.4377   18.8916 C   0  0  0  0  0  0  0  0  0  0  0  0
  -19.5959   -7.2385   20.3231 C   0  0  0  0  0  0  0  0  0  0  0  0
  -19.2034   -9.3801   19.2760 C   0  0  0  0  0  0  0  0  0  0  0  0
  -25.1296  -13.5437   20.4692 C   0  0  0  0  0  0  0  0  0  0  0  0
  -26.9728  -14.1870   21.4811 C   0  0  0  0  0  0  0  0  0  0  0  0
  -26.7238  -11.7061   21.3039 C   0  0  0  0  0  0  0  0  0  0  0  0
  -22.7935  -29.1393   21.8575 C   0  0  0  0  0  0  0  0  0  0  0  0
  -26.0361  -29.0843   21.9277 C   0  0  0  0  0  0  0  0  0  0  0  0
  -28.9062  -19.1944   20.2704 C   0  0  0  0  0  0  0  0  0  0  0  0
  -28.9325  -27.6229   20.8685 C   0  0  0  0  0  0  0  0  0  0  0  0
  -19.0273  -31.1607   24.6480 C   0  0  0  0  0  0  0  0  0  0  0  0
  -23.2438  -26.7238   22.4218 C   0  0  0  0  0  0  0  0  0  0  0  0
  -24.9210  -27.6564   20.1719 C   0  0  0  0  0  0  0  0  0  0  0  0
  -20.4940  -31.4948   24.3884 C   0  0  0  0  0  0  0  0  0  0  0  0
  -25.5302  -19.0251   21.6124 C   0  0  0  0  0  0  0  0  0  0  0  0
  -20.7876  -31.4821   22.8916 C   0  0  0  0  0  0  0  0  0  0  0  0
  -25.2129  -17.5387   21.4550 C   0  0  0  0  0  0  0  0  0  0  0  0
  -26.3951  -19.5391   20.4645 C   0  0  0  0  0  0  0  0  0  0  0  0
  -27.3454  -17.2811   20.1137 C   0  0  0  0  0  0  0  0  0  0  0  0
  -20.5370  -30.0932   22.2920 C   0  0  1  0  0  0  0  0  0  0  0  0
  -23.7973  -28.1444   22.3677 C   0  0  1  0  0  0  0  0  0  0  0  0
  -26.4999  -16.7165   21.2676 C   0  0  2  0  0  0  0  0  0  0  0  0
  -31.4263  -27.8229   21.0648 C   0  0  0  0  0  0  0  0  0  0  0  0
  -25.3175  -23.9813   13.7412 C   0  0  0  0  0  0  0  0  0  0  0  0
  -25.0215  -21.5229   13.8561 C   0  0  0  0  0  0  0  0  0  0  0  0
  -30.5724  -20.9952   20.3611 C   0  0  0  0  0  0  0  0  0  0  0  0
  -25.9932  -31.4639   20.0184 C   0  0  0  0  0  0  0  0  0  0  0  0
  -28.4041  -31.0144   19.5149 C   0  0  0  0  0  0  0  0  0  0  0  0
  -27.7068  -31.6137   21.8338 C   0  0  0  0  0  0  0  0  0  0  0  0
  -29.1700  -24.9299   22.0727 C   0  0  0  0  0  0  0  0  0  0  0  0
  -28.3136  -21.4470   19.3374 C   0  0  0  0  0  0  0  0  0  0  0  0
  -24.0223  -22.9683   15.6565 C   0  0  0  0  0  0  0  0  0  0  0  0
  -28.7827  -21.0924   17.9200 C   0  0  0  0  0  0  0  0  0  0  0  0
  -24.0552  -24.2083   16.5487 C   0  0  0  0  0  0  0  0  0  1  0  0
  -27.1316  -29.3284   20.9181 C   0  0  1  0  0  0  0  0  0  0  0  0
  -30.1699  -27.1746   21.6251 C   0  0  2  0  0  0  0  0  0  0  0  0
  -25.2561  -22.7858   14.7220 C   0  0  0  0  0  0  0  0  0  0  0  0
  -29.0822  -20.6844   20.4219 C   0  0  1  0  0  0  0  0  0  0  0  0
  -27.2893  -30.8349   20.5674 C   0  0  0  0  0  0  0  0  0  0  0  0
  -28.6662  -22.8990   16.3269 N   0  0  0  0  0  0  0  0  0  0  0  0
  -25.0687  -14.8779   20.4589 N   0  0  0  0  0  0  0  0  0  0  0  0
  -28.0702  -21.8505   16.9198 N   0  0  0  0  0  0  0  0  0  0  0  0
  -26.2034  -15.2399   21.0814 N   0  0  0  0  0  0  0  0  0  0  0  0
  -24.9820  -28.2573   21.5145 N   0  0  0  0  0  0  0  0  0  0  0  0
  -27.5972  -18.7128   20.3011 N   0  0  0  0  0  0  0  0  0  0  0  0
  -28.1466  -14.3723   22.1215 N   0  0  0  0  0  0  0  0  0  0  0  0
  -25.9063  -10.6655   20.8422 N   0  0  0  0  0  0  0  0  0  0  0  0
  -21.6333  -29.2021   22.6055 N   0  0  0  0  0  0  0  0  0  0  0  0
  -28.3358  -28.7131   21.4657 N   0  0  0  0  0  0  0  0  0  0  0  0
  -30.3243  -25.6951   21.5351 N   0  3  0  0  0  0  0  0  0  0  0  0
  -27.7929  -11.4291   21.8987 O   0  0  0  0  0  0  0  0  0  0  0  0
  -23.0531  -29.8021   20.8600 O   0  0  0  0  0  0  0  0  0  0  0  0
  -26.1164  -29.6023   23.0443 O   0  0  0  0  0  0  0  0  0  0  0  0
  -29.9034  -18.4814   20.1319 O   0  0  0  0  0  0  0  0  0  0  0  0
  -28.5372  -27.0643   19.8476 O   0  0  0  0  0  0  0  0  0  0  0  0
  -21.0144  -10.5283   18.1803 O   0  0  0  0  0  0  0  0  0  0  0  0
  -22.8774  -24.2178   17.3545 O   0  0  0  0  0  0  0  0  0  1  0  0
  -19.1410   -6.1818   21.0092 F   0  0  0  0  0  0  0  0  0  0  0  0
  -18.3663  -10.3776   18.9596 F   0  0  0  0  0  0  0  0  0  0  0  0
  -28.6281  -21.0907   21.6416 F   0  0  0  0  0  0  0  0  0  0  0  0
  1  2  1  0  0  0  0
  1  5  2  0  0  0  0
  2  6  2  0  0  0  0
  3  8  2  0  0  0  0
  3 17  1  0  0  0  0
  4  9  1  0  0  0  0
  4 17  2  0  0  0  0
  5 19  1  0  0  0  0
  6 21  1  0  0  0  0
  7 10  2  0  0  0  0
  7 20  1  0  0  0  0
  8 24  1  0  0  0  0
  9 24  2  0  0  0  0
 10 25  1  0  0  0  0
 11 12  2  0  0  0  0
 11 26  1  0  0  0  0
 12 27  1  0  0  0  0
 13 22  1  0  0  0  0
 13 25  2  0  0  0  0
 14 27  2  0  0  0  0
 14 28  1  0  0  0  0
 15 23  1  0  0  0  0
 15 65  2  0  0  0  0
 16 23  2  0  0  0  0
 16 67  1  0  0  0  0
 17 29  1  0  0  0  0
 18 29  1  0  0  0  0
 18 30  2  0  0  0  0
 18 31  1  0  0  0  0
 19 21  2  0  0  0  0
 19 36  1  0  0  0  0
 20 22  2  0  0  0  0
 20 37  1  0  0  0  0
 21 45  1  0  0  0  0
 22 38  1  0  0  0  0
 23 62  1  0  0  0  0
 24 81  1  0  0  0  0
 25 82  1  0  0  0  0
 26 28  2  0  0  0  0
 26 81  1  0  0  0  0
 27 83  1  0  0  0  0
 28 84  1  0  0  0  0
 29 66  2  0  0  0  0
 30 68  1  0  0  0  0
 30 71  1  0  0  0  0
 31 72  1  0  0  0  0
 31 76  2  0  0  0  0
 32 46  1  0  0  0  0
 32 73  1  0  0  0  0
 32 77  2  0  0  0  0
 33 60  1  0  0  0  0
 33 69  1  0  0  0  0
 33 78  2  0  0  0  0
 34 63  1  0  0  0  0
 34 70  1  0  0  0  0
 34 79  2  0  0  0  0
 35 61  1  0  0  0  0
 35 74  1  0  0  0  0
 35 80  2  0  0  0  0
 36 39  1  0  0  0  0
 37 46  1  0  0  0  0
 38 69  1  0  0  0  0
 39 41  1  0  0  0  0
 40 42  1  0  0  0  0
 40 43  1  0  0  0  0
 41 45  1  0  0  0  0
 42 47  1  0  0  0  0
 43 70  1  0  0  0  0
 44 47  1  0  0  0  0
 44 70  1  0  0  0  0
 45 73  1  0  0  0  0
 46 69  1  0  0  0  0
 47 68  1  0  0  0  0
 48 61  1  0  0  0  0
 49 62  1  0  0  0  0
 50 62  1  0  0  0  0
 51 63  1  0  0  0  0
 52 64  1  0  0  0  0
 53 64  1  0  0  0  0
 54 64  1  0  0  0  0
 55 75  1  0  0  0  0
 56 58  1  0  0  0  0
 56 63  1  0  0  0  0
 57 59  1  0  0  0  0
 57 62  1  0  0  0  0
 58 67  1  0  0  0  0
 59 82  1  0  0  0  0
 60 64  1  0  0  0  0
 60 74  1  0  0  0  0
 61 75  1  0  0  0  0
 63 85  1  0  0  0  0
 65 67  1  0  0  0  0
 66 68  1  0  0  0  0
M  CHG  1  75   1
M  ISO  4  34 100  59 101  63 100  82 101
M  END
> <Batch ID>
0073

> <Smiles>
CNC(C)C(=O)NC(C(=O)N1Cc2cc([101O:1][101CH2:1]CC(C)(C)c3cnn(CC[100C:0](C)(F)[100C:0](=O)N4CCCC(n5nc(-c6ccc(Oc7ccc(F)cc7F)cc6)c(C(N)=O)c5N)C4)c3)ccc2CC1C(=O)NC1CCCc2ccccc21)C(C)(C)C

> <Shape>
0.234

> <Color>
0.073

> <Negative vol penalty>
0.000

$$$$

  -OEChem-04052318273D

 84 92  0     1  0  0  0  0  0999 V2000
  -23.6321  -24.0379   19.2318 C   0  0  0  0  0  0  0  0  0  0  0  0
  -24.7300  -23.2559   19.5760 C   0  0  0  0  0  0  0  0  0  0  0  0
  -26.0128  -27.7973   19.0908 C   0  0  0  0  0  0  0  0  0  0  0  0
  -26.5381  -28.2042   21.4137 C   0  0  0  0  0  0  0  0  0  0  0  0
  -22.3479  -23.6318   19.5921 C   0  0  0  0  0  0  0  0  0  0  0  0
  -24.5444  -22.0677   20.2818 C   0  0  0  0  0  0  0  0  0  0  0  0
  -27.2878  -18.2459   18.4077 C   0  0  0  0  0  0  0  0  0  0  0  0
  -25.0040  -28.7588   19.1505 C   0  0  0  0  0  0  0  0  0  0  0  0
  -25.5294  -29.1657   21.4734 C   0  0  0  0  0  0  0  0  0  0  0  0
  -28.6438  -18.2174   18.7304 C   0  0  0  0  0  0  0  0  0  0  0  0
  -22.8556  -31.4709   22.3376 C   0  0  0  0  0  0  0  0  0  0  0  0
  -22.0054  -31.4508   23.4432 C   0  0  0  0  0  0  0  0  0  0  0  0
  -28.1969  -16.5717   20.4366 C   0  0  0  0  0  0  0  0  0  0  0  0
  -21.3103  -29.2095   22.8680 C   0  0  0  0  0  0  0  0  0  0  0  0
  -33.0891  -20.9352   23.7032 C   0  0  0  0  0  0  0  0  0  0  0  0
  -34.2949  -19.1376   24.1168 C   0  0  0  0  0  0  0  0  0  0  0  0
  -26.7798  -27.5200   20.2224 C   0  0  0  0  0  0  0  0  0  0  0  0
  -28.9516  -26.5300   19.3220 C   0  0  0  0  0  0  0  0  0  0  0  0
  -22.1457  -22.4332   20.2943 C   0  0  0  0  0  0  0  0  0  0  0  0
  -26.3731  -17.4443   19.1055 C   0  0  0  0  0  0  0  0  0  0  0  0
  -23.2564  -21.6458   20.6531 C   0  0  0  0  0  0  0  0  0  0  0  0
  -26.8302  -16.5900   20.1191 C   0  0  0  0  0  0  0  0  0  0  0  0
  -24.7624  -29.4431   20.3418 C   0  0  0  0  0  0  0  0  0  0  0  0
  -29.0982  -17.3823   19.7469 C   0  0  0  0  0  0  0  0  0  0  0  0
  -22.9331  -30.3603   21.4971 C   0  0  0  0  0  0  0  0  0  0  0  0
  -21.2328  -30.3201   23.7084 C   0  0  0  0  0  0  0  0  0  0  0  0
  -22.1605  -29.2296   21.7623 C   0  0  0  0  0  0  0  0  0  0  0  0
  -27.8216  -26.5264   20.1615 C   0  0  0  0  0  0  0  0  0  0  0  0
  -33.0148  -20.5735   25.0277 C   0  0  0  0  0  0  0  0  0  0  0  0
  -29.6249  -25.3779   19.6476 C   0  0  0  0  0  0  0  0  0  0  0  0
  -29.3565  -27.4889   18.3360 C   0  0  0  0  0  0  0  0  0  0  0  0
  -23.8403  -18.0087   20.9413 C   0  0  0  0  0  0  0  0  0  0  0  0
  -23.5407  -14.7801   20.8484 C   0  0  0  0  0  0  0  0  0  0  0  0
  -25.0336  -11.7435   20.4044 C   0  0  0  0  0  0  0  0  0  0  0  0
  -29.7753  -22.1783   24.6070 C   0  0  0  0  0  0  0  0  0  0  0  0
  -20.7430  -22.0593   20.7032 C   0  0  0  0  0  0  0  0  0  0  0  0
  -24.9174  -17.4668   18.7272 C   0  0  0  0  0  0  0  0  0  0  0  0
  -25.8918  -15.6947   20.8847 C   0  0  0  0  0  0  0  0  0  0  0  0
  -20.5999  -20.5987   21.1235 C   0  0  0  0  0  0  0  0  0  0  0  0
  -28.8867  -20.9543   21.3192 C   0  0  0  0  0  0  0  0  0  0  0  0
  -21.7249  -20.2044   22.0752 C   0  0  0  0  0  0  0  0  0  0  0  0
  -28.6199  -22.2611   20.5700 C   0  0  0  0  0  0  0  0  0  0  0  0
  -28.4010  -21.0360   22.7633 C   0  0  0  0  0  0  0  0  0  0  0  0
  -28.7013  -23.4819   22.7933 C   0  0  0  0  0  0  0  0  0  0  0  0
  -23.0936  -20.3380   21.3969 C   0  0  1  0  0  0  0  0  0  0  0  0
  -24.0010  -16.9891   19.8494 C   0  0  1  0  0  0  0  0  0  0  0  0
  -29.1901  -23.4711   21.3335 C   0  0  2  0  0  0  0  0  0  0  0  0
  -24.5394   -9.2833   20.4271 C   0  0  0  0  0  0  0  0  0  0  0  0
  -23.4777  -14.8233   23.8986 C   0  0  0  0  0  0  0  0  0  0  0  0
  -23.9408  -12.3630   23.8736 C   0  0  0  0  0  0  0  0  0  0  0  0
  -21.8478  -13.2469   22.8438 C   0  0  0  0  0  0  0  0  0  0  0  0
  -30.1404  -21.5174   27.5138 C   0  0  0  0  0  0  0  0  0  0  0  0
  -30.7876  -19.2449   26.7083 C   0  0  0  0  0  0  0  0  0  0  0  0
  -25.8184  -11.4417   17.5668 C   0  0  0  0  0  0  0  0  0  0  0  0
  -32.2627  -21.2279   26.1091 C   0  0  0  0  0  0  0  0  0  0  0  0
  -33.1388  -19.8768   20.7084 C   0  0  0  0  0  0  0  0  0  0  0  0
  -32.3076  -18.6024   20.8646 C   0  0  0  0  0  0  0  0  0  0  0  0
  -34.3208  -19.9452   21.6821 C   0  0  0  0  0  0  0  0  0  0  0  0
  -31.1651  -18.5532   19.8589 C   0  0  0  0  0  0  0  0  0  1  0  0
  -24.0599  -13.6338   21.6823 C   0  0  1  0  0  0  0  0  0  0  0  0
  -24.6360  -10.5375   19.5725 C   0  0  2  0  0  0  0  0  0  0  0  0
  -23.3492  -13.5349   23.0616 C   0  0  0  0  0  0  0  0  0  0  0  0
  -30.7902  -20.7425   26.3578 C   0  0  0  0  0  0  0  0  0  0  0  0
  -33.7678  -19.4539   25.2787 N   0  0  0  0  0  0  0  0  0  0  0  0
  -27.7760  -25.4569   20.9603 N   0  0  0  0  0  0  0  0  0  0  0  0
  -33.9131  -20.0064   23.1326 N   0  0  0  0  0  0  0  0  0  0  0  0
  -28.8858  -24.7776   20.6242 N   0  0  0  0  0  0  0  0  0  0  0  0
  -24.4770  -15.7573   20.4821 N   0  0  0  0  0  0  0  0  0  0  0  0
  -28.9949  -22.1982   23.4391 N   0  0  0  0  0  0  0  0  0  0  0  0
  -30.7710  -24.8300   19.1910 N   0  0  0  0  0  0  0  0  0  0  0  0
  -30.1810  -28.5498   18.7348 N   0  0  0  0  0  0  0  0  0  0  0  0
  -23.3300  -19.2185   20.5107 N   0  0  0  0  0  0  0  0  0  0  0  0
  -23.9315  -12.4376   20.8569 N   0  0  0  0  0  0  0  0  0  0  0  0
  -30.0010  -20.9236   25.1598 N   0  0  0  0  0  0  0  0  0  0  0  0
  -25.6387  -10.2971   18.4966 N   0  3  0  0  0  0  0  0  0  0  0  0
  -28.9845  -27.4165   17.1402 O   0  0  0  0  0  0  0  0  0  0  0  0
  -24.1546  -17.7187   22.0897 O   0  0  0  0  0  0  0  0  0  0  0  0
  -22.3499  -14.8037   20.5275 O   0  0  0  0  0  0  0  0  0  0  0  0
  -26.2047  -12.0380   20.6332 O   0  0  0  0  0  0  0  0  0  0  0  0
  -30.2414  -23.2029   25.1169 O   0  0  0  0  0  0  0  0  0  0  0  0
  -23.7783  -30.3815   20.4003 O   0  0  0  0  0  0  0  0  0  0  0  0
  -30.4211  -17.3530   20.0644 O   0  0  0  0  0  0  0  0  0  1  0  0
  -20.4175  -30.3004   24.7710 F   0  0  0  0  0  0  0  0  0  0  0  0
  -22.2317  -28.1593   20.9592 F   0  0  0  0  0  0  0  0  0  0  0  0
  1  2  1  0  0  0  0
  1  5  2  0  0  0  0
  2  6  2  0  0  0  0
  3  8  2  0  0  0  0
  3 17  1  0  0  0  0
  4  9  1  0  0  0  0
  4 17  2  0  0  0  0
  5 19  1  0  0  0  0
  6 21  1  0  0  0  0
  7 10  2  0  0  0  0
  7 20  1  0  0  0  0
  8 23  1  0  0  0  0
  9 23  2  0  0  0  0
 10 24  1  0  0  0  0
 11 12  2  0  0  0  0
 11 25  1  0  0  0  0
 12 26  1  0  0  0  0
 13 22  1  0  0  0  0
 13 24  2  0  0  0  0
 14 26  2  0  0  0  0
 14 27  1  0  0  0  0
 15 29  2  0  0  0  0
 15 66  1  0  0  0  0
 16 64  2  0  0  0  0
 16 66  1  0  0  0  0
 17 28  1  0  0  0  0
 18 28  1  0  0  0  0
 18 30  2  0  0  0  0
 18 31  1  0  0  0  0
 19 21  2  0  0  0  0
 19 36  1  0  0  0  0
 20 22  2  0  0  0  0
 20 37  1  0  0  0  0
 21 45  1  0  0  0  0
 22 38  1  0  0  0  0
 23 81  1  0  0  0  0
 24 82  1  0  0  0  0
 25 27  2  0  0  0  0
 25 81  1  0  0  0  0
 26 83  1  0  0  0  0
 27 84  1  0  0  0  0
 28 65  2  0  0  0  0
 29 55  1  0  0  0  0
 29 64  1  0  0  0  0
 30 67  1  0  0  0  0
 30 70  1  0  0  0  0
 31 71  1  0  0  0  0
 31 76  2  0  0  0  0
 32 46  1  0  0  0  0
 32 72  1  0  0  0  0
 32 77  2  0  0  0  0
 33 60  1  0  0  0  0
 33 68  1  0  0  0  0
 33 78  2  0  0  0  0
 34 61  1  0  0  0  0
 34 73  1  0  0  0  0
 34 79  2  0  0  0  0
 35 69  1  0  0  0  0
 35 74  1  0  0  0  0
 35 80  2  0  0  0  0
 36 39  1  0  0  0  0
 37 46  1  0  0  0  0
 38 68  1  0  0  0  0
 39 41  1  0  0  0  0
 40 42  1  0  0  0  0
 40 43  1  0  0  0  0
 41 45  1  0  0  0  0
 42 47  1  0  0  0  0
 43 69  1  0  0  0  0
 44 47  1  0  0  0  0
 44 69  1  0  0  0  0
 45 72  1  0  0  0  0
 46 68  1  0  0  0  0
 47 67  1  0  0  0  0
 48 61  1  0  0  0  0
 49 62  1  0  0  0  0
 50 62  1  0  0  0  0
 51 62  1  0  0  0  0
 52 63  1  0  0  0  0
 53 63  1  0  0  0  0
 54 75  1  0  0  0  0
 55 63  1  0  0  0  0
 56 57  1  0  0  0  0
 56 58  1  0  0  0  0
 57 59  1  0  0  0  0
 58 66  1  0  0  0  0
 59 82  1  0  0  0  0
 60 62  1  0  0  0  0
 60 73  1  0  0  0  0
 61 75  1  0  0  0  0
 63 74  1  0  0  0  0
 65 67  1  0  0  0  0
M  CHG  1  75   1
M  ISO  4  35 100  59 101  74 100  82 101
M  END
> <Batch ID>
0073

> <Smiles>
CNC(C)C(=O)NC(C(=O)N1Cc2cc([101O:1][101CH2:1]CCCn3cnc(CC(C)(C)[100NH:0][100C:0](=O)N4CCCC(n5nc(-c6ccc(Oc7ccc(F)cc7F)cc6)c(C(N)=O)c5N)C4)c3)ccc2CC1C(=O)NC1CCCc2ccccc21)C(C)(C)C

> <Shape>
0.192

> <Color>
0.081

> <Negative vol penalty>
0.000

$$$$

  -OEChem-04052318273D

 84 92  0     1  0  0  0  0  0999 V2000
  -31.4028  -23.8677   14.3533 C   0  0  0  0  0  0  0  0  0  0  0  0
  -30.7016  -23.2626   15.3914 C   0  0  0  0  0  0  0  0  0  0  0  0
  -23.2146  -16.3218   22.3892 C   0  0  0  0  0  0  0  0  0  0  0  0
  -22.3091  -15.9723   20.1767 C   0  0  0  0  0  0  0  0  0  0  0  0
  -31.7856  -25.2043   14.4582 C   0  0  0  0  0  0  0  0  0  0  0  0
  -30.3838  -23.9936   16.5356 C   0  0  0  0  0  0  0  0  0  0  0  0
  -25.6041  -23.2645   18.0414 C   0  0  0  0  0  0  0  0  0  0  0  0
  -22.2311  -17.2785   22.6406 C   0  0  0  0  0  0  0  0  0  0  0  0
  -21.3256  -16.9289   20.4281 C   0  0  0  0  0  0  0  0  0  0  0  0
  -25.3258  -22.0831   18.7275 C   0  0  0  0  0  0  0  0  0  0  0  0
  -21.6572  -20.5204   21.8757 C   0  0  0  0  0  0  0  0  0  0  0  0
  -22.0543  -21.7142   22.4778 C   0  0  0  0  0  0  0  0  0  0  0  0
  -25.4108  -23.2843   20.8178 C   0  0  0  0  0  0  0  0  0  0  0  0
  -20.5761  -21.2687   24.3362 C   0  0  0  0  0  0  0  0  0  0  0  0
  -29.9326  -17.1967   21.6583 C   0  0  0  0  0  0  0  0  0  0  0  0
  -23.2536  -15.6687   21.1572 C   0  0  0  0  0  0  0  0  0  0  0  0
  -24.1939  -13.2973   21.1461 C   0  0  0  0  0  0  0  0  0  0  0  0
  -31.4639  -25.9547   15.6001 C   0  0  0  0  0  0  0  0  0  0  0  0
  -25.7989  -24.4645   18.7402 C   0  0  0  0  0  0  0  0  0  0  0  0
  -30.7639  -25.3410   16.6564 C   0  0  0  0  0  0  0  0  0  0  0  0
  -25.6888  -24.4800   20.1380 C   0  0  0  0  0  0  0  0  0  0  0  0
  -21.2866  -17.5820   21.6601 C   0  0  0  0  0  0  0  0  0  0  0  0
  -25.2320  -22.0923   20.1161 C   0  0  0  0  0  0  0  0  0  0  0  0
  -20.7194  -19.7007   22.5038 C   0  0  0  0  0  0  0  0  0  0  0  0
  -21.5138  -22.0884   23.7080 C   0  0  0  0  0  0  0  0  0  0  0  0
  -20.1789  -20.0749   23.7340 C   0  0  0  0  0  0  0  0  0  0  0  0
  -24.2696  -14.6808   20.8968 C   0  0  0  0  0  0  0  0  0  0  0  0
  -30.7616  -16.1472   21.3783 C   0  0  0  0  0  0  0  0  0  0  0  0
  -25.4060  -12.8060   20.7267 C   0  0  0  0  0  0  0  0  0  0  0  0
  -31.2649  -16.8950   23.4002 C   0  0  0  0  0  0  0  0  0  0  0  0
  -23.1235  -12.5254   21.7066 C   0  0  0  0  0  0  0  0  0  0  0  0
  -30.7983  -15.3349   20.1554 C   0  0  0  0  0  0  0  0  0  0  0  0
  -28.2152  -26.5038   19.0659 C   0  0  0  0  0  0  0  0  0  0  0  0
  -26.0113  -28.2522   20.6809 C   0  0  0  0  0  0  0  0  0  0  0  0
  -23.1081  -28.3116   22.4739 C   0  0  0  0  0  0  0  0  0  0  0  0
  -31.9402  -27.3829   15.6881 C   0  0  0  0  0  0  0  0  0  0  0  0
  -26.0718  -25.7354   17.9835 C   0  0  0  0  0  0  0  0  0  0  0  0
  -25.8694  -25.7459   20.9337 C   0  0  0  0  0  0  0  0  0  0  0  0
  -31.2379  -28.1934   16.7745 C   0  0  0  0  0  0  0  0  0  0  0  0
  -28.9315  -13.6721   17.6075 C   0  0  0  0  0  0  0  0  0  0  0  0
  -31.1813  -27.4029   18.0778 C   0  0  0  0  0  0  0  0  0  0  0  0
  -27.5118  -13.6288   18.1755 C   0  0  0  0  0  0  0  0  0  0  0  0
  -29.6550  -14.9589   17.9964 C   0  0  0  0  0  0  0  0  0  0  0  0
  -28.2570  -15.1915   20.0203 C   0  0  0  0  0  0  0  0  0  0  0  0
  -30.3790  -26.1078   17.9031 C   0  0  1  0  0  0  0  0  0  0  0  0
  -26.7608  -26.7998   18.8320 C   0  0  1  0  0  0  0  0  0  0  0  0
  -27.5103  -13.8877   19.6939 C   0  0  1  0  0  0  0  0  0  0  0  0
  -31.9228  -17.0386   24.7225 C   0  0  0  0  0  0  0  0  0  0  0  0
  -21.5785  -29.8825   23.6945 C   0  0  0  0  0  0  0  0  0  0  0  0
  -27.9902  -28.3731   23.0001 C   0  0  0  0  0  0  0  0  0  0  0  0
  -26.1040  -29.0932   24.4807 C   0  0  0  0  0  0  0  0  0  0  0  0
  -26.7822  -30.5154   22.5468 C   0  0  0  0  0  0  0  0  0  0  0  0
  -28.3743  -17.3307   25.3307 C   0  0  0  0  0  0  0  0  0  0  0  0
  -27.8540  -19.7556   25.1504 C   0  0  0  0  0  0  0  0  0  0  0  0
  -20.8375  -27.6749   20.6856 C   0  0  0  0  0  0  0  0  0  0  0  0
  -26.8314  -19.1832   22.2328 C   0  0  0  0  0  0  0  0  0  0  0  0
  -25.7256  -18.7016   21.2857 C   0  0  0  0  0  0  0  0  0  0  0  0
  -27.1011  -18.1481   23.3333 C   0  0  0  0  0  0  0  0  0  0  0  0
  -29.6029  -18.7916   23.6365 C   0  0  0  0  0  0  0  0  0  0  0  0
  -25.4131  -19.7224   20.1981 C   0  0  0  0  0  0  0  0  0  1  0  0
  -25.5633  -28.3419   22.1197 C   0  0  1  0  0  0  0  0  0  0  0  0
  -21.8786  -29.1961   22.3711 C   0  0  2  0  0  0  0  0  0  0  0  0
  -26.6084  -29.0565   23.0223 C   0  0  0  0  0  0  0  0  0  0  0  0
  -28.2384  -18.5022   24.3333 C   0  0  0  0  0  0  0  0  0  0  0  0
  -25.4375  -15.0449   20.3607 N   0  0  0  0  0  0  0  0  0  0  0  0
  -30.2661  -17.6399   22.9154 N   0  0  0  0  0  0  0  0  0  0  0  0
  -26.1068  -13.8831   20.2698 N   0  0  0  0  0  0  0  0  0  0  0  0
  -31.5752  -15.9827   22.4734 N   0  3  0  0  0  0  0  0  0  0  0  0
  -29.6087  -15.1613   19.4440 N   0  0  0  0  0  0  0  0  0  0  0  0
  -26.1409  -26.9615   20.1487 N   0  0  0  0  0  0  0  0  0  0  0  0
  -25.9300  -11.5621   20.7080 N   0  0  0  0  0  0  0  0  0  0  0  0
  -21.9478  -13.1885   22.0838 N   0  0  0  0  0  0  0  0  0  0  0  0
  -28.9592  -26.3883   17.9072 N   0  0  0  0  0  0  0  0  0  0  0  0
  -24.2530  -28.9830   22.1000 N   0  0  0  0  0  0  0  0  0  0  0  0
  -20.6895  -28.3868   21.9811 N   0  3  0  0  0  0  0  0  0  0  0  0
  -23.2135  -11.2867   21.8833 O   0  0  0  0  0  0  0  0  0  0  0  0
  -31.8897  -14.8534   19.8554 O   0  0  0  0  0  0  0  0  0  0  0  0
  -28.6319  -26.3902   20.2127 O   0  0  0  0  0  0  0  0  0  0  0  0
  -26.2310  -29.2892   20.0501 O   0  0  0  0  0  0  0  0  0  0  0  0
  -23.0584  -27.1432   22.8518 O   0  0  0  0  0  0  0  0  0  0  0  0
  -20.3267  -18.5153   21.9051 O   0  0  0  0  0  0  0  0  0  0  0  0
  -24.9612  -20.9405   20.7883 O   0  0  0  0  0  0  0  0  0  1  0  0
  -21.8965  -23.2342   24.2868 F   0  0  0  0  0  0  0  0  0  0  0  0
  -19.2785  -19.2910   24.3428 F   0  0  0  0  0  0  0  0  0  0  0  0
  1  2  1  0  0  0  0
  1  5  2  0  0  0  0
  2  6  2  0  0  0  0
  3  8  2  0  0  0  0
  3 16  1  0  0  0  0
  4  9  1  0  0  0  0
  4 16  2  0  0  0  0
  5 18  1  0  0  0  0
  6 20  1  0  0  0  0
  7 10  2  0  0  0  0
  7 19  1  0  0  0  0
  8 22  1  0  0  0  0
  9 22  2  0  0  0  0
 10 23  1  0  0  0  0
 11 12  2  0  0  0  0
 11 24  1  0  0  0  0
 12 25  1  0  0  0  0
 13 21  1  0  0  0  0
 13 23  2  0  0  0  0
 14 25  2  0  0  0  0
 14 26  1  0  0  0  0
 15 28  2  0  0  0  0
 15 66  1  0  0  0  0
 16 27  1  0  0  0  0
 17 27  1  0  0  0  0
 17 29  2  0  0  0  0
 17 31  1  0  0  0  0
 18 20  2  0  0  0  0
 18 36  1  0  0  0  0
 19 21  2  0  0  0  0
 19 37  1  0  0  0  0
 20 45  1  0  0  0  0
 21 38  1  0  0  0  0
 22 81  1  0  0  0  0
 23 82  1  0  0  0  0
 24 26  2  0  0  0  0
 24 81  1  0  0  0  0
 25 83  1  0  0  0  0
 26 84  1  0  0  0  0
 27 65  2  0  0  0  0
 28 32  1  0  0  0  0
 28 68  1  0  0  0  0
 29 67  1  0  0  0  0
 29 71  1  0  0  0  0
 30 48  1  0  0  0  0
 30 66  1  0  0  0  0
 30 68  2  0  0  0  0
 31 72  1  0  0  0  0
 31 76  2  0  0  0  0
 32 69  1  0  0  0  0
 32 77  2  0  0  0  0
 33 46  1  0  0  0  0
 33 73  1  0  0  0  0
 33 78  2  0  0  0  0
 34 61  1  0  0  0  0
 34 70  1  0  0  0  0
 34 79  2  0  0  0  0
 35 62  1  0  0  0  0
 35 74  1  0  0  0  0
 35 80  2  0  0  0  0
 36 39  1  0  0  0  0
 37 46  1  0  0  0  0
 38 70  1  0  0  0  0
 39 41  1  0  0  0  0
 40 42  1  0  0  0  0
 40 43  1  0  0  0  0
 41 45  1  0  0  0  0
 42 47  1  0  0  0  0
 43 69  1  0  0  0  0
 44 47  1  0  0  0  0
 44 69  1  0  0  0  0
 45 73  1  0  0  0  0
 46 70  1  0  0  0  0
 47 67  1  0  0  0  0
 49 62  1  0  0  0  0
 50 63  1  0  0  0  0
 51 63  1  0  0  0  0
 52 63  1  0  0  0  0
 53 64  1  0  0  0  0
 54 64  1  0  0  0  0
 55 75  1  0  0  0  0
 56 57  1  0  0  0  0
 56 58  1  0  0  0  0
 57 60  1  0  0  0  0
 58 64  1  0  0  0  0
 59 64  1  0  0  0  0
 59 66  1  0  0  0  0
 60 82  1  0  0  0  0
 61 63  1  0  0  0  0
 61 74  1  0  0  0  0
 62 75  1  0  0  0  0
 65 67  1  0  0  0  0
M  CHG  2  68   1  75   1
M  ISO  4  28 100  32 100  60 101  82 101
M  END
> <Batch ID>
0073

> <Smiles>
CNC(C)C(=O)NC(C(=O)N1Cc2cc([101O:1][101CH2:1]CCCC(C)(C)Cn3c[100c:0]([100C:0](=O)N4CCCC(n5nc(-c6ccc(Oc7ccc(F)cc7F)cc6)c(C(N)=O)c5N)C4)nc3C)ccc2CC1C(=O)NC1CCCc2ccccc21)C(C)(C)C

> <Shape>
0.198

> <Color>
0.096

> <Negative vol penalty>
0.000

$$$$

  -OEChem-04052318273D

 83 91  0     1  0  0  0  0  0999 V2000
  -23.3550   -8.2611   21.9092 C   0  0  0  0  0  0  0  0  0  0  0  0
  -24.5611   -8.8729   21.5830 C   0  0  0  0  0  0  0  0  0  0  0  0
  -26.3438  -28.3816   18.9583 C   0  0  0  0  0  0  0  0  0  0  0  0
  -26.1734  -27.5960   21.2367 C   0  0  0  0  0  0  0  0  0  0  0  0
  -22.1554   -8.9491   21.7319 C   0  0  0  0  0  0  0  0  0  0  0  0
  -24.5682  -10.1727   21.0782 C   0  0  0  0  0  0  0  0  0  0  0  0
  -28.8005  -14.4857   22.0737 C   0  0  0  0  0  0  0  0  0  0  0  0
  -25.2786  -29.2546   19.1797 C   0  0  0  0  0  0  0  0  0  0  0  0
  -25.1083  -28.4690   21.4581 C   0  0  0  0  0  0  0  0  0  0  0  0
  -29.8884  -14.9240   21.3199 C   0  0  0  0  0  0  0  0  0  0  0  0
  -22.5780  -30.7489   22.7300 C   0  0  0  0  0  0  0  0  0  0  0  0
  -22.5803  -31.4894   23.9120 C   0  0  0  0  0  0  0  0  0  0  0  0
  -28.5394  -16.7118   20.4237 C   0  0  0  0  0  0  0  0  0  0  0  0
  -24.6781  -32.5032   23.2729 C   0  0  0  0  0  0  0  0  0  0  0  0
  -30.6284  -19.4546   15.1205 C   0  0  0  0  0  0  0  0  0  0  0  0
  -28.8423  -18.2425   14.6766 C   0  0  0  0  0  0  0  0  0  0  0  0
  -26.7912  -27.5523   19.9869 C   0  0  0  0  0  0  0  0  0  0  0  0
  -29.2605  -26.9128   19.9519 C   0  0  0  0  0  0  0  0  0  0  0  0
  -22.1484  -10.2615   21.2337 C   0  0  0  0  0  0  0  0  0  0  0  0
  -27.5687  -15.1518   21.9997 C   0  0  0  0  0  0  0  0  0  0  0  0
  -23.3673  -10.8784   20.8927 C   0  0  0  0  0  0  0  0  0  0  0  0
  -27.4382  -16.2815   21.1795 C   0  0  0  0  0  0  0  0  0  0  0  0
  -24.6609  -29.2983   20.4295 C   0  0  0  0  0  0  0  0  0  0  0  0
  -29.7572  -16.0355   20.4926 C   0  0  0  0  0  0  0  0  0  0  0  0
  -23.6258  -30.8855   21.8194 C   0  0  0  0  0  0  0  0  0  0  0  0
  -23.6303  -32.3665   24.1835 C   0  0  0  0  0  0  0  0  0  0  0  0
  -24.6758  -31.7626   22.0908 C   0  0  0  0  0  0  0  0  0  0  0  0
  -27.8911  -26.6499   19.7587 C   0  0  0  0  0  0  0  0  0  0  0  0
  -29.4732  -20.1814   15.2874 C   0  0  0  0  0  0  0  0  0  0  0  0
  -29.8880  -25.7438   19.5967 C   0  0  0  0  0  0  0  0  0  0  0  0
  -29.9075  -28.1069   20.4115 C   0  0  0  0  0  0  0  0  0  0  0  0
  -29.3849  -21.5859   15.7055 C   0  0  0  0  0  0  0  0  0  0  0  0
  -24.6335  -14.3443   21.0854 C   0  0  0  0  0  0  0  0  0  0  0  0
  -23.8947  -17.3014   22.1953 C   0  0  0  0  0  0  0  0  0  0  0  0
  -24.9436  -20.4631   22.9370 C   0  0  0  0  0  0  0  0  0  0  0  0
  -20.8234  -10.9478   21.0147 C   0  0  0  0  0  0  0  0  0  0  0  0
  -26.4125  -14.6824   22.8395 C   0  0  0  0  0  0  0  0  0  0  0  0
  -26.1430  -17.0438   21.0799 C   0  0  0  0  0  0  0  0  0  0  0  0
  -20.9434  -12.4580   20.8269 C   0  0  0  0  0  0  0  0  0  0  0  0
  -28.4978  -21.0215   19.1784 C   0  0  0  0  0  0  0  0  0  0  0  0
  -22.0620  -12.7864   19.8433 C   0  0  0  0  0  0  0  0  0  0  0  0
  -28.3649  -22.4548   19.6948 C   0  0  0  0  0  0  0  0  0  0  0  0
  -28.0093  -20.9022   17.7380 C   0  0  0  0  0  0  0  0  0  0  0  0
  -28.5462  -23.2761   17.3028 C   0  0  0  0  0  0  0  0  0  0  0  0
  -23.4177  -12.2961   20.3658 C   0  0  1  0  0  0  0  0  0  0  0  0
  -25.0588  -15.1279   22.2948 C   0  0  1  0  0  0  0  0  0  0  0  0
  -29.0504  -23.4547   18.7454 C   0  0  1  0  0  0  0  0  0  0  0  0
  -24.1032  -22.6676   23.7923 C   0  0  0  0  0  0  0  0  0  0  0  0
  -30.5277  -14.9221   16.5615 C   0  0  0  0  0  0  0  0  0  0  0  0
  -22.6146  -17.8629   19.4831 C   0  0  0  0  0  0  0  0  0  0  0  0
  -22.6564  -20.3020   20.0463 C   0  0  0  0  0  0  0  0  0  0  0  0
  -21.3234  -18.7236   21.4443 C   0  0  0  0  0  0  0  0  0  0  0  0
  -33.4533  -14.7953   17.5967 C   0  0  0  0  0  0  0  0  0  0  0  0
  -33.2886  -17.1754   18.2691 C   0  0  0  0  0  0  0  0  0  0  0  0
  -26.7482  -20.3733   25.2810 C   0  0  0  0  0  0  0  0  0  0  0  0
  -32.0634  -16.6571   15.5421 C   0  0  0  0  0  0  0  0  0  0  0  0
  -31.0888  -17.0319   14.4126 C   0  0  0  0  0  0  0  0  0  0  0  0
  -31.7590  -15.4784   19.3358 C   0  0  0  0  0  0  0  0  0  1  0  0
  -23.8467  -18.6867   21.5971 C   0  0  1  0  0  0  0  0  0  0  0  0
  -24.7316  -21.3332   24.1628 C   0  0  2  0  0  0  0  0  0  0  0  0
  -31.4058  -16.1514   16.8563 C   0  0  2  0  0  0  0  0  0  0  0  0
  -22.6343  -18.8785   20.6429 C   0  0  0  0  0  0  0  0  0  0  0  0
  -32.4504  -15.8981   18.0165 C   0  0  0  0  0  0  0  0  0  0  0  0
  -28.3649  -19.4211   15.0096 N   0  0  0  0  0  0  0  0  0  0  0  0
  -27.6614  -25.4112   19.3149 N   0  0  0  0  0  0  0  0  0  0  0  0
  -30.2082  -18.2148   14.7289 N   0  0  0  0  0  0  0  0  0  0  0  0
  -28.8950  -24.8854   19.2263 N   0  0  0  0  0  0  0  0  0  0  0  0
  -28.6855  -21.8818   16.8781 N   0  0  0  0  0  0  0  0  0  0  0  0
  -25.0398  -16.5421   21.9157 N   0  0  0  0  0  0  0  0  0  0  0  0
  -31.1868  -25.3768   19.5680 N   0  0  0  0  0  0  0  0  0  0  0  0
  -29.1129  -29.2157   20.7336 N   0  0  0  0  0  0  0  0  0  0  0  0
  -23.9239  -13.1958   21.3801 N   0  0  0  0  0  0  0  0  0  0  0  0
  -23.8764  -19.6175   22.7201 N   0  0  0  0  0  0  0  0  0  0  0  0
  -26.0318  -21.5982   24.8412 N   0  3  0  0  0  0  0  0  0  0  0  0
  -31.1544  -28.1937   20.5174 O   0  0  0  0  0  0  0  0  0  0  0  0
  -29.9525  -22.4037   14.9828 O   0  0  0  0  0  0  0  0  0  0  0  0
  -24.9260  -14.7523   19.9675 O   0  0  0  0  0  0  0  0  0  0  0  0
  -22.9542  -16.9102   22.8910 O   0  0  0  0  0  0  0  0  0  0  0  0
  -25.9533  -20.5298   22.2395 O   0  0  0  0  0  0  0  0  0  0  0  0
  -23.6217  -30.1502   20.6459 O   0  0  0  0  0  0  0  0  0  0  0  0
  -30.8172  -16.4650   19.7553 O   0  0  0  0  0  0  0  0  0  1  0  0
  -23.6316  -33.0787   25.3179 F   0  0  0  0  0  0  0  0  0  0  0  0
  -25.6846  -31.8989   21.2193 F   0  0  0  0  0  0  0  0  0  0  0  0
  1  2  1  0  0  0  0
  1  5  2  0  0  0  0
  2  6  2  0  0  0  0
  3  8  2  0  0  0  0
  3 17  1  0  0  0  0
  4  9  1  0  0  0  0
  4 17  2  0  0  0  0
  5 19  1  0  0  0  0
  6 21  1  0  0  0  0
  7 10  2  0  0  0  0
  7 20  1  0  0  0  0
  8 23  1  0  0  0  0
  9 23  2  0  0  0  0
 10 24  1  0  0  0  0
 11 12  2  0  0  0  0
 11 25  1  0  0  0  0
 12 26  1  0  0  0  0
 13 22  1  0  0  0  0
 13 24  2  0  0  0  0
 14 26  2  0  0  0  0
 14 27  1  0  0  0  0
 15 29  2  0  0  0  0
 15 66  1  0  0  0  0
 16 64  2  0  0  0  0
 16 66  1  0  0  0  0
 17 28  1  0  0  0  0
 18 28  1  0  0  0  0
 18 30  2  0  0  0  0
 18 31  1  0  0  0  0
 19 21  2  0  0  0  0
 19 36  1  0  0  0  0
 20 22  2  0  0  0  0
 20 37  1  0  0  0  0
 21 45  1  0  0  0  0
 22 38  1  0  0  0  0
 23 80  1  0  0  0  0
 24 81  1  0  0  0  0
 25 27  2  0  0  0  0
 25 80  1  0  0  0  0
 26 82  1  0  0  0  0
 27 83  1  0  0  0  0
 28 65  2  0  0  0  0
 29 32  1  0  0  0  0
 29 64  1  0  0  0  0
 30 67  1  0  0  0  0
 30 70  1  0  0  0  0
 31 71  1  0  0  0  0
 31 75  2  0  0  0  0
 32 68  1  0  0  0  0
 32 76  2  0  0  0  0
 33 46  1  0  0  0  0
 33 72  1  0  0  0  0
 33 77  2  0  0  0  0
 34 59  1  0  0  0  0
 34 69  1  0  0  0  0
 34 78  2  0  0  0  0
 35 60  1  0  0  0  0
 35 73  1  0  0  0  0
 35 79  2  0  0  0  0
 36 39  1  0  0  0  0
 37 46  1  0  0  0  0
 38 69  1  0  0  0  0
 39 41  1  0  0  0  0
 40 42  1  0  0  0  0
 40 43  1  0  0  0  0
 41 45  1  0  0  0  0
 42 47  1  0  0  0  0
 43 68  1  0  0  0  0
 44 47  1  0  0  0  0
 44 68  1  0  0  0  0
 45 72  1  0  0  0  0
 46 69  1  0  0  0  0
 47 67  1  0  0  0  0
 48 60  1  0  0  0  0
 49 61  1  0  0  0  0
 50 62  1  0  0  0  0
 51 62  1  0  0  0  0
 52 62  1  0  0  0  0
 53 63  1  0  0  0  0
 54 63  1  0  0  0  0
 55 74  1  0  0  0  0
 56 57  1  0  0  0  0
 56 61  1  0  0  0  0
 57 66  1  0  0  0  0
 58 63  1  0  0  0  0
 58 81  1  0  0  0  0
 59 62  1  0  0  0  0
 59 73  1  0  0  0  0
 60 74  1  0  0  0  0
 61 63  1  0  0  0  0
 65 67  1  0  0  0  0
M  CHG  1  74   1
M  ISO  4  29 100  32 100  58 101  81 101
M  END
> <Batch ID>
0073

> <Smiles>
CNC(C)C(=O)NC(C(=O)N1Cc2cc([101O:1][101CH2:1]C(C)(C)C(C)CCn3cn[100c:0]([100C:0](=O)N4CCCC(n5nc(-c6ccc(Oc7ccc(F)cc7F)cc6)c(C(N)=O)c5N)C4)c3)ccc2CC1C(=O)NC1CCCc2ccccc21)C(C)(C)C

> <Shape>
0.215

> <Color>
0.062

> <Negative vol penalty>
0.000

$$$$

  -OEChem-04052318273D

 88 96  0     1  0  0  0  0  0999 V2000
  -17.2463  -30.3871   23.4814 C   0  0  0  0  0  0  0  0  0  0  0  0
  -18.5955  -30.7110   23.3806 C   0  0  0  0  0  0  0  0  0  0  0  0
  -27.7891  -18.2084   21.4080 C   0  0  0  0  0  0  0  0  0  0  0  0
  -30.0481  -17.3785   21.1957 C   0  0  0  0  0  0  0  0  0  0  0  0
  -16.8410  -29.0565   23.3851 C   0  0  0  0  0  0  0  0  0  0  0  0
  -19.5403  -29.7044   23.1846 C   0  0  0  0  0  0  0  0  0  0  0  0
  -24.7024  -30.0872   19.9117 C   0  0  0  0  0  0  0  0  0  0  0  0
  -27.3116  -16.8984   21.4475 C   0  0  0  0  0  0  0  0  0  0  0  0
  -29.5707  -16.0685   21.2354 C   0  0  0  0  0  0  0  0  0  0  0  0
  -26.0296  -30.3103   20.2759 C   0  0  0  0  0  0  0  0  0  0  0  0
  -28.9148  -12.5077   20.9185 C   0  0  0  0  0  0  0  0  0  0  0  0
  -29.4303  -11.6015   19.9919 C   0  0  0  0  0  0  0  0  0  0  0  0
  -26.4226  -27.9302   20.2785 C   0  0  0  0  0  0  0  0  0  0  0  0
  -28.6109  -12.9817   18.1862 C   0  0  0  0  0  0  0  0  0  0  0  0
  -29.1574  -18.4485   21.2820 C   0  0  0  0  0  0  0  0  0  0  0  0
  -30.0460  -20.5962   22.3333 C   0  0  0  0  0  0  0  0  0  0  0  0
  -17.7803  -28.0341   23.1781 C   0  0  0  0  0  0  0  0  0  0  0  0
  -24.2217  -28.7813   19.7385 C   0  0  0  0  0  0  0  0  0  0  0  0
  -19.1473  -28.3588   23.0868 C   0  0  0  0  0  0  0  0  0  0  0  0
  -25.0896  -27.6933   19.9096 C   0  0  0  0  0  0  0  0  0  0  0  0
  -30.4877  -27.2912   21.2346 C   0  0  0  0  0  0  0  0  0  0  0  0
  -28.2023  -15.8285   21.3613 C   0  0  0  0  0  0  0  0  0  0  0  0
  -26.8892  -29.2316   20.4621 C   0  0  0  0  0  0  0  0  0  0  0  0
  -28.2473  -13.6509   20.4789 C   0  0  0  0  0  0  0  0  0  0  0  0
  -29.2784  -11.8385   18.6258 C   0  0  0  0  0  0  0  0  0  0  0  0
  -28.0954  -13.8879   19.1128 C   0  0  0  0  0  0  0  0  0  0  0  0
  -29.6512  -19.8014   21.2405 C   0  0  0  0  0  0  0  0  0  0  0  0
  -30.7751  -27.5326   19.9066 C   0  0  0  0  0  0  0  0  0  0  0  0
  -31.5596  -26.9172   22.0190 C   0  0  0  0  0  0  0  0  0  0  0  0
  -30.4317  -21.7878   21.7697 C   0  0  0  0  0  0  0  0  0  0  0  0
  -32.9708  -27.0492   20.2419 C   0  0  0  0  0  0  0  0  0  0  0  0
  -30.0627  -20.2850   23.7328 C   0  0  0  0  0  0  0  0  0  0  0  0
  -21.9820  -27.0116   21.1368 C   0  0  0  0  0  0  0  0  0  0  0  0
  -22.7228  -24.9093   18.7801 C   0  0  0  0  0  0  0  0  0  0  0  0
  -25.0158  -23.7843   16.5166 C   0  0  0  0  0  0  0  0  0  0  0  0
  -33.1264  -23.4037   16.7486 C   0  0  0  0  0  0  0  0  0  0  0  0
  -17.2992  -26.6056   23.1278 C   0  0  0  0  0  0  0  0  0  0  0  0
  -22.7944  -28.5585   19.3195 C   0  0  0  0  0  0  0  0  0  0  0  0
  -24.6281  -26.2727   19.7161 C   0  0  0  0  0  0  0  0  0  0  0  0
  -18.3255  -25.6373   22.5452 C   0  0  0  0  0  0  0  0  0  0  0  0
  -29.5617  -24.0770   17.4844 C   0  0  0  0  0  0  0  0  0  0  0  0
  -19.6996  -25.8818   23.1608 C   0  0  0  0  0  0  0  0  0  0  0  0
  -29.2504  -23.0607   18.5818 C   0  0  0  0  0  0  0  0  0  0  0  0
  -30.6727  -23.5901   16.5590 C   0  0  0  0  0  0  0  0  0  0  0  0
  -31.6109  -22.1876   18.3665 C   0  0  0  0  0  0  0  0  0  0  0  0
  -20.1997  -27.2976   22.8492 C   0  0  1  0  0  0  0  0  0  0  0  0
  -22.2784  -27.1668   19.6720 C   0  0  1  0  0  0  0  0  0  0  0  0
  -30.5278  -22.6679   19.3442 C   0  0  2  0  0  0  0  0  0  0  0  0
  -29.6943  -27.9442   18.9618 C   0  0  0  0  0  0  0  0  0  0  0  0
  -32.6955  -26.5461   24.2232 C   0  0  0  0  0  0  0  0  0  0  0  0
  -25.3477  -22.0270   14.7562 C   0  0  0  0  0  0  0  0  0  0  0  0
  -23.1543  -22.8143   20.9562 C   0  0  0  0  0  0  0  0  0  0  0  0
  -24.3712  -21.4171   19.2724 C   0  0  0  0  0  0  0  0  0  0  0  0
  -21.9654  -21.9759   18.9219 C   0  0  0  0  0  0  0  0  0  0  0  0
  -29.7226  -29.7671   22.6384 C   0  0  0  0  0  0  0  0  0  0  0  0
  -27.4158  -28.8570   22.9996 C   0  0  0  0  0  0  0  0  0  0  0  0
  -35.5356  -23.2471   17.2494 C   0  0  0  0  0  0  0  0  0  0  0  0
  -25.3755  -25.8143   14.3932 C   0  0  0  0  0  0  0  0  0  0  0  0
  -29.0898  -27.4294   21.7934 C   0  0  0  0  0  0  0  0  0  0  0  0
  -31.3701  -26.6287   23.4719 C   0  0  0  0  0  0  0  0  0  0  0  0
  -34.3503  -26.9176   19.6912 C   0  0  0  0  0  0  0  0  0  0  0  0
  -34.4698  -25.9565   18.4918 C   0  0  0  0  0  0  0  0  0  0  0  0
  -34.0979  -24.5092   18.8069 C   0  0  0  0  0  0  0  0  0  0  0  0
  -23.7125  -23.7796   18.6275 C   0  0  1  0  0  0  0  0  0  0  0  0
  -24.8942  -23.4505   15.0407 C   0  0  2  0  0  0  0  0  0  0  0  0
  -23.3093  -22.5233   19.4501 C   0  0  0  0  0  0  0  0  0  0  0  0
  -28.6220  -28.8788   22.0523 C   0  0  0  0  0  0  0  0  0  1  0  0
  -29.7746  -20.4348   20.0711 N   0  0  0  0  0  0  0  0  0  0  0  0
  -32.0100  -27.4208   19.3746 N   0  0  0  0  0  0  0  0  0  0  0  0
  -32.8193  -26.7858   21.5538 N   0  0  0  0  0  0  0  0  0  0  0  0
  -30.2512  -21.6403   20.4259 N   0  0  0  0  0  0  0  0  0  0  0  0
  -23.2221  -26.1064   19.3126 N   0  0  0  0  0  0  0  0  0  0  0  0
  -31.8591  -23.1825   17.3124 N   0  0  0  0  0  0  0  0  0  0  0  0
  -30.9042  -22.9370   22.2974 N   0  0  0  0  0  0  0  0  0  0  0  0
  -29.6334  -19.0145   24.1400 N   0  0  0  0  0  0  0  0  0  0  0  0
  -20.6958  -27.3710   21.4917 N   0  0  0  0  0  0  0  0  0  0  0  0
  -23.8401  -23.5396   17.1941 N   0  0  0  0  0  0  0  0  0  0  0  0
  -34.1880  -23.6412   17.6348 N   0  0  0  0  0  0  0  0  0  0  0  0
  -25.7287  -24.3807   14.2288 N   0  3  0  0  0  0  0  0  0  0  0  0
  -30.4314  -21.1150   24.5982 O   0  0  0  0  0  0  0  0  0  0  0  0
  -22.8550  -26.5950   21.8891 O   0  0  0  0  0  0  0  0  0  0  0  0
  -21.5516  -24.7382   18.4329 O   0  0  0  0  0  0  0  0  0  0  0  0
  -26.0513  -24.2154   17.0189 O   0  0  0  0  0  0  0  0  0  0  0  0
  -33.2973  -23.3990   15.5228 O   0  0  0  0  0  0  0  0  0  0  0  0
  -27.7368  -14.5501   21.4001 O   0  0  0  0  0  0  0  0  0  0  0  0
  -28.1849  -29.4465   20.8183 O   0  0  0  0  0  0  0  0  0  1  0  0
  -29.7748  -10.9689   17.7361 F   0  0  0  0  0  0  0  0  0  0  0  0
  -27.4561  -14.9850   18.6844 F   0  0  0  0  0  0  0  0  0  0  0  0
  1  2  1  0  0  0  0
  1  5  2  0  0  0  0
  2  6  2  0  0  0  0
  3  8  2  0  0  0  0
  3 15  1  0  0  0  0
  4  9  1  0  0  0  0
  4 15  2  0  0  0  0
  5 17  1  0  0  0  0
  6 19  1  0  0  0  0
  7 10  2  0  0  0  0
  7 18  1  0  0  0  0
  8 22  1  0  0  0  0
  9 22  2  0  0  0  0
 10 23  1  0  0  0  0
 11 12  2  0  0  0  0
 11 24  1  0  0  0  0
 12 25  1  0  0  0  0
 13 20  1  0  0  0  0
 13 23  2  0  0  0  0
 14 25  2  0  0  0  0
 14 26  1  0  0  0  0
 15 27  1  0  0  0  0
 16 27  1  0  0  0  0
 16 30  2  0  0  0  0
 16 32  1  0  0  0  0
 17 19  2  0  0  0  0
 17 37  1  0  0  0  0
 18 20  2  0  0  0  0
 18 38  1  0  0  0  0
 19 46  1  0  0  0  0
 20 39  1  0  0  0  0
 21 28  1  0  0  0  0
 21 29  2  0  0  0  0
 21 59  1  0  0  0  0
 22 85  1  0  0  0  0
 23 86  1  0  0  0  0
 24 26  2  0  0  0  0
 24 85  1  0  0  0  0
 25 87  1  0  0  0  0
 26 88  1  0  0  0  0
 27 68  2  0  0  0  0
 28 49  1  0  0  0  0
 28 69  2  0  0  0  0
 29 60  1  0  0  0  0
 29 70  1  0  0  0  0
 30 71  1  0  0  0  0
 30 74  1  0  0  0  0
 31 61  1  0  0  0  0
 31 69  1  0  0  0  0
 31 70  2  0  0  0  0
 32 75  1  0  0  0  0
 32 80  2  0  0  0  0
 33 47  1  0  0  0  0
 33 76  1  0  0  0  0
 33 81  2  0  0  0  0
 34 64  1  0  0  0  0
 34 72  1  0  0  0  0
 34 82  2  0  0  0  0
 35 65  1  0  0  0  0
 35 77  1  0  0  0  0
 35 83  2  0  0  0  0
 36 73  1  0  0  0  0
 36 78  1  0  0  0  0
 36 84  2  0  0  0  0
 37 40  1  0  0  0  0
 38 47  1  0  0  0  0
 39 72  1  0  0  0  0
 40 42  1  0  0  0  0
 41 43  1  0  0  0  0
 41 44  1  0  0  0  0
 42 46  1  0  0  0  0
 43 48  1  0  0  0  0
 44 73  1  0  0  0  0
 45 48  1  0  0  0  0
 45 73  1  0  0  0  0
 46 76  1  0  0  0  0
 47 72  1  0  0  0  0
 48 71  1  0  0  0  0
 50 60  1  0  0  0  0
 51 65  1  0  0  0  0
 52 66  1  0  0  0  0
 53 66  1  0  0  0  0
 54 66  1  0  0  0  0
 55 67  1  0  0  0  0
 56 67  1  0  0  0  0
 57 78  1  0  0  0  0
 58 79  1  0  0  0  0
 59 67  1  0  0  0  0
 61 62  1  0  0  0  0
 62 63  1  0  0  0  0
 63 78  1  0  0  0  0
 64 66  1  0  0  0  0
 64 77  1  0  0  0  0
 65 79  1  0  0  0  0
 67 86  1  0  0  0  0
 68 71  1  0  0  0  0
M  CHG  1  79   1
M  ISO  4  36 100  67 101  78 100  86 101
M  END
> <Batch ID>
0073

> <Smiles>
CCc1nc(CCC[100N:0](C)[100C:0](=O)N2CCCC(n3nc(-c4ccc(Oc5ccc(F)cc5F)cc4)c(C(N)=O)c3N)C2)nc(C)c1C[101C:1](C)(C)[101O:1]c1ccc2c(c1)CN(C(=O)C(NC(=O)C(C)NC)C(C)(C)C)C(C(=O)NC1CCCc3ccccc31)C2

> <Shape>
0.253

> <Color>
0.065

> <Negative vol penalty>
0.000

$$$$

  -OEChem-04052318273D

 86 94  0     1  0  0  0  0  0999 V2000
  -30.3074  -13.0816   20.5328 C   0  0  0  0  0  0  0  0  0  0  0  0
  -30.1318  -14.4140   20.8924 C   0  0  0  0  0  0  0  0  0  0  0  0
  -30.0104  -23.6291   20.0497 C   0  0  0  0  0  0  0  0  0  0  0  0
  -27.7013  -23.4847   19.3541 C   0  0  0  0  0  0  0  0  0  0  0  0
  -29.3617  -12.4474   19.7283 C   0  0  0  0  0  0  0  0  0  0  0  0
  -29.0108  -15.1133   20.4467 C   0  0  0  0  0  0  0  0  0  0  0  0
  -25.9374  -19.4583   23.4768 C   0  0  0  0  0  0  0  0  0  0  0  0
  -30.1173  -22.2399   19.9834 C   0  0  0  0  0  0  0  0  0  0  0  0
  -27.8081  -22.0955   19.2876 C   0  0  0  0  0  0  0  0  0  0  0  0
  -25.9759  -20.8506   23.4152 C   0  0  0  0  0  0  0  0  0  0  0  0
  -29.2449  -19.5816   21.8799 C   0  0  0  0  0  0  0  0  0  0  0  0
  -29.8806  -18.9301   22.9367 C   0  0  0  0  0  0  0  0  0  0  0  0
  -24.0957  -20.8298   21.9040 C   0  0  0  0  0  0  0  0  0  0  0  0
  -23.3281  -28.4349   20.4484 C   0  0  0  0  0  0  0  0  0  0  0  0
  -22.5017  -26.3987   21.4259 C   0  0  0  0  0  0  0  0  0  0  0  0
  -31.5304  -18.0542   21.4044 C   0  0  0  0  0  0  0  0  0  0  0  0
  -28.8024  -24.2515   19.7351 C   0  0  0  0  0  0  0  0  0  0  0  0
  -28.9444  -26.6092   18.7715 C   0  0  0  0  0  0  0  0  0  0  0  0
  -28.2236  -13.1366   19.2804 C   0  0  0  0  0  0  0  0  0  0  0  0
  -24.9830  -18.7395   22.7427 C   0  0  0  0  0  0  0  0  0  0  0  0
  -28.0496  -14.4882   19.6343 C   0  0  0  0  0  0  0  0  0  0  0  0
  -24.0455  -19.4285   21.9600 C   0  0  0  0  0  0  0  0  0  0  0  0
  -22.7675  -27.1711   20.3007 C   0  0  0  0  0  0  0  0  0  0  0  0
  -29.0162  -21.4731   19.6023 C   0  0  0  0  0  0  0  0  0  0  0  0
  -25.0569  -21.5364   22.6265 C   0  0  0  0  0  0  0  0  0  0  0  0
  -29.7519  -19.4695   20.5853 C   0  0  0  0  0  0  0  0  0  0  0  0
  -31.0233  -18.1664   22.6990 C   0  0  0  0  0  0  0  0  0  0  0  0
  -30.8947  -18.7058   20.3475 C   0  0  0  0  0  0  0  0  0  0  0  0
  -28.6912  -25.6864   19.8040 C   0  0  0  0  0  0  0  0  0  0  0  0
  -23.6019  -28.8768   21.7327 C   0  0  0  0  0  0  0  0  0  0  0  0
  -22.8127  -26.9318   22.6665 C   0  0  0  0  0  0  0  0  0  0  0  0
  -28.6960  -27.8354   19.3384 C   0  0  0  0  0  0  0  0  0  0  0  0
  -29.3662  -26.3787   17.4207 C   0  0  0  0  0  0  0  0  0  0  0  0
  -25.1052  -16.5803   20.4132 C   0  0  0  0  0  0  0  0  0  0  0  0
  -21.9013  -16.4435   20.9017 C   0  0  0  0  0  0  0  0  0  0  0  0
  -25.0660  -30.2702   23.1649 C   0  0  0  0  0  0  0  0  0  0  0  0
  -19.0747  -17.9852   22.0331 C   0  0  0  0  0  0  0  0  0  0  0  0
  -27.2527  -12.4226   18.3736 C   0  0  0  0  0  0  0  0  0  0  0  0
  -24.9377  -17.2393   22.8408 C   0  0  0  0  0  0  0  0  0  0  0  0
  -22.9880  -18.7047   21.1687 C   0  0  0  0  0  0  0  0  0  0  0  0
  -25.9030  -13.1254   18.2523 C   0  0  0  0  0  0  0  0  0  0  0  0
  -28.4915  -29.5739   23.9531 C   0  0  0  0  0  0  0  0  0  0  0  0
  -26.0986  -14.6195   18.0151 C   0  0  0  0  0  0  0  0  0  0  0  0
  -28.9084  -28.5659   22.8829 C   0  0  0  0  0  0  0  0  0  0  0  0
  -27.0357  -29.3801   24.3658 C   0  0  0  0  0  0  0  0  0  0  0  0
  -26.4852  -28.4164   22.1545 C   0  0  0  0  0  0  0  0  0  0  0  0
  -26.8341  -15.2732   19.1911 C   0  0  1  0  0  0  0  0  0  0  0  0
  -24.2493  -16.5829   21.6481 C   0  0  1  0  0  0  0  0  0  0  0  0
  -27.9402  -28.5972   21.6871 C   0  0  2  0  0  0  0  0  0  0  0  0
  -22.4518  -26.6465   18.9410 C   0  0  0  0  0  0  0  0  0  0  0  0
  -16.6002  -17.6383   22.2657 C   0  0  0  0  0  0  0  0  0  0  0  0
  -23.0983  -31.3067   22.1000 C   0  0  0  0  0  0  0  0  0  0  0  0
  -25.1490  -30.7267   20.7991 C   0  0  0  0  0  0  0  0  0  0  0  0
  -22.9743  -26.9365   25.1651 C   0  0  0  0  0  0  0  0  0  0  0  0
  -21.0373  -25.7721   24.1480 C   0  0  0  0  0  0  0  0  0  0  0  0
  -21.5500  -16.9660   17.9161 C   0  0  0  0  0  0  0  0  0  0  0  0
  -19.1577  -17.5480   18.3704 C   0  0  0  0  0  0  0  0  0  0  0  0
  -19.9963  -15.2513   18.8650 C   0  0  0  0  0  0  0  0  0  0  0  0
  -19.2008  -18.2248   24.9803 C   0  0  0  0  0  0  0  0  0  0  0  0
  -24.8686  -24.9379   23.8064 C   0  0  0  0  0  0  0  0  0  0  0  0
  -23.3494  -24.7727   23.9342 C   0  0  0  0  0  0  0  0  0  0  0  0
  -25.5672  -23.5863   23.7189 C   0  0  0  0  0  0  0  0  0  1  0  0
  -20.7030  -17.1745   20.3462 C   0  0  1  0  0  0  0  0  0  0  0  0
  -17.9569  -17.5008   22.9389 C   0  0  2  0  0  0  0  0  0  0  0  0
  -24.2022  -30.2287   21.9295 C   0  0  0  0  0  0  0  0  0  0  0  0
  -22.5339  -26.1043   23.9343 C   0  0  0  0  0  0  0  0  0  0  0  0
  -20.3728  -16.7488   18.8877 C   0  0  0  0  0  0  0  0  0  0  0  0
  -28.3114  -26.2759   20.9408 N   0  0  0  0  0  0  0  0  0  0  0  0
  -23.3578  -28.1553   22.8496 N   0  0  0  0  0  0  0  0  0  0  0  0
  -28.3241  -27.5823   20.6259 N   0  0  0  0  0  0  0  0  0  0  0  0
  -22.9887  -17.2377   21.2925 N   0  0  0  0  0  0  0  0  0  0  0  0
  -26.1506  -29.3935   23.1998 N   0  0  0  0  0  0  0  0  0  0  0  0
  -28.7619  -29.0945   18.8561 N   0  0  0  0  0  0  0  0  0  0  0  0
  -29.5756  -25.0575   17.0024 N   0  0  0  0  0  0  0  0  0  0  0  0
  -25.9298  -15.4770   20.3025 N   0  0  0  0  0  0  0  0  0  0  0  0
  -19.6155  -16.9548   21.2935 N   0  0  0  0  0  0  0  0  0  0  0  0
  -17.9363  -18.2894   24.2033 N   0  3  0  0  0  0  0  0  0  0  0  0
  -29.5677  -27.3175   16.6135 O   0  0  0  0  0  0  0  0  0  0  0  0
  -25.0226  -17.5097   19.6187 O   0  0  0  0  0  0  0  0  0  0  0  0
  -21.8709  -15.2137   20.9924 O   0  0  0  0  0  0  0  0  0  0  0  0
  -24.7854  -31.0609   24.0694 O   0  0  0  0  0  0  0  0  0  0  0  0
  -19.4299  -19.1607   21.9837 O   0  0  0  0  0  0  0  0  0  0  0  0
  -29.1201  -20.1176   19.5372 O   0  0  0  0  0  0  0  0  0  0  0  0
  -25.0927  -22.8953   22.5640 O   0  0  0  0  0  0  0  0  0  1  0  0
  -31.6345  -17.5420   23.7143 F   0  0  0  0  0  0  0  0  0  0  0  0
  -31.3872  -18.5953   19.1061 F   0  0  0  0  0  0  0  0  0  0  0  0
  1  2  1  0  0  0  0
  1  5  2  0  0  0  0
  2  6  2  0  0  0  0
  3  8  2  0  0  0  0
  3 17  1  0  0  0  0
  4  9  1  0  0  0  0
  4 17  2  0  0  0  0
  5 19  1  0  0  0  0
  6 21  1  0  0  0  0
  7 10  2  0  0  0  0
  7 20  1  0  0  0  0
  8 24  1  0  0  0  0
  9 24  2  0  0  0  0
 10 25  1  0  0  0  0
 11 12  2  0  0  0  0
 11 26  1  0  0  0  0
 12 27  1  0  0  0  0
 13 22  1  0  0  0  0
 13 25  2  0  0  0  0
 14 23  1  0  0  0  0
 14 30  2  0  0  0  0
 15 23  2  0  0  0  0
 15 31  1  0  0  0  0
 16 27  2  0  0  0  0
 16 28  1  0  0  0  0
 17 29  1  0  0  0  0
 18 29  1  0  0  0  0
 18 32  2  0  0  0  0
 18 33  1  0  0  0  0
 19 21  2  0  0  0  0
 19 38  1  0  0  0  0
 20 22  2  0  0  0  0
 20 39  1  0  0  0  0
 21 47  1  0  0  0  0
 22 40  1  0  0  0  0
 23 50  1  0  0  0  0
 24 83  1  0  0  0  0
 25 84  1  0  0  0  0
 26 28  2  0  0  0  0
 26 83  1  0  0  0  0
 27 85  1  0  0  0  0
 28 86  1  0  0  0  0
 29 68  2  0  0  0  0
 30 65  1  0  0  0  0
 30 69  1  0  0  0  0
 31 66  1  0  0  0  0
 31 69  2  0  0  0  0
 32 70  1  0  0  0  0
 32 73  1  0  0  0  0
 33 74  1  0  0  0  0
 33 78  2  0  0  0  0
 34 48  1  0  0  0  0
 34 75  1  0  0  0  0
 34 79  2  0  0  0  0
 35 63  1  0  0  0  0
 35 71  1  0  0  0  0
 35 80  2  0  0  0  0
 36 65  1  0  0  0  0
 36 72  1  0  0  0  0
 36 81  2  0  0  0  0
 37 64  1  0  0  0  0
 37 76  1  0  0  0  0
 37 82  2  0  0  0  0
 38 41  1  0  0  0  0
 39 48  1  0  0  0  0
 40 71  1  0  0  0  0
 41 43  1  0  0  0  0
 42 44  1  0  0  0  0
 42 45  1  0  0  0  0
 43 47  1  0  0  0  0
 44 49  1  0  0  0  0
 45 72  1  0  0  0  0
 46 49  1  0  0  0  0
 46 72  1  0  0  0  0
 47 75  1  0  0  0  0
 48 71  1  0  0  0  0
 49 70  1  0  0  0  0
 51 64  1  0  0  0  0
 52 65  1  0  0  0  0
 53 65  1  0  0  0  0
 54 66  1  0  0  0  0
 55 66  1  0  0  0  0
 56 67  1  0  0  0  0
 57 67  1  0  0  0  0
 58 67  1  0  0  0  0
 59 77  1  0  0  0  0
 60 61  1  0  0  0  0
 60 62  1  0  0  0  0
 61 66  1  0  0  0  0
 62 84  1  0  0  0  0
 63 67  1  0  0  0  0
 63 76  1  0  0  0  0
 64 77  1  0  0  0  0
 68 70  1  0  0  0  0
M  CHG  1  77   1
M  ISO  4  36 100  62 101  65 100  84 101
M  END
> <Batch ID>
0073

> <Smiles>
CNC(C)C(=O)NC(C(=O)N1Cc2cc([101O:1][101CH2:1]CCC(C)(C)c3cc(C)cc([100C:0](C)(C)[100C:0](=O)N4CCCC(n5nc(-c6ccc(Oc7ccc(F)cc7F)cc6)c(C(N)=O)c5N)C4)n3)ccc2CC1C(=O)NC1CCCc2ccccc21)C(C)(C)C

> <Shape>
0.202

> <Color>
0.058

> <Negative vol penalty>
0.000

$$$$

  -OEChem-04052318273D

 84 92  0     1  0  0  0  0  0999 V2000
  -23.4703  -23.7592   22.6907 C   0  0  0  0  0  0  0  0  0  0  0  0
  -24.5475  -22.8924   22.8443 C   0  0  0  0  0  0  0  0  0  0  0  0
  -22.1759  -27.9364   21.0196 C   0  0  0  0  0  0  0  0  0  0  0  0
  -23.5273  -27.7332   23.0119 C   0  0  0  0  0  0  0  0  0  0  0  0
  -22.1672  -23.2777   22.8091 C   0  0  0  0  0  0  0  0  0  0  0  0
  -24.3222  -21.5437   23.1176 C   0  0  0  0  0  0  0  0  0  0  0  0
  -27.2297  -18.4828   20.3207 C   0  0  0  0  0  0  0  0  0  0  0  0
  -21.0197  -27.8512   21.7951 C   0  0  0  0  0  0  0  0  0  0  0  0
  -22.3711  -27.6480   23.7875 C   0  0  0  0  0  0  0  0  0  0  0  0
  -28.5590  -18.3329   20.7136 C   0  0  0  0  0  0  0  0  0  0  0  0
  -19.1974  -29.8913   23.7825 C   0  0  0  0  0  0  0  0  0  0  0  0
  -18.1692  -30.7951   23.5149 C   0  0  0  0  0  0  0  0  0  0  0  0
  -28.0048  -16.2346   21.7668 C   0  0  0  0  0  0  0  0  0  0  0  0
  -16.6816  -28.9566   23.0211 C   0  0  0  0  0  0  0  0  0  0  0  0
  -29.9399  -23.3048   24.9088 C   0  0  0  0  0  0  0  0  0  0  0  0
  -30.7025  -22.1608   24.8967 C   0  0  0  0  0  0  0  0  0  0  0  0
  -23.4298  -27.8774   21.6280 C   0  0  0  0  0  0  0  0  0  0  0  0
  -25.3256  -29.1324   20.4711 C   0  0  0  0  0  0  0  0  0  0  0  0
  -21.9256  -21.9205   23.0744 C   0  0  0  0  0  0  0  0  0  0  0  0
  -26.2742  -17.5133   20.6578 C   0  0  0  0  0  0  0  0  0  0  0  0
  -23.0147  -21.0438   23.2410 C   0  0  0  0  0  0  0  0  0  0  0  0
  -26.6646  -16.3733   21.3747 C   0  0  0  0  0  0  0  0  0  0  0  0
  -21.1173  -27.7070   23.1791 C   0  0  0  0  0  0  0  0  0  0  0  0
  -28.9461  -17.2102   21.4393 C   0  0  0  0  0  0  0  0  0  0  0  0
  -18.9677  -28.5201   23.6694 C   0  0  0  0  0  0  0  0  0  0  0  0
  -16.9113  -30.3278   23.1342 C   0  0  0  0  0  0  0  0  0  0  0  0
  -17.7098  -28.0527   23.2887 C   0  0  0  0  0  0  0  0  0  0  0  0
  -24.6245  -27.9648   20.8273 C   0  0  0  0  0  0  0  0  0  0  0  0
  -26.3783  -28.6828   19.7122 C   0  0  0  0  0  0  0  0  0  0  0  0
  -30.5472  -23.0472   22.8851 C   0  0  0  0  0  0  0  0  0  0  0  0
  -25.0499  -30.5011   20.7972 C   0  0  0  0  0  0  0  0  0  0  0  0
  -23.6099  -17.4975   22.3912 C   0  0  0  0  0  0  0  0  0  0  0  0
  -23.3478  -14.4728   21.2488 C   0  0  0  0  0  0  0  0  0  0  0  0
  -24.8971  -11.7165   19.9646 C   0  0  0  0  0  0  0  0  0  0  0  0
  -29.2779  -23.4504   19.4554 C   0  0  0  0  0  0  0  0  0  0  0  0
  -20.5005  -21.4557   23.2405 C   0  0  0  0  0  0  0  0  0  0  0  0
  -24.8497  -17.6767   20.2034 C   0  0  0  0  0  0  0  0  0  0  0  0
  -25.6815  -15.2937   21.7443 C   0  0  0  0  0  0  0  0  0  0  0  0
  -20.3409  -19.9397   23.1599 C   0  0  0  0  0  0  0  0  0  0  0  0
  -27.6243  -25.1153   16.7777 C   0  0  0  0  0  0  0  0  0  0  0  0
  -21.3975  -19.2456   24.0134 C   0  0  0  0  0  0  0  0  0  0  0  0
  -26.7312  -26.1397   17.4797 C   0  0  0  0  0  0  0  0  0  0  0  0
  -27.7157  -23.8113   17.5671 C   0  0  0  0  0  0  0  0  0  0  0  0
  -27.2352  -24.9914   19.6766 C   0  0  0  0  0  0  0  0  0  0  0  0
  -22.8105  -19.5693   23.5135 C   0  0  1  0  0  0  0  0  0  0  0  0
  -23.8588  -16.8784   21.0449 C   0  0  1  0  0  0  0  0  0  0  0  0
  -27.1569  -26.3430   18.9463 C   0  0  2  0  0  0  0  0  0  0  0  0
  -32.0100  -25.4405   21.6835 C   0  0  0  0  0  0  0  0  0  0  0  0
  -24.4254   -9.3857   19.1634 C   0  0  0  0  0  0  0  0  0  0  0  0
  -32.1357  -16.5290   20.4526 C   0  0  0  0  0  0  0  0  0  0  0  0
  -23.0634  -13.5392   24.1397 C   0  0  0  0  0  0  0  0  0  0  0  0
  -23.5499  -11.2097   23.3619 C   0  0  0  0  0  0  0  0  0  0  0  0
  -21.5289  -12.4067   22.5219 C   0  0  0  0  0  0  0  0  0  0  0  0
  -25.8884  -12.3268   17.2436 C   0  0  0  0  0  0  0  0  0  0  0  0
  -32.0206  -24.0380   21.0880 C   0  0  0  0  0  0  0  0  0  0  0  0
  -31.1562  -19.8214   22.2881 C   0  0  0  0  0  0  0  0  0  0  0  0
  -32.0453  -18.6851   21.7651 C   0  0  0  0  0  0  0  0  0  0  0  0
  -31.9422  -20.8918   23.0543 C   0  0  0  0  0  0  0  0  0  0  0  0
  -30.7587  -23.2009   21.4313 C   0  0  2  0  0  0  0  0  0  0  0  0
  -23.8157  -13.1127   21.7070 C   0  0  1  0  0  0  0  0  0  0  0  0
  -24.5721  -10.8458   18.7644 C   0  0  2  0  0  0  0  0  0  0  0  0
  -31.2404  -17.6402   20.9842 C   0  0  2  0  0  0  0  0  0  1  0  0
  -23.0079  -12.5882   22.9275 C   0  0  0  0  0  0  0  0  0  0  0  0
  -29.8468  -23.8516   23.6535 N   0  0  0  0  0  0  0  0  0  0  0  0
  -25.1846  -26.8567   20.3350 N   0  0  0  0  0  0  0  0  0  0  0  0
  -31.0841  -22.0084   23.5935 N   0  0  0  0  0  0  0  0  0  0  0  0
  -26.2487  -27.3260   19.6617 N   0  0  0  0  0  0  0  0  0  0  0  0
  -24.2991  -15.5023   21.2826 N   0  0  0  0  0  0  0  0  0  0  0  0
  -28.1255  -24.0736   18.9488 N   0  0  0  0  0  0  0  0  0  0  0  0
  -27.3930  -29.3196   19.0898 N   0  0  0  0  0  0  0  0  0  0  0  0
  -23.9276  -30.7869   21.5866 N   0  0  0  0  0  0  0  0  0  0  0  0
  -23.1209  -18.7887   22.3350 N   0  0  0  0  0  0  0  0  0  0  0  0
  -23.7587  -12.2453   20.5353 N   0  0  0  0  0  0  0  0  0  0  0  0
  -29.5991  -23.7585   20.7717 N   0  0  0  0  0  0  0  0  0  0  0  0
  -25.6523  -10.9476   17.7428 N   0  3  0  0  0  0  0  0  0  0  0  0
  -25.7679  -31.4442   20.3865 O   0  0  0  0  0  0  0  0  0  0  0  0
  -23.8428  -16.8510   23.4059 O   0  0  0  0  0  0  0  0  0  0  0  0
  -22.1832  -14.6151   20.8679 O   0  0  0  0  0  0  0  0  0  0  0  0
  -26.0457  -11.9054   20.3590 O   0  0  0  0  0  0  0  0  0  0  0  0
  -29.9724  -22.6810   18.7826 O   0  0  0  0  0  0  0  0  0  0  0  0
  -19.9892  -27.6241   23.9362 O   0  0  0  0  0  0  0  0  0  0  0  0
  -30.2428  -17.0618   21.8247 O   0  0  0  0  0  0  0  0  0  1  0  0
  -15.9236  -31.1957   22.8787 F   0  0  0  0  0  0  0  0  0  0  0  0
  -17.4828  -26.7366   23.1795 F   0  0  0  0  0  0  0  0  0  0  0  0
  1  2  1  0  0  0  0
  1  5  2  0  0  0  0
  2  6  2  0  0  0  0
  3  8  2  0  0  0  0
  3 17  1  0  0  0  0
  4  9  1  0  0  0  0
  4 17  2  0  0  0  0
  5 19  1  0  0  0  0
  6 21  1  0  0  0  0
  7 10  2  0  0  0  0
  7 20  1  0  0  0  0
  8 23  1  0  0  0  0
  9 23  2  0  0  0  0
 10 24  1  0  0  0  0
 11 12  2  0  0  0  0
 11 25  1  0  0  0  0
 12 26  1  0  0  0  0
 13 22  1  0  0  0  0
 13 24  2  0  0  0  0
 14 26  2  0  0  0  0
 14 27  1  0  0  0  0
 15 16  2  0  0  0  0
 15 64  1  0  0  0  0
 16 66  1  0  0  0  0
 17 28  1  0  0  0  0
 18 28  1  0  0  0  0
 18 29  2  0  0  0  0
 18 31  1  0  0  0  0
 19 21  2  0  0  0  0
 19 36  1  0  0  0  0
 20 22  2  0  0  0  0
 20 37  1  0  0  0  0
 21 45  1  0  0  0  0
 22 38  1  0  0  0  0
 23 81  1  0  0  0  0
 24 82  1  0  0  0  0
 25 27  2  0  0  0  0
 25 81  1  0  0  0  0
 26 83  1  0  0  0  0
 27 84  1  0  0  0  0
 28 65  2  0  0  0  0
 29 67  1  0  0  0  0
 29 70  1  0  0  0  0
 30 59  1  0  0  0  0
 30 64  2  0  0  0  0
 30 66  1  0  0  0  0
 31 71  1  0  0  0  0
 31 76  2  0  0  0  0
 32 46  1  0  0  0  0
 32 72  1  0  0  0  0
 32 77  2  0  0  0  0
 33 60  1  0  0  0  0
 33 68  1  0  0  0  0
 33 78  2  0  0  0  0
 34 61  1  0  0  0  0
 34 73  1  0  0  0  0
 34 79  2  0  0  0  0
 35 69  1  0  0  0  0
 35 74  1  0  0  0  0
 35 80  2  0  0  0  0
 36 39  1  0  0  0  0
 37 46  1  0  0  0  0
 38 68  1  0  0  0  0
 39 41  1  0  0  0  0
 40 42  1  0  0  0  0
 40 43  1  0  0  0  0
 41 45  1  0  0  0  0
 42 47  1  0  0  0  0
 43 69  1  0  0  0  0
 44 47  1  0  0  0  0
 44 69  1  0  0  0  0
 45 72  1  0  0  0  0
 46 68  1  0  0  0  0
 47 67  1  0  0  0  0
 48 55  1  0  0  0  0
 49 61  1  0  0  0  0
 50 62  1  0  0  0  0
 51 63  1  0  0  0  0
 52 63  1  0  0  0  0
 53 63  1  0  0  0  0
 54 75  1  0  0  0  0
 55 59  1  0  0  0  0
 56 57  1  0  0  0  0
 56 58  1  0  0  0  0
 57 62  1  0  0  0  0
 58 66  1  0  0  0  0
 59 74  1  0  0  0  0
 60 63  1  0  0  0  0
 60 73  1  0  0  0  0
 61 75  1  0  0  0  0
 62 82  1  0  0  0  0
 65 67  1  0  0  0  0
M  CHG  1  75   1
M  ISO  4  35 100  62 101  74 100  82 101
M  END
> <Batch ID>
0073

> <Smiles>
CCC([100NH:0][100C:0](=O)N1CCCC(n2nc(-c3ccc(Oc4ccc(F)cc4F)cc3)c(C(N)=O)c2N)C1)c1nccn1CCC[101CH:1](C)[101O:1]c1ccc2c(c1)CN(C(=O)C(NC(=O)C(C)NC)C(C)(C)C)C(C(=O)NC1CCCc3ccccc31)C2

> <Shape>
0.222

> <Color>
0.073

> <Negative vol penalty>
0.000

$$$$

  -OEChem-04052318273D

 80 88  0     1  0  0  0  0  0999 V2000
  -29.6447  -20.4926   28.9511 C   0  0  0  0  0  0  0  0  0  0  0  0
  -30.0035  -21.2959   27.8735 C   0  0  0  0  0  0  0  0  0  0  0  0
  -26.4244  -12.7612   21.5813 C   0  0  0  0  0  0  0  0  0  0  0  0
  -26.2733  -13.4435   19.2685 C   0  0  0  0  0  0  0  0  0  0  0  0
  -28.4010  -19.8626   28.9658 C   0  0  0  0  0  0  0  0  0  0  0  0
  -29.1191  -21.4689   26.8093 C   0  0  0  0  0  0  0  0  0  0  0  0
  -28.3560  -26.5268   23.4416 C   0  0  0  0  0  0  0  0  0  0  0  0
  -25.1479  -12.2048   21.5005 C   0  0  0  0  0  0  0  0  0  0  0  0
  -24.9968  -12.8871   19.1878 C   0  0  0  0  0  0  0  0  0  0  0  0
  -28.8486  -26.9059   22.1937 C   0  0  0  0  0  0  0  0  0  0  0  0
  -23.7331   -9.3816   20.2920 C   0  0  0  0  0  0  0  0  0  0  0  0
  -23.5428   -8.1136   20.8411 C   0  0  0  0  0  0  0  0  0  0  0  0
  -26.8115  -26.1300   21.1606 C   0  0  0  0  0  0  0  0  0  0  0  0
  -21.8841   -9.0154   22.3487 C   0  0  0  0  0  0  0  0  0  0  0  0
  -29.8448  -23.5430   19.4955 C   0  0  0  0  0  0  0  0  0  0  0  0
  -26.9871  -13.3807   20.4653 C   0  0  0  0  0  0  0  0  0  0  0  0
  -29.5305  -13.3168   20.2793 C   0  0  0  0  0  0  0  0  0  0  0  0
  -27.4970  -20.0357   27.9058 C   0  0  0  0  0  0  0  0  0  0  0  0
  -27.0898  -25.9354   23.5574 C   0  0  0  0  0  0  0  0  0  0  0  0
  -27.8627  -20.8396   26.8093 C   0  0  0  0  0  0  0  0  0  0  0  0
  -26.3041  -25.7466   22.4115 C   0  0  0  0  0  0  0  0  0  0  0  0
  -24.4341  -12.2677   20.3038 C   0  0  0  0  0  0  0  0  0  0  0  0
  -28.0775  -26.7049   21.0526 C   0  0  0  0  0  0  0  0  0  0  0  0
  -22.9990  -10.4665   20.7713 C   0  0  0  0  0  0  0  0  0  0  0  0
  -22.6183   -7.9304   21.8694 C   0  0  0  0  0  0  0  0  0  0  0  0
  -22.0745  -10.2834   21.7996 C   0  0  0  0  0  0  0  0  0  0  0  0
  -28.3055  -13.9561   20.5482 C   0  0  0  0  0  0  0  0  0  0  0  0
  -30.2365  -24.2107   18.3696 C   0  0  0  0  0  0  0  0  0  0  0  0
  -30.4791  -14.2848   20.5020 C   0  0  0  0  0  0  0  0  0  0  0  0
  -31.6274  -22.5163   18.6778 C   0  0  0  0  0  0  0  0  0  0  0  0
  -29.7880  -11.9685   19.8652 C   0  0  0  0  0  0  0  0  0  0  0  0
  -26.0125  -23.1206   24.5672 C   0  0  0  0  0  0  0  0  0  0  0  0
  -30.1270  -20.2088   20.2614 C   0  0  0  0  0  0  0  0  0  0  0  0
  -23.1145  -24.5079   24.1205 C   0  0  0  0  0  0  0  0  0  0  0  0
  -21.2571  -26.8915   22.5346 C   0  0  0  0  0  0  0  0  0  0  0  0
  -26.1830  -19.2965   27.9443 C   0  0  0  0  0  0  0  0  0  0  0  0
  -26.5619  -25.5566   24.9139 C   0  0  0  0  0  0  0  0  0  0  0  0
  -24.9299  -25.1344   22.4842 C   0  0  0  0  0  0  0  0  0  0  0  0
  -25.1537  -19.8319   26.9523 C   0  0  0  0  0  0  0  0  0  0  0  0
  -31.2862  -18.2249   23.0805 C   0  0  0  0  0  0  0  0  0  0  0  0
  -25.7902  -20.0377   25.5814 C   0  0  0  0  0  0  0  0  0  0  0  0
  -30.7329  -16.8441   22.7305 C   0  0  0  0  0  0  0  0  0  0  0  0
  -30.3384  -19.3374   22.6400 C   0  0  0  0  0  0  0  0  0  0  0  0
  -29.4286  -17.9063   20.8376 C   0  0  0  0  0  0  0  0  0  0  0  0
  -26.9208  -21.0716   25.6477 C   0  0  1  0  0  0  0  0  0  0  0  0
  -25.4705  -24.4922   24.8544 C   0  0  1  0  0  0  0  0  0  0  0  0
  -30.3691  -16.7574   21.2380 C   0  0  2  0  0  0  0  0  0  0  0  0
  -32.7510  -21.5665   18.4826 C   0  0  0  0  0  0  0  0  0  0  0  0
  -18.9089  -27.7561   22.3453 C   0  0  0  0  0  0  0  0  0  0  0  0
  -22.3753  -22.1122   22.3814 C   0  0  0  0  0  0  0  0  0  0  0  0
  -20.4598  -23.4475   21.4780 C   0  0  0  0  0  0  0  0  0  0  0  0
  -20.5555  -22.8939   23.9085 C   0  0  0  0  0  0  0  0  0  0  0  0
  -22.0384  -29.5669   23.5299 C   0  0  0  0  0  0  0  0  0  0  0  0
  -29.6691  -25.4287   17.6856 C   0  0  0  0  0  0  0  0  0  0  0  0
  -30.6717  -21.5311   20.7398 C   0  0  0  0  0  0  0  0  0  0  0  0
  -30.2657  -26.7477   18.1816 C   0  0  0  0  0  0  0  0  0  0  0  0
  -29.9707  -27.0293   19.6503 C   0  0  0  0  0  0  0  0  0  1  0  0
  -22.1479  -24.6167   22.9660 C   0  0  1  0  0  0  0  0  0  0  0  0
  -20.2447  -27.8937   23.0591 C   0  0  2  0  0  0  0  0  0  0  0  0
  -21.4113  -23.2773   22.6816 C   0  0  0  0  0  0  0  0  0  0  0  0
  -28.4588  -15.2316   20.9139 N   0  0  0  0  0  0  0  0  0  0  0  0
  -30.7227  -22.4991   19.6621 N   0  0  0  0  0  0  0  0  0  0  0  0
  -29.7914  -15.4015   20.8765 N   0  0  0  0  0  0  0  0  0  0  0  0
  -31.3417  -23.5539   17.8846 N   0  3  0  0  0  0  0  0  0  0  0  0
  -24.4605  -24.7748   23.8325 N   0  0  0  0  0  0  0  0  0  0  0  0
  -29.9944  -19.2034   21.2194 N   0  0  0  0  0  0  0  0  0  0  0  0
  -31.8261  -14.2812   20.4122 N   0  0  0  0  0  0  0  0  0  0  0  0
  -28.6985  -11.1060   19.6827 N   0  0  0  0  0  0  0  0  0  0  0  0
  -26.3775  -22.4121   25.6960 N   0  0  0  0  0  0  0  0  0  0  0  0
  -21.2608  -25.7315   23.2801 N   0  0  0  0  0  0  0  0  0  0  0  0
  -20.7422  -29.2845   22.8612 N   0  3  0  0  0  0  0  0  0  0  0  0
  -30.9509  -11.5366   19.6788 O   0  0  0  0  0  0  0  0  0  0  0  0
  -26.0922  -22.7331   23.4074 O   0  0  0  0  0  0  0  0  0  0  0  0
  -29.8316  -20.0747   19.0711 O   0  0  0  0  0  0  0  0  0  0  0  0
  -22.6899  -24.2043   25.2381 O   0  0  0  0  0  0  0  0  0  0  0  0
  -21.9705  -27.1139   21.5588 O   0  0  0  0  0  0  0  0  0  0  0  0
  -23.1886  -11.7247   20.2246 O   0  0  0  0  0  0  0  0  0  0  0  0
  -28.5562  -27.0734   19.8332 O   0  0  0  0  0  0  0  0  0  1  0  0
  -22.4345   -6.7124   22.3956 F   0  0  0  0  0  0  0  0  0  0  0  0
  -21.3655  -11.3217   22.2634 F   0  0  0  0  0  0  0  0  0  0  0  0
  1  2  1  0  0  0  0
  1  5  2  0  0  0  0
  2  6  2  0  0  0  0
  3  8  2  0  0  0  0
  3 16  1  0  0  0  0
  4  9  1  0  0  0  0
  4 16  2  0  0  0  0
  5 18  1  0  0  0  0
  6 20  1  0  0  0  0
  7 10  2  0  0  0  0
  7 19  1  0  0  0  0
  8 22  1  0  0  0  0
  9 22  2  0  0  0  0
 10 23  1  0  0  0  0
 11 12  2  0  0  0  0
 11 24  1  0  0  0  0
 12 25  1  0  0  0  0
 13 21  1  0  0  0  0
 13 23  2  0  0  0  0
 14 25  2  0  0  0  0
 14 26  1  0  0  0  0
 15 28  2  0  0  0  0
 15 62  1  0  0  0  0
 16 27  1  0  0  0  0
 17 27  1  0  0  0  0
 17 29  2  0  0  0  0
 17 31  1  0  0  0  0
 18 20  2  0  0  0  0
 18 36  1  0  0  0  0
 19 21  2  0  0  0  0
 19 37  1  0  0  0  0
 20 45  1  0  0  0  0
 21 38  1  0  0  0  0
 22 77  1  0  0  0  0
 23 78  1  0  0  0  0
 24 26  2  0  0  0  0
 24 77  1  0  0  0  0
 25 79  1  0  0  0  0
 26 80  1  0  0  0  0
 27 61  2  0  0  0  0
 28 54  1  0  0  0  0
 28 64  1  0  0  0  0
 29 63  1  0  0  0  0
 29 67  1  0  0  0  0
 30 48  1  0  0  0  0
 30 62  1  0  0  0  0
 30 64  2  0  0  0  0
 31 68  1  0  0  0  0
 31 72  2  0  0  0  0
 32 46  1  0  0  0  0
 32 69  1  0  0  0  0
 32 73  2  0  0  0  0
 33 55  1  0  0  0  0
 33 66  1  0  0  0  0
 33 74  2  0  0  0  0
 34 58  1  0  0  0  0
 34 65  1  0  0  0  0
 34 75  2  0  0  0  0
 35 59  1  0  0  0  0
 35 70  1  0  0  0  0
 35 76  2  0  0  0  0
 36 39  1  0  0  0  0
 37 46  1  0  0  0  0
 38 65  1  0  0  0  0
 39 41  1  0  0  0  0
 40 42  1  0  0  0  0
 40 43  1  0  0  0  0
 41 45  1  0  0  0  0
 42 47  1  0  0  0  0
 43 66  1  0  0  0  0
 44 47  1  0  0  0  0
 44 66  1  0  0  0  0
 45 69  1  0  0  0  0
 46 65  1  0  0  0  0
 47 63  1  0  0  0  0
 49 59  1  0  0  0  0
 50 60  1  0  0  0  0
 51 60  1  0  0  0  0
 52 60  1  0  0  0  0
 53 71  1  0  0  0  0
 54 56  1  0  0  0  0
 55 62  1  0  0  0  0
 56 57  1  0  0  0  0
 57 78  1  0  0  0  0
 58 60  1  0  0  0  0
 58 70  1  0  0  0  0
 59 71  1  0  0  0  0
 61 63  1  0  0  0  0
M  CHG  2  64   1  71   1
M  ISO  4  33 100  55 100  57 101  78 101
M  END
> <Batch ID>
0073

> <Smiles>
CNC(C)C(=O)NC(C(=O)N1Cc2cc([101O:1][101CH2:1]CCc3cn([100CH2:0][100C:0](=O)N4CCCC(n5nc(-c6ccc(Oc7ccc(F)cc7F)cc6)c(C(N)=O)c5N)C4)c(C)n3)ccc2CC1C(=O)NC1CCCc2ccccc21)C(C)(C)C

> <Shape>
0.242

> <Color>
0.079

> <Negative vol penalty>
0.000

$$$$

  -OEChem-04052318273D

 90 98  0     1  0  0  0  0  0999 V2000
  -27.4905  -34.3896   24.8306 C   0  0  0  0  0  0  0  0  0  0  0  0
  -27.7726  -33.1155   24.3486 C   0  0  0  0  0  0  0  0  0  0  0  0
  -23.2734  -10.0914   21.4967 C   0  0  0  0  0  0  0  0  0  0  0  0
  -23.0144  -12.3462   22.3250 C   0  0  0  0  0  0  0  0  0  0  0  0
  -26.2050  -34.6968   25.2747 C   0  0  0  0  0  0  0  0  0  0  0  0
  -26.7697  -32.1474   24.3112 C   0  0  0  0  0  0  0  0  0  0  0  0
  -26.7071  -29.5822   19.9454 C   0  0  0  0  0  0  0  0  0  0  0  0
  -22.3875   -9.6317   22.4711 C   0  0  0  0  0  0  0  0  0  0  0  0
  -22.1285  -11.8865   23.2994 C   0  0  0  0  0  0  0  0  0  0  0  0
  -27.6665  -28.5842   19.7795 C   0  0  0  0  0  0  0  0  0  0  0  0
  -19.0423   -9.5492   22.9566 C   0  0  0  0  0  0  0  0  0  0  0  0
  -18.0549   -8.6469   22.5611 C   0  0  0  0  0  0  0  0  0  0  0  0
  -26.0221  -26.9160   20.3559 C   0  0  0  0  0  0  0  0  0  0  0  0
  -18.9249   -7.0138   24.1147 C   0  0  0  0  0  0  0  0  0  0  0  0
  -23.5869  -11.4487   21.4237 C   0  0  0  0  0  0  0  0  0  0  0  0
  -24.1845  -12.3648   19.1191 C   0  0  0  0  0  0  0  0  0  0  0  0
  -25.1834  -33.7350   25.2338 C   0  0  0  0  0  0  0  0  0  0  0  0
  -25.3986  -29.2549   20.3291 C   0  0  0  0  0  0  0  0  0  0  0  0
  -25.4697  -32.4417   24.7564 C   0  0  0  0  0  0  0  0  0  0  0  0
  -25.0473  -27.9114   20.5236 C   0  0  0  0  0  0  0  0  0  0  0  0
  -21.8150  -10.5292   23.3724 C   0  0  0  0  0  0  0  0  0  0  0  0
  -27.3248  -27.2512   19.9876 C   0  0  0  0  0  0  0  0  0  0  0  0
  -19.9711   -9.1838   23.9311 C   0  0  0  0  0  0  0  0  0  0  0  0
  -17.9962   -7.3792   23.1402 C   0  0  0  0  0  0  0  0  0  0  0  0
  -19.9124   -7.9162   24.5101 C   0  0  0  0  0  0  0  0  0  0  0  0
  -24.5024  -11.9241   20.4177 C   0  0  0  0  0  0  0  0  0  0  0  0
  -26.6352  -18.2019   17.7058 C   0  0  0  0  0  0  0  0  0  0  0  0
  -27.9639  -18.5638   17.7389 C   0  0  0  0  0  0  0  0  0  0  0  0
  -26.0587  -20.2392   18.5698 C   0  0  0  0  0  0  0  0  0  0  0  0
  -27.3874  -20.6009   18.6036 C   0  0  0  0  0  0  0  0  0  0  0  0
  -25.3945  -12.7075   18.5670 C   0  0  0  0  0  0  0  0  0  0  0  0
  -22.9094  -12.4563   18.4699 C   0  0  0  0  0  0  0  0  0  0  0  0
  -23.5583  -29.9338   22.8303 C   0  0  0  0  0  0  0  0  0  0  0  0
  -21.2956  -28.3926   21.0903 C   0  0  0  0  0  0  0  0  0  0  0  0
  -20.5659  -26.1257   18.6459 C   0  0  0  0  0  0  0  0  0  0  0  0
  -30.4690  -15.0735   20.0387 C   0  0  0  0  0  0  0  0  0  0  0  0
  -23.8212  -34.0996   25.7687 C   0  0  0  0  0  0  0  0  0  0  0  0
  -24.3685  -30.3408   20.4779 C   0  0  0  0  0  0  0  0  0  0  0  0
  -23.6511  -27.5057   20.9166 C   0  0  0  0  0  0  0  0  0  0  0  0
  -22.7212  -33.1290   25.3465 C   0  0  0  0  0  0  0  0  0  0  0  0
  -30.1091  -11.5687   19.5252 C   0  0  0  0  0  0  0  0  0  0  0  0
  -23.1772  -31.6868   25.5439 C   0  0  0  0  0  0  0  0  0  0  0  0
  -28.5971  -11.3441   19.5823 C   0  0  0  0  0  0  0  0  0  0  0  0
  -30.5576  -12.6437   20.5128 C   0  0  0  0  0  0  0  0  0  0  0  0
  -28.3345  -13.7056   20.4500 C   0  0  0  0  0  0  0  0  0  0  0  0
  -24.4022  -31.3719   24.6770 C   0  0  1  0  0  0  0  0  0  0  0  0
  -23.1996  -29.9371   21.3712 C   0  0  1  0  0  0  0  0  0  0  0  0
  -27.8271  -12.6699   19.4321 C   0  0  2  0  0  0  0  0  0  0  0  0
  -26.2056  -16.8651   17.2061 C   0  0  0  0  0  0  0  0  0  0  0  0
  -23.6441  -20.4657   19.2060 C   0  0  0  0  0  0  0  0  0  0  0  0
  -28.6107  -21.8299   20.4357 C   0  0  0  0  0  0  0  0  0  0  0  0
  -18.6260  -25.0497   17.4726 C   0  0  0  0  0  0  0  0  0  0  0  0
  -20.8088  -26.6201   23.5257 C   0  0  0  0  0  0  0  0  0  0  0  0
  -19.6011  -25.0162   22.0300 C   0  0  0  0  0  0  0  0  0  0  0  0
  -18.7349  -27.3367   22.3258 C   0  0  0  0  0  0  0  0  0  0  0  0
  -27.6283  -23.0708   16.8054 C   0  0  0  0  0  0  0  0  0  0  0  0
  -29.8692  -22.2651   17.5386 C   0  0  0  0  0  0  0  0  0  0  0  0
  -21.4026  -27.2090   16.0219 C   0  0  0  0  0  0  0  0  0  0  0  0
  -24.9884  -21.1682   19.0315 C   0  0  0  0  0  0  0  0  0  0  0  0
  -29.0340  -17.6352   17.2760 C   0  0  0  0  0  0  0  0  0  0  0  0
  -30.3565  -17.7420   18.0614 C   0  0  0  0  0  0  0  0  0  0  0  0
  -28.8962  -24.2910   18.6124 C   0  0  0  0  0  0  0  0  0  0  0  0
  -30.2173  -17.4960   19.5622 C   0  0  0  0  0  0  0  0  0  0  0  0
  -27.7946  -24.9942   19.4034 C   0  0  0  0  0  0  0  0  0  1  0  0
  -27.8278  -21.9723   19.1166 C   0  0  1  0  0  0  0  0  0  0  0  0
  -20.8333  -26.9609   20.9666 C   0  0  1  0  0  0  0  0  0  0  0  0
  -19.6263  -26.1952   17.4557 C   0  0  2  0  0  0  0  0  0  0  0  0
  -20.0214  -26.4909   22.2065 C   0  0  0  0  0  0  0  0  0  0  0  0
  -28.5423  -22.8819   18.0397 C   0  0  0  0  0  0  0  0  0  0  0  0
  -25.8118  -11.9804   20.6753 N   0  0  0  0  0  0  0  0  0  0  0  0
  -25.6587  -19.0331   18.1206 N   0  0  0  0  0  0  0  0  0  0  0  0
  -28.3639  -19.7698   18.1884 N   0  0  0  0  0  0  0  0  0  0  0  0
  -26.3274  -12.4605   19.5308 N   0  0  0  0  0  0  0  0  0  0  0  0
  -22.6812  -28.6045   21.0559 N   0  0  0  0  0  0  0  0  0  0  0  0
  -29.7899  -13.8757   20.3164 N   0  0  0  0  0  0  0  0  0  0  0  0
  -25.7410  -13.1930   17.3559 N   0  0  0  0  0  0  0  0  0  0  0  0
  -21.7677  -12.0631   19.1814 N   0  0  0  0  0  0  0  0  0  0  0  0
  -24.0058  -31.1529   23.3025 N   0  0  0  0  0  0  0  0  0  0  0  0
  -20.1029  -26.8752   19.7066 N   0  0  0  0  0  0  0  0  0  0  0  0
  -29.6657  -16.1931   19.8601 N   0  0  0  0  0  0  0  0  0  0  0  0
  -20.3974  -26.1269   16.1823 N   0  3  0  0  0  0  0  0  0  0  0  0
  -22.7879  -12.8590   17.2881 O   0  0  0  0  0  0  0  0  0  0  0  0
  -23.4365  -28.9019   23.4800 O   0  0  0  0  0  0  0  0  0  0  0  0
  -20.4579  -29.2907   21.2059 O   0  0  0  0  0  0  0  0  0  0  0  0
  -21.6047  -25.4689   18.6371 O   0  0  0  0  0  0  0  0  0  0  0  0
  -31.6999  -15.1391   19.9508 O   0  0  0  0  0  0  0  0  0  0  0  0
  -20.9504  -10.0810   24.3232 O   0  0  0  0  0  0  0  0  0  0  0  0
  -28.2594  -26.2752   19.8269 O   0  0  0  0  0  0  0  0  0  1  0  0
  -17.0469   -6.5134   22.7614 F   0  0  0  0  0  0  0  0  0  0  0  0
  -20.8012   -7.5599   25.4477 F   0  0  0  0  0  0  0  0  0  0  0  0
  1  2  1  0  0  0  0
  1  5  2  0  0  0  0
  2  6  2  0  0  0  0
  3  8  2  0  0  0  0
  3 15  1  0  0  0  0
  4  9  1  0  0  0  0
  4 15  2  0  0  0  0
  5 17  1  0  0  0  0
  6 19  1  0  0  0  0
  7 10  2  0  0  0  0
  7 18  1  0  0  0  0
  8 21  1  0  0  0  0
  9 21  2  0  0  0  0
 10 22  1  0  0  0  0
 11 12  2  0  0  0  0
 11 23  1  0  0  0  0
 12 24  1  0  0  0  0
 13 20  1  0  0  0  0
 13 22  2  0  0  0  0
 14 24  2  0  0  0  0
 14 25  1  0  0  0  0
 15 26  1  0  0  0  0
 16 26  1  0  0  0  0
 16 31  2  0  0  0  0
 16 32  1  0  0  0  0
 17 19  2  0  0  0  0
 17 37  1  0  0  0  0
 18 20  2  0  0  0  0
 18 38  1  0  0  0  0
 19 46  1  0  0  0  0
 20 39  1  0  0  0  0
 21 87  1  0  0  0  0
 22 88  1  0  0  0  0
 23 25  2  0  0  0  0
 23 87  1  0  0  0  0
 24 89  1  0  0  0  0
 25 90  1  0  0  0  0
 26 70  2  0  0  0  0
 27 28  1  0  0  0  0
 27 49  1  0  0  0  0
 27 71  2  0  0  0  0
 28 60  1  0  0  0  0
 28 72  2  0  0  0  0
 29 30  2  0  0  0  0
 29 59  1  0  0  0  0
 29 71  1  0  0  0  0
 30 65  1  0  0  0  0
 30 72  1  0  0  0  0
 31 73  1  0  0  0  0
 31 76  1  0  0  0  0
 32 77  1  0  0  0  0
 32 82  2  0  0  0  0
 33 47  1  0  0  0  0
 33 78  1  0  0  0  0
 33 83  2  0  0  0  0
 34 66  1  0  0  0  0
 34 74  1  0  0  0  0
 34 84  2  0  0  0  0
 35 67  1  0  0  0  0
 35 79  1  0  0  0  0
 35 85  2  0  0  0  0
 36 75  1  0  0  0  0
 36 80  1  0  0  0  0
 36 86  2  0  0  0  0
 37 40  1  0  0  0  0
 38 47  1  0  0  0  0
 39 74  1  0  0  0  0
 40 42  1  0  0  0  0
 41 43  1  0  0  0  0
 41 44  1  0  0  0  0
 42 46  1  0  0  0  0
 43 48  1  0  0  0  0
 44 75  1  0  0  0  0
 45 48  1  0  0  0  0
 45 75  1  0  0  0  0
 46 78  1  0  0  0  0
 47 74  1  0  0  0  0
 48 73  1  0  0  0  0
 50 59  1  0  0  0  0
 51 65  1  0  0  0  0
 52 67  1  0  0  0  0
 53 68  1  0  0  0  0
 54 68  1  0  0  0  0
 55 68  1  0  0  0  0
 56 69  1  0  0  0  0
 57 69  1  0  0  0  0
 58 81  1  0  0  0  0
 60 61  1  0  0  0  0
 61 63  1  0  0  0  0
 62 64  1  0  0  0  0
 62 69  1  0  0  0  0
 63 80  1  0  0  0  0
 64 88  1  0  0  0  0
 65 69  1  0  0  0  0
 66 68  1  0  0  0  0
 66 79  1  0  0  0  0
 67 81  1  0  0  0  0
 70 73  1  0  0  0  0
M  CHG  1  81   1
M  ISO  4  36 100  64 101  80 100  88 101
M  END
> <Batch ID>
0073

> <Smiles>
CCc1nc(C)c(CCC[100NH:0][100C:0](=O)N2CCCC(n3nc(-c4ccc(Oc5ccc(F)cc5F)cc4)c(C(N)=O)c3N)C2)nc1C(C)C(C)(C)C[101CH2:1][101O:1]c1ccc2c(c1)CN(C(=O)C(NC(=O)C(C)NC)C(C)(C)C)C(C(=O)NC1CCCc3ccccc31)C2

> <Shape>
0.289

> <Color>
0.106

> <Negative vol penalty>
0.000

$$$$

  -OEChem-04052318273D

 89 97  0     1  0  0  0  0  0999 V2000
  -26.4945  -21.1064   14.9286 C   0  0  0  0  0  0  0  0  0  0  0  0
  -27.2403  -20.6350   16.0042 C   0  0  0  0  0  0  0  0  0  0  0  0
  -23.5126   -9.7203   19.9169 C   0  0  0  0  0  0  0  0  0  0  0  0
  -24.1171   -9.8796   22.2506 C   0  0  0  0  0  0  0  0  0  0  0  0
  -26.7382  -22.3807   14.4179 C   0  0  0  0  0  0  0  0  0  0  0  0
  -28.2311  -21.4372   16.5691 C   0  0  0  0  0  0  0  0  0  0  0  0
  -29.8290  -21.7040   22.4752 C   0  0  0  0  0  0  0  0  0  0  0  0
  -22.9499   -8.4651   20.1482 C   0  0  0  0  0  0  0  0  0  0  0  0
  -23.5544   -8.6244   22.4820 C   0  0  0  0  0  0  0  0  0  0  0  0
  -30.8660  -21.1110   23.1940 C   0  0  0  0  0  0  0  0  0  0  0  0
  -20.4656   -7.3218   22.9096 C   0  0  0  0  0  0  0  0  0  0  0  0
  -19.6535   -7.1746   24.0340 C   0  0  0  0  0  0  0  0  0  0  0  0
  -32.1834  -23.1152   22.9349 C   0  0  0  0  0  0  0  0  0  0  0  0
  -21.1422   -5.4735   24.8867 C   0  0  0  0  0  0  0  0  0  0  0  0
  -32.0613  -18.1590   20.5081 C   0  0  0  0  0  0  0  0  0  0  0  0
  -24.0962  -10.4275   20.9680 C   0  0  0  0  0  0  0  0  0  0  0  0
  -24.0339  -12.9730   20.8113 C   0  0  0  0  0  0  0  0  0  0  0  0
  -27.7260  -23.2027   14.9830 C   0  0  0  0  0  0  0  0  0  0  0  0
  -29.9658  -23.0051   21.9706 C   0  0  0  0  0  0  0  0  0  0  0  0
  -28.4892  -22.7232   16.0647 C   0  0  0  0  0  0  0  0  0  0  0  0
  -31.1456  -23.7233   22.2122 C   0  0  0  0  0  0  0  0  0  0  0  0
  -22.9708   -7.9172   21.4308 C   0  0  0  0  0  0  0  0  0  0  0  0
  -32.0446  -21.8156   23.4215 C   0  0  0  0  0  0  0  0  0  0  0  0
  -21.6160   -6.5447   22.7736 C   0  0  0  0  0  0  0  0  0  0  0  0
  -19.9918   -6.2506   25.0226 C   0  0  0  0  0  0  0  0  0  0  0  0
  -21.9543   -5.6206   23.7621 C   0  0  0  0  0  0  0  0  0  0  0  0
  -24.6781  -11.7239   20.7295 C   0  0  0  0  0  0  0  0  0  0  0  0
  -30.8188  -17.6881   20.8807 C   0  0  0  0  0  0  0  0  0  0  0  0
  -33.1245  -17.6935   21.2545 C   0  0  0  0  0  0  0  0  0  0  0  0
  -25.0117  -13.8848   20.4967 C   0  0  0  0  0  0  0  0  0  0  0  0
  -31.7339  -16.4485   22.5519 C   0  0  0  0  0  0  0  0  0  0  0  0
  -22.6734  -13.2814   21.1422 C   0  0  0  0  0  0  0  0  0  0  0  0
  -29.9615  -24.2967   19.0662 C   0  0  0  0  0  0  0  0  0  0  0  0
  -30.0687  -27.0801   20.7287 C   0  0  0  0  0  0  0  0  0  0  0  0
  -30.8875  -28.6982   23.6197 C   0  0  0  0  0  0  0  0  0  0  0  0
  -30.9859  -13.7506   20.8738 C   0  0  0  0  0  0  0  0  0  0  0  0
  -27.9855  -24.5544   14.3666 C   0  0  0  0  0  0  0  0  0  0  0  0
  -28.8275  -23.6404   21.2201 C   0  0  0  0  0  0  0  0  0  0  0  0
  -31.3346  -25.1304   21.7093 C   0  0  0  0  0  0  0  0  0  0  0  0
  -28.7983  -25.4862   15.2617 C   0  0  0  0  0  0  0  0  0  0  0  0
  -29.0378  -14.3293   17.9503 C   0  0  0  0  0  0  0  0  0  0  0  0
  -30.0008  -24.7512   15.8453 C   0  0  0  0  0  0  0  0  0  0  0  0
  -27.6414  -13.8399   18.3385 C   0  0  0  0  0  0  0  0  0  0  0  0
  -30.1319  -13.4603   18.5666 C   0  0  0  0  0  0  0  0  0  0  0  0
  -28.6428  -12.8030   20.4171 C   0  0  0  0  0  0  0  0  0  0  0  0
  -29.5558  -23.5732   16.7204 C   0  0  1  0  0  0  0  0  0  0  0  0
  -29.2740  -24.7814   20.3112 C   0  0  1  0  0  0  0  0  0  0  0  0
  -27.5070  -13.6813   19.8649 C   0  0  2  0  0  0  0  0  0  0  0  0
  -29.6082  -18.1351   20.1317 C   0  0  0  0  0  0  0  0  0  0  0  0
  -30.8943  -30.9789   24.6666 C   0  0  0  0  0  0  0  0  0  0  0  0
  -30.1863  -15.6051   24.4466 C   0  0  0  0  0  0  0  0  0  0  0  0
  -32.6410  -15.7392   24.7816 C   0  0  0  0  0  0  0  0  0  0  0  0
  -32.5155  -27.8324   19.0682 C   0  0  0  0  0  0  0  0  0  0  0  0
  -33.0275  -29.6097   20.7556 C   0  0  0  0  0  0  0  0  0  0  0  0
  -30.9014  -29.7032   19.4543 C   0  0  0  0  0  0  0  0  0  0  0  0
  -36.8001  -20.9838   23.6518 C   0  0  0  0  0  0  0  0  0  0  0  0
  -35.3836  -20.0925   25.5054 C   0  0  0  0  0  0  0  0  0  0  0  0
  -29.0527  -27.8403   25.7775 C   0  0  0  0  0  0  0  0  0  0  0  0
  -34.5226  -18.1506   20.9214 C   0  0  0  0  0  0  0  0  0  0  0  0
  -34.9551  -19.4212   21.6667 C   0  0  0  0  0  0  0  0  0  0  0  0
  -35.0122  -19.2260   23.1894 C   0  0  0  0  0  0  0  0  0  0  0  0
  -31.6944  -13.9954   23.2396 C   0  0  0  0  0  0  0  0  0  0  0  0
  -34.3869  -21.6463   23.7966 C   0  0  0  0  0  0  0  0  0  1  0  0
  -31.1692  -27.9618   21.2675 C   0  0  1  0  0  0  0  0  0  0  0  0
  -30.1151  -29.6872   24.4740 C   0  0  2  0  0  0  0  0  0  0  0  0
  -31.5532  -15.4956   23.6847 C   0  0  0  0  0  0  0  0  0  0  0  0
  -31.9009  -28.7496   20.1444 C   0  0  0  0  0  0  0  0  0  0  0  0
  -35.3878  -20.4907   24.0134 C   0  0  0  0  0  0  0  0  0  0  0  0
  -25.9655  -11.8290   20.3894 N   0  0  0  0  0  0  0  0  0  0  0  0
  -30.6179  -16.8289   21.9013 N   0  0  0  0  0  0  0  0  0  0  0  0
  -32.9966  -16.8346   22.2871 N   0  0  0  0  0  0  0  0  0  0  0  0
  -26.1381  -13.1549   20.2546 N   0  0  0  0  0  0  0  0  0  0  0  0
  -30.1953  -25.7057   20.9754 N   0  0  0  0  0  0  0  0  0  0  0  0
  -29.9477  -13.3516   20.0158 N   0  0  0  0  0  0  0  0  0  0  0  0
  -25.0092  -15.2317   20.4062 N   0  0  0  0  0  0  0  0  0  0  0  0
  -21.8020  -12.2246   21.4393 N   0  0  0  0  0  0  0  0  0  0  0  0
  -29.1044  -24.0451   18.0119 N   0  0  0  0  0  0  0  0  0  0  0  0
  -30.5541  -28.8060   22.2861 N   0  0  0  0  0  0  0  0  0  0  0  0
  -30.7267  -13.6208   22.2327 N   0  0  0  0  0  0  0  0  0  0  0  0
  -29.8339  -29.1033   25.8160 N   0  3  0  0  0  0  0  0  0  0  0  0
  -22.2390  -14.4581   21.1575 O   0  0  0  0  0  0  0  0  0  0  0  0
  -31.1795  -24.1624   19.0619 O   0  0  0  0  0  0  0  0  0  0  0  0
  -29.1276  -27.5927   20.1178 O   0  0  0  0  0  0  0  0  0  0  0  0
  -31.7075  -27.9116   24.0880 O   0  0  0  0  0  0  0  0  0  0  0  0
  -32.0619  -14.1951   20.4595 O   0  0  0  0  0  0  0  0  0  0  0  0
  -22.4216   -6.6925   21.6570 O   0  0  0  0  0  0  0  0  0  0  0  0
  -33.0586  -21.2389   24.1223 O   0  0  0  0  0  0  0  0  0  1  0  0
  -19.2126   -6.1105   26.1031 F   0  0  0  0  0  0  0  0  0  0  0  0
  -23.0589   -4.8722   23.6376 F   0  0  0  0  0  0  0  0  0  0  0  0
  1  2  1  0  0  0  0
  1  5  2  0  0  0  0
  2  6  2  0  0  0  0
  3  8  2  0  0  0  0
  3 16  1  0  0  0  0
  4  9  1  0  0  0  0
  4 16  2  0  0  0  0
  5 18  1  0  0  0  0
  6 20  1  0  0  0  0
  7 10  2  0  0  0  0
  7 19  1  0  0  0  0
  8 22  1  0  0  0  0
  9 22  2  0  0  0  0
 10 23  1  0  0  0  0
 11 12  2  0  0  0  0
 11 24  1  0  0  0  0
 12 25  1  0  0  0  0
 13 21  1  0  0  0  0
 13 23  2  0  0  0  0
 14 25  2  0  0  0  0
 14 26  1  0  0  0  0
 15 28  2  0  0  0  0
 15 29  1  0  0  0  0
 16 27  1  0  0  0  0
 17 27  1  0  0  0  0
 17 30  2  0  0  0  0
 17 32  1  0  0  0  0
 18 20  2  0  0  0  0
 18 37  1  0  0  0  0
 19 21  2  0  0  0  0
 19 38  1  0  0  0  0
 20 46  1  0  0  0  0
 21 39  1  0  0  0  0
 22 86  1  0  0  0  0
 23 87  1  0  0  0  0
 24 26  2  0  0  0  0
 24 86  1  0  0  0  0
 25 88  1  0  0  0  0
 26 89  1  0  0  0  0
 27 69  2  0  0  0  0
 28 49  1  0  0  0  0
 28 70  1  0  0  0  0
 29 59  1  0  0  0  0
 29 71  2  0  0  0  0
 30 72  1  0  0  0  0
 30 75  1  0  0  0  0
 31 66  1  0  0  0  0
 31 70  2  0  0  0  0
 31 71  1  0  0  0  0
 32 76  1  0  0  0  0
 32 81  2  0  0  0  0
 33 47  1  0  0  0  0
 33 77  1  0  0  0  0
 33 82  2  0  0  0  0
 34 64  1  0  0  0  0
 34 73  1  0  0  0  0
 34 83  2  0  0  0  0
 35 65  1  0  0  0  0
 35 78  1  0  0  0  0
 35 84  2  0  0  0  0
 36 74  1  0  0  0  0
 36 79  1  0  0  0  0
 36 85  2  0  0  0  0
 37 40  1  0  0  0  0
 38 47  1  0  0  0  0
 39 73  1  0  0  0  0
 40 42  1  0  0  0  0
 41 43  1  0  0  0  0
 41 44  1  0  0  0  0
 42 46  1  0  0  0  0
 43 48  1  0  0  0  0
 44 74  1  0  0  0  0
 45 48  1  0  0  0  0
 45 74  1  0  0  0  0
 46 77  1  0  0  0  0
 47 73  1  0  0  0  0
 48 72  1  0  0  0  0
 50 65  1  0  0  0  0
 51 66  1  0  0  0  0
 52 66  1  0  0  0  0
 53 67  1  0  0  0  0
 54 67  1  0  0  0  0
 55 67  1  0  0  0  0
 56 68  1  0  0  0  0
 57 68  1  0  0  0  0
 58 80  1  0  0  0  0
 59 60  1  0  0  0  0
 60 61  1  0  0  0  0
 61 68  1  0  0  0  0
 62 66  1  0  0  0  0
 62 79  1  0  0  0  0
 63 68  1  0  0  0  0
 63 87  1  0  0  0  0
 64 67  1  0  0  0  0
 64 78  1  0  0  0  0
 65 80  1  0  0  0  0
 69 72  1  0  0  0  0
M  CHG  1  80   1
M  ISO  4  36 100  63 101  79 100  87 101
M  END
> <Batch ID>
0073

> <Smiles>
CNC(C)C(=O)NC(C(=O)N1Cc2cc([101O:1][101CH2:1]C(C)(C)CCCc3cc(C)nc(C(C)(C)C[100NH:0][100C:0](=O)N4CCCC(n5nc(-c6ccc(Oc7ccc(F)cc7F)cc6)c(C(N)=O)c5N)C4)n3)ccc2CC1C(=O)NC1CCCc2ccccc21)C(C)(C)C

> <Shape>
0.239

> <Color>
0.154

> <Negative vol penalty>
0.000

$$$$

  -OEChem-04052318273D

 88 96  0     1  0  0  0  0  0999 V2000
  -31.8080  -23.8596   17.2696 C   0  0  0  0  0  0  0  0  0  0  0  0
  -30.4614  -24.1036   17.5194 C   0  0  0  0  0  0  0  0  0  0  0  0
  -24.5376  -11.3339   20.1610 C   0  0  0  0  0  0  0  0  0  0  0  0
  -25.2479  -11.8100   22.4206 C   0  0  0  0  0  0  0  0  0  0  0  0
  -32.7396  -23.9780   18.3002 C   0  0  0  0  0  0  0  0  0  0  0  0
  -30.0454  -24.4651   18.8003 C   0  0  0  0  0  0  0  0  0  0  0  0
  -26.7591  -28.3179   18.7607 C   0  0  0  0  0  0  0  0  0  0  0  0
  -24.5134   -9.9708   20.4558 C   0  0  0  0  0  0  0  0  0  0  0  0
  -25.2237  -10.4469   22.7155 C   0  0  0  0  0  0  0  0  0  0  0  0
  -25.4387  -28.0250   18.4223 C   0  0  0  0  0  0  0  0  0  0  0  0
  -22.4594   -7.8004   22.0379 C   0  0  0  0  0  0  0  0  0  0  0  0
  -21.3558   -7.0636   21.6080 C   0  0  0  0  0  0  0  0  0  0  0  0
  -24.8454  -28.0273   20.7605 C   0  0  0  0  0  0  0  0  0  0  0  0
  -22.8097   -5.6565   20.2876 C   0  0  0  0  0  0  0  0  0  0  0  0
  -24.9049  -12.2535   21.1434 C   0  0  0  0  0  0  0  0  0  0  0  0
  -23.8733  -14.5808   20.9782 C   0  0  0  0  0  0  0  0  0  0  0  0
  -32.3361  -24.3505   19.5921 C   0  0  0  0  0  0  0  0  0  0  0  0
  -27.1355  -28.4571   20.1043 C   0  0  0  0  0  0  0  0  0  0  0  0
  -30.9723  -24.5872   19.8495 C   0  0  0  0  0  0  0  0  0  0  0  0
  -26.1707  -28.3244   21.1132 C   0  0  0  0  0  0  0  0  0  0  0  0
  -24.8565   -9.5272   21.7330 C   0  0  0  0  0  0  0  0  0  0  0  0
  -24.4822  -27.8768   19.4224 C   0  0  0  0  0  0  0  0  0  0  0  0
  -23.7381   -7.4653   21.5927 C   0  0  0  0  0  0  0  0  0  0  0  0
  -21.5309   -5.9916   20.7328 C   0  0  0  0  0  0  0  0  0  0  0  0
  -23.9133   -6.3933   20.7176 C   0  0  0  0  0  0  0  0  0  0  0  0
  -24.9305  -13.6617   20.8393 C   0  0  0  0  0  0  0  0  0  0  0  0
  -24.3135  -22.5187   19.7649 C   0  0  0  0  0  0  0  0  0  0  0  0
  -24.1685  -22.5326   18.3977 C   0  0  0  0  0  0  0  0  0  0  0  0
  -24.4018  -15.7778   20.5607 C   0  0  0  0  0  0  0  0  0  0  0  0
  -22.7953  -23.9846   19.1303 C   0  0  0  0  0  0  0  0  0  0  0  0
  -22.5333  -14.3713   21.4432 C   0  0  0  0  0  0  0  0  0  0  0  0
  -29.1418  -26.9320   22.0414 C   0  0  0  0  0  0  0  0  0  0  0  0
  -28.3476  -29.3102   24.0994 C   0  0  0  0  0  0  0  0  0  0  0  0
  -26.0871  -31.6831   25.0515 C   0  0  0  0  0  0  0  0  0  0  0  0
  -28.5478  -19.5132   20.5088 C   0  0  0  0  0  0  0  0  0  0  0  0
  -33.3733  -24.4195   20.6849 C   0  0  0  0  0  0  0  0  0  0  0  0
  -28.5584  -28.7994   20.4514 C   0  0  0  0  0  0  0  0  0  0  0  0
  -26.5192  -28.4842   22.5697 C   0  0  0  0  0  0  0  0  0  0  0  0
  -32.9009  -25.1719   21.9263 C   0  0  0  0  0  0  0  0  0  0  0  0
  -28.7552  -16.8101   18.2008 C   0  0  0  0  0  0  0  0  0  0  0  0
  -31.5031  -24.7130   22.3290 C   0  0  0  0  0  0  0  0  0  0  0  0
  -27.6963  -15.8238   18.6966 C   0  0  0  0  0  0  0  0  0  0  0  0
  -29.4561  -17.5154   19.3598 C   0  0  0  0  0  0  0  0  0  0  0  0
  -27.4937  -17.1913   20.8150 C   0  0  0  0  0  0  0  0  0  0  0  0
  -30.4854  -25.0056   21.2199 C   0  0  1  0  0  0  0  0  0  0  0  0
  -28.9355  -28.4113   21.8778 C   0  0  1  0  0  0  0  0  0  0  0  0
  -26.7207  -16.4964   19.6811 C   0  0  2  0  0  0  0  0  0  0  0  0
  -25.6983  -33.4468   26.7937 C   0  0  0  0  0  0  0  0  0  0  0  0
  -21.0669  -24.3866   22.7708 C   0  0  0  0  0  0  0  0  0  0  0  0
  -21.1084  -22.3803   21.2862 C   0  0  0  0  0  0  0  0  0  0  0  0
  -22.3042  -22.3407   23.4876 C   0  0  0  0  0  0  0  0  0  0  0  0
  -27.6283  -27.1460   26.1264 C   0  0  0  0  0  0  0  0  0  0  0  0
  -26.3855  -28.8818   27.4343 C   0  0  0  0  0  0  0  0  0  0  0  0
  -28.8449  -29.1097   27.0845 C   0  0  0  0  0  0  0  0  0  0  0  0
  -26.0109  -33.8357   23.0219 C   0  0  0  0  0  0  0  0  0  0  0  0
  -25.1829  -21.7303   20.6577 C   0  0  0  0  0  0  0  0  0  0  0  0
  -21.7414  -25.0558   19.2542 C   0  0  0  0  0  0  0  0  0  0  0  0
  -26.6462  -22.2276   20.7536 C   0  0  0  0  0  0  0  0  0  0  0  0
  -21.6997  -26.0192   18.0661 C   0  0  0  0  0  0  0  0  0  0  0  0
  -23.2012  -23.8157   21.6011 C   0  0  0  0  0  0  0  0  0  0  0  0
  -27.5161  -21.4209   21.7153 C   0  0  0  0  0  0  0  0  0  0  0  0
  -22.9778  -26.8339   17.9042 C   0  0  0  0  0  0  0  0  0  1  0  0
  -27.2748  -29.5070   25.1431 C   0  0  1  0  0  0  0  0  0  0  0  0
  -26.2558  -33.1484   25.4107 C   0  0  2  0  0  0  0  0  0  0  0  0
  -21.9382  -23.2144   22.2764 C   0  0  0  0  0  0  0  0  0  0  0  0
  -27.5269  -28.6561   26.4198 C   0  0  0  0  0  0  0  0  0  0  0  0
  -26.0463  -14.2264   20.3701 N   0  0  0  0  0  0  0  0  0  0  0  0
  -23.2221  -23.4475   18.0090 N   0  0  0  0  0  0  0  0  0  0  0  0
  -23.4278  -23.4543   20.2203 N   0  0  0  0  0  0  0  0  0  0  0  0
  -25.6931  -15.5132   20.2105 N   0  0  0  0  0  0  0  0  0  0  0  0
  -27.9250  -28.8125   22.8586 N   0  0  0  0  0  0  0  0  0  0  0  0
  -28.4752  -18.1336   20.2551 N   0  0  0  0  0  0  0  0  0  0  0  0
  -23.8833  -17.0204   20.4627 N   0  0  0  0  0  0  0  0  0  0  0  0
  -22.1558  -13.0792   21.8333 N   0  0  0  0  0  0  0  0  0  0  0  0
  -30.1236  -26.4069   21.2229 N   0  0  0  0  0  0  0  0  0  0  0  0
  -27.2013  -30.9434   25.3872 N   0  0  0  0  0  0  0  0  0  0  0  0
  -27.5763  -20.0197   21.3634 N   0  0  0  0  0  0  0  0  0  0  0  0
  -25.5463  -34.0089   24.4222 N   0  3  0  0  0  0  0  0  0  0  0  0
  -21.6906  -15.2991   21.4951 O   0  0  0  0  0  0  0  0  0  0  0  0
  -28.4618  -26.3130   22.8514 O   0  0  0  0  0  0  0  0  0  0  0  0
  -29.5164  -29.5946   24.3726 O   0  0  0  0  0  0  0  0  0  0  0  0
  -25.0674  -31.2384   24.5290 O   0  0  0  0  0  0  0  0  0  0  0  0
  -29.4110  -20.2408   20.0062 O   0  0  0  0  0  0  0  0  0  0  0  0
  -24.8328   -8.1972   22.0211 O   0  0  0  0  0  0  0  0  0  0  0  0
  -23.1928  -27.5904   19.0950 O   0  0  0  0  0  0  0  0  0  1  0  0
  -20.4713   -5.2832   20.3212 F   0  0  0  0  0  0  0  0  0  0  0  0
  -25.1394   -6.0658   20.2874 F   0  0  0  0  0  0  0  0  0  0  0  0
  -25.0154  -21.5719   17.2742 Cl  0  0  0  0  0  0  0  0  0  0  0  0
  1  2  1  0  0  0  0
  1  5  2  0  0  0  0
  2  6  2  0  0  0  0
  3  8  2  0  0  0  0
  3 15  1  0  0  0  0
  4  9  1  0  0  0  0
  4 15  2  0  0  0  0
  5 17  1  0  0  0  0
  6 19  1  0  0  0  0
  7 10  2  0  0  0  0
  7 18  1  0  0  0  0
  8 21  1  0  0  0  0
  9 21  2  0  0  0  0
 10 22  1  0  0  0  0
 11 12  2  0  0  0  0
 11 23  1  0  0  0  0
 12 24  1  0  0  0  0
 13 20  1  0  0  0  0
 13 22  2  0  0  0  0
 14 24  2  0  0  0  0
 14 25  1  0  0  0  0
 15 26  1  0  0  0  0
 16 26  1  0  0  0  0
 16 29  2  0  0  0  0
 16 31  1  0  0  0  0
 17 19  2  0  0  0  0
 17 36  1  0  0  0  0
 18 20  2  0  0  0  0
 18 37  1  0  0  0  0
 19 45  1  0  0  0  0
 20 38  1  0  0  0  0
 21 84  1  0  0  0  0
 22 85  1  0  0  0  0
 23 25  2  0  0  0  0
 23 84  1  0  0  0  0
 24 86  1  0  0  0  0
 25 87  1  0  0  0  0
 26 67  2  0  0  0  0
 27 28  2  0  0  0  0
 27 56  1  0  0  0  0
 27 69  1  0  0  0  0
 28 68  1  0  0  0  0
 28 88  1  0  0  0  0
 29 70  1  0  0  0  0
 29 73  1  0  0  0  0
 30 57  1  0  0  0  0
 30 68  2  0  0  0  0
 30 69  1  0  0  0  0
 31 74  1  0  0  0  0
 31 79  2  0  0  0  0
 32 46  1  0  0  0  0
 32 75  1  0  0  0  0
 32 80  2  0  0  0  0
 33 63  1  0  0  0  0
 33 71  1  0  0  0  0
 33 81  2  0  0  0  0
 34 64  1  0  0  0  0
 34 76  1  0  0  0  0
 34 82  2  0  0  0  0
 35 72  1  0  0  0  0
 35 77  1  0  0  0  0
 35 83  2  0  0  0  0
 36 39  1  0  0  0  0
 37 46  1  0  0  0  0
 38 71  1  0  0  0  0
 39 41  1  0  0  0  0
 40 42  1  0  0  0  0
 40 43  1  0  0  0  0
 41 45  1  0  0  0  0
 42 47  1  0  0  0  0
 43 72  1  0  0  0  0
 44 47  1  0  0  0  0
 44 72  1  0  0  0  0
 45 75  1  0  0  0  0
 46 71  1  0  0  0  0
 47 70  1  0  0  0  0
 48 64  1  0  0  0  0
 49 65  1  0  0  0  0
 50 65  1  0  0  0  0
 51 65  1  0  0  0  0
 52 66  1  0  0  0  0
 53 66  1  0  0  0  0
 54 66  1  0  0  0  0
 55 78  1  0  0  0  0
 56 58  1  0  0  0  0
 57 59  1  0  0  0  0
 58 61  1  0  0  0  0
 59 62  1  0  0  0  0
 60 65  1  0  0  0  0
 60 69  1  0  0  0  0
 61 77  1  0  0  0  0
 62 85  1  0  0  0  0
 63 66  1  0  0  0  0
 63 76  1  0  0  0  0
 64 78  1  0  0  0  0
 67 70  1  0  0  0  0
M  CHG  1  78   1
M  ISO  4  35 100  62 101  77 100  85 101
M  END
> <Batch ID>
0073

> <Smiles>
CNC(C)C(=O)NC(C(=O)N1Cc2cc([101O:1][101CH2:1]CCc3nc(Cl)c(CCC[100NH:0][100C:0](=O)N4CCCC(n5nc(-c6ccc(Oc7ccc(F)cc7F)cc6)c(C(N)=O)c5N)C4)n3CC(C)(C)C)ccc2CC1C(=O)NC1CCCc2ccccc21)C(C)(C)C

> <Shape>
0.251

> <Color>
0.078

> <Negative vol penalty>
0.000

$$$$

  -OEChem-04052318273D

 84 92  0     1  0  0  0  0  0999 V2000
  -16.0257  -22.1929   26.9978 C   0  0  0  0  0  0  0  0  0  0  0  0
  -16.6694  -21.5683   25.9343 C   0  0  0  0  0  0  0  0  0  0  0  0
  -23.0731   -9.8699   19.9433 C   0  0  0  0  0  0  0  0  0  0  0  0
  -23.8344   -9.8794   22.2362 C   0  0  0  0  0  0  0  0  0  0  0  0
  -16.3882  -23.4876   27.3673 C   0  0  0  0  0  0  0  0  0  0  0  0
  -17.6753  -22.2385   25.2390 C   0  0  0  0  0  0  0  0  0  0  0  0
  -22.7002  -19.7754   22.7513 C   0  0  0  0  0  0  0  0  0  0  0  0
  -22.3297   -8.7168   20.1949 C   0  0  0  0  0  0  0  0  0  0  0  0
  -23.0908   -8.7263   22.4878 C   0  0  0  0  0  0  0  0  0  0  0  0
  -23.0087  -19.3892   21.4476 C   0  0  0  0  0  0  0  0  0  0  0  0
  -19.3824   -7.9212   21.6487 C   0  0  0  0  0  0  0  0  0  0  0  0
  -18.0753   -7.8742   21.1642 C   0  0  0  0  0  0  0  0  0  0  0  0
  -24.0892  -21.5144   21.0801 C   0  0  0  0  0  0  0  0  0  0  0  0
  -18.6346   -5.9299   19.8437 C   0  0  0  0  0  0  0  0  0  0  0  0
  -28.5652  -18.0012   19.1941 C   0  0  0  0  0  0  0  0  0  0  0  0
  -23.8256  -10.4511   20.9640 C   0  0  0  0  0  0  0  0  0  0  0  0
  -24.1668  -12.9762   20.8411 C   0  0  0  0  0  0  0  0  0  0  0  0
  -17.4056  -24.1703   26.6822 C   0  0  0  0  0  0  0  0  0  0  0  0
  -23.0750  -21.0404   23.2264 C   0  0  0  0  0  0  0  0  0  0  0  0
  -18.0507  -23.5440   25.5987 C   0  0  0  0  0  0  0  0  0  0  0  0
  -23.7866  -21.9132   22.3910 C   0  0  0  0  0  0  0  0  0  0  0  0
  -22.3385   -8.1451   21.4671 C   0  0  0  0  0  0  0  0  0  0  0  0
  -23.7007  -20.2598   20.6109 C   0  0  0  0  0  0  0  0  0  0  0  0
  -20.3157   -6.9725   21.2306 C   0  0  0  0  0  0  0  0  0  0  0  0
  -17.7013   -6.8785   20.2618 C   0  0  0  0  0  0  0  0  0  0  0  0
  -19.9418   -5.9769   20.3281 C   0  0  0  0  0  0  0  0  0  0  0  0
  -24.5943  -11.6419   20.7046 C   0  0  0  0  0  0  0  0  0  0  0  0
  -27.1790  -18.1343   19.4007 C   0  0  0  0  0  0  0  0  0  0  0  0
  -29.1130  -18.1305   20.4469 C   0  0  0  0  0  0  0  0  0  0  0  0
  -25.2586  -13.7255   20.4765 C   0  0  0  0  0  0  0  0  0  0  0  0
  -22.8965  -13.4922   21.2603 C   0  0  0  0  0  0  0  0  0  0  0  0
  -21.5065  -23.5915   24.2918 C   0  0  0  0  0  0  0  0  0  0  0  0
  -24.4947  -24.6732   24.9424 C   0  0  0  0  0  0  0  0  0  0  0  0
  -27.8365  -24.5378   24.2637 C   0  0  0  0  0  0  0  0  0  0  0  0
  -30.7423  -14.7458   20.6606 C   0  0  0  0  0  0  0  0  0  0  0  0
  -17.7302  -25.5862   27.0879 C   0  0  0  0  0  0  0  0  0  0  0  0
  -22.7582  -21.4315   24.6438 C   0  0  0  0  0  0  0  0  0  0  0  0
  -24.2295  -23.2744   22.8595 C   0  0  0  0  0  0  0  0  0  0  0  0
  -19.0637  -26.0867   26.5387 C   0  0  0  0  0  0  0  0  0  0  0  0
  -29.6038  -12.3586   18.2769 C   0  0  0  0  0  0  0  0  0  0  0  0
  -19.1926  -25.7460   25.0575 C   0  0  0  0  0  0  0  0  0  0  0  0
  -28.1666  -12.0651   18.7110 C   0  0  0  0  0  0  0  0  0  0  0  0
  -30.5216  -12.5809   19.4771 C   0  0  0  0  0  0  0  0  0  0  0  0
  -28.6205  -13.3130   20.8640 C   0  0  0  0  0  0  0  0  0  0  0  0
  -19.1637  -24.2289   24.8357 C   0  0  1  0  0  0  0  0  0  0  0  0
  -22.7382  -22.9421   24.8565 C   0  0  1  0  0  0  0  0  0  0  0  0
  -27.6457  -13.1370   19.6871 C   0  0  2  0  0  0  0  0  0  0  0  0
  -30.0255  -25.5675   24.9312 C   0  0  0  0  0  0  0  0  0  0  0  0
  -31.0524  -19.3844   21.6144 C   0  0  0  0  0  0  0  0  0  0  0  0
  -31.4922  -17.8844   19.6877 C   0  0  0  0  0  0  0  0  0  0  0  0
  -23.7996  -27.1793   23.3467 C   0  0  0  0  0  0  0  0  0  0  0  0
  -26.2450  -27.7053   23.2402 C   0  0  0  0  0  0  0  0  0  0  0  0
  -25.0878  -27.6043   25.4477 C   0  0  0  0  0  0  0  0  0  0  0  0
  -28.1255  -18.5149   22.7254 C   0  0  0  0  0  0  0  0  0  0  0  0
  -28.9168  -21.9357   25.1698 C   0  0  0  0  0  0  0  0  0  0  0  0
  -26.0859  -18.0784   18.3635 C   0  0  0  0  0  0  0  0  0  0  0  0
  -25.7469  -19.4395   17.7520 C   0  0  0  0  0  0  0  0  0  0  0  0
  -30.8085  -16.8977   21.8952 C   0  0  0  0  0  0  0  0  0  0  0  0
  -25.1884  -20.4336   18.7636 C   0  0  0  0  0  0  0  0  0  1  0  0
  -25.5353  -25.4610   24.1836 C   0  0  1  0  0  0  0  0  0  0  0  0
  -29.0459  -24.4301   25.1750 C   0  0  2  0  0  0  0  0  0  0  0  0
  -30.5153  -18.0863   20.9000 C   0  0  0  0  0  0  0  0  0  0  0  0
  -25.1570  -26.9627   24.0448 C   0  0  0  0  0  0  0  0  0  0  0  0
  -25.8589  -11.5459   20.2856 N   0  0  0  0  0  0  0  0  0  0  0  0
  -26.8657  -18.3328   20.6838 N   0  0  0  0  0  0  0  0  0  0  0  0
  -28.0626  -18.3253   21.2948 N   0  0  0  0  0  0  0  0  0  0  0  0
  -26.2355  -12.8294   20.1558 N   0  0  0  0  0  0  0  0  0  0  0  0
  -23.8904  -23.6133   24.2515 N   0  0  0  0  0  0  0  0  0  0  0  0
  -29.9713  -13.6102   20.3623 N   0  0  0  0  0  0  0  0  0  0  0  0
  -25.4688  -15.0570   20.4020 N   0  0  0  0  0  0  0  0  0  0  0  0
  -21.8850  -12.5832   21.5991 N   0  0  0  0  0  0  0  0  0  0  0  0
  -20.4438  -23.6443   25.1735 N   0  0  0  0  0  0  0  0  0  0  0  0
  -26.8033  -25.2247   24.8653 N   0  0  0  0  0  0  0  0  0  0  0  0
  -30.1435  -15.6754   21.5020 N   0  0  0  0  0  0  0  0  0  0  0  0
  -29.7559  -23.1405   24.9432 N   0  3  0  0  0  0  0  0  0  0  0  0
  -22.6600  -14.7228   21.3165 O   0  0  0  0  0  0  0  0  0  0  0  0
  -21.5199  -24.0148   23.1419 O   0  0  0  0  0  0  0  0  0  0  0  0
  -24.2330  -24.9823   26.1075 O   0  0  0  0  0  0  0  0  0  0  0  0
  -27.8123  -24.0635   23.1302 O   0  0  0  0  0  0  0  0  0  0  0  0
  -31.8780  -14.9210   20.2061 O   0  0  0  0  0  0  0  0  0  0  0  0
  -21.6129   -7.0201   21.7130 O   0  0  0  0  0  0  0  0  0  0  0  0
  -24.0025  -19.8856   19.3378 O   0  0  0  0  0  0  0  0  0  1  0  0
  -16.4456   -6.8326   19.7978 F   0  0  0  0  0  0  0  0  0  0  0  0
  -20.8336   -5.0621   19.9237 F   0  0  0  0  0  0  0  0  0  0  0  0
  1  2  1  0  0  0  0
  1  5  2  0  0  0  0
  2  6  2  0  0  0  0
  3  8  2  0  0  0  0
  3 16  1  0  0  0  0
  4  9  1  0  0  0  0
  4 16  2  0  0  0  0
  5 18  1  0  0  0  0
  6 20  1  0  0  0  0
  7 10  2  0  0  0  0
  7 19  1  0  0  0  0
  8 22  1  0  0  0  0
  9 22  2  0  0  0  0
 10 23  1  0  0  0  0
 11 12  2  0  0  0  0
 11 24  1  0  0  0  0
 12 25  1  0  0  0  0
 13 21  1  0  0  0  0
 13 23  2  0  0  0  0
 14 25  2  0  0  0  0
 14 26  1  0  0  0  0
 15 28  1  0  0  0  0
 15 29  2  0  0  0  0
 16 27  1  0  0  0  0
 17 27  1  0  0  0  0
 17 30  2  0  0  0  0
 17 31  1  0  0  0  0
 18 20  2  0  0  0  0
 18 36  1  0  0  0  0
 19 21  2  0  0  0  0
 19 37  1  0  0  0  0
 20 45  1  0  0  0  0
 21 38  1  0  0  0  0
 22 81  1  0  0  0  0
 23 82  1  0  0  0  0
 24 26  2  0  0  0  0
 24 81  1  0  0  0  0
 25 83  1  0  0  0  0
 26 84  1  0  0  0  0
 27 64  2  0  0  0  0
 28 56  1  0  0  0  0
 28 65  2  0  0  0  0
 29 62  1  0  0  0  0
 29 66  1  0  0  0  0
 30 67  1  0  0  0  0
 30 70  1  0  0  0  0
 31 71  1  0  0  0  0
 31 76  2  0  0  0  0
 32 46  1  0  0  0  0
 32 72  1  0  0  0  0
 32 77  2  0  0  0  0
 33 60  1  0  0  0  0
 33 68  1  0  0  0  0
 33 78  2  0  0  0  0
 34 61  1  0  0  0  0
 34 73  1  0  0  0  0
 34 79  2  0  0  0  0
 35 69  1  0  0  0  0
 35 74  1  0  0  0  0
 35 80  2  0  0  0  0
 36 39  1  0  0  0  0
 37 46  1  0  0  0  0
 38 68  1  0  0  0  0
 39 41  1  0  0  0  0
 40 42  1  0  0  0  0
 40 43  1  0  0  0  0
 41 45  1  0  0  0  0
 42 47  1  0  0  0  0
 43 69  1  0  0  0  0
 44 47  1  0  0  0  0
 44 69  1  0  0  0  0
 45 72  1  0  0  0  0
 46 68  1  0  0  0  0
 47 67  1  0  0  0  0
 48 61  1  0  0  0  0
 49 62  1  0  0  0  0
 50 62  1  0  0  0  0
 51 63  1  0  0  0  0
 52 63  1  0  0  0  0
 53 63  1  0  0  0  0
 54 66  1  0  0  0  0
 55 75  1  0  0  0  0
 56 57  1  0  0  0  0
 57 59  1  0  0  0  0
 58 62  1  0  0  0  0
 58 74  1  0  0  0  0
 59 82  1  0  0  0  0
 60 63  1  0  0  0  0
 60 73  1  0  0  0  0
 61 75  1  0  0  0  0
 64 67  1  0  0  0  0
 65 66  1  0  0  0  0
M  CHG  1  75   1
M  ISO  4  35 100  59 101  74 100  82 101
M  END
> <Batch ID>
0073

> <Smiles>
CNC(C)C(=O)NC(C(=O)N1Cc2cc([101O:1][101CH2:1]CCc3cc(C(C)(C)C[100NH:0][100C:0](=O)N4CCCC(n5nc(-c6ccc(Oc7ccc(F)cc7F)cc6)c(C(N)=O)c5N)C4)n(C)n3)ccc2CC1C(=O)NC1CCCc2ccccc21)C(C)(C)C

> <Shape>
0.177

> <Color>
0.191

> <Negative vol penalty>
0.000

$$$$

  -OEChem-04052318273D

 83 91  0     1  0  0  0  0  0999 V2000
  -19.7429  -25.3554   19.0050 C   0  0  0  0  0  0  0  0  0  0  0  0
  -19.8546  -23.9828   18.8073 C   0  0  0  0  0  0  0  0  0  0  0  0
  -27.3688  -23.3769   20.5721 C   0  0  0  0  0  0  0  0  0  0  0  0
  -28.8875  -23.3572   18.6932 C   0  0  0  0  0  0  0  0  0  0  0  0
  -20.6691  -26.0206   19.8072 C   0  0  0  0  0  0  0  0  0  0  0  0
  -20.8933  -23.2749   19.4109 C   0  0  0  0  0  0  0  0  0  0  0  0
  -20.6815  -17.5434   21.5581 C   0  0  0  0  0  0  0  0  0  0  0  0
  -27.4844  -24.7647   20.6510 C   0  0  0  0  0  0  0  0  0  0  0  0
  -29.0031  -24.7450   18.7721 C   0  0  0  0  0  0  0  0  0  0  0  0
  -21.0865  -16.3237   21.0177 C   0  0  0  0  0  0  0  0  0  0  0  0
  -26.2388  -27.4637   19.0397 C   0  0  0  0  0  0  0  0  0  0  0  0
  -25.0680  -28.2033   19.2066 C   0  0  0  0  0  0  0  0  0  0  0  0
  -23.1782  -16.4983   22.2067 C   0  0  0  0  0  0  0  0  0  0  0  0
  -25.9244  -29.0901   21.2844 C   0  0  0  0  0  0  0  0  0  0  0  0
  -26.5291  -13.9662   18.3208 C   0  0  0  0  0  0  0  0  0  0  0  0
  -28.0704  -22.6731   19.5932 C   0  0  0  0  0  0  0  0  0  0  0  0
  -27.0139  -20.5054   18.7609 C   0  0  0  0  0  0  0  0  0  0  0  0
  -21.7140  -25.3189   20.4287 C   0  0  0  0  0  0  0  0  0  0  0  0
  -21.5276  -18.2562   22.4198 C   0  0  0  0  0  0  0  0  0  0  0  0
  -21.8352  -23.9316   20.2211 C   0  0  0  0  0  0  0  0  0  0  0  0
  -22.7805  -17.7256   22.7588 C   0  0  0  0  0  0  0  0  0  0  0  0
  -28.3016  -25.4488   19.7510 C   0  0  0  0  0  0  0  0  0  0  0  0
  -22.3362  -15.8024   21.3397 C   0  0  0  0  0  0  0  0  0  0  0  0
  -27.2524  -27.5373   19.9952 C   0  0  0  0  0  0  0  0  0  0  0  0
  -24.9108  -29.0165   20.3289 C   0  0  0  0  0  0  0  0  0  0  0  0
  -27.0952  -28.3505   21.1175 C   0  0  0  0  0  0  0  0  0  0  0  0
  -27.9518  -21.2395   19.5115 C   0  0  0  0  0  0  0  0  0  0  0  0
  -25.8282  -13.1861   19.2139 C   0  0  0  0  0  0  0  0  0  0  0  0
  -28.4209  -12.7539   18.7466 C   0  0  0  0  0  0  0  0  0  0  0  0
  -27.7202  -11.9743   19.6403 C   0  0  0  0  0  0  0  0  0  0  0  0
  -27.3191  -19.1917   19.0203 C   0  0  0  0  0  0  0  0  0  0  0  0
  -25.9610  -20.9697   17.9055 C   0  0  0  0  0  0  0  0  0  0  0  0
  -22.9342  -21.1053   22.3322 C   0  0  0  0  0  0  0  0  0  0  0  0
  -23.8056  -20.3350   25.3604 C   0  0  0  0  0  0  0  0  0  0  0  0
  -24.4035  -17.8962   27.6715 C   0  0  0  0  0  0  0  0  0  0  0  0
  -31.0570  -15.0932   19.6332 C   0  0  0  0  0  0  0  0  0  0  0  0
  -22.7186  -26.0890   21.2487 C   0  0  0  0  0  0  0  0  0  0  0  0
  -21.0651  -19.5576   23.0155 C   0  0  0  0  0  0  0  0  0  0  0  0
  -23.7180  -18.4417   23.6951 C   0  0  0  0  0  0  0  0  0  0  0  0
  -23.5710  -25.2047   22.1552 C   0  0  0  0  0  0  0  0  0  0  0  0
  -30.4055  -17.1475   22.4673 C   0  0  0  0  0  0  0  0  0  0  0  0
  -24.0905  -23.9947   21.3852 C   0  0  0  0  0  0  0  0  0  0  0  0
  -29.6376  -18.3369   21.8881 C   0  0  0  0  0  0  0  0  0  0  0  0
  -31.4868  -16.6531   21.5089 C   0  0  0  0  0  0  0  0  0  0  0  0
  -30.2441  -17.5286   19.5691 C   0  0  0  0  0  0  0  0  0  0  0  0
  -22.9336  -23.1248   20.8788 C   0  0  1  0  0  0  0  0  0  0  0  0
  -22.2162  -20.4465   23.4760 C   0  0  1  0  0  0  0  0  0  0  0  0
  -29.1058  -18.0270   20.4759 C   0  0  2  0  0  0  0  0  0  0  0  0
  -28.6860  -11.2292   21.8308 C   0  0  0  0  0  0  0  0  0  0  0  0
  -25.1389  -17.5728   30.0489 C   0  0  0  0  0  0  0  0  0  0  0  0
  -26.6878  -20.9171   24.5455 C   0  0  0  0  0  0  0  0  0  0  0  0
  -27.4411  -19.6931   26.5955 C   0  0  0  0  0  0  0  0  0  0  0  0
  -26.0557  -21.7559   26.8152 C   0  0  0  0  0  0  0  0  0  0  0  0
  -21.8496  -16.5938   28.4063 C   0  0  0  0  0  0  0  0  0  0  0  0
  -24.3623  -13.4413   19.4676 C   0  0  0  0  0  0  0  0  0  0  0  0
  -29.8686  -12.5201   18.4795 C   0  0  0  0  0  0  0  0  0  0  0  0
  -28.3773  -10.8606   20.3817 C   0  0  0  0  0  0  0  0  0  0  0  0
  -30.5372  -13.6479   17.6838 C   0  0  0  0  0  0  0  0  0  0  0  0
  -24.1343  -14.4295   20.6062 C   0  0  0  0  0  0  0  0  0  1  0  0
  -24.9804  -19.6231   25.9864 C   0  0  1  0  0  0  0  0  0  0  0  0
  -23.9524  -17.7418   29.1127 C   0  0  2  0  0  0  0  0  0  0  0  0
  -26.2746  -20.4845   25.9665 C   0  0  0  0  0  0  0  0  0  0  0  0
  -27.8380  -13.7641   18.0711 N   0  0  0  0  0  0  0  0  0  0  0  0
  -28.7899  -20.4570   20.1965 N   0  0  0  0  0  0  0  0  0  0  0  0
  -26.4111  -12.1762   19.8897 N   0  0  0  0  0  0  0  0  0  0  0  0
  -28.3797  -19.2176   19.8774 N   0  0  0  0  0  0  0  0  0  0  0  0
  -23.2228  -19.7138   24.2467 N   0  0  0  0  0  0  0  0  0  0  0  0
  -30.9166  -16.3758   20.1884 N   0  0  0  0  0  0  0  0  0  0  0  0
  -26.7810  -18.0283   18.5966 N   0  0  0  0  0  0  0  0  0  0  0  0
  -25.7863  -22.3516   17.7507 N   0  0  0  0  0  0  0  0  0  0  0  0
  -22.3964  -22.3213   21.9559 N   0  0  0  0  0  0  0  0  0  0  0  0
  -24.5503  -19.2218   27.3215 N   0  0  0  0  0  0  0  0  0  0  0  0
  -30.4818  -14.9133   18.3812 N   0  0  0  0  0  0  0  0  0  0  0  0
  -23.0688  -16.5500   29.2540 N   0  3  0  0  0  0  0  0  0  0  0  0
  -25.1874  -20.1825   17.3094 O   0  0  0  0  0  0  0  0  0  0  0  0
  -23.9052  -20.5522   21.8294 O   0  0  0  0  0  0  0  0  0  0  0  0
  -23.4148  -21.3995   25.8460 O   0  0  0  0  0  0  0  0  0  0  0  0
  -24.6090  -16.9367   26.9314 O   0  0  0  0  0  0  0  0  0  0  0  0
  -31.6464  -14.1747   20.2128 O   0  0  0  0  0  0  0  0  0  0  0  0
  -28.4145  -26.8030   19.8276 O   0  0  0  0  0  0  0  0  0  0  0  0
  -22.7343  -14.6124   20.8130 O   0  0  0  0  0  0  0  0  0  1  0  0
  -23.7871  -29.7279   20.4883 F   0  0  0  0  0  0  0  0  0  0  0  0
  -28.0660  -28.4262   22.0382 F   0  0  0  0  0  0  0  0  0  0  0  0
  1  2  1  0  0  0  0
  1  5  2  0  0  0  0
  2  6  2  0  0  0  0
  3  8  2  0  0  0  0
  3 16  1  0  0  0  0
  4  9  1  0  0  0  0
  4 16  2  0  0  0  0
  5 18  1  0  0  0  0
  6 20  1  0  0  0  0
  7 10  2  0  0  0  0
  7 19  1  0  0  0  0
  8 22  1  0  0  0  0
  9 22  2  0  0  0  0
 10 23  1  0  0  0  0
 11 12  2  0  0  0  0
 11 24  1  0  0  0  0
 12 25  1  0  0  0  0
 13 21  1  0  0  0  0
 13 23  2  0  0  0  0
 14 25  2  0  0  0  0
 14 26  1  0  0  0  0
 15 28  1  0  0  0  0
 15 63  2  0  0  0  0
 16 27  1  0  0  0  0
 17 27  1  0  0  0  0
 17 31  2  0  0  0  0
 17 32  1  0  0  0  0
 18 20  2  0  0  0  0
 18 37  1  0  0  0  0
 19 21  2  0  0  0  0
 19 38  1  0  0  0  0
 20 46  1  0  0  0  0
 21 39  1  0  0  0  0
 22 80  1  0  0  0  0
 23 81  1  0  0  0  0
 24 26  2  0  0  0  0
 24 80  1  0  0  0  0
 25 82  1  0  0  0  0
 26 83  1  0  0  0  0
 27 64  2  0  0  0  0
 28 55  1  0  0  0  0
 28 65  2  0  0  0  0
 29 30  2  0  0  0  0
 29 56  1  0  0  0  0
 29 63  1  0  0  0  0
 30 57  1  0  0  0  0
 30 65  1  0  0  0  0
 31 66  1  0  0  0  0
 31 69  1  0  0  0  0
 32 70  1  0  0  0  0
 32 75  2  0  0  0  0
 33 47  1  0  0  0  0
 33 71  1  0  0  0  0
 33 76  2  0  0  0  0
 34 60  1  0  0  0  0
 34 67  1  0  0  0  0
 34 77  2  0  0  0  0
 35 61  1  0  0  0  0
 35 72  1  0  0  0  0
 35 78  2  0  0  0  0
 36 68  1  0  0  0  0
 36 73  1  0  0  0  0
 36 79  2  0  0  0  0
 37 40  1  0  0  0  0
 38 47  1  0  0  0  0
 39 67  1  0  0  0  0
 40 42  1  0  0  0  0
 41 43  1  0  0  0  0
 41 44  1  0  0  0  0
 42 46  1  0  0  0  0
 43 48  1  0  0  0  0
 44 68  1  0  0  0  0
 45 48  1  0  0  0  0
 45 68  1  0  0  0  0
 46 71  1  0  0  0  0
 47 67  1  0  0  0  0
 48 66  1  0  0  0  0
 49 57  1  0  0  0  0
 50 61  1  0  0  0  0
 51 62  1  0  0  0  0
 52 62  1  0  0  0  0
 53 62  1  0  0  0  0
 54 74  1  0  0  0  0
 55 59  1  0  0  0  0
 56 58  1  0  0  0  0
 58 73  1  0  0  0  0
 59 81  1  0  0  0  0
 60 62  1  0  0  0  0
 60 72  1  0  0  0  0
 61 74  1  0  0  0  0
 64 66  1  0  0  0  0
M  CHG  1  74   1
M  ISO  4  36 100  59 101  73 100  81 101
M  END
> <Batch ID>
0073

> <Smiles>
CCc1nc(C[101CH2:1][101O:1]c2ccc3c(c2)CN(C(=O)C(NC(=O)C(C)NC)C(C)(C)C)C(C(=O)NC2CCCc4ccccc42)C3)cnc1CC[100NH:0][100C:0](=O)N1CCCC(n2nc(-c3ccc(Oc4ccc(F)cc4F)cc3)c(C(N)=O)c2N)C1

> <Shape>
0.190

> <Color>
0.089

> <Negative vol penalty>
0.000

$$$$

  -OEChem-04052318273D

 84 92  0     1  0  0  0  0  0999 V2000
  -21.6382  -12.2517   19.8141 C   0  0  0  0  0  0  0  0  0  0  0  0
  -21.6484  -13.3297   20.6934 C   0  0  0  0  0  0  0  0  0  0  0  0
  -28.0301  -27.9956   20.0595 C   0  0  0  0  0  0  0  0  0  0  0  0
  -26.9104  -29.1395   18.2499 C   0  0  0  0  0  0  0  0  0  0  0  0
  -22.8399  -11.6710   19.4110 C   0  0  0  0  0  0  0  0  0  0  0  0
  -22.8605  -13.8270   21.1709 C   0  0  0  0  0  0  0  0  0  0  0  0
  -23.0647  -18.8857   21.0570 C   0  0  0  0  0  0  0  0  0  0  0  0
  -29.1491  -27.8075   19.2483 C   0  0  0  0  0  0  0  0  0  0  0  0
  -28.0294  -28.9514   17.4386 C   0  0  0  0  0  0  0  0  0  0  0  0
  -22.3930  -19.5730   22.0671 C   0  0  0  0  0  0  0  0  0  0  0  0
  -30.0965  -25.7324   16.7542 C   0  0  0  0  0  0  0  0  0  0  0  0
  -30.6913  -24.4707   16.7541 C   0  0  0  0  0  0  0  0  0  0  0  0
  -24.4805  -19.8838   23.2354 C   0  0  0  0  0  0  0  0  0  0  0  0
  -32.7586  -25.4453   17.5373 C   0  0  0  0  0  0  0  0  0  0  0  0
  -19.8502  -26.6281   26.3849 C   0  0  0  0  0  0  0  0  0  0  0  0
  -26.9107  -28.6615   19.5603 C   0  0  0  0  0  0  0  0  0  0  0  0
  -25.6973  -29.5502   21.6207 C   0  0  0  0  0  0  0  0  0  0  0  0
  -24.0678  -12.1676   19.8763 C   0  0  0  0  0  0  0  0  0  0  0  0
  -24.4501  -18.6825   21.1341 C   0  0  0  0  0  0  0  0  0  0  0  0
  -24.0797  -13.2516   20.7747 C   0  0  0  0  0  0  0  0  0  0  0  0
  -25.1678  -19.1959   22.2237 C   0  0  0  0  0  0  0  0  0  0  0  0
  -29.1488  -28.2854   17.9379 C   0  0  0  0  0  0  0  0  0  0  0  0
  -23.1005  -20.0696   23.1580 C   0  0  0  0  0  0  0  0  0  0  0  0
  -30.8328  -26.8505   17.1458 C   0  0  0  0  0  0  0  0  0  0  0  0
  -32.0223  -24.3271   17.1457 C   0  0  0  0  0  0  0  0  0  0  0  0
  -32.1638  -26.7070   17.5374 C   0  0  0  0  0  0  0  0  0  0  0  0
  -25.7543  -28.8556   20.3976 C   0  0  0  0  0  0  0  0  0  0  0  0
  -19.0877  -24.7882   27.5087 C   0  0  0  0  0  0  0  0  0  0  0  0
  -18.9372  -24.1204   26.3133 C   0  0  0  0  0  0  0  0  0  0  0  0
  -19.7005  -25.9601   25.1896 C   0  0  0  0  0  0  0  0  0  0  0  0
  -24.3851  -29.4474   22.0131 C   0  0  0  0  0  0  0  0  0  0  0  0
  -26.7374  -30.2280   22.3379 C   0  0  0  0  0  0  0  0  0  0  0  0
  -26.3372  -16.1299   21.2962 C   0  0  0  0  0  0  0  0  0  0  0  0
  -28.6959  -18.3396   21.0206 C   0  0  0  0  0  0  0  0  0  0  0  0
  -29.6957  -21.5767   21.4311 C   0  0  0  0  0  0  0  0  0  0  0  0
  -19.9185  -26.0184   22.7108 C   0  0  0  0  0  0  0  0  0  0  0  0
  -25.3388  -11.4769   19.4495 C   0  0  0  0  0  0  0  0  0  0  0  0
  -25.1638  -17.9624   20.0230 C   0  0  0  0  0  0  0  0  0  0  0  0
  -26.6591  -19.0222   22.3438 C   0  0  0  0  0  0  0  0  0  0  0  0
  -26.5968  -12.3021   19.7081 C   0  0  0  0  0  0  0  0  0  0  0  0
  -20.3021  -27.8313   19.5208 C   0  0  0  0  0  0  0  0  0  0  0  0
  -26.5695  -12.8902   21.1153 C   0  0  0  0  0  0  0  0  0  0  0  0
  -21.7698  -28.2551   19.5443 C   0  0  0  0  0  0  0  0  0  0  0  0
  -20.0739  -26.5354   20.2931 C   0  0  0  0  0  0  0  0  0  0  0  0
  -22.0418  -27.0014   21.7214 C   0  0  0  0  0  0  0  0  0  0  0  0
  -25.3753  -13.8352   21.2952 C   0  0  1  0  0  0  0  0  0  0  0  0
  -26.4991  -17.3665   20.4582 C   0  0  1  0  0  0  0  0  0  0  0  0
  -22.2970  -28.3268   20.9879 C   0  0  1  0  0  0  0  0  0  0  0  0
  -18.6857  -25.1442   29.9578 C   0  0  0  0  0  0  0  0  0  0  0  0
  -31.6918  -23.0721   21.1543 C   0  0  0  0  0  0  0  0  0  0  0  0
  -29.9342  -17.1494   23.5426 C   0  0  0  0  0  0  0  0  0  0  0  0
  -31.3313  -19.2168   23.7482 C   0  0  0  0  0  0  0  0  0  0  0  0
  -31.5775  -17.7405   21.7525 C   0  0  0  0  0  0  0  0  0  0  0  0
  -20.3091  -28.0890   24.0260 C   0  0  0  0  0  0  0  0  0  0  0  0
  -28.2833  -23.2946   19.4785 C   0  0  0  0  0  0  0  0  0  0  0  0
  -18.7485  -24.1415   28.8082 C   0  0  0  0  0  0  0  0  0  0  0  0
  -18.4225  -22.7039   26.2636 C   0  0  0  0  0  0  0  0  0  0  0  0
  -18.9898  -21.8795   25.1026 C   0  0  0  0  0  0  0  0  0  0  0  0
  -20.5045  -21.6871   25.1889 C   0  0  0  0  0  0  0  0  0  0  0  0
  -21.0366  -20.8987   23.9999 C   0  0  0  0  0  0  0  0  0  1  0  0
  -29.5040  -19.1674   21.9905 C   0  0  1  0  0  0  0  0  0  0  0  0
  -30.4284  -22.5298   20.5043 C   0  0  2  0  0  0  0  0  0  0  0  0
  -30.5584  -18.3203   22.7575 C   0  0  0  0  0  0  0  0  0  0  0  0
  -19.5466  -26.0542   27.5660 N   0  0  0  0  0  0  0  0  0  0  0  0
  -24.5723  -28.3487   20.0369 N   0  0  0  0  0  0  0  0  0  0  0  0
  -19.2413  -24.6942   25.1323 N   0  0  0  0  0  0  0  0  0  0  0  0
  -23.7603  -28.7252   21.0393 N   0  0  0  0  0  0  0  0  0  0  0  0
  -27.3108  -18.3055   21.2351 N   0  0  0  0  0  0  0  0  0  0  0  0
  -20.6247  -26.6143   21.6466 N   0  0  0  0  0  0  0  0  0  0  0  0
  -23.7163  -29.9050   23.0928 N   0  0  0  0  0  0  0  0  0  0  0  0
  -26.9599  -31.5852   22.0685 N   0  0  0  0  0  0  0  0  0  0  0  0
  -25.6429  -15.1126   20.6698 N   0  0  0  0  0  0  0  0  0  0  0  0
  -30.0695  -20.2670   21.2162 N   0  0  0  0  0  0  0  0  0  0  0  0
  -20.0488  -26.6469   23.9682 N   0  0  0  0  0  0  0  0  0  0  0  0
  -29.5522  -23.6813   20.1473 N   0  3  0  0  0  0  0  0  0  0  0  0
  -27.4594  -29.6430   23.1806 O   0  0  0  0  0  0  0  0  0  0  0  0
  -26.8087  -16.1003   22.4270 O   0  0  0  0  0  0  0  0  0  0  0  0
  -29.2717  -17.7508   20.1022 O   0  0  0  0  0  0  0  0  0  0  0  0
  -28.8765  -21.9564   22.2650 O   0  0  0  0  0  0  0  0  0  0  0  0
  -19.2050  -25.0221   22.5435 O   0  0  0  0  0  0  0  0  0  0  0  0
  -30.2406  -28.1023   17.1461 O   0  0  0  0  0  0  0  0  0  0  0  0
  -22.4472  -20.7402   24.1456 O   0  0  0  0  0  0  0  0  0  1  0  0
  -32.5929  -23.1153   17.1470 F   0  0  0  0  0  0  0  0  0  0  0  0
  -32.8759  -27.7773   17.9157 F   0  0  0  0  0  0  0  0  0  0  0  0
  1  2  1  0  0  0  0
  1  5  2  0  0  0  0
  2  6  2  0  0  0  0
  3  8  2  0  0  0  0
  3 16  1  0  0  0  0
  4  9  1  0  0  0  0
  4 16  2  0  0  0  0
  5 18  1  0  0  0  0
  6 20  1  0  0  0  0
  7 10  2  0  0  0  0
  7 19  1  0  0  0  0
  8 22  1  0  0  0  0
  9 22  2  0  0  0  0
 10 23  1  0  0  0  0
 11 12  2  0  0  0  0
 11 24  1  0  0  0  0
 12 25  1  0  0  0  0
 13 21  1  0  0  0  0
 13 23  2  0  0  0  0
 14 25  2  0  0  0  0
 14 26  1  0  0  0  0
 15 30  1  0  0  0  0
 15 64  2  0  0  0  0
 16 27  1  0  0  0  0
 17 27  1  0  0  0  0
 17 31  2  0  0  0  0
 17 32  1  0  0  0  0
 18 20  2  0  0  0  0
 18 37  1  0  0  0  0
 19 21  2  0  0  0  0
 19 38  1  0  0  0  0
 20 46  1  0  0  0  0
 21 39  1  0  0  0  0
 22 81  1  0  0  0  0
 23 82  1  0  0  0  0
 24 26  2  0  0  0  0
 24 81  1  0  0  0  0
 25 83  1  0  0  0  0
 26 84  1  0  0  0  0
 27 65  2  0  0  0  0
 28 29  2  0  0  0  0
 28 56  1  0  0  0  0
 28 64  1  0  0  0  0
 29 57  1  0  0  0  0
 29 66  1  0  0  0  0
 30 66  2  0  0  0  0
 30 74  1  0  0  0  0
 31 67  1  0  0  0  0
 31 70  1  0  0  0  0
 32 71  1  0  0  0  0
 32 76  2  0  0  0  0
 33 47  1  0  0  0  0
 33 72  1  0  0  0  0
 33 77  2  0  0  0  0
 34 61  1  0  0  0  0
 34 68  1  0  0  0  0
 34 78  2  0  0  0  0
 35 62  1  0  0  0  0
 35 73  1  0  0  0  0
 35 79  2  0  0  0  0
 36 69  1  0  0  0  0
 36 74  1  0  0  0  0
 36 80  2  0  0  0  0
 37 40  1  0  0  0  0
 38 47  1  0  0  0  0
 39 68  1  0  0  0  0
 40 42  1  0  0  0  0
 41 43  1  0  0  0  0
 41 44  1  0  0  0  0
 42 46  1  0  0  0  0
 43 48  1  0  0  0  0
 44 69  1  0  0  0  0
 45 48  1  0  0  0  0
 45 69  1  0  0  0  0
 46 72  1  0  0  0  0
 47 68  1  0  0  0  0
 48 67  1  0  0  0  0
 49 56  1  0  0  0  0
 50 62  1  0  0  0  0
 51 63  1  0  0  0  0
 52 63  1  0  0  0  0
 53 63  1  0  0  0  0
 54 74  1  0  0  0  0
 55 75  1  0  0  0  0
 57 58  1  0  0  0  0
 58 59  1  0  0  0  0
 59 60  1  0  0  0  0
 60 82  1  0  0  0  0
 61 63  1  0  0  0  0
 61 73  1  0  0  0  0
 62 75  1  0  0  0  0
 65 67  1  0  0  0  0
M  CHG  1  75   1
M  ISO  4  36 100  60 101  74 100  82 101
M  END
> <Batch ID>
0073

> <Smiles>
CCc1ncc([100N:0](C)[100C:0](=O)N2CCCC(n3nc(-c4ccc(Oc5ccc(F)cc5F)cc4)c(C(N)=O)c3N)C2)nc1CCC[101CH2:1][101O:1]c1ccc2c(c1)CN(C(=O)C(NC(=O)C(C)NC)C(C)(C)C)C(C(=O)NC1CCCc3ccccc31)C2

> <Shape>
0.213

> <Color>
0.051

> <Negative vol penalty>
0.000

$$$$

  -OEChem-04052318273D

 80 88  0     1  0  0  0  0  0999 V2000
  -14.0979  -18.3425   17.8331 C   0  0  0  0  0  0  0  0  0  0  0  0
  -15.2161  -19.1694   17.7950 C   0  0  0  0  0  0  0  0  0  0  0  0
  -22.9822   -9.8951   19.9716 C   0  0  0  0  0  0  0  0  0  0  0  0
  -23.7012   -9.9206   22.2779 C   0  0  0  0  0  0  0  0  0  0  0  0
  -14.2525  -16.9718   18.0359 C   0  0  0  0  0  0  0  0  0  0  0  0
  -16.4895  -18.6261   17.9608 C   0  0  0  0  0  0  0  0  0  0  0  0
  -23.2689  -19.5391   15.8343 C   0  0  0  0  0  0  0  0  0  0  0  0
  -22.2095   -8.7618   20.2250 C   0  0  0  0  0  0  0  0  0  0  0  0
  -22.9285   -8.7873   22.5314 C   0  0  0  0  0  0  0  0  0  0  0  0
  -24.5525  -19.6820   16.3594 C   0  0  0  0  0  0  0  0  0  0  0  0
  -21.4290   -5.6900   23.7010 C   0  0  0  0  0  0  0  0  0  0  0  0
  -22.0081   -4.6642   24.4481 C   0  0  0  0  0  0  0  0  0  0  0  0
  -29.5575  -18.2403   17.3692 C   0  0  0  0  0  0  0  0  0  0  0  0
  -24.7040  -17.2890   16.6241 C   0  0  0  0  0  0  0  0  0  0  0  0
  -23.7378   -4.4248   22.7784 C   0  0  0  0  0  0  0  0  0  0  0  0
  -30.7585  -18.5525   17.9731 C   0  0  0  0  0  0  0  0  0  0  0  0
  -23.7281  -10.4745   20.9981 C   0  0  0  0  0  0  0  0  0  0  0  0
  -24.1259  -12.9898   20.8472 C   0  0  0  0  0  0  0  0  0  0  0  0
  -15.5292  -16.4101   18.1946 C   0  0  0  0  0  0  0  0  0  0  0  0
  -22.6880  -18.2689   15.7100 C   0  0  0  0  0  0  0  0  0  0  0  0
  -16.6613  -17.2467   18.1672 C   0  0  0  0  0  0  0  0  0  0  0  0
  -23.4139  -17.1326   16.0946 C   0  0  0  0  0  0  0  0  0  0  0  0
  -22.1826   -8.2079   21.5048 C   0  0  0  0  0  0  0  0  0  0  0  0
  -25.2691  -18.5571   16.7571 C   0  0  0  0  0  0  0  0  0  0  0  0
  -22.0043   -6.0831   22.4926 C   0  0  0  0  0  0  0  0  0  0  0  0
  -23.1625   -4.0316   23.9868 C   0  0  0  0  0  0  0  0  0  0  0  0
  -23.1587   -5.4505   22.0313 C   0  0  0  0  0  0  0  0  0  0  0  0
  -24.5269  -11.6448   20.7368 C   0  0  0  0  0  0  0  0  0  0  0  0
  -28.5422  -17.8581   18.2220 C   0  0  0  0  0  0  0  0  0  0  0  0
  -25.2401  -13.7105   20.4927 C   0  0  0  0  0  0  0  0  0  0  0  0
  -29.8964  -18.1126   20.0298 C   0  0  0  0  0  0  0  0  0  0  0  0
  -22.8595  -13.5385   21.2355 C   0  0  0  0  0  0  0  0  0  0  0  0
  -20.1202  -16.8475   16.9305 C   0  0  0  0  0  0  0  0  0  0  0  0
  -20.9511  -14.4646   14.8925 C   0  0  0  0  0  0  0  0  0  0  0  0
  -23.3978  -12.9258   13.0779 C   0  0  0  0  0  0  0  0  0  0  0  0
  -30.7402  -14.6162   20.7650 C   0  0  0  0  0  0  0  0  0  0  0  0
  -15.6431  -14.9295   18.4585 C   0  0  0  0  0  0  0  0  0  0  0  0
  -21.3129  -18.1296   15.1167 C   0  0  0  0  0  0  0  0  0  0  0  0
  -22.8432  -15.7449   15.9630 C   0  0  0  0  0  0  0  0  0  0  0  0
  -17.0524  -14.3806   18.2513 C   0  0  0  0  0  0  0  0  0  0  0  0
  -29.5943  -12.2206   18.3933 C   0  0  0  0  0  0  0  0  0  0  0  0
  -18.0812  -15.2832   18.9249 C   0  0  0  0  0  0  0  0  0  0  0  0
  -28.1435  -11.9638   18.8045 C   0  0  0  0  0  0  0  0  0  0  0  0
  -30.4946  -12.4400   19.6072 C   0  0  0  0  0  0  0  0  0  0  0  0
  -28.5846  -13.2319   20.9484 C   0  0  0  0  0  0  0  0  0  0  0  0
  -18.0609  -16.6914   18.3182 C   0  0  1  0  0  0  0  0  0  0  0  0
  -20.6198  -16.8298   15.5136 C   0  0  1  0  0  0  0  0  0  0  0  0
  -27.6280  -13.0602   19.7561 C   0  0  2  0  0  0  0  0  0  0  0  0
  -23.7815  -10.9796   11.5409 C   0  0  0  0  0  0  0  0  0  0  0  0
  -20.8843  -12.5677   17.2815 C   0  0  0  0  0  0  0  0  0  0  0  0
  -22.1666  -10.9097   15.9122 C   0  0  0  0  0  0  0  0  0  0  0  0
  -19.8947  -11.6364   15.1819 C   0  0  0  0  0  0  0  0  0  0  0  0
  -24.2319  -14.6952   10.8570 C   0  0  0  0  0  0  0  0  0  0  0  0
  -27.1991  -17.4987   17.6578 C   0  0  0  0  0  0  0  0  0  1  0  0
  -30.0847  -18.0406   21.5072 C   0  0  0  0  0  0  0  0  0  0  0  0
  -30.8301  -16.7833   21.9712 C   0  0  0  0  0  0  0  0  0  0  0  0
  -21.8354  -13.2441   14.9784 C   0  0  1  0  0  0  0  0  0  0  0  0
  -23.4381  -12.4581   11.6343 C   0  0  2  0  0  0  0  0  0  0  0  0
  -21.2055  -12.1156   15.8429 C   0  0  0  0  0  0  0  0  0  0  0  0
  -30.9637  -18.4993   19.3055 N   0  0  0  0  0  0  0  0  0  0  0  0
  -25.7966  -11.5160   20.3428 N   0  0  0  0  0  0  0  0  0  0  0  0
  -28.6773  -17.7828   19.5623 N   0  0  0  0  0  0  0  0  0  0  0  0
  -26.2031  -12.7893   20.2025 N   0  0  0  0  0  0  0  0  0  0  0  0
  -21.4926  -15.6612   15.3831 N   0  0  0  0  0  0  0  0  0  0  0  0
  -29.9505  -13.4932   20.4679 N   0  0  0  0  0  0  0  0  0  0  0  0
  -25.4802  -15.0359   20.4040 N   0  0  0  0  0  0  0  0  0  0  0  0
  -21.8226  -12.6561   21.5677 N   0  0  0  0  0  0  0  0  0  0  0  0
  -18.7508  -16.7037   17.0461 N   0  0  0  0  0  0  0  0  0  0  0  0
  -22.1251  -12.8522   13.6033 N   0  0  0  0  0  0  0  0  0  0  0  0
  -30.1462  -15.5700   21.5824 N   0  0  0  0  0  0  0  0  0  0  0  0
  -24.4597  -13.2272   10.8690 N   0  3  0  0  0  0  0  0  0  0  0  0
  -22.6486  -14.7746   21.2705 O   0  0  0  0  0  0  0  0  0  0  0  0
  -20.9183  -16.9803   17.8509 O   0  0  0  0  0  0  0  0  0  0  0  0
  -19.8243  -14.3616   14.4013 O   0  0  0  0  0  0  0  0  0  0  0  0
  -24.3963  -13.3137   13.6805 O   0  0  0  0  0  0  0  0  0  0  0  0
  -31.8875  -14.7608   20.3294 O   0  0  0  0  0  0  0  0  0  0  0  0
  -21.4286   -7.1022   21.7525 O   0  0  0  0  0  0  0  0  0  0  0  0
  -26.5219  -18.6937   17.2706 O   0  0  0  0  0  0  0  0  0  1  0  0
  -23.7194   -3.0477   24.7050 F   0  0  0  0  0  0  0  0  0  0  0  0
  -23.7166   -5.8247   20.8717 F   0  0  0  0  0  0  0  0  0  0  0  0
  1  2  1  0  0  0  0
  1  5  2  0  0  0  0
  2  6  2  0  0  0  0
  3  8  2  0  0  0  0
  3 17  1  0  0  0  0
  4  9  1  0  0  0  0
  4 17  2  0  0  0  0
  5 19  1  0  0  0  0
  6 21  1  0  0  0  0
  7 10  2  0  0  0  0
  7 20  1  0  0  0  0
  8 23  1  0  0  0  0
  9 23  2  0  0  0  0
 10 24  1  0  0  0  0
 11 12  2  0  0  0  0
 11 25  1  0  0  0  0
 12 26  1  0  0  0  0
 13 16  2  0  0  0  0
 13 29  1  0  0  0  0
 14 22  1  0  0  0  0
 14 24  2  0  0  0  0
 15 26  2  0  0  0  0
 15 27  1  0  0  0  0
 16 60  1  0  0  0  0
 17 28  1  0  0  0  0
 18 28  1  0  0  0  0
 18 30  2  0  0  0  0
 18 32  1  0  0  0  0
 19 21  2  0  0  0  0
 19 37  1  0  0  0  0
 20 22  2  0  0  0  0
 20 38  1  0  0  0  0
 21 46  1  0  0  0  0
 22 39  1  0  0  0  0
 23 77  1  0  0  0  0
 24 78  1  0  0  0  0
 25 27  2  0  0  0  0
 25 77  1  0  0  0  0
 26 79  1  0  0  0  0
 27 80  1  0  0  0  0
 28 61  2  0  0  0  0
 29 54  1  0  0  0  0
 29 62  2  0  0  0  0
 30 63  1  0  0  0  0
 30 66  1  0  0  0  0
 31 55  1  0  0  0  0
 31 60  2  0  0  0  0
 31 62  1  0  0  0  0
 32 67  1  0  0  0  0
 32 72  2  0  0  0  0
 33 47  1  0  0  0  0
 33 68  1  0  0  0  0
 33 73  2  0  0  0  0
 34 57  1  0  0  0  0
 34 64  1  0  0  0  0
 34 74  2  0  0  0  0
 35 58  1  0  0  0  0
 35 69  1  0  0  0  0
 35 75  2  0  0  0  0
 36 65  1  0  0  0  0
 36 70  1  0  0  0  0
 36 76  2  0  0  0  0
 37 40  1  0  0  0  0
 38 47  1  0  0  0  0
 39 64  1  0  0  0  0
 40 42  1  0  0  0  0
 41 43  1  0  0  0  0
 41 44  1  0  0  0  0
 42 46  1  0  0  0  0
 43 48  1  0  0  0  0
 44 65  1  0  0  0  0
 45 48  1  0  0  0  0
 45 65  1  0  0  0  0
 46 68  1  0  0  0  0
 47 64  1  0  0  0  0
 48 63  1  0  0  0  0
 49 58  1  0  0  0  0
 50 59  1  0  0  0  0
 51 59  1  0  0  0  0
 52 59  1  0  0  0  0
 53 71  1  0  0  0  0
 54 78  1  0  0  0  0
 55 56  1  0  0  0  0
 56 70  1  0  0  0  0
 57 59  1  0  0  0  0
 57 69  1  0  0  0  0
 58 71  1  0  0  0  0
 61 63  1  0  0  0  0
M  CHG  1  71   1
M  ISO  4  36 100  54 101  70 100  78 101
M  END
> <Batch ID>
0073

> <Smiles>
CNC(C)C(=O)NC(C(=O)N1Cc2cc([101O:1][101CH2:1]c3ccnc(CC[100NH:0][100C:0](=O)N4CCCC(n5nc(-c6ccc(Oc7ccc(F)cc7F)cc6)c(C(N)=O)c5N)C4)n3)ccc2CC1C(=O)NC1CCCc2ccccc21)C(C)(C)C

> <Shape>
0.199

> <Color>
0.204

> <Negative vol penalty>
0.000

$$$$
