
  -OEChem-04052318293D

 85 93  0     1  0  0  0  0  0999 V2000
  -34.9071  -13.9486   21.7048 C   0  0  0  0  0  0  0  0  0  0  0  0
  -33.9806  -14.9281   21.3616 C   0  0  0  0  0  0  0  0  0  0  0  0
  -24.6821  -30.2607   20.3924 C   0  0  0  0  0  0  0  0  0  0  0  0
  -24.1228  -28.7174   22.1651 C   0  0  0  0  0  0  0  0  0  0  0  0
  -34.6668  -12.6162   21.3720 C   0  0  0  0  0  0  0  0  0  0  0  0
  -32.8138  -14.5757   20.6843 C   0  0  0  0  0  0  0  0  0  0  0  0
  -28.7009  -16.8248   22.6001 C   0  0  0  0  0  0  0  0  0  0  0  0
  -24.0705  -21.8318   18.8134 C   0  0  0  0  0  0  0  0  0  0  0  0
  -24.4560  -31.3334   21.2548 C   0  0  0  0  0  0  0  0  0  0  0  0
  -23.8968  -29.7901   23.0276 C   0  0  0  0  0  0  0  0  0  0  0  0
  -28.4876  -18.1595   22.2584 C   0  0  0  0  0  0  0  0  0  0  0  0
  -26.0993  -32.9085   23.7551 C   0  0  0  0  0  0  0  0  0  0  0  0
  -27.0352  -33.9427   23.7625 C   0  0  0  0  0  0  0  0  0  0  0  0
  -22.8069  -22.1717   18.3430 C   0  0  0  0  0  0  0  0  0  0  0  0
  -26.8823  -17.4707   20.5947 C   0  0  0  0  0  0  0  0  0  0  0  0
  -25.3146  -35.5045   23.1010 C   0  0  0  0  0  0  0  0  0  0  0  0
  -23.3759  -22.4792   20.9940 C   0  0  0  0  0  0  0  0  0  0  0  0
  -24.5154  -28.9527   20.8475 C   0  0  0  0  0  0  0  0  0  0  0  0
  -25.9621  -27.1629   19.7469 C   0  0  0  0  0  0  0  0  0  0  0  0
  -33.4919  -12.2460   20.6988 C   0  0  0  0  0  0  0  0  0  0  0  0
  -28.0134  -15.8007   21.9331 C   0  0  0  0  0  0  0  0  0  0  0  0
  -32.5582  -13.2372   20.3410 C   0  0  0  0  0  0  0  0  0  0  0  0
  -27.0868  -16.1240   20.9316 C   0  0  0  0  0  0  0  0  0  0  0  0
  -24.3685  -21.9855   20.1627 C   0  0  0  0  0  0  0  0  0  0  0  0
  -24.0634  -31.0981   22.5724 C   0  0  0  0  0  0  0  0  0  0  0  0
  -27.5804  -18.4825   21.2535 C   0  0  0  0  0  0  0  0  0  0  0  0
  -24.7711  -33.1723   23.4205 C   0  0  0  0  0  0  0  0  0  0  0  0
  -26.6429  -35.2407   23.4355 C   0  0  0  0  0  0  0  0  0  0  0  0
  -24.3787  -34.4703   23.0936 C   0  0  0  0  0  0  0  0  0  0  0  0
  -24.7483  -27.8442   19.9569 C   0  0  0  0  0  0  0  0  0  0  0  0
  -21.8842  -22.6568   19.2557 C   0  0  0  0  0  0  0  0  0  0  0  0
  -25.6590  -26.2007   18.8148 C   0  0  0  0  0  0  0  0  0  0  0  0
  -27.2486  -27.3802   20.3414 C   0  0  0  0  0  0  0  0  0  0  0  0
  -28.8709  -13.3328   20.1226 C   0  0  0  0  0  0  0  0  0  0  0  0
  -25.7124  -12.6130   20.2894 C   0  0  0  0  0  0  0  0  0  0  0  0
  -20.4848  -23.5143   17.3579 C   0  0  0  0  0  0  0  0  0  0  0  0
  -22.5147  -13.7012   20.7768 C   0  0  0  0  0  0  0  0  0  0  0  0
  -33.2983  -10.7995   20.3185 C   0  0  0  0  0  0  0  0  0  0  0  0
  -28.2350  -14.3674   22.3319 C   0  0  0  0  0  0  0  0  0  0  0  0
  -26.3083  -15.0629   20.1991 C   0  0  0  0  0  0  0  0  0  0  0  0
  -31.8614  -10.4584   19.9319 C   0  0  0  0  0  0  0  0  0  0  0  0
  -22.6963  -25.3016   15.1773 C   0  0  0  0  0  0  0  0  0  0  0  0
  -31.3039  -11.5051   18.9726 C   0  0  0  0  0  0  0  0  0  0  0  0
  -23.5645  -26.1160   16.1354 C   0  0  0  0  0  0  0  0  0  0  0  0
  -21.2674  -25.1684   15.6948 C   0  0  0  0  0  0  0  0  0  0  0  0
  -22.0386  -25.4119   18.0331 C   0  0  0  0  0  0  0  0  0  0  0  0
  -31.2690  -12.8911   19.6279 C   0  0  1  0  0  0  0  0  0  0  0  0
  -27.8604  -13.3769   21.2338 C   0  0  1  0  0  0  0  0  0  0  0  0
  -23.4980  -25.5447   17.5629 C   0  0  2  0  0  0  0  0  0  0  0  0
  -20.1411  -12.8875   20.8143 C   0  0  0  0  0  0  0  0  0  0  0  0
  -19.7980  -20.5842   18.1003 C   0  0  0  0  0  0  0  0  0  0  0  0
  -19.2472  -21.4161   20.3924 C   0  0  0  0  0  0  0  0  0  0  0  0
  -25.9035  -21.8570   22.2379 C   0  0  0  0  0  0  0  0  0  0  0  0
  -26.8262  -22.4941   20.0198 C   0  0  0  0  0  0  0  0  0  0  0  0
  -19.9902  -24.2638   19.5920 C   0  0  0  0  0  0  0  0  0  0  0  0
  -25.7043  -12.5036   17.2402 C   0  0  0  0  0  0  0  0  0  0  0  0
  -23.2053  -12.6395   17.3114 C   0  0  0  0  0  0  0  0  0  0  0  0
  -24.3773  -10.6990   18.3523 C   0  0  0  0  0  0  0  0  0  0  0  0
  -22.1673  -14.4884   23.6086 C   0  0  0  0  0  0  0  0  0  0  0  0
  -26.0752  -20.1284   20.4280 C   0  0  0  0  0  0  0  0  0  1  0  0
  -24.4917  -12.9625   19.4729 C   0  0  1  0  0  0  0  0  0  0  0  0
  -21.3881  -13.1628   21.6402 C   0  0  2  0  0  0  0  0  0  0  0  0
  -19.4775  -21.8374   18.9308 C   0  0  0  0  0  0  0  0  0  0  0  0
  -25.7585  -21.6188   20.7156 C   0  0  0  0  0  0  0  0  0  0  0  0
  -20.5182  -23.0310   18.7859 C   0  0  2  0  0  0  0  0  0  0  0  0
  -24.4606  -12.2213   18.1065 C   0  0  0  0  0  0  0  0  0  0  0  0
  -22.1371  -22.8200   20.5737 N   0  0  0  0  0  0  0  0  0  0  0  0
  -23.7486  -27.3564   19.2175 N   0  0  0  0  0  0  0  0  0  0  0  0
  -24.3337  -26.3583   18.5338 N   0  0  0  0  0  0  0  0  0  0  0  0
  -26.5646  -13.6759   20.6208 N   0  0  0  0  0  0  0  0  0  0  0  0
  -21.2481  -24.6437   17.0614 N   0  0  0  0  0  0  0  0  0  0  0  0
  -26.3995  -25.2437   18.2163 N   0  0  0  0  0  0  0  0  0  0  0  0
  -27.3849  -28.4113   21.2809 N   0  0  0  0  0  0  0  0  0  0  0  0
  -30.1455  -12.9934   20.5344 N   0  0  0  0  0  0  0  0  0  0  0  0
  -23.3391  -12.6923   20.3256 N   0  0  0  0  0  0  0  0  0  0  0  0
  -21.0385  -14.1436   22.7064 N   0  3  0  0  0  0  0  0  0  0  0  0
  -28.2515  -26.6915   20.0359 O   0  0  0  0  0  0  0  0  0  0  0  0
  -28.5198  -13.5864   18.9762 O   0  0  0  0  0  0  0  0  0  0  0  0
  -25.8990  -11.4413   20.6270 O   0  0  0  0  0  0  0  0  0  0  0  0
  -19.8025  -22.9031   16.5313 O   0  0  0  0  0  0  0  0  0  0  0  0
  -22.6478  -14.8967   20.5247 O   0  0  0  0  0  0  0  0  0  0  0  0
  -23.8429  -32.1446   23.4144 O   0  0  0  0  0  0  0  0  0  0  0  0
  -27.3708  -19.7845   20.9175 O   0  0  0  0  0  0  0  0  0  1  0  0
  -27.5415  -36.2341   23.4442 F   0  0  0  0  0  0  0  0  0  0  0  0
  -23.1039  -34.7300   22.7725 F   0  0  0  0  0  0  0  0  0  0  0  0
  1  2  1  0  0  0  0
  1  5  2  0  0  0  0
  2  6  2  0  0  0  0
  3  9  2  0  0  0  0
  3 18  1  0  0  0  0
  4 10  1  0  0  0  0
  4 18  2  0  0  0  0
  5 20  1  0  0  0  0
  6 22  1  0  0  0  0
  7 11  2  0  0  0  0
  7 21  1  0  0  0  0
  8 14  2  0  0  0  0
  8 24  1  0  0  0  0
  9 25  1  0  0  0  0
 10 25  2  0  0  0  0
 11 26  1  0  0  0  0
 12 13  2  0  0  0  0
 12 27  1  0  0  0  0
 13 28  1  0  0  0  0
 14 31  1  0  0  0  0
 15 23  1  0  0  0  0
 15 26  2  0  0  0  0
 16 28  2  0  0  0  0
 16 29  1  0  0  0  0
 17 24  2  0  0  0  0
 17 67  1  0  0  0  0
 18 30  1  0  0  0  0
 19 30  1  0  0  0  0
 19 32  2  0  0  0  0
 19 33  1  0  0  0  0
 20 22  2  0  0  0  0
 20 38  1  0  0  0  0
 21 23  2  0  0  0  0
 21 39  1  0  0  0  0
 22 47  1  0  0  0  0
 23 40  1  0  0  0  0
 24 64  1  0  0  0  0
 25 82  1  0  0  0  0
 26 83  1  0  0  0  0
 27 29  2  0  0  0  0
 27 82  1  0  0  0  0
 28 84  1  0  0  0  0
 29 85  1  0  0  0  0
 30 68  2  0  0  0  0
 31 65  1  0  0  0  0
 31 67  2  0  0  0  0
 32 69  1  0  0  0  0
 32 72  1  0  0  0  0
 33 73  1  0  0  0  0
 33 77  2  0  0  0  0
 34 48  1  0  0  0  0
 34 74  1  0  0  0  0
 34 78  2  0  0  0  0
 35 61  1  0  0  0  0
 35 70  1  0  0  0  0
 35 79  2  0  0  0  0
 36 65  1  0  0  0  0
 36 71  1  0  0  0  0
 36 80  2  0  0  0  0
 37 62  1  0  0  0  0
 37 75  1  0  0  0  0
 37 81  2  0  0  0  0
 38 41  1  0  0  0  0
 39 48  1  0  0  0  0
 40 70  1  0  0  0  0
 41 43  1  0  0  0  0
 42 44  1  0  0  0  0
 42 45  1  0  0  0  0
 43 47  1  0  0  0  0
 44 49  1  0  0  0  0
 45 71  1  0  0  0  0
 46 49  1  0  0  0  0
 46 71  1  0  0  0  0
 47 74  1  0  0  0  0
 48 70  1  0  0  0  0
 49 69  1  0  0  0  0
 50 62  1  0  0  0  0
 51 63  1  0  0  0  0
 52 63  1  0  0  0  0
 53 64  1  0  0  0  0
 54 64  1  0  0  0  0
 55 65  1  0  0  0  0
 56 66  1  0  0  0  0
 57 66  1  0  0  0  0
 58 66  1  0  0  0  0
 59 76  1  0  0  0  0
 60 64  1  0  0  0  0
 60 83  1  0  0  0  0
 61 66  1  0  0  0  0
 61 75  1  0  0  0  0
 62 76  1  0  0  0  0
 63 65  1  0  0  0  0
 68 69  1  0  0  0  0
M  CHG  1  76   1
M  ISO  4  36 100  60 101  65 100  83 101
M  END
> <Batch ID>
0074

> <Smiles>
CNC(C)C(=O)NC(C(=O)N1Cc2cc([101O:1][101CH2:1]C(C)(C)c3ccc([100C:0](C)(C(C)C)[100C:0](=O)N4CCCC(n5nc(-c6ccc(Oc7ccc(F)cc7F)cc6)c(C(N)=O)c5N)C4)nc3)ccc2CC1C(=O)NC1CCCc2ccccc21)C(C)(C)C

> <Shape>
0.215

> <Color>
0.078

> <Negative vol penalty>
0.000

$$$$

  -OEChem-04052318293D

 84 92  0     1  0  0  0  0  0999 V2000
  -20.2117  -29.6617   23.5586 C   0  0  0  0  0  0  0  0  0  0  0  0
  -20.2338  -29.1321   22.2724 C   0  0  0  0  0  0  0  0  0  0  0  0
  -26.9130  -12.8041   20.9914 C   0  0  0  0  0  0  0  0  0  0  0  0
  -26.9514  -12.9812   18.5822 C   0  0  0  0  0  0  0  0  0  0  0  0
  -21.3432  -30.2965   24.0694 C   0  0  0  0  0  0  0  0  0  0  0  0
  -21.3871  -29.2379   21.4957 C   0  0  0  0  0  0  0  0  0  0  0  0
  -22.5426  -24.9098   19.1340 C   0  0  0  0  0  0  0  0  0  0  0  0
  -26.3232  -11.5442   20.8893 C   0  0  0  0  0  0  0  0  0  0  0  0
  -26.3617  -11.7213   18.4801 C   0  0  0  0  0  0  0  0  0  0  0  0
  -21.8103  -24.5933   17.9906 C   0  0  0  0  0  0  0  0  0  0  0  0
  -24.4780   -8.4336   21.2680 C   0  0  0  0  0  0  0  0  0  0  0  0
  -23.3993   -8.1510   22.1059 C   0  0  0  0  0  0  0  0  0  0  0  0
  -23.6221  -25.3964   16.6153 C   0  0  0  0  0  0  0  0  0  0  0  0
  -22.1663   -9.9898   21.1387 C   0  0  0  0  0  0  0  0  0  0  0  0
  -21.3374  -21.3322   16.1238 C   0  0  0  0  0  0  0  0  0  0  0  0
  -27.2270  -13.5227   19.8378 C   0  0  0  0  0  0  0  0  0  0  0  0
  -29.2117  -15.1185   19.9859 C   0  0  0  0  0  0  0  0  0  0  0  0
  -22.5140  -30.4016   23.3022 C   0  0  0  0  0  0  0  0  0  0  0  0
  -23.8178  -25.4831   19.0265 C   0  0  0  0  0  0  0  0  0  0  0  0
  -22.5348  -29.8758   21.9963 C   0  0  0  0  0  0  0  0  0  0  0  0
  -24.3696  -25.7169   17.7588 C   0  0  0  0  0  0  0  0  0  0  0  0
  -26.0477  -11.0027   19.6337 C   0  0  0  0  0  0  0  0  0  0  0  0
  -22.3489  -24.8392   16.7310 C   0  0  0  0  0  0  0  0  0  0  0  0
  -24.4009   -9.4944   20.3655 C   0  0  0  0  0  0  0  0  0  0  0  0
  -22.2434   -8.9290   22.0412 C   0  0  0  0  0  0  0  0  0  0  0  0
  -23.2451  -10.2724   20.3008 C   0  0  0  0  0  0  0  0  0  0  0  0
  -27.8357  -14.8245   19.9425 C   0  0  0  0  0  0  0  0  0  0  0  0
  -22.2254  -21.7392   15.1101 C   0  0  0  0  0  0  0  0  0  0  0  0
  -22.0416  -20.3969   16.8420 C   0  0  0  0  0  0  0  0  0  0  0  0
  -29.2673  -16.4872   20.0866 C   0  0  0  0  0  0  0  0  0  0  0  0
  -30.3388  -14.2336   19.9393 C   0  0  0  0  0  0  0  0  0  0  0  0
  -25.1220  -28.2381   19.9281 C   0  0  0  0  0  0  0  0  0  0  0  0
  -25.3864  -20.7889   18.4912 C   0  0  0  0  0  0  0  0  0  0  0  0
  -27.8523  -26.8452   18.8662 C   0  0  0  0  0  0  0  0  0  0  0  0
  -29.3226  -24.5194   16.8474 C   0  0  0  0  0  0  0  0  0  0  0  0
  -23.6966  -31.1382   23.8797 C   0  0  0  0  0  0  0  0  0  0  0  0
  -24.6058  -25.7941   20.2694 C   0  0  0  0  0  0  0  0  0  0  0  0
  -25.7427  -26.3119   17.5891 C   0  0  0  0  0  0  0  0  0  0  0  0
  -25.0012  -30.8781   23.1308 C   0  0  0  0  0  0  0  0  0  0  0  0
  -26.8017  -20.2315   21.7356 C   0  0  0  0  0  0  0  0  0  0  0  0
  -24.7844  -30.9927   21.6253 C   0  0  0  0  0  0  0  0  0  0  0  0
  -27.3269  -18.7986   21.6568 C   0  0  0  0  0  0  0  0  0  0  0  0
  -25.5176  -20.4006   20.9297 C   0  0  0  0  0  0  0  0  0  0  0  0
  -26.1634  -18.5511   19.4184 C   0  0  0  0  0  0  0  0  0  0  0  0
  -23.7751  -29.9488   21.1322 C   0  0  1  0  0  0  0  0  0  0  0  0
  -25.6842  -26.8495   20.0447 C   0  0  1  0  0  0  0  0  0  0  0  0
  -27.4765  -18.3444   20.1940 C   0  0  2  0  0  0  0  0  0  0  0  0
  -21.6667  -19.6007   18.0249 C   0  0  0  0  0  0  0  0  0  0  0  0
  -31.1576  -23.1265   15.8523 C   0  0  0  0  0  0  0  0  0  0  0  0
  -23.5558  -17.4828   15.1874 C   0  0  0  0  0  0  0  0  0  0  0  0
  -25.3912  -18.9339   14.2911 C   0  0  0  0  0  0  0  0  0  0  0  0
  -22.0701  -25.1817   13.3497 C   0  0  0  0  0  0  0  0  0  0  0  0
  -28.2838  -29.3112   17.1219 C   0  0  0  0  0  0  0  0  0  0  0  0
  -29.9628  -28.0006   15.8059 C   0  0  0  0  0  0  0  0  0  0  0  0
  -30.3506  -28.4426   18.2301 C   0  0  0  0  0  0  0  0  0  0  0  0
  -29.0355  -22.4413   18.9350 C   0  0  0  0  0  0  0  0  0  0  0  0
  -21.9758  -22.7563   14.0216 C   0  0  0  0  0  0  0  0  0  0  0  0
  -25.5978  -20.2423   17.1017 C   0  0  0  0  0  0  0  0  0  0  0  0
  -28.5743  -26.7803   17.5420 C   0  0  1  0  0  0  0  0  0  0  0  0
  -30.3991  -23.4845   17.1208 C   0  0  2  0  0  0  0  0  0  0  0  0
  -24.7427  -18.3782   15.5618 C   0  0  0  0  0  0  0  0  0  0  0  0
  -24.3597  -19.4509   16.6277 C   0  0  2  0  0  0  0  0  0  0  0  0
  -22.3776  -24.1723   14.4484 C   0  0  2  0  0  0  0  0  0  1  0  0
  -29.2662  -28.1243   17.1778 C   0  0  0  0  0  0  0  0  0  0  0  0
  -27.0722  -15.9183   20.0103 N   0  0  0  0  0  0  0  0  0  0  0  0
  -23.4039  -21.1139   15.1753 N   0  0  0  0  0  0  0  0  0  0  0  0
  -23.2613  -20.3045   16.2386 N   0  0  0  0  0  0  0  0  0  0  0  0
  -27.9717  -16.9131   20.0974 N   0  0  0  0  0  0  0  0  0  0  0  0
  -26.4713  -26.6046   18.8345 N   0  0  0  0  0  0  0  0  0  0  0  0
  -25.6943  -19.9373   19.5522 N   0  0  0  0  0  0  0  0  0  0  0  0
  -30.2976  -17.3559   20.1662 N   0  0  0  0  0  0  0  0  0  0  0  0
  -30.1029  -12.8560   19.8350 N   0  0  0  0  0  0  0  0  0  0  0  0
  -24.4010  -28.6477   21.0335 N   0  0  0  0  0  0  0  0  0  0  0  0
  -29.4849  -25.6438   17.6288 N   0  0  0  0  0  0  0  0  0  0  0  0
  -29.7929  -22.2400   17.6729 N   0  3  0  0  0  0  0  0  0  0  0  0
  -31.5199  -14.6509   20.0052 O   0  0  0  0  0  0  0  0  0  0  0  0
  -25.3284  -28.8901   18.9113 O   0  0  0  0  0  0  0  0  0  0  0  0
  -24.9630  -21.9398   18.6274 O   0  0  0  0  0  0  0  0  0  0  0  0
  -28.4912  -27.0928   19.8919 O   0  0  0  0  0  0  0  0  0  0  0  0
  -28.4295  -24.3490   16.0204 O   0  0  0  0  0  0  0  0  0  0  0  0
  -25.4725   -9.7732   19.5337 O   0  0  0  0  0  0  0  0  0  0  0  0
  -21.6360  -24.5318   15.6134 O   0  0  0  0  0  0  0  0  0  1  0  0
  -21.2070   -8.6566   22.8448 F   0  0  0  0  0  0  0  0  0  0  0  0
  -23.1646  -11.2921   19.4349 F   0  0  0  0  0  0  0  0  0  0  0  0
  1  2  1  0  0  0  0
  1  5  2  0  0  0  0
  2  6  2  0  0  0  0
  3  8  2  0  0  0  0
  3 16  1  0  0  0  0
  4  9  1  0  0  0  0
  4 16  2  0  0  0  0
  5 18  1  0  0  0  0
  6 20  1  0  0  0  0
  7 10  2  0  0  0  0
  7 19  1  0  0  0  0
  8 22  1  0  0  0  0
  9 22  2  0  0  0  0
 10 23  1  0  0  0  0
 11 12  2  0  0  0  0
 11 24  1  0  0  0  0
 12 25  1  0  0  0  0
 13 21  1  0  0  0  0
 13 23  2  0  0  0  0
 14 25  2  0  0  0  0
 14 26  1  0  0  0  0
 15 28  1  0  0  0  0
 15 29  2  0  0  0  0
 16 27  1  0  0  0  0
 17 27  1  0  0  0  0
 17 30  2  0  0  0  0
 17 31  1  0  0  0  0
 18 20  2  0  0  0  0
 18 36  1  0  0  0  0
 19 21  2  0  0  0  0
 19 37  1  0  0  0  0
 20 45  1  0  0  0  0
 21 38  1  0  0  0  0
 22 81  1  0  0  0  0
 23 82  1  0  0  0  0
 24 26  2  0  0  0  0
 24 81  1  0  0  0  0
 25 83  1  0  0  0  0
 26 84  1  0  0  0  0
 27 65  2  0  0  0  0
 28 57  1  0  0  0  0
 28 66  2  0  0  0  0
 29 48  1  0  0  0  0
 29 67  1  0  0  0  0
 30 68  1  0  0  0  0
 30 71  1  0  0  0  0
 31 72  1  0  0  0  0
 31 76  2  0  0  0  0
 32 46  1  0  0  0  0
 32 73  1  0  0  0  0
 32 77  2  0  0  0  0
 33 58  1  0  0  0  0
 33 70  1  0  0  0  0
 33 78  2  0  0  0  0
 34 59  1  0  0  0  0
 34 69  1  0  0  0  0
 34 79  2  0  0  0  0
 35 60  1  0  0  0  0
 35 74  1  0  0  0  0
 35 80  2  0  0  0  0
 36 39  1  0  0  0  0
 37 46  1  0  0  0  0
 38 69  1  0  0  0  0
 39 41  1  0  0  0  0
 40 42  1  0  0  0  0
 40 43  1  0  0  0  0
 41 45  1  0  0  0  0
 42 47  1  0  0  0  0
 43 70  1  0  0  0  0
 44 47  1  0  0  0  0
 44 70  1  0  0  0  0
 45 73  1  0  0  0  0
 46 69  1  0  0  0  0
 47 68  1  0  0  0  0
 49 60  1  0  0  0  0
 50 61  1  0  0  0  0
 51 61  1  0  0  0  0
 52 63  1  0  0  0  0
 53 64  1  0  0  0  0
 54 64  1  0  0  0  0
 55 64  1  0  0  0  0
 56 75  1  0  0  0  0
 57 63  1  0  0  0  0
 58 62  1  0  0  0  0
 59 64  1  0  0  0  0
 59 74  1  0  0  0  0
 60 75  1  0  0  0  0
 61 62  1  0  0  0  0
 62 67  1  0  0  0  0
 63 82  1  0  0  0  0
 65 68  1  0  0  0  0
 66 67  1  0  0  0  0
M  CHG  1  75   1
M  ISO  4  33 100  58 100  63 101  82 101
M  END
> <Batch ID>
0074

> <Smiles>
CNC(C)C(=O)NC(C(=O)N1Cc2cc([101O:1][101CH:1](C)Cc3cc(C)n(C([100CH2:0][100C:0](=O)N4CCCC(n5nc(-c6ccc(Oc7ccc(F)cc7F)cc6)c(C(N)=O)c5N)C4)C(C)C)n3)ccc2CC1C(=O)NC1CCCc2ccccc21)C(C)(C)C

> <Shape>
0.219

> <Color>
0.073

> <Negative vol penalty>
0.000

$$$$

  -OEChem-04052318293D

 83 91  0     1  0  0  0  0  0999 V2000
  -16.1186  -24.8370   22.0148 C   0  0  0  0  0  0  0  0  0  0  0  0
  -17.1341  -24.3674   21.1880 C   0  0  0  0  0  0  0  0  0  0  0  0
  -25.7656  -13.4082   18.5236 C   0  0  0  0  0  0  0  0  0  0  0  0
  -25.0454  -13.7490   20.8044 C   0  0  0  0  0  0  0  0  0  0  0  0
  -16.1277  -26.1636   22.4436 C   0  0  0  0  0  0  0  0  0  0  0  0
  -18.1588  -25.2247   20.7885 C   0  0  0  0  0  0  0  0  0  0  0  0
  -24.0327  -23.7602   19.8622 C   0  0  0  0  0  0  0  0  0  0  0  0
  -25.7696  -12.0289   18.7309 C   0  0  0  0  0  0  0  0  0  0  0  0
  -25.0493  -12.3696   21.0117 C   0  0  0  0  0  0  0  0  0  0  0  0
  -24.7568  -23.4733   18.7058 C   0  0  0  0  0  0  0  0  0  0  0  0
  -24.5219   -8.9209   22.0347 C   0  0  0  0  0  0  0  0  0  0  0  0
  -23.4308   -8.3612   22.6994 C   0  0  0  0  0  0  0  0  0  0  0  0
  -25.5022  -25.7656   18.6112 C   0  0  0  0  0  0  0  0  0  0  0  0
  -21.9571   -9.1776   20.9677 C   0  0  0  0  0  0  0  0  0  0  0  0
  -30.7902  -23.4132   20.2541 C   0  0  0  0  0  0  0  0  0  0  0  0
  -25.4035  -14.2683   19.5603 C   0  0  0  0  0  0  0  0  0  0  0  0
  -24.3266  -16.4817   18.8904 C   0  0  0  0  0  0  0  0  0  0  0  0
  -17.1582  -27.0350   22.0570 C   0  0  0  0  0  0  0  0  0  0  0  0
  -24.0292  -25.0567   20.3965 C   0  0  0  0  0  0  0  0  0  0  0  0
  -18.1810  -26.5646   21.2114 C   0  0  0  0  0  0  0  0  0  0  0  0
  -24.7794  -26.0657   19.7758 C   0  0  0  0  0  0  0  0  0  0  0  0
  -25.4114  -11.5096   19.9750 C   0  0  0  0  0  0  0  0  0  0  0  0
  -25.4894  -24.4767   18.0785 C   0  0  0  0  0  0  0  0  0  0  0  0
  -24.3306   -9.6091   20.8366 C   0  0  0  0  0  0  0  0  0  0  0  0
  -22.1484   -8.4894   22.1659 C   0  0  0  0  0  0  0  0  0  0  0  0
  -23.0482   -9.7374   20.3031 C   0  0  0  0  0  0  0  0  0  0  0  0
  -25.3998  -15.6933   19.3470 C   0  0  0  0  0  0  0  0  0  0  0  0
  -31.4050  -23.5769   19.0296 C   0  0  0  0  0  0  0  0  0  0  0  0
  -29.4618  -23.0421   20.2103 C   0  0  0  0  0  0  0  0  0  0  0  0
  -24.8285  -17.7598   18.8589 C   0  0  0  0  0  0  0  0  0  0  0  0
  -29.4868  -23.0340   17.9374 C   0  0  0  0  0  0  0  0  0  0  0  0
  -22.9949  -16.0934   18.5275 C   0  0  0  0  0  0  0  0  0  0  0  0
  -21.7988  -27.2589   20.9252 C   0  0  0  0  0  0  0  0  0  0  0  0
  -24.2447  -28.8301   22.3644 C   0  0  0  0  0  0  0  0  0  0  0  0
  -27.6266  -21.8061   21.3239 C   0  0  0  0  0  0  0  0  0  0  0  0
  -27.6118  -29.3056   22.6530 C   0  0  0  0  0  0  0  0  0  0  0  0
  -17.0999  -28.4732   22.5074 C   0  0  0  0  0  0  0  0  0  0  0  0
  -23.2645  -25.3436   21.6596 C   0  0  0  0  0  0  0  0  0  0  0  0
  -24.8249  -27.4691   20.3208 C   0  0  0  0  0  0  0  0  0  0  0  0
  -18.4230  -29.2168   22.3437 C   0  0  0  0  0  0  0  0  0  0  0  0
  -29.5603  -19.4620   19.3257 C   0  0  0  0  0  0  0  0  0  0  0  0
  -19.0192  -28.9484   20.9655 C   0  0  0  0  0  0  0  0  0  0  0  0
  -28.5617  -18.3199   19.1428 C   0  0  0  0  0  0  0  0  0  0  0  0
  -29.4195  -20.1165   20.6975 C   0  0  0  0  0  0  0  0  0  0  0  0
  -27.0367  -19.4581   20.8137 C   0  0  0  0  0  0  0  0  0  0  0  0
  -19.3230  -27.4572   20.7767 C   0  0  1  0  0  0  0  0  0  0  0  0
  -22.9183  -26.8200   21.8262 C   0  0  1  0  0  0  0  0  0  0  0  0
  -27.1255  -18.7911   19.4309 C   0  0  2  0  0  0  0  0  0  0  0  0
  -32.8414  -23.9768   18.9756 C   0  0  0  0  0  0  0  0  0  0  0  0
  -29.7660  -30.2026   23.5762 C   0  0  0  0  0  0  0  0  0  0  0  0
  -28.0337  -24.1573   21.9452 C   0  0  0  0  0  0  0  0  0  0  0  0
  -29.5460  -22.3157   22.6906 C   0  0  0  0  0  0  0  0  0  0  0  0
  -23.5904  -31.2210   20.5852 C   0  0  0  0  0  0  0  0  0  0  0  0
  -25.8344  -32.1723   21.1575 C   0  0  0  0  0  0  0  0  0  0  0  0
  -24.1431  -31.8034   22.9536 C   0  0  0  0  0  0  0  0  0  0  0  0
  -27.8096  -27.1155   24.6338 C   0  0  0  0  0  0  0  0  0  0  0  0
  -28.7553  -22.8173   16.6368 C   0  0  0  0  0  0  0  0  0  0  0  0
  -28.3649  -24.1150   15.9260 C   0  0  0  0  0  0  0  0  0  0  0  0
  -27.3788  -24.9647   16.7191 C   0  0  0  0  0  0  0  0  0  1  0  0
  -25.2990  -29.8110   21.9114 C   0  0  1  0  0  0  0  0  0  0  0  0
  -28.5172  -29.3856   23.8689 C   0  0  2  0  0  0  0  0  0  0  0  0
  -28.7129  -22.8395   21.4849 C   0  0  0  0  0  0  0  0  0  0  0  0
  -24.7145  -31.2261   21.6403 C   0  0  0  0  0  0  0  0  0  0  0  0
  -26.5005  -16.4105   19.5879 N   0  0  0  0  0  0  0  0  0  0  0  0
  -30.7811  -23.3949   17.8472 N   0  0  0  0  0  0  0  0  0  0  0  0
  -28.7763  -22.8434   19.0654 N   0  0  0  0  0  0  0  0  0  0  0  0
  -26.1216  -17.6630   19.2816 N   0  0  0  0  0  0  0  0  0  0  0  0
  -24.0556  -27.7014   21.5544 N   0  0  0  0  0  0  0  0  0  0  0  0
  -28.0319  -20.5262   20.9447 N   0  0  0  0  0  0  0  0  0  0  0  0
  -24.2855  -18.9457   18.5109 N   0  0  0  0  0  0  0  0  0  0  0  0
  -22.6455  -14.7392   18.6187 N   0  0  0  0  0  0  0  0  0  0  0  0
  -20.5402  -27.0974   21.4721 N   0  0  0  0  0  0  0  0  0  0  0  0
  -26.3468  -29.7816   22.9261 N   0  0  0  0  0  0  0  0  0  0  0  0
  -28.9376  -28.0199   24.2923 N   0  3  0  0  0  0  0  0  0  0  0  0
  -22.1452  -16.9205   18.1182 O   0  0  0  0  0  0  0  0  0  0  0  0
  -22.0579  -27.7119   19.8164 O   0  0  0  0  0  0  0  0  0  0  0  0
  -23.6171  -29.0534   23.4026 O   0  0  0  0  0  0  0  0  0  0  0  0
  -26.4533  -22.1294   21.5268 O   0  0  0  0  0  0  0  0  0  0  0  0
  -27.9900  -28.8684   21.5685 O   0  0  0  0  0  0  0  0  0  0  0  0
  -25.4150  -10.1637   20.1775 O   0  0  0  0  0  0  0  0  0  0  0  0
  -26.1965  -24.1995   16.9493 O   0  0  0  0  0  0  0  0  0  1  0  0
  -21.1010   -7.9505   22.8034 F   0  0  0  0  0  0  0  0  0  0  0  0
  -22.8584  -10.3964   19.1518 F   0  0  0  0  0  0  0  0  0  0  0  0
  1  2  1  0  0  0  0
  1  5  2  0  0  0  0
  2  6  2  0  0  0  0
  3  8  2  0  0  0  0
  3 16  1  0  0  0  0
  4  9  1  0  0  0  0
  4 16  2  0  0  0  0
  5 18  1  0  0  0  0
  6 20  1  0  0  0  0
  7 10  2  0  0  0  0
  7 19  1  0  0  0  0
  8 22  1  0  0  0  0
  9 22  2  0  0  0  0
 10 23  1  0  0  0  0
 11 12  2  0  0  0  0
 11 24  1  0  0  0  0
 12 25  1  0  0  0  0
 13 21  1  0  0  0  0
 13 23  2  0  0  0  0
 14 25  2  0  0  0  0
 14 26  1  0  0  0  0
 15 28  1  0  0  0  0
 15 29  2  0  0  0  0
 16 27  1  0  0  0  0
 17 27  1  0  0  0  0
 17 30  2  0  0  0  0
 17 32  1  0  0  0  0
 18 20  2  0  0  0  0
 18 37  1  0  0  0  0
 19 21  2  0  0  0  0
 19 38  1  0  0  0  0
 20 46  1  0  0  0  0
 21 39  1  0  0  0  0
 22 80  1  0  0  0  0
 23 81  1  0  0  0  0
 24 26  2  0  0  0  0
 24 80  1  0  0  0  0
 25 82  1  0  0  0  0
 26 83  1  0  0  0  0
 27 64  2  0  0  0  0
 28 49  1  0  0  0  0
 28 65  2  0  0  0  0
 29 62  1  0  0  0  0
 29 66  1  0  0  0  0
 30 67  1  0  0  0  0
 30 70  1  0  0  0  0
 31 57  1  0  0  0  0
 31 65  1  0  0  0  0
 31 66  2  0  0  0  0
 32 71  1  0  0  0  0
 32 75  2  0  0  0  0
 33 47  1  0  0  0  0
 33 72  1  0  0  0  0
 33 76  2  0  0  0  0
 34 60  1  0  0  0  0
 34 68  1  0  0  0  0
 34 77  2  0  0  0  0
 35 62  1  0  0  0  0
 35 69  1  0  0  0  0
 35 78  2  0  0  0  0
 36 61  1  0  0  0  0
 36 73  1  0  0  0  0
 36 79  2  0  0  0  0
 37 40  1  0  0  0  0
 38 47  1  0  0  0  0
 39 68  1  0  0  0  0
 40 42  1  0  0  0  0
 41 43  1  0  0  0  0
 41 44  1  0  0  0  0
 42 46  1  0  0  0  0
 43 48  1  0  0  0  0
 44 69  1  0  0  0  0
 45 48  1  0  0  0  0
 45 69  1  0  0  0  0
 46 72  1  0  0  0  0
 47 68  1  0  0  0  0
 48 67  1  0  0  0  0
 50 61  1  0  0  0  0
 51 62  1  0  0  0  0
 52 62  1  0  0  0  0
 53 63  1  0  0  0  0
 54 63  1  0  0  0  0
 55 63  1  0  0  0  0
 56 74  1  0  0  0  0
 57 58  1  0  0  0  0
 58 59  1  0  0  0  0
 59 81  1  0  0  0  0
 60 63  1  0  0  0  0
 60 73  1  0  0  0  0
 61 74  1  0  0  0  0
 64 67  1  0  0  0  0
M  CHG  1  74   1
M  ISO  4  35 100  59 101  62 100  81 101
M  END
> <Batch ID>
0074

> <Smiles>
CNC(C)C(=O)NC(C(=O)N1Cc2cc([101O:1][101CH2:1]CCc3nc(C)cc([100C:0](C)(C)[100C:0](=O)N4CCCC(n5nc(-c6ccc(Oc7ccc(F)cc7F)cc6)c(C(N)=O)c5N)C4)n3)ccc2CC1C(=O)NC1CCCc2ccccc21)C(C)(C)C

> <Shape>
0.255

> <Color>
0.063

> <Negative vol penalty>
0.000

$$$$

  -OEChem-04052318293D

 85 92  0     1  0  0  0  0  0999 V2000
  -19.7103  -30.4100   20.0266 C   0  0  0  0  0  0  0  0  0  0  0  0
  -21.0490  -30.0674   20.1875 C   0  0  0  0  0  0  0  0  0  0  0  0
  -28.2045  -14.8595   21.4767 C   0  0  0  0  0  0  0  0  0  0  0  0
  -28.4098  -14.5258   19.0927 C   0  0  0  0  0  0  0  0  0  0  0  0
  -18.7278  -29.7369   20.7516 C   0  0  0  0  0  0  0  0  0  0  0  0
  -21.4061  -29.0523   21.0743 C   0  0  0  0  0  0  0  0  0  0  0  0
  -24.8294  -25.8763   19.1150 C   0  0  0  0  0  0  0  0  0  0  0  0
  -27.3357  -13.7710   21.5543 C   0  0  0  0  0  0  0  0  0  0  0  0
  -27.5411  -13.4373   19.1703 C   0  0  0  0  0  0  0  0  0  0  0  0
  -26.1549  -26.3075   19.0862 C   0  0  0  0  0  0  0  0  0  0  0  0
  -24.7806  -11.3005   22.3236 C   0  0  0  0  0  0  0  0  0  0  0  0
  -23.6234  -11.4456   23.0887 C   0  0  0  0  0  0  0  0  0  0  0  0
  -26.6168  -25.0002   21.0602 C   0  0  0  0  0  0  0  0  0  0  0  0
  -22.9200  -13.2763   21.6777 C   0  0  0  0  0  0  0  0  0  0  0  0
  -28.7415  -15.2369   20.2459 C   0  0  0  0  0  0  0  0  0  0  0  0
  -31.0407  -16.3412   20.2886 C   0  0  0  0  0  0  0  0  0  0  0  0
  -19.0722  -28.7065   21.6406 C   0  0  0  0  0  0  0  0  0  0  0  0
  -24.3842  -25.0109   20.1247 C   0  0  0  0  0  0  0  0  0  0  0  0
  -20.4274  -28.3658   21.8129 C   0  0  0  0  0  0  0  0  0  0  0  0
  -25.2858  -24.5574   21.0982 C   0  0  0  0  0  0  0  0  0  0  0  0
  -27.0040  -13.0599   20.4011 C   0  0  0  0  0  0  0  0  0  0  0  0
  -27.0482  -25.8718   20.0606 C   0  0  0  0  0  0  0  0  0  0  0  0
  -25.0075  -12.1434   21.2355 C   0  0  0  0  0  0  0  0  0  0  0  0
  -22.6931  -12.4335   22.7658 C   0  0  0  0  0  0  0  0  0  0  0  0
  -24.0772  -13.1312   20.9126 C   0  0  0  0  0  0  0  0  0  0  0  0
  -29.6385  -16.3616   20.1651 C   0  0  0  0  0  0  0  0  0  0  0  0
  -31.4180  -17.6531   20.1366 C   0  0  0  0  0  0  0  0  0  0  0  0
  -31.9234  -15.2352   20.5199 C   0  0  0  0  0  0  0  0  0  0  0  0
  -22.2183  -25.1960   22.4437 C   0  0  0  0  0  0  0  0  0  0  0  0
  -22.9839  -22.0736   22.8758 C   0  0  0  0  0  0  0  0  0  0  0  0
  -25.2739  -19.5723   22.4933 C   0  0  0  0  0  0  0  0  0  0  0  0
  -31.1210  -22.4062   17.4409 C   0  0  0  0  0  0  0  0  0  0  0  0
  -17.9791  -28.0397   22.4375 C   0  0  0  0  0  0  0  0  0  0  0  0
  -22.9578  -24.5338   20.1263 C   0  0  0  0  0  0  0  0  0  0  0  0
  -24.8629  -23.6120   22.1917 C   0  0  0  0  0  0  0  0  0  0  0  0
  -18.4090  -26.7223   23.0777 C   0  0  0  0  0  0  0  0  0  0  0  0
  -28.6501  -21.8862   20.0335 C   0  0  0  0  0  0  0  0  0  0  0  0
  -19.7644  -26.8776   23.7601 C   0  0  0  0  0  0  0  0  0  0  0  0
  -28.8075  -20.3895   20.3079 C   0  0  0  0  0  0  0  0  0  0  0  0
  -28.8141  -22.1963   18.5485 C   0  0  0  0  0  0  0  0  0  0  0  0
  -30.2548  -20.2223   18.2302 C   0  0  0  0  0  0  0  0  0  0  0  0
  -20.8523  -27.2534   22.7468 C   0  0  1  0  0  0  0  0  0  0  0  0
  -22.4878  -24.0598   21.4981 C   0  0  1  0  0  0  0  0  0  0  0  0
  -30.1223  -19.8468   19.7173 C   0  0  2  0  0  0  0  0  0  0  0  0
  -30.4730  -27.3063   15.6963 C   0  0  0  0  0  0  0  0  0  0  0  0
  -25.6300  -17.1362   22.9792 C   0  0  0  0  0  0  0  0  0  0  0  0
  -23.5090  -22.7375   25.8073 C   0  0  0  0  0  0  0  0  0  0  0  0
  -24.7402  -20.5666   26.0062 C   0  0  0  0  0  0  0  0  0  0  0  0
  -22.3142  -20.5739   25.4255 C   0  0  0  0  0  0  0  0  0  0  0  0
  -33.3871  -26.5933   16.8025 C   0  0  0  0  0  0  0  0  0  0  0  0
  -33.1067  -25.0754   18.7856 C   0  0  0  0  0  0  0  0  0  0  0  0
  -29.6321  -28.3345   21.6165 C   0  0  0  0  0  0  0  0  0  0  0  0
  -29.9396  -29.7088   19.5803 C   0  0  0  0  0  0  0  0  0  0  0  0
  -31.4613  -26.3487   20.7945 C   0  0  0  0  0  0  0  0  0  0  0  0
  -32.4748  -28.3483   19.7769 C   0  0  0  0  0  0  0  0  0  0  0  0
  -25.5424  -18.9192   19.6193 C   0  0  0  0  0  0  0  0  0  0  0  0
  -30.7607  -27.8283   17.1052 C   0  0  0  0  0  0  0  0  0  0  0  0
  -31.8533  -24.6583   16.7001 C   0  0  0  0  0  0  0  0  0  0  0  0
  -28.5906  -27.5873   19.4830 C   0  0  0  0  0  0  0  0  0  1  0  0
  -24.0035  -21.3272   23.7019 C   0  0  1  0  0  0  0  0  0  0  0  0
  -25.1398  -18.1561   21.9633 C   0  0  2  0  0  0  0  0  0  0  0  0
  -31.1420  -26.7393   18.1796 C   0  0  1  0  0  0  0  0  0  0  0  0
  -23.6495  -21.3206   25.2159 C   0  0  0  0  0  0  0  0  0  0  0  0
  -32.3550  -25.8047   17.6404 C   0  0  0  0  0  0  0  0  0  0  0  0
  -29.8754  -28.2427   20.0924 C   0  0  0  0  0  0  0  0  0  0  0  0
  -31.2357  -27.4094   19.6848 C   0  0  0  0  0  0  0  0  0  0  0  0
  -29.1576  -17.5892   19.9514 N   0  0  0  0  0  0  0  0  0  0  0  0
  -30.2637  -18.3524   19.9394 N   0  0  0  0  0  0  0  0  0  0  0  0
  -23.4563  -23.1789   22.1541 N   0  0  0  0  0  0  0  0  0  0  0  0
  -30.0935  -21.6693   18.0530 N   0  0  0  0  0  0  0  0  0  0  0  0
  -32.6210  -18.2652   20.1538 N   0  0  0  0  0  0  0  0  0  0  0  0
  -31.3694  -13.9546   20.6521 N   0  0  0  0  0  0  0  0  0  0  0  0
  -21.2649  -26.0890   21.9930 N   0  0  0  0  0  0  0  0  0  0  0  0
  -24.1162  -19.9991   23.1088 N   0  0  0  0  0  0  0  0  0  0  0  0
  -30.8866  -23.7690   17.3047 N   0  0  0  0  0  0  0  0  0  0  0  0
  -25.9345  -17.9935   20.7131 N   0  3  0  0  0  0  0  0  0  0  0  0
  -33.1650  -15.3806   20.6230 O   0  0  0  0  0  0  0  0  0  0  0  0
  -22.8289  -25.2570   23.5045 O   0  0  0  0  0  0  0  0  0  0  0  0
  -21.8130  -21.6857   22.8655 O   0  0  0  0  0  0  0  0  0  0  0  0
  -26.3041  -20.2324   22.3766 O   0  0  0  0  0  0  0  0  0  0  0  0
  -32.1726  -21.8886   17.0492 O   0  0  0  0  0  0  0  0  0  0  0  0
  -26.1565  -11.9975   20.4764 O   0  0  0  0  0  0  0  0  0  0  0  0
  -28.3493  -26.2939   20.0350 O   0  0  0  0  0  0  0  0  0  1  0  0
  -21.5811  -12.5717   23.4997 F   0  0  0  0  0  0  0  0  0  0  0  0
  -24.2891  -13.9431   19.8677 F   0  0  0  0  0  0  0  0  0  0  0  0
  1  2  1  0  0  0  0
  1  5  2  0  0  0  0
  2  6  2  0  0  0  0
  3  8  2  0  0  0  0
  3 15  1  0  0  0  0
  4  9  1  0  0  0  0
  4 15  2  0  0  0  0
  5 17  1  0  0  0  0
  6 19  1  0  0  0  0
  7 10  2  0  0  0  0
  7 18  1  0  0  0  0
  8 21  1  0  0  0  0
  9 21  2  0  0  0  0
 10 22  1  0  0  0  0
 11 12  2  0  0  0  0
 11 23  1  0  0  0  0
 12 24  1  0  0  0  0
 13 20  1  0  0  0  0
 13 22  2  0  0  0  0
 14 24  2  0  0  0  0
 14 25  1  0  0  0  0
 15 26  1  0  0  0  0
 16 26  1  0  0  0  0
 16 27  2  0  0  0  0
 16 28  1  0  0  0  0
 17 19  2  0  0  0  0
 17 33  1  0  0  0  0
 18 20  2  0  0  0  0
 18 34  1  0  0  0  0
 19 42  1  0  0  0  0
 20 35  1  0  0  0  0
 21 82  1  0  0  0  0
 22 83  1  0  0  0  0
 23 25  2  0  0  0  0
 23 82  1  0  0  0  0
 24 84  1  0  0  0  0
 25 85  1  0  0  0  0
 26 67  2  0  0  0  0
 27 68  1  0  0  0  0
 27 71  1  0  0  0  0
 28 72  1  0  0  0  0
 28 77  2  0  0  0  0
 29 43  1  0  0  0  0
 29 73  1  0  0  0  0
 29 78  2  0  0  0  0
 30 60  1  0  0  0  0
 30 69  1  0  0  0  0
 30 79  2  0  0  0  0
 31 61  1  0  0  0  0
 31 74  1  0  0  0  0
 31 80  2  0  0  0  0
 32 70  1  0  0  0  0
 32 75  1  0  0  0  0
 32 81  2  0  0  0  0
 33 36  1  0  0  0  0
 34 43  1  0  0  0  0
 35 69  1  0  0  0  0
 36 38  1  0  0  0  0
 37 39  1  0  0  0  0
 37 40  1  0  0  0  0
 38 42  1  0  0  0  0
 39 44  1  0  0  0  0
 40 70  1  0  0  0  0
 41 44  1  0  0  0  0
 41 70  1  0  0  0  0
 42 73  1  0  0  0  0
 43 69  1  0  0  0  0
 44 68  1  0  0  0  0
 45 57  1  0  0  0  0
 46 61  1  0  0  0  0
 47 63  1  0  0  0  0
 48 63  1  0  0  0  0
 49 63  1  0  0  0  0
 50 64  1  0  0  0  0
 51 64  1  0  0  0  0
 52 65  1  0  0  0  0
 53 65  1  0  0  0  0
 54 66  1  0  0  0  0
 55 66  1  0  0  0  0
 56 76  1  0  0  0  0
 57 62  1  0  0  0  0
 58 64  1  0  0  0  0
 58 75  1  0  0  0  0
 59 65  1  0  0  0  0
 59 83  1  0  0  0  0
 60 63  1  0  0  0  0
 60 74  1  0  0  0  0
 61 76  1  0  0  0  0
 62 64  1  0  0  0  0
 62 66  1  0  0  0  0
 65 66  1  0  0  0  0
 67 68  1  0  0  0  0
M  CHG  1  76   1
M  ISO  4  32 100  59 101  75 100  83 101
M  END
> <Batch ID>
0074

> <Smiles>
CCC(C(C)(C)C[100NH:0][100C:0](=O)N1CCCC(n2nc(-c3ccc(Oc4ccc(F)cc4F)cc3)c(C(N)=O)c2N)C1)C(C)(C)C(C)(C)[101CH2:1][101O:1]c1ccc2c(c1)CN(C(=O)C(NC(=O)C(C)NC)C(C)(C)C)C(C(=O)NC1CCCc3ccccc31)C2

> <Shape>
0.222

> <Color>
0.051

> <Negative vol penalty>
0.000

$$$$

  -OEChem-04052318293D

 85 93  0     1  0  0  0  0  0999 V2000
  -16.7563  -29.0534   24.1401 C   0  0  0  0  0  0  0  0  0  0  0  0
  -17.5269  -28.0099   23.6375 C   0  0  0  0  0  0  0  0  0  0  0  0
  -26.8844  -17.9429   19.8407 C   0  0  0  0  0  0  0  0  0  0  0  0
  -28.8877  -17.5276   18.5556 C   0  0  0  0  0  0  0  0  0  0  0  0
  -17.0997  -30.3736   23.8518 C   0  0  0  0  0  0  0  0  0  0  0  0
  -18.6408  -28.2859   22.8454 C   0  0  0  0  0  0  0  0  0  0  0  0
  -22.6772  -25.5133   24.1357 C   0  0  0  0  0  0  0  0  0  0  0  0
  -26.5825  -16.5815   19.8101 C   0  0  0  0  0  0  0  0  0  0  0  0
  -28.5858  -16.1661   18.5251 C   0  0  0  0  0  0  0  0  0  0  0  0
  -22.7053  -24.1889   23.7009 C   0  0  0  0  0  0  0  0  0  0  0  0
  -28.5307  -12.5325   18.4168 C   0  0  0  0  0  0  0  0  0  0  0  0
  -29.5642  -11.6323   18.6761 C   0  0  0  0  0  0  0  0  0  0  0  0
  -24.1770  -24.8187   21.8964 C   0  0  0  0  0  0  0  0  0  0  0  0
  -29.8678  -12.6110   20.8640 C   0  0  0  0  0  0  0  0  0  0  0  0
  -28.0370  -18.4160   19.2134 C   0  0  0  0  0  0  0  0  0  0  0  0
  -27.5673  -20.8779   18.7379 C   0  0  0  0  0  0  0  0  0  0  0  0
  -18.2239  -30.6663   23.0637 C   0  0  0  0  0  0  0  0  0  0  0  0
  -23.3913  -26.5039   23.4464 C   0  0  0  0  0  0  0  0  0  0  0  0
  -18.9988  -29.6112   22.5452 C   0  0  0  0  0  0  0  0  0  0  0  0
  -24.1584  -26.1545   22.3259 C   0  0  0  0  0  0  0  0  0  0  0  0
  -27.4332  -15.6931   19.1523 C   0  0  0  0  0  0  0  0  0  0  0  0
  -23.4529  -23.8419   22.5794 C   0  0  0  0  0  0  0  0  0  0  0  0
  -28.1658  -13.4720   19.3811 C   0  0  0  0  0  0  0  0  0  0  0  0
  -30.2327  -11.6716   19.8997 C   0  0  0  0  0  0  0  0  0  0  0  0
  -28.8343  -13.5113   20.6047 C   0  0  0  0  0  0  0  0  0  0  0  0
  -28.3491  -19.8223   19.2441 C   0  0  0  0  0  0  0  0  0  0  0  0
  -26.1557  -20.8412   23.9102 C   0  0  0  0  0  0  0  0  0  0  0  0
  -27.4640  -20.4254   23.8332 C   0  0  0  0  0  0  0  0  0  0  0  0
  -28.2974  -22.0083   19.0125 C   0  0  0  0  0  0  0  0  0  0  0  0
  -27.2512  -22.1769   25.1537 C   0  0  0  0  0  0  0  0  0  0  0  0
  -26.2947  -20.8400   18.0785 C   0  0  0  0  0  0  0  0  0  0  0  0
  -22.6058  -29.1582   21.8839 C   0  0  0  0  0  0  0  0  0  0  0  0
  -25.8220  -29.5430   21.7105 C   0  0  0  0  0  0  0  0  0  0  0  0
  -32.4801  -23.1727   23.1671 C   0  0  0  0  0  0  0  0  0  0  0  0
  -28.9181  -28.1082   21.7549 C   0  0  0  0  0  0  0  0  0  0  0  0
  -18.5282  -32.1075   22.7399 C   0  0  0  0  0  0  0  0  0  0  0  0
  -23.3722  -27.9233   23.9439 C   0  0  0  0  0  0  0  0  0  0  0  0
  -24.9590  -27.1769   21.5628 C   0  0  0  0  0  0  0  0  0  0  0  0
  -19.9405  -32.3262   22.2032 C   0  0  0  0  0  0  0  0  0  0  0  0
  -32.7886  -23.5202   19.6141 C   0  0  0  0  0  0  0  0  0  0  0  0
  -20.2698  -31.2930   21.1304 C   0  0  0  0  0  0  0  0  0  0  0  0
  -31.6311  -22.6841   19.0698 C   0  0  0  0  0  0  0  0  0  0  0  0
  -33.3772  -22.9027   20.8787 C   0  0  0  0  0  0  0  0  0  0  0  0
  -31.2161  -21.8254   21.4183 C   0  0  0  0  0  0  0  0  0  0  0  0
  -20.2288  -29.8710   21.7028 C   0  0  1  0  0  0  0  0  0  0  0  0
  -23.7247  -28.9402   22.8627 C   0  0  1  0  0  0  0  0  0  0  0  0
  -30.5728  -22.4305   20.1580 C   0  0  2  0  0  0  0  0  0  0  0  0
  -28.1030  -19.3206   23.0959 C   0  0  0  0  0  0  0  0  0  0  0  0
  -27.6514  -23.2598   26.0758 C   0  0  0  0  0  0  0  0  0  0  0  0
  -31.3545  -28.6739   21.5519 C   0  0  0  0  0  0  0  0  0  0  0  0
  -32.4514  -20.9851   24.3241 C   0  0  0  0  0  0  0  0  0  0  0  0
  -32.1680  -23.1271   25.5906 C   0  0  0  0  0  0  0  0  0  0  0  0
  -25.4969  -29.8490   18.6921 C   0  0  0  0  0  0  0  0  0  0  0  0
  -27.9586  -29.4571   18.4574 C   0  0  0  0  0  0  0  0  0  0  0  0
  -27.1281  -31.4343   19.7317 C   0  0  0  0  0  0  0  0  0  0  0  0
  -29.4966  -27.1076   24.4795 C   0  0  0  0  0  0  0  0  0  0  0  0
  -24.9447  -20.2569   23.2278 C   0  0  0  0  0  0  0  0  0  0  0  0
  -24.8408  -20.6157   21.7439 C   0  0  0  0  0  0  0  0  0  0  0  0
  -30.3065  -22.3585   24.0888 C   0  0  0  0  0  0  0  0  0  0  0  0
  -29.5766  -21.2699   24.8886 C   0  0  0  0  0  0  0  0  0  0  0  0
  -24.6687  -22.1096   21.4946 C   0  0  0  0  0  0  0  0  0  1  0  0
  -26.8977  -29.1259   20.7369 C   0  0  1  0  0  0  0  0  0  0  0  0
  -30.1866  -28.4728   22.5049 C   0  0  2  0  0  0  0  0  0  0  0  0
  -31.8395  -22.3891   24.2850 C   0  0  0  0  0  0  0  0  0  0  0  0
  -26.8538  -29.9474   19.4175 C   0  0  0  0  0  0  0  0  0  0  0  0
  -29.4887  -20.2445   19.7982 N   0  0  0  0  0  0  0  0  0  0  0  0
  -26.0299  -21.9320   24.7335 N   0  0  0  0  0  0  0  0  0  0  0  0
  -28.1539  -21.2909   24.6346 N   0  0  0  0  0  0  0  0  0  0  0  0
  -29.4284  -21.5779   19.6417 N   0  0  0  0  0  0  0  0  0  0  0  0
  -24.9031  -28.5524   22.0847 N   0  0  0  0  0  0  0  0  0  0  0  0
  -32.3369  -22.6566   21.8791 N   0  0  0  0  0  0  0  0  0  0  0  0
  -28.0761  -23.3186   18.7746 N   0  0  0  0  0  0  0  0  0  0  0  0
  -26.2690  -20.7202   16.6823 N   0  0  0  0  0  0  0  0  0  0  0  0
  -21.4300  -29.5970   22.4621 N   0  0  0  0  0  0  0  0  0  0  0  0
  -28.1616  -29.2224   21.4591 N   0  0  0  0  0  0  0  0  0  0  0  0
  -30.5467  -27.3945   23.4685 N   0  3  0  0  0  0  0  0  0  0  0  0
  -25.2127  -20.9267   18.7072 O   0  0  0  0  0  0  0  0  0  0  0  0
  -22.7955  -28.9455   20.6920 O   0  0  0  0  0  0  0  0  0  0  0  0
  -25.8022  -30.7032   22.1293 O   0  0  0  0  0  0  0  0  0  0  0  0
  -33.0867  -24.2138   23.4325 O   0  0  0  0  0  0  0  0  0  0  0  0
  -28.6292  -26.9512   21.4577 O   0  0  0  0  0  0  0  0  0  0  0  0
  -27.1391  -14.3645   19.1225 O   0  0  0  0  0  0  0  0  0  0  0  0
  -23.4815  -22.5501   22.1526 O   0  0  0  0  0  0  0  0  0  1  0  0
  -31.2241  -10.8061   20.1491 F   0  0  0  0  0  0  0  0  0  0  0  0
  -28.4874  -14.4108   21.5354 F   0  0  0  0  0  0  0  0  0  0  0  0
  1  2  1  0  0  0  0
  1  5  2  0  0  0  0
  2  6  2  0  0  0  0
  3  8  2  0  0  0  0
  3 15  1  0  0  0  0
  4  9  1  0  0  0  0
  4 15  2  0  0  0  0
  5 17  1  0  0  0  0
  6 19  1  0  0  0  0
  7 10  2  0  0  0  0
  7 18  1  0  0  0  0
  8 21  1  0  0  0  0
  9 21  2  0  0  0  0
 10 22  1  0  0  0  0
 11 12  2  0  0  0  0
 11 23  1  0  0  0  0
 12 24  1  0  0  0  0
 13 20  1  0  0  0  0
 13 22  2  0  0  0  0
 14 24  2  0  0  0  0
 14 25  1  0  0  0  0
 15 26  1  0  0  0  0
 16 26  1  0  0  0  0
 16 29  2  0  0  0  0
 16 31  1  0  0  0  0
 17 19  2  0  0  0  0
 17 36  1  0  0  0  0
 18 20  2  0  0  0  0
 18 37  1  0  0  0  0
 19 45  1  0  0  0  0
 20 38  1  0  0  0  0
 21 82  1  0  0  0  0
 22 83  1  0  0  0  0
 23 25  2  0  0  0  0
 23 82  1  0  0  0  0
 24 84  1  0  0  0  0
 25 85  1  0  0  0  0
 26 66  2  0  0  0  0
 27 28  2  0  0  0  0
 27 57  1  0  0  0  0
 27 67  1  0  0  0  0
 28 48  1  0  0  0  0
 28 68  1  0  0  0  0
 29 69  1  0  0  0  0
 29 72  1  0  0  0  0
 30 49  1  0  0  0  0
 30 67  2  0  0  0  0
 30 68  1  0  0  0  0
 31 73  1  0  0  0  0
 31 77  2  0  0  0  0
 32 46  1  0  0  0  0
 32 74  1  0  0  0  0
 32 78  2  0  0  0  0
 33 62  1  0  0  0  0
 33 70  1  0  0  0  0
 33 79  2  0  0  0  0
 34 64  1  0  0  0  0
 34 71  1  0  0  0  0
 34 80  2  0  0  0  0
 35 63  1  0  0  0  0
 35 75  1  0  0  0  0
 35 81  2  0  0  0  0
 36 39  1  0  0  0  0
 37 46  1  0  0  0  0
 38 70  1  0  0  0  0
 39 41  1  0  0  0  0
 40 42  1  0  0  0  0
 40 43  1  0  0  0  0
 41 45  1  0  0  0  0
 42 47  1  0  0  0  0
 43 71  1  0  0  0  0
 44 47  1  0  0  0  0
 44 71  1  0  0  0  0
 45 74  1  0  0  0  0
 46 70  1  0  0  0  0
 47 69  1  0  0  0  0
 50 63  1  0  0  0  0
 51 64  1  0  0  0  0
 52 64  1  0  0  0  0
 53 65  1  0  0  0  0
 54 65  1  0  0  0  0
 55 65  1  0  0  0  0
 56 76  1  0  0  0  0
 57 58  1  0  0  0  0
 58 61  1  0  0  0  0
 59 60  1  0  0  0  0
 59 64  1  0  0  0  0
 60 68  1  0  0  0  0
 61 83  1  0  0  0  0
 62 65  1  0  0  0  0
 62 75  1  0  0  0  0
 63 76  1  0  0  0  0
 66 69  1  0  0  0  0
M  CHG  1  76   1
M  ISO  4  34 100  61 101  64 100  83 101
M  END
> <Batch ID>
0074

> <Smiles>
CNC(C)C(=O)NC(C(=O)N1Cc2cc([101O:1][101CH2:1]CCc3nc(C)n(CC[100C:0](C)(C)[100C:0](=O)N4CCCC(n5nc(-c6ccc(Oc7ccc(F)cc7F)cc6)c(C(N)=O)c5N)C4)c3C)ccc2CC1C(=O)NC1CCCc2ccccc21)C(C)(C)C

> <Shape>
0.199

> <Color>
0.083

> <Negative vol penalty>
0.000

$$$$

  -OEChem-04052318293D

 85 93  0     1  0  0  0  0  0999 V2000
  -17.7094  -27.2414   19.3516 C   0  0  0  0  0  0  0  0  0  0  0  0
  -19.0050  -27.6560   19.0600 C   0  0  0  0  0  0  0  0  0  0  0  0
  -24.7727  -13.6939   21.8423 C   0  0  0  0  0  0  0  0  0  0  0  0
  -26.9378  -13.2683   20.8583 C   0  0  0  0  0  0  0  0  0  0  0  0
  -17.2547  -27.2542   20.6696 C   0  0  0  0  0  0  0  0  0  0  0  0
  -19.8463  -28.0847   20.0861 C   0  0  0  0  0  0  0  0  0  0  0  0
  -24.5126  -26.1542   19.7070 C   0  0  0  0  0  0  0  0  0  0  0  0
  -24.2427  -12.6077   21.1461 C   0  0  0  0  0  0  0  0  0  0  0  0
  -26.4078  -12.1820   20.1621 C   0  0  0  0  0  0  0  0  0  0  0  0
  -25.3682  -26.7356   18.7724 C   0  0  0  0  0  0  0  0  0  0  0  0
  -22.4032   -9.7274   19.9068 C   0  0  0  0  0  0  0  0  0  0  0  0
  -21.5732   -8.8514   20.6062 C   0  0  0  0  0  0  0  0  0  0  0  0
  -26.4311  -27.9922   20.5360 C   0  0  0  0  0  0  0  0  0  0  0  0
  -23.3784   -8.3621   22.1356 C   0  0  0  0  0  0  0  0  0  0  0  0
  -26.1202  -14.0243   21.6984 C   0  0  0  0  0  0  0  0  0  0  0  0
  -27.2486  -15.1336   23.6993 C   0  0  0  0  0  0  0  0  0  0  0  0
  -18.0940  -27.6742   21.7135 C   0  0  0  0  0  0  0  0  0  0  0  0
  -24.6028  -26.4962   21.0640 C   0  0  0  0  0  0  0  0  0  0  0  0
  -19.4019  -28.1045   21.4190 C   0  0  0  0  0  0  0  0  0  0  0  0
  -25.5772  -27.4118   21.4863 C   0  0  0  0  0  0  0  0  0  0  0  0
  -25.0602  -11.8517   20.3060 C   0  0  0  0  0  0  0  0  0  0  0  0
  -26.3257  -27.6569   19.1864 C   0  0  0  0  0  0  0  0  0  0  0  0
  -23.7209   -9.9208   20.3217 C   0  0  0  0  0  0  0  0  0  0  0  0
  -22.0608   -8.1687   21.7206 C   0  0  0  0  0  0  0  0  0  0  0  0
  -24.2085   -9.2381   21.4361 C   0  0  0  0  0  0  0  0  0  0  0  0
  -26.6681  -15.1466   22.4169 C   0  0  0  0  0  0  0  0  0  0  0  0
  -27.6094  -16.4393   23.9262 C   0  0  0  0  0  0  0  0  0  0  0  0
  -30.3630  -24.1441   18.8502 C   0  0  0  0  0  0  0  0  0  0  0  0
  -30.0522  -26.0676   17.8949 C   0  0  0  0  0  0  0  0  0  0  0  0
  -27.4443  -14.0391   24.6045 C   0  0  0  0  0  0  0  0  0  0  0  0
  -22.6450  -27.8491   23.1712 C   0  0  0  0  0  0  0  0  0  0  0  0
  -28.9037  -20.8336   20.1459 C   0  0  0  0  0  0  0  0  0  0  0  0
  -25.0185  -27.1203   25.2587 C   0  0  0  0  0  0  0  0  0  0  0  0
  -28.3266  -26.4527   25.7663 C   0  0  0  0  0  0  0  0  0  0  0  0
  -17.5423  -27.7155   23.1166 C   0  0  0  0  0  0  0  0  0  0  0  0
  -23.6901  -25.8400   22.0635 C   0  0  0  0  0  0  0  0  0  0  0  0
  -25.7284  -27.7975   22.9343 C   0  0  0  0  0  0  0  0  0  0  0  0
  -18.6200  -27.8292   24.1917 C   0  0  0  0  0  0  0  0  0  0  0  0
  -26.4020  -20.9184   22.7843 C   0  0  0  0  0  0  0  0  0  0  0  0
  -19.6362  -28.9035   23.8175 C   0  0  0  0  0  0  0  0  0  0  0  0
  -26.2228  -19.4307   23.0836 C   0  0  0  0  0  0  0  0  0  0  0  0
  -26.6636  -21.1650   21.3008 C   0  0  0  0  0  0  0  0  0  0  0  0
  -27.6459  -18.9069   21.0554 C   0  0  0  0  0  0  0  0  0  0  0  0
  -20.3526  -28.5530   22.5077 C   0  0  1  0  0  0  0  0  0  0  0  0
  -23.5305  -26.6481   23.3475 C   0  0  1  0  0  0  0  0  0  0  0  0
  -27.4103  -18.6127   22.5464 C   0  0  2  0  0  0  0  0  0  0  0  0
  -29.9747  -25.9332   27.5860 C   0  0  0  0  0  0  0  0  0  0  0  0
  -27.8794  -21.9041   15.0349 C   0  0  0  0  0  0  0  0  0  0  0  0
  -29.0450  -23.1318   13.1923 C   0  0  0  0  0  0  0  0  0  0  0  0
  -25.0024  -30.0513   26.1067 C   0  0  0  0  0  0  0  0  0  0  0  0
  -27.2336  -29.6807   27.1803 C   0  0  0  0  0  0  0  0  0  0  0  0
  -25.2376  -28.4219   27.9893 C   0  0  0  0  0  0  0  0  0  0  0  0
  -28.9916  -23.8269   24.5738 C   0  0  0  0  0  0  0  0  0  0  0  0
  -30.2408  -22.7060   19.1481 C   0  0  0  0  0  0  0  0  0  0  0  0
  -29.5194  -27.1143   16.9493 C   0  0  0  0  0  0  0  0  0  0  0  0
  -28.9519  -22.3205   19.9000 C   0  0  0  0  0  0  0  0  0  0  0  0
  -29.4346  -28.5133   17.5634 C   0  0  0  0  0  0  0  0  0  0  0  0
  -29.3467  -23.9228   15.5574 C   0  0  0  0  0  0  0  0  0  0  0  0
  -28.7320  -24.1551   16.9392 C   0  0  0  0  0  0  0  0  0  0  0  0
  -28.4607  -28.6015   18.7326 C   0  0  0  0  0  0  0  0  0  1  0  0
  -26.2587  -27.8232   25.7552 C   0  0  1  0  0  0  0  0  0  0  0  0
  -29.0240  -25.3550   26.5493 C   0  0  2  0  0  0  0  0  0  0  0  0
  -28.3720  -23.2717   14.5598 C   0  0  0  0  0  0  0  0  0  0  0  0
  -25.9292  -28.9887   26.7302 C   0  0  0  0  0  0  0  0  0  0  0  0
  -26.6584  -16.3641   21.8676 N   0  0  0  0  0  0  0  0  0  0  0  0
  -31.1225  -25.0196   19.4692 N   0  0  0  0  0  0  0  0  0  0  0  0
  -30.9248  -26.2433   18.8614 N   0  0  0  0  0  0  0  0  0  0  0  0
  -27.2372  -17.1283   22.8095 N   0  0  0  0  0  0  0  0  0  0  0  0
  -29.6716  -24.7607   17.8519 N   0  0  0  0  0  0  0  0  0  0  0  0
  -24.8085  -27.1333   23.8725 N   0  0  0  0  0  0  0  0  0  0  0  0
  -27.7841  -20.3472   20.8214 N   0  0  0  0  0  0  0  0  0  0  0  0
  -28.2054  -17.0539   24.9700 N   0  0  0  0  0  0  0  0  0  0  0  0
  -27.0150  -12.7636   24.2134 N   0  0  0  0  0  0  0  0  0  0  0  0
  -21.3672  -27.5476   22.7400 N   0  0  0  0  0  0  0  0  0  0  0  0
  -27.1128  -26.7884   26.3280 N   0  0  0  0  0  0  0  0  0  0  0  0
  -29.8061  -24.4802   25.6306 N   0  3  0  0  0  0  0  0  0  0  0  0
  -27.9691  -14.1907   25.7338 O   0  0  0  0  0  0  0  0  0  0  0  0
  -23.0877  -28.9665   23.4102 O   0  0  0  0  0  0  0  0  0  0  0  0
  -29.8353  -20.1276   19.7512 O   0  0  0  0  0  0  0  0  0  0  0  0
  -24.2675  -26.5734   26.0702 O   0  0  0  0  0  0  0  0  0  0  0  0
  -28.8117  -26.9640   24.7595 O   0  0  0  0  0  0  0  0  0  0  0  0
  -24.5434  -10.7915   19.6267 O   0  0  0  0  0  0  0  0  0  0  0  0
  -27.1617  -28.2264   18.2760 O   0  0  0  0  0  0  0  0  0  1  0  0
  -21.2632   -7.3287   22.3931 F   0  0  0  0  0  0  0  0  0  0  0  0
  -25.4731   -9.4207   21.8402 F   0  0  0  0  0  0  0  0  0  0  0  0
  1  2  1  0  0  0  0
  1  5  2  0  0  0  0
  2  6  2  0  0  0  0
  3  8  2  0  0  0  0
  3 15  1  0  0  0  0
  4  9  1  0  0  0  0
  4 15  2  0  0  0  0
  5 17  1  0  0  0  0
  6 19  1  0  0  0  0
  7 10  2  0  0  0  0
  7 18  1  0  0  0  0
  8 21  1  0  0  0  0
  9 21  2  0  0  0  0
 10 22  1  0  0  0  0
 11 12  2  0  0  0  0
 11 23  1  0  0  0  0
 12 24  1  0  0  0  0
 13 20  1  0  0  0  0
 13 22  2  0  0  0  0
 14 24  2  0  0  0  0
 14 25  1  0  0  0  0
 15 26  1  0  0  0  0
 16 26  1  0  0  0  0
 16 27  2  0  0  0  0
 16 30  1  0  0  0  0
 17 19  2  0  0  0  0
 17 35  1  0  0  0  0
 18 20  2  0  0  0  0
 18 36  1  0  0  0  0
 19 44  1  0  0  0  0
 20 37  1  0  0  0  0
 21 82  1  0  0  0  0
 22 83  1  0  0  0  0
 23 25  2  0  0  0  0
 23 82  1  0  0  0  0
 24 84  1  0  0  0  0
 25 85  1  0  0  0  0
 26 65  2  0  0  0  0
 27 68  1  0  0  0  0
 27 72  1  0  0  0  0
 28 54  1  0  0  0  0
 28 66  2  0  0  0  0
 28 69  1  0  0  0  0
 29 55  1  0  0  0  0
 29 67  2  0  0  0  0
 29 69  1  0  0  0  0
 30 73  1  0  0  0  0
 30 77  2  0  0  0  0
 31 45  1  0  0  0  0
 31 74  1  0  0  0  0
 31 78  2  0  0  0  0
 32 56  1  0  0  0  0
 32 71  1  0  0  0  0
 32 79  2  0  0  0  0
 33 61  1  0  0  0  0
 33 70  1  0  0  0  0
 33 80  2  0  0  0  0
 34 62  1  0  0  0  0
 34 75  1  0  0  0  0
 34 81  2  0  0  0  0
 35 38  1  0  0  0  0
 36 45  1  0  0  0  0
 37 70  1  0  0  0  0
 38 40  1  0  0  0  0
 39 41  1  0  0  0  0
 39 42  1  0  0  0  0
 40 44  1  0  0  0  0
 41 46  1  0  0  0  0
 42 71  1  0  0  0  0
 43 46  1  0  0  0  0
 43 71  1  0  0  0  0
 44 74  1  0  0  0  0
 45 70  1  0  0  0  0
 46 68  1  0  0  0  0
 47 62  1  0  0  0  0
 48 63  1  0  0  0  0
 49 63  1  0  0  0  0
 50 64  1  0  0  0  0
 51 64  1  0  0  0  0
 52 64  1  0  0  0  0
 53 76  1  0  0  0  0
 54 56  1  0  0  0  0
 55 57  1  0  0  0  0
 57 60  1  0  0  0  0
 58 59  1  0  0  0  0
 58 63  1  0  0  0  0
 59 69  1  0  0  0  0
 60 83  1  0  0  0  0
 61 64  1  0  0  0  0
 61 75  1  0  0  0  0
 62 76  1  0  0  0  0
 65 68  1  0  0  0  0
 66 67  1  0  0  0  0
M  CHG  1  76   1
M  ISO  4  32 100  56 100  60 101  83 101
M  END
> <Batch ID>
0074

> <Smiles>
CNC(C)C(=O)NC(C(=O)N1Cc2cc([101O:1][101CH2:1]CCc3nnc(C[100CH2:0][100C:0](=O)N4CCCC(n5nc(-c6ccc(Oc7ccc(F)cc7F)cc6)c(C(N)=O)c5N)C4)n3CCC(C)C)ccc2CC1C(=O)NC1CCCc2ccccc21)C(C)(C)C

> <Shape>
0.224

> <Color>
0.102

> <Negative vol penalty>
0.000

$$$$

  -OEChem-04052318293D

 86 94  0     1  0  0  0  0  0999 V2000
  -27.7248  -18.6055   17.9026 C   0  0  0  0  0  0  0  0  0  0  0  0
  -26.7356  -19.5791   17.8081 C   0  0  0  0  0  0  0  0  0  0  0  0
  -25.7119  -16.6536   20.5970 C   0  0  0  0  0  0  0  0  0  0  0  0
  -26.1986  -16.7762   22.9603 C   0  0  0  0  0  0  0  0  0  0  0  0
  -28.7252  -18.7211   18.8669 C   0  0  0  0  0  0  0  0  0  0  0  0
  -26.7456  -20.6684   18.6786 C   0  0  0  0  0  0  0  0  0  0  0  0
  -25.0614  -27.6265   18.9340 C   0  0  0  0  0  0  0  0  0  0  0  0
  -26.9160  -15.9826   20.3838 C   0  0  0  0  0  0  0  0  0  0  0  0
  -27.4027  -16.1051   22.7472 C   0  0  0  0  0  0  0  0  0  0  0  0
  -24.3266  -28.5293   19.7014 C   0  0  0  0  0  0  0  0  0  0  0  0
  -29.6929  -13.9185   19.2686 C   0  0  0  0  0  0  0  0  0  0  0  0
  -29.6730  -12.7990   18.4369 C   0  0  0  0  0  0  0  0  0  0  0  0
  -26.1493  -28.6654   21.2757 C   0  0  0  0  0  0  0  0  0  0  0  0
  -19.7911  -28.3853   21.4766 C   0  0  0  0  0  0  0  0  0  0  0  0
  -19.9576  -27.9074   23.8278 C   0  0  0  0  0  0  0  0  0  0  0  0
  -28.0993  -11.7239   19.9219 C   0  0  0  0  0  0  0  0  0  0  0  0
  -25.3532  -17.0504   21.8853 C   0  0  0  0  0  0  0  0  0  0  0  0
  -22.8564  -17.1715   22.3941 C   0  0  0  0  0  0  0  0  0  0  0  0
  -28.7530  -19.8173   19.7434 C   0  0  0  0  0  0  0  0  0  0  0  0
  -26.3434  -27.2272   19.3382 C   0  0  0  0  0  0  0  0  0  0  0  0
  -27.7465  -20.7981   19.6564 C   0  0  0  0  0  0  0  0  0  0  0  0
  -26.8993  -27.7593   20.5104 C   0  0  0  0  0  0  0  0  0  0  0  0
  -20.1180  -28.7905   22.7659 C   0  0  0  0  0  0  0  0  0  0  0  0
  -27.7614  -15.7083   21.4589 C   0  0  0  0  0  0  0  0  0  0  0  0
  -24.8694  -29.0467   20.8739 C   0  0  0  0  0  0  0  0  0  0  0  0
  -28.9161  -13.9408   20.4270 C   0  0  0  0  0  0  0  0  0  0  0  0
  -28.8762  -11.7016   18.7635 C   0  0  0  0  0  0  0  0  0  0  0  0
  -28.1193  -12.8435   20.7536 C   0  0  0  0  0  0  0  0  0  0  0  0
  -24.1097  -17.7441   22.1061 C   0  0  0  0  0  0  0  0  0  0  0  0
  -19.3117  -27.0968   21.3036 C   0  0  0  0  0  0  0  0  0  0  0  0
  -19.4705  -26.6404   23.5497 C   0  0  0  0  0  0  0  0  0  0  0  0
  -22.0079  -18.2449   22.5140 C   0  0  0  0  0  0  0  0  0  0  0  0
  -22.4917  -15.7926   22.5402 C   0  0  0  0  0  0  0  0  0  0  0  0
  -27.6793  -24.4594   20.1494 C   0  0  0  0  0  0  0  0  0  0  0  0
  -30.3940  -26.2339   20.2125 C   0  0  0  0  0  0  0  0  0  0  0  0
  -31.8387  -29.3080   20.5435 C   0  0  0  0  0  0  0  0  0  0  0  0
  -21.7907  -23.4736   24.4767 C   0  0  0  0  0  0  0  0  0  0  0  0
  -29.8273  -19.8746   20.8003 C   0  0  0  0  0  0  0  0  0  0  0  0
  -27.1338  -26.2730   18.4854 C   0  0  0  0  0  0  0  0  0  0  0  0
  -28.2796  -27.3784   20.9774 C   0  0  0  0  0  0  0  0  0  0  0  0
  -29.9804  -21.2526   21.4391 C   0  0  0  0  0  0  0  0  0  0  0  0
  -22.0731  -22.9398   20.9971 C   0  0  0  0  0  0  0  0  0  0  0  0
  -28.6155  -21.8236   21.8102 C   0  0  0  0  0  0  0  0  0  0  0  0
  -22.5162  -21.4781   20.9502 C   0  0  0  0  0  0  0  0  0  0  0  0
  -22.7453  -23.7077   22.1367 C   0  0  0  0  0  0  0  0  0  0  0  0
  -23.0282  -21.6089   23.4165 C   0  0  0  0  0  0  0  0  0  0  0  0
  -27.7375  -22.0071   20.5665 C   0  0  1  0  0  0  0  0  0  0  0  0
  -28.2248  -25.5415   19.2612 C   0  0  1  0  0  0  0  0  0  0  0  0
  -22.3219  -20.8002   22.3175 C   0  0  2  0  0  0  0  0  0  0  0  0
  -18.9523  -26.6270   19.9337 C   0  0  0  0  0  0  0  0  0  0  0  0
  -34.0794  -30.4370   20.5884 C   0  0  0  0  0  0  0  0  0  0  0  0
  -18.7283  -24.2618   24.2479 C   0  0  0  0  0  0  0  0  0  0  0  0
  -18.2466  -26.2158   25.6989 C   0  0  0  0  0  0  0  0  0  0  0  0
  -30.8566  -25.1977   23.0448 C   0  0  0  0  0  0  0  0  0  0  0  0
  -32.5213  -27.0390   23.3718 C   0  0  0  0  0  0  0  0  0  0  0  0
  -32.9118  -25.3027   21.6238 C   0  0  0  0  0  0  0  0  0  0  0  0
  -22.7005  -25.8208   24.2167 C   0  0  0  0  0  0  0  0  0  0  0  0
  -31.1834  -30.9598   18.1769 C   0  0  0  0  0  0  0  0  0  0  0  0
  -20.6452  -30.1817   23.0112 C   0  0  0  0  0  0  0  0  0  0  0  0
  -22.1693  -30.2871   22.9242 C   0  0  0  0  0  0  0  0  0  0  0  0
  -20.6122  -25.4021   25.4615 C   0  0  0  0  0  0  0  0  0  0  0  0
  -22.7327  -29.8045   21.5926 C   0  0  0  0  0  0  0  0  0  1  0  0
  -31.1166  -27.0455   21.2604 C   0  0  1  0  0  0  0  0  0  0  0  0
  -32.9025  -30.0147   19.7228 C   0  0  2  0  0  0  0  0  0  0  0  0
  -19.2842  -25.6675   24.6656 C   0  0  0  0  0  0  0  0  0  0  0  0
  -31.8248  -26.1521   22.3177 C   0  0  0  0  0  0  0  0  0  0  0  0
  -24.0659  -19.0777   22.0465 N   0  0  0  0  0  0  0  0  0  0  0  0
  -19.1424  -26.2108   22.3106 N   0  0  0  0  0  0  0  0  0  0  0  0
  -22.7747  -19.3520   22.2986 N   0  0  0  0  0  0  0  0  0  0  0  0
  -29.0103  -26.4373   20.1126 N   0  0  0  0  0  0  0  0  0  0  0  0
  -22.5765  -23.0025   23.4146 N   0  0  0  0  0  0  0  0  0  0  0  0
  -20.6881  -18.3402   22.7816 N   0  0  0  0  0  0  0  0  0  0  0  0
  -23.4871  -14.8182   22.3850 N   0  0  0  0  0  0  0  0  0  0  0  0
  -28.1350  -23.1926   19.8377 N   0  0  0  0  0  0  0  0  0  0  0  0
  -32.0135  -27.9403   20.5370 N   0  0  0  0  0  0  0  0  0  0  0  0
  -21.6717  -24.8641   24.6200 N   0  0  0  0  0  0  0  0  0  0  0  0
  -32.3345  -31.2312   19.0759 N   0  3  0  0  0  0  0  0  0  0  0  0
  -21.3146  -15.4343   22.7845 O   0  0  0  0  0  0  0  0  0  0  0  0
  -26.9036  -24.7522   21.0518 O   0  0  0  0  0  0  0  0  0  0  0  0
  -31.0347  -25.4537   19.5037 O   0  0  0  0  0  0  0  0  0  0  0  0
  -30.9445  -29.9094   21.1345 O   0  0  0  0  0  0  0  0  0  0  0  0
  -21.2317  -22.6952   25.2601 O   0  0  0  0  0  0  0  0  0  0  0  0
  -28.9363  -15.0534   21.2513 O   0  0  0  0  0  0  0  0  0  0  0  0
  -24.1541  -29.9276   21.6250 O   0  0  0  0  0  0  0  0  0  1  0  0
  -28.8560  -10.6272   17.9640 F   0  0  0  0  0  0  0  0  0  0  0  0
  -27.3700  -12.8595   21.8645 F   0  0  0  0  0  0  0  0  0  0  0  0
  1  2  1  0  0  0  0
  1  5  2  0  0  0  0
  2  6  2  0  0  0  0
  3  8  2  0  0  0  0
  3 17  1  0  0  0  0
  4  9  1  0  0  0  0
  4 17  2  0  0  0  0
  5 19  1  0  0  0  0
  6 21  1  0  0  0  0
  7 10  2  0  0  0  0
  7 20  1  0  0  0  0
  8 24  1  0  0  0  0
  9 24  2  0  0  0  0
 10 25  1  0  0  0  0
 11 12  2  0  0  0  0
 11 26  1  0  0  0  0
 12 27  1  0  0  0  0
 13 22  1  0  0  0  0
 13 25  2  0  0  0  0
 14 23  1  0  0  0  0
 14 30  2  0  0  0  0
 15 23  2  0  0  0  0
 15 31  1  0  0  0  0
 16 27  2  0  0  0  0
 16 28  1  0  0  0  0
 17 29  1  0  0  0  0
 18 29  1  0  0  0  0
 18 32  2  0  0  0  0
 18 33  1  0  0  0  0
 19 21  2  0  0  0  0
 19 38  1  0  0  0  0
 20 22  2  0  0  0  0
 20 39  1  0  0  0  0
 21 47  1  0  0  0  0
 22 40  1  0  0  0  0
 23 59  1  0  0  0  0
 24 83  1  0  0  0  0
 25 84  1  0  0  0  0
 26 28  2  0  0  0  0
 26 83  1  0  0  0  0
 27 85  1  0  0  0  0
 28 86  1  0  0  0  0
 29 67  2  0  0  0  0
 30 50  1  0  0  0  0
 30 68  1  0  0  0  0
 31 65  1  0  0  0  0
 31 68  2  0  0  0  0
 32 69  1  0  0  0  0
 32 72  1  0  0  0  0
 33 73  1  0  0  0  0
 33 78  2  0  0  0  0
 34 48  1  0  0  0  0
 34 74  1  0  0  0  0
 34 79  2  0  0  0  0
 35 63  1  0  0  0  0
 35 70  1  0  0  0  0
 35 80  2  0  0  0  0
 36 64  1  0  0  0  0
 36 75  1  0  0  0  0
 36 81  2  0  0  0  0
 37 71  1  0  0  0  0
 37 76  1  0  0  0  0
 37 82  2  0  0  0  0
 38 41  1  0  0  0  0
 39 48  1  0  0  0  0
 40 70  1  0  0  0  0
 41 43  1  0  0  0  0
 42 44  1  0  0  0  0
 42 45  1  0  0  0  0
 43 47  1  0  0  0  0
 44 49  1  0  0  0  0
 45 71  1  0  0  0  0
 46 49  1  0  0  0  0
 46 71  1  0  0  0  0
 47 74  1  0  0  0  0
 48 70  1  0  0  0  0
 49 69  1  0  0  0  0
 51 64  1  0  0  0  0
 52 65  1  0  0  0  0
 53 65  1  0  0  0  0
 54 66  1  0  0  0  0
 55 66  1  0  0  0  0
 56 66  1  0  0  0  0
 57 76  1  0  0  0  0
 58 77  1  0  0  0  0
 59 60  1  0  0  0  0
 60 62  1  0  0  0  0
 61 65  1  0  0  0  0
 61 76  1  0  0  0  0
 62 84  1  0  0  0  0
 63 66  1  0  0  0  0
 63 75  1  0  0  0  0
 64 77  1  0  0  0  0
 67 69  1  0  0  0  0
M  CHG  1  77   1
M  ISO  4  37 100  62 101  76 100  84 101
M  END
> <Batch ID>
0074

> <Smiles>
CNC(C)C(=O)NC(C(=O)N1Cc2cc([101O:1][101CH2:1]CCc3cc(C)nc(C(C)(C)C[100N:0](C)[100C:0](=O)N4CCCC(n5nc(-c6ccc(Oc7ccc(F)cc7F)cc6)c(C(N)=O)c5N)C4)c3)ccc2CC1C(=O)NC1CCCc2ccccc21)C(C)(C)C

> <Shape>
0.231

> <Color>
0.071

> <Negative vol penalty>
0.000

$$$$

  -OEChem-04052318293D

 88 96  0     1  0  0  0  0  0999 V2000
  -17.0301  -29.4013   24.5236 C   0  0  0  0  0  0  0  0  0  0  0  0
  -17.4812  -28.1887   24.0123 C   0  0  0  0  0  0  0  0  0  0  0  0
  -29.3219  -17.0580   18.6295 C   0  0  0  0  0  0  0  0  0  0  0  0
  -28.6676  -17.0393   20.9551 C   0  0  0  0  0  0  0  0  0  0  0  0
  -17.5791  -30.5977   24.0640 C   0  0  0  0  0  0  0  0  0  0  0  0
  -18.4808  -28.1718   23.0403 C   0  0  0  0  0  0  0  0  0  0  0  0
  -22.8933  -23.9781   22.3699 C   0  0  0  0  0  0  0  0  0  0  0  0
  -29.3622  -18.4520   18.6520 C   0  0  0  0  0  0  0  0  0  0  0  0
  -28.7079  -18.4334   20.9776 C   0  0  0  0  0  0  0  0  0  0  0  0
  -23.0163  -22.8720   21.5301 C   0  0  0  0  0  0  0  0  0  0  0  0
  -31.0576  -20.8524   21.1952 C   0  0  0  0  0  0  0  0  0  0  0  0
  -31.6813  -21.4637   22.2828 C   0  0  0  0  0  0  0  0  0  0  0  0
  -23.7644  -15.3255   20.8298 C   0  0  0  0  0  0  0  0  0  0  0  0
  -24.0969  -14.1460   21.5406 C   0  0  0  0  0  0  0  0  0  0  0  0
  -24.2954  -24.2018   19.9761 C   0  0  0  0  0  0  0  0  0  0  0  0
  -29.6151  -22.5867   22.8365 C   0  0  0  0  0  0  0  0  0  0  0  0
  -28.9745  -16.3516   19.7810 C   0  0  0  0  0  0  0  0  0  0  0  0
  -29.9869  -14.0253   20.0481 C   0  0  0  0  0  0  0  0  0  0  0  0
  -18.5928  -30.5950   23.0929 C   0  0  0  0  0  0  0  0  0  0  0  0
  -23.4620  -25.2093   22.0133 C   0  0  0  0  0  0  0  0  0  0  0  0
  -19.0430  -29.3693   22.5663 C   0  0  0  0  0  0  0  0  0  0  0  0
  -24.1803  -25.3213   20.8143 C   0  0  0  0  0  0  0  0  0  0  0  0
  -29.0552  -19.1398   19.8260 C   0  0  0  0  0  0  0  0  0  0  0  0
  -23.7150  -22.9845   20.3316 C   0  0  0  0  0  0  0  0  0  0  0  0
  -29.7127  -21.1084   20.9282 C   0  0  0  0  0  0  0  0  0  0  0  0
  -30.9601  -22.3308   23.1035 C   0  0  0  0  0  0  0  0  0  0  0  0
  -28.9914  -21.9755   21.7489 C   0  0  0  0  0  0  0  0  0  0  0  0
  -28.9322  -14.9115   19.7582 C   0  0  0  0  0  0  0  0  0  0  0  0
  -22.8491  -14.9777   19.8610 C   0  0  0  0  0  0  0  0  0  0  0  0
  -23.3748  -13.1132   20.9844 C   0  0  0  0  0  0  0  0  0  0  0  0
  -29.4403  -12.7759   19.8851 C   0  0  0  0  0  0  0  0  0  0  0  0
  -31.3398  -14.3064   20.4305 C   0  0  0  0  0  0  0  0  0  0  0  0
  -22.3249  -28.1176   21.4195 C   0  0  0  0  0  0  0  0  0  0  0  0
  -25.4711  -28.8927   21.2692 C   0  0  0  0  0  0  0  0  0  0  0  0
  -23.7714  -10.8055   20.1905 C   0  0  0  0  0  0  0  0  0  0  0  0
  -28.6845  -27.8717   20.7415 C   0  0  0  0  0  0  0  0  0  0  0  0
  -19.1225  -31.9157   22.5928 C   0  0  0  0  0  0  0  0  0  0  0  0
  -23.3432  -26.3859   22.9428 C   0  0  0  0  0  0  0  0  0  0  0  0
  -24.8269  -26.6153   20.3951 C   0  0  0  0  0  0  0  0  0  0  0  0
  -20.4410  -31.7947   21.8331 C   0  0  0  0  0  0  0  0  0  0  0  0
  -26.0518  -10.4515   17.4492 C   0  0  0  0  0  0  0  0  0  0  0  0
  -20.3735  -30.6516   20.8254 C   0  0  0  0  0  0  0  0  0  0  0  0
  -27.1298  -11.4941   17.7421 C   0  0  0  0  0  0  0  0  0  0  0  0
  -24.6738  -10.9335   17.8919 C   0  0  0  0  0  0  0  0  0  0  0  0
  -25.6827  -12.3853   19.6227 C   0  0  0  0  0  0  0  0  0  0  0  0
  -20.1431  -29.3087   21.5290 C   0  0  1  0  0  0  0  0  0  0  0  0
  -23.5236  -27.7260   22.2364 C   0  0  1  0  0  0  0  0  0  0  0  0
  -27.0948  -11.9256   19.2189 C   0  0  2  0  0  0  0  0  0  0  0  0
  -20.9019  -17.8469   16.8339 C   0  0  0  0  0  0  0  0  0  0  0  0
  -20.2641  -13.0691   19.5141 C   0  0  0  0  0  0  0  0  0  0  0  0
  -31.1869  -28.0224   20.6298 C   0  0  0  0  0  0  0  0  0  0  0  0
  -21.9099  -11.2245   21.7456 C   0  0  0  0  0  0  0  0  0  0  0  0
  -24.2894  -11.2299   22.5021 C   0  0  0  0  0  0  0  0  0  0  0  0
  -24.9133  -30.1029   18.5244 C   0  0  0  0  0  0  0  0  0  0  0  0
  -27.3791  -30.0822   18.0912 C   0  0  0  0  0  0  0  0  0  0  0  0
  -26.4549  -31.4472   19.9634 C   0  0  0  0  0  0  0  0  0  0  0  0
  -24.4315  -16.7467   18.1079 C   0  0  0  0  0  0  0  0  0  0  0  0
  -28.9729  -27.1157   23.5882 C   0  0  0  0  0  0  0  0  0  0  0  0
  -22.1606  -15.8381   18.8246 C   0  0  0  0  0  0  0  0  0  0  0  0
  -22.3767  -17.4649   16.8894 C   0  0  0  0  0  0  0  0  0  0  0  0
  -23.4598  -19.5936   18.9044 C   0  0  0  0  0  0  0  0  0  0  0  0
  -22.7974  -18.2682   19.3142 C   0  0  0  0  0  0  0  0  0  0  0  0
  -21.7187  -12.8701   19.1242 C   0  0  0  0  0  0  0  0  0  0  0  0
  -23.2223  -20.6915   19.9377 C   0  0  0  0  0  0  0  0  0  1  0  0
  -26.5123  -28.9286   20.1767 C   0  0  1  0  0  0  0  0  0  0  0  0
  -29.9612  -28.1181   21.5249 C   0  0  2  0  0  0  0  0  0  0  0  0
  -23.3438  -11.6801   21.3421 C   0  0  0  0  0  0  0  0  0  0  0  0
  -26.3012  -30.1162   19.1956 C   0  0  0  0  0  0  0  0  0  0  0  0
  -22.9366  -17.0935   18.2991 C   0  0  2  0  0  0  0  0  0  0  0  0
  -27.8011  -14.2788   19.4354 N   0  0  0  0  0  0  0  0  0  0  0  0
  -22.6201  -13.6305   19.9642 N   0  0  0  0  0  0  0  0  0  0  0  0
  -28.1420  -12.9817   19.5213 N   0  0  0  0  0  0  0  0  0  0  0  0
  -24.6774  -27.7388   21.3348 N   0  0  0  0  0  0  0  0  0  0  0  0
  -24.6876  -11.3553   19.2937 N   0  0  0  0  0  0  0  0  0  0  0  0
  -29.9483  -11.5323   20.0188 N   0  0  0  0  0  0  0  0  0  0  0  0
  -31.7354  -15.6455   20.5518 N   0  0  0  0  0  0  0  0  0  0  0  0
  -21.3736  -28.8317   22.1229 N   0  0  0  0  0  0  0  0  0  0  0  0
  -27.8079  -28.9308   20.8474 N   0  0  0  0  0  0  0  0  0  0  0  0
  -30.0990  -27.1158   22.6192 N   0  3  0  0  0  0  0  0  0  0  0  0
  -32.1778  -13.3972   20.6420 O   0  0  0  0  0  0  0  0  0  0  0  0
  -22.2679  -27.7969   20.2381 O   0  0  0  0  0  0  0  0  0  0  0  0
  -25.3707  -29.8501   22.0406 O   0  0  0  0  0  0  0  0  0  0  0  0
  -23.3061   -9.6668   20.0941 O   0  0  0  0  0  0  0  0  0  0  0  0
  -28.4864  -26.8444   20.0967 O   0  0  0  0  0  0  0  0  0  0  0  0
  -29.0947  -20.5001   19.8485 O   0  0  0  0  0  0  0  0  0  0  0  0
  -23.8360  -21.9066   19.5098 O   0  0  0  0  0  0  0  0  0  1  0  0
  -31.5587  -22.9166   24.1488 F   0  0  0  0  0  0  0  0  0  0  0  0
  -27.6987  -22.2243   21.4980 F   0  0  0  0  0  0  0  0  0  0  0  0
  1  2  1  0  0  0  0
  1  5  2  0  0  0  0
  2  6  2  0  0  0  0
  3  8  2  0  0  0  0
  3 17  1  0  0  0  0
  4  9  1  0  0  0  0
  4 17  2  0  0  0  0
  5 19  1  0  0  0  0
  6 21  1  0  0  0  0
  7 10  2  0  0  0  0
  7 20  1  0  0  0  0
  8 23  1  0  0  0  0
  9 23  2  0  0  0  0
 10 24  1  0  0  0  0
 11 12  2  0  0  0  0
 11 25  1  0  0  0  0
 12 26  1  0  0  0  0
 13 14  1  0  0  0  0
 13 29  2  0  0  0  0
 14 30  2  0  0  0  0
 15 22  1  0  0  0  0
 15 24  2  0  0  0  0
 16 26  2  0  0  0  0
 16 27  1  0  0  0  0
 17 28  1  0  0  0  0
 18 28  1  0  0  0  0
 18 31  2  0  0  0  0
 18 32  1  0  0  0  0
 19 21  2  0  0  0  0
 19 37  1  0  0  0  0
 20 22  2  0  0  0  0
 20 38  1  0  0  0  0
 21 46  1  0  0  0  0
 22 39  1  0  0  0  0
 23 85  1  0  0  0  0
 24 86  1  0  0  0  0
 25 27  2  0  0  0  0
 25 85  1  0  0  0  0
 26 87  1  0  0  0  0
 27 88  1  0  0  0  0
 28 70  2  0  0  0  0
 29 59  1  0  0  0  0
 29 71  1  0  0  0  0
 30 67  1  0  0  0  0
 30 71  1  0  0  0  0
 31 72  1  0  0  0  0
 31 75  1  0  0  0  0
 32 76  1  0  0  0  0
 32 80  2  0  0  0  0
 33 47  1  0  0  0  0
 33 77  1  0  0  0  0
 33 81  2  0  0  0  0
 34 65  1  0  0  0  0
 34 73  1  0  0  0  0
 34 82  2  0  0  0  0
 35 67  1  0  0  0  0
 35 74  1  0  0  0  0
 35 83  2  0  0  0  0
 36 66  1  0  0  0  0
 36 78  1  0  0  0  0
 36 84  2  0  0  0  0
 37 40  1  0  0  0  0
 38 47  1  0  0  0  0
 39 73  1  0  0  0  0
 40 42  1  0  0  0  0
 41 43  1  0  0  0  0
 41 44  1  0  0  0  0
 42 46  1  0  0  0  0
 43 48  1  0  0  0  0
 44 74  1  0  0  0  0
 45 48  1  0  0  0  0
 45 74  1  0  0  0  0
 46 77  1  0  0  0  0
 47 73  1  0  0  0  0
 48 72  1  0  0  0  0
 49 60  1  0  0  0  0
 50 63  1  0  0  0  0
 51 66  1  0  0  0  0
 52 67  1  0  0  0  0
 53 67  1  0  0  0  0
 54 68  1  0  0  0  0
 55 68  1  0  0  0  0
 56 68  1  0  0  0  0
 57 69  1  0  0  0  0
 58 79  1  0  0  0  0
 59 69  1  0  0  0  0
 60 69  1  0  0  0  0
 61 62  1  0  0  0  0
 61 64  1  0  0  0  0
 62 69  1  0  0  0  0
 63 71  1  0  0  0  0
 64 86  1  0  0  0  0
 65 68  1  0  0  0  0
 65 78  1  0  0  0  0
 66 79  1  0  0  0  0
 70 72  1  0  0  0  0
M  CHG  1  79   1
M  ISO  4  35 100  64 101  67 100  86 101
M  END
> <Batch ID>
0074

> <Smiles>
CCn1c(CC(C)(CC)CC[101CH2:1][101O:1]c2ccc3c(c2)CN(C(=O)C(NC(=O)C(C)NC)C(C)(C)C)C(C(=O)NC2CCCc4ccccc42)C3)ccc1[100C:0](C)(C)[100C:0](=O)N1CCCC(n2nc(-c3ccc(Oc4ccc(F)cc4F)cc3)c(C(N)=O)c2N)C1

> <Shape>
0.260

> <Color>
0.070

> <Negative vol penalty>
0.000

$$$$

  -OEChem-04052318293D

 84 92  0     1  0  0  0  0  0999 V2000
  -32.4708  -22.5188   23.8048 C   0  0  0  0  0  0  0  0  0  0  0  0
  -31.1226  -22.8413   23.9220 C   0  0  0  0  0  0  0  0  0  0  0  0
  -30.3638  -26.5533   19.3443 C   0  0  0  0  0  0  0  0  0  0  0  0
  -29.8748  -25.7088   21.5545 C   0  0  0  0  0  0  0  0  0  0  0  0
  -32.8951  -21.6580   22.7934 C   0  0  0  0  0  0  0  0  0  0  0  0
  -30.1980  -22.3039   23.0272 C   0  0  0  0  0  0  0  0  0  0  0  0
  -24.4147  -20.6910   24.2346 C   0  0  0  0  0  0  0  0  0  0  0  0
  -31.7221  -26.3156   19.5540 C   0  0  0  0  0  0  0  0  0  0  0  0
  -31.2332  -25.4711   21.7642 C   0  0  0  0  0  0  0  0  0  0  0  0
  -23.1978  -21.3404   24.0314 C   0  0  0  0  0  0  0  0  0  0  0  0
  -34.2886  -27.7999   21.1770 C   0  0  0  0  0  0  0  0  0  0  0  0
  -35.1860  -28.8002   20.8035 C   0  0  0  0  0  0  0  0  0  0  0  0
  -22.9089  -20.1381   21.9601 C   0  0  0  0  0  0  0  0  0  0  0  0
  -36.2550  -27.2690   19.2707 C   0  0  0  0  0  0  0  0  0  0  0  0
  -19.9084  -26.7002   22.3708 C   0  0  0  0  0  0  0  0  0  0  0  0
  -29.4401  -26.2500   20.3446 C   0  0  0  0  0  0  0  0  0  0  0  0
  -27.0926  -25.6073   19.5807 C   0  0  0  0  0  0  0  0  0  0  0  0
  -31.9739  -21.1022   21.8917 C   0  0  0  0  0  0  0  0  0  0  0  0
  -24.8938  -19.7667   23.2951 C   0  0  0  0  0  0  0  0  0  0  0  0
  -30.6105  -21.4359   22.0020 C   0  0  0  0  0  0  0  0  0  0  0  0
  -24.1309  -19.4763   22.1550 C   0  0  0  0  0  0  0  0  0  0  0  0
  -32.1568  -25.7745   20.7639 C   0  0  0  0  0  0  0  0  0  0  0  0
  -22.4461  -21.0662   22.8926 C   0  0  0  0  0  0  0  0  0  0  0  0
  -34.3744  -26.5340   20.5974 C   0  0  0  0  0  0  0  0  0  0  0  0
  -36.1692  -28.5348   19.8504 C   0  0  0  0  0  0  0  0  0  0  0  0
  -35.3576  -26.2686   19.6442 C   0  0  0  0  0  0  0  0  0  0  0  0
  -28.0369  -26.4958   20.1289 C   0  0  0  0  0  0  0  0  0  0  0  0
  -25.9132  -26.3111   19.5896 C   0  0  0  0  0  0  0  0  0  0  0  0
  -20.4018  -27.9742   22.3513 C   0  0  0  0  0  0  0  0  0  0  0  0
  -18.2223  -28.0913   22.7208 C   0  0  0  0  0  0  0  0  0  0  0  0
  -27.2660  -24.2655   19.1059 C   0  0  0  0  0  0  0  0  0  0  0  0
  -27.4607  -19.5913   21.4286 C   0  0  0  0  0  0  0  0  0  0  0  0
  -26.2846  -16.6455   20.7493 C   0  0  0  0  0  0  0  0  0  0  0  0
  -23.5816  -14.5669   20.6080 C   0  0  0  0  0  0  0  0  0  0  0  0
  -22.2592  -29.6610   22.1253 C   0  0  0  0  0  0  0  0  0  0  0  0
  -32.4863  -20.2139   20.7857 C   0  0  0  0  0  0  0  0  0  0  0  0
  -26.1955  -19.0548   23.5422 C   0  0  0  0  0  0  0  0  0  0  0  0
  -24.5912  -18.4773   21.1262 C   0  0  0  0  0  0  0  0  0  0  0  0
  -31.3927  -19.3914   20.1091 C   0  0  0  0  0  0  0  0  0  0  0  0
  -25.0084  -31.2116   20.4776 C   0  0  0  0  0  0  0  0  0  0  0  0
  -30.1867  -20.2683   19.7877 C   0  0  0  0  0  0  0  0  0  0  0  0
  -25.9637  -30.0498   20.1949 C   0  0  0  0  0  0  0  0  0  0  0  0
  -24.2983  -31.0481   21.8203 C   0  0  0  0  0  0  0  0  0  0  0  0
  -24.5683  -28.6012   21.7250 C   0  0  0  0  0  0  0  0  0  0  0  0
  -29.5739  -20.8536   21.0658 C   0  0  1  0  0  0  0  0  0  0  0  0
  -26.8322  -18.5135   22.2659 C   0  0  1  0  0  0  0  0  0  0  0  0
  -25.2583  -28.6887   20.3539 C   0  0  2  0  0  0  0  0  0  0  0  0
  -16.8670  -28.6396   22.9732 C   0  0  0  0  0  0  0  0  0  0  0  0
  -22.9259  -12.2282   19.9770 C   0  0  0  0  0  0  0  0  0  0  0  0
  -26.4427  -17.4004   17.7972 C   0  0  0  0  0  0  0  0  0  0  0  0
  -24.9294  -15.4703   17.2943 C   0  0  0  0  0  0  0  0  0  0  0  0
  -27.1682  -15.0641   18.3168 C   0  0  0  0  0  0  0  0  0  0  0  0
  -17.2782  -25.7903   25.2340 C   0  0  0  0  0  0  0  0  0  0  0  0
  -16.5258  -23.7331   24.0307 C   0  0  0  0  0  0  0  0  0  0  0  0
  -22.6683  -13.9573   23.3564 C   0  0  0  0  0  0  0  0  0  0  0  0
  -19.4906  -23.2111   23.2878 C   0  0  0  0  0  0  0  0  0  0  0  0
  -18.9980  -24.2354   24.3147 C   0  0  0  0  0  0  0  0  0  0  0  0
  -17.6017  -25.6354   22.7039 C   0  0  0  0  0  0  0  0  0  0  0  0
  -20.8428  -22.6323   23.6879 C   0  0  0  0  0  0  0  0  0  1  0  0
  -25.3311  -16.0860   19.7214 C   0  0  1  0  0  0  0  0  0  0  0  0
  -23.3764  -13.1464   21.1025 C   0  0  2  0  0  0  0  0  0  0  0  0
  -25.9598  -16.0255   18.3006 C   0  0  0  0  0  0  0  0  0  0  0  0
  -17.5875  -24.8490   24.0491 C   0  0  0  0  0  0  0  0  0  0  0  0
  -27.5034  -27.6743   20.4617 N   0  0  0  0  0  0  0  0  0  0  0  0
  -18.5577  -26.8026   22.6018 N   0  0  0  0  0  0  0  0  0  0  0  0
  -26.2112  -27.5311   20.1216 N   0  0  0  0  0  0  0  0  0  0  0  0
  -19.3368  -28.8143   22.5702 N   0  3  0  0  0  0  0  0  0  0  0  0
  -25.8736  -17.8120   21.4096 N   0  0  0  0  0  0  0  0  0  0  0  0
  -23.6495  -29.7374   21.8975 N   0  0  0  0  0  0  0  0  0  0  0  0
  -24.6606  -25.9993   19.1942 N   0  0  0  0  0  0  0  0  0  0  0  0
  -28.5442  -23.6943   19.1696 N   0  0  0  0  0  0  0  0  0  0  0  0
  -21.7487  -28.3635   22.1462 N   0  0  0  0  0  0  0  0  0  0  0  0
  -28.7789  -19.8553   21.7482 N   0  0  0  0  0  0  0  0  0  0  0  0
  -24.8895  -14.7938   20.2349 N   0  0  0  0  0  0  0  0  0  0  0  0
  -22.3431  -13.1158   22.1760 N   0  3  0  0  0  0  0  0  0  0  0  0
  -26.3190  -23.5990   18.6239 O   0  0  0  0  0  0  0  0  0  0  0  0
  -26.7991  -20.1416   20.5561 O   0  0  0  0  0  0  0  0  0  0  0  0
  -27.3516  -16.0648   20.9637 O   0  0  0  0  0  0  0  0  0  0  0  0
  -22.6719  -15.3915   20.5544 O   0  0  0  0  0  0  0  0  0  0  0  0
  -21.5675  -30.6734   22.2626 O   0  0  0  0  0  0  0  0  0  0  0  0
  -33.4822  -25.5422   20.9687 O   0  0  0  0  0  0  0  0  0  0  0  0
  -21.2584  -21.6991   22.6915 O   0  0  0  0  0  0  0  0  0  1  0  0
  -37.0300  -29.4960   19.4907 F   0  0  0  0  0  0  0  0  0  0  0  0
  -35.4442  -25.0548   19.0830 F   0  0  0  0  0  0  0  0  0  0  0  0
  1  2  1  0  0  0  0
  1  5  2  0  0  0  0
  2  6  2  0  0  0  0
  3  8  2  0  0  0  0
  3 16  1  0  0  0  0
  4  9  1  0  0  0  0
  4 16  2  0  0  0  0
  5 18  1  0  0  0  0
  6 20  1  0  0  0  0
  7 10  2  0  0  0  0
  7 19  1  0  0  0  0
  8 22  1  0  0  0  0
  9 22  2  0  0  0  0
 10 23  1  0  0  0  0
 11 12  2  0  0  0  0
 11 24  1  0  0  0  0
 12 25  1  0  0  0  0
 13 21  1  0  0  0  0
 13 23  2  0  0  0  0
 14 25  2  0  0  0  0
 14 26  1  0  0  0  0
 15 29  2  0  0  0  0
 15 65  1  0  0  0  0
 16 27  1  0  0  0  0
 17 27  1  0  0  0  0
 17 28  2  0  0  0  0
 17 31  1  0  0  0  0
 18 20  2  0  0  0  0
 18 36  1  0  0  0  0
 19 21  2  0  0  0  0
 19 37  1  0  0  0  0
 20 45  1  0  0  0  0
 21 38  1  0  0  0  0
 22 81  1  0  0  0  0
 23 82  1  0  0  0  0
 24 26  2  0  0  0  0
 24 81  1  0  0  0  0
 25 83  1  0  0  0  0
 26 84  1  0  0  0  0
 27 64  2  0  0  0  0
 28 66  1  0  0  0  0
 28 70  1  0  0  0  0
 29 67  1  0  0  0  0
 29 72  1  0  0  0  0
 30 48  1  0  0  0  0
 30 65  1  0  0  0  0
 30 67  2  0  0  0  0
 31 71  1  0  0  0  0
 31 76  2  0  0  0  0
 32 46  1  0  0  0  0
 32 73  1  0  0  0  0
 32 77  2  0  0  0  0
 33 60  1  0  0  0  0
 33 68  1  0  0  0  0
 33 78  2  0  0  0  0
 34 61  1  0  0  0  0
 34 74  1  0  0  0  0
 34 79  2  0  0  0  0
 35 69  1  0  0  0  0
 35 72  1  0  0  0  0
 35 80  2  0  0  0  0
 36 39  1  0  0  0  0
 37 46  1  0  0  0  0
 38 68  1  0  0  0  0
 39 41  1  0  0  0  0
 40 42  1  0  0  0  0
 40 43  1  0  0  0  0
 41 45  1  0  0  0  0
 42 47  1  0  0  0  0
 43 69  1  0  0  0  0
 44 47  1  0  0  0  0
 44 69  1  0  0  0  0
 45 73  1  0  0  0  0
 46 68  1  0  0  0  0
 47 66  1  0  0  0  0
 49 61  1  0  0  0  0
 50 62  1  0  0  0  0
 51 62  1  0  0  0  0
 52 62  1  0  0  0  0
 53 63  1  0  0  0  0
 54 63  1  0  0  0  0
 55 75  1  0  0  0  0
 56 57  1  0  0  0  0
 56 59  1  0  0  0  0
 57 63  1  0  0  0  0
 58 63  1  0  0  0  0
 58 65  1  0  0  0  0
 59 82  1  0  0  0  0
 60 62  1  0  0  0  0
 60 74  1  0  0  0  0
 61 75  1  0  0  0  0
 64 66  1  0  0  0  0
M  CHG  2  67   1  75   1
M  ISO  4  35 100  59 101  72 100  82 101
M  END
> <Batch ID>
0074

> <Smiles>
CNC(C)C(=O)NC(C(=O)N1Cc2cc([101O:1][101CH2:1]CCC(C)(C)Cn3cc([100NH:0][100C:0](=O)N4CCCC(n5nc(-c6ccc(Oc7ccc(F)cc7F)cc6)c(C(N)=O)c5N)C4)nc3C)ccc2CC1C(=O)NC1CCCc2ccccc21)C(C)(C)C

> <Shape>
0.201

> <Color>
0.083

> <Negative vol penalty>
0.000

$$$$

  -OEChem-04052318293D

 81 89  0     1  0  0  0  0  0999 V2000
  -28.1278  -24.5165   16.6858 C   0  0  0  0  0  0  0  0  0  0  0  0
  -26.9549  -24.6853   17.4148 C   0  0  0  0  0  0  0  0  0  0  0  0
  -24.9799  -13.5502   25.0072 C   0  0  0  0  0  0  0  0  0  0  0  0
  -24.2235  -14.2056   22.8083 C   0  0  0  0  0  0  0  0  0  0  0  0
  -29.3227  -25.0613   17.1541 C   0  0  0  0  0  0  0  0  0  0  0  0
  -26.9766  -25.3980   18.6131 C   0  0  0  0  0  0  0  0  0  0  0  0
  -23.1222  -28.6594   19.0037 C   0  0  0  0  0  0  0  0  0  0  0  0
  -24.3096  -12.3341   24.8753 C   0  0  0  0  0  0  0  0  0  0  0  0
  -23.5532  -12.9895   22.6763 C   0  0  0  0  0  0  0  0  0  0  0  0
  -21.8767  -28.1350   19.3465 C   0  0  0  0  0  0  0  0  0  0  0  0
  -21.9412   -9.9090   21.6132 C   0  0  0  0  0  0  0  0  0  0  0  0
  -22.0700   -9.2244   20.4048 C   0  0  0  0  0  0  0  0  0  0  0  0
  -22.2168  -28.8356   21.6296 C   0  0  0  0  0  0  0  0  0  0  0  0
  -24.4605   -9.0975   20.7316 C   0  0  0  0  0  0  0  0  0  0  0  0
  -20.8844  -22.9703   22.5448 C   0  0  0  0  0  0  0  0  0  0  0  0
  -22.0424  -24.5793   21.5821 C   0  0  0  0  0  0  0  0  0  0  0  0
  -24.9368  -14.4860   23.9737 C   0  0  0  0  0  0  0  0  0  0  0  0
  -26.9561  -16.0268   23.7374 C   0  0  0  0  0  0  0  0  0  0  0  0
  -29.3572  -25.7893   18.3538 C   0  0  0  0  0  0  0  0  0  0  0  0
  -23.9305  -29.2671   19.9752 C   0  0  0  0  0  0  0  0  0  0  0  0
  -28.1734  -25.9519   19.0985 C   0  0  0  0  0  0  0  0  0  0  0  0
  -23.4711  -29.3692   21.2960 C   0  0  0  0  0  0  0  0  0  0  0  0
  -23.5963  -12.0537   23.7099 C   0  0  0  0  0  0  0  0  0  0  0  0
  -21.4251  -28.2205   20.6602 C   0  0  0  0  0  0  0  0  0  0  0  0
  -23.0720  -10.1879   22.3808 C   0  0  0  0  0  0  0  0  0  0  0  0
  -23.3297   -8.8186   19.9640 C   0  0  0  0  0  0  0  0  0  0  0  0
  -24.3316   -9.7822   21.9400 C   0  0  0  0  0  0  0  0  0  0  0  0
  -25.6285  -15.7426   24.1096 C   0  0  0  0  0  0  0  0  0  0  0  0
  -22.2371  -22.7428   22.6404 C   0  0  0  0  0  0  0  0  0  0  0  0
  -27.1307  -17.3479   24.0702 C   0  0  0  0  0  0  0  0  0  0  0  0
  -27.9432  -15.1730   23.1438 C   0  0  0  0  0  0  0  0  0  0  0  0
  -26.8081  -28.6758   21.1889 C   0  0  0  0  0  0  0  0  0  0  0  0
  -23.2272  -21.8684   24.7338 C   0  0  0  0  0  0  0  0  0  0  0  0
  -26.3162  -31.4967   22.7129 C   0  0  0  0  0  0  0  0  0  0  0  0
  -24.0947  -33.7982   23.9024 C   0  0  0  0  0  0  0  0  0  0  0  0
  -30.6816  -26.3191   18.8437 C   0  0  0  0  0  0  0  0  0  0  0  0
  -25.2599  -29.8517   19.5838 C   0  0  0  0  0  0  0  0  0  0  0  0
  -24.2918  -30.0300   22.3722 C   0  0  0  0  0  0  0  0  0  0  0  0
  -30.5479  -27.3803   19.9328 C   0  0  0  0  0  0  0  0  0  0  0  0
  -25.6049  -20.6783   27.1359 C   0  0  0  0  0  0  0  0  0  0  0  0
  -29.5480  -26.9329   20.9943 C   0  0  0  0  0  0  0  0  0  0  0  0
  -25.9797  -19.2920   26.6136 C   0  0  0  0  0  0  0  0  0  0  0  0
  -24.1393  -21.0008   26.8621 C   0  0  0  0  0  0  0  0  0  0  0  0
  -24.1224  -19.4930   24.9004 C   0  0  0  0  0  0  0  0  0  0  0  0
  -28.1517  -26.7398   20.3904 C   0  0  1  0  0  0  0  0  0  0  0  0
  -26.2211  -29.9908   20.7603 C   0  0  1  0  0  0  0  0  0  0  0  0
  -25.6028  -19.1400   25.1293 C   0  0  2  0  0  0  0  0  0  0  0  0
  -23.9905  -35.9816   25.1350 C   0  0  0  0  0  0  0  0  0  0  0  0
  -26.9253  -30.0469   25.3277 C   0  0  0  0  0  0  0  0  0  0  0  0
  -25.8979  -31.9728   26.5539 C   0  0  0  0  0  0  0  0  0  0  0  0
  -27.9246  -32.3322   25.1446 C   0  0  0  0  0  0  0  0  0  0  0  0
  -17.6851  -26.5387   21.8592 C   0  0  0  0  0  0  0  0  0  0  0  0
  -18.8754  -25.6187   23.8497 C   0  0  0  0  0  0  0  0  0  0  0  0
  -22.7723  -35.1523   21.6272 C   0  0  0  0  0  0  0  0  0  0  0  0
  -22.9269  -21.6114   23.2785 C   0  0  0  0  0  0  0  0  0  0  0  0
  -19.4903  -24.8504   21.4870 C   0  0  0  0  0  0  0  0  0  0  0  0
  -20.0575  -27.2226   22.3305 C   0  0  0  0  0  0  0  0  0  1  0  0
  -25.6969  -31.9082   24.0267 C   0  0  1  0  0  0  0  0  0  0  0  0
  -24.0432  -35.3097   23.7717 C   0  0  2  0  0  0  0  0  0  0  0  0
  -26.5963  -31.5508   25.2436 C   0  0  0  0  0  0  0  0  0  0  0  0
  -19.0546  -26.0489   22.3822 C   0  0  0  0  0  0  0  0  0  0  0  0
  -22.9524  -23.7482   22.0394 N   0  0  0  0  0  0  0  0  0  0  0  0
  -25.0041  -16.7982   24.6385 N   0  0  0  0  0  0  0  0  0  0  0  0
  -20.7753  -24.1505   21.8647 N   0  0  0  0  0  0  0  0  0  0  0  0
  -25.9434  -17.7586   24.6012 N   0  0  0  0  0  0  0  0  0  0  0  0
  -25.5873  -30.5807   21.9412 N   0  0  0  0  0  0  0  0  0  0  0  0
  -23.8157  -20.8228   25.4454 N   0  0  0  0  0  0  0  0  0  0  0  0
  -28.1825  -18.1867   23.9576 N   0  0  0  0  0  0  0  0  0  0  0  0
  -27.5972  -13.8433   22.8673 N   0  0  0  0  0  0  0  0  0  0  0  0
  -27.5052  -28.0194   20.1925 N   0  0  0  0  0  0  0  0  0  0  0  0
  -25.3915  -33.3298   23.9065 N   0  0  0  0  0  0  0  0  0  0  0  0
  -22.8383  -35.7219   22.9976 N   0  3  0  0  0  0  0  0  0  0  0  0
  -29.1030  -15.5728   22.8820 O   0  0  0  0  0  0  0  0  0  0  0  0
  -26.6422  -28.2862   22.3388 O   0  0  0  0  0  0  0  0  0  0  0  0
  -22.9491  -22.9673   25.2209 O   0  0  0  0  0  0  0  0  0  0  0  0
  -27.4031  -31.9759   22.3802 O   0  0  0  0  0  0  0  0  0  0  0  0
  -23.0855  -33.1029   23.9956 O   0  0  0  0  0  0  0  0  0  0  0  0
  -22.9424  -10.8670   23.5807 O   0  0  0  0  0  0  0  0  0  0  0  0
  -20.2101  -27.7089   20.9976 O   0  0  0  0  0  0  0  0  0  1  0  0
  -23.4531   -8.1598   18.8043 F   0  0  0  0  0  0  0  0  0  0  0  0
  -25.4215  -10.0462   22.6737 F   0  0  0  0  0  0  0  0  0  0  0  0
  1  2  1  0  0  0  0
  1  5  2  0  0  0  0
  2  6  2  0  0  0  0
  3  8  2  0  0  0  0
  3 17  1  0  0  0  0
  4  9  1  0  0  0  0
  4 17  2  0  0  0  0
  5 19  1  0  0  0  0
  6 21  1  0  0  0  0
  7 10  2  0  0  0  0
  7 20  1  0  0  0  0
  8 23  1  0  0  0  0
  9 23  2  0  0  0  0
 10 24  1  0  0  0  0
 11 12  2  0  0  0  0
 11 25  1  0  0  0  0
 12 26  1  0  0  0  0
 13 22  1  0  0  0  0
 13 24  2  0  0  0  0
 14 26  2  0  0  0  0
 14 27  1  0  0  0  0
 15 29  2  0  0  0  0
 15 64  1  0  0  0  0
 16 62  2  0  0  0  0
 16 64  1  0  0  0  0
 17 28  1  0  0  0  0
 18 28  1  0  0  0  0
 18 30  2  0  0  0  0
 18 31  1  0  0  0  0
 19 21  2  0  0  0  0
 19 36  1  0  0  0  0
 20 22  2  0  0  0  0
 20 37  1  0  0  0  0
 21 45  1  0  0  0  0
 22 38  1  0  0  0  0
 23 78  1  0  0  0  0
 24 79  1  0  0  0  0
 25 27  2  0  0  0  0
 25 78  1  0  0  0  0
 26 80  1  0  0  0  0
 27 81  1  0  0  0  0
 28 63  2  0  0  0  0
 29 55  1  0  0  0  0
 29 62  1  0  0  0  0
 30 65  1  0  0  0  0
 30 68  1  0  0  0  0
 31 69  1  0  0  0  0
 31 73  2  0  0  0  0
 32 46  1  0  0  0  0
 32 70  1  0  0  0  0
 32 74  2  0  0  0  0
 33 55  1  0  0  0  0
 33 67  1  0  0  0  0
 33 75  2  0  0  0  0
 34 58  1  0  0  0  0
 34 66  1  0  0  0  0
 34 76  2  0  0  0  0
 35 59  1  0  0  0  0
 35 71  1  0  0  0  0
 35 77  2  0  0  0  0
 36 39  1  0  0  0  0
 37 46  1  0  0  0  0
 38 66  1  0  0  0  0
 39 41  1  0  0  0  0
 40 42  1  0  0  0  0
 40 43  1  0  0  0  0
 41 45  1  0  0  0  0
 42 47  1  0  0  0  0
 43 67  1  0  0  0  0
 44 47  1  0  0  0  0
 44 67  1  0  0  0  0
 45 70  1  0  0  0  0
 46 66  1  0  0  0  0
 47 65  1  0  0  0  0
 48 59  1  0  0  0  0
 49 60  1  0  0  0  0
 50 60  1  0  0  0  0
 51 60  1  0  0  0  0
 52 61  1  0  0  0  0
 53 61  1  0  0  0  0
 54 72  1  0  0  0  0
 56 61  1  0  0  0  0
 56 64  1  0  0  0  0
 57 61  1  0  0  0  0
 57 79  1  0  0  0  0
 58 60  1  0  0  0  0
 58 71  1  0  0  0  0
 59 72  1  0  0  0  0
 63 65  1  0  0  0  0
M  CHG  1  72   1
M  ISO  4  33 100  55 100  57 101  79 101
M  END
> <Batch ID>
0074

> <Smiles>
CNC(C)C(=O)NC(C(=O)N1Cc2cc([101O:1][101CH2:1]C(C)(C)Cn3cnc([100CH2:0][100C:0](=O)N4CCCC(n5nc(-c6ccc(Oc7ccc(F)cc7F)cc6)c(C(N)=O)c5N)C4)c3)ccc2CC1C(=O)NC1CCCc2ccccc21)C(C)(C)C

> <Shape>
0.238

> <Color>
0.071

> <Negative vol penalty>
0.000

$$$$

  -OEChem-04052318293D

 83 91  0     1  0  0  0  0  0999 V2000
  -16.1084  -24.8211   21.9798 C   0  0  0  0  0  0  0  0  0  0  0  0
  -17.1275  -24.3582   21.1537 C   0  0  0  0  0  0  0  0  0  0  0  0
  -25.7820  -13.4337   18.5174 C   0  0  0  0  0  0  0  0  0  0  0  0
  -25.0489  -13.7757   20.7940 C   0  0  0  0  0  0  0  0  0  0  0  0
  -16.1115  -26.1464   22.4130 C   0  0  0  0  0  0  0  0  0  0  0  0
  -18.1499  -25.2205   20.7595 C   0  0  0  0  0  0  0  0  0  0  0  0
  -24.0314  -23.7809   19.8419 C   0  0  0  0  0  0  0  0  0  0  0  0
  -25.7888  -12.0546   18.7268 C   0  0  0  0  0  0  0  0  0  0  0  0
  -25.0557  -12.3967   21.0033 C   0  0  0  0  0  0  0  0  0  0  0  0
  -24.7591  -23.5005   18.6863 C   0  0  0  0  0  0  0  0  0  0  0  0
  -24.5328   -8.9480   22.0287 C   0  0  0  0  0  0  0  0  0  0  0  0
  -23.4398   -8.3861   22.6885 C   0  0  0  0  0  0  0  0  0  0  0  0
  -25.4963  -25.7959   18.6010 C   0  0  0  0  0  0  0  0  0  0  0  0
  -21.9728   -9.1958   20.9480 C   0  0  0  0  0  0  0  0  0  0  0  0
  -30.7673  -23.4571   20.2426 C   0  0  0  0  0  0  0  0  0  0  0  0
  -25.4121  -14.2942   19.5510 C   0  0  0  0  0  0  0  0  0  0  0  0
  -24.3324  -16.5035   18.8723 C   0  0  0  0  0  0  0  0  0  0  0  0
  -17.1397  -27.0228   22.0317 C   0  0  0  0  0  0  0  0  0  0  0  0
  -24.0218  -25.0756   20.3805 C   0  0  0  0  0  0  0  0  0  0  0  0
  -18.1661  -26.5591   21.1869 C   0  0  0  0  0  0  0  0  0  0  0  0
  -24.7696  -26.0894   19.7650 C   0  0  0  0  0  0  0  0  0  0  0  0
  -25.4256  -11.5361   19.9697 C   0  0  0  0  0  0  0  0  0  0  0  0
  -25.4894  -24.5088   18.0640 C   0  0  0  0  0  0  0  0  0  0  0  0
  -24.3457   -9.6339   20.8285 C   0  0  0  0  0  0  0  0  0  0  0  0
  -22.1599   -8.5100   22.1481 C   0  0  0  0  0  0  0  0  0  0  0  0
  -23.0658   -9.7578   20.2882 C   0  0  0  0  0  0  0  0  0  0  0  0
  -25.4054  -15.7189   19.3355 C   0  0  0  0  0  0  0  0  0  0  0  0
  -29.4422  -23.0821   20.2136 C   0  0  0  0  0  0  0  0  0  0  0  0
  -30.8175  -23.4571   17.9564 C   0  0  0  0  0  0  0  0  0  0  0  0
  -29.4925  -23.0814   17.9273 C   0  0  0  0  0  0  0  0  0  0  0  0
  -24.8308  -17.7830   18.8415 C   0  0  0  0  0  0  0  0  0  0  0  0
  -23.0037  -16.1110   18.5030 C   0  0  0  0  0  0  0  0  0  0  0  0
  -21.7821  -27.2677   20.9114 C   0  0  0  0  0  0  0  0  0  0  0  0
  -24.2187  -28.8431   22.3615 C   0  0  0  0  0  0  0  0  0  0  0  0
  -27.6046  -21.8408   21.3150 C   0  0  0  0  0  0  0  0  0  0  0  0
  -27.5834  -29.3302   22.6595 C   0  0  0  0  0  0  0  0  0  0  0  0
  -17.0751  -28.4593   22.4867 C   0  0  0  0  0  0  0  0  0  0  0  0
  -23.2531  -25.3554   21.6428 C   0  0  0  0  0  0  0  0  0  0  0  0
  -24.8087  -27.4911   20.3147 C   0  0  0  0  0  0  0  0  0  0  0  0
  -18.3957  -29.2083   22.3286 C   0  0  0  0  0  0  0  0  0  0  0  0
  -29.5554  -19.4993   19.3303 C   0  0  0  0  0  0  0  0  0  0  0  0
  -18.9962  -28.9468   20.9509 C   0  0  0  0  0  0  0  0  0  0  0  0
  -28.5609  -18.3541   19.1439 C   0  0  0  0  0  0  0  0  0  0  0  0
  -29.4056  -20.1553   20.7004 C   0  0  0  0  0  0  0  0  0  0  0  0
  -27.0241  -19.4904   20.8052 C   0  0  0  0  0  0  0  0  0  0  0  0
  -19.3059  -27.4574   20.7579 C   0  0  1  0  0  0  0  0  0  0  0  0
  -22.9011  -26.8299   21.8135 C   0  0  1  0  0  0  0  0  0  0  0  0
  -27.1220  -18.8217   19.4239 C   0  0  2  0  0  0  0  0  0  0  0  0
  -31.5932  -23.6685   16.7012 C   0  0  0  0  0  0  0  0  0  0  0  0
  -29.7321  -30.2320   23.5906 C   0  0  0  0  0  0  0  0  0  0  0  0
  -27.9987  -24.1925   21.9388 C   0  0  0  0  0  0  0  0  0  0  0  0
  -29.5121  -22.3561   22.6945 C   0  0  0  0  0  0  0  0  0  0  0  0
  -23.5597  -31.2375   20.5888 C   0  0  0  0  0  0  0  0  0  0  0  0
  -25.7989  -32.1953   21.1694 C   0  0  0  0  0  0  0  0  0  0  0  0
  -24.1048  -31.8141   22.9604 C   0  0  0  0  0  0  0  0  0  0  0  0
  -27.7848  -27.1342   24.6333 C   0  0  0  0  0  0  0  0  0  0  0  0
  -28.7648  -22.8663   16.6243 C   0  0  0  0  0  0  0  0  0  0  0  0
  -28.3712  -24.1649   15.9170 C   0  0  0  0  0  0  0  0  0  0  0  0
  -27.3802  -25.0083   16.7106 C   0  0  0  0  0  0  0  0  0  1  0  0
  -25.2705  -29.8294   21.9142 C   0  0  1  0  0  0  0  0  0  0  0  0
  -28.4857  -29.4094   23.8777 C   0  0  2  0  0  0  0  0  0  0  0  0
  -28.6872  -22.8775   21.4801 C   0  0  0  0  0  0  0  0  0  0  0  0
  -24.6814  -31.2432   21.6465 C   0  0  0  0  0  0  0  0  0  0  0  0
  -31.4788  -23.6514   19.1145 N   0  0  0  0  0  0  0  0  0  0  0  0
  -26.5028  -16.4395   19.5812 N   0  0  0  0  0  0  0  0  0  0  0  0
  -28.7810  -22.8875   19.0554 N   0  0  0  0  0  0  0  0  0  0  0  0
  -26.1220  -17.6905   19.2710 N   0  0  0  0  0  0  0  0  0  0  0  0
  -24.0358  -27.7164   21.5473 N   0  0  0  0  0  0  0  0  0  0  0  0
  -28.0155  -20.5615   20.9398 N   0  0  0  0  0  0  0  0  0  0  0  0
  -24.2863  -18.9669   18.4890 N   0  0  0  0  0  0  0  0  0  0  0  0
  -22.6577  -14.7559   18.5944 N   0  0  0  0  0  0  0  0  0  0  0  0
  -20.5228  -27.0997   21.4549 N   0  0  0  0  0  0  0  0  0  0  0  0
  -26.3160  -29.8005   22.9312 N   0  0  0  0  0  0  0  0  0  0  0  0
  -28.9102  -28.0439   24.2975 N   0  3  0  0  0  0  0  0  0  0  0  0
  -22.1538  -16.9350   18.0882 O   0  0  0  0  0  0  0  0  0  0  0  0
  -22.0420  -27.7254   19.8047 O   0  0  0  0  0  0  0  0  0  0  0  0
  -23.5879  -29.0607   23.3990 O   0  0  0  0  0  0  0  0  0  0  0  0
  -26.4295  -22.1611   21.5113 O   0  0  0  0  0  0  0  0  0  0  0  0
  -27.9657  -28.8980   21.5744 O   0  0  0  0  0  0  0  0  0  0  0  0
  -25.4319  -10.1905   20.1743 O   0  0  0  0  0  0  0  0  0  0  0  0
  -26.2002  -24.2380   16.9355 O   0  0  0  0  0  0  0  0  0  1  0  0
  -21.1106   -7.9690   22.7810 F   0  0  0  0  0  0  0  0  0  0  0  0
  -22.8800  -10.4145   19.1349 F   0  0  0  0  0  0  0  0  0  0  0  0
  1  2  1  0  0  0  0
  1  5  2  0  0  0  0
  2  6  2  0  0  0  0
  3  8  2  0  0  0  0
  3 16  1  0  0  0  0
  4  9  1  0  0  0  0
  4 16  2  0  0  0  0
  5 18  1  0  0  0  0
  6 20  1  0  0  0  0
  7 10  2  0  0  0  0
  7 19  1  0  0  0  0
  8 22  1  0  0  0  0
  9 22  2  0  0  0  0
 10 23  1  0  0  0  0
 11 12  2  0  0  0  0
 11 24  1  0  0  0  0
 12 25  1  0  0  0  0
 13 21  1  0  0  0  0
 13 23  2  0  0  0  0
 14 25  2  0  0  0  0
 14 26  1  0  0  0  0
 15 28  1  0  0  0  0
 15 64  2  0  0  0  0
 16 27  1  0  0  0  0
 17 27  1  0  0  0  0
 17 31  2  0  0  0  0
 17 32  1  0  0  0  0
 18 20  2  0  0  0  0
 18 37  1  0  0  0  0
 19 21  2  0  0  0  0
 19 38  1  0  0  0  0
 20 46  1  0  0  0  0
 21 39  1  0  0  0  0
 22 80  1  0  0  0  0
 23 81  1  0  0  0  0
 24 26  2  0  0  0  0
 24 80  1  0  0  0  0
 25 82  1  0  0  0  0
 26 83  1  0  0  0  0
 27 65  2  0  0  0  0
 28 62  1  0  0  0  0
 28 66  2  0  0  0  0
 29 30  2  0  0  0  0
 29 49  1  0  0  0  0
 29 64  1  0  0  0  0
 30 57  1  0  0  0  0
 30 66  1  0  0  0  0
 31 67  1  0  0  0  0
 31 70  1  0  0  0  0
 32 71  1  0  0  0  0
 32 75  2  0  0  0  0
 33 47  1  0  0  0  0
 33 72  1  0  0  0  0
 33 76  2  0  0  0  0
 34 60  1  0  0  0  0
 34 68  1  0  0  0  0
 34 77  2  0  0  0  0
 35 62  1  0  0  0  0
 35 69  1  0  0  0  0
 35 78  2  0  0  0  0
 36 61  1  0  0  0  0
 36 73  1  0  0  0  0
 36 79  2  0  0  0  0
 37 40  1  0  0  0  0
 38 47  1  0  0  0  0
 39 68  1  0  0  0  0
 40 42  1  0  0  0  0
 41 43  1  0  0  0  0
 41 44  1  0  0  0  0
 42 46  1  0  0  0  0
 43 48  1  0  0  0  0
 44 69  1  0  0  0  0
 45 48  1  0  0  0  0
 45 69  1  0  0  0  0
 46 72  1  0  0  0  0
 47 68  1  0  0  0  0
 48 67  1  0  0  0  0
 50 61  1  0  0  0  0
 51 62  1  0  0  0  0
 52 62  1  0  0  0  0
 53 63  1  0  0  0  0
 54 63  1  0  0  0  0
 55 63  1  0  0  0  0
 56 74  1  0  0  0  0
 57 58  1  0  0  0  0
 58 59  1  0  0  0  0
 59 81  1  0  0  0  0
 60 63  1  0  0  0  0
 60 73  1  0  0  0  0
 61 74  1  0  0  0  0
 65 67  1  0  0  0  0
M  CHG  1  74   1
M  ISO  4  35 100  59 101  62 100  81 101
M  END
> <Batch ID>
0074

> <Smiles>
CNC(C)C(=O)NC(C(=O)N1Cc2cc([101O:1][101CH2:1]CCc3nc([100C:0](C)(C)[100C:0](=O)N4CCCC(n5nc(-c6ccc(Oc7ccc(F)cc7F)cc6)c(C(N)=O)c5N)C4)cnc3C)ccc2CC1C(=O)NC1CCCc2ccccc21)C(C)(C)C

> <Shape>
0.256

> <Color>
0.064

> <Negative vol penalty>
0.000

$$$$

  -OEChem-04052318293D

 84 92  0     1  0  0  0  0  0999 V2000
  -26.9886  -25.2591   15.8471 C   0  0  0  0  0  0  0  0  0  0  0  0
  -25.8407  -25.5526   16.5761 C   0  0  0  0  0  0  0  0  0  0  0  0
  -24.5563  -17.6084   23.0797 C   0  0  0  0  0  0  0  0  0  0  0  0
  -26.7582  -18.1960   22.2777 C   0  0  0  0  0  0  0  0  0  0  0  0
  -28.2452  -25.5071   16.3980 C   0  0  0  0  0  0  0  0  0  0  0  0
  -25.9487  -26.0933   17.8569 C   0  0  0  0  0  0  0  0  0  0  0  0
  -22.7501  -29.9453   18.6156 C   0  0  0  0  0  0  0  0  0  0  0  0
  -24.5190  -16.5343   22.1906 C   0  0  0  0  0  0  0  0  0  0  0  0
  -26.7210  -17.1219   21.3886 C   0  0  0  0  0  0  0  0  0  0  0  0
  -21.4173  -29.6254   18.8708 C   0  0  0  0  0  0  0  0  0  0  0  0
  -27.1691  -13.7745   21.5087 C   0  0  0  0  0  0  0  0  0  0  0  0
  -28.3069  -12.9732   21.4148 C   0  0  0  0  0  0  0  0  0  0  0  0
  -21.7953  -29.9591   21.2299 C   0  0  0  0  0  0  0  0  0  0  0  0
  -28.4963  -13.5172   19.0685 C   0  0  0  0  0  0  0  0  0  0  0  0
  -25.6759  -18.4393   23.1232 C   0  0  0  0  0  0  0  0  0  0  0  0
  -26.1983  -19.5427   25.3632 C   0  0  0  0  0  0  0  0  0  0  0  0
  -28.3686  -26.0601   17.6823 C   0  0  0  0  0  0  0  0  0  0  0  0
  -23.6197  -30.2644   19.6684 C   0  0  0  0  0  0  0  0  0  0  0  0
  -27.2081  -26.3477   18.4260 C   0  0  0  0  0  0  0  0  0  0  0  0
  -23.1380  -30.2852   20.9851 C   0  0  0  0  0  0  0  0  0  0  0  0
  -17.1606  -24.7936   24.3830 C   0  0  0  0  0  0  0  0  0  0  0  0
  -25.6014  -16.2911   21.3451 C   0  0  0  0  0  0  0  0  0  0  0  0
  -20.9404  -29.6295   20.1784 C   0  0  0  0  0  0  0  0  0  0  0  0
  -26.6948  -14.4471   20.3825 C   0  0  0  0  0  0  0  0  0  0  0  0
  -28.9705  -12.8445   20.1947 C   0  0  0  0  0  0  0  0  0  0  0  0
  -27.3585  -14.3185   19.1624 C   0  0  0  0  0  0  0  0  0  0  0  0
  -25.7147  -19.5494   24.0411 C   0  0  0  0  0  0  0  0  0  0  0  0
  -17.7665  -24.1605   25.4491 C   0  0  0  0  0  0  0  0  0  0  0  0
  -18.0161  -25.3311   23.4431 C   0  0  0  0  0  0  0  0  0  0  0  0
  -26.0153  -20.8313   25.8022 C   0  0  0  0  0  0  0  0  0  0  0  0
  -19.8301  -24.6187   24.6131 C   0  0  0  0  0  0  0  0  0  0  0  0
  -26.7625  -18.4680   26.1262 C   0  0  0  0  0  0  0  0  0  0  0  0
  -26.2916  -28.9966   20.8334 C   0  0  0  0  0  0  0  0  0  0  0  0
  -26.2718  -31.6470   22.7036 C   0  0  0  0  0  0  0  0  0  0  0  0
  -24.4700  -34.1576   24.1517 C   0  0  0  0  0  0  0  0  0  0  0  0
  -22.1235  -25.0823   23.7643 C   0  0  0  0  0  0  0  0  0  0  0  0
  -29.7488  -26.2664   18.2544 C   0  0  0  0  0  0  0  0  0  0  0  0
  -25.0478  -30.6333   19.3738 C   0  0  0  0  0  0  0  0  0  0  0  0
  -24.0258  -30.6406   22.1487 C   0  0  0  0  0  0  0  0  0  0  0  0
  -29.7725  -27.1895   19.4700 C   0  0  0  0  0  0  0  0  0  0  0  0
  -25.7745  -25.3368   24.2289 C   0  0  0  0  0  0  0  0  0  0  0  0
  -28.6683  -26.8087   20.4511 C   0  0  0  0  0  0  0  0  0  0  0  0
  -26.2139  -23.8745   24.2803 C   0  0  0  0  0  0  0  0  0  0  0  0
  -24.5286  -25.5243   23.3683 C   0  0  0  0  0  0  0  0  0  0  0  0
  -23.8232  -23.1952   23.8238 C   0  0  0  0  0  0  0  0  0  0  0  0
  -27.2839  -26.9580   19.8087 C   0  0  1  0  0  0  0  0  0  0  0  0
  -25.9736  -30.4415   20.5711 C   0  0  1  0  0  0  0  0  0  0  0  0
  -25.0511  -22.9673   24.7183 C   0  0  1  0  0  0  0  0  0  0  0  0
  -15.6816  -24.8875   24.2539 C   0  0  0  0  0  0  0  0  0  0  0  0
  -16.9431  -23.5407   26.5295 C   0  0  0  0  0  0  0  0  0  0  0  0
  -24.7243  -36.1505   25.6554 C   0  0  0  0  0  0  0  0  0  0  0  0
  -26.5051  -29.7937   25.1163 C   0  0  0  0  0  0  0  0  0  0  0  0
  -25.8054  -31.7098   26.5680 C   0  0  0  0  0  0  0  0  0  0  0  0
  -27.9148  -31.8554   25.2443 C   0  0  0  0  0  0  0  0  0  0  0  0
  -21.8293  -24.0595   26.0086 C   0  0  0  0  0  0  0  0  0  0  0  0
  -23.5060  -36.0092   22.0538 C   0  0  0  0  0  0  0  0  0  0  0  0
  -17.4692  -26.0452   22.2328 C   0  0  0  0  0  0  0  0  0  0  0  0
  -18.5179  -26.8617   21.4693 C   0  0  0  0  0  0  0  0  0  0  0  0
  -17.9296  -27.6395   20.2913 C   0  0  0  0  0  0  0  0  0  0  0  0
  -19.0057  -28.4057   19.5340 C   0  0  0  0  0  0  0  0  0  1  0  0
  -25.6904  -32.0001   24.0513 C   0  0  1  0  0  0  0  0  0  0  0  0
  -24.7031  -35.6562   24.2174 C   0  0  2  0  0  0  0  0  0  0  0  0
  -26.4624  -31.3311   25.2234 C   0  0  0  0  0  0  0  0  0  0  0  0
  -25.2586  -20.7470   23.6649 N   0  0  0  0  0  0  0  0  0  0  0  0
  -19.1034  -24.0542   25.5963 N   0  0  0  0  0  0  0  0  0  0  0  0
  -19.3609  -25.2619   23.5270 N   0  0  0  0  0  0  0  0  0  0  0  0
  -25.4547  -21.5050   24.7572 N   0  0  0  0  0  0  0  0  0  0  0  0
  -25.4158  -30.9877   21.8100 N   0  0  0  0  0  0  0  0  0  0  0  0
  -23.4543  -24.6184   23.7764 N   0  0  0  0  0  0  0  0  0  0  0  0
  -26.2807  -21.4423   26.9763 N   0  0  0  0  0  0  0  0  0  0  0  0
  -26.8779  -17.2085   25.5223 N   0  0  0  0  0  0  0  0  0  0  0  0
  -26.8923  -28.3507   19.7698 N   0  0  0  0  0  0  0  0  0  0  0  0
  -25.6572  -33.4574   24.1124 N   0  0  0  0  0  0  0  0  0  0  0  0
  -21.2656  -24.5256   24.7374 N   0  0  0  0  0  0  0  0  0  0  0  0
  -23.6246  -36.3807   23.4873 N   0  3  0  0  0  0  0  0  0  0  0  0
  -27.1378  -18.6160   27.3139 O   0  0  0  0  0  0  0  0  0  0  0  0
  -26.0138  -28.5046   21.9208 O   0  0  0  0  0  0  0  0  0  0  0  0
  -27.4400  -31.9514   22.4504 O   0  0  0  0  0  0  0  0  0  0  0  0
  -23.3472  -33.6580   24.1405 O   0  0  0  0  0  0  0  0  0  0  0  0
  -21.7412  -25.9470   22.9668 O   0  0  0  0  0  0  0  0  0  0  0  0
  -25.5655  -15.2429   20.4775 O   0  0  0  0  0  0  0  0  0  0  0  0
  -19.6402  -29.3170   20.4304 O   0  0  0  0  0  0  0  0  0  1  0  0
  -30.0641  -12.0762   20.1050 F   0  0  0  0  0  0  0  0  0  0  0  0
  -26.9083  -14.9631   18.0772 F   0  0  0  0  0  0  0  0  0  0  0  0
  1  2  1  0  0  0  0
  1  5  2  0  0  0  0
  2  6  2  0  0  0  0
  3  8  2  0  0  0  0
  3 15  1  0  0  0  0
  4  9  1  0  0  0  0
  4 15  2  0  0  0  0
  5 17  1  0  0  0  0
  6 19  1  0  0  0  0
  7 10  2  0  0  0  0
  7 18  1  0  0  0  0
  8 22  1  0  0  0  0
  9 22  2  0  0  0  0
 10 23  1  0  0  0  0
 11 12  2  0  0  0  0
 11 24  1  0  0  0  0
 12 25  1  0  0  0  0
 13 20  1  0  0  0  0
 13 23  2  0  0  0  0
 14 25  2  0  0  0  0
 14 26  1  0  0  0  0
 15 27  1  0  0  0  0
 16 27  1  0  0  0  0
 16 30  2  0  0  0  0
 16 32  1  0  0  0  0
 17 19  2  0  0  0  0
 17 37  1  0  0  0  0
 18 20  2  0  0  0  0
 18 38  1  0  0  0  0
 19 46  1  0  0  0  0
 20 39  1  0  0  0  0
 21 28  1  0  0  0  0
 21 29  2  0  0  0  0
 21 49  1  0  0  0  0
 22 81  1  0  0  0  0
 23 82  1  0  0  0  0
 24 26  2  0  0  0  0
 24 81  1  0  0  0  0
 25 83  1  0  0  0  0
 26 84  1  0  0  0  0
 27 64  2  0  0  0  0
 28 50  1  0  0  0  0
 28 65  2  0  0  0  0
 29 57  1  0  0  0  0
 29 66  1  0  0  0  0
 30 67  1  0  0  0  0
 30 70  1  0  0  0  0
 31 65  1  0  0  0  0
 31 66  2  0  0  0  0
 31 74  1  0  0  0  0
 32 71  1  0  0  0  0
 32 76  2  0  0  0  0
 33 47  1  0  0  0  0
 33 72  1  0  0  0  0
 33 77  2  0  0  0  0
 34 61  1  0  0  0  0
 34 68  1  0  0  0  0
 34 78  2  0  0  0  0
 35 62  1  0  0  0  0
 35 73  1  0  0  0  0
 35 79  2  0  0  0  0
 36 69  1  0  0  0  0
 36 74  1  0  0  0  0
 36 80  2  0  0  0  0
 37 40  1  0  0  0  0
 38 47  1  0  0  0  0
 39 68  1  0  0  0  0
 40 42  1  0  0  0  0
 41 43  1  0  0  0  0
 41 44  1  0  0  0  0
 42 46  1  0  0  0  0
 43 48  1  0  0  0  0
 44 69  1  0  0  0  0
 45 48  1  0  0  0  0
 45 69  1  0  0  0  0
 46 72  1  0  0  0  0
 47 68  1  0  0  0  0
 48 67  1  0  0  0  0
 51 62  1  0  0  0  0
 52 63  1  0  0  0  0
 53 63  1  0  0  0  0
 54 63  1  0  0  0  0
 55 74  1  0  0  0  0
 56 75  1  0  0  0  0
 57 58  1  0  0  0  0
 58 59  1  0  0  0  0
 59 60  1  0  0  0  0
 60 82  1  0  0  0  0
 61 63  1  0  0  0  0
 61 73  1  0  0  0  0
 62 75  1  0  0  0  0
 64 67  1  0  0  0  0
M  CHG  1  75   1
M  ISO  4  36 100  60 101  74 100  82 101
M  END
> <Batch ID>
0074

> <Smiles>
CNC(C)C(=O)NC(C(=O)N1Cc2cc([101O:1][101CH2:1]CCCc3nc([100N:0](C)[100C:0](=O)N4CCCC(n5nc(-c6ccc(Oc7ccc(F)cc7F)cc6)c(C(N)=O)c5N)C4)nc(C)c3C)ccc2CC1C(=O)NC1CCCc2ccccc21)C(C)(C)C

> <Shape>
0.238

> <Color>
0.070

> <Negative vol penalty>
0.000

$$$$

  -OEChem-04052318293D

 86 94  0     1  0  0  0  0  0999 V2000
  -21.3103  -12.4361   20.5858 C   0  0  0  0  0  0  0  0  0  0  0  0
  -21.4893  -13.4505   21.5210 C   0  0  0  0  0  0  0  0  0  0  0  0
  -23.8847  -32.2246   20.7117 C   0  0  0  0  0  0  0  0  0  0  0  0
  -25.2257  -30.8865   22.2112 C   0  0  0  0  0  0  0  0  0  0  0  0
  -22.4052  -11.9387   19.8804 C   0  0  0  0  0  0  0  0  0  0  0  0
  -22.7637  -13.9673   21.7519 C   0  0  0  0  0  0  0  0  0  0  0  0
  -24.1929  -19.7616   23.1262 C   0  0  0  0  0  0  0  0  0  0  0  0
  -24.6252  -33.3547   21.0579 C   0  0  0  0  0  0  0  0  0  0  0  0
  -25.9662  -32.0167   22.5574 C   0  0  0  0  0  0  0  0  0  0  0  0
  -24.4671  -20.3985   24.3358 C   0  0  0  0  0  0  0  0  0  0  0  0
  -25.6054  -34.7127   24.5654 C   0  0  0  0  0  0  0  0  0  0  0  0
  -25.8735  -34.9225   25.9180 C   0  0  0  0  0  0  0  0  0  0  0  0
  -26.8296  -20.0984   23.9512 C   0  0  0  0  0  0  0  0  0  0  0  0
  -25.2005  -24.2013   24.7807 C   0  0  0  0  0  0  0  0  0  0  0  0
  -28.2443  -34.8287   25.4627 C   0  0  0  0  0  0  0  0  0  0  0  0
  -24.1849  -30.9904   21.2883 C   0  0  0  0  0  0  0  0  0  0  0  0
  -23.6868  -28.9184   19.8862 C   0  0  0  0  0  0  0  0  0  0  0  0
  -23.6921  -12.4564   20.0958 C   0  0  0  0  0  0  0  0  0  0  0  0
  -25.2364  -19.2778   22.3240 C   0  0  0  0  0  0  0  0  0  0  0  0
  -23.8770  -13.4754   21.0496 C   0  0  0  0  0  0  0  0  0  0  0  0
  -26.5661  -19.4580   22.7308 C   0  0  0  0  0  0  0  0  0  0  0  0
  -24.8438  -24.9133   23.6490 C   0  0  0  0  0  0  0  0  0  0  0  0
  -25.6660  -33.2508   21.9807 C   0  0  0  0  0  0  0  0  0  0  0  0
  -25.7855  -20.5644   24.7498 C   0  0  0  0  0  0  0  0  0  0  0  0
  -26.6568  -34.5608   23.6614 C   0  0  0  0  0  0  0  0  0  0  0  0
  -27.1929  -34.9805   26.3667 C   0  0  0  0  0  0  0  0  0  0  0  0
  -27.9762  -34.6189   24.1100 C   0  0  0  0  0  0  0  0  0  0  0  0
  -23.4199  -29.8227   20.9315 C   0  0  0  0  0  0  0  0  0  0  0  0
  -26.5400  -24.1363   25.1076 C   0  0  0  0  0  0  0  0  0  0  0  0
  -25.8503  -25.5134   22.9193 C   0  0  0  0  0  0  0  0  0  0  0  0
  -22.6752  -27.9928   19.9663 C   0  0  0  0  0  0  0  0  0  0  0  0
  -24.7538  -28.9152   18.9285 C   0  0  0  0  0  0  0  0  0  0  0  0
  -26.1127  -16.4088   21.2730 C   0  0  0  0  0  0  0  0  0  0  0  0
  -28.2952  -18.1214   19.5920 C   0  0  0  0  0  0  0  0  0  0  0  0
  -30.1233  -20.9879   19.2951 C   0  0  0  0  0  0  0  0  0  0  0  0
  -19.6793  -24.6166   23.4222 C   0  0  0  0  0  0  0  0  0  0  0  0
  -24.8522  -11.8541   19.3434 C   0  0  0  0  0  0  0  0  0  0  0  0
  -24.9249  -18.6169   21.0092 C   0  0  0  0  0  0  0  0  0  0  0  0
  -27.7231  -18.9749   21.8962 C   0  0  0  0  0  0  0  0  0  0  0  0
  -26.1125  -12.7149   19.3766 C   0  0  0  0  0  0  0  0  0  0  0  0
  -18.3894  -27.9959   22.6360 C   0  0  0  0  0  0  0  0  0  0  0  0
  -26.3883  -13.2029   20.7952 C   0  0  0  0  0  0  0  0  0  0  0  0
  -19.6304  -28.7107   22.1040 C   0  0  0  0  0  0  0  0  0  0  0  0
  -18.7508  -26.8942   23.6276 C   0  0  0  0  0  0  0  0  0  0  0  0
  -20.9664  -26.6172   22.5653 C   0  0  0  0  0  0  0  0  0  0  0  0
  -25.2400  -14.0790   21.3103 C   0  0  1  0  0  0  0  0  0  0  0  0
  -26.0459  -17.7062   20.5179 C   0  0  1  0  0  0  0  0  0  0  0  0
  -20.6398  -27.7023   21.5283 C   0  0  2  0  0  0  0  0  0  0  0  0
  -26.2635  -25.7518   20.4578 C   0  0  0  0  0  0  0  0  0  0  0  0
  -31.8488  -22.0819   17.8380 C   0  0  0  0  0  0  0  0  0  0  0  0
  -28.1325  -21.2735   27.1199 C   0  0  0  0  0  0  0  0  0  0  0  0
  -30.4470  -16.3226   20.7936 C   0  0  0  0  0  0  0  0  0  0  0  0
  -32.1549  -18.0116   20.0876 C   0  0  0  0  0  0  0  0  0  0  0  0
  -30.7647  -16.8534   18.3704 C   0  0  0  0  0  0  0  0  0  0  0  0
  -20.6086  -22.3452   23.1849 C   0  0  0  0  0  0  0  0  0  0  0  0
  -28.3166  -23.2410   18.6482 C   0  0  0  0  0  0  0  0  0  0  0  0
  -23.4117  -25.0151   23.2522 C   0  0  0  0  0  0  0  0  0  0  0  0
  -26.9829  -23.3714   26.3326 C   0  0  0  0  0  0  0  0  0  0  0  0
  -25.5417  -26.2961   21.6878 C   0  0  0  0  0  0  0  0  0  0  0  0
  -22.9933  -24.0605   22.1154 C   0  0  0  0  0  0  0  0  0  0  0  0
  -21.5131  -24.1340   21.7469 C   0  0  0  0  0  0  0  0  0  0  0  0
  -29.7013  -18.6069   19.8492 C   0  0  1  0  0  0  0  0  0  0  0  0
  -30.3631  -21.9120   18.1149 C   0  0  2  0  0  0  0  0  0  0  0  0
  -27.2864  -21.9022   26.0201 C   0  0  2  0  0  0  0  0  0  1  0  0
  -30.7453  -17.4561   19.7921 C   0  0  0  0  0  0  0  0  0  0  0  0
  -22.3245  -29.5008   21.6247 N   0  0  0  0  0  0  0  0  0  0  0  0
  -27.5038  -24.7333   24.3750 N   0  0  0  0  0  0  0  0  0  0  0  0
  -27.1532  -25.4334   23.2629 N   0  0  0  0  0  0  0  0  0  0  0  0
  -21.8941  -28.3839   21.0137 N   0  0  0  0  0  0  0  0  0  0  0  0
  -27.3669  -18.3293   20.6219 N   0  0  0  0  0  0  0  0  0  0  0  0
  -19.7437  -25.9750   23.0706 N   0  0  0  0  0  0  0  0  0  0  0  0
  -22.3864  -26.8906   19.2422 N   0  0  0  0  0  0  0  0  0  0  0  0
  -25.7081  -29.9399   18.9881 N   0  0  0  0  0  0  0  0  0  0  0  0
  -25.3232  -15.4071   20.7413 N   0  0  0  0  0  0  0  0  0  0  0  0
  -29.9436  -19.6814   18.8926 N   0  0  0  0  0  0  0  0  0  0  0  0
  -20.6412  -23.7640   22.8596 N   0  0  0  0  0  0  0  0  0  0  0  0
  -29.7782  -23.2564   18.3824 N   0  3  0  0  0  0  0  0  0  0  0  0
  -24.8486  -28.0392   18.0357 O   0  0  0  0  0  0  0  0  0  0  0  0
  -26.8287  -16.3226   22.2637 O   0  0  0  0  0  0  0  0  0  0  0  0
  -28.0286  -17.5842   18.5140 O   0  0  0  0  0  0  0  0  0  0  0  0
  -30.1016  -21.3847   20.4582 O   0  0  0  0  0  0  0  0  0  0  0  0
  -18.8057  -24.1887   24.1875 O   0  0  0  0  0  0  0  0  0  0  0  0
  -26.3890  -34.3534   22.3186 O   0  0  0  0  0  0  0  0  0  0  0  0
  -26.0559  -21.1851   25.9303 O   0  0  0  0  0  0  0  0  0  1  0  0
  -27.4503  -35.1835   27.6655 F   0  0  0  0  0  0  0  0  0  0  0  0
  -28.9905  -34.4748   23.2461 F   0  0  0  0  0  0  0  0  0  0  0  0
  1  2  1  0  0  0  0
  1  5  2  0  0  0  0
  2  6  2  0  0  0  0
  3  8  2  0  0  0  0
  3 16  1  0  0  0  0
  4  9  1  0  0  0  0
  4 16  2  0  0  0  0
  5 18  1  0  0  0  0
  6 20  1  0  0  0  0
  7 10  2  0  0  0  0
  7 19  1  0  0  0  0
  8 23  1  0  0  0  0
  9 23  2  0  0  0  0
 10 24  1  0  0  0  0
 11 12  2  0  0  0  0
 11 25  1  0  0  0  0
 12 26  1  0  0  0  0
 13 21  1  0  0  0  0
 13 24  2  0  0  0  0
 14 22  1  0  0  0  0
 14 29  2  0  0  0  0
 15 26  2  0  0  0  0
 15 27  1  0  0  0  0
 16 28  1  0  0  0  0
 17 28  1  0  0  0  0
 17 31  2  0  0  0  0
 17 32  1  0  0  0  0
 18 20  2  0  0  0  0
 18 37  1  0  0  0  0
 19 21  2  0  0  0  0
 19 38  1  0  0  0  0
 20 46  1  0  0  0  0
 21 39  1  0  0  0  0
 22 30  2  0  0  0  0
 22 57  1  0  0  0  0
 23 83  1  0  0  0  0
 24 84  1  0  0  0  0
 25 27  2  0  0  0  0
 25 83  1  0  0  0  0
 26 85  1  0  0  0  0
 27 86  1  0  0  0  0
 28 66  2  0  0  0  0
 29 58  1  0  0  0  0
 29 67  1  0  0  0  0
 30 59  1  0  0  0  0
 30 68  1  0  0  0  0
 31 69  1  0  0  0  0
 31 72  1  0  0  0  0
 32 73  1  0  0  0  0
 32 78  2  0  0  0  0
 33 47  1  0  0  0  0
 33 74  1  0  0  0  0
 33 79  2  0  0  0  0
 34 62  1  0  0  0  0
 34 70  1  0  0  0  0
 34 80  2  0  0  0  0
 35 63  1  0  0  0  0
 35 75  1  0  0  0  0
 35 81  2  0  0  0  0
 36 71  1  0  0  0  0
 36 76  1  0  0  0  0
 36 82  2  0  0  0  0
 37 40  1  0  0  0  0
 38 47  1  0  0  0  0
 39 70  1  0  0  0  0
 40 42  1  0  0  0  0
 41 43  1  0  0  0  0
 41 44  1  0  0  0  0
 42 46  1  0  0  0  0
 43 48  1  0  0  0  0
 44 71  1  0  0  0  0
 45 48  1  0  0  0  0
 45 71  1  0  0  0  0
 46 74  1  0  0  0  0
 47 70  1  0  0  0  0
 48 69  1  0  0  0  0
 49 59  1  0  0  0  0
 50 63  1  0  0  0  0
 51 64  1  0  0  0  0
 52 65  1  0  0  0  0
 53 65  1  0  0  0  0
 54 65  1  0  0  0  0
 55 76  1  0  0  0  0
 56 77  1  0  0  0  0
 57 60  1  0  0  0  0
 58 64  1  0  0  0  0
 60 61  1  0  0  0  0
 61 76  1  0  0  0  0
 62 65  1  0  0  0  0
 62 75  1  0  0  0  0
 63 77  1  0  0  0  0
 64 84  1  0  0  0  0
 66 69  1  0  0  0  0
 67 68  2  0  0  0  0
M  CHG  1  77   1
M  ISO  4  36 100  64 101  76 100  84 101
M  END
> <Batch ID>
0074

> <Smiles>
CCc1nnc(C[101CH:1](C)[101O:1]c2ccc3c(c2)CN(C(=O)C(NC(=O)C(C)NC)C(C)(C)C)C(C(=O)NC2CCCc4ccccc42)C3)cc1CCC[100N:0](C)[100C:0](=O)N1CCCC(n2nc(-c3ccc(Oc4ccc(F)cc4F)cc3)c(C(N)=O)c2N)C1

> <Shape>
0.229

> <Color>
0.063

> <Negative vol penalty>
0.000

$$$$

  -OEChem-04052318293D

 87 95  0     1  0  0  0  0  0999 V2000
  -29.0553  -27.0841   21.9122 C   0  0  0  0  0  0  0  0  0  0  0  0
  -27.8838  -26.3541   21.7386 C   0  0  0  0  0  0  0  0  0  0  0  0
  -24.6877  -28.4669   21.9008 C   0  0  0  0  0  0  0  0  0  0  0  0
  -24.0066  -29.8171   20.0167 C   0  0  0  0  0  0  0  0  0  0  0  0
  -30.2355  -26.6617   21.3018 C   0  0  0  0  0  0  0  0  0  0  0  0
  -27.8917  -25.2017   20.9536 C   0  0  0  0  0  0  0  0  0  0  0  0
  -25.3923  -21.3630   23.1128 C   0  0  0  0  0  0  0  0  0  0  0  0
  -25.6111  -29.4455   22.2685 C   0  0  0  0  0  0  0  0  0  0  0  0
  -24.9300  -30.7959   20.3844 C   0  0  0  0  0  0  0  0  0  0  0  0
  -24.0001  -21.3912   23.0448 C   0  0  0  0  0  0  0  0  0  0  0  0
  -25.5765  -32.4346   23.8487 C   0  0  0  0  0  0  0  0  0  0  0  0
  -25.6438  -32.7888   25.1961 C   0  0  0  0  0  0  0  0  0  0  0  0
  -24.0644  -19.8297   21.2072 C   0  0  0  0  0  0  0  0  0  0  0  0
  -27.9603  -32.1056   25.2600 C   0  0  0  0  0  0  0  0  0  0  0  0
  -18.6521  -22.2395   17.1877 C   0  0  0  0  0  0  0  0  0  0  0  0
  -23.8855  -28.6526   20.7749 C   0  0  0  0  0  0  0  0  0  0  0  0
  -21.5898  -27.5408   20.8068 C   0  0  0  0  0  0  0  0  0  0  0  0
  -30.2600  -25.4982   20.5167 C   0  0  0  0  0  0  0  0  0  0  0  0
  -26.1328  -20.5750   22.2200 C   0  0  0  0  0  0  0  0  0  0  0  0
  -29.0730  -24.7640   20.3310 C   0  0  0  0  0  0  0  0  0  0  0  0
  -25.4658  -19.7912   21.2677 C   0  0  0  0  0  0  0  0  0  0  0  0
  -25.7322  -30.6101   21.5103 C   0  0  0  0  0  0  0  0  0  0  0  0
  -23.3360  -20.6267   22.0900 C   0  0  0  0  0  0  0  0  0  0  0  0
  -26.7011  -31.9158   23.2069 C   0  0  0  0  0  0  0  0  0  0  0  0
  -26.8357  -32.6244   25.9017 C   0  0  0  0  0  0  0  0  0  0  0  0
  -27.8930  -31.7514   23.9125 C   0  0  0  0  0  0  0  0  0  0  0  0
  -22.9319  -27.6417   20.3942 C   0  0  0  0  0  0  0  0  0  0  0  0
  -17.8368  -22.1742   18.2823 C   0  0  0  0  0  0  0  0  0  0  0  0
  -21.1187  -26.4180   20.1713 C   0  0  0  0  0  0  0  0  0  0  0  0
  -17.8707  -24.2732   17.5799 C   0  0  0  0  0  0  0  0  0  0  0  0
  -20.8362  -28.3865   21.6859 C   0  0  0  0  0  0  0  0  0  0  0  0
  -28.3073  -21.1665   19.9782 C   0  0  0  0  0  0  0  0  0  0  0  0
  -20.7014  -23.3212   15.5318 C   0  0  0  0  0  0  0  0  0  0  0  0
  -28.4948  -17.9304   19.8567 C   0  0  0  0  0  0  0  0  0  0  0  0
  -26.9928  -14.9181   20.4197 C   0  0  0  0  0  0  0  0  0  0  0  0
  -31.5490  -25.1072   19.8383 C   0  0  0  0  0  0  0  0  0  0  0  0
  -27.6328  -20.5349   22.3239 C   0  0  0  0  0  0  0  0  0  0  0  0
  -26.2135  -18.9128   20.2993 C   0  0  0  0  0  0  0  0  0  0  0  0
  -31.5568  -23.6685   19.3281 C   0  0  0  0  0  0  0  0  0  0  0  0
  -23.5551  -22.7941   17.6338 C   0  0  0  0  0  0  0  0  0  0  0  0
  -30.2626  -23.3596   18.5821 C   0  0  0  0  0  0  0  0  0  0  0  0
  -23.5544  -24.0149   18.5529 C   0  0  0  0  0  0  0  0  0  0  0  0
  -23.0663  -23.1493   16.2331 C   0  0  0  0  0  0  0  0  0  0  0  0
  -21.7195  -25.0237   17.1244 C   0  0  0  0  0  0  0  0  0  0  0  0
  -29.0469  -23.4950   19.5070 C   0  0  1  0  0  0  0  0  0  0  0  0
  -28.3098  -20.0934   21.0300 C   0  0  1  0  0  0  0  0  0  0  0  0
  -22.1774  -24.7021   18.5581 C   0  0  2  0  0  0  0  0  0  0  0  0
  -17.5958  -25.7287   17.4856 C   0  0  0  0  0  0  0  0  0  0  0  0
  -27.3799  -12.4497   20.1863 C   0  0  0  0  0  0  0  0  0  0  0  0
  -17.2755  -24.7474   14.3790 C   0  0  0  0  0  0  0  0  0  0  0  0
  -19.4371  -24.6022   13.1471 C   0  0  0  0  0  0  0  0  0  0  0  0
  -15.9121  -20.7164   19.2107 C   0  0  0  0  0  0  0  0  0  0  0  0
  -18.0981  -19.7073   18.6230 C   0  0  0  0  0  0  0  0  0  0  0  0
  -28.0011  -18.1395   16.8530 C   0  0  0  0  0  0  0  0  0  0  0  0
  -27.4564  -15.6959   16.8429 C   0  0  0  0  0  0  0  0  0  0  0  0
  -29.7346  -16.4614   17.5109 C   0  0  0  0  0  0  0  0  0  0  0  0
  -26.7286  -14.4834   23.3352 C   0  0  0  0  0  0  0  0  0  0  0  0
  -19.4513  -21.4064   20.7943 C   0  0  0  0  0  0  0  0  0  0  0  0
  -19.8265  -21.6924   22.2487 C   0  0  0  0  0  0  0  0  0  0  0  0
  -17.9371  -21.1958   20.6467 C   0  0  0  0  0  0  0  0  0  0  0  0
  -21.3298  -21.8609   22.4184 C   0  0  0  0  0  0  0  0  0  1  0  0
  -19.3929  -24.0633   15.6371 C   0  0  1  0  0  0  0  0  0  0  0  0
  -27.7885  -16.8471   19.0779 C   0  0  1  0  0  0  0  0  0  0  0  0
  -27.4892  -13.6573   21.1041 C   0  0  2  0  0  0  0  0  0  0  0  0
  -18.6142  -24.0014   14.2963 C   0  0  0  0  0  0  0  0  0  0  0  0
  -17.4350  -20.9913   19.1822 C   0  0  0  0  0  0  0  0  0  0  0  0
  -28.2309  -16.8039   17.5880 C   0  0  0  0  0  0  0  0  0  0  0  0
  -23.2904  -26.6611   19.5612 N   0  0  0  0  0  0  0  0  0  0  0  0
  -18.6542  -23.5497   16.7736 N   0  0  0  0  0  0  0  0  0  0  0  0
  -22.1666  -25.9333   19.4453 N   0  0  0  0  0  0  0  0  0  0  0  0
  -17.3675  -23.4467   18.5024 N   0  3  0  0  0  0  0  0  0  0  0  0
  -27.6793  -18.9125   20.4366 N   0  0  0  0  0  0  0  0  0  0  0  0
  -21.7661  -23.8202   16.2825 N   0  0  0  0  0  0  0  0  0  0  0  0
  -19.9145  -25.8078   20.1684 N   0  0  0  0  0  0  0  0  0  0  0  0
  -21.4740  -29.4982   22.2530 N   0  0  0  0  0  0  0  0  0  0  0  0
  -28.9337  -22.3356   20.3658 N   0  0  0  0  0  0  0  0  0  0  0  0
  -28.0195  -15.6042   19.8061 N   0  0  0  0  0  0  0  0  0  0  0  0
  -26.6915  -13.3870   22.3335 N   0  3  0  0  0  0  0  0  0  0  0  0
  -19.6375  -28.1536   21.9732 O   0  0  0  0  0  0  0  0  0  0  0  0
  -27.7776  -20.9493   18.8948 O   0  0  0  0  0  0  0  0  0  0  0  0
  -20.7723  -22.3260   14.8059 O   0  0  0  0  0  0  0  0  0  0  0  0
  -29.7242  -17.9022   19.9532 O   0  0  0  0  0  0  0  0  0  0  0  0
  -25.8118  -15.2583   20.4255 O   0  0  0  0  0  0  0  0  0  0  0  0
  -26.6329  -31.5654   21.8689 O   0  0  0  0  0  0  0  0  0  0  0  0
  -21.9772  -20.6529   22.0209 O   0  0  0  0  0  0  0  0  0  1  0  0
  -26.9006  -32.9660   27.1953 F   0  0  0  0  0  0  0  0  0  0  0  0
  -28.9770  -31.2546   23.3011 F   0  0  0  0  0  0  0  0  0  0  0  0
  1  2  1  0  0  0  0
  1  5  2  0  0  0  0
  2  6  2  0  0  0  0
  3  8  2  0  0  0  0
  3 16  1  0  0  0  0
  4  9  1  0  0  0  0
  4 16  2  0  0  0  0
  5 18  1  0  0  0  0
  6 20  1  0  0  0  0
  7 10  2  0  0  0  0
  7 19  1  0  0  0  0
  8 22  1  0  0  0  0
  9 22  2  0  0  0  0
 10 23  1  0  0  0  0
 11 12  2  0  0  0  0
 11 24  1  0  0  0  0
 12 25  1  0  0  0  0
 13 21  1  0  0  0  0
 13 23  2  0  0  0  0
 14 25  2  0  0  0  0
 14 26  1  0  0  0  0
 15 28  2  0  0  0  0
 15 69  1  0  0  0  0
 16 27  1  0  0  0  0
 17 27  1  0  0  0  0
 17 29  2  0  0  0  0
 17 31  1  0  0  0  0
 18 20  2  0  0  0  0
 18 36  1  0  0  0  0
 19 21  2  0  0  0  0
 19 37  1  0  0  0  0
 20 45  1  0  0  0  0
 21 38  1  0  0  0  0
 22 84  1  0  0  0  0
 23 85  1  0  0  0  0
 24 26  2  0  0  0  0
 24 84  1  0  0  0  0
 25 86  1  0  0  0  0
 26 87  1  0  0  0  0
 27 68  2  0  0  0  0
 28 66  1  0  0  0  0
 28 71  1  0  0  0  0
 29 70  1  0  0  0  0
 29 74  1  0  0  0  0
 30 48  1  0  0  0  0
 30 69  1  0  0  0  0
 30 71  2  0  0  0  0
 31 75  1  0  0  0  0
 31 79  2  0  0  0  0
 32 46  1  0  0  0  0
 32 76  1  0  0  0  0
 32 80  2  0  0  0  0
 33 62  1  0  0  0  0
 33 73  1  0  0  0  0
 33 81  2  0  0  0  0
 34 63  1  0  0  0  0
 34 72  1  0  0  0  0
 34 82  2  0  0  0  0
 35 64  1  0  0  0  0
 35 77  1  0  0  0  0
 35 83  2  0  0  0  0
 36 39  1  0  0  0  0
 37 46  1  0  0  0  0
 38 72  1  0  0  0  0
 39 41  1  0  0  0  0
 40 42  1  0  0  0  0
 40 43  1  0  0  0  0
 41 45  1  0  0  0  0
 42 47  1  0  0  0  0
 43 73  1  0  0  0  0
 44 47  1  0  0  0  0
 44 73  1  0  0  0  0
 45 76  1  0  0  0  0
 46 72  1  0  0  0  0
 47 70  1  0  0  0  0
 49 64  1  0  0  0  0
 50 65  1  0  0  0  0
 51 65  1  0  0  0  0
 52 66  1  0  0  0  0
 53 66  1  0  0  0  0
 54 67  1  0  0  0  0
 55 67  1  0  0  0  0
 56 67  1  0  0  0  0
 57 78  1  0  0  0  0
 58 59  1  0  0  0  0
 58 60  1  0  0  0  0
 59 61  1  0  0  0  0
 60 66  1  0  0  0  0
 61 85  1  0  0  0  0
 62 65  1  0  0  0  0
 62 69  1  0  0  0  0
 63 67  1  0  0  0  0
 63 77  1  0  0  0  0
 64 78  1  0  0  0  0
 68 70  1  0  0  0  0
M  CHG  2  71   1  78   1
M  ISO  4  33 100  61 101  62 100  85 101
M  END
> <Batch ID>
0074

> <Smiles>
CNC(C)C(=O)NC(C(=O)N1Cc2cc([101O:1][101CH2:1]CCCC(C)(C)c3cn([100CH:0](C(C)C)[100C:0](=O)N4CCCC(n5nc(-c6ccc(Oc7ccc(F)cc7F)cc6)c(C(N)=O)c5N)C4)c(C)n3)ccc2CC1C(=O)NC1CCCc2ccccc21)C(C)(C)C

> <Shape>
0.212

> <Color>
0.059

> <Negative vol penalty>
0.000

$$$$

  -OEChem-04052318293D

 85 93  0     1  0  0  0  0  0999 V2000
  -19.2571  -33.3302   20.3978 C   0  0  0  0  0  0  0  0  0  0  0  0
  -20.4951  -32.8333   20.0029 C   0  0  0  0  0  0  0  0  0  0  0  0
  -24.7205   -9.0753   21.6353 C   0  0  0  0  0  0  0  0  0  0  0  0
  -23.3231  -10.0828   19.9414 C   0  0  0  0  0  0  0  0  0  0  0  0
  -18.7255  -32.9703   21.6354 C   0  0  0  0  0  0  0  0  0  0  0  0
  -21.2027  -31.9771   20.8459 C   0  0  0  0  0  0  0  0  0  0  0  0
  -24.7853  -27.2989   19.1770 C   0  0  0  0  0  0  0  0  0  0  0  0
  -23.6765   -8.2201   21.9880 C   0  0  0  0  0  0  0  0  0  0  0  0
  -22.2791   -9.2276   20.2940 C   0  0  0  0  0  0  0  0  0  0  0  0
  -26.1669  -27.1804   19.0333 C   0  0  0  0  0  0  0  0  0  0  0  0
  -22.2804   -5.3753   20.8087 C   0  0  0  0  0  0  0  0  0  0  0  0
  -22.5833   -4.0274   21.0005 C   0  0  0  0  0  0  0  0  0  0  0  0
  -26.3136  -26.2616   21.2589 C   0  0  0  0  0  0  0  0  0  0  0  0
  -21.8010   -4.1762   23.2815 C   0  0  0  0  0  0  0  0  0  0  0  0
  -29.5408  -21.9193   19.6832 C   0  0  0  0  0  0  0  0  0  0  0  0
  -29.8836  -21.9563   21.8598 C   0  0  0  0  0  0  0  0  0  0  0  0
  -24.5438  -10.0067   20.6120 C   0  0  0  0  0  0  0  0  0  0  0  0
  -26.6221  -10.6596   19.2846 C   0  0  0  0  0  0  0  0  0  0  0  0
  -19.4225  -32.1016   22.4899 C   0  0  0  0  0  0  0  0  0  0  0  0
  -24.1576  -26.9091   20.3689 C   0  0  0  0  0  0  0  0  0  0  0  0
  -20.6804  -31.6063   22.0967 C   0  0  0  0  0  0  0  0  0  0  0  0
  -24.9235  -26.3738   21.4143 C   0  0  0  0  0  0  0  0  0  0  0  0
  -22.4558   -8.2962   21.3173 C   0  0  0  0  0  0  0  0  0  0  0  0
  -26.9317  -26.6643   20.0754 C   0  0  0  0  0  0  0  0  0  0  0  0
  -21.7379   -6.1238   21.8533 C   0  0  0  0  0  0  0  0  0  0  0  0
  -22.3436   -3.4278   22.2369 C   0  0  0  0  0  0  0  0  0  0  0  0
  -21.4982   -5.5242   23.0897 C   0  0  0  0  0  0  0  0  0  0  0  0
  -25.6217  -10.8907   20.2477 C   0  0  0  0  0  0  0  0  0  0  0  0
  -28.9570  -20.8395   20.3027 C   0  0  0  0  0  0  0  0  0  0  0  0
  -27.3981  -11.7923   19.3169 C   0  0  0  0  0  0  0  0  0  0  0  0
  -26.8311   -9.5226   18.4365 C   0  0  0  0  0  0  0  0  0  0  0  0
  -22.4487  -28.4005   22.5958 C   0  0  0  0  0  0  0  0  0  0  0  0
  -27.7556  -17.2832   19.3446 C   0  0  0  0  0  0  0  0  0  0  0  0
  -22.0627  -25.3965   23.7573 C   0  0  0  0  0  0  0  0  0  0  0  0
  -23.2341  -22.1978   23.9648 C   0  0  0  0  0  0  0  0  0  0  0  0
  -18.8290  -31.7786   23.8383 C   0  0  0  0  0  0  0  0  0  0  0  0
  -22.6630  -27.0185   20.4981 C   0  0  0  0  0  0  0  0  0  0  0  0
  -24.2955  -25.9220   22.7066 C   0  0  0  0  0  0  0  0  0  0  0  0
  -19.4713  -30.5691   24.5126 C   0  0  0  0  0  0  0  0  0  0  0  0
  -27.4824  -15.6457   22.5804 C   0  0  0  0  0  0  0  0  0  0  0  0
  -20.9919  -30.6572   24.4308 C   0  0  0  0  0  0  0  0  0  0  0  0
  -27.0245  -14.2449   22.1764 C   0  0  0  0  0  0  0  0  0  0  0  0
  -26.8903  -16.7152   21.6663 C   0  0  0  0  0  0  0  0  0  0  0  0
  -26.7113  -15.0889   19.8095 C   0  0  0  0  0  0  0  0  0  0  0  0
  -21.4669  -30.6555   22.9727 C   0  0  1  0  0  0  0  0  0  0  0  0
  -22.1908  -27.0696   21.9479 C   0  0  1  0  0  0  0  0  0  0  0  0
  -27.3109  -13.9784   20.6883 C   0  0  2  0  0  0  0  0  0  0  0  0
  -26.7067  -19.8379   20.1861 C   0  0  0  0  0  0  0  0  0  0  0  0
  -22.7243  -19.9777   25.0177 C   0  0  0  0  0  0  0  0  0  0  0  0
  -30.5820  -16.4890   19.5428 C   0  0  0  0  0  0  0  0  0  0  0  0
  -31.2350  -18.8640   19.9885 C   0  0  0  0  0  0  0  0  0  0  0  0
  -30.2508  -18.2547   17.8063 C   0  0  0  0  0  0  0  0  0  0  0  0
  -23.0807  -26.4371   26.4388 C   0  0  0  0  0  0  0  0  0  0  0  0
  -23.4495  -24.0625   27.1413 C   0  0  0  0  0  0  0  0  0  0  0  0
  -21.1483  -24.8576   26.5984 C   0  0  0  0  0  0  0  0  0  0  0  0
  -22.9605  -20.8800   21.3291 C   0  0  0  0  0  0  0  0  0  0  0  0
  -30.1375  -25.0307   19.8633 C   0  0  0  0  0  0  0  0  0  0  0  0
  -30.9151  -23.9051   20.5489 C   0  0  0  0  0  0  0  0  0  0  0  0
  -28.9176  -25.4903   20.6532 C   0  0  0  0  0  0  0  0  0  1  0  0
  -28.1838  -19.7479   19.6914 C   0  0  2  0  0  0  0  0  0  0  0  0
  -28.7413  -18.2776   19.9044 C   0  0  2  0  0  0  0  0  0  0  0  0
  -22.8166  -24.5208   24.7288 C   0  0  1  0  0  0  0  0  0  0  0  0
  -22.5415  -20.8582   23.7913 C   0  0  2  0  0  0  0  0  0  0  0  0
  -30.1709  -17.9564   19.3180 C   0  0  0  0  0  0  0  0  0  0  0  0
  -22.6362  -24.9798   26.2033 C   0  0  0  0  0  0  0  0  0  0  0  0
  -29.1739  -20.8685   21.6576 N   0  0  0  0  0  0  0  0  0  0  0  0
  -25.7483  -12.0771   20.8481 N   0  0  0  0  0  0  0  0  0  0  0  0
  -30.1301  -22.6258   20.6935 N   0  0  0  0  0  0  0  0  0  0  0  0
  -26.8374  -12.6015   20.2609 N   0  0  0  0  0  0  0  0  0  0  0  0
  -22.8315  -26.0549   22.7871 N   0  0  0  0  0  0  0  0  0  0  0  0
  -27.1611  -16.4104   20.2563 N   0  0  0  0  0  0  0  0  0  0  0  0
  -28.4987  -12.1652   18.6298 N   0  0  0  0  0  0  0  0  0  0  0  0
  -25.9400   -8.4450   18.5319 N   0  0  0  0  0  0  0  0  0  0  0  0
  -21.4259  -29.3148   22.4294 N   0  0  0  0  0  0  0  0  0  0  0  0
  -22.3785  -23.1535   24.4707 N   0  0  0  0  0  0  0  0  0  0  0  0
  -23.0945  -20.1384   22.6093 N   0  3  0  0  0  0  0  0  0  0  0  0
  -27.7897   -9.4570   17.6300 O   0  0  0  0  0  0  0  0  0  0  0  0
  -23.4972  -28.5839   23.2029 O   0  0  0  0  0  0  0  0  0  0  0  0
  -27.5243  -17.2819   18.1327 O   0  0  0  0  0  0  0  0  0  0  0  0
  -20.8361  -25.4871   23.8511 O   0  0  0  0  0  0  0  0  0  0  0  0
  -24.4170  -22.3775   23.6836 O   0  0  0  0  0  0  0  0  0  0  0  0
  -21.4370   -7.4617   21.6610 O   0  0  0  0  0  0  0  0  0  0  0  0
  -28.2806  -26.5482   19.9380 O   0  0  0  0  0  0  0  0  0  1  0  0
  -22.6331   -2.1329   22.4205 F   0  0  0  0  0  0  0  0  0  0  0  0
  -20.9760   -6.2378   24.0966 F   0  0  0  0  0  0  0  0  0  0  0  0
  1  2  1  0  0  0  0
  1  5  2  0  0  0  0
  2  6  2  0  0  0  0
  3  8  2  0  0  0  0
  3 17  1  0  0  0  0
  4  9  1  0  0  0  0
  4 17  2  0  0  0  0
  5 19  1  0  0  0  0
  6 21  1  0  0  0  0
  7 10  2  0  0  0  0
  7 20  1  0  0  0  0
  8 23  1  0  0  0  0
  9 23  2  0  0  0  0
 10 24  1  0  0  0  0
 11 12  2  0  0  0  0
 11 25  1  0  0  0  0
 12 26  1  0  0  0  0
 13 22  1  0  0  0  0
 13 24  2  0  0  0  0
 14 26  2  0  0  0  0
 14 27  1  0  0  0  0
 15 29  2  0  0  0  0
 15 68  1  0  0  0  0
 16 66  2  0  0  0  0
 16 68  1  0  0  0  0
 17 28  1  0  0  0  0
 18 28  1  0  0  0  0
 18 30  2  0  0  0  0
 18 31  1  0  0  0  0
 19 21  2  0  0  0  0
 19 36  1  0  0  0  0
 20 22  2  0  0  0  0
 20 37  1  0  0  0  0
 21 45  1  0  0  0  0
 22 38  1  0  0  0  0
 23 82  1  0  0  0  0
 24 83  1  0  0  0  0
 25 27  2  0  0  0  0
 25 82  1  0  0  0  0
 26 84  1  0  0  0  0
 27 85  1  0  0  0  0
 28 67  2  0  0  0  0
 29 60  1  0  0  0  0
 29 66  1  0  0  0  0
 30 69  1  0  0  0  0
 30 72  1  0  0  0  0
 31 73  1  0  0  0  0
 31 77  2  0  0  0  0
 32 46  1  0  0  0  0
 32 74  1  0  0  0  0
 32 78  2  0  0  0  0
 33 61  1  0  0  0  0
 33 71  1  0  0  0  0
 33 79  2  0  0  0  0
 34 62  1  0  0  0  0
 34 70  1  0  0  0  0
 34 80  2  0  0  0  0
 35 63  1  0  0  0  0
 35 75  1  0  0  0  0
 35 81  2  0  0  0  0
 36 39  1  0  0  0  0
 37 46  1  0  0  0  0
 38 70  1  0  0  0  0
 39 41  1  0  0  0  0
 40 42  1  0  0  0  0
 40 43  1  0  0  0  0
 41 45  1  0  0  0  0
 42 47  1  0  0  0  0
 43 71  1  0  0  0  0
 44 47  1  0  0  0  0
 44 71  1  0  0  0  0
 45 74  1  0  0  0  0
 46 70  1  0  0  0  0
 47 69  1  0  0  0  0
 48 60  1  0  0  0  0
 49 63  1  0  0  0  0
 50 64  1  0  0  0  0
 51 64  1  0  0  0  0
 52 64  1  0  0  0  0
 53 65  1  0  0  0  0
 54 65  1  0  0  0  0
 55 65  1  0  0  0  0
 56 76  1  0  0  0  0
 57 58  1  0  0  0  0
 57 59  1  0  0  0  0
 58 68  1  0  0  0  0
 59 83  1  0  0  0  0
 60 61  1  0  0  0  0
 61 64  1  0  0  0  0
 62 65  1  0  0  0  0
 62 75  1  0  0  0  0
 63 76  1  0  0  0  0
 67 69  1  0  0  0  0
M  CHG  1  76   1
M  ISO  4  33 100  59 101  61 100  83 101
M  END
> <Batch ID>
0074

> <Smiles>
CNC(C)C(=O)NC(C(=O)N1Cc2cc([101O:1][101CH2:1]CCn3cnc(C(C)[100CH:0]([100C:0](=O)N4CCCC(n5nc(-c6ccc(Oc7ccc(F)cc7F)cc6)c(C(N)=O)c5N)C4)C(C)(C)C)c3)ccc2CC1C(=O)NC1CCCc2ccccc21)C(C)(C)C

> <Shape>
0.252

> <Color>
0.105

> <Negative vol penalty>
0.000

$$$$

  -OEChem-04052318293D

 83 91  0     1  0  0  0  0  0999 V2000
  -26.6446  -38.0119   24.6655 C   0  0  0  0  0  0  0  0  0  0  0  0
  -27.3563  -37.2507   23.7438 C   0  0  0  0  0  0  0  0  0  0  0  0
  -23.8356  -14.0633   20.5041 C   0  0  0  0  0  0  0  0  0  0  0  0
  -26.2432  -14.1354   20.6919 C   0  0  0  0  0  0  0  0  0  0  0  0
  -25.8551  -37.3818   25.6265 C   0  0  0  0  0  0  0  0  0  0  0  0
  -27.2796  -35.8590   23.7832 C   0  0  0  0  0  0  0  0  0  0  0  0
  -27.4068  -30.1364   19.4759 C   0  0  0  0  0  0  0  0  0  0  0  0
  -23.8953  -12.6905   20.2650 C   0  0  0  0  0  0  0  0  0  0  0  0
  -26.3029  -12.7625   20.4528 C   0  0  0  0  0  0  0  0  0  0  0  0
  -28.0620  -28.9148   19.3270 C   0  0  0  0  0  0  0  0  0  0  0  0
  -24.2884   -9.8616   22.0750 C   0  0  0  0  0  0  0  0  0  0  0  0
  -23.3849   -9.0453   22.7554 C   0  0  0  0  0  0  0  0  0  0  0  0
  -26.6036  -27.9378   20.9815 C   0  0  0  0  0  0  0  0  0  0  0  0
  -22.4836   -8.2852   20.6465 C   0  0  0  0  0  0  0  0  0  0  0  0
  -28.0845  -23.1817   19.9822 C   0  0  0  0  0  0  0  0  0  0  0  0
  -25.0095  -14.7859   20.7175 C   0  0  0  0  0  0  0  0  0  0  0  0
  -24.8322  -16.8460   22.2114 C   0  0  0  0  0  0  0  0  0  0  0  0
  -25.7610  -35.9819   25.6717 C   0  0  0  0  0  0  0  0  0  0  0  0
  -26.3504  -30.2709   20.3882 C   0  0  0  0  0  0  0  0  0  0  0  0
  -26.4891  -35.2096   24.7466 C   0  0  0  0  0  0  0  0  0  0  0  0
  -25.9350  -29.1615   21.1383 C   0  0  0  0  0  0  0  0  0  0  0  0
  -25.1289  -12.0400   20.2394 C   0  0  0  0  0  0  0  0  0  0  0  0
  -27.6623  -27.8160   20.0819 C   0  0  0  0  0  0  0  0  0  0  0  0
  -24.2894   -9.8899   20.6804 C   0  0  0  0  0  0  0  0  0  0  0  0
  -22.4826   -8.2570   22.0411 C   0  0  0  0  0  0  0  0  0  0  0  0
  -23.3871   -9.1017   19.9662 C   0  0  0  0  0  0  0  0  0  0  0  0
  -24.9486  -16.2042   20.9639 C   0  0  0  0  0  0  0  0  0  0  0  0
  -28.6809  -24.3285   20.4652 C   0  0  0  0  0  0  0  0  0  0  0  0
  -28.9332  -22.1177   19.7546 C   0  0  0  0  0  0  0  0  0  0  0  0
  -24.8166  -18.1856   21.9082 C   0  0  0  0  0  0  0  0  0  0  0  0
  -30.7244  -23.3329   20.4491 C   0  0  0  0  0  0  0  0  0  0  0  0
  -24.7461  -16.2819   23.5267 C   0  0  0  0  0  0  0  0  0  0  0  0
  -25.8449  -32.0219   22.9925 C   0  0  0  0  0  0  0  0  0  0  0  0
  -22.8740  -30.7326   22.8088 C   0  0  0  0  0  0  0  0  0  0  0  0
  -26.9427  -21.2596   17.2027 C   0  0  0  0  0  0  0  0  0  0  0  0
  -20.8830  -28.1878   21.7104 C   0  0  0  0  0  0  0  0  0  0  0  0
  -24.9320  -35.3447   26.7586 C   0  0  0  0  0  0  0  0  0  0  0  0
  -25.6365  -31.5885   20.5177 C   0  0  0  0  0  0  0  0  0  0  0  0
  -24.7932  -29.2483   22.1167 C   0  0  0  0  0  0  0  0  0  0  0  0
  -24.6091  -33.8760   26.4964 C   0  0  0  0  0  0  0  0  0  0  0  0
  -23.5816  -21.2347   18.4447 C   0  0  0  0  0  0  0  0  0  0  0  0
  -25.8606  -33.1252   26.0527 C   0  0  0  0  0  0  0  0  0  0  0  0
  -23.5324  -19.9845   19.3222 C   0  0  0  0  0  0  0  0  0  0  0  0
  -24.4809  -21.0291   17.2298 C   0  0  0  0  0  0  0  0  0  0  0  0
  -25.8229  -19.3434   18.4460 C   0  0  0  0  0  0  0  0  0  0  0  0
  -26.4120  -33.6982   24.7416 C   0  0  1  0  0  0  0  0  0  0  0  0
  -24.9094  -31.7458   21.8496 C   0  0  1  0  0  0  0  0  0  0  0  0
  -24.9495  -19.5189   19.7009 C   0  0  2  0  0  0  0  0  0  0  0  0
  -32.1900  -23.4150   20.7117 C   0  0  0  0  0  0  0  0  0  0  0  0
  -29.0861  -19.5998   19.8584 C   0  0  0  0  0  0  0  0  0  0  0  0
  -18.5033  -27.3922   21.7468 C   0  0  0  0  0  0  0  0  0  0  0  0
  -28.4082  -19.2905   17.1244 C   0  0  0  0  0  0  0  0  0  0  0  0
  -29.3274  -21.6142   16.9706 C   0  0  0  0  0  0  0  0  0  0  0  0
  -23.2222  -29.8315   25.7031 C   0  0  0  0  0  0  0  0  0  0  0  0
  -21.2918  -28.2711   25.3764 C   0  0  0  0  0  0  0  0  0  0  0  0
  -20.9543  -30.7330   25.1568 C   0  0  0  0  0  0  0  0  0  0  0  0
  -20.6757  -28.3078   18.7605 C   0  0  0  0  0  0  0  0  0  0  0  0
  -27.8389  -25.5387   20.7442 C   0  0  0  0  0  0  0  0  0  1  0  0
  -28.3792  -20.8339   19.2337 C   0  0  2  0  0  0  0  0  0  0  0  0
  -22.2131  -29.4886   23.3515 C   0  0  1  0  0  0  0  0  0  0  0  0
  -19.5486  -28.1934   20.9866 C   0  0  2  0  0  0  0  0  0  0  0  0
  -28.2767  -20.7241   17.6586 C   0  0  0  0  0  0  0  0  0  0  0  0
  -21.9431  -29.5796   24.8800 C   0  0  0  0  0  0  0  0  0  0  0  0
  -25.0028  -17.0651   19.9442 N   0  0  0  0  0  0  0  0  0  0  0  0
  -30.0029  -24.4394   20.7110 N   0  0  0  0  0  0  0  0  0  0  0  0
  -30.2632  -22.1587   19.9777 N   0  0  0  0  0  0  0  0  0  0  0  0
  -24.9202  -18.2616   20.5504 N   0  0  0  0  0  0  0  0  0  0  0  0
  -24.1309  -30.5597   22.2120 N   0  0  0  0  0  0  0  0  0  0  0  0
  -25.8106  -20.5655   17.6300 N   0  0  0  0  0  0  0  0  0  0  0  0
  -24.7245  -19.2940   22.6733 N   0  0  0  0  0  0  0  0  0  0  0  0
  -24.7768  -14.8869   23.6587 N   0  0  0  0  0  0  0  0  0  0  0  0
  -25.6268  -33.2348   23.6177 N   0  0  0  0  0  0  0  0  0  0  0  0
  -21.0159  -29.2774   22.5449 N   0  0  0  0  0  0  0  0  0  0  0  0
  -19.6949  -27.6034   19.6259 N   0  3  0  0  0  0  0  0  0  0  0  0
  -24.6284  -16.9932   24.5532 O   0  0  0  0  0  0  0  0  0  0  0  0
  -26.7003  -31.1951   23.2864 O   0  0  0  0  0  0  0  0  0  0  0  0
  -22.2932  -31.8167   22.9043 O   0  0  0  0  0  0  0  0  0  0  0  0
  -26.9097  -22.2666   16.4905 O   0  0  0  0  0  0  0  0  0  0  0  0
  -21.7218  -27.3032   21.5541 O   0  0  0  0  0  0  0  0  0  0  0  0
  -25.1876  -10.7003   20.0064 O   0  0  0  0  0  0  0  0  0  0  0  0
  -28.3005  -26.6226   19.9390 O   0  0  0  0  0  0  0  0  0  1  0  0
  -21.6160   -7.4720   22.6946 F   0  0  0  0  0  0  0  0  0  0  0  0
  -23.3842   -9.1237   18.6263 F   0  0  0  0  0  0  0  0  0  0  0  0
  1  2  1  0  0  0  0
  1  5  2  0  0  0  0
  2  6  2  0  0  0  0
  3  8  2  0  0  0  0
  3 16  1  0  0  0  0
  4  9  1  0  0  0  0
  4 16  2  0  0  0  0
  5 18  1  0  0  0  0
  6 20  1  0  0  0  0
  7 10  2  0  0  0  0
  7 19  1  0  0  0  0
  8 22  1  0  0  0  0
  9 22  2  0  0  0  0
 10 23  1  0  0  0  0
 11 12  2  0  0  0  0
 11 24  1  0  0  0  0
 12 25  1  0  0  0  0
 13 21  1  0  0  0  0
 13 23  2  0  0  0  0
 14 25  2  0  0  0  0
 14 26  1  0  0  0  0
 15 28  1  0  0  0  0
 15 29  2  0  0  0  0
 16 27  1  0  0  0  0
 17 27  1  0  0  0  0
 17 30  2  0  0  0  0
 17 32  1  0  0  0  0
 18 20  2  0  0  0  0
 18 37  1  0  0  0  0
 19 21  2  0  0  0  0
 19 38  1  0  0  0  0
 20 46  1  0  0  0  0
 21 39  1  0  0  0  0
 22 80  1  0  0  0  0
 23 81  1  0  0  0  0
 24 26  2  0  0  0  0
 24 80  1  0  0  0  0
 25 82  1  0  0  0  0
 26 83  1  0  0  0  0
 27 64  2  0  0  0  0
 28 58  1  0  0  0  0
 28 65  2  0  0  0  0
 29 59  1  0  0  0  0
 29 66  1  0  0  0  0
 30 67  1  0  0  0  0
 30 70  1  0  0  0  0
 31 49  1  0  0  0  0
 31 65  1  0  0  0  0
 31 66  2  0  0  0  0
 32 71  1  0  0  0  0
 32 75  2  0  0  0  0
 33 47  1  0  0  0  0
 33 72  1  0  0  0  0
 33 76  2  0  0  0  0
 34 60  1  0  0  0  0
 34 68  1  0  0  0  0
 34 77  2  0  0  0  0
 35 62  1  0  0  0  0
 35 69  1  0  0  0  0
 35 78  2  0  0  0  0
 36 61  1  0  0  0  0
 36 73  1  0  0  0  0
 36 79  2  0  0  0  0
 37 40  1  0  0  0  0
 38 47  1  0  0  0  0
 39 68  1  0  0  0  0
 40 42  1  0  0  0  0
 41 43  1  0  0  0  0
 41 44  1  0  0  0  0
 42 46  1  0  0  0  0
 43 48  1  0  0  0  0
 44 69  1  0  0  0  0
 45 48  1  0  0  0  0
 45 69  1  0  0  0  0
 46 72  1  0  0  0  0
 47 68  1  0  0  0  0
 48 67  1  0  0  0  0
 50 59  1  0  0  0  0
 51 61  1  0  0  0  0
 52 62  1  0  0  0  0
 53 62  1  0  0  0  0
 54 63  1  0  0  0  0
 55 63  1  0  0  0  0
 56 63  1  0  0  0  0
 57 74  1  0  0  0  0
 58 81  1  0  0  0  0
 59 62  1  0  0  0  0
 60 63  1  0  0  0  0
 60 73  1  0  0  0  0
 61 74  1  0  0  0  0
 64 67  1  0  0  0  0
M  CHG  1  74   1
M  ISO  4  35 100  58 101  62 100  81 101
M  END
> <Batch ID>
0074

> <Smiles>
CNC(C)C(=O)NC(C(=O)N1Cc2cc([101O:1][101CH2:1]c3cc(C(C)[100C:0](C)(C)[100C:0](=O)N4CCCC(n5nc(-c6ccc(Oc7ccc(F)cc7F)cc6)c(C(N)=O)c5N)C4)nc(C)n3)ccc2CC1C(=O)NC1CCCc2ccccc21)C(C)(C)C

> <Shape>
0.287

> <Color>
0.093

> <Negative vol penalty>
0.000

$$$$

  -OEChem-04052318293D

 83 91  0     1  0  0  0  0  0999 V2000
  -16.7609  -23.7321   24.9513 C   0  0  0  0  0  0  0  0  0  0  0  0
  -17.6134  -23.2489   23.9638 C   0  0  0  0  0  0  0  0  0  0  0  0
  -25.5227  -13.7019   20.5290 C   0  0  0  0  0  0  0  0  0  0  0  0
  -24.5582  -14.6818   22.5156 C   0  0  0  0  0  0  0  0  0  0  0  0
  -16.6015  -25.1067   25.1214 C   0  0  0  0  0  0  0  0  0  0  0  0
  -18.3062  -24.1401   23.1452 C   0  0  0  0  0  0  0  0  0  0  0  0
  -23.9372  -23.4138   20.8494 C   0  0  0  0  0  0  0  0  0  0  0  0
  -25.2578  -12.4271   21.0292 C   0  0  0  0  0  0  0  0  0  0  0  0
  -24.2932  -13.4070   23.0158 C   0  0  0  0  0  0  0  0  0  0  0  0
  -24.3943  -22.9883   19.6028 C   0  0  0  0  0  0  0  0  0  0  0  0
  -22.5948  -10.3612   21.3001 C   0  0  0  0  0  0  0  0  0  0  0  0
  -22.0350   -9.4265   20.4292 C   0  0  0  0  0  0  0  0  0  0  0  0
  -24.6016  -25.2870   18.9010 C   0  0  0  0  0  0  0  0  0  0  0  0
  -23.9461   -7.9835   20.7497 C   0  0  0  0  0  0  0  0  0  0  0  0
  -29.4248  -24.3527   17.5005 C   0  0  0  0  0  0  0  0  0  0  0  0
  -25.1729  -14.8293   21.2722 C   0  0  0  0  0  0  0  0  0  0  0  0
  -24.6021  -16.9384   19.9557 C   0  0  0  0  0  0  0  0  0  0  0  0
  -17.3001  -26.0153   24.3109 C   0  0  0  0  0  0  0  0  0  0  0  0
  -23.7983  -24.7811   21.1278 C   0  0  0  0  0  0  0  0  0  0  0  0
  -18.1550  -25.5281   23.3038 C   0  0  0  0  0  0  0  0  0  0  0  0
  -24.1450  -25.7272   20.1528 C   0  0  0  0  0  0  0  0  0  0  0  0
  -24.6431  -12.2796   22.2726 C   0  0  0  0  0  0  0  0  0  0  0  0
  -24.7238  -23.9249   18.6274 C   0  0  0  0  0  0  0  0  0  0  0  0
  -23.8302  -10.1071   21.8958 C   0  0  0  0  0  0  0  0  0  0  0  0
  -22.7106   -8.2377   20.1539 C   0  0  0  0  0  0  0  0  0  0  0  0
  -24.5058   -8.9182   21.6206 C   0  0  0  0  0  0  0  0  0  0  0  0
  -25.4468  -16.1465   20.7563 C   0  0  0  0  0  0  0  0  0  0  0  0
  -28.7698  -23.1109   17.6038 C   0  0  0  0  0  0  0  0  0  0  0  0
  -30.1865  -24.4350   18.6405 C   0  0  0  0  0  0  0  0  0  0  0  0
  -25.3177  -18.0900   19.7361 C   0  0  0  0  0  0  0  0  0  0  0  0
  -23.2880  -16.6583   19.4553 C   0  0  0  0  0  0  0  0  0  0  0  0
  -21.3635  -26.6812   21.8794 C   0  0  0  0  0  0  0  0  0  0  0  0
  -23.7104  -28.8874   22.2629 C   0  0  0  0  0  0  0  0  0  0  0  0
  -28.3998  -22.1954   21.7172 C   0  0  0  0  0  0  0  0  0  0  0  0
  -26.8698  -29.9207   21.4900 C   0  0  0  0  0  0  0  0  0  0  0  0
  -17.0592  -27.4919   24.5012 C   0  0  0  0  0  0  0  0  0  0  0  0
  -23.3294  -25.2243   22.4865 C   0  0  0  0  0  0  0  0  0  0  0  0
  -24.0331  -27.2073   20.4086 C   0  0  0  0  0  0  0  0  0  0  0  0
  -18.1166  -28.3718   23.8393 C   0  0  0  0  0  0  0  0  0  0  0  0
  -30.1593  -19.1953   20.6540 C   0  0  0  0  0  0  0  0  0  0  0  0
  -18.3937  -27.8951   22.4170 C   0  0  0  0  0  0  0  0  0  0  0  0
  -29.0135  -18.1896   20.5499 C   0  0  0  0  0  0  0  0  0  0  0  0
  -29.9422  -20.1766   21.8029 C   0  0  0  0  0  0  0  0  0  0  0  0
  -27.4892  -19.8964   21.6344 C   0  0  0  0  0  0  0  0  0  0  0  0
  -18.9429  -26.4633   22.4123 C   0  0  1  0  0  0  0  0  0  0  0  0
  -22.7376  -26.6305   22.4851 C   0  0  1  0  0  0  0  0  0  0  0  0
  -27.6549  -18.9074   20.4685 C   0  0  2  0  0  0  0  0  0  0  0  0
  -31.0984  -25.4887   19.1219 C   0  0  0  0  0  0  0  0  0  0  0  0
  -28.4958  -31.7816   21.9265 C   0  0  0  0  0  0  0  0  0  0  0  0
  -30.3363  -22.7591   23.1545 C   0  0  0  0  0  0  0  0  0  0  0  0
  -29.1181  -24.5334   21.8833 C   0  0  0  0  0  0  0  0  0  0  0  0
  -22.1542  -30.6911   20.3564 C   0  0  0  0  0  0  0  0  0  0  0  0
  -24.2229  -32.0757   20.0888 C   0  0  0  0  0  0  0  0  0  0  0  0
  -23.1454  -31.8665   22.3289 C   0  0  0  0  0  0  0  0  0  0  0  0
  -28.8326  -28.0745   22.7138 C   0  0  0  0  0  0  0  0  0  0  0  0
  -27.7991  -22.4998   16.6250 C   0  0  0  0  0  0  0  0  0  0  0  0
  -26.9845  -23.5306   15.8406 C   0  0  0  0  0  0  0  0  0  0  0  0
  -30.5237  -22.8976   20.5993 C   0  0  0  0  0  0  0  0  0  0  0  0
  -26.0727  -24.3767   16.7216 C   0  0  0  0  0  0  0  0  0  1  0  0
  -24.3924  -29.8902   21.3638 C   0  0  1  0  0  0  0  0  0  0  0  0
  -28.0123  -30.4075   22.3631 C   0  0  2  0  0  0  0  0  0  0  0  0
  -29.6153  -23.0793   21.8396 C   0  0  0  0  0  0  0  0  0  0  0  0
  -23.4791  -31.1030   21.0287 C   0  0  0  0  0  0  0  0  0  0  0  0
  -26.6102  -16.7443   21.0269 N   0  0  0  0  0  0  0  0  0  0  0  0
  -29.0877  -22.4516   18.7211 N   0  0  0  0  0  0  0  0  0  0  0  0
  -29.9509  -23.2822   19.3303 N   0  0  0  0  0  0  0  0  0  0  0  0
  -26.5016  -17.9241   20.3927 N   0  0  0  0  0  0  0  0  0  0  0  0
  -23.5638  -27.5906   21.7504 N   0  0  0  0  0  0  0  0  0  0  0  0
  -28.6261  -20.8188   21.7043 N   0  0  0  0  0  0  0  0  0  0  0  0
  -25.0435  -19.2182   19.0473 N   0  0  0  0  0  0  0  0  0  0  0  0
  -22.6994  -15.4273   19.7759 N   0  0  0  0  0  0  0  0  0  0  0  0
  -20.3419  -26.4574   22.7826 N   0  0  0  0  0  0  0  0  0  0  0  0
  -25.6422  -30.2482   22.0258 N   0  0  0  0  0  0  0  0  0  0  0  0
  -29.1603  -29.4601   22.2897 N   0  3  0  0  0  0  0  0  0  0  0  0
  -22.6611  -17.4685   18.7314 O   0  0  0  0  0  0  0  0  0  0  0  0
  -21.2392  -26.9082   20.6816 O   0  0  0  0  0  0  0  0  0  0  0  0
  -23.3284  -29.2399   23.3816 O   0  0  0  0  0  0  0  0  0  0  0  0
  -27.2838  -22.7146   21.6330 O   0  0  0  0  0  0  0  0  0  0  0  0
  -27.0485  -29.3142   20.4361 O   0  0  0  0  0  0  0  0  0  0  0  0
  -24.3842  -11.0357   22.7609 O   0  0  0  0  0  0  0  0  0  0  0  0
  -25.1695  -23.5123   17.4097 O   0  0  0  0  0  0  0  0  0  1  0  0
  -22.1723   -7.3395   19.3187 F   0  0  0  0  0  0  0  0  0  0  0  0
  -25.6924   -8.6680   22.1908 F   0  0  0  0  0  0  0  0  0  0  0  0
  1  2  1  0  0  0  0
  1  5  2  0  0  0  0
  2  6  2  0  0  0  0
  3  8  2  0  0  0  0
  3 16  1  0  0  0  0
  4  9  1  0  0  0  0
  4 16  2  0  0  0  0
  5 18  1  0  0  0  0
  6 20  1  0  0  0  0
  7 10  2  0  0  0  0
  7 19  1  0  0  0  0
  8 22  1  0  0  0  0
  9 22  2  0  0  0  0
 10 23  1  0  0  0  0
 11 12  2  0  0  0  0
 11 24  1  0  0  0  0
 12 25  1  0  0  0  0
 13 21  1  0  0  0  0
 13 23  2  0  0  0  0
 14 25  2  0  0  0  0
 14 26  1  0  0  0  0
 15 28  1  0  0  0  0
 15 29  2  0  0  0  0
 16 27  1  0  0  0  0
 17 27  1  0  0  0  0
 17 30  2  0  0  0  0
 17 31  1  0  0  0  0
 18 20  2  0  0  0  0
 18 36  1  0  0  0  0
 19 21  2  0  0  0  0
 19 37  1  0  0  0  0
 20 45  1  0  0  0  0
 21 38  1  0  0  0  0
 22 80  1  0  0  0  0
 23 81  1  0  0  0  0
 24 26  2  0  0  0  0
 24 80  1  0  0  0  0
 25 82  1  0  0  0  0
 26 83  1  0  0  0  0
 27 64  2  0  0  0  0
 28 56  1  0  0  0  0
 28 65  2  0  0  0  0
 29 48  1  0  0  0  0
 29 66  1  0  0  0  0
 30 67  1  0  0  0  0
 30 70  1  0  0  0  0
 31 71  1  0  0  0  0
 31 75  2  0  0  0  0
 32 46  1  0  0  0  0
 32 72  1  0  0  0  0
 32 76  2  0  0  0  0
 33 60  1  0  0  0  0
 33 68  1  0  0  0  0
 33 77  2  0  0  0  0
 34 62  1  0  0  0  0
 34 69  1  0  0  0  0
 34 78  2  0  0  0  0
 35 61  1  0  0  0  0
 35 73  1  0  0  0  0
 35 79  2  0  0  0  0
 36 39  1  0  0  0  0
 37 46  1  0  0  0  0
 38 68  1  0  0  0  0
 39 41  1  0  0  0  0
 40 42  1  0  0  0  0
 40 43  1  0  0  0  0
 41 45  1  0  0  0  0
 42 47  1  0  0  0  0
 43 69  1  0  0  0  0
 44 47  1  0  0  0  0
 44 69  1  0  0  0  0
 45 72  1  0  0  0  0
 46 68  1  0  0  0  0
 47 67  1  0  0  0  0
 49 61  1  0  0  0  0
 50 62  1  0  0  0  0
 51 62  1  0  0  0  0
 52 63  1  0  0  0  0
 53 63  1  0  0  0  0
 54 63  1  0  0  0  0
 55 74  1  0  0  0  0
 56 57  1  0  0  0  0
 57 59  1  0  0  0  0
 58 62  1  0  0  0  0
 58 66  1  0  0  0  0
 59 81  1  0  0  0  0
 60 63  1  0  0  0  0
 60 73  1  0  0  0  0
 61 74  1  0  0  0  0
 64 67  1  0  0  0  0
 65 66  1  0  0  0  0
M  CHG  1  74   1
M  ISO  4  34 100  59 101  62 100  81 101
M  END
> <Batch ID>
0074

> <Smiles>
CNC(C)C(=O)NC(C(=O)N1Cc2cc([101O:1][101CH2:1]CCc3cc(C)n(C[100C:0](C)(C)[100C:0](=O)N4CCCC(n5nc(-c6ccc(Oc7ccc(F)cc7F)cc6)c(C(N)=O)c5N)C4)n3)ccc2CC1C(=O)NC1CCCc2ccccc21)C(C)(C)C

> <Shape>
0.246

> <Color>
0.051

> <Negative vol penalty>
0.000

$$$$

  -OEChem-04052318293D

 86 94  0     1  0  0  0  0  0999 V2000
  -17.4710  -28.1205   24.1144 C   0  0  0  0  0  0  0  0  0  0  0  0
  -18.3502  -27.1348   23.6775 C   0  0  0  0  0  0  0  0  0  0  0  0
  -24.1414   -9.8539   22.5144 C   0  0  0  0  0  0  0  0  0  0  0  0
  -24.4016  -11.6231   24.1390 C   0  0  0  0  0  0  0  0  0  0  0  0
  -17.6276  -29.4356   23.6786 C   0  0  0  0  0  0  0  0  0  0  0  0
  -19.3858  -27.4635   22.8035 C   0  0  0  0  0  0  0  0  0  0  0  0
  -23.7978  -25.3706   24.1449 C   0  0  0  0  0  0  0  0  0  0  0  0
  -23.7493   -8.9803   23.5286 C   0  0  0  0  0  0  0  0  0  0  0  0
  -24.0094  -10.7495   25.1532 C   0  0  0  0  0  0  0  0  0  0  0  0
  -23.9806  -24.0219   23.8428 C   0  0  0  0  0  0  0  0  0  0  0  0
  -20.9591   -8.3477   25.3307 C   0  0  0  0  0  0  0  0  0  0  0  0
  -19.8487   -7.5372   25.0947 C   0  0  0  0  0  0  0  0  0  0  0  0
  -25.2838  -24.6379   21.9086 C   0  0  0  0  0  0  0  0  0  0  0  0
  -27.6581  -17.8810   20.3746 C   0  0  0  0  0  0  0  0  0  0  0  0
  -21.2183   -5.5710   25.4035 C   0  0  0  0  0  0  0  0  0  0  0  0
  -27.9549  -16.0433   22.3697 C   0  0  0  0  0  0  0  0  0  0  0  0
  -24.4677  -11.1753   22.8196 C   0  0  0  0  0  0  0  0  0  0  0  0
  -24.0428  -12.9108   20.9988 C   0  0  0  0  0  0  0  0  0  0  0  0
  -18.6715  -29.7824   22.8065 C   0  0  0  0  0  0  0  0  0  0  0  0
  -24.3484  -26.3649   23.3235 C   0  0  0  0  0  0  0  0  0  0  0  0
  -19.5557  -28.7842   22.3546 C   0  0  0  0  0  0  0  0  0  0  0  0
  -25.1087  -25.9985   22.2038 C   0  0  0  0  0  0  0  0  0  0  0  0
  -28.8875  -17.2549   20.5479 C   0  0  0  0  0  0  0  0  0  0  0  0
  -29.0470  -16.3174   21.5622 C   0  0  0  0  0  0  0  0  0  0  0  0
  -23.6833   -9.4281   24.8480 C   0  0  0  0  0  0  0  0  0  0  0  0
  -24.7213  -23.6553   22.7229 C   0  0  0  0  0  0  0  0  0  0  0  0
  -22.1991   -7.7699   25.6030 C   0  0  0  0  0  0  0  0  0  0  0  0
  -19.9783   -6.1488   25.1311 C   0  0  0  0  0  0  0  0  0  0  0  0
  -22.3287   -6.3815   25.6395 C   0  0  0  0  0  0  0  0  0  0  0  0
  -24.8734  -12.0781   21.7724 C   0  0  0  0  0  0  0  0  0  0  0  0
  -26.6282  -17.5368   21.2351 C   0  0  0  0  0  0  0  0  0  0  0  0
  -24.9044  -13.5634   20.1514 C   0  0  0  0  0  0  0  0  0  0  0  0
  -22.6196  -13.0795   21.0425 C   0  0  0  0  0  0  0  0  0  0  0  0
  -23.1614  -28.7203   21.5496 C   0  0  0  0  0  0  0  0  0  0  0  0
  -26.2904  -29.4853   21.1672 C   0  0  0  0  0  0  0  0  0  0  0  0
  -30.7636  -14.8279   20.5792 C   0  0  0  0  0  0  0  0  0  0  0  0
  -29.5464  -28.4630   21.1883 C   0  0  0  0  0  0  0  0  0  0  0  0
  -18.7721  -31.2083   22.3254 C   0  0  0  0  0  0  0  0  0  0  0  0
  -24.1645  -27.8151   23.6780 C   0  0  0  0  0  0  0  0  0  0  0  0
  -25.7378  -27.0272   21.3014 C   0  0  0  0  0  0  0  0  0  0  0  0
  -20.1211  -31.5447   21.6950 C   0  0  0  0  0  0  0  0  0  0  0  0
  -29.1105  -13.0448   17.9471 C   0  0  0  0  0  0  0  0  0  0  0  0
  -20.5387  -30.4539   20.7139 C   0  0  0  0  0  0  0  0  0  0  0  0
  -27.7727  -12.6459   18.5689 C   0  0  0  0  0  0  0  0  0  0  0  0
  -30.2348  -13.0195   18.9778 C   0  0  0  0  0  0  0  0  0  0  0  0
  -28.6320  -13.4589   20.8107 C   0  0  0  0  0  0  0  0  0  0  0  0
  -20.7064  -29.1062   21.4260 C   0  0  1  0  0  0  0  0  0  0  0  0
  -24.3377  -28.7487   22.4840 C   0  0  1  0  0  0  0  0  0  0  0  0
  -27.4633  -13.5011   19.8104 C   0  0  2  0  0  0  0  0  0  0  0  0
  -30.0176  -17.6034   19.6369 C   0  0  0  0  0  0  0  0  0  0  0  0
  -31.8781  -29.3054   20.8002 C   0  0  0  0  0  0  0  0  0  0  0  0
  -30.2332  -14.6194   22.9774 C   0  0  0  0  0  0  0  0  0  0  0  0
  -31.5710  -16.5288   22.0836 C   0  0  0  0  0  0  0  0  0  0  0  0
  -25.8070  -29.4286   18.1551 C   0  0  0  0  0  0  0  0  0  0  0  0
  -28.2872  -29.3262   17.8292 C   0  0  0  0  0  0  0  0  0  0  0  0
  -27.2582  -31.3066   18.9436 C   0  0  0  0  0  0  0  0  0  0  0  0
  -22.6829  -19.2673   22.3366 C   0  0  0  0  0  0  0  0  0  0  0  0
  -23.4932  -20.7132   20.4551 C   0  0  0  0  0  0  0  0  0  0  0  0
  -30.3595  -27.8352   23.9638 C   0  0  0  0  0  0  0  0  0  0  0  0
  -25.2794  -18.1965   21.0769 C   0  0  0  0  0  0  0  0  0  0  0  0
  -25.1829  -19.4792   21.9147 C   0  0  0  0  0  0  0  0  0  0  0  0
  -23.8651  -21.4385   22.8151 C   0  0  0  0  0  0  0  0  0  1  0  0
  -27.3712  -29.1063   20.1837 C   0  0  1  0  0  0  0  0  0  0  0  0
  -30.7857  -29.0607   21.8295 C   0  0  2  0  0  0  0  0  0  0  0  0
  -30.3415  -15.6179   21.7923 C   0  0  0  0  0  0  0  0  0  0  0  0
  -27.1675  -29.7723   18.7936 C   0  0  0  0  0  0  0  0  0  0  0  0
  -23.8100  -20.2095   21.8745 C   0  0  0  0  0  0  0  0  0  0  0  0
  -26.7453  -16.6310   22.2318 N   0  0  0  0  0  0  0  0  0  0  0  0
  -26.1636  -12.1894   21.4453 N   0  0  0  0  0  0  0  0  0  0  0  0
  -26.1502  -13.0997   20.4568 N   0  0  0  0  0  0  0  0  0  0  0  0
  -25.5242  -28.4321   21.6864 N   0  0  0  0  0  0  0  0  0  0  0  0
  -29.8931  -13.8253   20.1513 N   0  0  0  0  0  0  0  0  0  0  0  0
  -24.7104  -14.4829   19.1822 N   0  0  0  0  0  0  0  0  0  0  0  0
  -21.8864  -12.3313   21.9736 N   0  0  0  0  0  0  0  0  0  0  0  0
  -21.9627  -29.0666   22.1435 N   0  0  0  0  0  0  0  0  0  0  0  0
  -28.6398  -29.4360   20.8242 N   0  0  0  0  0  0  0  0  0  0  0  0
  -31.3217  -28.1436   22.8747 N   0  3  0  0  0  0  0  0  0  0  0  0
  -22.0143  -13.8580   20.2672 O   0  0  0  0  0  0  0  0  0  0  0  0
  -23.3291  -28.4089   20.3763 O   0  0  0  0  0  0  0  0  0  0  0  0
  -26.1365  -30.6713   21.4693 O   0  0  0  0  0  0  0  0  0  0  0  0
  -31.8340  -15.0972   20.0279 O   0  0  0  0  0  0  0  0  0  0  0  0
  -29.3990  -27.2540   21.0232 O   0  0  0  0  0  0  0  0  0  0  0  0
  -23.3004   -8.5759   25.8379 O   0  0  0  0  0  0  0  0  0  0  0  0
  -24.9008  -22.3396   22.4255 O   0  0  0  0  0  0  0  0  0  1  0  0
  -18.9116   -5.3706   24.9060 F   0  0  0  0  0  0  0  0  0  0  0  0
  -23.5172   -5.8206   25.9017 F   0  0  0  0  0  0  0  0  0  0  0  0
  1  2  1  0  0  0  0
  1  5  2  0  0  0  0
  2  6  2  0  0  0  0
  3  8  2  0  0  0  0
  3 17  1  0  0  0  0
  4  9  1  0  0  0  0
  4 17  2  0  0  0  0
  5 19  1  0  0  0  0
  6 21  1  0  0  0  0
  7 10  2  0  0  0  0
  7 20  1  0  0  0  0
  8 25  1  0  0  0  0
  9 25  2  0  0  0  0
 10 26  1  0  0  0  0
 11 12  2  0  0  0  0
 11 27  1  0  0  0  0
 12 28  1  0  0  0  0
 13 22  1  0  0  0  0
 13 26  2  0  0  0  0
 14 23  2  0  0  0  0
 14 31  1  0  0  0  0
 15 28  2  0  0  0  0
 15 29  1  0  0  0  0
 16 24  2  0  0  0  0
 16 68  1  0  0  0  0
 17 30  1  0  0  0  0
 18 30  1  0  0  0  0
 18 32  2  0  0  0  0
 18 33  1  0  0  0  0
 19 21  2  0  0  0  0
 19 38  1  0  0  0  0
 20 22  2  0  0  0  0
 20 39  1  0  0  0  0
 21 47  1  0  0  0  0
 22 40  1  0  0  0  0
 23 24  1  0  0  0  0
 23 50  1  0  0  0  0
 24 65  1  0  0  0  0
 25 83  1  0  0  0  0
 26 84  1  0  0  0  0
 27 29  2  0  0  0  0
 27 83  1  0  0  0  0
 28 85  1  0  0  0  0
 29 86  1  0  0  0  0
 30 69  2  0  0  0  0
 31 60  1  0  0  0  0
 31 68  2  0  0  0  0
 32 70  1  0  0  0  0
 32 73  1  0  0  0  0
 33 74  1  0  0  0  0
 33 78  2  0  0  0  0
 34 48  1  0  0  0  0
 34 75  1  0  0  0  0
 34 79  2  0  0  0  0
 35 63  1  0  0  0  0
 35 71  1  0  0  0  0
 35 80  2  0  0  0  0
 36 65  1  0  0  0  0
 36 72  1  0  0  0  0
 36 81  2  0  0  0  0
 37 64  1  0  0  0  0
 37 76  1  0  0  0  0
 37 82  2  0  0  0  0
 38 41  1  0  0  0  0
 39 48  1  0  0  0  0
 40 71  1  0  0  0  0
 41 43  1  0  0  0  0
 42 44  1  0  0  0  0
 42 45  1  0  0  0  0
 43 47  1  0  0  0  0
 44 49  1  0  0  0  0
 45 72  1  0  0  0  0
 46 49  1  0  0  0  0
 46 72  1  0  0  0  0
 47 75  1  0  0  0  0
 48 71  1  0  0  0  0
 49 70  1  0  0  0  0
 51 64  1  0  0  0  0
 52 65  1  0  0  0  0
 53 65  1  0  0  0  0
 54 66  1  0  0  0  0
 55 66  1  0  0  0  0
 56 66  1  0  0  0  0
 57 67  1  0  0  0  0
 58 67  1  0  0  0  0
 59 77  1  0  0  0  0
 60 61  1  0  0  0  0
 61 67  1  0  0  0  0
 62 67  1  0  0  0  0
 62 84  1  0  0  0  0
 63 66  1  0  0  0  0
 63 76  1  0  0  0  0
 64 77  1  0  0  0  0
 69 70  1  0  0  0  0
M  CHG  1  77   1
M  ISO  4  36 100  62 101  65 100  84 101
M  END
> <Batch ID>
0074

> <Smiles>
CNC(C)C(=O)NC(C(=O)N1Cc2cc([101O:1][101CH2:1]C(C)(C)CCc3cc(C)c([100C:0](C)(C)[100C:0](=O)N4CCCC(n5nc(-c6ccc(Oc7ccc(F)cc7F)cc6)c(C(N)=O)c5N)C4)cn3)ccc2CC1C(=O)NC1CCCc2ccccc21)C(C)(C)C

> <Shape>
0.249

> <Color>
0.106

> <Negative vol penalty>
0.000

$$$$

  -OEChem-04052318293D

 89 97  0     1  0  0  0  0  0999 V2000
  -23.3483  -14.0473   23.7327 C   0  0  0  0  0  0  0  0  0  0  0  0
  -24.1874  -15.1545   23.8056 C   0  0  0  0  0  0  0  0  0  0  0  0
  -29.3793  -17.5338   19.2475 C   0  0  0  0  0  0  0  0  0  0  0  0
  -28.4851  -18.0115   21.4405 C   0  0  0  0  0  0  0  0  0  0  0  0
  -22.2920  -14.0333   22.8229 C   0  0  0  0  0  0  0  0  0  0  0  0
  -23.9713  -16.2481   22.9678 C   0  0  0  0  0  0  0  0  0  0  0  0
  -24.3088  -20.6679   25.4165 C   0  0  0  0  0  0  0  0  0  0  0  0
  -29.6822  -16.2344   19.6541 C   0  0  0  0  0  0  0  0  0  0  0  0
  -28.7880  -16.7120   21.8471 C   0  0  0  0  0  0  0  0  0  0  0  0
  -25.5887  -21.1446   25.6965 C   0  0  0  0  0  0  0  0  0  0  0  0
  -30.3618  -12.6804   20.0044 C   0  0  0  0  0  0  0  0  0  0  0  0
  -30.0385  -11.6374   19.1365 C   0  0  0  0  0  0  0  0  0  0  0  0
  -25.4445  -22.6284   23.8000 C   0  0  0  0  0  0  0  0  0  0  0  0
  -27.7100  -12.2734   19.2396 C   0  0  0  0  0  0  0  0  0  0  0  0
  -28.7808  -18.4224   20.1408 C   0  0  0  0  0  0  0  0  0  0  0  0
  -27.2701  -20.2153   19.1352 C   0  0  0  0  0  0  0  0  0  0  0  0
  -22.0569  -15.1312   21.9803 C   0  0  0  0  0  0  0  0  0  0  0  0
  -23.5902  -21.1609   24.3179 C   0  0  0  0  0  0  0  0  0  0  0  0
  -22.9116  -16.2482   22.0449 C   0  0  0  0  0  0  0  0  0  0  0  0
  -24.1546  -22.1582   23.5098 C   0  0  0  0  0  0  0  0  0  0  0  0
  -29.3866  -15.8235   20.9538 C   0  0  0  0  0  0  0  0  0  0  0  0
  -26.1579  -22.1229   24.8865 C   0  0  0  0  0  0  0  0  0  0  0  0
  -29.3592  -13.5199   20.4899 C   0  0  0  0  0  0  0  0  0  0  0  0
  -28.7126  -11.4339   18.7541 C   0  0  0  0  0  0  0  0  0  0  0  0
  -28.0333  -13.3165   20.1075 C   0  0  0  0  0  0  0  0  0  0  0  0
  -28.4681  -19.7650   19.7216 C   0  0  0  0  0  0  0  0  0  0  0  0
  -27.9453  -26.9015   25.6597 C   0  0  0  0  0  0  0  0  0  0  0  0
  -27.2182  -27.1820   26.7819 C   0  0  0  0  0  0  0  0  0  0  0  0
  -27.4732  -21.5575   18.9266 C   0  0  0  0  0  0  0  0  0  0  0  0
  -26.3936  -28.3835   25.1155 C   0  0  0  0  0  0  0  0  0  0  0  0
  -26.0800  -19.4854   18.8085 C   0  0  0  0  0  0  0  0  0  0  0  0
  -22.4141  -19.8885   21.6531 C   0  0  0  0  0  0  0  0  0  0  0  0
  -29.2873  -26.5073   20.7969 C   0  0  0  0  0  0  0  0  0  0  0  0
  -21.1283  -22.8423   21.2733 C   0  0  0  0  0  0  0  0  0  0  0  0
  -21.2678  -26.1765   21.9876 C   0  0  0  0  0  0  0  0  0  0  0  0
  -20.9311  -15.0506   20.9799 C   0  0  0  0  0  0  0  0  0  0  0  0
  -22.2001  -20.6556   24.0451 C   0  0  0  0  0  0  0  0  0  0  0  0
  -23.4166  -22.7350   22.3303 C   0  0  0  0  0  0  0  0  0  0  0  0
  -20.5435  -16.4036   20.3888 C   0  0  0  0  0  0  0  0  0  0  0  0
  -31.6737  -24.3460   19.2240 C   0  0  0  0  0  0  0  0  0  0  0  0
  -21.7881  -17.1780   19.9668 C   0  0  0  0  0  0  0  0  0  0  0  0
  -30.9658  -22.9921   19.1926 C   0  0  0  0  0  0  0  0  0  0  0  0
  -31.3185  -25.1328   20.4817 C   0  0  0  0  0  0  0  0  0  0  0  0
  -29.1403  -23.9717   20.6531 C   0  0  0  0  0  0  0  0  0  0  0  0
  -22.6945  -17.4638   21.1702 C   0  0  1  0  0  0  0  0  0  0  0  0
  -21.7636  -20.8593   22.5976 C   0  0  1  0  0  0  0  0  0  0  0  0
  -29.4477  -23.1575   19.3839 C   0  0  2  0  0  0  0  0  0  0  0  0
  -27.9837  -27.6816   29.1166 C   0  0  0  0  0  0  0  0  0  0  0  0
  -26.6105  -31.3971   25.3823 C   0  0  0  0  0  0  0  0  0  0  0  0
  -30.8476  -27.7776   26.0082 C   0  0  0  0  0  0  0  0  0  0  0  0
  -27.2796  -27.8319   20.3036 C   0  0  0  0  0  0  0  0  0  0  0  0
  -20.1033  -28.3456   21.5016 C   0  0  0  0  0  0  0  0  0  0  0  0
  -22.4108  -22.9079   18.5055 C   0  0  0  0  0  0  0  0  0  0  0  0
  -22.0365  -25.3831   18.4672 C   0  0  0  0  0  0  0  0  0  0  0  0
  -20.0884  -23.8308   18.6012 C   0  0  0  0  0  0  0  0  0  0  0  0
  -20.6095  -26.5965   24.8423 C   0  0  0  0  0  0  0  0  0  0  0  0
  -27.3195  -26.6828   28.1568 C   0  0  0  0  0  0  0  0  0  0  0  0
  -25.5464  -29.3330   24.3520 C   0  0  0  0  0  0  0  0  0  0  0  0
  -26.2571  -30.6733   24.0927 C   0  0  0  0  0  0  0  0  0  0  0  0
  -30.3472  -26.3687   26.3050 C   0  0  0  0  0  0  0  0  0  0  0  0
  -27.3900  -26.4843   22.4315 C   0  0  0  0  0  0  0  0  0  0  0  0
  -28.7498  -24.4921   25.7396 C   0  0  0  0  0  0  0  0  0  0  0  0
  -27.8783  -27.6754   23.2695 C   0  0  0  0  0  0  0  0  0  0  0  0
  -27.6901  -23.9392   24.7907 C   0  0  0  0  0  0  0  0  0  1  0  0
  -29.1236  -25.9628   25.4521 C   0  0  1  0  0  0  0  0  0  0  0  0
  -27.7876  -26.5465   20.9497 C   0  0  2  0  0  0  0  0  0  0  0  0
  -21.5776  -24.1283   20.6226 C   0  0  1  0  0  0  0  0  0  0  0  0
  -20.1998  -27.1548   22.4424 C   0  0  2  0  0  0  0  0  0  0  0  0
  -21.5433  -24.0504   19.0702 C   0  0  0  0  0  0  0  0  0  0  0  0
  -29.3659  -20.7419   19.8754 N   0  0  0  0  0  0  0  0  0  0  0  0
  -27.4131  -27.6584   24.6439 N   0  0  0  0  0  0  0  0  0  0  0  0
  -28.7316  -21.8194   19.3825 N   0  0  0  0  0  0  0  0  0  0  0  0
  -26.2653  -28.1020   26.4161 N   0  3  0  0  0  0  0  0  0  0  0  0
  -22.0628  -22.2039   22.1009 N   0  0  0  0  0  0  0  0  0  0  0  0
  -29.8676  -25.2486   20.6394 N   0  0  0  0  0  0  0  0  0  0  0  0
  -26.6963  -22.5275   18.3993 N   0  0  0  0  0  0  0  0  0  0  0  0
  -26.0394  -18.1131   19.0900 N   0  0  0  0  0  0  0  0  0  0  0  0
  -22.1666  -18.5621   21.9510 N   0  0  0  0  0  0  0  0  0  0  0  0
  -20.7436  -25.1842   21.1866 N   0  0  0  0  0  0  0  0  0  0  0  0
  -20.5088  -27.6601   23.8100 N   0  3  0  0  0  0  0  0  0  0  0  0
  -25.0883  -20.0307   18.2674 O   0  0  0  0  0  0  0  0  0  0  0  0
  -23.0892  -20.3116   20.7220 O   0  0  0  0  0  0  0  0  0  0  0  0
  -29.9221  -27.5652   20.8141 O   0  0  0  0  0  0  0  0  0  0  0  0
  -19.9876  -22.4235   21.0610 O   0  0  0  0  0  0  0  0  0  0  0  0
  -22.4495  -26.2842   22.3076 O   0  0  0  0  0  0  0  0  0  0  0  0
  -29.6819  -14.5555   21.3508 O   0  0  0  0  0  0  0  0  0  0  0  0
  -27.4073  -22.5894   25.1572 O   0  0  0  0  0  0  0  0  0  1  0  0
  -28.4025  -10.4332   17.9195 F   0  0  0  0  0  0  0  0  0  0  0  0
  -27.0659  -14.1204   20.5697 F   0  0  0  0  0  0  0  0  0  0  0  0
  1  2  1  0  0  0  0
  1  5  2  0  0  0  0
  2  6  2  0  0  0  0
  3  8  2  0  0  0  0
  3 15  1  0  0  0  0
  4  9  1  0  0  0  0
  4 15  2  0  0  0  0
  5 17  1  0  0  0  0
  6 19  1  0  0  0  0
  7 10  2  0  0  0  0
  7 18  1  0  0  0  0
  8 21  1  0  0  0  0
  9 21  2  0  0  0  0
 10 22  1  0  0  0  0
 11 12  2  0  0  0  0
 11 23  1  0  0  0  0
 12 24  1  0  0  0  0
 13 20  1  0  0  0  0
 13 22  2  0  0  0  0
 14 24  2  0  0  0  0
 14 25  1  0  0  0  0
 15 26  1  0  0  0  0
 16 26  1  0  0  0  0
 16 29  2  0  0  0  0
 16 31  1  0  0  0  0
 17 19  2  0  0  0  0
 17 36  1  0  0  0  0
 18 20  2  0  0  0  0
 18 37  1  0  0  0  0
 19 45  1  0  0  0  0
 20 38  1  0  0  0  0
 21 86  1  0  0  0  0
 22 87  1  0  0  0  0
 23 25  2  0  0  0  0
 23 86  1  0  0  0  0
 24 88  1  0  0  0  0
 25 89  1  0  0  0  0
 26 70  2  0  0  0  0
 27 28  2  0  0  0  0
 27 65  1  0  0  0  0
 27 71  1  0  0  0  0
 28 57  1  0  0  0  0
 28 73  1  0  0  0  0
 29 72  1  0  0  0  0
 29 76  1  0  0  0  0
 30 58  1  0  0  0  0
 30 71  1  0  0  0  0
 30 73  2  0  0  0  0
 31 77  1  0  0  0  0
 31 81  2  0  0  0  0
 32 46  1  0  0  0  0
 32 78  1  0  0  0  0
 32 82  2  0  0  0  0
 33 66  1  0  0  0  0
 33 75  1  0  0  0  0
 33 83  2  0  0  0  0
 34 67  1  0  0  0  0
 34 74  1  0  0  0  0
 34 84  2  0  0  0  0
 35 68  1  0  0  0  0
 35 79  1  0  0  0  0
 35 85  2  0  0  0  0
 36 39  1  0  0  0  0
 37 46  1  0  0  0  0
 38 74  1  0  0  0  0
 39 41  1  0  0  0  0
 40 42  1  0  0  0  0
 40 43  1  0  0  0  0
 41 45  1  0  0  0  0
 42 47  1  0  0  0  0
 43 75  1  0  0  0  0
 44 47  1  0  0  0  0
 44 75  1  0  0  0  0
 45 78  1  0  0  0  0
 46 74  1  0  0  0  0
 47 72  1  0  0  0  0
 48 57  1  0  0  0  0
 49 59  1  0  0  0  0
 50 60  1  0  0  0  0
 51 66  1  0  0  0  0
 52 68  1  0  0  0  0
 53 69  1  0  0  0  0
 54 69  1  0  0  0  0
 55 69  1  0  0  0  0
 56 80  1  0  0  0  0
 58 59  1  0  0  0  0
 60 65  1  0  0  0  0
 61 63  1  0  0  0  0
 61 66  1  0  0  0  0
 62 64  1  0  0  0  0
 62 65  1  0  0  0  0
 63 71  1  0  0  0  0
 64 87  1  0  0  0  0
 67 69  1  0  0  0  0
 67 79  1  0  0  0  0
 68 80  1  0  0  0  0
 70 72  1  0  0  0  0
M  CHG  2  73   1  80   1
M  ISO  4  33 100  64 101  66 100  87 101
M  END
> <Batch ID>
0074

> <Smiles>
CCCc1nc(CC)c(C(CC)C[101CH2:1][101O:1]c2ccc3c(c2)CN(C(=O)C(NC(=O)C(C)NC)C(C)(C)C)C(C(=O)NC2CCCc4ccccc42)C3)n1CC[100CH:0](C)[100C:0](=O)N1CCCC(n2nc(-c3ccc(Oc4ccc(F)cc4F)cc3)c(C(N)=O)c2N)C1

> <Shape>
0.199

> <Color>
0.051

> <Negative vol penalty>
0.000

$$$$

  -OEChem-04052318293D

 83 91  0     1  0  0  0  0  0999 V2000
  -26.5649  -24.4690   13.7338 C   0  0  0  0  0  0  0  0  0  0  0  0
  -25.9353  -24.3905   14.9719 C   0  0  0  0  0  0  0  0  0  0  0  0
  -27.6686  -17.4761   21.8825 C   0  0  0  0  0  0  0  0  0  0  0  0
  -25.4514  -18.4087   21.6562 C   0  0  0  0  0  0  0  0  0  0  0  0
  -27.8503  -25.0006   13.6392 C   0  0  0  0  0  0  0  0  0  0  0  0
  -26.5913  -24.8426   16.1163 C   0  0  0  0  0  0  0  0  0  0  0  0
  -23.5970  -27.6352   19.0964 C   0  0  0  0  0  0  0  0  0  0  0  0
  -27.2229  -16.2799   21.3204 C   0  0  0  0  0  0  0  0  0  0  0  0
  -25.0056  -17.2124   21.0940 C   0  0  0  0  0  0  0  0  0  0  0  0
  -22.6828  -26.9536   19.8986 C   0  0  0  0  0  0  0  0  0  0  0  0
  -26.7550  -13.1047   19.6132 C   0  0  0  0  0  0  0  0  0  0  0  0
  -27.5558  -12.5075   18.6398 C   0  0  0  0  0  0  0  0  0  0  0  0
  -24.1656  -27.1978   21.7856 C   0  0  0  0  0  0  0  0  0  0  0  0
  -27.3481  -14.4793   17.2592 C   0  0  0  0  0  0  0  0  0  0  0  0
  -23.8749  -21.6299   23.5059 C   0  0  0  0  0  0  0  0  0  0  0  0
  -25.2265  -21.4550   23.6027 C   0  0  0  0  0  0  0  0  0  0  0  0
  -26.7828  -18.5405   22.0505 C   0  0  0  0  0  0  0  0  0  0  0  0
  -27.7787  -20.8871   21.9531 C   0  0  0  0  0  0  0  0  0  0  0  0
  -28.5186  -25.4684   14.7816 C   0  0  0  0  0  0  0  0  0  0  0  0
  -24.8093  -28.0944   19.6312 C   0  0  0  0  0  0  0  0  0  0  0  0
  -27.8874  -25.3798   16.0370 C   0  0  0  0  0  0  0  0  0  0  0  0
  -25.0924  -27.8872   20.9888 C   0  0  0  0  0  0  0  0  0  0  0  0
  -25.8914  -16.1481   20.9261 C   0  0  0  0  0  0  0  0  0  0  0  0
  -22.9683  -26.7323   21.2427 C   0  0  0  0  0  0  0  0  0  0  0  0
  -26.2505  -14.3892   19.4096 C   0  0  0  0  0  0  0  0  0  0  0  0
  -27.8524  -13.1948   17.4628 C   0  0  0  0  0  0  0  0  0  0  0  0
  -26.5471  -15.0765   18.2327 C   0  0  0  0  0  0  0  0  0  0  0  0
  -27.2425  -19.7763   22.6316 C   0  0  0  0  0  0  0  0  0  0  0  0
  -28.0579  -21.7940   22.9461 C   0  0  0  0  0  0  0  0  0  0  0  0
  -24.6622  -23.1530   24.9062 C   0  0  0  0  0  0  0  0  0  0  0  0
  -28.0042  -21.0817   20.5506 C   0  0  0  0  0  0  0  0  0  0  0  0
  -27.8798  -27.5004   19.0629 C   0  0  0  0  0  0  0  0  0  0  0  0
  -28.3371  -29.9016   21.1955 C   0  0  0  0  0  0  0  0  0  0  0  0
  -25.8729  -23.5874   28.0211 C   0  0  0  0  0  0  0  0  0  0  0  0
  -27.1187  -31.7255   23.8100 C   0  0  0  0  0  0  0  0  0  0  0  0
  -29.9257  -25.9915   14.6363 C   0  0  0  0  0  0  0  0  0  0  0  0
  -25.7730  -28.8514   18.7591 C   0  0  0  0  0  0  0  0  0  0  0  0
  -26.3707  -28.3778   21.6162 C   0  0  0  0  0  0  0  0  0  0  0  0
  -30.4051  -26.7935   15.8435 C   0  0  0  0  0  0  0  0  0  0  0  0
  -28.7947  -21.5229   27.8188 C   0  0  0  0  0  0  0  0  0  0  0  0
  -30.0714  -26.0598   17.1385 C   0  0  0  0  0  0  0  0  0  0  0  0
  -28.7283  -20.9444   26.4060 C   0  0  0  0  0  0  0  0  0  0  0  0
  -27.4027  -21.6864   28.4212 C   0  0  0  0  0  0  0  0  0  0  0  0
  -26.4024  -21.9240   26.1707 C   0  0  0  0  0  0  0  0  0  0  0  0
  -28.5566  -25.8827   17.2977 C   0  0  1  0  0  0  0  0  0  0  0  0
  -27.2043  -28.8239   19.2863 C   0  0  1  0  0  0  0  0  0  0  0  0
  -27.7856  -21.7713   25.5138 C   0  0  2  0  0  0  0  0  0  0  0  0
  -26.0479  -25.1304   25.6433 C   0  0  0  0  0  0  0  0  0  0  0  0
  -27.7373  -33.5953   25.3651 C   0  0  0  0  0  0  0  0  0  0  0  0
  -23.6074  -22.7295   27.6178 C   0  0  0  0  0  0  0  0  0  0  0  0
  -24.0167  -25.1358   28.1746 C   0  0  0  0  0  0  0  0  0  0  0  0
  -30.1424  -28.0017   22.7579 C   0  0  0  0  0  0  0  0  0  0  0  0
  -29.9551  -29.5475   24.7184 C   0  0  0  0  0  0  0  0  0  0  0  0
  -30.9903  -30.3488   22.5950 C   0  0  0  0  0  0  0  0  0  0  0  0
  -24.8705  -33.4054   22.8709 C   0  0  0  0  0  0  0  0  0  0  0  0
  -21.6791  -24.1326   23.3902 C   0  0  0  0  0  0  0  0  0  0  0  0
  -22.1625  -23.2320   24.5291 C   0  0  0  0  0  0  0  0  0  0  0  0
  -22.6095  -25.3076   23.1128 C   0  0  0  0  0  0  0  0  0  1  0  0
  -24.7582  -24.2865   25.8592 C   0  0  2  0  0  0  0  0  0  0  0  0
  -28.4904  -29.9849   22.6950 C   0  0  1  0  0  0  0  0  0  0  0  0
  -27.0625  -33.2227   24.0542 C   0  0  2  0  0  0  0  0  0  0  0  0
  -24.5459  -23.9230   27.3881 C   0  0  0  0  0  0  0  0  0  0  0  0
  -29.8712  -29.4596   23.1796 C   0  0  0  0  0  0  0  0  0  0  0  0
  -27.1838  -19.9586   23.9535 N   0  0  0  0  0  0  0  0  0  0  0  0
  -23.5531  -22.6867   24.3231 N   0  0  0  0  0  0  0  0  0  0  0  0
  -27.6867  -21.1945   24.1136 N   0  0  0  0  0  0  0  0  0  0  0  0
  -25.6875  -22.4110   24.4754 N   0  3  0  0  0  0  0  0  0  0  0  0
  -27.2838  -29.1071   20.7207 N   0  0  0  0  0  0  0  0  0  0  0  0
  -26.5311  -22.4583   27.5336 N   0  0  0  0  0  0  0  0  0  0  0  0
  -28.5823  -23.0378   22.9258 N   0  0  0  0  0  0  0  0  0  0  0  0
  -27.6603  -20.0481   19.6688 N   0  0  0  0  0  0  0  0  0  0  0  0
  -27.9465  -27.1196   17.7363 N   0  0  0  0  0  0  0  0  0  0  0  0
  -28.2181  -31.3717   23.0567 N   0  0  0  0  0  0  0  0  0  0  0  0
  -25.6471  -33.6863   24.1057 N   0  3  0  0  0  0  0  0  0  0  0  0
  -28.5113  -22.1345   20.0945 O   0  0  0  0  0  0  0  0  0  0  0  0
  -28.3100  -26.8720   20.0230 O   0  0  0  0  0  0  0  0  0  0  0  0
  -29.1185  -30.5243   20.4722 O   0  0  0  0  0  0  0  0  0  0  0  0
  -26.3111  -24.3102   28.9199 O   0  0  0  0  0  0  0  0  0  0  0  0
  -26.2740  -30.9471   24.2472 O   0  0  0  0  0  0  0  0  0  0  0  0
  -25.4562  -14.9810   20.3774 O   0  0  0  0  0  0  0  0  0  0  0  0
  -22.0780  -26.0667   22.0277 O   0  0  0  0  0  0  0  0  0  1  0  0
  -28.6228  -12.6218   16.5288 F   0  0  0  0  0  0  0  0  0  0  0  0
  -26.0664  -16.3112   18.0319 F   0  0  0  0  0  0  0  0  0  0  0  0
  1  2  1  0  0  0  0
  1  5  2  0  0  0  0
  2  6  2  0  0  0  0
  3  8  2  0  0  0  0
  3 17  1  0  0  0  0
  4  9  1  0  0  0  0
  4 17  2  0  0  0  0
  5 19  1  0  0  0  0
  6 21  1  0  0  0  0
  7 10  2  0  0  0  0
  7 20  1  0  0  0  0
  8 23  1  0  0  0  0
  9 23  2  0  0  0  0
 10 24  1  0  0  0  0
 11 12  2  0  0  0  0
 11 25  1  0  0  0  0
 12 26  1  0  0  0  0
 13 22  1  0  0  0  0
 13 24  2  0  0  0  0
 14 26  2  0  0  0  0
 14 27  1  0  0  0  0
 15 16  2  0  0  0  0
 15 65  1  0  0  0  0
 16 67  1  0  0  0  0
 17 28  1  0  0  0  0
 18 28  1  0  0  0  0
 18 29  2  0  0  0  0
 18 31  1  0  0  0  0
 19 21  2  0  0  0  0
 19 36  1  0  0  0  0
 20 22  2  0  0  0  0
 20 37  1  0  0  0  0
 21 45  1  0  0  0  0
 22 38  1  0  0  0  0
 23 80  1  0  0  0  0
 24 81  1  0  0  0  0
 25 27  2  0  0  0  0
 25 80  1  0  0  0  0
 26 82  1  0  0  0  0
 27 83  1  0  0  0  0
 28 64  2  0  0  0  0
 29 66  1  0  0  0  0
 29 70  1  0  0  0  0
 30 59  1  0  0  0  0
 30 65  1  0  0  0  0
 30 67  2  0  0  0  0
 31 71  1  0  0  0  0
 31 75  2  0  0  0  0
 32 46  1  0  0  0  0
 32 72  1  0  0  0  0
 32 76  2  0  0  0  0
 33 60  1  0  0  0  0
 33 68  1  0  0  0  0
 33 77  2  0  0  0  0
 34 62  1  0  0  0  0
 34 69  1  0  0  0  0
 34 78  2  0  0  0  0
 35 61  1  0  0  0  0
 35 73  1  0  0  0  0
 35 79  2  0  0  0  0
 36 39  1  0  0  0  0
 37 46  1  0  0  0  0
 38 68  1  0  0  0  0
 39 41  1  0  0  0  0
 40 42  1  0  0  0  0
 40 43  1  0  0  0  0
 41 45  1  0  0  0  0
 42 47  1  0  0  0  0
 43 69  1  0  0  0  0
 44 47  1  0  0  0  0
 44 69  1  0  0  0  0
 45 72  1  0  0  0  0
 46 68  1  0  0  0  0
 47 66  1  0  0  0  0
 48 59  1  0  0  0  0
 49 61  1  0  0  0  0
 50 62  1  0  0  0  0
 51 62  1  0  0  0  0
 52 63  1  0  0  0  0
 53 63  1  0  0  0  0
 54 63  1  0  0  0  0
 55 74  1  0  0  0  0
 56 57  1  0  0  0  0
 56 58  1  0  0  0  0
 57 65  1  0  0  0  0
 58 81  1  0  0  0  0
 59 62  1  0  0  0  0
 60 63  1  0  0  0  0
 60 73  1  0  0  0  0
 61 74  1  0  0  0  0
 64 66  1  0  0  0  0
M  CHG  2  67   1  74   1
M  ISO  4  34 100  58 101  62 100  81 101
M  END
> <Batch ID>
0074

> <Smiles>
CNC(C)C(=O)NC(C(=O)N1Cc2cc([101O:1][101CH2:1]CCn3ccnc3C(C)[100C:0](C)(C)[100C:0](=O)N3CCCC(n4nc(-c5ccc(Oc6ccc(F)cc6F)cc5)c(C(N)=O)c4N)C3)ccc2CC1C(=O)NC1CCCc2ccccc21)C(C)(C)C

> <Shape>
0.149

> <Color>
0.074

> <Negative vol penalty>
0.000

$$$$

  -OEChem-04052318293D

 92100  0     1  0  0  0  0  0999 V2000
  -17.0636  -29.3293   24.4730 C   0  0  0  0  0  0  0  0  0  0  0  0
  -17.7081  -28.0970   24.5132 C   0  0  0  0  0  0  0  0  0  0  0  0
  -23.8360  -12.2963   24.1677 C   0  0  0  0  0  0  0  0  0  0  0  0
  -24.0157  -14.7053   24.2063 C   0  0  0  0  0  0  0  0  0  0  0  0
  -17.3460  -30.2292   23.4462 C   0  0  0  0  0  0  0  0  0  0  0  0
  -18.6345  -27.7635   23.5259 C   0  0  0  0  0  0  0  0  0  0  0  0
  -23.7217  -24.4267   24.2271 C   0  0  0  0  0  0  0  0  0  0  0  0
  -23.3198  -12.3140   25.4633 C   0  0  0  0  0  0  0  0  0  0  0  0
  -23.4995  -14.7230   25.5020 C   0  0  0  0  0  0  0  0  0  0  0  0
  -24.0054  -23.0849   23.9763 C   0  0  0  0  0  0  0  0  0  0  0  0
  -21.8916  -15.4303   28.6852 C   0  0  0  0  0  0  0  0  0  0  0  0
  -20.9087  -16.3751   28.9796 C   0  0  0  0  0  0  0  0  0  0  0  0
  -24.9142  -23.6856   21.8240 C   0  0  0  0  0  0  0  0  0  0  0  0
  -19.4848  -15.4253   27.2745 C   0  0  0  0  0  0  0  0  0  0  0  0
  -24.1840  -13.4920   23.5392 C   0  0  0  0  0  0  0  0  0  0  0  0
  -23.9939  -13.5479   20.9959 C   0  0  0  0  0  0  0  0  0  0  0  0
  -18.2835  -29.9104   22.4512 C   0  0  0  0  0  0  0  0  0  0  0  0
  -24.0227  -25.4084   23.2721 C   0  0  0  0  0  0  0  0  0  0  0  0
  -18.9287  -28.6594   22.4840 C   0  0  0  0  0  0  0  0  0  0  0  0
  -24.6357  -25.0394   22.0662 C   0  0  0  0  0  0  0  0  0  0  0  0
  -23.1515  -13.5273   26.1305 C   0  0  0  0  0  0  0  0  0  0  0  0
  -24.5990  -22.7138   22.7734 C   0  0  0  0  0  0  0  0  0  0  0  0
  -21.6711  -14.4829   27.6854 C   0  0  0  0  0  0  0  0  0  0  0  0
  -19.7053  -16.3727   28.2743 C   0  0  0  0  0  0  0  0  0  0  0  0
  -20.4677  -14.4804   26.9801 C   0  0  0  0  0  0  0  0  0  0  0  0
  -24.7179  -13.4743   22.2009 C   0  0  0  0  0  0  0  0  0  0  0  0
  -27.5434  -16.8022   18.1337 C   0  0  0  0  0  0  0  0  0  0  0  0
  -27.1034  -17.5481   19.2017 C   0  0  0  0  0  0  0  0  0  0  0  0
  -24.9536  -13.4929   20.0148 C   0  0  0  0  0  0  0  0  0  0  0  0
  -29.0654  -16.6321   19.6119 C   0  0  0  0  0  0  0  0  0  0  0  0
  -22.5803  -13.6563   20.7823 C   0  0  0  0  0  0  0  0  0  0  0  0
  -22.3175  -27.4934   21.5844 C   0  0  0  0  0  0  0  0  0  0  0  0
  -30.7941  -14.9070   20.0314 C   0  0  0  0  0  0  0  0  0  0  0  0
  -25.2431  -28.5420   20.6551 C   0  0  0  0  0  0  0  0  0  0  0  0
  -28.5565  -27.8603   20.2039 C   0  0  0  0  0  0  0  0  0  0  0  0
  -18.5207  -30.8963   21.3348 C   0  0  0  0  0  0  0  0  0  0  0  0
  -23.7349  -26.8546   23.5690 C   0  0  0  0  0  0  0  0  0  0  0  0
  -24.9973  -26.0572   21.0165 C   0  0  0  0  0  0  0  0  0  0  0  0
  -19.7918  -30.6182   20.5364 C   0  0  0  0  0  0  0  0  0  0  0  0
  -29.3194  -11.7684   19.1290 C   0  0  0  0  0  0  0  0  0  0  0  0
  -19.8862  -29.1376   20.1817 C   0  0  0  0  0  0  0  0  0  0  0  0
  -27.9162  -11.8453   19.7295 C   0  0  0  0  0  0  0  0  0  0  0  0
  -30.3436  -12.4758   20.0109 C   0  0  0  0  0  0  0  0  0  0  0  0
  -28.5990  -13.9770   20.9189 C   0  0  0  0  0  0  0  0  0  0  0  0
  -19.9582  -28.2713   21.4450 C   0  0  1  0  0  0  0  0  0  0  0  0
  -23.6143  -27.7102   22.3117 C   0  0  1  0  0  0  0  0  0  0  0  0
  -27.5285  -13.3010   20.0439 C   0  0  2  0  0  0  0  0  0  0  0  0
  -26.8783  -16.5744   16.8410 C   0  0  0  0  0  0  0  0  0  0  0  0
  -31.4476  -17.2907   20.1446 C   0  0  0  0  0  0  0  0  0  0  0  0
  -30.6901  -28.9043   19.3944 C   0  0  0  0  0  0  0  0  0  0  0  0
  -29.5809  -23.7081   24.0221 C   0  0  0  0  0  0  0  0  0  0  0  0
  -30.0013  -21.5205   25.1618 C   0  0  0  0  0  0  0  0  0  0  0  0
  -22.7445  -18.6270   18.5827 C   0  0  0  0  0  0  0  0  0  0  0  0
  -24.3061  -28.2142   17.7699 C   0  0  0  0  0  0  0  0  0  0  0  0
  -26.7010  -28.3405   17.0512 C   0  0  0  0  0  0  0  0  0  0  0  0
  -25.6425  -30.2830   18.2040 C   0  0  0  0  0  0  0  0  0  0  0  0
  -29.8570  -27.5252   22.8412 C   0  0  0  0  0  0  0  0  0  0  0  0
  -25.8483  -18.3567   19.4153 C   0  0  0  0  0  0  0  0  0  0  0  0
  -24.6486  -17.4590   19.7345 C   0  0  0  0  0  0  0  0  0  0  0  0
  -28.5802  -20.1244   22.8491 C   0  0  0  0  0  0  0  0  0  0  0  0
  -28.4838  -19.5215   21.4430 C   0  0  0  0  0  0  0  0  0  0  0  0
  -23.9866  -19.1727   22.2740 C   0  0  0  0  0  0  0  0  0  0  0  0
  -29.0524  -21.5809   22.7939 C   0  0  0  0  0  0  0  0  0  0  0  0
  -23.4581  -19.4669   20.8690 C   0  0  0  0  0  0  0  0  0  0  0  0
  -28.0968  -18.0382   21.4518 C   0  0  0  0  0  0  0  0  0  0  0  0
  -24.0217  -20.4343   23.1292 C   0  0  0  0  0  0  0  0  0  1  0  0
  -30.2944  -16.2918   20.3581 C   0  0  1  0  0  0  0  0  0  0  0  0
  -26.1932  -28.2032   19.5319 C   0  0  1  0  0  0  0  0  0  0  0  0
  -29.8056  -28.6266   20.6000 C   0  0  2  0  0  0  0  0  0  0  0  0
  -29.1003  -22.2627   24.1740 C   0  0  0  0  0  0  0  0  0  0  0  0
  -23.3355  -18.2392   19.9426 C   0  0  1  0  0  0  0  0  0  0  0  0
  -25.7022  -28.7406   18.1580 C   0  0  0  0  0  0  0  0  0  0  0  0
  -26.0358  -13.3797   22.0057 N   0  0  0  0  0  0  0  0  0  0  0  0
  -28.7651  -16.2344   18.3955 N   0  0  0  0  0  0  0  0  0  0  0  0
  -28.0887  -17.4292   20.1410 N   0  0  0  0  0  0  0  0  0  0  0  0
  -26.1476  -13.3933   20.6666 N   0  0  0  0  0  0  0  0  0  0  0  0
  -24.6901  -27.4577   21.3510 N   0  0  0  0  0  0  0  0  0  0  0  0
  -29.9280  -13.8484   20.3053 N   0  0  0  0  0  0  0  0  0  0  0  0
  -24.8842  -13.5204   18.6669 N   0  0  0  0  0  0  0  0  0  0  0  0
  -21.7370  -13.7005   21.9010 N   0  0  0  0  0  0  0  0  0  0  0  0
  -21.2895  -28.3125   22.0109 N   0  0  0  0  0  0  0  0  0  0  0  0
  -27.5010  -28.7066   19.9377 N   0  0  0  0  0  0  0  0  0  0  0  0
  -30.5972  -27.8484   21.5944 N   0  3  0  0  0  0  0  0  0  0  0  0
  -22.0785  -13.6958   19.6333 O   0  0  0  0  0  0  0  0  0  0  0  0
  -22.2546  -26.6469   20.7006 O   0  0  0  0  0  0  0  0  0  0  0  0
  -31.9198  -14.7726   19.5447 O   0  0  0  0  0  0  0  0  0  0  0  0
  -25.0061  -29.7254   20.9105 O   0  0  0  0  0  0  0  0  0  0  0  0
  -28.5217  -26.6337   20.1339 O   0  0  0  0  0  0  0  0  0  0  0  0
  -22.6476  -13.5450   27.3948 O   0  0  0  0  0  0  0  0  0  0  0  0
  -24.8764  -21.4048   22.5258 O   0  0  0  0  0  0  0  0  0  1  0  0
  -18.7609  -17.2791   28.5583 F   0  0  0  0  0  0  0  0  0  0  0  0
  -20.2497  -13.5720   26.0193 F   0  0  0  0  0  0  0  0  0  0  0  0
  1  2  1  0  0  0  0
  1  5  2  0  0  0  0
  2  6  2  0  0  0  0
  3  8  2  0  0  0  0
  3 15  1  0  0  0  0
  4  9  1  0  0  0  0
  4 15  2  0  0  0  0
  5 17  1  0  0  0  0
  6 19  1  0  0  0  0
  7 10  2  0  0  0  0
  7 18  1  0  0  0  0
  8 21  1  0  0  0  0
  9 21  2  0  0  0  0
 10 22  1  0  0  0  0
 11 12  2  0  0  0  0
 11 23  1  0  0  0  0
 12 24  1  0  0  0  0
 13 20  1  0  0  0  0
 13 22  2  0  0  0  0
 14 24  2  0  0  0  0
 14 25  1  0  0  0  0
 15 26  1  0  0  0  0
 16 26  1  0  0  0  0
 16 29  2  0  0  0  0
 16 31  1  0  0  0  0
 17 19  2  0  0  0  0
 17 36  1  0  0  0  0
 18 20  2  0  0  0  0
 18 37  1  0  0  0  0
 19 45  1  0  0  0  0
 20 38  1  0  0  0  0
 21 89  1  0  0  0  0
 22 90  1  0  0  0  0
 23 25  2  0  0  0  0
 23 89  1  0  0  0  0
 24 91  1  0  0  0  0
 25 92  1  0  0  0  0
 26 73  2  0  0  0  0
 27 28  2  0  0  0  0
 27 48  1  0  0  0  0
 27 74  1  0  0  0  0
 28 58  1  0  0  0  0
 28 75  1  0  0  0  0
 29 76  1  0  0  0  0
 29 79  1  0  0  0  0
 30 67  1  0  0  0  0
 30 74  2  0  0  0  0
 30 75  1  0  0  0  0
 31 80  1  0  0  0  0
 31 84  2  0  0  0  0
 32 46  1  0  0  0  0
 32 81  1  0  0  0  0
 32 85  2  0  0  0  0
 33 67  1  0  0  0  0
 33 78  1  0  0  0  0
 33 86  2  0  0  0  0
 34 68  1  0  0  0  0
 34 77  1  0  0  0  0
 34 87  2  0  0  0  0
 35 69  1  0  0  0  0
 35 82  1  0  0  0  0
 35 88  2  0  0  0  0
 36 39  1  0  0  0  0
 37 46  1  0  0  0  0
 38 77  1  0  0  0  0
 39 41  1  0  0  0  0
 40 42  1  0  0  0  0
 40 43  1  0  0  0  0
 41 45  1  0  0  0  0
 42 47  1  0  0  0  0
 43 78  1  0  0  0  0
 44 47  1  0  0  0  0
 44 78  1  0  0  0  0
 45 81  1  0  0  0  0
 46 77  1  0  0  0  0
 47 76  1  0  0  0  0
 49 67  1  0  0  0  0
 50 69  1  0  0  0  0
 51 70  1  0  0  0  0
 52 70  1  0  0  0  0
 53 71  1  0  0  0  0
 54 72  1  0  0  0  0
 55 72  1  0  0  0  0
 56 72  1  0  0  0  0
 57 83  1  0  0  0  0
 58 59  1  0  0  0  0
 59 71  1  0  0  0  0
 60 61  1  0  0  0  0
 60 63  1  0  0  0  0
 61 65  1  0  0  0  0
 62 64  1  0  0  0  0
 62 66  1  0  0  0  0
 63 70  1  0  0  0  0
 64 71  1  0  0  0  0
 65 75  1  0  0  0  0
 66 90  1  0  0  0  0
 68 72  1  0  0  0  0
 68 82  1  0  0  0  0
 69 83  1  0  0  0  0
 73 76  1  0  0  0  0
M  CHG  1  83   1
M  ISO  4  33 100  66 101  67 100  90 101
M  END
> <Batch ID>
0074

> <Smiles>
CNC(C)C(=O)NC(C(=O)N1Cc2cc([101O:1][101CH2:1]CCC(C)CCc3c(C)nc([100CH:0](C)[100C:0](=O)N4CCCC(n5nc(-c6ccc(Oc7ccc(F)cc7F)cc6)c(C(N)=O)c5N)C4)n3CCCCC(C)C)ccc2CC1C(=O)NC1CCCc2ccccc21)C(C)(C)C

> <Shape>
0.196

> <Color>
0.083

> <Negative vol penalty>
0.000

$$$$

  -OEChem-04052318293D

 83 91  0     1  0  0  0  0  0999 V2000
  -21.7528  -30.7921   23.6389 C   0  0  0  0  0  0  0  0  0  0  0  0
  -21.3717  -29.6659   22.9165 C   0  0  0  0  0  0  0  0  0  0  0  0
  -26.4824  -13.2450   21.3382 C   0  0  0  0  0  0  0  0  0  0  0  0
  -25.1667  -12.7857   19.3647 C   0  0  0  0  0  0  0  0  0  0  0  0
  -22.8921  -31.5047   23.2673 C   0  0  0  0  0  0  0  0  0  0  0  0
  -22.1293  -29.2522   21.8213 C   0  0  0  0  0  0  0  0  0  0  0  0
  -23.1334  -23.4905   20.0047 C   0  0  0  0  0  0  0  0  0  0  0  0
  -25.6134  -12.4635   22.0995 C   0  0  0  0  0  0  0  0  0  0  0  0
  -24.2976  -12.0042   20.1260 C   0  0  0  0  0  0  0  0  0  0  0  0
  -22.5423  -22.7012   19.0192 C   0  0  0  0  0  0  0  0  0  0  0  0
  -24.2482   -8.8868   21.4300 C   0  0  0  0  0  0  0  0  0  0  0  0
  -23.8609   -7.6535   20.9062 C   0  0  0  0  0  0  0  0  0  0  0  0
  -24.3089  -23.2990   17.4892 C   0  0  0  0  0  0  0  0  0  0  0  0
  -21.5504   -8.3581   20.9557 C   0  0  0  0  0  0  0  0  0  0  0  0
  -24.1729  -19.1927   10.2699 C   0  0  0  0  0  0  0  0  0  0  0  0
  -26.1022  -18.8787   11.1122 C   0  0  0  0  0  0  0  0  0  0  0  0
  -26.2591  -13.4062   19.9708 C   0  0  0  0  0  0  0  0  0  0  0  0
  -28.5369  -14.0141   18.9964 C   0  0  0  0  0  0  0  0  0  0  0  0
  -23.6694  -31.0939   22.1729 C   0  0  0  0  0  0  0  0  0  0  0  0
  -24.3129  -24.1998   19.7360 C   0  0  0  0  0  0  0  0  0  0  0  0
  -23.2794  -29.9608   21.4339 C   0  0  0  0  0  0  0  0  0  0  0  0
  -24.9145  -24.0945   18.4738 C   0  0  0  0  0  0  0  0  0  0  0  0
  -24.5210  -11.8430   21.4934 C   0  0  0  0  0  0  0  0  0  0  0  0
  -23.1284  -22.6076   17.7603 C   0  0  0  0  0  0  0  0  0  0  0  0
  -23.2867   -9.8559   21.7167 C   0  0  0  0  0  0  0  0  0  0  0  0
  -22.5120   -7.3891   20.6690 C   0  0  0  0  0  0  0  0  0  0  0  0
  -21.9378   -9.5915   21.4795 C   0  0  0  0  0  0  0  0  0  0  0  0
  -27.1561  -14.2139   19.1840 C   0  0  0  0  0  0  0  0  0  0  0  0
  -24.0564  -19.5408   11.5949 C   0  0  0  0  0  0  0  0  0  0  0  0
  -28.9242  -15.0435   18.1737 C   0  0  0  0  0  0  0  0  0  0  0  0
  -29.3930  -12.9896   19.5191 C   0  0  0  0  0  0  0  0  0  0  0  0
  -25.1206  -27.2738   19.6896 C   0  0  0  0  0  0  0  0  0  0  0  0
  -25.8442  -18.2469   14.2332 C   0  0  0  0  0  0  0  0  0  0  0  0
  -28.0988  -26.0825   19.2063 C   0  0  0  0  0  0  0  0  0  0  0  0
  -30.0442  -23.5020   18.1093 C   0  0  0  0  0  0  0  0  0  0  0  0
  -24.8662  -31.9236   21.7804 C   0  0  0  0  0  0  0  0  0  0  0  0
  -24.9526  -25.0257   20.8182 C   0  0  0  0  0  0  0  0  0  0  0  0
  -26.1918  -24.8200   18.1411 C   0  0  0  0  0  0  0  0  0  0  0  0
  -25.8241  -31.2023   20.8359 C   0  0  0  0  0  0  0  0  0  0  0  0
  -27.8063  -19.5399   17.0091 C   0  0  0  0  0  0  0  0  0  0  0  0
  -25.0525  -30.5260   19.7071 C   0  0  0  0  0  0  0  0  0  0  0  0
  -27.9610  -18.2942   17.8804 C   0  0  0  0  0  0  0  0  0  0  0  0
  -26.4469  -19.5745   16.3155 C   0  0  0  0  0  0  0  0  0  0  0  0
  -26.3045  -17.1046   16.3790 C   0  0  0  0  0  0  0  0  0  0  0  0
  -24.0891  -29.4663   20.2549 C   0  0  1  0  0  0  0  0  0  0  0  0
  -25.8743  -26.1128   20.2742 C   0  0  1  0  0  0  0  0  0  0  0  0
  -27.6744  -17.0164   17.0724 C   0  0  2  0  0  0  0  0  0  0  0  0
  -20.3577  -24.3849   13.5839 C   0  0  0  0  0  0  0  0  0  0  0  0
  -32.1347  -22.1844   17.6720 C   0  0  0  0  0  0  0  0  0  0  0  0
  -28.2824  -27.8786   16.7466 C   0  0  0  0  0  0  0  0  0  0  0  0
  -30.2302  -26.5070   15.9765 C   0  0  0  0  0  0  0  0  0  0  0  0
  -30.3695  -27.7745   18.1205 C   0  0  0  0  0  0  0  0  0  0  0  0
  -29.9197  -22.2028   20.7656 C   0  0  0  0  0  0  0  0  0  0  0  0
  -22.8844  -20.0466   12.3996 C   0  0  0  0  0  0  0  0  0  0  0  0
  -25.7097  -19.5514   13.4889 C   0  0  0  0  0  0  0  0  0  0  0  0
  -21.5789  -23.7215   12.9604 C   0  0  0  0  0  0  0  0  0  0  0  0
  -22.8100  -21.5777   12.3762 C   0  0  0  0  0  0  0  0  0  0  0  0
  -21.5427  -21.7847   14.6209 C   0  0  0  0  0  0  0  0  0  0  0  0
  -22.7426  -22.2452   15.4417 C   0  0  0  0  0  0  0  0  0  1  0  0
  -28.9171  -25.7090   17.9939 C   0  0  1  0  0  0  0  0  0  0  0  0
  -31.2405  -22.8064   18.7333 C   0  0  2  0  0  0  0  0  0  0  0  0
  -21.6061  -22.1863   13.1332 C   0  0  1  0  0  0  0  0  0  0  0  0
  -29.4247  -26.9550   17.2147 C   0  0  0  0  0  0  0  0  0  0  0  0
  -25.4487  -18.7812    9.9758 N   0  0  0  0  0  0  0  0  0  0  0  0
  -26.6971  -15.2860   18.5329 N   0  0  0  0  0  0  0  0  0  0  0  0
  -25.3002  -19.3340   12.1216 N   0  0  0  0  0  0  0  0  0  0  0  0
  -27.7957  -15.7692   17.9283 N   0  0  0  0  0  0  0  0  0  0  0  0
  -26.7755  -25.6198   19.2306 N   0  0  0  0  0  0  0  0  0  0  0  0
  -26.2002  -18.3287   15.5796 N   0  0  0  0  0  0  0  0  0  0  0  0
  -30.1164  -15.3897   17.6435 N   0  0  0  0  0  0  0  0  0  0  0  0
  -29.5567  -11.8124   18.7763 N   0  0  0  0  0  0  0  0  0  0  0  0
  -24.8095  -28.2610   20.6051 N   0  0  0  0  0  0  0  0  0  0  0  0
  -29.9788  -24.8304   18.4729 N   0  0  0  0  0  0  0  0  0  0  0  0
  -30.7888  -21.7285   19.6580 N   0  3  0  0  0  0  0  0  0  0  0  0
  -29.9820  -13.1076   20.6203 O   0  0  0  0  0  0  0  0  0  0  0  0
  -24.8432  -27.2746   18.4960 O   0  0  0  0  0  0  0  0  0  0  0  0
  -25.6413  -17.1880   13.6335 O   0  0  0  0  0  0  0  0  0  0  0  0
  -28.6168  -26.7538   20.1022 O   0  0  0  0  0  0  0  0  0  0  0  0
  -29.2494  -22.9255   17.3700 O   0  0  0  0  0  0  0  0  0  0  0  0
  -23.6730  -11.0801   22.2359 O   0  0  0  0  0  0  0  0  0  0  0  0
  -22.5531  -21.8384   16.7963 O   0  0  0  0  0  0  0  0  0  1  0  0
  -22.1403   -6.2053   20.1646 F   0  0  0  0  0  0  0  0  0  0  0  0
  -21.0096  -10.5189   21.7518 F   0  0  0  0  0  0  0  0  0  0  0  0
  1  2  1  0  0  0  0
  1  5  2  0  0  0  0
  2  6  2  0  0  0  0
  3  8  2  0  0  0  0
  3 17  1  0  0  0  0
  4  9  1  0  0  0  0
  4 17  2  0  0  0  0
  5 19  1  0  0  0  0
  6 21  1  0  0  0  0
  7 10  2  0  0  0  0
  7 20  1  0  0  0  0
  8 23  1  0  0  0  0
  9 23  2  0  0  0  0
 10 24  1  0  0  0  0
 11 12  2  0  0  0  0
 11 25  1  0  0  0  0
 12 26  1  0  0  0  0
 13 22  1  0  0  0  0
 13 24  2  0  0  0  0
 14 26  2  0  0  0  0
 14 27  1  0  0  0  0
 15 29  2  0  0  0  0
 15 64  1  0  0  0  0
 16 64  2  0  0  0  0
 16 66  1  0  0  0  0
 17 28  1  0  0  0  0
 18 28  1  0  0  0  0
 18 30  2  0  0  0  0
 18 31  1  0  0  0  0
 19 21  2  0  0  0  0
 19 36  1  0  0  0  0
 20 22  2  0  0  0  0
 20 37  1  0  0  0  0
 21 45  1  0  0  0  0
 22 38  1  0  0  0  0
 23 80  1  0  0  0  0
 24 81  1  0  0  0  0
 25 27  2  0  0  0  0
 25 80  1  0  0  0  0
 26 82  1  0  0  0  0
 27 83  1  0  0  0  0
 28 65  2  0  0  0  0
 29 54  1  0  0  0  0
 29 66  1  0  0  0  0
 30 67  1  0  0  0  0
 30 70  1  0  0  0  0
 31 71  1  0  0  0  0
 31 75  2  0  0  0  0
 32 46  1  0  0  0  0
 32 72  1  0  0  0  0
 32 76  2  0  0  0  0
 33 55  1  0  0  0  0
 33 69  1  0  0  0  0
 33 77  2  0  0  0  0
 34 60  1  0  0  0  0
 34 68  1  0  0  0  0
 34 78  2  0  0  0  0
 35 61  1  0  0  0  0
 35 73  1  0  0  0  0
 35 79  2  0  0  0  0
 36 39  1  0  0  0  0
 37 46  1  0  0  0  0
 38 68  1  0  0  0  0
 39 41  1  0  0  0  0
 40 42  1  0  0  0  0
 40 43  1  0  0  0  0
 41 45  1  0  0  0  0
 42 47  1  0  0  0  0
 43 69  1  0  0  0  0
 44 47  1  0  0  0  0
 44 69  1  0  0  0  0
 45 72  1  0  0  0  0
 46 68  1  0  0  0  0
 47 67  1  0  0  0  0
 48 56  1  0  0  0  0
 49 61  1  0  0  0  0
 50 63  1  0  0  0  0
 51 63  1  0  0  0  0
 52 63  1  0  0  0  0
 53 74  1  0  0  0  0
 54 57  1  0  0  0  0
 55 66  1  0  0  0  0
 56 62  1  0  0  0  0
 57 62  1  0  0  0  0
 58 59  1  0  0  0  0
 58 62  1  0  0  0  0
 59 81  1  0  0  0  0
 60 63  1  0  0  0  0
 60 73  1  0  0  0  0
 61 74  1  0  0  0  0
 65 67  1  0  0  0  0
M  CHG  1  74   1
M  ISO  4  33 100  55 100  59 101  81 101
M  END
> <Batch ID>
0074

> <Smiles>
CCC(CCc1cncn1[100CH2:0][100C:0](=O)N1CCCC(n2nc(-c3ccc(Oc4ccc(F)cc4F)cc3)c(C(N)=O)c2N)C1)C[101CH2:1][101O:1]c1ccc2c(c1)CN(C(=O)C(NC(=O)C(C)NC)C(C)(C)C)C(C(=O)NC1CCCc3ccccc31)C2

> <Shape>
0.218

> <Color>
0.058

> <Negative vol penalty>
0.000

$$$$

  -OEChem-04052318293D

 86 94  0     1  0  0  0  0  0999 V2000
  -22.5322   -7.9738   24.9213 C   0  0  0  0  0  0  0  0  0  0  0  0
  -23.6941   -8.7214   25.0839 C   0  0  0  0  0  0  0  0  0  0  0  0
  -24.2314  -27.6658   19.2849 C   0  0  0  0  0  0  0  0  0  0  0  0
  -24.3160  -26.7491   21.5186 C   0  0  0  0  0  0  0  0  0  0  0  0
  -21.9424   -7.8691   23.6623 C   0  0  0  0  0  0  0  0  0  0  0  0
  -24.2676   -9.3639   23.9871 C   0  0  0  0  0  0  0  0  0  0  0  0
  -27.9576  -15.2595   22.2721 C   0  0  0  0  0  0  0  0  0  0  0  0
  -22.8453  -27.5112   19.2739 C   0  0  0  0  0  0  0  0  0  0  0  0
  -22.9298  -26.5944   21.5076 C   0  0  0  0  0  0  0  0  0  0  0  0
  -29.1207  -15.6471   21.6082 C   0  0  0  0  0  0  0  0  0  0  0  0
  -19.3748  -26.2928   22.2069 C   0  0  0  0  0  0  0  0  0  0  0  0
  -18.6681  -26.6903   23.3419 C   0  0  0  0  0  0  0  0  0  0  0  0
  -27.9701  -15.4610   19.4962 C   0  0  0  0  0  0  0  0  0  0  0  0
  -19.4945  -28.9439   23.0671 C   0  0  0  0  0  0  0  0  0  0  0  0
  -24.9669  -27.2847   20.4072 C   0  0  0  0  0  0  0  0  0  0  0  0
  -27.1258  -28.5683   20.8532 C   0  0  0  0  0  0  0  0  0  0  0  0
  -22.5035   -8.5186   22.5515 C   0  0  0  0  0  0  0  0  0  0  0  0
  -26.7931  -14.9587   21.5510 C   0  0  0  0  0  0  0  0  0  0  0  0
  -23.6854   -9.2667   22.7118 C   0  0  0  0  0  0  0  0  0  0  0  0
  -26.7928  -15.0723   20.1535 C   0  0  0  0  0  0  0  0  0  0  0  0
  -22.1944  -26.9755   20.3852 C   0  0  0  0  0  0  0  0  0  0  0  0
  -29.1280  -15.7451   20.2199 C   0  0  0  0  0  0  0  0  0  0  0  0
  -20.1414  -27.2208   21.5020 C   0  0  0  0  0  0  0  0  0  0  0  0
  -18.7280  -28.0158   23.7720 C   0  0  0  0  0  0  0  0  0  0  0  0
  -20.2012  -28.5463   21.9321 C   0  0  0  0  0  0  0  0  0  0  0  0
  -26.3989  -27.4437   20.4190 C   0  0  0  0  0  0  0  0  0  0  0  0
  -28.8554  -19.7652   19.1953 C   0  0  0  0  0  0  0  0  0  0  0  0
  -27.5249  -19.9812   19.4665 C   0  0  0  0  0  0  0  0  0  0  0  0
  -28.4411  -28.2217   20.6621 C   0  0  0  0  0  0  0  0  0  0  0  0
  -28.8195  -21.2445   20.7253 C   0  0  0  0  0  0  0  0  0  0  0  0
  -26.6544  -29.8147   21.3822 C   0  0  0  0  0  0  0  0  0  0  0  0
  -24.9892  -12.3675   21.1829 C   0  0  0  0  0  0  0  0  0  0  0  0
  -23.0762  -14.4089   19.5412 C   0  0  0  0  0  0  0  0  0  0  0  0
  -31.1806  -22.8816   20.3618 C   0  0  0  0  0  0  0  0  0  0  0  0
  -22.7840  -17.3015   17.7539 C   0  0  0  0  0  0  0  0  0  0  0  0
  -21.8563   -8.3374   21.2013 C   0  0  0  0  0  0  0  0  0  0  0  0
  -25.5391  -14.5679   22.2838 C   0  0  0  0  0  0  0  0  0  0  0  0
  -25.5631  -14.7800   19.3344 C   0  0  0  0  0  0  0  0  0  0  0  0
  -22.3183   -9.3564   20.1628 C   0  0  0  0  0  0  0  0  0  0  0  0
  -31.2425  -25.4979   17.9141 C   0  0  0  0  0  0  0  0  0  0  0  0
  -23.8374   -9.4927   20.1876 C   0  0  0  0  0  0  0  0  0  0  0  0
  -30.0563  -26.3800   18.3015 C   0  0  0  0  0  0  0  0  0  0  0  0
  -30.9529  -24.0241   18.1807 C   0  0  0  0  0  0  0  0  0  0  0  0
  -29.3556  -24.6114   19.9766 C   0  0  0  0  0  0  0  0  0  0  0  0
  -24.3237   -9.9985   21.5511 C   0  0  1  0  0  0  0  0  0  0  0  0
  -24.5575  -13.7880   21.4145 C   0  0  1  0  0  0  0  0  0  0  0  0
  -29.6179  -26.1111   19.7520 C   0  0  2  0  0  0  0  0  0  0  0  0
  -26.2978  -19.3920   18.9009 C   0  0  0  0  0  0  0  0  0  0  0  0
  -25.6677  -22.5345   20.1955 C   0  0  0  0  0  0  0  0  0  0  0  0
  -21.6554  -19.1672   16.5118 C   0  0  0  0  0  0  0  0  0  0  0  0
  -32.1928  -17.2267   20.4711 C   0  0  0  0  0  0  0  0  0  0  0  0
  -31.5551  -21.6580   22.4526 C   0  0  0  0  0  0  0  0  0  0  0  0
  -30.8455  -24.0540   22.5176 C   0  0  0  0  0  0  0  0  0  0  0  0
  -23.1781  -12.4362   17.2157 C   0  0  0  0  0  0  0  0  0  0  0  0
  -22.3155  -14.2546   15.7265 C   0  0  0  0  0  0  0  0  0  0  0  0
  -20.9266  -13.4419   17.6326 C   0  0  0  0  0  0  0  0  0  0  0  0
  -22.3747  -18.8614   20.2354 C   0  0  0  0  0  0  0  0  0  0  0  0
  -29.4664  -18.8173   18.1944 C   0  0  0  0  0  0  0  0  0  0  0  0
  -29.1883  -22.2491   21.7440 C   0  0  0  0  0  0  0  0  0  0  0  0
  -30.8356  -18.2666   18.6189 C   0  0  0  0  0  0  0  0  0  0  0  0
  -26.3474  -21.5009   21.0770 C   0  0  0  0  0  0  0  0  0  0  0  0
  -22.9717  -14.8524   18.1020 C   0  0  1  0  0  0  0  0  0  0  0  0
  -21.7892  -18.4447   17.8433 C   0  0  2  0  0  0  0  0  0  0  0  0
  -30.7969  -17.4066   19.8881 C   0  0  1  0  0  0  0  0  0  1  0  0
  -30.6779  -22.7232   21.7747 C   0  0  0  0  0  0  0  0  0  0  0  0
  -22.3719  -13.7500   17.1842 C   0  0  0  0  0  0  0  0  0  0  0  0
  -27.1869  -26.4566   19.9845 N   0  0  0  0  0  0  0  0  0  0  0  0
  -29.6561  -20.5545   19.9824 N   0  0  0  0  0  0  0  0  0  0  0  0
  -27.5177  -20.9309   20.4489 N   0  0  0  0  0  0  0  0  0  0  0  0
  -28.4227  -26.9599   20.1448 N   0  0  0  0  0  0  0  0  0  0  0  0
  -24.3635  -14.3956   20.0965 N   0  0  0  0  0  0  0  0  0  0  0  0
  -30.5180  -23.8135   19.5626 N   0  0  0  0  0  0  0  0  0  0  0  0
  -29.5999  -28.8763   20.8877 N   0  0  0  0  0  0  0  0  0  0  0  0
  -25.2719  -30.0053   21.5119 N   0  0  0  0  0  0  0  0  0  0  0  0
  -24.1042  -11.4242   21.6689 N   0  0  0  0  0  0  0  0  0  0  0  0
  -22.2134  -16.0987   18.1128 N   0  0  0  0  0  0  0  0  0  0  0  0
  -22.2250  -19.4313   18.8717 N   0  3  0  0  0  0  0  0  0  0  0  0
  -27.4353  -30.7386   21.7141 O   0  0  0  0  0  0  0  0  0  0  0  0
  -26.0463  -12.1440   20.6046 O   0  0  0  0  0  0  0  0  0  0  0  0
  -22.0523  -14.0930   20.1525 O   0  0  0  0  0  0  0  0  0  0  0  0
  -32.1357  -22.1989   19.9825 O   0  0  0  0  0  0  0  0  0  0  0  0
  -23.9496  -17.4591   17.3974 O   0  0  0  0  0  0  0  0  0  0  0  0
  -20.8417  -26.8247   20.3749 O   0  0  0  0  0  0  0  0  0  0  0  0
  -30.2621  -16.1225   19.5694 O   0  0  0  0  0  0  0  0  0  1  0  0
  -18.0481  -28.3977   24.8610 F   0  0  0  0  0  0  0  0  0  0  0  0
  -20.9351  -29.4426   21.2584 F   0  0  0  0  0  0  0  0  0  0  0  0
  1  2  1  0  0  0  0
  1  5  2  0  0  0  0
  2  6  2  0  0  0  0
  3  8  2  0  0  0  0
  3 15  1  0  0  0  0
  4  9  1  0  0  0  0
  4 15  2  0  0  0  0
  5 17  1  0  0  0  0
  6 19  1  0  0  0  0
  7 10  2  0  0  0  0
  7 18  1  0  0  0  0
  8 21  1  0  0  0  0
  9 21  2  0  0  0  0
 10 22  1  0  0  0  0
 11 12  2  0  0  0  0
 11 23  1  0  0  0  0
 12 24  1  0  0  0  0
 13 20  1  0  0  0  0
 13 22  2  0  0  0  0
 14 24  2  0  0  0  0
 14 25  1  0  0  0  0
 15 26  1  0  0  0  0
 16 26  1  0  0  0  0
 16 29  2  0  0  0  0
 16 31  1  0  0  0  0
 17 19  2  0  0  0  0
 17 36  1  0  0  0  0
 18 20  2  0  0  0  0
 18 37  1  0  0  0  0
 19 45  1  0  0  0  0
 20 38  1  0  0  0  0
 21 83  1  0  0  0  0
 22 84  1  0  0  0  0
 23 25  2  0  0  0  0
 23 83  1  0  0  0  0
 24 85  1  0  0  0  0
 25 86  1  0  0  0  0
 26 67  2  0  0  0  0
 27 28  2  0  0  0  0
 27 58  1  0  0  0  0
 27 68  1  0  0  0  0
 28 48  1  0  0  0  0
 28 69  1  0  0  0  0
 29 70  1  0  0  0  0
 29 73  1  0  0  0  0
 30 59  1  0  0  0  0
 30 68  2  0  0  0  0
 30 69  1  0  0  0  0
 31 74  1  0  0  0  0
 31 78  2  0  0  0  0
 32 46  1  0  0  0  0
 32 75  1  0  0  0  0
 32 79  2  0  0  0  0
 33 62  1  0  0  0  0
 33 71  1  0  0  0  0
 33 80  2  0  0  0  0
 34 65  1  0  0  0  0
 34 72  1  0  0  0  0
 34 81  2  0  0  0  0
 35 63  1  0  0  0  0
 35 76  1  0  0  0  0
 35 82  2  0  0  0  0
 36 39  1  0  0  0  0
 37 46  1  0  0  0  0
 38 71  1  0  0  0  0
 39 41  1  0  0  0  0
 40 42  1  0  0  0  0
 40 43  1  0  0  0  0
 41 45  1  0  0  0  0
 42 47  1  0  0  0  0
 43 72  1  0  0  0  0
 44 47  1  0  0  0  0
 44 72  1  0  0  0  0
 45 75  1  0  0  0  0
 46 71  1  0  0  0  0
 47 70  1  0  0  0  0
 49 61  1  0  0  0  0
 50 63  1  0  0  0  0
 51 64  1  0  0  0  0
 52 65  1  0  0  0  0
 53 65  1  0  0  0  0
 54 66  1  0  0  0  0
 55 66  1  0  0  0  0
 56 66  1  0  0  0  0
 57 77  1  0  0  0  0
 58 60  1  0  0  0  0
 59 65  1  0  0  0  0
 60 64  1  0  0  0  0
 61 69  1  0  0  0  0
 62 66  1  0  0  0  0
 62 76  1  0  0  0  0
 63 77  1  0  0  0  0
 64 84  1  0  0  0  0
 67 70  1  0  0  0  0
M  CHG  1  77   1
M  ISO  4  34 100  64 101  65 100  84 101
M  END
> <Batch ID>
0074

> <Smiles>
CCn1c(C[100C:0](C)(C)[100C:0](=O)N2CCCC(n3nc(-c4ccc(Oc5ccc(F)cc5F)cc4)c(C(N)=O)c3N)C2)nc(CC[101CH:1](C)[101O:1]c2ccc3c(c2)CN(C(=O)C(NC(=O)C(C)NC)C(C)(C)C)C(C(=O)NC2CCCc4ccccc42)C3)c1C

> <Shape>
0.290

> <Color>
0.089

> <Negative vol penalty>
0.000

$$$$

  -OEChem-04052318293D

 85 93  0     1  0  0  0  0  0999 V2000
  -20.2842  -31.9345   18.0647 C   0  0  0  0  0  0  0  0  0  0  0  0
  -20.4043  -30.5509   18.1472 C   0  0  0  0  0  0  0  0  0  0  0  0
  -23.7165   -9.8138   21.5700 C   0  0  0  0  0  0  0  0  0  0  0  0
  -24.3309  -10.8860   23.6460 C   0  0  0  0  0  0  0  0  0  0  0  0
  -21.2597  -32.7528   18.6329 C   0  0  0  0  0  0  0  0  0  0  0  0
  -21.5005  -29.9848   18.7969 C   0  0  0  0  0  0  0  0  0  0  0  0
  -23.3202  -24.2950   22.7505 C   0  0  0  0  0  0  0  0  0  0  0  0
  -23.1669   -8.7483   22.2829 C   0  0  0  0  0  0  0  0  0  0  0  0
  -23.7812   -9.8205   24.3590 C   0  0  0  0  0  0  0  0  0  0  0  0
  -24.2658  -23.2714   22.7937 C   0  0  0  0  0  0  0  0  0  0  0  0
  -20.3189   -8.0951   23.9845 C   0  0  0  0  0  0  0  0  0  0  0  0
  -19.0692   -7.6230   23.5836 C   0  0  0  0  0  0  0  0  0  0  0  0
  -25.8483  -24.7840   23.8069 C   0  0  0  0  0  0  0  0  0  0  0  0
  -29.3471  -19.4020   22.3775 C   0  0  0  0  0  0  0  0  0  0  0  0
  -20.0268   -5.4452   23.1626 C   0  0  0  0  0  0  0  0  0  0  0  0
  -27.1584  -19.3158   24.0048 C   0  0  0  0  0  0  0  0  0  0  0  0
  -24.2986  -10.8826   22.2515 C   0  0  0  0  0  0  0  0  0  0  0  0
  -24.2116  -13.1587   21.1028 C   0  0  0  0  0  0  0  0  0  0  0  0
  -22.3635  -32.1965   19.2983 C   0  0  0  0  0  0  0  0  0  0  0  0
  -23.6358  -25.5759   23.2261 C   0  0  0  0  0  0  0  0  0  0  0  0
  -22.4924  -30.7964   19.3733 C   0  0  0  0  0  0  0  0  0  0  0  0
  -24.9042  -25.8215   23.7710 C   0  0  0  0  0  0  0  0  0  0  0  0
  -28.3191  -20.3186   22.1872 C   0  0  0  0  0  0  0  0  0  0  0  0
  -27.2004  -20.2815   23.0121 C   0  0  0  0  0  0  0  0  0  0  0  0
  -23.1992   -8.7517   23.6774 C   0  0  0  0  0  0  0  0  0  0  0  0
  -25.5310  -23.5165   23.3193 C   0  0  0  0  0  0  0  0  0  0  0  0
  -21.4227   -7.2423   23.9744 C   0  0  0  0  0  0  0  0  0  0  0  0
  -18.9231   -6.2981   23.1727 C   0  0  0  0  0  0  0  0  0  0  0  0
  -21.2767   -5.9174   23.5635 C   0  0  0  0  0  0  0  0  0  0  0  0
  -24.8671  -11.9832   21.5156 C   0  0  0  0  0  0  0  0  0  0  0  0
  -29.2091  -18.4758   23.3988 C   0  0  0  0  0  0  0  0  0  0  0  0
  -25.1791  -13.8787   20.4456 C   0  0  0  0  0  0  0  0  0  0  0  0
  -22.8498  -13.5635   21.2962 C   0  0  0  0  0  0  0  0  0  0  0  0
  -23.8075  -28.4717   21.9266 C   0  0  0  0  0  0  0  0  0  0  0  0
  -24.3020  -29.3940   24.9970 C   0  0  0  0  0  0  0  0  0  0  0  0
  -25.3409  -28.5637   28.1399 C   0  0  0  0  0  0  0  0  0  0  0  0
  -31.1561  -13.9445   20.7958 C   0  0  0  0  0  0  0  0  0  0  0  0
  -23.4166  -33.1211   19.8557 C   0  0  0  0  0  0  0  0  0  0  0  0
  -22.5958  -26.6623   23.1970 C   0  0  0  0  0  0  0  0  0  0  0  0
  -25.2861  -27.1738   24.3132 C   0  0  0  0  0  0  0  0  0  0  0  0
  -24.3547  -32.4452   20.8526 C   0  0  0  0  0  0  0  0  0  0  0  0
  -29.1883  -13.3082   17.8976 C   0  0  0  0  0  0  0  0  0  0  0  0
  -24.8323  -31.1020   20.3100 C   0  0  0  0  0  0  0  0  0  0  0  0
  -27.7985  -13.0025   18.4590 C   0  0  0  0  0  0  0  0  0  0  0  0
  -30.2936  -12.7608   18.7980 C   0  0  0  0  0  0  0  0  0  0  0  0
  -28.8198  -12.8779   20.7698 C   0  0  0  0  0  0  0  0  0  0  0  0
  -23.6542  -30.1449   20.0914 C   0  0  1  0  0  0  0  0  0  0  0  0
  -23.1954  -28.0645   23.2370 C   0  0  1  0  0  0  0  0  0  0  0  0
  -27.6731  -13.4589   19.9250 C   0  0  2  0  0  0  0  0  0  0  0  0
  -28.4368  -21.3302   21.0957 C   0  0  0  0  0  0  0  0  0  0  0  0
  -25.6654  -29.5389   30.4293 C   0  0  0  0  0  0  0  0  0  0  0  0
  -26.8276  -30.8092   24.0334 C   0  0  0  0  0  0  0  0  0  0  0  0
  -27.5834  -30.9336   26.4170 C   0  0  0  0  0  0  0  0  0  0  0  0
  -25.4893  -32.0916   25.7124 C   0  0  0  0  0  0  0  0  0  0  0  0
  -32.5225  -16.2449   25.0030 C   0  0  0  0  0  0  0  0  0  0  0  0
  -31.1218  -14.1825   25.0960 C   0  0  0  0  0  0  0  0  0  0  0  0
  -23.4072  -26.6751   29.3453 C   0  0  0  0  0  0  0  0  0  0  0  0
  -26.0626  -21.2462   22.8511 C   0  0  0  0  0  0  0  0  0  1  0  0
  -30.0958  -16.3164   24.2800 C   0  0  0  0  0  0  0  0  0  0  0  0
  -31.8739  -15.1087   22.8667 C   0  0  0  0  0  0  0  0  0  0  0  0
  -25.5149  -29.5689   25.8786 C   0  0  1  0  0  0  0  0  0  0  0  0
  -24.7142  -28.7978   29.5027 C   0  0  2  0  0  0  0  0  0  0  0  0
  -26.3475  -30.8257   25.4984 C   0  0  0  0  0  0  0  0  0  0  0  0
  -31.3929  -15.4713   24.2922 C   0  0  0  0  0  0  0  0  0  0  0  0
  -28.1374  -18.4087   24.2202 N   0  0  0  0  0  0  0  0  0  0  0  0
  -26.1517  -11.9541   21.1511 N   0  0  0  0  0  0  0  0  0  0  0  0
  -26.3112  -13.1201   20.5022 N   0  0  0  0  0  0  0  0  0  0  0  0
  -24.2368  -28.2050   24.2568 N   0  0  0  0  0  0  0  0  0  0  0  0
  -30.1175  -13.2321   20.1738 N   0  0  0  0  0  0  0  0  0  0  0  0
  -25.1634  -15.0802   19.8305 N   0  0  0  0  0  0  0  0  0  0  0  0
  -21.9899  -12.7042   21.9936 N   0  0  0  0  0  0  0  0  0  0  0  0
  -30.2649  -17.5481   23.5804 N   0  0  0  0  0  0  0  0  0  0  0  0
  -23.2195  -29.5824   21.3520 N   0  0  0  0  0  0  0  0  0  0  0  0
  -25.0241  -29.5704   27.2525 N   0  0  0  0  0  0  0  0  0  0  0  0
  -30.9048  -14.3603   22.0976 N   0  0  0  0  0  0  0  0  0  0  0  0
  -24.3563  -27.4982   30.1383 N   0  3  0  0  0  0  0  0  0  0  0  0
  -22.4044  -14.6476   20.8491 O   0  0  0  0  0  0  0  0  0  0  0  0
  -24.7448  -27.8269   21.4713 O   0  0  0  0  0  0  0  0  0  0  0  0
  -23.4404  -30.2765   24.9717 O   0  0  0  0  0  0  0  0  0  0  0  0
  -26.0443  -27.5876   27.8890 O   0  0  0  0  0  0  0  0  0  0  0  0
  -32.2258  -14.1964   20.2309 O   0  0  0  0  0  0  0  0  0  0  0  0
  -22.6627   -7.7123   24.3734 O   0  0  0  0  0  0  0  0  0  0  0  0
  -26.4560  -22.5193   23.3620 O   0  0  0  0  0  0  0  0  0  1  0  0
  -17.7225   -5.8444   22.7893 F   0  0  0  0  0  0  0  0  0  0  0  0
  -22.3332   -5.0930   23.5528 F   0  0  0  0  0  0  0  0  0  0  0  0
  1  2  1  0  0  0  0
  1  5  2  0  0  0  0
  2  6  2  0  0  0  0
  3  8  2  0  0  0  0
  3 17  1  0  0  0  0
  4  9  1  0  0  0  0
  4 17  2  0  0  0  0
  5 19  1  0  0  0  0
  6 21  1  0  0  0  0
  7 10  2  0  0  0  0
  7 20  1  0  0  0  0
  8 25  1  0  0  0  0
  9 25  2  0  0  0  0
 10 26  1  0  0  0  0
 11 12  2  0  0  0  0
 11 27  1  0  0  0  0
 12 28  1  0  0  0  0
 13 22  1  0  0  0  0
 13 26  2  0  0  0  0
 14 23  1  0  0  0  0
 14 31  2  0  0  0  0
 15 28  2  0  0  0  0
 15 29  1  0  0  0  0
 16 24  1  0  0  0  0
 16 65  2  0  0  0  0
 17 30  1  0  0  0  0
 18 30  1  0  0  0  0
 18 32  2  0  0  0  0
 18 33  1  0  0  0  0
 19 21  2  0  0  0  0
 19 38  1  0  0  0  0
 20 22  2  0  0  0  0
 20 39  1  0  0  0  0
 21 47  1  0  0  0  0
 22 40  1  0  0  0  0
 23 24  2  0  0  0  0
 23 50  1  0  0  0  0
 24 58  1  0  0  0  0
 25 82  1  0  0  0  0
 26 83  1  0  0  0  0
 27 29  2  0  0  0  0
 27 82  1  0  0  0  0
 28 84  1  0  0  0  0
 29 85  1  0  0  0  0
 30 66  2  0  0  0  0
 31 65  1  0  0  0  0
 31 72  1  0  0  0  0
 32 67  1  0  0  0  0
 32 70  1  0  0  0  0
 33 71  1  0  0  0  0
 33 77  2  0  0  0  0
 34 48  1  0  0  0  0
 34 73  1  0  0  0  0
 34 78  2  0  0  0  0
 35 61  1  0  0  0  0
 35 68  1  0  0  0  0
 35 79  2  0  0  0  0
 36 62  1  0  0  0  0
 36 74  1  0  0  0  0
 36 80  2  0  0  0  0
 37 69  1  0  0  0  0
 37 75  1  0  0  0  0
 37 81  2  0  0  0  0
 38 41  1  0  0  0  0
 39 48  1  0  0  0  0
 40 68  1  0  0  0  0
 41 43  1  0  0  0  0
 42 44  1  0  0  0  0
 42 45  1  0  0  0  0
 43 47  1  0  0  0  0
 44 49  1  0  0  0  0
 45 69  1  0  0  0  0
 46 49  1  0  0  0  0
 46 69  1  0  0  0  0
 47 73  1  0  0  0  0
 48 68  1  0  0  0  0
 49 67  1  0  0  0  0
 51 62  1  0  0  0  0
 52 63  1  0  0  0  0
 53 63  1  0  0  0  0
 54 63  1  0  0  0  0
 55 64  1  0  0  0  0
 56 64  1  0  0  0  0
 57 76  1  0  0  0  0
 58 83  1  0  0  0  0
 59 64  1  0  0  0  0
 59 72  1  0  0  0  0
 60 64  1  0  0  0  0
 60 75  1  0  0  0  0
 61 63  1  0  0  0  0
 61 74  1  0  0  0  0
 62 76  1  0  0  0  0
 66 67  1  0  0  0  0
M  CHG  1  76   1
M  ISO  4  37 100  58 101  75 100  83 101
M  END
> <Batch ID>
0074

> <Smiles>
CNC(C)C(=O)NC(C(=O)N1Cc2cc([101O:1][101CH2:1]c3cnc(NCC(C)(C)C[100NH:0][100C:0](=O)N4CCCC(n5nc(-c6ccc(Oc7ccc(F)cc7F)cc6)c(C(N)=O)c5N)C4)cc3C)ccc2CC1C(=O)NC1CCCc2ccccc21)C(C)(C)C

> <Shape>
0.226

> <Color>
0.146

> <Negative vol penalty>
0.000

$$$$

  -OEChem-04052318293D

 86 94  0     1  0  0  0  0  0999 V2000
  -16.8484  -27.7418   25.7972 C   0  0  0  0  0  0  0  0  0  0  0  0
  -17.5206  -26.5256   25.8626 C   0  0  0  0  0  0  0  0  0  0  0  0
  -23.6621   -9.8487   22.2257 C   0  0  0  0  0  0  0  0  0  0  0  0
  -24.2057  -11.4095   23.9879 C   0  0  0  0  0  0  0  0  0  0  0  0
  -17.1697  -28.6618   24.8000 C   0  0  0  0  0  0  0  0  0  0  0  0
  -18.5137  -26.2281   24.9301 C   0  0  0  0  0  0  0  0  0  0  0  0
  -23.6325  -23.0099   25.9035 C   0  0  0  0  0  0  0  0  0  0  0  0
  -23.0968   -8.9857   23.1644 C   0  0  0  0  0  0  0  0  0  0  0  0
  -23.6403  -10.5465   24.9267 C   0  0  0  0  0  0  0  0  0  0  0  0
  -23.9652  -21.6790   25.6551 C   0  0  0  0  0  0  0  0  0  0  0  0
  -24.1738   -6.7315   25.4409 C   0  0  0  0  0  0  0  0  0  0  0  0
  -24.4898   -5.3762   25.3471 C   0  0  0  0  0  0  0  0  0  0  0  0
  -24.9879  -22.3302   23.5696 C   0  0  0  0  0  0  0  0  0  0  0  0
  -22.1505   -4.8514   25.0481 C   0  0  0  0  0  0  0  0  0  0  0  0
  -27.6254  -14.5969   24.1450 C   0  0  0  0  0  0  0  0  0  0  0  0
  -24.2166  -11.0607   22.6374 C   0  0  0  0  0  0  0  0  0  0  0  0
  -24.1520  -12.9802   20.9585 C   0  0  0  0  0  0  0  0  0  0  0  0
  -18.1740  -28.3795   23.8607 C   0  0  0  0  0  0  0  0  0  0  0  0
  -23.9659  -24.0112   24.9801 C   0  0  0  0  0  0  0  0  0  0  0  0
  -18.8478  -27.1446   23.9186 C   0  0  0  0  0  0  0  0  0  0  0  0
  -24.6605  -23.6734   23.8098 C   0  0  0  0  0  0  0  0  0  0  0  0
  -23.0859   -9.3346   24.5149 C   0  0  0  0  0  0  0  0  0  0  0  0
  -24.6404  -21.3385   24.4867 C   0  0  0  0  0  0  0  0  0  0  0  0
  -22.8461   -7.1468   25.3385 C   0  0  0  0  0  0  0  0  0  0  0  0
  -23.4782   -4.4361   25.1506 C   0  0  0  0  0  0  0  0  0  0  0  0
  -21.8345   -6.2068   25.1421 C   0  0  0  0  0  0  0  0  0  0  0  0
  -24.8012  -11.9523   21.6683 C   0  0  0  0  0  0  0  0  0  0  0  0
  -27.2017  -15.4312   23.1341 C   0  0  0  0  0  0  0  0  0  0  0  0
  -29.7318  -14.5879   23.2548 C   0  0  0  0  0  0  0  0  0  0  0  0
  -29.3080  -15.4215   22.2434 C   0  0  0  0  0  0  0  0  0  0  0  0
  -25.1353  -13.5279   20.1713 C   0  0  0  0  0  0  0  0  0  0  0  0
  -22.7826  -13.4022   21.0065 C   0  0  0  0  0  0  0  0  0  0  0  0
  -22.3140  -26.0751   23.2151 C   0  0  0  0  0  0  0  0  0  0  0  0
  -25.2630  -27.2081   22.4790 C   0  0  0  0  0  0  0  0  0  0  0  0
  -30.8149  -14.7252   20.4055 C   0  0  0  0  0  0  0  0  0  0  0  0
  -28.6141  -26.6149   22.2240 C   0  0  0  0  0  0  0  0  0  0  0  0
  -18.4535  -29.3855   22.7723 C   0  0  0  0  0  0  0  0  0  0  0  0
  -23.6235  -25.4458   25.2754 C   0  0  0  0  0  0  0  0  0  0  0  0
  -25.0593  -24.7135   22.7961 C   0  0  0  0  0  0  0  0  0  0  0  0
  -19.7776  -29.1495   22.0503 C   0  0  0  0  0  0  0  0  0  0  0  0
  -29.5124  -11.9989   18.4792 C   0  0  0  0  0  0  0  0  0  0  0  0
  -19.9314  -27.6764   21.6850 C   0  0  0  0  0  0  0  0  0  0  0  0
  -28.1136  -11.7872   19.0569 C   0  0  0  0  0  0  0  0  0  0  0  0
  -30.5038  -12.4231   19.5582 C   0  0  0  0  0  0  0  0  0  0  0  0
  -28.6860  -13.4252   20.9047 C   0  0  0  0  0  0  0  0  0  0  0  0
  -19.9484  -26.7957   22.9402 C   0  0  1  0  0  0  0  0  0  0  0  0
  -23.5580  -26.3144   24.0230 C   0  0  1  0  0  0  0  0  0  0  0  0
  -27.6467  -13.0255   19.8424 C   0  0  2  0  0  0  0  0  0  0  0  0
  -31.1424  -14.1119   23.3300 C   0  0  0  0  0  0  0  0  0  0  0  0
  -30.7656  -27.7221   21.5589 C   0  0  0  0  0  0  0  0  0  0  0  0
  -31.4337  -16.6722   21.7854 C   0  0  0  0  0  0  0  0  0  0  0  0
  -29.6205  -16.7923   20.0731 C   0  0  0  0  0  0  0  0  0  0  0  0
  -24.5123  -26.8947   19.5383 C   0  0  0  0  0  0  0  0  0  0  0  0
  -26.9426  -27.0900   18.9691 C   0  0  0  0  0  0  0  0  0  0  0  0
  -25.7664  -28.9903   20.0772 C   0  0  0  0  0  0  0  0  0  0  0  0
  -23.1805  -16.7097   24.5373 C   0  0  0  0  0  0  0  0  0  0  0  0
  -23.6108  -18.1224   22.5108 C   0  0  0  0  0  0  0  0  0  0  0  0
  -29.7595  -26.2779   24.9320 C   0  0  0  0  0  0  0  0  0  0  0  0
  -25.7680  -15.9010   23.0789 C   0  0  0  0  0  0  0  0  0  0  0  0
  -25.5792  -17.2124   23.8543 C   0  0  0  0  0  0  0  0  0  0  0  0
  -24.1010  -19.0410   24.7801 C   0  0  0  0  0  0  0  0  0  1  0  0
  -26.2882  -26.9077   21.4124 C   0  0  1  0  0  0  0  0  0  0  0  0
  -29.8167  -27.4068   22.7047 C   0  0  2  0  0  0  0  0  0  0  0  0
  -30.2404  -15.8863   21.1773 C   0  0  0  0  0  0  0  0  0  0  0  0
  -25.8683  -27.4506   20.0172 C   0  0  0  0  0  0  0  0  0  0  0  0
  -24.1233  -17.7567   23.9151 C   0  0  0  0  0  0  0  0  0  0  0  0
  -28.8981  -14.1603   24.2235 N   0  0  0  0  0  0  0  0  0  0  0  0
  -26.0967  -11.8509   21.3592 N   0  0  0  0  0  0  0  0  0  0  0  0
  -28.0354  -15.8584   22.1651 N   0  0  0  0  0  0  0  0  0  0  0  0
  -26.2694  -12.8220   20.4464 N   0  0  0  0  0  0  0  0  0  0  0  0
  -24.6965  -26.1014   23.1271 N   0  0  0  0  0  0  0  0  0  0  0  0
  -30.0136  -13.5885   20.2962 N   0  0  0  0  0  0  0  0  0  0  0  0
  -25.1317  -14.5395   19.2774 N   0  0  0  0  0  0  0  0  0  0  0  0
  -21.9064  -12.7309   21.8703 N   0  0  0  0  0  0  0  0  0  0  0  0
  -21.2412  -26.8626   23.5871 N   0  0  0  0  0  0  0  0  0  0  0  0
  -27.5555  -27.4381   21.9033 N   0  0  0  0  0  0  0  0  0  0  0  0
  -30.5659  -26.6357   23.7367 N   0  3  0  0  0  0  0  0  0  0  0  0
  -22.3450  -14.3359   20.2921 O   0  0  0  0  0  0  0  0  0  0  0  0
  -22.3268  -25.2388   22.3194 O   0  0  0  0  0  0  0  0  0  0  0  0
  -24.9806  -28.3818   22.7330 O   0  0  0  0  0  0  0  0  0  0  0  0
  -31.9412  -14.8284   19.9125 O   0  0  0  0  0  0  0  0  0  0  0  0
  -28.6150  -25.3889   22.1378 O   0  0  0  0  0  0  0  0  0  0  0  0
  -22.5341   -8.4928   25.4311 O   0  0  0  0  0  0  0  0  0  0  0  0
  -24.9658  -20.0401   24.2414 O   0  0  0  0  0  0  0  0  0  1  0  0
  -23.7820   -3.1348   25.0590 F   0  0  0  0  0  0  0  0  0  0  0  0
  -20.5573   -6.5998   25.0417 F   0  0  0  0  0  0  0  0  0  0  0  0
  1  2  1  0  0  0  0
  1  5  2  0  0  0  0
  2  6  2  0  0  0  0
  3  8  2  0  0  0  0
  3 16  1  0  0  0  0
  4  9  1  0  0  0  0
  4 16  2  0  0  0  0
  5 18  1  0  0  0  0
  6 20  1  0  0  0  0
  7 10  2  0  0  0  0
  7 19  1  0  0  0  0
  8 22  1  0  0  0  0
  9 22  2  0  0  0  0
 10 23  1  0  0  0  0
 11 12  2  0  0  0  0
 11 24  1  0  0  0  0
 12 25  1  0  0  0  0
 13 21  1  0  0  0  0
 13 23  2  0  0  0  0
 14 25  2  0  0  0  0
 14 26  1  0  0  0  0
 15 28  1  0  0  0  0
 15 67  2  0  0  0  0
 16 27  1  0  0  0  0
 17 27  1  0  0  0  0
 17 31  2  0  0  0  0
 17 32  1  0  0  0  0
 18 20  2  0  0  0  0
 18 37  1  0  0  0  0
 19 21  2  0  0  0  0
 19 38  1  0  0  0  0
 20 46  1  0  0  0  0
 21 39  1  0  0  0  0
 22 83  1  0  0  0  0
 23 84  1  0  0  0  0
 24 26  2  0  0  0  0
 24 83  1  0  0  0  0
 25 85  1  0  0  0  0
 26 86  1  0  0  0  0
 27 68  2  0  0  0  0
 28 59  1  0  0  0  0
 28 69  2  0  0  0  0
 29 30  2  0  0  0  0
 29 49  1  0  0  0  0
 29 67  1  0  0  0  0
 30 64  1  0  0  0  0
 30 69  1  0  0  0  0
 31 70  1  0  0  0  0
 31 73  1  0  0  0  0
 32 74  1  0  0  0  0
 32 78  2  0  0  0  0
 33 47  1  0  0  0  0
 33 75  1  0  0  0  0
 33 79  2  0  0  0  0
 34 62  1  0  0  0  0
 34 71  1  0  0  0  0
 34 80  2  0  0  0  0
 35 64  1  0  0  0  0
 35 72  1  0  0  0  0
 35 81  2  0  0  0  0
 36 63  1  0  0  0  0
 36 76  1  0  0  0  0
 36 82  2  0  0  0  0
 37 40  1  0  0  0  0
 38 47  1  0  0  0  0
 39 71  1  0  0  0  0
 40 42  1  0  0  0  0
 41 43  1  0  0  0  0
 41 44  1  0  0  0  0
 42 46  1  0  0  0  0
 43 48  1  0  0  0  0
 44 72  1  0  0  0  0
 45 48  1  0  0  0  0
 45 72  1  0  0  0  0
 46 75  1  0  0  0  0
 47 71  1  0  0  0  0
 48 70  1  0  0  0  0
 50 63  1  0  0  0  0
 51 64  1  0  0  0  0
 52 64  1  0  0  0  0
 53 65  1  0  0  0  0
 54 65  1  0  0  0  0
 55 65  1  0  0  0  0
 56 66  1  0  0  0  0
 57 66  1  0  0  0  0
 58 77  1  0  0  0  0
 59 60  1  0  0  0  0
 60 66  1  0  0  0  0
 61 66  1  0  0  0  0
 61 84  1  0  0  0  0
 62 65  1  0  0  0  0
 62 76  1  0  0  0  0
 63 77  1  0  0  0  0
 68 70  1  0  0  0  0
M  CHG  1  77   1
M  ISO  4  35 100  61 101  64 100  84 101
M  END
> <Batch ID>
0074

> <Smiles>
CNC(C)C(=O)NC(C(=O)N1Cc2cc([101O:1][101CH2:1]C(C)(C)CCc3cnc(C)c([100C:0](C)(C)[100C:0](=O)N4CCCC(n5nc(-c6ccc(Oc7ccc(F)cc7F)cc6)c(C(N)=O)c5N)C4)n3)ccc2CC1C(=O)NC1CCCc2ccccc21)C(C)(C)C

> <Shape>
0.216

> <Color>
0.124

> <Negative vol penalty>
0.000

$$$$

  -OEChem-04052318293D

 86 94  0     1  0  0  0  0  0999 V2000
  -16.7682  -28.5426   23.7794 C   0  0  0  0  0  0  0  0  0  0  0  0
  -17.4079  -27.8903   22.7302 C   0  0  0  0  0  0  0  0  0  0  0  0
  -28.0123  -12.9205   21.3454 C   0  0  0  0  0  0  0  0  0  0  0  0
  -26.1645  -13.9681   20.1942 C   0  0  0  0  0  0  0  0  0  0  0  0
  -17.3134  -29.7121   24.3076 C   0  0  0  0  0  0  0  0  0  0  0  0
  -18.5928  -28.4078   22.2079 C   0  0  0  0  0  0  0  0  0  0  0  0
  -22.1097  -24.8406   21.4654 C   0  0  0  0  0  0  0  0  0  0  0  0
  -27.3597  -11.6898   21.2730 C   0  0  0  0  0  0  0  0  0  0  0  0
  -25.5119  -12.7374   20.1217 C   0  0  0  0  0  0  0  0  0  0  0  0
  -21.9716  -24.0357   20.3354 C   0  0  0  0  0  0  0  0  0  0  0  0
  -23.6955  -10.7561   22.1725 C   0  0  0  0  0  0  0  0  0  0  0  0
  -22.3379  -10.7227   22.4909 C   0  0  0  0  0  0  0  0  0  0  0  0
  -23.6178  -25.3746   19.1880 C   0  0  0  0  0  0  0  0  0  0  0  0
  -21.8379   -9.9061   20.2727 C   0  0  0  0  0  0  0  0  0  0  0  0
  -24.2056  -20.0676   21.5997 C   0  0  0  0  0  0  0  0  0  0  0  0
  -27.4146  -14.0596   20.8060 C   0  0  0  0  0  0  0  0  0  0  0  0
  -28.9826  -15.8763   19.9407 C   0  0  0  0  0  0  0  0  0  0  0  0
  -18.5107  -30.2388   23.7979 C   0  0  0  0  0  0  0  0  0  0  0  0
  -22.9964  -25.9270   21.4614 C   0  0  0  0  0  0  0  0  0  0  0  0
  -19.1538  -29.5861   22.7289 C   0  0  0  0  0  0  0  0  0  0  0  0
  -23.7672  -26.1902   20.3200 C   0  0  0  0  0  0  0  0  0  0  0  0
  -26.1096  -11.5983   20.6611 C   0  0  0  0  0  0  0  0  0  0  0  0
  -22.7235  -24.3044   19.1955 C   0  0  0  0  0  0  0  0  0  0  0  0
  -24.1243  -10.3646   20.9042 C   0  0  0  0  0  0  0  0  0  0  0  0
  -21.4091  -10.2977   21.5410 C   0  0  0  0  0  0  0  0  0  0  0  0
  -23.1955   -9.9395   19.9544 C   0  0  0  0  0  0  0  0  0  0  0  0
  -28.0880  -15.3313   20.8811 C   0  0  0  0  0  0  0  0  0  0  0  0
  -25.0682  -20.7951   22.3897 C   0  0  0  0  0  0  0  0  0  0  0  0
  -24.8618  -21.2745   19.7716 C   0  0  0  0  0  0  0  0  0  0  0  0
  -25.7240  -22.0026   20.5616 C   0  0  0  0  0  0  0  0  0  0  0  0
  -29.3401  -17.0917   20.4711 C   0  0  0  0  0  0  0  0  0  0  0  0
  -29.4488  -15.3325   18.6986 C   0  0  0  0  0  0  0  0  0  0  0  0
  -22.6897  -29.0740   21.7865 C   0  0  0  0  0  0  0  0  0  0  0  0
  -26.5737  -20.7417   24.3616 C   0  0  0  0  0  0  0  0  0  0  0  0
  -25.9325  -29.0021   21.7459 C   0  0  0  0  0  0  0  0  0  0  0  0
  -28.7828  -27.3707   20.8180 C   0  0  0  0  0  0  0  0  0  0  0  0
  -19.0367  -31.5314   24.3700 C   0  0  0  0  0  0  0  0  0  0  0  0
  -23.1535  -26.7695   22.6975 C   0  0  0  0  0  0  0  0  0  0  0  0
  -24.7481  -27.3321   20.2715 C   0  0  0  0  0  0  0  0  0  0  0  0
  -20.4937  -31.8090   24.0089 C   0  0  0  0  0  0  0  0  0  0  0  0
  -29.8660  -19.3559   24.6443 C   0  0  0  0  0  0  0  0  0  0  0  0
  -20.7309  -31.5649   22.5220 C   0  0  0  0  0  0  0  0  0  0  0  0
  -29.8552  -18.1985   23.6465 C   0  0  0  0  0  0  0  0  0  0  0  0
  -28.5063  -19.5284   25.3140 C   0  0  0  0  0  0  0  0  0  0  0  0
  -27.3607  -18.5418   23.3555 C   0  0  0  0  0  0  0  0  0  0  0  0
  -20.4539  -30.1028   22.1518 C   0  0  1  0  0  0  0  0  0  0  0  0
  -23.7088  -28.1602   22.4062 C   0  0  1  0  0  0  0  0  0  0  0  0
  -28.7067  -18.3525   22.6338 C   0  0  2  0  0  0  0  0  0  0  0  0
  -29.8944  -23.0807   17.9601 C   0  0  0  0  0  0  0  0  0  0  0  0
  -24.1924  -21.3367   24.6988 C   0  0  0  0  0  0  0  0  0  0  0  0
  -31.2391  -26.8827   20.6574 C   0  0  0  0  0  0  0  0  0  0  0  0
  -20.8994  -21.8811   17.6297 C   0  0  0  0  0  0  0  0  0  0  0  0
  -25.8253  -31.0618   19.4973 C   0  0  0  0  0  0  0  0  0  0  0  0
  -28.2143  -30.5195   18.9809 C   0  0  0  0  0  0  0  0  0  0  0  0
  -27.6061  -31.4727   21.2044 C   0  0  0  0  0  0  0  0  0  0  0  0
  -28.7457  -25.7699   23.3070 C   0  0  0  0  0  0  0  0  0  0  0  0
  -24.7384  -21.5384   18.2921 C   0  0  0  0  0  0  0  0  0  0  0  0
  -26.5748  -23.0851   19.9905 C   0  0  0  0  0  0  0  0  0  0  0  0
  -28.6775  -23.6417   18.6783 C   0  0  0  0  0  0  0  0  0  0  0  0
  -23.3391  -21.2544   17.7271 C   0  0  0  0  0  0  0  0  0  0  0  0
  -27.7874  -22.5267   19.2273 C   0  0  0  0  0  0  0  0  0  0  0  0
  -25.1738  -20.5164   23.8481 C   0  0  1  0  0  0  0  0  0  0  0  0
  -26.9902  -29.0793   20.6715 C   0  0  1  0  0  0  0  0  0  0  0  0
  -30.0462  -27.0327   21.5887 C   0  0  2  0  0  0  0  0  0  0  0  0
  -22.2385  -22.1541   18.3029 C   0  0  1  0  0  0  0  0  0  1  0  0
  -27.1391  -30.5129   20.0884 C   0  0  0  0  0  0  0  0  0  0  0  0
  -24.0870  -20.2942   20.2764 N   0  0  0  0  0  0  0  0  0  0  0  0
  -27.8895  -16.1345   21.9296 N   0  0  0  0  0  0  0  0  0  0  0  0
  -25.8429  -21.7758   21.8848 N   0  0  0  0  0  0  0  0  0  0  0  0
  -28.6645  -17.1966   21.6512 N   0  0  0  0  0  0  0  0  0  0  0  0
  -24.8611  -28.1308   21.5031 N   0  0  0  0  0  0  0  0  0  0  0  0
  -27.4394  -19.6488   24.3187 N   0  0  0  0  0  0  0  0  0  0  0  0
  -30.1634  -18.0702   20.0386 N   0  0  0  0  0  0  0  0  0  0  0  0
  -28.9809  -14.0717   18.3037 N   0  0  0  0  0  0  0  0  0  0  0  0
  -21.5585  -29.2606   22.5579 N   0  0  0  0  0  0  0  0  0  0  0  0
  -28.2121  -28.5446   21.2625 N   0  0  0  0  0  0  0  0  0  0  0  0
  -29.8706  -25.7558   22.3369 N   0  3  0  0  0  0  0  0  0  0  0  0
  -30.2689  -15.9393   17.9687 O   0  0  0  0  0  0  0  0  0  0  0  0
  -22.9138  -29.5741   20.6905 O   0  0  0  0  0  0  0  0  0  0  0  0
  -26.8873  -21.8573   24.7850 O   0  0  0  0  0  0  0  0  0  0  0  0
  -26.0561  -29.6842   22.7662 O   0  0  0  0  0  0  0  0  0  0  0  0
  -28.3478  -26.6659   19.9100 O   0  0  0  0  0  0  0  0  0  0  0  0
  -25.4726  -10.3975   20.5900 O   0  0  0  0  0  0  0  0  0  0  0  0
  -22.5902  -23.5207   18.0910 O   0  0  0  0  0  0  0  0  0  1  0  0
  -20.1055  -10.2642   21.8473 F   0  0  0  0  0  0  0  0  0  0  0  0
  -23.6016   -9.5610   18.7347 F   0  0  0  0  0  0  0  0  0  0  0  0
  1  2  1  0  0  0  0
  1  5  2  0  0  0  0
  2  6  2  0  0  0  0
  3  8  2  0  0  0  0
  3 16  1  0  0  0  0
  4  9  1  0  0  0  0
  4 16  2  0  0  0  0
  5 18  1  0  0  0  0
  6 20  1  0  0  0  0
  7 10  2  0  0  0  0
  7 19  1  0  0  0  0
  8 22  1  0  0  0  0
  9 22  2  0  0  0  0
 10 23  1  0  0  0  0
 11 12  2  0  0  0  0
 11 24  1  0  0  0  0
 12 25  1  0  0  0  0
 13 21  1  0  0  0  0
 13 23  2  0  0  0  0
 14 25  2  0  0  0  0
 14 26  1  0  0  0  0
 15 28  1  0  0  0  0
 15 67  2  0  0  0  0
 16 27  1  0  0  0  0
 17 27  1  0  0  0  0
 17 31  2  0  0  0  0
 17 32  1  0  0  0  0
 18 20  2  0  0  0  0
 18 37  1  0  0  0  0
 19 21  2  0  0  0  0
 19 38  1  0  0  0  0
 20 46  1  0  0  0  0
 21 39  1  0  0  0  0
 22 83  1  0  0  0  0
 23 84  1  0  0  0  0
 24 26  2  0  0  0  0
 24 83  1  0  0  0  0
 25 85  1  0  0  0  0
 26 86  1  0  0  0  0
 27 68  2  0  0  0  0
 28 62  1  0  0  0  0
 28 69  2  0  0  0  0
 29 30  2  0  0  0  0
 29 57  1  0  0  0  0
 29 67  1  0  0  0  0
 30 58  1  0  0  0  0
 30 69  1  0  0  0  0
 31 70  1  0  0  0  0
 31 73  1  0  0  0  0
 32 74  1  0  0  0  0
 32 78  2  0  0  0  0
 33 47  1  0  0  0  0
 33 75  1  0  0  0  0
 33 79  2  0  0  0  0
 34 62  1  0  0  0  0
 34 72  1  0  0  0  0
 34 80  2  0  0  0  0
 35 63  1  0  0  0  0
 35 71  1  0  0  0  0
 35 81  2  0  0  0  0
 36 64  1  0  0  0  0
 36 76  1  0  0  0  0
 36 82  2  0  0  0  0
 37 40  1  0  0  0  0
 38 47  1  0  0  0  0
 39 71  1  0  0  0  0
 40 42  1  0  0  0  0
 41 43  1  0  0  0  0
 41 44  1  0  0  0  0
 42 46  1  0  0  0  0
 43 48  1  0  0  0  0
 44 72  1  0  0  0  0
 45 48  1  0  0  0  0
 45 72  1  0  0  0  0
 46 75  1  0  0  0  0
 47 71  1  0  0  0  0
 48 70  1  0  0  0  0
 49 59  1  0  0  0  0
 50 62  1  0  0  0  0
 51 64  1  0  0  0  0
 52 65  1  0  0  0  0
 53 66  1  0  0  0  0
 54 66  1  0  0  0  0
 55 66  1  0  0  0  0
 56 77  1  0  0  0  0
 57 60  1  0  0  0  0
 58 61  1  0  0  0  0
 59 61  1  0  0  0  0
 60 65  1  0  0  0  0
 63 66  1  0  0  0  0
 63 76  1  0  0  0  0
 64 77  1  0  0  0  0
 65 84  1  0  0  0  0
 68 70  1  0  0  0  0
M  CHG  1  77   1
M  ISO  4  34 100  62 100  65 101  84 101
M  END
> <Batch ID>
0074

> <Smiles>
CCCCc1nc([100CH:0](C)[100C:0](=O)N2CCCC(n3nc(-c4ccc(Oc5ccc(F)cc5F)cc4)c(C(N)=O)c3N)C2)cnc1CC[101CH:1](C)[101O:1]c1ccc2c(c1)CN(C(=O)C(NC(=O)C(C)NC)C(C)(C)C)C(C(=O)NC1CCCc3ccccc31)C2

> <Shape>
0.231

> <Color>
0.078

> <Negative vol penalty>
0.000

$$$$

  -OEChem-04052318293D

 84 92  0     1  0  0  0  0  0999 V2000
  -18.8520  -24.7087   22.0237 C   0  0  0  0  0  0  0  0  0  0  0  0
  -20.1247  -24.9039   21.4969 C   0  0  0  0  0  0  0  0  0  0  0  0
  -26.0979  -11.8100   20.3859 C   0  0  0  0  0  0  0  0  0  0  0  0
  -24.0638  -12.5171   21.4811 C   0  0  0  0  0  0  0  0  0  0  0  0
  -18.0629  -25.8072   22.3623 C   0  0  0  0  0  0  0  0  0  0  0  0
  -20.6087  -26.1979   21.3074 C   0  0  0  0  0  0  0  0  0  0  0  0
  -25.3892  -26.7352   22.8895 C   0  0  0  0  0  0  0  0  0  0  0  0
  -30.5437  -22.4392   19.3033 C   0  0  0  0  0  0  0  0  0  0  0  0
  -26.0967  -10.6372   21.1410 C   0  0  0  0  0  0  0  0  0  0  0  0
  -24.0626  -11.3443   22.2362 C   0  0  0  0  0  0  0  0  0  0  0  0
  -26.3943  -26.2450   22.0569 C   0  0  0  0  0  0  0  0  0  0  0  0
  -23.2260   -8.1000   21.7939 C   0  0  0  0  0  0  0  0  0  0  0  0
  -22.0184   -7.4137   21.9204 C   0  0  0  0  0  0  0  0  0  0  0  0
  -30.0821  -21.1520   19.0512 C   0  0  0  0  0  0  0  0  0  0  0  0
  -26.8024  -28.4793   21.2442 C   0  0  0  0  0  0  0  0  0  0  0  0
  -22.1163   -7.6835   24.3193 C   0  0  0  0  0  0  0  0  0  0  0  0
  -25.0814  -12.7500   20.5560 C   0  0  0  0  0  0  0  0  0  0  0  0
  -24.4777  -14.1663   18.5220 C   0  0  0  0  0  0  0  0  0  0  0  0
  -18.5412  -27.1151   22.1858 C   0  0  0  0  0  0  0  0  0  0  0  0
  -25.0752  -28.1018   22.8977 C   0  0  0  0  0  0  0  0  0  0  0  0
  -19.8248  -27.3149   21.6426 C   0  0  0  0  0  0  0  0  0  0  0  0
  -25.7946  -28.9847   22.0797 C   0  0  0  0  0  0  0  0  0  0  0  0
  -30.6009  -22.9076   20.6113 C   0  0  0  0  0  0  0  0  0  0  0  0
  -25.0791  -10.4043   22.0661 C   0  0  0  0  0  0  0  0  0  0  0  0
  -27.0992  -27.1167   21.2320 C   0  0  0  0  0  0  0  0  0  0  0  0
  -23.8789   -8.5780   22.9302 C   0  0  0  0  0  0  0  0  0  0  0  0
  -21.4634   -7.2055   23.1831 C   0  0  0  0  0  0  0  0  0  0  0  0
  -23.3240   -8.3698   24.1928 C   0  0  0  0  0  0  0  0  0  0  0  0
  -25.0824  -13.9620   19.7767 C   0  0  0  0  0  0  0  0  0  0  0  0
  -29.6927  -20.3792   20.1334 C   0  0  0  0  0  0  0  0  0  0  0  0
  -30.1883  -22.0562   21.6236 C   0  0  0  0  0  0  0  0  0  0  0  0
  -24.7639  -15.4733   18.2117 C   0  0  0  0  0  0  0  0  0  0  0  0
  -23.7244  -13.2561   17.7097 C   0  0  0  0  0  0  0  0  0  0  0  0
  -29.1986  -19.0124   19.9262 C   0  0  0  0  0  0  0  0  0  0  0  0
  -22.4891  -29.8135   22.2007 C   0  0  0  0  0  0  0  0  0  0  0  0
  -24.2833  -32.2658   23.3362 C   0  0  0  0  0  0  0  0  0  0  0  0
  -27.3878  -33.5304   23.9760 C   0  0  0  0  0  0  0  0  0  0  0  0
  -17.6335  -28.2716   22.5223 C   0  0  0  0  0  0  0  0  0  0  0  0
  -24.0064  -28.6187   23.8212 C   0  0  0  0  0  0  0  0  0  0  0  0
  -25.5099  -30.4636   22.0662 C   0  0  0  0  0  0  0  0  0  0  0  0
  -18.3653  -29.6061   22.6402 C   0  0  0  0  0  0  0  0  0  0  0  0
  -25.6518  -19.7054   20.2525 C   0  0  0  0  0  0  0  0  0  0  0  0
  -19.3201  -29.7968   21.4660 C   0  0  0  0  0  0  0  0  0  0  0  0
  -25.0515  -18.3113   20.0665 C   0  0  0  0  0  0  0  0  0  0  0  0
  -26.9781  -19.6437   21.0040 C   0  0  0  0  0  0  0  0  0  0  0  0
  -27.3925  -17.3454   20.1921 C   0  0  0  0  0  0  0  0  0  0  0  0
  -20.3946  -28.7029   21.4454 C   0  0  1  0  0  0  0  0  0  0  0  0
  -23.4216  -29.9537   23.3705 C   0  0  1  0  0  0  0  0  0  0  0  0
  -26.0642  -17.3511   19.4158 C   0  0  1  0  0  0  0  0  0  0  0  0
  -30.0440  -21.3491   24.0248 C   0  0  0  0  0  0  0  0  0  0  0  0
  -33.5179  -23.5164   21.2300 C   0  0  0  0  0  0  0  0  0  0  0  0
  -28.5362  -35.5744   24.8709 C   0  0  0  0  0  0  0  0  0  0  0  0
  -30.1273  -25.4330   18.7457 C   0  0  0  0  0  0  0  0  0  0  0  0
  -23.7193  -33.7262   20.7172 C   0  0  0  0  0  0  0  0  0  0  0  0
  -25.6090  -35.2776   21.2563 C   0  0  0  0  0  0  0  0  0  0  0  0
  -23.6202  -35.1682   22.7581 C   0  0  0  0  0  0  0  0  0  0  0  0
  -28.6316  -32.0057   26.1867 C   0  0  0  0  0  0  0  0  0  0  0  0
  -30.2273  -22.5061   23.0471 C   0  0  0  0  0  0  0  0  0  0  0  0
  -32.5989  -24.5124   20.5299 C   0  0  0  0  0  0  0  0  0  0  0  0
  -28.7908  -25.4862   20.8633 C   0  0  0  0  0  0  0  0  0  1  0  0
  -31.1048  -24.3177   20.8937 C   0  0  1  0  0  0  0  0  0  0  0  0
  -25.2607  -33.2447   22.7318 C   0  0  1  0  0  0  0  0  0  0  0  0
  -27.9667  -34.2048   25.2067 C   0  0  2  0  0  0  0  0  0  0  0  0
  -30.2124  -25.4452   20.2749 C   0  0  1  0  0  0  0  0  0  0  0  0
  -24.5566  -34.3261   21.8644 C   0  0  0  0  0  0  0  0  0  0  0  0
  -25.7059  -15.0518   20.2323 N   0  0  0  0  0  0  0  0  0  0  0  0
  -29.7341  -20.7997   21.4175 N   0  0  0  0  0  0  0  0  0  0  0  0
  -25.4946  -15.9535   19.2585 N   0  0  0  0  0  0  0  0  0  0  0  0
  -27.9022  -18.7090   20.3493 N   0  0  0  0  0  0  0  0  0  0  0  0
  -24.4514  -30.9196   22.9822 N   0  0  0  0  0  0  0  0  0  0  0  0
  -24.4595  -16.2471   17.1482 N   0  0  0  0  0  0  0  0  0  0  0  0
  -23.5241  -11.9507   18.1788 N   0  0  0  0  0  0  0  0  0  0  0  0
  -21.4142  -28.9772   22.4350 N   0  0  0  0  0  0  0  0  0  0  0  0
  -26.0389  -33.7829   23.8423 N   0  0  0  0  0  0  0  0  0  0  0  0
  -29.0571  -33.3723   25.7889 N   0  3  0  0  0  0  0  0  0  0  0  0
  -23.2572  -13.5857   16.5931 O   0  0  0  0  0  0  0  0  0  0  0  0
  -29.9754  -18.2321   19.3775 O   0  0  0  0  0  0  0  0  0  0  0  0
  -22.7263  -30.4203   21.1628 O   0  0  0  0  0  0  0  0  0  0  0  0
  -23.4074  -32.6793   24.1001 O   0  0  0  0  0  0  0  0  0  0  0  0
  -28.0653  -32.8509   23.2080 O   0  0  0  0  0  0  0  0  0  0  0  0
  -25.0775   -9.2599   22.8029 O   0  0  0  0  0  0  0  0  0  0  0  0
  -28.0803  -26.6408   20.4178 O   0  0  0  0  0  0  0  0  0  1  0  0
  -20.3029   -6.5477   23.3043 F   0  0  0  0  0  0  0  0  0  0  0  0
  -23.9460   -8.8277   25.2880 F   0  0  0  0  0  0  0  0  0  0  0  0
  1  2  1  0  0  0  0
  1  5  2  0  0  0  0
  2  6  2  0  0  0  0
  3  9  2  0  0  0  0
  3 17  1  0  0  0  0
  4 10  1  0  0  0  0
  4 17  2  0  0  0  0
  5 19  1  0  0  0  0
  6 21  1  0  0  0  0
  7 11  2  0  0  0  0
  7 20  1  0  0  0  0
  8 14  2  0  0  0  0
  8 23  1  0  0  0  0
  9 24  1  0  0  0  0
 10 24  2  0  0  0  0
 11 25  1  0  0  0  0
 12 13  2  0  0  0  0
 12 26  1  0  0  0  0
 13 27  1  0  0  0  0
 14 30  1  0  0  0  0
 15 22  1  0  0  0  0
 15 25  2  0  0  0  0
 16 27  2  0  0  0  0
 16 28  1  0  0  0  0
 17 29  1  0  0  0  0
 18 29  1  0  0  0  0
 18 32  2  0  0  0  0
 18 33  1  0  0  0  0
 19 21  2  0  0  0  0
 19 38  1  0  0  0  0
 20 22  2  0  0  0  0
 20 39  1  0  0  0  0
 21 47  1  0  0  0  0
 22 40  1  0  0  0  0
 23 31  2  0  0  0  0
 23 61  1  0  0  0  0
 24 81  1  0  0  0  0
 25 82  1  0  0  0  0
 26 28  2  0  0  0  0
 26 81  1  0  0  0  0
 27 83  1  0  0  0  0
 28 84  1  0  0  0  0
 29 66  2  0  0  0  0
 30 34  1  0  0  0  0
 30 67  2  0  0  0  0
 31 58  1  0  0  0  0
 31 67  1  0  0  0  0
 32 68  1  0  0  0  0
 32 71  1  0  0  0  0
 33 72  1  0  0  0  0
 33 76  2  0  0  0  0
 34 69  1  0  0  0  0
 34 77  2  0  0  0  0
 35 48  1  0  0  0  0
 35 73  1  0  0  0  0
 35 78  2  0  0  0  0
 36 62  1  0  0  0  0
 36 70  1  0  0  0  0
 36 79  2  0  0  0  0
 37 63  1  0  0  0  0
 37 74  1  0  0  0  0
 37 80  2  0  0  0  0
 38 41  1  0  0  0  0
 39 48  1  0  0  0  0
 40 70  1  0  0  0  0
 41 43  1  0  0  0  0
 42 44  1  0  0  0  0
 42 45  1  0  0  0  0
 43 47  1  0  0  0  0
 44 49  1  0  0  0  0
 45 69  1  0  0  0  0
 46 49  1  0  0  0  0
 46 69  1  0  0  0  0
 47 73  1  0  0  0  0
 48 70  1  0  0  0  0
 49 68  1  0  0  0  0
 50 58  1  0  0  0  0
 51 59  1  0  0  0  0
 52 63  1  0  0  0  0
 53 64  1  0  0  0  0
 54 65  1  0  0  0  0
 55 65  1  0  0  0  0
 56 65  1  0  0  0  0
 57 75  1  0  0  0  0
 59 61  1  0  0  0  0
 60 64  1  0  0  0  0
 60 82  1  0  0  0  0
 61 64  1  0  0  0  0
 62 65  1  0  0  0  0
 62 74  1  0  0  0  0
 63 75  1  0  0  0  0
 66 68  1  0  0  0  0
M  CHG  1  75   1
M  ISO  4  30 100  34 100  60 101  82 101
M  END
> <Batch ID>
0074

> <Smiles>
CCc1n[100c:0]([100C:0](=O)N2CCCC(n3nc(-c4ccc(Oc5ccc(F)cc5F)cc4)c(C(N)=O)c3N)C2)ccc1C(CC)C(C)[101CH2:1][101O:1]c1ccc2c(c1)CN(C(=O)C(NC(=O)C(C)NC)C(C)(C)C)C(C(=O)NC1CCCc3ccccc31)C2

> <Shape>
0.296

> <Color>
0.096

> <Negative vol penalty>
0.000

$$$$

  -OEChem-04052318293D

 86 94  0     1  0  0  0  0  0999 V2000
  -21.1084  -20.2592   14.3421 C   0  0  0  0  0  0  0  0  0  0  0  0
  -22.4472  -20.1575   14.7062 C   0  0  0  0  0  0  0  0  0  0  0  0
  -26.4682  -29.0931   21.2379 C   0  0  0  0  0  0  0  0  0  0  0  0
  -25.9084  -26.8736   22.0108 C   0  0  0  0  0  0  0  0  0  0  0  0
  -20.1104  -19.9667   15.2708 C   0  0  0  0  0  0  0  0  0  0  0  0
  -22.7889  -19.7644   15.9997 C   0  0  0  0  0  0  0  0  0  0  0  0
  -27.6203  -16.3905   17.6670 C   0  0  0  0  0  0  0  0  0  0  0  0
  -25.3904  -29.6143   21.9536 C   0  0  0  0  0  0  0  0  0  0  0  0
  -24.8305  -27.3948   22.7266 C   0  0  0  0  0  0  0  0  0  0  0  0
  -28.8703  -16.7320   18.1812 C   0  0  0  0  0  0  0  0  0  0  0  0
  -21.6845  -28.4486   22.0765 C   0  0  0  0  0  0  0  0  0  0  0  0
  -20.4648  -27.7773   21.9915 C   0  0  0  0  0  0  0  0  0  0  0  0
  -28.0525  -16.3364   20.4159 C   0  0  0  0  0  0  0  0  0  0  0  0
  -20.4946  -27.4205   24.3808 C   0  0  0  0  0  0  0  0  0  0  0  0
  -26.7272  -27.7228   21.2665 C   0  0  0  0  0  0  0  0  0  0  0  0
  -29.1603  -27.0098   20.9840 C   0  0  0  0  0  0  0  0  0  0  0  0
  -20.4401  -19.5605   16.5734 C   0  0  0  0  0  0  0  0  0  0  0  0
  -26.5720  -16.0292   18.5255 C   0  0  0  0  0  0  0  0  0  0  0  0
  -21.7943  -19.4676   16.9471 C   0  0  0  0  0  0  0  0  0  0  0  0
  -26.7908  -15.9882   19.9099 C   0  0  0  0  0  0  0  0  0  0  0  0
  -24.5715  -28.7651   22.6979 C   0  0  0  0  0  0  0  0  0  0  0  0
  -29.0858  -16.7078   19.5560 C   0  0  0  0  0  0  0  0  0  0  0  0
  -22.3093  -28.6059   23.3137 C   0  0  0  0  0  0  0  0  0  0  0  0
  -19.8698  -27.2633   23.1436 C   0  0  0  0  0  0  0  0  0  0  0  0
  -21.7143  -28.0919   24.4659 C   0  0  0  0  0  0  0  0  0  0  0  0
  -27.8402  -27.1838   20.5269 C   0  0  0  0  0  0  0  0  0  0  0  0
  -27.3031  -21.4308   20.4275 C   0  0  0  0  0  0  0  0  0  0  0  0
  -28.5054  -21.3162   21.0789 C   0  0  0  0  0  0  0  0  0  0  0  0
  -29.8262  -26.4676   19.9121 C   0  0  0  0  0  0  0  0  0  0  0  0
  -29.7333  -27.3113   22.2633 C   0  0  0  0  0  0  0  0  0  0  0  0
  -23.6948  -17.2140   19.1748 C   0  0  0  0  0  0  0  0  0  0  0  0
  -23.4191  -14.5223   20.9640 C   0  0  0  0  0  0  0  0  0  0  0  0
  -24.9693  -12.0170   22.6865 C   0  0  0  0  0  0  0  0  0  0  0  0
  -27.5034  -23.4138   15.1353 C   0  0  0  0  0  0  0  0  0  0  0  0
  -19.3262  -19.3007   17.5566 C   0  0  0  0  0  0  0  0  0  0  0  0
  -25.2372  -15.6376   17.9533 C   0  0  0  0  0  0  0  0  0  0  0  0
  -25.7042  -15.5877   20.8729 C   0  0  0  0  0  0  0  0  0  0  0  0
  -19.7746  -18.5293   18.7952 C   0  0  0  0  0  0  0  0  0  0  0  0
  -29.7768  -26.3350   15.1356 C   0  0  0  0  0  0  0  0  0  0  0  0
  -21.0650  -19.1204   19.3541 C   0  0  0  0  0  0  0  0  0  0  0  0
  -29.5876  -26.9042   16.5407 C   0  0  0  0  0  0  0  0  0  0  0  0
  -28.5297  -25.6047   14.6468 C   0  0  0  0  0  0  0  0  0  0  0  0
  -27.8649  -25.1089   16.9763 C   0  0  0  0  0  0  0  0  0  0  0  0
  -22.2050  -19.0205   18.3333 C   0  0  1  0  0  0  0  0  0  0  0  0
  -24.0932  -15.7824   18.9522 C   0  0  1  0  0  0  0  0  0  0  0  0
  -29.1196  -25.8110   17.5170 C   0  0  2  0  0  0  0  0  0  0  0  0
  -30.3783  -22.8146   20.3484 C   0  0  0  0  0  0  0  0  0  0  0  0
  -24.4791   -9.9852   24.0753 C   0  0  0  0  0  0  0  0  0  0  0  0
  -32.0788  -18.2454   18.9822 C   0  0  0  0  0  0  0  0  0  0  0  0
  -22.6785  -16.3143   23.3198 C   0  0  0  0  0  0  0  0  0  0  0  0
  -23.1321  -14.3803   24.8437 C   0  0  0  0  0  0  0  0  0  0  0  0
  -21.3222  -14.2213   23.1344 C   0  0  0  0  0  0  0  0  0  0  0  0
  -26.5018  -21.2191   15.6447 C   0  0  0  0  0  0  0  0  0  0  0  0
  -26.3659  -10.2346   20.7808 C   0  0  0  0  0  0  0  0  0  0  0  0
  -26.6228  -22.6366   19.9360 C   0  0  0  0  0  0  0  0  0  0  0  0
  -29.5066  -22.3071   21.5044 C   0  0  0  0  0  0  0  0  0  0  0  0
  -26.2635  -22.6236   18.4275 C   0  0  0  0  0  0  0  0  0  0  0  0
  -31.0150  -19.1013   21.1012 C   0  0  0  0  0  0  0  0  0  0  0  0
  -29.7550  -19.2400   21.9678 C   0  0  0  0  0  0  0  0  0  0  0  0
  -27.4739  -22.5194   17.5021 C   0  0  0  0  0  0  0  0  0  0  0  0
  -23.7379  -14.1504   22.3919 C   0  0  1  0  0  0  0  0  0  0  0  0
  -24.7652  -10.5128   22.6780 C   0  0  2  0  0  0  0  0  0  0  0  0
  -30.7861  -18.3553   19.7808 C   0  0  2  0  0  0  0  0  0  1  0  0
  -22.7378  -14.7760   23.4047 C   0  0  0  0  0  0  0  0  0  0  0  0
  -27.6754  -26.7846   19.2630 N   0  0  0  0  0  0  0  0  0  0  0  0
  -26.7484  -20.1916   20.2654 N   0  0  0  0  0  0  0  0  0  0  0  0
  -27.5756  -19.3008   20.8016 N   0  0  0  0  0  0  0  0  0  0  0  0
  -28.6283  -19.9772   21.2889 N   0  0  0  0  0  0  0  0  0  0  0  0
  -28.9006  -26.3545   18.9167 N   0  0  0  0  0  0  0  0  0  0  0  0
  -24.4148  -15.2196   20.2653 N   0  0  0  0  0  0  0  0  0  0  0  0
  -28.0816  -24.6014   15.6132 N   0  0  0  0  0  0  0  0  0  0  0  0
  -31.1073  -26.0814   19.7332 N   0  0  0  0  0  0  0  0  0  0  0  0
  -28.9077  -27.8645   23.2516 N   0  0  0  0  0  0  0  0  0  0  0  0
  -22.7330  -17.6735   18.2955 N   0  0  0  0  0  0  0  0  0  0  0  0
  -23.7950  -12.6931   22.4312 N   0  0  0  0  0  0  0  0  0  0  0  0
  -27.0963  -22.4709   16.0913 N   0  0  0  0  0  0  0  0  0  0  0  0
  -25.9820   -9.8279   22.1571 N   0  3  0  0  0  0  0  0  0  0  0  0
  -30.9454  -27.1117   22.5170 O   0  0  0  0  0  0  0  0  0  0  0  0
  -24.2200  -17.8538   20.0784 O   0  0  0  0  0  0  0  0  0  0  0  0
  -22.3296  -14.1995   20.4838 O   0  0  0  0  0  0  0  0  0  0  0  0
  -26.0604  -12.5400   22.9021 O   0  0  0  0  0  0  0  0  0  0  0  0
  -27.3680  -23.2041   13.9231 O   0  0  0  0  0  0  0  0  0  0  0  0
  -23.5198  -29.2733   23.3966 O   0  0  0  0  0  0  0  0  0  0  0  0
  -30.3048  -17.0414   20.0606 O   0  0  0  0  0  0  0  0  0  1  0  0
  -18.6978  -26.6200   23.0620 F   0  0  0  0  0  0  0  0  0  0  0  0
  -22.3092  -28.2409   25.6574 F   0  0  0  0  0  0  0  0  0  0  0  0
  1  2  1  0  0  0  0
  1  5  2  0  0  0  0
  2  6  2  0  0  0  0
  3  8  2  0  0  0  0
  3 15  1  0  0  0  0
  4  9  1  0  0  0  0
  4 15  2  0  0  0  0
  5 17  1  0  0  0  0
  6 19  1  0  0  0  0
  7 10  2  0  0  0  0
  7 18  1  0  0  0  0
  8 21  1  0  0  0  0
  9 21  2  0  0  0  0
 10 22  1  0  0  0  0
 11 12  2  0  0  0  0
 11 23  1  0  0  0  0
 12 24  1  0  0  0  0
 13 20  1  0  0  0  0
 13 22  2  0  0  0  0
 14 24  2  0  0  0  0
 14 25  1  0  0  0  0
 15 26  1  0  0  0  0
 16 26  1  0  0  0  0
 16 29  2  0  0  0  0
 16 30  1  0  0  0  0
 17 19  2  0  0  0  0
 17 35  1  0  0  0  0
 18 20  2  0  0  0  0
 18 36  1  0  0  0  0
 19 44  1  0  0  0  0
 20 37  1  0  0  0  0
 21 83  1  0  0  0  0
 22 84  1  0  0  0  0
 23 25  2  0  0  0  0
 23 83  1  0  0  0  0
 24 85  1  0  0  0  0
 25 86  1  0  0  0  0
 26 65  2  0  0  0  0
 27 28  2  0  0  0  0
 27 55  1  0  0  0  0
 27 66  1  0  0  0  0
 28 56  1  0  0  0  0
 28 68  1  0  0  0  0
 29 69  1  0  0  0  0
 29 72  1  0  0  0  0
 30 73  1  0  0  0  0
 30 78  2  0  0  0  0
 31 45  1  0  0  0  0
 31 74  1  0  0  0  0
 31 79  2  0  0  0  0
 32 61  1  0  0  0  0
 32 70  1  0  0  0  0
 32 80  2  0  0  0  0
 33 62  1  0  0  0  0
 33 75  1  0  0  0  0
 33 81  2  0  0  0  0
 34 71  1  0  0  0  0
 34 76  1  0  0  0  0
 34 82  2  0  0  0  0
 35 38  1  0  0  0  0
 36 45  1  0  0  0  0
 37 70  1  0  0  0  0
 38 40  1  0  0  0  0
 39 41  1  0  0  0  0
 39 42  1  0  0  0  0
 40 44  1  0  0  0  0
 41 46  1  0  0  0  0
 42 71  1  0  0  0  0
 43 46  1  0  0  0  0
 43 71  1  0  0  0  0
 44 74  1  0  0  0  0
 45 70  1  0  0  0  0
 46 69  1  0  0  0  0
 47 56  1  0  0  0  0
 48 62  1  0  0  0  0
 49 63  1  0  0  0  0
 50 64  1  0  0  0  0
 51 64  1  0  0  0  0
 52 64  1  0  0  0  0
 53 76  1  0  0  0  0
 54 77  1  0  0  0  0
 55 57  1  0  0  0  0
 57 60  1  0  0  0  0
 58 59  1  0  0  0  0
 58 63  1  0  0  0  0
 59 68  1  0  0  0  0
 60 76  1  0  0  0  0
 61 64  1  0  0  0  0
 61 75  1  0  0  0  0
 62 77  1  0  0  0  0
 63 84  1  0  0  0  0
 65 69  1  0  0  0  0
 66 67  2  0  0  0  0
 67 68  1  0  0  0  0
M  CHG  1  77   1
M  ISO  4  34 100  63 101  76 100  84 101
M  END
> <Batch ID>
0074

> <Smiles>
CCc1c(CCC[100N:0](C)[100C:0](=O)N2CCCC(n3nc(-c4ccc(Oc5ccc(F)cc5F)cc4)c(C(N)=O)c3N)C2)nnn1CC[101CH:1](C)[101O:1]c1ccc2c(c1)CN(C(=O)C(NC(=O)C(C)NC)C(C)(C)C)C(C(=O)NC1CCCc3ccccc31)C2

> <Shape>
0.193

> <Color>
0.060

> <Negative vol penalty>
0.000

$$$$

  -OEChem-04052318293D

 84 92  0     1  0  0  0  0  0999 V2000
  -22.4817  -22.0457   15.2948 C   0  0  0  0  0  0  0  0  0  0  0  0
  -22.4953  -20.6736   15.5184 C   0  0  0  0  0  0  0  0  0  0  0  0
  -26.2737  -28.2881   18.9119 C   0  0  0  0  0  0  0  0  0  0  0  0
  -26.1234  -27.5006   21.1910 C   0  0  0  0  0  0  0  0  0  0  0  0
  -22.7266  -22.9224   16.3496 C   0  0  0  0  0  0  0  0  0  0  0  0
  -22.7420  -20.1780   16.7992 C   0  0  0  0  0  0  0  0  0  0  0  0
  -23.3487  -14.4480   18.7805 C   0  0  0  0  0  0  0  0  0  0  0  0
  -25.3280  -29.2749   19.1905 C   0  0  0  0  0  0  0  0  0  0  0  0
  -25.1778  -28.4875   21.4696 C   0  0  0  0  0  0  0  0  0  0  0  0
  -24.3803  -13.5310   18.9775 C   0  0  0  0  0  0  0  0  0  0  0  0
  -25.1602  -31.7996   22.1404 C   0  0  0  0  0  0  0  0  0  0  0  0
  -25.3082  -32.5208   23.3251 C   0  0  0  0  0  0  0  0  0  0  0  0
  -24.4827  -14.1555   21.3053 C   0  0  0  0  0  0  0  0  0  0  0  0
  -23.1412  -31.7502   24.0650 C   0  0  0  0  0  0  0  0  0  0  0  0
  -29.0835  -15.0813   18.8839 C   0  0  0  0  0  0  0  0  0  0  0  0
  -26.6713  -27.4009   19.9121 C   0  0  0  0  0  0  0  0  0  0  0  0
  -29.0460  -26.4827   19.7523 C   0  0  0  0  0  0  0  0  0  0  0  0
  -22.9886  -22.4362   17.6410 C   0  0  0  0  0  0  0  0  0  0  0  0
  -22.8830  -15.2347   19.8438 C   0  0  0  0  0  0  0  0  0  0  0  0
  -22.9677  -21.0473   17.8818 C   0  0  0  0  0  0  0  0  0  0  0  0
  -23.4434  -15.0798   21.1198 C   0  0  0  0  0  0  0  0  0  0  0  0
  -24.7801  -29.3746   20.4693 C   0  0  0  0  0  0  0  0  0  0  0  0
  -24.9494  -13.3867   20.2394 C   0  0  0  0  0  0  0  0  0  0  0  0
  -24.0027  -31.0537   21.9179 C   0  0  0  0  0  0  0  0  0  0  0  0
  -24.2988  -32.4961   24.2874 C   0  0  0  0  0  0  0  0  0  0  0  0
  -22.9932  -31.0290   22.8803 C   0  0  0  0  0  0  0  0  0  0  0  0
  -27.6477  -26.3810   19.6248 C   0  0  0  0  0  0  0  0  0  0  0  0
  -29.8912  -15.9757   19.5277 C   0  0  0  0  0  0  0  0  0  0  0  0
  -29.5168  -25.2536   19.3596 C   0  0  0  0  0  0  0  0  0  0  0  0
  -31.1280  -14.2347   18.9447 C   0  0  0  0  0  0  0  0  0  0  0  0
  -29.8475  -27.5891   20.1870 C   0  0  0  0  0  0  0  0  0  0  0  0
  -22.7703  -18.3539   20.4449 C   0  0  0  0  0  0  0  0  0  0  0  0
  -29.2201  -19.7658   19.6314 C   0  0  0  0  0  0  0  0  0  0  0  0
  -21.0882  -17.3960   23.0478 C   0  0  0  0  0  0  0  0  0  0  0  0
  -20.3661  -14.9170   25.2794 C   0  0  0  0  0  0  0  0  0  0  0  0
  -23.2395  -23.4300   18.7477 C   0  0  0  0  0  0  0  0  0  0  0  0
  -21.7513  -16.2001   19.6209 C   0  0  0  0  0  0  0  0  0  0  0  0
  -22.9656  -15.8860   22.2989 C   0  0  0  0  0  0  0  0  0  0  0  0
  -23.9247  -22.8088   19.9605 C   0  0  0  0  0  0  0  0  0  0  0  0
  -27.1796  -21.3905   17.0970 C   0  0  0  0  0  0  0  0  0  0  0  0
  -23.1982  -21.5376   20.3736 C   0  0  0  0  0  0  0  0  0  0  0  0
  -27.2134  -22.8452   17.5636 C   0  0  0  0  0  0  0  0  0  0  0  0
  -27.1715  -20.4225   18.2772 C   0  0  0  0  0  0  0  0  0  0  0  0
  -28.3414  -22.0777   19.6971 C   0  0  0  0  0  0  0  0  0  0  0  0
  -23.2640  -20.4846   19.2601 C   0  0  1  0  0  0  0  0  0  0  0  0
  -21.7049  -17.3164   20.6597 C   0  0  1  0  0  0  0  0  0  0  0  0
  -28.3812  -23.0857   18.5363 C   0  0  2  0  0  0  0  0  0  0  0  0
  -32.2956  -13.3353   18.7694 C   0  0  0  0  0  0  0  0  0  0  0  0
  -28.6223  -17.1617   21.3210 C   0  0  0  0  0  0  0  0  0  0  0  0
  -29.8016  -18.3051   17.7676 C   0  0  0  0  0  0  0  0  0  0  0  0
  -18.9816  -14.4436   27.3181 C   0  0  0  0  0  0  0  0  0  0  0  0
  -23.0532  -18.9932   24.7501 C   0  0  0  0  0  0  0  0  0  0  0  0
  -22.2266  -17.7412   26.7545 C   0  0  0  0  0  0  0  0  0  0  0  0
  -20.6623  -19.1880   25.4573 C   0  0  0  0  0  0  0  0  0  0  0  0
  -18.8686  -12.7657   23.9052 C   0  0  0  0  0  0  0  0  0  0  0  0
  -29.1715  -11.5710   18.7061 C   0  0  0  0  0  0  0  0  0  0  0  0
  -28.1943  -11.8518   19.8488 C   0  0  0  0  0  0  0  0  0  0  0  0
  -29.3994  -12.7858   17.7994 C   0  0  0  0  0  0  0  0  0  0  0  0
  -26.8152  -12.2297   19.3251 C   0  0  0  0  0  0  0  0  0  1  0  0
  -29.6066  -17.2851   20.1202 C   0  0  2  0  0  0  0  0  0  0  0  0
  -29.0663  -18.3601   19.1079 C   0  0  1  0  0  0  0  0  0  0  0  0
  -21.4399  -16.9983   24.4610 C   0  0  1  0  0  0  0  0  0  0  0  0
  -19.0434  -14.3840   25.7998 C   0  0  2  0  0  0  0  0  0  0  0  0
  -21.8560  -18.2162   25.3333 C   0  0  0  0  0  0  0  0  0  0  0  0
  -27.2558  -25.1821   19.1852 N   0  0  0  0  0  0  0  0  0  0  0  0
  -29.8750  -14.0140   18.5339 N   0  0  0  0  0  0  0  0  0  0  0  0
  -28.4149  -24.5192   19.0331 N   0  0  0  0  0  0  0  0  0  0  0  0
  -31.1503  -15.4260   19.5512 N   0  3  0  0  0  0  0  0  0  0  0  0
  -21.8611  -16.8212   22.0289 N   0  0  0  0  0  0  0  0  0  0  0  0
  -28.2829  -20.7022   19.1943 N   0  0  0  0  0  0  0  0  0  0  0  0
  -30.7618  -24.7403   19.2650 N   0  0  0  0  0  0  0  0  0  0  0  0
  -29.2024  -28.7779   20.5544 N   0  0  0  0  0  0  0  0  0  0  0  0
  -22.3930  -19.3815   19.6015 N   0  0  0  0  0  0  0  0  0  0  0  0
  -20.2915  -16.2597   24.9750 N   0  0  0  0  0  0  0  0  0  0  0  0
  -18.8533  -12.9677   25.3769 N   0  3  0  0  0  0  0  0  0  0  0  0
  -31.0998  -27.5309   20.2321 O   0  0  0  0  0  0  0  0  0  0  0  0
  -23.8539  -18.2320   21.0041 O   0  0  0  0  0  0  0  0  0  0  0  0
  -30.1475  -20.0226   20.4034 O   0  0  0  0  0  0  0  0  0  0  0  0
  -20.1573  -18.1820   22.8547 O   0  0  0  0  0  0  0  0  0  0  0  0
  -21.3666  -14.2134   25.1588 O   0  0  0  0  0  0  0  0  0  0  0  0
  -23.8576  -30.3375   20.7416 O   0  0  0  0  0  0  0  0  0  0  0  0
  -25.9569  -12.4929   20.4343 O   0  0  0  0  0  0  0  0  0  1  0  0
  -24.4417  -33.1875   25.4257 F   0  0  0  0  0  0  0  0  0  0  0  0
  -21.8794  -30.3132   22.6727 F   0  0  0  0  0  0  0  0  0  0  0  0
  1  2  1  0  0  0  0
  1  5  2  0  0  0  0
  2  6  2  0  0  0  0
  3  8  2  0  0  0  0
  3 16  1  0  0  0  0
  4  9  1  0  0  0  0
  4 16  2  0  0  0  0
  5 18  1  0  0  0  0
  6 20  1  0  0  0  0
  7 10  2  0  0  0  0
  7 19  1  0  0  0  0
  8 22  1  0  0  0  0
  9 22  2  0  0  0  0
 10 23  1  0  0  0  0
 11 12  2  0  0  0  0
 11 24  1  0  0  0  0
 12 25  1  0  0  0  0
 13 21  1  0  0  0  0
 13 23  2  0  0  0  0
 14 25  2  0  0  0  0
 14 26  1  0  0  0  0
 15 28  2  0  0  0  0
 15 66  1  0  0  0  0
 16 27  1  0  0  0  0
 17 27  1  0  0  0  0
 17 29  2  0  0  0  0
 17 31  1  0  0  0  0
 18 20  2  0  0  0  0
 18 36  1  0  0  0  0
 19 21  2  0  0  0  0
 19 37  1  0  0  0  0
 20 45  1  0  0  0  0
 21 38  1  0  0  0  0
 22 81  1  0  0  0  0
 23 82  1  0  0  0  0
 24 26  2  0  0  0  0
 24 81  1  0  0  0  0
 25 83  1  0  0  0  0
 26 84  1  0  0  0  0
 27 65  2  0  0  0  0
 28 60  1  0  0  0  0
 28 68  1  0  0  0  0
 29 67  1  0  0  0  0
 29 71  1  0  0  0  0
 30 48  1  0  0  0  0
 30 66  1  0  0  0  0
 30 68  2  0  0  0  0
 31 72  1  0  0  0  0
 31 76  2  0  0  0  0
 32 46  1  0  0  0  0
 32 73  1  0  0  0  0
 32 77  2  0  0  0  0
 33 61  1  0  0  0  0
 33 70  1  0  0  0  0
 33 78  2  0  0  0  0
 34 62  1  0  0  0  0
 34 69  1  0  0  0  0
 34 79  2  0  0  0  0
 35 63  1  0  0  0  0
 35 74  1  0  0  0  0
 35 80  2  0  0  0  0
 36 39  1  0  0  0  0
 37 46  1  0  0  0  0
 38 69  1  0  0  0  0
 39 41  1  0  0  0  0
 40 42  1  0  0  0  0
 40 43  1  0  0  0  0
 41 45  1  0  0  0  0
 42 47  1  0  0  0  0
 43 70  1  0  0  0  0
 44 47  1  0  0  0  0
 44 70  1  0  0  0  0
 45 73  1  0  0  0  0
 46 69  1  0  0  0  0
 47 67  1  0  0  0  0
 49 60  1  0  0  0  0
 50 61  1  0  0  0  0
 51 63  1  0  0  0  0
 52 64  1  0  0  0  0
 53 64  1  0  0  0  0
 54 64  1  0  0  0  0
 55 75  1  0  0  0  0
 56 57  1  0  0  0  0
 56 58  1  0  0  0  0
 57 59  1  0  0  0  0
 58 66  1  0  0  0  0
 59 82  1  0  0  0  0
 60 61  1  0  0  0  0
 62 64  1  0  0  0  0
 62 74  1  0  0  0  0
 63 75  1  0  0  0  0
 65 67  1  0  0  0  0
M  CHG  2  68   1  75   1
M  ISO  4  33 100  59 101  61 100  82 101
M  END
> <Batch ID>
0074

> <Smiles>
CNC(C)C(=O)NC(C(=O)N1Cc2cc([101O:1][101CH2:1]CCCn3cc(C(C)[100CH:0](C)[100C:0](=O)N4CCCC(n5nc(-c6ccc(Oc7ccc(F)cc7F)cc6)c(C(N)=O)c5N)C4)nc3C)ccc2CC1C(=O)NC1CCCc2ccccc21)C(C)(C)C

> <Shape>
0.223

> <Color>
0.046

> <Negative vol penalty>
0.000

$$$$

  -OEChem-04052318293D

 83 91  0     1  0  0  0  0  0999 V2000
  -22.7280  -11.3671   20.3222 C   0  0  0  0  0  0  0  0  0  0  0  0
  -22.1324  -12.6230   20.2636 C   0  0  0  0  0  0  0  0  0  0  0  0
  -29.0505  -25.8998   20.1904 C   0  0  0  0  0  0  0  0  0  0  0  0
  -29.7118  -28.0809   19.3888 C   0  0  0  0  0  0  0  0  0  0  0  0
  -24.0535  -11.2442   20.7366 C   0  0  0  0  0  0  0  0  0  0  0  0
  -22.8617  -13.7566   20.6205 C   0  0  0  0  0  0  0  0  0  0  0  0
  -22.4279  -19.3426   18.1476 C   0  0  0  0  0  0  0  0  0  0  0  0
  -30.3906  -25.5201   20.2630 C   0  0  0  0  0  0  0  0  0  0  0  0
  -31.0520  -27.7012   19.4614 C   0  0  0  0  0  0  0  0  0  0  0  0
  -21.7536  -20.4955   18.5474 C   0  0  0  0  0  0  0  0  0  0  0  0
  -33.2262  -25.8728   17.6282 C   0  0  0  0  0  0  0  0  0  0  0  0
  -34.0497  -26.1924   16.5487 C   0  0  0  0  0  0  0  0  0  0  0  0
  -23.7737  -21.3100   19.5843 C   0  0  0  0  0  0  0  0  0  0  0  0
  -35.4558  -27.5055   18.0103 C   0  0  0  0  0  0  0  0  0  0  0  0
  -28.7110  -27.1802   19.7532 C   0  0  0  0  0  0  0  0  0  0  0  0
  -26.3145  -26.9744   18.9035 C   0  0  0  0  0  0  0  0  0  0  0  0
  -24.8025  -12.3778   21.0895 C   0  0  0  0  0  0  0  0  0  0  0  0
  -23.7795  -19.1594   18.4731 C   0  0  0  0  0  0  0  0  0  0  0  0
  -24.1981  -13.6486   21.0413 C   0  0  0  0  0  0  0  0  0  0  0  0
  -24.4635  -20.1550   19.1852 C   0  0  0  0  0  0  0  0  0  0  0  0
  -31.3914  -26.4208   19.8986 C   0  0  0  0  0  0  0  0  0  0  0  0
  -22.4257  -21.4782   19.2683 C   0  0  0  0  0  0  0  0  0  0  0  0
  -33.5174  -26.3696   18.8987 C   0  0  0  0  0  0  0  0  0  0  0  0
  -35.1646  -27.0087   16.7398 C   0  0  0  0  0  0  0  0  0  0  0  0
  -34.6322  -27.1859   19.0897 C   0  0  0  0  0  0  0  0  0  0  0  0
  -27.3267  -27.5728   19.6775 C   0  0  0  0  0  0  0  0  0  0  0  0
  -20.4077  -25.8285   22.3040 C   0  0  0  0  0  0  0  0  0  0  0  0
  -20.0506  -26.7371   21.3410 C   0  0  0  0  0  0  0  0  0  0  0  0
  -25.1891  -27.7112   19.1810 C   0  0  0  0  0  0  0  0  0  0  0  0
  -21.6209  -24.7152   20.7586 C   0  0  0  0  0  0  0  0  0  0  0  0
  -26.3852  -25.8526   18.0133 C   0  0  0  0  0  0  0  0  0  0  0  0
  -25.4053  -17.0357   20.1908 C   0  0  0  0  0  0  0  0  0  0  0  0
  -27.9726  -18.6417   19.0281 C   0  0  0  0  0  0  0  0  0  0  0  0
  -29.7241  -21.6498   18.0788 C   0  0  0  0  0  0  0  0  0  0  0  0
  -21.8308  -30.2822   22.8220 C   0  0  0  0  0  0  0  0  0  0  0  0
  -26.2175  -12.1903   21.5765 C   0  0  0  0  0  0  0  0  0  0  0  0
  -24.4995  -17.9222   18.0114 C   0  0  0  0  0  0  0  0  0  0  0  0
  -25.9200  -20.0158   19.5424 C   0  0  0  0  0  0  0  0  0  0  0  0
  -27.0366  -13.4785   21.5789 C   0  0  0  0  0  0  0  0  0  0  0  0
  -24.6510  -32.1021   21.6341 C   0  0  0  0  0  0  0  0  0  0  0  0
  -26.2371  -14.6183   22.2023 C   0  0  0  0  0  0  0  0  0  0  0  0
  -25.5173  -31.0359   20.9612 C   0  0  0  0  0  0  0  0  0  0  0  0
  -23.9529  -31.5589   22.8789 C   0  0  0  0  0  0  0  0  0  0  0  0
  -24.0359  -29.2620   21.9895 C   0  0  0  0  0  0  0  0  0  0  0  0
  -24.9642  -14.9044   21.3966 C   0  0  1  0  0  0  0  0  0  0  0  0
  -25.7398  -17.6075   18.8422 C   0  0  1  0  0  0  0  0  0  0  0  0
  -24.7162  -29.7467   20.6978 C   0  0  2  0  0  0  0  0  0  0  0  0
  -19.9224  -25.9522   23.7077 C   0  0  0  0  0  0  0  0  0  0  0  0
  -31.9920  -21.9617   17.0509 C   0  0  0  0  0  0  0  0  0  0  0  0
  -17.7302  -27.5317   22.1661 C   0  0  0  0  0  0  0  0  0  0  0  0
  -18.9041  -28.7320   20.3393 C   0  0  0  0  0  0  0  0  0  0  0  0
  -28.9146  -18.9716   21.9114 C   0  0  0  0  0  0  0  0  0  0  0  0
  -30.4799  -20.7591   21.1221 C   0  0  0  0  0  0  0  0  0  0  0  0
  -30.7275  -18.4249   20.2777 C   0  0  0  0  0  0  0  0  0  0  0  0
  -28.6150  -23.2134   15.8240 C   0  0  0  0  0  0  0  0  0  0  0  0
  -22.5199  -23.5699   20.3960 C   0  0  0  0  0  0  0  0  0  1  0  0
  -19.7850  -28.8836   22.6878 C   0  0  0  0  0  0  0  0  0  0  0  0
  -28.7839  -19.8317   19.4806 C   0  0  1  0  0  0  0  0  0  0  0  0
  -30.4953  -21.8848   16.7926 C   0  0  2  0  0  0  0  0  0  0  0  0
  -19.1626  -27.8946   21.6358 C   0  0  0  0  0  0  0  0  0  0  0  0
  -29.6985  -19.4989   20.6931 C   0  0  0  0  0  0  0  0  0  0  0  0
  -26.8836  -28.6100   20.3929 N   0  0  0  0  0  0  0  0  0  0  0  0
  -21.2086  -24.7869   22.0330 N   0  0  0  0  0  0  0  0  0  0  0  0
  -20.4958  -26.6133   20.0775 N   0  0  0  0  0  0  0  0  0  0  0  0
  -21.3031  -25.5763   19.7719 N   0  0  0  0  0  0  0  0  0  0  0  0
  -25.5805  -28.6691   20.0695 N   0  0  0  0  0  0  0  0  0  0  0  0
  -26.5786  -18.7852   19.0739 N   0  0  0  0  0  0  0  0  0  0  0  0
  -23.2098  -30.3372   22.5607 N   0  0  0  0  0  0  0  0  0  0  0  0
  -23.9129  -27.6268   18.7492 N   0  0  0  0  0  0  0  0  0  0  0  0
  -26.1520  -24.5719   18.5325 N   0  0  0  0  0  0  0  0  0  0  0  0
  -25.2804  -15.6596   20.2032 N   0  0  0  0  0  0  0  0  0  0  0  0
  -29.5021  -20.3076   18.3032 N   0  0  0  0  0  0  0  0  0  0  0  0
  -21.2017  -29.0901   22.4847 N   0  0  0  0  0  0  0  0  0  0  0  0
  -30.0623  -23.1602   16.1546 N   0  3  0  0  0  0  0  0  0  0  0  0
  -26.6635  -25.9806   16.7969 O   0  0  0  0  0  0  0  0  0  0  0  0
  -25.2718  -17.7872   21.1495 O   0  0  0  0  0  0  0  0  0  0  0  0
  -28.5542  -17.6250   18.6413 O   0  0  0  0  0  0  0  0  0  0  0  0
  -29.3586  -22.5651   18.8130 O   0  0  0  0  0  0  0  0  0  0  0  0
  -21.2054  -31.2275   23.3142 O   0  0  0  0  0  0  0  0  0  0  0  0
  -32.6993  -26.0507   19.9695 O   0  0  0  0  0  0  0  0  0  0  0  0
  -21.7698  -22.6042   19.6603 O   0  0  0  0  0  0  0  0  0  1  0  0
  -35.9562  -27.3143   15.7034 F   0  0  0  0  0  0  0  0  0  0  0  0
  -34.9178  -27.6651   20.3082 F   0  0  0  0  0  0  0  0  0  0  0  0
  1  2  1  0  0  0  0
  1  5  2  0  0  0  0
  2  6  2  0  0  0  0
  3  8  2  0  0  0  0
  3 15  1  0  0  0  0
  4  9  1  0  0  0  0
  4 15  2  0  0  0  0
  5 17  1  0  0  0  0
  6 19  1  0  0  0  0
  7 10  2  0  0  0  0
  7 18  1  0  0  0  0
  8 21  1  0  0  0  0
  9 21  2  0  0  0  0
 10 22  1  0  0  0  0
 11 12  2  0  0  0  0
 11 23  1  0  0  0  0
 12 24  1  0  0  0  0
 13 20  1  0  0  0  0
 13 22  2  0  0  0  0
 14 24  2  0  0  0  0
 14 25  1  0  0  0  0
 15 26  1  0  0  0  0
 16 26  1  0  0  0  0
 16 29  2  0  0  0  0
 16 31  1  0  0  0  0
 17 19  2  0  0  0  0
 17 36  1  0  0  0  0
 18 20  2  0  0  0  0
 18 37  1  0  0  0  0
 19 45  1  0  0  0  0
 20 38  1  0  0  0  0
 21 80  1  0  0  0  0
 22 81  1  0  0  0  0
 23 25  2  0  0  0  0
 23 80  1  0  0  0  0
 24 82  1  0  0  0  0
 25 83  1  0  0  0  0
 26 62  2  0  0  0  0
 27 28  2  0  0  0  0
 27 48  1  0  0  0  0
 27 63  1  0  0  0  0
 28 60  1  0  0  0  0
 28 64  1  0  0  0  0
 29 66  1  0  0  0  0
 29 69  1  0  0  0  0
 30 56  1  0  0  0  0
 30 63  2  0  0  0  0
 30 65  1  0  0  0  0
 31 70  1  0  0  0  0
 31 75  2  0  0  0  0
 32 46  1  0  0  0  0
 32 71  1  0  0  0  0
 32 76  2  0  0  0  0
 33 58  1  0  0  0  0
 33 67  1  0  0  0  0
 33 77  2  0  0  0  0
 34 59  1  0  0  0  0
 34 72  1  0  0  0  0
 34 78  2  0  0  0  0
 35 68  1  0  0  0  0
 35 73  1  0  0  0  0
 35 79  2  0  0  0  0
 36 39  1  0  0  0  0
 37 46  1  0  0  0  0
 38 67  1  0  0  0  0
 39 41  1  0  0  0  0
 40 42  1  0  0  0  0
 40 43  1  0  0  0  0
 41 45  1  0  0  0  0
 42 47  1  0  0  0  0
 43 68  1  0  0  0  0
 44 47  1  0  0  0  0
 44 68  1  0  0  0  0
 45 71  1  0  0  0  0
 46 67  1  0  0  0  0
 47 66  1  0  0  0  0
 49 59  1  0  0  0  0
 50 60  1  0  0  0  0
 51 60  1  0  0  0  0
 52 61  1  0  0  0  0
 53 61  1  0  0  0  0
 54 61  1  0  0  0  0
 55 74  1  0  0  0  0
 56 81  1  0  0  0  0
 57 60  1  0  0  0  0
 57 73  1  0  0  0  0
 58 61  1  0  0  0  0
 58 72  1  0  0  0  0
 59 74  1  0  0  0  0
 62 66  1  0  0  0  0
 64 65  2  0  0  0  0
M  CHG  1  74   1
M  ISO  4  35 100  56 101  73 100  81 101
M  END
> <Batch ID>
0074

> <Smiles>
CNC(C)C(=O)NC(C(=O)N1Cc2cc([101O:1][101CH2:1]c3nnc(C(C)(C)C[100NH:0][100C:0](=O)N4CCCC(n5nc(-c6ccc(Oc7ccc(F)cc7F)cc6)c(C(N)=O)c5N)C4)c(C)n3)ccc2CC1C(=O)NC1CCCc2ccccc21)C(C)(C)C

> <Shape>
0.255

> <Color>
0.067

> <Negative vol penalty>
0.000

$$$$

  -OEChem-04052318293D

 84 92  0     1  0  0  0  0  0999 V2000
  -17.2699  -31.7759   20.8715 C   0  0  0  0  0  0  0  0  0  0  0  0
  -18.6357  -31.6269   20.6525 C   0  0  0  0  0  0  0  0  0  0  0  0
  -25.9888  -15.0824   22.7417 C   0  0  0  0  0  0  0  0  0  0  0  0
  -25.2287  -15.1900   20.4509 C   0  0  0  0  0  0  0  0  0  0  0  0
  -16.6307  -30.9975   21.8355 C   0  0  0  0  0  0  0  0  0  0  0  0
  -19.3632  -30.7001   21.3982 C   0  0  0  0  0  0  0  0  0  0  0  0
  -24.1231  -27.3563   19.4827 C   0  0  0  0  0  0  0  0  0  0  0  0
  -24.9571  -14.1931   23.0423 C   0  0  0  0  0  0  0  0  0  0  0  0
  -24.1970  -14.3006   20.7514 C   0  0  0  0  0  0  0  0  0  0  0  0
  -25.5006  -27.5181   19.6245 C   0  0  0  0  0  0  0  0  0  0  0  0
  -21.5799  -11.7782   20.8301 C   0  0  0  0  0  0  0  0  0  0  0  0
  -21.3437  -10.7324   19.9378 C   0  0  0  0  0  0  0  0  0  0  0  0
  -25.4703  -26.0478   21.5367 C   0  0  0  0  0  0  0  0  0  0  0  0
  -23.5917   -9.9215   20.2932 C   0  0  0  0  0  0  0  0  0  0  0  0
  -30.8952  -23.8229   20.9911 C   0  0  0  0  0  0  0  0  0  0  0  0
  -26.1245  -15.5810   21.4460 C   0  0  0  0  0  0  0  0  0  0  0  0
  -28.4860  -16.1798   20.6896 C   0  0  0  0  0  0  0  0  0  0  0  0
  -17.3489  -30.0538   22.5867 C   0  0  0  0  0  0  0  0  0  0  0  0
  -23.4059  -26.5464   20.3750 C   0  0  0  0  0  0  0  0  0  0  0  0
  -18.7332  -29.9092   22.3741 C   0  0  0  0  0  0  0  0  0  0  0  0
  -24.0842  -25.8754   21.4026 C   0  0  0  0  0  0  0  0  0  0  0  0
  -24.0613  -13.8021   22.0472 C   0  0  0  0  0  0  0  0  0  0  0  0
  -26.1740  -26.8661   20.6533 C   0  0  0  0  0  0  0  0  0  0  0  0
  -22.8220  -11.8957   21.4538 C   0  0  0  0  0  0  0  0  0  0  0  0
  -22.3496   -9.8040   19.6694 C   0  0  0  0  0  0  0  0  0  0  0  0
  -23.8279  -10.9673   21.1854 C   0  0  0  0  0  0  0  0  0  0  0  0
  -27.1896  -16.5002   21.1350 C   0  0  0  0  0  0  0  0  0  0  0  0
  -31.3454  -24.0980   19.7186 C   0  0  0  0  0  0  0  0  0  0  0  0
  -30.6607  -26.2682   19.9457 C   0  0  0  0  0  0  0  0  0  0  0  0
  -30.2099  -25.9928   21.2178 C   0  0  0  0  0  0  0  0  0  0  0  0
  -29.1077  -17.3954   20.5395 C   0  0  0  0  0  0  0  0  0  0  0  0
  -29.0756  -14.8981   20.4343 C   0  0  0  0  0  0  0  0  0  0  0  0
  -21.0587  -27.0391   22.4610 C   0  0  0  0  0  0  0  0  0  0  0  0
  -21.1589  -23.8093   22.7450 C   0  0  0  0  0  0  0  0  0  0  0  0
  -22.9586  -20.9273   22.4259 C   0  0  0  0  0  0  0  0  0  0  0  0
  -28.6471  -22.6658   18.4593 C   0  0  0  0  0  0  0  0  0  0  0  0
  -16.6234  -29.2687   23.6506 C   0  0  0  0  0  0  0  0  0  0  0  0
  -21.9245  -26.3610   20.1924 C   0  0  0  0  0  0  0  0  0  0  0  0
  -23.3637  -24.9785   22.3746 C   0  0  0  0  0  0  0  0  0  0  0  0
  -17.3951  -28.0447   24.1370 C   0  0  0  0  0  0  0  0  0  0  0  0
  -27.7115  -22.0279   21.9834 C   0  0  0  0  0  0  0  0  0  0  0  0
  -18.8498  -28.4077   24.4180 C   0  0  0  0  0  0  0  0  0  0  0  0
  -27.5319  -20.5110   22.0110 C   0  0  0  0  0  0  0  0  0  0  0  0
  -27.4236  -22.6081   20.6020 C   0  0  0  0  0  0  0  0  0  0  0  0
  -28.0328  -20.4620   19.5357 C   0  0  0  0  0  0  0  0  0  0  0  0
  -19.5520  -28.8970   23.1456 C   0  0  1  0  0  0  0  0  0  0  0  0
  -21.2154  -25.9210   21.4695 C   0  0  1  0  0  0  0  0  0  0  0  0
  -28.3604  -19.8402   20.9016 C   0  0  2  0  0  0  0  0  0  0  0  0
  -30.5345  -27.6306   19.3544 C   0  0  0  0  0  0  0  0  0  0  0  0
  -33.2811  -22.5043   19.5274 C   0  0  0  0  0  0  0  0  0  0  0  0
  -22.7842  -18.4476   22.7697 C   0  0  0  0  0  0  0  0  0  0  0  0
  -21.4540  -24.2084   25.7555 C   0  0  0  0  0  0  0  0  0  0  0  0
  -22.2167  -21.8298   25.9257 C   0  0  0  0  0  0  0  0  0  0  0  0
  -19.9216  -22.3454   25.0954 C   0  0  0  0  0  0  0  0  0  0  0  0
  -30.0467  -22.4906   16.4369 C   0  0  0  0  0  0  0  0  0  0  0  0
  -23.4322  -20.3792   19.5564 C   0  0  0  0  0  0  0  0  0  0  0  0
  -29.5669  -27.0577   22.0728 C   0  0  0  0  0  0  0  0  0  0  0  0
  -31.0336  -21.8369   18.6012 C   0  0  0  0  0  0  0  0  0  0  0  0
  -28.0482  -26.9279   22.1159 C   0  0  0  0  0  0  0  0  0  1  0  0
  -31.9757  -23.0315   18.8934 C   0  0  1  0  0  0  0  0  0  0  0  0
  -21.9136  -22.8357   23.6176 C   0  0  1  0  0  0  0  0  0  0  0  0
  -22.6199  -19.5940   21.7840 C   0  0  2  0  0  0  0  0  0  0  0  0
  -21.3900  -22.8232   25.0816 C   0  0  0  0  0  0  0  0  0  0  0  0
  -30.3193  -24.7654   21.7635 N   0  0  0  0  0  0  0  0  0  0  0  0
  -26.9978  -17.8161   21.2600 N   0  0  0  0  0  0  0  0  0  0  0  0
  -31.2363  -25.3257   19.1731 N   0  0  0  0  0  0  0  0  0  0  0  0
  -28.1820  -18.3333   20.8908 N   0  0  0  0  0  0  0  0  0  0  0  0
  -21.9145  -24.8344   22.1584 N   0  0  0  0  0  0  0  0  0  0  0  0
  -28.1917  -21.9237   19.5615 N   0  0  0  0  0  0  0  0  0  0  0  0
  -30.3504  -17.7426   20.1428 N   0  0  0  0  0  0  0  0  0  0  0  0
  -28.2965  -13.7513   20.6398 N   0  0  0  0  0  0  0  0  0  0  0  0
  -19.9016  -27.7769   22.2986 N   0  0  0  0  0  0  0  0  0  0  0  0
  -21.8396  -21.5430   22.9455 N   0  0  0  0  0  0  0  0  0  0  0  0
  -29.8446  -22.2490   17.8584 N   0  0  0  0  0  0  0  0  0  0  0  0
  -23.5098  -19.3406   20.6158 N   0  3  0  0  0  0  0  0  0  0  0  0
  -30.2636  -14.7726   20.0514 O   0  0  0  0  0  0  0  0  0  0  0  0
  -21.9227  -27.2182   23.3113 O   0  0  0  0  0  0  0  0  0  0  0  0
  -19.9449  -23.6614   22.5837 O   0  0  0  0  0  0  0  0  0  0  0  0
  -24.1022  -21.3759   22.4659 O   0  0  0  0  0  0  0  0  0  0  0  0
  -28.0242  -23.6508   18.0425 O   0  0  0  0  0  0  0  0  0  0  0  0
  -23.0547  -12.9341   22.3400 O   0  0  0  0  0  0  0  0  0  0  0  0
  -27.5184  -27.0227   20.7943 O   0  0  0  0  0  0  0  0  0  1  0  0
  -22.1221   -8.7989   18.8137 F   0  0  0  0  0  0  0  0  0  0  0  0
  -25.0228  -11.0744   21.7825 F   0  0  0  0  0  0  0  0  0  0  0  0
  1  2  1  0  0  0  0
  1  5  2  0  0  0  0
  2  6  2  0  0  0  0
  3  8  2  0  0  0  0
  3 16  1  0  0  0  0
  4  9  1  0  0  0  0
  4 16  2  0  0  0  0
  5 18  1  0  0  0  0
  6 20  1  0  0  0  0
  7 10  2  0  0  0  0
  7 19  1  0  0  0  0
  8 22  1  0  0  0  0
  9 22  2  0  0  0  0
 10 23  1  0  0  0  0
 11 12  2  0  0  0  0
 11 24  1  0  0  0  0
 12 25  1  0  0  0  0
 13 21  1  0  0  0  0
 13 23  2  0  0  0  0
 14 25  2  0  0  0  0
 14 26  1  0  0  0  0
 15 28  1  0  0  0  0
 15 64  2  0  0  0  0
 16 27  1  0  0  0  0
 17 27  1  0  0  0  0
 17 31  2  0  0  0  0
 17 32  1  0  0  0  0
 18 20  2  0  0  0  0
 18 37  1  0  0  0  0
 19 21  2  0  0  0  0
 19 38  1  0  0  0  0
 20 46  1  0  0  0  0
 21 39  1  0  0  0  0
 22 81  1  0  0  0  0
 23 82  1  0  0  0  0
 24 26  2  0  0  0  0
 24 81  1  0  0  0  0
 25 83  1  0  0  0  0
 26 84  1  0  0  0  0
 27 65  2  0  0  0  0
 28 60  1  0  0  0  0
 28 66  2  0  0  0  0
 29 30  2  0  0  0  0
 29 49  1  0  0  0  0
 29 66  1  0  0  0  0
 30 57  1  0  0  0  0
 30 64  1  0  0  0  0
 31 67  1  0  0  0  0
 31 70  1  0  0  0  0
 32 71  1  0  0  0  0
 32 76  2  0  0  0  0
 33 47  1  0  0  0  0
 33 72  1  0  0  0  0
 33 77  2  0  0  0  0
 34 61  1  0  0  0  0
 34 68  1  0  0  0  0
 34 78  2  0  0  0  0
 35 62  1  0  0  0  0
 35 73  1  0  0  0  0
 35 79  2  0  0  0  0
 36 69  1  0  0  0  0
 36 74  1  0  0  0  0
 36 80  2  0  0  0  0
 37 40  1  0  0  0  0
 38 47  1  0  0  0  0
 39 68  1  0  0  0  0
 40 42  1  0  0  0  0
 41 43  1  0  0  0  0
 41 44  1  0  0  0  0
 42 46  1  0  0  0  0
 43 48  1  0  0  0  0
 44 69  1  0  0  0  0
 45 48  1  0  0  0  0
 45 69  1  0  0  0  0
 46 72  1  0  0  0  0
 47 68  1  0  0  0  0
 48 67  1  0  0  0  0
 50 60  1  0  0  0  0
 51 62  1  0  0  0  0
 52 63  1  0  0  0  0
 53 63  1  0  0  0  0
 54 63  1  0  0  0  0
 55 74  1  0  0  0  0
 56 75  1  0  0  0  0
 57 59  1  0  0  0  0
 58 60  1  0  0  0  0
 58 74  1  0  0  0  0
 59 82  1  0  0  0  0
 61 63  1  0  0  0  0
 61 73  1  0  0  0  0
 62 75  1  0  0  0  0
 65 67  1  0  0  0  0
M  CHG  1  75   1
M  ISO  4  36 100  59 101  74 100  82 101
M  END
> <Batch ID>
0074

> <Smiles>
CNC(C)C(=O)NC(C(=O)N1Cc2cc([101O:1][101CH2:1]Cc3ncc(C(C)C[100N:0](C)[100C:0](=O)N4CCCC(n5nc(-c6ccc(Oc7ccc(F)cc7F)cc6)c(C(N)=O)c5N)C4)nc3C)ccc2CC1C(=O)NC1CCCc2ccccc21)C(C)(C)C

> <Shape>
0.239

> <Color>
0.059

> <Negative vol penalty>
0.000

$$$$

  -OEChem-04052318293D

 83 91  0     1  0  0  0  0  0999 V2000
  -30.8994  -23.4201   14.2651 C   0  0  0  0  0  0  0  0  0  0  0  0
  -30.3514  -22.9986   15.4723 C   0  0  0  0  0  0  0  0  0  0  0  0
  -22.5299  -16.3641   22.0086 C   0  0  0  0  0  0  0  0  0  0  0  0
  -23.6400  -17.2968   20.0761 C   0  0  0  0  0  0  0  0  0  0  0  0
  -31.2677  -24.7541   14.0959 C   0  0  0  0  0  0  0  0  0  0  0  0
  -30.1724  -23.9109   16.5116 C   0  0  0  0  0  0  0  0  0  0  0  0
  -25.6449  -23.4589   18.7349 C   0  0  0  0  0  0  0  0  0  0  0  0
  -21.6039  -17.4068   21.9800 C   0  0  0  0  0  0  0  0  0  0  0  0
  -22.7140  -18.3395   20.0474 C   0  0  0  0  0  0  0  0  0  0  0  0
  -25.4809  -22.4092   19.6377 C   0  0  0  0  0  0  0  0  0  0  0  0
  -18.8331  -18.2300   20.2255 C   0  0  0  0  0  0  0  0  0  0  0  0
  -17.4860  -17.9052   20.3849 C   0  0  0  0  0  0  0  0  0  0  0  0
  -25.8159  -23.9413   21.4707 C   0  0  0  0  0  0  0  0  0  0  0  0
  -17.3826  -19.3001   22.3548 C   0  0  0  0  0  0  0  0  0  0  0  0
  -30.0177  -18.1228   22.1894 C   0  0  0  0  0  0  0  0  0  0  0  0
  -29.0277  -18.8050   20.3425 C   0  0  0  0  0  0  0  0  0  0  0  0
  -23.5480  -16.3091   21.0567 C   0  0  0  0  0  0  0  0  0  0  0  0
  -24.4081  -13.9905   20.4307 C   0  0  0  0  0  0  0  0  0  0  0  0
  -31.0841  -25.6852   15.1303 C   0  0  0  0  0  0  0  0  0  0  0  0
  -25.9070  -24.7579   19.1937 C   0  0  0  0  0  0  0  0  0  0  0  0
  -30.5398  -25.2584   16.3566 C   0  0  0  0  0  0  0  0  0  0  0  0
  -25.9804  -25.0062   20.5718 C   0  0  0  0  0  0  0  0  0  0  0  0
  -21.6959  -18.3945   20.9993 C   0  0  0  0  0  0  0  0  0  0  0  0
  -25.5692  -22.6498   21.0057 C   0  0  0  0  0  0  0  0  0  0  0  0
  -19.4550  -19.0898   21.1309 C   0  0  0  0  0  0  0  0  0  0  0  0
  -16.7608  -18.4402   21.4494 C   0  0  0  0  0  0  0  0  0  0  0  0
  -18.7298  -19.6249   22.1955 C   0  0  0  0  0  0  0  0  0  0  0  0
  -24.5053  -15.2326   21.0862 C   0  0  0  0  0  0  0  0  0  0  0  0
  -30.2182  -17.2390   21.1553 C   0  0  0  0  0  0  0  0  0  0  0  0
  -25.5624  -13.3300   20.7739 C   0  0  0  0  0  0  0  0  0  0  0  0
  -23.3676  -13.4795   19.5869 C   0  0  0  0  0  0  0  0  0  0  0  0
  -28.3068  -26.8147   18.8555 C   0  0  0  0  0  0  0  0  0  0  0  0
  -26.3007  -28.8150   20.4357 C   0  0  0  0  0  0  0  0  0  0  0  0
  -30.9550  -15.3204   22.5261 C   0  0  0  0  0  0  0  0  0  0  0  0
  -23.6563  -29.1820   22.5615 C   0  0  0  0  0  0  0  0  0  0  0  0
  -31.5412  -27.1066   14.9171 C   0  0  0  0  0  0  0  0  0  0  0  0
  -26.0550  -25.8842   18.2078 C   0  0  0  0  0  0  0  0  0  0  0  0
  -26.2398  -26.3863   21.1162 C   0  0  0  0  0  0  0  0  0  0  0  0
  -30.9719  -28.0890   15.9375 C   0  0  0  0  0  0  0  0  0  0  0  0
  -28.8168  -13.0246   24.2573 C   0  0  0  0  0  0  0  0  0  0  0  0
  -31.1009  -27.5266   17.3495 C   0  0  0  0  0  0  0  0  0  0  0  0
  -27.4538  -13.2381   23.6001 C   0  0  0  0  0  0  0  0  0  0  0  0
  -29.6050  -14.3278   24.3444 C   0  0  0  0  0  0  0  0  0  0  0  0
  -28.4171  -15.2361   22.3732 C   0  0  0  0  0  0  0  0  0  0  0  0
  -30.3070  -26.2233   17.4990 C   0  0  1  0  0  0  0  0  0  0  0  0
  -26.8290  -27.0726   18.7700 C   0  0  1  0  0  0  0  0  0  0  0  0
  -27.6007  -13.9386   22.2377 C   0  0  2  0  0  0  0  0  0  0  0  0
  -22.2703  -30.9393   23.6965 C   0  0  0  0  0  0  0  0  0  0  0  0
  -25.1946  -19.3301   23.6827 C   0  0  0  0  0  0  0  0  0  0  0  0
  -32.4764  -16.2037   20.8072 C   0  0  0  0  0  0  0  0  0  0  0  0
  -30.4682  -14.8411   20.2203 C   0  0  0  0  0  0  0  0  0  0  0  0
  -28.5633  -29.3136   22.4211 C   0  0  0  0  0  0  0  0  0  0  0  0
  -26.8737  -30.2765   23.9980 C   0  0  0  0  0  0  0  0  0  0  0  0
  -27.2665  -31.3547   21.7831 C   0  0  0  0  0  0  0  0  0  0  0  0
  -21.1836  -28.2642   21.2188 C   0  0  0  0  0  0  0  0  0  0  0  0
  -27.5627  -20.0671   23.3141 C   0  0  0  0  0  0  0  0  0  0  0  0
  -28.7460  -20.3435   22.3762 C   0  0  0  0  0  0  0  0  0  0  0  0
  -25.8037  -20.3260   21.4541 C   0  0  0  0  0  0  0  0  0  1  0  0
  -26.0431  -29.1445   21.8862 C   0  0  1  0  0  0  0  0  0  0  0  0
  -22.4076  -30.0411   22.4770 C   0  0  2  0  0  0  0  0  0  0  0  0
  -26.3044  -19.4832   22.6347 C   0  0  2  0  0  0  0  0  0  0  0  0
  -30.9758  -15.9784   21.1694 C   0  0  0  0  0  0  0  0  0  0  0  0
  -27.1837  -29.9958   22.5121 C   0  0  0  0  0  0  0  0  0  0  0  0
  -29.5996  -17.6696   20.0084 N   0  0  0  0  0  0  0  0  0  0  0  0
  -25.6321  -15.3561   21.7925 N   0  0  0  0  0  0  0  0  0  0  0  0
  -29.2538  -19.1209   21.6534 N   0  0  0  0  0  0  0  0  0  0  0  0
  -26.2537  -14.1832   21.5829 N   0  0  0  0  0  0  0  0  0  0  0  0
  -26.3836  -27.4533   20.1120 N   0  0  0  0  0  0  0  0  0  0  0  0
  -29.7030  -14.9736   23.0342 N   0  0  0  0  0  0  0  0  0  0  0  0
  -26.0434  -12.1083   20.4597 N   0  0  0  0  0  0  0  0  0  0  0  0
  -22.2514  -14.2896   19.3376 N   0  0  0  0  0  0  0  0  0  0  0  0
  -28.8949  -26.5054   17.6440 N   0  0  0  0  0  0  0  0  0  0  0  0
  -24.7297  -29.7779   21.9339 N   0  0  0  0  0  0  0  0  0  0  0  0
  -21.1930  -29.1823   22.3867 N   0  3  0  0  0  0  0  0  0  0  0  0
  -23.4184  -12.3321   19.0827 O   0  0  0  0  0  0  0  0  0  0  0  0
  -28.8718  -26.8922   19.9402 O   0  0  0  0  0  0  0  0  0  0  0  0
  -26.4167  -29.7318   19.6186 O   0  0  0  0  0  0  0  0  0  0  0  0
  -32.0209  -15.1187   23.1138 O   0  0  0  0  0  0  0  0  0  0  0  0
  -23.6782  -28.0929   23.1308 O   0  0  0  0  0  0  0  0  0  0  0  0
  -20.7923  -19.4120   20.9709 O   0  0  0  0  0  0  0  0  0  0  0  0
  -25.4101  -21.6269   21.8890 O   0  0  0  0  0  0  0  0  0  1  0  0
  -15.4667  -18.1294   21.6014 F   0  0  0  0  0  0  0  0  0  0  0  0
  -19.3215  -20.4525   23.0677 F   0  0  0  0  0  0  0  0  0  0  0  0
  1  2  1  0  0  0  0
  1  5  2  0  0  0  0
  2  6  2  0  0  0  0
  3  8  2  0  0  0  0
  3 17  1  0  0  0  0
  4  9  1  0  0  0  0
  4 17  2  0  0  0  0
  5 19  1  0  0  0  0
  6 21  1  0  0  0  0
  7 10  2  0  0  0  0
  7 20  1  0  0  0  0
  8 23  1  0  0  0  0
  9 23  2  0  0  0  0
 10 24  1  0  0  0  0
 11 12  2  0  0  0  0
 11 25  1  0  0  0  0
 12 26  1  0  0  0  0
 13 22  1  0  0  0  0
 13 24  2  0  0  0  0
 14 26  2  0  0  0  0
 14 27  1  0  0  0  0
 15 29  2  0  0  0  0
 15 66  1  0  0  0  0
 16 64  2  0  0  0  0
 16 66  1  0  0  0  0
 17 28  1  0  0  0  0
 18 28  1  0  0  0  0
 18 30  2  0  0  0  0
 18 31  1  0  0  0  0
 19 21  2  0  0  0  0
 19 36  1  0  0  0  0
 20 22  2  0  0  0  0
 20 37  1  0  0  0  0
 21 45  1  0  0  0  0
 22 38  1  0  0  0  0
 23 80  1  0  0  0  0
 24 81  1  0  0  0  0
 25 27  2  0  0  0  0
 25 80  1  0  0  0  0
 26 82  1  0  0  0  0
 27 83  1  0  0  0  0
 28 65  2  0  0  0  0
 29 62  1  0  0  0  0
 29 64  1  0  0  0  0
 30 67  1  0  0  0  0
 30 70  1  0  0  0  0
 31 71  1  0  0  0  0
 31 75  2  0  0  0  0
 32 46  1  0  0  0  0
 32 72  1  0  0  0  0
 32 76  2  0  0  0  0
 33 59  1  0  0  0  0
 33 68  1  0  0  0  0
 33 77  2  0  0  0  0
 34 62  1  0  0  0  0
 34 69  1  0  0  0  0
 34 78  2  0  0  0  0
 35 60  1  0  0  0  0
 35 73  1  0  0  0  0
 35 79  2  0  0  0  0
 36 39  1  0  0  0  0
 37 46  1  0  0  0  0
 38 68  1  0  0  0  0
 39 41  1  0  0  0  0
 40 42  1  0  0  0  0
 40 43  1  0  0  0  0
 41 45  1  0  0  0  0
 42 47  1  0  0  0  0
 43 69  1  0  0  0  0
 44 47  1  0  0  0  0
 44 69  1  0  0  0  0
 45 72  1  0  0  0  0
 46 68  1  0  0  0  0
 47 67  1  0  0  0  0
 48 60  1  0  0  0  0
 49 61  1  0  0  0  0
 50 62  1  0  0  0  0
 51 62  1  0  0  0  0
 52 63  1  0  0  0  0
 53 63  1  0  0  0  0
 54 63  1  0  0  0  0
 55 74  1  0  0  0  0
 56 57  1  0  0  0  0
 56 61  1  0  0  0  0
 57 66  1  0  0  0  0
 58 61  1  0  0  0  0
 58 81  1  0  0  0  0
 59 63  1  0  0  0  0
 59 73  1  0  0  0  0
 60 74  1  0  0  0  0
 65 67  1  0  0  0  0
M  CHG  1  74   1
M  ISO  4  34 100  58 101  62 100  81 101
M  END
> <Batch ID>
0074

> <Smiles>
CNC(C)C(=O)NC(C(=O)N1Cc2cc([101O:1][101CH2:1]C(C)CCn3cnc([100C:0](C)(C)[100C:0](=O)N4CCCC(n5nc(-c6ccc(Oc7ccc(F)cc7F)cc6)c(C(N)=O)c5N)C4)c3)ccc2CC1C(=O)NC1CCCc2ccccc21)C(C)(C)C

> <Shape>
0.189

> <Color>
0.071

> <Negative vol penalty>
0.000

$$$$

  -OEChem-04052318293D

 84 92  0     1  0  0  0  0  0999 V2000
  -22.7850  -24.1769   20.1531 C   0  0  0  0  0  0  0  0  0  0  0  0
  -23.3875  -23.1300   19.4647 C   0  0  0  0  0  0  0  0  0  0  0  0
  -24.9286  -28.8978   20.7603 C   0  0  0  0  0  0  0  0  0  0  0  0
  -24.6070  -27.6205   22.7857 C   0  0  0  0  0  0  0  0  0  0  0  0
  -22.4348  -24.0154   21.4919 C   0  0  0  0  0  0  0  0  0  0  0  0
  -23.6292  -21.9174   20.1114 C   0  0  0  0  0  0  0  0  0  0  0  0
  -26.4631  -16.8864   18.1659 C   0  0  0  0  0  0  0  0  0  0  0  0
  -23.6038  -29.3297   20.8222 C   0  0  0  0  0  0  0  0  0  0  0  0
  -23.2821  -28.0524   22.8476 C   0  0  0  0  0  0  0  0  0  0  0  0
  -27.7541  -16.3604   18.1837 C   0  0  0  0  0  0  0  0  0  0  0  0
  -20.3409  -27.2887   21.3655 C   0  0  0  0  0  0  0  0  0  0  0  0
  -19.3617  -26.3371   21.6502 C   0  0  0  0  0  0  0  0  0  0  0  0
  -27.1948  -15.0697   20.1434 C   0  0  0  0  0  0  0  0  0  0  0  0
  -18.7319  -27.5763   23.6263 C   0  0  0  0  0  0  0  0  0  0  0  0
  -30.7480  -17.3435   22.4869 C   0  0  0  0  0  0  0  0  0  0  0  0
  -31.6944  -19.2808   20.9125 C   0  0  0  0  0  0  0  0  0  0  0  0
  -25.4303  -28.0431   21.7420 C   0  0  0  0  0  0  0  0  0  0  0  0
  -27.9239  -28.2193   22.2501 C   0  0  0  0  0  0  0  0  0  0  0  0
  -22.6839  -22.8042   22.1581 C   0  0  0  0  0  0  0  0  0  0  0  0
  -25.5299  -16.5156   19.1448 C   0  0  0  0  0  0  0  0  0  0  0  0
  -23.2612  -21.7269   21.4556 C   0  0  0  0  0  0  0  0  0  0  0  0
  -25.8918  -15.5904   20.1343 C   0  0  0  0  0  0  0  0  0  0  0  0
  -22.7806  -28.9070   21.8659 C   0  0  0  0  0  0  0  0  0  0  0  0
  -28.1211  -15.4541   19.1742 C   0  0  0  0  0  0  0  0  0  0  0  0
  -20.5157  -28.3841   22.2112 C   0  0  0  0  0  0  0  0  0  0  0  0
  -18.5571  -26.4808   22.7806 C   0  0  0  0  0  0  0  0  0  0  0  0
  -19.7112  -28.5279   23.3416 C   0  0  0  0  0  0  0  0  0  0  0  0
  -26.7986  -27.5962   21.6782 C   0  0  0  0  0  0  0  0  0  0  0  0
  -31.4253  -17.0476   21.3245 C   0  0  0  0  0  0  0  0  0  0  0  0
  -31.0164  -19.5769   22.0745 C   0  0  0  0  0  0  0  0  0  0  0  0
  -28.9774  -27.4077   21.9066 C   0  0  0  0  0  0  0  0  0  0  0  0
  -28.0093  -29.4240   23.0229 C   0  0  0  0  0  0  0  0  0  0  0  0
  -23.9150  -18.0618   21.4042 C   0  0  0  0  0  0  0  0  0  0  0  0
  -29.2506  -21.5781   20.4739 C   0  0  0  0  0  0  0  0  0  0  0  0
  -22.4706  -15.1837   21.7951 C   0  0  0  0  0  0  0  0  0  0  0  0
  -22.6189  -11.7940   21.4279 C   0  0  0  0  0  0  0  0  0  0  0  0
  -22.2773  -22.6813   23.6054 C   0  0  0  0  0  0  0  0  0  0  0  0
  -24.1332  -17.0716   19.0960 C   0  0  0  0  0  0  0  0  0  0  0  0
  -24.9211  -15.1445   21.1961 C   0  0  0  0  0  0  0  0  0  0  0  0
  -22.9711  -21.5273   24.3219 C   0  0  0  0  0  0  0  0  0  0  0  0
  -30.4138  -24.3525   18.5272 C   0  0  0  0  0  0  0  0  0  0  0  0
  -22.8495  -20.2549   23.4968 C   0  0  0  0  0  0  0  0  0  0  0  0
  -29.6988  -25.5517   19.1484 C   0  0  0  0  0  0  0  0  0  0  0  0
  -29.5355  -23.1054   18.5503 C   0  0  0  0  0  0  0  0  0  0  0  0
  -28.3131  -23.9422   20.5320 C   0  0  0  0  0  0  0  0  0  0  0  0
  -23.5615  -20.4092   22.1469 C   0  0  1  0  0  0  0  0  0  0  0  0
  -23.4209  -17.0170   20.4440 C   0  0  1  0  0  0  0  0  0  0  0  0
  -29.1770  -25.2156   20.5566 C   0  0  2  0  0  0  0  0  0  0  0  0
  -28.1922  -20.7528   22.5284 C   0  0  0  0  0  0  0  0  0  0  0  0
  -21.3025   -9.7048   21.8747 C   0  0  0  0  0  0  0  0  0  0  0  0
  -31.9119  -21.9970   22.0111 C   0  0  0  0  0  0  0  0  0  0  0  0
  -30.8193  -21.1045   24.0490 C   0  0  0  0  0  0  0  0  0  0  0  0
  -23.1975  -15.3611   24.7531 C   0  0  0  0  0  0  0  0  0  0  0  0
  -22.7303  -12.9088   24.9434 C   0  0  0  0  0  0  0  0  0  0  0  0
  -20.9032  -14.4781   24.2938 C   0  0  0  0  0  0  0  0  0  0  0  0
  -22.5027  -11.1131   18.5502 C   0  0  0  0  0  0  0  0  0  0  0  0
  -31.6495  -15.6145   20.9128 C   0  0  0  0  0  0  0  0  0  0  0  0
  -31.7240  -15.4133   19.3976 C   0  0  0  0  0  0  0  0  0  0  0  0
  -30.4264  -15.7620   18.6778 C   0  0  0  0  0  0  0  0  0  1  0  0
  -29.3874  -21.5339   21.9751 C   0  0  1  0  0  0  0  0  0  0  0  0
  -22.7388  -13.9582   22.6348 C   0  0  1  0  0  0  0  0  0  0  0  0
  -21.6215  -10.7972   20.8659 C   0  0  2  0  0  0  0  0  0  0  0  0
  -30.7954  -20.9918   22.4812 C   0  0  0  0  0  0  0  0  0  0  0  0
  -22.4116  -14.1862   24.1376 C   0  0  0  0  0  0  0  0  0  0  0  0
  -31.9110  -18.0108   20.5166 N   0  0  0  0  0  0  0  0  0  0  0  0
  -30.5311  -18.6135   22.8826 N   0  0  0  0  0  0  0  0  0  0  0  0
  -27.1081  -26.4753   21.0211 N   0  0  0  0  0  0  0  0  0  0  0  0
  -28.4400  -26.3878   21.1779 N   0  0  0  0  0  0  0  0  0  0  0  0
  -23.5692  -15.7212   21.1096 N   0  0  0  0  0  0  0  0  0  0  0  0
  -29.0417  -22.8329   19.9013 N   0  0  0  0  0  0  0  0  0  0  0  0
  -30.3017  -27.4743   22.1598 N   0  0  0  0  0  0  0  0  0  0  0  0
  -26.8304  -30.1356   23.2836 N   0  0  0  0  0  0  0  0  0  0  0  0
  -23.2479  -19.2687   21.3147 N   0  0  0  0  0  0  0  0  0  0  0  0
  -21.9889  -12.8690   22.0185 N   0  0  0  0  0  0  0  0  0  0  0  0
  -22.1669  -10.1563   19.6359 N   0  3  0  0  0  0  0  0  0  0  0  0
  -29.1011  -29.8653   23.4551 O   0  0  0  0  0  0  0  0  0  0  0  0
  -24.8324  -17.7925   22.1707 O   0  0  0  0  0  0  0  0  0  0  0  0
  -29.3303  -20.5281   19.8310 O   0  0  0  0  0  0  0  0  0  0  0  0
  -21.3268  -15.6430   21.7435 O   0  0  0  0  0  0  0  0  0  0  0  0
  -23.8351  -11.6333   21.3540 O   0  0  0  0  0  0  0  0  0  0  0  0
  -21.4878  -29.3285   21.9268 O   0  0  0  0  0  0  0  0  0  0  0  0
  -29.3808  -14.9397   19.1943 O   0  0  0  0  0  0  0  0  0  1  0  0
  -17.6158  -25.5677   23.0530 F   0  0  0  0  0  0  0  0  0  0  0  0
  -19.8736  -29.5788   24.1572 F   0  0  0  0  0  0  0  0  0  0  0  0
  1  2  1  0  0  0  0
  1  5  2  0  0  0  0
  2  6  2  0  0  0  0
  3  8  2  0  0  0  0
  3 17  1  0  0  0  0
  4  9  1  0  0  0  0
  4 17  2  0  0  0  0
  5 19  1  0  0  0  0
  6 21  1  0  0  0  0
  7 10  2  0  0  0  0
  7 20  1  0  0  0  0
  8 23  1  0  0  0  0
  9 23  2  0  0  0  0
 10 24  1  0  0  0  0
 11 12  2  0  0  0  0
 11 25  1  0  0  0  0
 12 26  1  0  0  0  0
 13 22  1  0  0  0  0
 13 24  2  0  0  0  0
 14 26  2  0  0  0  0
 14 27  1  0  0  0  0
 15 29  1  0  0  0  0
 15 66  2  0  0  0  0
 16 30  2  0  0  0  0
 16 65  1  0  0  0  0
 17 28  1  0  0  0  0
 18 28  1  0  0  0  0
 18 31  2  0  0  0  0
 18 32  1  0  0  0  0
 19 21  2  0  0  0  0
 19 37  1  0  0  0  0
 20 22  2  0  0  0  0
 20 38  1  0  0  0  0
 21 46  1  0  0  0  0
 22 39  1  0  0  0  0
 23 81  1  0  0  0  0
 24 82  1  0  0  0  0
 25 27  2  0  0  0  0
 25 81  1  0  0  0  0
 26 83  1  0  0  0  0
 27 84  1  0  0  0  0
 28 67  2  0  0  0  0
 29 57  1  0  0  0  0
 29 65  2  0  0  0  0
 30 63  1  0  0  0  0
 30 66  1  0  0  0  0
 31 68  1  0  0  0  0
 31 71  1  0  0  0  0
 32 72  1  0  0  0  0
 32 76  2  0  0  0  0
 33 47  1  0  0  0  0
 33 73  1  0  0  0  0
 33 77  2  0  0  0  0
 34 60  1  0  0  0  0
 34 70  1  0  0  0  0
 34 78  2  0  0  0  0
 35 61  1  0  0  0  0
 35 69  1  0  0  0  0
 35 79  2  0  0  0  0
 36 62  1  0  0  0  0
 36 74  1  0  0  0  0
 36 80  2  0  0  0  0
 37 40  1  0  0  0  0
 38 47  1  0  0  0  0
 39 69  1  0  0  0  0
 40 42  1  0  0  0  0
 41 43  1  0  0  0  0
 41 44  1  0  0  0  0
 42 46  1  0  0  0  0
 43 48  1  0  0  0  0
 44 70  1  0  0  0  0
 45 48  1  0  0  0  0
 45 70  1  0  0  0  0
 46 73  1  0  0  0  0
 47 69  1  0  0  0  0
 48 68  1  0  0  0  0
 49 60  1  0  0  0  0
 50 62  1  0  0  0  0
 51 63  1  0  0  0  0
 52 63  1  0  0  0  0
 53 64  1  0  0  0  0
 54 64  1  0  0  0  0
 55 64  1  0  0  0  0
 56 75  1  0  0  0  0
 57 58  1  0  0  0  0
 58 59  1  0  0  0  0
 59 82  1  0  0  0  0
 60 63  1  0  0  0  0
 61 64  1  0  0  0  0
 61 74  1  0  0  0  0
 62 75  1  0  0  0  0
 67 68  1  0  0  0  0
M  CHG  1  75   1
M  ISO  4  34 100  59 101  60 100  82 101
M  END
> <Batch ID>
0074

> <Smiles>
CNC(C)C(=O)NC(C(=O)N1Cc2cc([101O:1][101CH2:1]CCc3cnc(C(C)(C)[100CH:0](C)[100C:0](=O)N4CCCC(n5nc(-c6ccc(Oc7ccc(F)cc7F)cc6)c(C(N)=O)c5N)C4)cn3)ccc2CC1C(=O)NC1CCCc2ccccc21)C(C)(C)C

> <Shape>
0.235

> <Color>
0.057

> <Negative vol penalty>
0.000

$$$$

  -OEChem-04052318293D

 85 93  0     1  0  0  0  0  0999 V2000
  -17.0560  -28.5993   24.4054 C   0  0  0  0  0  0  0  0  0  0  0  0
  -17.5608  -27.4700   23.7688 C   0  0  0  0  0  0  0  0  0  0  0  0
  -29.3539  -19.0472   22.1658 C   0  0  0  0  0  0  0  0  0  0  0  0
  -29.0163  -19.6869   19.8606 C   0  0  0  0  0  0  0  0  0  0  0  0
  -17.5690  -29.8589   24.0987 C   0  0  0  0  0  0  0  0  0  0  0  0
  -18.5783  -27.5998   22.8242 C   0  0  0  0  0  0  0  0  0  0  0  0
  -23.1540  -23.6662   21.7776 C   0  0  0  0  0  0  0  0  0  0  0  0
  -30.0925  -20.2108   22.3805 C   0  0  0  0  0  0  0  0  0  0  0  0
  -29.7549  -20.8505   20.0753 C   0  0  0  0  0  0  0  0  0  0  0  0
  -23.3332  -22.6693   20.8196 C   0  0  0  0  0  0  0  0  0  0  0  0
  -33.0121  -21.7261   20.3100 C   0  0  0  0  0  0  0  0  0  0  0  0
  -33.9652  -22.0745   19.3530 C   0  0  0  0  0  0  0  0  0  0  0  0
  -24.5911  -24.2128   19.4577 C   0  0  0  0  0  0  0  0  0  0  0  0
  -32.8113  -24.1611   18.9635 C   0  0  0  0  0  0  0  0  0  0  0  0
  -29.8395  -15.8681   14.0210 C   0  0  0  0  0  0  0  0  0  0  0  0
  -29.5062  -16.7379   16.0574 C   0  0  0  0  0  0  0  0  0  0  0  0
  -28.8158  -18.7852   20.9058 C   0  0  0  0  0  0  0  0  0  0  0  0
  -26.6642  -17.4163   20.8401 C   0  0  0  0  0  0  0  0  0  0  0  0
  -18.5999  -30.0033   23.1569 C   0  0  0  0  0  0  0  0  0  0  0  0
  -23.6835  -24.9491   21.5776 C   0  0  0  0  0  0  0  0  0  0  0  0
  -19.1047  -28.8627   22.5036 C   0  0  0  0  0  0  0  0  0  0  0  0
  -24.4193  -25.2234   20.4159 C   0  0  0  0  0  0  0  0  0  0  0  0
  -29.4274  -17.1711   13.8493 C   0  0  0  0  0  0  0  0  0  0  0  0
  -29.2164  -17.7214   15.1376 C   0  0  0  0  0  0  0  0  0  0  0  0
  -30.2930  -21.1124   21.3353 C   0  0  0  0  0  0  0  0  0  0  0  0
  -24.0494  -22.9433   19.6581 C   0  0  0  0  0  0  0  0  0  0  0  0
  -31.9585  -22.5951   20.5937 C   0  0  0  0  0  0  0  0  0  0  0  0
  -33.8648  -23.2921   18.6798 C   0  0  0  0  0  0  0  0  0  0  0  0
  -31.8581  -23.8126   19.9205 C   0  0  0  0  0  0  0  0  0  0  0  0
  -28.0532  -17.5831   20.6832 C   0  0  0  0  0  0  0  0  0  0  0  0
  -26.4364  -16.1031   20.5082 C   0  0  0  0  0  0  0  0  0  0  0  0
  -25.6688  -18.3637   21.2492 C   0  0  0  0  0  0  0  0  0  0  0  0
  -22.4512  -27.8656   21.2955 C   0  0  0  0  0  0  0  0  0  0  0  0
  -25.5690  -28.7609   21.3065 C   0  0  0  0  0  0  0  0  0  0  0  0
  -29.4935  -12.2482   17.0576 C   0  0  0  0  0  0  0  0  0  0  0  0
  -28.8270  -27.9190   20.7382 C   0  0  0  0  0  0  0  0  0  0  0  0
  -19.0898  -31.3902   22.8237 C   0  0  0  0  0  0  0  0  0  0  0  0
  -23.5041  -26.0058   22.6329 C   0  0  0  0  0  0  0  0  0  0  0  0
  -25.0255  -26.5787   20.1627 C   0  0  0  0  0  0  0  0  0  0  0  0
  -20.4257  -31.4033   22.0852 C   0  0  0  0  0  0  0  0  0  0  0  0
  -28.5470  -11.8179   20.4868 C   0  0  0  0  0  0  0  0  0  0  0  0
  -20.4192  -30.3825   20.9518 C   0  0  0  0  0  0  0  0  0  0  0  0
  -28.2143  -13.2362   20.9481 C   0  0  0  0  0  0  0  0  0  0  0  0
  -29.6959  -11.8122   19.4832 C   0  0  0  0  0  0  0  0  0  0  0  0
  -29.1366  -14.1096   18.7545 C   0  0  0  0  0  0  0  0  0  0  0  0
  -20.2254  -28.9602   21.4914 C   0  0  1  0  0  0  0  0  0  0  0  0
  -23.6482  -27.4239   22.0891 C   0  0  1  0  0  0  0  0  0  0  0  0
  -27.9609  -14.1633   19.7460 C   0  0  2  0  0  0  0  0  0  0  0  0
  -29.2444  -17.8578   12.5551 C   0  0  0  0  0  0  0  0  0  0  0  0
  -31.3239  -28.1677   20.7014 C   0  0  0  0  0  0  0  0  0  0  0  0
  -27.7779  -13.7857   16.1485 C   0  0  0  0  0  0  0  0  0  0  0  0
  -29.2760  -12.4856   14.6273 C   0  0  0  0  0  0  0  0  0  0  0  0
  -25.0180  -30.2598   18.7066 C   0  0  0  0  0  0  0  0  0  0  0  0
  -27.4905  -30.3742   18.3300 C   0  0  0  0  0  0  0  0  0  0  0  0
  -26.4820  -31.4814   20.3249 C   0  0  0  0  0  0  0  0  0  0  0  0
  -29.0902  -26.8498   23.4853 C   0  0  0  0  0  0  0  0  0  0  0  0
  -28.7592  -19.1227   15.4563 C   0  0  0  0  0  0  0  0  0  0  0  0
  -27.4920  -19.1803   16.3169 C   0  0  0  0  0  0  0  0  0  0  0  0
  -27.0877  -20.6090   16.6937 C   0  0  0  0  0  0  0  0  0  0  0  0
  -25.8053  -20.6203   17.5239 C   0  0  0  0  0  0  0  0  0  0  0  0
  -30.2721  -14.3598   15.9673 C   0  0  0  0  0  0  0  0  0  0  0  0
  -25.4177  -22.0324   17.9393 C   0  0  0  0  0  0  0  0  0  1  0  0
  -26.6282  -28.9585   20.2492 C   0  0  1  0  0  0  0  0  0  0  0  0
  -30.0790  -28.1171   21.5735 C   0  0  2  0  0  0  0  0  0  0  0  0
  -29.2000  -13.2431   15.9630 C   0  0  0  0  0  0  0  0  0  0  0  0
  -26.3917  -30.2434   19.4063 C   0  0  0  0  0  0  0  0  0  0  0  0
  -28.6649  -16.4652   20.2829 N   0  0  0  0  0  0  0  0  0  0  0  0
  -29.8841  -15.6158   15.3674 N   0  0  0  0  0  0  0  0  0  0  0  0
  -27.6554  -15.5834   20.1856 N   0  0  0  0  0  0  0  0  0  0  0  0
  -24.8172  -27.5804   21.2214 N   0  0  0  0  0  0  0  0  0  0  0  0
  -29.4268  -12.7218   18.3681 N   0  0  0  0  0  0  0  0  0  0  0  0
  -25.3144  -15.3538   20.4638 N   0  0  0  0  0  0  0  0  0  0  0  0
  -26.0749  -19.6703   21.5530 N   0  0  0  0  0  0  0  0  0  0  0  0
  -21.4614  -28.4605   22.0544 N   0  0  0  0  0  0  0  0  0  0  0  0
  -27.9102  -28.9279   20.9450 N   0  0  0  0  0  0  0  0  0  0  0  0
  -30.2333  -27.0006   22.5485 N   0  3  0  0  0  0  0  0  0  0  0  0
  -24.4576  -18.0562   21.3583 O   0  0  0  0  0  0  0  0  0  0  0  0
  -22.4280  -27.6816   20.0842 O   0  0  0  0  0  0  0  0  0  0  0  0
  -25.4190  -29.6188   22.1801 O   0  0  0  0  0  0  0  0  0  0  0  0
  -29.7706  -11.0846   16.7552 O   0  0  0  0  0  0  0  0  0  0  0  0
  -28.6789  -26.9667   19.9756 O   0  0  0  0  0  0  0  0  0  0  0  0
  -31.0135  -22.2481   21.5445 O   0  0  0  0  0  0  0  0  0  0  0  0
  -24.2253  -21.9723   18.7210 O   0  0  0  0  0  0  0  0  0  1  0  0
  -34.7811  -23.6272   17.7620 F   0  0  0  0  0  0  0  0  0  0  0  0
  -30.8489  -24.6522   20.1896 F   0  0  0  0  0  0  0  0  0  0  0  0
  1  2  1  0  0  0  0
  1  5  2  0  0  0  0
  2  6  2  0  0  0  0
  3  8  2  0  0  0  0
  3 17  1  0  0  0  0
  4  9  1  0  0  0  0
  4 17  2  0  0  0  0
  5 19  1  0  0  0  0
  6 21  1  0  0  0  0
  7 10  2  0  0  0  0
  7 20  1  0  0  0  0
  8 25  1  0  0  0  0
  9 25  2  0  0  0  0
 10 26  1  0  0  0  0
 11 12  2  0  0  0  0
 11 27  1  0  0  0  0
 12 28  1  0  0  0  0
 13 22  1  0  0  0  0
 13 26  2  0  0  0  0
 14 28  2  0  0  0  0
 14 29  1  0  0  0  0
 15 23  2  0  0  0  0
 15 68  1  0  0  0  0
 16 24  2  0  0  0  0
 16 68  1  0  0  0  0
 17 30  1  0  0  0  0
 18 30  1  0  0  0  0
 18 31  2  0  0  0  0
 18 32  1  0  0  0  0
 19 21  2  0  0  0  0
 19 37  1  0  0  0  0
 20 22  2  0  0  0  0
 20 38  1  0  0  0  0
 21 46  1  0  0  0  0
 22 39  1  0  0  0  0
 23 24  1  0  0  0  0
 23 49  1  0  0  0  0
 24 57  1  0  0  0  0
 25 82  1  0  0  0  0
 26 83  1  0  0  0  0
 27 29  2  0  0  0  0
 27 82  1  0  0  0  0
 28 84  1  0  0  0  0
 29 85  1  0  0  0  0
 30 67  2  0  0  0  0
 31 69  1  0  0  0  0
 31 72  1  0  0  0  0
 32 73  1  0  0  0  0
 32 77  2  0  0  0  0
 33 47  1  0  0  0  0
 33 74  1  0  0  0  0
 33 78  2  0  0  0  0
 34 63  1  0  0  0  0
 34 70  1  0  0  0  0
 34 79  2  0  0  0  0
 35 65  1  0  0  0  0
 35 71  1  0  0  0  0
 35 80  2  0  0  0  0
 36 64  1  0  0  0  0
 36 75  1  0  0  0  0
 36 81  2  0  0  0  0
 37 40  1  0  0  0  0
 38 47  1  0  0  0  0
 39 70  1  0  0  0  0
 40 42  1  0  0  0  0
 41 43  1  0  0  0  0
 41 44  1  0  0  0  0
 42 46  1  0  0  0  0
 43 48  1  0  0  0  0
 44 71  1  0  0  0  0
 45 48  1  0  0  0  0
 45 71  1  0  0  0  0
 46 74  1  0  0  0  0
 47 70  1  0  0  0  0
 48 69  1  0  0  0  0
 50 64  1  0  0  0  0
 51 65  1  0  0  0  0
 52 65  1  0  0  0  0
 53 66  1  0  0  0  0
 54 66  1  0  0  0  0
 55 66  1  0  0  0  0
 56 76  1  0  0  0  0
 57 58  1  0  0  0  0
 58 59  1  0  0  0  0
 59 60  1  0  0  0  0
 60 62  1  0  0  0  0
 61 65  1  0  0  0  0
 61 68  1  0  0  0  0
 62 83  1  0  0  0  0
 63 66  1  0  0  0  0
 63 75  1  0  0  0  0
 64 76  1  0  0  0  0
 67 69  1  0  0  0  0
M  CHG  1  76   1
M  ISO  4  35 100  62 101  65 100  83 101
M  END
> <Batch ID>
0074

> <Smiles>
CNC(C)C(=O)NC(C(=O)N1Cc2cc([101O:1][101CH2:1]CCCCc3cn(C[100C:0](C)(C)[100C:0](=O)N4CCCC(n5nc(-c6ccc(Oc7ccc(F)cc7F)cc6)c(C(N)=O)c5N)C4)cc3C)ccc2CC1C(=O)NC1CCCc2ccccc21)C(C)(C)C

> <Shape>
0.199

> <Color>
0.095

> <Negative vol penalty>
0.000

$$$$

  -OEChem-04052318293D

 86 94  0     1  0  0  0  0  0999 V2000
  -20.9477  -20.4442   23.2645 C   0  0  0  0  0  0  0  0  0  0  0  0
  -22.3311  -20.5780   23.2038 C   0  0  0  0  0  0  0  0  0  0  0  0
  -24.4910  -14.6626   20.7946 C   0  0  0  0  0  0  0  0  0  0  0  0
  -26.8546  -14.4202   20.3566 C   0  0  0  0  0  0  0  0  0  0  0  0
  -20.1283  -21.4378   22.7305 C   0  0  0  0  0  0  0  0  0  0  0  0
  -22.8959  -21.7051   22.6079 C   0  0  0  0  0  0  0  0  0  0  0  0
  -28.0560  -24.5535   24.2712 C   0  0  0  0  0  0  0  0  0  0  0  0
  -24.4388  -13.3431   21.2436 C   0  0  0  0  0  0  0  0  0  0  0  0
  -26.8024  -13.1006   20.8057 C   0  0  0  0  0  0  0  0  0  0  0  0
  -29.3605  -24.4918   23.7834 C   0  0  0  0  0  0  0  0  0  0  0  0
  -24.3259  -10.2517   19.8816 C   0  0  0  0  0  0  0  0  0  0  0  0
  -23.2695   -9.4574   19.4357 C   0  0  0  0  0  0  0  0  0  0  0  0
  -28.9382  -26.4398   22.4247 C   0  0  0  0  0  0  0  0  0  0  0  0
  -22.5517   -9.1301   21.7193 C   0  0  0  0  0  0  0  0  0  0  0  0
  -25.6989  -15.2012   20.3510 C   0  0  0  0  0  0  0  0  0  0  0  0
  -26.0139  -17.7143   20.6551 C   0  0  0  0  0  0  0  0  0  0  0  0
  -20.6832  -22.5822   22.1364 C   0  0  0  0  0  0  0  0  0  0  0  0
  -27.1778  -25.5540   23.8305 C   0  0  0  0  0  0  0  0  0  0  0  0
  -22.0831  -22.7143   22.0642 C   0  0  0  0  0  0  0  0  0  0  0  0
  -27.6238  -26.5136   22.9104 C   0  0  0  0  0  0  0  0  0  0  0  0
  -25.5945  -12.5620   21.2491 C   0  0  0  0  0  0  0  0  0  0  0  0
  -29.8010  -25.4333   22.8578 C   0  0  0  0  0  0  0  0  0  0  0  0
  -24.4953  -10.4851   21.2464 C   0  0  0  0  0  0  0  0  0  0  0  0
  -22.3824   -8.8967   20.3545 C   0  0  0  0  0  0  0  0  0  0  0  0
  -23.6081   -9.9243   22.1652 C   0  0  0  0  0  0  0  0  0  0  0  0
  -25.7533  -16.5641   19.8866 C   0  0  0  0  0  0  0  0  0  0  0  0
  -29.5089  -25.0940   18.5517 C   0  0  0  0  0  0  0  0  0  0  0  0
  -28.7572  -23.9712   18.2836 C   0  0  0  0  0  0  0  0  0  0  0  0
  -30.1133  -22.7371   19.6504 C   0  0  0  0  0  0  0  0  0  0  0  0
  -30.8654  -23.8598   19.9178 C   0  0  0  0  0  0  0  0  0  0  0  0
  -25.9541  -18.7498   19.7547 C   0  0  0  0  0  0  0  0  0  0  0  0
  -26.2858  -17.8360   22.0576 C   0  0  0  0  0  0  0  0  0  0  0  0
  -24.4063  -25.5799   22.2743 C   0  0  0  0  0  0  0  0  0  0  0  0
  -24.5282  -28.7599   22.9031 C   0  0  0  0  0  0  0  0  0  0  0  0
  -26.4319  -31.5019   23.6132 C   0  0  0  0  0  0  0  0  0  0  0  0
  -27.2080  -20.9549   14.7838 C   0  0  0  0  0  0  0  0  0  0  0  0
  -19.7574  -23.6071   21.5305 C   0  0  0  0  0  0  0  0  0  0  0  0
  -25.7820  -25.6228   24.3866 C   0  0  0  0  0  0  0  0  0  0  0  0
  -26.7266  -27.6198   22.4207 C   0  0  0  0  0  0  0  0  0  0  0  0
  -20.4321  -24.9476   21.2508 C   0  0  0  0  0  0  0  0  0  0  0  0
  -24.3373  -18.8564   14.9629 C   0  0  0  0  0  0  0  0  0  0  0  0
  -21.7748  -24.7352   20.5586 C   0  0  0  0  0  0  0  0  0  0  0  0
  -24.4747  -18.1637   16.3198 C   0  0  0  0  0  0  0  0  0  0  0  0
  -25.6942  -19.0569   14.2916 C   0  0  0  0  0  0  0  0  0  0  0  0
  -26.8353  -19.0592   16.4760 C   0  0  0  0  0  0  0  0  0  0  0  0
  -22.7333  -23.9341   21.4479 C   0  0  1  0  0  0  0  0  0  0  0  0
  -24.8143  -26.3778   23.4804 C   0  0  1  0  0  0  0  0  0  0  0  0
  -25.4984  -18.8854   17.2167 C   0  0  2  0  0  0  0  0  0  0  0  0
  -29.1794  -26.4139   17.9428 C   0  0  0  0  0  0  0  0  0  0  0  0
  -29.6936  -20.2658   19.5935 C   0  0  0  0  0  0  0  0  0  0  0  0
  -26.2522  -33.9690   24.0354 C   0  0  0  0  0  0  0  0  0  0  0  0
  -32.9089  -24.0716   23.1970 C   0  0  0  0  0  0  0  0  0  0  0  0
  -24.1224  -29.2388   19.9172 C   0  0  0  0  0  0  0  0  0  0  0  0
  -24.8918  -31.5962   20.2617 C   0  0  0  0  0  0  0  0  0  0  0  0
  -22.8313  -30.7788   21.4056 C   0  0  0  0  0  0  0  0  0  0  0  0
  -27.5582  -31.2354   26.3371 C   0  0  0  0  0  0  0  0  0  0  0  0
  -30.4429  -21.4174   20.2597 C   0  0  0  0  0  0  0  0  0  0  0  0
  -27.5794  -24.0240   17.3717 C   0  0  0  0  0  0  0  0  0  0  0  0
  -32.0598  -23.8061   20.8408 C   0  0  0  0  0  0  0  0  0  0  0  0
  -27.9322  -24.0107   15.8708 C   0  0  0  0  0  0  0  0  0  0  0  0
  -28.7436  -22.7953   15.4272 C   0  0  0  0  0  0  0  0  0  0  0  0
  -25.0920  -29.9686   22.1961 C   0  0  1  0  0  0  0  0  0  0  0  0
  -26.2841  -32.5855   24.6660 C   0  0  2  0  0  0  0  0  0  0  0  0
  -31.6786  -24.0850   22.2987 C   0  0  2  0  0  0  0  0  0  1  0  0
  -24.2509  -30.3737   20.9527 C   0  0  0  0  0  0  0  0  0  0  0  0
  -25.5434  -16.8421   18.5971 N   0  0  0  0  0  0  0  0  0  0  0  0
  -30.5765  -25.0584   19.3735 N   0  0  0  0  0  0  0  0  0  0  0  0
  -29.0459  -22.7726   18.8282 N   0  0  0  0  0  0  0  0  0  0  0  0
  -25.6720  -18.1790   18.5485 N   0  0  0  0  0  0  0  0  0  0  0  0
  -25.3687  -27.6409   22.9892 N   0  0  0  0  0  0  0  0  0  0  0  0
  -26.6180  -19.7481   15.1942 N   0  0  0  0  0  0  0  0  0  0  0  0
  -26.1157  -20.0837   19.8849 N   0  0  0  0  0  0  0  0  0  0  0  0
  -26.3100  -16.6714   22.8370 N   0  0  0  0  0  0  0  0  0  0  0  0
  -23.2963  -24.7821   22.4766 N   0  0  0  0  0  0  0  0  0  0  0  0
  -25.2078  -31.0152   23.2059 N   0  0  0  0  0  0  0  0  0  0  0  0
  -28.0661  -21.5478   15.7019 N   0  0  0  0  0  0  0  0  0  0  0  0
  -27.4222  -32.5331   25.6267 N   0  3  0  0  0  0  0  0  0  0  0  0
  -26.4846  -18.9463   22.6065 O   0  0  0  0  0  0  0  0  0  0  0  0
  -25.0500  -25.6818   21.2365 O   0  0  0  0  0  0  0  0  0  0  0  0
  -23.3869  -28.8091   23.3684 O   0  0  0  0  0  0  0  0  0  0  0  0
  -27.5239  -31.1274   23.1915 O   0  0  0  0  0  0  0  0  0  0  0  0
  -26.9823  -21.4689   13.6829 O   0  0  0  0  0  0  0  0  0  0  0  0
  -25.5441  -11.2745   21.6874 O   0  0  0  0  0  0  0  0  0  0  0  0
  -31.0736  -25.3749   22.3795 O   0  0  0  0  0  0  0  0  0  1  0  0
  -21.3671   -8.1353   19.9260 F   0  0  0  0  0  0  0  0  0  0  0  0
  -23.7650  -10.1460   23.4774 F   0  0  0  0  0  0  0  0  0  0  0  0
  1  2  1  0  0  0  0
  1  5  2  0  0  0  0
  2  6  2  0  0  0  0
  3  8  2  0  0  0  0
  3 15  1  0  0  0  0
  4  9  1  0  0  0  0
  4 15  2  0  0  0  0
  5 17  1  0  0  0  0
  6 19  1  0  0  0  0
  7 10  2  0  0  0  0
  7 18  1  0  0  0  0
  8 21  1  0  0  0  0
  9 21  2  0  0  0  0
 10 22  1  0  0  0  0
 11 12  2  0  0  0  0
 11 23  1  0  0  0  0
 12 24  1  0  0  0  0
 13 20  1  0  0  0  0
 13 22  2  0  0  0  0
 14 24  2  0  0  0  0
 14 25  1  0  0  0  0
 15 26  1  0  0  0  0
 16 26  1  0  0  0  0
 16 31  2  0  0  0  0
 16 32  1  0  0  0  0
 17 19  2  0  0  0  0
 17 37  1  0  0  0  0
 18 20  2  0  0  0  0
 18 38  1  0  0  0  0
 19 46  1  0  0  0  0
 20 39  1  0  0  0  0
 21 83  1  0  0  0  0
 22 84  1  0  0  0  0
 23 25  2  0  0  0  0
 23 83  1  0  0  0  0
 24 85  1  0  0  0  0
 25 86  1  0  0  0  0
 26 66  2  0  0  0  0
 27 28  1  0  0  0  0
 27 49  1  0  0  0  0
 27 67  2  0  0  0  0
 28 58  1  0  0  0  0
 28 68  2  0  0  0  0
 29 30  2  0  0  0  0
 29 57  1  0  0  0  0
 29 68  1  0  0  0  0
 30 59  1  0  0  0  0
 30 67  1  0  0  0  0
 31 69  1  0  0  0  0
 31 72  1  0  0  0  0
 32 73  1  0  0  0  0
 32 78  2  0  0  0  0
 33 47  1  0  0  0  0
 33 74  1  0  0  0  0
 33 79  2  0  0  0  0
 34 62  1  0  0  0  0
 34 70  1  0  0  0  0
 34 80  2  0  0  0  0
 35 63  1  0  0  0  0
 35 75  1  0  0  0  0
 35 81  2  0  0  0  0
 36 71  1  0  0  0  0
 36 76  1  0  0  0  0
 36 82  2  0  0  0  0
 37 40  1  0  0  0  0
 38 47  1  0  0  0  0
 39 70  1  0  0  0  0
 40 42  1  0  0  0  0
 41 43  1  0  0  0  0
 41 44  1  0  0  0  0
 42 46  1  0  0  0  0
 43 48  1  0  0  0  0
 44 71  1  0  0  0  0
 45 48  1  0  0  0  0
 45 71  1  0  0  0  0
 46 74  1  0  0  0  0
 47 70  1  0  0  0  0
 48 69  1  0  0  0  0
 50 57  1  0  0  0  0
 51 63  1  0  0  0  0
 52 64  1  0  0  0  0
 53 65  1  0  0  0  0
 54 65  1  0  0  0  0
 55 65  1  0  0  0  0
 56 77  1  0  0  0  0
 58 60  1  0  0  0  0
 59 64  1  0  0  0  0
 60 61  1  0  0  0  0
 61 76  1  0  0  0  0
 62 65  1  0  0  0  0
 62 75  1  0  0  0  0
 63 77  1  0  0  0  0
 64 84  1  0  0  0  0
 66 69  1  0  0  0  0
M  CHG  1  77   1
M  ISO  4  36 100  64 101  76 100  84 101
M  END
> <Batch ID>
0074

> <Smiles>
CCc1nc(CCC[100NH:0][100C:0](=O)N2CCCC(n3nc(-c4ccc(Oc5ccc(F)cc5F)cc4)c(C(N)=O)c3N)C2)c(C)nc1C[101CH:1](C)[101O:1]c1ccc2c(c1)CN(C(=O)C(NC(=O)C(C)NC)C(C)(C)C)C(C(=O)NC1CCCc3ccccc31)C2

> <Shape>
0.200

> <Color>
0.073

> <Negative vol penalty>
0.000

$$$$

  -OEChem-04052318293D

 86 94  0     1  0  0  0  0  0999 V2000
  -16.2245  -30.2032   23.9672 C   0  0  0  0  0  0  0  0  0  0  0  0
  -16.3073  -29.2596   22.9483 C   0  0  0  0  0  0  0  0  0  0  0  0
  -28.9242  -25.5216   18.5671 C   0  0  0  0  0  0  0  0  0  0  0  0
  -31.1912  -24.7035   18.7358 C   0  0  0  0  0  0  0  0  0  0  0  0
  -17.3761  -30.5946   24.6487 C   0  0  0  0  0  0  0  0  0  0  0  0
  -17.5422  -28.7077   22.6095 C   0  0  0  0  0  0  0  0  0  0  0  0
  -18.6456  -21.5974   22.9527 C   0  0  0  0  0  0  0  0  0  0  0  0
  -29.3116  -26.7192   19.1679 C   0  0  0  0  0  0  0  0  0  0  0  0
  -31.5787  -25.9012   19.3366 C   0  0  0  0  0  0  0  0  0  0  0  0
  -18.8710  -20.2303   22.7903 C   0  0  0  0  0  0  0  0  0  0  0  0
  -29.9612  -27.8439   22.2884 C   0  0  0  0  0  0  0  0  0  0  0  0
  -29.1420  -28.3588   23.2930 C   0  0  0  0  0  0  0  0  0  0  0  0
  -21.1619  -20.6725   22.1547 C   0  0  0  0  0  0  0  0  0  0  0  0
  -28.8089  -30.3672   21.9921 C   0  0  0  0  0  0  0  0  0  0  0  0
  -26.9148  -13.0526   20.1436 C   0  0  0  0  0  0  0  0  0  0  0  0
  -29.8640  -24.5136   18.3510 C   0  0  0  0  0  0  0  0  0  0  0  0
  -29.4590  -22.9773   16.3552 C   0  0  0  0  0  0  0  0  0  0  0  0
  -18.6243  -30.0400   24.3246 C   0  0  0  0  0  0  0  0  0  0  0  0
  -19.6832  -22.5073   22.7314 C   0  0  0  0  0  0  0  0  0  0  0  0
  -18.7119  -29.0930   23.2864 C   0  0  0  0  0  0  0  0  0  0  0  0
  -20.9456  -22.0422   22.3279 C   0  0  0  0  0  0  0  0  0  0  0  0
  -30.6389  -26.9091   19.5527 C   0  0  0  0  0  0  0  0  0  0  0  0
  -20.1259  -19.7691   22.3920 C   0  0  0  0  0  0  0  0  0  0  0  0
  -30.2044  -28.5907   21.1356 C   0  0  0  0  0  0  0  0  0  0  0  0
  -28.5658  -29.6205   23.1449 C   0  0  0  0  0  0  0  0  0  0  0  0
  -29.6282  -29.8523   20.9874 C   0  0  0  0  0  0  0  0  0  0  0  0
  -29.4642  -23.2760   17.7309 C   0  0  0  0  0  0  0  0  0  0  0  0
  -26.6192  -14.3959   20.0681 C   0  0  0  0  0  0  0  0  0  0  0  0
  -24.7759  -12.6203   20.8275 C   0  0  0  0  0  0  0  0  0  0  0  0
  -24.4804  -13.9637   20.7527 C   0  0  0  0  0  0  0  0  0  0  0  0
  -28.9987  -21.6851   16.2862 C   0  0  0  0  0  0  0  0  0  0  0  0
  -29.8365  -23.7948   15.2395 C   0  0  0  0  0  0  0  0  0  0  0  0
  -20.7907  -26.0919   22.7166 C   0  0  0  0  0  0  0  0  0  0  0  0
  -23.0956  -24.4520   23.9034 C   0  0  0  0  0  0  0  0  0  0  0  0
  -29.1638  -17.2761   20.2623 C   0  0  0  0  0  0  0  0  0  0  0  0
  -25.2225  -22.3472   25.5417 C   0  0  0  0  0  0  0  0  0  0  0  0
  -19.8484  -30.5292   25.0574 C   0  0  0  0  0  0  0  0  0  0  0  0
  -19.4688  -23.9930   22.8346 C   0  0  0  0  0  0  0  0  0  0  0  0
  -22.0223  -23.0600   22.0675 C   0  0  0  0  0  0  0  0  0  0  0  0
  -21.0628  -29.6197   24.8897 C   0  0  0  0  0  0  0  0  0  0  0  0
  -26.2044  -18.5690   18.5896 C   0  0  0  0  0  0  0  0  0  0  0  0
  -21.2430  -29.2345   23.4247 C   0  0  0  0  0  0  0  0  0  0  0  0
  -26.7076  -19.9179   18.0774 C   0  0  0  0  0  0  0  0  0  0  0  0
  -26.8235  -18.2146   19.9391 C   0  0  0  0  0  0  0  0  0  0  0  0
  -28.8231  -19.5803   19.4279 C   0  0  0  0  0  0  0  0  0  0  0  0
  -20.0296  -28.4531   22.9065 C   0  0  1  0  0  0  0  0  0  0  0  0
  -20.7003  -24.7446   23.3709 C   0  0  1  0  0  0  0  0  0  0  0  0
  -28.2456  -19.9606   18.0543 C   0  0  2  0  0  0  0  0  0  0  0  0
  -23.9466  -10.2680   20.5718 C   0  0  0  0  0  0  0  0  0  0  0  0
  -27.4347  -22.3117   26.7257 C   0  0  0  0  0  0  0  0  0  0  0  0
  -29.6872  -15.0382   21.1144 C   0  0  0  0  0  0  0  0  0  0  0  0
  -27.7369  -16.3010   22.0363 C   0  0  0  0  0  0  0  0  0  0  0  0
  -24.5321  -24.5652   21.2150 C   0  0  0  0  0  0  0  0  0  0  0  0
  -26.5506  -23.5933   22.3328 C   0  0  0  0  0  0  0  0  0  0  0  0
  -25.6710  -25.8115   23.0600 C   0  0  0  0  0  0  0  0  0  0  0  0
  -23.9796  -21.4778   28.0830 C   0  0  0  0  0  0  0  0  0  0  0  0
  -27.6566  -15.3748   19.6422 C   0  0  0  0  0  0  0  0  0  0  0  0
  -23.7532  -11.6219   21.2506 C   0  0  0  0  0  0  0  0  0  0  0  0
  -23.1084  -14.4871   21.0954 C   0  0  0  0  0  0  0  0  0  0  0  0
  -23.0535  -16.0081   21.2767 C   0  0  0  0  0  0  0  0  0  0  0  0
  -21.6724  -16.5112   21.6990 C   0  0  0  0  0  0  0  0  0  0  0  0
  -21.6460  -18.0280   21.8304 C   0  0  0  0  0  0  0  0  0  1  0  0
  -24.3861  -23.7151   23.6485 C   0  0  1  0  0  0  0  0  0  0  0  0
  -25.9301  -22.4702   26.8791 C   0  0  2  0  0  0  0  0  0  0  0  0
  -28.5391  -15.9990   20.7649 C   0  0  0  0  0  0  0  0  0  0  0  0
  -25.2599  -24.4077   22.5650 C   0  0  0  0  0  0  0  0  0  0  0  0
  -25.9984  -12.1407   20.5246 N   0  0  0  0  0  0  0  0  0  0  0  0
  -29.0407  -22.2557   18.4817 N   0  0  0  0  0  0  0  0  0  0  0  0
  -25.3967  -14.8756   20.3713 N   0  0  0  0  0  0  0  0  0  0  0  0
  -28.7650  -21.3033   17.5745 N   0  0  0  0  0  0  0  0  0  0  0  0
  -21.9971  -24.0963   23.1115 N   0  0  0  0  0  0  0  0  0  0  0  0
  -28.2881  -18.2937   19.8828 N   0  0  0  0  0  0  0  0  0  0  0  0
  -28.7751  -20.8495   15.2497 N   0  0  0  0  0  0  0  0  0  0  0  0
  -30.2876  -25.0982   15.4885 N   0  0  0  0  0  0  0  0  0  0  0  0
  -20.0778  -27.0816   23.3659 N   0  0  0  0  0  0  0  0  0  0  0  0
  -25.0403  -23.5770   24.9452 N   0  0  0  0  0  0  0  0  0  0  0  0
  -25.4411  -21.4248   27.8219 N   0  3  0  0  0  0  0  0  0  0  0  0
  -29.7602  -23.3873   14.0556 O   0  0  0  0  0  0  0  0  0  0  0  0
  -21.4591  -26.2254   21.6982 O   0  0  0  0  0  0  0  0  0  0  0  0
  -23.0611  -25.3237   24.7765 O   0  0  0  0  0  0  0  0  0  0  0  0
  -30.3931  -17.3638   20.2067 O   0  0  0  0  0  0  0  0  0  0  0  0
  -24.8701  -21.2678   25.0713 O   0  0  0  0  0  0  0  0  0  0  0  0
  -31.0173  -28.0777   20.1388 O   0  0  0  0  0  0  0  0  0  0  0  0
  -20.3403  -18.4328   22.2397 O   0  0  0  0  0  0  0  0  0  1  0  0
  -27.7779  -30.1142   24.1090 F   0  0  0  0  0  0  0  0  0  0  0  0
  -29.8573  -30.5739   19.8817 F   0  0  0  0  0  0  0  0  0  0  0  0
  1  2  1  0  0  0  0
  1  5  2  0  0  0  0
  2  6  2  0  0  0  0
  3  8  2  0  0  0  0
  3 16  1  0  0  0  0
  4  9  1  0  0  0  0
  4 16  2  0  0  0  0
  5 18  1  0  0  0  0
  6 20  1  0  0  0  0
  7 10  2  0  0  0  0
  7 19  1  0  0  0  0
  8 22  1  0  0  0  0
  9 22  2  0  0  0  0
 10 23  1  0  0  0  0
 11 12  2  0  0  0  0
 11 24  1  0  0  0  0
 12 25  1  0  0  0  0
 13 21  1  0  0  0  0
 13 23  2  0  0  0  0
 14 25  2  0  0  0  0
 14 26  1  0  0  0  0
 15 28  1  0  0  0  0
 15 67  2  0  0  0  0
 16 27  1  0  0  0  0
 17 27  1  0  0  0  0
 17 31  2  0  0  0  0
 17 32  1  0  0  0  0
 18 20  2  0  0  0  0
 18 37  1  0  0  0  0
 19 21  2  0  0  0  0
 19 38  1  0  0  0  0
 20 46  1  0  0  0  0
 21 39  1  0  0  0  0
 22 83  1  0  0  0  0
 23 84  1  0  0  0  0
 24 26  2  0  0  0  0
 24 83  1  0  0  0  0
 25 85  1  0  0  0  0
 26 86  1  0  0  0  0
 27 68  2  0  0  0  0
 28 57  1  0  0  0  0
 28 69  2  0  0  0  0
 29 30  2  0  0  0  0
 29 58  1  0  0  0  0
 29 67  1  0  0  0  0
 30 59  1  0  0  0  0
 30 69  1  0  0  0  0
 31 70  1  0  0  0  0
 31 73  1  0  0  0  0
 32 74  1  0  0  0  0
 32 78  2  0  0  0  0
 33 47  1  0  0  0  0
 33 75  1  0  0  0  0
 33 79  2  0  0  0  0
 34 63  1  0  0  0  0
 34 71  1  0  0  0  0
 34 80  2  0  0  0  0
 35 65  1  0  0  0  0
 35 72  1  0  0  0  0
 35 81  2  0  0  0  0
 36 64  1  0  0  0  0
 36 76  1  0  0  0  0
 36 82  2  0  0  0  0
 37 40  1  0  0  0  0
 38 47  1  0  0  0  0
 39 71  1  0  0  0  0
 40 42  1  0  0  0  0
 41 43  1  0  0  0  0
 41 44  1  0  0  0  0
 42 46  1  0  0  0  0
 43 48  1  0  0  0  0
 44 72  1  0  0  0  0
 45 48  1  0  0  0  0
 45 72  1  0  0  0  0
 46 75  1  0  0  0  0
 47 71  1  0  0  0  0
 48 70  1  0  0  0  0
 49 58  1  0  0  0  0
 50 64  1  0  0  0  0
 51 65  1  0  0  0  0
 52 65  1  0  0  0  0
 53 66  1  0  0  0  0
 54 66  1  0  0  0  0
 55 66  1  0  0  0  0
 56 77  1  0  0  0  0
 57 65  1  0  0  0  0
 59 60  1  0  0  0  0
 60 61  1  0  0  0  0
 61 62  1  0  0  0  0
 62 84  1  0  0  0  0
 63 66  1  0  0  0  0
 63 76  1  0  0  0  0
 64 77  1  0  0  0  0
 68 70  1  0  0  0  0
M  CHG  1  77   1
M  ISO  4  35 100  62 101  65 100  84 101
M  END
> <Batch ID>
0074

> <Smiles>
CCc1ncc(C[100C:0](C)(C)[100C:0](=O)N2CCCC(n3nc(-c4ccc(Oc5ccc(F)cc5F)cc4)c(C(N)=O)c3N)C2)nc1CCC[101CH2:1][101O:1]c1ccc2c(c1)CN(C(=O)C(NC(=O)C(C)NC)C(C)(C)C)C(C(=O)NC1CCCc3ccccc31)C2

> <Shape>
0.226

> <Color>
0.080

> <Negative vol penalty>
0.000

$$$$

  -OEChem-04052318293D

 84 92  0     1  0  0  0  0  0999 V2000
  -36.1183  -30.1371   25.2147 C   0  0  0  0  0  0  0  0  0  0  0  0
  -35.0863  -29.9918   24.2945 C   0  0  0  0  0  0  0  0  0  0  0  0
  -23.2873   -9.7934   19.9057 C   0  0  0  0  0  0  0  0  0  0  0  0
  -23.7132   -9.9339   22.2796 C   0  0  0  0  0  0  0  0  0  0  0  0
  -37.2065  -29.2677   25.1789 C   0  0  0  0  0  0  0  0  0  0  0  0
  -35.1363  -28.9698   23.3459 C   0  0  0  0  0  0  0  0  0  0  0  0
  -29.6737  -26.1666   20.0495 C   0  0  0  0  0  0  0  0  0  0  0  0
  -22.5542   -8.6238   20.1064 C   0  0  0  0  0  0  0  0  0  0  0  0
  -22.9801   -8.7643   22.4804 C   0  0  0  0  0  0  0  0  0  0  0  0
  -28.6157  -25.6730   19.2858 C   0  0  0  0  0  0  0  0  0  0  0  0
  -19.7274   -7.8661   22.6636 C   0  0  0  0  0  0  0  0  0  0  0  0
  -18.8136   -7.8486   23.7173 C   0  0  0  0  0  0  0  0  0  0  0  0
  -30.1374  -24.2134   18.1017 C   0  0  0  0  0  0  0  0  0  0  0  0
  -20.0015   -5.9974   24.7168 C   0  0  0  0  0  0  0  0  0  0  0  0
  -28.7994  -17.0322   17.3826 C   0  0  0  0  0  0  0  0  0  0  0  0
  -23.8669  -10.4484   20.9923 C   0  0  0  0  0  0  0  0  0  0  0  0
  -24.1382  -12.9772   20.7948 C   0  0  0  0  0  0  0  0  0  0  0  0
  -37.2750  -28.2425   24.2211 C   0  0  0  0  0  0  0  0  0  0  0  0
  -30.9666  -25.6737   19.8526 C   0  0  0  0  0  0  0  0  0  0  0  0
  -36.2146  -28.0673   23.3088 C   0  0  0  0  0  0  0  0  0  0  0  0
  -31.1990  -24.6950   18.8723 C   0  0  0  0  0  0  0  0  0  0  0  0
  -22.4005   -8.1093   21.3937 C   0  0  0  0  0  0  0  0  0  0  0  0
  -28.8471  -24.6990   18.3142 C   0  0  0  0  0  0  0  0  0  0  0  0
  -20.7782   -6.9491   22.6364 C   0  0  0  0  0  0  0  0  0  0  0  0
  -18.9507   -6.9143   24.7439 C   0  0  0  0  0  0  0  0  0  0  0  0
  -20.9153   -6.0148   23.6631 C   0  0  0  0  0  0  0  0  0  0  0  0
  -24.6248  -11.6562   20.7855 C   0  0  0  0  0  0  0  0  0  0  0  0
  -28.9167  -15.6969   17.1181 C   0  0  0  0  0  0  0  0  0  0  0  0
  -25.2454  -13.7526   20.5511 C   0  0  0  0  0  0  0  0  0  0  0  0
  -27.2138  -16.4797   15.9399 C   0  0  0  0  0  0  0  0  0  0  0  0
  -22.8047  -13.4602   21.0051 C   0  0  0  0  0  0  0  0  0  0  0  0
  -29.9022  -14.7570   17.6679 C   0  0  0  0  0  0  0  0  0  0  0  0
  -34.5757  -25.7784   20.8721 C   0  0  0  0  0  0  0  0  0  0  0  0
  -33.8714  -22.8320   20.3889 C   0  0  0  0  0  0  0  0  0  0  0  0
  -32.4849  -20.0200   20.6586 C   0  0  0  0  0  0  0  0  0  0  0  0
  -38.4722  -27.3250   24.2325 C   0  0  0  0  0  0  0  0  0  0  0  0
  -32.1463  -26.2206   20.6097 C   0  0  0  0  0  0  0  0  0  0  0  0
  -32.6119  -24.2192   18.6714 C   0  0  0  0  0  0  0  0  0  0  0  0
  -38.6488  -26.5619   22.9238 C   0  0  0  0  0  0  0  0  0  0  0  0
  -30.1610  -12.5657   20.4738 C   0  0  0  0  0  0  0  0  0  0  0  0
  -37.3326  -25.9166   22.5166 C   0  0  0  0  0  0  0  0  0  0  0  0
  -28.7051  -12.2246   20.7962 C   0  0  0  0  0  0  0  0  0  0  0  0
  -30.3859  -12.7131   18.9710 C   0  0  0  0  0  0  0  0  0  0  0  0
  -28.0188  -13.3326   18.6278 C   0  0  0  0  0  0  0  0  0  0  0  0
  -36.2620  -26.9820   22.2485 C   0  0  1  0  0  0  0  0  0  0  0  0
  -33.2121  -25.1540   20.9187 C   0  0  1  0  0  0  0  0  0  0  0  0
  -27.7383  -13.2253   20.1357 C   0  0  1  0  0  0  0  0  0  0  0  0
  -26.0566  -16.5432   15.0134 C   0  0  0  0  0  0  0  0  0  0  0  0
  -24.9369  -18.9303   19.7990 C   0  0  0  0  0  0  0  0  0  0  0  0
  -31.7730  -17.6230   20.8708 C   0  0  0  0  0  0  0  0  0  0  0  0
  -35.2049  -22.9847   17.6499 C   0  0  0  0  0  0  0  0  0  0  0  0
  -34.9752  -20.4975   17.4781 C   0  0  0  0  0  0  0  0  0  0  0  0
  -36.3636  -21.4977   19.2933 C   0  0  0  0  0  0  0  0  0  0  0  0
  -32.9194  -20.0291   23.5860 C   0  0  0  0  0  0  0  0  0  0  0  0
  -26.1788  -18.7752   18.9318 C   0  0  0  0  0  0  0  0  0  0  0  0
  -26.3148  -21.6963   17.8216 C   0  0  0  0  0  0  0  0  0  0  0  0
  -25.6792  -23.0750   17.6082 C   0  0  0  0  0  0  0  0  0  0  0  0
  -25.4290  -20.5877   17.2425 C   0  0  0  0  0  0  0  0  0  0  0  0
  -27.2433  -18.9179   16.6198 C   0  0  0  0  0  0  0  0  0  0  0  0
  -26.5250  -24.1974   18.1975 C   0  0  0  0  0  0  0  0  0  1  0  0
  -33.8449  -21.6810   19.4154 C   0  0  1  0  0  0  0  0  0  0  0  0
  -32.6124  -18.7418   21.4676 C   0  0  2  0  0  0  0  0  0  0  0  0
  -25.9566  -19.1481   17.4491 C   0  0  1  0  0  0  0  0  0  0  0  0
  -35.0743  -21.6816   18.4635 C   0  0  0  0  0  0  0  0  0  0  0  0
  -25.9387  -11.5923   20.5540 N   0  0  0  0  0  0  0  0  0  0  0  0
  -27.7380  -17.4908   16.6402 N   0  0  0  0  0  0  0  0  0  0  0  0
  -26.2872  -12.8828   20.4156 N   0  0  0  0  0  0  0  0  0  0  0  0
  -27.9231  -15.3821   16.2226 N   0  3  0  0  0  0  0  0  0  0  0  0
  -29.4325  -13.6610   18.3957 N   0  0  0  0  0  0  0  0  0  0  0  0
  -33.2667  -24.0250   19.9745 N   0  0  0  0  0  0  0  0  0  0  0  0
  -25.4197  -15.0868   20.4416 N   0  0  0  0  0  0  0  0  0  0  0  0
  -21.7859  -12.5274   21.2423 N   0  0  0  0  0  0  0  0  0  0  0  0
  -34.9825  -26.3314   22.0713 N   0  0  0  0  0  0  0  0  0  0  0  0
  -33.7115  -20.4703   20.2183 N   0  0  0  0  0  0  0  0  0  0  0  0
  -32.1630  -18.9696   22.8702 N   0  3  0  0  0  0  0  0  0  0  0  0
  -22.5220  -14.6817   20.9669 O   0  0  0  0  0  0  0  0  0  0  0  0
  -31.0840  -15.0200   17.4507 O   0  0  0  0  0  0  0  0  0  0  0  0
  -35.2137  -25.7591   19.8260 O   0  0  0  0  0  0  0  0  0  0  0  0
  -34.4176  -22.6821   21.4855 O   0  0  0  0  0  0  0  0  0  0  0  0
  -31.4047  -20.5625   20.4360 O   0  0  0  0  0  0  0  0  0  0  0  0
  -21.6850   -6.9682   21.5900 O   0  0  0  0  0  0  0  0  0  0  0  0
  -27.8090  -24.2183   17.5753 O   0  0  0  0  0  0  0  0  0  1  0  0
  -18.0740   -6.8987   25.7566 F   0  0  0  0  0  0  0  0  0  0  0  0
  -21.9234   -5.1322   23.6430 F   0  0  0  0  0  0  0  0  0  0  0  0
  1  2  1  0  0  0  0
  1  5  2  0  0  0  0
  2  6  2  0  0  0  0
  3  8  2  0  0  0  0
  3 16  1  0  0  0  0
  4  9  1  0  0  0  0
  4 16  2  0  0  0  0
  5 18  1  0  0  0  0
  6 20  1  0  0  0  0
  7 10  2  0  0  0  0
  7 19  1  0  0  0  0
  8 22  1  0  0  0  0
  9 22  2  0  0  0  0
 10 23  1  0  0  0  0
 11 12  2  0  0  0  0
 11 24  1  0  0  0  0
 12 25  1  0  0  0  0
 13 21  1  0  0  0  0
 13 23  2  0  0  0  0
 14 25  2  0  0  0  0
 14 26  1  0  0  0  0
 15 28  2  0  0  0  0
 15 66  1  0  0  0  0
 16 27  1  0  0  0  0
 17 27  1  0  0  0  0
 17 29  2  0  0  0  0
 17 31  1  0  0  0  0
 18 20  2  0  0  0  0
 18 36  1  0  0  0  0
 19 21  2  0  0  0  0
 19 37  1  0  0  0  0
 20 45  1  0  0  0  0
 21 38  1  0  0  0  0
 22 81  1  0  0  0  0
 23 82  1  0  0  0  0
 24 26  2  0  0  0  0
 24 81  1  0  0  0  0
 25 83  1  0  0  0  0
 26 84  1  0  0  0  0
 27 65  2  0  0  0  0
 28 32  1  0  0  0  0
 28 68  1  0  0  0  0
 29 67  1  0  0  0  0
 29 71  1  0  0  0  0
 30 48  1  0  0  0  0
 30 66  1  0  0  0  0
 30 68  2  0  0  0  0
 31 72  1  0  0  0  0
 31 76  2  0  0  0  0
 32 69  1  0  0  0  0
 32 77  2  0  0  0  0
 33 46  1  0  0  0  0
 33 73  1  0  0  0  0
 33 78  2  0  0  0  0
 34 61  1  0  0  0  0
 34 70  1  0  0  0  0
 34 79  2  0  0  0  0
 35 62  1  0  0  0  0
 35 74  1  0  0  0  0
 35 80  2  0  0  0  0
 36 39  1  0  0  0  0
 37 46  1  0  0  0  0
 38 70  1  0  0  0  0
 39 41  1  0  0  0  0
 40 42  1  0  0  0  0
 40 43  1  0  0  0  0
 41 45  1  0  0  0  0
 42 47  1  0  0  0  0
 43 69  1  0  0  0  0
 44 47  1  0  0  0  0
 44 69  1  0  0  0  0
 45 73  1  0  0  0  0
 46 70  1  0  0  0  0
 47 67  1  0  0  0  0
 49 55  1  0  0  0  0
 50 62  1  0  0  0  0
 51 64  1  0  0  0  0
 52 64  1  0  0  0  0
 53 64  1  0  0  0  0
 54 75  1  0  0  0  0
 55 63  1  0  0  0  0
 56 57  1  0  0  0  0
 56 58  1  0  0  0  0
 57 60  1  0  0  0  0
 58 63  1  0  0  0  0
 59 63  1  0  0  0  0
 59 66  1  0  0  0  0
 60 82  1  0  0  0  0
 61 64  1  0  0  0  0
 61 74  1  0  0  0  0
 62 75  1  0  0  0  0
 65 67  1  0  0  0  0
M  CHG  2  68   1  75   1
M  ISO  4  28 100  32 100  60 101  82 101
M  END
> <Batch ID>
0074

> <Smiles>
CCC(CCC[101CH2:1][101O:1]c1ccc2c(c1)CN(C(=O)C(NC(=O)C(C)NC)C(C)(C)C)C(C(=O)NC1CCCc3ccccc31)C2)Cn1c[100c:0]([100C:0](=O)N2CCCC(n3nc(-c4ccc(Oc5ccc(F)cc5F)cc4)c(C(N)=O)c3N)C2)nc1C

> <Shape>
0.180

> <Color>
0.170

> <Negative vol penalty>
0.000

$$$$

  -OEChem-04052318293D

 83 91  0     1  0  0  0  0  0999 V2000
  -18.6362  -33.3105   23.5562 C   0  0  0  0  0  0  0  0  0  0  0  0
  -19.8545  -33.3356   22.8851 C   0  0  0  0  0  0  0  0  0  0  0  0
  -26.0557  -15.1137   22.7347 C   0  0  0  0  0  0  0  0  0  0  0  0
  -25.5146  -14.7434   20.4094 C   0  0  0  0  0  0  0  0  0  0  0  0
  -18.3008  -32.2138   24.3491 C   0  0  0  0  0  0  0  0  0  0  0  0
  -20.7388  -32.2644   23.0074 C   0  0  0  0  0  0  0  0  0  0  0  0
  -25.6690  -28.6415   19.2813 C   0  0  0  0  0  0  0  0  0  0  0  0
  -25.1435  -14.1254   23.1044 C   0  0  0  0  0  0  0  0  0  0  0  0
  -24.6024  -13.7551   20.7791 C   0  0  0  0  0  0  0  0  0  0  0  0
  -26.9908  -28.2091   19.3800 C   0  0  0  0  0  0  0  0  0  0  0  0
  -24.6943  -10.5154   21.7366 C   0  0  0  0  0  0  0  0  0  0  0  0
  -24.7078   -9.3210   21.0163 C   0  0  0  0  0  0  0  0  0  0  0  0
  -26.2710  -26.3325   20.7140 C   0  0  0  0  0  0  0  0  0  0  0  0
  -22.4097   -9.6868   20.3667 C   0  0  0  0  0  0  0  0  0  0  0  0
  -31.2772  -25.0726   17.9863 C   0  0  0  0  0  0  0  0  0  0  0  0
  -26.2412  -15.4228   21.3872 C   0  0  0  0  0  0  0  0  0  0  0  0
  -28.5498  -16.2739   20.7135 C   0  0  0  0  0  0  0  0  0  0  0  0
  -19.1773  -31.1243   24.4735 C   0  0  0  0  0  0  0  0  0  0  0  0
  -24.6379  -27.9275   19.9085 C   0  0  0  0  0  0  0  0  0  0  0  0
  -20.4155  -31.1527   23.8038 C   0  0  0  0  0  0  0  0  0  0  0  0
  -24.9367  -26.7566   20.6197 C   0  0  0  0  0  0  0  0  0  0  0  0
  -24.4169  -13.4460   22.1266 C   0  0  0  0  0  0  0  0  0  0  0  0
  -27.2923  -27.0561   20.0988 C   0  0  0  0  0  0  0  0  0  0  0  0
  -23.5384  -11.2955   21.7720 C   0  0  0  0  0  0  0  0  0  0  0  0
  -23.5655   -8.9067   20.3313 C   0  0  0  0  0  0  0  0  0  0  0  0
  -22.3961  -10.8812   21.0870 C   0  0  0  0  0  0  0  0  0  0  0  0
  -27.1830  -16.4440   21.0047 C   0  0  0  0  0  0  0  0  0  0  0  0
  -31.3558  -23.7090   17.9481 C   0  0  0  0  0  0  0  0  0  0  0  0
  -28.9954  -17.5366   20.4079 C   0  0  0  0  0  0  0  0  0  0  0  0
  -31.0666  -24.3179   20.0567 C   0  0  0  0  0  0  0  0  0  0  0  0
  -29.3454  -15.0812   20.7187 C   0  0  0  0  0  0  0  0  0  0  0  0
  -22.5197  -28.5819   22.1863 C   0  0  0  0  0  0  0  0  0  0  0  0
  -21.3599  -25.6544   21.4070 C   0  0  0  0  0  0  0  0  0  0  0  0
  -21.9406  -22.5720   20.0625 C   0  0  0  0  0  0  0  0  0  0  0  0
  -28.3477  -22.4274   17.7990 C   0  0  0  0  0  0  0  0  0  0  0  0
  -18.7915  -29.9821   25.3797 C   0  0  0  0  0  0  0  0  0  0  0  0
  -23.2141  -28.3923   19.7702 C   0  0  0  0  0  0  0  0  0  0  0  0
  -23.8637  -25.9429   21.2944 C   0  0  0  0  0  0  0  0  0  0  0  0
  -19.6225  -28.7210   25.1576 C   0  0  0  0  0  0  0  0  0  0  0  0
  -26.7610  -22.0406   20.9628 C   0  0  0  0  0  0  0  0  0  0  0  0
  -21.1059  -29.0667   25.0757 C   0  0  0  0  0  0  0  0  0  0  0  0
  -26.8366  -20.5361   21.2284 C   0  0  0  0  0  0  0  0  0  0  0  0
  -26.5331  -22.3417   19.4831 C   0  0  0  0  0  0  0  0  0  0  0  0
  -27.5765  -20.2061   18.8321 C   0  0  0  0  0  0  0  0  0  0  0  0
  -21.3906  -29.9988   23.8918 C   0  0  1  0  0  0  0  0  0  0  0  0
  -22.3052  -27.8720   20.8795 C   0  0  1  0  0  0  0  0  0  0  0  0
  -27.8613  -19.8539   20.3022 C   0  0  2  0  0  0  0  0  0  0  0  0
  -30.8913  -24.2476   21.5289 C   0  0  0  0  0  0  0  0  0  0  0  0
  -20.8098  -20.3802   19.5989 C   0  0  0  0  0  0  0  0  0  0  0  0
  -32.2898  -21.4285   17.1584 C   0  0  0  0  0  0  0  0  0  0  0  0
  -32.4161  -23.4254   15.6914 C   0  0  0  0  0  0  0  0  0  0  0  0
  -21.5784  -24.9198   24.3604 C   0  0  0  0  0  0  0  0  0  0  0  0
  -21.3619  -22.5129   23.7060 C   0  0  0  0  0  0  0  0  0  0  0  0
  -19.5000  -24.1043   23.2336 C   0  0  0  0  0  0  0  0  0  0  0  0
  -22.3641  -22.8381   17.1455 C   0  0  0  0  0  0  0  0  0  0  0  0
  -30.9575  -26.8348   19.8149 C   0  0  0  0  0  0  0  0  0  0  0  0
  -30.1874  -22.3529   16.1349 C   0  0  0  0  0  0  0  0  0  0  0  0
  -29.5754  -27.4170   19.5392 C   0  0  0  0  0  0  0  0  0  1  0  0
  -21.6242  -24.2419   21.8696 C   0  0  1  0  0  0  0  0  0  0  0  0
  -21.1633  -21.7529   19.0479 C   0  0  2  0  0  0  0  0  0  0  0  0
  -31.5419  -22.7811   16.8297 C   0  0  0  0  0  0  0  0  0  0  0  0
  -21.0368  -23.9609   23.2814 C   0  0  0  0  0  0  0  0  0  0  0  0
  -26.7865  -17.7146   20.8942 N   0  0  0  0  0  0  0  0  0  0  0  0
  -31.0977  -25.4218   19.3031 N   0  0  0  0  0  0  0  0  0  0  0  0
  -27.9108  -18.3545   20.5302 N   0  0  0  0  0  0  0  0  0  0  0  0
  -31.2226  -23.2687   19.2429 N   0  3  0  0  0  0  0  0  0  0  0  0
  -22.4877  -26.4418   21.1356 N   0  0  0  0  0  0  0  0  0  0  0  0
  -27.5390  -21.6667   18.6595 N   0  0  0  0  0  0  0  0  0  0  0  0
  -30.2053  -18.0161   20.0492 N   0  0  0  0  0  0  0  0  0  0  0  0
  -28.7291  -13.8684   21.0560 N   0  0  0  0  0  0  0  0  0  0  0  0
  -21.4045  -29.2517   22.6523 N   0  0  0  0  0  0  0  0  0  0  0  0
  -21.1086  -23.3664   20.8227 N   0  0  0  0  0  0  0  0  0  0  0  0
  -29.2796  -21.7102   17.0589 N   0  0  0  0  0  0  0  0  0  0  0  0
  -21.9668  -21.5683   17.8064 N   0  3  0  0  0  0  0  0  0  0  0  0
  -30.5703  -15.0931   20.4487 O   0  0  0  0  0  0  0  0  0  0  0  0
  -23.6153  -28.5249   22.7322 O   0  0  0  0  0  0  0  0  0  0  0  0
  -20.1954  -26.0426   21.2841 O   0  0  0  0  0  0  0  0  0  0  0  0
  -23.1632  -22.5102   20.1724 O   0  0  0  0  0  0  0  0  0  0  0  0
  -28.2503  -23.6554   17.7018 O   0  0  0  0  0  0  0  0  0  0  0  0
  -23.5268  -12.4814   22.4869 O   0  0  0  0  0  0  0  0  0  0  0  0
  -28.5817  -26.6322   20.1972 O   0  0  0  0  0  0  0  0  0  1  0  0
  -23.5792   -7.7605   19.6383 F   0  0  0  0  0  0  0  0  0  0  0  0
  -21.2831  -11.6269   21.1164 F   0  0  0  0  0  0  0  0  0  0  0  0
  1  2  1  0  0  0  0
  1  5  2  0  0  0  0
  2  6  2  0  0  0  0
  3  8  2  0  0  0  0
  3 16  1  0  0  0  0
  4  9  1  0  0  0  0
  4 16  2  0  0  0  0
  5 18  1  0  0  0  0
  6 20  1  0  0  0  0
  7 10  2  0  0  0  0
  7 19  1  0  0  0  0
  8 22  1  0  0  0  0
  9 22  2  0  0  0  0
 10 23  1  0  0  0  0
 11 12  2  0  0  0  0
 11 24  1  0  0  0  0
 12 25  1  0  0  0  0
 13 21  1  0  0  0  0
 13 23  2  0  0  0  0
 14 25  2  0  0  0  0
 14 26  1  0  0  0  0
 15 28  2  0  0  0  0
 15 64  1  0  0  0  0
 16 27  1  0  0  0  0
 17 27  1  0  0  0  0
 17 29  2  0  0  0  0
 17 31  1  0  0  0  0
 18 20  2  0  0  0  0
 18 36  1  0  0  0  0
 19 21  2  0  0  0  0
 19 37  1  0  0  0  0
 20 45  1  0  0  0  0
 21 38  1  0  0  0  0
 22 80  1  0  0  0  0
 23 81  1  0  0  0  0
 24 26  2  0  0  0  0
 24 80  1  0  0  0  0
 25 82  1  0  0  0  0
 26 83  1  0  0  0  0
 27 63  2  0  0  0  0
 28 61  1  0  0  0  0
 28 66  1  0  0  0  0
 29 65  1  0  0  0  0
 29 69  1  0  0  0  0
 30 48  1  0  0  0  0
 30 64  1  0  0  0  0
 30 66  2  0  0  0  0
 31 70  1  0  0  0  0
 31 75  2  0  0  0  0
 32 46  1  0  0  0  0
 32 71  1  0  0  0  0
 32 76  2  0  0  0  0
 33 59  1  0  0  0  0
 33 67  1  0  0  0  0
 33 77  2  0  0  0  0
 34 60  1  0  0  0  0
 34 72  1  0  0  0  0
 34 78  2  0  0  0  0
 35 68  1  0  0  0  0
 35 73  1  0  0  0  0
 35 79  2  0  0  0  0
 36 39  1  0  0  0  0
 37 46  1  0  0  0  0
 38 67  1  0  0  0  0
 39 41  1  0  0  0  0
 40 42  1  0  0  0  0
 40 43  1  0  0  0  0
 41 45  1  0  0  0  0
 42 47  1  0  0  0  0
 43 68  1  0  0  0  0
 44 47  1  0  0  0  0
 44 68  1  0  0  0  0
 45 71  1  0  0  0  0
 46 67  1  0  0  0  0
 47 65  1  0  0  0  0
 49 60  1  0  0  0  0
 50 61  1  0  0  0  0
 51 61  1  0  0  0  0
 52 62  1  0  0  0  0
 53 62  1  0  0  0  0
 54 62  1  0  0  0  0
 55 74  1  0  0  0  0
 56 58  1  0  0  0  0
 56 64  1  0  0  0  0
 57 61  1  0  0  0  0
 57 73  1  0  0  0  0
 58 81  1  0  0  0  0
 59 62  1  0  0  0  0
 59 72  1  0  0  0  0
 60 74  1  0  0  0  0
 63 65  1  0  0  0  0
M  CHG  2  66   1  74   1
M  ISO  4  35 100  58 101  73 100  81 101
M  END
> <Batch ID>
0074

> <Smiles>
CNC(C)C(=O)NC(C(=O)N1Cc2cc([101O:1][101CH2:1]Cn3cc(C(C)(C)C[100NH:0][100C:0](=O)N4CCCC(n5nc(-c6ccc(Oc7ccc(F)cc7F)cc6)c(C(N)=O)c5N)C4)nc3C)ccc2CC1C(=O)NC1CCCc2ccccc21)C(C)(C)C

> <Shape>
0.239

> <Color>
0.087

> <Negative vol penalty>
0.000

$$$$

  -OEChem-04052318293D

 85 93  0     1  0  0  0  0  0999 V2000
  -23.1358   -7.4080   24.2960 C   0  0  0  0  0  0  0  0  0  0  0  0
  -24.2619   -8.1875   24.5404 C   0  0  0  0  0  0  0  0  0  0  0  0
  -23.6870  -30.0569   20.5093 C   0  0  0  0  0  0  0  0  0  0  0  0
  -25.9515  -30.2180   21.3357 C   0  0  0  0  0  0  0  0  0  0  0  0
  -22.4871   -7.4891   23.0645 C   0  0  0  0  0  0  0  0  0  0  0  0
  -24.7406   -9.0478   23.5529 C   0  0  0  0  0  0  0  0  0  0  0  0
  -28.0058  -15.3750   22.7649 C   0  0  0  0  0  0  0  0  0  0  0  0
  -23.2441  -30.8495   21.5681 C   0  0  0  0  0  0  0  0  0  0  0  0
  -25.5086  -31.0108   22.3946 C   0  0  0  0  0  0  0  0  0  0  0  0
  -29.1093  -15.9462   22.1326 C   0  0  0  0  0  0  0  0  0  0  0  0
  -24.6229  -34.2343   22.8899 C   0  0  0  0  0  0  0  0  0  0  0  0
  -25.3619  -35.3772   23.1950 C   0  0  0  0  0  0  0  0  0  0  0  0
  -27.8610  -16.0618   20.0716 C   0  0  0  0  0  0  0  0  0  0  0  0
  -25.7681  -34.5213   25.4175 C   0  0  0  0  0  0  0  0  0  0  0  0
  -25.0407  -29.7410   20.3931 C   0  0  0  0  0  0  0  0  0  0  0  0
  -25.9302  -29.3583   18.0331 C   0  0  0  0  0  0  0  0  0  0  0  0
  -22.9524   -8.3580   22.0650 C   0  0  0  0  0  0  0  0  0  0  0  0
  -26.8233  -15.1325   22.0514 C   0  0  0  0  0  0  0  0  0  0  0  0
  -24.0983   -9.1396   22.3064 C   0  0  0  0  0  0  0  0  0  0  0  0
  -26.7430  -15.4897   20.6978 C   0  0  0  0  0  0  0  0  0  0  0  0
  -24.1549  -31.3265   22.5107 C   0  0  0  0  0  0  0  0  0  0  0  0
  -29.0380  -16.2870   20.7850 C   0  0  0  0  0  0  0  0  0  0  0  0
  -24.4564  -33.2348   23.8486 C   0  0  0  0  0  0  0  0  0  0  0  0
  -25.9345  -35.5208   24.4587 C   0  0  0  0  0  0  0  0  0  0  0  0
  -25.0291  -33.3783   25.1123 C   0  0  0  0  0  0  0  0  0  0  0  0
  -25.4987  -28.9217   19.2999 C   0  0  0  0  0  0  0  0  0  0  0  0
  -32.1496  -21.7357   19.5550 C   0  0  0  0  0  0  0  0  0  0  0  0
  -32.1796  -22.4699   18.3929 C   0  0  0  0  0  0  0  0  0  0  0  0
  -26.2571  -28.2037   17.3649 C   0  0  0  0  0  0  0  0  0  0  0  0
  -30.3613  -22.8900   19.5651 C   0  0  0  0  0  0  0  0  0  0  0  0
  -26.0269  -30.6887   17.5072 C   0  0  0  0  0  0  0  0  0  0  0  0
  -25.1475  -12.5373   21.3025 C   0  0  0  0  0  0  0  0  0  0  0  0
  -27.8986  -22.7638   19.3207 C   0  0  0  0  0  0  0  0  0  0  0  0
  -23.0413  -14.7101   20.1340 C   0  0  0  0  0  0  0  0  0  0  0  0
  -22.4970  -17.8474   18.9060 C   0  0  0  0  0  0  0  0  0  0  0  0
  -22.2459   -8.3763   20.7326 C   0  0  0  0  0  0  0  0  0  0  0  0
  -25.6329  -14.5402   22.7547 C   0  0  0  0  0  0  0  0  0  0  0  0
  -25.4898  -15.2687   19.8922 C   0  0  0  0  0  0  0  0  0  0  0  0
  -22.5959   -9.5892   19.8743 C   0  0  0  0  0  0  0  0  0  0  0  0
  -25.1650  -23.5586   17.1446 C   0  0  0  0  0  0  0  0  0  0  0  0
  -24.1044   -9.8151   19.8591 C   0  0  0  0  0  0  0  0  0  0  0  0
  -24.9614  -25.0582   17.3568 C   0  0  0  0  0  0  0  0  0  0  0  0
  -25.5925  -22.8650   18.4342 C   0  0  0  0  0  0  0  0  0  0  0  0
  -26.6088  -24.9561   19.2806 C   0  0  0  0  0  0  0  0  0  0  0  0
  -24.6333  -10.1031   21.2693 C   0  0  1  0  0  0  0  0  0  0  0  0
  -24.6512  -13.8646   21.8022 C   0  0  1  0  0  0  0  0  0  0  0  0
  -26.2061  -25.7001   17.9950 C   0  0  2  0  0  0  0  0  0  0  0  0
  -33.1653  -22.5402   17.2993 C   0  0  0  0  0  0  0  0  0  0  0  0
  -28.8355  -23.6392   21.4367 C   0  0  0  0  0  0  0  0  0  0  0  0
  -20.6784  -19.3200   17.9997 C   0  0  0  0  0  0  0  0  0  0  0  0
  -30.4984  -25.5685   17.9499 C   0  0  0  0  0  0  0  0  0  0  0  0
  -29.2898  -23.7054   16.7356 C   0  0  0  0  0  0  0  0  0  0  0  0
  -23.1288  -13.1875   17.4913 C   0  0  0  0  0  0  0  0  0  0  0  0
  -22.0904  -15.1809   16.3885 C   0  0  0  0  0  0  0  0  0  0  0  0
  -20.8506  -13.9594   18.1755 C   0  0  0  0  0  0  0  0  0  0  0  0
  -22.8585  -19.8267   21.0765 C   0  0  0  0  0  0  0  0  0  0  0  0
  -33.1657  -20.7448   20.0645 C   0  0  0  0  0  0  0  0  0  0  0  0
  -32.5600  -19.6096   20.8973 C   0  0  0  0  0  0  0  0  0  0  0  0
  -31.5980  -18.7288   20.0988 C   0  0  0  0  0  0  0  0  0  0  0  0
  -30.9866  -17.6381   20.9678 C   0  0  0  0  0  0  0  0  0  1  0  0
  -29.0663  -23.5069   19.9193 C   0  0  1  0  0  0  0  0  0  0  0  0
  -22.8370  -15.3922   18.8028 C   0  0  1  0  0  0  0  0  0  0  0  0
  -21.4471  -18.8917   19.2400 C   0  0  2  0  0  0  0  0  0  0  0  0
  -30.5952  -24.1430   17.4027 C   0  0  0  0  0  0  0  0  0  0  0  0
  -22.2511  -14.4325   17.7289 C   0  0  0  0  0  0  0  0  0  0  0  0
  -25.5459  -27.5934   19.4312 N   0  0  0  0  0  0  0  0  0  0  0  0
  -31.0150  -22.0016   20.2801 N   0  0  0  0  0  0  0  0  0  0  0  0
  -31.0273  -23.2042   18.4131 N   0  0  0  0  0  0  0  0  0  0  0  0
  -26.0108  -27.1853   18.2381 N   0  0  0  0  0  0  0  0  0  0  0  0
  -24.3550  -14.6810   20.6232 N   0  0  0  0  0  0  0  0  0  0  0  0
  -26.7640  -23.5180   19.0211 N   0  0  0  0  0  0  0  0  0  0  0  0
  -26.7283  -27.9703   16.1216 N   0  0  0  0  0  0  0  0  0  0  0  0
  -25.6503  -31.7606   18.3279 N   0  0  0  0  0  0  0  0  0  0  0  0
  -24.3424  -11.4690   21.6490 N   0  0  0  0  0  0  0  0  0  0  0  0
  -22.0130  -16.5665   19.0681 N   0  0  0  0  0  0  0  0  0  0  0  0
  -22.0877  -20.0982   19.8359 N   0  3  0  0  0  0  0  0  0  0  0  0
  -26.4197  -30.9190   16.3384 O   0  0  0  0  0  0  0  0  0  0  0  0
  -26.1833  -12.4864   20.6497 O   0  0  0  0  0  0  0  0  0  0  0  0
  -27.9950  -21.5497   19.1232 O   0  0  0  0  0  0  0  0  0  0  0  0
  -22.0701  -14.2274   20.7215 O   0  0  0  0  0  0  0  0  0  0  0  0
  -23.6318  -18.1388   18.5347 O   0  0  0  0  0  0  0  0  0  0  0  0
  -23.7231  -32.1003   23.5439 O   0  0  0  0  0  0  0  0  0  0  0  0
  -30.1138  -16.8441   20.1652 O   0  0  0  0  0  0  0  0  0  1  0  0
  -26.6454  -36.6177   24.7511 F   0  0  0  0  0  0  0  0  0  0  0  0
  -24.8736  -32.4210   26.0371 F   0  0  0  0  0  0  0  0  0  0  0  0
  1  2  1  0  0  0  0
  1  5  2  0  0  0  0
  2  6  2  0  0  0  0
  3  8  2  0  0  0  0
  3 15  1  0  0  0  0
  4  9  1  0  0  0  0
  4 15  2  0  0  0  0
  5 17  1  0  0  0  0
  6 19  1  0  0  0  0
  7 10  2  0  0  0  0
  7 18  1  0  0  0  0
  8 21  1  0  0  0  0
  9 21  2  0  0  0  0
 10 22  1  0  0  0  0
 11 12  2  0  0  0  0
 11 23  1  0  0  0  0
 12 24  1  0  0  0  0
 13 20  1  0  0  0  0
 13 22  2  0  0  0  0
 14 24  2  0  0  0  0
 14 25  1  0  0  0  0
 15 26  1  0  0  0  0
 16 26  1  0  0  0  0
 16 29  2  0  0  0  0
 16 31  1  0  0  0  0
 17 19  2  0  0  0  0
 17 36  1  0  0  0  0
 18 20  2  0  0  0  0
 18 37  1  0  0  0  0
 19 45  1  0  0  0  0
 20 38  1  0  0  0  0
 21 82  1  0  0  0  0
 22 83  1  0  0  0  0
 23 25  2  0  0  0  0
 23 82  1  0  0  0  0
 24 84  1  0  0  0  0
 25 85  1  0  0  0  0
 26 66  2  0  0  0  0
 27 28  2  0  0  0  0
 27 57  1  0  0  0  0
 27 67  1  0  0  0  0
 28 48  1  0  0  0  0
 28 68  1  0  0  0  0
 29 69  1  0  0  0  0
 29 72  1  0  0  0  0
 30 61  1  0  0  0  0
 30 67  2  0  0  0  0
 30 68  1  0  0  0  0
 31 73  1  0  0  0  0
 31 77  2  0  0  0  0
 32 46  1  0  0  0  0
 32 74  1  0  0  0  0
 32 78  2  0  0  0  0
 33 61  1  0  0  0  0
 33 71  1  0  0  0  0
 33 79  2  0  0  0  0
 34 62  1  0  0  0  0
 34 70  1  0  0  0  0
 34 80  2  0  0  0  0
 35 63  1  0  0  0  0
 35 75  1  0  0  0  0
 35 81  2  0  0  0  0
 36 39  1  0  0  0  0
 37 46  1  0  0  0  0
 38 70  1  0  0  0  0
 39 41  1  0  0  0  0
 40 42  1  0  0  0  0
 40 43  1  0  0  0  0
 41 45  1  0  0  0  0
 42 47  1  0  0  0  0
 43 71  1  0  0  0  0
 44 47  1  0  0  0  0
 44 71  1  0  0  0  0
 45 74  1  0  0  0  0
 46 70  1  0  0  0  0
 47 69  1  0  0  0  0
 49 61  1  0  0  0  0
 50 63  1  0  0  0  0
 51 64  1  0  0  0  0
 52 64  1  0  0  0  0
 53 65  1  0  0  0  0
 54 65  1  0  0  0  0
 55 65  1  0  0  0  0
 56 76  1  0  0  0  0
 57 58  1  0  0  0  0
 58 59  1  0  0  0  0
 59 60  1  0  0  0  0
 60 83  1  0  0  0  0
 62 65  1  0  0  0  0
 62 75  1  0  0  0  0
 63 76  1  0  0  0  0
 64 68  1  0  0  0  0
 66 69  1  0  0  0  0
M  CHG  1  76   1
M  ISO  4  33 100  60 101  61 100  83 101
M  END
> <Batch ID>
0074

> <Smiles>
CNC(C)C(=O)NC(C(=O)N1Cc2cc([101O:1][101CH2:1]CCCc3nc([100CH:0](C)[100C:0](=O)N4CCCC(n5nc(-c6ccc(Oc7ccc(F)cc7F)cc6)c(C(N)=O)c5N)C4)n(C(C)C)c3C)ccc2CC1C(=O)NC1CCCc2ccccc21)C(C)(C)C

> <Shape>
0.258

> <Color>
0.083

> <Negative vol penalty>
0.000

$$$$

  -OEChem-04052318293D

 88 96  0     1  0  0  0  0  0999 V2000
  -21.6558  -12.7409   19.2140 C   0  0  0  0  0  0  0  0  0  0  0  0
  -21.6885  -14.0618   19.6496 C   0  0  0  0  0  0  0  0  0  0  0  0
  -29.3780  -27.5376   20.6712 C   0  0  0  0  0  0  0  0  0  0  0  0
  -27.9864  -25.8133   21.6342 C   0  0  0  0  0  0  0  0  0  0  0  0
  -22.7615  -11.9151   19.4123 C   0  0  0  0  0  0  0  0  0  0  0  0
  -22.8267  -14.5572   20.2848 C   0  0  0  0  0  0  0  0  0  0  0  0
  -24.1595  -19.1386   18.5877 C   0  0  0  0  0  0  0  0  0  0  0  0
  -30.5122  -26.9095   21.1856 C   0  0  0  0  0  0  0  0  0  0  0  0
  -29.1206  -25.1852   22.1486 C   0  0  0  0  0  0  0  0  0  0  0  0
  -23.4303  -20.2292   19.0594 C   0  0  0  0  0  0  0  0  0  0  0  0
  -31.2163  -25.5852   24.7714 C   0  0  0  0  0  0  0  0  0  0  0  0
  -31.1677  -25.1402   26.0924 C   0  0  0  0  0  0  0  0  0  0  0  0
  -25.1865  -20.7116   20.6412 C   0  0  0  0  0  0  0  0  0  0  0  0
  -19.2058  -25.4902   23.2680 C   0  0  0  0  0  0  0  0  0  0  0  0
  -31.5694  -22.8780   25.3452 C   0  0  0  0  0  0  0  0  0  0  0  0
  -21.1756  -26.4564   23.7740 C   0  0  0  0  0  0  0  0  0  0  0  0
  -28.1150  -26.9895   20.8955 C   0  0  0  0  0  0  0  0  0  0  0  0
  -26.3451  -27.4191   19.1093 C   0  0  0  0  0  0  0  0  0  0  0  0
  -23.9174  -12.4035   20.0416 C   0  0  0  0  0  0  0  0  0  0  0  0
  -25.4048  -18.8192   19.1476 C   0  0  0  0  0  0  0  0  0  0  0  0
  -23.9485  -13.7368   20.4929 C   0  0  0  0  0  0  0  0  0  0  0  0
  -25.9306  -19.6179   20.1731 C   0  0  0  0  0  0  0  0  0  0  0  0
  -20.4609  -25.2849   23.8922 C   0  0  0  0  0  0  0  0  0  0  0  0
  -30.3835  -25.7333   21.9243 C   0  0  0  0  0  0  0  0  0  0  0  0
  -23.9424  -21.0142   20.0882 C   0  0  0  0  0  0  0  0  0  0  0  0
  -31.4414  -24.6766   23.7372 C   0  0  0  0  0  0  0  0  0  0  0  0
  -31.3443  -23.7867   26.3793 C   0  0  0  0  0  0  0  0  0  0  0  0
  -31.6179  -23.3230   24.0241 C   0  0  0  0  0  0  0  0  0  0  0  0
  -26.9429  -27.6382   20.3648 C   0  0  0  0  0  0  0  0  0  0  0  0
  -19.1918  -26.7809   22.7870 C   0  0  0  0  0  0  0  0  0  0  0  0
  -25.2699  -28.2734   19.0872 C   0  0  0  0  0  0  0  0  0  0  0  0
  -26.7275  -26.5234   18.0570 C   0  0  0  0  0  0  0  0  0  0  0  0
  -26.5870  -16.3146   20.7074 C   0  0  0  0  0  0  0  0  0  0  0  0
  -22.0324  -30.7635   23.4951 C   0  0  0  0  0  0  0  0  0  0  0  0
  -29.3681  -17.9657   20.4596 C   0  0  0  0  0  0  0  0  0  0  0  0
  -30.9244  -20.9781   20.0719 C   0  0  0  0  0  0  0  0  0  0  0  0
  -25.0702  -11.4596   20.2760 C   0  0  0  0  0  0  0  0  0  0  0  0
  -26.1911  -17.6553   18.6094 C   0  0  0  0  0  0  0  0  0  0  0  0
  -27.2721  -19.3295   20.7943 C   0  0  0  0  0  0  0  0  0  0  0  0
  -26.3771  -12.1684   20.6221 C   0  0  0  0  0  0  0  0  0  0  0  0
  -23.7589  -32.4496   20.8463 C   0  0  0  0  0  0  0  0  0  0  0  0
  -26.1383  -13.2425   21.6786 C   0  0  0  0  0  0  0  0  0  0  0  0
  -24.7365  -31.3961   20.3273 C   0  0  0  0  0  0  0  0  0  0  0  0
  -23.5635  -32.3351   22.3548 C   0  0  0  0  0  0  0  0  0  0  0  0
  -24.1106  -29.9229   22.2928 C   0  0  0  0  0  0  0  0  0  0  0  0
  -25.1741  -14.3180   21.1638 C   0  0  1  0  0  0  0  0  0  0  0  0
  -27.2156  -17.1160   19.6028 C   0  0  1  0  0  0  0  0  0  0  0  0
  -24.3129  -29.9839   20.7684 C   0  0  2  0  0  0  0  0  0  0  0  0
  -21.0270  -29.3244   25.2117 C   0  0  0  0  0  0  0  0  0  0  0  0
  -33.2062  -22.0148   19.9460 C   0  0  0  0  0  0  0  0  0  0  0  0
  -21.2475  -24.3128   26.0615 C   0  0  0  0  0  0  0  0  0  0  0  0
  -19.8810  -22.8619   24.5885 C   0  0  0  0  0  0  0  0  0  0  0  0
  -16.8669  -26.6178   21.8310 C   0  0  0  0  0  0  0  0  0  0  0  0
  -18.6214  -27.9788   20.6454 C   0  0  0  0  0  0  0  0  0  0  0  0
  -17.5934  -28.8105   22.7508 C   0  0  0  0  0  0  0  0  0  0  0  0
  -29.6627  -17.6784   23.4830 C   0  0  0  0  0  0  0  0  0  0  0  0
  -31.3871  -19.4923   23.4173 C   0  0  0  0  0  0  0  0  0  0  0  0
  -31.7807  -17.3548   22.1930 C   0  0  0  0  0  0  0  0  0  0  0  0
  -30.4428  -21.9854   17.3310 C   0  0  0  0  0  0  0  0  0  0  0  0
  -22.1124  -23.0343   22.4480 C   0  0  0  0  0  0  0  0  0  0  0  0
  -22.2465  -23.4498   23.9180 C   0  0  0  0  0  0  0  0  0  0  0  0
  -20.7946  -28.7108   22.7778 C   0  0  0  0  0  0  0  0  0  0  0  0
  -23.4096  -22.4313   21.9224 C   0  0  0  0  0  0  0  0  0  1  0  0
  -21.7042  -29.3339   23.8450 C   0  0  1  0  0  0  0  0  0  0  0  0
  -30.0776  -18.9976   21.3027 C   0  0  1  0  0  0  0  0  0  0  0  0
  -32.0516  -21.4190   19.1557 C   0  0  2  0  0  0  0  0  0  0  0  0
  -20.9389  -23.9918   24.5772 C   0  0  0  0  0  0  0  0  0  0  0  0
  -18.1337  -27.5091   22.0567 C   0  0  0  0  0  0  0  0  0  0  0  0
  -30.7008  -18.3853   22.5888 C   0  0  0  0  0  0  0  0  0  0  0  0
  -26.3009  -28.5595   21.0879 N   0  0  0  0  0  0  0  0  0  0  0  0
  -20.3945  -27.3586   23.1001 N   0  0  0  0  0  0  0  0  0  0  0  0
  -25.2885  -28.9270   20.2841 N   0  0  0  0  0  0  0  0  0  0  0  0
  -27.9999  -18.1769   20.2380 N   0  0  0  0  0  0  0  0  0  0  0  0
  -23.1836  -30.9735   22.7357 N   0  0  0  0  0  0  0  0  0  0  0  0
  -24.3198  -28.5218   18.1609 N   0  0  0  0  0  0  0  0  0  0  0  0
  -27.8582  -25.7166   18.2443 N   0  0  0  0  0  0  0  0  0  0  0  0
  -25.8598  -15.2247   20.2682 N   0  0  0  0  0  0  0  0  0  0  0  0
  -31.0419  -19.6501   20.4236 N   0  0  0  0  0  0  0  0  0  0  0  0
  -31.5638  -22.4447   18.1908 N   0  3  0  0  0  0  0  0  0  0  0  0
  -26.0952  -26.4528   16.9760 O   0  0  0  0  0  0  0  0  0  0  0  0
  -26.7509  -16.6586   21.8721 O   0  0  0  0  0  0  0  0  0  0  0  0
  -21.2850  -31.6651   23.8834 O   0  0  0  0  0  0  0  0  0  0  0  0
  -30.0061  -17.0113   20.0082 O   0  0  0  0  0  0  0  0  0  0  0  0
  -30.0311  -21.7370   20.4417 O   0  0  0  0  0  0  0  0  0  0  0  0
  -31.4901  -25.1201   22.4262 O   0  0  0  0  0  0  0  0  0  0  0  0
  -23.2324  -22.0790   20.5510 O   0  0  0  0  0  0  0  0  0  1  0  0
  -31.2991  -23.3597   27.6481 F   0  0  0  0  0  0  0  0  0  0  0  0
  -31.8357  -22.4456   23.0349 F   0  0  0  0  0  0  0  0  0  0  0  0
  1  2  1  0  0  0  0
  1  5  2  0  0  0  0
  2  6  2  0  0  0  0
  3  8  2  0  0  0  0
  3 17  1  0  0  0  0
  4  9  1  0  0  0  0
  4 17  2  0  0  0  0
  5 19  1  0  0  0  0
  6 21  1  0  0  0  0
  7 10  2  0  0  0  0
  7 20  1  0  0  0  0
  8 24  1  0  0  0  0
  9 24  2  0  0  0  0
 10 25  1  0  0  0  0
 11 12  2  0  0  0  0
 11 26  1  0  0  0  0
 12 27  1  0  0  0  0
 13 22  1  0  0  0  0
 13 25  2  0  0  0  0
 14 23  1  0  0  0  0
 14 30  2  0  0  0  0
 15 27  2  0  0  0  0
 15 28  1  0  0  0  0
 16 23  2  0  0  0  0
 16 71  1  0  0  0  0
 17 29  1  0  0  0  0
 18 29  1  0  0  0  0
 18 31  2  0  0  0  0
 18 32  1  0  0  0  0
 19 21  2  0  0  0  0
 19 37  1  0  0  0  0
 20 22  2  0  0  0  0
 20 38  1  0  0  0  0
 21 46  1  0  0  0  0
 22 39  1  0  0  0  0
 23 67  1  0  0  0  0
 24 85  1  0  0  0  0
 25 86  1  0  0  0  0
 26 28  2  0  0  0  0
 26 85  1  0  0  0  0
 27 87  1  0  0  0  0
 28 88  1  0  0  0  0
 29 70  2  0  0  0  0
 30 68  1  0  0  0  0
 30 71  1  0  0  0  0
 31 72  1  0  0  0  0
 31 75  1  0  0  0  0
 32 76  1  0  0  0  0
 32 80  2  0  0  0  0
 33 47  1  0  0  0  0
 33 77  1  0  0  0  0
 33 81  2  0  0  0  0
 34 64  1  0  0  0  0
 34 74  1  0  0  0  0
 34 82  2  0  0  0  0
 35 65  1  0  0  0  0
 35 73  1  0  0  0  0
 35 83  2  0  0  0  0
 36 66  1  0  0  0  0
 36 78  1  0  0  0  0
 36 84  2  0  0  0  0
 37 40  1  0  0  0  0
 38 47  1  0  0  0  0
 39 73  1  0  0  0  0
 40 42  1  0  0  0  0
 41 43  1  0  0  0  0
 41 44  1  0  0  0  0
 42 46  1  0  0  0  0
 43 48  1  0  0  0  0
 44 74  1  0  0  0  0
 45 48  1  0  0  0  0
 45 74  1  0  0  0  0
 46 77  1  0  0  0  0
 47 73  1  0  0  0  0
 48 72  1  0  0  0  0
 49 64  1  0  0  0  0
 50 66  1  0  0  0  0
 51 67  1  0  0  0  0
 52 67  1  0  0  0  0
 53 68  1  0  0  0  0
 54 68  1  0  0  0  0
 55 68  1  0  0  0  0
 56 69  1  0  0  0  0
 57 69  1  0  0  0  0
 58 69  1  0  0  0  0
 59 79  1  0  0  0  0
 60 61  1  0  0  0  0
 60 63  1  0  0  0  0
 61 67  1  0  0  0  0
 62 64  1  0  0  0  0
 62 71  1  0  0  0  0
 63 86  1  0  0  0  0
 65 69  1  0  0  0  0
 65 78  1  0  0  0  0
 66 79  1  0  0  0  0
 70 72  1  0  0  0  0
M  CHG  1  79   1
M  ISO  4  34 100  63 101  64 100  86 101
M  END
> <Batch ID>
0074

> <Smiles>
CNC(C)C(=O)NC(C(=O)N1Cc2cc([101O:1][101CH2:1]CCC(C)(C)c3cc(C(C)(C)C)n(C[100CH:0](C)[100C:0](=O)N4CCCC(n5nc(-c6ccc(Oc7ccc(F)cc7F)cc6)c(C(N)=O)c5N)C4)c3)ccc2CC1C(=O)NC1CCCc2ccccc21)C(C)(C)C

> <Shape>
0.233

> <Color>
0.067

> <Negative vol penalty>
0.000

$$$$

  -OEChem-04052318293D

 85 93  0     1  0  0  0  0  0999 V2000
  -16.3835  -23.5176   28.8679 C   0  0  0  0  0  0  0  0  0  0  0  0
  -16.6921  -23.4873   27.5117 C   0  0  0  0  0  0  0  0  0  0  0  0
  -23.0779   -9.8586   19.9398 C   0  0  0  0  0  0  0  0  0  0  0  0
  -23.6792   -9.9506   22.2779 C   0  0  0  0  0  0  0  0  0  0  0  0
  -17.2722  -22.9769   29.7961 C   0  0  0  0  0  0  0  0  0  0  0  0
  -17.8903  -22.9171   27.0830 C   0  0  0  0  0  0  0  0  0  0  0  0
  -20.6824  -19.2574   21.5942 C   0  0  0  0  0  0  0  0  0  0  0  0
  -22.3176   -8.7142   20.1802 C   0  0  0  0  0  0  0  0  0  0  0  0
  -22.9188   -8.8062   22.5185 C   0  0  0  0  0  0  0  0  0  0  0  0
  -21.7572  -19.2994   20.7073 C   0  0  0  0  0  0  0  0  0  0  0  0
  -23.2440   -5.4665   22.1041 C   0  0  0  0  0  0  0  0  0  0  0  0
  -23.8080   -4.4691   22.8995 C   0  0  0  0  0  0  0  0  0  0  0  0
  -23.1797  -18.3248   22.3942 C   0  0  0  0  0  0  0  0  0  0  0  0
  -21.9940   -4.7023   24.4782 C   0  0  0  0  0  0  0  0  0  0  0  0
  -31.3948  -18.3114   21.9272 C   0  0  0  0  0  0  0  0  0  0  0  0
  -31.8273  -17.8219   19.6845 C   0  0  0  0  0  0  0  0  0  0  0  0
  -23.7588  -10.4768   20.9886 C   0  0  0  0  0  0  0  0  0  0  0  0
  -24.1104  -12.9964   20.8000 C   0  0  0  0  0  0  0  0  0  0  0  0
  -18.4775  -22.3911   29.3778 C   0  0  0  0  0  0  0  0  0  0  0  0
  -20.8510  -18.7579   22.8937 C   0  0  0  0  0  0  0  0  0  0  0  0
  -18.7966  -22.3692   28.0067 C   0  0  0  0  0  0  0  0  0  0  0  0
  -22.1048  -18.2751   23.2949 C   0  0  0  0  0  0  0  0  0  0  0  0
  -31.9610  -17.4525   21.0073 C   0  0  0  0  0  0  0  0  0  0  0  0
  -22.2380   -8.1880   21.4696 C   0  0  0  0  0  0  0  0  0  0  0  0
  -23.0068  -18.8358   21.1081 C   0  0  0  0  0  0  0  0  0  0  0  0
  -22.0551   -6.0819   22.4958 C   0  0  0  0  0  0  0  0  0  0  0  0
  -23.1830   -4.0870   24.0865 C   0  0  0  0  0  0  0  0  0  0  0  0
  -21.4301   -5.6998   23.6828 C   0  0  0  0  0  0  0  0  0  0  0  0
  -24.5448  -11.6587   20.7407 C   0  0  0  0  0  0  0  0  0  0  0  0
  -25.2255  -13.7338   20.4851 C   0  0  0  0  0  0  0  0  0  0  0  0
  -30.6829  -19.6963   20.2711 C   0  0  0  0  0  0  0  0  0  0  0  0
  -22.8147  -13.5252   21.1119 C   0  0  0  0  0  0  0  0  0  0  0  0
  -20.5576  -19.9691   25.8179 C   0  0  0  0  0  0  0  0  0  0  0  0
  -30.5876  -14.7420   21.1989 C   0  0  0  0  0  0  0  0  0  0  0  0
  -21.1028  -16.9016   26.7210 C   0  0  0  0  0  0  0  0  0  0  0  0
  -22.4251  -13.8488   25.9601 C   0  0  0  0  0  0  0  0  0  0  0  0
  -19.4283  -21.8619   30.4221 C   0  0  0  0  0  0  0  0  0  0  0  0
  -19.6752  -18.6947   23.8296 C   0  0  0  0  0  0  0  0  0  0  0  0
  -22.3334  -17.7105   24.6724 C   0  0  0  0  0  0  0  0  0  0  0  0
  -20.5048  -20.9404   29.8546 C   0  0  0  0  0  0  0  0  0  0  0  0
  -29.7063  -12.3186   18.6343 C   0  0  0  0  0  0  0  0  0  0  0  0
  -21.1253  -21.5519   28.6025 C   0  0  0  0  0  0  0  0  0  0  0  0
  -28.2489  -12.0203   18.9836 C   0  0  0  0  0  0  0  0  0  0  0  0
  -30.5442  -12.5657   19.8861 C   0  0  0  0  0  0  0  0  0  0  0  0
  -28.5464  -13.3461   21.1205 C   0  0  0  0  0  0  0  0  0  0  0  0
  -20.0751  -21.7373   27.5006 C   0  0  1  0  0  0  0  0  0  0  0  0
  -20.0831  -18.6413   25.2987 C   0  0  1  0  0  0  0  0  0  0  0  0
  -27.6607  -13.1210   19.8837 C   0  0  2  0  0  0  0  0  0  0  0  0
  -22.9559  -11.4102   26.2227 C   0  0  0  0  0  0  0  0  0  0  0  0
  -34.1562  -16.2419   20.9327 C   0  0  0  0  0  0  0  0  0  0  0  0
  -32.7617  -15.9581   22.9631 C   0  0  0  0  0  0  0  0  0  0  0  0
  -23.3558  -17.9543   28.4889 C   0  0  0  0  0  0  0  0  0  0  0  0
  -24.2261  -15.6126   28.6544 C   0  0  0  0  0  0  0  0  0  0  0  0
  -21.9584  -16.1638   29.5356 C   0  0  0  0  0  0  0  0  0  0  0  0
  -19.9232  -13.0392   24.6023 C   0  0  0  0  0  0  0  0  0  0  0  0
  -29.9624  -20.9546   19.8567 C   0  0  0  0  0  0  0  0  0  0  0  0
  -32.0304  -14.9110   20.7943 C   0  0  0  0  0  0  0  0  0  0  0  0
  -28.5373  -20.7129   19.3463 C   0  0  0  0  0  0  0  0  0  0  0  0
  -27.6517  -19.9856   20.3630 C   0  0  0  0  0  0  0  0  0  0  0  0
  -26.2348  -19.7936   19.8251 C   0  0  0  0  0  0  0  0  0  0  0  0
  -25.3579  -19.0346   20.8109 C   0  0  0  0  0  0  0  0  0  1  0  0
  -22.3308  -16.0821   27.0362 C   0  0  1  0  0  0  0  0  0  0  0  0
  -21.8535  -12.4471   26.0727 C   0  0  2  0  0  0  0  0  0  0  0  0
  -32.6648  -16.2122   21.4143 C   0  0  0  0  0  0  0  0  0  0  0  0
  -22.9643  -16.4655   28.4034 C   0  0  0  0  0  0  0  0  0  0  0  0
  -30.7460  -19.4461   21.5928 N   0  0  0  0  0  0  0  0  0  0  0  0
  -31.1921  -18.9411   19.2792 N   0  0  0  0  0  0  0  0  0  0  0  0
  -25.8352  -11.5496   20.4137 N   0  0  0  0  0  0  0  0  0  0  0  0
  -26.2212  -12.8282   20.2646 N   0  0  0  0  0  0  0  0  0  0  0  0
  -21.1542  -17.6758   25.5532 N   0  0  0  0  0  0  0  0  0  0  0  0
  -29.9359  -13.6011   20.7301 N   0  0  0  0  0  0  0  0  0  0  0  0
  -25.4417  -15.0621   20.3780 N   0  0  0  0  0  0  0  0  0  0  0  0
  -21.7812  -12.6274   21.4122 N   0  0  0  0  0  0  0  0  0  0  0  0
  -19.7939  -20.4740   26.8528 N   0  0  0  0  0  0  0  0  0  0  0  0
  -21.9253  -14.6842   26.9366 N   0  0  0  0  0  0  0  0  0  0  0  0
  -21.0566  -12.1135   24.8584 N   0  3  0  0  0  0  0  0  0  0  0  0
  -22.5763  -14.7567   21.1079 O   0  0  0  0  0  0  0  0  0  0  0  0
  -21.5446  -20.4957   25.3176 O   0  0  0  0  0  0  0  0  0  0  0  0
  -30.0568  -15.6007   21.9081 O   0  0  0  0  0  0  0  0  0  0  0  0
  -20.1310  -16.8509   27.4790 O   0  0  0  0  0  0  0  0  0  0  0  0
  -23.2369  -14.1696   25.0949 O   0  0  0  0  0  0  0  0  0  0  0  0
  -21.4960   -7.0715   21.7047 O   0  0  0  0  0  0  0  0  0  0  0  0
  -24.0577  -18.8763   20.2446 O   0  0  0  0  0  0  0  0  0  1  0  0
  -23.7239   -3.1280   24.8494 F   0  0  0  0  0  0  0  0  0  0  0  0
  -20.2871   -6.2865   24.0637 F   0  0  0  0  0  0  0  0  0  0  0  0
  1  2  1  0  0  0  0
  1  5  2  0  0  0  0
  2  6  2  0  0  0  0
  3  8  2  0  0  0  0
  3 17  1  0  0  0  0
  4  9  1  0  0  0  0
  4 17  2  0  0  0  0
  5 19  1  0  0  0  0
  6 21  1  0  0  0  0
  7 10  2  0  0  0  0
  7 20  1  0  0  0  0
  8 24  1  0  0  0  0
  9 24  2  0  0  0  0
 10 25  1  0  0  0  0
 11 12  2  0  0  0  0
 11 26  1  0  0  0  0
 12 27  1  0  0  0  0
 13 22  1  0  0  0  0
 13 25  2  0  0  0  0
 14 27  2  0  0  0  0
 14 28  1  0  0  0  0
 15 23  1  0  0  0  0
 15 66  2  0  0  0  0
 16 23  2  0  0  0  0
 16 67  1  0  0  0  0
 17 29  1  0  0  0  0
 18 29  1  0  0  0  0
 18 30  2  0  0  0  0
 18 32  1  0  0  0  0
 19 21  2  0  0  0  0
 19 37  1  0  0  0  0
 20 22  2  0  0  0  0
 20 38  1  0  0  0  0
 21 46  1  0  0  0  0
 22 39  1  0  0  0  0
 23 64  1  0  0  0  0
 24 82  1  0  0  0  0
 25 83  1  0  0  0  0
 26 28  2  0  0  0  0
 26 82  1  0  0  0  0
 27 84  1  0  0  0  0
 28 85  1  0  0  0  0
 29 68  2  0  0  0  0
 30 69  1  0  0  0  0
 30 72  1  0  0  0  0
 31 56  1  0  0  0  0
 31 66  1  0  0  0  0
 31 67  2  0  0  0  0
 32 73  1  0  0  0  0
 32 77  2  0  0  0  0
 33 47  1  0  0  0  0
 33 74  1  0  0  0  0
 33 78  2  0  0  0  0
 34 57  1  0  0  0  0
 34 71  1  0  0  0  0
 34 79  2  0  0  0  0
 35 62  1  0  0  0  0
 35 70  1  0  0  0  0
 35 80  2  0  0  0  0
 36 63  1  0  0  0  0
 36 75  1  0  0  0  0
 36 81  2  0  0  0  0
 37 40  1  0  0  0  0
 38 47  1  0  0  0  0
 39 70  1  0  0  0  0
 40 42  1  0  0  0  0
 41 43  1  0  0  0  0
 41 44  1  0  0  0  0
 42 46  1  0  0  0  0
 43 48  1  0  0  0  0
 44 71  1  0  0  0  0
 45 48  1  0  0  0  0
 45 71  1  0  0  0  0
 46 74  1  0  0  0  0
 47 70  1  0  0  0  0
 48 69  1  0  0  0  0
 49 63  1  0  0  0  0
 50 64  1  0  0  0  0
 51 64  1  0  0  0  0
 52 65  1  0  0  0  0
 53 65  1  0  0  0  0
 54 65  1  0  0  0  0
 55 76  1  0  0  0  0
 56 58  1  0  0  0  0
 57 64  1  0  0  0  0
 58 59  1  0  0  0  0
 59 60  1  0  0  0  0
 60 61  1  0  0  0  0
 61 83  1  0  0  0  0
 62 65  1  0  0  0  0
 62 75  1  0  0  0  0
 63 76  1  0  0  0  0
 68 69  1  0  0  0  0
M  CHG  1  76   1
M  ISO  4  34 100  57 100  61 101  83 101
M  END
> <Batch ID>
0074

> <Smiles>
CNC(C)C(=O)NC(C(=O)N1Cc2cc([101O:1][101CH2:1]CCCCc3ncc(C(C)(C)[100CH2:0][100C:0](=O)N4CCCC(n5nc(-c6ccc(Oc7ccc(F)cc7F)cc6)c(C(N)=O)c5N)C4)cn3)ccc2CC1C(=O)NC1CCCc2ccccc21)C(C)(C)C

> <Shape>
0.191

> <Color>
0.174

> <Negative vol penalty>
0.000

$$$$

  -OEChem-04052318293D

 85 93  0     1  0  0  0  0  0999 V2000
  -18.5618  -25.1722   24.7191 C   0  0  0  0  0  0  0  0  0  0  0  0
  -19.8148  -24.9024   24.1782 C   0  0  0  0  0  0  0  0  0  0  0  0
  -26.4040  -12.1722   21.0836 C   0  0  0  0  0  0  0  0  0  0  0  0
  -24.7635  -13.3524   19.7596 C   0  0  0  0  0  0  0  0  0  0  0  0
  -17.9222  -26.3761   24.4270 C   0  0  0  0  0  0  0  0  0  0  0  0
  -20.4285  -25.8360   23.3439 C   0  0  0  0  0  0  0  0  0  0  0  0
  -26.4227  -27.0192   22.9242 C   0  0  0  0  0  0  0  0  0  0  0  0
  -25.4901  -11.1401   21.2961 C   0  0  0  0  0  0  0  0  0  0  0  0
  -23.8495  -12.3203   19.9721 C   0  0  0  0  0  0  0  0  0  0  0  0
  -27.4011  -26.5982   22.0247 C   0  0  0  0  0  0  0  0  0  0  0  0
  -24.2959   -8.4789   19.5858 C   0  0  0  0  0  0  0  0  0  0  0  0
  -24.7528   -7.1688   19.4428 C   0  0  0  0  0  0  0  0  0  0  0  0
  -27.0969  -28.6261   20.7541 C   0  0  0  0  0  0  0  0  0  0  0  0
  -24.1671   -6.7135   21.7421 C   0  0  0  0  0  0  0  0  0  0  0  0
  -26.0407  -13.2784   20.3154 C   0  0  0  0  0  0  0  0  0  0  0  0
  -27.9127  -14.4557   19.0438 C   0  0  0  0  0  0  0  0  0  0  0  0
  -18.5326  -27.3291   23.5964 C   0  0  0  0  0  0  0  0  0  0  0  0
  -25.7652  -28.2439   22.7391 C   0  0  0  0  0  0  0  0  0  0  0  0
  -19.7959  -27.0532   23.0393 C   0  0  0  0  0  0  0  0  0  0  0  0
  -26.1123  -29.0615   21.6541 C   0  0  0  0  0  0  0  0  0  0  0  0
  -24.2128  -11.2142   20.7403 C   0  0  0  0  0  0  0  0  0  0  0  0
  -27.7363  -27.4004   20.9378 C   0  0  0  0  0  0  0  0  0  0  0  0
  -23.7747   -8.9064   20.8070 C   0  0  0  0  0  0  0  0  0  0  0  0
  -24.6883   -6.2861   20.5208 C   0  0  0  0  0  0  0  0  0  0  0  0
  -23.7102   -8.0237   21.8851 C   0  0  0  0  0  0  0  0  0  0  0  0
  -26.9842  -14.3451   20.0961 C   0  0  0  0  0  0  0  0  0  0  0  0
  -28.5670  -15.6387   19.2861 C   0  0  0  0  0  0  0  0  0  0  0  0
  -28.2713  -23.0269   18.3287 C   0  0  0  0  0  0  0  0  0  0  0  0
  -26.9295  -21.4947   19.0777 C   0  0  0  0  0  0  0  0  0  0  0  0
  -28.1615  -13.5684   17.9453 C   0  0  0  0  0  0  0  0  0  0  0  0
  -22.7517  -29.1174   22.2296 C   0  0  0  0  0  0  0  0  0  0  0  0
  -23.9743  -32.1055   22.5436 C   0  0  0  0  0  0  0  0  0  0  0  0
  -26.9515  -20.5697   22.3173 C   0  0  0  0  0  0  0  0  0  0  0  0
  -26.6949  -34.1573   22.3550 C   0  0  0  0  0  0  0  0  0  0  0  0
  -17.7817  -28.5960   23.2712 C   0  0  0  0  0  0  0  0  0  0  0  0
  -24.7309  -28.6959   23.7332 C   0  0  0  0  0  0  0  0  0  0  0  0
  -25.4505  -30.3944   21.4219 C   0  0  0  0  0  0  0  0  0  0  0  0
  -18.6640  -29.6922   22.6796 C   0  0  0  0  0  0  0  0  0  0  0  0
  -29.8632  -18.5490   22.8454 C   0  0  0  0  0  0  0  0  0  0  0  0
  -19.5628  -29.1225   21.5868 C   0  0  0  0  0  0  0  0  0  0  0  0
  -29.5276  -17.2416   22.1289 C   0  0  0  0  0  0  0  0  0  0  0  0
  -28.6242  -19.1703   23.4827 C   0  0  0  0  0  0  0  0  0  0  0  0
  -27.1588  -18.0855   21.8102 C   0  0  0  0  0  0  0  0  0  0  0  0
  -20.5049  -28.0515   22.1498 C   0  0  1  0  0  0  0  0  0  0  0  0
  -23.7618  -29.7258   23.1608 C   0  0  1  0  0  0  0  0  0  0  0  0
  -28.3772  -17.4404   21.1262 C   0  0  2  0  0  0  0  0  0  0  0  0
  -30.2644  -20.6216   19.2177 C   0  0  0  0  0  0  0  0  0  0  0  0
  -25.4501  -19.4497   19.0167 C   0  0  0  0  0  0  0  0  0  0  0  0
  -27.3754  -36.5569   22.6310 C   0  0  0  0  0  0  0  0  0  0  0  0
  -24.7374  -19.6864   21.7266 C   0  0  0  0  0  0  0  0  0  0  0  0
  -25.3264  -22.0928   21.3659 C   0  0  0  0  0  0  0  0  0  0  0  0
  -22.7037  -32.7731   19.8510 C   0  0  0  0  0  0  0  0  0  0  0  0
  -24.1746  -34.7959   19.7371 C   0  0  0  0  0  0  0  0  0  0  0  0
  -22.5023  -34.5739   21.5747 C   0  0  0  0  0  0  0  0  0  0  0  0
  -28.5778  -33.4930   24.5395 C   0  0  0  0  0  0  0  0  0  0  0  0
  -29.5208  -23.8469   18.1290 C   0  0  0  0  0  0  0  0  0  0  0  0
  -29.3412  -25.3318   18.4522 C   0  0  0  0  0  0  0  0  0  0  0  0
  -29.2625  -21.4443   20.0094 C   0  0  0  0  0  0  0  0  0  0  0  0
  -28.8404  -25.5850   19.8694 C   0  0  0  0  0  0  0  0  0  1  0  0
  -26.4340  -20.3361   19.8419 C   0  0  2  0  0  0  0  0  0  0  0  0
  -24.5713  -33.1211   21.5995 C   0  0  1  0  0  0  0  0  0  0  0  0
  -27.2351  -35.2045   23.3122 C   0  0  2  0  0  0  0  0  0  0  0  0
  -25.8517  -20.6480   21.2886 C   0  0  0  0  0  0  0  0  0  0  0  0
  -23.4992  -33.7900   20.6936 C   0  0  0  0  0  0  0  0  0  0  0  0
  -27.0405  -15.3756   20.9439 N   0  0  0  0  0  0  0  0  0  0  0  0
  -27.1082  -23.1999   17.7425 N   0  0  0  0  0  0  0  0  0  0  0  0
  -26.2545  -22.2250   18.2190 N   0  0  0  0  0  0  0  0  0  0  0  0
  -28.0124  -16.1449   20.4247 N   0  0  0  0  0  0  0  0  0  0  0  0
  -28.2040  -21.9641   19.1777 N   0  0  0  0  0  0  0  0  0  0  0  0
  -24.4411  -30.7894   22.4182 N   0  0  0  0  0  0  0  0  0  0  0  0
  -27.5468  -19.3218   22.5031 N   0  0  0  0  0  0  0  0  0  0  0  0
  -29.5569  -16.2849   18.6343 N   0  0  0  0  0  0  0  0  0  0  0  0
  -27.3989  -12.3966   17.8471 N   0  0  0  0  0  0  0  0  0  0  0  0
  -21.6058  -28.6686   22.8581 N   0  0  0  0  0  0  0  0  0  0  0  0
  -25.3216  -34.0578   22.4288 N   0  0  0  0  0  0  0  0  0  0  0  0
  -28.5731  -34.7958   23.8257 N   0  3  0  0  0  0  0  0  0  0  0  0
  -29.0455  -13.7995   17.0859 O   0  0  0  0  0  0  0  0  0  0  0  0
  -22.9933  -29.0609   21.0296 O   0  0  0  0  0  0  0  0  0  0  0  0
  -23.1304  -32.4681   23.3670 O   0  0  0  0  0  0  0  0  0  0  0  0
  -27.2725  -21.5888   22.9341 O   0  0  0  0  0  0  0  0  0  0  0  0
  -27.4185  -33.4965   21.6132 O   0  0  0  0  0  0  0  0  0  0  0  0
  -23.3208  -10.2071   20.9472 O   0  0  0  0  0  0  0  0  0  0  0  0
  -28.6906  -26.9915   20.0579 O   0  0  0  0  0  0  0  0  0  1  0  0
  -25.1256   -5.0276   20.3829 F   0  0  0  0  0  0  0  0  0  0  0  0
  -23.2094   -8.4282   23.0604 F   0  0  0  0  0  0  0  0  0  0  0  0
  1  2  1  0  0  0  0
  1  5  2  0  0  0  0
  2  6  2  0  0  0  0
  3  8  2  0  0  0  0
  3 15  1  0  0  0  0
  4  9  1  0  0  0  0
  4 15  2  0  0  0  0
  5 17  1  0  0  0  0
  6 19  1  0  0  0  0
  7 10  2  0  0  0  0
  7 18  1  0  0  0  0
  8 21  1  0  0  0  0
  9 21  2  0  0  0  0
 10 22  1  0  0  0  0
 11 12  2  0  0  0  0
 11 23  1  0  0  0  0
 12 24  1  0  0  0  0
 13 20  1  0  0  0  0
 13 22  2  0  0  0  0
 14 24  2  0  0  0  0
 14 25  1  0  0  0  0
 15 26  1  0  0  0  0
 16 26  1  0  0  0  0
 16 27  2  0  0  0  0
 16 30  1  0  0  0  0
 17 19  2  0  0  0  0
 17 35  1  0  0  0  0
 18 20  2  0  0  0  0
 18 36  1  0  0  0  0
 19 44  1  0  0  0  0
 20 37  1  0  0  0  0
 21 82  1  0  0  0  0
 22 83  1  0  0  0  0
 23 25  2  0  0  0  0
 23 82  1  0  0  0  0
 24 84  1  0  0  0  0
 25 85  1  0  0  0  0
 26 65  2  0  0  0  0
 27 68  1  0  0  0  0
 27 72  1  0  0  0  0
 28 56  1  0  0  0  0
 28 66  2  0  0  0  0
 28 69  1  0  0  0  0
 29 60  1  0  0  0  0
 29 67  2  0  0  0  0
 29 69  1  0  0  0  0
 30 73  1  0  0  0  0
 30 77  2  0  0  0  0
 31 45  1  0  0  0  0
 31 74  1  0  0  0  0
 31 78  2  0  0  0  0
 32 61  1  0  0  0  0
 32 70  1  0  0  0  0
 32 79  2  0  0  0  0
 33 63  1  0  0  0  0
 33 71  1  0  0  0  0
 33 80  2  0  0  0  0
 34 62  1  0  0  0  0
 34 75  1  0  0  0  0
 34 81  2  0  0  0  0
 35 38  1  0  0  0  0
 36 45  1  0  0  0  0
 37 70  1  0  0  0  0
 38 40  1  0  0  0  0
 39 41  1  0  0  0  0
 39 42  1  0  0  0  0
 40 44  1  0  0  0  0
 41 46  1  0  0  0  0
 42 71  1  0  0  0  0
 43 46  1  0  0  0  0
 43 71  1  0  0  0  0
 44 74  1  0  0  0  0
 45 70  1  0  0  0  0
 46 68  1  0  0  0  0
 47 58  1  0  0  0  0
 48 60  1  0  0  0  0
 49 62  1  0  0  0  0
 50 63  1  0  0  0  0
 51 63  1  0  0  0  0
 52 64  1  0  0  0  0
 53 64  1  0  0  0  0
 54 64  1  0  0  0  0
 55 76  1  0  0  0  0
 56 57  1  0  0  0  0
 57 59  1  0  0  0  0
 58 69  1  0  0  0  0
 59 83  1  0  0  0  0
 60 63  1  0  0  0  0
 61 64  1  0  0  0  0
 61 75  1  0  0  0  0
 62 76  1  0  0  0  0
 65 68  1  0  0  0  0
 66 67  1  0  0  0  0
M  CHG  1  76   1
M  ISO  4  33 100  59 101  63 100  83 101
M  END
> <Batch ID>
0074

> <Smiles>
CCn1c(CC[101CH2:1][101O:1]c2ccc3c(c2)CN(C(=O)C(NC(=O)C(C)NC)C(C)(C)C)C(C(=O)NC2CCCc4ccccc42)C3)nnc1C(C)[100C:0](C)(C)[100C:0](=O)N1CCCC(n2nc(-c3ccc(Oc4ccc(F)cc4F)cc3)c(C(N)=O)c2N)C1

> <Shape>
0.269

> <Color>
0.069

> <Negative vol penalty>
0.000

$$$$

  -OEChem-04052318293D

 80 88  0     1  0  0  0  0  0999 V2000
  -18.3133  -27.8123   23.4902 C   0  0  0  0  0  0  0  0  0  0  0  0
  -19.6986  -27.8665   23.6052 C   0  0  0  0  0  0  0  0  0  0  0  0
  -27.0782  -15.4068   19.5427 C   0  0  0  0  0  0  0  0  0  0  0  0
  -26.1786  -15.6393   21.7728 C   0  0  0  0  0  0  0  0  0  0  0  0
  -17.7286  -27.0723   22.4634 C   0  0  0  0  0  0  0  0  0  0  0  0
  -20.5001  -27.1798   22.6939 C   0  0  0  0  0  0  0  0  0  0  0  0
  -25.9646  -28.9267   20.5505 C   0  0  0  0  0  0  0  0  0  0  0  0
  -26.8229  -14.0361   19.5826 C   0  0  0  0  0  0  0  0  0  0  0  0
  -25.9232  -14.2686   21.8127 C   0  0  0  0  0  0  0  0  0  0  0  0
  -27.2668  -28.5787   20.9069 C   0  0  0  0  0  0  0  0  0  0  0  0
  -23.5938  -12.1345   20.6127 C   0  0  0  0  0  0  0  0  0  0  0  0
  -22.3545  -11.7216   21.1018 C   0  0  0  0  0  0  0  0  0  0  0  0
  -27.3036  -26.9339   19.1426 C   0  0  0  0  0  0  0  0  0  0  0  0
  -27.7504  -24.4176   22.4041 C   0  0  0  0  0  0  0  0  0  0  0  0
  -23.4603  -10.4761   22.8520 C   0  0  0  0  0  0  0  0  0  0  0  0
  -26.7561  -16.2084   20.6378 C   0  0  0  0  0  0  0  0  0  0  0  0
  -28.2689  -18.2517   20.4287 C   0  0  0  0  0  0  0  0  0  0  0  0
  -18.5235  -26.3841   21.5333 C   0  0  0  0  0  0  0  0  0  0  0  0
  -25.3171  -28.2722   19.4928 C   0  0  0  0  0  0  0  0  0  0  0  0
  -19.9255  -26.4289   21.6544 C   0  0  0  0  0  0  0  0  0  0  0  0
  -25.9941  -27.2772   18.7733 C   0  0  0  0  0  0  0  0  0  0  0  0
  -29.0301  -24.5001   22.9242 C   0  0  0  0  0  0  0  0  0  0  0  0
  -26.2454  -13.4670   20.7176 C   0  0  0  0  0  0  0  0  0  0  0  0
  -27.9355  -27.5802   20.2048 C   0  0  0  0  0  0  0  0  0  0  0  0
  -24.7664  -11.7181   21.2431 C   0  0  0  0  0  0  0  0  0  0  0  0
  -22.2878  -10.8924   22.2215 C   0  0  0  0  0  0  0  0  0  0  0  0
  -24.6996  -10.8889   22.3628 C   0  0  0  0  0  0  0  0  0  0  0  0
  -27.0200  -17.6243   20.5975 C   0  0  0  0  0  0  0  0  0  0  0  0
  -26.7319  -24.0323   23.2524 C   0  0  0  0  0  0  0  0  0  0  0  0
  -29.2066  -24.1920   24.2581 C   0  0  0  0  0  0  0  0  0  0  0  0
  -27.9854  -19.5953   20.4614 C   0  0  0  0  0  0  0  0  0  0  0  0
  -29.5690  -17.6720   20.2575 C   0  0  0  0  0  0  0  0  0  0  0  0
  -25.3487  -23.9222   22.7713 C   0  0  0  0  0  0  0  0  0  0  0  0
  -22.7127  -26.4690   19.2290 C   0  0  0  0  0  0  0  0  0  0  0  0
  -23.3694  -26.6688   16.0586 C   0  0  0  0  0  0  0  0  0  0  0  0
  -25.6877  -27.1786   13.6066 C   0  0  0  0  0  0  0  0  0  0  0  0
  -17.8452  -25.5589   20.4685 C   0  0  0  0  0  0  0  0  0  0  0  0
  -23.9219  -28.6777   19.1037 C   0  0  0  0  0  0  0  0  0  0  0  0
  -25.3507  -26.5582   17.6167 C   0  0  0  0  0  0  0  0  0  0  0  0
  -18.7714  -25.1655   19.3206 C   0  0  0  0  0  0  0  0  0  0  0  0
  -23.5638  -22.0458   20.3147 C   0  0  0  0  0  0  0  0  0  0  0  0
  -20.0977  -24.6402   19.8608 C   0  0  0  0  0  0  0  0  0  0  0  0
  -24.3940  -20.7694   20.1673 C   0  0  0  0  0  0  0  0  0  0  0  0
  -23.5598  -22.5524   21.7548 C   0  0  0  0  0  0  0  0  0  0  0  0
  -25.7372  -21.4702   22.1935 C   0  0  0  0  0  0  0  0  0  0  0  0
  -20.8291  -25.7177   20.6706 C   0  0  1  0  0  0  0  0  0  0  0  0
  -23.1743  -27.5890   18.3400 C   0  0  1  0  0  0  0  0  0  0  0  0
  -25.8090  -20.9544   20.7468 C   0  0  1  0  0  0  0  0  0  0  0  0
  -30.5572  -24.2591   24.8876 C   0  0  0  0  0  0  0  0  0  0  0  0
  -25.9328  -27.2426   11.1100 C   0  0  0  0  0  0  0  0  0  0  0  0
  -23.2678  -23.6205   15.9730 C   0  0  0  0  0  0  0  0  0  0  0  0
  -24.4290  -23.7135   13.7569 C   0  0  0  0  0  0  0  0  0  0  0  0
  -22.1789  -24.7556   14.0287 C   0  0  0  0  0  0  0  0  0  0  0  0
  -26.5530  -30.0085   13.6479 C   0  0  0  0  0  0  0  0  0  0  0  0
  -30.1787  -24.9161   22.0402 C   0  0  0  0  0  0  0  0  0  0  0  0
  -30.6372  -26.3588   22.2642 C   0  0  0  0  0  0  0  0  0  0  0  0
  -29.5696  -27.3916   21.9223 C   0  0  0  0  0  0  0  0  0  1  0  0
  -24.1926  -25.8613   15.0844 C   0  0  1  0  0  0  0  0  0  0  0  0
  -25.6671  -28.0554   12.3675 C   0  0  2  0  0  0  0  0  0  0  0  0
  -23.5288  -24.4997   14.7337 C   0  0  0  0  0  0  0  0  0  0  0  0
  -26.0178  -18.4975   20.7279 N   0  0  0  0  0  0  0  0  0  0  0  0
  -26.9336  -23.7367   24.5540 N   0  0  0  0  0  0  0  0  0  0  0  0
  -28.1913  -23.8178   25.0651 N   0  0  0  0  0  0  0  0  0  0  0  0
  -26.6365  -19.6873   20.6412 N   0  0  0  0  0  0  0  0  0  0  0  0
  -24.9259  -22.6941   22.2572 N   0  0  0  0  0  0  0  0  0  0  0  0
  -23.9831  -26.9860   17.2787 N   0  0  0  0  0  0  0  0  0  0  0  0
  -28.7608  -20.6951   20.3538 N   0  0  0  0  0  0  0  0  0  0  0  0
  -30.3376  -17.4063   21.3990 N   0  0  0  0  0  0  0  0  0  0  0  0
  -21.4643  -26.6707   19.7859 N   0  0  0  0  0  0  0  0  0  0  0  0
  -24.4267  -26.7260   13.9330 N   0  0  0  0  0  0  0  0  0  0  0  0
  -26.7064  -29.1188   12.4682 N   0  3  0  0  0  0  0  0  0  0  0  0
  -30.0419  -17.4128   19.1249 O   0  0  0  0  0  0  0  0  0  0  0  0
  -24.6636  -24.9409   22.8491 O   0  0  0  0  0  0  0  0  0  0  0  0
  -23.4352  -25.4933   19.3961 O   0  0  0  0  0  0  0  0  0  0  0  0
  -22.2265  -27.0118   15.7457 O   0  0  0  0  0  0  0  0  0  0  0  0
  -26.7196  -26.9180   14.2212 O   0  0  0  0  0  0  0  0  0  0  0  0
  -25.9960  -12.1295   20.7567 O   0  0  0  0  0  0  0  0  0  0  0  0
  -29.2064  -27.2382   20.5509 O   0  0  0  0  0  0  0  0  0  1  0  0
  -21.0975  -10.4973   22.6920 F   0  0  0  0  0  0  0  0  0  0  0  0
  -25.8226  -10.4866   22.9734 F   0  0  0  0  0  0  0  0  0  0  0  0
  1  2  1  0  0  0  0
  1  5  2  0  0  0  0
  2  6  2  0  0  0  0
  3  8  2  0  0  0  0
  3 16  1  0  0  0  0
  4  9  1  0  0  0  0
  4 16  2  0  0  0  0
  5 18  1  0  0  0  0
  6 20  1  0  0  0  0
  7 10  2  0  0  0  0
  7 19  1  0  0  0  0
  8 23  1  0  0  0  0
  9 23  2  0  0  0  0
 10 24  1  0  0  0  0
 11 12  2  0  0  0  0
 11 25  1  0  0  0  0
 12 26  1  0  0  0  0
 13 21  1  0  0  0  0
 13 24  2  0  0  0  0
 14 22  1  0  0  0  0
 14 29  2  0  0  0  0
 15 26  2  0  0  0  0
 15 27  1  0  0  0  0
 16 28  1  0  0  0  0
 17 28  1  0  0  0  0
 17 31  2  0  0  0  0
 17 32  1  0  0  0  0
 18 20  2  0  0  0  0
 18 37  1  0  0  0  0
 19 21  2  0  0  0  0
 19 38  1  0  0  0  0
 20 46  1  0  0  0  0
 21 39  1  0  0  0  0
 22 30  2  0  0  0  0
 22 55  1  0  0  0  0
 23 77  1  0  0  0  0
 24 78  1  0  0  0  0
 25 27  2  0  0  0  0
 25 77  1  0  0  0  0
 26 79  1  0  0  0  0
 27 80  1  0  0  0  0
 28 61  2  0  0  0  0
 29 33  1  0  0  0  0
 29 62  1  0  0  0  0
 30 49  1  0  0  0  0
 30 63  1  0  0  0  0
 31 64  1  0  0  0  0
 31 67  1  0  0  0  0
 32 68  1  0  0  0  0
 32 72  2  0  0  0  0
 33 65  1  0  0  0  0
 33 73  2  0  0  0  0
 34 47  1  0  0  0  0
 34 69  1  0  0  0  0
 34 74  2  0  0  0  0
 35 58  1  0  0  0  0
 35 66  1  0  0  0  0
 35 75  2  0  0  0  0
 36 59  1  0  0  0  0
 36 70  1  0  0  0  0
 36 76  2  0  0  0  0
 37 40  1  0  0  0  0
 38 47  1  0  0  0  0
 39 66  1  0  0  0  0
 40 42  1  0  0  0  0
 41 43  1  0  0  0  0
 41 44  1  0  0  0  0
 42 46  1  0  0  0  0
 43 48  1  0  0  0  0
 44 65  1  0  0  0  0
 45 48  1  0  0  0  0
 45 65  1  0  0  0  0
 46 69  1  0  0  0  0
 47 66  1  0  0  0  0
 48 64  1  0  0  0  0
 50 59  1  0  0  0  0
 51 60  1  0  0  0  0
 52 60  1  0  0  0  0
 53 60  1  0  0  0  0
 54 71  1  0  0  0  0
 55 56  1  0  0  0  0
 56 57  1  0  0  0  0
 57 78  1  0  0  0  0
 58 60  1  0  0  0  0
 58 70  1  0  0  0  0
 59 71  1  0  0  0  0
 61 64  1  0  0  0  0
 62 63  2  0  0  0  0
M  CHG  1  71   1
M  ISO  4  29 100  33 100  57 101  78 101
M  END
> <Batch ID>
0074

> <Smiles>
CNC(C)C(=O)NC(C(=O)N1Cc2cc([101O:1][101CH2:1]CCc3c[100c:0]([100C:0](=O)N4CCCC(n5nc(-c6ccc(Oc7ccc(F)cc7F)cc6)c(C(N)=O)c5N)C4)nnc3C)ccc2CC1C(=O)NC1CCCc2ccccc21)C(C)(C)C

> <Shape>
0.191

> <Color>
0.066

> <Negative vol penalty>
0.000

$$$$

  -OEChem-04052318293D

 84 92  0     1  0  0  0  0  0999 V2000
  -30.2217  -29.0141   10.3386 C   0  0  0  0  0  0  0  0  0  0  0  0
  -29.8255  -27.7303   10.6995 C   0  0  0  0  0  0  0  0  0  0  0  0
  -23.0738   -9.8839   19.9313 C   0  0  0  0  0  0  0  0  0  0  0  0
  -23.8383   -9.8680   22.2231 C   0  0  0  0  0  0  0  0  0  0  0  0
  -31.2431  -29.6508   11.0423 C   0  0  0  0  0  0  0  0  0  0  0  0
  -30.4513  -27.0820   11.7637 C   0  0  0  0  0  0  0  0  0  0  0  0
  -27.8677  -23.2233   15.7563 C   0  0  0  0  0  0  0  0  0  0  0  0
  -26.8096  -18.3183   20.9454 C   0  0  0  0  0  0  0  0  0  0  0  0
  -22.3259   -8.7316   20.1728 C   0  0  0  0  0  0  0  0  0  0  0  0
  -23.0903   -8.7157   22.4647 C   0  0  0  0  0  0  0  0  0  0  0  0
  -27.8343  -21.8313   15.8282 C   0  0  0  0  0  0  0  0  0  0  0  0
  -19.8602   -7.9256   23.0669 C   0  0  0  0  0  0  0  0  0  0  0  0
  -19.1054   -7.8786   24.2389 C   0  0  0  0  0  0  0  0  0  0  0  0
  -26.5714  -18.1704   19.5836 C   0  0  0  0  0  0  0  0  0  0  0  0
  -29.7026  -21.8714   17.3537 C   0  0  0  0  0  0  0  0  0  0  0  0
  -20.3405   -5.9299   24.9561 C   0  0  0  0  0  0  0  0  0  0  0  0
  -23.8302  -10.4520   20.9565 C   0  0  0  0  0  0  0  0  0  0  0  0
  -24.1819  -12.9768   20.8576 C   0  0  0  0  0  0  0  0  0  0  0  0
  -31.8752  -29.0138   12.1218 C   0  0  0  0  0  0  0  0  0  0  0  0
  -28.8273  -23.9503   16.4753 C   0  0  0  0  0  0  0  0  0  0  0  0
  -31.4831  -27.7103   12.4817 C   0  0  0  0  0  0  0  0  0  0  0  0
  -29.7444  -23.2726   17.2913 C   0  0  0  0  0  0  0  0  0  0  0  0
  -28.1142  -18.2841   21.4251 C   0  0  0  0  0  0  0  0  0  0  0  0
  -22.3340   -8.1475   21.4395 C   0  0  0  0  0  0  0  0  0  0  0  0
  -28.7537  -21.1550   16.6248 C   0  0  0  0  0  0  0  0  0  0  0  0
  -20.8551   -6.9747   22.8393 C   0  0  0  0  0  0  0  0  0  0  0  0
  -19.3456   -6.8808   25.1835 C   0  0  0  0  0  0  0  0  0  0  0  0
  -21.0952   -5.9769   23.7839 C   0  0  0  0  0  0  0  0  0  0  0  0
  -24.6035  -11.6420   20.7075 C   0  0  0  0  0  0  0  0  0  0  0  0
  -27.6635  -17.9924   18.7497 C   0  0  0  0  0  0  0  0  0  0  0  0
  -29.1373  -18.1009   20.5088 C   0  0  0  0  0  0  0  0  0  0  0  0
  -25.2763  -13.7250   20.4986 C   0  0  0  0  0  0  0  0  0  0  0  0
  -22.9143  -13.4940   21.2835 C   0  0  0  0  0  0  0  0  0  0  0  0
  -31.2082  -25.9062   15.6945 C   0  0  0  0  0  0  0  0  0  0  0  0
  -31.4077  -26.3145   18.9063 C   0  0  0  0  0  0  0  0  0  0  0  0
  -30.7979  -25.0766   22.0277 C   0  0  0  0  0  0  0  0  0  0  0  0
  -30.7645  -14.7204   20.6846 C   0  0  0  0  0  0  0  0  0  0  0  0
  -33.0066  -29.7237   12.8222 C   0  0  0  0  0  0  0  0  0  0  0  0
  -28.8330  -25.4529   16.4079 C   0  0  0  0  0  0  0  0  0  0  0  0
  -30.7817  -24.0077   18.0987 C   0  0  0  0  0  0  0  0  0  0  0  0
  -33.3632  -29.1141   14.1756 C   0  0  0  0  0  0  0  0  0  0  0  0
  -29.6125  -12.3612   18.2796 C   0  0  0  0  0  0  0  0  0  0  0  0
  -33.4623  -27.5958   14.0677 C   0  0  0  0  0  0  0  0  0  0  0  0
  -28.1748  -12.0695   18.7129 C   0  0  0  0  0  0  0  0  0  0  0  0
  -30.5329  -12.5679   19.4805 C   0  0  0  0  0  0  0  0  0  0  0  0
  -28.6369  -13.2946   20.8772 C   0  0  0  0  0  0  0  0  0  0  0  0
  -32.1209  -26.9839   13.6460 C   0  0  1  0  0  0  0  0  0  0  0  0
  -30.1811  -26.0626   16.7800 C   0  0  1  0  0  0  0  0  0  0  0  0
  -27.6597  -13.1341   19.7001 C   0  0  2  0  0  0  0  0  0  0  0  0
  -28.3756  -18.4407   22.8831 C   0  0  0  0  0  0  0  0  0  0  0  0
  -31.1081  -25.6205   24.4578 C   0  0  0  0  0  0  0  0  0  0  0  0
  -31.0696  -19.3516   21.6914 C   0  0  0  0  0  0  0  0  0  0  0  0
  -31.5175  -17.8796   19.7450 C   0  0  0  0  0  0  0  0  0  0  0  0
  -34.3631  -25.5874   18.6893 C   0  0  0  0  0  0  0  0  0  0  0  0
  -34.3826  -25.2191   21.1657 C   0  0  0  0  0  0  0  0  0  0  0  0
  -33.8660  -27.4800   20.2468 C   0  0  0  0  0  0  0  0  0  0  0  0
  -27.8802  -25.0594   22.5233 C   0  0  0  0  0  0  0  0  0  0  0  0
  -27.4420  -17.8303   17.2655 C   0  0  0  0  0  0  0  0  0  0  0  0
  -30.8414  -16.8599   21.9399 C   0  0  0  0  0  0  0  0  0  0  0  0
  -27.4551  -19.1650   16.5281 C   0  0  0  0  0  0  0  0  0  1  0  0
  -32.1549  -25.6318   20.0265 C   0  0  1  0  0  0  0  0  0  0  0  0
  -30.1765  -25.7107   23.2591 C   0  0  2  0  0  0  0  0  0  0  0  0
  -30.5585  -18.0590   20.9662 C   0  0  0  0  0  0  0  0  0  0  0  0
  -33.6735  -25.9653   20.0155 C   0  0  0  0  0  0  0  0  0  0  0  0
  -25.8671  -11.5447   20.2858 N   0  0  0  0  0  0  0  0  0  0  0  0
  -28.9449  -17.9537   19.1787 N   0  0  0  0  0  0  0  0  0  0  0  0
  -26.2489  -12.8279   20.1678 N   0  0  0  0  0  0  0  0  0  0  0  0
  -30.7508  -25.4760   17.9947 N   0  0  0  0  0  0  0  0  0  0  0  0
  -29.9883  -13.5910   20.3764 N   0  0  0  0  0  0  0  0  0  0  0  0
  -25.4919  -15.0562   20.4366 N   0  0  0  0  0  0  0  0  0  0  0  0
  -21.8994  -12.5860   21.6150 N   0  0  0  0  0  0  0  0  0  0  0  0
  -31.2121  -26.9343   14.7712 N   0  0  0  0  0  0  0  0  0  0  0  0
  -31.4703  -26.0038   21.2599 N   0  0  0  0  0  0  0  0  0  0  0  0
  -30.1707  -15.6443   21.5358 N   0  0  0  0  0  0  0  0  0  0  0  0
  -28.8983  -25.0269   23.6047 N   0  3  0  0  0  0  0  0  0  0  0  0
  -22.6831  -14.7250   21.3520 O   0  0  0  0  0  0  0  0  0  0  0  0
  -31.9438  -24.9261   15.6955 O   0  0  0  0  0  0  0  0  0  0  0  0
  -31.4010  -27.5466   18.8467 O   0  0  0  0  0  0  0  0  0  0  0  0
  -30.6999  -23.8780   21.7742 O   0  0  0  0  0  0  0  0  0  0  0  0
  -31.9002  -14.8952   20.2302 O   0  0  0  0  0  0  0  0  0  0  0  0
  -21.6041   -7.0232   21.6756 O   0  0  0  0  0  0  0  0  0  0  0  0
  -28.7237  -19.7964   16.6962 O   0  0  0  0  0  0  0  0  0  1  0  0
  -18.6218   -6.8367   26.3097 F   0  0  0  0  0  0  0  0  0  0  0  0
  -22.0505   -5.0614   23.5715 F   0  0  0  0  0  0  0  0  0  0  0  0
  1  2  1  0  0  0  0
  1  5  2  0  0  0  0
  2  6  2  0  0  0  0
  3  9  2  0  0  0  0
  3 17  1  0  0  0  0
  4 10  1  0  0  0  0
  4 17  2  0  0  0  0
  5 19  1  0  0  0  0
  6 21  1  0  0  0  0
  7 11  2  0  0  0  0
  7 20  1  0  0  0  0
  8 14  2  0  0  0  0
  8 23  1  0  0  0  0
  9 24  1  0  0  0  0
 10 24  2  0  0  0  0
 11 25  1  0  0  0  0
 12 13  2  0  0  0  0
 12 26  1  0  0  0  0
 13 27  1  0  0  0  0
 14 30  1  0  0  0  0
 15 22  1  0  0  0  0
 15 25  2  0  0  0  0
 16 27  2  0  0  0  0
 16 28  1  0  0  0  0
 17 29  1  0  0  0  0
 18 29  1  0  0  0  0
 18 32  2  0  0  0  0
 18 33  1  0  0  0  0
 19 21  2  0  0  0  0
 19 38  1  0  0  0  0
 20 22  2  0  0  0  0
 20 39  1  0  0  0  0
 21 47  1  0  0  0  0
 22 40  1  0  0  0  0
 23 31  2  0  0  0  0
 23 50  1  0  0  0  0
 24 81  1  0  0  0  0
 25 82  1  0  0  0  0
 26 28  2  0  0  0  0
 26 81  1  0  0  0  0
 27 83  1  0  0  0  0
 28 84  1  0  0  0  0
 29 65  2  0  0  0  0
 30 58  1  0  0  0  0
 30 66  2  0  0  0  0
 31 63  1  0  0  0  0
 31 66  1  0  0  0  0
 32 67  1  0  0  0  0
 32 70  1  0  0  0  0
 33 71  1  0  0  0  0
 33 76  2  0  0  0  0
 34 48  1  0  0  0  0
 34 72  1  0  0  0  0
 34 77  2  0  0  0  0
 35 61  1  0  0  0  0
 35 68  1  0  0  0  0
 35 78  2  0  0  0  0
 36 62  1  0  0  0  0
 36 73  1  0  0  0  0
 36 79  2  0  0  0  0
 37 69  1  0  0  0  0
 37 74  1  0  0  0  0
 37 80  2  0  0  0  0
 38 41  1  0  0  0  0
 39 48  1  0  0  0  0
 40 68  1  0  0  0  0
 41 43  1  0  0  0  0
 42 44  1  0  0  0  0
 42 45  1  0  0  0  0
 43 47  1  0  0  0  0
 44 49  1  0  0  0  0
 45 69  1  0  0  0  0
 46 49  1  0  0  0  0
 46 69  1  0  0  0  0
 47 72  1  0  0  0  0
 48 68  1  0  0  0  0
 49 67  1  0  0  0  0
 51 62  1  0  0  0  0
 52 63  1  0  0  0  0
 53 63  1  0  0  0  0
 54 64  1  0  0  0  0
 55 64  1  0  0  0  0
 56 64  1  0  0  0  0
 57 75  1  0  0  0  0
 58 60  1  0  0  0  0
 59 63  1  0  0  0  0
 59 74  1  0  0  0  0
 60 82  1  0  0  0  0
 61 64  1  0  0  0  0
 61 73  1  0  0  0  0
 62 75  1  0  0  0  0
 65 67  1  0  0  0  0
M  CHG  1  75   1
M  ISO  4  37 100  60 101  74 100  82 101
M  END
> <Batch ID>
0074

> <Smiles>
CNC(C)C(=O)NC(C(=O)N1Cc2cc([101O:1][101CH2:1]Cc3ccc(C)c(C(C)(C)C[100NH:0][100C:0](=O)N4CCCC(n5nc(-c6ccc(Oc7ccc(F)cc7F)cc6)c(C(N)=O)c5N)C4)n3)ccc2CC1C(=O)NC1CCCc2ccccc21)C(C)(C)C

> <Shape>
0.252

> <Color>
0.193

> <Negative vol penalty>
0.000

$$$$

  -OEChem-04052318293D

 90 98  0     1  0  0  0  0  0999 V2000
  -19.9664  -23.3243   17.9709 C   0  0  0  0  0  0  0  0  0  0  0  0
  -20.6037  -24.2732   18.7639 C   0  0  0  0  0  0  0  0  0  0  0  0
  -23.5326  -15.0601   22.5179 C   0  0  0  0  0  0  0  0  0  0  0  0
  -24.8822  -16.6306   21.2733 C   0  0  0  0  0  0  0  0  0  0  0  0
  -20.5845  -22.1005   17.7176 C   0  0  0  0  0  0  0  0  0  0  0  0
  -21.8591  -23.9983   19.3051 C   0  0  0  0  0  0  0  0  0  0  0  0
  -25.0730  -27.8826   18.8279 C   0  0  0  0  0  0  0  0  0  0  0  0
  -24.1792  -14.0004   21.8819 C   0  0  0  0  0  0  0  0  0  0  0  0
  -25.5289  -15.5709   20.6373 C   0  0  0  0  0  0  0  0  0  0  0  0
  -24.9278  -28.9427   19.7217 C   0  0  0  0  0  0  0  0  0  0  0  0
  -27.9758  -13.3546   21.3590 C   0  0  0  0  0  0  0  0  0  0  0  0
  -29.3648  -13.4171   21.2491 C   0  0  0  0  0  0  0  0  0  0  0  0
  -26.7531  -28.0746   21.0385 C   0  0  0  0  0  0  0  0  0  0  0  0
  -29.1779  -13.3374   18.8416 C   0  0  0  0  0  0  0  0  0  0  0  0
  -25.7476  -27.4912   23.9306 C   0  0  0  0  0  0  0  0  0  0  0  0
  -23.8840  -16.3752   22.2135 C   0  0  0  0  0  0  0  0  0  0  0  0
  -23.5934  -18.0988   24.0716 C   0  0  0  0  0  0  0  0  0  0  0  0
  -21.8524  -21.8143   18.2480 C   0  0  0  0  0  0  0  0  0  0  0  0
  -26.0539  -26.9029   19.0389 C   0  0  0  0  0  0  0  0  0  0  0  0
  -22.4942  -22.7690   19.0598 C   0  0  0  0  0  0  0  0  0  0  0  0
  -26.9104  -27.0045   20.1445 C   0  0  0  0  0  0  0  0  0  0  0  0
  -25.1774  -14.2558   20.9416 C   0  0  0  0  0  0  0  0  0  0  0  0
  -25.7660  -29.0372   20.8288 C   0  0  0  0  0  0  0  0  0  0  0  0
  -27.1877  -13.2833   20.2102 C   0  0  0  0  0  0  0  0  0  0  0  0
  -29.9659  -13.4086   19.9904 C   0  0  0  0  0  0  0  0  0  0  0  0
  -27.7888  -13.2747   18.9516 C   0  0  0  0  0  0  0  0  0  0  0  0
  -23.2160  -17.4704   22.8698 C   0  0  0  0  0  0  0  0  0  0  0  0
  -24.9029  -26.4950   24.3760 C   0  0  0  0  0  0  0  0  0  0  0  0
  -25.1361  -28.6723   23.5626 C   0  0  0  0  0  0  0  0  0  0  0  0
  -22.6419  -19.0705   24.2644 C   0  0  0  0  0  0  0  0  0  0  0  0
  -23.0876  -27.8290   24.0723 C   0  0  0  0  0  0  0  0  0  0  0  0
  -24.7046  -17.8285   24.9364 C   0  0  0  0  0  0  0  0  0  0  0  0
  -26.0173  -23.7667   19.5550 C   0  0  0  0  0  0  0  0  0  0  0  0
  -29.2368  -24.0835   19.3175 C   0  0  0  0  0  0  0  0  0  0  0  0
  -31.9754  -26.1046   19.5671 C   0  0  0  0  0  0  0  0  0  0  0  0
  -19.4423  -23.2045   22.3106 C   0  0  0  0  0  0  0  0  0  0  0  0
  -22.4600  -20.4591   17.9856 C   0  0  0  0  0  0  0  0  0  0  0  0
  -26.2152  -25.7803   18.0510 C   0  0  0  0  0  0  0  0  0  0  0  0
  -27.9925  -25.9898   20.4052 C   0  0  0  0  0  0  0  0  0  0  0  0
  -23.9547  -20.3928   18.2884 C   0  0  0  0  0  0  0  0  0  0  0  0
  -18.2373  -19.8780   21.9121 C   0  0  0  0  0  0  0  0  0  0  0  0
  -24.2546  -21.0340   19.6396 C   0  0  0  0  0  0  0  0  0  0  0  0
  -19.4574  -19.0078   22.2186 C   0  0  0  0  0  0  0  0  0  0  0  0
  -18.6275  -21.1583   21.1769 C   0  0  0  0  0  0  0  0  0  0  0  0
  -20.8915  -21.0903   22.1482 C   0  0  0  0  0  0  0  0  0  0  0  0
  -23.8672  -22.5177   19.6444 C   0  0  1  0  0  0  0  0  0  0  0  0
  -26.9111  -24.5586   18.6431 C   0  0  1  0  0  0  0  0  0  0  0  0
  -20.5548  -19.8144   22.9386 C   0  0  2  0  0  0  0  0  0  0  0  0
  -25.4724  -25.1817   24.7968 C   0  0  0  0  0  0  0  0  0  0  0  0
  -26.2434  -30.9864   25.3207 C   0  0  0  0  0  0  0  0  0  0  0  0
  -21.2544  -29.4722   24.5418 C   0  0  0  0  0  0  0  0  0  0  0  0
  -34.4753  -26.0701   19.3510 C   0  0  0  0  0  0  0  0  0  0  0  0
  -29.4485  -22.6814   22.0192 C   0  0  0  0  0  0  0  0  0  0  0  0
  -31.8040  -23.5130   22.1878 C   0  0  0  0  0  0  0  0  0  0  0  0
  -31.1574  -21.9696   20.3377 C   0  0  0  0  0  0  0  0  0  0  0  0
  -31.9295  -28.0937   17.3761 C   0  0  0  0  0  0  0  0  0  0  0  0
  -25.8022  -31.1168   23.8705 C   0  0  0  0  0  0  0  0  0  0  0  0
  -20.3919  -25.1708   23.4901 C   0  0  0  0  0  0  0  0  0  0  0  0
  -25.9789  -29.8228   23.0634 C   0  0  2  0  0  0  0  0  0  1  0  0
  -21.6107  -28.0186   24.1543 C   0  0  1  0  0  0  0  0  0  0  0  0
  -30.3576  -24.3675   20.2881 C   0  0  1  0  0  0  0  0  0  0  0  0
  -33.1559  -26.3206   18.6375 C   0  0  2  0  0  0  0  0  0  0  0  0
  -30.6703  -23.1511   21.2046 C   0  0  0  0  0  0  0  0  0  0  0  0
  -20.9068  -26.1555   22.4536 C   0  0  0  0  0  0  0  0  0  0  0  0
  -20.8231  -27.6172   22.8771 C   0  0  0  0  0  0  0  0  0  0  0  0
  -22.1110  -17.9983   22.3367 N   0  0  0  0  0  0  0  0  0  0  0  0
  -23.5631  -26.6303   24.4600 N   0  0  0  0  0  0  0  0  0  0  0  0
  -23.8037  -28.8764   23.6208 N   0  0  0  0  0  0  0  0  0  0  0  0
  -21.7857  -18.9687   23.2076 N   0  0  0  0  0  0  0  0  0  0  0  0
  -28.1063  -24.9072   19.4139 N   0  0  0  0  0  0  0  0  0  0  0  0
  -19.6706  -21.8769   21.9127 N   0  0  0  0  0  0  0  0  0  0  0  0
  -22.4625  -19.9934   25.2331 N   0  0  0  0  0  0  0  0  0  0  0  0
  -25.5855  -16.7952   24.5892 N   0  0  0  0  0  0  0  0  0  0  0  0
  -24.8650  -23.3027   18.9497 N   0  0  0  0  0  0  0  0  0  0  0  0
  -31.4894  -24.8168   19.4846 N   0  0  0  0  0  0  0  0  0  0  0  0
  -20.4798  -23.8101   23.0089 N   0  0  0  0  0  0  0  0  0  0  0  0
  -33.1591  -27.7184   18.1206 N   0  3  0  0  0  0  0  0  0  0  0  0
  -24.9010  -18.4731   25.9944 O   0  0  0  0  0  0  0  0  0  0  0  0
  -26.3492  -23.5885   20.7211 O   0  0  0  0  0  0  0  0  0  0  0  0
  -29.3627  -23.1692   18.4990 O   0  0  0  0  0  0  0  0  0  0  0  0
  -31.5313  -26.9886   20.2964 O   0  0  0  0  0  0  0  0  0  0  0  0
  -18.3896  -23.8039   22.0667 O   0  0  0  0  0  0  0  0  0  0  0  0
  -25.8087  -13.2220   20.3210 O   0  0  0  0  0  0  0  0  0  0  0  0
  -25.6259  -30.0706   21.7031 O   0  0  0  0  0  0  0  0  0  1  0  0
  -31.2998  -13.4703   19.8850 F   0  0  0  0  0  0  0  0  0  0  0  0
  -27.0369  -13.2076   17.8443 F   0  0  0  0  0  0  0  0  0  0  0  0
  -22.1846  -25.8412   22.1237 F   0  0  0  0  0  0  0  0  0  0  0  0
  -20.1736  -26.0116   21.3140 F   0  0  0  0  0  0  0  0  0  0  0  0
  -19.5038  -27.9196   23.0563 F   0  0  0  0  0  0  0  0  0  0  0  0
  -21.2386  -28.3857   21.8334 F   0  0  0  0  0  0  0  0  0  0  0  0
  1  2  1  0  0  0  0
  1  5  2  0  0  0  0
  2  6  2  0  0  0  0
  3  8  2  0  0  0  0
  3 16  1  0  0  0  0
  4  9  1  0  0  0  0
  4 16  2  0  0  0  0
  5 18  1  0  0  0  0
  6 20  1  0  0  0  0
  7 10  2  0  0  0  0
  7 19  1  0  0  0  0
  8 22  1  0  0  0  0
  9 22  2  0  0  0  0
 10 23  1  0  0  0  0
 11 12  2  0  0  0  0
 11 24  1  0  0  0  0
 12 25  1  0  0  0  0
 13 21  1  0  0  0  0
 13 23  2  0  0  0  0
 14 25  2  0  0  0  0
 14 26  1  0  0  0  0
 15 28  2  0  0  0  0
 15 29  1  0  0  0  0
 16 27  1  0  0  0  0
 17 27  1  0  0  0  0
 17 30  2  0  0  0  0
 17 32  1  0  0  0  0
 18 20  2  0  0  0  0
 18 37  1  0  0  0  0
 19 21  2  0  0  0  0
 19 38  1  0  0  0  0
 20 46  1  0  0  0  0
 21 39  1  0  0  0  0
 22 83  1  0  0  0  0
 23 84  1  0  0  0  0
 24 26  2  0  0  0  0
 24 83  1  0  0  0  0
 25 85  1  0  0  0  0
 26 86  1  0  0  0  0
 27 66  2  0  0  0  0
 28 49  1  0  0  0  0
 28 67  1  0  0  0  0
 29 59  1  0  0  0  0
 29 68  2  0  0  0  0
 30 69  1  0  0  0  0
 30 72  1  0  0  0  0
 31 60  1  0  0  0  0
 31 67  2  0  0  0  0
 31 68  1  0  0  0  0
 32 73  1  0  0  0  0
 32 78  2  0  0  0  0
 33 47  1  0  0  0  0
 33 74  1  0  0  0  0
 33 79  2  0  0  0  0
 34 61  1  0  0  0  0
 34 70  1  0  0  0  0
 34 80  2  0  0  0  0
 35 62  1  0  0  0  0
 35 75  1  0  0  0  0
 35 81  2  0  0  0  0
 36 71  1  0  0  0  0
 36 76  1  0  0  0  0
 36 82  2  0  0  0  0
 37 40  1  0  0  0  0
 38 47  1  0  0  0  0
 39 70  1  0  0  0  0
 40 42  1  0  0  0  0
 41 43  1  0  0  0  0
 41 44  1  0  0  0  0
 42 46  1  0  0  0  0
 43 48  1  0  0  0  0
 44 71  1  0  0  0  0
 45 48  1  0  0  0  0
 45 71  1  0  0  0  0
 46 74  1  0  0  0  0
 47 70  1  0  0  0  0
 48 69  1  0  0  0  0
 50 57  1  0  0  0  0
 51 60  1  0  0  0  0
 52 62  1  0  0  0  0
 53 63  1  0  0  0  0
 54 63  1  0  0  0  0
 55 63  1  0  0  0  0
 56 77  1  0  0  0  0
 57 59  1  0  0  0  0
 58 64  1  0  0  0  0
 58 76  1  0  0  0  0
 59 84  1  0  0  0  0
 60 65  1  0  0  0  0
 61 63  1  0  0  0  0
 61 75  1  0  0  0  0
 62 77  1  0  0  0  0
 64 65  1  0  0  0  0
 64 87  1  0  0  0  0
 64 88  1  0  0  0  0
 65 89  1  0  0  0  0
 65 90  1  0  0  0  0
 66 69  1  0  0  0  0
M  CHG  1  77   1
M  ISO  4  36 100  59 101  76 100  84 101
M  END
> <Batch ID>
0074

> <Smiles>
CC[101CH:1](c1cc(C)nc(C(C)C(F)(F)C(F)(F)C[100NH:0][100C:0](=O)N2CCCC(n3nc(-c4ccc(Oc5ccc(F)cc5F)cc4)c(C(N)=O)c3N)C2)n1)[101O:1]c1ccc2c(c1)CN(C(=O)C(NC(=O)C(C)NC)C(C)(C)C)C(C(=O)NC1CCCc3ccccc31)C2

> <Shape>
0.212

> <Color>
0.068

> <Negative vol penalty>
0.000

$$$$

  -OEChem-04052318293D

 89 97  0     1  0  0  0  0  0999 V2000
  -35.3253  -25.8545   28.6194 C   0  0  0  0  0  0  0  0  0  0  0  0
  -34.7694  -24.6105   28.9000 C   0  0  0  0  0  0  0  0  0  0  0  0
  -23.0645   -9.8754   19.9514 C   0  0  0  0  0  0  0  0  0  0  0  0
  -23.8560   -9.8780   22.2341 C   0  0  0  0  0  0  0  0  0  0  0  0
  -34.5407  -27.0036   28.7088 C   0  0  0  0  0  0  0  0  0  0  0  0
  -33.4287  -24.5150   29.2713 C   0  0  0  0  0  0  0  0  0  0  0  0
  -31.0174  -20.7507   26.8921 C   0  0  0  0  0  0  0  0  0  0  0  0
  -22.3261   -8.7204   20.2087 C   0  0  0  0  0  0  0  0  0  0  0  0
  -23.1175   -8.7230   22.4914 C   0  0  0  0  0  0  0  0  0  0  0  0
  -31.2331  -19.4570   27.3650 C   0  0  0  0  0  0  0  0  0  0  0  0
  -19.3995   -7.9151   21.6985 C   0  0  0  0  0  0  0  0  0  0  0  0
  -18.0862   -7.8678   21.2311 C   0  0  0  0  0  0  0  0  0  0  0  0
  -29.1380  -19.5500   28.5571 C   0  0  0  0  0  0  0  0  0  0  0  0
  -29.3985  -15.0326   23.9390 C   0  0  0  0  0  0  0  0  0  0  0  0
  -18.6309   -5.9290   19.8965 C   0  0  0  0  0  0  0  0  0  0  0  0
  -31.7309  -15.2046   23.5066 C   0  0  0  0  0  0  0  0  0  0  0  0
  -23.8295  -10.4542   20.9641 C   0  0  0  0  0  0  0  0  0  0  0  0
  -24.1654  -12.9803   20.8456 C   0  0  0  0  0  0  0  0  0  0  0  0
  -33.1873  -26.9211   29.0720 C   0  0  0  0  0  0  0  0  0  0  0  0
  -29.8636  -21.4590   27.2575 C   0  0  0  0  0  0  0  0  0  0  0  0
  -32.6256  -25.6642   29.3670 C   0  0  0  0  0  0  0  0  0  0  0  0
  -28.9087  -20.8516   28.0854 C   0  0  0  0  0  0  0  0  0  0  0  0
  -30.4283  -15.3029   23.0447 C   0  0  0  0  0  0  0  0  0  0  0  0
  -29.6985  -14.6774   25.2494 C   0  0  0  0  0  0  0  0  0  0  0  0
  -22.3526   -8.1442   21.4787 C   0  0  0  0  0  0  0  0  0  0  0  0
  -30.2947  -18.8576   28.2000 C   0  0  0  0  0  0  0  0  0  0  0  0
  -20.3286   -6.9694   21.2647 C   0  0  0  0  0  0  0  0  0  0  0  0
  -17.7018   -6.8748   20.3302 C   0  0  0  0  0  0  0  0  0  0  0  0
  -19.9443   -5.9763   20.3638 C   0  0  0  0  0  0  0  0  0  0  0  0
  -24.5930  -11.6471   20.6987 C   0  0  0  0  0  0  0  0  0  0  0  0
  -31.0338  -14.6070   25.6125 C   0  0  0  0  0  0  0  0  0  0  0  0
  -25.2512  -13.7325   20.4692 C   0  0  0  0  0  0  0  0  0  0  0  0
  -22.8999  -13.4928   21.2833 C   0  0  0  0  0  0  0  0  0  0  0  0
  -29.2942  -24.1536   28.8447 C   0  0  0  0  0  0  0  0  0  0  0  0
  -26.2316  -23.5793   27.9432 C   0  0  0  0  0  0  0  0  0  0  0  0
  -30.7576  -14.6939   20.6811 C   0  0  0  0  0  0  0  0  0  0  0  0
  -23.8738  -21.3106   26.9734 C   0  0  0  0  0  0  0  0  0  0  0  0
  -32.3913  -28.1957   29.2011 C   0  0  0  0  0  0  0  0  0  0  0  0
  -29.6329  -22.8437   26.7173 C   0  0  0  0  0  0  0  0  0  0  0  0
  -27.6439  -21.5617   28.4908 C   0  0  0  0  0  0  0  0  0  0  0  0
  -30.8820  -27.9702   29.2375 C   0  0  0  0  0  0  0  0  0  0  0  0
  -29.5624  -12.4014   18.1999 C   0  0  0  0  0  0  0  0  0  0  0  0
  -30.5343  -26.8385   30.1994 C   0  0  0  0  0  0  0  0  0  0  0  0
  -28.1387  -12.0871   18.6576 C   0  0  0  0  0  0  0  0  0  0  0  0
  -30.4990  -12.6027   19.3870 C   0  0  0  0  0  0  0  0  0  0  0  0
  -28.6139  -13.3307   20.8147 C   0  0  0  0  0  0  0  0  0  0  0  0
  -31.1687  -25.5171   29.7490 C   0  0  1  0  0  0  0  0  0  0  0  0
  -28.6692  -23.6644   27.5688 C   0  0  1  0  0  0  0  0  0  0  0  0
  -27.6285  -13.1504   19.6463 C   0  0  2  0  0  0  0  0  0  0  0  0
  -21.4511  -21.1344   26.3434 C   0  0  0  0  0  0  0  0  0  0  0  0
  -27.5927  -12.4826   24.8509 C   0  0  0  0  0  0  0  0  0  0  0  0
  -26.2326  -13.6000   26.6300 C   0  0  0  0  0  0  0  0  0  0  0  0
  -31.1013  -14.8880   29.5516 C   0  0  0  0  0  0  0  0  0  0  0  0
  -32.9806  -14.2306   27.1304 C   0  0  0  0  0  0  0  0  0  0  0  0
  -31.0034  -12.7727   27.4292 C   0  0  0  0  0  0  0  0  0  0  0  0
  -25.4515  -23.8298   30.8824 C   0  0  0  0  0  0  0  0  0  0  0  0
  -23.2725  -22.7296   30.3258 C   0  0  0  0  0  0  0  0  0  0  0  0
  -23.8642  -24.9182   29.2854 C   0  0  0  0  0  0  0  0  0  0  0  0
  -24.5307  -20.3093   24.2669 C   0  0  0  0  0  0  0  0  0  0  0  0
  -28.5999  -14.3883   26.2132 C   0  0  0  0  0  0  0  0  0  0  0  0
  -31.2563  -16.7138   27.8315 C   0  0  0  0  0  0  0  0  0  1  0  0
  -25.0664  -22.8242   28.5358 C   0  0  1  0  0  0  0  0  0  0  0  0
  -22.8713  -21.3245   25.8336 C   0  0  2  0  0  0  0  0  0  0  0  0
  -27.3168  -13.8060   25.5693 C   0  0  0  0  0  0  0  0  0  0  0  0
  -30.8179  -15.2562   28.0811 C   0  0  1  0  0  0  0  0  0  0  0  0
  -30.1409  -15.6845   21.6362 C   0  0  0  0  0  0  0  0  0  0  0  0
  -31.4296  -14.2158   27.0577 C   0  0  0  0  0  0  0  0  0  0  0  0
  -24.4383  -23.5625   29.7515 C   0  0  0  0  0  0  0  0  0  0  0  0
  -32.0614  -14.8624   24.7720 N   0  0  0  0  0  0  0  0  0  0  0  0
  -25.8521  -11.5544   20.2628 N   0  0  0  0  0  0  0  0  0  0  0  0
  -26.2250  -12.8390   20.1325 N   0  0  0  0  0  0  0  0  0  0  0  0
  -27.4669  -22.9163   27.9418 N   0  0  0  0  0  0  0  0  0  0  0  0
  -29.9682  -13.6038   20.3140 N   0  0  0  0  0  0  0  0  0  0  0  0
  -25.4583  -15.0645   20.3966 N   0  0  0  0  0  0  0  0  0  0  0  0
  -21.8943  -12.5811   21.6322 N   0  0  0  0  0  0  0  0  0  0  0  0
  -30.4143  -24.9407   28.6567 N   0  0  0  0  0  0  0  0  0  0  0  0
  -24.1363  -22.5819   27.4382 N   0  0  0  0  0  0  0  0  0  0  0  0
  -23.1730  -20.2328   24.8650 N   0  3  0  0  0  0  0  0  0  0  0  0
  -22.6624  -14.7229   21.3469 O   0  0  0  0  0  0  0  0  0  0  0  0
  -28.7962  -23.8413   29.9199 O   0  0  0  0  0  0  0  0  0  0  0  0
  -26.0507  -24.7129   27.4915 O   0  0  0  0  0  0  0  0  0  0  0  0
  -31.9056  -14.8864   20.2722 O   0  0  0  0  0  0  0  0  0  0  0  0
  -24.3713  -20.2751   27.4103 O   0  0  0  0  0  0  0  0  0  0  0  0
  -21.6320   -7.0172   21.7302 O   0  0  0  0  0  0  0  0  0  0  0  0
  -30.5031  -17.5952   28.6635 O   0  0  0  0  0  0  0  0  0  1  0  0
  -16.4401   -6.8286   19.8827 F   0  0  0  0  0  0  0  0  0  0  0  0
  -20.8321   -5.0643   19.9444 F   0  0  0  0  0  0  0  0  0  0  0  0
  -28.7947  -15.7608   21.3700 F   0  0  0  0  0  0  0  0  0  0  0  0
  -30.6073  -16.9379   21.3192 F   0  0  0  0  0  0  0  0  0  0  0  0
  1  2  1  0  0  0  0
  1  5  2  0  0  0  0
  2  6  2  0  0  0  0
  3  8  2  0  0  0  0
  3 17  1  0  0  0  0
  4  9  1  0  0  0  0
  4 17  2  0  0  0  0
  5 19  1  0  0  0  0
  6 21  1  0  0  0  0
  7 10  2  0  0  0  0
  7 20  1  0  0  0  0
  8 25  1  0  0  0  0
  9 25  2  0  0  0  0
 10 26  1  0  0  0  0
 11 12  2  0  0  0  0
 11 27  1  0  0  0  0
 12 28  1  0  0  0  0
 13 22  1  0  0  0  0
 13 26  2  0  0  0  0
 14 23  2  0  0  0  0
 14 24  1  0  0  0  0
 15 28  2  0  0  0  0
 15 29  1  0  0  0  0
 16 23  1  0  0  0  0
 16 69  2  0  0  0  0
 17 30  1  0  0  0  0
 18 30  1  0  0  0  0
 18 32  2  0  0  0  0
 18 33  1  0  0  0  0
 19 21  2  0  0  0  0
 19 38  1  0  0  0  0
 20 22  2  0  0  0  0
 20 39  1  0  0  0  0
 21 47  1  0  0  0  0
 22 40  1  0  0  0  0
 23 66  1  0  0  0  0
 24 31  2  0  0  0  0
 24 60  1  0  0  0  0
 25 84  1  0  0  0  0
 26 85  1  0  0  0  0
 27 29  2  0  0  0  0
 27 84  1  0  0  0  0
 28 86  1  0  0  0  0
 29 87  1  0  0  0  0
 30 70  2  0  0  0  0
 31 67  1  0  0  0  0
 31 69  1  0  0  0  0
 32 71  1  0  0  0  0
 32 74  1  0  0  0  0
 33 75  1  0  0  0  0
 33 79  2  0  0  0  0
 34 48  1  0  0  0  0
 34 76  1  0  0  0  0
 34 80  2  0  0  0  0
 35 62  1  0  0  0  0
 35 72  1  0  0  0  0
 35 81  2  0  0  0  0
 36 66  1  0  0  0  0
 36 73  1  0  0  0  0
 36 82  2  0  0  0  0
 37 63  1  0  0  0  0
 37 77  1  0  0  0  0
 37 83  2  0  0  0  0
 38 41  1  0  0  0  0
 39 48  1  0  0  0  0
 40 72  1  0  0  0  0
 41 43  1  0  0  0  0
 42 44  1  0  0  0  0
 42 45  1  0  0  0  0
 43 47  1  0  0  0  0
 44 49  1  0  0  0  0
 45 73  1  0  0  0  0
 46 49  1  0  0  0  0
 46 73  1  0  0  0  0
 47 76  1  0  0  0  0
 48 72  1  0  0  0  0
 49 71  1  0  0  0  0
 50 63  1  0  0  0  0
 51 64  1  0  0  0  0
 52 64  1  0  0  0  0
 53 65  1  0  0  0  0
 54 67  1  0  0  0  0
 55 67  1  0  0  0  0
 56 68  1  0  0  0  0
 57 68  1  0  0  0  0
 58 68  1  0  0  0  0
 59 78  1  0  0  0  0
 60 64  1  0  0  0  0
 61 65  1  0  0  0  0
 61 85  1  0  0  0  0
 62 68  1  0  0  0  0
 62 77  1  0  0  0  0
 63 78  1  0  0  0  0
 65 67  1  0  0  0  0
 66 88  1  0  0  0  0
 66 89  1  0  0  0  0
 70 71  1  0  0  0  0
M  CHG  1  78   1
M  ISO  4  36 100  61 101  66 100  85 101
M  END
> <Batch ID>
0074

> <Smiles>
CNC(C)C(=O)NC(C(=O)N1Cc2cc([101O:1][101CH2:1]C(C)C(C)(C)c3ncc([100C:0](F)(F)[100C:0](=O)N4CCCC(n5nc(-c6ccc(Oc7ccc(F)cc7F)cc6)c(C(N)=O)c5N)C4)cc3CC(C)C)ccc2CC1C(=O)NC1CCCc2ccccc21)C(C)(C)C

> <Shape>
0.144

> <Color>
0.186

> <Negative vol penalty>
0.000

$$$$

  -OEChem-04052318293D

 90 98  0     1  0  0  0  0  0999 V2000
  -20.7029  -25.1989   14.3001 C   0  0  0  0  0  0  0  0  0  0  0  0
  -21.7778  -24.3665   14.5952 C   0  0  0  0  0  0  0  0  0  0  0  0
  -23.0813   -9.9434   19.9509 C   0  0  0  0  0  0  0  0  0  0  0  0
  -23.7667   -9.8825   22.2668 C   0  0  0  0  0  0  0  0  0  0  0  0
  -20.8417  -26.5816   14.4139 C   0  0  0  0  0  0  0  0  0  0  0  0
  -22.9925  -24.9164   15.0033 C   0  0  0  0  0  0  0  0  0  0  0  0
  -26.9440  -22.5345   19.0305 C   0  0  0  0  0  0  0  0  0  0  0  0
  -22.3214   -8.7900   20.1454 C   0  0  0  0  0  0  0  0  0  0  0  0
  -23.0068   -8.7291   22.4614 C   0  0  0  0  0  0  0  0  0  0  0  0
  -28.1186  -21.8007   18.8704 C   0  0  0  0  0  0  0  0  0  0  0  0
  -23.2913   -5.4211   21.8237 C   0  0  0  0  0  0  0  0  0  0  0  0
  -23.8758   -4.3718   22.5329 C   0  0  0  0  0  0  0  0  0  0  0  0
  -29.4073  -23.8290   19.0810 C   0  0  0  0  0  0  0  0  0  0  0  0
  -33.3953  -14.3484   18.6342 C   0  0  0  0  0  0  0  0  0  0  0  0
  -22.1214   -4.5133   24.1880 C   0  0  0  0  0  0  0  0  0  0  0  0
  -31.7753  -15.1385   19.9837 C   0  0  0  0  0  0  0  0  0  0  0  0
  -23.8041  -10.4896   21.0116 C   0  0  0  0  0  0  0  0  0  0  0  0
  -24.1680  -13.0142   20.9712 C   0  0  0  0  0  0  0  0  0  0  0  0
  -22.0558  -27.1482   14.8329 C   0  0  0  0  0  0  0  0  0  0  0  0
  -26.9917  -23.9249   19.2065 C   0  0  0  0  0  0  0  0  0  0  0  0
  -23.1481  -26.3080   15.1215 C   0  0  0  0  0  0  0  0  0  0  0  0
  -28.2320  -24.5778   19.2457 C   0  0  0  0  0  0  0  0  0  0  0  0
  -32.5294  -14.0198   19.7062 C   0  0  0  0  0  0  0  0  0  0  0  0
  -22.2841   -8.1829   21.4007 C   0  0  0  0  0  0  0  0  0  0  0  0
  -29.3503  -22.4483   18.8928 C   0  0  0  0  0  0  0  0  0  0  0  0
  -22.1219   -6.0165   22.2966 C   0  0  0  0  0  0  0  0  0  0  0  0
  -23.2909   -3.9179   23.7151 C   0  0  0  0  0  0  0  0  0  0  0  0
  -21.5370   -5.5626   23.4788 C   0  0  0  0  0  0  0  0  0  0  0  0
  -24.5897  -11.6806   20.8111 C   0  0  0  0  0  0  0  0  0  0  0  0
  -33.1441  -15.6582   18.2893 C   0  0  0  0  0  0  0  0  0  0  0  0
  -25.2768  -13.7642   20.6636 C   0  0  0  0  0  0  0  0  0  0  0  0
  -22.8884  -13.5289   21.3629 C   0  0  0  0  0  0  0  0  0  0  0  0
  -25.9022  -26.4303   17.5817 C   0  0  0  0  0  0  0  0  0  0  0  0
  -26.9902  -28.0793   20.1545 C   0  0  0  0  0  0  0  0  0  0  0  0
  -31.0624  -12.4477   20.9253 C   0  0  0  0  0  0  0  0  0  0  0  0
  -29.1137  -28.2145   22.8227 C   0  0  0  0  0  0  0  0  0  0  0  0
  -22.1724  -28.6506   14.8955 C   0  0  0  0  0  0  0  0  0  0  0  0
  -25.7171  -24.6985   19.4045 C   0  0  0  0  0  0  0  0  0  0  0  0
  -28.3386  -26.0660   19.4519 C   0  0  0  0  0  0  0  0  0  0  0  0
  -23.3792  -29.1351   15.6950 C   0  0  0  0  0  0  0  0  0  0  0  0
  -29.2534  -13.6722   18.0176 C   0  0  0  0  0  0  0  0  0  0  0  0
  -24.6310  -28.3615   15.2934 C   0  0  0  0  0  0  0  0  0  0  0  0
  -27.8057  -13.3906   18.4174 C   0  0  0  0  0  0  0  0  0  0  0  0
  -30.1995  -12.5936   18.5387 C   0  0  0  0  0  0  0  0  0  0  0  0
  -28.6666  -12.0970   20.4170 C   0  0  0  0  0  0  0  0  0  0  0  0
  -24.4743  -26.8654   15.5911 C   0  0  1  0  0  0  0  0  0  0  0  0
  -25.8571  -26.1786   19.0623 C   0  0  1  0  0  0  0  0  0  0  0  0
  -27.6840  -13.1780   19.9365 C   0  0  2  0  0  0  0  0  0  0  0  0
  -31.6492  -19.2746   22.6433 C   0  0  0  0  0  0  0  0  0  0  0  0
  -29.7995  -29.7058   24.7209 C   0  0  0  0  0  0  0  0  0  0  0  0
  -33.4130  -12.6619   21.6214 C   0  0  0  0  0  0  0  0  0  0  0  0
  -32.7572  -11.4493   19.5397 C   0  0  0  0  0  0  0  0  0  0  0  0
  -33.2188  -15.0551   15.2326 C   0  0  0  0  0  0  0  0  0  0  0  0
  -31.5917  -16.8205   15.9101 C   0  0  0  0  0  0  0  0  0  0  0  0
  -33.7784  -17.4578   14.8619 C   0  0  0  0  0  0  0  0  0  0  0  0
  -28.5761  -29.8180   18.2124 C   0  0  0  0  0  0  0  0  0  0  0  0
  -29.9337  -30.6270   20.1542 C   0  0  0  0  0  0  0  0  0  0  0  0
  -27.4802  -31.0714   20.0785 C   0  0  0  0  0  0  0  0  0  0  0  0
  -33.5819  -18.3277   20.4306 C   0  0  0  0  0  0  0  0  0  0  0  0
  -28.2774  -26.2210   24.8439 C   0  0  0  0  0  0  0  0  0  0  0  0
  -33.7616  -16.4978   17.2420 C   0  0  0  0  0  0  0  0  0  0  0  0
  -31.2830  -18.3341   21.4996 C   0  0  0  0  0  0  0  0  0  0  0  0
  -31.9055  -19.9812   19.6104 C   0  0  0  0  0  0  0  0  0  0  0  0
  -31.5688  -17.5213   19.0907 C   0  0  0  0  0  0  0  0  0  0  0  0
  -30.4912  -20.3838   19.1964 C   0  0  0  0  0  0  0  0  0  1  0  0
  -28.3012  -28.7241   20.5348 C   0  0  1  0  0  0  0  0  0  0  0  0
  -28.8806  -28.5778   24.2781 C   0  0  2  0  0  0  0  0  0  0  0  0
  -32.4489  -12.7194   20.3984 C   0  0  0  0  0  0  0  0  0  0  0  0
  -33.0884  -16.4749   15.8236 C   0  0  0  0  0  0  0  0  0  0  0  0
  -28.5710  -30.0323   19.7391 C   0  0  0  0  0  0  0  0  0  0  0  0
  -32.0713  -18.5354   20.1727 C   0  0  1  0  0  0  0  0  0  0  0  0
  -25.8667  -11.5858   20.4312 N   0  0  0  0  0  0  0  0  0  0  0  0
  -32.1577  -16.1283   19.1164 N   0  0  0  0  0  0  0  0  0  0  0  0
  -26.2569  -12.8692   20.3499 N   0  0  0  0  0  0  0  0  0  0  0  0
  -27.0637  -26.7793   19.6345 N   0  0  0  0  0  0  0  0  0  0  0  0
  -30.0333  -12.4022   19.9844 N   0  0  0  0  0  0  0  0  0  0  0  0
  -25.4991  -15.0954   20.6336 N   0  0  0  0  0  0  0  0  0  0  0  0
  -21.8595  -12.6192   21.6427 N   0  0  0  0  0  0  0  0  0  0  0  0
  -24.6601  -26.6090   17.0033 N   0  0  0  0  0  0  0  0  0  0  0  0
  -28.2638  -28.9020   21.9823 N   0  0  0  0  0  0  0  0  0  0  0  0
  -29.1302  -27.3974   25.1530 N   0  3  0  0  0  0  0  0  0  0  0  0
  -22.6594  -14.7594   21.4460 O   0  0  0  0  0  0  0  0  0  0  0  0
  -26.9840  -26.4616   17.0069 O   0  0  0  0  0  0  0  0  0  0  0  0
  -25.9390  -28.7034   20.3196 O   0  0  0  0  0  0  0  0  0  0  0  0
  -30.9004  -12.2838   22.1374 O   0  0  0  0  0  0  0  0  0  0  0  0
  -29.9670  -27.4048   22.4667 O   0  0  0  0  0  0  0  0  0  0  0  0
  -21.5424   -7.0576   21.5909 O   0  0  0  0  0  0  0  0  0  0  0  0
  -30.4983  -21.7346   18.7361 O   0  0  0  0  0  0  0  0  0  1  0  0
  -23.8514   -2.9093   24.3952 F   0  0  0  0  0  0  0  0  0  0  0  0
  -20.4129   -6.1299   23.9375 F   0  0  0  0  0  0  0  0  0  0  0  0
  1  2  1  0  0  0  0
  1  5  2  0  0  0  0
  2  6  2  0  0  0  0
  3  8  2  0  0  0  0
  3 17  1  0  0  0  0
  4  9  1  0  0  0  0
  4 17  2  0  0  0  0
  5 19  1  0  0  0  0
  6 21  1  0  0  0  0
  7 10  2  0  0  0  0
  7 20  1  0  0  0  0
  8 24  1  0  0  0  0
  9 24  2  0  0  0  0
 10 25  1  0  0  0  0
 11 12  2  0  0  0  0
 11 26  1  0  0  0  0
 12 27  1  0  0  0  0
 13 22  1  0  0  0  0
 13 25  2  0  0  0  0
 14 23  1  0  0  0  0
 14 30  2  0  0  0  0
 15 27  2  0  0  0  0
 15 28  1  0  0  0  0
 16 23  2  0  0  0  0
 16 73  1  0  0  0  0
 17 29  1  0  0  0  0
 18 29  1  0  0  0  0
 18 31  2  0  0  0  0
 18 32  1  0  0  0  0
 19 21  2  0  0  0  0
 19 37  1  0  0  0  0
 20 22  2  0  0  0  0
 20 38  1  0  0  0  0
 21 46  1  0  0  0  0
 22 39  1  0  0  0  0
 23 68  1  0  0  0  0
 24 87  1  0  0  0  0
 25 88  1  0  0  0  0
 26 28  2  0  0  0  0
 26 87  1  0  0  0  0
 27 89  1  0  0  0  0
 28 90  1  0  0  0  0
 29 72  2  0  0  0  0
 30 61  1  0  0  0  0
 30 73  1  0  0  0  0
 31 74  1  0  0  0  0
 31 77  1  0  0  0  0
 32 78  1  0  0  0  0
 32 82  2  0  0  0  0
 33 47  1  0  0  0  0
 33 79  1  0  0  0  0
 33 83  2  0  0  0  0
 34 66  1  0  0  0  0
 34 75  1  0  0  0  0
 34 84  2  0  0  0  0
 35 68  1  0  0  0  0
 35 76  1  0  0  0  0
 35 85  2  0  0  0  0
 36 67  1  0  0  0  0
 36 80  1  0  0  0  0
 36 86  2  0  0  0  0
 37 40  1  0  0  0  0
 38 47  1  0  0  0  0
 39 75  1  0  0  0  0
 40 42  1  0  0  0  0
 41 43  1  0  0  0  0
 41 44  1  0  0  0  0
 42 46  1  0  0  0  0
 43 48  1  0  0  0  0
 44 76  1  0  0  0  0
 45 48  1  0  0  0  0
 45 76  1  0  0  0  0
 46 79  1  0  0  0  0
 47 75  1  0  0  0  0
 48 74  1  0  0  0  0
 49 62  1  0  0  0  0
 50 67  1  0  0  0  0
 51 68  1  0  0  0  0
 52 68  1  0  0  0  0
 53 69  1  0  0  0  0
 54 69  1  0  0  0  0
 55 69  1  0  0  0  0
 56 70  1  0  0  0  0
 57 70  1  0  0  0  0
 58 70  1  0  0  0  0
 59 71  1  0  0  0  0
 60 81  1  0  0  0  0
 61 69  1  0  0  0  0
 62 71  1  0  0  0  0
 63 65  1  0  0  0  0
 63 71  1  0  0  0  0
 64 71  1  0  0  0  0
 64 73  1  0  0  0  0
 65 88  1  0  0  0  0
 66 70  1  0  0  0  0
 66 80  1  0  0  0  0
 67 81  1  0  0  0  0
 72 74  1  0  0  0  0
M  CHG  1  81   1
M  ISO  4  35 100  65 101  68 100  88 101
M  END
> <Batch ID>
0074

> <Smiles>
CCC(C)(Cn1cc([100C:0](C)(C)[100C:0](=O)N2CCCC(n3nc(-c4ccc(Oc5ccc(F)cc5F)cc4)c(C(N)=O)c3N)C2)cc1CC(C)(C)C)C[101CH2:1][101O:1]c1ccc2c(c1)CN(C(=O)C(NC(=O)C(C)NC)C(C)(C)C)C(C(=O)NC1CCCc3ccccc31)C2

> <Shape>
0.234

> <Color>
0.166

> <Negative vol penalty>
0.000

$$$$

  -OEChem-04052318293D

 84 92  0     1  0  0  0  0  0999 V2000
  -25.9777  -14.6933   11.4021 C   0  0  0  0  0  0  0  0  0  0  0  0
  -26.9965  -14.6530   12.3486 C   0  0  0  0  0  0  0  0  0  0  0  0
  -26.6874  -28.7901   19.1486 C   0  0  0  0  0  0  0  0  0  0  0  0
  -26.1291  -27.4727   21.0954 C   0  0  0  0  0  0  0  0  0  0  0  0
  -24.6702  -14.9711   11.7984 C   0  0  0  0  0  0  0  0  0  0  0  0
  -26.7085  -14.8916   13.6919 C   0  0  0  0  0  0  0  0  0  0  0  0
  -29.3751  -12.2824   18.5485 C   0  0  0  0  0  0  0  0  0  0  0  0
  -25.6603  -29.6819   19.4575 C   0  0  0  0  0  0  0  0  0  0  0  0
  -25.1020  -28.3645   21.4043 C   0  0  0  0  0  0  0  0  0  0  0  0
  -30.3902  -12.7095   19.4035 C   0  0  0  0  0  0  0  0  0  0  0  0
  -24.7977  -31.4144   22.8278 C   0  0  0  0  0  0  0  0  0  0  0  0
  -24.6760  -31.8258   24.1550 C   0  0  0  0  0  0  0  0  0  0  0  0
  -28.7322  -13.5004   20.9671 C   0  0  0  0  0  0  0  0  0  0  0  0
  -30.5602  -17.1066   20.0588 C   0  0  0  0  0  0  0  0  0  0  0  0
  -22.4444  -30.9036   24.2361 C   0  0  0  0  0  0  0  0  0  0  0  0
  -26.9217  -27.6855   19.9675 C   0  0  0  0  0  0  0  0  0  0  0  0
  -29.3218  -26.8280   20.0766 C   0  0  0  0  0  0  0  0  0  0  0  0
  -24.3643  -15.2036   13.1486 C   0  0  0  0  0  0  0  0  0  0  0  0
  -28.0287  -12.4712   18.8921 C   0  0  0  0  0  0  0  0  0  0  0  0
  -25.3958  -15.1741   14.1065 C   0  0  0  0  0  0  0  0  0  0  0  0
  -27.7019  -13.0725   20.1160 C   0  0  0  0  0  0  0  0  0  0  0  0
  -31.7954  -17.2066   20.6747 C   0  0  0  0  0  0  0  0  0  0  0  0
  -24.8676  -29.4691   20.5853 C   0  0  0  0  0  0  0  0  0  0  0  0
  -30.0689  -13.3213   20.6116 C   0  0  0  0  0  0  0  0  0  0  0  0
  -23.7427  -30.7477   22.2047 C   0  0  0  0  0  0  0  0  0  0  0  0
  -23.4993  -31.5703   24.8592 C   0  0  0  0  0  0  0  0  0  0  0  0
  -22.5661  -30.4923   22.9089 C   0  0  0  0  0  0  0  0  0  0  0  0
  -27.9822  -26.7636   19.6487 C   0  0  0  0  0  0  0  0  0  0  0  0
  -30.3558  -17.8284   18.9000 C   0  0  0  0  0  0  0  0  0  0  0  0
  -32.7444  -18.0215   20.0909 C   0  0  0  0  0  0  0  0  0  0  0  0
  -29.9177  -25.7301   19.5056 C   0  0  0  0  0  0  0  0  0  0  0  0
  -29.9695  -27.7937   20.9153 C   0  0  0  0  0  0  0  0  0  0  0  0
  -25.5967  -14.0835   17.6311 C   0  0  0  0  0  0  0  0  0  0  0  0
  -28.6428  -20.2754   18.3066 C   0  0  0  0  0  0  0  0  0  0  0  0
  -23.9088  -12.6031   19.9725 C   0  0  0  0  0  0  0  0  0  0  0  0
  -23.9122  -11.0848   23.0289 C   0  0  0  0  0  0  0  0  0  0  0  0
  -22.9440  -15.5465   13.5226 C   0  0  0  0  0  0  0  0  0  0  0  0
  -26.9454  -11.9807   17.9711 C   0  0  0  0  0  0  0  0  0  0  0  0
  -26.2719  -13.2802   20.5407 C   0  0  0  0  0  0  0  0  0  0  0  0
  -22.6597  -15.4180   15.0169 C   0  0  0  0  0  0  0  0  0  0  0  0
  -28.8815  -22.7836   15.6838 C   0  0  0  0  0  0  0  0  0  0  0  0
  -23.7670  -16.0809   15.8300 C   0  0  0  0  0  0  0  0  0  0  0  0
  -28.7714  -24.0783   16.4881 C   0  0  0  0  0  0  0  0  0  0  0  0
  -28.0160  -21.6768   16.2805 C   0  0  0  0  0  0  0  0  0  0  0  0
  -28.1872  -22.6971   18.5286 C   0  0  0  0  0  0  0  0  0  0  0  0
  -25.1189  -15.4030   15.5765 C   0  0  1  0  0  0  0  0  0  0  0  0
  -25.6112  -12.6880   18.1880 C   0  0  1  0  0  0  0  0  0  0  0  0
  -29.0689  -23.8299   17.9772 C   0  0  2  0  0  0  0  0  0  0  0  0
  -34.0974  -18.1791   20.6984 C   0  0  0  0  0  0  0  0  0  0  0  0
  -22.3749  -10.0117   24.6970 C   0  0  0  0  0  0  0  0  0  0  0  0
  -29.0512  -16.5945   17.1491 C   0  0  0  0  0  0  0  0  0  0  0  0
  -27.8034  -17.4541   19.1117 C   0  0  0  0  0  0  0  0  0  0  0  0
  -22.9151  -15.3589   20.8257 C   0  0  0  0  0  0  0  0  0  0  0  0
  -22.1903  -14.3479   22.9985 C   0  0  0  0  0  0  0  0  0  0  0  0
  -21.1728  -13.5650   20.8597 C   0  0  0  0  0  0  0  0  0  0  0  0
  -25.3228   -8.4904   22.8338 C   0  0  0  0  0  0  0  0  0  0  0  0
  -32.0713  -16.4385   21.9425 C   0  0  0  0  0  0  0  0  0  0  0  0
  -28.7031  -19.0691   17.4037 C   0  0  0  0  0  0  0  0  0  0  0  0
  -32.9418  -15.1974   21.7337 C   0  0  0  0  0  0  0  0  0  0  0  0
  -32.2879  -14.1435   20.8477 C   0  0  0  0  0  0  0  0  0  1  0  0
  -23.5576  -12.9262   21.4047 C   0  0  1  0  0  0  0  0  0  0  0  0
  -23.2948   -9.7833   23.5077 C   0  0  2  0  0  0  0  0  0  0  0  0
  -29.0431  -17.7560   18.1980 C   0  0  0  0  0  0  0  0  0  0  0  0
  -22.4860  -14.0475   21.5136 C   0  0  0  0  0  0  0  0  0  0  0  0
  -27.7410  -25.7085   18.8661 N   0  0  0  0  0  0  0  0  0  0  0  0
  -31.3028  -18.6183   18.3510 N   0  0  0  0  0  0  0  0  0  0  0  0
  -32.5169  -18.7162   18.9562 N   0  0  0  0  0  0  0  0  0  0  0  0
  -28.9371  -25.0997   18.7977 N   0  0  0  0  0  0  0  0  0  0  0  0
  -25.2485  -12.7892   19.6031 N   0  0  0  0  0  0  0  0  0  0  0  0
  -28.3104  -21.4901   17.7063 N   0  0  0  0  0  0  0  0  0  0  0  0
  -31.1797  -25.2522   19.5450 N   0  0  0  0  0  0  0  0  0  0  0  0
  -29.2098  -28.8591   21.4175 N   0  0  0  0  0  0  0  0  0  0  0  0
  -25.2046  -14.1573   16.3081 N   0  0  0  0  0  0  0  0  0  0  0  0
  -23.1669  -11.6642   22.0238 N   0  0  0  0  0  0  0  0  0  0  0  0
  -24.3598   -8.8237   23.9148 N   0  3  0  0  0  0  0  0  0  0  0  0
  -31.1898  -27.7233   21.1974 O   0  0  0  0  0  0  0  0  0  0  0  0
  -25.9162  -15.0238   18.3491 O   0  0  0  0  0  0  0  0  0  0  0  0
  -28.8867  -20.1407   19.5084 O   0  0  0  0  0  0  0  0  0  0  0  0
  -23.0285  -12.1937   19.2115 O   0  0  0  0  0  0  0  0  0  0  0  0
  -24.9496  -11.5436   23.5018 O   0  0  0  0  0  0  0  0  0  0  0  0
  -23.8654  -30.3392   20.8872 O   0  0  0  0  0  0  0  0  0  0  0  0
  -31.0577  -13.7397   21.4476 O   0  0  0  0  0  0  0  0  0  1  0  0
  -23.3832  -31.9641   26.1342 F   0  0  0  0  0  0  0  0  0  0  0  0
  -21.5496  -29.8511   22.3160 F   0  0  0  0  0  0  0  0  0  0  0  0
  1  2  1  0  0  0  0
  1  5  2  0  0  0  0
  2  6  2  0  0  0  0
  3  8  2  0  0  0  0
  3 16  1  0  0  0  0
  4  9  1  0  0  0  0
  4 16  2  0  0  0  0
  5 18  1  0  0  0  0
  6 20  1  0  0  0  0
  7 10  2  0  0  0  0
  7 19  1  0  0  0  0
  8 23  1  0  0  0  0
  9 23  2  0  0  0  0
 10 24  1  0  0  0  0
 11 12  2  0  0  0  0
 11 25  1  0  0  0  0
 12 26  1  0  0  0  0
 13 21  1  0  0  0  0
 13 24  2  0  0  0  0
 14 22  1  0  0  0  0
 14 29  2  0  0  0  0
 15 26  2  0  0  0  0
 15 27  1  0  0  0  0
 16 28  1  0  0  0  0
 17 28  1  0  0  0  0
 17 31  2  0  0  0  0
 17 32  1  0  0  0  0
 18 20  2  0  0  0  0
 18 37  1  0  0  0  0
 19 21  2  0  0  0  0
 19 38  1  0  0  0  0
 20 46  1  0  0  0  0
 21 39  1  0  0  0  0
 22 30  2  0  0  0  0
 22 57  1  0  0  0  0
 23 81  1  0  0  0  0
 24 82  1  0  0  0  0
 25 27  2  0  0  0  0
 25 81  1  0  0  0  0
 26 83  1  0  0  0  0
 27 84  1  0  0  0  0
 28 65  2  0  0  0  0
 29 63  1  0  0  0  0
 29 66  1  0  0  0  0
 30 49  1  0  0  0  0
 30 67  1  0  0  0  0
 31 68  1  0  0  0  0
 31 71  1  0  0  0  0
 32 72  1  0  0  0  0
 32 76  2  0  0  0  0
 33 47  1  0  0  0  0
 33 73  1  0  0  0  0
 33 77  2  0  0  0  0
 34 58  1  0  0  0  0
 34 70  1  0  0  0  0
 34 78  2  0  0  0  0
 35 61  1  0  0  0  0
 35 69  1  0  0  0  0
 35 79  2  0  0  0  0
 36 62  1  0  0  0  0
 36 74  1  0  0  0  0
 36 80  2  0  0  0  0
 37 40  1  0  0  0  0
 38 47  1  0  0  0  0
 39 69  1  0  0  0  0
 40 42  1  0  0  0  0
 41 43  1  0  0  0  0
 41 44  1  0  0  0  0
 42 46  1  0  0  0  0
 43 48  1  0  0  0  0
 44 70  1  0  0  0  0
 45 48  1  0  0  0  0
 45 70  1  0  0  0  0
 46 73  1  0  0  0  0
 47 69  1  0  0  0  0
 48 68  1  0  0  0  0
 50 62  1  0  0  0  0
 51 63  1  0  0  0  0
 52 63  1  0  0  0  0
 53 64  1  0  0  0  0
 54 64  1  0  0  0  0
 55 64  1  0  0  0  0
 56 75  1  0  0  0  0
 57 59  1  0  0  0  0
 58 63  1  0  0  0  0
 59 60  1  0  0  0  0
 60 82  1  0  0  0  0
 61 64  1  0  0  0  0
 61 74  1  0  0  0  0
 62 75  1  0  0  0  0
 65 68  1  0  0  0  0
 66 67  2  0  0  0  0
M  CHG  1  75   1
M  ISO  4  34 100  58 100  60 101  82 101
M  END
> <Batch ID>
0074

> <Smiles>
CNC(C)C(=O)NC(C(=O)N1Cc2cc([101O:1][101CH2:1]CCc3cc(C(C)(C)[100CH2:0][100C:0](=O)N4CCCC(n5nc(-c6ccc(Oc7ccc(F)cc7F)cc6)c(C(N)=O)c5N)C4)nnc3C)ccc2CC1C(=O)NC1CCCc2ccccc21)C(C)(C)C

> <Shape>
0.270

> <Color>
0.066

> <Negative vol penalty>
0.000

$$$$

  -OEChem-04052318293D

 87 95  0     1  0  0  0  0  0999 V2000
  -21.5623  -12.7025   19.9903 C   0  0  0  0  0  0  0  0  0  0  0  0
  -21.6805  -13.7780   20.8648 C   0  0  0  0  0  0  0  0  0  0  0  0
  -26.2704  -27.9758   22.0235 C   0  0  0  0  0  0  0  0  0  0  0  0
  -24.8006  -28.4294   20.1604 C   0  0  0  0  0  0  0  0  0  0  0  0
  -22.7045  -12.0360   19.5486 C   0  0  0  0  0  0  0  0  0  0  0  0
  -22.9409  -14.1869   21.2990 C   0  0  0  0  0  0  0  0  0  0  0  0
  -23.5061  -19.2174   21.1601 C   0  0  0  0  0  0  0  0  0  0  0  0
  -27.3244  -27.7527   21.1377 C   0  0  0  0  0  0  0  0  0  0  0  0
  -25.8547  -28.2063   19.2745 C   0  0  0  0  0  0  0  0  0  0  0  0
  -22.9208  -19.9526   22.1900 C   0  0  0  0  0  0  0  0  0  0  0  0
  -29.4782  -29.6113   19.3101 C   0  0  0  0  0  0  0  0  0  0  0  0
  -30.7106  -30.1917   19.6097 C   0  0  0  0  0  0  0  0  0  0  0  0
  -25.0640  -20.1129   23.2855 C   0  0  0  0  0  0  0  0  0  0  0  0
  -31.7251  -28.0002   19.6825 C   0  0  0  0  0  0  0  0  0  0  0  0
  -19.1024  -24.9306   26.7643 C   0  0  0  0  0  0  0  0  0  0  0  0
  -25.0084  -28.3141   21.5349 C   0  0  0  0  0  0  0  0  0  0  0  0
  -23.5482  -29.7673   23.0394 C   0  0  0  0  0  0  0  0  0  0  0  0
  -23.9802  -12.4430   19.9700 C   0  0  0  0  0  0  0  0  0  0  0  0
  -24.8750  -18.9147   21.1907 C   0  0  0  0  0  0  0  0  0  0  0  0
  -24.1011  -13.5243   20.8636 C   0  0  0  0  0  0  0  0  0  0  0  0
  -25.6648  -19.3760   22.2534 C   0  0  0  0  0  0  0  0  0  0  0  0
  -27.1166  -27.8679   19.7632 C   0  0  0  0  0  0  0  0  0  0  0  0
  -23.6992  -20.3980   23.2544 C   0  0  0  0  0  0  0  0  0  0  0  0
  -29.3691  -28.2253   19.1968 C   0  0  0  0  0  0  0  0  0  0  0  0
  -31.8341  -29.3862   19.7959 C   0  0  0  0  0  0  0  0  0  0  0  0
  -30.4926  -27.4198   19.3829 C   0  0  0  0  0  0  0  0  0  0  0  0
  -23.9190  -28.5441   22.4494 C   0  0  0  0  0  0  0  0  0  0  0  0
  -18.5993  -23.7670   26.1523 C   0  0  0  0  0  0  0  0  0  0  0  0
  -20.1473  -24.4875   27.5378 C   0  0  0  0  0  0  0  0  0  0  0  0
  -22.4616  -29.4566   23.8199 C   0  0  0  0  0  0  0  0  0  0  0  0
  -24.1337  -31.0681   22.8948 C   0  0  0  0  0  0  0  0  0  0  0  0
  -26.5772  -16.2324   21.2977 C   0  0  0  0  0  0  0  0  0  0  0  0
  -29.0786  -18.2654   20.9340 C   0  0  0  0  0  0  0  0  0  0  0  0
  -18.4874  -25.0640   23.3890 C   0  0  0  0  0  0  0  0  0  0  0  0
  -30.3230  -21.4222   21.2986 C   0  0  0  0  0  0  0  0  0  0  0  0
  -25.1826  -11.6617   19.5027 C   0  0  0  0  0  0  0  0  0  0  0  0
  -25.4964  -18.1435   20.0586 C   0  0  0  0  0  0  0  0  0  0  0  0
  -27.1428  -19.0950   22.3232 C   0  0  0  0  0  0  0  0  0  0  0  0
  -26.5050  -12.3941   19.7153 C   0  0  0  0  0  0  0  0  0  0  0  0
  -20.5252  -25.8582   26.2948 C   0  0  0  0  0  0  0  0  0  0  0  0
  -26.5685  -12.9842   21.1205 C   0  0  0  0  0  0  0  0  0  0  0  0
  -21.6145  -26.7320   25.6746 C   0  0  0  0  0  0  0  0  0  0  0  0
  -20.0841  -24.7502   25.3419 C   0  0  0  0  0  0  0  0  0  0  0  0
  -20.7241  -26.1216   23.3839 C   0  0  0  0  0  0  0  0  0  0  0  0
  -25.4525  -14.0133   21.3376 C   0  0  1  0  0  0  0  0  0  0  0  0
  -26.7992  -17.4531   20.4502 C   0  0  1  0  0  0  0  0  0  0  0  0
  -21.1753  -27.2702   24.3016 C   0  0  2  0  0  0  0  0  0  0  0  0
  -21.0758  -25.2166   28.4209 C   0  0  0  0  0  0  0  0  0  0  0  0
  -15.6808  -22.4279   22.9535 C   0  0  0  0  0  0  0  0  0  0  0  0
  -16.3050  -24.6351   25.5917 C   0  0  0  0  0  0  0  0  0  0  0  0
  -31.9517  -23.3206   21.0972 C   0  0  0  0  0  0  0  0  0  0  0  0
  -20.4534  -21.1663   28.8787 C   0  0  0  0  0  0  0  0  0  0  0  0
  -18.7900  -22.6305   23.2080 C   0  0  0  0  0  0  0  0  0  0  0  0
  -30.3131  -16.9916   23.4166 C   0  0  0  0  0  0  0  0  0  0  0  0
  -31.8622  -18.9527   23.5671 C   0  0  0  0  0  0  0  0  0  0  0  0
  -31.9327  -17.4603   21.5695 C   0  0  0  0  0  0  0  0  0  0  0  0
  -29.2548  -22.2110   18.6537 C   0  0  0  0  0  0  0  0  0  0  0  0
  -16.5132  -23.7015   22.8216 C   0  0  0  0  0  0  0  0  0  0  0  0
  -23.1594  -22.3024   26.3468 C   0  0  0  0  0  0  0  0  0  0  0  0
  -22.0576  -21.4238   26.9451 C   0  0  0  0  0  0  0  0  0  0  0  0
  -23.9869  -21.5399   25.3205 C   0  0  0  0  0  0  0  0  0  1  0  0
  -17.4673  -23.6632   25.2161 C   0  0  1  0  0  0  0  0  0  0  0  0
  -29.9771  -19.0337   21.8728 C   0  0  1  0  0  0  0  0  0  0  0  0
  -31.0906  -22.3188   20.3439 C   0  0  2  0  0  0  0  0  0  0  0  0
  -21.1890  -22.1689   27.9810 C   0  0  1  0  0  0  0  0  0  0  0  0
  -17.8242  -23.7370   23.6599 C   0  0  2  0  0  0  0  0  0  0  0  0
  -30.9931  -18.1134   22.6065 C   0  0  0  0  0  0  0  0  0  0  0  0
  -23.1319  -27.5318   22.8232 N   0  0  0  0  0  0  0  0  0  0  0  0
  -19.2695  -22.6672   26.5064 N   0  0  0  0  0  0  0  0  0  0  0  0
  -20.2045  -23.1379   27.3492 N   0  0  0  0  0  0  0  0  0  0  0  0
  -22.2558  -28.1183   23.6566 N   0  0  0  0  0  0  0  0  0  0  0  0
  -27.7027  -18.3319   21.1956 N   0  0  0  0  0  0  0  0  0  0  0  0
  -19.7000  -25.3011   24.0368 N   0  0  0  0  0  0  0  0  0  0  0  0
  -21.6717  -30.2004   24.6232 N   0  0  0  0  0  0  0  0  0  0  0  0
  -25.2455  -31.2106   22.0534 N   0  0  0  0  0  0  0  0  0  0  0  0
  -25.7901  -15.2673   20.6989 N   0  0  0  0  0  0  0  0  0  0  0  0
  -30.5937  -20.0886   21.0758 N   0  0  0  0  0  0  0  0  0  0  0  0
  -30.1476  -23.0729   19.4703 N   0  3  0  0  0  0  0  0  0  0  0  0
  -23.6943  -32.0711   23.5068 O   0  0  0  0  0  0  0  0  0  0  0  0
  -27.0837  -16.1701   22.4118 O   0  0  0  0  0  0  0  0  0  0  0  0
  -29.5785  -17.6355   19.9986 O   0  0  0  0  0  0  0  0  0  0  0  0
  -17.9412  -25.8654   22.6265 O   0  0  0  0  0  0  0  0  0  0  0  0
  -29.5625  -21.8611   22.1585 O   0  0  0  0  0  0  0  0  0  0  0  0
  -28.1450  -27.6505   18.8985 O   0  0  0  0  0  0  0  0  0  0  0  0
  -23.1302  -21.1152   24.2612 O   0  0  0  0  0  0  0  0  0  1  0  0
  -33.0178  -29.9439   20.0820 F   0  0  0  0  0  0  0  0  0  0  0  0
  -30.3943  -26.0877   19.2742 F   0  0  0  0  0  0  0  0  0  0  0  0
  1  2  1  0  0  0  0
  1  5  2  0  0  0  0
  2  6  2  0  0  0  0
  3  8  2  0  0  0  0
  3 16  1  0  0  0  0
  4  9  1  0  0  0  0
  4 16  2  0  0  0  0
  5 18  1  0  0  0  0
  6 20  1  0  0  0  0
  7 10  2  0  0  0  0
  7 19  1  0  0  0  0
  8 22  1  0  0  0  0
  9 22  2  0  0  0  0
 10 23  1  0  0  0  0
 11 12  2  0  0  0  0
 11 24  1  0  0  0  0
 12 25  1  0  0  0  0
 13 21  1  0  0  0  0
 13 23  2  0  0  0  0
 14 25  2  0  0  0  0
 14 26  1  0  0  0  0
 15 28  1  0  0  0  0
 15 29  2  0  0  0  0
 16 27  1  0  0  0  0
 17 27  1  0  0  0  0
 17 30  2  0  0  0  0
 17 31  1  0  0  0  0
 18 20  2  0  0  0  0
 18 36  1  0  0  0  0
 19 21  2  0  0  0  0
 19 37  1  0  0  0  0
 20 45  1  0  0  0  0
 21 38  1  0  0  0  0
 22 84  1  0  0  0  0
 23 85  1  0  0  0  0
 24 26  2  0  0  0  0
 24 84  1  0  0  0  0
 25 86  1  0  0  0  0
 26 87  1  0  0  0  0
 27 68  2  0  0  0  0
 28 62  1  0  0  0  0
 28 69  2  0  0  0  0
 29 48  1  0  0  0  0
 29 70  1  0  0  0  0
 30 71  1  0  0  0  0
 30 74  1  0  0  0  0
 31 75  1  0  0  0  0
 31 79  2  0  0  0  0
 32 46  1  0  0  0  0
 32 76  1  0  0  0  0
 32 80  2  0  0  0  0
 33 63  1  0  0  0  0
 33 72  1  0  0  0  0
 33 81  2  0  0  0  0
 34 66  1  0  0  0  0
 34 73  1  0  0  0  0
 34 82  2  0  0  0  0
 35 64  1  0  0  0  0
 35 77  1  0  0  0  0
 35 83  2  0  0  0  0
 36 39  1  0  0  0  0
 37 46  1  0  0  0  0
 38 72  1  0  0  0  0
 39 41  1  0  0  0  0
 40 42  1  0  0  0  0
 40 43  1  0  0  0  0
 41 45  1  0  0  0  0
 42 47  1  0  0  0  0
 43 73  1  0  0  0  0
 44 47  1  0  0  0  0
 44 73  1  0  0  0  0
 45 76  1  0  0  0  0
 46 72  1  0  0  0  0
 47 71  1  0  0  0  0
 49 58  1  0  0  0  0
 50 62  1  0  0  0  0
 51 64  1  0  0  0  0
 52 65  1  0  0  0  0
 53 66  1  0  0  0  0
 54 67  1  0  0  0  0
 55 67  1  0  0  0  0
 56 67  1  0  0  0  0
 57 78  1  0  0  0  0
 58 66  1  0  0  0  0
 59 60  1  0  0  0  0
 59 61  1  0  0  0  0
 60 65  1  0  0  0  0
 61 85  1  0  0  0  0
 62 66  1  0  0  0  0
 63 67  1  0  0  0  0
 63 77  1  0  0  0  0
 64 78  1  0  0  0  0
 65 70  1  0  0  0  0
 68 71  1  0  0  0  0
 69 70  1  0  0  0  0
M  CHG  1  78   1
M  ISO  4  34 100  61 101  66 100  85 101
M  END
> <Batch ID>
0074

> <Smiles>
CC[100C:0](C)(C(C)c1cc(C)n(C(C)CC[101CH2:1][101O:1]c2ccc3c(c2)CN(C(=O)C(NC(=O)C(C)NC)C(C)(C)C)C(C(=O)NC2CCCc4ccccc42)C3)n1)[100C:0](=O)N1CCCC(n2nc(-c3ccc(Oc4ccc(F)cc4F)cc3)c(C(N)=O)c2N)C1

> <Shape>
0.195

> <Color>
0.079

> <Negative vol penalty>
0.000

$$$$

  -OEChem-04052318293D

 85 93  0     1  0  0  0  0  0999 V2000
  -19.6849  -14.8783   17.0849 C   0  0  0  0  0  0  0  0  0  0  0  0
  -20.5472  -15.9553   17.2631 C   0  0  0  0  0  0  0  0  0  0  0  0
  -21.2442  -24.8177   18.9147 C   0  0  0  0  0  0  0  0  0  0  0  0
  -21.7293  -23.8535   21.0762 C   0  0  0  0  0  0  0  0  0  0  0  0
  -19.8988  -13.6921   17.7858 C   0  0  0  0  0  0  0  0  0  0  0  0
  -21.6233  -15.8473   18.1432 C   0  0  0  0  0  0  0  0  0  0  0  0
  -27.1516  -18.4103   17.5309 C   0  0  0  0  0  0  0  0  0  0  0  0
  -21.0469  -23.5408   18.3893 C   0  0  0  0  0  0  0  0  0  0  0  0
  -21.5320  -22.5765   20.5508 C   0  0  0  0  0  0  0  0  0  0  0  0
  -27.7153  -19.5650   18.0719 C   0  0  0  0  0  0  0  0  0  0  0  0
  -22.9569  -20.9686   17.3123 C   0  0  0  0  0  0  0  0  0  0  0  0
  -23.5377  -20.6798   16.0774 C   0  0  0  0  0  0  0  0  0  0  0  0
  -28.7214  -18.2461   19.8233 C   0  0  0  0  0  0  0  0  0  0  0  0
  -21.3511  -20.2267   15.1550 C   0  0  0  0  0  0  0  0  0  0  0  0
  -21.5854  -24.9741   20.2582 C   0  0  0  0  0  0  0  0  0  0  0  0
  -20.8229  -27.1286   21.3914 C   0  0  0  0  0  0  0  0  0  0  0  0
  -20.9837  -13.5662   18.6677 C   0  0  0  0  0  0  0  0  0  0  0  0
  -27.3600  -17.1642   18.1393 C   0  0  0  0  0  0  0  0  0  0  0  0
  -21.8512  -14.6588   18.8576 C   0  0  0  0  0  0  0  0  0  0  0  0
  -28.1614  -17.0767   19.2866 C   0  0  0  0  0  0  0  0  0  0  0  0
  -21.1908  -22.4202   19.2073 C   0  0  0  0  0  0  0  0  0  0  0  0
  -28.4979  -19.4834   19.2199 C   0  0  0  0  0  0  0  0  0  0  0  0
  -21.5732  -20.8863   17.4686 C   0  0  0  0  0  0  0  0  0  0  0  0
  -22.7348  -20.3089   14.9988 C   0  0  0  0  0  0  0  0  0  0  0  0
  -20.7704  -20.5153   16.3900 C   0  0  0  0  0  0  0  0  0  0  0  0
  -21.7899  -26.2929   20.8013 C   0  0  0  0  0  0  0  0  0  0  0  0
  -21.5159  -28.2613   21.7422 C   0  0  0  0  0  0  0  0  0  0  0  0
  -27.7169  -25.3716   21.1020 C   0  0  0  0  0  0  0  0  0  0  0  0
  -27.4131  -26.7382   22.7601 C   0  0  0  0  0  0  0  0  0  0  0  0
  -19.4232  -26.9012   21.6036 C   0  0  0  0  0  0  0  0  0  0  0  0
  -25.4794  -14.9795   19.4788 C   0  0  0  0  0  0  0  0  0  0  0  0
  -28.2309  -13.2680   19.6290 C   0  0  0  0  0  0  0  0  0  0  0  0
  -27.3332  -29.2032   22.9186 C   0  0  0  0  0  0  0  0  0  0  0  0
  -31.6427  -13.2690   19.7097 C   0  0  0  0  0  0  0  0  0  0  0  0
  -21.1469  -12.2804   19.4389 C   0  0  0  0  0  0  0  0  0  0  0  0
  -26.7670  -15.9244   17.5281 C   0  0  0  0  0  0  0  0  0  0  0  0
  -28.4323  -15.7602   19.9662 C   0  0  0  0  0  0  0  0  0  0  0  0
  -22.5275  -12.1196   20.0699 C   0  0  0  0  0  0  0  0  0  0  0  0
  -25.3077  -30.8804   20.4847 C   0  0  0  0  0  0  0  0  0  0  0  0
  -22.9449  -13.4058   20.7758 C   0  0  0  0  0  0  0  0  0  0  0  0
  -24.1018  -29.9559   20.3227 C   0  0  0  0  0  0  0  0  0  0  0  0
  -26.5881  -30.0896   20.7338 C   0  0  0  0  0  0  0  0  0  0  0  0
  -25.3026  -28.2283   21.7363 C   0  0  0  0  0  0  0  0  0  0  0  0
  -23.0441  -14.5718   19.7847 C   0  0  1  0  0  0  0  0  0  0  0  0
  -26.6220  -14.7778   18.5240 C   0  0  1  0  0  0  0  0  0  0  0  0
  -23.9831  -28.9883   21.5135 C   0  0  2  0  0  0  0  0  0  0  0  0
  -30.5928  -26.8459   21.4252 C   0  0  0  0  0  0  0  0  0  0  0  0
  -33.6098  -11.7193   19.8726 C   0  0  0  0  0  0  0  0  0  0  0  0
  -31.3135  -21.3855   19.5851 C   0  0  0  0  0  0  0  0  0  0  0  0
  -29.0210  -27.9832   24.2288 C   0  0  0  0  0  0  0  0  0  0  0  0
  -26.6080  -27.9978   24.8701 C   0  0  0  0  0  0  0  0  0  0  0  0
  -27.6976  -12.9085   22.6116 C   0  0  0  0  0  0  0  0  0  0  0  0
  -30.0869  -12.2121   22.8840 C   0  0  0  0  0  0  0  0  0  0  0  0
  -28.5526  -10.8649   21.4510 C   0  0  0  0  0  0  0  0  0  0  0  0
  -32.6859  -14.1292   17.0770 C   0  0  0  0  0  0  0  0  0  0  0  0
  -28.2832  -24.7752   19.8381 C   0  0  0  0  0  0  0  0  0  0  0  0
  -28.8083  -23.3449   20.0099 C   0  0  0  0  0  0  0  0  0  0  0  0
  -29.3886  -22.7604   18.7146 C   0  0  0  0  0  0  0  0  0  0  0  0
  -29.2075  -27.3939   21.1279 C   0  0  0  0  0  0  0  0  0  0  0  0
  -29.3461  -13.1229   20.6362 C   0  0  1  0  0  0  0  0  0  0  0  0
  -32.6688  -12.4609   18.9359 C   0  0  2  0  0  0  0  0  0  0  0  0
  -29.9440  -21.3475   18.9201 C   0  0  2  0  0  0  0  0  0  1  0  0
  -27.5773  -27.9047   23.6455 C   0  0  0  0  0  0  0  0  0  0  0  0
  -28.9143  -12.3023   21.8842 C   0  0  0  0  0  0  0  0  0  0  0  0
  -23.0048  -26.8475   20.7767 N   0  0  0  0  0  0  0  0  0  0  0  0
  -26.7534  -24.8796   21.8476 N   0  0  0  0  0  0  0  0  0  0  0  0
  -26.5601  -25.7490   22.9025 N   0  0  0  0  0  0  0  0  0  0  0  0
  -22.8057  -28.0439   21.3556 N   0  0  0  0  0  0  0  0  0  0  0  0
  -28.1616  -26.5413   21.6395 N   0  0  0  0  0  0  0  0  0  0  0  0
  -27.8251  -14.5773   19.3341 N   0  0  0  0  0  0  0  0  0  0  0  0
  -26.4275  -29.1660   21.8583 N   0  0  0  0  0  0  0  0  0  0  0  0
  -21.1418  -29.4122   22.3404 N   0  0  0  0  0  0  0  0  0  0  0  0
  -18.8729  -25.6829   21.1828 N   0  0  0  0  0  0  0  0  0  0  0  0
  -24.2719  -14.4852   19.0236 N   0  0  0  0  0  0  0  0  0  0  0  0
  -30.4792  -12.5573   19.9119 N   0  0  0  0  0  0  0  0  0  0  0  0
  -33.4820  -13.3552   18.0641 N   0  3  0  0  0  0  0  0  0  0  0  0
  -18.6792  -27.7598   22.1354 O   0  0  0  0  0  0  0  0  0  0  0  0
  -25.6790  -15.5405   20.5498 O   0  0  0  0  0  0  0  0  0  0  0  0
  -27.7429  -12.2573   19.1172 O   0  0  0  0  0  0  0  0  0  0  0  0
  -27.9284  -30.2197   23.2856 O   0  0  0  0  0  0  0  0  0  0  0  0
  -31.8538  -14.4154   20.0991 O   0  0  0  0  0  0  0  0  0  0  0  0
  -20.9981  -21.1740   18.6950 O   0  0  0  0  0  0  0  0  0  0  0  0
  -29.0487  -20.6091   19.7505 O   0  0  0  0  0  0  0  0  0  1  0  0
  -23.2925  -20.0332   13.8126 F   0  0  0  0  0  0  0  0  0  0  0  0
  -19.4404  -20.4357   16.5337 F   0  0  0  0  0  0  0  0  0  0  0  0
  1  2  1  0  0  0  0
  1  5  2  0  0  0  0
  2  6  2  0  0  0  0
  3  8  2  0  0  0  0
  3 15  1  0  0  0  0
  4  9  1  0  0  0  0
  4 15  2  0  0  0  0
  5 17  1  0  0  0  0
  6 19  1  0  0  0  0
  7 10  2  0  0  0  0
  7 18  1  0  0  0  0
  8 21  1  0  0  0  0
  9 21  2  0  0  0  0
 10 22  1  0  0  0  0
 11 12  2  0  0  0  0
 11 23  1  0  0  0  0
 12 24  1  0  0  0  0
 13 20  1  0  0  0  0
 13 22  2  0  0  0  0
 14 24  2  0  0  0  0
 14 25  1  0  0  0  0
 15 26  1  0  0  0  0
 16 26  1  0  0  0  0
 16 27  2  0  0  0  0
 16 30  1  0  0  0  0
 17 19  2  0  0  0  0
 17 35  1  0  0  0  0
 18 20  2  0  0  0  0
 18 36  1  0  0  0  0
 19 44  1  0  0  0  0
 20 37  1  0  0  0  0
 21 82  1  0  0  0  0
 22 83  1  0  0  0  0
 23 25  2  0  0  0  0
 23 82  1  0  0  0  0
 24 84  1  0  0  0  0
 25 85  1  0  0  0  0
 26 65  2  0  0  0  0
 27 68  1  0  0  0  0
 27 72  1  0  0  0  0
 28 56  1  0  0  0  0
 28 66  2  0  0  0  0
 28 69  1  0  0  0  0
 29 63  1  0  0  0  0
 29 67  2  0  0  0  0
 29 69  1  0  0  0  0
 30 73  1  0  0  0  0
 30 77  2  0  0  0  0
 31 45  1  0  0  0  0
 31 74  1  0  0  0  0
 31 78  2  0  0  0  0
 32 60  1  0  0  0  0
 32 70  1  0  0  0  0
 32 79  2  0  0  0  0
 33 63  1  0  0  0  0
 33 71  1  0  0  0  0
 33 80  2  0  0  0  0
 34 61  1  0  0  0  0
 34 75  1  0  0  0  0
 34 81  2  0  0  0  0
 35 38  1  0  0  0  0
 36 45  1  0  0  0  0
 37 70  1  0  0  0  0
 38 40  1  0  0  0  0
 39 41  1  0  0  0  0
 39 42  1  0  0  0  0
 40 44  1  0  0  0  0
 41 46  1  0  0  0  0
 42 71  1  0  0  0  0
 43 46  1  0  0  0  0
 43 71  1  0  0  0  0
 44 74  1  0  0  0  0
 45 70  1  0  0  0  0
 46 68  1  0  0  0  0
 47 59  1  0  0  0  0
 48 61  1  0  0  0  0
 49 62  1  0  0  0  0
 50 63  1  0  0  0  0
 51 63  1  0  0  0  0
 52 64  1  0  0  0  0
 53 64  1  0  0  0  0
 54 64  1  0  0  0  0
 55 76  1  0  0  0  0
 56 57  1  0  0  0  0
 57 58  1  0  0  0  0
 58 62  1  0  0  0  0
 59 69  1  0  0  0  0
 60 64  1  0  0  0  0
 60 75  1  0  0  0  0
 61 76  1  0  0  0  0
 62 83  1  0  0  0  0
 65 68  1  0  0  0  0
 66 67  1  0  0  0  0
M  CHG  1  76   1
M  ISO  4  33 100  62 101  63 100  83 101
M  END
> <Batch ID>
0074

> <Smiles>
CCn1c(CCC[101CH:1](C)[101O:1]c2ccc3c(c2)CN(C(=O)C(NC(=O)C(C)NC)C(C)(C)C)C(C(=O)NC2CCCc4ccccc42)C3)nnc1[100C:0](C)(C)[100C:0](=O)N1CCCC(n2nc(-c3ccc(Oc4ccc(F)cc4F)cc3)c(C(N)=O)c2N)C1

> <Shape>
0.218

> <Color>
0.078

> <Negative vol penalty>
0.000

$$$$

  -OEChem-04052318293D

 91 99  0     1  0  0  0  0  0999 V2000
  -16.7869  -29.9828   24.3427 C   0  0  0  0  0  0  0  0  0  0  0  0
  -17.9899  -30.4721   24.8417 C   0  0  0  0  0  0  0  0  0  0  0  0
  -22.5413  -19.5849   17.8927 C   0  0  0  0  0  0  0  0  0  0  0  0
  -24.2164  -19.6757   16.1540 C   0  0  0  0  0  0  0  0  0  0  0  0
  -16.7899  -28.9375   23.4201 C   0  0  0  0  0  0  0  0  0  0  0  0
  -19.1966  -29.9154   24.4191 C   0  0  0  0  0  0  0  0  0  0  0  0
  -26.0114  -31.6949   23.1123 C   0  0  0  0  0  0  0  0  0  0  0  0
  -21.5645  -19.3054   16.9371 C   0  0  0  0  0  0  0  0  0  0  0  0
  -23.2395  -19.3960   15.1983 C   0  0  0  0  0  0  0  0  0  0  0  0
  -27.3087  -31.3039   23.4410 C   0  0  0  0  0  0  0  0  0  0  0  0
  -21.5685  -16.6856   14.0663 C   0  0  0  0  0  0  0  0  0  0  0  0
  -21.8698  -15.7326   13.0935 C   0  0  0  0  0  0  0  0  0  0  0  0
  -27.1951  -29.5548   21.7836 C   0  0  0  0  0  0  0  0  0  0  0  0
  -21.5522  -17.3936   11.3680 C   0  0  0  0  0  0  0  0  0  0  0  0
  -32.0520  -24.8390   20.8841 C   0  0  0  0  0  0  0  0  0  0  0  0
  -23.8673  -19.7702   17.5011 C   0  0  0  0  0  0  0  0  0  0  0  0
  -25.6632  -19.1319   19.1967 C   0  0  0  0  0  0  0  0  0  0  0  0
  -17.9976  -28.3742   22.9788 C   0  0  0  0  0  0  0  0  0  0  0  0
  -25.2910  -31.0106   22.1227 C   0  0  0  0  0  0  0  0  0  0  0  0
  -19.2156  -28.8606   23.4908 C   0  0  0  0  0  0  0  0  0  0  0  0
  -25.8897  -29.9406   21.4425 C   0  0  0  0  0  0  0  0  0  0  0  0
  -21.9136  -19.2109   15.5899 C   0  0  0  0  0  0  0  0  0  0  0  0
  -27.8997  -30.2319   22.7787 C   0  0  0  0  0  0  0  0  0  0  0  0
  -21.2589  -17.9926   13.6901 C   0  0  0  0  0  0  0  0  0  0  0  0
  -21.8617  -16.0865   11.7443 C   0  0  0  0  0  0  0  0  0  0  0  0
  -21.2508  -18.3466   12.3409 C   0  0  0  0  0  0  0  0  0  0  0  0
  -24.8767  -20.0596   18.4878 C   0  0  0  0  0  0  0  0  0  0  0  0
  -32.3598  -25.4405   22.0873 C   0  0  0  0  0  0  0  0  0  0  0  0
  -31.8775  -25.6951   19.8160 C   0  0  0  0  0  0  0  0  0  0  0  0
  -26.4611  -19.9047   20.0046 C   0  0  0  0  0  0  0  0  0  0  0  0
  -32.2957  -27.5016   21.1308 C   0  0  0  0  0  0  0  0  0  0  0  0
  -25.6718  -17.6997   19.1309 C   0  0  0  0  0  0  0  0  0  0  0  0
  -22.5943  -29.3286   22.0702 C   0  0  0  0  0  0  0  0  0  0  0  0
  -23.1314  -29.3012   18.8713 C   0  0  0  0  0  0  0  0  0  0  0  0
  -25.3706  -29.5426   16.3073 C   0  0  0  0  0  0  0  0  0  0  0  0
  -28.4122  -25.5515   19.6081 C   0  0  0  0  0  0  0  0  0  0  0  0
  -17.9485  -27.2142   22.0161 C   0  0  0  0  0  0  0  0  0  0  0  0
  -23.9024  -31.4616   21.7612 C   0  0  0  0  0  0  0  0  0  0  0  0
  -25.1663  -29.1859   20.3583 C   0  0  0  0  0  0  0  0  0  0  0  0
  -19.2853  -26.9301   21.3360 C   0  0  0  0  0  0  0  0  0  0  0  0
  -26.5320  -24.1181   22.2702 C   0  0  0  0  0  0  0  0  0  0  0  0
  -20.4159  -26.9302   22.3600 C   0  0  0  0  0  0  0  0  0  0  0  0
  -25.9655  -22.8317   21.6666 C   0  0  0  0  0  0  0  0  0  0  0  0
  -26.5782  -25.2495   21.2457 C   0  0  0  0  0  0  0  0  0  0  0  0
  -26.7163  -23.6352   19.3886 C   0  0  0  0  0  0  0  0  0  0  0  0
  -20.5461  -28.2995   23.0379 C   0  0  1  0  0  0  0  0  0  0  0  0
  -23.0730  -30.3675   21.0960 C   0  0  1  0  0  0  0  0  0  0  0  0
  -26.7020  -22.4496   20.3686 C   0  0  2  0  0  0  0  0  0  0  0  0
  -35.0324  -28.9383   20.9080 C   0  0  0  0  0  0  0  0  0  0  0  0
  -25.5176  -29.4417   13.8042 C   0  0  0  0  0  0  0  0  0  0  0  0
  -33.7441  -23.5924   23.0943 C   0  0  0  0  0  0  0  0  0  0  0  0
  -31.2915  -23.7633   23.6341 C   0  0  0  0  0  0  0  0  0  0  0  0
  -32.9106  -25.3776   24.6109 C   0  0  0  0  0  0  0  0  0  0  0  0
  -31.4200  -23.5746   18.4052 C   0  0  0  0  0  0  0  0  0  0  0  0
  -32.6633  -25.4932   17.4413 C   0  0  0  0  0  0  0  0  0  0  0  0
  -32.2028  -29.8038   19.9495 C   0  0  0  0  0  0  0  0  0  0  0  0
  -22.8798  -26.2624   18.9815 C   0  0  0  0  0  0  0  0  0  0  0  0
  -23.9537  -26.1612   16.7222 C   0  0  0  0  0  0  0  0  0  0  0  0
  -21.7692  -27.3303   17.0116 C   0  0  0  0  0  0  0  0  0  0  0  0
  -26.3722  -32.3224   16.1381 C   0  0  0  0  0  0  0  0  0  0  0  0
  -33.8724  -29.3884   21.7925 C   0  0  0  0  0  0  0  0  0  0  0  0
  -31.4216  -29.5662   22.3330 C   0  0  0  0  0  0  0  0  0  0  0  0
  -30.2020  -25.7147   17.8966 C   0  0  0  0  0  0  0  0  0  0  0  0
  -29.9486  -29.2631   22.0582 C   0  0  0  0  0  0  0  0  0  1  0  0
  -23.8748  -28.3952   17.9198 C   0  0  1  0  0  0  0  0  0  0  0  0
  -25.3424  -30.3421   15.0172 C   0  0  2  0  0  0  0  0  0  0  0  0
  -32.5676  -24.5960   23.2997 C   0  0  0  0  0  0  0  0  0  0  0  0
  -31.5439  -25.1365   18.4732 C   0  0  0  0  0  0  0  0  0  0  0  0
  -32.4390  -29.0297   21.2709 C   0  0  2  0  0  0  0  0  0  0  0  0
  -23.1326  -27.0501   17.6805 C   0  0  0  0  0  0  0  0  0  0  0  0
  -25.1501  -21.3250   18.8165 N   0  0  0  0  0  0  0  0  0  0  0  0
  -32.4898  -26.7739   22.2472 N   0  0  0  0  0  0  0  0  0  0  0  0
  -31.9921  -27.0366   19.9040 N   0  0  0  0  0  0  0  0  0  0  0  0
  -26.1172  -21.1979   19.7409 N   0  0  0  0  0  0  0  0  0  0  0  0
  -23.8084  -29.6609   20.0452 N   0  0  0  0  0  0  0  0  0  0  0  0
  -27.2914  -24.8229   20.0393 N   0  0  0  0  0  0  0  0  0  0  0  0
  -27.4162  -19.5973   20.9077 N   0  0  0  0  0  0  0  0  0  0  0  0
  -24.7876  -17.0661   18.2470 N   0  0  0  0  0  0  0  0  0  0  0  0
  -21.2188  -29.2350   22.1623 N   0  0  0  0  0  0  0  0  0  0  0  0
  -24.1036  -29.1751   16.7083 N   0  0  0  0  0  0  0  0  0  0  0  0
  -29.0335  -25.0758   18.4599 N   0  0  0  0  0  0  0  0  0  0  0  0
  -26.4348  -31.3557   15.0118 N   0  3  0  0  0  0  0  0  0  0  0  0
  -26.4292  -17.0017   19.8469 O   0  0  0  0  0  0  0  0  0  0  0  0
  -23.4125  -28.6603   22.6914 O   0  0  0  0  0  0  0  0  0  0  0  0
  -21.9947  -29.6818   18.5803 O   0  0  0  0  0  0  0  0  0  0  0  0
  -26.4128  -29.2682   16.8982 O   0  0  0  0  0  0  0  0  0  0  0  0
  -28.8314  -26.5488   20.2053 O   0  0  0  0  0  0  0  0  0  0  0  0
  -20.9607  -18.9378   14.6572 O   0  0  0  0  0  0  0  0  0  0  0  0
  -29.1655  -29.8479   23.0980 O   0  0  0  0  0  0  0  0  0  1  0  0
  -22.1526  -15.1716   10.8102 F   0  0  0  0  0  0  0  0  0  0  0  0
  -20.9553  -19.6009   11.9734 F   0  0  0  0  0  0  0  0  0  0  0  0
  1  2  1  0  0  0  0
  1  5  2  0  0  0  0
  2  6  2  0  0  0  0
  3  8  2  0  0  0  0
  3 16  1  0  0  0  0
  4  9  1  0  0  0  0
  4 16  2  0  0  0  0
  5 18  1  0  0  0  0
  6 20  1  0  0  0  0
  7 10  2  0  0  0  0
  7 19  1  0  0  0  0
  8 22  1  0  0  0  0
  9 22  2  0  0  0  0
 10 23  1  0  0  0  0
 11 12  2  0  0  0  0
 11 24  1  0  0  0  0
 12 25  1  0  0  0  0
 13 21  1  0  0  0  0
 13 23  2  0  0  0  0
 14 25  2  0  0  0  0
 14 26  1  0  0  0  0
 15 28  1  0  0  0  0
 15 29  2  0  0  0  0
 16 27  1  0  0  0  0
 17 27  1  0  0  0  0
 17 30  2  0  0  0  0
 17 32  1  0  0  0  0
 18 20  2  0  0  0  0
 18 37  1  0  0  0  0
 19 21  2  0  0  0  0
 19 38  1  0  0  0  0
 20 46  1  0  0  0  0
 21 39  1  0  0  0  0
 22 88  1  0  0  0  0
 23 89  1  0  0  0  0
 24 26  2  0  0  0  0
 24 88  1  0  0  0  0
 25 90  1  0  0  0  0
 26 91  1  0  0  0  0
 27 71  2  0  0  0  0
 28 67  1  0  0  0  0
 28 72  2  0  0  0  0
 29 68  1  0  0  0  0
 29 73  1  0  0  0  0
 30 74  1  0  0  0  0
 30 77  1  0  0  0  0
 31 69  1  0  0  0  0
 31 72  1  0  0  0  0
 31 73  2  0  0  0  0
 32 78  1  0  0  0  0
 32 83  2  0  0  0  0
 33 47  1  0  0  0  0
 33 79  1  0  0  0  0
 33 84  2  0  0  0  0
 34 65  1  0  0  0  0
 34 75  1  0  0  0  0
 34 85  2  0  0  0  0
 35 66  1  0  0  0  0
 35 80  1  0  0  0  0
 35 86  2  0  0  0  0
 36 76  1  0  0  0  0
 36 81  1  0  0  0  0
 36 87  2  0  0  0  0
 37 40  1  0  0  0  0
 38 47  1  0  0  0  0
 39 75  1  0  0  0  0
 40 42  1  0  0  0  0
 41 43  1  0  0  0  0
 41 44  1  0  0  0  0
 42 46  1  0  0  0  0
 43 48  1  0  0  0  0
 44 76  1  0  0  0  0
 45 48  1  0  0  0  0
 45 76  1  0  0  0  0
 46 79  1  0  0  0  0
 47 75  1  0  0  0  0
 48 74  1  0  0  0  0
 49 61  1  0  0  0  0
 50 66  1  0  0  0  0
 51 67  1  0  0  0  0
 52 67  1  0  0  0  0
 53 67  1  0  0  0  0
 54 68  1  0  0  0  0
 55 68  1  0  0  0  0
 56 69  1  0  0  0  0
 57 70  1  0  0  0  0
 58 70  1  0  0  0  0
 59 70  1  0  0  0  0
 60 82  1  0  0  0  0
 61 69  1  0  0  0  0
 62 64  1  0  0  0  0
 62 69  1  0  0  0  0
 63 68  1  0  0  0  0
 63 81  1  0  0  0  0
 64 89  1  0  0  0  0
 65 70  1  0  0  0  0
 65 80  1  0  0  0  0
 66 82  1  0  0  0  0
 71 74  1  0  0  0  0
M  CHG  1  82   1
M  ISO  4  36 100  64 101  81 100  89 101
M  END
> <Batch ID>
0074

> <Smiles>
CCC(C)(C[101CH2:1][101O:1]c1ccc2c(c1)CN(C(=O)C(NC(=O)C(C)NC)C(C)(C)C)C(C(=O)NC1CCCc3ccccc31)C2)c1nc(C(C)(C)C)cc(C(C)(C)C[100NH:0][100C:0](=O)N2CCCC(n3nc(-c4ccc(Oc5ccc(F)cc5F)cc4)c(C(N)=O)c3N)C2)n1

> <Shape>
0.186

> <Color>
0.092

> <Negative vol penalty>
0.000

$$$$

  -OEChem-04052318293D

 86 94  0     1  0  0  0  0  0999 V2000
  -20.8127  -13.4729   19.6525 C   0  0  0  0  0  0  0  0  0  0  0  0
  -21.1989  -14.6917   20.2010 C   0  0  0  0  0  0  0  0  0  0  0  0
  -29.7836  -26.7698   18.8898 C   0  0  0  0  0  0  0  0  0  0  0  0
  -29.7063  -25.9013   21.1430 C   0  0  0  0  0  0  0  0  0  0  0  0
  -21.7382  -12.4365   19.5385 C   0  0  0  0  0  0  0  0  0  0  0  0
  -22.5108  -14.8743   20.6369 C   0  0  0  0  0  0  0  0  0  0  0  0
  -25.7918  -20.0389   20.3759 C   0  0  0  0  0  0  0  0  0  0  0  0
  -23.2848  -28.0590   26.1304 C   0  0  0  0  0  0  0  0  0  0  0  0
  -31.1391  -26.4499   18.8130 C   0  0  0  0  0  0  0  0  0  0  0  0
  -31.0618  -25.5814   21.0662 C   0  0  0  0  0  0  0  0  0  0  0  0
  -26.0700  -21.0223   21.3241 C   0  0  0  0  0  0  0  0  0  0  0  0
  -32.9711  -23.1428   19.7139 C   0  0  0  0  0  0  0  0  0  0  0  0
  -33.3670  -21.8895   20.1808 C   0  0  0  0  0  0  0  0  0  0  0  0
  -23.6771  -29.3405   25.7601 C   0  0  0  0  0  0  0  0  0  0  0  0
  -28.1623  -19.9336   21.8305 C   0  0  0  0  0  0  0  0  0  0  0  0
  -34.8118  -22.9497   21.8013 C   0  0  0  0  0  0  0  0  0  0  0  0
  -29.0672  -26.4955   20.0548 C   0  0  0  0  0  0  0  0  0  0  0  0
  -26.5784  -26.0066   19.7818 C   0  0  0  0  0  0  0  0  0  0  0  0
  -23.0646  -12.6097   19.9644 C   0  0  0  0  0  0  0  0  0  0  0  0
  -26.6932  -18.9876   20.1551 C   0  0  0  0  0  0  0  0  0  0  0  0
  -23.4547  -13.8387   20.5298 C   0  0  0  0  0  0  0  0  0  0  0  0
  -27.8943  -18.9395   20.8770 C   0  0  0  0  0  0  0  0  0  0  0  0
  -24.1900  -27.0075   26.0396 C   0  0  0  0  0  0  0  0  0  0  0  0
  -31.7782  -25.8557   19.9012 C   0  0  0  0  0  0  0  0  0  0  0  0
  -27.2541  -20.9682   22.0537 C   0  0  0  0  0  0  0  0  0  0  0  0
  -33.4955  -24.2996   20.2906 C   0  0  0  0  0  0  0  0  0  0  0  0
  -34.2874  -21.7929   21.2245 C   0  0  0  0  0  0  0  0  0  0  0  0
  -34.4158  -24.2030   21.3343 C   0  0  0  0  0  0  0  0  0  0  0  0
  -27.6671  -26.8263   20.1350 C   0  0  0  0  0  0  0  0  0  0  0  0
  -24.9753  -29.5165   25.3091 C   0  0  0  0  0  0  0  0  0  0  0  0
  -25.4652  -27.2878   25.5759 C   0  0  0  0  0  0  0  0  0  0  0  0
  -25.4708  -26.7762   20.0414 C   0  0  0  0  0  0  0  0  0  0  0  0
  -26.5692  -24.6690   19.2655 C   0  0  0  0  0  0  0  0  0  0  0  0
  -26.5690  -15.8258   20.4567 C   0  0  0  0  0  0  0  0  0  0  0  0
  -29.5042  -15.9698   19.0832 C   0  0  0  0  0  0  0  0  0  0  0  0
  -24.5840  -31.4028   23.7723 C   0  0  0  0  0  0  0  0  0  0  0  0
  -32.3162  -17.7939   18.4415 C   0  0  0  0  0  0  0  0  0  0  0  0
  -24.0171  -11.4446   19.8643 C   0  0  0  0  0  0  0  0  0  0  0  0
  -26.3906  -17.9494   19.1097 C   0  0  0  0  0  0  0  0  0  0  0  0
  -28.9045  -17.8430   20.6634 C   0  0  0  0  0  0  0  0  0  0  0  0
  -25.4839  -11.8432   20.0055 C   0  0  0  0  0  0  0  0  0  0  0  0
  -24.0232  -31.3243   20.2340 C   0  0  0  0  0  0  0  0  0  0  0  0
  -25.6691  -12.7868   21.1896 C   0  0  0  0  0  0  0  0  0  0  0  0
  -24.8183  -30.1040   19.7715 C   0  0  0  0  0  0  0  0  0  0  0  0
  -24.7196  -32.0403   21.3870 C   0  0  0  0  0  0  0  0  0  0  0  0
  -25.8157  -29.9385   22.0959 C   0  0  0  0  0  0  0  0  0  0  0  0
  -24.8750  -14.0835   20.9912 C   0  0  1  0  0  0  0  0  0  0  0  0
  -27.1425  -16.6407   19.3321 C   0  0  1  0  0  0  0  0  0  0  0  0
  -25.1316  -29.1684   20.9525 C   0  0  2  0  0  0  0  0  0  0  0  0
  -23.7752  -25.6322   26.4336 C   0  0  0  0  0  0  0  0  0  0  0  0
  -34.5594  -17.6297   17.3285 C   0  0  0  0  0  0  0  0  0  0  0  0
  -27.8265  -26.7804   24.9155 C   0  0  0  0  0  0  0  0  0  0  0  0
  -26.8683  -25.4967   26.8066 C   0  0  0  0  0  0  0  0  0  0  0  0
  -30.5461  -14.3236   21.4314 C   0  0  0  0  0  0  0  0  0  0  0  0
  -32.8688  -14.9950   20.7813 C   0  0  0  0  0  0  0  0  0  0  0  0
  -31.4695  -13.6631   19.2031 C   0  0  0  0  0  0  0  0  0  0  0  0
  -31.6630  -19.9686   16.5434 C   0  0  0  0  0  0  0  0  0  0  0  0
  -27.0586  -23.9332   24.2126 C   0  0  0  0  0  0  0  0  0  0  0  0
  -26.0472  -25.0598   24.4560 C   0  0  0  0  0  0  0  0  0  0  0  0
  -26.5576  -22.9584   23.1536 C   0  0  0  0  0  0  0  0  0  1  0  0
  -30.9186  -16.0993   19.5945 C   0  0  1  0  0  0  0  0  0  0  0  0
  -33.0993  -18.0207   17.1610 C   0  0  2  0  0  0  0  0  0  0  0  0
  -25.4305  -30.8791   24.9050 C   0  0  0  0  0  0  0  0  0  0  0  0
  -26.5114  -26.1648   25.4568 C   0  0  0  0  0  0  0  0  0  0  0  0
  -31.4310  -14.7900   20.2582 C   0  0  0  0  0  0  0  0  0  0  0  0
  -27.2856  -28.0248   20.5844 N   0  0  0  0  0  0  0  0  0  0  0  0
  -25.8827  -28.5196   25.2071 N   0  0  0  0  0  0  0  0  0  0  0  0
  -25.9449  -27.9639   20.5154 N   0  0  0  0  0  0  0  0  0  0  0  0
  -28.5602  -16.8477   19.6346 N   0  0  0  0  0  0  0  0  0  0  0  0
  -25.0202  -31.1131   22.4793 N   0  0  0  0  0  0  0  0  0  0  0  0
  -24.1473  -26.5461   19.9080 N   0  0  0  0  0  0  0  0  0  0  0  0
  -27.7963  -24.0243   19.0583 N   0  0  0  0  0  0  0  0  0  0  0  0
  -25.5630  -14.9615   20.0690 N   0  0  0  0  0  0  0  0  0  0  0  0
  -31.7220  -16.5498   18.4632 N   0  0  0  0  0  0  0  0  0  0  0  0
  -33.0397  -19.4562   16.7647 N   0  3  0  0  0  0  0  0  0  0  0  0
  -25.5048  -24.0695   18.9803 O   0  0  0  0  0  0  0  0  0  0  0  0
  -27.0079  -15.9694   21.5918 O   0  0  0  0  0  0  0  0  0  0  0  0
  -29.2477  -15.1258   18.2209 O   0  0  0  0  0  0  0  0  0  0  0  0
  -23.5643  -32.0475   24.0309 O   0  0  0  0  0  0  0  0  0  0  0  0
  -32.2424  -18.6346   19.3349 O   0  0  0  0  0  0  0  0  0  0  0  0
  -33.1008  -25.5432   19.8265 O   0  0  0  0  0  0  0  0  0  0  0  0
  -27.5278  -21.9264   22.9803 O   0  0  0  0  0  0  0  0  0  1  0  0
  -34.6664  -20.5893   21.6737 F   0  0  0  0  0  0  0  0  0  0  0  0
  -34.9222  -25.3107   21.8932 F   0  0  0  0  0  0  0  0  0  0  0  0
  -25.3801  -31.7796   25.9395 F   0  0  0  0  0  0  0  0  0  0  0  0
  -26.7455  -30.9002   24.5125 F   0  0  0  0  0  0  0  0  0  0  0  0
  1  2  1  0  0  0  0
  1  5  2  0  0  0  0
  2  6  2  0  0  0  0
  3  9  2  0  0  0  0
  3 17  1  0  0  0  0
  4 10  1  0  0  0  0
  4 17  2  0  0  0  0
  5 19  1  0  0  0  0
  6 21  1  0  0  0  0
  7 11  2  0  0  0  0
  7 20  1  0  0  0  0
  8 14  2  0  0  0  0
  8 23  1  0  0  0  0
  9 24  1  0  0  0  0
 10 24  2  0  0  0  0
 11 25  1  0  0  0  0
 12 13  2  0  0  0  0
 12 26  1  0  0  0  0
 13 27  1  0  0  0  0
 14 30  1  0  0  0  0
 15 22  1  0  0  0  0
 15 25  2  0  0  0  0
 16 27  2  0  0  0  0
 16 28  1  0  0  0  0
 17 29  1  0  0  0  0
 18 29  1  0  0  0  0
 18 32  2  0  0  0  0
 18 33  1  0  0  0  0
 19 21  2  0  0  0  0
 19 38  1  0  0  0  0
 20 22  2  0  0  0  0
 20 39  1  0  0  0  0
 21 47  1  0  0  0  0
 22 40  1  0  0  0  0
 23 31  2  0  0  0  0
 23 50  1  0  0  0  0
 24 81  1  0  0  0  0
 25 82  1  0  0  0  0
 26 28  2  0  0  0  0
 26 81  1  0  0  0  0
 27 83  1  0  0  0  0
 28 84  1  0  0  0  0
 29 66  2  0  0  0  0
 30 63  1  0  0  0  0
 30 67  2  0  0  0  0
 31 64  1  0  0  0  0
 31 67  1  0  0  0  0
 32 68  1  0  0  0  0
 32 71  1  0  0  0  0
 33 72  1  0  0  0  0
 33 76  2  0  0  0  0
 34 48  1  0  0  0  0
 34 73  1  0  0  0  0
 34 77  2  0  0  0  0
 35 61  1  0  0  0  0
 35 69  1  0  0  0  0
 35 78  2  0  0  0  0
 36 63  1  0  0  0  0
 36 70  1  0  0  0  0
 36 79  2  0  0  0  0
 37 62  1  0  0  0  0
 37 74  1  0  0  0  0
 37 80  2  0  0  0  0
 38 41  1  0  0  0  0
 39 48  1  0  0  0  0
 40 69  1  0  0  0  0
 41 43  1  0  0  0  0
 42 44  1  0  0  0  0
 42 45  1  0  0  0  0
 43 47  1  0  0  0  0
 44 49  1  0  0  0  0
 45 70  1  0  0  0  0
 46 49  1  0  0  0  0
 46 70  1  0  0  0  0
 47 73  1  0  0  0  0
 48 69  1  0  0  0  0
 49 68  1  0  0  0  0
 51 62  1  0  0  0  0
 52 64  1  0  0  0  0
 53 64  1  0  0  0  0
 54 65  1  0  0  0  0
 55 65  1  0  0  0  0
 56 65  1  0  0  0  0
 57 75  1  0  0  0  0
 58 59  1  0  0  0  0
 58 60  1  0  0  0  0
 59 64  1  0  0  0  0
 60 82  1  0  0  0  0
 61 65  1  0  0  0  0
 61 74  1  0  0  0  0
 62 75  1  0  0  0  0
 63 85  1  0  0  0  0
 63 86  1  0  0  0  0
 66 68  1  0  0  0  0
M  CHG  1  75   1
M  ISO  4  36 100  60 101  63 100  82 101
M  END
> <Batch ID>
0074

> <Smiles>
CNC(C)C(=O)NC(C(=O)N1Cc2cc([101O:1][101CH2:1]CCC(C)(C)c3nc([100C:0](F)(F)[100C:0](=O)N4CCCC(n5nc(-c6ccc(Oc7ccc(F)cc7F)cc6)c(C(N)=O)c5N)C4)ccc3C)ccc2CC1C(=O)NC1CCCc2ccccc21)C(C)(C)C

> <Shape>
0.214

> <Color>
0.063

> <Negative vol penalty>
0.000

$$$$

  -OEChem-04052318293D

 83 91  0     1  0  0  0  0  0999 V2000
  -25.9128  -35.4840   20.6971 C   0  0  0  0  0  0  0  0  0  0  0  0
  -26.4933  -34.2279   20.8403 C   0  0  0  0  0  0  0  0  0  0  0  0
  -22.2030  -12.4521   21.6280 C   0  0  0  0  0  0  0  0  0  0  0  0
  -22.5903  -14.5725   20.5368 C   0  0  0  0  0  0  0  0  0  0  0  0
  -24.6581  -35.7379   21.2496 C   0  0  0  0  0  0  0  0  0  0  0  0
  -25.8199  -33.2252   21.5371 C   0  0  0  0  0  0  0  0  0  0  0  0
  -25.9749  -28.7612   19.1510 C   0  0  0  0  0  0  0  0  0  0  0  0
  -20.8751  -12.8124   21.8570 C   0  0  0  0  0  0  0  0  0  0  0  0
  -21.2624  -14.9329   20.7657 C   0  0  0  0  0  0  0  0  0  0  0  0
  -27.1559  -28.0269   19.2501 C   0  0  0  0  0  0  0  0  0  0  0  0
  -19.4034  -16.0889   23.3423 C   0  0  0  0  0  0  0  0  0  0  0  0
  -19.1544  -17.3749   23.8218 C   0  0  0  0  0  0  0  0  0  0  0  0
  -26.1536  -26.6576   20.9646 C   0  0  0  0  0  0  0  0  0  0  0  0
  -17.8211  -17.8469   21.8630 C   0  0  0  0  0  0  0  0  0  0  0  0
  -29.8044  -19.3325   19.3311 C   0  0  0  0  0  0  0  0  0  0  0  0
  -30.9169  -19.6446   21.2019 C   0  0  0  0  0  0  0  0  0  0  0  0
  -23.0606  -13.3321   20.9680 C   0  0  0  0  0  0  0  0  0  0  0  0
  -24.9498  -12.2883   19.6082 C   0  0  0  0  0  0  0  0  0  0  0  0
  -23.9647  -34.7349   21.9452 C   0  0  0  0  0  0  0  0  0  0  0  0
  -24.8762  -28.4556   19.9670 C   0  0  0  0  0  0  0  0  0  0  0  0
  -24.5554  -33.4663   22.1006 C   0  0  0  0  0  0  0  0  0  0  0  0
  -24.9590  -27.3879   20.8721 C   0  0  0  0  0  0  0  0  0  0  0  0
  -30.4209  -20.3248   20.1166 C   0  0  0  0  0  0  0  0  0  0  0  0
  -20.4048  -14.0528   21.4259 C   0  0  0  0  0  0  0  0  0  0  0  0
  -27.2464  -26.9768   20.1590 C   0  0  0  0  0  0  0  0  0  0  0  0
  -18.8614  -15.6820   22.1232 C   0  0  0  0  0  0  0  0  0  0  0  0
  -18.3632  -18.2538   23.0821 C   0  0  0  0  0  0  0  0  0  0  0  0
  -18.0703  -16.5609   21.3835 C   0  0  0  0  0  0  0  0  0  0  0  0
  -24.4326  -12.9607   20.7316 C   0  0  0  0  0  0  0  0  0  0  0  0
  -26.2945  -12.1755   19.8645 C   0  0  0  0  0  0  0  0  0  0  0  0
  -24.2751  -11.8086   18.4376 C   0  0  0  0  0  0  0  0  0  0  0  0
  -23.2385  -30.0154   22.2006 C   0  0  0  0  0  0  0  0  0  0  0  0
  -30.0005  -15.3875   23.3373 C   0  0  0  0  0  0  0  0  0  0  0  0
  -21.3290  -27.3961   22.0770 C   0  0  0  0  0  0  0  0  0  0  0  0
  -20.9993  -24.0840   21.3230 C   0  0  0  0  0  0  0  0  0  0  0  0
  -22.6316  -35.0707   22.5655 C   0  0  0  0  0  0  0  0  0  0  0  0
  -23.6004  -29.2402   19.8291 C   0  0  0  0  0  0  0  0  0  0  0  0
  -23.8011  -27.0066   21.7566 C   0  0  0  0  0  0  0  0  0  0  0  0
  -21.8198  -33.8418   22.9669 C   0  0  0  0  0  0  0  0  0  0  0  0
  -29.4134  -11.8551   23.4684 C   0  0  0  0  0  0  0  0  0  0  0  0
  -22.6975  -32.8432   23.7148 C   0  0  0  0  0  0  0  0  0  0  0  0
  -28.1018  -11.6806   22.7038 C   0  0  0  0  0  0  0  0  0  0  0  0
  -29.4319  -13.1625   24.2541 C   0  0  0  0  0  0  0  0  0  0  0  0
  -27.8546  -14.2028   22.6567 C   0  0  0  0  0  0  0  0  0  0  0  0
  -23.8453  -32.3453   22.8282 C   0  0  1  0  0  0  0  0  0  0  0  0
  -22.7187  -29.1704   21.0721 C   0  0  1  0  0  0  0  0  0  0  0  0
  -27.8067  -12.9089   21.8249 C   0  0  2  0  0  0  0  0  0  0  0  0
  -28.7040  -17.4496   23.2222 C   0  0  0  0  0  0  0  0  0  0  0  0
  -19.3296  -22.2111   21.3640 C   0  0  0  0  0  0  0  0  0  0  0  0
  -31.8309  -16.2563   21.1682 C   0  0  0  0  0  0  0  0  0  0  0  0
  -21.6828  -27.1500   25.0977 C   0  0  0  0  0  0  0  0  0  0  0  0
  -20.8222  -24.8044   24.9373 C   0  0  0  0  0  0  0  0  0  0  0  0
  -19.3594  -26.7154   24.2806 C   0  0  0  0  0  0  0  0  0  0  0  0
  -21.1556  -23.7256   18.3894 C   0  0  0  0  0  0  0  0  0  0  0  0
  -30.5188  -21.8023   19.8315 C   0  0  0  0  0  0  0  0  0  0  0  0
  -29.3533  -22.6208   20.3982 C   0  0  0  0  0  0  0  0  0  0  0  0
  -29.4302  -24.1040   20.0334 C   0  0  0  0  0  0  0  0  0  0  0  0
  -28.2794  -24.8907   20.6459 C   0  0  0  0  0  0  0  0  0  1  0  0
  -29.6187  -16.5221   22.4203 C   0  0  1  0  0  0  0  0  0  0  0  0
  -21.2932  -26.0646   22.7877 C   0  0  1  0  0  0  0  0  0  0  0  0
  -19.9420  -23.3304   20.5365 C   0  0  2  0  0  0  0  0  0  0  0  0
  -30.8872  -17.2347   21.8874 C   0  0  2  0  0  0  0  0  0  0  0  0
  -20.8121  -26.1918   24.2607 C   0  0  0  0  0  0  0  0  0  0  0  0
  -29.8989  -18.1146   19.8713 N   0  0  0  0  0  0  0  0  0  0  0  0
  -25.3720  -13.2543   21.6345 N   0  0  0  0  0  0  0  0  0  0  0  0
  -30.5807  -18.3372   21.0078 N   0  0  0  0  0  0  0  0  0  0  0  0
  -26.4931  -12.7640   21.0788 N   0  0  0  0  0  0  0  0  0  0  0  0
  -22.5773  -27.8077   21.5890 N   0  0  0  0  0  0  0  0  0  0  0  0
  -29.1250  -14.3026   23.3885 N   0  0  0  0  0  0  0  0  0  0  0  0
  -27.3144  -11.6313   19.1675 N   0  0  0  0  0  0  0  0  0  0  0  0
  -22.8916  -12.0077   18.3350 N   0  0  0  0  0  0  0  0  0  0  0  0
  -23.3650  -31.3554   21.8881 N   0  0  0  0  0  0  0  0  0  0  0  0
  -20.4711  -25.1845   21.9644 N   0  0  0  0  0  0  0  0  0  0  0  0
  -20.5376  -22.7343   19.3073 N   0  3  0  0  0  0  0  0  0  0  0  0
  -24.8785  -11.2062   17.5175 O   0  0  0  0  0  0  0  0  0  0  0  0
  -23.5038  -29.4906   23.2758 O   0  0  0  0  0  0  0  0  0  0  0  0
  -31.0473  -15.4638   23.9858 O   0  0  0  0  0  0  0  0  0  0  0  0
  -20.2864  -28.0435   21.9531 O   0  0  0  0  0  0  0  0  0  0  0  0
  -22.1753  -23.7297   21.3673 O   0  0  0  0  0  0  0  0  0  0  0  0
  -19.1090  -14.4047   21.6489 O   0  0  0  0  0  0  0  0  0  0  0  0
  -28.3982  -26.2589   20.2583 O   0  0  0  0  0  0  0  0  0  1  0  0
  -18.1228  -19.4882   23.5434 F   0  0  0  0  0  0  0  0  0  0  0  0
  -17.5458  -16.1753   20.2122 F   0  0  0  0  0  0  0  0  0  0  0  0
  1  2  1  0  0  0  0
  1  5  2  0  0  0  0
  2  6  2  0  0  0  0
  3  8  2  0  0  0  0
  3 17  1  0  0  0  0
  4  9  1  0  0  0  0
  4 17  2  0  0  0  0
  5 19  1  0  0  0  0
  6 21  1  0  0  0  0
  7 10  2  0  0  0  0
  7 20  1  0  0  0  0
  8 24  1  0  0  0  0
  9 24  2  0  0  0  0
 10 25  1  0  0  0  0
 11 12  2  0  0  0  0
 11 26  1  0  0  0  0
 12 27  1  0  0  0  0
 13 22  1  0  0  0  0
 13 25  2  0  0  0  0
 14 27  2  0  0  0  0
 14 28  1  0  0  0  0
 15 23  1  0  0  0  0
 15 64  2  0  0  0  0
 16 23  2  0  0  0  0
 16 66  1  0  0  0  0
 17 29  1  0  0  0  0
 18 29  1  0  0  0  0
 18 30  2  0  0  0  0
 18 31  1  0  0  0  0
 19 21  2  0  0  0  0
 19 36  1  0  0  0  0
 20 22  2  0  0  0  0
 20 37  1  0  0  0  0
 21 45  1  0  0  0  0
 22 38  1  0  0  0  0
 23 55  1  0  0  0  0
 24 80  1  0  0  0  0
 25 81  1  0  0  0  0
 26 28  2  0  0  0  0
 26 80  1  0  0  0  0
 27 82  1  0  0  0  0
 28 83  1  0  0  0  0
 29 65  2  0  0  0  0
 30 67  1  0  0  0  0
 30 70  1  0  0  0  0
 31 71  1  0  0  0  0
 31 75  2  0  0  0  0
 32 46  1  0  0  0  0
 32 72  1  0  0  0  0
 32 76  2  0  0  0  0
 33 59  1  0  0  0  0
 33 69  1  0  0  0  0
 33 77  2  0  0  0  0
 34 60  1  0  0  0  0
 34 68  1  0  0  0  0
 34 78  2  0  0  0  0
 35 61  1  0  0  0  0
 35 73  1  0  0  0  0
 35 79  2  0  0  0  0
 36 39  1  0  0  0  0
 37 46  1  0  0  0  0
 38 68  1  0  0  0  0
 39 41  1  0  0  0  0
 40 42  1  0  0  0  0
 40 43  1  0  0  0  0
 41 45  1  0  0  0  0
 42 47  1  0  0  0  0
 43 69  1  0  0  0  0
 44 47  1  0  0  0  0
 44 69  1  0  0  0  0
 45 72  1  0  0  0  0
 46 68  1  0  0  0  0
 47 67  1  0  0  0  0
 48 59  1  0  0  0  0
 49 61  1  0  0  0  0
 50 62  1  0  0  0  0
 51 63  1  0  0  0  0
 52 63  1  0  0  0  0
 53 63  1  0  0  0  0
 54 74  1  0  0  0  0
 55 56  1  0  0  0  0
 56 57  1  0  0  0  0
 57 58  1  0  0  0  0
 58 81  1  0  0  0  0
 59 62  1  0  0  0  0
 60 63  1  0  0  0  0
 60 73  1  0  0  0  0
 61 74  1  0  0  0  0
 62 66  1  0  0  0  0
 64 66  1  0  0  0  0
 65 67  1  0  0  0  0
M  CHG  1  74   1
M  ISO  4  33 100  58 101  59 100  81 101
M  END
> <Batch ID>
0074

> <Smiles>
CNC(C)C(=O)NC(C(=O)N1Cc2cc([101O:1][101CH2:1]CCCc3cnn(C(C)[100CH:0](C)[100C:0](=O)N4CCCC(n5nc(-c6ccc(Oc7ccc(F)cc7F)cc6)c(C(N)=O)c5N)C4)c3)ccc2CC1C(=O)NC1CCCc2ccccc21)C(C)(C)C

> <Shape>
0.223

> <Color>
0.074

> <Negative vol penalty>
0.000

$$$$

  -OEChem-04052318293D

 83 91  0     1  0  0  0  0  0999 V2000
  -15.6527  -30.8751   23.5607 C   0  0  0  0  0  0  0  0  0  0  0  0
  -16.9226  -31.0013   23.0068 C   0  0  0  0  0  0  0  0  0  0  0  0
  -28.6187  -15.8829   21.9505 C   0  0  0  0  0  0  0  0  0  0  0  0
  -30.0510  -15.5743   20.0295 C   0  0  0  0  0  0  0  0  0  0  0  0
  -15.3683  -29.8097   24.4140 C   0  0  0  0  0  0  0  0  0  0  0  0
  -17.9093  -30.0627   23.3068 C   0  0  0  0  0  0  0  0  0  0  0  0
  -22.3240  -28.0414   19.5744 C   0  0  0  0  0  0  0  0  0  0  0  0
  -28.0588  -14.6236   21.7353 C   0  0  0  0  0  0  0  0  0  0  0  0
  -29.4911  -14.3150   19.8143 C   0  0  0  0  0  0  0  0  0  0  0  0
  -23.6672  -28.3886   19.4361 C   0  0  0  0  0  0  0  0  0  0  0  0
  -25.7592  -13.2385   19.6816 C   0  0  0  0  0  0  0  0  0  0  0  0
  -24.3714  -13.1246   19.7630 C   0  0  0  0  0  0  0  0  0  0  0  0
  -24.2843  -26.5466   20.8664 C   0  0  0  0  0  0  0  0  0  0  0  0
  -29.0769  -26.6058   18.5721 C   0  0  0  0  0  0  0  0  0  0  0  0
  -24.6080  -11.5256   21.5587 C   0  0  0  0  0  0  0  0  0  0  0  0
  -29.6147  -16.3583   21.0975 C   0  0  0  0  0  0  0  0  0  0  0  0
  -31.3178  -17.9665   22.1079 C   0  0  0  0  0  0  0  0  0  0  0  0
  -16.3492  -28.8522   24.7169 C   0  0  0  0  0  0  0  0  0  0  0  0
  -21.9495  -26.9490   20.3699 C   0  0  0  0  0  0  0  0  0  0  0  0
  -17.6382  -28.9843   24.1659 C   0  0  0  0  0  0  0  0  0  0  0  0
  -22.9359  -26.1861   21.0111 C   0  0  0  0  0  0  0  0  0  0  0  0
  -29.5293  -27.4854   19.5398 C   0  0  0  0  0  0  0  0  0  0  0  0
  -28.4950  -13.8396   20.6673 C   0  0  0  0  0  0  0  0  0  0  0  0
  -24.6474  -27.6429   20.0844 C   0  0  0  0  0  0  0  0  0  0  0  0
  -26.5714  -12.4959   20.5387 C   0  0  0  0  0  0  0  0  0  0  0  0
  -23.7958  -12.2682   20.7015 C   0  0  0  0  0  0  0  0  0  0  0  0
  -25.9958  -11.6395   21.4772 C   0  0  0  0  0  0  0  0  0  0  0  0
  -30.1931  -17.6593   21.3189 C   0  0  0  0  0  0  0  0  0  0  0  0
  -29.8019  -25.4506   18.3594 C   0  0  0  0  0  0  0  0  0  0  0  0
  -30.6766  -27.1513   20.2310 C   0  0  0  0  0  0  0  0  0  0  0  0
  -31.4570  -19.3280   21.9919 C   0  0  0  0  0  0  0  0  0  0  0  0
  -32.1613  -17.0988   22.8768 C   0  0  0  0  0  0  0  0  0  0  0  0
  -20.1864  -26.5813   22.9891 C   0  0  0  0  0  0  0  0  0  0  0  0
  -20.6856  -23.4286   22.4113 C   0  0  0  0  0  0  0  0  0  0  0  0
  -29.7536  -23.0638   17.7003 C   0  0  0  0  0  0  0  0  0  0  0  0
  -22.6249  -21.0190   20.9692 C   0  0  0  0  0  0  0  0  0  0  0  0
  -16.0086  -27.7443   25.6818 C   0  0  0  0  0  0  0  0  0  0  0  0
  -20.4983  -26.5714   20.4874 C   0  0  0  0  0  0  0  0  0  0  0  0
  -22.5876  -24.9919   21.8602 C   0  0  0  0  0  0  0  0  0  0  0  0
  -17.0007  -26.5844   25.6523 C   0  0  0  0  0  0  0  0  0  0  0  0
  -28.9250  -23.3077   21.2332 C   0  0  0  0  0  0  0  0  0  0  0  0
  -18.4336  -27.1068   25.6786 C   0  0  0  0  0  0  0  0  0  0  0  0
  -29.2370  -21.8927   21.7186 C   0  0  0  0  0  0  0  0  0  0  0  0
  -28.3623  -23.3029   19.8143 C   0  0  0  0  0  0  0  0  0  0  0  0
  -29.5494  -21.1920   19.3053 C   0  0  0  0  0  0  0  0  0  0  0  0
  -18.7278  -27.9727   24.4477 C   0  0  1  0  0  0  0  0  0  0  0  0
  -20.1936  -25.7509   21.7369 C   0  0  1  0  0  0  0  0  0  0  0  0
  -30.1478  -21.1553   20.7214 C   0  0  2  0  0  0  0  0  0  0  0  0
  -31.2240  -28.0507   21.2874 C   0  0  0  0  0  0  0  0  0  0  0  0
  -22.7993  -18.5301   20.7008 C   0  0  0  0  0  0  0  0  0  0  0  0
  -30.0016  -24.7819   15.9499 C   0  0  0  0  0  0  0  0  0  0  0  0
  -27.8213  -24.3711   17.0950 C   0  0  0  0  0  0  0  0  0  0  0  0
  -21.7097  -23.1940   25.2759 C   0  0  0  0  0  0  0  0  0  0  0  0
  -22.7287  -20.9924   24.6573 C   0  0  0  0  0  0  0  0  0  0  0  0
  -20.2566  -21.3005   24.5291 C   0  0  0  0  0  0  0  0  0  0  0  0
  -22.3909  -21.2035   18.0247 C   0  0  0  0  0  0  0  0  0  0  0  0
  -28.7743  -28.7618   19.8125 C   0  0  0  0  0  0  0  0  0  0  0  0
  -27.9360  -28.7202   21.0920 C   0  0  0  0  0  0  0  0  0  0  0  0
  -26.8206  -27.6821   21.0496 C   0  0  0  0  0  0  0  0  0  1  0  0
  -21.7361  -22.4214   22.8125 C   0  0  1  0  0  0  0  0  0  0  0  0
  -22.2689  -19.8240   20.1034 C   0  0  2  0  0  0  0  0  0  0  0  0
  -29.3576  -24.4705   17.3283 C   0  0  0  0  0  0  0  0  0  0  0  0
  -21.6145  -22.0007   24.3043 C   0  0  0  0  0  0  0  0  0  0  0  0
  -29.6559  -18.7387   20.7443 N   0  0  0  0  0  0  0  0  0  0  0  0
  -30.9214  -25.1492   19.0507 N   0  0  0  0  0  0  0  0  0  0  0  0
  -31.3658  -26.0135   20.0022 N   0  0  0  0  0  0  0  0  0  0  0  0
  -30.4463  -19.7376   21.1727 N   0  0  0  0  0  0  0  0  0  0  0  0
  -21.1546  -24.6665   21.9492 N   0  0  0  0  0  0  0  0  0  0  0  0
  -29.2451  -22.5675   18.9009 N   0  0  0  0  0  0  0  0  0  0  0  0
  -32.3439  -20.2028   22.5119 N   0  0  0  0  0  0  0  0  0  0  0  0
  -31.8768  -15.7265   22.8861 N   0  0  0  0  0  0  0  0  0  0  0  0
  -18.9579  -27.1394   23.2870 N   0  0  0  0  0  0  0  0  0  0  0  0
  -21.6224  -21.3150   21.8684 N   0  0  0  0  0  0  0  0  0  0  0  0
  -22.8461  -19.9829   18.7386 N   0  3  0  0  0  0  0  0  0  0  0  0
  -33.1285  -17.5298   23.5493 O   0  0  0  0  0  0  0  0  0  0  0  0
  -21.2186  -26.7052   23.6378 O   0  0  0  0  0  0  0  0  0  0  0  0
  -19.4930  -23.1256   22.4977 O   0  0  0  0  0  0  0  0  0  0  0  0
  -30.4950  -22.4279   16.9467 O   0  0  0  0  0  0  0  0  0  0  0  0
  -23.6877  -21.6267   20.8614 O   0  0  0  0  0  0  0  0  0  0  0  0
  -27.9490  -12.6107   20.4571 O   0  0  0  0  0  0  0  0  0  0  0  0
  -25.9591  -27.9800   19.9516 O   0  0  0  0  0  0  0  0  0  1  0  0
  -22.4630  -12.1601   20.7806 F   0  0  0  0  0  0  0  0  0  0  0  0
  -26.7709  -10.9245   22.3042 F   0  0  0  0  0  0  0  0  0  0  0  0
  1  2  1  0  0  0  0
  1  5  2  0  0  0  0
  2  6  2  0  0  0  0
  3  8  2  0  0  0  0
  3 16  1  0  0  0  0
  4  9  1  0  0  0  0
  4 16  2  0  0  0  0
  5 18  1  0  0  0  0
  6 20  1  0  0  0  0
  7 10  2  0  0  0  0
  7 19  1  0  0  0  0
  8 23  1  0  0  0  0
  9 23  2  0  0  0  0
 10 24  1  0  0  0  0
 11 12  2  0  0  0  0
 11 25  1  0  0  0  0
 12 26  1  0  0  0  0
 13 21  1  0  0  0  0
 13 24  2  0  0  0  0
 14 22  1  0  0  0  0
 14 29  2  0  0  0  0
 15 26  2  0  0  0  0
 15 27  1  0  0  0  0
 16 28  1  0  0  0  0
 17 28  1  0  0  0  0
 17 31  2  0  0  0  0
 17 32  1  0  0  0  0
 18 20  2  0  0  0  0
 18 37  1  0  0  0  0
 19 21  2  0  0  0  0
 19 38  1  0  0  0  0
 20 46  1  0  0  0  0
 21 39  1  0  0  0  0
 22 30  2  0  0  0  0
 22 57  1  0  0  0  0
 23 80  1  0  0  0  0
 24 81  1  0  0  0  0
 25 27  2  0  0  0  0
 25 80  1  0  0  0  0
 26 82  1  0  0  0  0
 27 83  1  0  0  0  0
 28 64  2  0  0  0  0
 29 62  1  0  0  0  0
 29 65  1  0  0  0  0
 30 49  1  0  0  0  0
 30 66  1  0  0  0  0
 31 67  1  0  0  0  0
 31 70  1  0  0  0  0
 32 71  1  0  0  0  0
 32 75  2  0  0  0  0
 33 47  1  0  0  0  0
 33 72  1  0  0  0  0
 33 76  2  0  0  0  0
 34 60  1  0  0  0  0
 34 68  1  0  0  0  0
 34 77  2  0  0  0  0
 35 62  1  0  0  0  0
 35 69  1  0  0  0  0
 35 78  2  0  0  0  0
 36 61  1  0  0  0  0
 36 73  1  0  0  0  0
 36 79  2  0  0  0  0
 37 40  1  0  0  0  0
 38 47  1  0  0  0  0
 39 68  1  0  0  0  0
 40 42  1  0  0  0  0
 41 43  1  0  0  0  0
 41 44  1  0  0  0  0
 42 46  1  0  0  0  0
 43 48  1  0  0  0  0
 44 69  1  0  0  0  0
 45 48  1  0  0  0  0
 45 69  1  0  0  0  0
 46 72  1  0  0  0  0
 47 68  1  0  0  0  0
 48 67  1  0  0  0  0
 50 61  1  0  0  0  0
 51 62  1  0  0  0  0
 52 62  1  0  0  0  0
 53 63  1  0  0  0  0
 54 63  1  0  0  0  0
 55 63  1  0  0  0  0
 56 74  1  0  0  0  0
 57 58  1  0  0  0  0
 58 59  1  0  0  0  0
 59 81  1  0  0  0  0
 60 63  1  0  0  0  0
 60 73  1  0  0  0  0
 61 74  1  0  0  0  0
 64 67  1  0  0  0  0
 65 66  2  0  0  0  0
M  CHG  1  74   1
M  ISO  4  35 100  59 101  62 100  81 101
M  END
> <Batch ID>
0074

> <Smiles>
CNC(C)C(=O)NC(C(=O)N1Cc2cc([101O:1][101CH2:1]CCc3cc([100C:0](C)(C)[100C:0](=O)N4CCCC(n5nc(-c6ccc(Oc7ccc(F)cc7F)cc6)c(C(N)=O)c5N)C4)nnc3C)ccc2CC1C(=O)NC1CCCc2ccccc21)C(C)(C)C

> <Shape>
0.262

> <Color>
0.044

> <Negative vol penalty>
0.000

$$$$

  -OEChem-04052318293D

 82 90  0     1  0  0  0  0  0999 V2000
  -30.7707  -24.3216   18.2938 C   0  0  0  0  0  0  0  0  0  0  0  0
  -29.4111  -24.1637   18.5431 C   0  0  0  0  0  0  0  0  0  0  0  0
  -25.1782  -15.6219   18.5943 C   0  0  0  0  0  0  0  0  0  0  0  0
  -23.8650  -15.1889   20.5754 C   0  0  0  0  0  0  0  0  0  0  0  0
  -31.5446  -25.1188   19.1361 C   0  0  0  0  0  0  0  0  0  0  0  0
  -28.8249  -24.8020   19.6354 C   0  0  0  0  0  0  0  0  0  0  0  0
  -23.1584  -27.1036   19.9490 C   0  0  0  0  0  0  0  0  0  0  0  0
  -25.8591  -14.4192   18.7827 C   0  0  0  0  0  0  0  0  0  0  0  0
  -24.5459  -13.9862   20.7639 C   0  0  0  0  0  0  0  0  0  0  0  0
  -21.9708  -26.6032   20.4811 C   0  0  0  0  0  0  0  0  0  0  0  0
  -28.1912  -11.6338   18.9453 C   0  0  0  0  0  0  0  0  0  0  0  0
  -29.5786  -11.6429   18.8018 C   0  0  0  0  0  0  0  0  0  0  0  0
  -22.3815  -27.8180   22.5243 C   0  0  0  0  0  0  0  0  0  0  0  0
  -29.7527  -13.2609   20.5875 C   0  0  0  0  0  0  0  0  0  0  0  0
  -20.7150  -20.8372   23.0587 C   0  0  0  0  0  0  0  0  0  0  0  0
  -24.1812  -16.0068   19.4906 C   0  0  0  0  0  0  0  0  0  0  0  0
  -22.2966  -17.4512   18.5581 C   0  0  0  0  0  0  0  0  0  0  0  0
  -30.9657  -25.7750   20.2338 C   0  0  0  0  0  0  0  0  0  0  0  0
  -23.9732  -27.9577   20.7059 C   0  0  0  0  0  0  0  0  0  0  0  0
  -29.5921  -25.6077   20.4940 C   0  0  0  0  0  0  0  0  0  0  0  0
  -23.5776  -28.3299   21.9986 C   0  0  0  0  0  0  0  0  0  0  0  0
  -25.5430  -13.6013   19.8675 C   0  0  0  0  0  0  0  0  0  0  0  0
  -21.5837  -26.9580   21.7700 C   0  0  0  0  0  0  0  0  0  0  0  0
  -27.5845  -12.4383   19.9099 C   0  0  0  0  0  0  0  0  0  0  0  0
  -30.3594  -12.4564   19.6229 C   0  0  0  0  0  0  0  0  0  0  0  0
  -28.3652  -13.2518   20.7310 C   0  0  0  0  0  0  0  0  0  0  0  0
  -23.4779  -17.2493   19.2968 C   0  0  0  0  0  0  0  0  0  0  0  0
  -21.3750  -21.9686   23.4851 C   0  0  0  0  0  0  0  0  0  0  0  0
  -18.7627  -22.0218   22.9371 C   0  0  0  0  0  0  0  0  0  0  0  0
  -19.4224  -23.1531   23.3642 C   0  0  0  0  0  0  0  0  0  0  0  0
  -22.0394  -18.7947   18.6823 C   0  0  0  0  0  0  0  0  0  0  0  0
  -21.5027  -16.5086   17.8254 C   0  0  0  0  0  0  0  0  0  0  0  0
  -26.9438  -27.8123   21.8277 C   0  0  0  0  0  0  0  0  0  0  0  0
  -23.6226  -22.8139   22.8597 C   0  0  0  0  0  0  0  0  0  0  0  0
  -26.3423  -30.8733   22.7171 C   0  0  0  0  0  0  0  0  0  0  0  0
  -24.0352  -33.2596   23.5107 C   0  0  0  0  0  0  0  0  0  0  0  0
  -31.8521  -26.5883   21.1435 C   0  0  0  0  0  0  0  0  0  0  0  0
  -25.2378  -28.5102   20.1076 C   0  0  0  0  0  0  0  0  0  0  0  0
  -24.4068  -29.2599   22.8448 C   0  0  0  0  0  0  0  0  0  0  0  0
  -31.0799  -27.5314   22.0625 C   0  0  0  0  0  0  0  0  0  0  0  0
  -24.2293  -22.9899   19.3326 C   0  0  0  0  0  0  0  0  0  0  0  0
  -29.9073  -26.8031   22.7115 C   0  0  0  0  0  0  0  0  0  0  0  0
  -24.0259  -21.5506   18.8611 C   0  0  0  0  0  0  0  0  0  0  0  0
  -24.8502  -23.0388   20.7251 C   0  0  0  0  0  0  0  0  0  0  0  0
  -23.8848  -20.8313   21.2875 C   0  0  0  0  0  0  0  0  0  0  0  0
  -28.9148  -26.3037   21.6545 C   0  0  1  0  0  0  0  0  0  0  0  0
  -26.2475  -28.9630   21.1578 C   0  0  1  0  0  0  0  0  0  0  0  0
  -23.2312  -20.7365   19.8975 C   0  0  2  0  0  0  0  0  0  0  0  0
  -17.3044  -22.0421   22.6290 C   0  0  0  0  0  0  0  0  0  0  0  0
  -23.1664  -22.2952   25.2390 C   0  0  0  0  0  0  0  0  0  0  0  0
  -23.8479  -35.6557   24.2324 C   0  0  0  0  0  0  0  0  0  0  0  0
  -27.1839  -30.0856   25.5422 C   0  0  0  0  0  0  0  0  0  0  0  0
  -26.0939  -32.1797   26.3758 C   0  0  0  0  0  0  0  0  0  0  0  0
  -28.0153  -32.3215   24.7912 C   0  0  0  0  0  0  0  0  0  0  0  0
  -22.5072  -33.9920   21.0842 C   0  0  0  0  0  0  0  0  0  0  0  0
  -18.7003  -24.4650   23.5402 C   0  0  0  0  0  0  0  0  0  0  0  0
  -18.4009  -25.1847   22.2234 C   0  0  0  0  0  0  0  0  0  0  0  0
  -19.6553  -25.6003   21.4637 C   0  0  0  0  0  0  0  0  0  1  0  0
  -22.8321  -21.9247   23.7862 C   0  0  1  0  0  0  0  0  0  0  0  0
  -25.7660  -31.5362   23.9449 C   0  0  1  0  0  0  0  0  0  0  0  0
  -23.8747  -34.6976   23.0516 C   0  0  2  0  0  0  0  0  0  0  0  0
  -26.7499  -31.5117   25.1486 C   0  0  0  0  0  0  0  0  0  0  0  0
  -19.3970  -20.8435   22.7769 N   0  0  0  0  0  0  0  0  0  0  0  0
  -23.9393  -18.3745   19.8492 N   0  0  0  0  0  0  0  0  0  0  0  0
  -20.7405  -23.1469   23.6456 N   0  0  0  0  0  0  0  0  0  0  0  0
  -23.0433  -19.2963   19.4573 N   0  0  0  0  0  0  0  0  0  0  0  0
  -25.6378  -29.7687   22.2177 N   0  0  0  0  0  0  0  0  0  0  0  0
  -24.0789  -22.2354   21.6752 N   0  0  0  0  0  0  0  0  0  0  0  0
  -21.0547  -19.5840   18.2030 N   0  0  0  0  0  0  0  0  0  0  0  0
  -21.9101  -15.1678   17.8014 N   0  0  0  0  0  0  0  0  0  0  0  0
  -28.0906  -27.3945   21.1798 N   0  0  0  0  0  0  0  0  0  0  0  0
  -25.3592  -32.8753   23.5329 N   0  0  0  0  0  0  0  0  0  0  0  0
  -22.6059  -34.8587   22.2868 N   0  3  0  0  0  0  0  0  0  0  0  0
  -20.4719  -16.8484   17.1964 O   0  0  0  0  0  0  0  0  0  0  0  0
  -26.4760  -27.3395   22.8569 O   0  0  0  0  0  0  0  0  0  0  0  0
  -23.8250  -23.9882   23.1796 O   0  0  0  0  0  0  0  0  0  0  0  0
  -27.3753  -31.3234   22.2154 O   0  0  0  0  0  0  0  0  0  0  0  0
  -23.0817  -32.5495   23.8222 O   0  0  0  0  0  0  0  0  0  0  0  0
  -26.2070  -12.4276   20.0516 O   0  0  0  0  0  0  0  0  0  0  0  0
  -20.4253  -26.4705   22.2920 O   0  0  0  0  0  0  0  0  0  1  0  0
  -31.6918  -12.4639   19.4861 F   0  0  0  0  0  0  0  0  0  0  0  0
  -27.7881  -14.0260   21.6602 F   0  0  0  0  0  0  0  0  0  0  0  0
  1  2  1  0  0  0  0
  1  5  2  0  0  0  0
  2  6  2  0  0  0  0
  3  8  2  0  0  0  0
  3 16  1  0  0  0  0
  4  9  1  0  0  0  0
  4 16  2  0  0  0  0
  5 18  1  0  0  0  0
  6 20  1  0  0  0  0
  7 10  2  0  0  0  0
  7 19  1  0  0  0  0
  8 22  1  0  0  0  0
  9 22  2  0  0  0  0
 10 23  1  0  0  0  0
 11 12  2  0  0  0  0
 11 24  1  0  0  0  0
 12 25  1  0  0  0  0
 13 21  1  0  0  0  0
 13 23  2  0  0  0  0
 14 25  2  0  0  0  0
 14 26  1  0  0  0  0
 15 28  1  0  0  0  0
 15 63  2  0  0  0  0
 16 27  1  0  0  0  0
 17 27  1  0  0  0  0
 17 31  2  0  0  0  0
 17 32  1  0  0  0  0
 18 20  2  0  0  0  0
 18 37  1  0  0  0  0
 19 21  2  0  0  0  0
 19 38  1  0  0  0  0
 20 46  1  0  0  0  0
 21 39  1  0  0  0  0
 22 79  1  0  0  0  0
 23 80  1  0  0  0  0
 24 26  2  0  0  0  0
 24 79  1  0  0  0  0
 25 81  1  0  0  0  0
 26 82  1  0  0  0  0
 27 64  2  0  0  0  0
 28 59  1  0  0  0  0
 28 65  2  0  0  0  0
 29 30  2  0  0  0  0
 29 49  1  0  0  0  0
 29 63  1  0  0  0  0
 30 56  1  0  0  0  0
 30 65  1  0  0  0  0
 31 66  1  0  0  0  0
 31 69  1  0  0  0  0
 32 70  1  0  0  0  0
 32 74  2  0  0  0  0
 33 47  1  0  0  0  0
 33 71  1  0  0  0  0
 33 75  2  0  0  0  0
 34 59  1  0  0  0  0
 34 68  1  0  0  0  0
 34 76  2  0  0  0  0
 35 60  1  0  0  0  0
 35 67  1  0  0  0  0
 35 77  2  0  0  0  0
 36 61  1  0  0  0  0
 36 72  1  0  0  0  0
 36 78  2  0  0  0  0
 37 40  1  0  0  0  0
 38 47  1  0  0  0  0
 39 67  1  0  0  0  0
 40 42  1  0  0  0  0
 41 43  1  0  0  0  0
 41 44  1  0  0  0  0
 42 46  1  0  0  0  0
 43 48  1  0  0  0  0
 44 68  1  0  0  0  0
 45 48  1  0  0  0  0
 45 68  1  0  0  0  0
 46 71  1  0  0  0  0
 47 67  1  0  0  0  0
 48 66  1  0  0  0  0
 50 59  1  0  0  0  0
 51 61  1  0  0  0  0
 52 62  1  0  0  0  0
 53 62  1  0  0  0  0
 54 62  1  0  0  0  0
 55 73  1  0  0  0  0
 56 57  1  0  0  0  0
 57 58  1  0  0  0  0
 58 80  1  0  0  0  0
 60 62  1  0  0  0  0
 60 72  1  0  0  0  0
 61 73  1  0  0  0  0
 64 66  1  0  0  0  0
M  CHG  1  73   1
M  ISO  4  34 100  58 101  59 100  80 101
M  END
> <Batch ID>
0074

> <Smiles>
CNC(C)C(=O)NC(C(=O)N1Cc2cc([101O:1][101CH2:1]CCc3nc([100CH:0](C)[100C:0](=O)N4CCCC(n5nc(-c6ccc(Oc7ccc(F)cc7F)cc6)c(C(N)=O)c5N)C4)cnc3C)ccc2CC1C(=O)NC1CCCc2ccccc21)C(C)(C)C

> <Shape>
0.239

> <Color>
0.060

> <Negative vol penalty>
0.000

$$$$

  -OEChem-04052318293D

 84 92  0     1  0  0  0  0  0999 V2000
  -19.8150  -33.0255   19.9039 C   0  0  0  0  0  0  0  0  0  0  0  0
  -21.1071  -32.5395   19.7322 C   0  0  0  0  0  0  0  0  0  0  0  0
  -23.0868  -10.6878   19.9079 C   0  0  0  0  0  0  0  0  0  0  0  0
  -24.3551  -10.6914   21.9643 C   0  0  0  0  0  0  0  0  0  0  0  0
  -19.0491  -32.5986   20.9879 C   0  0  0  0  0  0  0  0  0  0  0  0
  -21.6346  -31.6269   20.6451 C   0  0  0  0  0  0  0  0  0  0  0  0
  -25.4813  -27.0171   19.4376 C   0  0  0  0  0  0  0  0  0  0  0  0
  -22.7669   -9.3449   20.1076 C   0  0  0  0  0  0  0  0  0  0  0  0
  -24.0351   -9.3485   22.1640 C   0  0  0  0  0  0  0  0  0  0  0  0
  -26.8642  -26.8921   19.5630 C   0  0  0  0  0  0  0  0  0  0  0  0
  -23.2537   -6.0197   23.3995 C   0  0  0  0  0  0  0  0  0  0  0  0
  -22.8487   -5.6317   24.6766 C   0  0  0  0  0  0  0  0  0  0  0  0
  -26.5682  -25.8410   21.7140 C   0  0  0  0  0  0  0  0  0  0  0  0
  -20.9874   -7.1671   24.5526 C   0  0  0  0  0  0  0  0  0  0  0  0
  -30.3733  -22.7055   19.7590 C   0  0  0  0  0  0  0  0  0  0  0  0
  -23.8810  -11.3611   20.8363 C   0  0  0  0  0  0  0  0  0  0  0  0
  -23.4881  -13.8703   21.0752 C   0  0  0  0  0  0  0  0  0  0  0  0
  -19.5640  -31.6729   21.9092 C   0  0  0  0  0  0  0  0  0  0  0  0
  -24.6305  -26.5641   20.4561 C   0  0  0  0  0  0  0  0  0  0  0  0
  -20.8754  -31.1882   21.7432 C   0  0  0  0  0  0  0  0  0  0  0  0
  -25.1748  -25.9591   21.5980 C   0  0  0  0  0  0  0  0  0  0  0  0
  -23.2409   -8.6753   21.2356 C   0  0  0  0  0  0  0  0  0  0  0  0
  -27.4080  -26.3066   20.7026 C   0  0  0  0  0  0  0  0  0  0  0  0
  -22.5257   -6.9814   22.6990 C   0  0  0  0  0  0  0  0  0  0  0  0
  -21.7155   -6.2054   25.2532 C   0  0  0  0  0  0  0  0  0  0  0  0
  -21.3925   -7.5551   23.2755 C   0  0  0  0  0  0  0  0  0  0  0  0
  -24.2124  -12.7481   20.6303 C   0  0  0  0  0  0  0  0  0  0  0  0
  -30.5319  -23.8812   20.4486 C   0  0  0  0  0  0  0  0  0  0  0  0
  -24.2136  -14.9469   20.6269 C   0  0  0  0  0  0  0  0  0  0  0  0
  -22.2687  -13.9337   21.8267 C   0  0  0  0  0  0  0  0  0  0  0  0
  -22.5130  -27.9391   22.3872 C   0  0  0  0  0  0  0  0  0  0  0  0
  -21.9077  -24.8757   23.2657 C   0  0  0  0  0  0  0  0  0  0  0  0
  -29.1517  -17.4812   19.9326 C   0  0  0  0  0  0  0  0  0  0  0  0
  -23.0180  -21.6577   23.5070 C   0  0  0  0  0  0  0  0  0  0  0  0
  -18.7156  -31.2769   23.0916 C   0  0  0  0  0  0  0  0  0  0  0  0
  -23.1398  -26.6820   20.2937 C   0  0  0  0  0  0  0  0  0  0  0  0
  -24.3038  -25.4382   22.7109 C   0  0  0  0  0  0  0  0  0  0  0  0
  -19.2129  -30.0225   23.8052 C   0  0  0  0  0  0  0  0  0  0  0  0
  -28.0759  -15.2049   17.3828 C   0  0  0  0  0  0  0  0  0  0  0  0
  -20.7196  -30.0986   24.0311 C   0  0  0  0  0  0  0  0  0  0  0  0
  -26.9356  -14.4345   18.0472 C   0  0  0  0  0  0  0  0  0  0  0  0
  -29.1725  -15.5532   18.3845 C   0  0  0  0  0  0  0  0  0  0  0  0
  -27.5453  -15.5341   20.2482 C   0  0  0  0  0  0  0  0  0  0  0  0
  -21.4739  -30.1783   22.6983 C   0  0  1  0  0  0  0  0  0  0  0  0
  -22.3899  -26.6519   21.6219 C   0  0  1  0  0  0  0  0  0  0  0  0
  -26.4018  -15.1892   19.2777 C   0  0  2  0  0  0  0  0  0  0  0  0
  -22.3120  -19.3846   24.3021 C   0  0  0  0  0  0  0  0  0  0  0  0
  -28.2686  -18.1844   22.1077 C   0  0  0  0  0  0  0  0  0  0  0  0
  -22.3736  -25.7438   26.1535 C   0  0  0  0  0  0  0  0  0  0  0  0
  -22.5984  -23.3277   26.7702 C   0  0  0  0  0  0  0  0  0  0  0  0
  -20.4494  -24.1790   25.8321 C   0  0  0  0  0  0  0  0  0  0  0  0
  -28.3062  -20.0373   18.6325 C   0  0  0  0  0  0  0  0  0  0  0  0
  -27.4305  -20.8554   20.8145 C   0  0  0  0  0  0  0  0  0  0  0  0
  -23.2730  -20.5020   20.7943 C   0  0  0  0  0  0  0  0  0  0  0  0
  -30.7969  -25.2679   19.9147 C   0  0  0  0  0  0  0  0  0  0  0  0
  -29.9255  -20.3730   20.5864 C   0  0  0  0  0  0  0  0  0  0  0  0
  -29.5104  -26.0333   19.6249 C   0  0  0  0  0  0  0  0  0  1  0  0
  -22.4552  -23.9356   24.3123 C   0  0  1  0  0  0  0  0  0  0  0  0
  -22.3748  -20.3385   23.1193 C   0  0  2  0  0  0  0  0  0  0  0  0
  -28.2055  -18.4452   20.6030 C   0  0  1  0  0  0  0  0  0  0  0  0
  -21.9859  -24.3080   25.7471 C   0  0  0  0  0  0  0  0  0  0  0  0
  -28.4866  -19.9293   20.1664 C   0  0  0  0  0  0  0  0  0  0  0  0
  -25.3133  -13.0810   19.9513 N   0  0  0  0  0  0  0  0  0  0  0  0
  -30.4108  -23.6468   21.7902 N   0  0  0  0  0  0  0  0  0  0  0  0
  -30.1805  -22.3493   21.9588 N   0  0  0  0  0  0  0  0  0  0  0  0
  -30.1585  -21.7866   20.7397 N   0  0  0  0  0  0  0  0  0  0  0  0
  -25.2862  -14.4246   19.9662 N   0  0  0  0  0  0  0  0  0  0  0  0
  -22.8527  -25.5822   22.5083 N   0  0  0  0  0  0  0  0  0  0  0  0
  -28.6218  -16.2491   19.5488 N   0  0  0  0  0  0  0  0  0  0  0  0
  -24.0321  -16.2801   20.7374 N   0  0  0  0  0  0  0  0  0  0  0  0
  -21.6547  -12.7325   22.2065 N   0  0  0  0  0  0  0  0  0  0  0  0
  -21.5426  -28.8728   22.0776 N   0  0  0  0  0  0  0  0  0  0  0  0
  -22.0782  -22.5909   23.8905 N   0  0  0  0  0  0  0  0  0  0  0  0
  -23.1516  -19.6842   22.0286 N   0  3  0  0  0  0  0  0  0  0  0  0
  -21.7305  -15.0234   22.1375 O   0  0  0  0  0  0  0  0  0  0  0  0
  -23.4204  -28.0745   23.1996 O   0  0  0  0  0  0  0  0  0  0  0  0
  -20.6867  -24.9741   23.1205 O   0  0  0  0  0  0  0  0  0  0  0  0
  -30.3255  -17.8162   19.7535 O   0  0  0  0  0  0  0  0  0  0  0  0
  -24.2330  -21.8407   23.4765 O   0  0  0  0  0  0  0  0  0  0  0  0
  -22.9287   -7.3650   21.4309 O   0  0  0  0  0  0  0  0  0  0  0  0
  -28.7575  -26.1840   20.8277 O   0  0  0  0  0  0  0  0  0  1  0  0
  -21.3257   -5.8316   26.4789 F   0  0  0  0  0  0  0  0  0  0  0  0
  -20.6883   -8.4786   22.6069 F   0  0  0  0  0  0  0  0  0  0  0  0
  -26.9289  -18.1328   20.2138 F   0  0  0  0  0  0  0  0  0  0  0  0
  1  2  1  0  0  0  0
  1  5  2  0  0  0  0
  2  6  2  0  0  0  0
  3  8  2  0  0  0  0
  3 16  1  0  0  0  0
  4  9  1  0  0  0  0
  4 16  2  0  0  0  0
  5 18  1  0  0  0  0
  6 20  1  0  0  0  0
  7 10  2  0  0  0  0
  7 19  1  0  0  0  0
  8 22  1  0  0  0  0
  9 22  2  0  0  0  0
 10 23  1  0  0  0  0
 11 12  2  0  0  0  0
 11 24  1  0  0  0  0
 12 25  1  0  0  0  0
 13 21  1  0  0  0  0
 13 23  2  0  0  0  0
 14 25  2  0  0  0  0
 14 26  1  0  0  0  0
 15 28  2  0  0  0  0
 15 66  1  0  0  0  0
 16 27  1  0  0  0  0
 17 27  1  0  0  0  0
 17 29  2  0  0  0  0
 17 30  1  0  0  0  0
 18 20  2  0  0  0  0
 18 35  1  0  0  0  0
 19 21  2  0  0  0  0
 19 36  1  0  0  0  0
 20 44  1  0  0  0  0
 21 37  1  0  0  0  0
 22 80  1  0  0  0  0
 23 81  1  0  0  0  0
 24 26  2  0  0  0  0
 24 80  1  0  0  0  0
 25 82  1  0  0  0  0
 26 83  1  0  0  0  0
 27 63  2  0  0  0  0
 28 55  1  0  0  0  0
 28 64  1  0  0  0  0
 29 67  1  0  0  0  0
 29 70  1  0  0  0  0
 30 71  1  0  0  0  0
 30 75  2  0  0  0  0
 31 45  1  0  0  0  0
 31 72  1  0  0  0  0
 31 76  2  0  0  0  0
 32 58  1  0  0  0  0
 32 68  1  0  0  0  0
 32 77  2  0  0  0  0
 33 60  1  0  0  0  0
 33 69  1  0  0  0  0
 33 78  2  0  0  0  0
 34 59  1  0  0  0  0
 34 73  1  0  0  0  0
 34 79  2  0  0  0  0
 35 38  1  0  0  0  0
 36 45  1  0  0  0  0
 37 68  1  0  0  0  0
 38 40  1  0  0  0  0
 39 41  1  0  0  0  0
 39 42  1  0  0  0  0
 40 44  1  0  0  0  0
 41 46  1  0  0  0  0
 42 69  1  0  0  0  0
 43 46  1  0  0  0  0
 43 69  1  0  0  0  0
 44 72  1  0  0  0  0
 45 68  1  0  0  0  0
 46 67  1  0  0  0  0
 47 59  1  0  0  0  0
 48 60  1  0  0  0  0
 49 61  1  0  0  0  0
 50 61  1  0  0  0  0
 51 61  1  0  0  0  0
 52 62  1  0  0  0  0
 53 62  1  0  0  0  0
 54 74  1  0  0  0  0
 55 57  1  0  0  0  0
 56 62  1  0  0  0  0
 56 66  1  0  0  0  0
 57 81  1  0  0  0  0
 58 61  1  0  0  0  0
 58 73  1  0  0  0  0
 59 74  1  0  0  0  0
 60 62  1  0  0  0  0
 60 84  1  0  0  0  0
 63 67  1  0  0  0  0
 64 65  2  0  0  0  0
 65 66  1  0  0  0  0
M  CHG  1  74   1
M  ISO  4  33 100  57 101  60 100  81 101
M  END
> <Batch ID>
0074

> <Smiles>
CNC(C)C(=O)NC(C(=O)N1Cc2cc([101O:1][101CH2:1]Cc3cn(CC(C)(C)[100C:0](C)(F)[100C:0](=O)N4CCCC(n5nc(-c6ccc(Oc7ccc(F)cc7F)cc6)c(C(N)=O)c5N)C4)nn3)ccc2CC1C(=O)NC1CCCc2ccccc21)C(C)(C)C

> <Shape>
0.252

> <Color>
0.086

> <Negative vol penalty>
0.000

$$$$

  -OEChem-04052318293D

 84 92  0     1  0  0  0  0  0999 V2000
  -18.2273  -29.0232   26.2925 C   0  0  0  0  0  0  0  0  0  0  0  0
  -19.5839  -28.7279   26.3817 C   0  0  0  0  0  0  0  0  0  0  0  0
  -28.5575  -14.0564   20.4853 C   0  0  0  0  0  0  0  0  0  0  0  0
  -26.4298  -15.1365   20.1065 C   0  0  0  0  0  0  0  0  0  0  0  0
  -17.5844  -28.9751   25.0562 C   0  0  0  0  0  0  0  0  0  0  0  0
  -20.2981  -28.3832   25.2347 C   0  0  0  0  0  0  0  0  0  0  0  0
  -26.8212  -28.9709   22.3328 C   0  0  0  0  0  0  0  0  0  0  0  0
  -27.9113  -12.8264   20.6083 C   0  0  0  0  0  0  0  0  0  0  0  0
  -25.7836  -13.9065   20.2294 C   0  0  0  0  0  0  0  0  0  0  0  0
  -27.8184  -28.1853   21.7565 C   0  0  0  0  0  0  0  0  0  0  0  0
  -24.8015  -11.8465   22.7240 C   0  0  0  0  0  0  0  0  0  0  0  0
  -23.6467  -11.7963   23.5047 C   0  0  0  0  0  0  0  0  0  0  0  0
  -26.6207  -28.2117   19.6627 C   0  0  0  0  0  0  0  0  0  0  0  0
  -22.3807  -11.0565   21.5845 C   0  0  0  0  0  0  0  0  0  0  0  0
  -25.9294  -23.3539   21.3367 C   0  0  0  0  0  0  0  0  0  0  0  0
  -27.8168  -15.2115   20.2345 C   0  0  0  0  0  0  0  0  0  0  0  0
  -28.9885  -17.0640   18.9295 C   0  0  0  0  0  0  0  0  0  0  0  0
  -18.2933  -28.6391   23.8921 C   0  0  0  0  0  0  0  0  0  0  0  0
  -25.7089  -29.3744   21.5802 C   0  0  0  0  0  0  0  0  0  0  0  0
  -19.6638  -28.3293   23.9820 C   0  0  0  0  0  0  0  0  0  0  0  0
  -25.6120  -29.0046   20.2311 C   0  0  0  0  0  0  0  0  0  0  0  0
  -26.5243  -12.7514   20.4803 C   0  0  0  0  0  0  0  0  0  0  0  0
  -27.7168  -27.8032   20.4221 C   0  0  0  0  0  0  0  0  0  0  0  0
  -24.7459  -11.5018   21.3735 C   0  0  0  0  0  0  0  0  0  0  0  0
  -22.4364  -11.4013   22.9350 C   0  0  0  0  0  0  0  0  0  0  0  0
  -23.5356  -11.1068   20.8038 C   0  0  0  0  0  0  0  0  0  0  0  0
  -28.4837  -16.4824   20.1080 C   0  0  0  0  0  0  0  0  0  0  0  0
  -27.7270  -23.5561   20.2150 C   0  0  0  0  0  0  0  0  0  0  0  0
  -27.8901  -22.4176   20.9686 C   0  0  0  0  0  0  0  0  0  0  0  0
  -29.5224  -18.2613   19.3389 C   0  0  0  0  0  0  0  0  0  0  0  0
  -28.9758  -16.5663   17.5849 C   0  0  0  0  0  0  0  0  0  0  0  0
  -22.5735  -28.8898   21.7746 C   0  0  0  0  0  0  0  0  0  0  0  0
  -22.4868  -31.0147   19.3252 C   0  0  0  0  0  0  0  0  0  0  0  0
  -28.3591  -21.7603   24.0841 C   0  0  0  0  0  0  0  0  0  0  0  0
  -24.1094  -32.4884   16.7093 C   0  0  0  0  0  0  0  0  0  0  0  0
  -17.5448  -28.5541   22.5855 C   0  0  0  0  0  0  0  0  0  0  0  0
  -24.6551  -30.2440   22.2092 C   0  0  0  0  0  0  0  0  0  0  0  0
  -24.4482  -29.4286   19.3742 C   0  0  0  0  0  0  0  0  0  0  0  0
  -18.4562  -28.5451   21.3609 C   0  0  0  0  0  0  0  0  0  0  0  0
  -31.5232  -20.3788   23.1247 C   0  0  0  0  0  0  0  0  0  0  0  0
  -19.6094  -27.5668   21.5609 C   0  0  0  0  0  0  0  0  0  0  0  0
  -31.1467  -19.2573   22.1572 C   0  0  0  0  0  0  0  0  0  0  0  0
  -30.4937  -20.5220   24.2413 C   0  0  0  0  0  0  0  0  0  0  0  0
  -28.7158  -19.6005   22.7880 C   0  0  0  0  0  0  0  0  0  0  0  0
  -20.4783  -27.9752   22.7566 C   0  0  1  0  0  0  0  0  0  0  0  0
  -23.3111  -30.1679   21.4915 C   0  0  1  0  0  0  0  0  0  0  0  0
  -29.7138  -19.4423   21.6273 C   0  0  2  0  0  0  0  0  0  0  0  0
  -29.0045  -21.4589   21.0728 C   0  0  0  0  0  0  0  0  0  0  0  0
  -23.7673  -34.1591   14.8684 C   0  0  0  0  0  0  0  0  0  0  0  0
  -24.9036  -20.8893   22.5246 C   0  0  0  0  0  0  0  0  0  0  0  0
  -26.5678  -20.4120   25.0864 C   0  0  0  0  0  0  0  0  0  0  0  0
  -26.2744  -22.8588   24.6442 C   0  0  0  0  0  0  0  0  0  0  0  0
  -20.8633  -28.9573   17.7628 C   0  0  0  0  0  0  0  0  0  0  0  0
  -21.3661  -30.2473   15.6769 C   0  0  0  0  0  0  0  0  0  0  0  0
  -20.0684  -31.3160   17.5199 C   0  0  0  0  0  0  0  0  0  0  0  0
  -26.2519  -34.2458   17.7486 C   0  0  0  0  0  0  0  0  0  0  0  0
  -28.6890  -24.1779   19.2344 C   0  0  0  0  0  0  0  0  0  0  0  0
  -29.8427  -24.9329   19.8980 C   0  0  0  0  0  0  0  0  0  0  0  0
  -29.3862  -26.1351   20.7164 C   0  0  0  0  0  0  0  0  0  1  0  0
  -22.5464  -30.9142   17.8201 C   0  0  1  0  0  0  0  0  0  0  0  0
  -24.2419  -33.9434   16.2971 C   0  0  2  0  0  0  0  0  0  0  0  0
  -26.3948  -21.2638   22.6284 C   0  0  2  0  0  0  0  0  0  0  0  0
  -26.8663  -21.5475   24.0968 C   0  0  0  0  0  0  0  0  0  0  0  0
  -21.2322  -30.3489   17.2113 C   0  0  0  0  0  0  0  0  0  0  0  0
  -26.5045  -24.1344   20.4490 N   0  0  0  0  0  0  0  0  0  0  0  0
  -28.6796  -17.2473   21.1853 N   0  0  0  0  0  0  0  0  0  0  0  0
  -26.7306  -22.3013   21.6822 N   0  0  0  0  0  0  0  0  0  0  0  0
  -29.3135  -18.3217   20.6854 N   0  0  0  0  0  0  0  0  0  0  0  0
  -23.4404  -30.2730   20.0367 N   0  0  0  0  0  0  0  0  0  0  0  0
  -29.1429  -20.6730   23.6973 N   0  0  0  0  0  0  0  0  0  0  0  0
  -30.1457  -19.2579   18.6750 N   0  0  0  0  0  0  0  0  0  0  0  0
  -28.3868  -15.3184   17.3399 N   0  0  0  0  0  0  0  0  0  0  0  0
  -21.3523  -29.0707   22.3954 N   0  0  0  0  0  0  0  0  0  0  0  0
  -22.9060  -32.2427   17.3362 N   0  0  0  0  0  0  0  0  0  0  0  0
  -25.6633  -34.3811   16.3913 N   0  3  0  0  0  0  0  0  0  0  0  0
  -29.4866  -17.2019   16.6317 O   0  0  0  0  0  0  0  0  0  0  0  0
  -23.0745  -27.8190   21.4522 O   0  0  0  0  0  0  0  0  0  0  0  0
  -21.6304  -31.7307   19.8500 O   0  0  0  0  0  0  0  0  0  0  0  0
  -28.8130  -22.8615   24.4058 O   0  0  0  0  0  0  0  0  0  0  0  0
  -24.9841  -31.6525   16.4934 O   0  0  0  0  0  0  0  0  0  0  0  0
  -25.8935  -11.5513   20.5999 O   0  0  0  0  0  0  0  0  0  0  0  0
  -28.6884  -27.0358   19.8572 O   0  0  0  0  0  0  0  0  0  1  0  0
  -21.3278  -11.3517   23.6852 F   0  0  0  0  0  0  0  0  0  0  0  0
  -23.4762  -10.7733   19.5072 F   0  0  0  0  0  0  0  0  0  0  0  0
  1  2  1  0  0  0  0
  1  5  2  0  0  0  0
  2  6  2  0  0  0  0
  3  8  2  0  0  0  0
  3 16  1  0  0  0  0
  4  9  1  0  0  0  0
  4 16  2  0  0  0  0
  5 18  1  0  0  0  0
  6 20  1  0  0  0  0
  7 10  2  0  0  0  0
  7 19  1  0  0  0  0
  8 22  1  0  0  0  0
  9 22  2  0  0  0  0
 10 23  1  0  0  0  0
 11 12  2  0  0  0  0
 11 24  1  0  0  0  0
 12 25  1  0  0  0  0
 13 21  1  0  0  0  0
 13 23  2  0  0  0  0
 14 25  2  0  0  0  0
 14 26  1  0  0  0  0
 15 65  2  0  0  0  0
 15 67  1  0  0  0  0
 16 27  1  0  0  0  0
 17 27  1  0  0  0  0
 17 30  2  0  0  0  0
 17 31  1  0  0  0  0
 18 20  2  0  0  0  0
 18 36  1  0  0  0  0
 19 21  2  0  0  0  0
 19 37  1  0  0  0  0
 20 45  1  0  0  0  0
 21 38  1  0  0  0  0
 22 81  1  0  0  0  0
 23 82  1  0  0  0  0
 24 26  2  0  0  0  0
 24 81  1  0  0  0  0
 25 83  1  0  0  0  0
 26 84  1  0  0  0  0
 27 66  2  0  0  0  0
 28 29  2  0  0  0  0
 28 57  1  0  0  0  0
 28 65  1  0  0  0  0
 29 48  1  0  0  0  0
 29 67  1  0  0  0  0
 30 68  1  0  0  0  0
 30 71  1  0  0  0  0
 31 72  1  0  0  0  0
 31 76  2  0  0  0  0
 32 46  1  0  0  0  0
 32 73  1  0  0  0  0
 32 77  2  0  0  0  0
 33 60  1  0  0  0  0
 33 69  1  0  0  0  0
 33 78  2  0  0  0  0
 34 63  1  0  0  0  0
 34 70  1  0  0  0  0
 34 79  2  0  0  0  0
 35 61  1  0  0  0  0
 35 74  1  0  0  0  0
 35 80  2  0  0  0  0
 36 39  1  0  0  0  0
 37 46  1  0  0  0  0
 38 69  1  0  0  0  0
 39 41  1  0  0  0  0
 40 42  1  0  0  0  0
 40 43  1  0  0  0  0
 41 45  1  0  0  0  0
 42 47  1  0  0  0  0
 43 70  1  0  0  0  0
 44 47  1  0  0  0  0
 44 70  1  0  0  0  0
 45 73  1  0  0  0  0
 46 69  1  0  0  0  0
 47 68  1  0  0  0  0
 49 61  1  0  0  0  0
 50 62  1  0  0  0  0
 51 63  1  0  0  0  0
 52 63  1  0  0  0  0
 53 64  1  0  0  0  0
 54 64  1  0  0  0  0
 55 64  1  0  0  0  0
 56 75  1  0  0  0  0
 57 58  1  0  0  0  0
 58 59  1  0  0  0  0
 59 82  1  0  0  0  0
 60 64  1  0  0  0  0
 60 74  1  0  0  0  0
 61 75  1  0  0  0  0
 62 63  1  0  0  0  0
 62 67  1  0  0  0  0
 66 68  1  0  0  0  0
M  CHG  1  75   1
M  ISO  4  34 100  59 101  63 100  82 101
M  END
> <Batch ID>
0074

> <Smiles>
CNC(C)C(=O)NC(C(=O)N1Cc2cc([101O:1][101CH2:1]CCc3ncn(C(C)[100C:0](C)(C)[100C:0](=O)N4CCCC(n5nc(-c6ccc(Oc7ccc(F)cc7F)cc6)c(C(N)=O)c5N)C4)c3C)ccc2CC1C(=O)NC1CCCc2ccccc21)C(C)(C)C

> <Shape>
0.243

> <Color>
0.088

> <Negative vol penalty>
0.000

$$$$

  -OEChem-04052318293D

 86 94  0     1  0  0  0  0  0999 V2000
  -21.5072  -30.9048   23.0830 C   0  0  0  0  0  0  0  0  0  0  0  0
  -21.1783  -30.0083   22.0713 C   0  0  0  0  0  0  0  0  0  0  0  0
  -26.8922  -12.7530   20.8786 C   0  0  0  0  0  0  0  0  0  0  0  0
  -27.2779  -12.5455   18.5027 C   0  0  0  0  0  0  0  0  0  0  0  0
  -22.7616  -31.5133   23.0930 C   0  0  0  0  0  0  0  0  0  0  0  0
  -22.1033  -29.7206   21.0683 C   0  0  0  0  0  0  0  0  0  0  0  0
  -22.9065  -24.3533   18.2305 C   0  0  0  0  0  0  0  0  0  0  0  0
  -26.3837  -11.4545   20.9095 C   0  0  0  0  0  0  0  0  0  0  0  0
  -26.7695  -11.2469   18.5336 C   0  0  0  0  0  0  0  0  0  0  0  0
  -22.4598  -23.8650   17.0034 C   0  0  0  0  0  0  0  0  0  0  0  0
  -23.4911   -9.8933   20.1222 C   0  0  0  0  0  0  0  0  0  0  0  0
  -22.3137   -9.6760   20.8377 C   0  0  0  0  0  0  0  0  0  0  0  0
  -24.5541  -24.5062   15.9925 C   0  0  0  0  0  0  0  0  0  0  0  0
  -23.4701   -8.1060   22.2642 C   0  0  0  0  0  0  0  0  0  0  0  0
  -24.4253  -21.6750   12.6018 C   0  0  0  0  0  0  0  0  0  0  0  0
  -27.3392  -13.2985   19.6752 C   0  0  0  0  0  0  0  0  0  0  0  0
  -29.2032  -15.0336   19.8253 C   0  0  0  0  0  0  0  0  0  0  0  0
  -23.7060  -31.2255   22.0950 C   0  0  0  0  0  0  0  0  0  0  0  0
  -24.1784  -24.9326   18.3456 C   0  0  0  0  0  0  0  0  0  0  0  0
  -23.3711  -30.3268   21.0642 C   0  0  0  0  0  0  0  0  0  0  0  0
  -25.0157  -24.9988   17.2228 C   0  0  0  0  0  0  0  0  0  0  0  0
  -26.3224  -10.7014   19.7370 C   0  0  0  0  0  0  0  0  0  0  0  0
  -23.2825  -23.9440   15.8835 C   0  0  0  0  0  0  0  0  0  0  0  0
  -24.6581   -9.2169   20.4777 C   0  0  0  0  0  0  0  0  0  0  0  0
  -22.3032   -8.7824   21.9087 C   0  0  0  0  0  0  0  0  0  0  0  0
  -24.6476   -8.3233   21.5487 C   0  0  0  0  0  0  0  0  0  0  0  0
  -27.8640  -14.6400   19.6425 C   0  0  0  0  0  0  0  0  0  0  0  0
  -23.4434  -20.9731   13.2656 C   0  0  0  0  0  0  0  0  0  0  0  0
  -24.9113  -19.2558   13.6208 C   0  0  0  0  0  0  0  0  0  0  0  0
  -25.8929  -19.9575   12.9564 C   0  0  0  0  0  0  0  0  0  0  0  0
  -29.1792  -16.4013   19.7011 C   0  0  0  0  0  0  0  0  0  0  0  0
  -30.3651  -14.2344   20.0842 C   0  0  0  0  0  0  0  0  0  0  0  0
  -25.2684  -27.8133   19.1315 C   0  0  0  0  0  0  0  0  0  0  0  0
  -28.1541  -26.3435   18.9462 C   0  0  0  0  0  0  0  0  0  0  0  0
  -30.0288  -23.7901   17.6762 C   0  0  0  0  0  0  0  0  0  0  0  0
  -26.5106  -20.5700   16.6987 C   0  0  0  0  0  0  0  0  0  0  0  0
  -25.0319  -31.9439   22.1214 C   0  0  0  0  0  0  0  0  0  0  0  0
  -24.6558  -25.4305   19.6822 C   0  0  0  0  0  0  0  0  0  0  0  0
  -26.3976  -25.5931   17.2979 C   0  0  0  0  0  0  0  0  0  0  0  0
  -26.0913  -31.3000   21.2308 C   0  0  0  0  0  0  0  0  0  0  0  0
  -25.6821  -19.8741   20.0907 C   0  0  0  0  0  0  0  0  0  0  0  0
  -25.5095  -30.9748   19.8588 C   0  0  0  0  0  0  0  0  0  0  0  0
  -26.2847  -18.4901   20.3379 C   0  0  0  0  0  0  0  0  0  0  0  0
  -25.1272  -20.0032   18.6738 C   0  0  0  0  0  0  0  0  0  0  0  0
  -26.6843  -18.2802   17.8489 C   0  0  0  0  0  0  0  0  0  0  0  0
  -24.3565  -29.9701   19.9725 C   0  0  1  0  0  0  0  0  0  0  0  0
  -25.7699  -26.4667   19.5707 C   0  0  1  0  0  0  0  0  0  0  0  0
  -27.3072  -18.1206   19.2464 C   0  0  2  0  0  0  0  0  0  0  0  0
  -25.1740  -17.9049   14.1934 C   0  0  0  0  0  0  0  0  0  0  0  0
  -27.5660  -19.0729   11.2900 C   0  0  0  0  0  0  0  0  0  0  0  0
  -32.0287  -22.3109   17.3452 C   0  0  0  0  0  0  0  0  0  0  0  0
  -29.0146  -28.5504   17.0230 C   0  0  0  0  0  0  0  0  0  0  0  0
  -30.9394  -27.1047   16.3352 C   0  0  0  0  0  0  0  0  0  0  0  0
  -30.7518  -27.8887   18.6959 C   0  0  0  0  0  0  0  0  0  0  0  0
  -29.5960  -19.2906   13.9339 C   0  0  0  0  0  0  0  0  0  0  0  0
  -29.0382  -21.2351   12.4753 C   0  0  0  0  0  0  0  0  0  0  0  0
  -29.2327  -22.0181   19.9090 C   0  0  0  0  0  0  0  0  0  0  0  0
  -22.0625  -21.5593   13.4322 C   0  0  0  0  0  0  0  0  0  0  0  0
  -27.9726  -20.9944   14.7386 C   0  0  0  0  0  0  0  0  0  0  0  0
  -21.9302  -22.3769   14.7124 C   0  0  0  0  0  0  0  0  0  1  0  0
  -27.2633  -19.3984   12.7792 C   0  0  1  0  0  0  0  0  0  0  0  0
  -29.1665  -26.1097   17.8510 C   0  0  1  0  0  0  0  0  0  0  0  0
  -30.9976  -22.8264   18.3372 C   0  0  2  0  0  0  0  0  0  0  0  0
  -29.9413  -27.4039   17.4741 C   0  0  0  0  0  0  0  0  0  0  0  0
  -28.4455  -20.2150   13.4775 C   0  0  0  0  0  0  0  0  0  0  0  0
  -25.6677  -21.1798   12.4352 N   0  0  0  0  0  0  0  0  0  0  0  0
  -27.0486  -15.6740   19.4193 N   0  0  0  0  0  0  0  0  0  0  0  0
  -23.6688  -19.7509   13.7871 N   0  0  0  0  0  0  0  0  0  0  0  0
  -27.8776  -16.7309   19.4611 N   0  0  0  0  0  0  0  0  0  0  0  0
  -26.8165  -26.0719   18.6256 N   0  0  0  0  0  0  0  0  0  0  0  0
  -26.1468  -19.6402   17.6866 N   0  0  0  0  0  0  0  0  0  0  0  0
  -30.1445  -17.3420   19.7749 N   0  0  0  0  0  0  0  0  0  0  0  0
  -30.2120  -12.8447   20.1815 N   0  0  0  0  0  0  0  0  0  0  0  0
  -24.8701  -28.6318   20.1712 N   0  0  0  0  0  0  0  0  0  0  0  0
  -30.0168  -25.0157   18.3078 N   0  0  0  0  0  0  0  0  0  0  0  0
  -27.4888  -20.1481   15.8065 N   0  0  0  0  0  0  0  0  0  0  0  0
  -30.2631  -21.6587   18.9009 N   0  3  0  0  0  0  0  0  0  0  0  0
  -31.5027  -14.7392   20.2414 O   0  0  0  0  0  0  0  0  0  0  0  0
  -25.2458  -28.0898   17.9379 O   0  0  0  0  0  0  0  0  0  0  0  0
  -28.5370  -26.7452   20.0479 O   0  0  0  0  0  0  0  0  0  0  0  0
  -29.3531  -23.4873   16.6952 O   0  0  0  0  0  0  0  0  0  0  0  0
  -26.0052  -21.6950   16.6209 O   0  0  0  0  0  0  0  0  0  0  0  0
  -25.8265   -9.4342   19.7668 O   0  0  0  0  0  0  0  0  0  0  0  0
  -22.8486  -23.4687   14.6845 O   0  0  0  0  0  0  0  0  0  1  0  0
  -21.1727   -8.5750   22.5967 F   0  0  0  0  0  0  0  0  0  0  0  0
  -25.7659   -7.6714   21.8956 F   0  0  0  0  0  0  0  0  0  0  0  0
  1  2  1  0  0  0  0
  1  5  2  0  0  0  0
  2  6  2  0  0  0  0
  3  8  2  0  0  0  0
  3 16  1  0  0  0  0
  4  9  1  0  0  0  0
  4 16  2  0  0  0  0
  5 18  1  0  0  0  0
  6 20  1  0  0  0  0
  7 10  2  0  0  0  0
  7 19  1  0  0  0  0
  8 22  1  0  0  0  0
  9 22  2  0  0  0  0
 10 23  1  0  0  0  0
 11 12  2  0  0  0  0
 11 24  1  0  0  0  0
 12 25  1  0  0  0  0
 13 21  1  0  0  0  0
 13 23  2  0  0  0  0
 14 25  2  0  0  0  0
 14 26  1  0  0  0  0
 15 28  1  0  0  0  0
 15 66  2  0  0  0  0
 16 27  1  0  0  0  0
 17 27  1  0  0  0  0
 17 31  2  0  0  0  0
 17 32  1  0  0  0  0
 18 20  2  0  0  0  0
 18 37  1  0  0  0  0
 19 21  2  0  0  0  0
 19 38  1  0  0  0  0
 20 46  1  0  0  0  0
 21 39  1  0  0  0  0
 22 83  1  0  0  0  0
 23 84  1  0  0  0  0
 24 26  2  0  0  0  0
 24 83  1  0  0  0  0
 25 85  1  0  0  0  0
 26 86  1  0  0  0  0
 27 67  2  0  0  0  0
 28 58  1  0  0  0  0
 28 68  2  0  0  0  0
 29 30  2  0  0  0  0
 29 49  1  0  0  0  0
 29 68  1  0  0  0  0
 30 61  1  0  0  0  0
 30 66  1  0  0  0  0
 31 69  1  0  0  0  0
 31 72  1  0  0  0  0
 32 73  1  0  0  0  0
 32 78  2  0  0  0  0
 33 47  1  0  0  0  0
 33 74  1  0  0  0  0
 33 79  2  0  0  0  0
 34 62  1  0  0  0  0
 34 70  1  0  0  0  0
 34 80  2  0  0  0  0
 35 63  1  0  0  0  0
 35 75  1  0  0  0  0
 35 81  2  0  0  0  0
 36 71  1  0  0  0  0
 36 76  1  0  0  0  0
 36 82  2  0  0  0  0
 37 40  1  0  0  0  0
 38 47  1  0  0  0  0
 39 70  1  0  0  0  0
 40 42  1  0  0  0  0
 41 43  1  0  0  0  0
 41 44  1  0  0  0  0
 42 46  1  0  0  0  0
 43 48  1  0  0  0  0
 44 71  1  0  0  0  0
 45 48  1  0  0  0  0
 45 71  1  0  0  0  0
 46 74  1  0  0  0  0
 47 70  1  0  0  0  0
 48 69  1  0  0  0  0
 50 61  1  0  0  0  0
 51 63  1  0  0  0  0
 52 64  1  0  0  0  0
 53 64  1  0  0  0  0
 54 64  1  0  0  0  0
 55 65  1  0  0  0  0
 56 65  1  0  0  0  0
 57 77  1  0  0  0  0
 58 60  1  0  0  0  0
 59 65  1  0  0  0  0
 59 76  1  0  0  0  0
 60 84  1  0  0  0  0
 61 65  1  0  0  0  0
 62 64  1  0  0  0  0
 62 75  1  0  0  0  0
 63 77  1  0  0  0  0
 67 69  1  0  0  0  0
M  CHG  1  77   1
M  ISO  4  36 100  60 101  76 100  84 101
M  END
> <Batch ID>
0074

> <Smiles>
CNC(C)C(=O)NC(C(=O)N1Cc2cc([101O:1][101CH2:1]Cc3cnc(C(C)C(C)(C)C[100NH:0][100C:0](=O)N4CCCC(n5nc(-c6ccc(Oc7ccc(F)cc7F)cc6)c(C(N)=O)c5N)C4)c(C)n3)ccc2CC1C(=O)NC1CCCc2ccccc21)C(C)(C)C

> <Shape>
0.224

> <Color>
0.076

> <Negative vol penalty>
0.000

$$$$

  -OEChem-04052318293D

 85 93  0     1  0  0  0  0  0999 V2000
  -32.2521  -30.0770   13.3689 C   0  0  0  0  0  0  0  0  0  0  0  0
  -31.7314  -28.7995   13.5483 C   0  0  0  0  0  0  0  0  0  0  0  0
  -22.9863   -9.9643   19.9860 C   0  0  0  0  0  0  0  0  0  0  0  0
  -23.8416   -9.7867   22.2385 C   0  0  0  0  0  0  0  0  0  0  0  0
  -32.1868  -31.0070   14.4056 C   0  0  0  0  0  0  0  0  0  0  0  0
  -31.1460  -28.4509   14.7649 C   0  0  0  0  0  0  0  0  0  0  0  0
  -26.3732  -24.7088   15.6157 C   0  0  0  0  0  0  0  0  0  0  0  0
  -22.2269   -8.8111   20.1834 C   0  0  0  0  0  0  0  0  0  0  0  0
  -23.0821   -8.6335   22.4359 C   0  0  0  0  0  0  0  0  0  0  0  0
  -26.2877  -23.3650   15.9769 C   0  0  0  0  0  0  0  0  0  0  0  0
  -23.2720   -5.3565   21.6259 C   0  0  0  0  0  0  0  0  0  0  0  0
  -23.8930   -4.2688   22.2397 C   0  0  0  0  0  0  0  0  0  0  0  0
  -25.9592  -24.0105   18.2779 C   0  0  0  0  0  0  0  0  0  0  0  0
  -22.2691   -4.3503   24.0268 C   0  0  0  0  0  0  0  0  0  0  0  0
  -28.3564  -16.5836   20.2467 C   0  0  0  0  0  0  0  0  0  0  0  0
  -23.7937  -10.4521   21.0135 C   0  0  0  0  0  0  0  0  0  0  0  0
  -24.1889  -12.9718   21.0631 C   0  0  0  0  0  0  0  0  0  0  0  0
  -31.5917  -30.6727   15.6323 C   0  0  0  0  0  0  0  0  0  0  0  0
  -26.2631  -25.7151   16.5862 C   0  0  0  0  0  0  0  0  0  0  0  0
  -31.0738  -29.3769   15.8195 C   0  0  0  0  0  0  0  0  0  0  0  0
  -26.0412  -25.3665   17.9261 C   0  0  0  0  0  0  0  0  0  0  0  0
  -22.2748   -8.1457   21.4083 C   0  0  0  0  0  0  0  0  0  0  0  0
  -26.0836  -23.0155   17.3086 C   0  0  0  0  0  0  0  0  0  0  0  0
  -22.1496   -5.9412   22.2125 C   0  0  0  0  0  0  0  0  0  0  0  0
  -23.3916   -3.7657   23.4402 C   0  0  0  0  0  0  0  0  0  0  0  0
  -21.6481   -5.4380   23.4129 C   0  0  0  0  0  0  0  0  0  0  0  0
  -24.5788  -11.6430   20.8100 C   0  0  0  0  0  0  0  0  0  0  0  0
  -28.8694  -16.7974   21.5070 C   0  0  0  0  0  0  0  0  0  0  0  0
  -28.8169  -19.0550   21.1454 C   0  0  0  0  0  0  0  0  0  0  0  0
  -28.3045  -18.8410   19.8848 C   0  0  0  0  0  0  0  0  0  0  0  0
  -25.2820  -13.7239   20.7082 C   0  0  0  0  0  0  0  0  0  0  0  0
  -22.9495  -13.4808   21.5734 C   0  0  0  0  0  0  0  0  0  0  0  0
  -28.1796  -28.0099   17.6654 C   0  0  0  0  0  0  0  0  0  0  0  0
  -25.5441  -28.8844   19.3423 C   0  0  0  0  0  0  0  0  0  0  0  0
  -30.8144  -14.5418   20.8223 C   0  0  0  0  0  0  0  0  0  0  0  0
  -22.5563  -27.9811   20.7219 C   0  0  0  0  0  0  0  0  0  0  0  0
  -31.5867  -31.6966   16.7397 C   0  0  0  0  0  0  0  0  0  0  0  0
  -26.3309  -27.1607   16.1763 C   0  0  0  0  0  0  0  0  0  0  0  0
  -25.8960  -26.4092   19.0032 C   0  0  0  0  0  0  0  0  0  0  0  0
  -30.6145  -31.3672   17.8695 C   0  0  0  0  0  0  0  0  0  0  0  0
  -29.4930  -12.4592   18.2229 C   0  0  0  0  0  0  0  0  0  0  0  0
  -30.7508  -29.9049   18.2817 C   0  0  0  0  0  0  0  0  0  0  0  0
  -28.0754  -12.1458   18.6998 C   0  0  0  0  0  0  0  0  0  0  0  0
  -30.4674  -12.5542   19.3928 C   0  0  0  0  0  0  0  0  0  0  0  0
  -28.6421  -13.2219   20.9238 C   0  0  0  0  0  0  0  0  0  0  0  0
  -30.4088  -28.9689   17.1162 C   0  0  1  0  0  0  0  0  0  0  0  0
  -26.7187  -28.0893   17.3230 C   0  0  1  0  0  0  0  0  0  0  0  0
  -27.6200  -13.1476   19.7757 C   0  0  2  0  0  0  0  0  0  0  0  0
  -29.0765  -20.4313   21.6555 C   0  0  0  0  0  0  0  0  0  0  0  0
  -28.8469  -15.9568   23.8875 C   0  0  0  0  0  0  0  0  0  0  0  0
  -20.6464  -28.9040   22.0628 C   0  0  0  0  0  0  0  0  0  0  0  0
  -30.9027  -13.8393   23.1739 C   0  0  0  0  0  0  0  0  0  0  0  0
  -31.7166  -16.0931   22.4489 C   0  0  0  0  0  0  0  0  0  0  0  0
  -27.2656  -28.7832   21.8595 C   0  0  0  0  0  0  0  0  0  0  0  0
  -25.1604  -28.7679   23.2145 C   0  0  0  0  0  0  0  0  0  0  0  0
  -25.6865  -30.7196   21.7527 C   0  0  0  0  0  0  0  0  0  0  0  0
  -20.6129  -27.4081   18.5646 C   0  0  0  0  0  0  0  0  0  0  0  0
  -27.9823  -19.9890   18.9617 C   0  0  0  0  0  0  0  0  0  0  0  0
  -27.1286  -19.5892   17.7564 C   0  0  0  0  0  0  0  0  0  0  0  0
  -26.7365  -20.7700   16.8759 C   0  0  0  0  0  0  0  0  0  1  0  0
  -29.1807  -15.6484   22.4008 C   0  0  2  0  0  0  0  0  0  0  0  0
  -24.9741  -28.5360   20.6961 C   0  0  1  0  0  0  0  0  0  0  0  0
  -21.1846  -28.6291   20.6673 C   0  0  2  0  0  0  0  0  0  0  0  0
  -30.6278  -15.0255   22.2384 C   0  0  0  0  0  0  0  0  0  0  0  0
  -25.7763  -29.1818   21.8609 C   0  0  0  0  0  0  0  0  0  0  0  0
  -28.0647  -17.6016   19.4129 N   0  0  0  0  0  0  0  0  0  0  0  0
  -25.8224  -11.5529   20.3312 N   0  0  0  0  0  0  0  0  0  0  0  0
  -29.1089  -18.0370   21.9791 N   0  0  0  0  0  0  0  0  0  0  0  0
  -26.2234  -12.8345   20.2805 N   0  0  0  0  0  0  0  0  0  0  0  0
  -25.9759  -27.8088   18.5534 N   0  0  0  0  0  0  0  0  0  0  0  0
  -29.9881  -13.4989   20.4033 N   0  0  0  0  0  0  0  0  0  0  0  0
  -25.5201  -15.0526   20.7233 N   0  0  0  0  0  0  0  0  0  0  0  0
  -21.9317  -12.5698   21.8872 N   0  0  0  0  0  0  0  0  0  0  0  0
  -28.9747  -28.8797   16.9437 N   0  0  0  0  0  0  0  0  0  0  0  0
  -23.5664  -28.9173   20.6566 N   0  0  0  0  0  0  0  0  0  0  0  0
  -20.2202  -27.7414   19.9581 N   0  3  0  0  0  0  0  0  0  0  0  0
  -22.7445  -14.7084   21.7304 O   0  0  0  0  0  0  0  0  0  0  0  0
  -28.5573  -27.2192   18.5220 O   0  0  0  0  0  0  0  0  0  0  0  0
  -25.5976  -30.0667   18.9947 O   0  0  0  0  0  0  0  0  0  0  0  0
  -31.6677  -15.0780   20.1105 O   0  0  0  0  0  0  0  0  0  0  0  0
  -22.7157  -26.7661   20.8172 O   0  0  0  0  0  0  0  0  0  0  0  0
  -21.5337   -7.0205   21.6014 O   0  0  0  0  0  0  0  0  0  0  0  0
  -26.0003  -21.7046   17.6639 O   0  0  0  0  0  0  0  0  0  1  0  0
  -23.9871   -2.7202   24.0287 F   0  0  0  0  0  0  0  0  0  0  0  0
  -20.5695   -5.9947   23.9806 F   0  0  0  0  0  0  0  0  0  0  0  0
  1  2  1  0  0  0  0
  1  5  2  0  0  0  0
  2  6  2  0  0  0  0
  3  8  2  0  0  0  0
  3 16  1  0  0  0  0
  4  9  1  0  0  0  0
  4 16  2  0  0  0  0
  5 18  1  0  0  0  0
  6 20  1  0  0  0  0
  7 10  2  0  0  0  0
  7 19  1  0  0  0  0
  8 22  1  0  0  0  0
  9 22  2  0  0  0  0
 10 23  1  0  0  0  0
 11 12  2  0  0  0  0
 11 24  1  0  0  0  0
 12 25  1  0  0  0  0
 13 21  1  0  0  0  0
 13 23  2  0  0  0  0
 14 25  2  0  0  0  0
 14 26  1  0  0  0  0
 15 28  1  0  0  0  0
 15 66  2  0  0  0  0
 16 27  1  0  0  0  0
 17 27  1  0  0  0  0
 17 31  2  0  0  0  0
 17 32  1  0  0  0  0
 18 20  2  0  0  0  0
 18 37  1  0  0  0  0
 19 21  2  0  0  0  0
 19 38  1  0  0  0  0
 20 46  1  0  0  0  0
 21 39  1  0  0  0  0
 22 82  1  0  0  0  0
 23 83  1  0  0  0  0
 24 26  2  0  0  0  0
 24 82  1  0  0  0  0
 25 84  1  0  0  0  0
 26 85  1  0  0  0  0
 27 67  2  0  0  0  0
 28 61  1  0  0  0  0
 28 68  2  0  0  0  0
 29 30  2  0  0  0  0
 29 49  1  0  0  0  0
 29 68  1  0  0  0  0
 30 58  1  0  0  0  0
 30 66  1  0  0  0  0
 31 69  1  0  0  0  0
 31 72  1  0  0  0  0
 32 73  1  0  0  0  0
 32 77  2  0  0  0  0
 33 47  1  0  0  0  0
 33 74  1  0  0  0  0
 33 78  2  0  0  0  0
 34 62  1  0  0  0  0
 34 70  1  0  0  0  0
 34 79  2  0  0  0  0
 35 64  1  0  0  0  0
 35 71  1  0  0  0  0
 35 80  2  0  0  0  0
 36 63  1  0  0  0  0
 36 75  1  0  0  0  0
 36 81  2  0  0  0  0
 37 40  1  0  0  0  0
 38 47  1  0  0  0  0
 39 70  1  0  0  0  0
 40 42  1  0  0  0  0
 41 43  1  0  0  0  0
 41 44  1  0  0  0  0
 42 46  1  0  0  0  0
 43 48  1  0  0  0  0
 44 71  1  0  0  0  0
 45 48  1  0  0  0  0
 45 71  1  0  0  0  0
 46 74  1  0  0  0  0
 47 70  1  0  0  0  0
 48 69  1  0  0  0  0
 50 61  1  0  0  0  0
 51 63  1  0  0  0  0
 52 64  1  0  0  0  0
 53 64  1  0  0  0  0
 54 65  1  0  0  0  0
 55 65  1  0  0  0  0
 56 65  1  0  0  0  0
 57 76  1  0  0  0  0
 58 59  1  0  0  0  0
 59 60  1  0  0  0  0
 60 83  1  0  0  0  0
 61 64  1  0  0  0  0
 62 65  1  0  0  0  0
 62 75  1  0  0  0  0
 63 76  1  0  0  0  0
 67 69  1  0  0  0  0
M  CHG  1  76   1
M  ISO  4  35 100  60 101  64 100  83 101
M  END
> <Batch ID>
0074

> <Smiles>
CNC(C)C(=O)NC(C(=O)N1Cc2cc([101O:1][101CH2:1]CCc3ncc(C(C)[100C:0](C)(C)[100C:0](=O)N4CCCC(n5nc(-c6ccc(Oc7ccc(F)cc7F)cc6)c(C(N)=O)c5N)C4)nc3C)ccc2CC1C(=O)NC1CCCc2ccccc21)C(C)(C)C

> <Shape>
0.285

> <Color>
0.183

> <Negative vol penalty>
0.000

$$$$

  -OEChem-04052318293D

 88 96  0     1  0  0  0  0  0999 V2000
  -23.4700  -29.5695   25.7237 C   0  0  0  0  0  0  0  0  0  0  0  0
  -23.8742  -28.9765   24.5320 C   0  0  0  0  0  0  0  0  0  0  0  0
  -23.0765   -9.8331   19.9149 C   0  0  0  0  0  0  0  0  0  0  0  0
  -23.8669   -9.7840   22.1974 C   0  0  0  0  0  0  0  0  0  0  0  0
  -24.3795  -29.7201   26.7697 C   0  0  0  0  0  0  0  0  0  0  0  0
  -25.1886  -28.5346   24.3851 C   0  0  0  0  0  0  0  0  0  0  0  0
  -27.0963  -23.6346   21.2457 C   0  0  0  0  0  0  0  0  0  0  0  0
  -22.3568   -8.6594   20.1389 C   0  0  0  0  0  0  0  0  0  0  0  0
  -23.1471   -8.6103   22.4214 C   0  0  0  0  0  0  0  0  0  0  0  0
  -27.6339  -23.4906   19.9674 C   0  0  0  0  0  0  0  0  0  0  0  0
  -19.9422   -7.7356   23.0407 C   0  0  0  0  0  0  0  0  0  0  0  0
  -19.2019   -7.6462   24.2195 C   0  0  0  0  0  0  0  0  0  0  0  0
  -29.8565  -23.5292   20.9043 C   0  0  0  0  0  0  0  0  0  0  0  0
  -20.4875   -5.7102   24.8800 C   0  0  0  0  0  0  0  0  0  0  0  0
  -31.9238  -20.7161   17.5242 C   0  0  0  0  0  0  0  0  0  0  0  0
  -23.8316  -10.3954   20.9442 C   0  0  0  0  0  0  0  0  0  0  0  0
  -24.1265  -12.9288   20.8975 C   0  0  0  0  0  0  0  0  0  0  0  0
  -25.7031  -29.2711   26.6391 C   0  0  0  0  0  0  0  0  0  0  0  0
  -27.9365  -23.7381   22.3636 C   0  0  0  0  0  0  0  0  0  0  0  0
  -26.1170  -28.6806   25.4298 C   0  0  0  0  0  0  0  0  0  0  0  0
  -29.3270  -23.6719   22.1959 C   0  0  0  0  0  0  0  0  0  0  0  0
  -22.3921   -8.0481   21.3921 C   0  0  0  0  0  0  0  0  0  0  0  0
  -29.0142  -23.4408   19.7962 C   0  0  0  0  0  0  0  0  0  0  0  0
  -20.9551   -6.8123   22.7815 C   0  0  0  0  0  0  0  0  0  0  0  0
  -19.4745   -6.6335   25.1391 C   0  0  0  0  0  0  0  0  0  0  0  0
  -21.2278   -5.7996   23.7011 C   0  0  0  0  0  0  0  0  0  0  0  0
  -24.5757  -11.6074   20.7133 C   0  0  0  0  0  0  0  0  0  0  0  0
  -30.5664  -20.8084   17.3982 C   0  0  0  0  0  0  0  0  0  0  0  0
  -25.2001  -13.7089   20.5434 C   0  0  0  0  0  0  0  0  0  0  0  0
  -31.0151  -19.0832   18.7109 C   0  0  0  0  0  0  0  0  0  0  0  0
  -22.8528  -13.4083   21.3484 C   0  0  0  0  0  0  0  0  0  0  0  0
  -28.4675  -25.9616   24.5722 C   0  0  0  0  0  0  0  0  0  0  0  0
  -30.3333  -23.6561   25.8858 C   0  0  0  0  0  0  0  0  0  0  0  0
  -32.1774  -20.8190   25.4416 C   0  0  0  0  0  0  0  0  0  0  0  0
  -30.6668  -14.8218   20.6922 C   0  0  0  0  0  0  0  0  0  0  0  0
  -26.6627  -29.4985   27.7802 C   0  0  0  0  0  0  0  0  0  0  0  0
  -27.3403  -23.8663   23.7386 C   0  0  0  0  0  0  0  0  0  0  0  0
  -30.2718  -23.7582   23.3657 C   0  0  0  0  0  0  0  0  0  0  0  0
  -27.9373  -28.6644   27.6795 C   0  0  0  0  0  0  0  0  0  0  0  0
  -29.5401  -12.4908   18.2482 C   0  0  0  0  0  0  0  0  0  0  0  0
  -28.5126  -28.7369   26.2687 C   0  0  0  0  0  0  0  0  0  0  0  0
  -28.1140  -12.1578   18.6904 C   0  0  0  0  0  0  0  0  0  0  0  0
  -30.4692  -12.6916   19.4434 C   0  0  0  0  0  0  0  0  0  0  0  0
  -28.5735  -13.3452   20.8762 C   0  0  0  0  0  0  0  0  0  0  0  0
  -27.5277  -28.1662   25.2412 C   0  0  1  0  0  0  0  0  0  0  0  0
  -28.3019  -24.4791   24.7521 C   0  0  1  0  0  0  0  0  0  0  0  0
  -27.5868  -13.1888   19.7064 C   0  0  2  0  0  0  0  0  0  0  0  0
  -33.5582  -18.8182   26.0639 C   0  0  0  0  0  0  0  0  0  0  0  0
  -34.2336  -20.2351   19.5676 C   0  0  0  0  0  0  0  0  0  0  0  0
  -34.3206  -18.7170   17.5443 C   0  0  0  0  0  0  0  0  0  0  0  0
  -28.7866  -21.1242   15.5512 C   0  0  0  0  0  0  0  0  0  0  0  0
  -30.5871  -22.8071   15.8737 C   0  0  0  0  0  0  0  0  0  0  0  0
  -32.6093  -25.6881   25.9117 C   0  0  0  0  0  0  0  0  0  0  0  0
  -34.2061  -23.7910   26.2571 C   0  0  0  0  0  0  0  0  0  0  0  0
  -32.4532  -24.2704   27.9660 C   0  0  0  0  0  0  0  0  0  0  0  0
  -31.1614  -19.3720   21.6603 C   0  0  0  0  0  0  0  0  0  0  0  0
  -28.9036  -18.4717   21.1262 C   0  0  0  0  0  0  0  0  0  0  0  0
  -29.7748  -19.1305   25.8096 C   0  0  0  0  0  0  0  0  0  0  0  0
  -30.8342  -17.9013   19.5902 C   0  0  0  0  0  0  0  0  0  0  0  0
  -30.7108  -16.9345   21.9937 C   0  0  0  0  0  0  0  0  0  0  0  0
  -28.7644  -22.5824   17.5924 C   0  0  0  0  0  0  0  0  0  1  0  0
  -31.7807  -23.2480   25.7537 C   0  0  1  0  0  0  0  0  0  0  0  0
  -32.2113  -19.5093   26.2083 C   0  0  2  0  0  0  0  0  0  0  0  0
  -33.4899  -19.1843   18.7410 C   0  0  0  0  0  0  0  0  0  0  0  0
  -29.6818  -21.7990   16.6183 C   0  0  0  0  0  0  0  0  0  0  0  0
  -32.7449  -24.2497   26.4496 C   0  0  0  0  0  0  0  0  0  0  0  0
  -30.4156  -18.1510   21.0841 C   0  0  0  0  0  0  0  0  0  0  0  0
  -25.8363  -11.5475   20.2760 N   0  0  0  0  0  0  0  0  0  0  0  0
  -32.1731  -19.6405   18.3421 N   0  0  0  0  0  0  0  0  0  0  0  0
  -26.1885  -12.8411   20.1823 N   0  0  0  0  0  0  0  0  0  0  0  0
  -30.0297  -19.7856   18.1425 N   0  3  0  0  0  0  0  0  0  0  0  0
  -29.6406  -23.8892   24.6893 N   0  0  0  0  0  0  0  0  0  0  0  0
  -29.9122  -13.6824   20.3676 N   0  0  0  0  0  0  0  0  0  0  0  0
  -25.3857  -15.0456   20.5086 N   0  0  0  0  0  0  0  0  0  0  0  0
  -21.8619  -12.4709   21.6706 N   0  0  0  0  0  0  0  0  0  0  0  0
  -27.5476  -26.7194   25.2715 N   0  0  0  0  0  0  0  0  0  0  0  0
  -31.8681  -21.8833   26.2619 N   0  0  0  0  0  0  0  0  0  0  0  0
  -30.0625  -15.7134   21.5701 N   0  0  0  0  0  0  0  0  0  0  0  0
  -31.1537  -18.5874   25.7058 N   0  3  0  0  0  0  0  0  0  0  0  0
  -22.5954  -14.6321   21.4466 O   0  0  0  0  0  0  0  0  0  0  0  0
  -29.3644  -26.3866   23.8535 O   0  0  0  0  0  0  0  0  0  0  0  0
  -29.8337  -23.7572   27.0091 O   0  0  0  0  0  0  0  0  0  0  0  0
  -32.4063  -20.8914   24.2362 O   0  0  0  0  0  0  0  0  0  0  0  0
  -31.7932  -15.0318   20.2296 O   0  0  0  0  0  0  0  0  0  0  0  0
  -21.6897   -6.9029   21.6111 O   0  0  0  0  0  0  0  0  0  0  0  0
  -29.5416  -23.3009   18.5495 O   0  0  0  0  0  0  0  0  0  1  0  0
  -18.7646   -6.5486   26.2718 F   0  0  0  0  0  0  0  0  0  0  0  0
  -22.2005   -4.9104   23.4582 F   0  0  0  0  0  0  0  0  0  0  0  0
  1  2  1  0  0  0  0
  1  5  2  0  0  0  0
  2  6  2  0  0  0  0
  3  8  2  0  0  0  0
  3 16  1  0  0  0  0
  4  9  1  0  0  0  0
  4 16  2  0  0  0  0
  5 18  1  0  0  0  0
  6 20  1  0  0  0  0
  7 10  2  0  0  0  0
  7 19  1  0  0  0  0
  8 22  1  0  0  0  0
  9 22  2  0  0  0  0
 10 23  1  0  0  0  0
 11 12  2  0  0  0  0
 11 24  1  0  0  0  0
 12 25  1  0  0  0  0
 13 21  1  0  0  0  0
 13 23  2  0  0  0  0
 14 25  2  0  0  0  0
 14 26  1  0  0  0  0
 15 28  2  0  0  0  0
 15 69  1  0  0  0  0
 16 27  1  0  0  0  0
 17 27  1  0  0  0  0
 17 29  2  0  0  0  0
 17 31  1  0  0  0  0
 18 20  2  0  0  0  0
 18 36  1  0  0  0  0
 19 21  2  0  0  0  0
 19 37  1  0  0  0  0
 20 45  1  0  0  0  0
 21 38  1  0  0  0  0
 22 85  1  0  0  0  0
 23 86  1  0  0  0  0
 24 26  2  0  0  0  0
 24 85  1  0  0  0  0
 25 87  1  0  0  0  0
 26 88  1  0  0  0  0
 27 68  2  0  0  0  0
 28 65  1  0  0  0  0
 28 71  1  0  0  0  0
 29 70  1  0  0  0  0
 29 74  1  0  0  0  0
 30 59  1  0  0  0  0
 30 69  1  0  0  0  0
 30 71  2  0  0  0  0
 31 75  1  0  0  0  0
 31 80  2  0  0  0  0
 32 46  1  0  0  0  0
 32 76  1  0  0  0  0
 32 81  2  0  0  0  0
 33 62  1  0  0  0  0
 33 72  1  0  0  0  0
 33 82  2  0  0  0  0
 34 63  1  0  0  0  0
 34 77  1  0  0  0  0
 34 83  2  0  0  0  0
 35 73  1  0  0  0  0
 35 78  1  0  0  0  0
 35 84  2  0  0  0  0
 36 39  1  0  0  0  0
 37 46  1  0  0  0  0
 38 72  1  0  0  0  0
 39 41  1  0  0  0  0
 40 42  1  0  0  0  0
 40 43  1  0  0  0  0
 41 45  1  0  0  0  0
 42 47  1  0  0  0  0
 43 73  1  0  0  0  0
 44 47  1  0  0  0  0
 44 73  1  0  0  0  0
 45 76  1  0  0  0  0
 46 72  1  0  0  0  0
 47 70  1  0  0  0  0
 48 63  1  0  0  0  0
 49 64  1  0  0  0  0
 50 64  1  0  0  0  0
 51 65  1  0  0  0  0
 52 65  1  0  0  0  0
 53 66  1  0  0  0  0
 54 66  1  0  0  0  0
 55 66  1  0  0  0  0
 56 67  1  0  0  0  0
 57 67  1  0  0  0  0
 58 79  1  0  0  0  0
 59 67  1  0  0  0  0
 60 67  1  0  0  0  0
 60 78  1  0  0  0  0
 61 65  1  0  0  0  0
 61 86  1  0  0  0  0
 62 66  1  0  0  0  0
 62 77  1  0  0  0  0
 63 79  1  0  0  0  0
 64 69  1  0  0  0  0
 68 70  1  0  0  0  0
M  CHG  2  71   1  79   1
M  ISO  4  35 100  61 101  78 100  86 101
M  END
> <Batch ID>
0074

> <Smiles>
CNC(C)C(=O)NC(C(=O)N1Cc2cc([101O:1][101CH2:1]C(C)(C)c3cn(C(C)C)c(CC(C)(C)C[100NH:0][100C:0](=O)N4CCCC(n5nc(-c6ccc(Oc7ccc(F)cc7F)cc6)c(C(N)=O)c5N)C4)n3)ccc2CC1C(=O)NC1CCCc2ccccc21)C(C)(C)C

> <Shape>
0.230

> <Color>
0.192

> <Negative vol penalty>
0.000

$$$$

  -OEChem-04052318293D

 86 94  0     1  0  0  0  0  0999 V2000
  -30.2827  -11.0503   19.0959 C   0  0  0  0  0  0  0  0  0  0  0  0
  -30.1820  -12.4283   18.9337 C   0  0  0  0  0  0  0  0  0  0  0  0
  -23.9032  -29.2834   22.0229 C   0  0  0  0  0  0  0  0  0  0  0  0
  -24.5457  -29.6542   19.7236 C   0  0  0  0  0  0  0  0  0  0  0  0
  -29.1679  -10.3128   19.4922 C   0  0  0  0  0  0  0  0  0  0  0  0
  -28.9659  -13.0696   19.1668 C   0  0  0  0  0  0  0  0  0  0  0  0
  -29.4959  -17.3137   21.8782 C   0  0  0  0  0  0  0  0  0  0  0  0
  -24.5942  -30.4344   22.4016 C   0  0  0  0  0  0  0  0  0  0  0  0
  -25.2367  -30.8052   20.1023 C   0  0  0  0  0  0  0  0  0  0  0  0
  -29.9555  -18.4454   21.2061 C   0  0  0  0  0  0  0  0  0  0  0  0
  -27.8001  -31.3393   22.9740 C   0  0  0  0  0  0  0  0  0  0  0  0
  -28.6117  -31.2641   24.1059 C   0  0  0  0  0  0  0  0  0  0  0  0
  -27.6923  -19.2659   21.0523 C   0  0  0  0  0  0  0  0  0  0  0  0
  -27.3041  -33.0014   25.1590 C   0  0  0  0  0  0  0  0  0  0  0  0
  -31.8027  -22.9453   18.8954 C   0  0  0  0  0  0  0  0  0  0  0  0
  -23.8790  -28.8933   20.6839 C   0  0  0  0  0  0  0  0  0  0  0  0
  -21.8168  -27.6123   19.9002 C   0  0  0  0  0  0  0  0  0  0  0  0
  -27.9400  -10.9466   19.7396 C   0  0  0  0  0  0  0  0  0  0  0  0
  -28.1274  -17.1441   22.1332 C   0  0  0  0  0  0  0  0  0  0  0  0
  -27.8332  -12.3397   19.5656 C   0  0  0  0  0  0  0  0  0  0  0  0
  -27.2181  -18.1324   21.7300 C   0  0  0  0  0  0  0  0  0  0  0  0
  -25.2609  -31.1953   21.4413 C   0  0  0  0  0  0  0  0  0  0  0  0
  -29.0534  -19.4203   20.7904 C   0  0  0  0  0  0  0  0  0  0  0  0
  -26.7405  -32.2456   22.9346 C   0  0  0  0  0  0  0  0  0  0  0  0
  -28.3637  -32.0951   25.1984 C   0  0  0  0  0  0  0  0  0  0  0  0
  -26.4925  -33.0766   24.0271 C   0  0  0  0  0  0  0  0  0  0  0  0
  -23.1658  -27.7042   20.2921 C   0  0  0  0  0  0  0  0  0  0  0  0
  -32.3813  -23.0453   17.6466 C   0  0  0  0  0  0  0  0  0  0  0  0
  -30.4259  -23.0342   18.9243 C   0  0  0  0  0  0  0  0  0  0  0  0
  -21.6275  -26.2787   19.6313 C   0  0  0  0  0  0  0  0  0  0  0  0
  -30.3447  -23.2901   16.6671 C   0  0  0  0  0  0  0  0  0  0  0  0
  -20.8237  -28.6404   19.7890 C   0  0  0  0  0  0  0  0  0  0  0  0
  -25.9357  -15.0044   21.2837 C   0  0  0  0  0  0  0  0  0  0  0  0
  -24.0667  -16.6798   23.3385 C   0  0  0  0  0  0  0  0  0  0  0  0
  -23.4468  -19.6254   24.9465 C   0  0  0  0  0  0  0  0  0  0  0  0
  -25.3506  -21.8759   18.0176 C   0  0  0  0  0  0  0  0  0  0  0  0
  -26.7504  -10.1012   20.1205 C   0  0  0  0  0  0  0  0  0  0  0  0
  -27.6506  -15.9305   22.8829 C   0  0  0  0  0  0  0  0  0  0  0  0
  -25.7411  -18.0076   21.9973 C   0  0  0  0  0  0  0  0  0  0  0  0
  -25.5950  -10.9060   20.7101 C   0  0  0  0  0  0  0  0  0  0  0  0
  -23.2271  -21.9444   20.8746 C   0  0  0  0  0  0  0  0  0  0  0  0
  -25.3194  -12.1439   19.8625 C   0  0  0  0  0  0  0  0  0  0  0  0
  -22.8489  -23.4200   21.0139 C   0  0  0  0  0  0  0  0  0  0  0  0
  -24.6673  -21.7736   20.3965 C   0  0  0  0  0  0  0  0  0  0  0  0
  -24.6214  -23.9794   19.2982 C   0  0  0  0  0  0  0  0  0  0  0  0
  -26.5376  -13.0747   19.8329 C   0  0  1  0  0  0  0  0  0  0  0  0
  -26.1788  -15.6150   22.6349 C   0  0  1  0  0  0  0  0  0  0  0  0
  -23.1603  -24.2029   19.7242 C   0  0  2  0  0  0  0  0  0  0  0  0
  -33.8650  -22.9609   17.5149 C   0  0  0  0  0  0  0  0  0  0  0  0
  -28.9391  -24.2294   20.5652 C   0  0  0  0  0  0  0  0  0  0  0  0
  -21.8255  -20.7014   26.5312 C   0  0  0  0  0  0  0  0  0  0  0  0
  -22.0389  -16.9524   21.0750 C   0  0  0  0  0  0  0  0  0  0  0  0
  -20.9356  -18.7839   22.3775 C   0  0  0  0  0  0  0  0  0  0  0  0
  -21.0408  -16.4758   23.3180 C   0  0  0  0  0  0  0  0  0  0  0  0
  -30.2266  -23.5711   14.2039 C   0  0  0  0  0  0  0  0  0  0  0  0
  -25.5582  -20.1048   26.9642 C   0  0  0  0  0  0  0  0  0  0  0  0
  -27.5156  -22.1488   15.5084 C   0  0  0  0  0  0  0  0  0  0  0  0
  -25.9934  -22.1363   15.6347 C   0  0  0  0  0  0  0  0  0  0  0  0
  -28.1332  -23.5453   15.5697 C   0  0  0  0  0  0  0  0  0  0  0  0
  -28.7497  -21.7281   20.3026 C   0  0  0  0  0  0  0  0  0  1  0  0
  -29.6964  -22.9352   20.2548 C   0  0  1  0  0  0  0  0  0  0  0  0
  -23.1470  -17.8709   23.2185 C   0  0  1  0  0  0  0  0  0  0  0  0
  -23.1313  -19.9330   26.3992 C   0  0  2  0  0  0  0  0  0  0  0  0
  -21.8181  -17.5225   22.4903 C   0  0  0  0  0  0  0  0  0  0  0  0
  -23.7893  -26.5231   20.2753 N   0  0  0  0  0  0  0  0  0  0  0  0
  -31.6799  -23.2187   16.5072 N   0  0  0  0  0  0  0  0  0  0  0  0
  -29.6626  -23.2074   17.8253 N   0  0  0  0  0  0  0  0  0  0  0  0
  -22.8277  -25.6763   19.8697 N   0  0  0  0  0  0  0  0  0  0  0  0
  -25.3233  -16.7998   22.7282 N   0  0  0  0  0  0  0  0  0  0  0  0
  -24.8965  -22.5398   19.1691 N   0  0  0  0  0  0  0  0  0  0  0  0
  -20.5531  -25.5743   19.2168 N   0  0  0  0  0  0  0  0  0  0  0  0
  -21.1870  -29.9570   20.1036 N   0  0  0  0  0  0  0  0  0  0  0  0
  -26.6278  -13.8285   21.0650 N   0  0  0  0  0  0  0  0  0  0  0  0
  -22.9694  -18.3874   24.5713 N   0  0  0  0  0  0  0  0  0  0  0  0
  -25.5361  -22.6751   16.8962 N   0  0  0  0  0  0  0  0  0  0  0  0
  -29.5781  -23.4712   15.4954 N   0  0  3  0  0  0  0  0  0  0  0  0
  -24.2208  -20.7504   27.0041 N   0  3  0  0  0  0  0  0  0  0  0  0
  -19.6447  -28.3962   19.4373 O   0  0  0  0  0  0  0  0  0  0  0  0
  -25.1754  -15.5582   20.4983 O   0  0  0  0  0  0  0  0  0  0  0  0
  -23.6871  -15.6825   23.9573 O   0  0  0  0  0  0  0  0  0  0  0  0
  -24.0526  -20.4069   24.2166 O   0  0  0  0  0  0  0  0  0  0  0  0
  -25.5691  -20.6600   17.9894 O   0  0  0  0  0  0  0  0  0  0  0  0
  -25.9351  -32.3185   21.8104 O   0  0  0  0  0  0  0  0  0  0  0  0
  -29.4993  -20.5256   20.1336 O   0  0  0  0  0  0  0  0  0  1  0  0
  -29.1423  -32.0217   26.2859 F   0  0  0  0  0  0  0  0  0  0  0  0
  -25.4753  -33.9484   23.9955 F   0  0  0  0  0  0  0  0  0  0  0  0
  1  2  1  0  0  0  0
  1  5  2  0  0  0  0
  2  6  2  0  0  0  0
  3  8  2  0  0  0  0
  3 16  1  0  0  0  0
  4  9  1  0  0  0  0
  4 16  2  0  0  0  0
  5 18  1  0  0  0  0
  6 20  1  0  0  0  0
  7 10  2  0  0  0  0
  7 19  1  0  0  0  0
  8 22  1  0  0  0  0
  9 22  2  0  0  0  0
 10 23  1  0  0  0  0
 11 12  2  0  0  0  0
 11 24  1  0  0  0  0
 12 25  1  0  0  0  0
 13 21  1  0  0  0  0
 13 23  2  0  0  0  0
 14 25  2  0  0  0  0
 14 26  1  0  0  0  0
 15 28  2  0  0  0  0
 15 29  1  0  0  0  0
 16 27  1  0  0  0  0
 17 27  1  0  0  0  0
 17 30  2  0  0  0  0
 17 32  1  0  0  0  0
 18 20  2  0  0  0  0
 18 37  1  0  0  0  0
 19 21  2  0  0  0  0
 19 38  1  0  0  0  0
 20 46  1  0  0  0  0
 21 39  1  0  0  0  0
 22 83  1  0  0  0  0
 23 84  1  0  0  0  0
 24 26  2  0  0  0  0
 24 83  1  0  0  0  0
 25 85  1  0  0  0  0
 26 86  1  0  0  0  0
 27 65  2  0  0  0  0
 28 49  1  0  0  0  0
 28 66  1  0  0  0  0
 29 61  1  0  0  0  0
 29 67  2  0  0  0  0
 30 68  1  0  0  0  0
 30 71  1  0  0  0  0
 31 66  2  0  0  0  0
 31 67  1  0  0  0  0
 31 76  1  0  0  0  0
 32 72  1  0  0  0  0
 32 78  2  0  0  0  0
 33 47  1  0  0  0  0
 33 73  1  0  0  0  0
 33 79  2  0  0  0  0
 34 62  1  0  0  0  0
 34 69  1  0  0  0  0
 34 80  2  0  0  0  0
 35 63  1  0  0  0  0
 35 74  1  0  0  0  0
 35 81  2  0  0  0  0
 36 70  1  0  0  0  0
 36 75  1  0  0  0  0
 36 82  2  0  0  0  0
 37 40  1  0  0  0  0
 38 47  1  0  0  0  0
 39 69  1  0  0  0  0
 40 42  1  0  0  0  0
 41 43  1  0  0  0  0
 41 44  1  0  0  0  0
 42 46  1  0  0  0  0
 43 48  1  0  0  0  0
 44 70  1  0  0  0  0
 45 48  1  0  0  0  0
 45 70  1  0  0  0  0
 46 73  1  0  0  0  0
 47 69  1  0  0  0  0
 48 68  1  0  0  0  0
 50 61  1  0  0  0  0
 51 63  1  0  0  0  0
 52 64  1  0  0  0  0
 53 64  1  0  0  0  0
 54 64  1  0  0  0  0
 55 76  1  0  0  0  0
 56 77  1  0  0  0  0
 57 58  1  0  0  0  0
 57 59  1  0  0  0  0
 58 75  1  0  0  0  0
 59 76  1  0  0  0  0
 60 61  1  0  0  0  0
 60 84  1  0  0  0  0
 62 64  1  0  0  0  0
 62 74  1  0  0  0  0
 63 77  1  0  0  0  0
 65 68  1  0  0  0  0
M  CHG  1  77   1
M  ISO  4  36 100  60 101  75 100  84 101
M  END
> <Batch ID>
0074

> <Smiles>
CNC(C)C(=O)NC(C(=O)N1Cc2cc([101O:1][101CH2:1]C(C)c3cc(C)nc(N(C)CCC[100NH:0][100C:0](=O)N4CCCC(n5nc(-c6ccc(Oc7ccc(F)cc7F)cc6)c(C(N)=O)c5N)C4)n3)ccc2CC1C(=O)NC1CCCc2ccccc21)C(C)(C)C

> <Shape>
0.216

> <Color>
0.061

> <Negative vol penalty>
0.000

$$$$

  -OEChem-04052318293D

 86 94  0     1  0  0  0  0  0999 V2000
  -33.9072  -27.5390   17.1901 C   0  0  0  0  0  0  0  0  0  0  0  0
  -32.5228  -27.6484   17.2733 C   0  0  0  0  0  0  0  0  0  0  0  0
  -23.3403  -13.6999   19.4443 C   0  0  0  0  0  0  0  0  0  0  0  0
  -24.5921  -14.4631   21.3647 C   0  0  0  0  0  0  0  0  0  0  0  0
  -34.5162  -26.2921   17.3251 C   0  0  0  0  0  0  0  0  0  0  0  0
  -31.7465  -26.5105   17.4903 C   0  0  0  0  0  0  0  0  0  0  0  0
  -28.1455  -27.2511   20.9731 C   0  0  0  0  0  0  0  0  0  0  0  0
  -24.3761  -12.8250   19.1168 C   0  0  0  0  0  0  0  0  0  0  0  0
  -25.6279  -13.5881   21.0372 C   0  0  0  0  0  0  0  0  0  0  0  0
  -27.0044  -27.9443   20.5717 C   0  0  0  0  0  0  0  0  0  0  0  0
  -28.1975  -13.4798   18.8426 C   0  0  0  0  0  0  0  0  0  0  0  0
  -29.5018  -13.9714   18.8943 C   0  0  0  0  0  0  0  0  0  0  0  0
  -25.8255  -25.8532   20.3331 C   0  0  0  0  0  0  0  0  0  0  0  0
  -21.0319  -26.4167   22.4326 C   0  0  0  0  0  0  0  0  0  0  0  0
  -30.0628  -12.3086   20.5549 C   0  0  0  0  0  0  0  0  0  0  0  0
  -23.4484  -14.5190   20.5682 C   0  0  0  0  0  0  0  0  0  0  0  0
  -21.2714  -15.1584   21.7343 C   0  0  0  0  0  0  0  0  0  0  0  0
  -33.7476  -25.1398   17.5536 C   0  0  0  0  0  0  0  0  0  0  0  0
  -28.1385  -25.8508   21.0472 C   0  0  0  0  0  0  0  0  0  0  0  0
  -32.3457  -25.2468   17.6272 C   0  0  0  0  0  0  0  0  0  0  0  0
  -26.9670  -25.1448   20.7382 C   0  0  0  0  0  0  0  0  0  0  0  0
  -20.7724  -27.7422   22.1317 C   0  0  0  0  0  0  0  0  0  0  0  0
  -25.5199  -12.7690   19.9132 C   0  0  0  0  0  0  0  0  0  0  0  0
  -25.8450  -27.2452   20.2489 C   0  0  0  0  0  0  0  0  0  0  0  0
  -27.8258  -12.4027   19.6471 C   0  0  0  0  0  0  0  0  0  0  0  0
  -30.4345  -13.3858   19.7504 C   0  0  0  0  0  0  0  0  0  0  0  0
  -28.7584  -11.8170   20.5032 C   0  0  0  0  0  0  0  0  0  0  0  0
  -22.3790  -15.4234   20.9067 C   0  0  0  0  0  0  0  0  0  0  0  0
  -19.9576  -25.5936   22.7041 C   0  0  0  0  0  0  0  0  0  0  0  0
  -19.4557  -28.1568   22.1219 C   0  0  0  0  0  0  0  0  0  0  0  0
  -20.5557  -16.3307   21.7360 C   0  0  0  0  0  0  0  0  0  0  0  0
  -20.9209  -13.9597   22.4386 C   0  0  0  0  0  0  0  0  0  0  0  0
  -29.7380  -23.5196   19.5944 C   0  0  0  0  0  0  0  0  0  0  0  0
  -20.4539  -21.8109   22.2207 C   0  0  0  0  0  0  0  0  0  0  0  0
  -28.1538  -21.6419   21.7125 C   0  0  0  0  0  0  0  0  0  0  0  0
  -25.4546  -21.2217   23.7581 C   0  0  0  0  0  0  0  0  0  0  0  0
  -34.4474  -23.8070   17.6458 C   0  0  0  0  0  0  0  0  0  0  0  0
  -29.3695  -25.1194   21.5077 C   0  0  0  0  0  0  0  0  0  0  0  0
  -26.9014  -23.6424   20.8210 C   0  0  0  0  0  0  0  0  0  0  0  0
  -33.5804  -22.7042   18.2477 C   0  0  0  0  0  0  0  0  0  0  0  0
  -20.9982  -20.4741   18.8825 C   0  0  0  0  0  0  0  0  0  0  0  0
  -32.1916  -22.7127   17.6167 C   0  0  0  0  0  0  0  0  0  0  0  0
  -21.3458  -19.0180   19.1893 C   0  0  0  0  0  0  0  0  0  0  0  0
  -21.5368  -21.4176   19.9548 C   0  0  0  0  0  0  0  0  0  0  0  0
  -21.4410  -19.6156   21.6483 C   0  0  0  0  0  0  0  0  0  0  0  0
  -31.4712  -24.0393   17.8865 C   0  0  1  0  0  0  0  0  0  0  0  0
  -29.4051  -23.6638   21.0524 C   0  0  1  0  0  0  0  0  0  0  0  0
  -20.8893  -18.6284   20.6062 C   0  0  2  0  0  0  0  0  0  0  0  0
  -19.0998  -29.5705   21.8073 C   0  0  0  0  0  0  0  0  0  0  0  0
  -18.8446  -23.2729   21.0685 C   0  0  0  0  0  0  0  0  0  0  0  0
  -24.4151  -19.5676   25.3332 C   0  0  0  0  0  0  0  0  0  0  0  0
  -27.1962  -19.9846   19.3363 C   0  0  0  0  0  0  0  0  0  0  0  0
  -25.4555  -18.9787   20.8285 C   0  0  0  0  0  0  0  0  0  0  0  0
  -27.8749  -18.6454   21.3364 C   0  0  0  0  0  0  0  0  0  0  0  0
  -23.0614  -31.2643   20.4828 C   0  0  0  0  0  0  0  0  0  0  0  0
  -23.2963  -29.9655   18.3508 C   0  0  0  0  0  0  0  0  0  0  0  0
  -25.6523  -23.0954   26.0404 C   0  0  0  0  0  0  0  0  0  0  0  0
  -21.9112  -28.6852   21.8263 C   0  0  0  0  0  0  0  0  0  0  0  0
  -20.1829  -24.1579   23.0344 C   0  0  0  0  0  0  0  0  0  0  0  0
  -22.0350  -28.9421   20.3180 C   0  0  0  0  0  0  0  0  0  0  0  0
  -24.5446  -29.2317   20.3848 C   0  0  0  0  0  0  0  0  0  1  0  0
  -20.1823  -23.2332   21.7996 C   0  0  1  0  0  0  0  0  0  0  0  0
  -26.8301  -20.9160   21.7163 C   0  0  1  0  0  0  0  0  0  0  0  0
  -25.3459  -20.7629   25.2011 C   0  0  2  0  0  0  0  0  0  0  0  0
  -26.8407  -19.6594   20.8008 C   0  0  0  0  0  0  0  0  0  0  0  0
  -23.2180  -29.8542   19.8838 C   0  0  0  0  0  0  0  0  0  0  0  0
  -22.3718  -16.6664   20.4180 N   0  0  0  0  0  0  0  0  0  0  0  0
  -18.6791  -26.0264   22.6874 N   0  0  0  0  0  0  0  0  0  0  0  0
  -18.4241  -27.3290   22.3913 N   0  0  0  0  0  0  0  0  0  0  0  0
  -21.2509  -17.1929   20.9400 N   0  0  0  0  0  0  0  0  0  0  0  0
  -28.1329  -22.9722   21.2703 N   0  0  0  0  0  0  0  0  0  0  0  0
  -21.1024  -20.9965   21.2921 N   0  0  0  0  0  0  0  0  0  0  0  0
  -19.4059  -16.6977   22.3405 N   0  0  0  0  0  0  0  0  0  0  0  0
  -21.7671  -12.8480   22.3279 N   0  0  0  0  0  0  0  0  0  0  0  0
  -30.9552  -24.0684   19.2383 N   0  0  0  0  0  0  0  0  0  0  0  0
  -26.5231  -20.6342   23.1144 N   0  0  0  0  0  0  0  0  0  0  0  0
  -24.8208  -21.8644   26.0567 N   0  3  0  0  0  0  0  0  0  0  0  0
  -19.8793  -13.8717   23.1320 O   0  0  0  0  0  0  0  0  0  0  0  0
  -28.9497  -22.9511   18.8479 O   0  0  0  0  0  0  0  0  0  0  0  0
  -20.0970  -21.4361   23.3407 O   0  0  0  0  0  0  0  0  0  0  0  0
  -29.1678  -21.0525   22.0948 O   0  0  0  0  0  0  0  0  0  0  0  0
  -24.6678  -22.0185   23.2514 O   0  0  0  0  0  0  0  0  0  0  0  0
  -26.5307  -11.9152   19.5941 O   0  0  0  0  0  0  0  0  0  0  0  0
  -24.7300  -27.9193   19.8562 O   0  0  0  0  0  0  0  0  0  1  0  0
  -31.6874  -13.8570   19.7987 F   0  0  0  0  0  0  0  0  0  0  0  0
  -28.4075  -10.7812   21.2776 F   0  0  0  0  0  0  0  0  0  0  0  0
  1  2  1  0  0  0  0
  1  5  2  0  0  0  0
  2  6  2  0  0  0  0
  3  8  2  0  0  0  0
  3 16  1  0  0  0  0
  4  9  1  0  0  0  0
  4 16  2  0  0  0  0
  5 18  1  0  0  0  0
  6 20  1  0  0  0  0
  7 10  2  0  0  0  0
  7 19  1  0  0  0  0
  8 23  1  0  0  0  0
  9 23  2  0  0  0  0
 10 24  1  0  0  0  0
 11 12  2  0  0  0  0
 11 25  1  0  0  0  0
 12 26  1  0  0  0  0
 13 21  1  0  0  0  0
 13 24  2  0  0  0  0
 14 22  1  0  0  0  0
 14 29  2  0  0  0  0
 15 26  2  0  0  0  0
 15 27  1  0  0  0  0
 16 28  1  0  0  0  0
 17 28  1  0  0  0  0
 17 31  2  0  0  0  0
 17 32  1  0  0  0  0
 18 20  2  0  0  0  0
 18 37  1  0  0  0  0
 19 21  2  0  0  0  0
 19 38  1  0  0  0  0
 20 46  1  0  0  0  0
 21 39  1  0  0  0  0
 22 30  2  0  0  0  0
 22 58  1  0  0  0  0
 23 83  1  0  0  0  0
 24 84  1  0  0  0  0
 25 27  2  0  0  0  0
 25 83  1  0  0  0  0
 26 85  1  0  0  0  0
 27 86  1  0  0  0  0
 28 67  2  0  0  0  0
 29 59  1  0  0  0  0
 29 68  1  0  0  0  0
 30 49  1  0  0  0  0
 30 69  1  0  0  0  0
 31 70  1  0  0  0  0
 31 73  1  0  0  0  0
 32 74  1  0  0  0  0
 32 78  2  0  0  0  0
 33 47  1  0  0  0  0
 33 75  1  0  0  0  0
 33 79  2  0  0  0  0
 34 62  1  0  0  0  0
 34 72  1  0  0  0  0
 34 80  2  0  0  0  0
 35 63  1  0  0  0  0
 35 71  1  0  0  0  0
 35 81  2  0  0  0  0
 36 64  1  0  0  0  0
 36 76  1  0  0  0  0
 36 82  2  0  0  0  0
 37 40  1  0  0  0  0
 38 47  1  0  0  0  0
 39 71  1  0  0  0  0
 40 42  1  0  0  0  0
 41 43  1  0  0  0  0
 41 44  1  0  0  0  0
 42 46  1  0  0  0  0
 43 48  1  0  0  0  0
 44 72  1  0  0  0  0
 45 48  1  0  0  0  0
 45 72  1  0  0  0  0
 46 75  1  0  0  0  0
 47 71  1  0  0  0  0
 48 70  1  0  0  0  0
 50 62  1  0  0  0  0
 51 64  1  0  0  0  0
 52 65  1  0  0  0  0
 53 65  1  0  0  0  0
 54 65  1  0  0  0  0
 55 66  1  0  0  0  0
 56 66  1  0  0  0  0
 57 77  1  0  0  0  0
 58 60  1  0  0  0  0
 59 62  1  0  0  0  0
 60 66  1  0  0  0  0
 61 66  1  0  0  0  0
 61 84  1  0  0  0  0
 63 65  1  0  0  0  0
 63 76  1  0  0  0  0
 64 77  1  0  0  0  0
 67 70  1  0  0  0  0
 68 69  2  0  0  0  0
M  CHG  1  77   1
M  ISO  4  34 100  61 101  62 100  84 101
M  END
> <Batch ID>
0074

> <Smiles>
CNC(C)C(=O)NC(C(=O)N1Cc2cc([101O:1][101CH2:1]C(C)(C)CCc3cc(C[100CH:0](C)[100C:0](=O)N4CCCC(n5nc(-c6ccc(Oc7ccc(F)cc7F)cc6)c(C(N)=O)c5N)C4)nnc3C)ccc2CC1C(=O)NC1CCCc2ccccc21)C(C)(C)C

> <Shape>
0.228

> <Color>
0.069

> <Negative vol penalty>
0.000

$$$$

  -OEChem-04052318293D

 82 90  0     1  0  0  0  0  0999 V2000
  -17.8732  -28.0858   23.0526 C   0  0  0  0  0  0  0  0  0  0  0  0
  -19.1840  -28.5424   23.1460 C   0  0  0  0  0  0  0  0  0  0  0  0
  -27.3299  -17.6566   19.9257 C   0  0  0  0  0  0  0  0  0  0  0  0
  -29.2764  -17.2682   21.3031 C   0  0  0  0  0  0  0  0  0  0  0  0
  -17.6164  -26.7991   22.5811 C   0  0  0  0  0  0  0  0  0  0  0  0
  -20.2389  -27.7121   22.7688 C   0  0  0  0  0  0  0  0  0  0  0  0
  -25.4957  -29.4091   20.1245 C   0  0  0  0  0  0  0  0  0  0  0  0
  -27.1165  -16.2809   19.8393 C   0  0  0  0  0  0  0  0  0  0  0  0
  -29.0630  -15.8925   21.2168 C   0  0  0  0  0  0  0  0  0  0  0  0
  -26.7710  -29.6427   20.6372 C   0  0  0  0  0  0  0  0  0  0  0  0
  -25.8132  -13.8359   21.7774 C   0  0  0  0  0  0  0  0  0  0  0  0
  -24.5110  -13.3694   21.9569 C   0  0  0  0  0  0  0  0  0  0  0  0
  -27.4127  -27.3928   20.0497 C   0  0  0  0  0  0  0  0  0  0  0  0
  -24.5459  -12.4175   19.7366 C   0  0  0  0  0  0  0  0  0  0  0  0
  -32.6291  -25.4741   24.0083 C   0  0  0  0  0  0  0  0  0  0  0  0
  -28.4099  -18.1503   20.6575 C   0  0  0  0  0  0  0  0  0  0  0  0
  -28.1196  -20.4520   21.7183 C   0  0  0  0  0  0  0  0  0  0  0  0
  -18.6682  -25.9560   22.1889 C   0  0  0  0  0  0  0  0  0  0  0  0
  -25.1655  -28.1599   19.5795 C   0  0  0  0  0  0  0  0  0  0  0  0
  -19.9960  -26.4124   22.2929 C   0  0  0  0  0  0  0  0  0  0  0  0
  -26.1334  -27.1467   19.5284 C   0  0  0  0  0  0  0  0  0  0  0  0
  -27.9830  -15.3988   20.4849 C   0  0  0  0  0  0  0  0  0  0  0  0
  -27.7288  -28.6335   20.6025 C   0  0  0  0  0  0  0  0  0  0  0  0
  -26.4818  -13.5933   20.5774 C   0  0  0  0  0  0  0  0  0  0  0  0
  -23.8774  -12.6602   20.9366 C   0  0  0  0  0  0  0  0  0  0  0  0
  -25.8481  -12.8840   19.5571 C   0  0  0  0  0  0  0  0  0  0  0  0
  -28.6312  -19.5713   20.7466 C   0  0  0  0  0  0  0  0  0  0  0  0
  -32.8437  -26.4515   23.0779 C   0  0  0  0  0  0  0  0  0  0  0  0
  -28.6174  -21.6819   21.3632 C   0  0  0  0  0  0  0  0  0  0  0  0
  -32.3501  -27.4339   24.9993 C   0  0  0  0  0  0  0  0  0  0  0  0
  -27.2703  -20.1825   22.8417 C   0  0  0  0  0  0  0  0  0  0  0  0
  -23.0553  -25.8907   20.2876 C   0  0  0  0  0  0  0  0  0  0  0  0
  -24.1365  -24.5687   17.5297 C   0  0  0  0  0  0  0  0  0  0  0  0
  -26.6507  -24.2963   15.2382 C   0  0  0  0  0  0  0  0  0  0  0  0
  -32.8329  -24.9197   19.6629 C   0  0  0  0  0  0  0  0  0  0  0  0
  -18.3440  -24.5563   21.7300 C   0  0  0  0  0  0  0  0  0  0  0  0
  -23.7936  -27.9325   19.0062 C   0  0  0  0  0  0  0  0  0  0  0  0
  -25.8354  -25.7946   18.9354 C   0  0  0  0  0  0  0  0  0  0  0  0
  -19.4960  -23.8734   20.9974 C   0  0  0  0  0  0  0  0  0  0  0  0
  -30.9943  -23.1820   17.1576 C   0  0  0  0  0  0  0  0  0  0  0  0
  -20.8025  -24.0645   21.7613 C   0  0  0  0  0  0  0  0  0  0  0  0
  -30.1787  -22.1569   17.9474 C   0  0  0  0  0  0  0  0  0  0  0  0
  -32.3788  -23.3918   17.7667 C   0  0  0  0  0  0  0  0  0  0  0  0
  -31.5633  -22.7113   19.9905 C   0  0  0  0  0  0  0  0  0  0  0  0
  -21.1657  -25.5503   21.8701 C   0  0  1  0  0  0  0  0  0  0  0  0
  -23.4099  -26.4574   18.9419 C   0  0  1  0  0  0  0  0  0  0  0  0
  -30.1387  -22.5073   19.4471 C   0  0  2  0  0  0  0  0  0  0  0  0
  -32.0750  -28.4572   26.0383 C   0  0  0  0  0  0  0  0  0  0  0  0
  -27.2582  -23.1100   13.1119 C   0  0  0  0  0  0  0  0  0  0  0  0
  -24.6726  -22.0147   19.1108 C   0  0  0  0  0  0  0  0  0  0  0  0
  -26.1168  -21.2313   17.2216 C   0  0  0  0  0  0  0  0  0  0  0  0
  -23.6871  -21.6493   16.8415 C   0  0  0  0  0  0  0  0  0  0  0  0
  -26.9044  -26.8436   13.7529 C   0  0  0  0  0  0  0  0  0  0  0  0
  -33.1983  -26.3514   21.6569 C   0  0  0  0  0  0  0  0  0  0  0  0
  -31.5807  -29.4336   22.2516 C   0  0  0  0  0  0  0  0  0  0  0  0
  -30.2737  -29.4038   23.0455 C   0  0  0  0  0  0  0  0  0  0  0  0
  -32.7980  -29.0153   23.0840 C   0  0  0  0  0  0  0  0  0  0  0  0
  -29.0835  -29.7906   22.1780 C   0  0  0  0  0  0  0  0  0  1  0  0
  -25.2467  -23.6126   17.1657 C   0  0  1  0  0  0  0  0  0  0  0  0
  -26.6425  -24.3598   13.7215 C   0  0  2  0  0  0  0  0  0  0  0  0
  -24.9361  -22.1517   17.5979 C   0  0  0  0  0  0  0  0  0  0  0  0
  -29.3953  -20.1891   19.8419 N   0  0  0  0  0  0  0  0  0  0  0  0
  -32.6639  -27.6538   23.7184 N   0  0  0  0  0  0  0  0  0  0  0  0
  -29.3674  -21.4713   20.2437 N   0  0  0  0  0  0  0  0  0  0  0  0
  -32.3258  -26.1105   25.1877 N   0  3  0  0  0  0  0  0  0  0  0  0
  -24.4779  -25.6190   18.3935 N   0  0  0  0  0  0  0  0  0  0  0  0
  -32.2706  -23.7227   19.1896 N   0  0  0  0  0  0  0  0  0  0  0  0
  -28.4822  -22.9121   21.9023 N   0  0  0  0  0  0  0  0  0  0  0  0
  -26.8510  -18.8633   23.0609 N   0  0  0  0  0  0  0  0  0  0  0  0
  -21.7216  -26.0274   20.6219 N   0  0  0  0  0  0  0  0  0  0  0  0
  -25.4737  -23.7768   15.7340 N   0  0  0  0  0  0  0  0  0  0  0  0
  -32.6799  -25.1597   21.0230 N   0  0  0  0  0  0  0  0  0  0  0  0
  -27.4153  -25.5431   13.2484 N   0  3  0  0  0  0  0  0  0  0  0  0
  -26.8812  -21.0875   23.6182 O   0  0  0  0  0  0  0  0  0  0  0  0
  -23.9270  -25.3667   20.9712 O   0  0  0  0  0  0  0  0  0  0  0  0
  -23.0096  -24.3942   17.0591 O   0  0  0  0  0  0  0  0  0  0  0  0
  -27.6072  -24.6669   15.9152 O   0  0  0  0  0  0  0  0  0  0  0  0
  -33.4227  -25.7182   18.9269 O   0  0  0  0  0  0  0  0  0  0  0  0
  -27.7749  -14.0564   20.4010 O   0  0  0  0  0  0  0  0  0  0  0  0
  -28.9742  -28.8587   21.1029 O   0  0  0  0  0  0  0  0  0  1  0  0
  -22.6274  -12.2109   21.1097 F   0  0  0  0  0  0  0  0  0  0  0  0
  -26.4858  -12.6468   18.4025 F   0  0  0  0  0  0  0  0  0  0  0  0
  1  2  1  0  0  0  0
  1  5  2  0  0  0  0
  2  6  2  0  0  0  0
  3  8  2  0  0  0  0
  3 16  1  0  0  0  0
  4  9  1  0  0  0  0
  4 16  2  0  0  0  0
  5 18  1  0  0  0  0
  6 20  1  0  0  0  0
  7 10  2  0  0  0  0
  7 19  1  0  0  0  0
  8 22  1  0  0  0  0
  9 22  2  0  0  0  0
 10 23  1  0  0  0  0
 11 12  2  0  0  0  0
 11 24  1  0  0  0  0
 12 25  1  0  0  0  0
 13 21  1  0  0  0  0
 13 23  2  0  0  0  0
 14 25  2  0  0  0  0
 14 26  1  0  0  0  0
 15 28  2  0  0  0  0
 15 65  1  0  0  0  0
 16 27  1  0  0  0  0
 17 27  1  0  0  0  0
 17 29  2  0  0  0  0
 17 31  1  0  0  0  0
 18 20  2  0  0  0  0
 18 36  1  0  0  0  0
 19 21  2  0  0  0  0
 19 37  1  0  0  0  0
 20 45  1  0  0  0  0
 21 38  1  0  0  0  0
 22 79  1  0  0  0  0
 23 80  1  0  0  0  0
 24 26  2  0  0  0  0
 24 79  1  0  0  0  0
 25 81  1  0  0  0  0
 26 82  1  0  0  0  0
 27 62  2  0  0  0  0
 28 54  1  0  0  0  0
 28 63  1  0  0  0  0
 29 64  1  0  0  0  0
 29 68  1  0  0  0  0
 30 48  1  0  0  0  0
 30 63  1  0  0  0  0
 30 65  2  0  0  0  0
 31 69  1  0  0  0  0
 31 74  2  0  0  0  0
 32 46  1  0  0  0  0
 32 70  1  0  0  0  0
 32 75  2  0  0  0  0
 33 59  1  0  0  0  0
 33 66  1  0  0  0  0
 33 76  2  0  0  0  0
 34 60  1  0  0  0  0
 34 71  1  0  0  0  0
 34 77  2  0  0  0  0
 35 67  1  0  0  0  0
 35 72  1  0  0  0  0
 35 78  2  0  0  0  0
 36 39  1  0  0  0  0
 37 46  1  0  0  0  0
 38 66  1  0  0  0  0
 39 41  1  0  0  0  0
 40 42  1  0  0  0  0
 40 43  1  0  0  0  0
 41 45  1  0  0  0  0
 42 47  1  0  0  0  0
 43 67  1  0  0  0  0
 44 47  1  0  0  0  0
 44 67  1  0  0  0  0
 45 70  1  0  0  0  0
 46 66  1  0  0  0  0
 47 64  1  0  0  0  0
 49 60  1  0  0  0  0
 50 61  1  0  0  0  0
 51 61  1  0  0  0  0
 52 61  1  0  0  0  0
 53 73  1  0  0  0  0
 54 72  1  0  0  0  0
 55 56  1  0  0  0  0
 55 57  1  0  0  0  0
 56 58  1  0  0  0  0
 57 63  1  0  0  0  0
 58 80  1  0  0  0  0
 59 61  1  0  0  0  0
 59 71  1  0  0  0  0
 60 73  1  0  0  0  0
 62 64  1  0  0  0  0
M  CHG  2  65   1  73   1
M  ISO  4  35 100  58 101  72 100  80 101
M  END
> <Batch ID>
0074

> <Smiles>
CNC(C)C(=O)NC(C(=O)N1Cc2cc([101O:1][101CH2:1]CCCn3c(C[100NH:0][100C:0](=O)N4CCCC(n5nc(-c6ccc(Oc7ccc(F)cc7F)cc6)c(C(N)=O)c5N)C4)cnc3C)ccc2CC1C(=O)NC1CCCc2ccccc21)C(C)(C)C

> <Shape>
0.208

> <Color>
0.062

> <Negative vol penalty>
0.000

$$$$

  -OEChem-04052318293D

 84 92  0     1  0  0  0  0  0999 V2000
  -31.5828  -26.8286   17.9022 C   0  0  0  0  0  0  0  0  0  0  0  0
  -30.8015  -25.7395   18.2750 C   0  0  0  0  0  0  0  0  0  0  0  0
  -28.0955  -16.7287   18.8664 C   0  0  0  0  0  0  0  0  0  0  0  0
  -28.1455  -17.0261   21.2635 C   0  0  0  0  0  0  0  0  0  0  0  0
  -31.4477  -28.0438   18.5723 C   0  0  0  0  0  0  0  0  0  0  0  0
  -29.8855  -25.8647   19.3188 C   0  0  0  0  0  0  0  0  0  0  0  0
  -24.4276  -23.1246   19.7758 C   0  0  0  0  0  0  0  0  0  0  0  0
  -28.9485  -17.8215   18.7129 C   0  0  0  0  0  0  0  0  0  0  0  0
  -28.9986  -18.1189   21.1100 C   0  0  0  0  0  0  0  0  0  0  0  0
  -24.0043  -21.9853   20.4588 C   0  0  0  0  0  0  0  0  0  0  0  0
  -28.7404  -21.3811   20.2600 C   0  0  0  0  0  0  0  0  0  0  0  0
  -28.4631  -22.5289   21.0024 C   0  0  0  0  0  0  0  0  0  0  0  0
  -23.2607  -23.3671   22.2910 C   0  0  0  0  0  0  0  0  0  0  0  0
  -30.6226  -22.3586   22.0723 C   0  0  0  0  0  0  0  0  0  0  0  0
  -20.0832  -17.1676   26.4004 C   0  0  0  0  0  0  0  0  0  0  0  0
  -27.6939  -16.3310   20.1416 C   0  0  0  0  0  0  0  0  0  0  0  0
  -27.1792  -13.8529   20.4607 C   0  0  0  0  0  0  0  0  0  0  0  0
  -30.5227  -28.1867   19.6185 C   0  0  0  0  0  0  0  0  0  0  0  0
  -24.2803  -24.3950   20.3510 C   0  0  0  0  0  0  0  0  0  0  0  0
  -29.7389  -27.0826   20.0044 C   0  0  0  0  0  0  0  0  0  0  0  0
  -23.6806  -24.5212   21.6122 C   0  0  0  0  0  0  0  0  0  0  0  0
  -29.4002  -18.5166   19.8348 C   0  0  0  0  0  0  0  0  0  0  0  0
  -23.4234  -22.1061   21.7178 C   0  0  0  0  0  0  0  0  0  0  0  0
  -29.9587  -20.7219   20.4238 C   0  0  0  0  0  0  0  0  0  0  0  0
  -29.4042  -23.0177   21.9085 C   0  0  0  0  0  0  0  0  0  0  0  0
  -30.8998  -21.2107   21.3299 C   0  0  0  0  0  0  0  0  0  0  0  0
  -26.8122  -15.2026   20.3007 C   0  0  0  0  0  0  0  0  0  0  0  0
  -19.9838  -17.4913   25.0339 C   0  0  0  0  0  0  0  0  0  0  0  0
  -20.9332  -16.0894   26.4369 C   0  0  0  0  0  0  0  0  0  0  0  0
  -25.9851  -13.1830   20.5696 C   0  0  0  0  0  0  0  0  0  0  0  0
  -28.4829  -13.2580   20.5069 C   0  0  0  0  0  0  0  0  0  0  0  0
  -26.2805  -26.6973   21.2468 C   0  0  0  0  0  0  0  0  0  0  0  0
  -23.5343  -28.3394   21.7804 C   0  0  0  0  0  0  0  0  0  0  0  0
  -20.6870  -13.9531   22.8244 C   0  0  0  0  0  0  0  0  0  0  0  0
  -20.1869  -28.2506   22.4389 C   0  0  0  0  0  0  0  0  0  0  0  0
  -30.4460  -29.5065   20.3443 C   0  0  0  0  0  0  0  0  0  0  0  0
  -24.7177  -25.6165   19.5899 C   0  0  0  0  0  0  0  0  0  0  0  0
  -23.4812  -25.8639   22.2647 C   0  0  0  0  0  0  0  0  0  0  0  0
  -29.1862  -29.6630   21.1922 C   0  0  0  0  0  0  0  0  0  0  0  0
  -21.3127  -14.1422   19.3012 C   0  0  0  0  0  0  0  0  0  0  0  0
  -28.9394  -28.4050   22.0188 C   0  0  0  0  0  0  0  0  0  0  0  0
  -22.8261  -14.3357   19.2153 C   0  0  0  0  0  0  0  0  0  0  0  0
  -20.7277  -14.8489   20.5200 C   0  0  0  0  0  0  0  0  0  0  0  0
  -22.8762  -14.6471   21.7304 C   0  0  0  0  0  0  0  0  0  0  0  0
  -28.7166  -27.1861   21.1153 C   0  0  1  0  0  0  0  0  0  0  0  0
  -24.9873  -26.8174   20.4912 C   0  0  1  0  0  0  0  0  0  0  0  0
  -23.5116  -13.9234   20.5300 C   0  0  2  0  0  0  0  0  0  0  0  0
  -21.4357  -15.2903   27.5695 C   0  0  0  0  0  0  0  0  0  0  0  0
  -18.2215  -29.7530   22.8596 C   0  0  0  0  0  0  0  0  0  0  0  0
  -22.4677  -12.4551   23.6721 C   0  0  0  0  0  0  0  0  0  0  0  0
  -20.4667  -12.9941   25.0698 C   0  0  0  0  0  0  0  0  0  0  0  0
  -24.5485  -28.8700   24.6089 C   0  0  0  0  0  0  0  0  0  0  0  0
  -22.2157  -29.5149   25.2494 C   0  0  0  0  0  0  0  0  0  0  0  0
  -23.4384  -30.8257   23.5146 C   0  0  0  0  0  0  0  0  0  0  0  0
  -18.7472  -27.2249   20.0653 C   0  0  0  0  0  0  0  0  0  0  0  0
  -19.1745  -18.5993   24.4086 C   0  0  0  0  0  0  0  0  0  0  0  0
  -19.9359  -19.9229   24.2755 C   0  0  0  0  0  0  0  0  0  0  0  0
  -21.1493  -19.8251   23.3498 C   0  0  0  0  0  0  0  0  0  0  0  0
  -22.1580  -14.8029   24.6596 C   0  0  0  0  0  0  0  0  0  0  0  0
  -21.9023  -21.1464   23.2738 C   0  0  0  0  0  0  0  0  0  1  0  0
  -22.6000  -28.5073   22.9542 C   0  0  1  0  0  0  0  0  0  0  0  0
  -19.0173  -28.9887   21.8131 C   0  0  2  0  0  0  0  0  0  0  0  0
  -21.4705  -13.5568   24.0504 C   0  0  0  0  0  0  0  0  0  0  0  0
  -23.2060  -29.4039   24.0706 C   0  0  0  0  0  0  0  0  0  0  0  0
  -25.4885  -15.3812   20.3067 N   0  0  0  0  0  0  0  0  0  0  0  0
  -20.7127  -16.6840   24.2585 N   0  0  0  0  0  0  0  0  0  0  0  0
  -21.2782  -15.8426   25.1407 N   0  0  0  0  0  0  0  0  0  0  0  0
  -25.0133  -14.1350   20.4717 N   0  0  0  0  0  0  0  0  0  0  0  0
  -23.9310  -27.0278   21.4834 N   0  0  0  0  0  0  0  0  0  0  0  0
  -21.4204  -14.4474   21.7456 N   0  0  0  0  0  0  0  0  0  0  0  0
  -25.6821  -11.8784   20.7385 N   0  0  0  0  0  0  0  0  0  0  0  0
  -29.6025  -14.0914   20.3793 N   0  0  0  0  0  0  0  0  0  0  0  0
  -27.3759  -27.1993   20.5704 N   0  0  0  0  0  0  0  0  0  0  0  0
  -21.3418  -29.0031   22.4068 N   0  0  0  0  0  0  0  0  0  0  0  0
  -18.1014  -28.0281   21.1353 N   0  3  0  0  0  0  0  0  0  0  0  0
  -28.6497  -12.0219   20.6403 O   0  0  0  0  0  0  0  0  0  0  0  0
  -26.2839  -26.1884   22.3615 O   0  0  0  0  0  0  0  0  0  0  0  0
  -23.8931  -29.3346   21.1460 O   0  0  0  0  0  0  0  0  0  0  0  0
  -19.4600  -13.8236   22.8263 O   0  0  0  0  0  0  0  0  0  0  0  0
  -20.0852  -27.1210   22.9124 O   0  0  0  0  0  0  0  0  0  0  0  0
  -30.2328  -19.5829   19.6854 O   0  0  0  0  0  0  0  0  0  0  0  0
  -23.0099  -20.9956   22.3868 O   0  0  0  0  0  0  0  0  0  1  0  0
  -29.1384  -24.1209   22.6202 F   0  0  0  0  0  0  0  0  0  0  0  0
  -32.0725  -20.5824   21.4907 F   0  0  0  0  0  0  0  0  0  0  0  0
  1  2  1  0  0  0  0
  1  5  2  0  0  0  0
  2  6  2  0  0  0  0
  3  8  2  0  0  0  0
  3 16  1  0  0  0  0
  4  9  1  0  0  0  0
  4 16  2  0  0  0  0
  5 18  1  0  0  0  0
  6 20  1  0  0  0  0
  7 10  2  0  0  0  0
  7 19  1  0  0  0  0
  8 22  1  0  0  0  0
  9 22  2  0  0  0  0
 10 23  1  0  0  0  0
 11 12  2  0  0  0  0
 11 24  1  0  0  0  0
 12 25  1  0  0  0  0
 13 21  1  0  0  0  0
 13 23  2  0  0  0  0
 14 25  2  0  0  0  0
 14 26  1  0  0  0  0
 15 28  1  0  0  0  0
 15 29  2  0  0  0  0
 16 27  1  0  0  0  0
 17 27  1  0  0  0  0
 17 30  2  0  0  0  0
 17 31  1  0  0  0  0
 18 20  2  0  0  0  0
 18 36  1  0  0  0  0
 19 21  2  0  0  0  0
 19 37  1  0  0  0  0
 20 45  1  0  0  0  0
 21 38  1  0  0  0  0
 22 81  1  0  0  0  0
 23 82  1  0  0  0  0
 24 26  2  0  0  0  0
 24 81  1  0  0  0  0
 25 83  1  0  0  0  0
 26 84  1  0  0  0  0
 27 65  2  0  0  0  0
 28 56  1  0  0  0  0
 28 66  2  0  0  0  0
 29 48  1  0  0  0  0
 29 67  1  0  0  0  0
 30 68  1  0  0  0  0
 30 71  1  0  0  0  0
 31 72  1  0  0  0  0
 31 76  2  0  0  0  0
 32 46  1  0  0  0  0
 32 73  1  0  0  0  0
 32 77  2  0  0  0  0
 33 61  1  0  0  0  0
 33 69  1  0  0  0  0
 33 78  2  0  0  0  0
 34 63  1  0  0  0  0
 34 70  1  0  0  0  0
 34 79  2  0  0  0  0
 35 62  1  0  0  0  0
 35 74  1  0  0  0  0
 35 80  2  0  0  0  0
 36 39  1  0  0  0  0
 37 46  1  0  0  0  0
 38 69  1  0  0  0  0
 39 41  1  0  0  0  0
 40 42  1  0  0  0  0
 40 43  1  0  0  0  0
 41 45  1  0  0  0  0
 42 47  1  0  0  0  0
 43 70  1  0  0  0  0
 44 47  1  0  0  0  0
 44 70  1  0  0  0  0
 45 73  1  0  0  0  0
 46 69  1  0  0  0  0
 47 68  1  0  0  0  0
 49 62  1  0  0  0  0
 50 63  1  0  0  0  0
 51 63  1  0  0  0  0
 52 64  1  0  0  0  0
 53 64  1  0  0  0  0
 54 64  1  0  0  0  0
 55 75  1  0  0  0  0
 56 57  1  0  0  0  0
 57 58  1  0  0  0  0
 58 60  1  0  0  0  0
 59 63  1  0  0  0  0
 59 67  1  0  0  0  0
 60 82  1  0  0  0  0
 61 64  1  0  0  0  0
 61 74  1  0  0  0  0
 62 75  1  0  0  0  0
 65 68  1  0  0  0  0
 66 67  1  0  0  0  0
M  CHG  1  75   1
M  ISO  4  34 100  60 101  63 100  82 101
M  END
> <Batch ID>
0074

> <Smiles>
CNC(C)C(=O)NC(C(=O)N1Cc2cc([101O:1][101CH2:1]CCCc3cc(C)n(C[100C:0](C)(C)[100C:0](=O)N4CCCC(n5nc(-c6ccc(Oc7ccc(F)cc7F)cc6)c(C(N)=O)c5N)C4)n3)ccc2CC1C(=O)NC1CCCc2ccccc21)C(C)(C)C

> <Shape>
0.233

> <Color>
0.057

> <Negative vol penalty>
0.000

$$$$

  -OEChem-04052318293D

 85 93  0     1  0  0  0  0  0999 V2000
  -23.8381   -8.0261   21.1746 C   0  0  0  0  0  0  0  0  0  0  0  0
  -24.3560   -9.1156   20.4817 C   0  0  0  0  0  0  0  0  0  0  0  0
  -24.4917  -28.1661   19.7225 C   0  0  0  0  0  0  0  0  0  0  0  0
  -24.4367  -27.2255   21.9472 C   0  0  0  0  0  0  0  0  0  0  0  0
  -22.6276   -8.1461   21.8559 C   0  0  0  0  0  0  0  0  0  0  0  0
  -23.6629  -10.3256   20.4688 C   0  0  0  0  0  0  0  0  0  0  0  0
  -26.6902  -14.3069   21.2625 C   0  0  0  0  0  0  0  0  0  0  0  0
  -23.2311  -28.7265   19.9283 C   0  0  0  0  0  0  0  0  0  0  0  0
  -23.1761  -27.7859   22.1530 C   0  0  0  0  0  0  0  0  0  0  0  0
  -27.4610  -14.7452   20.1866 C   0  0  0  0  0  0  0  0  0  0  0  0
  -19.9767  -27.1031   21.2996 C   0  0  0  0  0  0  0  0  0  0  0  0
  -18.9973  -26.2990   21.8826 C   0  0  0  0  0  0  0  0  0  0  0  0
  -25.8677  -16.5081   19.7712 C   0  0  0  0  0  0  0  0  0  0  0  0
  -30.6672  -18.4362   20.7225 C   0  0  0  0  0  0  0  0  0  0  0  0
  -18.8072  -27.8601   23.7166 C   0  0  0  0  0  0  0  0  0  0  0  0
  -32.5503  -19.5458   19.8110 C   0  0  0  0  0  0  0  0  0  0  0  0
  -25.0945  -27.4156   20.7320 C   0  0  0  0  0  0  0  0  0  0  0  0
  -27.5933  -27.5176   20.2285 C   0  0  0  0  0  0  0  0  0  0  0  0
  -21.9242   -9.3609   21.8593 C   0  0  0  0  0  0  0  0  0  0  0  0
  -25.4948  -14.9604   21.5946 C   0  0  0  0  0  0  0  0  0  0  0  0
  -22.4412  -10.4615   21.1496 C   0  0  0  0  0  0  0  0  0  0  0  0
  -25.0849  -16.0777   20.8533 C   0  0  0  0  0  0  0  0  0  0  0  0
  -31.7640  -18.4133   19.8791 C   0  0  0  0  0  0  0  0  0  0  0  0
  -22.5733  -28.5364   21.1435 C   0  0  0  0  0  0  0  0  0  0  0  0
  -27.0483  -15.8442   19.4390 C   0  0  0  0  0  0  0  0  0  0  0  0
  -20.3714  -28.2857   21.9252 C   0  0  0  0  0  0  0  0  0  0  0  0
  -18.4125  -26.6775   23.0910 C   0  0  0  0  0  0  0  0  0  0  0  0
  -19.7866  -28.6642   23.1337 C   0  0  0  0  0  0  0  0  0  0  0  0
  -26.3965  -26.8359   20.5198 C   0  0  0  0  0  0  0  0  0  0  0  0
  -30.4294  -19.5900   21.4420 C   0  0  0  0  0  0  0  0  0  0  0  0
  -28.5363  -26.5249   20.1204 C   0  0  0  0  0  0  0  0  0  0  0  0
  -27.8313  -28.9225   20.0700 C   0  0  0  0  0  0  0  0  0  0  0  0
  -22.4333  -14.1134   21.7128 C   0  0  0  0  0  0  0  0  0  0  0  0
  -22.0650  -17.0781   22.9764 C   0  0  0  0  0  0  0  0  0  0  0  0
  -28.7420  -21.0774   22.4781 C   0  0  0  0  0  0  0  0  0  0  0  0
  -23.2584  -20.2591   23.2983 C   0  0  0  0  0  0  0  0  0  0  0  0
  -20.5961   -9.4287   22.5708 C   0  0  0  0  0  0  0  0  0  0  0  0
  -24.6884  -14.4916   22.7747 C   0  0  0  0  0  0  0  0  0  0  0  0
  -23.8199  -16.8265   21.1814 C   0  0  0  0  0  0  0  0  0  0  0  0
  -20.1101  -10.8544   22.8189 C   0  0  0  0  0  0  0  0  0  0  0  0
  -29.0177  -21.9180   18.9504 C   0  0  0  0  0  0  0  0  0  0  0  0
  -20.2609  -11.6971   21.5564 C   0  0  0  0  0  0  0  0  0  0  0  0
  -28.4537  -23.3381   18.9296 C   0  0  0  0  0  0  0  0  0  0  0  0
  -28.2995  -21.0438   19.9751 C   0  0  0  0  0  0  0  0  0  0  0  0
  -27.7377  -23.0308   21.3391 C   0  0  0  0  0  0  0  0  0  0  0  0
  -21.7312  -11.7979   21.1327 C   0  0  1  0  0  0  0  0  0  0  0  0
  -23.2250  -14.9170   22.7053 C   0  0  1  0  0  0  0  0  0  0  0  0
  -28.4556  -23.9534   20.3399 C   0  0  2  0  0  0  0  0  0  0  0  0
  -23.4035  -22.6172   24.1444 C   0  0  0  0  0  0  0  0  0  0  0  0
  -29.6507  -19.2019   23.7948 C   0  0  0  0  0  0  0  0  0  0  0  0
  -28.0063  -18.8437   21.9504 C   0  0  0  0  0  0  0  0  0  0  0  0
  -19.9512  -17.5912   20.8366 C   0  0  0  0  0  0  0  0  0  0  0  0
  -20.1450  -20.0379   21.3307 C   0  0  0  0  0  0  0  0  0  0  0  0
  -19.3714  -18.4660   23.1066 C   0  0  0  0  0  0  0  0  0  0  0  0
  -31.9308  -15.7698   16.9972 C   0  0  0  0  0  0  0  0  0  0  0  0
  -31.9642  -18.2429   16.7368 C   0  0  0  0  0  0  0  0  0  0  0  0
  -24.9469  -19.4553   25.5922 C   0  0  0  0  0  0  0  0  0  0  0  0
  -32.0911  -17.1865   19.0579 C   0  0  0  0  0  0  0  0  0  0  0  0
  -29.9066  -17.1490   17.6547 C   0  0  0  0  0  0  0  0  0  0  0  0
  -29.2074  -16.0611   18.4657 C   0  0  0  0  0  0  0  0  0  1  0  0
  -21.8032  -18.4547   22.4148 C   0  0  1  0  0  0  0  0  0  0  0  0
  -23.4530  -21.1435   24.5167 C   0  0  2  0  0  0  0  0  0  0  0  0
  -29.2618  -19.6664   22.3648 C   0  0  0  0  0  0  0  0  0  0  0  0
  -20.3406  -18.6224   21.9145 C   0  0  0  0  0  0  0  0  0  0  0  0
  -31.4579  -17.0945   17.6364 C   0  0  0  0  0  0  0  0  0  0  0  0
  -32.2939  -20.6612   20.5267 N   0  0  0  0  0  0  0  0  0  0  0  0
  -26.5614  -25.5124   20.5920 N   0  0  0  0  0  0  0  0  0  0  0  0
  -31.2160  -20.6835   21.3558 N   0  0  0  0  0  0  0  0  0  0  0  0
  -27.8728  -25.3545   20.3444 N   0  0  0  0  0  0  0  0  0  0  0  0
  -23.0626  -16.3258   22.3404 N   0  0  0  0  0  0  0  0  0  0  0  0
  -28.2993  -21.6775   21.2990 N   0  0  0  0  0  0  0  0  0  0  0  0
  -29.8600  -26.5476   19.8564 N   0  0  0  0  0  0  0  0  0  0  0  0
  -28.1811  -29.6728   21.2010 N   0  0  0  0  0  0  0  0  0  0  0  0
  -22.4319  -12.7543   21.9626 N   0  0  0  0  0  0  0  0  0  0  0  0
  -22.1909  -19.4007   23.4555 N   0  0  0  0  0  0  0  0  0  0  0  0
  -24.7705  -20.8640   25.1546 N   0  3  0  0  0  0  0  0  0  0  0  0
  -27.7206  -29.4987   18.9613 O   0  0  0  0  0  0  0  0  0  0  0  0
  -21.8646  -14.6842   20.7895 O   0  0  0  0  0  0  0  0  0  0  0  0
  -21.4134  -16.6875   23.9483 O   0  0  0  0  0  0  0  0  0  0  0  0
  -28.7330  -21.6289   23.5816 O   0  0  0  0  0  0  0  0  0  0  0  0
  -23.9790  -20.3259   22.3049 O   0  0  0  0  0  0  0  0  0  0  0  0
  -21.3433  -29.0833   21.3448 O   0  0  0  0  0  0  0  0  0  0  0  0
  -27.7985  -16.2736   18.3879 O   0  0  0  0  0  0  0  0  0  1  0  0
  -17.4710  -25.9060   23.6499 F   0  0  0  0  0  0  0  0  0  0  0  0
  -20.1608  -29.7999   23.7387 F   0  0  0  0  0  0  0  0  0  0  0  0
  1  2  1  0  0  0  0
  1  5  2  0  0  0  0
  2  6  2  0  0  0  0
  3  8  2  0  0  0  0
  3 17  1  0  0  0  0
  4  9  1  0  0  0  0
  4 17  2  0  0  0  0
  5 19  1  0  0  0  0
  6 21  1  0  0  0  0
  7 10  2  0  0  0  0
  7 20  1  0  0  0  0
  8 24  1  0  0  0  0
  9 24  2  0  0  0  0
 10 25  1  0  0  0  0
 11 12  2  0  0  0  0
 11 26  1  0  0  0  0
 12 27  1  0  0  0  0
 13 22  1  0  0  0  0
 13 25  2  0  0  0  0
 14 23  2  0  0  0  0
 14 30  1  0  0  0  0
 15 27  2  0  0  0  0
 15 28  1  0  0  0  0
 16 23  1  0  0  0  0
 16 66  2  0  0  0  0
 17 29  1  0  0  0  0
 18 29  1  0  0  0  0
 18 31  2  0  0  0  0
 18 32  1  0  0  0  0
 19 21  2  0  0  0  0
 19 37  1  0  0  0  0
 20 22  2  0  0  0  0
 20 38  1  0  0  0  0
 21 46  1  0  0  0  0
 22 39  1  0  0  0  0
 23 58  1  0  0  0  0
 24 82  1  0  0  0  0
 25 83  1  0  0  0  0
 26 28  2  0  0  0  0
 26 82  1  0  0  0  0
 27 84  1  0  0  0  0
 28 85  1  0  0  0  0
 29 67  2  0  0  0  0
 30 63  1  0  0  0  0
 30 68  2  0  0  0  0
 31 69  1  0  0  0  0
 31 72  1  0  0  0  0
 32 73  1  0  0  0  0
 32 77  2  0  0  0  0
 33 47  1  0  0  0  0
 33 74  1  0  0  0  0
 33 78  2  0  0  0  0
 34 61  1  0  0  0  0
 34 70  1  0  0  0  0
 34 79  2  0  0  0  0
 35 63  1  0  0  0  0
 35 71  1  0  0  0  0
 35 80  2  0  0  0  0
 36 62  1  0  0  0  0
 36 75  1  0  0  0  0
 36 81  2  0  0  0  0
 37 40  1  0  0  0  0
 38 47  1  0  0  0  0
 39 70  1  0  0  0  0
 40 42  1  0  0  0  0
 41 43  1  0  0  0  0
 41 44  1  0  0  0  0
 42 46  1  0  0  0  0
 43 48  1  0  0  0  0
 44 71  1  0  0  0  0
 45 48  1  0  0  0  0
 45 71  1  0  0  0  0
 46 74  1  0  0  0  0
 47 70  1  0  0  0  0
 48 69  1  0  0  0  0
 49 62  1  0  0  0  0
 50 63  1  0  0  0  0
 51 63  1  0  0  0  0
 52 64  1  0  0  0  0
 53 64  1  0  0  0  0
 54 64  1  0  0  0  0
 55 65  1  0  0  0  0
 56 65  1  0  0  0  0
 57 76  1  0  0  0  0
 58 65  1  0  0  0  0
 59 60  1  0  0  0  0
 59 65  1  0  0  0  0
 60 83  1  0  0  0  0
 61 64  1  0  0  0  0
 61 75  1  0  0  0  0
 62 76  1  0  0  0  0
 66 68  1  0  0  0  0
 67 69  1  0  0  0  0
M  CHG  1  76   1
M  ISO  4  35 100  60 101  63 100  83 101
M  END
> <Batch ID>
0074

> <Smiles>
CNC(C)C(=O)NC(C(=O)N1Cc2cc([101O:1][101CH2:1]CC(C)(C)Cc3cnnc([100C:0](C)(C)[100C:0](=O)N4CCCC(n5nc(-c6ccc(Oc7ccc(F)cc7F)cc6)c(C(N)=O)c5N)C4)c3)ccc2CC1C(=O)NC1CCCc2ccccc21)C(C)(C)C

> <Shape>
0.222

> <Color>
0.071

> <Negative vol penalty>
0.000

$$$$

  -OEChem-04052318293D

 83 91  0     1  0  0  0  0  0999 V2000
  -15.6527  -30.8751   23.5607 C   0  0  0  0  0  0  0  0  0  0  0  0
  -16.9226  -31.0013   23.0068 C   0  0  0  0  0  0  0  0  0  0  0  0
  -28.6187  -15.8829   21.9505 C   0  0  0  0  0  0  0  0  0  0  0  0
  -30.0510  -15.5743   20.0295 C   0  0  0  0  0  0  0  0  0  0  0  0
  -15.3683  -29.8097   24.4140 C   0  0  0  0  0  0  0  0  0  0  0  0
  -17.9093  -30.0627   23.3068 C   0  0  0  0  0  0  0  0  0  0  0  0
  -22.3240  -28.0414   19.5744 C   0  0  0  0  0  0  0  0  0  0  0  0
  -28.0588  -14.6236   21.7353 C   0  0  0  0  0  0  0  0  0  0  0  0
  -29.4911  -14.3150   19.8143 C   0  0  0  0  0  0  0  0  0  0  0  0
  -23.6672  -28.3886   19.4361 C   0  0  0  0  0  0  0  0  0  0  0  0
  -25.7592  -13.2385   19.6816 C   0  0  0  0  0  0  0  0  0  0  0  0
  -24.3714  -13.1246   19.7630 C   0  0  0  0  0  0  0  0  0  0  0  0
  -24.2843  -26.5466   20.8664 C   0  0  0  0  0  0  0  0  0  0  0  0
  -29.0769  -26.6058   18.5721 C   0  0  0  0  0  0  0  0  0  0  0  0
  -24.6080  -11.5256   21.5587 C   0  0  0  0  0  0  0  0  0  0  0  0
  -29.6147  -16.3583   21.0975 C   0  0  0  0  0  0  0  0  0  0  0  0
  -31.3178  -17.9665   22.1079 C   0  0  0  0  0  0  0  0  0  0  0  0
  -16.3492  -28.8522   24.7169 C   0  0  0  0  0  0  0  0  0  0  0  0
  -21.9495  -26.9490   20.3699 C   0  0  0  0  0  0  0  0  0  0  0  0
  -17.6382  -28.9843   24.1659 C   0  0  0  0  0  0  0  0  0  0  0  0
  -22.9359  -26.1861   21.0111 C   0  0  0  0  0  0  0  0  0  0  0  0
  -29.5293  -27.4854   19.5398 C   0  0  0  0  0  0  0  0  0  0  0  0
  -28.4950  -13.8396   20.6673 C   0  0  0  0  0  0  0  0  0  0  0  0
  -24.6474  -27.6429   20.0844 C   0  0  0  0  0  0  0  0  0  0  0  0
  -26.5714  -12.4959   20.5387 C   0  0  0  0  0  0  0  0  0  0  0  0
  -23.7958  -12.2682   20.7015 C   0  0  0  0  0  0  0  0  0  0  0  0
  -25.9958  -11.6395   21.4772 C   0  0  0  0  0  0  0  0  0  0  0  0
  -30.1931  -17.6593   21.3189 C   0  0  0  0  0  0  0  0  0  0  0  0
  -29.8019  -25.4506   18.3594 C   0  0  0  0  0  0  0  0  0  0  0  0
  -30.6766  -27.1513   20.2310 C   0  0  0  0  0  0  0  0  0  0  0  0
  -31.4570  -19.3280   21.9919 C   0  0  0  0  0  0  0  0  0  0  0  0
  -32.1613  -17.0988   22.8768 C   0  0  0  0  0  0  0  0  0  0  0  0
  -20.1864  -26.5813   22.9891 C   0  0  0  0  0  0  0  0  0  0  0  0
  -20.6856  -23.4286   22.4113 C   0  0  0  0  0  0  0  0  0  0  0  0
  -29.7536  -23.0638   17.7003 C   0  0  0  0  0  0  0  0  0  0  0  0
  -22.6249  -21.0190   20.9692 C   0  0  0  0  0  0  0  0  0  0  0  0
  -16.0086  -27.7443   25.6818 C   0  0  0  0  0  0  0  0  0  0  0  0
  -20.4983  -26.5714   20.4874 C   0  0  0  0  0  0  0  0  0  0  0  0
  -22.5876  -24.9919   21.8602 C   0  0  0  0  0  0  0  0  0  0  0  0
  -17.0007  -26.5844   25.6523 C   0  0  0  0  0  0  0  0  0  0  0  0
  -28.9250  -23.3077   21.2332 C   0  0  0  0  0  0  0  0  0  0  0  0
  -18.4336  -27.1068   25.6786 C   0  0  0  0  0  0  0  0  0  0  0  0
  -29.2370  -21.8927   21.7186 C   0  0  0  0  0  0  0  0  0  0  0  0
  -28.3623  -23.3029   19.8143 C   0  0  0  0  0  0  0  0  0  0  0  0
  -29.5494  -21.1920   19.3053 C   0  0  0  0  0  0  0  0  0  0  0  0
  -18.7278  -27.9727   24.4477 C   0  0  1  0  0  0  0  0  0  0  0  0
  -20.1936  -25.7509   21.7369 C   0  0  1  0  0  0  0  0  0  0  0  0
  -30.1478  -21.1553   20.7214 C   0  0  2  0  0  0  0  0  0  0  0  0
  -31.2240  -28.0507   21.2874 C   0  0  0  0  0  0  0  0  0  0  0  0
  -22.7993  -18.5301   20.7008 C   0  0  0  0  0  0  0  0  0  0  0  0
  -30.0016  -24.7819   15.9499 C   0  0  0  0  0  0  0  0  0  0  0  0
  -27.8213  -24.3711   17.0950 C   0  0  0  0  0  0  0  0  0  0  0  0
  -21.7097  -23.1940   25.2759 C   0  0  0  0  0  0  0  0  0  0  0  0
  -22.7287  -20.9924   24.6573 C   0  0  0  0  0  0  0  0  0  0  0  0
  -20.2566  -21.3005   24.5291 C   0  0  0  0  0  0  0  0  0  0  0  0
  -22.3909  -21.2035   18.0247 C   0  0  0  0  0  0  0  0  0  0  0  0
  -28.7743  -28.7618   19.8125 C   0  0  0  0  0  0  0  0  0  0  0  0
  -27.9360  -28.7202   21.0920 C   0  0  0  0  0  0  0  0  0  0  0  0
  -26.8206  -27.6821   21.0496 C   0  0  0  0  0  0  0  0  0  1  0  0
  -21.7361  -22.4214   22.8125 C   0  0  1  0  0  0  0  0  0  0  0  0
  -22.2689  -19.8240   20.1034 C   0  0  2  0  0  0  0  0  0  0  0  0
  -29.3576  -24.4705   17.3283 C   0  0  0  0  0  0  0  0  0  0  0  0
  -21.6145  -22.0007   24.3043 C   0  0  0  0  0  0  0  0  0  0  0  0
  -29.6559  -18.7387   20.7443 N   0  0  0  0  0  0  0  0  0  0  0  0
  -30.9214  -25.1492   19.0507 N   0  0  0  0  0  0  0  0  0  0  0  0
  -31.3658  -26.0135   20.0022 N   0  0  0  0  0  0  0  0  0  0  0  0
  -30.4463  -19.7376   21.1727 N   0  0  0  0  0  0  0  0  0  0  0  0
  -21.1546  -24.6665   21.9492 N   0  0  0  0  0  0  0  0  0  0  0  0
  -29.2451  -22.5675   18.9009 N   0  0  0  0  0  0  0  0  0  0  0  0
  -32.3439  -20.2028   22.5119 N   0  0  0  0  0  0  0  0  0  0  0  0
  -31.8768  -15.7265   22.8861 N   0  0  0  0  0  0  0  0  0  0  0  0
  -18.9579  -27.1394   23.2870 N   0  0  0  0  0  0  0  0  0  0  0  0
  -21.6224  -21.3150   21.8684 N   0  0  0  0  0  0  0  0  0  0  0  0
  -22.8461  -19.9829   18.7386 N   0  3  0  0  0  0  0  0  0  0  0  0
  -33.1285  -17.5298   23.5493 O   0  0  0  0  0  0  0  0  0  0  0  0
  -21.2186  -26.7052   23.6378 O   0  0  0  0  0  0  0  0  0  0  0  0
  -19.4930  -23.1256   22.4977 O   0  0  0  0  0  0  0  0  0  0  0  0
  -30.4950  -22.4279   16.9467 O   0  0  0  0  0  0  0  0  0  0  0  0
  -23.6877  -21.6267   20.8614 O   0  0  0  0  0  0  0  0  0  0  0  0
  -27.9490  -12.6107   20.4571 O   0  0  0  0  0  0  0  0  0  0  0  0
  -25.9591  -27.9800   19.9516 O   0  0  0  0  0  0  0  0  0  1  0  0
  -22.4630  -12.1601   20.7806 F   0  0  0  0  0  0  0  0  0  0  0  0
  -26.7709  -10.9245   22.3042 F   0  0  0  0  0  0  0  0  0  0  0  0
  1  2  1  0  0  0  0
  1  5  2  0  0  0  0
  2  6  2  0  0  0  0
  3  8  2  0  0  0  0
  3 16  1  0  0  0  0
  4  9  1  0  0  0  0
  4 16  2  0  0  0  0
  5 18  1  0  0  0  0
  6 20  1  0  0  0  0
  7 10  2  0  0  0  0
  7 19  1  0  0  0  0
  8 23  1  0  0  0  0
  9 23  2  0  0  0  0
 10 24  1  0  0  0  0
 11 12  2  0  0  0  0
 11 25  1  0  0  0  0
 12 26  1  0  0  0  0
 13 21  1  0  0  0  0
 13 24  2  0  0  0  0
 14 22  1  0  0  0  0
 14 29  2  0  0  0  0
 15 26  2  0  0  0  0
 15 27  1  0  0  0  0
 16 28  1  0  0  0  0
 17 28  1  0  0  0  0
 17 31  2  0  0  0  0
 17 32  1  0  0  0  0
 18 20  2  0  0  0  0
 18 37  1  0  0  0  0
 19 21  2  0  0  0  0
 19 38  1  0  0  0  0
 20 46  1  0  0  0  0
 21 39  1  0  0  0  0
 22 30  2  0  0  0  0
 22 57  1  0  0  0  0
 23 80  1  0  0  0  0
 24 81  1  0  0  0  0
 25 27  2  0  0  0  0
 25 80  1  0  0  0  0
 26 82  1  0  0  0  0
 27 83  1  0  0  0  0
 28 64  2  0  0  0  0
 29 62  1  0  0  0  0
 29 65  1  0  0  0  0
 30 49  1  0  0  0  0
 30 66  1  0  0  0  0
 31 67  1  0  0  0  0
 31 70  1  0  0  0  0
 32 71  1  0  0  0  0
 32 75  2  0  0  0  0
 33 47  1  0  0  0  0
 33 72  1  0  0  0  0
 33 76  2  0  0  0  0
 34 60  1  0  0  0  0
 34 68  1  0  0  0  0
 34 77  2  0  0  0  0
 35 62  1  0  0  0  0
 35 69  1  0  0  0  0
 35 78  2  0  0  0  0
 36 61  1  0  0  0  0
 36 73  1  0  0  0  0
 36 79  2  0  0  0  0
 37 40  1  0  0  0  0
 38 47  1  0  0  0  0
 39 68  1  0  0  0  0
 40 42  1  0  0  0  0
 41 43  1  0  0  0  0
 41 44  1  0  0  0  0
 42 46  1  0  0  0  0
 43 48  1  0  0  0  0
 44 69  1  0  0  0  0
 45 48  1  0  0  0  0
 45 69  1  0  0  0  0
 46 72  1  0  0  0  0
 47 68  1  0  0  0  0
 48 67  1  0  0  0  0
 50 61  1  0  0  0  0
 51 62  1  0  0  0  0
 52 62  1  0  0  0  0
 53 63  1  0  0  0  0
 54 63  1  0  0  0  0
 55 63  1  0  0  0  0
 56 74  1  0  0  0  0
 57 58  1  0  0  0  0
 58 59  1  0  0  0  0
 59 81  1  0  0  0  0
 60 63  1  0  0  0  0
 60 73  1  0  0  0  0
 61 74  1  0  0  0  0
 64 67  1  0  0  0  0
 65 66  2  0  0  0  0
M  CHG  1  74   1
M  ISO  4  35 100  59 101  62 100  81 101
M  END
> <Batch ID>
0074

> <Smiles>
CNC(C)C(=O)NC(C(=O)N1Cc2cc([101O:1][101CH2:1]CCc3cc([100C:0](C)(C)[100C:0](=O)N4CCCC(n5nc(-c6ccc(Oc7ccc(F)cc7F)cc6)c(C(N)=O)c5N)C4)nnc3C)ccc2CC1C(=O)NC1CCCc2ccccc21)C(C)(C)C

> <Shape>
0.262

> <Color>
0.044

> <Negative vol penalty>
0.000

$$$$

  -OEChem-04052318293D

 88 96  0     1  0  0  0  0  0999 V2000
  -17.7614  -10.1736   27.0455 C   0  0  0  0  0  0  0  0  0  0  0  0
  -18.5542  -11.2283   26.6045 C   0  0  0  0  0  0  0  0  0  0  0  0
  -23.2869   -9.8006   19.9126 C   0  0  0  0  0  0  0  0  0  0  0  0
  -23.7362   -9.9413   22.2823 C   0  0  0  0  0  0  0  0  0  0  0  0
  -17.7677   -9.8140   28.3925 C   0  0  0  0  0  0  0  0  0  0  0  0
  -19.3530  -11.9248   27.5107 C   0  0  0  0  0  0  0  0  0  0  0  0
  -24.0269  -12.7510   25.7451 C   0  0  0  0  0  0  0  0  0  0  0  0
  -22.5596   -8.6286   20.1201 C   0  0  0  0  0  0  0  0  0  0  0  0
  -23.0089   -8.7693   22.4898 C   0  0  0  0  0  0  0  0  0  0  0  0
  -24.1856  -13.7840   24.8223 C   0  0  0  0  0  0  0  0  0  0  0  0
  -19.4473   -7.0807   20.8020 C   0  0  0  0  0  0  0  0  0  0  0  0
  -18.0806   -7.2028   21.0524 C   0  0  0  0  0  0  0  0  0  0  0  0
  -24.9949  -15.2228   26.5812 C   0  0  0  0  0  0  0  0  0  0  0  0
  -18.5274   -7.3434   23.4226 C   0  0  0  0  0  0  0  0  0  0  0  0
  -28.5842  -16.8450   26.8289 C   0  0  0  0  0  0  0  0  0  0  0  0
  -23.8753  -10.4570   20.9937 C   0  0  0  0  0  0  0  0  0  0  0  0
  -24.1365  -12.9868   20.7948 C   0  0  0  0  0  0  0  0  0  0  0  0
  -18.5743  -10.5002   29.3140 C   0  0  0  0  0  0  0  0  0  0  0  0
  -24.3413  -12.9498   27.0971 C   0  0  0  0  0  0  0  0  0  0  0  0
  -19.3691  -11.5749   28.8716 C   0  0  0  0  0  0  0  0  0  0  0  0
  -24.8417  -14.1899   27.5187 C   0  0  0  0  0  0  0  0  0  0  0  0
  -22.4206   -8.1130   21.4087 C   0  0  0  0  0  0  0  0  0  0  0  0
  -24.6669  -15.0210   25.2408 C   0  0  0  0  0  0  0  0  0  0  0  0
  -20.3541   -7.0900   21.8619 C   0  0  0  0  0  0  0  0  0  0  0  0
  -17.6206   -7.3341   22.3627 C   0  0  0  0  0  0  0  0  0  0  0  0
  -19.8942   -7.2213   23.1721 C   0  0  0  0  0  0  0  0  0  0  0  0
  -24.6272  -11.6674   20.7800 C   0  0  0  0  0  0  0  0  0  0  0  0
  -29.0068  -16.3305   25.6357 C   0  0  0  0  0  0  0  0  0  0  0  0
  -25.2386  -13.7659   20.5404 C   0  0  0  0  0  0  0  0  0  0  0  0
  -27.1541  -17.4839   25.2646 C   0  0  0  0  0  0  0  0  0  0  0  0
  -22.8036  -13.4653   21.0187 C   0  0  0  0  0  0  0  0  0  0  0  0
  -22.6996  -12.8655   29.8177 C   0  0  0  0  0  0  0  0  0  0  0  0
  -25.6315  -13.2684   31.1457 C   0  0  0  0  0  0  0  0  0  0  0  0
  -28.8429  -14.3698   30.7983 C   0  0  0  0  0  0  0  0  0  0  0  0
  -31.1085  -12.9191   21.3641 C   0  0  0  0  0  0  0  0  0  0  0  0
  -18.5118  -10.1057   30.7684 C   0  0  0  0  0  0  0  0  0  0  0  0
  -24.1897  -11.8172   28.0752 C   0  0  0  0  0  0  0  0  0  0  0  0
  -25.2130  -14.4484   28.9553 C   0  0  0  0  0  0  0  0  0  0  0  0
  -19.6704  -10.6529   31.5982 C   0  0  0  0  0  0  0  0  0  0  0  0
  -29.4621  -13.6591   18.2951 C   0  0  0  0  0  0  0  0  0  0  0  0
  -19.8948  -12.1304   31.2925 C   0  0  0  0  0  0  0  0  0  0  0  0
  -27.9920  -13.3516   18.5853 C   0  0  0  0  0  0  0  0  0  0  0  0
  -30.3943  -12.6792   19.0043 C   0  0  0  0  0  0  0  0  0  0  0  0
  -28.7062  -12.2512   20.7481 C   0  0  0  0  0  0  0  0  0  0  0  0
  -20.2679  -12.3387   29.8198 C   0  0  1  0  0  0  0  0  0  0  0  0
  -24.0548  -12.2891   29.5196 C   0  0  1  0  0  0  0  0  0  0  0  0
  -27.7293  -13.2470   20.0997 C   0  0  2  0  0  0  0  0  0  0  0  0
  -29.2341  -16.9337   21.0526 C   0  0  0  0  0  0  0  0  0  0  0  0
  -31.2467  -14.7660   31.4005 C   0  0  0  0  0  0  0  0  0  0  0  0
  -23.5036  -18.0151   24.0960 C   0  0  0  0  0  0  0  0  0  0  0  0
  -24.4825  -15.6600   32.6524 C   0  0  0  0  0  0  0  0  0  0  0  0
  -26.8271  -16.3960   33.1317 C   0  0  0  0  0  0  0  0  0  0  0  0
  -26.0052  -14.2086   34.0049 C   0  0  0  0  0  0  0  0  0  0  0  0
  -30.5531  -11.5650   25.4139 C   0  0  0  0  0  0  0  0  0  0  0  0
  -32.1791  -13.2725   26.2173 C   0  0  0  0  0  0  0  0  0  0  0  0
  -29.6758  -11.7636   29.6700 C   0  0  0  0  0  0  0  0  0  0  0  0
  -30.1724  -15.4965   25.3183 C   0  0  0  0  0  0  0  0  0  0  0  0
  -25.9709  -18.1339   24.5870 C   0  0  0  0  0  0  0  0  0  0  0  0
  -29.1952  -17.2718   22.5338 C   0  0  0  0  0  0  0  0  0  0  0  0
  -29.8707  -13.9794   25.4205 C   0  0  0  0  0  0  0  0  0  0  0  0
  -28.1614  -16.4234   23.2709 C   0  0  0  0  0  0  0  0  0  0  0  0
  -31.6689  -13.1329   23.7723 C   0  0  0  0  0  0  0  0  0  0  0  0
  -26.4752  -14.4588   31.5333 C   0  0  1  0  0  0  0  0  0  0  0  0
  -30.1726  -13.7215   31.1393 C   0  0  2  0  0  0  0  0  0  0  0  0
  -24.6687  -17.3635   24.8300 C   0  0  2  0  0  0  0  0  0  1  0  0
  -25.9388  -15.1769   32.8038 C   0  0  0  0  0  0  0  0  0  0  0  0
  -31.0609  -13.0059   25.1891 C   0  0  0  0  0  0  0  0  0  0  0  0
  -25.9389  -11.6078   20.5353 N   0  0  0  0  0  0  0  0  0  0  0  0
  -28.1031  -16.7411   24.6855 N   0  0  0  0  0  0  0  0  0  0  0  0
  -26.2818  -12.8995   20.3940 N   0  0  0  0  0  0  0  0  0  0  0  0
  -27.4363  -17.5542   26.5695 N   0  3  0  0  0  0  0  0  0  0  0  0
  -25.0412  -13.3114   29.8747 N   0  0  0  0  0  0  0  0  0  0  0  0
  -30.0940  -12.6282   20.4372 N   0  0  0  0  0  0  0  0  0  0  0  0
  -25.4075  -15.1007   20.4299 N   0  0  0  0  0  0  0  0  0  0  0  0
  -21.7902  -12.5291   21.2657 N   0  0  0  0  0  0  0  0  0  0  0  0
  -21.6543  -11.9895   29.5953 N   0  0  0  0  0  0  0  0  0  0  0  0
  -27.8429  -13.9666   31.6578 N   0  0  0  0  0  0  0  0  0  0  0  0
  -30.7379  -12.8541   22.7017 N   0  0  0  0  0  0  0  0  0  0  0  0
  -30.6267  -12.8506   30.0185 N   0  3  0  0  0  0  0  0  0  0  0  0
  -22.5165  -14.6859   20.9840 O   0  0  0  0  0  0  0  0  0  0  0  0
  -22.6091  -14.0191   30.2210 O   0  0  0  0  0  0  0  0  0  0  0  0
  -25.5069  -12.3317   31.9386 O   0  0  0  0  0  0  0  0  0  0  0  0
  -28.7060  -15.1581   29.8654 O   0  0  0  0  0  0  0  0  0  0  0  0
  -32.2579  -13.2201   21.0247 O   0  0  0  0  0  0  0  0  0  0  0  0
  -21.7108   -6.9695   21.6115 O   0  0  0  0  0  0  0  0  0  0  0  0
  -24.8221  -16.0312   24.3423 O   0  0  0  0  0  0  0  0  0  1  0  0
  -16.3082   -7.4528   22.6029 F   0  0  0  0  0  0  0  0  0  0  0  0
  -20.7606   -7.2320   24.1944 F   0  0  0  0  0  0  0  0  0  0  0  0
  1  2  1  0  0  0  0
  1  5  2  0  0  0  0
  2  6  2  0  0  0  0
  3  8  2  0  0  0  0
  3 16  1  0  0  0  0
  4  9  1  0  0  0  0
  4 16  2  0  0  0  0
  5 18  1  0  0  0  0
  6 20  1  0  0  0  0
  7 10  2  0  0  0  0
  7 19  1  0  0  0  0
  8 22  1  0  0  0  0
  9 22  2  0  0  0  0
 10 23  1  0  0  0  0
 11 12  2  0  0  0  0
 11 24  1  0  0  0  0
 12 25  1  0  0  0  0
 13 21  1  0  0  0  0
 13 23  2  0  0  0  0
 14 25  2  0  0  0  0
 14 26  1  0  0  0  0
 15 28  2  0  0  0  0
 15 71  1  0  0  0  0
 16 27  1  0  0  0  0
 17 27  1  0  0  0  0
 17 29  2  0  0  0  0
 17 31  1  0  0  0  0
 18 20  2  0  0  0  0
 18 36  1  0  0  0  0
 19 21  2  0  0  0  0
 19 37  1  0  0  0  0
 20 45  1  0  0  0  0
 21 38  1  0  0  0  0
 22 85  1  0  0  0  0
 23 86  1  0  0  0  0
 24 26  2  0  0  0  0
 24 85  1  0  0  0  0
 25 87  1  0  0  0  0
 26 88  1  0  0  0  0
 27 68  2  0  0  0  0
 28 57  1  0  0  0  0
 28 69  1  0  0  0  0
 29 70  1  0  0  0  0
 29 74  1  0  0  0  0
 30 58  1  0  0  0  0
 30 69  1  0  0  0  0
 30 71  2  0  0  0  0
 31 75  1  0  0  0  0
 31 80  2  0  0  0  0
 32 46  1  0  0  0  0
 32 76  1  0  0  0  0
 32 81  2  0  0  0  0
 33 63  1  0  0  0  0
 33 72  1  0  0  0  0
 33 82  2  0  0  0  0
 34 64  1  0  0  0  0
 34 77  1  0  0  0  0
 34 83  2  0  0  0  0
 35 73  1  0  0  0  0
 35 78  1  0  0  0  0
 35 84  2  0  0  0  0
 36 39  1  0  0  0  0
 37 46  1  0  0  0  0
 38 72  1  0  0  0  0
 39 41  1  0  0  0  0
 40 42  1  0  0  0  0
 40 43  1  0  0  0  0
 41 45  1  0  0  0  0
 42 47  1  0  0  0  0
 43 73  1  0  0  0  0
 44 47  1  0  0  0  0
 44 73  1  0  0  0  0
 45 76  1  0  0  0  0
 46 72  1  0  0  0  0
 47 70  1  0  0  0  0
 48 59  1  0  0  0  0
 49 64  1  0  0  0  0
 50 65  1  0  0  0  0
 51 66  1  0  0  0  0
 52 66  1  0  0  0  0
 53 66  1  0  0  0  0
 54 67  1  0  0  0  0
 55 67  1  0  0  0  0
 56 79  1  0  0  0  0
 57 60  1  0  0  0  0
 58 65  1  0  0  0  0
 59 61  1  0  0  0  0
 60 67  1  0  0  0  0
 61 69  1  0  0  0  0
 62 67  1  0  0  0  0
 62 78  1  0  0  0  0
 63 66  1  0  0  0  0
 63 77  1  0  0  0  0
 64 79  1  0  0  0  0
 65 86  1  0  0  0  0
 68 70  1  0  0  0  0
M  CHG  2  71   1  79   1
M  ISO  4  35 100  65 101  78 100  86 101
M  END
> <Batch ID>
0074

> <Smiles>
CCCn1c(CCC(C)(C)C[100NH:0][100C:0](=O)N2CCCC(n3nc(-c4ccc(Oc5ccc(F)cc5F)cc4)c(C(N)=O)c3N)C2)cnc1C[101CH:1](C)[101O:1]c1ccc2c(c1)CN(C(=O)C(NC(=O)C(C)NC)C(C)(C)C)C(C(=O)NC1CCCc3ccccc31)C2

> <Shape>
0.131

> <Color>
0.167

> <Negative vol penalty>
0.000

$$$$

  -OEChem-04052318293D

 85 93  0     1  0  0  0  0  0999 V2000
  -21.7780  -13.0258   22.3510 C   0  0  0  0  0  0  0  0  0  0  0  0
  -22.2518  -14.2212   22.8820 C   0  0  0  0  0  0  0  0  0  0  0  0
  -24.6679  -30.8391   25.0819 C   0  0  0  0  0  0  0  0  0  0  0  0
  -26.2603  -29.0890   24.5939 C   0  0  0  0  0  0  0  0  0  0  0  0
  -22.5719  -12.2924   21.4703 C   0  0  0  0  0  0  0  0  0  0  0  0
  -23.5203  -14.6834   22.5333 C   0  0  0  0  0  0  0  0  0  0  0  0
  -23.5558  -19.6303   21.4507 C   0  0  0  0  0  0  0  0  0  0  0  0
  -25.4336  -31.2296   26.1804 C   0  0  0  0  0  0  0  0  0  0  0  0
  -27.0261  -29.4794   25.6924 C   0  0  0  0  0  0  0  0  0  0  0  0
  -23.5360  -20.5175   22.5260 C   0  0  0  0  0  0  0  0  0  0  0  0
  -27.1564  -32.9167   28.9009 C   0  0  0  0  0  0  0  0  0  0  0  0
  -27.3843  -34.2810   29.0805 C   0  0  0  0  0  0  0  0  0  0  0  0
  -24.3493  -26.2469   20.2246 C   0  0  0  0  0  0  0  0  0  0  0  0
  -25.9178  -20.8292   22.3049 C   0  0  0  0  0  0  0  0  0  0  0  0
  -28.4757  -34.3821   26.9274 C   0  0  0  0  0  0  0  0  0  0  0  0
  -24.7552  -26.9526   21.3389 C   0  0  0  0  0  0  0  0  0  0  0  0
  -25.0812  -29.7688   24.2886 C   0  0  0  0  0  0  0  0  0  0  0  0
  -24.4001  -29.8331   21.8311 C   0  0  0  0  0  0  0  0  0  0  0  0
  -23.8470  -12.7507   21.1031 C   0  0  0  0  0  0  0  0  0  0  0  0
  -24.7606  -19.3270   20.8003 C   0  0  0  0  0  0  0  0  0  0  0  0
  -24.3326  -13.9548   21.6479 C   0  0  0  0  0  0  0  0  0  0  0  0
  -25.9499  -19.9398   21.2200 C   0  0  0  0  0  0  0  0  0  0  0  0
  -26.6128  -30.5498   26.4857 C   0  0  0  0  0  0  0  0  0  0  0  0
  -24.7175  -21.1150   22.9551 C   0  0  0  0  0  0  0  0  0  0  0  0
  -27.5881  -32.2850   27.7346 C   0  0  0  0  0  0  0  0  0  0  0  0
  -28.0440  -35.0137   28.0937 C   0  0  0  0  0  0  0  0  0  0  0  0
  -28.2478  -33.0177   26.7478 C   0  0  0  0  0  0  0  0  0  0  0  0
  -24.2903  -29.3646   23.1541 C   0  0  0  0  0  0  0  0  0  0  0  0
  -23.7609  -25.0238   20.4741 C   0  0  0  0  0  0  0  0  0  0  0  0
  -23.4326  -29.1439   21.1415 C   0  0  0  0  0  0  0  0  0  0  0  0
  -24.0157  -25.3019   22.7157 C   0  0  0  0  0  0  0  0  0  0  0  0
  -25.2964  -30.8043   21.2752 C   0  0  0  0  0  0  0  0  0  0  0  0
  -26.4659  -16.6815   20.3567 C   0  0  0  0  0  0  0  0  0  0  0  0
  -28.2577  -18.6193   18.4708 C   0  0  0  0  0  0  0  0  0  0  0  0
  -20.8298  -24.3246   20.0062 C   0  0  0  0  0  0  0  0  0  0  0  0
  -29.2722  -21.7867   17.7059 C   0  0  0  0  0  0  0  0  0  0  0  0
  -24.6876  -11.8997   20.1846 C   0  0  0  0  0  0  0  0  0  0  0  0
  -24.7609  -18.3883   19.6250 C   0  0  0  0  0  0  0  0  0  0  0  0
  -27.2663  -19.6633   20.5426 C   0  0  0  0  0  0  0  0  0  0  0  0
  -25.8701  -12.6474   19.5739 C   0  0  0  0  0  0  0  0  0  0  0  0
  -19.6382  -26.2451   22.7868 C   0  0  0  0  0  0  0  0  0  0  0  0
  -26.6083  -13.4444   20.6447 C   0  0  0  0  0  0  0  0  0  0  0  0
  -20.7645  -27.2463   23.0406 C   0  0  0  0  0  0  0  0  0  0  0  0
  -20.1828  -24.8978   22.3229 C   0  0  0  0  0  0  0  0  0  0  0  0
  -22.1935  -25.9817   21.3722 C   0  0  0  0  0  0  0  0  0  0  0  0
  -25.6934  -14.5016   21.2745 C   0  0  1  0  0  0  0  0  0  0  0  0
  -26.1252  -17.7573   19.3647 C   0  0  1  0  0  0  0  0  0  0  0  0
  -21.6849  -27.3656   21.8130 C   0  0  2  0  0  0  0  0  0  0  0  0
  -30.4145  -23.6218   16.4313 C   0  0  0  0  0  0  0  0  0  0  0  0
  -23.3597  -22.6403   19.6442 C   0  0  0  0  0  0  0  0  0  0  0  0
  -24.2563  -24.3113   18.0861 C   0  0  0  0  0  0  0  0  0  0  0  0
  -21.2992  -23.6321   17.7121 C   0  0  0  0  0  0  0  0  0  0  0  0
  -21.5701  -26.0041   18.4047 C   0  0  0  0  0  0  0  0  0  0  0  0
  -30.6906  -17.7308   20.0837 C   0  0  0  0  0  0  0  0  0  0  0  0
  -31.9427  -19.6820   19.1385 C   0  0  0  0  0  0  0  0  0  0  0  0
  -31.0788  -17.9022   17.6191 C   0  0  0  0  0  0  0  0  0  0  0  0
  -26.9330  -22.1700   15.9339 C   0  0  0  0  0  0  0  0  0  0  0  0
  -23.8292  -24.7707   24.1145 C   0  0  0  0  0  0  0  0  0  0  0  0
  -25.1138  -24.2261   24.7429 C   0  0  0  0  0  0  0  0  0  0  0  0
  -25.6811  -23.0181   24.0064 C   0  0  0  0  0  0  0  0  0  1  0  0
  -29.4526  -19.5159   18.6884 C   0  0  1  0  0  0  0  0  0  0  0  0
  -29.3649  -22.5224   16.3813 C   0  0  2  0  0  0  0  0  0  0  0  0
  -23.2901  -24.1880   19.3316 C   0  0  0  0  0  0  0  0  0  0  0  0
  -21.7842  -24.5442   18.8595 C   0  0  0  0  0  0  0  0  0  0  0  0
  -30.7668  -18.7117   18.8967 C   0  0  0  0  0  0  0  0  0  0  0  0
  -24.6033  -26.5084   22.6038 N   0  0  0  0  0  0  0  0  0  0  0  0
  -23.3289  -28.4488   23.2987 N   0  0  0  0  0  0  0  0  0  0  0  0
  -23.5777  -24.5186   21.7117 N   0  0  0  0  0  0  0  0  0  0  0  0
  -22.8256  -28.3363   22.0577 N   0  0  0  0  0  0  0  0  0  0  0  0
  -27.2159  -18.7336   19.4021 N   0  0  0  0  0  0  0  0  0  0  0  0
  -21.0701  -25.0563   21.1693 N   0  0  0  0  0  0  0  0  0  0  0  0
  -23.0504  -29.1562   19.8468 N   0  0  0  0  0  0  0  0  0  0  0  0
  -26.2284  -31.4165   22.1244 N   0  0  0  0  0  0  0  0  0  0  0  0
  -25.5568  -15.6414   20.3932 N   0  0  0  0  0  0  0  0  0  0  0  0
  -29.4866  -20.4331   17.5544 N   0  0  0  0  0  0  0  0  0  0  0  0
  -28.0528  -23.1406   16.0392 N   0  3  0  0  0  0  0  0  0  0  0  0
  -25.2608  -31.1319   20.0649 O   0  0  0  0  0  0  0  0  0  0  0  0
  -27.4794  -16.7864   21.0376 O   0  0  0  0  0  0  0  0  0  0  0  0
  -28.2459  -17.8510   17.5057 O   0  0  0  0  0  0  0  0  0  0  0  0
  -19.8974  -23.5283   19.8693 O   0  0  0  0  0  0  0  0  0  0  0  0
  -29.0370  -22.3563   18.7693 O   0  0  0  0  0  0  0  0  0  0  0  0
  -27.3604  -30.9306   27.5574 O   0  0  0  0  0  0  0  0  0  0  0  0
  -24.7011  -21.9808   24.0047 O   0  0  0  0  0  0  0  0  0  1  0  0
  -28.2615  -36.3242   28.2657 F   0  0  0  0  0  0  0  0  0  0  0  0
  -28.6639  -32.4166   25.6247 F   0  0  0  0  0  0  0  0  0  0  0  0
  1  2  1  0  0  0  0
  1  5  2  0  0  0  0
  2  6  2  0  0  0  0
  3  8  2  0  0  0  0
  3 17  1  0  0  0  0
  4  9  1  0  0  0  0
  4 17  2  0  0  0  0
  5 19  1  0  0  0  0
  6 21  1  0  0  0  0
  7 10  2  0  0  0  0
  7 20  1  0  0  0  0
  8 23  1  0  0  0  0
  9 23  2  0  0  0  0
 10 24  1  0  0  0  0
 11 12  2  0  0  0  0
 11 25  1  0  0  0  0
 12 26  1  0  0  0  0
 13 16  1  0  0  0  0
 13 29  2  0  0  0  0
 14 22  1  0  0  0  0
 14 24  2  0  0  0  0
 15 26  2  0  0  0  0
 15 27  1  0  0  0  0
 16 66  2  0  0  0  0
 17 28  1  0  0  0  0
 18 28  1  0  0  0  0
 18 30  2  0  0  0  0
 18 32  1  0  0  0  0
 19 21  2  0  0  0  0
 19 37  1  0  0  0  0
 20 22  2  0  0  0  0
 20 38  1  0  0  0  0
 21 46  1  0  0  0  0
 22 39  1  0  0  0  0
 23 82  1  0  0  0  0
 24 83  1  0  0  0  0
 25 27  2  0  0  0  0
 25 82  1  0  0  0  0
 26 84  1  0  0  0  0
 27 85  1  0  0  0  0
 28 67  2  0  0  0  0
 29 63  1  0  0  0  0
 29 68  1  0  0  0  0
 30 69  1  0  0  0  0
 30 72  1  0  0  0  0
 31 58  1  0  0  0  0
 31 66  1  0  0  0  0
 31 68  2  0  0  0  0
 32 73  1  0  0  0  0
 32 77  2  0  0  0  0
 33 47  1  0  0  0  0
 33 74  1  0  0  0  0
 33 78  2  0  0  0  0
 34 61  1  0  0  0  0
 34 70  1  0  0  0  0
 34 79  2  0  0  0  0
 35 64  1  0  0  0  0
 35 71  1  0  0  0  0
 35 80  2  0  0  0  0
 36 62  1  0  0  0  0
 36 75  1  0  0  0  0
 36 81  2  0  0  0  0
 37 40  1  0  0  0  0
 38 47  1  0  0  0  0
 39 70  1  0  0  0  0
 40 42  1  0  0  0  0
 41 43  1  0  0  0  0
 41 44  1  0  0  0  0
 42 46  1  0  0  0  0
 43 48  1  0  0  0  0
 44 71  1  0  0  0  0
 45 48  1  0  0  0  0
 45 71  1  0  0  0  0
 46 74  1  0  0  0  0
 47 70  1  0  0  0  0
 48 69  1  0  0  0  0
 49 62  1  0  0  0  0
 50 63  1  0  0  0  0
 51 63  1  0  0  0  0
 52 64  1  0  0  0  0
 53 64  1  0  0  0  0
 54 65  1  0  0  0  0
 55 65  1  0  0  0  0
 56 65  1  0  0  0  0
 57 76  1  0  0  0  0
 58 59  1  0  0  0  0
 59 60  1  0  0  0  0
 60 83  1  0  0  0  0
 61 65  1  0  0  0  0
 61 75  1  0  0  0  0
 62 76  1  0  0  0  0
 63 64  1  0  0  0  0
 67 69  1  0  0  0  0
M  CHG  1  76   1
M  ISO  4  35 100  60 101  64 100  83 101
M  END
> <Batch ID>
0074

> <Smiles>
CNC(C)C(=O)NC(C(=O)N1Cc2cc([101O:1][101CH2:1]CCc3nccc(C(C)(C)[100C:0](C)(C)[100C:0](=O)N4CCCC(n5nc(-c6ccc(Oc7ccc(F)cc7F)cc6)c(C(N)=O)c5N)C4)n3)ccc2CC1C(=O)NC1CCCc2ccccc21)C(C)(C)C

> <Shape>
0.205

> <Color>
0.057

> <Negative vol penalty>
0.000

$$$$

  -OEChem-04052318293D

 90 98  0     1  0  0  0  0  0999 V2000
  -29.1113  -12.5448   18.9547 C   0  0  0  0  0  0  0  0  0  0  0  0
  -28.6907  -13.7495   18.4005 C   0  0  0  0  0  0  0  0  0  0  0  0
  -29.6148  -22.4062   21.6194 C   0  0  0  0  0  0  0  0  0  0  0  0
  -30.1794  -22.8605   19.3146 C   0  0  0  0  0  0  0  0  0  0  0  0
  -28.2602  -11.8320   19.7982 C   0  0  0  0  0  0  0  0  0  0  0  0
  -27.4183  -14.2416   18.6887 C   0  0  0  0  0  0  0  0  0  0  0  0
  -23.8906  -20.4109   19.5900 C   0  0  0  0  0  0  0  0  0  0  0  0
  -29.8645  -21.0495   21.4132 C   0  0  0  0  0  0  0  0  0  0  0  0
  -30.4291  -21.5037   19.1084 C   0  0  0  0  0  0  0  0  0  0  0  0
  -22.7537  -21.0778   19.1358 C   0  0  0  0  0  0  0  0  0  0  0  0
  -28.6283  -18.6911   18.5817 C   0  0  0  0  0  0  0  0  0  0  0  0
  -28.1122  -18.1056   17.4257 C   0  0  0  0  0  0  0  0  0  0  0  0
  -21.3990  -19.8002   20.6694 C   0  0  0  0  0  0  0  0  0  0  0  0
  -30.3491  -17.5245   16.7215 C   0  0  0  0  0  0  0  0  0  0  0  0
  -29.7723  -23.3117   20.5701 C   0  0  0  0  0  0  0  0  0  0  0  0
  -30.4339  -25.6934   21.2006 C   0  0  0  0  0  0  0  0  0  0  0  0
  -26.9803  -12.3205   20.1046 C   0  0  0  0  0  0  0  0  0  0  0  0
  -23.7887  -19.4243   20.5813 C   0  0  0  0  0  0  0  0  0  0  0  0
  -26.5487  -13.5341   19.5360 C   0  0  0  0  0  0  0  0  0  0  0  0
  -22.5365  -19.1240   21.1363 C   0  0  0  0  0  0  0  0  0  0  0  0
  -30.2716  -20.5982   20.1577 C   0  0  0  0  0  0  0  0  0  0  0  0
  -21.5072  -20.7704   19.6734 C   0  0  0  0  0  0  0  0  0  0  0  0
  -30.0048  -18.6934   18.8076 C   0  0  0  0  0  0  0  0  0  0  0  0
  -28.9726  -17.5222   16.4956 C   0  0  0  0  0  0  0  0  0  0  0  0
  -30.8652  -18.1101   17.8775 C   0  0  0  0  0  0  0  0  0  0  0  0
  -29.5140  -24.7133   20.7823 C   0  0  0  0  0  0  0  0  0  0  0  0
  -29.7009  -26.8539   21.2489 C   0  0  0  0  0  0  0  0  0  0  0  0
  -21.5974  -27.9484   21.3673 C   0  0  0  0  0  0  0  0  0  0  0  0
  -22.6886  -28.5610   21.8559 C   0  0  0  0  0  0  0  0  0  0  0  0
  -22.6497  -29.9806   22.1734 C   0  0  0  0  0  0  0  0  0  0  0  0
  -20.3920  -29.9496   21.4496 C   0  0  0  0  0  0  0  0  0  0  0  0
  -31.8265  -25.5662   21.5171 C   0  0  0  0  0  0  0  0  0  0  0  0
  -23.8770  -27.7025   22.0333 C   0  0  0  0  0  0  0  0  0  0  0  0
  -23.6761  -30.6914   22.6645 C   0  0  0  0  0  0  0  0  0  0  0  0
  -24.4209  -16.3123   20.7221 C   0  0  0  0  0  0  0  0  0  0  0  0
  -23.6997  -16.7044   23.8603 C   0  0  0  0  0  0  0  0  0  0  0  0
  -22.0710  -18.5095   26.2552 C   0  0  0  0  0  0  0  0  0  0  0  0
  -26.0781  -11.4912   20.9838 C   0  0  0  0  0  0  0  0  0  0  0  0
  -25.0282  -18.7329   21.0794 C   0  0  0  0  0  0  0  0  0  0  0  0
  -22.3760  -18.0872   22.2169 C   0  0  0  0  0  0  0  0  0  0  0  0
  -24.8859  -12.2675   21.5374 C   0  0  0  0  0  0  0  0  0  0  0  0
  -25.9196  -28.9911   19.2767 C   0  0  0  0  0  0  0  0  0  0  0  0
  -24.2173  -13.0787   20.4320 C   0  0  0  0  0  0  0  0  0  0  0  0
  -27.1437  -28.0841   19.3693 C   0  0  0  0  0  0  0  0  0  0  0  0
  -24.6348  -28.2585   19.6599 C   0  0  0  0  0  0  0  0  0  0  0  0
  -25.9220  -26.6994   21.0927 C   0  0  0  0  0  0  0  0  0  0  0  0
  -25.1850  -14.1130   19.8445 C   0  0  1  0  0  0  0  0  0  0  0  0
  -24.7395  -17.3824   21.7276 C   0  0  1  0  0  0  0  0  0  0  0  0
  -27.2320  -27.4289   20.7567 C   0  0  1  0  0  0  0  0  0  0  0  0
  -19.1543  -30.7353   21.2390 C   0  0  0  0  0  0  0  0  0  0  0  0
  -23.5416  -32.1574   22.9625 C   0  0  0  0  0  0  0  0  0  0  0  0
  -26.0434  -31.0473   23.4664 C   0  0  0  0  0  0  0  0  0  0  0  0
  -21.6368  -18.5637   28.7262 C   0  0  0  0  0  0  0  0  0  0  0  0
  -21.6947  -14.4247   23.5555 C   0  0  0  0  0  0  0  0  0  0  0  0
  -20.6501  -15.1479   25.7128 C   0  0  0  0  0  0  0  0  0  0  0  0
  -23.0204  -14.3715   25.6754 C   0  0  0  0  0  0  0  0  0  0  0  0
  -16.7596  -27.8800   18.7260 C   0  0  0  0  0  0  0  0  0  0  0  0
  -18.3041  -27.4334   16.8127 C   0  0  0  0  0  0  0  0  0  0  0  0
  -23.3690  -21.1537   26.5427 C   0  0  0  0  0  0  0  0  0  0  0  0
  -25.0264  -30.0621   22.9074 C   0  0  0  0  0  0  0  0  0  0  0  0
  -19.4069  -24.9988   18.4829 C   0  0  0  0  0  0  0  0  0  0  0  0
  -19.2786  -23.5512   18.9738 C   0  0  0  0  0  0  0  0  0  0  0  0
  -18.1100  -25.7799   18.7335 C   0  0  0  0  0  0  0  0  0  0  0  0
  -19.2734  -28.0227   19.0889 C   0  0  0  0  0  0  0  0  0  0  0  0
  -19.2402  -27.9170   20.6114 C   0  0  0  0  0  0  0  0  0  0  0  0
  -20.5628  -22.7567   18.7685 C   0  0  0  0  0  0  0  0  0  1  0  0
  -22.4382  -16.6239   24.6855 C   0  0  1  0  0  0  0  0  0  0  0  0
  -22.5319  -19.0497   27.5969 C   0  0  2  0  0  0  0  0  0  0  0  0
  -21.9533  -15.1602   24.8856 C   0  0  0  0  0  0  0  0  0  0  0  0
  -18.1307  -27.2875   18.3359 C   0  0  0  0  0  0  0  0  0  0  0  0
  -28.2900  -25.2080   20.5795 N   0  0  0  0  0  0  0  0  0  0  0  0
  -28.4357  -26.5117   20.8716 N   0  0  0  0  0  0  0  0  0  0  0  0
  -20.3981  -28.6319   21.1455 N   0  0  0  0  0  0  0  0  0  0  0  0
  -24.7641  -27.5913   20.9641 N   0  0  0  0  0  0  0  0  0  0  0  0
  -23.6168  -17.4344   22.6661 N   0  0  0  0  0  0  0  0  0  0  0  0
  -21.4394  -30.6212   21.9381 N   0  3  0  0  0  0  0  0  0  0  0  0
  -30.0216  -28.1236   21.5769 N   0  0  0  0  0  0  0  0  0  0  0  0
  -32.4221  -24.3017   21.4146 N   0  0  0  0  0  0  0  0  0  0  0  0
  -25.3064  -15.2515   20.7297 N   0  0  0  0  0  0  0  0  0  0  0  0
  -22.7169  -17.3361   25.9279 N   0  0  0  0  0  0  0  0  0  0  0  0
  -22.5123  -20.5398   27.5898 N   0  3  0  0  0  0  0  0  0  0  0  0
  -32.5181  -26.5417   21.8959 O   0  0  0  0  0  0  0  0  0  0  0  0
  -24.0093  -27.1315   23.1173 O   0  0  0  0  0  0  0  0  0  0  0  0
  -23.4432  -16.4390   19.9943 O   0  0  0  0  0  0  0  0  0  0  0  0
  -24.7231  -16.1463   24.2640 O   0  0  0  0  0  0  0  0  0  0  0  0
  -21.2202  -19.0703   25.5681 O   0  0  0  0  0  0  0  0  0  0  0  0
  -30.5155  -19.2744   19.9562 O   0  0  0  0  0  0  0  0  0  0  0  0
  -20.3873  -21.4243   19.2280 O   0  0  0  0  0  0  0  0  0  1  0  0
  -28.4768  -16.9586   15.3862 F   0  0  0  0  0  0  0  0  0  0  0  0
  -32.1884  -18.1082   18.0896 F   0  0  0  0  0  0  0  0  0  0  0  0
  1  2  1  0  0  0  0
  1  5  2  0  0  0  0
  2  6  2  0  0  0  0
  3  8  2  0  0  0  0
  3 15  1  0  0  0  0
  4  9  1  0  0  0  0
  4 15  2  0  0  0  0
  5 17  1  0  0  0  0
  6 19  1  0  0  0  0
  7 10  2  0  0  0  0
  7 18  1  0  0  0  0
  8 21  1  0  0  0  0
  9 21  2  0  0  0  0
 10 22  1  0  0  0  0
 11 12  2  0  0  0  0
 11 23  1  0  0  0  0
 12 24  1  0  0  0  0
 13 20  1  0  0  0  0
 13 22  2  0  0  0  0
 14 24  2  0  0  0  0
 14 25  1  0  0  0  0
 15 26  1  0  0  0  0
 16 26  1  0  0  0  0
 16 27  2  0  0  0  0
 16 32  1  0  0  0  0
 17 19  2  0  0  0  0
 17 38  1  0  0  0  0
 18 20  2  0  0  0  0
 18 39  1  0  0  0  0
 19 47  1  0  0  0  0
 20 40  1  0  0  0  0
 21 87  1  0  0  0  0
 22 88  1  0  0  0  0
 23 25  2  0  0  0  0
 23 87  1  0  0  0  0
 24 89  1  0  0  0  0
 25 90  1  0  0  0  0
 26 71  2  0  0  0  0
 27 72  1  0  0  0  0
 27 77  1  0  0  0  0
 28 29  2  0  0  0  0
 28 73  1  0  0  0  0
 29 30  1  0  0  0  0
 29 33  1  0  0  0  0
 30 34  2  0  0  0  0
 30 76  1  0  0  0  0
 31 50  1  0  0  0  0
 31 73  1  0  0  0  0
 31 76  2  0  0  0  0
 32 78  1  0  0  0  0
 32 82  2  0  0  0  0
 33 74  1  0  0  0  0
 33 83  2  0  0  0  0
 34 51  1  0  0  0  0
 34 60  1  0  0  0  0
 35 48  1  0  0  0  0
 35 79  1  0  0  0  0
 35 84  2  0  0  0  0
 36 67  1  0  0  0  0
 36 75  1  0  0  0  0
 36 85  2  0  0  0  0
 37 68  1  0  0  0  0
 37 80  1  0  0  0  0
 37 86  2  0  0  0  0
 38 41  1  0  0  0  0
 39 48  1  0  0  0  0
 40 75  1  0  0  0  0
 41 43  1  0  0  0  0
 42 44  1  0  0  0  0
 42 45  1  0  0  0  0
 43 47  1  0  0  0  0
 44 49  1  0  0  0  0
 45 74  1  0  0  0  0
 46 49  1  0  0  0  0
 46 74  1  0  0  0  0
 47 79  1  0  0  0  0
 48 75  1  0  0  0  0
 49 72  1  0  0  0  0
 52 60  1  0  0  0  0
 53 68  1  0  0  0  0
 54 69  1  0  0  0  0
 55 69  1  0  0  0  0
 56 69  1  0  0  0  0
 57 70  1  0  0  0  0
 58 70  1  0  0  0  0
 59 81  1  0  0  0  0
 61 62  1  0  0  0  0
 61 63  1  0  0  0  0
 62 66  1  0  0  0  0
 63 70  1  0  0  0  0
 64 65  1  0  0  0  0
 64 70  1  0  0  0  0
 65 73  1  0  0  0  0
 66 88  1  0  0  0  0
 67 69  1  0  0  0  0
 67 80  1  0  0  0  0
 68 81  1  0  0  0  0
 71 72  1  0  0  0  0
M  CHG  2  76   1  81   1
M  ISO  4  29 100  33 100  66 101  88 101
M  END
> <Batch ID>
0074

> <Smiles>
C=C1N=C(C(C)CC)[100C:0]([100C:0](=O)N2CCCC(n3nc(-c4ccc(Oc5ccc(F)cc5F)cc4)c(C(N)=O)c3N)C2)=CN1CCC(C)(C)CCC[101CH2:1][101O:1]c1ccc2c(c1)CN(C(=O)C(NC(=O)C(C)NC)C(C)(C)C)C(C(=O)NC1CCCc3ccccc31)C2

> <Shape>
0.203

> <Color>
0.056

> <Negative vol penalty>
0.000

$$$$

  -OEChem-04052318293D

 84 92  0     1  0  0  0  0  0999 V2000
  -22.1607  -35.3378   23.3924 C   0  0  0  0  0  0  0  0  0  0  0  0
  -23.2829  -34.5985   23.0327 C   0  0  0  0  0  0  0  0  0  0  0  0
  -25.6710  -14.4340   20.9309 C   0  0  0  0  0  0  0  0  0  0  0  0
  -25.8449  -14.4269   18.5211 C   0  0  0  0  0  0  0  0  0  0  0  0
  -21.0433  -34.6936   23.9219 C   0  0  0  0  0  0  0  0  0  0  0  0
  -23.2888  -33.2146   23.2032 C   0  0  0  0  0  0  0  0  0  0  0  0
  -26.0201  -29.0741   19.6113 C   0  0  0  0  0  0  0  0  0  0  0  0
  -24.7359  -13.4011   20.8665 C   0  0  0  0  0  0  0  0  0  0  0  0
  -24.9098  -13.3939   18.4567 C   0  0  0  0  0  0  0  0  0  0  0  0
  -27.2360  -28.3997   19.7140 C   0  0  0  0  0  0  0  0  0  0  0  0
  -24.7540  -10.0484   20.4285 C   0  0  0  0  0  0  0  0  0  0  0  0
  -24.9027   -8.9830   21.3165 C   0  0  0  0  0  0  0  0  0  0  0  0
  -26.1015  -26.5186   20.7108 C   0  0  0  0  0  0  0  0  0  0  0  0
  -22.7224   -9.4528   22.2453 C   0  0  0  0  0  0  0  0  0  0  0  0
  -31.5950  -25.0026   19.4476 C   0  0  0  0  0  0  0  0  0  0  0  0
  -26.2255  -14.9470   19.7582 C   0  0  0  0  0  0  0  0  0  0  0  0
  -28.5897  -15.8904   19.9251 C   0  0  0  0  0  0  0  0  0  0  0  0
  -21.0318  -33.3000   24.0900 C   0  0  0  0  0  0  0  0  0  0  0  0
  -24.8354  -28.4792   20.0683 C   0  0  0  0  0  0  0  0  0  0  0  0
  -22.1707  -32.5513   23.7367 C   0  0  0  0  0  0  0  0  0  0  0  0
  -24.8715  -27.1865   20.6104 C   0  0  0  0  0  0  0  0  0  0  0  0
  -24.3553  -12.8810   19.6294 C   0  0  0  0  0  0  0  0  0  0  0  0
  -27.2773  -27.1229   20.2665 C   0  0  0  0  0  0  0  0  0  0  0  0
  -23.5895  -10.8160   20.4490 C   0  0  0  0  0  0  0  0  0  0  0  0
  -23.8869   -8.6852   22.2248 C   0  0  0  0  0  0  0  0  0  0  0  0
  -22.5737  -10.5182   21.3573 C   0  0  0  0  0  0  0  0  0  0  0  0
  -27.1911  -16.0144   19.8240 C   0  0  0  0  0  0  0  0  0  0  0  0
  -31.7422  -23.6612   19.2335 C   0  0  0  0  0  0  0  0  0  0  0  0
  -29.0480  -17.1849   19.9535 C   0  0  0  0  0  0  0  0  0  0  0  0
  -30.8268  -23.9380   21.2300 C   0  0  0  0  0  0  0  0  0  0  0  0
  -29.4021  -14.7107   19.9877 C   0  0  0  0  0  0  0  0  0  0  0  0
  -22.6877  -29.1854   22.3027 C   0  0  0  0  0  0  0  0  0  0  0  0
  -21.1077  -26.6533   21.0320 C   0  0  0  0  0  0  0  0  0  0  0  0
  -21.2549  -23.7329   19.2725 C   0  0  0  0  0  0  0  0  0  0  0  0
  -28.9672  -22.4197   18.0207 C   0  0  0  0  0  0  0  0  0  0  0  0
  -19.8186  -32.6536   24.7104 C   0  0  0  0  0  0  0  0  0  0  0  0
  -23.5280  -29.2091   19.9259 C   0  0  0  0  0  0  0  0  0  0  0  0
  -23.6249  -26.4956   21.0972 C   0  0  0  0  0  0  0  0  0  0  0  0
  -19.7648  -31.1412   24.5101 C   0  0  0  0  0  0  0  0  0  0  0  0
  -26.5497  -21.5509   20.4860 C   0  0  0  0  0  0  0  0  0  0  0  0
  -21.1186  -30.5126   24.8243 C   0  0  0  0  0  0  0  0  0  0  0  0
  -26.6122  -20.0233   20.5371 C   0  0  0  0  0  0  0  0  0  0  0  0
  -26.7477  -22.0766   19.0660 C   0  0  0  0  0  0  0  0  0  0  0  0
  -28.0295  -20.0661   18.4423 C   0  0  0  0  0  0  0  0  0  0  0  0
  -22.2060  -31.0455   23.8834 C   0  0  1  0  0  0  0  0  0  0  0  0
  -22.4585  -28.7139   20.8946 C   0  0  1  0  0  0  0  0  0  0  0  0
  -27.8910  -19.4915   19.8625 C   0  0  2  0  0  0  0  0  0  0  0  0
  -30.2353  -23.6418   22.5586 C   0  0  0  0  0  0  0  0  0  0  0  0
  -19.8048  -21.8682   18.4255 C   0  0  0  0  0  0  0  0  0  0  0  0
  -31.9329  -27.3178   21.5770 C   0  0  0  0  0  0  0  0  0  0  0  0
  -32.9661  -21.5291   18.4255 C   0  0  0  0  0  0  0  0  0  0  0  0
  -33.4233  -23.7282   17.3715 C   0  0  0  0  0  0  0  0  0  0  0  0
  -20.9627  -25.4898   23.8489 C   0  0  0  0  0  0  0  0  0  0  0  0
  -20.3886  -23.2762   22.8298 C   0  0  0  0  0  0  0  0  0  0  0  0
  -18.8708  -25.2287   22.5035 C   0  0  0  0  0  0  0  0  0  0  0  0
  -21.9470  -24.3188   16.4553 C   0  0  0  0  0  0  0  0  0  0  0  0
  -31.2119  -22.6015   16.9779 C   0  0  0  0  0  0  0  0  0  0  0  0
  -29.6363  -27.2571   20.5363 C   0  0  0  0  0  0  0  0  0  1  0  0
  -21.0882  -25.1661   21.2905 C   0  0  1  0  0  0  0  0  0  0  0  0
  -20.4312  -23.2167   18.1065 C   0  0  2  0  0  0  0  0  0  0  0  0
  -30.6777  -26.4721   21.3456 C   0  0  1  0  0  0  0  0  0  0  0  0
  -32.2861  -22.9167   18.0949 C   0  0  0  0  0  0  0  0  0  0  0  0
  -20.3516  -24.8037   22.6109 C   0  0  0  0  0  0  0  0  0  0  0  0
  -26.7873  -17.2871   19.7906 N   0  0  0  0  0  0  0  0  0  0  0  0
  -31.0259  -25.1449   20.6902 N   0  0  0  0  0  0  0  0  0  0  0  0
  -27.9391  -17.9748   19.8712 N   0  0  0  0  0  0  0  0  0  0  0  0
  -31.2590  -23.0267   20.3524 N   0  3  0  0  0  0  0  0  0  0  0  0
  -22.3719  -27.2529   20.9422 N   0  0  0  0  0  0  0  0  0  0  0  0
  -27.9785  -21.5360   18.4838 N   0  0  0  0  0  0  0  0  0  0  0  0
  -30.2872  -17.7132   20.0406 N   0  0  0  0  0  0  0  0  0  0  0  0
  -28.7693  -13.4608   19.9464 N   0  0  0  0  0  0  0  0  0  0  0  0
  -22.1101  -30.4079   22.5878 N   0  0  0  0  0  0  0  0  0  0  0  0
  -20.5143  -24.5521   20.0981 N   0  0  0  0  0  0  0  0  0  0  0  0
  -30.1049  -21.8246   17.4894 N   0  0  0  0  0  0  0  0  0  0  0  0
  -21.2865  -23.0631   16.8958 N   0  3  0  0  0  0  0  0  0  0  0  0
  -30.6508  -14.7633   20.0940 O   0  0  0  0  0  0  0  0  0  0  0  0
  -23.3391  -28.4907   23.0740 O   0  0  0  0  0  0  0  0  0  0  0  0
  -20.0406  -27.2595   20.9070 O   0  0  0  0  0  0  0  0  0  0  0  0
  -22.4362  -23.4358   19.4367 O   0  0  0  0  0  0  0  0  0  0  0  0
  -28.8474  -23.6481   18.0814 O   0  0  0  0  0  0  0  0  0  0  0  0
  -23.4430  -11.8729   19.5662 O   0  0  0  0  0  0  0  0  0  0  0  0
  -28.4629  -26.4627   20.3685 O   0  0  0  0  0  0  0  0  0  1  0  0
  -24.0293   -7.6611   23.0765 F   0  0  0  0  0  0  0  0  0  0  0  0
  -21.4522  -11.2513   21.3809 F   0  0  0  0  0  0  0  0  0  0  0  0
  1  2  1  0  0  0  0
  1  5  2  0  0  0  0
  2  6  2  0  0  0  0
  3  8  2  0  0  0  0
  3 16  1  0  0  0  0
  4  9  1  0  0  0  0
  4 16  2  0  0  0  0
  5 18  1  0  0  0  0
  6 20  1  0  0  0  0
  7 10  2  0  0  0  0
  7 19  1  0  0  0  0
  8 22  1  0  0  0  0
  9 22  2  0  0  0  0
 10 23  1  0  0  0  0
 11 12  2  0  0  0  0
 11 24  1  0  0  0  0
 12 25  1  0  0  0  0
 13 21  1  0  0  0  0
 13 23  2  0  0  0  0
 14 25  2  0  0  0  0
 14 26  1  0  0  0  0
 15 28  2  0  0  0  0
 15 65  1  0  0  0  0
 16 27  1  0  0  0  0
 17 27  1  0  0  0  0
 17 29  2  0  0  0  0
 17 31  1  0  0  0  0
 18 20  2  0  0  0  0
 18 36  1  0  0  0  0
 19 21  2  0  0  0  0
 19 37  1  0  0  0  0
 20 45  1  0  0  0  0
 21 38  1  0  0  0  0
 22 81  1  0  0  0  0
 23 82  1  0  0  0  0
 24 26  2  0  0  0  0
 24 81  1  0  0  0  0
 25 83  1  0  0  0  0
 26 84  1  0  0  0  0
 27 64  2  0  0  0  0
 28 62  1  0  0  0  0
 28 67  1  0  0  0  0
 29 66  1  0  0  0  0
 29 70  1  0  0  0  0
 30 48  1  0  0  0  0
 30 65  1  0  0  0  0
 30 67  2  0  0  0  0
 31 71  1  0  0  0  0
 31 76  2  0  0  0  0
 32 46  1  0  0  0  0
 32 72  1  0  0  0  0
 32 77  2  0  0  0  0
 33 59  1  0  0  0  0
 33 68  1  0  0  0  0
 33 78  2  0  0  0  0
 34 60  1  0  0  0  0
 34 73  1  0  0  0  0
 34 79  2  0  0  0  0
 35 69  1  0  0  0  0
 35 74  1  0  0  0  0
 35 80  2  0  0  0  0
 36 39  1  0  0  0  0
 37 46  1  0  0  0  0
 38 68  1  0  0  0  0
 39 41  1  0  0  0  0
 40 42  1  0  0  0  0
 40 43  1  0  0  0  0
 41 45  1  0  0  0  0
 42 47  1  0  0  0  0
 43 69  1  0  0  0  0
 44 47  1  0  0  0  0
 44 69  1  0  0  0  0
 45 72  1  0  0  0  0
 46 68  1  0  0  0  0
 47 66  1  0  0  0  0
 49 60  1  0  0  0  0
 50 61  1  0  0  0  0
 51 62  1  0  0  0  0
 52 62  1  0  0  0  0
 53 63  1  0  0  0  0
 54 63  1  0  0  0  0
 55 63  1  0  0  0  0
 56 75  1  0  0  0  0
 57 62  1  0  0  0  0
 57 74  1  0  0  0  0
 58 61  1  0  0  0  0
 58 82  1  0  0  0  0
 59 63  1  0  0  0  0
 59 73  1  0  0  0  0
 60 75  1  0  0  0  0
 61 65  1  0  0  0  0
 64 66  1  0  0  0  0
M  CHG  2  67   1  75   1
M  ISO  4  35 100  58 101  74 100  82 101
M  END
> <Batch ID>
0074

> <Smiles>
CNC(C)C(=O)NC(C(=O)N1Cc2cc([101O:1][101CH2:1]C(C)n3cc(C(C)(C)C[100NH:0][100C:0](=O)N4CCCC(n5nc(-c6ccc(Oc7ccc(F)cc7F)cc6)c(C(N)=O)c5N)C4)nc3C)ccc2CC1C(=O)NC1CCCc2ccccc21)C(C)(C)C

> <Shape>
0.250

> <Color>
0.094

> <Negative vol penalty>
0.000

$$$$

  -OEChem-04052318293D

 86 94  0     1  0  0  0  0  0999 V2000
  -22.3684  -10.9776   19.5023 C   0  0  0  0  0  0  0  0  0  0  0  0
  -21.8138  -12.1282   20.0535 C   0  0  0  0  0  0  0  0  0  0  0  0
  -26.0335  -26.7035   19.4512 C   0  0  0  0  0  0  0  0  0  0  0  0
  -26.8663  -28.4686   20.8752 C   0  0  0  0  0  0  0  0  0  0  0  0
  -23.7482  -10.7815   19.5435 C   0  0  0  0  0  0  0  0  0  0  0  0
  -22.6386  -13.0830   20.6472 C   0  0  0  0  0  0  0  0  0  0  0  0
  -23.1529  -20.1540   21.6732 C   0  0  0  0  0  0  0  0  0  0  0  0
  -24.8241  -27.3846   19.3141 C   0  0  0  0  0  0  0  0  0  0  0  0
  -25.6569  -29.1498   20.7381 C   0  0  0  0  0  0  0  0  0  0  0  0
  -23.3336  -21.0835   22.6965 C   0  0  0  0  0  0  0  0  0  0  0  0
  -22.0126  -27.8578   21.1297 C   0  0  0  0  0  0  0  0  0  0  0  0
  -20.8360  -27.1189   21.2527 C   0  0  0  0  0  0  0  0  0  0  0  0
  -25.7105  -20.6756   22.6391 C   0  0  0  0  0  0  0  0  0  0  0  0
  -28.5956  -25.7202   26.6277 C   0  0  0  0  0  0  0  0  0  0  0  0
  -20.2077  -27.7454   19.0054 C   0  0  0  0  0  0  0  0  0  0  0  0
  -27.5524  -27.5857   25.6079 C   0  0  0  0  0  0  0  0  0  0  0  0
  -27.0546  -27.2454   20.2318 C   0  0  0  0  0  0  0  0  0  0  0  0
  -29.4450  -26.6619   19.5585 C   0  0  0  0  0  0  0  0  0  0  0  0
  -24.5912  -11.7389   20.1294 C   0  0  0  0  0  0  0  0  0  0  0  0
  -24.2503  -19.4691   21.1318 C   0  0  0  0  0  0  0  0  0  0  0  0
  -24.0308  -12.8989   20.6974 C   0  0  0  0  0  0  0  0  0  0  0  0
  -25.5413  -19.7397   21.6073 C   0  0  0  0  0  0  0  0  0  0  0  0
  -27.4359  -26.3487   26.2094 C   0  0  0  0  0  0  0  0  0  0  0  0
  -24.6358  -28.6079   19.9575 C   0  0  0  0  0  0  0  0  0  0  0  0
  -24.6122  -21.3424   23.1816 C   0  0  0  0  0  0  0  0  0  0  0  0
  -22.2868  -28.5405   19.9446 C   0  0  0  0  0  0  0  0  0  0  0  0
  -19.9335  -27.0627   20.1905 C   0  0  0  0  0  0  0  0  0  0  0  0
  -21.3844  -28.4843   18.8825 C   0  0  0  0  0  0  0  0  0  0  0  0
  -28.3040  -26.5419   20.3743 C   0  0  0  0  0  0  0  0  0  0  0  0
  -29.7950  -26.3701   26.4166 C   0  0  0  0  0  0  0  0  0  0  0  0
  -30.3534  -25.7908   20.1084 C   0  0  0  0  0  0  0  0  0  0  0  0
  -29.6642  -27.4871   18.4067 C   0  0  0  0  0  0  0  0  0  0  0  0
  -25.1257  -16.4185   20.9553 C   0  0  0  0  0  0  0  0  0  0  0  0
  -30.9253  -23.5661   25.6614 C   0  0  0  0  0  0  0  0  0  0  0  0
  -27.5115  -17.6144   19.1113 C   0  0  0  0  0  0  0  0  0  0  0  0
  -29.4532  -20.2893   18.2617 C   0  0  0  0  0  0  0  0  0  0  0  0
  -26.0722  -11.4608   20.1922 C   0  0  0  0  0  0  0  0  0  0  0  0
  -24.0416  -18.4891   20.0100 C   0  0  0  0  0  0  0  0  0  0  0  0
  -26.7547  -19.0462   21.0459 C   0  0  0  0  0  0  0  0  0  0  0  0
  -26.9113  -12.6968   20.5061 C   0  0  0  0  0  0  0  0  0  0  0  0
  -30.6184  -21.7253   22.6024 C   0  0  0  0  0  0  0  0  0  0  0  0
  -26.3044  -13.4723   21.6710 C   0  0  0  0  0  0  0  0  0  0  0  0
  -30.0670  -22.7553   21.6174 C   0  0  0  0  0  0  0  0  0  0  0  0
  -30.0639  -21.9430   24.0067 C   0  0  0  0  0  0  0  0  0  0  0  0
  -29.7332  -24.3533   23.5565 C   0  0  0  0  0  0  0  0  0  0  0  0
  -24.8948  -13.9694   21.3281 C   0  0  1  0  0  0  0  0  0  0  0  0
  -25.1728  -17.4731   19.8860 C   0  0  1  0  0  0  0  0  0  0  0  0
  -30.2920  -24.1881   22.1321 C   0  0  2  0  0  0  0  0  0  0  0  0
  -31.3428  -20.9503   16.7484 C   0  0  0  0  0  0  0  0  0  0  0  0
  -34.0611  -25.8446   25.9334 C   0  0  0  0  0  0  0  0  0  0  0  0
  -33.8003  -23.5885   24.8769 C   0  0  0  0  0  0  0  0  0  0  0  0
  -33.4731  -23.8801   27.3390 C   0  0  0  0  0  0  0  0  0  0  0  0
  -29.4807  -16.1774   20.9464 C   0  0  0  0  0  0  0  0  0  0  0  0
  -31.3021  -17.6096   19.9980 C   0  0  0  0  0  0  0  0  0  0  0  0
  -30.0412  -16.0523   18.5123 C   0  0  0  0  0  0  0  0  0  0  0  0
  -27.7906  -22.3074   16.8755 C   0  0  0  0  0  0  0  0  0  0  0  0
  -26.0873  -25.7029   26.4045 C   0  0  0  0  0  0  0  0  0  0  0  0
  -31.0729  -25.7363   26.8478 C   0  0  0  0  0  0  0  0  0  0  0  0
  -25.6491  -24.8180   25.2323 C   0  0  0  0  0  0  0  0  0  0  0  0
  -24.2474  -24.2341   25.4142 C   0  0  0  0  0  0  0  0  0  0  0  0
  -23.8630  -23.3301   24.2508 C   0  0  0  0  0  0  0  0  0  1  0  0
  -31.7223  -24.8427   25.7566 C   0  0  1  0  0  0  0  0  0  0  0  0
  -28.9027  -18.1398   19.3713 C   0  0  1  0  0  0  0  0  0  0  0  0
  -29.8329  -20.8699   16.9114 C   0  0  2  0  0  0  0  0  0  0  0  0
  -33.2438  -24.5331   25.9585 C   0  0  0  0  0  0  0  0  0  0  0  0
  -29.9088  -17.0066   19.7191 C   0  0  0  0  0  0  0  0  0  0  0  0
  -28.7395  -28.1984   25.4141 N   0  0  0  0  0  0  0  0  0  0  0  0
  -28.4698  -25.6636   21.3668 N   0  0  0  0  0  0  0  0  0  0  0  0
  -29.8793  -27.5804   25.8249 N   0  0  0  0  0  0  0  0  0  0  0  0
  -29.7257  -25.2238   21.1783 N   0  0  0  0  0  0  0  0  0  0  0  0
  -26.4982  -18.0918   19.9546 N   0  0  0  0  0  0  0  0  0  0  0  0
  -30.2774  -23.3217   24.4504 N   0  0  0  0  0  0  0  0  0  0  0  0
  -31.6200  -25.4621   19.7763 N   0  0  0  0  0  0  0  0  0  0  0  0
  -28.6251  -28.3234   17.9764 N   0  0  0  0  0  0  0  0  0  0  0  0
  -24.9640  -15.1341   20.4720 N   0  0  0  0  0  0  0  0  0  0  0  0
  -29.2688  -18.9243   18.1970 N   0  0  0  0  0  0  0  0  0  0  0  0
  -29.2703  -22.2417   16.7608 N   0  3  0  0  0  0  0  0  0  0  0  0
  -30.7436  -27.4708   17.7678 O   0  0  0  0  0  0  0  0  0  0  0  0
  -25.2299  -16.7458   22.1316 O   0  0  0  0  0  0  0  0  0  0  0  0
  -30.8836  -22.8085   26.6343 O   0  0  0  0  0  0  0  0  0  0  0  0
  -27.3293  -16.8155   18.1893 O   0  0  0  0  0  0  0  0  0  0  0  0
  -29.3359  -20.9771   19.2734 O   0  0  0  0  0  0  0  0  0  0  0  0
  -23.4558  -29.2730   19.8237 O   0  0  0  0  0  0  0  0  0  0  0  0
  -24.7914  -22.2487   24.1807 O   0  0  0  0  0  0  0  0  0  1  0  0
  -18.8043  -26.3519   20.3082 F   0  0  0  0  0  0  0  0  0  0  0  0
  -21.6429  -29.1371   17.7411 F   0  0  0  0  0  0  0  0  0  0  0  0
  1  2  1  0  0  0  0
  1  5  2  0  0  0  0
  2  6  2  0  0  0  0
  3  8  2  0  0  0  0
  3 17  1  0  0  0  0
  4  9  1  0  0  0  0
  4 17  2  0  0  0  0
  5 19  1  0  0  0  0
  6 21  1  0  0  0  0
  7 10  2  0  0  0  0
  7 20  1  0  0  0  0
  8 24  1  0  0  0  0
  9 24  2  0  0  0  0
 10 25  1  0  0  0  0
 11 12  2  0  0  0  0
 11 26  1  0  0  0  0
 12 27  1  0  0  0  0
 13 22  1  0  0  0  0
 13 25  2  0  0  0  0
 14 23  2  0  0  0  0
 14 30  1  0  0  0  0
 15 27  2  0  0  0  0
 15 28  1  0  0  0  0
 16 23  1  0  0  0  0
 16 67  2  0  0  0  0
 17 29  1  0  0  0  0
 18 29  1  0  0  0  0
 18 31  2  0  0  0  0
 18 32  1  0  0  0  0
 19 21  2  0  0  0  0
 19 37  1  0  0  0  0
 20 22  2  0  0  0  0
 20 38  1  0  0  0  0
 21 46  1  0  0  0  0
 22 39  1  0  0  0  0
 23 57  1  0  0  0  0
 24 83  1  0  0  0  0
 25 84  1  0  0  0  0
 26 28  2  0  0  0  0
 26 83  1  0  0  0  0
 27 85  1  0  0  0  0
 28 86  1  0  0  0  0
 29 68  2  0  0  0  0
 30 58  1  0  0  0  0
 30 69  2  0  0  0  0
 31 70  1  0  0  0  0
 31 73  1  0  0  0  0
 32 74  1  0  0  0  0
 32 78  2  0  0  0  0
 33 47  1  0  0  0  0
 33 75  1  0  0  0  0
 33 79  2  0  0  0  0
 34 62  1  0  0  0  0
 34 72  1  0  0  0  0
 34 80  2  0  0  0  0
 35 63  1  0  0  0  0
 35 71  1  0  0  0  0
 35 81  2  0  0  0  0
 36 64  1  0  0  0  0
 36 76  1  0  0  0  0
 36 82  2  0  0  0  0
 37 40  1  0  0  0  0
 38 47  1  0  0  0  0
 39 71  1  0  0  0  0
 40 42  1  0  0  0  0
 41 43  1  0  0  0  0
 41 44  1  0  0  0  0
 42 46  1  0  0  0  0
 43 48  1  0  0  0  0
 44 72  1  0  0  0  0
 45 48  1  0  0  0  0
 45 72  1  0  0  0  0
 46 75  1  0  0  0  0
 47 71  1  0  0  0  0
 48 70  1  0  0  0  0
 49 64  1  0  0  0  0
 50 65  1  0  0  0  0
 51 65  1  0  0  0  0
 52 65  1  0  0  0  0
 53 66  1  0  0  0  0
 54 66  1  0  0  0  0
 55 66  1  0  0  0  0
 56 77  1  0  0  0  0
 57 59  1  0  0  0  0
 58 62  1  0  0  0  0
 59 60  1  0  0  0  0
 60 61  1  0  0  0  0
 61 84  1  0  0  0  0
 62 65  1  0  0  0  0
 63 66  1  0  0  0  0
 63 76  1  0  0  0  0
 64 77  1  0  0  0  0
 67 69  1  0  0  0  0
 68 70  1  0  0  0  0
M  CHG  1  77   1
M  ISO  4  34 100  61 101  62 100  84 101
M  END
> <Batch ID>
0074

> <Smiles>
CNC(C)C(=O)NC(C(=O)N1Cc2cc([101O:1][101CH2:1]CCCc3cnnc(C[100CH:0]([100C:0](=O)N4CCCC(n5nc(-c6ccc(Oc7ccc(F)cc7F)cc6)c(C(N)=O)c5N)C4)C(C)(C)C)c3)ccc2CC1C(=O)NC1CCCc2ccccc21)C(C)(C)C

> <Shape>
0.186

> <Color>
0.068

> <Negative vol penalty>
0.000

$$$$

  -OEChem-04052318293D

 81 89  0     1  0  0  0  0  0999 V2000
  -22.0441  -12.1835   18.8605 C   0  0  0  0  0  0  0  0  0  0  0  0
  -21.9360  -13.5683   18.9375 C   0  0  0  0  0  0  0  0  0  0  0  0
  -19.7364  -27.1912   23.9232 C   0  0  0  0  0  0  0  0  0  0  0  0
  -19.5441  -26.8938   21.5333 C   0  0  0  0  0  0  0  0  0  0  0  0
  -23.1160  -11.5340   19.4714 C   0  0  0  0  0  0  0  0  0  0  0  0
  -22.8992  -14.3045   19.6265 C   0  0  0  0  0  0  0  0  0  0  0  0
  -24.3771  -18.4284   17.0861 C   0  0  0  0  0  0  0  0  0  0  0  0
  -18.5164  -27.8673   23.9373 C   0  0  0  0  0  0  0  0  0  0  0  0
  -18.3240  -27.5698   21.5474 C   0  0  0  0  0  0  0  0  0  0  0  0
  -23.5253  -19.5319   17.1126 C   0  0  0  0  0  0  0  0  0  0  0  0
  -17.3744  -30.9601   23.1929 C   0  0  0  0  0  0  0  0  0  0  0  0
  -17.2958  -32.1385   23.9350 C   0  0  0  0  0  0  0  0  0  0  0  0
  -24.8983  -20.5433   18.8187 C   0  0  0  0  0  0  0  0  0  0  0  0
  -15.5483  -31.1676   25.2917 C   0  0  0  0  0  0  0  0  0  0  0  0
  -23.7094  -25.0192   17.9159 C   0  0  0  0  0  0  0  0  0  0  0  0
  -20.2503  -26.7045   22.7212 C   0  0  0  0  0  0  0  0  0  0  0  0
  -21.7182  -24.6229   22.8613 C   0  0  0  0  0  0  0  0  0  0  0  0
  -24.0981  -12.2635   20.1600 C   0  0  0  0  0  0  0  0  0  0  0  0
  -25.4917  -18.3692   17.9350 C   0  0  0  0  0  0  0  0  0  0  0  0
  -23.9845  -13.6641   20.2484 C   0  0  0  0  0  0  0  0  0  0  0  0
  -25.7641  -19.4392   18.7993 C   0  0  0  0  0  0  0  0  0  0  0  0
  -17.8102  -28.0565   22.7494 C   0  0  0  0  0  0  0  0  0  0  0  0
  -23.7842  -20.5882   17.9810 C   0  0  0  0  0  0  0  0  0  0  0  0
  -16.5399  -29.8855   23.5000 C   0  0  0  0  0  0  0  0  0  0  0  0
  -16.3828  -32.2423   24.9844 C   0  0  0  0  0  0  0  0  0  0  0  0
  -15.6268  -29.9892   24.5495 C   0  0  0  0  0  0  0  0  0  0  0  0
  -21.5107  -26.0066   22.7060 C   0  0  0  0  0  0  0  0  0  0  0  0
  -24.8493  -25.6107   17.4324 C   0  0  0  0  0  0  0  0  0  0  0  0
  -23.0798  -24.4675   22.7702 C   0  0  0  0  0  0  0  0  0  0  0  0
  -20.7653  -23.5720   23.0692 C   0  0  0  0  0  0  0  0  0  0  0  0
  -26.4220  -16.4408   20.2844 C   0  0  0  0  0  0  0  0  0  0  0  0
  -29.1294  -18.2223   20.1492 C   0  0  0  0  0  0  0  0  0  0  0  0
  -27.5906  -26.7152   19.8809 C   0  0  0  0  0  0  0  0  0  0  0  0
  -30.6160  -21.1738   19.2972 C   0  0  0  0  0  0  0  0  0  0  0  0
  -25.2130  -11.5132   20.8446 C   0  0  0  0  0  0  0  0  0  0  0  0
  -26.4158  -17.1839   17.8753 C   0  0  0  0  0  0  0  0  0  0  0  0
  -26.9589  -19.4334   19.7163 C   0  0  0  0  0  0  0  0  0  0  0  0
  -26.3926  -12.3993   21.2366 C   0  0  0  0  0  0  0  0  0  0  0  0
  -26.9807  -27.4376   23.3373 C   0  0  0  0  0  0  0  0  0  0  0  0
  -25.9005  -13.6743   21.9142 C   0  0  0  0  0  0  0  0  0  0  0  0
  -25.5191  -27.0380   23.5350 C   0  0  0  0  0  0  0  0  0  0  0  0
  -27.2171  -28.0206   21.9475 C   0  0  0  0  0  0  0  0  0  0  0  0
  -25.3198  -26.7262   21.0274 C   0  0  0  0  0  0  0  0  0  0  0  0
  -25.0226  -14.4996   20.9656 C   0  0  1  0  0  0  0  0  0  0  0  0
  -27.2336  -16.9991   19.1498 C   0  0  1  0  0  0  0  0  0  0  0  0
  -25.0440  -26.1042   22.4078 C   0  0  2  0  0  0  0  0  0  0  0  0
  -32.8336  -22.3475   19.3420 C   0  0  0  0  0  0  0  0  0  0  0  0
  -28.1398  -25.4805   17.8357 C   0  0  0  0  0  0  0  0  0  0  0  0
  -26.6066  -24.4694   19.5314 C   0  0  0  0  0  0  0  0  0  0  0  0
  -28.8058  -18.7144   23.1430 C   0  0  0  0  0  0  0  0  0  0  0  0
  -30.4362  -20.6033   22.9381 C   0  0  0  0  0  0  0  0  0  0  0  0
  -31.1548  -18.2745   22.4061 C   0  0  0  0  0  0  0  0  0  0  0  0
  -30.6711  -21.4293   16.3493 C   0  0  0  0  0  0  0  0  0  0  0  0
  -25.8113  -26.4728   18.1310 C   0  0  0  0  0  0  0  0  0  0  0  0
  -21.9734  -23.4948   16.7739 C   0  0  0  0  0  0  0  0  0  0  0  0
  -22.2842  -22.0021   16.7949 C   0  0  0  0  0  0  0  0  0  1  0  0
  -29.6101  -19.4890   20.8152 C   0  0  1  0  0  0  0  0  0  0  0  0
  -31.8901  -21.4750   18.5289 C   0  0  2  0  0  0  0  0  0  0  0  0
  -27.0203  -25.7775   18.8468 C   0  0  0  0  0  0  0  0  0  0  0  0
  -29.9780  -19.2699   22.3098 C   0  0  0  0  0  0  0  0  0  0  0  0
  -22.6494  -26.6822   22.5298 N   0  0  0  0  0  0  0  0  0  0  0  0
  -25.0142  -25.2824   16.1154 N   0  0  0  0  0  0  0  0  0  0  0  0
  -24.0022  -24.4983   15.7604 N   0  0  0  0  0  0  0  0  0  0  0  0
  -23.2209  -24.3418   16.8413 N   0  0  0  0  0  0  0  0  0  0  0  0
  -23.5855  -25.7189   22.5739 N   0  0  0  0  0  0  0  0  0  0  0  0
  -27.8291  -18.2494   19.6255 N   0  0  0  0  0  0  0  0  0  0  0  0
  -26.7320  -27.1138   20.9056 N   0  0  0  0  0  0  0  0  0  0  0  0
  -23.8820  -23.3839   22.8398 N   0  0  0  0  0  0  0  0  0  0  0  0
  -19.4060  -23.9065   23.1377 N   0  0  0  0  0  0  0  0  0  0  0  0
  -25.8430  -15.2159   20.0126 N   0  0  0  0  0  0  0  0  0  0  0  0
  -30.7092  -19.9889   19.9963 N   0  0  0  0  0  0  0  0  0  0  0  0
  -31.5727  -22.1842   17.2572 N   0  3  0  0  0  0  0  0  0  0  0  0
  -21.1104  -22.3739   23.2070 O   0  0  0  0  0  0  0  0  0  0  0  0
  -26.3292  -17.0738   21.3296 O   0  0  0  0  0  0  0  0  0  0  0  0
  -29.8826  -17.2472   20.0894 O   0  0  0  0  0  0  0  0  0  0  0  0
  -28.7653  -27.0791   19.7810 O   0  0  0  0  0  0  0  0  0  0  0  0
  -29.6375  -21.9172   19.2820 O   0  0  0  0  0  0  0  0  0  0  0  0
  -16.6196  -28.7160   22.7628 O   0  0  0  0  0  0  0  0  0  0  0  0
  -22.9540  -21.6661   18.0093 O   0  0  0  0  0  0  0  0  0  1  0  0
  -16.3086  -33.3734   25.6980 F   0  0  0  0  0  0  0  0  0  0  0  0
  -14.8233  -28.9597   24.8501 F   0  0  0  0  0  0  0  0  0  0  0  0
  1  2  1  0  0  0  0
  1  5  2  0  0  0  0
  2  6  2  0  0  0  0
  3  8  2  0  0  0  0
  3 16  1  0  0  0  0
  4  9  1  0  0  0  0
  4 16  2  0  0  0  0
  5 18  1  0  0  0  0
  6 20  1  0  0  0  0
  7 10  2  0  0  0  0
  7 19  1  0  0  0  0
  8 22  1  0  0  0  0
  9 22  2  0  0  0  0
 10 23  1  0  0  0  0
 11 12  2  0  0  0  0
 11 24  1  0  0  0  0
 12 25  1  0  0  0  0
 13 21  1  0  0  0  0
 13 23  2  0  0  0  0
 14 25  2  0  0  0  0
 14 26  1  0  0  0  0
 15 28  2  0  0  0  0
 15 64  1  0  0  0  0
 16 27  1  0  0  0  0
 17 27  1  0  0  0  0
 17 29  2  0  0  0  0
 17 30  1  0  0  0  0
 18 20  2  0  0  0  0
 18 35  1  0  0  0  0
 19 21  2  0  0  0  0
 19 36  1  0  0  0  0
 20 44  1  0  0  0  0
 21 37  1  0  0  0  0
 22 78  1  0  0  0  0
 23 79  1  0  0  0  0
 24 26  2  0  0  0  0
 24 78  1  0  0  0  0
 25 80  1  0  0  0  0
 26 81  1  0  0  0  0
 27 61  2  0  0  0  0
 28 54  1  0  0  0  0
 28 62  1  0  0  0  0
 29 65  1  0  0  0  0
 29 68  1  0  0  0  0
 30 69  1  0  0  0  0
 30 73  2  0  0  0  0
 31 45  1  0  0  0  0
 31 70  1  0  0  0  0
 31 74  2  0  0  0  0
 32 57  1  0  0  0  0
 32 66  1  0  0  0  0
 32 75  2  0  0  0  0
 33 59  1  0  0  0  0
 33 67  1  0  0  0  0
 33 76  2  0  0  0  0
 34 58  1  0  0  0  0
 34 71  1  0  0  0  0
 34 77  2  0  0  0  0
 35 38  1  0  0  0  0
 36 45  1  0  0  0  0
 37 66  1  0  0  0  0
 38 40  1  0  0  0  0
 39 41  1  0  0  0  0
 39 42  1  0  0  0  0
 40 44  1  0  0  0  0
 41 46  1  0  0  0  0
 42 67  1  0  0  0  0
 43 46  1  0  0  0  0
 43 67  1  0  0  0  0
 44 70  1  0  0  0  0
 45 66  1  0  0  0  0
 46 65  1  0  0  0  0
 47 58  1  0  0  0  0
 48 59  1  0  0  0  0
 49 59  1  0  0  0  0
 50 60  1  0  0  0  0
 51 60  1  0  0  0  0
 52 60  1  0  0  0  0
 53 72  1  0  0  0  0
 54 59  1  0  0  0  0
 55 56  1  0  0  0  0
 55 64  1  0  0  0  0
 56 79  1  0  0  0  0
 57 60  1  0  0  0  0
 57 71  1  0  0  0  0
 58 72  1  0  0  0  0
 61 65  1  0  0  0  0
 62 63  2  0  0  0  0
 63 64  1  0  0  0  0
M  CHG  1  72   1
M  ISO  4  33 100  56 101  59 100  79 101
M  END
> <Batch ID>
0074

> <Smiles>
CNC(C)C(=O)NC(C(=O)N1Cc2cc([101O:1][101CH2:1]Cn3cc(C[100C:0](C)(C)[100C:0](=O)N4CCCC(n5nc(-c6ccc(Oc7ccc(F)cc7F)cc6)c(C(N)=O)c5N)C4)nn3)ccc2CC1C(=O)NC1CCCc2ccccc21)C(C)(C)C

> <Shape>
0.181

> <Color>
0.076

> <Negative vol penalty>
0.000

$$$$

  -OEChem-04052318293D

 88 96  0     1  0  0  0  0  0999 V2000
  -31.3049  -12.3020   22.5060 C   0  0  0  0  0  0  0  0  0  0  0  0
  -30.5613  -13.3326   23.0719 C   0  0  0  0  0  0  0  0  0  0  0  0
  -28.4546  -26.2446   18.3541 C   0  0  0  0  0  0  0  0  0  0  0  0
  -28.0422  -25.2887   20.5343 C   0  0  0  0  0  0  0  0  0  0  0  0
  -31.0060  -11.8528   21.2204 C   0  0  0  0  0  0  0  0  0  0  0  0
  -29.5190  -13.9154   22.3520 C   0  0  0  0  0  0  0  0  0  0  0  0
  -24.2483  -16.0755   24.6014 C   0  0  0  0  0  0  0  0  0  0  0  0
  -29.4651  -25.3085   18.1348 C   0  0  0  0  0  0  0  0  0  0  0  0
  -29.0526  -24.3525   20.3150 C   0  0  0  0  0  0  0  0  0  0  0  0
  -23.8250  -17.3636   24.9264 C   0  0  0  0  0  0  0  0  0  0  0  0
  -31.2802  -21.4822   20.1833 C   0  0  0  0  0  0  0  0  0  0  0  0
  -31.0190  -20.1541   20.5198 C   0  0  0  0  0  0  0  0  0  0  0  0
  -22.7710  -17.5560   22.7651 C   0  0  0  0  0  0  0  0  0  0  0  0
  -29.1746  -20.1216   18.9596 C   0  0  0  0  0  0  0  0  0  0  0  0
  -27.7432  -26.2348   19.5539 C   0  0  0  0  0  0  0  0  0  0  0  0
  -25.3343  -27.0696   19.4652 C   0  0  0  0  0  0  0  0  0  0  0  0
  -29.9533  -12.4238   20.4881 C   0  0  0  0  0  0  0  0  0  0  0  0
  -23.9449  -15.5213   23.3495 C   0  0  0  0  0  0  0  0  0  0  0  0
  -29.2065  -13.4744   21.0549 C   0  0  0  0  0  0  0  0  0  0  0  0
  -23.1894  -16.2598   22.4276 C   0  0  0  0  0  0  0  0  0  0  0  0
  -29.7641  -24.3624   19.1152 C   0  0  0  0  0  0  0  0  0  0  0  0
  -23.0887  -18.1051   24.0071 C   0  0  0  0  0  0  0  0  0  0  0  0
  -30.4887  -22.1302   19.2350 C   0  0  0  0  0  0  0  0  0  0  0  0
  -29.9662  -19.4737   19.9079 C   0  0  0  0  0  0  0  0  0  0  0  0
  -29.4359  -21.4498   18.6231 C   0  0  0  0  0  0  0  0  0  0  0  0
  -26.6997  -27.2020   19.7813 C   0  0  0  0  0  0  0  0  0  0  0  0
  -25.0144  -24.8731   25.9331 C   0  0  0  0  0  0  0  0  0  0  0  0
  -23.0611  -25.6284   24.2774 C   0  0  0  0  0  0  0  0  0  0  0  0
  -24.1152  -23.9585   25.4305 C   0  0  0  0  0  0  0  0  0  0  0  0
  -23.9597  -26.5431   24.7804 C   0  0  0  0  0  0  0  0  0  0  0  0
  -24.7701  -28.2519   19.8778 C   0  0  0  0  0  0  0  0  0  0  0  0
  -24.6382  -25.9756   18.8534 C   0  0  0  0  0  0  0  0  0  0  0  0
  -25.6578  -14.4886   20.8790 C   0  0  0  0  0  0  0  0  0  0  0  0
  -22.7604  -13.5511   19.7616 C   0  0  0  0  0  0  0  0  0  0  0  0
  -26.4590  -32.2782   24.0068 C   0  0  0  0  0  0  0  0  0  0  0  0
  -19.3720  -13.9564   19.7970 C   0  0  0  0  0  0  0  0  0  0  0  0
  -29.6980  -11.9369   19.0837 C   0  0  0  0  0  0  0  0  0  0  0  0
  -24.3860  -14.1205   23.0245 C   0  0  0  0  0  0  0  0  0  0  0  0
  -22.8201  -15.7027   21.0779 C   0  0  0  0  0  0  0  0  0  0  0  0
  -28.3369  -12.3538   18.5324 C   0  0  0  0  0  0  0  0  0  0  0  0
  -25.7958  -32.8708   20.5356 C   0  0  0  0  0  0  0  0  0  0  0  0
  -28.0791  -13.8317   18.8083 C   0  0  0  0  0  0  0  0  0  0  0  0
  -25.8566  -31.4755   19.9153 C   0  0  0  0  0  0  0  0  0  0  0  0
  -26.8013  -33.0204   21.6730 C   0  0  0  0  0  0  0  0  0  0  0  0
  -26.7281  -30.5887   22.1241 C   0  0  0  0  0  0  0  0  0  0  0  0
  -28.0523  -14.1151   20.3151 C   0  0  1  0  0  0  0  0  0  0  0  0
  -24.4607  -13.8503   21.5249 C   0  0  1  0  0  0  0  0  0  0  0  0
  -25.7068  -30.3853   20.9911 C   0  0  2  0  0  0  0  0  0  0  0  0
  -26.1084  -24.4605   26.8574 C   0  0  0  0  0  0  0  0  0  0  0  0
  -21.9671  -26.0405   23.3528 C   0  0  0  0  0  0  0  0  0  0  0  0
  -17.2710  -13.0701   18.7493 C   0  0  0  0  0  0  0  0  0  0  0  0
  -23.7347  -30.9376   25.2485 C   0  0  0  0  0  0  0  0  0  0  0  0
  -27.5638  -30.2603   24.8990 C   0  0  0  0  0  0  0  0  0  0  0  0
  -26.1992  -31.7566   26.3660 C   0  0  0  0  0  0  0  0  0  0  0  0
  -23.3849  -15.0980   17.2067 C   0  0  0  0  0  0  0  0  0  0  0  0
  -20.9526  -14.9813   16.6245 C   0  0  0  0  0  0  0  0  0  0  0  0
  -22.2833  -12.8826   16.8420 C   0  0  0  0  0  0  0  0  0  0  0  0
  -18.3052  -13.0682   22.4108 C   0  0  0  0  0  0  0  0  0  0  0  0
  -24.1953  -22.4969   25.7924 C   0  0  0  0  0  0  0  0  0  0  0  0
  -23.8797  -27.9881   24.4237 C   0  0  0  0  0  0  0  0  0  0  0  0
  -23.3410  -21.5938   24.9001 C   0  0  0  0  0  0  0  0  0  0  0  0
  -25.0926  -28.8305   24.8765 C   0  0  0  0  0  0  0  0  0  0  0  0
  -23.4946  -20.1111   25.2183 C   0  0  0  0  0  0  0  0  0  1  0  0
  -21.6812  -14.1895   18.9209 C   0  0  1  0  0  0  0  0  0  0  0  0
  -18.2388  -12.9534   19.9166 C   0  0  2  0  0  0  0  0  0  0  0  0
  -24.9889  -30.3527   24.5797 C   0  0  2  0  0  0  0  0  0  0  0  0
  -26.2976  -31.1255   24.9655 C   0  0  0  0  0  0  0  0  0  0  0  0
  -22.0840  -14.2994   17.4231 C   0  0  0  0  0  0  0  0  0  0  0  0
  -26.9856  -28.3759   20.3507 N   0  0  0  0  0  0  0  0  0  0  0  0
  -23.1226  -24.3196   24.5934 N   0  0  0  0  0  0  0  0  0  0  0  0
  -24.9526  -26.1819   25.6173 N   0  0  0  0  0  0  0  0  0  0  0  0
  -25.7921  -28.9920   20.3955 N   0  0  0  0  0  0  0  0  0  0  0  0
  -23.2799  -14.3310   20.8045 N   0  0  0  0  0  0  0  0  0  0  0  0
  -26.6412  -31.9533   22.6625 N   0  0  0  0  0  0  0  0  0  0  0  0
  -23.5044  -28.7204   19.8446 N   0  0  0  0  0  0  0  0  0  0  0  0
  -25.3702  -24.8365   18.4916 N   0  0  0  0  0  0  0  0  0  0  0  0
  -26.7899  -13.6963   20.8857 N   0  0  0  0  0  0  0  0  0  0  0  0
  -20.4676  -13.4154   19.1580 N   0  0  0  0  0  0  0  0  0  0  0  0
  -17.4805  -13.1768   21.1799 N   0  3  0  0  0  0  0  0  0  0  0  0
  -23.4064  -26.0139   18.6190 O   0  0  0  0  0  0  0  0  0  0  0  0
  -25.5612  -15.6158   20.4081 O   0  0  0  0  0  0  0  0  0  0  0  0
  -23.1240  -12.4002   19.5069 O   0  0  0  0  0  0  0  0  0  0  0  0
  -26.4210  -33.4324   24.4412 O   0  0  0  0  0  0  0  0  0  0  0  0
  -19.2919  -15.1060   20.2242 O   0  0  0  0  0  0  0  0  0  0  0  0
  -30.7498  -23.4485   18.9014 O   0  0  0  0  0  0  0  0  0  0  0  0
  -22.6748  -19.3627   24.3215 O   0  0  0  0  0  0  0  0  0  1  0  0
  -29.7163  -18.1978   20.2300 F   0  0  0  0  0  0  0  0  0  0  0  0
  -28.6727  -22.0666   17.7104 F   0  0  0  0  0  0  0  0  0  0  0  0
  1  2  1  0  0  0  0
  1  5  2  0  0  0  0
  2  6  2  0  0  0  0
  3  8  2  0  0  0  0
  3 15  1  0  0  0  0
  4  9  1  0  0  0  0
  4 15  2  0  0  0  0
  5 17  1  0  0  0  0
  6 19  1  0  0  0  0
  7 10  2  0  0  0  0
  7 18  1  0  0  0  0
  8 21  1  0  0  0  0
  9 21  2  0  0  0  0
 10 22  1  0  0  0  0
 11 12  2  0  0  0  0
 11 23  1  0  0  0  0
 12 24  1  0  0  0  0
 13 20  1  0  0  0  0
 13 22  2  0  0  0  0
 14 24  2  0  0  0  0
 14 25  1  0  0  0  0
 15 26  1  0  0  0  0
 16 26  1  0  0  0  0
 16 31  2  0  0  0  0
 16 32  1  0  0  0  0
 17 19  2  0  0  0  0
 17 37  1  0  0  0  0
 18 20  2  0  0  0  0
 18 38  1  0  0  0  0
 19 46  1  0  0  0  0
 20 39  1  0  0  0  0
 21 85  1  0  0  0  0
 22 86  1  0  0  0  0
 23 25  2  0  0  0  0
 23 85  1  0  0  0  0
 24 87  1  0  0  0  0
 25 88  1  0  0  0  0
 26 69  2  0  0  0  0
 27 29  2  0  0  0  0
 27 49  1  0  0  0  0
 27 71  1  0  0  0  0
 28 30  1  0  0  0  0
 28 50  1  0  0  0  0
 28 70  2  0  0  0  0
 29 59  1  0  0  0  0
 29 70  1  0  0  0  0
 30 60  1  0  0  0  0
 30 71  2  0  0  0  0
 31 72  1  0  0  0  0
 31 75  1  0  0  0  0
 32 76  1  0  0  0  0
 32 80  2  0  0  0  0
 33 47  1  0  0  0  0
 33 77  1  0  0  0  0
 33 81  2  0  0  0  0
 34 64  1  0  0  0  0
 34 73  1  0  0  0  0
 34 82  2  0  0  0  0
 35 67  1  0  0  0  0
 35 74  1  0  0  0  0
 35 83  2  0  0  0  0
 36 65  1  0  0  0  0
 36 78  1  0  0  0  0
 36 84  2  0  0  0  0
 37 40  1  0  0  0  0
 38 47  1  0  0  0  0
 39 73  1  0  0  0  0
 40 42  1  0  0  0  0
 41 43  1  0  0  0  0
 41 44  1  0  0  0  0
 42 46  1  0  0  0  0
 43 48  1  0  0  0  0
 44 74  1  0  0  0  0
 45 48  1  0  0  0  0
 45 74  1  0  0  0  0
 46 77  1  0  0  0  0
 47 73  1  0  0  0  0
 48 72  1  0  0  0  0
 51 65  1  0  0  0  0
 52 66  1  0  0  0  0
 53 67  1  0  0  0  0
 54 67  1  0  0  0  0
 55 68  1  0  0  0  0
 56 68  1  0  0  0  0
 57 68  1  0  0  0  0
 58 79  1  0  0  0  0
 59 61  1  0  0  0  0
 60 62  1  0  0  0  0
 61 63  1  0  0  0  0
 62 66  1  0  0  0  0
 63 86  1  0  0  0  0
 64 68  1  0  0  0  0
 64 78  1  0  0  0  0
 65 79  1  0  0  0  0
 66 67  1  0  0  0  0
 69 72  1  0  0  0  0
M  CHG  1  79   1
M  ISO  4  35 100  63 101  67 100  86 101
M  END
> <Batch ID>
0074

> <Smiles>
CNC(C)C(=O)NC(C(=O)N1Cc2cc([101O:1][101CH2:1]CCc3nc(C)c(CCC(C)[100C:0](C)(C)[100C:0](=O)N4CCCC(n5nc(-c6ccc(Oc7ccc(F)cc7F)cc6)c(C(N)=O)c5N)C4)nc3C)ccc2CC1C(=O)NC1CCCc2ccccc21)C(C)(C)C

> <Shape>
0.245

> <Color>
0.065

> <Negative vol penalty>
0.000

$$$$

  -OEChem-04052318293D

 87 95  0     1  0  0  0  0  0999 V2000
  -21.5529  -17.8092   15.8680 C   0  0  0  0  0  0  0  0  0  0  0  0
  -22.6735  -18.3879   16.4550 C   0  0  0  0  0  0  0  0  0  0  0  0
  -23.2928  -27.5684   20.4548 C   0  0  0  0  0  0  0  0  0  0  0  0
  -24.4113  -26.3419   22.2102 C   0  0  0  0  0  0  0  0  0  0  0  0
  -20.9269  -16.7253   16.4822 C   0  0  0  0  0  0  0  0  0  0  0  0
  -23.1683  -17.8837   17.6572 C   0  0  0  0  0  0  0  0  0  0  0  0
  -29.0353  -17.5857   19.3880 C   0  0  0  0  0  0  0  0  0  0  0  0
  -22.0606  -27.1061   20.9168 C   0  0  0  0  0  0  0  0  0  0  0  0
  -23.1791  -25.8796   22.6723 C   0  0  0  0  0  0  0  0  0  0  0  0
  -29.8144  -18.4022   20.2066 C   0  0  0  0  0  0  0  0  0  0  0  0
  -18.5942  -26.5387   21.8533 C   0  0  0  0  0  0  0  0  0  0  0  0
  -17.5532  -27.4611   21.9578 C   0  0  0  0  0  0  0  0  0  0  0  0
  -29.3785  -16.9369   22.0726 C   0  0  0  0  0  0  0  0  0  0  0  0
  -18.8608  -28.7600   23.5199 C   0  0  0  0  0  0  0  0  0  0  0  0
  -27.4262  -21.8119   20.3724 C   0  0  0  0  0  0  0  0  0  0  0  0
  -24.4682  -27.1863   21.1015 C   0  0  0  0  0  0  0  0  0  0  0  0
  -26.4113  -28.8370   21.0179 C   0  0  0  0  0  0  0  0  0  0  0  0
  -21.4199  -16.2015   17.6877 C   0  0  0  0  0  0  0  0  0  0  0  0
  -28.4120  -16.4427   19.9090 C   0  0  0  0  0  0  0  0  0  0  0  0
  -22.5475  -16.7927   18.2889 C   0  0  0  0  0  0  0  0  0  0  0  0
  -28.5941  -16.1061   21.2579 C   0  0  0  0  0  0  0  0  0  0  0  0
  -22.0037  -26.2617   22.0256 C   0  0  0  0  0  0  0  0  0  0  0  0
  -29.9837  -18.0794   21.5498 C   0  0  0  0  0  0  0  0  0  0  0  0
  -19.7685  -26.7268   22.5822 C   0  0  0  0  0  0  0  0  0  0  0  0
  -17.6864  -28.5718   22.7910 C   0  0  0  0  0  0  0  0  0  0  0  0
  -19.9018  -27.8375   23.4155 C   0  0  0  0  0  0  0  0  0  0  0  0
  -25.7414  -27.6631   20.6243 C   0  0  0  0  0  0  0  0  0  0  0  0
  -27.8318  -21.8388   19.0537 C   0  0  0  0  0  0  0  0  0  0  0  0
  -28.2210  -22.5134   21.2559 C   0  0  0  0  0  0  0  0  0  0  0  0
  -27.5696  -28.8353   20.2798 C   0  0  0  0  0  0  0  0  0  0  0  0
  -29.6187  -23.1425   19.5774 C   0  0  0  0  0  0  0  0  0  0  0  0
  -26.0215  -29.8394   21.9660 C   0  0  0  0  0  0  0  0  0  0  0  0
  -25.3994  -15.4846   20.2405 C   0  0  0  0  0  0  0  0  0  0  0  0
  -26.7944  -12.7314   21.2385 C   0  0  0  0  0  0  0  0  0  0  0  0
  -30.6895  -24.3827   17.7199 C   0  0  0  0  0  0  0  0  0  0  0  0
  -29.5271  -11.1889   22.5801 C   0  0  0  0  0  0  0  0  0  0  0  0
  -20.6814  -15.0588   18.3385 C   0  0  0  0  0  0  0  0  0  0  0  0
  -27.5966  -15.5577   19.0065 C   0  0  0  0  0  0  0  0  0  0  0  0
  -27.9630  -14.8789   21.8613 C   0  0  0  0  0  0  0  0  0  0  0  0
  -21.4914  -14.3467   19.4188 C   0  0  0  0  0  0  0  0  0  0  0  0
  -29.3704  -27.3089   16.1270 C   0  0  0  0  0  0  0  0  0  0  0  0
  -22.1505  -15.3613   20.3479 C   0  0  0  0  0  0  0  0  0  0  0  0
  -28.3309  -27.8220   17.1228 C   0  0  0  0  0  0  0  0  0  0  0  0
  -29.4307  -25.7846   16.1185 C   0  0  0  0  0  0  0  0  0  0  0  0
  -28.6368  -25.6904   18.4600 C   0  0  0  0  0  0  0  0  0  0  0  0
  -23.1287  -16.2584   19.5800 C   0  0  1  0  0  0  0  0  0  0  0  0
  -26.5882  -14.6991   19.7637 C   0  0  1  0  0  0  0  0  0  0  0  0
  -28.5652  -27.2265   18.5224 C   0  0  2  0  0  0  0  0  0  0  0  0
  -27.0350  -21.1095   18.0244 C   0  0  0  0  0  0  0  0  0  0  0  0
  -30.3557   -8.9367   23.3140 C   0  0  0  0  0  0  0  0  0  0  0  0
  -32.0894  -22.9715   19.1785 C   0  0  0  0  0  0  0  0  0  0  0  0
  -31.1834  -25.1683   19.9447 C   0  0  0  0  0  0  0  0  0  0  0  0
  -25.0893  -12.9288   23.7612 C   0  0  0  0  0  0  0  0  0  0  0  0
  -26.6065  -11.2508   24.8340 C   0  0  0  0  0  0  0  0  0  0  0  0
  -25.2861  -10.6231   22.8128 C   0  0  0  0  0  0  0  0  0  0  0  0
  -30.3271  -20.3179   25.8196 C   0  0  0  0  0  0  0  0  0  0  0  0
  -32.2452  -20.5534   24.2378 C   0  0  0  0  0  0  0  0  0  0  0  0
  -31.7419  -11.2354   20.6176 C   0  0  0  0  0  0  0  0  0  0  0  0
  -27.8571  -22.5441   22.7192 C   0  0  0  0  0  0  0  0  0  0  0  0
  -28.4832  -21.4072   23.5391 C   0  0  0  0  0  0  0  0  0  0  0  0
  -30.0179  -21.4704   23.5664 C   0  0  0  0  0  0  0  0  0  0  0  0
  -30.3908  -18.9305   23.7329 C   0  0  0  0  0  0  0  0  0  1  0  0
  -27.2565  -12.1883   22.5691 C   0  0  1  0  0  0  0  0  0  0  0  0
  -30.2791   -9.9356   22.1698 C   0  0  2  0  0  0  0  0  0  0  0  0
  -30.8345  -23.8847   19.1359 C   0  0  0  0  0  0  0  0  0  0  0  0
  -26.0700  -11.7720   23.4837 C   0  0  0  0  0  0  0  0  0  0  0  0
  -30.7225  -20.3143   24.3323 C   0  0  0  0  0  0  0  0  0  0  0  0
  -26.4177  -26.9663   19.7072 N   0  0  0  0  0  0  0  0  0  0  0  0
  -28.9269  -22.4964   18.6195 N   0  0  0  0  0  0  0  0  0  0  0  0
  -29.3285  -23.1923   20.8915 N   0  0  0  0  0  0  0  0  0  0  0  0
  -27.5247  -27.7046   19.5184 N   0  0  0  0  0  0  0  0  0  0  0  0
  -27.1698  -14.0488   20.9397 N   0  0  0  0  0  0  0  0  0  0  0  0
  -29.6318  -25.2571   17.4693 N   0  0  0  0  0  0  0  0  0  0  0  0
  -28.6120  -29.6906   20.2143 N   0  0  0  0  0  0  0  0  0  0  0  0
  -24.8001  -29.6862   22.6362 N   0  0  0  0  0  0  0  0  0  0  0  0
  -24.3668  -15.5538   19.3248 N   0  0  0  0  0  0  0  0  0  0  0  0
  -28.1868  -11.1057   22.2673 N   0  0  0  0  0  0  0  0  0  0  0  0
  -31.6677  -10.2784   21.7514 N   0  3  0  0  0  0  0  0  0  0  0  0
  -26.7274  -30.8497   22.1996 O   0  0  0  0  0  0  0  0  0  0  0  0
  -25.4169  -15.9892   21.3571 O   0  0  0  0  0  0  0  0  0  0  0  0
  -26.1310  -12.0108   20.4887 O   0  0  0  0  0  0  0  0  0  0  0  0
  -31.4950  -24.0070   16.8642 O   0  0  0  0  0  0  0  0  0  0  0  0
  -30.0733  -12.1444   23.1270 O   0  0  0  0  0  0  0  0  0  0  0  0
  -20.8015  -25.8106   22.4768 O   0  0  0  0  0  0  0  0  0  0  0  0
  -30.7431  -18.8750   22.3512 O   0  0  0  0  0  0  0  0  0  1  0  0
  -16.6872  -29.4584   22.8900 F   0  0  0  0  0  0  0  0  0  0  0  0
  -21.0281  -28.0242   24.1173 F   0  0  0  0  0  0  0  0  0  0  0  0
  1  2  1  0  0  0  0
  1  5  2  0  0  0  0
  2  6  2  0  0  0  0
  3  8  2  0  0  0  0
  3 16  1  0  0  0  0
  4  9  1  0  0  0  0
  4 16  2  0  0  0  0
  5 18  1  0  0  0  0
  6 20  1  0  0  0  0
  7 10  2  0  0  0  0
  7 19  1  0  0  0  0
  8 22  1  0  0  0  0
  9 22  2  0  0  0  0
 10 23  1  0  0  0  0
 11 12  2  0  0  0  0
 11 24  1  0  0  0  0
 12 25  1  0  0  0  0
 13 21  1  0  0  0  0
 13 23  2  0  0  0  0
 14 25  2  0  0  0  0
 14 26  1  0  0  0  0
 15 28  2  0  0  0  0
 15 29  1  0  0  0  0
 16 27  1  0  0  0  0
 17 27  1  0  0  0  0
 17 30  2  0  0  0  0
 17 32  1  0  0  0  0
 18 20  2  0  0  0  0
 18 37  1  0  0  0  0
 19 21  2  0  0  0  0
 19 38  1  0  0  0  0
 20 46  1  0  0  0  0
 21 39  1  0  0  0  0
 22 84  1  0  0  0  0
 23 85  1  0  0  0  0
 24 26  2  0  0  0  0
 24 84  1  0  0  0  0
 25 86  1  0  0  0  0
 26 87  1  0  0  0  0
 27 68  2  0  0  0  0
 28 49  1  0  0  0  0
 28 69  1  0  0  0  0
 29 59  1  0  0  0  0
 29 70  2  0  0  0  0
 30 71  1  0  0  0  0
 30 74  1  0  0  0  0
 31 65  1  0  0  0  0
 31 69  2  0  0  0  0
 31 70  1  0  0  0  0
 32 75  1  0  0  0  0
 32 79  2  0  0  0  0
 33 47  1  0  0  0  0
 33 76  1  0  0  0  0
 33 80  2  0  0  0  0
 34 63  1  0  0  0  0
 34 72  1  0  0  0  0
 34 81  2  0  0  0  0
 35 65  1  0  0  0  0
 35 73  1  0  0  0  0
 35 82  2  0  0  0  0
 36 64  1  0  0  0  0
 36 77  1  0  0  0  0
 36 83  2  0  0  0  0
 37 40  1  0  0  0  0
 38 47  1  0  0  0  0
 39 72  1  0  0  0  0
 40 42  1  0  0  0  0
 41 43  1  0  0  0  0
 41 44  1  0  0  0  0
 42 46  1  0  0  0  0
 43 48  1  0  0  0  0
 44 73  1  0  0  0  0
 45 48  1  0  0  0  0
 45 73  1  0  0  0  0
 46 76  1  0  0  0  0
 47 72  1  0  0  0  0
 48 71  1  0  0  0  0
 50 64  1  0  0  0  0
 51 65  1  0  0  0  0
 52 65  1  0  0  0  0
 53 66  1  0  0  0  0
 54 66  1  0  0  0  0
 55 66  1  0  0  0  0
 56 67  1  0  0  0  0
 57 67  1  0  0  0  0
 58 78  1  0  0  0  0
 59 60  1  0  0  0  0
 60 61  1  0  0  0  0
 61 67  1  0  0  0  0
 62 67  1  0  0  0  0
 62 85  1  0  0  0  0
 63 66  1  0  0  0  0
 63 77  1  0  0  0  0
 64 78  1  0  0  0  0
 68 71  1  0  0  0  0
M  CHG  1  78   1
M  ISO  4  35 100  62 101  65 100  85 101
M  END
> <Batch ID>
0074

> <Smiles>
CNC(C)C(=O)NC(C(=O)N1Cc2cc([101O:1][101CH2:1]C(C)(C)CCCc3cc(C)nc([100C:0](C)(C)[100C:0](=O)N4CCCC(n5nc(-c6ccc(Oc7ccc(F)cc7F)cc6)c(C(N)=O)c5N)C4)n3)ccc2CC1C(=O)NC1CCCc2ccccc21)C(C)(C)C

> <Shape>
0.250

> <Color>
0.058

> <Negative vol penalty>
0.000

$$$$

  -OEChem-04052318293D

 85 93  0     1  0  0  0  0  0999 V2000
  -24.3243  -36.2314   20.7467 C   0  0  0  0  0  0  0  0  0  0  0  0
  -25.0004  -35.4558   19.8103 C   0  0  0  0  0  0  0  0  0  0  0  0
  -26.8586  -12.6052   21.2125 C   0  0  0  0  0  0  0  0  0  0  0  0
  -26.4786  -13.3861   18.9579 C   0  0  0  0  0  0  0  0  0  0  0  0
  -24.3427  -35.8701   22.0932 C   0  0  0  0  0  0  0  0  0  0  0  0
  -25.6964  -34.3191   20.2201 C   0  0  0  0  0  0  0  0  0  0  0  0
  -27.5033  -27.7640   17.9657 C   0  0  0  0  0  0  0  0  0  0  0  0
  -26.2256  -11.4016   20.9023 C   0  0  0  0  0  0  0  0  0  0  0  0
  -25.8456  -12.1824   18.6477 C   0  0  0  0  0  0  0  0  0  0  0  0
  -28.6236  -26.9485   17.8126 C   0  0  0  0  0  0  0  0  0  0  0  0
  -24.3905   -8.2636   20.8054 C   0  0  0  0  0  0  0  0  0  0  0  0
  -23.4682   -7.7591   21.7221 C   0  0  0  0  0  0  0  0  0  0  0  0
  -28.5202  -26.3772   20.1540 C   0  0  0  0  0  0  0  0  0  0  0  0
  -29.2461  -22.0545   18.1603 C   0  0  0  0  0  0  0  0  0  0  0  0
  -22.1357   -9.7602   21.4828 C   0  0  0  0  0  0  0  0  0  0  0  0
  -26.9850  -13.5975   20.2403 C   0  0  0  0  0  0  0  0  0  0  0  0
  -29.0081  -15.1395   20.4324 C   0  0  0  0  0  0  0  0  0  0  0  0
  -25.0313  -34.7231   22.5184 C   0  0  0  0  0  0  0  0  0  0  0  0
  -26.8885  -27.9011   19.2185 C   0  0  0  0  0  0  0  0  0  0  0  0
  -25.7252  -33.9430   21.5738 C   0  0  0  0  0  0  0  0  0  0  0  0
  -27.3906  -27.1931   20.3198 C   0  0  0  0  0  0  0  0  0  0  0  0
  -30.4823  -22.5452   18.5422 C   0  0  0  0  0  0  0  0  0  0  0  0
  -25.7192  -11.1901   19.6199 C   0  0  0  0  0  0  0  0  0  0  0  0
  -29.1340  -26.2572   18.9075 C   0  0  0  0  0  0  0  0  0  0  0  0
  -24.1855   -9.5165   20.2274 C   0  0  0  0  0  0  0  0  0  0  0  0
  -22.3408   -8.5074   22.0608 C   0  0  0  0  0  0  0  0  0  0  0  0
  -23.0581  -10.2647   20.5661 C   0  0  0  0  0  0  0  0  0  0  0  0
  -27.6383  -14.8413   20.5602 C   0  0  0  0  0  0  0  0  0  0  0  0
  -28.6234  -21.1503   18.9970 C   0  0  0  0  0  0  0  0  0  0  0  0
  -31.0139  -22.0995   19.7357 C   0  0  0  0  0  0  0  0  0  0  0  0
  -29.1182  -16.4391   20.8630 C   0  0  0  0  0  0  0  0  0  0  0  0
  -30.0848  -14.3155   19.9660 C   0  0  0  0  0  0  0  0  0  0  0  0
  -26.3730  -30.3233   21.2112 C   0  0  0  0  0  0  0  0  0  0  0  0
  -24.6727  -28.1014   22.8528 C   0  0  0  0  0  0  0  0  0  0  0  0
  -26.1080  -21.4052   20.7091 C   0  0  0  0  0  0  0  0  0  0  0  0
  -24.1254  -24.8059   23.5505 C   0  0  0  0  0  0  0  0  0  0  0  0
  -25.0621  -34.3991   23.9911 C   0  0  0  0  0  0  0  0  0  0  0  0
  -25.6646  -28.7638   19.3613 C   0  0  0  0  0  0  0  0  0  0  0  0
  -26.7550  -27.2903   21.6818 C   0  0  0  0  0  0  0  0  0  0  0  0
  -25.5114  -32.9714   24.2913 C   0  0  0  0  0  0  0  0  0  0  0  0
  -26.3859  -19.4280   23.6845 C   0  0  0  0  0  0  0  0  0  0  0  0
  -26.7556  -32.6217   23.4812 C   0  0  0  0  0  0  0  0  0  0  0  0
  -26.8395  -18.0633   23.1677 C   0  0  0  0  0  0  0  0  0  0  0  0
  -25.4356  -20.1086   22.7044 C   0  0  0  0  0  0  0  0  0  0  0  0
  -26.4404  -18.8848   20.8032 C   0  0  0  0  0  0  0  0  0  0  0  0
  -26.4708  -32.6890   21.9760 C   0  0  1  0  0  0  0  0  0  0  0  0
  -25.4278  -29.2325   20.7936 C   0  0  1  0  0  0  0  0  0  0  0  0
  -27.4259  -18.1764   21.7493 C   0  0  2  0  0  0  0  0  0  0  0  0
  -32.3419  -22.5837   20.2113 C   0  0  0  0  0  0  0  0  0  0  0  0
  -31.5452  -22.9315   16.2944 C   0  0  0  0  0  0  0  0  0  0  0  0
  -27.1661  -20.3328   17.1044 C   0  0  0  0  0  0  0  0  0  0  0  0
  -23.0020  -22.7898   24.5357 C   0  0  0  0  0  0  0  0  0  0  0  0
  -24.6885  -20.7606   18.8114 C   0  0  0  0  0  0  0  0  0  0  0  0
  -26.0649  -22.8515   18.7667 C   0  0  0  0  0  0  0  0  0  0  0  0
  -26.3354  -28.8242   25.3069 C   0  0  0  0  0  0  0  0  0  0  0  0
  -25.5518  -26.7007   26.3770 C   0  0  0  0  0  0  0  0  0  0  0  0
  -23.9024  -28.4686   25.7631 C   0  0  0  0  0  0  0  0  0  0  0  0
  -22.2803  -24.5655   21.2490 C   0  0  0  0  0  0  0  0  0  0  0  0
  -30.4182  -24.8469   17.4870 C   0  0  0  0  0  0  0  0  0  1  0  0
  -31.2116  -23.5441   17.6575 C   0  0  1  0  0  0  0  0  0  0  0  0
  -27.2911  -20.5913   18.6317 C   0  0  2  0  0  0  0  0  0  0  0  0
  -24.9890  -27.0993   23.9366 C   0  0  1  0  0  0  0  0  0  0  0  0
  -22.8481  -23.9879   23.6118 C   0  0  2  0  0  0  0  0  0  0  0  0
  -26.0401  -21.3754   19.2029 C   0  0  0  0  0  0  0  0  0  0  0  0
  -25.2080  -27.7726   25.3208 C   0  0  0  0  0  0  0  0  0  0  0  0
  -26.9290  -15.8687   21.0351 N   0  0  0  0  0  0  0  0  0  0  0  0
  -29.1671  -20.7315   20.1594 N   0  0  0  0  0  0  0  0  0  0  0  0
  -30.3819  -21.2142   20.5349 N   0  0  0  0  0  0  0  0  0  0  0  0
  -27.8568  -16.8251   21.2095 N   0  0  0  0  0  0  0  0  0  0  0  0
  -25.5643  -28.1515   21.7719 N   0  0  0  0  0  0  0  0  0  0  0  0
  -26.0201  -20.1765   21.3638 N   0  0  0  0  0  0  0  0  0  0  0  0
  -30.1700  -17.2778   20.9755 N   0  0  0  0  0  0  0  0  0  0  0  0
  -29.7963  -13.0050   19.5615 N   0  0  0  0  0  0  0  0  0  0  0  0
  -25.7497  -31.5106   21.5449 N   0  0  0  0  0  0  0  0  0  0  0  0
  -23.9092  -26.1185   23.9134 N   0  0  0  0  0  0  0  0  0  0  0  0
  -22.4854  -23.4912   22.2544 N   0  3  0  0  0  0  0  0  0  0  0  0
  -31.2702  -14.7237   19.9251 O   0  0  0  0  0  0  0  0  0  0  0  0
  -27.5784  -30.1036   21.2308 O   0  0  0  0  0  0  0  0  0  0  0  0
  -23.6675  -28.8087   22.9578 O   0  0  0  0  0  0  0  0  0  0  0  0
  -26.2383  -22.4887   21.2845 O   0  0  0  0  0  0  0  0  0  0  0  0
  -25.2075  -24.3274   23.2178 O   0  0  0  0  0  0  0  0  0  0  0  0
  -25.1017  -10.0157   19.3169 O   0  0  0  0  0  0  0  0  0  0  0  0
  -30.2278  -25.4609   18.7610 O   0  0  0  0  0  0  0  0  0  1  0  0
  -21.4543   -8.0221   22.9400 F   0  0  0  0  0  0  0  0  0  0  0  0
  -22.8551  -11.4685   20.0132 F   0  0  0  0  0  0  0  0  0  0  0  0
  1  2  1  0  0  0  0
  1  5  2  0  0  0  0
  2  6  2  0  0  0  0
  3  8  2  0  0  0  0
  3 16  1  0  0  0  0
  4  9  1  0  0  0  0
  4 16  2  0  0  0  0
  5 18  1  0  0  0  0
  6 20  1  0  0  0  0
  7 10  2  0  0  0  0
  7 19  1  0  0  0  0
  8 23  1  0  0  0  0
  9 23  2  0  0  0  0
 10 24  1  0  0  0  0
 11 12  2  0  0  0  0
 11 25  1  0  0  0  0
 12 26  1  0  0  0  0
 13 21  1  0  0  0  0
 13 24  2  0  0  0  0
 14 22  1  0  0  0  0
 14 29  2  0  0  0  0
 15 26  2  0  0  0  0
 15 27  1  0  0  0  0
 16 28  1  0  0  0  0
 17 28  1  0  0  0  0
 17 31  2  0  0  0  0
 17 32  1  0  0  0  0
 18 20  2  0  0  0  0
 18 37  1  0  0  0  0
 19 21  2  0  0  0  0
 19 38  1  0  0  0  0
 20 46  1  0  0  0  0
 21 39  1  0  0  0  0
 22 30  2  0  0  0  0
 22 60  1  0  0  0  0
 23 82  1  0  0  0  0
 24 83  1  0  0  0  0
 25 27  2  0  0  0  0
 25 82  1  0  0  0  0
 26 84  1  0  0  0  0
 27 85  1  0  0  0  0
 28 66  2  0  0  0  0
 29 61  1  0  0  0  0
 29 67  1  0  0  0  0
 30 49  1  0  0  0  0
 30 68  1  0  0  0  0
 31 69  1  0  0  0  0
 31 72  1  0  0  0  0
 32 73  1  0  0  0  0
 32 77  2  0  0  0  0
 33 47  1  0  0  0  0
 33 74  1  0  0  0  0
 33 78  2  0  0  0  0
 34 62  1  0  0  0  0
 34 70  1  0  0  0  0
 34 79  2  0  0  0  0
 35 64  1  0  0  0  0
 35 71  1  0  0  0  0
 35 80  2  0  0  0  0
 36 63  1  0  0  0  0
 36 75  1  0  0  0  0
 36 81  2  0  0  0  0
 37 40  1  0  0  0  0
 38 47  1  0  0  0  0
 39 70  1  0  0  0  0
 40 42  1  0  0  0  0
 41 43  1  0  0  0  0
 41 44  1  0  0  0  0
 42 46  1  0  0  0  0
 43 48  1  0  0  0  0
 44 71  1  0  0  0  0
 45 48  1  0  0  0  0
 45 71  1  0  0  0  0
 46 74  1  0  0  0  0
 47 70  1  0  0  0  0
 48 69  1  0  0  0  0
 50 60  1  0  0  0  0
 51 61  1  0  0  0  0
 52 63  1  0  0  0  0
 53 64  1  0  0  0  0
 54 64  1  0  0  0  0
 55 65  1  0  0  0  0
 56 65  1  0  0  0  0
 57 65  1  0  0  0  0
 58 76  1  0  0  0  0
 59 60  1  0  0  0  0
 59 83  1  0  0  0  0
 61 64  1  0  0  0  0
 62 65  1  0  0  0  0
 62 75  1  0  0  0  0
 63 76  1  0  0  0  0
 66 69  1  0  0  0  0
 67 68  2  0  0  0  0
M  CHG  1  76   1
M  ISO  4  35 100  59 101  64 100  83 101
M  END
> <Batch ID>
0074

> <Smiles>
CNC(C)C(=O)NC(C(=O)N1Cc2cc([101O:1][101CH2:1]C(C)c3cc(C(C)[100C:0](C)(C)[100C:0](=O)N4CCCC(n5nc(-c6ccc(Oc7ccc(F)cc7F)cc6)c(C(N)=O)c5N)C4)nnc3C)ccc2CC1C(=O)NC1CCCc2ccccc21)C(C)(C)C

> <Shape>
0.249

> <Color>
0.099

> <Negative vol penalty>
0.000

$$$$

  -OEChem-04052318293D

 80 88  0     1  0  0  0  0  0999 V2000
  -16.7241  -27.6412   22.5434 C   0  0  0  0  0  0  0  0  0  0  0  0
  -17.7993  -27.4587   21.6796 C   0  0  0  0  0  0  0  0  0  0  0  0
  -29.6500  -17.8947   19.4560 C   0  0  0  0  0  0  0  0  0  0  0  0
  -31.2066  -18.0854   21.2938 C   0  0  0  0  0  0  0  0  0  0  0  0
  -16.9135  -28.2895   23.7631 C   0  0  0  0  0  0  0  0  0  0  0  0
  -19.0644  -27.9254   22.0347 C   0  0  0  0  0  0  0  0  0  0  0  0
  -22.7164  -24.5454   21.0945 C   0  0  0  0  0  0  0  0  0  0  0  0
  -29.9901  -16.5502   19.3073 C   0  0  0  0  0  0  0  0  0  0  0  0
  -31.5468  -16.7408   21.1451 C   0  0  0  0  0  0  0  0  0  0  0  0
  -23.1419  -24.4189   19.7729 C   0  0  0  0  0  0  0  0  0  0  0  0
  -30.1845  -12.9753   18.6771 C   0  0  0  0  0  0  0  0  0  0  0  0
  -29.1472  -12.0595   18.5013 C   0  0  0  0  0  0  0  0  0  0  0  0
  -25.0577  -25.8002   20.2638 C   0  0  0  0  0  0  0  0  0  0  0  0
  -28.2218  -12.6970   20.6401 C   0  0  0  0  0  0  0  0  0  0  0  0
  -28.7415  -25.0755   15.5795 C   0  0  0  0  0  0  0  0  0  0  0  0
  -30.2582  -18.6623   20.4492 C   0  0  0  0  0  0  0  0  0  0  0  0
  -28.8872  -20.5861   21.4120 C   0  0  0  0  0  0  0  0  0  0  0  0
  -18.1836  -28.7558   24.1375 C   0  0  0  0  0  0  0  0  0  0  0  0
  -23.4538  -25.3106   22.0095 C   0  0  0  0  0  0  0  0  0  0  0  0
  -19.2707  -28.5817   23.2600 C   0  0  0  0  0  0  0  0  0  0  0  0
  -24.6407  -25.9328   21.5970 C   0  0  0  0  0  0  0  0  0  0  0  0
  -30.9385  -15.9732   20.1518 C   0  0  0  0  0  0  0  0  0  0  0  0
  -24.3112  -25.0487   19.3566 C   0  0  0  0  0  0  0  0  0  0  0  0
  -30.2405  -13.7519   19.8345 C   0  0  0  0  0  0  0  0  0  0  0  0
  -28.1658  -11.9203   19.4828 C   0  0  0  0  0  0  0  0  0  0  0  0
  -29.2592  -13.6128   20.8159 C   0  0  0  0  0  0  0  0  0  0  0  0
  -29.9076  -20.0514   20.6029 C   0  0  0  0  0  0  0  0  0  0  0  0
  -29.9762  -24.5747   15.8820 C   0  0  0  0  0  0  0  0  0  0  0  0
  -28.9628  -21.9423   21.2085 C   0  0  0  0  0  0  0  0  0  0  0  0
  -28.8975  -23.0563   14.6857 C   0  0  0  0  0  0  0  0  0  0  0  0
  -27.9545  -19.9167   22.2709 C   0  0  0  0  0  0  0  0  0  0  0  0
  -31.0417  -25.2233   16.6573 C   0  0  0  0  0  0  0  0  0  0  0  0
  -22.8739  -27.9159   23.7358 C   0  0  0  0  0  0  0  0  0  0  0  0
  -25.7881  -27.2545   24.9978 C   0  0  0  0  0  0  0  0  0  0  0  0
  -28.8303  -25.7517   24.6323 C   0  0  0  0  0  0  0  0  0  0  0  0
  -18.3298  -29.4926   25.4454 C   0  0  0  0  0  0  0  0  0  0  0  0
  -22.9955  -25.4153   23.4383 C   0  0  0  0  0  0  0  0  0  0  0  0
  -25.4792  -26.7489   22.5454 C   0  0  0  0  0  0  0  0  0  0  0  0
  -19.7775  -29.6248   25.9114 C   0  0  0  0  0  0  0  0  0  0  0  0
  -32.0706  -25.4001   20.0708 C   0  0  0  0  0  0  0  0  0  0  0  0
  -20.6697  -30.0779   24.7601 C   0  0  0  0  0  0  0  0  0  0  0  0
  -31.5544  -24.0897   20.6678 C   0  0  0  0  0  0  0  0  0  0  0  0
  -32.5341  -25.2179   18.6277 C   0  0  0  0  0  0  0  0  0  0  0  0
  -31.0077  -23.2984   18.3279 C   0  0  0  0  0  0  0  0  0  0  0  0
  -20.6633  -29.0519   23.6205 C   0  0  1  0  0  0  0  0  0  0  0  0
  -23.5510  -26.6418   24.1556 C   0  0  1  0  0  0  0  0  0  0  0  0
  -30.4831  -23.4493   19.7653 C   0  0  1  0  0  0  0  0  0  0  0  0
  -28.5884  -21.8032   13.9537 C   0  0  0  0  0  0  0  0  0  0  0  0
  -31.1181  -24.9404   25.2688 C   0  0  0  0  0  0  0  0  0  0  0  0
  -26.5981  -30.1136   24.3054 C   0  0  0  0  0  0  0  0  0  0  0  0
  -28.9885  -29.4379   24.6177 C   0  0  0  0  0  0  0  0  0  0  0  0
  -27.3984  -29.3137   26.5357 C   0  0  0  0  0  0  0  0  0  0  0  0
  -27.7602  -23.1996   25.6814 C   0  0  0  0  0  0  0  0  0  0  0  0
  -25.6345  -24.5357   15.3476 C   0  0  0  0  0  0  0  0  0  0  0  0
  -25.4777  -23.4070   16.3678 C   0  0  0  0  0  0  0  0  0  0  0  0
  -26.6988  -24.2401   14.2846 C   0  0  0  0  0  0  0  0  0  0  0  0
  -24.3891  -23.7204   17.3854 C   0  0  0  0  0  0  0  0  0  1  0  0
  -27.2103  -27.6304   24.6586 C   0  0  1  0  0  0  0  0  0  0  0  0
  -29.6281  -24.8535   25.5603 C   0  0  2  0  0  0  0  0  0  0  0  0
  -27.5322  -29.1102   25.0107 C   0  0  0  0  0  0  0  0  0  0  0  0
  -30.5819  -20.9913   19.9350 N   0  0  0  0  0  0  0  0  0  0  0  0
  -28.0956  -24.1151   14.8388 N   0  0  0  0  0  0  0  0  0  0  0  0
  -29.9838  -22.1302   20.3240 N   0  0  0  0  0  0  0  0  0  0  0  0
  -30.0455  -23.3243   15.3165 N   0  3  0  0  0  0  0  0  0  0  0  0
  -31.4854  -24.5931   17.8224 N   0  0  0  0  0  0  0  0  0  0  0  0
  -24.9860  -26.8267   23.9304 N   0  0  0  0  0  0  0  0  0  0  0  0
  -28.2547  -22.9806   21.7015 N   0  0  0  0  0  0  0  0  0  0  0  0
  -28.0153  -18.5196   22.3634 N   0  0  0  0  0  0  0  0  0  0  0  0
  -21.5089  -27.9247   23.9504 N   0  0  0  0  0  0  0  0  0  0  0  0
  -28.0618  -26.6568   25.3334 N   0  0  0  0  0  0  0  0  0  0  0  0
  -29.2002  -23.4347   25.4021 N   0  3  0  0  0  0  0  0  0  0  0  0
  -27.0820  -20.5378   22.9240 O   0  0  0  0  0  0  0  0  0  0  0  0
  -31.4580  -26.2944   16.2186 O   0  0  0  0  0  0  0  0  0  0  0  0
  -23.5409  -28.8242   23.2544 O   0  0  0  0  0  0  0  0  0  0  0  0
  -25.4051  -27.3306   26.1679 O   0  0  0  0  0  0  0  0  0  0  0  0
  -28.8863  -25.6621   23.4078 O   0  0  0  0  0  0  0  0  0  0  0  0
  -31.2706  -14.6612   20.0072 O   0  0  0  0  0  0  0  0  0  0  0  0
  -24.7284  -24.9273   18.0670 O   0  0  0  0  0  0  0  0  0  1  0  0
  -27.1689  -11.0420   19.3131 F   0  0  0  0  0  0  0  0  0  0  0  0
  -29.3071  -14.3570   21.9294 F   0  0  0  0  0  0  0  0  0  0  0  0
  1  2  1  0  0  0  0
  1  5  2  0  0  0  0
  2  6  2  0  0  0  0
  3  8  2  0  0  0  0
  3 16  1  0  0  0  0
  4  9  1  0  0  0  0
  4 16  2  0  0  0  0
  5 18  1  0  0  0  0
  6 20  1  0  0  0  0
  7 10  2  0  0  0  0
  7 19  1  0  0  0  0
  8 22  1  0  0  0  0
  9 22  2  0  0  0  0
 10 23  1  0  0  0  0
 11 12  2  0  0  0  0
 11 24  1  0  0  0  0
 12 25  1  0  0  0  0
 13 21  1  0  0  0  0
 13 23  2  0  0  0  0
 14 25  2  0  0  0  0
 14 26  1  0  0  0  0
 15 28  2  0  0  0  0
 15 62  1  0  0  0  0
 16 27  1  0  0  0  0
 17 27  1  0  0  0  0
 17 29  2  0  0  0  0
 17 31  1  0  0  0  0
 18 20  2  0  0  0  0
 18 36  1  0  0  0  0
 19 21  2  0  0  0  0
 19 37  1  0  0  0  0
 20 45  1  0  0  0  0
 21 38  1  0  0  0  0
 22 77  1  0  0  0  0
 23 78  1  0  0  0  0
 24 26  2  0  0  0  0
 24 77  1  0  0  0  0
 25 79  1  0  0  0  0
 26 80  1  0  0  0  0
 27 61  2  0  0  0  0
 28 32  1  0  0  0  0
 28 64  1  0  0  0  0
 29 63  1  0  0  0  0
 29 67  1  0  0  0  0
 30 48  1  0  0  0  0
 30 62  1  0  0  0  0
 30 64  2  0  0  0  0
 31 68  1  0  0  0  0
 31 72  2  0  0  0  0
 32 65  1  0  0  0  0
 32 73  2  0  0  0  0
 33 46  1  0  0  0  0
 33 69  1  0  0  0  0
 33 74  2  0  0  0  0
 34 58  1  0  0  0  0
 34 66  1  0  0  0  0
 34 75  2  0  0  0  0
 35 59  1  0  0  0  0
 35 70  1  0  0  0  0
 35 76  2  0  0  0  0
 36 39  1  0  0  0  0
 37 46  1  0  0  0  0
 38 66  1  0  0  0  0
 39 41  1  0  0  0  0
 40 42  1  0  0  0  0
 40 43  1  0  0  0  0
 41 45  1  0  0  0  0
 42 47  1  0  0  0  0
 43 65  1  0  0  0  0
 44 47  1  0  0  0  0
 44 65  1  0  0  0  0
 45 69  1  0  0  0  0
 46 66  1  0  0  0  0
 47 63  1  0  0  0  0
 49 59  1  0  0  0  0
 50 60  1  0  0  0  0
 51 60  1  0  0  0  0
 52 60  1  0  0  0  0
 53 71  1  0  0  0  0
 54 55  1  0  0  0  0
 54 56  1  0  0  0  0
 55 57  1  0  0  0  0
 56 62  1  0  0  0  0
 57 78  1  0  0  0  0
 58 60  1  0  0  0  0
 58 70  1  0  0  0  0
 59 71  1  0  0  0  0
 61 63  1  0  0  0  0
M  CHG  2  64   1  71   1
M  ISO  4  28 100  32 100  57 101  78 101
M  END
> <Batch ID>
0074

> <Smiles>
CNC(C)C(=O)NC(C(=O)N1Cc2cc([101O:1][101CH2:1]CCCn3c[100c:0]([100C:0](=O)N4CCCC(n5nc(-c6ccc(Oc7ccc(F)cc7F)cc6)c(C(N)=O)c5N)C4)nc3C)ccc2CC1C(=O)NC1CCCc2ccccc21)C(C)(C)C

> <Shape>
0.204

> <Color>
0.061

> <Negative vol penalty>
0.000

$$$$

  -OEChem-04052318293D

 89 97  0     1  0  0  0  0  0999 V2000
  -19.7900  -11.7849   30.3895 C   0  0  0  0  0  0  0  0  0  0  0  0
  -20.7812  -12.4653   29.6896 C   0  0  0  0  0  0  0  0  0  0  0  0
  -23.0742   -9.8698   19.9419 C   0  0  0  0  0  0  0  0  0  0  0  0
  -23.8382   -9.8758   22.2340 C   0  0  0  0  0  0  0  0  0  0  0  0
  -18.5447  -11.5701   29.8003 C   0  0  0  0  0  0  0  0  0  0  0  0
  -20.5282  -12.9303   28.3995 C   0  0  0  0  0  0  0  0  0  0  0  0
  -22.1752  -17.6652   27.6833 C   0  0  0  0  0  0  0  0  0  0  0  0
  -22.3312   -8.7163   20.1926 C   0  0  0  0  0  0  0  0  0  0  0  0
  -23.0951   -8.7223   22.4847 C   0  0  0  0  0  0  0  0  0  0  0  0
  -23.5420  -17.8384   27.4698 C   0  0  0  0  0  0  0  0  0  0  0  0
  -19.8682   -7.9232   23.0925 C   0  0  0  0  0  0  0  0  0  0  0  0
  -19.1134   -7.8824   24.2647 C   0  0  0  0  0  0  0  0  0  0  0  0
  -23.1433  -18.0122   25.0970 C   0  0  0  0  0  0  0  0  0  0  0  0
  -28.9522  -19.3424   22.3732 C   0  0  0  0  0  0  0  0  0  0  0  0
  -20.3567   -5.9449   24.9980 C   0  0  0  0  0  0  0  0  0  0  0  0
  -23.8278  -10.4495   20.9626 C   0  0  0  0  0  0  0  0  0  0  0  0
  -24.1686  -12.9748   20.8433 C   0  0  0  0  0  0  0  0  0  0  0  0
  -18.2731  -12.0411   28.5061 C   0  0  0  0  0  0  0  0  0  0  0  0
  -21.2819  -17.6532   26.6024 C   0  0  0  0  0  0  0  0  0  0  0  0
  -19.2786  -12.7204   27.7920 C   0  0  0  0  0  0  0  0  0  0  0  0
  -21.7653  -17.8412   25.2997 C   0  0  0  0  0  0  0  0  0  0  0  0
  -27.7251  -19.9585   22.5923 C   0  0  0  0  0  0  0  0  0  0  0  0
  -29.2034  -18.7194   21.1558 C   0  0  0  0  0  0  0  0  0  0  0  0
  -22.3415   -8.1425   21.4640 C   0  0  0  0  0  0  0  0  0  0  0  0
  -24.0266  -18.0091   26.1763 C   0  0  0  0  0  0  0  0  0  0  0  0
  -20.8673   -6.9748   22.8729 C   0  0  0  0  0  0  0  0  0  0  0  0
  -19.3576   -6.8933   25.2175 C   0  0  0  0  0  0  0  0  0  0  0  0
  -21.1115   -5.9857   23.8257 C   0  0  0  0  0  0  0  0  0  0  0  0
  -24.5960  -11.6408   20.7041 C   0  0  0  0  0  0  0  0  0  0  0  0
  -26.7903  -19.9239   21.5702 C   0  0  0  0  0  0  0  0  0  0  0  0
  -28.2024  -18.7401   20.1981 C   0  0  0  0  0  0  0  0  0  0  0  0
  -25.2599  -13.7248   20.4785 C   0  0  0  0  0  0  0  0  0  0  0  0
  -22.8987  -13.4900   21.2647 C   0  0  0  0  0  0  0  0  0  0  0  0
  -19.2703  -15.5180   25.3783 C   0  0  0  0  0  0  0  0  0  0  0  0
  -18.4070  -17.9998   23.4763 C   0  0  0  0  0  0  0  0  0  0  0  0
  -19.2455  -20.9839   22.0482 C   0  0  0  0  0  0  0  0  0  0  0  0
  -30.7437  -14.7455   20.6576 C   0  0  0  0  0  0  0  0  0  0  0  0
  -16.9277  -11.7435   27.8927 C   0  0  0  0  0  0  0  0  0  0  0  0
  -19.8074  -17.4920   26.8518 C   0  0  0  0  0  0  0  0  0  0  0  0
  -20.8456  -17.8566   24.1070 C   0  0  0  0  0  0  0  0  0  0  0  0
  -16.6158  -12.5960   26.6655 C   0  0  0  0  0  0  0  0  0  0  0  0
  -29.6026  -12.3618   18.2716 C   0  0  0  0  0  0  0  0  0  0  0  0
  -17.8130  -12.6300   25.7208 C   0  0  0  0  0  0  0  0  0  0  0  0
  -28.1660  -12.0674   18.7070 C   0  0  0  0  0  0  0  0  0  0  0  0
  -30.5218  -12.5823   19.4710 C   0  0  0  0  0  0  0  0  0  0  0  0
  -28.6222  -13.3121   20.8614 C   0  0  0  0  0  0  0  0  0  0  0  0
  -19.0340  -13.2618   26.4001 C   0  0  1  0  0  0  0  0  0  0  0  0
  -19.0472  -16.9822   25.6313 C   0  0  1  0  0  0  0  0  0  0  0  0
  -27.6460  -13.1378   19.6854 C   0  0  2  0  0  0  0  0  0  0  0  0
  -24.4650  -20.1585   20.6621 C   0  0  0  0  0  0  0  0  0  0  0  0
  -27.3518  -18.4812   17.8537 C   0  0  0  0  0  0  0  0  0  0  0  0
  -31.6862  -19.0630   20.9522 C   0  0  0  0  0  0  0  0  0  0  0  0
  -18.3477  -22.7543   20.5130 C   0  0  0  0  0  0  0  0  0  0  0  0
  -18.9205  -16.1802   21.0815 C   0  0  0  0  0  0  0  0  0  0  0  0
  -18.9399  -18.2173   19.6262 C   0  0  0  0  0  0  0  0  0  0  0  0
  -16.8761  -17.6075   20.8877 C   0  0  0  0  0  0  0  0  0  0  0  0
  -28.1891  -18.7126   25.4256 C   0  0  0  0  0  0  0  0  0  0  0  0
  -26.8866  -20.6239   26.3521 C   0  0  0  0  0  0  0  0  0  0  0  0
  -19.4252  -23.0606   24.1491 C   0  0  0  0  0  0  0  0  0  0  0  0
  -27.4459  -20.6374   23.9128 C   0  0  0  0  0  0  0  0  0  0  0  0
  -25.4545  -20.5680   21.7488 C   0  0  0  0  0  0  0  0  0  0  0  0
  -28.4178  -18.0876   18.8717 C   0  0  0  0  0  0  0  0  0  0  0  0
  -30.8110  -16.8954   21.8955 C   0  0  0  0  0  0  0  0  0  0  0  0
  -25.7451  -18.9641   24.8382 C   0  0  0  0  0  0  0  0  0  1  0  0
  -30.5159  -18.0572   20.9148 C   0  0  1  0  0  0  0  0  0  0  0  0
  -18.8667  -18.5339   22.1412 C   0  0  1  0  0  0  0  0  0  0  0  0
  -18.4984  -22.3022   21.9572 C   0  0  2  0  0  0  0  0  0  0  0  0
  -18.4186  -17.6325   20.9562 C   0  0  0  0  0  0  0  0  0  0  0  0
  -27.0655  -19.7193   25.1117 C   0  0  0  0  0  0  0  0  0  0  0  0
  -25.8602  -11.5455   20.2835 N   0  0  0  0  0  0  0  0  0  0  0  0
  -26.9981  -19.3285   20.3744 N   0  0  0  0  0  0  0  0  0  0  0  0
  -26.2365  -12.8293   20.1552 N   0  0  0  0  0  0  0  0  0  0  0  0
  -19.4130  -17.6886   24.4019 N   0  0  0  0  0  0  0  0  0  0  0  0
  -29.9725  -13.6102   20.3585 N   0  0  0  0  0  0  0  0  0  0  0  0
  -25.4698  -15.0564   20.4058 N   0  0  0  0  0  0  0  0  0  0  0  0
  -21.8877  -12.5804   21.6033 N   0  0  0  0  0  0  0  0  0  0  0  0
  -18.9050  -14.7029   26.4326 N   0  0  0  0  0  0  0  0  0  0  0  0
  -18.3831  -19.9081   22.0628 N   0  0  0  0  0  0  0  0  0  0  0  0
  -30.1457  -15.6737   21.5012 N   0  0  0  0  0  0  0  0  0  0  0  0
  -19.2269  -23.3634   22.7083 N   0  3  0  0  0  0  0  0  0  0  0  0
  -22.6622  -14.7205   21.3231 O   0  0  0  0  0  0  0  0  0  0  0  0
  -19.7379  -15.1547   24.3054 O   0  0  0  0  0  0  0  0  0  0  0  0
  -17.1995  -17.8705   23.6925 O   0  0  0  0  0  0  0  0  0  0  0  0
  -20.4716  -20.9151   22.0974 O   0  0  0  0  0  0  0  0  0  0  0  0
  -31.8788  -14.9215   20.2021 O   0  0  0  0  0  0  0  0  0  0  0  0
  -21.6164   -7.0171   21.7090 O   0  0  0  0  0  0  0  0  0  0  0  0
  -25.3603  -18.1777   25.9651 O   0  0  0  0  0  0  0  0  0  1  0  0
  -18.6337   -6.8552   26.3438 F   0  0  0  0  0  0  0  0  0  0  0  0
  -22.0707   -5.0726   23.6209 F   0  0  0  0  0  0  0  0  0  0  0  0
  1  2  1  0  0  0  0
  1  5  2  0  0  0  0
  2  6  2  0  0  0  0
  3  8  2  0  0  0  0
  3 16  1  0  0  0  0
  4  9  1  0  0  0  0
  4 16  2  0  0  0  0
  5 18  1  0  0  0  0
  6 20  1  0  0  0  0
  7 10  2  0  0  0  0
  7 19  1  0  0  0  0
  8 24  1  0  0  0  0
  9 24  2  0  0  0  0
 10 25  1  0  0  0  0
 11 12  2  0  0  0  0
 11 26  1  0  0  0  0
 12 27  1  0  0  0  0
 13 21  1  0  0  0  0
 13 25  2  0  0  0  0
 14 22  1  0  0  0  0
 14 23  2  0  0  0  0
 15 27  2  0  0  0  0
 15 28  1  0  0  0  0
 16 29  1  0  0  0  0
 17 29  1  0  0  0  0
 17 32  2  0  0  0  0
 17 33  1  0  0  0  0
 18 20  2  0  0  0  0
 18 38  1  0  0  0  0
 19 21  2  0  0  0  0
 19 39  1  0  0  0  0
 20 47  1  0  0  0  0
 21 40  1  0  0  0  0
 22 30  2  0  0  0  0
 22 60  1  0  0  0  0
 23 31  1  0  0  0  0
 23 65  1  0  0  0  0
 24 86  1  0  0  0  0
 25 87  1  0  0  0  0
 26 28  2  0  0  0  0
 26 86  1  0  0  0  0
 27 88  1  0  0  0  0
 28 89  1  0  0  0  0
 29 70  2  0  0  0  0
 30 61  1  0  0  0  0
 30 71  1  0  0  0  0
 31 62  1  0  0  0  0
 31 71  2  0  0  0  0
 32 72  1  0  0  0  0
 32 75  1  0  0  0  0
 33 76  1  0  0  0  0
 33 81  2  0  0  0  0
 34 48  1  0  0  0  0
 34 77  1  0  0  0  0
 34 82  2  0  0  0  0
 35 66  1  0  0  0  0
 35 73  1  0  0  0  0
 35 83  2  0  0  0  0
 36 67  1  0  0  0  0
 36 78  1  0  0  0  0
 36 84  2  0  0  0  0
 37 74  1  0  0  0  0
 37 79  1  0  0  0  0
 37 85  2  0  0  0  0
 38 41  1  0  0  0  0
 39 48  1  0  0  0  0
 40 73  1  0  0  0  0
 41 43  1  0  0  0  0
 42 44  1  0  0  0  0
 42 45  1  0  0  0  0
 43 47  1  0  0  0  0
 44 49  1  0  0  0  0
 45 74  1  0  0  0  0
 46 49  1  0  0  0  0
 46 74  1  0  0  0  0
 47 77  1  0  0  0  0
 48 73  1  0  0  0  0
 49 72  1  0  0  0  0
 50 61  1  0  0  0  0
 51 62  1  0  0  0  0
 52 65  1  0  0  0  0
 53 67  1  0  0  0  0
 54 68  1  0  0  0  0
 55 68  1  0  0  0  0
 56 68  1  0  0  0  0
 57 69  1  0  0  0  0
 58 69  1  0  0  0  0
 59 80  1  0  0  0  0
 60 69  1  0  0  0  0
 63 65  1  0  0  0  0
 63 79  1  0  0  0  0
 64 69  1  0  0  0  0
 64 87  1  0  0  0  0
 66 68  1  0  0  0  0
 66 78  1  0  0  0  0
 67 80  1  0  0  0  0
 70 72  1  0  0  0  0
M  CHG  1  80   1
M  ISO  4  37 100  64 101  79 100  87 101
M  END
> <Batch ID>
0074

> <Smiles>
CCc1nc(CC)c(C(C)C[100NH:0][100C:0](=O)N2CCCC(n3nc(-c4ccc(Oc5ccc(F)cc5F)cc4)c(C(N)=O)c3N)C2)cc1CC(C)(C)[101CH2:1][101O:1]c1ccc2c(c1)CN(C(=O)C(NC(=O)C(C)NC)C(C)(C)C)C(C(=O)NC1CCCc3ccccc31)C2

> <Shape>
0.191

> <Color>
0.180

> <Negative vol penalty>
0.000

$$$$

  -OEChem-04052318293D

 85 93  0     1  0  0  0  0  0999 V2000
  -23.1402  -23.9100   19.1701 C   0  0  0  0  0  0  0  0  0  0  0  0
  -24.1437  -22.9497   19.2483 C   0  0  0  0  0  0  0  0  0  0  0  0
  -23.7282  -29.2960   22.1654 C   0  0  0  0  0  0  0  0  0  0  0  0
  -25.5854  -30.6695   21.4574 C   0  0  0  0  0  0  0  0  0  0  0  0
  -21.9929  -23.7830   19.9521 C   0  0  0  0  0  0  0  0  0  0  0  0
  -24.0010  -21.8623   20.1094 C   0  0  0  0  0  0  0  0  0  0  0  0
  -25.3127  -17.4794   17.9380 C   0  0  0  0  0  0  0  0  0  0  0  0
  -23.2493  -30.3467   22.9477 C   0  0  0  0  0  0  0  0  0  0  0  0
  -25.1065  -31.7203   22.2397 C   0  0  0  0  0  0  0  0  0  0  0  0
  -26.6754  -17.2053   17.8294 C   0  0  0  0  0  0  0  0  0  0  0  0
  -25.1170  -32.6020   25.5037 C   0  0  0  0  0  0  0  0  0  0  0  0
  -26.0368  -33.2970   26.2888 C   0  0  0  0  0  0  0  0  0  0  0  0
  -26.5366  -15.7773   19.7687 C   0  0  0  0  0  0  0  0  0  0  0  0
  -25.4922  -35.3395   25.1190 C   0  0  0  0  0  0  0  0  0  0  0  0
  -31.2778  -21.0181   20.8073 C   0  0  0  0  0  0  0  0  0  0  0  0
  -24.8963  -29.4573   21.4202 C   0  0  0  0  0  0  0  0  0  0  0  0
  -25.0786  -28.1021   19.2666 C   0  0  0  0  0  0  0  0  0  0  0  0
  -21.8318  -22.6884   20.8162 C   0  0  0  0  0  0  0  0  0  0  0  0
  -24.5528  -16.9121   18.9710 C   0  0  0  0  0  0  0  0  0  0  0  0
  -22.8511  -21.7212   20.9047 C   0  0  0  0  0  0  0  0  0  0  0  0
  -25.1640  -16.0438   19.8867 C   0  0  0  0  0  0  0  0  0  0  0  0
  -23.9384  -31.5589   22.9849 C   0  0  0  0  0  0  0  0  0  0  0  0
  -27.2882  -16.3565   18.7465 C   0  0  0  0  0  0  0  0  0  0  0  0
  -24.3847  -33.2758   24.5261 C   0  0  0  0  0  0  0  0  0  0  0  0
  -26.2244  -34.6657   26.0965 C   0  0  0  0  0  0  0  0  0  0  0  0
  -24.5723  -34.6445   24.3338 C   0  0  0  0  0  0  0  0  0  0  0  0
  -25.3918  -28.3720   20.6123 C   0  0  0  0  0  0  0  0  0  0  0  0
  -31.1360  -22.2403   20.2131 C   0  0  0  0  0  0  0  0  0  0  0  0
  -25.8002  -26.9728   18.9659 C   0  0  0  0  0  0  0  0  0  0  0  0
  -29.7252  -20.8395   19.2395 C   0  0  0  0  0  0  0  0  0  0  0  0
  -24.2129  -28.8091   18.3687 C   0  0  0  0  0  0  0  0  0  0  0  0
  -22.8817  -18.0622   21.4182 C   0  0  0  0  0  0  0  0  0  0  0  0
  -22.0342  -14.9539   21.7959 C   0  0  0  0  0  0  0  0  0  0  0  0
  -30.9253  -24.6988   20.1404 C   0  0  0  0  0  0  0  0  0  0  0  0
  -22.7748  -11.6644   21.2689 C   0  0  0  0  0  0  0  0  0  0  0  0
  -20.5952  -22.6188   21.6768 C   0  0  0  0  0  0  0  0  0  0  0  0
  -23.0784  -17.1966   19.0585 C   0  0  0  0  0  0  0  0  0  0  0  0
  -24.3883  -15.3932   21.0019 C   0  0  0  0  0  0  0  0  0  0  0  0
  -20.3544  -21.2402   22.2866 C   0  0  0  0  0  0  0  0  0  0  0  0
  -27.8778  -23.3500   21.5966 C   0  0  0  0  0  0  0  0  0  0  0  0
  -21.6443  -20.6886   22.8854 C   0  0  0  0  0  0  0  0  0  0  0  0
  -26.9003  -24.5053   21.3845 C   0  0  0  0  0  0  0  0  0  0  0  0
  -29.2877  -23.8547   21.8920 C   0  0  0  0  0  0  0  0  0  0  0  0
  -28.8471  -25.9444   20.6415 C   0  0  0  0  0  0  0  0  0  0  0  0
  -22.7220  -20.5143   21.8086 C   0  0  1  0  0  0  0  0  0  0  0  0
  -22.5082  -16.9708   20.4554 C   0  0  1  0  0  0  0  0  0  0  0  0
  -27.4196  -25.4774   20.3108 C   0  0  2  0  0  0  0  0  0  0  0  0
  -28.6788  -20.2999   18.3357 C   0  0  0  0  0  0  0  0  0  0  0  0
  -21.9115   -9.3530   21.7268 C   0  0  0  0  0  0  0  0  0  0  0  0
  -33.0889  -23.6793   19.5742 C   0  0  0  0  0  0  0  0  0  0  0  0
  -32.2655  -23.8126   21.9275 C   0  0  0  0  0  0  0  0  0  0  0  0
  -22.9695  -15.1808   24.6914 C   0  0  0  0  0  0  0  0  0  0  0  0
  -22.9825  -12.6800   24.8100 C   0  0  0  0  0  0  0  0  0  0  0  0
  -20.8472  -13.8953   24.3783 C   0  0  0  0  0  0  0  0  0  0  0  0
  -31.4833  -15.5477   18.5964 C   0  0  0  0  0  0  0  0  0  0  0  0
  -31.5099  -15.9015   21.0687 C   0  0  0  0  0  0  0  0  0  0  0  0
  -22.5375  -11.0557   18.3824 C   0  0  0  0  0  0  0  0  0  0  0  0
  -30.8971  -17.8073   19.4933 C   0  0  0  0  0  0  0  0  0  0  0  0
  -30.2056  -18.7113   20.5224 C   0  0  0  0  0  0  0  0  0  0  0  0
  -29.3201  -15.8072   19.8535 C   0  0  0  0  0  0  0  0  0  1  0  0
  -22.5964  -13.7773   22.5566 C   0  0  1  0  0  0  0  0  0  0  0  0
  -21.9342  -10.5141   20.7449 C   0  0  2  0  0  0  0  0  0  0  0  0
  -31.8094  -23.5187   20.4559 C   0  0  0  0  0  0  0  0  0  0  0  0
  -22.3642  -13.8970   24.0893 C   0  0  0  0  0  0  0  0  0  0  0  0
  -30.7869  -16.2801   19.7639 C   0  0  0  0  0  0  0  0  0  0  0  0
  -26.2457  -27.4854   21.1308 N   0  0  0  0  0  0  0  0  0  0  0  0
  -30.3925  -20.1708   20.1855 N   0  0  0  0  0  0  0  0  0  0  0  0
  -26.4752  -26.6474   20.1055 N   0  0  0  0  0  0  0  0  0  0  0  0
  -30.1692  -22.1006   19.2468 N   0  3  0  0  0  0  0  0  0  0  0  0
  -22.9508  -15.7076   21.0492 N   0  0  0  0  0  0  0  0  0  0  0  0
  -29.7349  -24.7990   20.8611 N   0  0  0  0  0  0  0  0  0  0  0  0
  -25.9168  -26.2364   17.8406 N   0  0  0  0  0  0  0  0  0  0  0  0
  -23.5484  -29.9495   18.8403 N   0  0  0  0  0  0  0  0  0  0  0  0
  -22.4688  -19.3219   21.0284 N   0  0  0  0  0  0  0  0  0  0  0  0
  -22.0104  -12.5845   21.9548 N   0  0  0  0  0  0  0  0  0  0  0  0
  -22.4799  -10.0224   19.4482 N   0  3  0  0  0  0  0  0  0  0  0  0
  -24.0211  -28.4312   17.1880 O   0  0  0  0  0  0  0  0  0  0  0  0
  -23.4976  -17.7818   22.4399 O   0  0  0  0  0  0  0  0  0  0  0  0
  -20.8252  -15.1911   21.8561 O   0  0  0  0  0  0  0  0  0  0  0  0
  -31.2822  -25.5046   19.2772 O   0  0  0  0  0  0  0  0  0  0  0  0
  -23.9887  -11.7374   21.0911 O   0  0  0  0  0  0  0  0  0  0  0  0
  -23.4712  -32.5846   23.7480 O   0  0  0  0  0  0  0  0  0  0  0  0
  -28.6182  -16.0879   18.6432 O   0  0  0  0  0  0  0  0  0  1  0  0
  -27.1067  -35.3332   26.8515 F   0  0  0  0  0  0  0  0  0  0  0  0
  -23.8708  -35.2975   23.3971 F   0  0  0  0  0  0  0  0  0  0  0  0
  1  2  1  0  0  0  0
  1  5  2  0  0  0  0
  2  6  2  0  0  0  0
  3  8  2  0  0  0  0
  3 16  1  0  0  0  0
  4  9  1  0  0  0  0
  4 16  2  0  0  0  0
  5 18  1  0  0  0  0
  6 20  1  0  0  0  0
  7 10  2  0  0  0  0
  7 19  1  0  0  0  0
  8 22  1  0  0  0  0
  9 22  2  0  0  0  0
 10 23  1  0  0  0  0
 11 12  2  0  0  0  0
 11 24  1  0  0  0  0
 12 25  1  0  0  0  0
 13 21  1  0  0  0  0
 13 23  2  0  0  0  0
 14 25  2  0  0  0  0
 14 26  1  0  0  0  0
 15 28  2  0  0  0  0
 15 67  1  0  0  0  0
 16 27  1  0  0  0  0
 17 27  1  0  0  0  0
 17 29  2  0  0  0  0
 17 31  1  0  0  0  0
 18 20  2  0  0  0  0
 18 36  1  0  0  0  0
 19 21  2  0  0  0  0
 19 37  1  0  0  0  0
 20 45  1  0  0  0  0
 21 38  1  0  0  0  0
 22 82  1  0  0  0  0
 23 83  1  0  0  0  0
 24 26  2  0  0  0  0
 24 82  1  0  0  0  0
 25 84  1  0  0  0  0
 26 85  1  0  0  0  0
 27 66  2  0  0  0  0
 28 63  1  0  0  0  0
 28 69  1  0  0  0  0
 29 68  1  0  0  0  0
 29 72  1  0  0  0  0
 30 48  1  0  0  0  0
 30 67  1  0  0  0  0
 30 69  2  0  0  0  0
 31 73  1  0  0  0  0
 31 77  2  0  0  0  0
 32 46  1  0  0  0  0
 32 74  1  0  0  0  0
 32 78  2  0  0  0  0
 33 61  1  0  0  0  0
 33 70  1  0  0  0  0
 33 79  2  0  0  0  0
 34 63  1  0  0  0  0
 34 71  1  0  0  0  0
 34 80  2  0  0  0  0
 35 62  1  0  0  0  0
 35 75  1  0  0  0  0
 35 81  2  0  0  0  0
 36 39  1  0  0  0  0
 37 46  1  0  0  0  0
 38 70  1  0  0  0  0
 39 41  1  0  0  0  0
 40 42  1  0  0  0  0
 40 43  1  0  0  0  0
 41 45  1  0  0  0  0
 42 47  1  0  0  0  0
 43 71  1  0  0  0  0
 44 47  1  0  0  0  0
 44 71  1  0  0  0  0
 45 74  1  0  0  0  0
 46 70  1  0  0  0  0
 47 68  1  0  0  0  0
 49 62  1  0  0  0  0
 50 63  1  0  0  0  0
 51 63  1  0  0  0  0
 52 64  1  0  0  0  0
 53 64  1  0  0  0  0
 54 64  1  0  0  0  0
 55 65  1  0  0  0  0
 56 65  1  0  0  0  0
 57 76  1  0  0  0  0
 58 59  1  0  0  0  0
 58 65  1  0  0  0  0
 59 67  1  0  0  0  0
 60 65  1  0  0  0  0
 60 83  1  0  0  0  0
 61 64  1  0  0  0  0
 61 75  1  0  0  0  0
 62 76  1  0  0  0  0
 66 68  1  0  0  0  0
M  CHG  2  69   1  76   1
M  ISO  4  34 100  60 101  63 100  83 101
M  END
> <Batch ID>
0074

> <Smiles>
CNC(C)C(=O)NC(C(=O)N1Cc2cc([101O:1][101CH2:1]C(C)(C)CCn3cc([100C:0](C)(C)[100C:0](=O)N4CCCC(n5nc(-c6ccc(Oc7ccc(F)cc7F)cc6)c(C(N)=O)c5N)C4)nc3C)ccc2CC1C(=O)NC1CCCc2ccccc21)C(C)(C)C

> <Shape>
0.215

> <Color>
0.061

> <Negative vol penalty>
0.000

$$$$

  -OEChem-04052318293D

 83 91  0     1  0  0  0  0  0999 V2000
  -18.6269  -27.3677   16.9345 C   0  0  0  0  0  0  0  0  0  0  0  0
  -19.2337  -27.7837   18.1153 C   0  0  0  0  0  0  0  0  0  0  0  0
  -27.2160  -14.6386   22.0559 C   0  0  0  0  0  0  0  0  0  0  0  0
  -26.2673  -15.2399   19.9168 C   0  0  0  0  0  0  0  0  0  0  0  0
  -19.2646  -26.4378   16.1144 C   0  0  0  0  0  0  0  0  0  0  0  0
  -20.4782  -27.2692   18.4771 C   0  0  0  0  0  0  0  0  0  0  0  0
  -23.6600  -30.8521   20.1154 C   0  0  0  0  0  0  0  0  0  0  0  0
  -26.7946  -13.3217   21.8726 C   0  0  0  0  0  0  0  0  0  0  0  0
  -25.8459  -13.9229   19.7335 C   0  0  0  0  0  0  0  0  0  0  0  0
  -23.4809  -31.3155   21.4181 C   0  0  0  0  0  0  0  0  0  0  0  0
  -23.9200  -11.5654   22.1495 C   0  0  0  0  0  0  0  0  0  0  0  0
  -23.3077  -10.9258   23.2272 C   0  0  0  0  0  0  0  0  0  0  0  0
  -25.2822  -29.8952   22.1646 C   0  0  0  0  0  0  0  0  0  0  0  0
  -25.0380   -9.2396   23.2095 C   0  0  0  0  0  0  0  0  0  0  0  0
  -22.2545  -26.8678   22.6853 C   0  0  0  0  0  0  0  0  0  0  0  0
  -26.9523  -15.5978   21.0780 C   0  0  0  0  0  0  0  0  0  0  0  0
  -28.6182  -17.5194   20.8783 C   0  0  0  0  0  0  0  0  0  0  0  0
  -20.5219  -25.9189   16.4616 C   0  0  0  0  0  0  0  0  0  0  0  0
  -24.6461  -29.8970   19.8289 C   0  0  0  0  0  0  0  0  0  0  0  0
  -21.1327  -26.3305   17.6616 C   0  0  0  0  0  0  0  0  0  0  0  0
  -25.4736  -29.4232   20.8570 C   0  0  0  0  0  0  0  0  0  0  0  0
  -26.1096  -12.9638   20.7115 C   0  0  0  0  0  0  0  0  0  0  0  0
  -24.2901  -30.8349   22.4434 C   0  0  0  0  0  0  0  0  0  0  0  0
  -25.0913  -11.0421   21.6017 C   0  0  0  0  0  0  0  0  0  0  0  0
  -23.8667   -9.7629   23.7572 C   0  0  0  0  0  0  0  0  0  0  0  0
  -25.6502   -9.8792   22.1317 C   0  0  0  0  0  0  0  0  0  0  0  0
  -27.3869  -16.9585   21.2670 C   0  0  0  0  0  0  0  0  0  0  0  0
  -21.8043  -25.5838   22.5611 C   0  0  0  0  0  0  0  0  0  0  0  0
  -28.5405  -18.8304   21.2803 C   0  0  0  0  0  0  0  0  0  0  0  0
  -20.2575  -26.7494   23.6331 C   0  0  0  0  0  0  0  0  0  0  0  0
  -29.7326  -16.9099   20.2132 C   0  0  0  0  0  0  0  0  0  0  0  0
  -24.6312  -26.9302   18.6883 C   0  0  0  0  0  0  0  0  0  0  0  0
  -23.8451  -22.3548   22.1789 C   0  0  0  0  0  0  0  0  0  0  0  0
  -27.8520  -27.3137   18.7306 C   0  0  0  0  0  0  0  0  0  0  0  0
  -30.5610  -28.9230   20.0413 C   0  0  0  0  0  0  0  0  0  0  0  0
  -21.1509  -24.8804   15.5669 C   0  0  0  0  0  0  0  0  0  0  0  0
  -24.8443  -29.4272   18.4139 C   0  0  0  0  0  0  0  0  0  0  0  0
  -26.5600  -28.4126   20.5984 C   0  0  0  0  0  0  0  0  0  0  0  0
  -22.6382  -24.6655   15.8350 C   0  0  0  0  0  0  0  0  0  0  0  0
  -26.4943  -21.6333   24.5638 C   0  0  0  0  0  0  0  0  0  0  0  0
  -22.8972  -24.5349   17.3326 C   0  0  0  0  0  0  0  0  0  0  0  0
  -27.1180  -20.3771   23.9571 C   0  0  0  0  0  0  0  0  0  0  0  0
  -24.9839  -21.6713   24.3463 C   0  0  0  0  0  0  0  0  0  0  0  0
  -25.2007  -20.2890   22.3050 C   0  0  0  0  0  0  0  0  0  0  0  0
  -22.4935  -25.8139   18.0759 C   0  0  1  0  0  0  0  0  0  0  0  0
  -25.5387  -28.0717   18.3261 C   0  0  1  0  0  0  0  0  0  0  0  0
  -26.7277  -20.2273   22.4762 C   0  0  2  0  0  0  0  0  0  0  0  0
  -19.0023  -27.1007   24.3429 C   0  0  0  0  0  0  0  0  0  0  0  0
  -33.0658  -28.9948   19.9053 C   0  0  0  0  0  0  0  0  0  0  0  0
  -22.8169  -33.1609   24.4508 C   0  0  0  0  0  0  0  0  0  0  0  0
  -28.0118  -24.7377   20.3581 C   0  0  0  0  0  0  0  0  0  0  0  0
  -30.3530  -25.3628   20.9875 C   0  0  0  0  0  0  0  0  0  0  0  0
  -29.7698  -24.9681   18.5944 C   0  0  0  0  0  0  0  0  0  0  0  0
  -30.5478  -31.7469   19.1555 C   0  0  0  0  0  0  0  0  0  0  0  0
  -22.4108  -24.4006   21.9455 C   0  0  0  0  0  0  0  0  0  0  0  0
  -23.2786  -23.5516   22.9005 C   0  0  0  0  0  0  0  0  0  0  0  0
  -22.2612  -29.3327   24.9032 C   0  0  0  0  0  0  0  0  0  0  0  0
  -22.3040  -30.8244   25.2615 C   0  0  0  0  0  0  0  0  0  0  0  0
  -21.3486  -29.0304   23.7088 C   0  0  0  0  0  0  0  0  0  0  0  0
  -28.9451  -27.0647   19.7416 C   0  0  1  0  0  0  0  0  0  0  0  0
  -31.7619  -29.5757   19.3807 C   0  0  2  0  0  0  0  0  0  0  0  0
  -22.7984  -31.6815   24.0908 C   0  0  2  0  0  0  0  0  0  1  0  0
  -29.2482  -25.5509   19.9259 C   0  0  0  0  0  0  0  0  0  0  0  0
  -26.5857  -17.8409   21.8698 N   0  0  0  0  0  0  0  0  0  0  0  0
  -21.2773  -27.5670   23.3520 N   0  0  0  0  0  0  0  0  0  0  0  0
  -27.3152  -18.9696   21.8630 N   0  0  0  0  0  0  0  0  0  0  0  0
  -20.5667  -25.5392   23.1564 N   0  3  0  0  0  0  0  0  0  0  0  0
  -26.7104  -27.9792   19.1994 N   0  0  0  0  0  0  0  0  0  0  0  0
  -24.6525  -21.4977   22.9270 N   0  0  0  0  0  0  0  0  0  0  0  0
  -29.4014  -19.8662   21.1889 N   0  0  0  0  0  0  0  0  0  0  0  0
  -29.6461  -15.5535   19.8711 N   0  0  0  0  0  0  0  0  0  0  0  0
  -23.4995  -26.8393   17.9005 N   0  0  0  0  0  0  0  0  0  0  0  0
  -30.0915  -27.8550   19.3063 N   0  0  0  0  0  0  0  0  0  0  0  0
  -31.7626  -31.0430   19.6412 N   0  3  0  0  0  0  0  0  0  0  0  0
  -30.7806  -17.5450   19.9453 O   0  0  0  0  0  0  0  0  0  0  0  0
  -24.9359  -26.1860   19.6129 O   0  0  0  0  0  0  0  0  0  0  0  0
  -23.5791  -22.1900   20.9855 O   0  0  0  0  0  0  0  0  0  0  0  0
  -28.0083  -26.9381   17.5661 O   0  0  0  0  0  0  0  0  0  0  0  0
  -30.0892  -29.3185   21.1050 O   0  0  0  0  0  0  0  0  0  0  0  0
  -25.6984  -11.6787   20.5322 O   0  0  0  0  0  0  0  0  0  0  0  0
  -24.1170  -31.2850   23.7159 O   0  0  0  0  0  0  0  0  0  1  0  0
  -23.2794   -9.1496   24.7932 F   0  0  0  0  0  0  0  0  0  0  0  0
  -26.7760   -9.3725   21.6104 F   0  0  0  0  0  0  0  0  0  0  0  0
  1  2  1  0  0  0  0
  1  5  2  0  0  0  0
  2  6  2  0  0  0  0
  3  8  2  0  0  0  0
  3 16  1  0  0  0  0
  4  9  1  0  0  0  0
  4 16  2  0  0  0  0
  5 18  1  0  0  0  0
  6 20  1  0  0  0  0
  7 10  2  0  0  0  0
  7 19  1  0  0  0  0
  8 22  1  0  0  0  0
  9 22  2  0  0  0  0
 10 23  1  0  0  0  0
 11 12  2  0  0  0  0
 11 24  1  0  0  0  0
 12 25  1  0  0  0  0
 13 21  1  0  0  0  0
 13 23  2  0  0  0  0
 14 25  2  0  0  0  0
 14 26  1  0  0  0  0
 15 28  2  0  0  0  0
 15 65  1  0  0  0  0
 16 27  1  0  0  0  0
 17 27  1  0  0  0  0
 17 29  2  0  0  0  0
 17 31  1  0  0  0  0
 18 20  2  0  0  0  0
 18 36  1  0  0  0  0
 19 21  2  0  0  0  0
 19 37  1  0  0  0  0
 20 45  1  0  0  0  0
 21 38  1  0  0  0  0
 22 80  1  0  0  0  0
 23 81  1  0  0  0  0
 24 26  2  0  0  0  0
 24 80  1  0  0  0  0
 25 82  1  0  0  0  0
 26 83  1  0  0  0  0
 27 64  2  0  0  0  0
 28 55  1  0  0  0  0
 28 67  1  0  0  0  0
 29 66  1  0  0  0  0
 29 70  1  0  0  0  0
 30 48  1  0  0  0  0
 30 65  1  0  0  0  0
 30 67  2  0  0  0  0
 31 71  1  0  0  0  0
 31 75  2  0  0  0  0
 32 46  1  0  0  0  0
 32 72  1  0  0  0  0
 32 76  2  0  0  0  0
 33 56  1  0  0  0  0
 33 69  1  0  0  0  0
 33 77  2  0  0  0  0
 34 60  1  0  0  0  0
 34 68  1  0  0  0  0
 34 78  2  0  0  0  0
 35 61  1  0  0  0  0
 35 73  1  0  0  0  0
 35 79  2  0  0  0  0
 36 39  1  0  0  0  0
 37 46  1  0  0  0  0
 38 68  1  0  0  0  0
 39 41  1  0  0  0  0
 40 42  1  0  0  0  0
 40 43  1  0  0  0  0
 41 45  1  0  0  0  0
 42 47  1  0  0  0  0
 43 69  1  0  0  0  0
 44 47  1  0  0  0  0
 44 69  1  0  0  0  0
 45 72  1  0  0  0  0
 46 68  1  0  0  0  0
 47 66  1  0  0  0  0
 49 61  1  0  0  0  0
 50 62  1  0  0  0  0
 51 63  1  0  0  0  0
 52 63  1  0  0  0  0
 53 63  1  0  0  0  0
 54 74  1  0  0  0  0
 55 56  1  0  0  0  0
 57 58  1  0  0  0  0
 57 59  1  0  0  0  0
 58 62  1  0  0  0  0
 59 65  1  0  0  0  0
 60 63  1  0  0  0  0
 60 73  1  0  0  0  0
 61 74  1  0  0  0  0
 62 81  1  0  0  0  0
 64 66  1  0  0  0  0
M  CHG  2  67   1  74   1
M  ISO  4  33 100  56 100  62 101  81 101
M  END
> <Batch ID>
0074

> <Smiles>
CNC(C)C(=O)NC(C(=O)N1Cc2cc([101O:1][101CH:1](C)CCCn3cc(C[100CH2:0][100C:0](=O)N4CCCC(n5nc(-c6ccc(Oc7ccc(F)cc7F)cc6)c(C(N)=O)c5N)C4)nc3C)ccc2CC1C(=O)NC1CCCc2ccccc21)C(C)(C)C

> <Shape>
0.203

> <Color>
0.069

> <Negative vol penalty>
0.000

$$$$

  -OEChem-04052318293D

 89 97  0     1  0  0  0  0  0999 V2000
  -26.5470  -30.6869   29.1070 C   0  0  0  0  0  0  0  0  0  0  0  0
  -26.1306  -29.5629   28.4008 C   0  0  0  0  0  0  0  0  0  0  0  0
  -23.0666   -9.8732   19.9505 C   0  0  0  0  0  0  0  0  0  0  0  0
  -23.8590   -9.8756   22.2329 C   0  0  0  0  0  0  0  0  0  0  0  0
  -27.9078  -30.9581   29.2440 C   0  0  0  0  0  0  0  0  0  0  0  0
  -27.0748  -28.7100   27.8303 C   0  0  0  0  0  0  0  0  0  0  0  0
  -26.6654  -22.6272   27.2482 C   0  0  0  0  0  0  0  0  0  0  0  0
  -22.3289   -8.7177   20.2078 C   0  0  0  0  0  0  0  0  0  0  0  0
  -23.1213   -8.7201   22.4902 C   0  0  0  0  0  0  0  0  0  0  0  0
  -26.2966  -21.8099   26.1807 C   0  0  0  0  0  0  0  0  0  0  0  0
  -19.9039   -7.9133   23.1363 C   0  0  0  0  0  0  0  0  0  0  0  0
  -19.1637   -7.8684   24.3178 C   0  0  0  0  0  0  0  0  0  0  0  0
  -28.6213  -21.5264   25.6024 C   0  0  0  0  0  0  0  0  0  0  0  0
  -20.4199   -5.9318   25.0311 C   0  0  0  0  0  0  0  0  0  0  0  0
  -28.9924  -15.9631   24.7376 C   0  0  0  0  0  0  0  0  0  0  0  0
  -23.8317  -10.4522   20.9630 C   0  0  0  0  0  0  0  0  0  0  0  0
  -24.1661  -12.9784   20.8452 C   0  0  0  0  0  0  0  0  0  0  0  0
  -28.8693  -30.1028   28.6831 C   0  0  0  0  0  0  0  0  0  0  0  0
  -28.0167  -22.9096   27.4947 C   0  0  0  0  0  0  0  0  0  0  0  0
  -28.4497  -28.9707   27.9588 C   0  0  0  0  0  0  0  0  0  0  0  0
  -29.0048  -22.3455   26.6752 C   0  0  0  0  0  0  0  0  0  0  0  0
  -22.3563   -8.1411   21.4776 C   0  0  0  0  0  0  0  0  0  0  0  0
  -27.2744  -21.2616   25.3558 C   0  0  0  0  0  0  0  0  0  0  0  0
  -20.9020   -6.9673   22.9022 C   0  0  0  0  0  0  0  0  0  0  0  0
  -19.4217   -6.8777   25.2652 C   0  0  0  0  0  0  0  0  0  0  0  0
  -21.1600   -5.9766   23.8496 C   0  0  0  0  0  0  0  0  0  0  0  0
  -24.5943  -11.6455   20.6977 C   0  0  0  0  0  0  0  0  0  0  0  0
  -27.6869  -15.6883   25.0901 C   0  0  0  0  0  0  0  0  0  0  0  0
  -29.1802  -17.1056   23.9867 C   0  0  0  0  0  0  0  0  0  0  0  0
  -25.2513  -13.7314   20.4685 C   0  0  0  0  0  0  0  0  0  0  0  0
  -26.9507  -17.5481   24.0102 C   0  0  0  0  0  0  0  0  0  0  0  0
  -22.9006  -13.4902   21.2836 C   0  0  0  0  0  0  0  0  0  0  0  0
  -29.7845  -25.5510   27.5387 C   0  0  0  0  0  0  0  0  0  0  0  0
  -30.7573  -14.6958   20.6781 C   0  0  0  0  0  0  0  0  0  0  0  0
  -32.0808  -23.5289   28.6160 C   0  0  0  0  0  0  0  0  0  0  0  0
  -33.2751  -20.3374   28.8036 C   0  0  0  0  0  0  0  0  0  0  0  0
  -30.3277  -30.4630   28.8173 C   0  0  0  0  0  0  0  0  0  0  0  0
  -28.3995  -23.7716   28.6664 C   0  0  0  0  0  0  0  0  0  0  0  0
  -30.4705  -22.6014   26.9095 C   0  0  0  0  0  0  0  0  0  0  0  0
  -31.2723  -29.3060   28.5020 C   0  0  0  0  0  0  0  0  0  0  0  0
  -29.5622  -12.4034   18.1968 C   0  0  0  0  0  0  0  0  0  0  0  0
  -30.8493  -28.6075   27.2135 C   0  0  0  0  0  0  0  0  0  0  0  0
  -28.1389  -12.0881   18.6551 C   0  0  0  0  0  0  0  0  0  0  0  0
  -30.4993  -12.6048   19.3836 C   0  0  0  0  0  0  0  0  0  0  0  0
  -28.6144  -13.3314   20.8123 C   0  0  0  0  0  0  0  0  0  0  0  0
  -29.4441  -28.0082   27.3466 C   0  0  1  0  0  0  0  0  0  0  0  0
  -29.7774  -24.4085   28.5147 C   0  0  1  0  0  0  0  0  0  0  0  0
  -27.6286  -13.1509   19.6444 C   0  0  2  0  0  0  0  0  0  0  0  0
  -29.2986  -16.6598   20.8047 C   0  0  0  0  0  0  0  0  0  0  0  0
  -35.1931  -19.0025   29.7183 C   0  0  0  0  0  0  0  0  0  0  0  0
  -28.1213  -14.5166   27.2773 C   0  0  0  0  0  0  0  0  0  0  0  0
  -27.8359  -13.1746   25.1670 C   0  0  0  0  0  0  0  0  0  0  0  0
  -25.8741  -14.2553   26.2461 C   0  0  0  0  0  0  0  0  0  0  0  0
  -31.5672  -17.7364   24.7390 C   0  0  0  0  0  0  0  0  0  0  0  0
  -30.5032  -18.8788   22.8279 C   0  0  0  0  0  0  0  0  0  0  0  0
  -33.8675  -24.5602   26.3679 C   0  0  0  0  0  0  0  0  0  0  0  0
  -35.3497  -22.5751   26.7294 C   0  0  0  0  0  0  0  0  0  0  0  0
  -35.0287  -24.2395   28.5595 C   0  0  0  0  0  0  0  0  0  0  0  0
  -31.4835  -18.7187   30.5150 C   0  0  0  0  0  0  0  0  0  0  0  0
  -25.8039  -18.4415   23.6041 C   0  0  0  0  0  0  0  0  0  0  0  0
  -25.7197  -19.7015   24.4586 C   0  0  0  0  0  0  0  0  0  1  0  0
  -30.1405  -15.6858   21.6339 C   0  0  2  0  0  0  0  0  0  0  0  0
  -33.1382  -22.6689   27.9669 C   0  0  1  0  0  0  0  0  0  0  0  0
  -33.7869  -19.5208   29.9765 C   0  0  2  0  0  0  0  0  0  0  0  0
  -31.1681  -16.4152   22.5390 C   0  0  1  0  0  0  0  0  0  0  0  0
  -27.3848  -14.4740   25.9028 C   0  0  0  0  0  0  0  0  0  0  0  0
  -30.5583  -17.4861   23.5595 C   0  0  0  0  0  0  0  0  0  0  0  0
  -34.3184  -23.5075   27.4001 C   0  0  0  0  0  0  0  0  0  0  0  0
  -25.8533  -11.5537   20.2612 N   0  0  0  0  0  0  0  0  0  0  0  0
  -26.6377  -16.4620   24.7422 N   0  0  0  0  0  0  0  0  0  0  0  0
  -28.1783  -17.9241   23.6037 N   0  0  0  0  0  0  0  0  0  0  0  0
  -26.2255  -12.8385   20.1311 N   0  0  0  0  0  0  0  0  0  0  0  0
  -30.7940  -23.4557   28.0640 N   0  0  0  0  0  0  0  0  0  0  0  0
  -29.9683  -13.6054   20.3111 N   0  0  0  0  0  0  0  0  0  0  0  0
  -25.4576  -15.0635   20.3962 N   0  0  0  0  0  0  0  0  0  0  0  0
  -21.8956  -12.5778   21.6326 N   0  0  0  0  0  0  0  0  0  0  0  0
  -29.4897  -26.7765   28.1050 N   0  0  0  0  0  0  0  0  0  0  0  0
  -33.5323  -21.6822   28.9667 N   0  0  0  0  0  0  0  0  0  0  0  0
  -32.0506  -15.4088   23.2135 N   0  3  0  0  0  0  0  0  0  0  0  0
  -32.8938  -18.3536   30.2239 N   0  3  0  0  0  0  0  0  0  0  0  0
  -22.6624  -14.7201   21.3477 O   0  0  0  0  0  0  0  0  0  0  0  0
  -30.0400  -25.3367   26.3595 O   0  0  0  0  0  0  0  0  0  0  0  0
  -31.9050  -14.8890   20.2688 O   0  0  0  0  0  0  0  0  0  0  0  0
  -32.3837  -24.2340   29.5817 O   0  0  0  0  0  0  0  0  0  0  0  0
  -32.7075  -19.8324   27.8375 O   0  0  0  0  0  0  0  0  0  0  0  0
  -21.6364   -7.0137   21.7292 O   0  0  0  0  0  0  0  0  0  0  0  0
  -26.9171  -20.4640   24.3128 O   0  0  0  0  0  0  0  0  0  1  0  0
  -18.7120   -6.8356   26.4003 F   0  0  0  0  0  0  0  0  0  0  0  0
  -22.1183   -5.0659   23.6308 F   0  0  0  0  0  0  0  0  0  0  0  0
  1  2  1  0  0  0  0
  1  5  2  0  0  0  0
  2  6  2  0  0  0  0
  3  8  2  0  0  0  0
  3 16  1  0  0  0  0
  4  9  1  0  0  0  0
  4 16  2  0  0  0  0
  5 18  1  0  0  0  0
  6 20  1  0  0  0  0
  7 10  2  0  0  0  0
  7 19  1  0  0  0  0
  8 22  1  0  0  0  0
  9 22  2  0  0  0  0
 10 23  1  0  0  0  0
 11 12  2  0  0  0  0
 11 24  1  0  0  0  0
 12 25  1  0  0  0  0
 13 21  1  0  0  0  0
 13 23  2  0  0  0  0
 14 25  2  0  0  0  0
 14 26  1  0  0  0  0
 15 28  1  0  0  0  0
 15 29  2  0  0  0  0
 16 27  1  0  0  0  0
 17 27  1  0  0  0  0
 17 30  2  0  0  0  0
 17 32  1  0  0  0  0
 18 20  2  0  0  0  0
 18 37  1  0  0  0  0
 19 21  2  0  0  0  0
 19 38  1  0  0  0  0
 20 46  1  0  0  0  0
 21 39  1  0  0  0  0
 22 86  1  0  0  0  0
 23 87  1  0  0  0  0
 24 26  2  0  0  0  0
 24 86  1  0  0  0  0
 25 88  1  0  0  0  0
 26 89  1  0  0  0  0
 27 69  2  0  0  0  0
 28 66  1  0  0  0  0
 28 70  2  0  0  0  0
 29 67  1  0  0  0  0
 29 71  1  0  0  0  0
 30 72  1  0  0  0  0
 30 75  1  0  0  0  0
 31 60  1  0  0  0  0
 31 70  1  0  0  0  0
 31 71  2  0  0  0  0
 32 76  1  0  0  0  0
 32 81  2  0  0  0  0
 33 47  1  0  0  0  0
 33 77  1  0  0  0  0
 33 82  2  0  0  0  0
 34 62  1  0  0  0  0
 34 74  1  0  0  0  0
 34 83  2  0  0  0  0
 35 63  1  0  0  0  0
 35 73  1  0  0  0  0
 35 84  2  0  0  0  0
 36 64  1  0  0  0  0
 36 78  1  0  0  0  0
 36 85  2  0  0  0  0
 37 40  1  0  0  0  0
 38 47  1  0  0  0  0
 39 73  1  0  0  0  0
 40 42  1  0  0  0  0
 41 43  1  0  0  0  0
 41 44  1  0  0  0  0
 42 46  1  0  0  0  0
 43 48  1  0  0  0  0
 44 74  1  0  0  0  0
 45 48  1  0  0  0  0
 45 74  1  0  0  0  0
 46 77  1  0  0  0  0
 47 73  1  0  0  0  0
 48 72  1  0  0  0  0
 49 62  1  0  0  0  0
 50 64  1  0  0  0  0
 51 66  1  0  0  0  0
 52 66  1  0  0  0  0
 53 66  1  0  0  0  0
 54 67  1  0  0  0  0
 55 67  1  0  0  0  0
 56 68  1  0  0  0  0
 57 68  1  0  0  0  0
 58 68  1  0  0  0  0
 59 80  1  0  0  0  0
 60 61  1  0  0  0  0
 61 87  1  0  0  0  0
 62 65  1  0  0  0  0
 63 68  1  0  0  0  0
 63 78  1  0  0  0  0
 64 80  1  0  0  0  0
 65 67  1  0  0  0  0
 65 79  1  0  0  0  0
 69 72  1  0  0  0  0
M  CHG  2  79   1  80   1
M  ISO  4  34 100  61 101  62 100  87 101
M  END
> <Batch ID>
0074

> <Smiles>
CNC(C)C(=O)NC(C(=O)N1Cc2cc([101O:1][101CH2:1]Cc3nc(C(C)(C)C)cc(C(C)(C)C(N)[100CH:0](C)[100C:0](=O)N4CCCC(n5nc(-c6ccc(Oc7ccc(F)cc7F)cc6)c(C(N)=O)c5N)C4)n3)ccc2CC1C(=O)NC1CCCc2ccccc21)C(C)(C)C

> <Shape>
0.169

> <Color>
0.176

> <Negative vol penalty>
0.000

$$$$

  -OEChem-04052318293D

 85 93  0     1  0  0  0  0  0999 V2000
  -17.0568  -28.5068   21.1058 C   0  0  0  0  0  0  0  0  0  0  0  0
  -18.1539  -28.2977   20.2763 C   0  0  0  0  0  0  0  0  0  0  0  0
  -23.7134  -13.9814   20.5071 C   0  0  0  0  0  0  0  0  0  0  0  0
  -26.1272  -14.0751   20.4658 C   0  0  0  0  0  0  0  0  0  0  0  0
  -17.1790  -29.3244   22.2285 C   0  0  0  0  0  0  0  0  0  0  0  0
  -19.3736  -28.9071   20.5684 C   0  0  0  0  0  0  0  0  0  0  0  0
  -24.9650  -26.6037   19.6006 C   0  0  0  0  0  0  0  0  0  0  0  0
  -23.7623  -12.6099   20.2575 C   0  0  0  0  0  0  0  0  0  0  0  0
  -26.1762  -12.7036   20.2163 C   0  0  0  0  0  0  0  0  0  0  0  0
  -25.8966  -26.7992   18.5820 C   0  0  0  0  0  0  0  0  0  0  0  0
  -24.3506   -9.7787   22.0099 C   0  0  0  0  0  0  0  0  0  0  0  0
  -23.5231   -8.9517   22.7695 C   0  0  0  0  0  0  0  0  0  0  0  0
  -27.0124  -28.4600   19.9296 C   0  0  0  0  0  0  0  0  0  0  0  0
  -22.4325   -8.1905   20.7524 C   0  0  0  0  0  0  0  0  0  0  0  0
  -29.1900  -24.7221   20.4017 C   0  0  0  0  0  0  0  0  0  0  0  0
  -24.8958  -14.7140   20.6112 C   0  0  0  0  0  0  0  0  0  0  0  0
  -24.8428  -16.7673   22.1240 C   0  0  0  0  0  0  0  0  0  0  0  0
  -18.4034  -29.9364   22.5399 C   0  0  0  0  0  0  0  0  0  0  0  0
  -25.0438  -27.3439   20.7890 C   0  0  0  0  0  0  0  0  0  0  0  0
  -19.5120  -29.7348   21.6956 C   0  0  0  0  0  0  0  0  0  0  0  0
  -26.0821  -28.2701   20.9628 C   0  0  0  0  0  0  0  0  0  0  0  0
  -24.9937  -11.9710   20.1122 C   0  0  0  0  0  0  0  0  0  0  0  0
  -26.9188  -27.7296   18.7452 C   0  0  0  0  0  0  0  0  0  0  0  0
  -24.2190   -9.8117   20.6217 C   0  0  0  0  0  0  0  0  0  0  0  0
  -22.5640   -8.1576   22.1407 C   0  0  0  0  0  0  0  0  0  0  0  0
  -23.2600   -9.0176   19.9929 C   0  0  0  0  0  0  0  0  0  0  0  0
  -24.8459  -16.1308   20.8683 C   0  0  0  0  0  0  0  0  0  0  0  0
  -29.4763  -25.0055   19.0961 C   0  0  0  0  0  0  0  0  0  0  0  0
  -24.7866  -18.1076   21.8294 C   0  0  0  0  0  0  0  0  0  0  0  0
  -28.5514  -22.9957   19.1720 C   0  0  0  0  0  0  0  0  0  0  0  0
  -24.8870  -16.1979   23.4391 C   0  0  0  0  0  0  0  0  0  0  0  0
  -23.1502  -29.4283   22.2631 C   0  0  0  0  0  0  0  0  0  0  0  0
  -26.7982  -21.8368   17.8552 C   0  0  0  0  0  0  0  0  0  0  0  0
  -25.3856  -29.2116   24.6038 C   0  0  0  0  0  0  0  0  0  0  0  0
  -28.6048  -28.4908   25.4778 C   0  0  0  0  0  0  0  0  0  0  0  0
  -18.4745  -30.8497   23.7380 C   0  0  0  0  0  0  0  0  0  0  0  0
  -24.0468  -27.1019   21.8890 C   0  0  0  0  0  0  0  0  0  0  0  0
  -26.2228  -29.0756   22.2277 C   0  0  0  0  0  0  0  0  0  0  0  0
  -19.9012  -31.1579   24.1851 C   0  0  0  0  0  0  0  0  0  0  0  0
  -23.3782  -20.7691   17.9188 C   0  0  0  0  0  0  0  0  0  0  0  0
  -20.7693  -31.5239   22.9854 C   0  0  0  0  0  0  0  0  0  0  0  0
  -23.4118  -19.5081   18.7813 C   0  0  0  0  0  0  0  0  0  0  0  0
  -24.6439  -20.9043   17.0780 C   0  0  0  0  0  0  0  0  0  0  0  0
  -25.9442  -19.6086   18.7370 C   0  0  0  0  0  0  0  0  0  0  0  0
  -20.8583  -30.3584   21.9929 C   0  0  1  0  0  0  0  0  0  0  0  0
  -23.9204  -28.2796   22.8505 C   0  0  1  0  0  0  0  0  0  0  0  0
  -24.6975  -19.4497   19.6251 C   0  0  2  0  0  0  0  0  0  0  0  0
  -29.0342  -20.7886   18.0371 C   0  0  0  0  0  0  0  0  0  0  0  0
  -30.5786  -28.1002   26.9774 C   0  0  0  0  0  0  0  0  0  0  0  0
  -27.7380  -27.1462   15.4833 C   0  0  0  0  0  0  0  0  0  0  0  0
  -25.6028  -32.2535   24.5051 C   0  0  0  0  0  0  0  0  0  0  0  0
  -27.7589  -32.0707   25.7645 C   0  0  0  0  0  0  0  0  0  0  0  0
  -25.6359  -31.2794   26.8083 C   0  0  0  0  0  0  0  0  0  0  0  0
  -28.4103  -23.6643   22.8520 C   0  0  0  0  0  0  0  0  0  0  0  0
  -28.9149  -21.4436   21.7593 C   0  0  0  0  0  0  0  0  0  0  0  0
  -26.6478  -22.4449   21.5955 C   0  0  0  0  0  0  0  0  0  0  0  0
  -27.9352  -25.6268   25.8066 C   0  0  0  0  0  0  0  0  0  0  0  0
  -30.1051  -26.2164   18.4543 C   0  0  0  0  0  0  0  0  0  0  0  0
  -29.6208  -26.4793   17.0209 C   0  0  0  0  0  0  0  0  0  0  0  0
  -28.0043  -21.6830   18.7472 C   0  0  1  0  0  0  0  0  0  0  0  0
  -26.6675  -29.9398   24.9286 C   0  0  1  0  0  0  0  0  0  0  0  0
  -29.1784  -27.6431   26.5988 C   0  0  2  0  0  0  0  0  0  0  0  0
  -28.1258  -26.8050   16.9165 C   0  0  1  0  0  0  0  0  0  1  0  0
  -26.4128  -31.3722   25.4769 C   0  0  0  0  0  0  0  0  0  0  0  0
  -28.1592  -22.7828   21.6084 C   0  0  0  0  0  0  0  0  0  0  0  0
  -24.7954  -16.9957   19.8517 N   0  0  0  0  0  0  0  0  0  0  0  0
  -28.6181  -23.4728   20.4192 N   0  0  0  0  0  0  0  0  0  0  0  0
  -24.7601  -18.1893   20.4682 N   0  0  0  0  0  0  0  0  0  0  0  0
  -29.0709  -23.9200   18.3576 N   0  3  0  0  0  0  0  0  0  0  0  0
  -25.2197  -28.8075   23.2715 N   0  0  0  0  0  0  0  0  0  0  0  0
  -25.8434  -20.8213   17.9132 N   0  0  0  0  0  0  0  0  0  0  0  0
  -24.7577  -19.2125   22.6045 N   0  0  0  0  0  0  0  0  0  0  0  0
  -24.9425  -14.8028   23.5616 N   0  0  0  0  0  0  0  0  0  0  0  0
  -21.7861  -29.3564   22.4719 N   0  0  0  0  0  0  0  0  0  0  0  0
  -27.4090  -29.0744   25.8394 N   0  0  0  0  0  0  0  0  0  0  0  0
  -29.2469  -26.2133   26.1841 N   0  3  0  0  0  0  0  0  0  0  0  0
  -24.8609  -16.9045   24.4752 O   0  0  0  0  0  0  0  0  0  0  0  0
  -23.7493  -30.3150   21.6661 O   0  0  0  0  0  0  0  0  0  0  0  0
  -26.7077  -22.8318   17.1314 O   0  0  0  0  0  0  0  0  0  0  0  0
  -24.5649  -29.0026   25.5007 O   0  0  0  0  0  0  0  0  0  0  0  0
  -29.1635  -28.6250   24.3914 O   0  0  0  0  0  0  0  0  0  0  0  0
  -25.0418  -10.6327   19.8689 O   0  0  0  0  0  0  0  0  0  0  0  0
  -27.8291  -27.9229   17.7523 O   0  0  0  0  0  0  0  0  0  1  0  0
  -21.7705   -7.3623   22.8701 F   0  0  0  0  0  0  0  0  0  0  0  0
  -23.1297   -9.0441   18.6594 F   0  0  0  0  0  0  0  0  0  0  0  0
  1  2  1  0  0  0  0
  1  5  2  0  0  0  0
  2  6  2  0  0  0  0
  3  8  2  0  0  0  0
  3 16  1  0  0  0  0
  4  9  1  0  0  0  0
  4 16  2  0  0  0  0
  5 18  1  0  0  0  0
  6 20  1  0  0  0  0
  7 10  2  0  0  0  0
  7 19  1  0  0  0  0
  8 22  1  0  0  0  0
  9 22  2  0  0  0  0
 10 23  1  0  0  0  0
 11 12  2  0  0  0  0
 11 24  1  0  0  0  0
 12 25  1  0  0  0  0
 13 21  1  0  0  0  0
 13 23  2  0  0  0  0
 14 25  2  0  0  0  0
 14 26  1  0  0  0  0
 15 28  2  0  0  0  0
 15 67  1  0  0  0  0
 16 27  1  0  0  0  0
 17 27  1  0  0  0  0
 17 29  2  0  0  0  0
 17 31  1  0  0  0  0
 18 20  2  0  0  0  0
 18 36  1  0  0  0  0
 19 21  2  0  0  0  0
 19 37  1  0  0  0  0
 20 45  1  0  0  0  0
 21 38  1  0  0  0  0
 22 82  1  0  0  0  0
 23 83  1  0  0  0  0
 24 26  2  0  0  0  0
 24 82  1  0  0  0  0
 25 84  1  0  0  0  0
 26 85  1  0  0  0  0
 27 66  2  0  0  0  0
 28 58  1  0  0  0  0
 28 69  1  0  0  0  0
 29 68  1  0  0  0  0
 29 72  1  0  0  0  0
 30 60  1  0  0  0  0
 30 67  1  0  0  0  0
 30 69  2  0  0  0  0
 31 73  1  0  0  0  0
 31 77  2  0  0  0  0
 32 46  1  0  0  0  0
 32 74  1  0  0  0  0
 32 78  2  0  0  0  0
 33 60  1  0  0  0  0
 33 71  1  0  0  0  0
 33 79  2  0  0  0  0
 34 61  1  0  0  0  0
 34 70  1  0  0  0  0
 34 80  2  0  0  0  0
 35 62  1  0  0  0  0
 35 75  1  0  0  0  0
 35 81  2  0  0  0  0
 36 39  1  0  0  0  0
 37 46  1  0  0  0  0
 38 70  1  0  0  0  0
 39 41  1  0  0  0  0
 40 42  1  0  0  0  0
 40 43  1  0  0  0  0
 41 45  1  0  0  0  0
 42 47  1  0  0  0  0
 43 71  1  0  0  0  0
 44 47  1  0  0  0  0
 44 71  1  0  0  0  0
 45 74  1  0  0  0  0
 46 70  1  0  0  0  0
 47 68  1  0  0  0  0
 48 60  1  0  0  0  0
 49 62  1  0  0  0  0
 50 63  1  0  0  0  0
 51 64  1  0  0  0  0
 52 64  1  0  0  0  0
 53 64  1  0  0  0  0
 54 65  1  0  0  0  0
 55 65  1  0  0  0  0
 56 65  1  0  0  0  0
 57 76  1  0  0  0  0
 58 59  1  0  0  0  0
 59 63  1  0  0  0  0
 61 64  1  0  0  0  0
 61 75  1  0  0  0  0
 62 76  1  0  0  0  0
 63 83  1  0  0  0  0
 65 67  1  0  0  0  0
 66 68  1  0  0  0  0
M  CHG  2  69   1  76   1
M  ISO  4  33 100  60 100  63 101  83 101
M  END
> <Batch ID>
0074

> <Smiles>
CNC(C)C(=O)NC(C(=O)N1Cc2cc([101O:1][101CH:1](C)CCc3cn(C(C)(C)C)c([100CH:0](C)[100C:0](=O)N4CCCC(n5nc(-c6ccc(Oc7ccc(F)cc7F)cc6)c(C(N)=O)c5N)C4)n3)ccc2CC1C(=O)NC1CCCc2ccccc21)C(C)(C)C

> <Shape>
0.251

> <Color>
0.070

> <Negative vol penalty>
0.000

$$$$

  -OEChem-04052318293D

 86 94  0     1  0  0  0  0  0999 V2000
  -32.4020  -30.8079   15.5890 C   0  0  0  0  0  0  0  0  0  0  0  0
  -32.1928  -30.0433   16.7322 C   0  0  0  0  0  0  0  0  0  0  0  0
  -23.1651   -9.8501   19.9127 C   0  0  0  0  0  0  0  0  0  0  0  0
  -23.8352   -9.8987   22.2333 C   0  0  0  0  0  0  0  0  0  0  0  0
  -31.7776  -30.4566   14.3929 C   0  0  0  0  0  0  0  0  0  0  0  0
  -31.3580  -28.9275   16.6803 C   0  0  0  0  0  0  0  0  0  0  0  0
  -32.0144  -23.6909   19.7872 C   0  0  0  0  0  0  0  0  0  0  0  0
  -22.4390   -8.6824   20.1467 C   0  0  0  0  0  0  0  0  0  0  0  0
  -23.1091   -8.7309   22.4675 C   0  0  0  0  0  0  0  0  0  0  0  0
  -31.4283  -23.2162   20.9598 C   0  0  0  0  0  0  0  0  0  0  0  0
  -19.8794   -7.8635   22.9543 C   0  0  0  0  0  0  0  0  0  0  0  0
  -19.0788   -7.8179   24.0955 C   0  0  0  0  0  0  0  0  0  0  0  0
  -29.7908  -22.0226   19.6510 C   0  0  0  0  0  0  0  0  0  0  0  0
  -20.3353   -5.9179   24.9009 C   0  0  0  0  0  0  0  0  0  0  0  0
  -31.5976  -17.4919   23.0327 C   0  0  0  0  0  0  0  0  0  0  0  0
  -23.8633  -10.4582   20.9559 C   0  0  0  0  0  0  0  0  0  0  0  0
  -24.1510  -12.9893   20.8208 C   0  0  0  0  0  0  0  0  0  0  0  0
  -30.9424  -29.3304   14.3239 C   0  0  0  0  0  0  0  0  0  0  0  0
  -31.4855  -23.3433   18.5359 C   0  0  0  0  0  0  0  0  0  0  0  0
  -30.7208  -28.5617   15.4825 C   0  0  0  0  0  0  0  0  0  0  0  0
  -30.3735  -22.4922   18.4640 C   0  0  0  0  0  0  0  0  0  0  0  0
  -22.4110   -8.1228   21.4241 C   0  0  0  0  0  0  0  0  0  0  0  0
  -30.3146  -22.3843   20.8919 C   0  0  0  0  0  0  0  0  0  0  0  0
  -20.9079   -6.9363   22.7862 C   0  0  0  0  0  0  0  0  0  0  0  0
  -19.3067   -6.8451   25.0689 C   0  0  0  0  0  0  0  0  0  0  0  0
  -21.1358   -5.9636   23.7596 C   0  0  0  0  0  0  0  0  0  0  0  0
  -24.6140  -11.6642   20.7146 C   0  0  0  0  0  0  0  0  0  0  0  0
  -31.4220  -18.8456   22.9733 C   0  0  0  0  0  0  0  0  0  0  0  0
  -25.2387  -13.7606   20.4914 C   0  0  0  0  0  0  0  0  0  0  0  0
  -32.7772  -18.2595   21.3240 C   0  0  0  0  0  0  0  0  0  0  0  0
  -22.8536  -13.4794   21.1847 C   0  0  0  0  0  0  0  0  0  0  0  0
  -30.2083  -24.9572   16.1135 C   0  0  0  0  0  0  0  0  0  0  0  0
  -30.5955  -14.8779   21.0696 C   0  0  0  0  0  0  0  0  0  0  0  0
  -30.2511  -22.0544   14.6664 C   0  0  0  0  0  0  0  0  0  0  0  0
  -30.2887  -18.6571   14.9879 C   0  0  0  0  0  0  0  0  0  0  0  0
  -30.2518  -29.0176   13.0201 C   0  0  0  0  0  0  0  0  0  0  0  0
  -32.1454  -23.8421   17.2796 C   0  0  0  0  0  0  0  0  0  0  0  0
  -29.7797  -22.0729   17.1448 C   0  0  0  0  0  0  0  0  0  0  0  0
  -29.6791  -27.6039   12.9581 C   0  0  0  0  0  0  0  0  0  0  0  0
  -29.6922  -12.4981   18.4719 C   0  0  0  0  0  0  0  0  0  0  0  0
  -28.9160  -27.2804   14.2387 C   0  0  0  0  0  0  0  0  0  0  0  0
  -28.2534  -12.1568   18.8571 C   0  0  0  0  0  0  0  0  0  0  0  0
  -30.5621  -12.7342   19.7039 C   0  0  0  0  0  0  0  0  0  0  0  0
  -28.5854  -13.4363   21.0170 C   0  0  0  0  0  0  0  0  0  0  0  0
  -29.8419  -27.3299   15.4601 C   0  0  1  0  0  0  0  0  0  0  0  0
  -31.2120  -23.8398   16.0730 C   0  0  1  0  0  0  0  0  0  0  0  0
  -27.6678  -13.2207   19.8020 C   0  0  2  0  0  0  0  0  0  0  0  0
  -33.6679  -18.3422   20.1396 C   0  0  0  0  0  0  0  0  0  0  0  0
  -32.0207  -15.7963   19.2710 C   0  0  0  0  0  0  0  0  0  0  0  0
  -30.2825  -16.5493   13.6261 C   0  0  0  0  0  0  0  0  0  0  0  0
  -35.4052  -15.7707   23.5691 C   0  0  0  0  0  0  0  0  0  0  0  0
  -34.0168  -14.5529   25.2555 C   0  0  0  0  0  0  0  0  0  0  0  0
  -27.2771  -22.4328   14.0988 C   0  0  0  0  0  0  0  0  0  0  0  0
  -27.1277  -19.9800   13.6197 C   0  0  0  0  0  0  0  0  0  0  0  0
  -28.5811  -21.4379   12.2109 C   0  0  0  0  0  0  0  0  0  0  0  0
  -32.9026  -17.8043   16.0830 C   0  0  0  0  0  0  0  0  0  0  0  0
  -30.6126  -19.7838   23.8325 C   0  0  0  0  0  0  0  0  0  0  0  0
  -29.1780  -19.9870   23.3402 C   0  0  0  0  0  0  0  0  0  0  0  0
  -33.0698  -14.9251   22.9566 C   0  0  0  0  0  0  0  0  0  0  0  0
  -29.0982  -20.6473   21.9687 C   0  0  0  0  0  0  0  0  0  1  0  0
  -32.0210  -15.0911   20.6263 C   0  0  1  0  0  0  0  0  0  0  0  0
  -29.2931  -20.8914   14.5745 C   0  0  1  0  0  0  0  0  0  0  0  0
  -31.1422  -17.5918   14.3238 C   0  0  2  0  0  0  0  0  0  0  0  0
  -33.9804  -15.5101   24.0599 C   0  0  0  0  0  0  0  0  0  0  0  0
  -32.8908  -15.8131   21.6952 C   0  0  1  0  0  0  0  0  0  0  0  0
  -28.0795  -21.1948   13.6510 C   0  0  0  0  0  0  0  0  0  0  0  0
  -25.8960  -11.5938   20.3464 N   0  0  0  0  0  0  0  0  0  0  0  0
  -32.4401  -17.1566   22.0003 N   0  0  0  0  0  0  0  0  0  0  0  0
  -26.2478  -12.8845   20.2183 N   0  0  0  0  0  0  0  0  0  0  0  0
  -32.1634  -19.2943   21.9070 N   0  3  0  0  0  0  0  0  0  0  0  0
  -30.4568  -22.5919   15.9449 N   0  0  0  0  0  0  0  0  0  0  0  0
  -29.9562  -13.7337   20.5917 N   0  0  0  0  0  0  0  0  0  0  0  0
  -25.4209  -15.0958   20.4116 N   0  0  0  0  0  0  0  0  0  0  0  0
  -21.8507  -12.5501   21.4930 N   0  0  0  0  0  0  0  0  0  0  0  0
  -30.6488  -26.1306   15.5316 N   0  0  0  0  0  0  0  0  0  0  0  0
  -30.0871  -19.7403   14.1589 N   0  0  0  0  0  0  0  0  0  0  0  0
  -31.9893  -16.9009   15.3367 N   0  3  0  0  0  0  0  0  0  0  0  0
  -22.5869  -14.7046   21.2191 O   0  0  0  0  0  0  0  0  0  0  0  0
  -29.1146  -24.7683   16.6330 O   0  0  0  0  0  0  0  0  0  0  0  0
  -30.0670  -15.7061   21.8159 O   0  0  0  0  0  0  0  0  0  0  0  0
  -30.8024  -22.4662   13.6425 O   0  0  0  0  0  0  0  0  0  0  0  0
  -29.8421  -18.5385   16.1268 O   0  0  0  0  0  0  0  0  0  0  0  0
  -21.7024   -6.9835   21.6530 O   0  0  0  0  0  0  0  0  0  0  0  0
  -29.7402  -21.9200   22.0349 O   0  0  0  0  0  0  0  0  0  1  0  0
  -18.5388   -6.8023   26.1655 F   0  0  0  0  0  0  0  0  0  0  0  0
  -22.1232   -5.0709   23.6043 F   0  0  0  0  0  0  0  0  0  0  0  0
  1  2  1  0  0  0  0
  1  5  2  0  0  0  0
  2  6  2  0  0  0  0
  3  8  2  0  0  0  0
  3 16  1  0  0  0  0
  4  9  1  0  0  0  0
  4 16  2  0  0  0  0
  5 18  1  0  0  0  0
  6 20  1  0  0  0  0
  7 10  2  0  0  0  0
  7 19  1  0  0  0  0
  8 22  1  0  0  0  0
  9 22  2  0  0  0  0
 10 23  1  0  0  0  0
 11 12  2  0  0  0  0
 11 24  1  0  0  0  0
 12 25  1  0  0  0  0
 13 21  1  0  0  0  0
 13 23  2  0  0  0  0
 14 25  2  0  0  0  0
 14 26  1  0  0  0  0
 15 28  2  0  0  0  0
 15 68  1  0  0  0  0
 16 27  1  0  0  0  0
 17 27  1  0  0  0  0
 17 29  2  0  0  0  0
 17 31  1  0  0  0  0
 18 20  2  0  0  0  0
 18 36  1  0  0  0  0
 19 21  2  0  0  0  0
 19 37  1  0  0  0  0
 20 45  1  0  0  0  0
 21 38  1  0  0  0  0
 22 83  1  0  0  0  0
 23 84  1  0  0  0  0
 24 26  2  0  0  0  0
 24 83  1  0  0  0  0
 25 85  1  0  0  0  0
 26 86  1  0  0  0  0
 27 67  2  0  0  0  0
 28 57  1  0  0  0  0
 28 70  1  0  0  0  0
 29 69  1  0  0  0  0
 29 73  1  0  0  0  0
 30 48  1  0  0  0  0
 30 68  1  0  0  0  0
 30 70  2  0  0  0  0
 31 74  1  0  0  0  0
 31 78  2  0  0  0  0
 32 46  1  0  0  0  0
 32 75  1  0  0  0  0
 32 79  2  0  0  0  0
 33 61  1  0  0  0  0
 33 72  1  0  0  0  0
 33 80  2  0  0  0  0
 34 62  1  0  0  0  0
 34 71  1  0  0  0  0
 34 81  2  0  0  0  0
 35 63  1  0  0  0  0
 35 76  1  0  0  0  0
 35 82  2  0  0  0  0
 36 39  1  0  0  0  0
 37 46  1  0  0  0  0
 38 71  1  0  0  0  0
 39 41  1  0  0  0  0
 40 42  1  0  0  0  0
 40 43  1  0  0  0  0
 41 45  1  0  0  0  0
 42 47  1  0  0  0  0
 43 72  1  0  0  0  0
 44 47  1  0  0  0  0
 44 72  1  0  0  0  0
 45 75  1  0  0  0  0
 46 71  1  0  0  0  0
 47 69  1  0  0  0  0
 49 61  1  0  0  0  0
 50 63  1  0  0  0  0
 51 64  1  0  0  0  0
 52 64  1  0  0  0  0
 53 66  1  0  0  0  0
 54 66  1  0  0  0  0
 55 66  1  0  0  0  0
 56 77  1  0  0  0  0
 57 58  1  0  0  0  0
 58 60  1  0  0  0  0
 59 64  1  0  0  0  0
 59 65  1  0  0  0  0
 60 84  1  0  0  0  0
 61 65  1  0  0  0  0
 62 66  1  0  0  0  0
 62 76  1  0  0  0  0
 63 77  1  0  0  0  0
 65 68  1  0  0  0  0
 67 69  1  0  0  0  0
M  CHG  2  70   1  77   1
M  ISO  4  33 100  60 101  61 100  84 101
M  END
> <Batch ID>
0074

> <Smiles>
CNC(C)C(=O)NC(C(=O)N1Cc2cc([101O:1][101CH2:1]CCc3cn(C(CC(C)C)[100CH:0](C)[100C:0](=O)N4CCCC(n5nc(-c6ccc(Oc7ccc(F)cc7F)cc6)c(C(N)=O)c5N)C4)c(C)n3)ccc2CC1C(=O)NC1CCCc2ccccc21)C(C)(C)C

> <Shape>
0.207

> <Color>
0.167

> <Negative vol penalty>
0.000

$$$$

  -OEChem-04052318293D

 83 91  0     1  0  0  0  0  0999 V2000
  -26.1427  -32.4163   22.9851 C   0  0  0  0  0  0  0  0  0  0  0  0
  -26.9286  -31.3446   23.3961 C   0  0  0  0  0  0  0  0  0  0  0  0
  -23.5825   -9.8174   21.3229 C   0  0  0  0  0  0  0  0  0  0  0  0
  -24.2844  -10.7390   23.4431 C   0  0  0  0  0  0  0  0  0  0  0  0
  -25.1532  -32.2246   22.0217 C   0  0  0  0  0  0  0  0  0  0  0  0
  -26.7248  -30.0801   22.8447 C   0  0  0  0  0  0  0  0  0  0  0  0
  -30.2955  -24.1449   21.0172 C   0  0  0  0  0  0  0  0  0  0  0  0
  -23.0022   -8.7357   21.9852 C   0  0  0  0  0  0  0  0  0  0  0  0
  -23.7040   -9.6573   24.1054 C   0  0  0  0  0  0  0  0  0  0  0  0
  -30.2624  -22.7649   21.2124 C   0  0  0  0  0  0  0  0  0  0  0  0
  -21.0219   -5.9151   23.1419 C   0  0  0  0  0  0  0  0  0  0  0  0
  -19.7466   -5.5173   22.7406 C   0  0  0  0  0  0  0  0  0  0  0  0
  -28.5769  -22.5688   19.4978 C   0  0  0  0  0  0  0  0  0  0  0  0
  -18.8867   -7.7030   23.3071 C   0  0  0  0  0  0  0  0  0  0  0  0
  -28.8020  -19.2019   24.7896 C   0  0  0  0  0  0  0  0  0  0  0  0
  -24.2237  -10.8191   22.0518 C   0  0  0  0  0  0  0  0  0  0  0  0
  -24.2112  -13.1604   21.0392 C   0  0  0  0  0  0  0  0  0  0  0  0
  -24.9436  -30.9593   21.4512 C   0  0  0  0  0  0  0  0  0  0  0  0
  -29.4603  -24.7495   20.0667 C   0  0  0  0  0  0  0  0  0  0  0  0
  -25.7307  -29.8710   21.8738 C   0  0  0  0  0  0  0  0  0  0  0  0
  -28.6032  -23.9564   19.2906 C   0  0  0  0  0  0  0  0  0  0  0  0
  -23.0629   -8.6556   23.3765 C   0  0  0  0  0  0  0  0  0  0  0  0
  -29.4009  -21.9769   20.4548 C   0  0  0  0  0  0  0  0  0  0  0  0
  -21.2296   -7.2067   23.6258 C   0  0  0  0  0  0  0  0  0  0  0  0
  -18.6790   -6.4113   22.8232 C   0  0  0  0  0  0  0  0  0  0  0  0
  -20.1620   -8.1007   23.7084 C   0  0  0  0  0  0  0  0  0  0  0  0
  -24.8238  -11.9364   21.3682 C   0  0  0  0  0  0  0  0  0  0  0  0
  -29.1762  -18.8114   23.5349 C   0  0  0  0  0  0  0  0  0  0  0  0
  -25.1952  -13.8769   20.4029 C   0  0  0  0  0  0  0  0  0  0  0  0
  -27.0725  -19.4936   23.4390 C   0  0  0  0  0  0  0  0  0  0  0  0
  -22.8722  -13.6096   21.2866 C   0  0  0  0  0  0  0  0  0  0  0  0
  -27.1159  -26.8930   20.1809 C   0  0  0  0  0  0  0  0  0  0  0  0
  -27.2908  -26.6807   16.9488 C   0  0  0  0  0  0  0  0  0  0  0  0
  -28.1714  -24.8460   14.2093 C   0  0  0  0  0  0  0  0  0  0  0  0
  -31.1754  -13.6728   20.6203 C   0  0  0  0  0  0  0  0  0  0  0  0
  -23.8305  -30.7908   20.4476 C   0  0  0  0  0  0  0  0  0  0  0  0
  -29.5273  -26.2364   19.8495 C   0  0  0  0  0  0  0  0  0  0  0  0
  -27.7010  -24.5543   18.2432 C   0  0  0  0  0  0  0  0  0  0  0  0
  -23.9288  -29.4990   19.6401 C   0  0  0  0  0  0  0  0  0  0  0  0
  -29.1237  -13.2907   17.7357 C   0  0  0  0  0  0  0  0  0  0  0  0
  -24.2149  -28.3156   20.5590 C   0  0  0  0  0  0  0  0  0  0  0  0
  -27.7338  -13.0108   18.3098 C   0  0  0  0  0  0  0  0  0  0  0  0
  -30.2225  -12.6457   18.5774 C   0  0  0  0  0  0  0  0  0  0  0  0
  -28.7954  -12.7079   20.5858 C   0  0  0  0  0  0  0  0  0  0  0  0
  -25.5565  -28.4895   21.2810 C   0  0  1  0  0  0  0  0  0  0  0  0
  -28.2624  -26.8049   19.2138 C   0  0  1  0  0  0  0  0  0  0  0  0
  -27.6578  -13.3849   19.8023 C   0  0  2  0  0  0  0  0  0  0  0  0
  -25.7166  -19.8423   22.9466 C   0  0  0  0  0  0  0  0  0  0  0  0
  -28.1582  -24.9208   11.7010 C   0  0  0  0  0  0  0  0  0  0  0  0
  -24.2949  -26.1022   16.9498 C   0  0  0  0  0  0  0  0  0  0  0  0
  -24.5266  -25.2644   14.6019 C   0  0  0  0  0  0  0  0  0  0  0  0
  -25.0594  -27.6426   15.1339 C   0  0  0  0  0  0  0  0  0  0  0  0
  -31.1207  -24.6419   14.0720 C   0  0  0  0  0  0  0  0  0  0  0  0
  -30.4543  -18.2810   23.0447 C   0  0  0  0  0  0  0  0  0  0  0  0
  -30.5396  -16.7396   23.1231 C   0  0  0  0  0  0  0  0  0  0  0  0
  -31.8932  -16.2021   22.6494 C   0  0  0  0  0  0  0  0  0  0  0  0
  -28.0331  -18.7064   21.2405 C   0  0  0  0  0  0  0  0  0  0  0  0
  -31.9843  -14.6822   22.7384 C   0  0  0  0  0  0  0  0  0  0  0  0
  -28.1256  -19.9705   20.3927 C   0  0  0  0  0  0  0  0  0  1  0  0
  -26.6353  -25.8188   15.8970 C   0  0  1  0  0  0  0  0  0  0  0  0
  -28.9565  -25.2110   12.9624 C   0  0  2  0  0  0  0  0  0  0  0  0
  -25.1445  -26.1956   15.6666 C   0  0  0  0  0  0  0  0  0  0  0  0
  -26.0984  -11.8753   20.9734 N   0  0  0  0  0  0  0  0  0  0  0  0
  -28.0866  -19.0022   22.7197 N   0  0  0  0  0  0  0  0  0  0  0  0
  -26.2946  -13.0698   20.3897 N   0  0  0  0  0  0  0  0  0  0  0  0
  -27.4960  -19.6195   24.7008 N   0  3  0  0  0  0  0  0  0  0  0  0
  -27.7985  -26.0134   18.0725 N   0  0  0  0  0  0  0  0  0  0  0  0
  -30.0948  -13.0422   19.9819 N   0  0  0  0  0  0  0  0  0  0  0  0
  -25.2187  -15.1122   19.8590 N   0  0  0  0  0  0  0  0  0  0  0  0
  -21.9905  -12.7474   21.9524 N   0  0  0  0  0  0  0  0  0  0  0  0
  -26.6539  -28.1784   20.3904 N   0  0  0  0  0  0  0  0  0  0  0  0
  -27.4694  -25.9244   14.7047 N   0  0  0  0  0  0  0  0  0  0  0  0
  -30.9686  -14.0213   21.9494 N   0  0  0  0  0  0  0  0  0  0  0  0
  -30.2267  -24.4336   12.9039 N   0  3  0  0  0  0  0  0  0  0  0  0
  -22.4649  -14.7358   20.9133 O   0  0  0  0  0  0  0  0  0  0  0  0
  -26.6815  -25.8703   20.6977 O   0  0  0  0  0  0  0  0  0  0  0  0
  -27.3565  -27.9004   16.7763 O   0  0  0  0  0  0  0  0  0  0  0  0
  -28.1771  -23.7162   14.6931 O   0  0  0  0  0  0  0  0  0  0  0  0
  -32.2433  -13.9127   20.0467 O   0  0  0  0  0  0  0  0  0  0  0  0
  -22.4965   -7.6004   24.0231 O   0  0  0  0  0  0  0  0  0  0  0  0
  -29.3661  -20.6297   20.6438 O   0  0  0  0  0  0  0  0  0  1  0  0
  -17.4547   -6.0297   22.4363 F   0  0  0  0  0  0  0  0  0  0  0  0
  -20.3557   -9.3432   24.1714 F   0  0  0  0  0  0  0  0  0  0  0  0
  1  2  1  0  0  0  0
  1  5  2  0  0  0  0
  2  6  2  0  0  0  0
  3  8  2  0  0  0  0
  3 16  1  0  0  0  0
  4  9  1  0  0  0  0
  4 16  2  0  0  0  0
  5 18  1  0  0  0  0
  6 20  1  0  0  0  0
  7 10  2  0  0  0  0
  7 19  1  0  0  0  0
  8 22  1  0  0  0  0
  9 22  2  0  0  0  0
 10 23  1  0  0  0  0
 11 12  2  0  0  0  0
 11 24  1  0  0  0  0
 12 25  1  0  0  0  0
 13 21  1  0  0  0  0
 13 23  2  0  0  0  0
 14 25  2  0  0  0  0
 14 26  1  0  0  0  0
 15 28  2  0  0  0  0
 15 66  1  0  0  0  0
 16 27  1  0  0  0  0
 17 27  1  0  0  0  0
 17 29  2  0  0  0  0
 17 31  1  0  0  0  0
 18 20  2  0  0  0  0
 18 36  1  0  0  0  0
 19 21  2  0  0  0  0
 19 37  1  0  0  0  0
 20 45  1  0  0  0  0
 21 38  1  0  0  0  0
 22 80  1  0  0  0  0
 23 81  1  0  0  0  0
 24 26  2  0  0  0  0
 24 80  1  0  0  0  0
 25 82  1  0  0  0  0
 26 83  1  0  0  0  0
 27 63  2  0  0  0  0
 28 54  1  0  0  0  0
 28 64  1  0  0  0  0
 29 65  1  0  0  0  0
 29 69  1  0  0  0  0
 30 48  1  0  0  0  0
 30 64  1  0  0  0  0
 30 66  2  0  0  0  0
 31 70  1  0  0  0  0
 31 75  2  0  0  0  0
 32 46  1  0  0  0  0
 32 71  1  0  0  0  0
 32 76  2  0  0  0  0
 33 60  1  0  0  0  0
 33 67  1  0  0  0  0
 33 77  2  0  0  0  0
 34 61  1  0  0  0  0
 34 72  1  0  0  0  0
 34 78  2  0  0  0  0
 35 68  1  0  0  0  0
 35 73  1  0  0  0  0
 35 79  2  0  0  0  0
 36 39  1  0  0  0  0
 37 46  1  0  0  0  0
 38 67  1  0  0  0  0
 39 41  1  0  0  0  0
 40 42  1  0  0  0  0
 40 43  1  0  0  0  0
 41 45  1  0  0  0  0
 42 47  1  0  0  0  0
 43 68  1  0  0  0  0
 44 47  1  0  0  0  0
 44 68  1  0  0  0  0
 45 71  1  0  0  0  0
 46 67  1  0  0  0  0
 47 65  1  0  0  0  0
 49 61  1  0  0  0  0
 50 62  1  0  0  0  0
 51 62  1  0  0  0  0
 52 62  1  0  0  0  0
 53 74  1  0  0  0  0
 54 55  1  0  0  0  0
 55 56  1  0  0  0  0
 56 58  1  0  0  0  0
 57 59  1  0  0  0  0
 57 64  1  0  0  0  0
 58 73  1  0  0  0  0
 59 81  1  0  0  0  0
 60 62  1  0  0  0  0
 60 72  1  0  0  0  0
 61 74  1  0  0  0  0
 63 65  1  0  0  0  0
M  CHG  2  66   1  74   1
M  ISO  4  35 100  59 101  73 100  81 101
M  END
> <Batch ID>
0074

> <Smiles>
CNC(C)C(=O)NC(C(=O)N1Cc2cc([101O:1][101CH2:1]Cn3c(CCCC[100NH:0][100C:0](=O)N4CCCC(n5nc(-c6ccc(Oc7ccc(F)cc7F)cc6)c(C(N)=O)c5N)C4)cnc3C)ccc2CC1C(=O)NC1CCCc2ccccc21)C(C)(C)C

> <Shape>
0.283

> <Color>
0.161

> <Negative vol penalty>
0.000

$$$$

  -OEChem-04052318293D

 83 91  0     1  0  0  0  0  0999 V2000
  -27.6591  -35.7873   19.4414 C   0  0  0  0  0  0  0  0  0  0  0  0
  -28.4294  -34.6366   19.3069 C   0  0  0  0  0  0  0  0  0  0  0  0
  -24.2590   -9.6461   22.0105 C   0  0  0  0  0  0  0  0  0  0  0  0
  -23.0179  -10.2114   20.0161 C   0  0  0  0  0  0  0  0  0  0  0  0
  -26.5530  -35.7891   20.2900 C   0  0  0  0  0  0  0  0  0  0  0  0
  -28.0944  -33.4873   20.0220 C   0  0  0  0  0  0  0  0  0  0  0  0
  -28.2601  -26.3443   19.5055 C   0  0  0  0  0  0  0  0  0  0  0  0
  -26.6181  -21.2892   22.6730 C   0  0  0  0  0  0  0  0  0  0  0  0
  -23.4233   -8.5491   22.2195 C   0  0  0  0  0  0  0  0  0  0  0  0
  -22.1823   -9.1143   20.2252 C   0  0  0  0  0  0  0  0  0  0  0  0
  -28.6992  -25.2235   20.2089 C   0  0  0  0  0  0  0  0  0  0  0  0
  -20.3254   -7.9758   23.4438 C   0  0  0  0  0  0  0  0  0  0  0  0
  -19.8490   -7.7621   24.7372 C   0  0  0  0  0  0  0  0  0  0  0  0
  -25.3056  -20.8349   22.6074 C   0  0  0  0  0  0  0  0  0  0  0  0
  -26.7200  -25.3190   21.5848 C   0  0  0  0  0  0  0  0  0  0  0  0
  -20.9150   -5.5943   24.7718 C   0  0  0  0  0  0  0  0  0  0  0  0
  -24.0562  -10.4773   20.9088 C   0  0  0  0  0  0  0  0  0  0  0  0
  -26.1172  -11.6390   19.9545 C   0  0  0  0  0  0  0  0  0  0  0  0
  -26.1986  -34.6363   21.0085 C   0  0  0  0  0  0  0  0  0  0  0  0
  -27.0509  -26.9685   19.8442 C   0  0  0  0  0  0  0  0  0  0  0  0
  -26.9832  -33.4741   20.8821 C   0  0  0  0  0  0  0  0  0  0  0  0
  -26.2666  -26.4461   20.8825 C   0  0  0  0  0  0  0  0  0  0  0  0
  -27.5623  -20.8017   21.7762 C   0  0  0  0  0  0  0  0  0  0  0  0
  -22.3850   -8.2831   21.3269 C   0  0  0  0  0  0  0  0  0  0  0  0
  -27.9305  -24.7124   21.2506 C   0  0  0  0  0  0  0  0  0  0  0  0
  -21.0966   -6.9986   22.8143 C   0  0  0  0  0  0  0  0  0  0  0  0
  -20.1438   -6.5714   25.4012 C   0  0  0  0  0  0  0  0  0  0  0  0
  -21.3914   -5.8079   23.4783 C   0  0  0  0  0  0  0  0  0  0  0  0
  -24.9188  -11.6111   20.6926 C   0  0  0  0  0  0  0  0  0  0  0  0
  -24.9908  -19.9001   21.6343 C   0  0  0  0  0  0  0  0  0  0  0  0
  -27.1465  -19.8682   20.8405 C   0  0  0  0  0  0  0  0  0  0  0  0
  -26.5505  -12.9387   20.0522 C   0  0  0  0  0  0  0  0  0  0  0  0
  -26.7795  -10.5844   19.2440 C   0  0  0  0  0  0  0  0  0  0  0  0
  -26.2336  -29.8560   20.8922 C   0  0  0  0  0  0  0  0  0  0  0  0
  -23.2212  -28.7250   20.4814 C   0  0  0  0  0  0  0  0  0  0  0  0
  -23.5575  -17.9784   21.0107 C   0  0  0  0  0  0  0  0  0  0  0  0
  -21.1428  -26.0260   20.2758 C   0  0  0  0  0  0  0  0  0  0  0  0
  -25.0220  -34.7007   21.9498 C   0  0  0  0  0  0  0  0  0  0  0  0
  -26.5783  -28.1607   19.0583 C   0  0  0  0  0  0  0  0  0  0  0  0
  -24.9510  -27.0673   21.2721 C   0  0  0  0  0  0  0  0  0  0  0  0
  -24.5147  -33.3284   22.3854 C   0  0  0  0  0  0  0  0  0  0  0  0
  -26.3837  -16.7427   22.9376 C   0  0  0  0  0  0  0  0  0  0  0  0
  -25.6802  -32.4343   22.7969 C   0  0  0  0  0  0  0  0  0  0  0  0
  -26.4142  -15.2713   22.5262 C   0  0  0  0  0  0  0  0  0  0  0  0
  -24.9550  -17.2747   23.0141 C   0  0  0  0  0  0  0  0  0  0  0  0
  -24.2018  -15.6127   21.3423 C   0  0  0  0  0  0  0  0  0  0  0  0
  -26.6374  -32.2001   21.6221 C   0  0  1  0  0  0  0  0  0  0  0  0
  -25.5810  -29.0243   19.8245 C   0  0  1  0  0  0  0  0  0  0  0  0
  -25.6265  -15.0460   21.2238 C   0  0  2  0  0  0  0  0  0  0  0  0
  -27.4214  -18.5573   18.7210 C   0  0  0  0  0  0  0  0  0  0  0  0
  -18.7267  -25.4188   19.9739 C   0  0  0  0  0  0  0  0  0  0  0  0
  -22.7519  -20.2656   20.5635 C   0  0  0  0  0  0  0  0  0  0  0  0
  -22.7970  -19.3111   22.8702 C   0  0  0  0  0  0  0  0  0  0  0  0
  -22.6625  -29.5202   23.3737 C   0  0  0  0  0  0  0  0  0  0  0  0
  -20.6263  -28.0650   23.3072 C   0  0  0  0  0  0  0  0  0  0  0  0
  -20.8064  -30.0258   21.7757 C   0  0  0  0  0  0  0  0  0  0  0  0
  -21.7080  -24.5407   17.7791 C   0  0  0  0  0  0  0  0  0  0  0  0
  -28.9889  -21.2900   21.8433 C   0  0  0  0  0  0  0  0  0  0  0  0
  -28.1164  -19.3121   19.8502 C   0  0  0  0  0  0  0  0  0  0  0  0
  -29.1572  -22.6751   21.2283 C   0  0  0  0  0  0  0  0  0  1  0  0
  -22.2312  -27.9820   21.3454 C   0  0  1  0  0  0  0  0  0  0  0  0
  -20.0567  -25.6647   19.2786 C   0  0  2  0  0  0  0  0  0  0  0  0
  -23.5911  -19.3921   21.5342 C   0  0  0  0  0  0  0  0  0  0  0  0
  -21.6073  -28.8875   22.4447 C   0  0  0  0  0  0  0  0  0  0  0  0
  -24.6105  -12.7987   21.2204 N   0  0  0  0  0  0  0  0  0  0  0  0
  -25.8805  -19.4033   20.7460 N   0  0  0  0  0  0  0  0  0  0  0  0
  -25.6216  -13.5850   20.8136 N   0  0  0  0  0  0  0  0  0  0  0  0
  -24.5349  -28.2350   20.4779 N   0  0  0  0  0  0  0  0  0  0  0  0
  -24.2299  -17.0160   21.7644 N   0  0  0  0  0  0  0  0  0  0  0  0
  -27.6317  -13.5802   19.5604 N   0  0  0  0  0  0  0  0  0  0  0  0
  -26.1975   -9.3094   19.2456 N   0  0  0  0  0  0  0  0  0  0  0  0
  -26.0890  -31.2182   20.7113 N   0  0  0  0  0  0  0  0  0  0  0  0
  -21.2571  -27.3910   20.4342 N   0  0  0  0  0  0  0  0  0  0  0  0
  -20.4305  -24.4318   18.5296 N   0  3  0  0  0  0  0  0  0  0  0  0
  -27.8640  -10.7633   18.6396 O   0  0  0  0  0  0  0  0  0  0  0  0
  -26.8234  -29.3027   21.8129 O   0  0  0  0  0  0  0  0  0  0  0  0
  -22.8414  -29.6999   19.8279 O   0  0  0  0  0  0  0  0  0  0  0  0
  -22.9537  -17.7390   19.9618 O   0  0  0  0  0  0  0  0  0  0  0  0
  -21.8194  -25.1818   20.8588 O   0  0  0  0  0  0  0  0  0  0  0  0
  -21.5695   -7.2125   21.5305 O   0  0  0  0  0  0  0  0  0  0  0  0
  -28.3571  -23.6189   21.9392 O   0  0  0  0  0  0  0  0  0  1  0  0
  -19.6875   -6.3670   26.6439 F   0  0  0  0  0  0  0  0  0  0  0  0
  -22.1328   -4.8660   22.8792 F   0  0  0  0  0  0  0  0  0  0  0  0
  1  2  1  0  0  0  0
  1  5  2  0  0  0  0
  2  6  2  0  0  0  0
  3  9  2  0  0  0  0
  3 17  1  0  0  0  0
  4 10  1  0  0  0  0
  4 17  2  0  0  0  0
  5 19  1  0  0  0  0
  6 21  1  0  0  0  0
  7 11  2  0  0  0  0
  7 20  1  0  0  0  0
  8 14  2  0  0  0  0
  8 23  1  0  0  0  0
  9 24  1  0  0  0  0
 10 24  2  0  0  0  0
 11 25  1  0  0  0  0
 12 13  2  0  0  0  0
 12 26  1  0  0  0  0
 13 27  1  0  0  0  0
 14 30  1  0  0  0  0
 15 22  1  0  0  0  0
 15 25  2  0  0  0  0
 16 27  2  0  0  0  0
 16 28  1  0  0  0  0
 17 29  1  0  0  0  0
 18 29  1  0  0  0  0
 18 32  2  0  0  0  0
 18 33  1  0  0  0  0
 19 21  2  0  0  0  0
 19 38  1  0  0  0  0
 20 22  2  0  0  0  0
 20 39  1  0  0  0  0
 21 47  1  0  0  0  0
 22 40  1  0  0  0  0
 23 31  2  0  0  0  0
 23 58  1  0  0  0  0
 24 80  1  0  0  0  0
 25 81  1  0  0  0  0
 26 28  2  0  0  0  0
 26 80  1  0  0  0  0
 27 82  1  0  0  0  0
 28 83  1  0  0  0  0
 29 65  2  0  0  0  0
 30 63  1  0  0  0  0
 30 66  2  0  0  0  0
 31 59  1  0  0  0  0
 31 66  1  0  0  0  0
 32 67  1  0  0  0  0
 32 70  1  0  0  0  0
 33 71  1  0  0  0  0
 33 75  2  0  0  0  0
 34 48  1  0  0  0  0
 34 72  1  0  0  0  0
 34 76  2  0  0  0  0
 35 61  1  0  0  0  0
 35 68  1  0  0  0  0
 35 77  2  0  0  0  0
 36 63  1  0  0  0  0
 36 69  1  0  0  0  0
 36 78  2  0  0  0  0
 37 62  1  0  0  0  0
 37 73  1  0  0  0  0
 37 79  2  0  0  0  0
 38 41  1  0  0  0  0
 39 48  1  0  0  0  0
 40 68  1  0  0  0  0
 41 43  1  0  0  0  0
 42 44  1  0  0  0  0
 42 45  1  0  0  0  0
 43 47  1  0  0  0  0
 44 49  1  0  0  0  0
 45 69  1  0  0  0  0
 46 49  1  0  0  0  0
 46 69  1  0  0  0  0
 47 72  1  0  0  0  0
 48 68  1  0  0  0  0
 49 67  1  0  0  0  0
 50 59  1  0  0  0  0
 51 62  1  0  0  0  0
 52 63  1  0  0  0  0
 53 63  1  0  0  0  0
 54 64  1  0  0  0  0
 55 64  1  0  0  0  0
 56 64  1  0  0  0  0
 57 74  1  0  0  0  0
 58 60  1  0  0  0  0
 60 81  1  0  0  0  0
 61 64  1  0  0  0  0
 61 73  1  0  0  0  0
 62 74  1  0  0  0  0
 65 67  1  0  0  0  0
M  CHG  1  74   1
M  ISO  4  36 100  60 101  63 100  81 101
M  END
> <Batch ID>
0074

> <Smiles>
CCc1nc([100C:0](C)(C)[100C:0](=O)N2CCCC(n3nc(-c4ccc(Oc5ccc(F)cc5F)cc4)c(C(N)=O)c3N)C2)ccc1C[101CH2:1][101O:1]c1ccc2c(c1)CN(C(=O)C(NC(=O)C(C)NC)C(C)(C)C)C(C(=O)NC1CCCc3ccccc31)C2

> <Shape>
0.258

> <Color>
0.066

> <Negative vol penalty>
0.000

$$$$

  -OEChem-04052318293D

 86 94  0     1  0  0  0  0  0999 V2000
  -31.0248  -23.0522   14.8786 C   0  0  0  0  0  0  0  0  0  0  0  0
  -30.6405  -22.8628   16.2022 C   0  0  0  0  0  0  0  0  0  0  0  0
  -26.6677  -12.1998   21.8680 C   0  0  0  0  0  0  0  0  0  0  0  0
  -25.7814  -13.9800   20.4959 C   0  0  0  0  0  0  0  0  0  0  0  0
  -31.1559  -24.3437   14.3700 C   0  0  0  0  0  0  0  0  0  0  0  0
  -30.3881  -23.9649   17.0183 C   0  0  0  0  0  0  0  0  0  0  0  0
  -26.1658  -23.4247   19.7614 C   0  0  0  0  0  0  0  0  0  0  0  0
  -25.4080  -11.6021   21.9062 C   0  0  0  0  0  0  0  0  0  0  0  0
  -24.5217  -13.3822   20.5340 C   0  0  0  0  0  0  0  0  0  0  0  0
  -26.2409  -22.6133   20.8926 C   0  0  0  0  0  0  0  0  0  0  0  0
  -23.4945   -9.6922   19.8754 C   0  0  0  0  0  0  0  0  0  0  0  0
  -23.4242   -8.3146   19.6686 C   0  0  0  0  0  0  0  0  0  0  0  0
  -26.4487  -24.5762   22.2793 C   0  0  0  0  0  0  0  0  0  0  0  0
  -22.4365   -8.0367   21.8559 C   0  0  0  0  0  0  0  0  0  0  0  0
  -26.8544  -13.3888   21.1629 C   0  0  0  0  0  0  0  0  0  0  0  0
  -29.1738  -13.7851   20.1774 C   0  0  0  0  0  0  0  0  0  0  0  0
  -30.8956  -25.4621   15.1775 C   0  0  0  0  0  0  0  0  0  0  0  0
  -26.2426  -24.8198   19.8797 C   0  0  0  0  0  0  0  0  0  0  0  0
  -30.5171  -25.2726   16.5204 C   0  0  0  0  0  0  0  0  0  0  0  0
  -26.3717  -25.4032   21.1483 C   0  0  0  0  0  0  0  0  0  0  0  0
  -24.3350  -12.1932   21.2392 C   0  0  0  0  0  0  0  0  0  0  0  0
  -26.3853  -23.1889   22.1516 C   0  0  0  0  0  0  0  0  0  0  0  0
  -23.0359  -10.2421   21.0725 C   0  0  0  0  0  0  0  0  0  0  0  0
  -22.8952   -7.4868   20.6588 C   0  0  0  0  0  0  0  0  0  0  0  0
  -22.5069   -9.4143   22.0627 C   0  0  0  0  0  0  0  0  0  0  0  0
  -28.1553  -14.0071   21.1236 C   0  0  0  0  0  0  0  0  0  0  0  0
  -29.6979  -19.0196   28.1220 C   0  0  0  0  0  0  0  0  0  0  0  0
  -28.4515  -18.8454   27.5683 C   0  0  0  0  0  0  0  0  0  0  0  0
  -30.1996  -14.6059   20.5782 C   0  0  0  0  0  0  0  0  0  0  0  0
  -29.8148  -19.8761   26.1770 C   0  0  0  0  0  0  0  0  0  0  0  0
  -29.1910  -12.9149   19.0381 C   0  0  0  0  0  0  0  0  0  0  0  0
  -28.2416  -27.0539   18.8230 C   0  0  0  0  0  0  0  0  0  0  0  0
  -26.0512  -29.0705   20.1106 C   0  0  0  0  0  0  0  0  0  0  0  0
  -30.1542  -19.6334   23.7400 C   0  0  0  0  0  0  0  0  0  0  0  0
  -23.5399  -29.5612   22.3688 C   0  0  0  0  0  0  0  0  0  0  0  0
  -31.0965  -26.8394   14.5967 C   0  0  0  0  0  0  0  0  0  0  0  0
  -26.1332  -25.6823   18.6523 C   0  0  0  0  0  0  0  0  0  0  0  0
  -26.4387  -26.8967   21.3312 C   0  0  0  0  0  0  0  0  0  0  0  0
  -30.4474  -27.9485   15.4206 C   0  0  0  0  0  0  0  0  0  0  0  0
  -32.0779  -16.6355   24.4738 C   0  0  0  0  0  0  0  0  0  0  0  0
  -30.7668  -27.7703   16.9015 C   0  0  0  0  0  0  0  0  0  0  0  0
  -31.3543  -15.5922   23.6235 C   0  0  0  0  0  0  0  0  0  0  0  0
  -31.1077  -17.6686   25.0407 C   0  0  0  0  0  0  0  0  0  0  0  0
  -29.5522  -17.3072   23.1501 C   0  0  0  0  0  0  0  0  0  0  0  0
  -30.2105  -26.4426   17.4299 C   0  0  1  0  0  0  0  0  0  0  0  0
  -26.7392  -27.0695   18.8408 C   0  0  1  0  0  0  0  0  0  0  0  0
  -30.4998  -16.2641   22.5345 C   0  0  2  0  0  0  0  0  0  0  0  0
  -30.1716  -18.6142   29.4550 C   0  0  0  0  0  0  0  0  0  0  0  0
  -27.2217  -18.2230   28.0905 C   0  0  0  0  0  0  0  0  0  0  0  0
  -21.9680  -31.3251   23.2144 C   0  0  0  0  0  0  0  0  0  0  0  0
  -31.7649  -20.9679   25.0377 C   0  0  0  0  0  0  0  0  0  0  0  0
  -29.4787  -21.8150   24.4993 C   0  0  0  0  0  0  0  0  0  0  0  0
  -28.3361  -30.3541   21.6732 C   0  0  0  0  0  0  0  0  0  0  0  0
  -26.6274  -31.4196   23.1609 C   0  0  0  0  0  0  0  0  0  0  0  0
  -26.6796  -31.9724   20.7289 C   0  0  0  0  0  0  0  0  0  0  0  0
  -24.5260  -19.3970   24.5196 C   0  0  0  0  0  0  0  0  0  0  0  0
  -24.2638  -21.8100   25.1087 C   0  0  0  0  0  0  0  0  0  0  0  0
  -21.1629  -28.0015   21.5467 C   0  0  0  0  0  0  0  0  0  0  0  0
  -26.4309  -20.5767   25.6303 C   0  0  0  0  0  0  0  0  0  0  0  0
  -27.4378  -19.4685   25.2951 C   0  0  0  0  0  0  0  0  0  0  0  0
  -25.7658  -21.1529   23.2132 C   0  0  0  0  0  0  0  0  0  1  0  0
  -25.8465  -29.7021   21.4663 C   0  0  1  0  0  0  0  0  0  0  0  0
  -22.1642  -30.1868   22.2252 C   0  0  2  0  0  0  0  0  0  0  0  0
  -30.2702  -20.5410   24.9386 C   0  0  0  0  0  0  0  0  0  0  0  0
  -26.8731  -30.8338   21.7540 C   0  0  0  0  0  0  0  0  0  0  0  0
  -25.2647  -20.7495   24.6166 C   0  0  0  0  0  0  0  0  0  0  0  0
  -28.5026  -14.8989   22.0553 N   0  0  0  0  0  0  0  0  0  0  0  0
  -30.5418  -19.6621   27.2511 N   0  0  0  0  0  0  0  0  0  0  0  0
  -28.5416  -19.3995   26.3225 N   0  0  0  0  0  0  0  0  0  0  0  0
  -29.7508  -15.2444   21.6967 N   0  0  0  0  0  0  0  0  0  0  0  0
  -26.3337  -27.6972   20.1001 N   0  0  0  0  0  0  0  0  0  0  0  0
  -30.2933  -18.2654   23.9753 N   0  0  0  0  0  0  0  0  0  0  0  0
  -31.4327  -14.8363   20.0794 N   0  0  0  0  0  0  0  0  0  0  0  0
  -28.0532  -12.1414   18.7708 N   0  0  0  0  0  0  0  0  0  0  0  0
  -28.7852  -26.5469   17.6581 N   0  0  0  0  0  0  0  0  0  0  0  0
  -24.4536  -30.1338   21.5094 N   0  0  0  0  0  0  0  0  0  0  0  0
  -21.1040  -29.1674   22.4655 N   0  3  0  0  0  0  0  0  0  0  0  0
  -30.1920  -12.8136   18.2889 O   0  0  0  0  0  0  0  0  0  0  0  0
  -28.8617  -27.4723   19.7936 O   0  0  0  0  0  0  0  0  0  0  0  0
  -25.9567  -29.7683   19.0978 O   0  0  0  0  0  0  0  0  0  0  0  0
  -29.9488  -20.1276   22.6283 O   0  0  0  0  0  0  0  0  0  0  0  0
  -23.7808  -28.6576   23.1663 O   0  0  0  0  0  0  0  0  0  0  0  0
  -23.1057  -11.6101   21.2760 O   0  0  0  0  0  0  0  0  0  0  0  0
  -26.4595  -22.3992   23.2574 O   0  0  0  0  0  0  0  0  0  1  0  0
  -22.8263   -6.1641   20.4595 F   0  0  0  0  0  0  0  0  0  0  0  0
  -22.0637   -9.9369   23.2144 F   0  0  0  0  0  0  0  0  0  0  0  0
  1  2  1  0  0  0  0
  1  5  2  0  0  0  0
  2  6  2  0  0  0  0
  3  8  2  0  0  0  0
  3 15  1  0  0  0  0
  4  9  1  0  0  0  0
  4 15  2  0  0  0  0
  5 17  1  0  0  0  0
  6 19  1  0  0  0  0
  7 10  2  0  0  0  0
  7 18  1  0  0  0  0
  8 21  1  0  0  0  0
  9 21  2  0  0  0  0
 10 22  1  0  0  0  0
 11 12  2  0  0  0  0
 11 23  1  0  0  0  0
 12 24  1  0  0  0  0
 13 20  1  0  0  0  0
 13 22  2  0  0  0  0
 14 24  2  0  0  0  0
 14 25  1  0  0  0  0
 15 26  1  0  0  0  0
 16 26  1  0  0  0  0
 16 29  2  0  0  0  0
 16 31  1  0  0  0  0
 17 19  2  0  0  0  0
 17 36  1  0  0  0  0
 18 20  2  0  0  0  0
 18 37  1  0  0  0  0
 19 45  1  0  0  0  0
 20 38  1  0  0  0  0
 21 83  1  0  0  0  0
 22 84  1  0  0  0  0
 23 25  2  0  0  0  0
 23 83  1  0  0  0  0
 24 85  1  0  0  0  0
 25 86  1  0  0  0  0
 26 67  2  0  0  0  0
 27 28  2  0  0  0  0
 27 48  1  0  0  0  0
 27 68  1  0  0  0  0
 28 49  1  0  0  0  0
 28 69  1  0  0  0  0
 29 70  1  0  0  0  0
 29 73  1  0  0  0  0
 30 64  1  0  0  0  0
 30 68  2  0  0  0  0
 30 69  1  0  0  0  0
 31 74  1  0  0  0  0
 31 78  2  0  0  0  0
 32 46  1  0  0  0  0
 32 75  1  0  0  0  0
 32 79  2  0  0  0  0
 33 62  1  0  0  0  0
 33 71  1  0  0  0  0
 33 80  2  0  0  0  0
 34 64  1  0  0  0  0
 34 72  1  0  0  0  0
 34 81  2  0  0  0  0
 35 63  1  0  0  0  0
 35 76  1  0  0  0  0
 35 82  2  0  0  0  0
 36 39  1  0  0  0  0
 37 46  1  0  0  0  0
 38 71  1  0  0  0  0
 39 41  1  0  0  0  0
 40 42  1  0  0  0  0
 40 43  1  0  0  0  0
 41 45  1  0  0  0  0
 42 47  1  0  0  0  0
 43 72  1  0  0  0  0
 44 47  1  0  0  0  0
 44 72  1  0  0  0  0
 45 75  1  0  0  0  0
 46 71  1  0  0  0  0
 47 70  1  0  0  0  0
 50 63  1  0  0  0  0
 51 64  1  0  0  0  0
 52 64  1  0  0  0  0
 53 65  1  0  0  0  0
 54 65  1  0  0  0  0
 55 65  1  0  0  0  0
 56 66  1  0  0  0  0
 57 66  1  0  0  0  0
 58 77  1  0  0  0  0
 59 60  1  0  0  0  0
 59 66  1  0  0  0  0
 60 69  1  0  0  0  0
 61 66  1  0  0  0  0
 61 84  1  0  0  0  0
 62 65  1  0  0  0  0
 62 76  1  0  0  0  0
 63 77  1  0  0  0  0
 67 70  1  0  0  0  0
M  CHG  1  77   1
M  ISO  4  34 100  61 101  64 100  84 101
M  END
> <Batch ID>
0074

> <Smiles>
CNC(C)C(=O)NC(C(=O)N1Cc2cc([101O:1][101CH2:1]C(C)(C)CCn3c([100C:0](C)(C)[100C:0](=O)N4CCCC(n5nc(-c6ccc(Oc7ccc(F)cc7F)cc6)c(C(N)=O)c5N)C4)nc(C)c3C)ccc2CC1C(=O)NC1CCCc2ccccc21)C(C)(C)C

> <Shape>
0.230

> <Color>
0.085

> <Negative vol penalty>
0.000

$$$$

  -OEChem-04052318293D

 80 87  0     1  0  0  0  0  0999 V2000
  -30.3380  -29.6977   18.7470 C   0  0  0  0  0  0  0  0  0  0  0  0
  -29.2802  -29.0109   19.3319 C   0  0  0  0  0  0  0  0  0  0  0  0
  -23.6751  -18.2593   24.2387 C   0  0  0  0  0  0  0  0  0  0  0  0
  -25.9753  -18.8513   23.7965 C   0  0  0  0  0  0  0  0  0  0  0  0
  -31.3301  -28.9941   18.0674 C   0  0  0  0  0  0  0  0  0  0  0  0
  -29.2203  -27.6194   19.2477 C   0  0  0  0  0  0  0  0  0  0  0  0
  -28.0561  -19.4595   20.4568 C   0  0  0  0  0  0  0  0  0  0  0  0
  -23.7298  -18.9506   25.4489 C   0  0  0  0  0  0  0  0  0  0  0  0
  -26.0300  -19.5427   25.0067 C   0  0  0  0  0  0  0  0  0  0  0  0
  -28.7959  -18.3113   20.1772 C   0  0  0  0  0  0  0  0  0  0  0  0
  -25.0233  -22.5353   26.2115 C   0  0  0  0  0  0  0  0  0  0  0  0
  -25.6147  -23.7985   26.2083 C   0  0  0  0  0  0  0  0  0  0  0  0
  -30.8162  -19.4651   20.8145 C   0  0  0  0  0  0  0  0  0  0  0  0
  -27.2573  -23.0334   27.8063 C   0  0  0  0  0  0  0  0  0  0  0  0
  -24.7979  -18.2095   23.4125 C   0  0  0  0  0  0  0  0  0  0  0  0
  -24.3688  -18.0082   20.9059 C   0  0  0  0  0  0  0  0  0  0  0  0
  -31.2750  -27.5943   17.9645 C   0  0  0  0  0  0  0  0  0  0  0  0
  -28.6932  -20.6245   20.9076 C   0  0  0  0  0  0  0  0  0  0  0  0
  -30.2246  -26.8893   18.5866 C   0  0  0  0  0  0  0  0  0  0  0  0
  -30.0819  -20.6260   21.1014 C   0  0  0  0  0  0  0  0  0  0  0  0
  -24.9072  -19.5924   25.8329 C   0  0  0  0  0  0  0  0  0  0  0  0
  -30.1765  -18.3148   20.3533 C   0  0  0  0  0  0  0  0  0  0  0  0
  -25.5487  -21.5211   27.0122 C   0  0  0  0  0  0  0  0  0  0  0  0
  -26.7318  -24.0476   27.0057 C   0  0  0  0  0  0  0  0  0  0  0  0
  -26.6658  -21.7702   27.8095 C   0  0  0  0  0  0  0  0  0  0  0  0
  -24.7423  -17.4950   22.1625 C   0  0  0  0  0  0  0  0  0  0  0  0
  -24.4807  -16.9388   20.0513 C   0  0  0  0  0  0  0  0  0  0  0  0
  -23.9577  -19.3331   20.5436 C   0  0  0  0  0  0  0  0  0  0  0  0
  -29.0044  -23.5853   19.7938 C   0  0  0  0  0  0  0  0  0  0  0  0
  -30.4227  -24.0996   22.6655 C   0  0  0  0  0  0  0  0  0  0  0  0
  -27.7637  -11.9128   20.3214 C   0  0  0  0  0  0  0  0  0  0  0  0
  -32.7430  -22.3538   24.8068 C   0  0  0  0  0  0  0  0  0  0  0  0
  -32.3795  -26.8824   17.2240 C   0  0  0  0  0  0  0  0  0  0  0  0
  -27.8777  -21.8465   21.2302 C   0  0  0  0  0  0  0  0  0  0  0  0
  -30.8113  -21.8447   21.6027 C   0  0  0  0  0  0  0  0  0  0  0  0
  -31.9994  -25.4649   16.8088 C   0  0  0  0  0  0  0  0  0  0  0  0
  -24.2089  -12.1707   19.9518 C   0  0  0  0  0  0  0  0  0  0  0  0
  -31.4171  -24.7138   17.9968 C   0  0  0  0  0  0  0  0  0  0  0  0
  -23.9054  -13.6029   20.3897 C   0  0  0  0  0  0  0  0  0  0  0  0
  -25.3545  -11.5704   20.7606 C   0  0  0  0  0  0  0  0  0  0  0  0
  -26.3067  -13.8165   21.1726 C   0  0  0  0  0  0  0  0  0  0  0  0
  -30.1224  -25.3784   18.4816 C   0  0  1  0  0  0  0  0  0  0  0  0
  -28.6928  -23.1356   21.1932 C   0  0  1  0  0  0  0  0  0  0  0  0
  -25.1758  -14.4711   20.3597 C   0  0  2  0  0  0  0  0  0  0  0  0
  -33.0564  -22.4501   27.2947 C   0  0  0  0  0  0  0  0  0  0  0  0
  -29.2612  -15.7741   22.9701 C   0  0  0  0  0  0  0  0  0  0  0  0
  -29.9886  -12.6802   22.6708 C   0  0  0  0  0  0  0  0  0  0  0  0
  -33.1302  -16.6658   20.8059 C   0  0  0  0  0  0  0  0  0  0  0  0
  -30.1768  -12.0956   19.8326 C   0  0  0  0  0  0  0  0  0  0  0  0
  -28.6055  -13.9258   19.2339 C   0  0  0  0  0  0  0  0  0  0  0  0
  -32.5477  -26.1936   22.0256 C   0  0  0  0  0  0  0  0  0  0  0  0
  -33.9496  -25.2314   23.8633 C   0  0  0  0  0  0  0  0  0  0  0  0
  -31.7246  -26.2304   24.3868 C   0  0  0  0  0  0  0  0  0  0  0  0
  -32.4010  -19.4268   25.0798 C   0  0  0  0  0  0  0  0  0  0  0  0
  -31.1751  -15.1869   21.4022 C   0  0  0  0  0  0  0  0  0  0  0  0
  -31.8338  -24.0043   23.1933 C   0  0  1  0  0  0  0  0  0  0  0  0
  -32.4303  -21.6901   26.1358 C   0  0  2  0  0  0  0  0  0  0  0  0
  -29.6600  -15.0390   21.6778 C   0  0  1  0  0  0  0  0  0  0  0  0
  -29.1556  -13.5498   21.7082 C   0  0  1  0  0  0  0  0  0  0  0  0
  -31.6476  -16.6282   21.1578 C   0  0  2  0  0  0  0  0  0  1  0  0
  -28.9325  -12.8655   20.3075 C   0  0  0  0  0  0  0  0  0  0  0  0
  -32.5049  -25.3985   23.3458 C   0  0  0  0  0  0  0  0  0  0  0  0
  -25.0669  -16.2003   22.1150 N   0  0  0  0  0  0  0  0  0  0  0  0
  -24.8977  -15.8908   20.8182 N   0  0  0  0  0  0  0  0  0  0  0  0
  -29.9707  -23.0167   21.8981 N   0  0  0  0  0  0  0  0  0  0  0  0
  -26.5350  -12.4354   20.7255 N   0  0  0  0  0  0  0  0  0  0  0  0
  -24.2619  -16.8020   18.7263 N   0  0  0  0  0  0  0  0  0  0  0  0
  -23.8977  -20.3115   21.5453 N   0  0  0  0  0  0  0  0  0  0  0  0
  -29.7165  -24.7677   19.7283 N   0  0  0  0  0  0  0  0  0  0  0  0
  -31.7550  -23.2402   24.4336 N   0  0  0  0  0  0  0  0  0  0  0  0
  -32.9516  -20.2941   26.1530 N   0  3  0  0  0  0  0  0  0  0  0  0
  -23.6368  -19.6361   19.3694 O   0  0  0  0  0  0  0  0  0  0  0  0
  -28.6282  -22.9087   18.8439 O   0  0  0  0  0  0  0  0  0  0  0  0
  -29.7438  -25.0949   22.9305 O   0  0  0  0  0  0  0  0  0  0  0  0
  -27.9388  -10.7401   19.9802 O   0  0  0  0  0  0  0  0  0  0  0  0
  -33.7637  -22.1129   24.1658 O   0  0  0  0  0  0  0  0  0  0  0  0
  -24.9608  -20.2673   27.0137 O   0  0  0  0  0  0  0  0  0  0  0  0
  -30.9055  -17.1887   20.0789 O   0  0  0  0  0  0  0  0  0  1  0  0
  -27.3006  -25.2602   27.0013 F   0  0  0  0  0  0  0  0  0  0  0  0
  -27.1758  -20.7995   28.5799 F   0  0  0  0  0  0  0  0  0  0  0  0
  1  2  1  0  0  0  0
  1  5  2  0  0  0  0
  2  6  2  0  0  0  0
  3  8  2  0  0  0  0
  3 15  1  0  0  0  0
  4  9  1  0  0  0  0
  4 15  2  0  0  0  0
  5 17  1  0  0  0  0
  6 19  1  0  0  0  0
  7 10  2  0  0  0  0
  7 18  1  0  0  0  0
  8 21  1  0  0  0  0
  9 21  2  0  0  0  0
 10 22  1  0  0  0  0
 11 12  2  0  0  0  0
 11 23  1  0  0  0  0
 12 24  1  0  0  0  0
 13 20  1  0  0  0  0
 13 22  2  0  0  0  0
 14 24  2  0  0  0  0
 14 25  1  0  0  0  0
 15 26  1  0  0  0  0
 16 26  1  0  0  0  0
 16 27  2  0  0  0  0
 16 28  1  0  0  0  0
 17 19  2  0  0  0  0
 17 33  1  0  0  0  0
 18 20  2  0  0  0  0
 18 34  1  0  0  0  0
 19 42  1  0  0  0  0
 20 35  1  0  0  0  0
 21 77  1  0  0  0  0
 22 78  1  0  0  0  0
 23 25  2  0  0  0  0
 23 77  1  0  0  0  0
 24 79  1  0  0  0  0
 25 80  1  0  0  0  0
 26 63  2  0  0  0  0
 27 64  1  0  0  0  0
 27 67  1  0  0  0  0
 28 68  1  0  0  0  0
 28 72  2  0  0  0  0
 29 43  1  0  0  0  0
 29 69  1  0  0  0  0
 29 73  2  0  0  0  0
 30 56  1  0  0  0  0
 30 65  1  0  0  0  0
 30 74  2  0  0  0  0
 31 61  1  0  0  0  0
 31 66  1  0  0  0  0
 31 75  2  0  0  0  0
 32 57  1  0  0  0  0
 32 70  1  0  0  0  0
 32 76  2  0  0  0  0
 33 36  1  0  0  0  0
 34 43  1  0  0  0  0
 35 65  1  0  0  0  0
 36 38  1  0  0  0  0
 37 39  1  0  0  0  0
 37 40  1  0  0  0  0
 38 42  1  0  0  0  0
 39 44  1  0  0  0  0
 40 66  1  0  0  0  0
 41 44  1  0  0  0  0
 41 66  1  0  0  0  0
 42 69  1  0  0  0  0
 43 65  1  0  0  0  0
 44 64  1  0  0  0  0
 45 57  1  0  0  0  0
 46 58  1  0  0  0  0
 47 59  1  0  0  0  0
 48 60  1  0  0  0  0
 49 61  1  0  0  0  0
 50 61  1  0  0  0  0
 51 62  1  0  0  0  0
 52 62  1  0  0  0  0
 53 62  1  0  0  0  0
 54 71  1  0  0  0  0
 55 58  1  0  0  0  0
 55 60  1  0  0  0  0
 56 62  1  0  0  0  0
 56 70  1  0  0  0  0
 57 71  1  0  0  0  0
 58 59  1  0  0  0  0
 59 61  1  0  0  0  0
 60 78  1  0  0  0  0
 63 64  1  0  0  0  0
M  CHG  1  71   1
M  ISO  4  31 100  60 101  61 100  78 101
M  END
> <Batch ID>
0074

> <Smiles>
CNC(C)C(=O)NC(C(=O)N1Cc2cc([101O:1][101CH:1](C)CC(C)C(C)[100C:0](C)(C)[100C:0](=O)N3CCCC(n4nc(-c5ccc(Oc6ccc(F)cc6F)cc5)c(C(N)=O)c4N)C3)ccc2CC1C(=O)NC1CCCc2ccccc21)C(C)(C)C

> <Shape>
0.174

> <Color>
0.043

> <Negative vol penalty>
0.000

$$$$

  -OEChem-04052318293D

 81 88  0     1  0  0  0  0  0999 V2000
  -17.9571  -25.4447   20.8409 C   0  0  0  0  0  0  0  0  0  0  0  0
  -19.0260  -25.8900   20.0699 C   0  0  0  0  0  0  0  0  0  0  0  0
  -29.4900  -21.2689   19.4807 C   0  0  0  0  0  0  0  0  0  0  0  0
  -27.3008  -22.2237   19.8448 C   0  0  0  0  0  0  0  0  0  0  0  0
  -17.5711  -26.1592   21.9743 C   0  0  0  0  0  0  0  0  0  0  0  0
  -19.7090  -27.0508   20.4312 C   0  0  0  0  0  0  0  0  0  0  0  0
  -23.0156  -24.3991   22.9888 C   0  0  0  0  0  0  0  0  0  0  0  0
  -29.8029  -22.3165   18.6146 C   0  0  0  0  0  0  0  0  0  0  0  0
  -27.6136  -23.2714   18.9786 C   0  0  0  0  0  0  0  0  0  0  0  0
  -23.0297  -23.2095   22.2619 C   0  0  0  0  0  0  0  0  0  0  0  0
  -31.0470  -24.5487   16.0275 C   0  0  0  0  0  0  0  0  0  0  0  0
  -31.6717  -24.2306   14.8216 C   0  0  0  0  0  0  0  0  0  0  0  0
  -24.2209  -24.3186   20.4814 C   0  0  0  0  0  0  0  0  0  0  0  0
  -29.7799  -22.8610   14.2030 C   0  0  0  0  0  0  0  0  0  0  0  0
  -28.2389  -21.2225   20.0958 C   0  0  0  0  0  0  0  0  0  0  0  0
  -28.1263  -20.0949   22.3813 C   0  0  0  0  0  0  0  0  0  0  0  0
  -18.2559  -27.3240   22.3551 C   0  0  0  0  0  0  0  0  0  0  0  0
  -23.5954  -25.5621   22.4618 C   0  0  0  0  0  0  0  0  0  0  0  0
  -19.3310  -27.7823   21.5700 C   0  0  0  0  0  0  0  0  0  0  0  0
  -24.2150  -25.5210   21.2046 C   0  0  0  0  0  0  0  0  0  0  0  0
  -28.8647  -23.3177   18.3635 C   0  0  0  0  0  0  0  0  0  0  0  0
  -23.6299  -23.1698   21.0068 C   0  0  0  0  0  0  0  0  0  0  0  0
  -29.7889  -24.0229   16.3212 C   0  0  0  0  0  0  0  0  0  0  0  0
  -31.0381  -23.3868   13.9093 C   0  0  0  0  0  0  0  0  0  0  0  0
  -29.1553  -23.1790   15.4090 C   0  0  0  0  0  0  0  0  0  0  0  0
  -27.9149  -20.1403   20.9902 C   0  0  0  0  0  0  0  0  0  0  0  0
  -27.6513  -18.8632   22.7607 C   0  0  0  0  0  0  0  0  0  0  0  0
  -28.7005  -21.0781   23.2526 C   0  0  0  0  0  0  0  0  0  0  0  0
  -22.5150  -28.4419   21.6595 C   0  0  0  0  0  0  0  0  0  0  0  0
  -25.6630  -29.0610   21.1809 C   0  0  0  0  0  0  0  0  0  0  0  0
  -22.9947  -15.5173   21.3808 C   0  0  0  0  0  0  0  0  0  0  0  0
  -28.7839  -27.8537   20.5102 C   0  0  0  0  0  0  0  0  0  0  0  0
  -17.7721  -28.0888   23.5617 C   0  0  0  0  0  0  0  0  0  0  0  0
  -23.5953  -26.8308   23.2699 C   0  0  0  0  0  0  0  0  0  0  0  0
  -24.8694  -26.7369   20.6029 C   0  0  0  0  0  0  0  0  0  0  0  0
  -18.7854  -29.1025   24.0868 C   0  0  0  0  0  0  0  0  0  0  0  0
  -26.2856  -14.8270   20.0248 C   0  0  0  0  0  0  0  0  0  0  0  0
  -19.3663  -29.9208   22.9379 C   0  0  0  0  0  0  0  0  0  0  0  0
  -26.8862  -16.2326   20.1315 C   0  0  0  0  0  0  0  0  0  0  0  0
  -25.2391  -14.5209   21.0935 C   0  0  0  0  0  0  0  0  0  0  0  0
  -25.0574  -16.9320   21.7153 C   0  0  0  0  0  0  0  0  0  0  0  0
  -20.1125  -29.0233   21.9434 C   0  0  1  0  0  0  0  0  0  0  0  0
  -23.7631  -28.0834   22.4155 C   0  0  1  0  0  0  0  0  0  0  0  0
  -26.5783  -16.8915   21.4838 C   0  0  2  0  0  0  0  0  0  0  0  0
  -31.1495  -28.6054   20.1413 C   0  0  0  0  0  0  0  0  0  0  0  0
  -22.7922  -20.1810   18.5036 C   0  0  0  0  0  0  0  0  0  0  0  0
  -21.8855  -18.9093   22.9527 C   0  0  0  0  0  0  0  0  0  0  0  0
  -22.8000  -16.1057   23.6908 C   0  0  0  0  0  0  0  0  0  0  0  0
  -20.7527  -16.0386   22.2856 C   0  0  0  0  0  0  0  0  0  0  0  0
  -24.9217  -30.0103   18.3775 C   0  0  0  0  0  0  0  0  0  0  0  0
  -27.3407  -29.8391   17.7553 C   0  0  0  0  0  0  0  0  0  0  0  0
  -26.6235  -31.4253   19.5420 C   0  0  0  0  0  0  0  0  0  0  0  0
  -22.2794  -17.2913   19.3733 C   0  0  0  0  0  0  0  0  0  0  0  0
  -20.6824  -18.9147   20.3476 C   0  0  0  0  0  0  0  0  0  0  0  0
  -29.7601  -26.3105   22.8392 C   0  0  0  0  0  0  0  0  0  0  0  0
  -23.0256  -20.8723   20.8964 C   0  0  0  0  0  0  0  0  0  1  0  0
  -26.6105  -28.9411   20.0117 C   0  0  1  0  0  0  0  0  0  0  0  0
  -30.1291  -28.1226   21.1603 C   0  0  2  0  0  0  0  0  0  0  0  0
  -23.0826  -19.6695   19.9319 C   0  0  1  0  0  0  0  0  0  0  0  0
  -22.5037  -17.9595   21.8935 C   0  0  1  0  0  0  0  0  0  0  0  0
  -22.2295  -16.4466   22.2920 C   0  0  0  0  0  0  0  0  0  0  0  0
  -26.3601  -30.0313   18.9318 C   0  0  0  0  0  0  0  0  0  0  0  0
  -22.1735  -18.4559   20.3912 C   0  0  0  0  0  0  0  0  0  0  0  0
  -27.3499  -19.0260   20.5179 N   0  0  0  0  0  0  0  0  0  0  0  0
  -27.2022  -18.2688   21.6183 N   0  0  0  0  0  0  0  0  0  0  0  0
  -24.8377  -27.9550   21.4291 N   0  0  0  0  0  0  0  0  0  0  0  0
  -24.3833  -15.6724   21.3701 N   0  0  0  0  0  0  0  0  0  0  0  0
  -27.5783  -18.2415   23.9568 N   0  0  0  0  0  0  0  0  0  0  0  0
  -29.1371  -22.2889   22.6980 N   0  0  0  0  0  0  0  0  0  0  0  0
  -21.4141  -28.6646   22.4644 N   0  0  0  0  0  0  0  0  0  0  0  0
  -27.9566  -28.9550   20.5741 N   0  0  0  0  0  0  0  0  0  0  0  0
  -30.6531  -26.8820   21.7986 N   0  3  0  0  0  0  0  0  0  0  0  0
  -28.8377  -20.8821   24.4840 O   0  0  0  0  0  0  0  0  0  0  0  0
  -22.5487  -28.5127   20.4366 O   0  0  0  0  0  0  0  0  0  0  0  0
  -25.6605  -30.0949   21.8537 O   0  0  0  0  0  0  0  0  0  0  0  0
  -22.3814  -14.6915   20.7008 O   0  0  0  0  0  0  0  0  0  0  0  0
  -28.4971  -26.7759   19.9939 O   0  0  0  0  0  0  0  0  0  0  0  0
  -29.1697  -24.3403   17.5186 O   0  0  0  0  0  0  0  0  0  0  0  0
  -23.6446  -22.0028   20.2905 O   0  0  0  0  0  0  0  0  0  1  0  0
  -31.6374  -23.0826   12.7506 F   0  0  0  0  0  0  0  0  0  0  0  0
  -27.9461  -22.6718   15.6851 F   0  0  0  0  0  0  0  0  0  0  0  0
  1  2  1  0  0  0  0
  1  5  2  0  0  0  0
  2  6  2  0  0  0  0
  3  8  2  0  0  0  0
  3 15  1  0  0  0  0
  4  9  1  0  0  0  0
  4 15  2  0  0  0  0
  5 17  1  0  0  0  0
  6 19  1  0  0  0  0
  7 10  2  0  0  0  0
  7 18  1  0  0  0  0
  8 21  1  0  0  0  0
  9 21  2  0  0  0  0
 10 22  1  0  0  0  0
 11 12  2  0  0  0  0
 11 23  1  0  0  0  0
 12 24  1  0  0  0  0
 13 20  1  0  0  0  0
 13 22  2  0  0  0  0
 14 24  2  0  0  0  0
 14 25  1  0  0  0  0
 15 26  1  0  0  0  0
 16 26  1  0  0  0  0
 16 27  2  0  0  0  0
 16 28  1  0  0  0  0
 17 19  2  0  0  0  0
 17 33  1  0  0  0  0
 18 20  2  0  0  0  0
 18 34  1  0  0  0  0
 19 42  1  0  0  0  0
 20 35  1  0  0  0  0
 21 78  1  0  0  0  0
 22 79  1  0  0  0  0
 23 25  2  0  0  0  0
 23 78  1  0  0  0  0
 24 80  1  0  0  0  0
 25 81  1  0  0  0  0
 26 64  2  0  0  0  0
 27 65  1  0  0  0  0
 27 68  1  0  0  0  0
 28 69  1  0  0  0  0
 28 73  2  0  0  0  0
 29 43  1  0  0  0  0
 29 70  1  0  0  0  0
 29 74  2  0  0  0  0
 30 57  1  0  0  0  0
 30 66  1  0  0  0  0
 30 75  2  0  0  0  0
 31 61  1  0  0  0  0
 31 67  1  0  0  0  0
 31 76  2  0  0  0  0
 32 58  1  0  0  0  0
 32 71  1  0  0  0  0
 32 77  2  0  0  0  0
 33 36  1  0  0  0  0
 34 43  1  0  0  0  0
 35 66  1  0  0  0  0
 36 38  1  0  0  0  0
 37 39  1  0  0  0  0
 37 40  1  0  0  0  0
 38 42  1  0  0  0  0
 39 44  1  0  0  0  0
 40 67  1  0  0  0  0
 41 44  1  0  0  0  0
 41 67  1  0  0  0  0
 42 70  1  0  0  0  0
 43 66  1  0  0  0  0
 44 65  1  0  0  0  0
 45 58  1  0  0  0  0
 46 59  1  0  0  0  0
 47 60  1  0  0  0  0
 48 61  1  0  0  0  0
 49 61  1  0  0  0  0
 50 62  1  0  0  0  0
 51 62  1  0  0  0  0
 52 62  1  0  0  0  0
 53 63  1  0  0  0  0
 54 63  1  0  0  0  0
 55 72  1  0  0  0  0
 56 59  1  0  0  0  0
 56 79  1  0  0  0  0
 57 62  1  0  0  0  0
 57 71  1  0  0  0  0
 58 72  1  0  0  0  0
 59 63  1  0  0  0  0
 60 61  1  0  0  0  0
 60 63  1  0  0  0  0
 64 65  1  0  0  0  0
M  CHG  1  72   1
M  ISO  4  31 100  56 101  61 100  79 101
M  END
> <Batch ID>
0074

> <Smiles>
CNC(C)C(=O)NC(C(=O)N1Cc2cc([101O:1][101CH2:1]C(C)C(C)(C)C(C)[100C:0](C)(C)[100C:0](=O)N3CCCC(n4nc(-c5ccc(Oc6ccc(F)cc6F)cc5)c(C(N)=O)c4N)C3)ccc2CC1C(=O)NC1CCCc2ccccc21)C(C)(C)C

> <Shape>
0.189

> <Color>
0.057

> <Negative vol penalty>
0.000

$$$$

  -OEChem-04052318293D

 84 92  0     1  0  0  0  0  0999 V2000
  -30.7242  -11.9502   19.8831 C   0  0  0  0  0  0  0  0  0  0  0  0
  -30.4373  -13.0509   20.6841 C   0  0  0  0  0  0  0  0  0  0  0  0
  -24.7773  -27.4687   20.2532 C   0  0  0  0  0  0  0  0  0  0  0  0
  -27.0944  -27.2640   19.6003 C   0  0  0  0  0  0  0  0  0  0  0  0
  -29.8618  -11.6016   18.8445 C   0  0  0  0  0  0  0  0  0  0  0  0
  -29.2882  -13.8042   20.4464 C   0  0  0  0  0  0  0  0  0  0  0  0
  -26.7807  -14.9188   24.7026 C   0  0  0  0  0  0  0  0  0  0  0  0
  -25.0305  -28.7468   20.7511 C   0  0  0  0  0  0  0  0  0  0  0  0
  -27.3476  -28.5422   20.0982 C   0  0  0  0  0  0  0  0  0  0  0  0
  -27.2877  -15.9531   25.4879 C   0  0  0  0  0  0  0  0  0  0  0  0
  -26.3980  -30.1137   23.5235 C   0  0  0  0  0  0  0  0  0  0  0  0
  -25.8683  -30.4386   24.7723 C   0  0  0  0  0  0  0  0  0  0  0  0
  -25.6411  -17.4541   24.5632 C   0  0  0  0  0  0  0  0  0  0  0  0
  -30.2892  -20.7467   23.4994 C   0  0  0  0  0  0  0  0  0  0  0  0
  -24.6163  -32.2461   23.7710 C   0  0  0  0  0  0  0  0  0  0  0  0
  -25.8093  -26.7273   19.6778 C   0  0  0  0  0  0  0  0  0  0  0  0
  -24.6450  -25.0549   18.1431 C   0  0  0  0  0  0  0  0  0  0  0  0
  -28.6965  -12.3453   18.6000 C   0  0  0  0  0  0  0  0  0  0  0  0
  -25.7053  -15.1474   23.8321 C   0  0  0  0  0  0  0  0  0  0  0  0
  -28.4101  -13.4660   19.4027 C   0  0  0  0  0  0  0  0  0  0  0  0
  -25.1207  -16.4203   23.7697 C   0  0  0  0  0  0  0  0  0  0  0  0
  -30.4100  -20.5712   22.1321 C   0  0  0  0  0  0  0  0  0  0  0  0
  -26.3156  -29.2836   20.6736 C   0  0  0  0  0  0  0  0  0  0  0  0
  -26.7197  -17.2218   25.4162 C   0  0  0  0  0  0  0  0  0  0  0  0
  -26.0369  -30.8551   22.3984 C   0  0  0  0  0  0  0  0  0  0  0  0
  -24.9775  -31.5047   24.8961 C   0  0  0  0  0  0  0  0  0  0  0  0
  -25.1460  -31.9212   22.5222 C   0  0  0  0  0  0  0  0  0  0  0  0
  -25.5485  -25.4067   19.1638 C   0  0  0  0  0  0  0  0  0  0  0  0
  -29.7908  -19.6967   24.2441 C   0  0  0  0  0  0  0  0  0  0  0  0
  -30.0247  -19.3571   21.6000 C   0  0  0  0  0  0  0  0  0  0  0  0
  -24.7694  -23.6918   18.0294 C   0  0  0  0  0  0  0  0  0  0  0  0
  -23.7716  -25.8859   17.3672 C   0  0  0  0  0  0  0  0  0  0  0  0
  -25.2913  -14.9766   20.6851 C   0  0  0  0  0  0  0  0  0  0  0  0
  -22.1974  -15.5782   21.4517 C   0  0  0  0  0  0  0  0  0  0  0  0
  -29.2905  -20.0719   19.3451 C   0  0  0  0  0  0  0  0  0  0  0  0
  -19.9655  -16.8828   23.6797 C   0  0  0  0  0  0  0  0  0  0  0  0
  -27.8191  -11.9582   17.4360 C   0  0  0  0  0  0  0  0  0  0  0  0
  -25.1529  -14.0144   23.0113 C   0  0  0  0  0  0  0  0  0  0  0  0
  -23.9516  -16.7127   22.8663 C   0  0  0  0  0  0  0  0  0  0  0  0
  -26.4283  -12.5853   17.4866 C   0  0  0  0  0  0  0  0  0  0  0  0
  -25.8766  -19.7999   20.5692 C   0  0  0  0  0  0  0  0  0  0  0  0
  -26.5246  -14.0720   17.8141 C   0  0  0  0  0  0  0  0  0  0  0  0
  -25.3340  -21.1977   20.2747 C   0  0  0  0  0  0  0  0  0  0  0  0
  -27.3490  -19.8422   20.9698 C   0  0  0  0  0  0  0  0  0  0  0  0
  -27.6847  -21.9248   19.6757 C   0  0  0  0  0  0  0  0  0  0  0  0
  -27.1606  -14.2933   19.1918 C   0  0  1  0  0  0  0  0  0  0  0  0
  -24.3862  -14.4870   21.7800 C   0  0  1  0  0  0  0  0  0  0  0  0
  -26.2103  -21.9228   19.2383 C   0  0  2  0  0  0  0  0  0  0  0  0
  -30.5845  -23.0538   21.8276 C   0  0  0  0  0  0  0  0  0  0  0  0
  -17.7352  -17.4383   24.6869 C   0  0  0  0  0  0  0  0  0  0  0  0
  -29.6207  -17.6692   19.7889 C   0  0  0  0  0  0  0  0  0  0  0  0
  -31.5452  -19.2355   19.5119 C   0  0  0  0  0  0  0  0  0  0  0  0
  -22.2902  -17.9012   19.4755 C   0  0  0  0  0  0  0  0  0  0  0  0
  -20.2013  -18.7910   20.5306 C   0  0  0  0  0  0  0  0  0  0  0  0
  -20.1794  -16.5613   19.4122 C   0  0  0  0  0  0  0  0  0  0  0  0
  -19.8725  -14.3280   25.1707 C   0  0  0  0  0  0  0  0  0  0  0  0
  -30.9428  -21.6728   21.2828 C   0  0  0  0  0  0  0  0  0  0  0  0
  -29.6386  -19.8362   25.7377 C   0  0  0  0  0  0  0  0  0  0  0  0
  -28.2766  -20.3839   26.1695 C   0  0  0  0  0  0  0  0  0  0  0  0
  -27.1032  -19.5564   25.6579 C   0  0  0  0  0  0  0  0  0  1  0  0
  -21.3630  -16.8236   21.6308 C   0  0  1  0  0  0  0  0  0  0  0  0
  -18.6790  -16.3246   24.2608 C   0  0  2  0  0  0  0  0  0  0  0  0
  -30.1255  -19.0959   20.1351 C   0  0  0  0  0  0  0  0  0  0  0  0
  -21.0317  -17.5146   20.2780 C   0  0  0  0  0  0  0  0  0  0  0  0
  -26.1986  -24.3522   19.6630 N   0  0  0  0  0  0  0  0  0  0  0  0
  -29.4214  -18.5194   23.6966 N   0  0  0  0  0  0  0  0  0  0  0  0
  -29.5405  -18.3468   22.3529 N   0  0  0  0  0  0  0  0  0  0  0  0
  -25.7031  -23.3243   18.9531 N   0  0  0  0  0  0  0  0  0  0  0  0
  -23.4513  -15.5737   22.0790 N   0  0  0  0  0  0  0  0  0  0  0  0
  -28.1452  -20.5649   19.9706 N   0  0  0  0  0  0  0  0  0  0  0  0
  -24.1700  -22.7837   17.2304 N   0  0  0  0  0  0  0  0  0  0  0  0
  -24.2538  -26.4243   16.1664 N   0  0  0  0  0  0  0  0  0  0  0  0
  -26.1978  -14.0331   20.2406 N   0  0  0  0  0  0  0  0  0  0  0  0
  -20.1900  -16.4219   22.3997 N   0  0  0  0  0  0  0  0  0  0  0  0
  -18.9731  -15.4768   25.4506 N   0  3  0  0  0  0  0  0  0  0  0  0
  -22.6037  -26.1569   17.7361 O   0  0  0  0  0  0  0  0  0  0  0  0
  -25.1749  -16.1248   20.2731 O   0  0  0  0  0  0  0  0  0  0  0  0
  -21.7499  -14.6411   20.7859 O   0  0  0  0  0  0  0  0  0  0  0  0
  -29.6456  -20.3832   18.2053 O   0  0  0  0  0  0  0  0  0  0  0  0
  -20.6962  -17.6538   24.2979 O   0  0  0  0  0  0  0  0  0  0  0  0
  -26.5630  -30.5308   21.1592 O   0  0  0  0  0  0  0  0  0  0  0  0
  -27.2130  -18.2333   26.1812 O   0  0  0  0  0  0  0  0  0  1  0  0
  -24.4678  -31.8156   26.0951 F   0  0  0  0  0  0  0  0  0  0  0  0
  -24.7944  -32.6364   21.4448 F   0  0  0  0  0  0  0  0  0  0  0  0
  1  2  1  0  0  0  0
  1  5  2  0  0  0  0
  2  6  2  0  0  0  0
  3  8  2  0  0  0  0
  3 16  1  0  0  0  0
  4  9  1  0  0  0  0
  4 16  2  0  0  0  0
  5 18  1  0  0  0  0
  6 20  1  0  0  0  0
  7 10  2  0  0  0  0
  7 19  1  0  0  0  0
  8 23  1  0  0  0  0
  9 23  2  0  0  0  0
 10 24  1  0  0  0  0
 11 12  2  0  0  0  0
 11 25  1  0  0  0  0
 12 26  1  0  0  0  0
 13 21  1  0  0  0  0
 13 24  2  0  0  0  0
 14 22  1  0  0  0  0
 14 29  2  0  0  0  0
 15 26  2  0  0  0  0
 15 27  1  0  0  0  0
 16 28  1  0  0  0  0
 17 28  1  0  0  0  0
 17 31  2  0  0  0  0
 17 32  1  0  0  0  0
 18 20  2  0  0  0  0
 18 37  1  0  0  0  0
 19 21  2  0  0  0  0
 19 38  1  0  0  0  0
 20 46  1  0  0  0  0
 21 39  1  0  0  0  0
 22 30  2  0  0  0  0
 22 57  1  0  0  0  0
 23 81  1  0  0  0  0
 24 82  1  0  0  0  0
 25 27  2  0  0  0  0
 25 81  1  0  0  0  0
 26 83  1  0  0  0  0
 27 84  1  0  0  0  0
 28 65  2  0  0  0  0
 29 58  1  0  0  0  0
 29 66  1  0  0  0  0
 30 63  1  0  0  0  0
 30 67  1  0  0  0  0
 31 68  1  0  0  0  0
 31 71  1  0  0  0  0
 32 72  1  0  0  0  0
 32 76  2  0  0  0  0
 33 47  1  0  0  0  0
 33 73  1  0  0  0  0
 33 77  2  0  0  0  0
 34 61  1  0  0  0  0
 34 69  1  0  0  0  0
 34 78  2  0  0  0  0
 35 63  1  0  0  0  0
 35 70  1  0  0  0  0
 35 79  2  0  0  0  0
 36 62  1  0  0  0  0
 36 74  1  0  0  0  0
 36 80  2  0  0  0  0
 37 40  1  0  0  0  0
 38 47  1  0  0  0  0
 39 69  1  0  0  0  0
 40 42  1  0  0  0  0
 41 43  1  0  0  0  0
 41 44  1  0  0  0  0
 42 46  1  0  0  0  0
 43 48  1  0  0  0  0
 44 70  1  0  0  0  0
 45 48  1  0  0  0  0
 45 70  1  0  0  0  0
 46 73  1  0  0  0  0
 47 69  1  0  0  0  0
 48 68  1  0  0  0  0
 49 57  1  0  0  0  0
 50 62  1  0  0  0  0
 51 63  1  0  0  0  0
 52 63  1  0  0  0  0
 53 64  1  0  0  0  0
 54 64  1  0  0  0  0
 55 64  1  0  0  0  0
 56 75  1  0  0  0  0
 58 59  1  0  0  0  0
 59 60  1  0  0  0  0
 60 82  1  0  0  0  0
 61 64  1  0  0  0  0
 61 74  1  0  0  0  0
 62 75  1  0  0  0  0
 65 68  1  0  0  0  0
 66 67  2  0  0  0  0
M  CHG  1  75   1
M  ISO  4  35 100  60 101  63 100  82 101
M  END
> <Batch ID>
0074

> <Smiles>
CCc1cc(CC[101CH2:1][101O:1]c2ccc3c(c2)CN(C(=O)C(NC(=O)C(C)NC)C(C)(C)C)C(C(=O)NC2CCCc4ccccc42)C3)nnc1[100C:0](C)(C)[100C:0](=O)N1CCCC(n2nc(-c3ccc(Oc4ccc(F)cc4F)cc3)c(C(N)=O)c2N)C1

> <Shape>
0.202

> <Color>
0.054

> <Negative vol penalty>
0.000

$$$$

  -OEChem-04052318293D

 86 94  0     1  0  0  0  0  0999 V2000
  -25.1656  -33.8516   14.9349 C   0  0  0  0  0  0  0  0  0  0  0  0
  -25.2920  -32.4913   15.1974 C   0  0  0  0  0  0  0  0  0  0  0  0
  -24.4332   -9.1216   21.1168 C   0  0  0  0  0  0  0  0  0  0  0  0
  -22.4787  -10.5417   21.0973 C   0  0  0  0  0  0  0  0  0  0  0  0
  -25.5043  -34.7839   15.9147 C   0  0  0  0  0  0  0  0  0  0  0  0
  -25.7584  -32.0625   16.4396 C   0  0  0  0  0  0  0  0  0  0  0  0
  -24.0344  -27.0363   19.4845 C   0  0  0  0  0  0  0  0  0  0  0  0
  -23.6161   -7.9989   21.2491 C   0  0  0  0  0  0  0  0  0  0  0  0
  -21.6616   -9.4190   21.2295 C   0  0  0  0  0  0  0  0  0  0  0  0
  -24.6054  -25.7700   19.6041 C   0  0  0  0  0  0  0  0  0  0  0  0
  -22.0612   -4.7880   21.9536 C   0  0  0  0  0  0  0  0  0  0  0  0
  -22.4299   -3.8225   22.8902 C   0  0  0  0  0  0  0  0  0  0  0  0
  -25.6504  -26.4433   21.6715 C   0  0  0  0  0  0  0  0  0  0  0  0
  -25.6214  -20.9218   20.5812 C   0  0  0  0  0  0  0  0  0  0  0  0
  -22.2750   -5.4704   24.6501 C   0  0  0  0  0  0  0  0  0  0  0  0
  -23.8645  -10.3931   21.0410 C   0  0  0  0  0  0  0  0  0  0  0  0
  -25.1508  -12.1466   19.7076 C   0  0  0  0  0  0  0  0  0  0  0  0
  -25.9660  -34.3661   17.1729 C   0  0  0  0  0  0  0  0  0  0  0  0
  -24.2763  -28.0207   20.4534 C   0  0  0  0  0  0  0  0  0  0  0  0
  -26.1050  -32.9901   17.4367 C   0  0  0  0  0  0  0  0  0  0  0  0
  -25.0792  -27.7204   21.5631 C   0  0  0  0  0  0  0  0  0  0  0  0
  -26.2553  -19.7209   20.8801 C   0  0  0  0  0  0  0  0  0  0  0  0
  -26.3668  -21.9961   20.1085 C   0  0  0  0  0  0  0  0  0  0  0  0
  -22.2303   -8.1475   21.3054 C   0  0  0  0  0  0  0  0  0  0  0  0
  -25.4158  -25.4742   20.6962 C   0  0  0  0  0  0  0  0  0  0  0  0
  -21.7995   -6.0949   22.3652 C   0  0  0  0  0  0  0  0  0  0  0  0
  -22.5368   -4.1636   24.2385 C   0  0  0  0  0  0  0  0  0  0  0  0
  -21.9063   -6.4361   23.7135 C   0  0  0  0  0  0  0  0  0  0  0  0
  -24.7080  -11.5533   20.9049 C   0  0  0  0  0  0  0  0  0  0  0  0
  -27.6258  -19.6463   20.6906 C   0  0  0  0  0  0  0  0  0  0  0  0
  -27.7324  -21.8197   19.9538 C   0  0  0  0  0  0  0  0  0  0  0  0
  -25.9185  -13.2102   20.1149 C   0  0  0  0  0  0  0  0  0  0  0  0
  -24.8914  -11.7701   18.3487 C   0  0  0  0  0  0  0  0  0  0  0  0
  -25.6403  -30.8917   20.4424 C   0  0  0  0  0  0  0  0  0  0  0  0
  -24.5826  -30.9762   23.5077 C   0  0  0  0  0  0  0  0  0  0  0  0
  -23.6153  -29.2487   26.2874 C   0  0  0  0  0  0  0  0  0  0  0  0
  -25.7766  -16.1772   25.4736 C   0  0  0  0  0  0  0  0  0  0  0  0
  -26.3648  -35.4119   18.1838 C   0  0  0  0  0  0  0  0  0  0  0  0
  -23.6313  -29.3732   20.3236 C   0  0  0  0  0  0  0  0  0  0  0  0
  -25.3536  -28.7356   22.6413 C   0  0  0  0  0  0  0  0  0  0  0  0
  -26.4957  -34.8676   19.6040 C   0  0  0  0  0  0  0  0  0  0  0  0
  -28.6788  -14.6858   23.7258 C   0  0  0  0  0  0  0  0  0  0  0  0
  -27.2920  -33.5665   19.6057 C   0  0  0  0  0  0  0  0  0  0  0  0
  -28.0170  -13.7113   22.7530 C   0  0  0  0  0  0  0  0  0  0  0  0
  -27.8310  -14.9032   24.9755 C   0  0  0  0  0  0  0  0  0  0  0  0
  -25.7736  -14.3592   23.7164 C   0  0  0  0  0  0  0  0  0  0  0  0
  -26.5838  -32.4852   18.7806 C   0  0  1  0  0  0  0  0  0  0  0  0
  -24.3621  -30.4611   21.1045 C   0  0  1  0  0  0  0  0  0  0  0  0
  -26.5803  -14.1539   22.4254 C   0  0  2  0  0  0  0  0  0  0  0  0
  -28.5822  -22.9394   19.4484 C   0  0  0  0  0  0  0  0  0  0  0  0
  -28.7164  -17.6009   19.7347 C   0  0  0  0  0  0  0  0  0  0  0  0
  -22.8209  -17.3679   26.2606 C   0  0  0  0  0  0  0  0  0  0  0  0
  -22.8429  -29.5916   28.6503 C   0  0  0  0  0  0  0  0  0  0  0  0
  -27.4419  -31.6355   24.3442 C   0  0  0  0  0  0  0  0  0  0  0  0
  -26.8198  -31.0320   26.6931 C   0  0  0  0  0  0  0  0  0  0  0  0
  -25.6766  -32.9324   25.5510 C   0  0  0  0  0  0  0  0  0  0  0  0
  -21.0298  -27.9089   25.7594 C   0  0  0  0  0  0  0  0  0  0  0  0
  -25.4623  -18.5661   21.3867 C   0  0  0  0  0  0  0  0  0  0  0  0
  -25.6889  -23.2949   19.7843 C   0  0  0  0  0  0  0  0  0  1  0  0
  -28.3608  -18.3823   20.9959 C   0  0  0  0  0  0  0  0  0  0  0  0
  -25.5415  -18.3557   22.9125 C   0  0  0  0  0  0  0  0  0  0  0  0
  -24.0957  -17.9666   25.7015 C   0  0  0  0  0  0  0  0  0  0  0  0
  -24.6874  -17.2013   23.4322 C   0  0  0  0  0  0  0  0  0  0  0  0
  -25.1475  -30.5630   24.8453 C   0  0  1  0  0  0  0  0  0  0  0  0
  -22.4146  -29.4044   27.2031 C   0  0  2  0  0  0  0  0  0  0  0  0
  -26.2680  -31.5220   25.3373 C   0  0  0  0  0  0  0  0  0  0  0  0
  -25.1571  -12.1872   21.9914 N   0  0  0  0  0  0  0  0  0  0  0  0
  -28.3834  -20.6684   20.2335 N   0  0  0  0  0  0  0  0  0  0  0  0
  -25.8902  -13.1898   21.4783 N   0  0  0  0  0  0  0  0  0  0  0  0
  -24.7054  -30.0458   22.4660 N   0  0  0  0  0  0  0  0  0  0  0  0
  -26.4590  -15.2810   24.6345 N   0  0  0  0  0  0  0  0  0  0  0  0
  -26.6083  -14.1515   19.4362 N   0  0  0  0  0  0  0  0  0  0  0  0
  -24.0820  -10.6515   18.1082 N   0  0  0  0  0  0  0  0  0  0  0  0
  -25.4834  -31.9174   19.5297 N   0  0  0  0  0  0  0  0  0  0  0  0
  -24.0105  -30.4569   25.7534 N   0  0  0  0  0  0  0  0  0  0  0  0
  -24.8213  -17.0125   24.8750 N   0  0  0  0  0  0  0  0  0  0  0  0
  -21.5424  -28.1987   27.1233 N   0  3  0  0  0  0  0  0  0  0  0  0
  -25.3768  -12.3970   17.3766 O   0  0  0  0  0  0  0  0  0  0  0  0
  -26.6914  -30.3357   20.7387 O   0  0  0  0  0  0  0  0  0  0  0  0
  -24.0457  -32.0808   23.3932 O   0  0  0  0  0  0  0  0  0  0  0  0
  -24.1516  -28.1642   26.0708 O   0  0  0  0  0  0  0  0  0  0  0  0
  -26.0148  -16.2344   26.6868 O   0  0  0  0  0  0  0  0  0  0  0  0
  -21.4327   -7.0522   21.4342 O   0  0  0  0  0  0  0  0  0  0  0  0
  -25.9749  -24.2393   20.8152 O   0  0  0  0  0  0  0  0  0  1  0  0
  -22.8894   -3.2359   25.1380 F   0  0  0  0  0  0  0  0  0  0  0  0
  -21.6550   -7.6896   24.1151 F   0  0  0  0  0  0  0  0  0  0  0  0
  1  2  1  0  0  0  0
  1  5  2  0  0  0  0
  2  6  2  0  0  0  0
  3  8  2  0  0  0  0
  3 16  1  0  0  0  0
  4  9  1  0  0  0  0
  4 16  2  0  0  0  0
  5 18  1  0  0  0  0
  6 20  1  0  0  0  0
  7 10  2  0  0  0  0
  7 19  1  0  0  0  0
  8 24  1  0  0  0  0
  9 24  2  0  0  0  0
 10 25  1  0  0  0  0
 11 12  2  0  0  0  0
 11 26  1  0  0  0  0
 12 27  1  0  0  0  0
 13 21  1  0  0  0  0
 13 25  2  0  0  0  0
 14 22  1  0  0  0  0
 14 23  2  0  0  0  0
 15 27  2  0  0  0  0
 15 28  1  0  0  0  0
 16 29  1  0  0  0  0
 17 29  1  0  0  0  0
 17 32  2  0  0  0  0
 17 33  1  0  0  0  0
 18 20  2  0  0  0  0
 18 38  1  0  0  0  0
 19 21  2  0  0  0  0
 19 39  1  0  0  0  0
 20 47  1  0  0  0  0
 21 40  1  0  0  0  0
 22 30  2  0  0  0  0
 22 58  1  0  0  0  0
 23 31  1  0  0  0  0
 23 59  1  0  0  0  0
 24 83  1  0  0  0  0
 25 84  1  0  0  0  0
 26 28  2  0  0  0  0
 26 83  1  0  0  0  0
 27 85  1  0  0  0  0
 28 86  1  0  0  0  0
 29 67  2  0  0  0  0
 30 60  1  0  0  0  0
 30 68  1  0  0  0  0
 31 50  1  0  0  0  0
 31 68  2  0  0  0  0
 32 69  1  0  0  0  0
 32 72  1  0  0  0  0
 33 73  1  0  0  0  0
 33 78  2  0  0  0  0
 34 48  1  0  0  0  0
 34 74  1  0  0  0  0
 34 79  2  0  0  0  0
 35 64  1  0  0  0  0
 35 70  1  0  0  0  0
 35 80  2  0  0  0  0
 36 65  1  0  0  0  0
 36 75  1  0  0  0  0
 36 81  2  0  0  0  0
 37 71  1  0  0  0  0
 37 76  1  0  0  0  0
 37 82  2  0  0  0  0
 38 41  1  0  0  0  0
 39 48  1  0  0  0  0
 40 70  1  0  0  0  0
 41 43  1  0  0  0  0
 42 44  1  0  0  0  0
 42 45  1  0  0  0  0
 43 47  1  0  0  0  0
 44 49  1  0  0  0  0
 45 71  1  0  0  0  0
 46 49  1  0  0  0  0
 46 71  1  0  0  0  0
 47 74  1  0  0  0  0
 48 70  1  0  0  0  0
 49 69  1  0  0  0  0
 51 60  1  0  0  0  0
 52 62  1  0  0  0  0
 53 65  1  0  0  0  0
 54 66  1  0  0  0  0
 55 66  1  0  0  0  0
 56 66  1  0  0  0  0
 57 77  1  0  0  0  0
 58 61  1  0  0  0  0
 59 84  1  0  0  0  0
 61 63  1  0  0  0  0
 62 76  1  0  0  0  0
 63 76  1  0  0  0  0
 64 66  1  0  0  0  0
 64 75  1  0  0  0  0
 65 77  1  0  0  0  0
 67 69  1  0  0  0  0
M  CHG  1  77   1
M  ISO  4  37 100  59 101  76 100  84 101
M  END
> <Batch ID>
0074

> <Smiles>
CCc1nc(C)c([101CH2:1][101O:1]c2ccc3c(c2)CN(C(=O)C(NC(=O)C(C)NC)C(C)(C)C)C(C(=O)NC2CCCc4ccccc42)C3)cc1CCC[100N:0](CC)[100C:0](=O)N1CCCC(n2nc(-c3ccc(Oc4ccc(F)cc4F)cc3)c(C(N)=O)c2N)C1

> <Shape>
0.227

> <Color>
0.118

> <Negative vol penalty>
0.000

$$$$

  -OEChem-04052318293D

 88 96  0     1  0  0  0  0  0999 V2000
  -27.6912   -0.9783   38.8556 C   0  0  0  0  0  0  0  0  0  0  0  0
  -27.0048   -1.7449   37.9193 C   0  0  0  0  0  0  0  0  0  0  0  0
  -23.1907   -9.8191   19.9312 C   0  0  0  0  0  0  0  0  0  0  0  0
  -23.5676   -9.9997   22.3108 C   0  0  0  0  0  0  0  0  0  0  0  0
  -29.0848   -1.0036   38.8888 C   0  0  0  0  0  0  0  0  0  0  0  0
  -27.7117   -2.5382   37.0164 C   0  0  0  0  0  0  0  0  0  0  0  0
  -27.3714   -5.0121   30.3022 C   0  0  0  0  0  0  0  0  0  0  0  0
  -22.4244   -8.6725   20.1395 C   0  0  0  0  0  0  0  0  0  0  0  0
  -22.8011   -8.8530   22.5192 C   0  0  0  0  0  0  0  0  0  0  0  0
  -27.4450   -6.2085   29.5901 C   0  0  0  0  0  0  0  0  0  0  0  0
  -23.2025   -5.5063   22.2555 C   0  0  0  0  0  0  0  0  0  0  0  0
  -23.7003   -4.5451   23.1351 C   0  0  0  0  0  0  0  0  0  0  0  0
  -29.8533   -6.1122   29.6889 C   0  0  0  0  0  0  0  0  0  0  0  0
  -21.7429   -4.8051   24.5272 C   0  0  0  0  0  0  0  0  0  0  0  0
  -23.7624  -10.4827   21.0168 C   0  0  0  0  0  0  0  0  0  0  0  0
  -24.1012  -12.9994   20.7731 C   0  0  0  0  0  0  0  0  0  0  0  0
  -29.8094   -1.7902   37.9795 C   0  0  0  0  0  0  0  0  0  0  0  0
  -28.5401   -4.3613   30.7231 C   0  0  0  0  0  0  0  0  0  0  0  0
  -29.1163   -2.5751   37.0383 C   0  0  0  0  0  0  0  0  0  0  0  0
  -29.7919   -4.9063   30.4039 C   0  0  0  0  0  0  0  0  0  0  0  0
  -28.8368  -10.5619   27.3060 C   0  0  0  0  0  0  0  0  0  0  0  0
  -22.2295   -8.1894   21.4335 C   0  0  0  0  0  0  0  0  0  0  0  0
  -28.6860   -6.7602   29.2859 C   0  0  0  0  0  0  0  0  0  0  0  0
  -21.9748   -6.1171   22.5118 C   0  0  0  0  0  0  0  0  0  0  0  0
  -22.9706   -4.1944   24.2709 C   0  0  0  0  0  0  0  0  0  0  0  0
  -21.2451   -5.7664   23.6476 C   0  0  0  0  0  0  0  0  0  0  0  0
  -24.5546  -11.6669   20.8022 C   0  0  0  0  0  0  0  0  0  0  0  0
  -28.2795  -11.2760   26.2283 C   0  0  0  0  0  0  0  0  0  0  0  0
  -30.0770  -10.1773   26.8583 C   0  0  0  0  0  0  0  0  0  0  0  0
  -25.2325  -13.7420   20.5385 C   0  0  0  0  0  0  0  0  0  0  0  0
  -22.7759  -13.5192   20.9431 C   0  0  0  0  0  0  0  0  0  0  0  0
  -29.7779   -3.5747   33.5432 C   0  0  0  0  0  0  0  0  0  0  0  0
  -31.9884   -2.0622   31.7134 C   0  0  0  0  0  0  0  0  0  0  0  0
  -33.5855   -1.8196   28.7072 C   0  0  0  0  0  0  0  0  0  0  0  0
  -31.0467  -12.7522   21.5713 C   0  0  0  0  0  0  0  0  0  0  0  0
  -31.3136   -1.8217   38.0847 C   0  0  0  0  0  0  0  0  0  0  0  0
  -28.4442   -3.0577   31.4672 C   0  0  0  0  0  0  0  0  0  0  0  0
  -31.0767   -4.2365   30.8152 C   0  0  0  0  0  0  0  0  0  0  0  0
  -31.9987   -2.3996   36.8491 C   0  0  0  0  0  0  0  0  0  0  0  0
  -29.5212  -13.4694   18.4352 C   0  0  0  0  0  0  0  0  0  0  0  0
  -31.3101   -3.6882   36.4105 C   0  0  0  0  0  0  0  0  0  0  0  0
  -28.0344  -13.2090   18.6836 C   0  0  0  0  0  0  0  0  0  0  0  0
  -30.4021  -12.4801   19.1950 C   0  0  0  0  0  0  0  0  0  0  0  0
  -28.6475  -12.1374   20.8914 C   0  0  0  0  0  0  0  0  0  0  0  0
  -29.8484   -3.4293   36.0261 C   0  0  1  0  0  0  0  0  0  0  0  0
  -29.6895   -2.7474   32.2920 C   0  0  1  0  0  0  0  0  0  0  0  0
  -27.7204  -13.1451   20.1904 C   0  0  2  0  0  0  0  0  0  0  0  0
  -31.1507   -9.4034   27.5096 C   0  0  0  0  0  0  0  0  0  0  0  0
  -35.3706   -0.5108   27.5248 C   0  0  0  0  0  0  0  0  0  0  0  0
  -26.7816  -13.0190   27.2599 C   0  0  0  0  0  0  0  0  0  0  0  0
  -25.7940  -10.8859   26.3594 C   0  0  0  0  0  0  0  0  0  0  0  0
  -26.6131  -12.6470   24.8073 C   0  0  0  0  0  0  0  0  0  0  0  0
  -34.1297   -3.5970   33.2525 C   0  0  0  0  0  0  0  0  0  0  0  0
  -35.7575   -2.9990   31.4467 C   0  0  0  0  0  0  0  0  0  0  0  0
  -34.6847   -1.2004   32.8022 C   0  0  0  0  0  0  0  0  0  0  0  0
  -33.4384  -11.4269   23.6072 C   0  0  0  0  0  0  0  0  0  0  0  0
  -32.8443  -12.0662   25.9379 C   0  0  0  0  0  0  0  0  0  0  0  0
  -31.6809   -0.8496   26.6601 C   0  0  0  0  0  0  0  0  0  0  0  0
  -28.2143  -10.2798   28.6518 C   0  0  0  0  0  0  0  0  0  0  0  0
  -31.3084  -10.5220   24.6949 C   0  0  0  0  0  0  0  0  0  0  0  0
  -31.5354  -13.0036   23.9914 C   0  0  0  0  0  0  0  0  0  0  0  0
  -27.6869   -8.8531   28.7590 C   0  0  0  0  0  0  0  0  0  1  0  0
  -33.3073   -2.4509   31.0901 C   0  0  1  0  0  0  0  0  0  0  0  0
  -33.8827   -0.6257   27.8179 C   0  0  2  0  0  0  0  0  0  0  0  0
  -26.9552  -11.9184   26.1583 C   0  0  0  0  0  0  0  0  0  0  0  0
  -34.4458   -2.5757   32.1417 C   0  0  0  0  0  0  0  0  0  0  0  0
  -32.2560  -11.7504   24.5434 C   0  0  0  0  0  0  0  0  0  0  0  0
  -25.8713  -11.5659   20.6019 N   0  0  0  0  0  0  0  0  0  0  0  0
  -29.0986  -11.3426   25.1753 N   0  0  0  0  0  0  0  0  0  0  0  0
  -30.1832  -10.6657   25.5893 N   0  0  0  0  0  0  0  0  0  0  0  0
  -26.2549  -12.8442   20.4446 N   0  0  0  0  0  0  0  0  0  0  0  0
  -30.9304   -2.9670   31.5464 N   0  0  0  0  0  0  0  0  0  0  0  0
  -30.0546  -12.4690   20.6180 N   0  0  0  0  0  0  0  0  0  0  0  0
  -25.4425  -15.0689   20.4053 N   0  0  0  0  0  0  0  0  0  0  0  0
  -21.7291  -12.6170   21.1766 N   0  0  0  0  0  0  0  0  0  0  0  0
  -29.7699   -2.8336   34.7094 N   0  0  0  0  0  0  0  0  0  0  0  0
  -33.5676   -1.4710   30.0411 N   0  0  0  0  0  0  0  0  0  0  0  0
  -30.6317  -12.7269   22.8971 N   0  0  0  0  0  0  0  0  0  0  0  0
  -33.1569   -0.7513   26.5224 N   0  3  0  0  0  0  0  0  0  0  0  0
  -22.5247  -14.7463   20.8732 O   0  0  0  0  0  0  0  0  0  0  0  0
  -29.8496   -4.7950   33.4568 O   0  0  0  0  0  0  0  0  0  0  0  0
  -31.8982   -0.9918   32.3198 O   0  0  0  0  0  0  0  0  0  0  0  0
  -33.3924   -2.9492   28.2631 O   0  0  0  0  0  0  0  0  0  0  0  0
  -32.2145  -13.0139   21.2633 O   0  0  0  0  0  0  0  0  0  0  0  0
  -21.4815   -7.0707   21.6372 O   0  0  0  0  0  0  0  0  0  0  0  0
  -28.7606   -7.9282   28.5915 O   0  0  0  0  0  0  0  0  0  1  0  0
  -23.4481   -3.2702   25.1147 F   0  0  0  0  0  0  0  0  0  0  0  0
  -20.0645   -6.3488   23.8985 F   0  0  0  0  0  0  0  0  0  0  0  0
  1  2  1  0  0  0  0
  1  5  2  0  0  0  0
  2  6  2  0  0  0  0
  3  8  2  0  0  0  0
  3 15  1  0  0  0  0
  4  9  1  0  0  0  0
  4 15  2  0  0  0  0
  5 17  1  0  0  0  0
  6 19  1  0  0  0  0
  7 10  2  0  0  0  0
  7 18  1  0  0  0  0
  8 22  1  0  0  0  0
  9 22  2  0  0  0  0
 10 23  1  0  0  0  0
 11 12  2  0  0  0  0
 11 24  1  0  0  0  0
 12 25  1  0  0  0  0
 13 20  1  0  0  0  0
 13 23  2  0  0  0  0
 14 25  2  0  0  0  0
 14 26  1  0  0  0  0
 15 27  1  0  0  0  0
 16 27  1  0  0  0  0
 16 30  2  0  0  0  0
 16 31  1  0  0  0  0
 17 19  2  0  0  0  0
 17 36  1  0  0  0  0
 18 20  2  0  0  0  0
 18 37  1  0  0  0  0
 19 45  1  0  0  0  0
 20 38  1  0  0  0  0
 21 28  1  0  0  0  0
 21 29  2  0  0  0  0
 21 59  1  0  0  0  0
 22 85  1  0  0  0  0
 23 86  1  0  0  0  0
 24 26  2  0  0  0  0
 24 85  1  0  0  0  0
 25 87  1  0  0  0  0
 26 88  1  0  0  0  0
 27 68  2  0  0  0  0
 28 65  1  0  0  0  0
 28 69  2  0  0  0  0
 29 48  1  0  0  0  0
 29 70  1  0  0  0  0
 30 71  1  0  0  0  0
 30 74  1  0  0  0  0
 31 75  1  0  0  0  0
 31 80  2  0  0  0  0
 32 46  1  0  0  0  0
 32 76  1  0  0  0  0
 32 81  2  0  0  0  0
 33 63  1  0  0  0  0
 33 72  1  0  0  0  0
 33 82  2  0  0  0  0
 34 64  1  0  0  0  0
 34 77  1  0  0  0  0
 34 83  2  0  0  0  0
 35 73  1  0  0  0  0
 35 78  1  0  0  0  0
 35 84  2  0  0  0  0
 36 39  1  0  0  0  0
 37 46  1  0  0  0  0
 38 72  1  0  0  0  0
 39 41  1  0  0  0  0
 40 42  1  0  0  0  0
 40 43  1  0  0  0  0
 41 45  1  0  0  0  0
 42 47  1  0  0  0  0
 43 73  1  0  0  0  0
 44 47  1  0  0  0  0
 44 73  1  0  0  0  0
 45 76  1  0  0  0  0
 46 72  1  0  0  0  0
 47 71  1  0  0  0  0
 49 64  1  0  0  0  0
 50 65  1  0  0  0  0
 51 65  1  0  0  0  0
 52 65  1  0  0  0  0
 53 66  1  0  0  0  0
 54 66  1  0  0  0  0
 55 66  1  0  0  0  0
 56 67  1  0  0  0  0
 57 67  1  0  0  0  0
 58 79  1  0  0  0  0
 59 62  1  0  0  0  0
 60 67  1  0  0  0  0
 60 70  1  0  0  0  0
 61 67  1  0  0  0  0
 61 78  1  0  0  0  0
 62 86  1  0  0  0  0
 63 66  1  0  0  0  0
 63 77  1  0  0  0  0
 64 79  1  0  0  0  0
 68 71  1  0  0  0  0
 69 70  1  0  0  0  0
M  CHG  1  79   1
M  ISO  4  35 100  62 101  78 100  86 101
M  END
> <Batch ID>
0074

> <Smiles>
CNC(C)C(=O)NC(C(=O)N1Cc2cc([101O:1][101CH2:1]Cc3c(C(C)(C)C)nn(CC(C)(C)C[100NH:0][100C:0](=O)N4CCCC(n5nc(-c6ccc(Oc7ccc(F)cc7F)cc6)c(C(N)=O)c5N)C4)c3C)ccc2CC1C(=O)NC1CCCc2ccccc21)C(C)(C)C

> <Shape>
0.138

> <Color>
0.178

> <Negative vol penalty>
0.000

$$$$

  -OEChem-04052318293D

 88 96  0     1  0  0  0  0  0999 V2000
  -20.1107  -11.9528   18.5263 C   0  0  0  0  0  0  0  0  0  0  0  0
  -20.5546  -13.2209   18.1653 C   0  0  0  0  0  0  0  0  0  0  0  0
  -23.0625  -23.3492   24.1339 C   0  0  0  0  0  0  0  0  0  0  0  0
  -25.1386  -22.7426   23.0572 C   0  0  0  0  0  0  0  0  0  0  0  0
  -20.7482  -11.2587   19.5538 C   0  0  0  0  0  0  0  0  0  0  0  0
  -21.6355  -13.7961   18.8324 C   0  0  0  0  0  0  0  0  0  0  0  0
  -27.1995  -18.1681   17.7165 C   0  0  0  0  0  0  0  0  0  0  0  0
  -22.4639  -22.1943   23.6304 C   0  0  0  0  0  0  0  0  0  0  0  0
  -24.5400  -21.5877   22.5537 C   0  0  0  0  0  0  0  0  0  0  0  0
  -27.7850  -19.3208   18.2382 C   0  0  0  0  0  0  0  0  0  0  0  0
  -22.4627  -20.7612   20.0174 C   0  0  0  0  0  0  0  0  0  0  0  0
  -22.6906  -20.4442   18.6784 C   0  0  0  0  0  0  0  0  0  0  0  0
  -28.8590  -17.9958   19.9442 C   0  0  0  0  0  0  0  0  0  0  0  0
  -23.6859  -18.3459   19.3445 C   0  0  0  0  0  0  0  0  0  0  0  0
  -26.4731  -28.3355   19.2433 C   0  0  0  0  0  0  0  0  0  0  0  0
  -24.3999  -23.6234   23.8473 C   0  0  0  0  0  0  0  0  0  0  0  0
  -25.6960  -24.9581   25.5926 C   0  0  0  0  0  0  0  0  0  0  0  0
  -21.8436  -11.8217   20.2273 C   0  0  0  0  0  0  0  0  0  0  0  0
  -27.4309  -16.9199   18.3124 C   0  0  0  0  0  0  0  0  0  0  0  0
  -22.2874  -13.1094   19.8708 C   0  0  0  0  0  0  0  0  0  0  0  0
  -28.2772  -16.8285   19.4266 C   0  0  0  0  0  0  0  0  0  0  0  0
  -23.2026  -21.3135   22.8403 C   0  0  0  0  0  0  0  0  0  0  0  0
  -28.6126  -19.2352   19.3539 C   0  0  0  0  0  0  0  0  0  0  0  0
  -22.8465  -19.8706   21.0201 C   0  0  0  0  0  0  0  0  0  0  0  0
  -23.3022  -19.2365   18.3418 C   0  0  0  0  0  0  0  0  0  0  0  0
  -23.4581  -18.6629   20.6836 C   0  0  0  0  0  0  0  0  0  0  0  0
  -25.0186  -24.8165   24.3667 C   0  0  0  0  0  0  0  0  0  0  0  0
  -27.5996  -28.1227   20.0113 C   0  0  0  0  0  0  0  0  0  0  0  0
  -26.0046  -27.2362   18.5532 C   0  0  0  0  0  0  0  0  0  0  0  0
  -26.0930  -26.2728   25.6155 C   0  0  0  0  0  0  0  0  0  0  0  0
  -27.6749  -25.9386   19.3858 C   0  0  0  0  0  0  0  0  0  0  0  0
  -25.9442  -23.9881   26.6188 C   0  0  0  0  0  0  0  0  0  0  0  0
  -25.6034  -14.7323   19.7189 C   0  0  0  0  0  0  0  0  0  0  0  0
  -28.3574  -13.0187   19.7544 C   0  0  0  0  0  0  0  0  0  0  0  0
  -27.1138  -30.2336   21.2130 C   0  0  0  0  0  0  0  0  0  0  0  0
  -31.7697  -13.0172   19.6995 C   0  0  0  0  0  0  0  0  0  0  0  0
  -22.4706  -11.0527   21.3632 C   0  0  0  0  0  0  0  0  0  0  0  0
  -26.8131  -15.6824   17.7214 C   0  0  0  0  0  0  0  0  0  0  0  0
  -28.5739  -15.5097   20.0909 C   0  0  0  0  0  0  0  0  0  0  0  0
  -23.8456  -11.5778   21.7684 C   0  0  0  0  0  0  0  0  0  0  0  0
  -24.8682  -30.5914   23.9823 C   0  0  0  0  0  0  0  0  0  0  0  0
  -23.8207  -13.0978   21.8943 C   0  0  0  0  0  0  0  0  0  0  0  0
  -24.6914  -29.1604   24.4884 C   0  0  0  0  0  0  0  0  0  0  0  0
  -25.0190  -30.6324   22.4649 C   0  0  0  0  0  0  0  0  0  0  0  0
  -25.9465  -28.3387   22.4452 C   0  0  0  0  0  0  0  0  0  0  0  0
  -23.4724  -13.7567   20.5542 C   0  0  1  0  0  0  0  0  0  0  0  0
  -26.7069  -14.5329   18.7188 C   0  0  1  0  0  0  0  0  0  0  0  0
  -25.8213  -28.2495   23.9765 C   0  0  2  0  0  0  0  0  0  0  0  0
  -23.1001  -27.0086   19.6541 C   0  0  0  0  0  0  0  0  0  0  0  0
  -33.7405  -11.4658   19.7794 C   0  0  0  0  0  0  0  0  0  0  0  0
  -29.2232  -30.0340   19.9517 C   0  0  0  0  0  0  0  0  0  0  0  0
  -28.8759  -28.8693   22.1327 C   0  0  0  0  0  0  0  0  0  0  0  0
  -24.3425  -26.0610   16.9575 C   0  0  0  0  0  0  0  0  0  0  0  0
  -25.0530  -28.4003   16.5501 C   0  0  0  0  0  0  0  0  0  0  0  0
  -27.9427  -12.6504   22.7548 C   0  0  0  0  0  0  0  0  0  0  0  0
  -30.3405  -11.9517   22.9299 C   0  0  0  0  0  0  0  0  0  0  0  0
  -28.7494  -10.6098   21.5550 C   0  0  0  0  0  0  0  0  0  0  0  0
  -32.7081  -13.8848   17.0301 C   0  0  0  0  0  0  0  0  0  0  0  0
  -28.3472  -24.5914   19.4684 C   0  0  0  0  0  0  0  0  0  0  0  0
  -23.5331  -27.8973   18.4916 C   0  0  0  0  0  0  0  0  0  0  0  0
  -28.0608  -23.8352   20.7704 C   0  0  0  0  0  0  0  0  0  0  0  0
  -28.8120  -22.5067   20.8689 C   0  0  0  0  0  0  0  0  0  0  0  0
  -28.4671  -21.5822   19.7092 C   0  0  0  0  0  0  0  0  0  1  0  0
  -29.5116  -12.8698   20.7161 C   0  0  1  0  0  0  0  0  0  0  0  0
  -32.7636  -12.2109   18.8831 C   0  0  2  0  0  0  0  0  0  0  0  0
  -28.1798  -29.2524   20.7945 C   0  0  0  0  0  0  0  0  0  0  0  0
  -24.7897  -27.3687   17.6971 C   0  0  0  0  0  0  0  0  0  0  0  0
  -29.1291  -12.0457   21.9778 C   0  0  0  0  0  0  0  0  0  0  0  0
  -24.9851  -25.9506   23.6620 N   0  0  0  0  0  0  0  0  0  0  0  0
  -28.2285  -26.9328   20.1060 N   0  0  0  0  0  0  0  0  0  0  0  0
  -26.5831  -26.0182   18.6015 N   0  0  0  0  0  0  0  0  0  0  0  0
  -25.6464  -26.8175   24.4477 N   0  0  0  0  0  0  0  0  0  0  0  0
  -27.9412  -14.3291   19.4799 N   0  0  0  0  0  0  0  0  0  0  0  0
  -26.0872  -29.7372   22.0165 N   0  0  0  0  0  0  0  0  0  0  0  0
  -26.7771  -27.0044   26.5207 N   0  0  0  0  0  0  0  0  0  0  0  0
  -25.4666  -22.6834   26.4345 N   0  0  0  0  0  0  0  0  0  0  0  0
  -24.6239  -13.7586   19.6775 N   0  0  0  0  0  0  0  0  0  0  0  0
  -30.6146  -12.3056   19.9456 N   0  0  0  0  0  0  0  0  0  0  0  0
  -33.5422  -13.1073   17.9824 N   0  3  0  0  0  0  0  0  0  0  0  0
  -26.5568  -24.2741   27.6754 O   0  0  0  0  0  0  0  0  0  0  0  0
  -25.6389  -15.6973   20.4734 O   0  0  0  0  0  0  0  0  0  0  0  0
  -27.8487  -12.0098   19.2594 O   0  0  0  0  0  0  0  0  0  0  0  0
  -27.1946  -31.4063   20.8385 O   0  0  0  0  0  0  0  0  0  0  0  0
  -31.9969  -14.1623   20.0837 O   0  0  0  0  0  0  0  0  0  0  0  0
  -22.6189  -20.1864   22.3490 O   0  0  0  0  0  0  0  0  0  0  0  0
  -29.1850  -20.3588   19.8655 O   0  0  0  0  0  0  0  0  0  1  0  0
  -23.5195  -18.9315   17.0558 F   0  0  0  0  0  0  0  0  0  0  0  0
  -23.8279  -17.8028   21.6423 F   0  0  0  0  0  0  0  0  0  0  0  0
  1  2  1  0  0  0  0
  1  5  2  0  0  0  0
  2  6  2  0  0  0  0
  3  8  2  0  0  0  0
  3 16  1  0  0  0  0
  4  9  1  0  0  0  0
  4 16  2  0  0  0  0
  5 18  1  0  0  0  0
  6 20  1  0  0  0  0
  7 10  2  0  0  0  0
  7 19  1  0  0  0  0
  8 22  1  0  0  0  0
  9 22  2  0  0  0  0
 10 23  1  0  0  0  0
 11 12  2  0  0  0  0
 11 24  1  0  0  0  0
 12 25  1  0  0  0  0
 13 21  1  0  0  0  0
 13 23  2  0  0  0  0
 14 25  2  0  0  0  0
 14 26  1  0  0  0  0
 15 28  2  0  0  0  0
 15 29  1  0  0  0  0
 16 27  1  0  0  0  0
 17 27  1  0  0  0  0
 17 30  2  0  0  0  0
 17 32  1  0  0  0  0
 18 20  2  0  0  0  0
 18 37  1  0  0  0  0
 19 21  2  0  0  0  0
 19 38  1  0  0  0  0
 20 46  1  0  0  0  0
 21 39  1  0  0  0  0
 22 85  1  0  0  0  0
 23 86  1  0  0  0  0
 24 26  2  0  0  0  0
 24 85  1  0  0  0  0
 25 87  1  0  0  0  0
 26 88  1  0  0  0  0
 27 69  2  0  0  0  0
 28 66  1  0  0  0  0
 28 70  1  0  0  0  0
 29 67  1  0  0  0  0
 29 71  2  0  0  0  0
 30 72  1  0  0  0  0
 30 75  1  0  0  0  0
 31 59  1  0  0  0  0
 31 70  2  0  0  0  0
 31 71  1  0  0  0  0
 32 76  1  0  0  0  0
 32 80  2  0  0  0  0
 33 47  1  0  0  0  0
 33 77  1  0  0  0  0
 33 81  2  0  0  0  0
 34 64  1  0  0  0  0
 34 73  1  0  0  0  0
 34 82  2  0  0  0  0
 35 66  1  0  0  0  0
 35 74  1  0  0  0  0
 35 83  2  0  0  0  0
 36 65  1  0  0  0  0
 36 78  1  0  0  0  0
 36 84  2  0  0  0  0
 37 40  1  0  0  0  0
 38 47  1  0  0  0  0
 39 73  1  0  0  0  0
 40 42  1  0  0  0  0
 41 43  1  0  0  0  0
 41 44  1  0  0  0  0
 42 46  1  0  0  0  0
 43 48  1  0  0  0  0
 44 74  1  0  0  0  0
 45 48  1  0  0  0  0
 45 74  1  0  0  0  0
 46 77  1  0  0  0  0
 47 73  1  0  0  0  0
 48 72  1  0  0  0  0
 49 60  1  0  0  0  0
 50 65  1  0  0  0  0
 51 66  1  0  0  0  0
 52 66  1  0  0  0  0
 53 67  1  0  0  0  0
 54 67  1  0  0  0  0
 55 68  1  0  0  0  0
 56 68  1  0  0  0  0
 57 68  1  0  0  0  0
 58 79  1  0  0  0  0
 59 61  1  0  0  0  0
 60 67  1  0  0  0  0
 61 62  1  0  0  0  0
 62 63  1  0  0  0  0
 63 86  1  0  0  0  0
 64 68  1  0  0  0  0
 64 78  1  0  0  0  0
 65 79  1  0  0  0  0
 69 72  1  0  0  0  0
M  CHG  1  79   1
M  ISO  4  35 100  63 101  66 100  86 101
M  END
> <Batch ID>
0074

> <Smiles>
CCC(C)(C)c1cc([100C:0](C)(C)[100C:0](=O)N2CCCC(n3nc(-c4ccc(Oc5ccc(F)cc5F)cc4)c(C(N)=O)c3N)C2)nc(CCC[101CH2:1][101O:1]c2ccc3c(c2)CN(C(=O)C(NC(=O)C(C)NC)C(C)(C)C)C(C(=O)NC2CCCc4ccccc42)C3)n1

> <Shape>
0.200

> <Color>
0.063

> <Negative vol penalty>
0.000

$$$$

  -OEChem-04052318293D

 87 95  0     1  0  0  0  0  0999 V2000
  -30.3215  -12.5834   20.1166 C   0  0  0  0  0  0  0  0  0  0  0  0
  -30.1270  -13.8888   20.5563 C   0  0  0  0  0  0  0  0  0  0  0  0
  -29.0321  -24.3624   20.8588 C   0  0  0  0  0  0  0  0  0  0  0  0
  -27.8296  -25.3328   19.0016 C   0  0  0  0  0  0  0  0  0  0  0  0
  -29.3722  -11.9770   19.2950 C   0  0  0  0  0  0  0  0  0  0  0  0
  -28.9835  -14.5891   20.1736 C   0  0  0  0  0  0  0  0  0  0  0  0
  -25.8873  -18.6869   23.5095 C   0  0  0  0  0  0  0  0  0  0  0  0
  -28.8206  -23.0890   20.3304 C   0  0  0  0  0  0  0  0  0  0  0  0
  -27.6181  -24.0594   18.4731 C   0  0  0  0  0  0  0  0  0  0  0  0
  -25.8971  -20.0809   23.5281 C   0  0  0  0  0  0  0  0  0  0  0  0
  -30.1346  -21.1562   17.8870 C   0  0  0  0  0  0  0  0  0  0  0  0
  -31.2173  -20.2772   17.8608 C   0  0  0  0  0  0  0  0  0  0  0  0
  -23.9871  -20.1079   22.0548 C   0  0  0  0  0  0  0  0  0  0  0  0
  -29.9940  -18.7289   19.2549 C   0  0  0  0  0  0  0  0  0  0  0  0
  -28.5366  -25.4844   20.1944 C   0  0  0  0  0  0  0  0  0  0  0  0
  -29.8411  -27.6574   20.4840 C   0  0  0  0  0  0  0  0  0  0  0  0
  -28.2118  -12.6668   18.9100 C   0  0  0  0  0  0  0  0  0  0  0  0
  -24.9325  -17.9918   22.7534 C   0  0  0  0  0  0  0  0  0  0  0  0
  -28.0184  -13.9918   19.3450 C   0  0  0  0  0  0  0  0  0  0  0  0
  -23.9658  -18.7050   22.0304 C   0  0  0  0  0  0  0  0  0  0  0  0
  -23.2452  -26.6296   21.6091 C   0  0  0  0  0  0  0  0  0  0  0  0
  -28.1136  -22.9375   19.1376 C   0  0  0  0  0  0  0  0  0  0  0  0
  -24.9487  -20.7917   22.7984 C   0  0  0  0  0  0  0  0  0  0  0  0
  -28.9816  -20.8216   18.5972 C   0  0  0  0  0  0  0  0  0  0  0  0
  -31.1470  -19.0635   18.5447 C   0  0  0  0  0  0  0  0  0  0  0  0
  -28.9113  -19.6080   19.2811 C   0  0  0  0  0  0  0  0  0  0  0  0
  -28.7543  -26.8001   20.7400 C   0  0  0  0  0  0  0  0  0  0  0  0
  -23.8016  -27.4527   20.6514 C   0  0  0  0  0  0  0  0  0  0  0  0
  -22.8158  -27.2582   22.7601 C   0  0  0  0  0  0  0  0  0  0  0  0
  -29.5804  -28.7765   21.2364 C   0  0  0  0  0  0  0  0  0  0  0  0
  -23.4767  -29.2814   21.9619 C   0  0  0  0  0  0  0  0  0  0  0  0
  -30.9842  -27.4599   19.6413 C   0  0  0  0  0  0  0  0  0  0  0  0
  -25.0498  -15.9735   20.3006 C   0  0  0  0  0  0  0  0  0  0  0  0
  -21.8599  -15.7417   20.8420 C   0  0  0  0  0  0  0  0  0  0  0  0
  -24.4517  -31.0783   23.3602 C   0  0  0  0  0  0  0  0  0  0  0  0
  -19.0270  -17.1561   22.1154 C   0  0  0  0  0  0  0  0  0  0  0  0
  -27.2369  -11.9862   17.9821 C   0  0  0  0  0  0  0  0  0  0  0  0
  -24.9190  -16.4878   22.7652 C   0  0  0  0  0  0  0  0  0  0  0  0
  -22.9069  -18.0060   21.2189 C   0  0  0  0  0  0  0  0  0  0  0  0
  -25.8714  -12.6664   17.9279 C   0  0  0  0  0  0  0  0  0  0  0  0
  -27.3718  -30.1802   25.2327 C   0  0  0  0  0  0  0  0  0  0  0  0
  -26.0324  -14.1754   17.7740 C   0  0  0  0  0  0  0  0  0  0  0  0
  -28.1422  -29.2666   24.2802 C   0  0  0  0  0  0  0  0  0  0  0  0
  -25.8645  -30.0018   25.0805 C   0  0  0  0  0  0  0  0  0  0  0  0
  -26.1370  -29.2800   22.7297 C   0  0  0  0  0  0  0  0  0  0  0  0
  -26.7788  -14.7755   18.9716 C   0  0  1  0  0  0  0  0  0  0  0  0
  -24.2194  -15.8870   21.5499 C   0  0  1  0  0  0  0  0  0  0  0  0
  -27.6632  -29.4509   22.8293 C   0  0  2  0  0  0  0  0  0  0  0  0
  -25.1549  -27.8802   18.5844 C   0  0  0  0  0  0  0  0  0  0  0  0
  -20.8473  -26.5654   26.0082 C   0  0  0  0  0  0  0  0  0  0  0  0
  -16.5652  -16.7447   22.3750 C   0  0  0  0  0  0  0  0  0  0  0  0
  -22.2119  -31.4063   22.3832 C   0  0  0  0  0  0  0  0  0  0  0  0
  -24.2863  -31.5412   21.0003 C   0  0  0  0  0  0  0  0  0  0  0  0
  -21.4373  -16.4279   17.8992 C   0  0  0  0  0  0  0  0  0  0  0  0
  -19.0437  -16.9325   18.4325 C   0  0  0  0  0  0  0  0  0  0  0  0
  -19.9376  -14.6292   18.7767 C   0  0  0  0  0  0  0  0  0  0  0  0
  -19.2086  -17.2280   25.0685 C   0  0  0  0  0  0  0  0  0  0  0  0
  -23.1137  -25.1408   21.4098 C   0  0  0  0  0  0  0  0  0  0  0  0
  -24.3015  -26.8843   19.3639 C   0  0  0  0  0  0  0  0  0  0  0  0
  -22.1978  -26.4699   23.8676 C   0  0  0  0  0  0  0  0  0  0  0  0
  -21.5048  -27.3716   24.8994 C   0  0  0  0  0  0  0  0  0  0  0  0
  -24.1496  -24.3220   22.1831 C   0  0  0  0  0  0  0  0  0  0  0  0
  -23.9556  -22.8165   22.0437 C   0  0  0  0  0  0  0  0  0  1  0  0
  -20.6362  -16.4783   20.3531 C   0  0  1  0  0  0  0  0  0  0  0  0
  -17.9378  -16.5970   23.0128 C   0  0  2  0  0  0  0  0  0  0  0  0
  -23.6028  -30.7544   22.1567 C   0  0  0  0  0  0  0  0  0  0  0  0
  -20.2847  -16.1305   18.8790 C   0  0  0  0  0  0  0  0  0  0  0  0
  -27.8691  -27.3291   21.5889 N   0  0  0  0  0  0  0  0  0  0  0  0
  -23.9334  -28.7877   20.7952 N   0  0  0  0  0  0  0  0  0  0  0  0
  -22.9166  -28.5871   22.9707 N   0  0  0  0  0  0  0  0  0  0  0  0
  -28.3994  -28.5308   21.8729 N   0  0  0  0  0  0  0  0  0  0  0  0
  -22.9391  -16.5346   21.2572 N   0  0  0  0  0  0  0  0  0  0  0  0
  -25.4525  -30.1623   23.6849 N   0  0  0  0  0  0  0  0  0  0  0  0
  -30.2485  -29.9367   21.4092 N   0  0  0  0  0  0  0  0  0  0  0  0
  -31.0958  -26.2522   18.9390 N   0  0  0  0  0  0  0  0  0  0  0  0
  -25.8936  -14.8959   20.1102 N   0  0  0  0  0  0  0  0  0  0  0  0
  -19.5729  -16.1816   21.3069 N   0  0  0  0  0  0  0  0  0  0  0  0
  -17.9274  -17.3108   24.3210 N   0  3  0  0  0  0  0  0  0  0  0  0
  -31.8883  -28.3220   19.5276 O   0  0  0  0  0  0  0  0  0  0  0  0
  -24.9325  -16.9452   19.5632 O   0  0  0  0  0  0  0  0  0  0  0  0
  -21.8556  -14.5083   20.8617 O   0  0  0  0  0  0  0  0  0  0  0  0
  -24.2324  -32.1164   23.9898 O   0  0  0  0  0  0  0  0  0  0  0  0
  -19.3578  -18.3397   22.1274 O   0  0  0  0  0  0  0  0  0  0  0  0
  -27.9072  -21.6950   18.6216 O   0  0  0  0  0  0  0  0  0  0  0  0
  -24.9563  -22.1524   22.8143 O   0  0  0  0  0  0  0  0  0  1  0  0
  -32.1862  -18.2188   18.5182 F   0  0  0  0  0  0  0  0  0  0  0  0
  -27.8058  -19.2805   19.9642 F   0  0  0  0  0  0  0  0  0  0  0  0
  1  2  1  0  0  0  0
  1  5  2  0  0  0  0
  2  6  2  0  0  0  0
  3  8  2  0  0  0  0
  3 15  1  0  0  0  0
  4  9  1  0  0  0  0
  4 15  2  0  0  0  0
  5 17  1  0  0  0  0
  6 19  1  0  0  0  0
  7 10  2  0  0  0  0
  7 18  1  0  0  0  0
  8 22  1  0  0  0  0
  9 22  2  0  0  0  0
 10 23  1  0  0  0  0
 11 12  2  0  0  0  0
 11 24  1  0  0  0  0
 12 25  1  0  0  0  0
 13 20  1  0  0  0  0
 13 23  2  0  0  0  0
 14 25  2  0  0  0  0
 14 26  1  0  0  0  0
 15 27  1  0  0  0  0
 16 27  1  0  0  0  0
 16 30  2  0  0  0  0
 16 32  1  0  0  0  0
 17 19  2  0  0  0  0
 17 37  1  0  0  0  0
 18 20  2  0  0  0  0
 18 38  1  0  0  0  0
 19 46  1  0  0  0  0
 20 39  1  0  0  0  0
 21 28  1  0  0  0  0
 21 29  2  0  0  0  0
 21 58  1  0  0  0  0
 22 84  1  0  0  0  0
 23 85  1  0  0  0  0
 24 26  2  0  0  0  0
 24 84  1  0  0  0  0
 25 86  1  0  0  0  0
 26 87  1  0  0  0  0
 27 68  2  0  0  0  0
 28 59  1  0  0  0  0
 28 69  2  0  0  0  0
 29 60  1  0  0  0  0
 29 70  1  0  0  0  0
 30 71  1  0  0  0  0
 30 74  1  0  0  0  0
 31 66  1  0  0  0  0
 31 69  1  0  0  0  0
 31 70  2  0  0  0  0
 32 75  1  0  0  0  0
 32 79  2  0  0  0  0
 33 47  1  0  0  0  0
 33 76  1  0  0  0  0
 33 80  2  0  0  0  0
 34 64  1  0  0  0  0
 34 72  1  0  0  0  0
 34 81  2  0  0  0  0
 35 66  1  0  0  0  0
 35 73  1  0  0  0  0
 35 82  2  0  0  0  0
 36 65  1  0  0  0  0
 36 77  1  0  0  0  0
 36 83  2  0  0  0  0
 37 40  1  0  0  0  0
 38 47  1  0  0  0  0
 39 72  1  0  0  0  0
 40 42  1  0  0  0  0
 41 43  1  0  0  0  0
 41 44  1  0  0  0  0
 42 46  1  0  0  0  0
 43 48  1  0  0  0  0
 44 73  1  0  0  0  0
 45 48  1  0  0  0  0
 45 73  1  0  0  0  0
 46 76  1  0  0  0  0
 47 72  1  0  0  0  0
 48 71  1  0  0  0  0
 49 59  1  0  0  0  0
 50 61  1  0  0  0  0
 51 65  1  0  0  0  0
 52 66  1  0  0  0  0
 53 66  1  0  0  0  0
 54 67  1  0  0  0  0
 55 67  1  0  0  0  0
 56 67  1  0  0  0  0
 57 78  1  0  0  0  0
 58 62  1  0  0  0  0
 60 61  1  0  0  0  0
 62 63  1  0  0  0  0
 63 85  1  0  0  0  0
 64 67  1  0  0  0  0
 64 77  1  0  0  0  0
 65 78  1  0  0  0  0
 68 71  1  0  0  0  0
M  CHG  1  78   1
M  ISO  4  35 100  63 101  66 100  85 101
M  END
> <Batch ID>
0074

> <Smiles>
CCCc1nc([100C:0](C)(C)[100C:0](=O)N2CCCC(n3nc(-c4ccc(Oc5ccc(F)cc5F)cc4)c(C(N)=O)c3N)C2)nc(CC)c1CC[101CH2:1][101O:1]c1ccc2c(c1)CN(C(=O)C(NC(=O)C(C)NC)C(C)(C)C)C(C(=O)NC1CCCc3ccccc31)C2

> <Shape>
0.228

> <Color>
0.064

> <Negative vol penalty>
0.000

$$$$

  -OEChem-04052318293D

 81 89  0     1  0  0  0  0  0999 V2000
  -27.2289  -18.1282   19.0764 C   0  0  0  0  0  0  0  0  0  0  0  0
  -26.2635  -19.1009   18.8370 C   0  0  0  0  0  0  0  0  0  0  0  0
  -21.8048  -17.3651   22.2476 C   0  0  0  0  0  0  0  0  0  0  0  0
  -24.1102  -17.6993   21.6070 C   0  0  0  0  0  0  0  0  0  0  0  0
  -28.2376  -18.3637   20.0097 C   0  0  0  0  0  0  0  0  0  0  0  0
  -26.3056  -20.3093   19.5317 C   0  0  0  0  0  0  0  0  0  0  0  0
  -24.7954  -27.2657   18.7292 C   0  0  0  0  0  0  0  0  0  0  0  0
  -21.8051  -16.1278   21.6038 C   0  0  0  0  0  0  0  0  0  0  0  0
  -24.1106  -16.4619   20.9631 C   0  0  0  0  0  0  0  0  0  0  0  0
  -24.0878  -28.2930   19.3518 C   0  0  0  0  0  0  0  0  0  0  0  0
  -24.3565  -13.2048   21.8301 C   0  0  0  0  0  0  0  0  0  0  0  0
  -25.4516  -12.3669   22.0404 C   0  0  0  0  0  0  0  0  0  0  0  0
  -25.9227  -28.6206   20.8832 C   0  0  0  0  0  0  0  0  0  0  0  0
  -20.6547  -28.0307   23.1515 C   0  0  0  0  0  0  0  0  0  0  0  0
  -25.9256  -12.3917   19.6715 C   0  0  0  0  0  0  0  0  0  0  0  0
  -18.6773  -28.6593   22.2766 C   0  0  0  0  0  0  0  0  0  0  0  0
  -22.9573  -18.1509   22.2492 C   0  0  0  0  0  0  0  0  0  0  0  0
  -23.2928  -19.6899   24.2558 C   0  0  0  0  0  0  0  0  0  0  0  0
  -28.2977  -19.5793   20.7092 C   0  0  0  0  0  0  0  0  0  0  0  0
  -26.0696  -26.9002   19.1866 C   0  0  0  0  0  0  0  0  0  0  0  0
  -27.3153  -20.5607   20.4762 C   0  0  0  0  0  0  0  0  0  0  0  0
  -26.6454  -27.5900   20.2630 C   0  0  0  0  0  0  0  0  0  0  0  0
  -19.9301  -29.1227   22.6129 C   0  0  0  0  0  0  0  0  0  0  0  0
  -22.9580  -15.6761   20.9615 C   0  0  0  0  0  0  0  0  0  0  0  0
  -24.6502  -28.9687   20.4308 C   0  0  0  0  0  0  0  0  0  0  0  0
  -24.0459  -13.6362   20.5404 C   0  0  0  0  0  0  0  0  0  0  0  0
  -26.2361  -11.9603   20.9611 C   0  0  0  0  0  0  0  0  0  0  0  0
  -24.8304  -13.2296   19.4611 C   0  0  0  0  0  0  0  0  0  0  0  0
  -22.9573  -19.4294   22.9137 C   0  0  0  0  0  0  0  0  0  0  0  0
  -19.8225  -26.9334   23.1284 C   0  0  0  0  0  0  0  0  0  0  0  0
  -23.1348  -21.0475   24.3920 C   0  0  0  0  0  0  0  0  0  0  0  0
  -23.7100  -18.7856   25.2873 C   0  0  0  0  0  0  0  0  0  0  0  0
  -20.1259  -25.5709   23.5829 C   0  0  0  0  0  0  0  0  0  0  0  0
  -27.3415  -24.2549   20.4066 C   0  0  0  0  0  0  0  0  0  0  0  0
  -30.0995  -25.9490   20.1931 C   0  0  0  0  0  0  0  0  0  0  0  0
  -31.6218  -29.0001   20.0494 C   0  0  0  0  0  0  0  0  0  0  0  0
  -29.3794  -19.7694   21.7428 C   0  0  0  0  0  0  0  0  0  0  0  0
  -26.8310  -25.8077   18.4872 C   0  0  0  0  0  0  0  0  0  0  0  0
  -28.0187  -27.2497   20.7795 C   0  0  0  0  0  0  0  0  0  0  0  0
  -29.5703  -21.2242   22.1641 C   0  0  0  0  0  0  0  0  0  0  0  0
  -22.4131  -24.6504   20.9206 C   0  0  0  0  0  0  0  0  0  0  0  0
  -28.2222  -21.8794   22.4470 C   0  0  0  0  0  0  0  0  0  0  0  0
  -22.7703  -23.2153   21.3096 C   0  0  0  0  0  0  0  0  0  0  0  0
  -20.9585  -24.9703   21.2512 C   0  0  0  0  0  0  0  0  0  0  0  0
  -20.9481  -23.2964   23.0709 C   0  0  0  0  0  0  0  0  0  0  0  0
  -27.3416  -21.8939   21.1917 C   0  0  1  0  0  0  0  0  0  0  0  0
  -27.9083  -25.1752   19.3629 C   0  0  1  0  0  0  0  0  0  0  0  0
  -22.4145  -22.9320   22.7807 C   0  0  1  0  0  0  0  0  0  0  0  0
  -33.8899  -30.0656   19.9172 C   0  0  0  0  0  0  0  0  0  0  0  0
  -19.8108  -31.3123   21.2411 C   0  0  0  0  0  0  0  0  0  0  0  0
  -20.0828  -31.3715   23.7043 C   0  0  0  0  0  0  0  0  0  0  0  0
  -30.5533  -25.3441   23.1491 C   0  0  0  0  0  0  0  0  0  0  0  0
  -32.2649  -27.1709   23.1885 C   0  0  0  0  0  0  0  0  0  0  0  0
  -32.6020  -25.1797   21.7241 C   0  0  0  0  0  0  0  0  0  0  0  0
  -17.4685  -26.4808   22.3897 C   0  0  0  0  0  0  0  0  0  0  0  0
  -30.9932  -30.2890   17.4605 C   0  0  0  0  0  0  0  0  0  0  0  0
  -21.9975  -30.5876   22.2731 C   0  0  0  0  0  0  0  0  0  0  0  0
  -22.5373  -29.8809   21.0305 C   0  0  0  0  0  0  0  0  0  1  0  0
  -30.8482  -26.8919   21.1038 C   0  0  1  0  0  0  0  0  0  0  0  0
  -32.6977  -29.5466   19.1285 C   0  0  2  0  0  0  0  0  0  0  0  0
  -20.4477  -30.5616   22.4351 C   0  0  0  0  0  0  0  0  0  0  0  0
  -31.5404  -26.1520   22.2831 C   0  0  0  0  0  0  0  0  0  0  0  0
  -22.6121  -20.5329   22.2450 N   0  0  0  0  0  0  0  0  0  0  0  0
  -18.6234  -27.3272   22.5941 N   0  0  0  0  0  0  0  0  0  0  0  0
  -22.7297  -21.4999   23.1708 N   0  0  0  0  0  0  0  0  0  0  0  0
  -20.6695  -24.6739   22.6601 N   0  0  0  0  0  0  0  0  0  0  0  0
  -28.7207  -26.1698   20.0664 N   0  0  0  0  0  0  0  0  0  0  0  0
  -23.3041  -21.8863   25.4360 N   0  0  0  0  0  0  0  0  0  0  0  0
  -23.8204  -17.4233   24.9769 N   0  0  0  0  0  0  0  0  0  0  0  0
  -27.7638  -22.9443   20.2902 N   0  0  0  0  0  0  0  0  0  0  0  0
  -31.7626  -27.6433   20.2507 N   0  0  0  0  0  0  0  0  0  0  0  0
  -32.1561  -30.6646   18.3053 N   0  3  0  0  0  0  0  0  0  0  0  0
  -23.9612  -19.1718   26.4540 O   0  0  0  0  0  0  0  0  0  0  0  0
  -19.8825  -25.3262   24.7636 O   0  0  0  0  0  0  0  0  0  0  0  0
  -26.5787  -24.7010   21.2556 O   0  0  0  0  0  0  0  0  0  0  0  0
  -30.7165  -25.0542   19.6099 O   0  0  0  0  0  0  0  0  0  0  0  0
  -30.7463  -29.7068   20.5439 O   0  0  0  0  0  0  0  0  0  0  0  0
  -22.9588  -14.4687   20.3333 O   0  0  0  0  0  0  0  0  0  0  0  0
  -23.9614  -29.9714   21.0407 O   0  0  0  0  0  0  0  0  0  1  0  0
  -27.2886  -11.1569   21.1635 F   0  0  0  0  0  0  0  0  0  0  0  0
  -24.5377  -13.6417   18.2200 F   0  0  0  0  0  0  0  0  0  0  0  0
  1  2  1  0  0  0  0
  1  5  2  0  0  0  0
  2  6  2  0  0  0  0
  3  8  2  0  0  0  0
  3 17  1  0  0  0  0
  4  9  1  0  0  0  0
  4 17  2  0  0  0  0
  5 19  1  0  0  0  0
  6 21  1  0  0  0  0
  7 10  2  0  0  0  0
  7 20  1  0  0  0  0
  8 24  1  0  0  0  0
  9 24  2  0  0  0  0
 10 25  1  0  0  0  0
 11 12  2  0  0  0  0
 11 26  1  0  0  0  0
 12 27  1  0  0  0  0
 13 22  1  0  0  0  0
 13 25  2  0  0  0  0
 14 23  1  0  0  0  0
 14 30  2  0  0  0  0
 15 27  2  0  0  0  0
 15 28  1  0  0  0  0
 16 23  2  0  0  0  0
 16 64  1  0  0  0  0
 17 29  1  0  0  0  0
 18 29  1  0  0  0  0
 18 31  2  0  0  0  0
 18 32  1  0  0  0  0
 19 21  2  0  0  0  0
 19 37  1  0  0  0  0
 20 22  2  0  0  0  0
 20 38  1  0  0  0  0
 21 46  1  0  0  0  0
 22 39  1  0  0  0  0
 23 61  1  0  0  0  0
 24 78  1  0  0  0  0
 25 79  1  0  0  0  0
 26 28  2  0  0  0  0
 26 78  1  0  0  0  0
 27 80  1  0  0  0  0
 28 81  1  0  0  0  0
 29 63  2  0  0  0  0
 30 33  1  0  0  0  0
 30 64  1  0  0  0  0
 31 65  1  0  0  0  0
 31 68  1  0  0  0  0
 32 69  1  0  0  0  0
 32 73  2  0  0  0  0
 33 66  1  0  0  0  0
 33 74  2  0  0  0  0
 34 47  1  0  0  0  0
 34 70  1  0  0  0  0
 34 75  2  0  0  0  0
 35 59  1  0  0  0  0
 35 67  1  0  0  0  0
 35 76  2  0  0  0  0
 36 60  1  0  0  0  0
 36 71  1  0  0  0  0
 36 77  2  0  0  0  0
 37 40  1  0  0  0  0
 38 47  1  0  0  0  0
 39 67  1  0  0  0  0
 40 42  1  0  0  0  0
 41 43  1  0  0  0  0
 41 44  1  0  0  0  0
 42 46  1  0  0  0  0
 43 48  1  0  0  0  0
 44 66  1  0  0  0  0
 45 48  1  0  0  0  0
 45 66  1  0  0  0  0
 46 70  1  0  0  0  0
 47 67  1  0  0  0  0
 48 65  1  0  0  0  0
 49 60  1  0  0  0  0
 50 61  1  0  0  0  0
 51 61  1  0  0  0  0
 52 62  1  0  0  0  0
 53 62  1  0  0  0  0
 54 62  1  0  0  0  0
 55 64  1  0  0  0  0
 56 72  1  0  0  0  0
 57 58  1  0  0  0  0
 57 61  1  0  0  0  0
 58 79  1  0  0  0  0
 59 62  1  0  0  0  0
 59 71  1  0  0  0  0
 60 72  1  0  0  0  0
 63 65  1  0  0  0  0
M  CHG  1  72   1
M  ISO  4  30 100  33 100  58 101  79 101
M  END
> <Batch ID>
0074

> <Smiles>
CNC(C)C(=O)NC(C(=O)N1Cc2cc([101O:1][101CH2:1]CC(C)(C)c3c[100c:0]([100C:0](=O)N4CCCC(n5nc(-c6ccc(Oc7ccc(F)cc7F)cc6)c(C(N)=O)c5N)C4)n(C)c3)ccc2CC1C(=O)NC1CCCc2ccccc21)C(C)(C)C

> <Shape>
0.208

> <Color>
0.077

> <Negative vol penalty>
0.000

$$$$

  -OEChem-04052318293D

 83 91  0     1  0  0  0  0  0999 V2000
  -17.3304  -22.9934   22.2768 C   0  0  0  0  0  0  0  0  0  0  0  0
  -17.8101  -21.7716   21.8160 C   0  0  0  0  0  0  0  0  0  0  0  0
  -28.4983  -26.1292   17.6951 C   0  0  0  0  0  0  0  0  0  0  0  0
  -28.6670  -26.1753   20.1047 C   0  0  0  0  0  0  0  0  0  0  0  0
  -18.2177  -23.9459   22.7761 C   0  0  0  0  0  0  0  0  0  0  0  0
  -19.1777  -21.5019   21.8533 C   0  0  0  0  0  0  0  0  0  0  0  0
  -21.8346  -16.0824   22.8904 C   0  0  0  0  0  0  0  0  0  0  0  0
  -27.8772  -27.3780   17.7146 C   0  0  0  0  0  0  0  0  0  0  0  0
  -28.0460  -27.4242   20.1243 C   0  0  0  0  0  0  0  0  0  0  0  0
  -22.3687  -15.1205   22.0342 C   0  0  0  0  0  0  0  0  0  0  0  0
  -26.1812  -30.4616   20.8361 C   0  0  0  0  0  0  0  0  0  0  0  0
  -25.1754  -30.6707   21.7795 C   0  0  0  0  0  0  0  0  0  0  0  0
  -24.5674  -16.0567   22.3636 C   0  0  0  0  0  0  0  0  0  0  0  0
  -23.8979  -28.8588   20.8192 C   0  0  0  0  0  0  0  0  0  0  0  0
  -28.8931  -25.5278   18.8901 C   0  0  0  0  0  0  0  0  0  0  0  0
  -30.9143  -23.9753   18.7792 C   0  0  0  0  0  0  0  0  0  0  0  0
  -19.5959  -23.6840   22.8285 C   0  0  0  0  0  0  0  0  0  0  0  0
  -22.6627  -17.0471   23.4821 C   0  0  0  0  0  0  0  0  0  0  0  0
  -20.0845  -22.4523   22.3525 C   0  0  0  0  0  0  0  0  0  0  0  0
  -24.0417  -17.0282   23.2290 C   0  0  0  0  0  0  0  0  0  0  0  0
  -27.6511  -28.0255   18.9292 C   0  0  0  0  0  0  0  0  0  0  0  0
  -23.7349  -15.1093   21.7684 C   0  0  0  0  0  0  0  0  0  0  0  0
  -26.0455  -29.4511   19.8842 C   0  0  0  0  0  0  0  0  0  0  0  0
  -24.0337  -29.8693   21.7711 C   0  0  0  0  0  0  0  0  0  0  0  0
  -24.9038  -28.6497   19.8757 C   0  0  0  0  0  0  0  0  0  0  0  0
  -29.5342  -24.2376   18.8706 C   0  0  0  0  0  0  0  0  0  0  0  0
  -29.1931  -13.4148   20.5352 C   0  0  0  0  0  0  0  0  0  0  0  0
  -28.2492  -12.4884   20.1594 C   0  0  0  0  0  0  0  0  0  0  0  0
  -31.0055  -22.6050   18.7999 C   0  0  0  0  0  0  0  0  0  0  0  0
  -29.4972  -13.1059   18.4513 C   0  0  0  0  0  0  0  0  0  0  0  0
  -32.0154  -24.8887   18.6842 C   0  0  0  0  0  0  0  0  0  0  0  0
  -22.8458  -20.2185   23.3713 C   0  0  0  0  0  0  0  0  0  0  0  0
  -29.5627  -17.8009   21.0619 C   0  0  0  0  0  0  0  0  0  0  0  0
  -25.0938  -19.7798   25.6683 C   0  0  0  0  0  0  0  0  0  0  0  0
  -27.3824  -17.7089   27.1244 C   0  0  0  0  0  0  0  0  0  0  0  0
  -20.5212  -24.7630   23.3329 C   0  0  0  0  0  0  0  0  0  0  0  0
  -22.0750  -18.0615   24.4244 C   0  0  0  0  0  0  0  0  0  0  0  0
  -24.9766  -18.0295   23.8551 C   0  0  0  0  0  0  0  0  0  0  0  0
  -21.9163  -24.2533   23.6850 C   0  0  0  0  0  0  0  0  0  0  0  0
  -27.4411  -19.0513   18.3856 C   0  0  0  0  0  0  0  0  0  0  0  0
  -22.4491  -23.3484   22.5786 C   0  0  0  0  0  0  0  0  0  0  0  0
  -27.8960  -20.5070   18.2898 C   0  0  0  0  0  0  0  0  0  0  0  0
  -27.4704  -18.5478   19.8264 C   0  0  0  0  0  0  0  0  0  0  0  0
  -29.2541  -20.1647   20.3996 C   0  0  0  0  0  0  0  0  0  0  0  0
  -21.5585  -22.1130   22.3995 C   0  0  1  0  0  0  0  0  0  0  0  0
  -22.9353  -19.3133   24.5672 C   0  0  1  0  0  0  0  0  0  0  0  0
  -29.2680  -20.7016   18.9586 C   0  0  2  0  0  0  0  0  0  0  0  0
  -29.9993  -13.1551   17.0626 C   0  0  0  0  0  0  0  0  0  0  0  0
  -29.0949  -17.6440   28.9576 C   0  0  0  0  0  0  0  0  0  0  0  0
  -26.9949  -21.4336   23.9476 C   0  0  0  0  0  0  0  0  0  0  0  0
  -28.8938  -20.5498   25.3192 C   0  0  0  0  0  0  0  0  0  0  0  0
  -27.1121  -21.9230   26.3974 C   0  0  0  0  0  0  0  0  0  0  0  0
  -27.7121  -11.4115   17.9591 C   0  0  0  0  0  0  0  0  0  0  0  0
  -25.9707  -15.5162   28.5238 C   0  0  0  0  0  0  0  0  0  0  0  0
  -29.4305  -13.9900   21.8687 C   0  0  0  0  0  0  0  0  0  0  0  0
  -27.1787  -11.7693   20.9407 C   0  0  0  0  0  0  0  0  0  0  0  0
  -28.9925  -16.4055   21.1024 C   0  0  0  0  0  0  0  0  0  0  0  0
  -29.9439  -15.4473   21.8122 C   0  0  0  0  0  0  0  0  0  0  0  0
  -25.7708  -12.3225   20.7095 C   0  0  0  0  0  0  0  0  0  0  0  0
  -25.6044  -13.7641   21.1758 C   0  0  0  0  0  0  0  0  0  1  0  0
  -26.5870  -19.5579   25.6743 C   0  0  1  0  0  0  0  0  0  0  0  0
  -27.6485  -17.3657   28.5790 C   0  0  2  0  0  0  0  0  0  0  0  0
  -27.3793  -20.8483   25.3212 C   0  0  0  0  0  0  0  0  0  0  0  0
  -28.8014  -23.1233   18.9438 N   0  0  0  0  0  0  0  0  0  0  0  0
  -29.9666  -13.7955   19.4673 N   0  0  0  0  0  0  0  0  0  0  0  0
  -28.4561  -12.3009   18.8218 N   0  0  0  0  0  0  0  0  0  0  0  0
  -29.7244  -22.1476   18.8982 N   0  0  0  0  0  0  0  0  0  0  0  0
  -24.3532  -19.0052   24.7644 N   0  0  0  0  0  0  0  0  0  0  0  0
  -28.7856  -18.7764   20.4366 N   0  0  0  0  0  0  0  0  0  0  0  0
  -32.0558  -21.7588   18.7432 N   0  0  0  0  0  0  0  0  0  0  0  0
  -31.7441  -26.2637   18.6761 N   0  0  0  0  0  0  0  0  0  0  0  0
  -21.8224  -21.1443   23.4418 N   0  0  0  0  0  0  0  0  0  0  0  0
  -26.9111  -18.9967   26.9814 N   0  0  0  0  0  0  0  0  0  0  0  0
  -27.3656  -15.9245   28.8314 N   0  3  0  0  0  0  0  0  0  0  0  0
  -33.2034  -24.4968   18.5921 O   0  0  0  0  0  0  0  0  0  0  0  0
  -23.6470  -20.0878   22.4533 O   0  0  0  0  0  0  0  0  0  0  0  0
  -30.6668  -18.0150   21.5689 O   0  0  0  0  0  0  0  0  0  0  0  0
  -24.6019  -20.6048   26.4423 O   0  0  0  0  0  0  0  0  0  0  0  0
  -27.5771  -16.9152   26.2064 O   0  0  0  0  0  0  0  0  0  0  0  0
  -27.0454  -29.2442   18.9487 O   0  0  0  0  0  0  0  0  0  0  0  0
  -24.2587  -14.1718   20.9325 O   0  0  0  0  0  0  0  0  0  1  0  0
  -23.0685  -30.0692   22.6781 F   0  0  0  0  0  0  0  0  0  0  0  0
  -24.7683  -27.6766   18.9644 F   0  0  0  0  0  0  0  0  0  0  0  0
  1  2  1  0  0  0  0
  1  5  2  0  0  0  0
  2  6  2  0  0  0  0
  3  8  2  0  0  0  0
  3 15  1  0  0  0  0
  4  9  1  0  0  0  0
  4 15  2  0  0  0  0
  5 17  1  0  0  0  0
  6 19  1  0  0  0  0
  7 10  2  0  0  0  0
  7 18  1  0  0  0  0
  8 21  1  0  0  0  0
  9 21  2  0  0  0  0
 10 22  1  0  0  0  0
 11 12  2  0  0  0  0
 11 23  1  0  0  0  0
 12 24  1  0  0  0  0
 13 20  1  0  0  0  0
 13 22  2  0  0  0  0
 14 24  2  0  0  0  0
 14 25  1  0  0  0  0
 15 26  1  0  0  0  0
 16 26  1  0  0  0  0
 16 29  2  0  0  0  0
 16 31  1  0  0  0  0
 17 19  2  0  0  0  0
 17 36  1  0  0  0  0
 18 20  2  0  0  0  0
 18 37  1  0  0  0  0
 19 45  1  0  0  0  0
 20 38  1  0  0  0  0
 21 80  1  0  0  0  0
 22 81  1  0  0  0  0
 23 25  2  0  0  0  0
 23 80  1  0  0  0  0
 24 82  1  0  0  0  0
 25 83  1  0  0  0  0
 26 64  2  0  0  0  0
 27 28  2  0  0  0  0
 27 55  1  0  0  0  0
 27 65  1  0  0  0  0
 28 56  1  0  0  0  0
 28 66  1  0  0  0  0
 29 67  1  0  0  0  0
 29 70  1  0  0  0  0
 30 48  1  0  0  0  0
 30 65  2  0  0  0  0
 30 66  1  0  0  0  0
 31 71  1  0  0  0  0
 31 75  2  0  0  0  0
 32 46  1  0  0  0  0
 32 72  1  0  0  0  0
 32 76  2  0  0  0  0
 33 57  1  0  0  0  0
 33 69  1  0  0  0  0
 33 77  2  0  0  0  0
 34 61  1  0  0  0  0
 34 68  1  0  0  0  0
 34 78  2  0  0  0  0
 35 62  1  0  0  0  0
 35 73  1  0  0  0  0
 35 79  2  0  0  0  0
 36 39  1  0  0  0  0
 37 46  1  0  0  0  0
 38 68  1  0  0  0  0
 39 41  1  0  0  0  0
 40 42  1  0  0  0  0
 40 43  1  0  0  0  0
 41 45  1  0  0  0  0
 42 47  1  0  0  0  0
 43 69  1  0  0  0  0
 44 47  1  0  0  0  0
 44 69  1  0  0  0  0
 45 72  1  0  0  0  0
 46 68  1  0  0  0  0
 47 67  1  0  0  0  0
 49 62  1  0  0  0  0
 50 63  1  0  0  0  0
 51 63  1  0  0  0  0
 52 63  1  0  0  0  0
 53 66  1  0  0  0  0
 54 74  1  0  0  0  0
 55 58  1  0  0  0  0
 56 59  1  0  0  0  0
 57 58  1  0  0  0  0
 59 60  1  0  0  0  0
 60 81  1  0  0  0  0
 61 63  1  0  0  0  0
 61 73  1  0  0  0  0
 62 74  1  0  0  0  0
 64 67  1  0  0  0  0
M  CHG  1  74   1
M  ISO  4  33 100  57 100  60 101  81 101
M  END
> <Batch ID>
0074

> <Smiles>
CNC(C)C(=O)NC(C(=O)N1Cc2cc([101O:1][101CH2:1]CCc3c(CC[100CH2:0][100C:0](=O)N4CCCC(n5nc(-c6ccc(Oc7ccc(F)cc7F)cc6)c(C(N)=O)c5N)C4)nc(C)n3C)ccc2CC1C(=O)NC1CCCc2ccccc21)C(C)(C)C

> <Shape>
0.218

> <Color>
0.053

> <Negative vol penalty>
0.000

$$$$

  -OEChem-04052318293D

 83 91  0     1  0  0  0  0  0999 V2000
  -24.4750  -17.6527   23.0944 C   0  0  0  0  0  0  0  0  0  0  0  0
  -25.1160  -18.6671   22.3903 C   0  0  0  0  0  0  0  0  0  0  0  0
  -25.2736  -13.2666   19.3613 C   0  0  0  0  0  0  0  0  0  0  0  0
  -25.5539  -14.3588   21.4981 C   0  0  0  0  0  0  0  0  0  0  0  0
  -23.1028  -17.7283   23.3291 C   0  0  0  0  0  0  0  0  0  0  0  0
  -24.3848  -19.7572   21.9197 C   0  0  0  0  0  0  0  0  0  0  0  0
  -26.7051  -24.1738   22.7885 C   0  0  0  0  0  0  0  0  0  0  0  0
  -25.1273  -12.0394   20.0078 C   0  0  0  0  0  0  0  0  0  0  0  0
  -25.4075  -13.1315   22.1446 C   0  0  0  0  0  0  0  0  0  0  0  0
  -27.7545  -24.5198   21.9383 C   0  0  0  0  0  0  0  0  0  0  0  0
  -24.3199   -8.6724   21.1153 C   0  0  0  0  0  0  0  0  0  0  0  0
  -23.2891   -7.8343   20.6903 C   0  0  0  0  0  0  0  0  0  0  0  0
  -26.2694  -25.9653   20.7036 C   0  0  0  0  0  0  0  0  0  0  0  0
  -21.6716   -9.5382   21.2539 C   0  0  0  0  0  0  0  0  0  0  0  0
  -31.3656  -26.9245   19.2797 C   0  0  0  0  0  0  0  0  0  0  0  0
  -25.4870  -14.4264   20.1065 C   0  0  0  0  0  0  0  0  0  0  0  0
  -24.6201  -16.6072   19.1065 C   0  0  0  0  0  0  0  0  0  0  0  0
  -22.3561  -18.8246   22.8695 C   0  0  0  0  0  0  0  0  0  0  0  0
  -25.4253  -24.7134   22.5957 C   0  0  0  0  0  0  0  0  0  0  0  0
  -23.0010  -19.8468   22.1474 C   0  0  0  0  0  0  0  0  0  0  0  0
  -25.2062  -25.6265   21.5543 C   0  0  0  0  0  0  0  0  0  0  0  0
  -25.1942  -11.9718   21.3994 C   0  0  0  0  0  0  0  0  0  0  0  0
  -27.5361  -25.4134   20.8939 C   0  0  0  0  0  0  0  0  0  0  0  0
  -24.0266   -9.9433   21.6097 C   0  0  0  0  0  0  0  0  0  0  0  0
  -21.9649   -8.2672   20.7595 C   0  0  0  0  0  0  0  0  0  0  0  0
  -22.7024  -10.3762   21.6790 C   0  0  0  0  0  0  0  0  0  0  0  0
  -25.6388  -15.6944   19.4392 C   0  0  0  0  0  0  0  0  0  0  0  0
  -32.1238  -25.9020   17.5737 C   0  0  0  0  0  0  0  0  0  0  0  0
  -31.2816  -25.0090   18.1932 C   0  0  0  0  0  0  0  0  0  0  0  0
  -25.2766  -17.6449   18.4909 C   0  0  0  0  0  0  0  0  0  0  0  0
  -23.2069  -16.5247   19.3335 C   0  0  0  0  0  0  0  0  0  0  0  0
  -22.5599  -23.5090   21.9305 C   0  0  0  0  0  0  0  0  0  0  0  0
  -21.5960  -26.5717   22.3921 C   0  0  0  0  0  0  0  0  0  0  0  0
  -22.3980  -29.8888   22.4173 C   0  0  0  0  0  0  0  0  0  0  0  0
  -30.1441  -20.5670   18.9164 C   0  0  0  0  0  0  0  0  0  0  0  0
  -20.8667  -18.8391   23.1066 C   0  0  0  0  0  0  0  0  0  0  0  0
  -24.3103  -24.3506   23.5379 C   0  0  0  0  0  0  0  0  0  0  0  0
  -23.8556  -26.2496   21.3170 C   0  0  0  0  0  0  0  0  0  0  0  0
  -20.2302  -20.2110   22.8990 C   0  0  0  0  0  0  0  0  0  0  0  0
  -29.6577  -18.1615   16.2566 C   0  0  0  0  0  0  0  0  0  0  0  0
  -20.7291  -20.8401   21.6020 C   0  0  0  0  0  0  0  0  0  0  0  0
  -28.4619  -17.3650   16.7817 C   0  0  0  0  0  0  0  0  0  0  0  0
  -30.6012  -18.5538   17.3898 C   0  0  0  0  0  0  0  0  0  0  0  0
  -28.7570  -18.5159   19.0241 C   0  0  0  0  0  0  0  0  0  0  0  0
  -22.2466  -21.0575   21.6423 C   0  0  1  0  0  0  0  0  0  0  0  0
  -22.9253  -24.5648   22.9352 C   0  0  1  0  0  0  0  0  0  0  0  0
  -27.7538  -18.1088   17.9296 C   0  0  2  0  0  0  0  0  0  0  0  0
  -35.0200  -24.7943   17.4836 C   0  0  0  0  0  0  0  0  0  0  0  0
  -32.4752  -26.6807   15.2156 C   0  0  0  0  0  0  0  0  0  0  0  0
  -21.3907  -32.1561   22.7939 C   0  0  0  0  0  0  0  0  0  0  0  0
  -20.2717  -26.4366   19.6465 C   0  0  0  0  0  0  0  0  0  0  0  0
  -20.1253  -28.9359   19.6714 C   0  0  0  0  0  0  0  0  0  0  0  0
  -18.9209  -27.6005   21.4002 C   0  0  0  0  0  0  0  0  0  0  0  0
  -24.2080  -30.4430   24.6923 C   0  0  0  0  0  0  0  0  0  0  0  0
  -30.8976  -23.6258   17.8595 C   0  0  0  0  0  0  0  0  0  0  0  0
  -34.4586  -25.8485   16.5371 C   0  0  0  0  0  0  0  0  0  0  0  0
  -31.6180  -22.5508   18.6954 C   0  0  0  0  0  0  0  0  0  0  0  0
  -29.8347  -25.1569   20.3124 C   0  0  0  0  0  0  0  0  0  1  0  0
  -32.9143  -25.7149   16.3468 C   0  0  1  0  0  0  0  0  0  0  0  0
  -21.4398  -27.7876   21.5111 C   0  0  1  0  0  0  0  0  0  0  0  0
  -22.1211  -30.9843   23.4311 C   0  0  2  0  0  0  0  0  0  0  0  0
  -20.2145  -27.6771   20.5603 C   0  0  0  0  0  0  0  0  0  0  0  0
  -32.1719  -27.0923   18.2552 N   0  0  0  0  0  0  0  0  0  0  0  0
  -26.8503  -16.1150   19.0659 N   0  0  0  0  0  0  0  0  0  0  0  0
  -30.8038  -25.6780   19.2847 N   0  0  0  0  0  0  0  0  0  0  0  0
  -26.5971  -17.3036   18.4921 N   0  0  0  0  0  0  0  0  0  0  0  0
  -22.7960  -25.8584   22.2613 N   0  0  0  0  0  0  0  0  0  0  0  0
  -29.8687  -19.2742   18.4407 N   0  0  0  0  0  0  0  0  0  0  0  0
  -24.8473  -18.8068   17.9542 N   0  0  0  0  0  0  0  0  0  0  0  0
  -22.6992  -15.3892   19.9796 N   0  0  0  0  0  0  0  0  0  0  0  0
  -22.5692  -22.2233   22.4369 N   0  0  0  0  0  0  0  0  0  0  0  0
  -21.3991  -28.9383   22.4069 N   0  0  0  0  0  0  0  0  0  0  0  0
  -31.2172  -21.2142   18.3162 N   0  0  0  0  0  0  0  0  0  0  0  0
  -23.3980  -31.4866   24.0126 N   0  3  0  0  0  0  0  0  0  0  0  0
  -22.4157  -17.4234   18.9595 O   0  0  0  0  0  0  0  0  0  0  0  0
  -22.2880  -23.8366   20.7814 O   0  0  0  0  0  0  0  0  0  0  0  0
  -20.6898  -26.2701   23.1728 O   0  0  0  0  0  0  0  0  0  0  0  0
  -23.3983  -29.8792   21.7033 O   0  0  0  0  0  0  0  0  0  0  0  0
  -29.4791  -21.1071   19.8070 O   0  0  0  0  0  0  0  0  0  0  0  0
  -25.0512  -10.7744   22.0306 O   0  0  0  0  0  0  0  0  0  0  0  0
  -28.5584  -25.7524   20.0622 O   0  0  0  0  0  0  0  0  0  1  0  0
  -20.9752   -7.4630   20.3498 F   0  0  0  0  0  0  0  0  0  0  0  0
  -22.4145  -11.5966   22.1519 F   0  0  0  0  0  0  0  0  0  0  0  0
  1  2  1  0  0  0  0
  1  5  2  0  0  0  0
  2  6  2  0  0  0  0
  3  8  2  0  0  0  0
  3 16  1  0  0  0  0
  4  9  1  0  0  0  0
  4 16  2  0  0  0  0
  5 18  1  0  0  0  0
  6 20  1  0  0  0  0
  7 10  2  0  0  0  0
  7 19  1  0  0  0  0
  8 22  1  0  0  0  0
  9 22  2  0  0  0  0
 10 23  1  0  0  0  0
 11 12  2  0  0  0  0
 11 24  1  0  0  0  0
 12 25  1  0  0  0  0
 13 21  1  0  0  0  0
 13 23  2  0  0  0  0
 14 25  2  0  0  0  0
 14 26  1  0  0  0  0
 15 63  2  0  0  0  0
 15 65  1  0  0  0  0
 16 27  1  0  0  0  0
 17 27  1  0  0  0  0
 17 30  2  0  0  0  0
 17 31  1  0  0  0  0
 18 20  2  0  0  0  0
 18 36  1  0  0  0  0
 19 21  2  0  0  0  0
 19 37  1  0  0  0  0
 20 45  1  0  0  0  0
 21 38  1  0  0  0  0
 22 80  1  0  0  0  0
 23 81  1  0  0  0  0
 24 26  2  0  0  0  0
 24 80  1  0  0  0  0
 25 82  1  0  0  0  0
 26 83  1  0  0  0  0
 27 64  2  0  0  0  0
 28 29  2  0  0  0  0
 28 59  1  0  0  0  0
 28 63  1  0  0  0  0
 29 55  1  0  0  0  0
 29 65  1  0  0  0  0
 30 66  1  0  0  0  0
 30 69  1  0  0  0  0
 31 70  1  0  0  0  0
 31 75  2  0  0  0  0
 32 46  1  0  0  0  0
 32 71  1  0  0  0  0
 32 76  2  0  0  0  0
 33 60  1  0  0  0  0
 33 67  1  0  0  0  0
 33 77  2  0  0  0  0
 34 61  1  0  0  0  0
 34 72  1  0  0  0  0
 34 78  2  0  0  0  0
 35 68  1  0  0  0  0
 35 73  1  0  0  0  0
 35 79  2  0  0  0  0
 36 39  1  0  0  0  0
 37 46  1  0  0  0  0
 38 67  1  0  0  0  0
 39 41  1  0  0  0  0
 40 42  1  0  0  0  0
 40 43  1  0  0  0  0
 41 45  1  0  0  0  0
 42 47  1  0  0  0  0
 43 68  1  0  0  0  0
 44 47  1  0  0  0  0
 44 68  1  0  0  0  0
 45 71  1  0  0  0  0
 46 67  1  0  0  0  0
 47 66  1  0  0  0  0
 48 56  1  0  0  0  0
 49 59  1  0  0  0  0
 50 61  1  0  0  0  0
 51 62  1  0  0  0  0
 52 62  1  0  0  0  0
 53 62  1  0  0  0  0
 54 74  1  0  0  0  0
 55 57  1  0  0  0  0
 56 59  1  0  0  0  0
 57 73  1  0  0  0  0
 58 65  1  0  0  0  0
 58 81  1  0  0  0  0
 60 62  1  0  0  0  0
 60 72  1  0  0  0  0
 61 74  1  0  0  0  0
 64 66  1  0  0  0  0
M  CHG  1  74   1
M  ISO  4  35 100  58 101  73 100  81 101
M  END
> <Batch ID>
0074

> <Smiles>
CCC(C)c1ncn([101CH2:1][101O:1]c2ccc3c(c2)CN(C(=O)C(NC(=O)C(C)NC)C(C)(C)C)C(C(=O)NC2CCCc4ccccc42)C3)c1CC[100NH:0][100C:0](=O)N1CCCC(n2nc(-c3ccc(Oc4ccc(F)cc4F)cc3)c(C(N)=O)c2N)C1

> <Shape>
0.192

> <Color>
0.066

> <Negative vol penalty>
0.000

$$$$

  -OEChem-04052318293D

 88 96  0     1  0  0  0  0  0999 V2000
  -31.1151  -18.4877   21.8464 C   0  0  0  0  0  0  0  0  0  0  0  0
  -29.7867  -18.7610   22.1563 C   0  0  0  0  0  0  0  0  0  0  0  0
  -28.4192  -28.1748   21.1452 C   0  0  0  0  0  0  0  0  0  0  0  0
  -27.1666  -27.1992   19.3241 C   0  0  0  0  0  0  0  0  0  0  0  0
  -31.4224  -17.5096   20.9015 C   0  0  0  0  0  0  0  0  0  0  0  0
  -28.7646  -18.0570   21.5206 C   0  0  0  0  0  0  0  0  0  0  0  0
  -23.3980  -16.3704   23.9415 C   0  0  0  0  0  0  0  0  0  0  0  0
  -29.4924  -27.3310   20.8592 C   0  0  0  0  0  0  0  0  0  0  0  0
  -28.2399  -26.3554   19.0380 C   0  0  0  0  0  0  0  0  0  0  0  0
  -22.1214  -16.9263   23.8715 C   0  0  0  0  0  0  0  0  0  0  0  0
  -29.5521  -23.4905   20.2635 C   0  0  0  0  0  0  0  0  0  0  0  0
  -29.2722  -22.1461   20.0192 C   0  0  0  0  0  0  0  0  0  0  0  0
  -21.5725  -15.4235   22.0661 C   0  0  0  0  0  0  0  0  0  0  0  0
  -30.2322  -22.3474   17.8113 C   0  0  0  0  0  0  0  0  0  0  0  0
  -27.2563  -28.1088   20.3777 C   0  0  0  0  0  0  0  0  0  0  0  0
  -25.9112  -30.2641   20.1471 C   0  0  0  0  0  0  0  0  0  0  0  0
  -30.4038  -16.7866   20.2609 C   0  0  0  0  0  0  0  0  0  0  0  0
  -23.7758  -15.3425   23.0655 C   0  0  0  0  0  0  0  0  0  0  0  0
  -29.0585  -17.0692   20.5652 C   0  0  0  0  0  0  0  0  0  0  0  0
  -22.8537  -14.8545   22.1287 C   0  0  0  0  0  0  0  0  0  0  0  0
  -29.4027  -26.4213   19.8056 C   0  0  0  0  0  0  0  0  0  0  0  0
  -21.2093  -16.4548   22.9318 C   0  0  0  0  0  0  0  0  0  0  0  0
  -30.1720  -24.2635   19.2817 C   0  0  0  0  0  0  0  0  0  0  0  0
  -29.6123  -21.5745   18.7931 C   0  0  0  0  0  0  0  0  0  0  0  0
  -30.5120  -23.6919   18.0556 C   0  0  0  0  0  0  0  0  0  0  0  0
  -26.1471  -28.9798   20.6731 C   0  0  0  0  0  0  0  0  0  0  0  0
  -17.1379  -22.5694   22.3290 C   0  0  0  0  0  0  0  0  0  0  0  0
  -17.8601  -23.6238   21.8294 C   0  0  0  0  0  0  0  0  0  0  0  0
  -24.7381  -30.6667   20.7371 C   0  0  0  0  0  0  0  0  0  0  0  0
  -26.6834  -31.0251   19.2089 C   0  0  0  0  0  0  0  0  0  0  0  0
  -25.9960  -15.0169   20.8142 C   0  0  0  0  0  0  0  0  0  0  0  0
  -24.9341  -11.9523   20.7585 C   0  0  0  0  0  0  0  0  0  0  0  0
  -19.7273  -28.4012   22.3421 C   0  0  0  0  0  0  0  0  0  0  0  0
  -22.4006   -9.7522   21.3811 C   0  0  0  0  0  0  0  0  0  0  0  0
  -30.7835  -15.7717   19.2118 C   0  0  0  0  0  0  0  0  0  0  0  0
  -25.1478  -14.7352   23.1716 C   0  0  0  0  0  0  0  0  0  0  0  0
  -23.2031  -13.7389   21.1790 C   0  0  0  0  0  0  0  0  0  0  0  0
  -29.6525  -14.8097   18.8574 C   0  0  0  0  0  0  0  0  0  0  0  0
  -22.2387  -29.3656   24.7895 C   0  0  0  0  0  0  0  0  0  0  0  0
  -28.3503  -15.5738   18.6396 C   0  0  0  0  0  0  0  0  0  0  0  0
  -23.4924  -29.4580   23.9208 C   0  0  0  0  0  0  0  0  0  0  0  0
  -21.3134  -28.2450   24.3224 C   0  0  0  0  0  0  0  0  0  0  0  0
  -22.1790  -28.4363   22.0118 C   0  0  0  0  0  0  0  0  0  0  0  0
  -27.9225  -16.3096   19.9151 C   0  0  1  0  0  0  0  0  0  0  0  0
  -25.5963  -14.0443   21.8875 C   0  0  1  0  0  0  0  0  0  0  0  0
  -23.1244  -29.5744   22.4313 C   0  0  2  0  0  0  0  0  0  0  0  0
  -18.9965  -23.7008   20.8977 C   0  0  0  0  0  0  0  0  0  0  0  0
  -21.8153   -7.3188   21.1982 C   0  0  0  0  0  0  0  0  0  0  0  0
  -16.5111  -26.8454   21.4955 C   0  0  0  0  0  0  0  0  0  0  0  0
  -24.5368  -12.2765   17.7507 C   0  0  0  0  0  0  0  0  0  0  0  0
  -23.1012  -10.2258   17.7897 C   0  0  0  0  0  0  0  0  0  0  0  0
  -25.5037  -10.0768   18.4441 C   0  0  0  0  0  0  0  0  0  0  0  0
  -19.3385  -26.0437   24.1630 C   0  0  0  0  0  0  0  0  0  0  0  0
  -17.0342  -26.8535   24.6590 C   0  0  0  0  0  0  0  0  0  0  0  0
  -22.0107   -9.5069   24.3046 C   0  0  0  0  0  0  0  0  0  0  0  0
  -17.2952  -21.0934   22.0634 C   0  0  0  0  0  0  0  0  0  0  0  0
  -18.4793  -20.4549   22.7978 C   0  0  0  0  0  0  0  0  0  0  0  0
  -18.6689  -18.9763   22.4561 C   0  0  0  0  0  0  0  0  0  0  0  0
  -19.8279  -18.3671   23.2333 C   0  0  0  0  0  0  0  0  0  1  0  0
  -23.8627  -11.2057   20.0012 C   0  0  1  0  0  0  0  0  0  0  0  0
  -22.3833   -8.4107   22.0914 C   0  0  2  0  0  0  0  0  0  0  0  0
  -17.6303  -26.0997   22.2456 C   0  0  1  0  0  0  0  0  0  0  0  0
  -18.5745  -28.2866   23.3074 C   0  0  0  0  0  0  0  0  0  0  0  0
  -24.2449  -10.9685   18.5129 C   0  0  0  0  0  0  0  0  0  0  0  0
  -18.1314  -26.8138   23.5693 C   0  0  0  0  0  0  0  0  0  0  0  0
  -25.2000  -28.5922   21.5315 N   0  0  0  0  0  0  0  0  0  0  0  0
  -16.1686  -23.0354   23.1734 N   0  0  0  0  0  0  0  0  0  0  0  0
  -16.2654  -24.3598   23.2145 N   0  0  0  0  0  0  0  0  0  0  0  0
  -17.2800  -24.7106   22.4079 N   0  0  0  0  0  0  0  0  0  0  0  0
  -24.3576  -29.6392   21.5494 N   0  0  0  0  0  0  0  0  0  0  0  0
  -24.5589  -13.1821   21.3176 N   0  0  0  0  0  0  0  0  0  0  0  0
  -21.0089  -28.3762   22.8925 N   0  0  0  0  0  0  0  0  0  0  0  0
  -24.0052  -31.7958   20.6353 N   0  0  0  0  0  0  0  0  0  0  0  0
  -27.8620  -30.4618   18.7010 N   0  0  0  0  0  0  0  0  0  0  0  0
  -27.3271  -15.3853   20.8562 N   0  0  0  0  0  0  0  0  0  0  0  0
  -23.6071   -9.9828   20.7547 N   0  0  0  0  0  0  0  0  0  0  0  0
  -21.5512   -8.4886   23.3254 N   0  3  0  0  0  0  0  0  0  0  0  0
  -26.3471  -32.1774   18.8446 O   0  0  0  0  0  0  0  0  0  0  0  0
  -25.1591  -15.4032   20.0068 O   0  0  0  0  0  0  0  0  0  0  0  0
  -26.0605  -11.4590   20.8567 O   0  0  0  0  0  0  0  0  0  0  0  0
  -19.4936  -28.5124   21.1358 O   0  0  0  0  0  0  0  0  0  0  0  0
  -21.4387  -10.5172   21.3789 O   0  0  0  0  0  0  0  0  0  0  0  0
  -30.4499  -25.5979   19.5260 O   0  0  0  0  0  0  0  0  0  0  0  0
  -19.9628  -16.9961   22.8610 O   0  0  0  0  0  0  0  0  0  1  0  0
  -29.3448  -20.2830   18.5592 F   0  0  0  0  0  0  0  0  0  0  0  0
  -31.1088  -24.4292   17.1089 F   0  0  0  0  0  0  0  0  0  0  0  0
  -17.5166  -29.0125   22.8532 F   0  0  0  0  0  0  0  0  0  0  0  0
  -18.9216  -28.8652   24.4929 F   0  0  0  0  0  0  0  0  0  0  0  0
  1  2  1  0  0  0  0
  1  5  2  0  0  0  0
  2  6  2  0  0  0  0
  3  8  2  0  0  0  0
  3 15  1  0  0  0  0
  4  9  1  0  0  0  0
  4 15  2  0  0  0  0
  5 17  1  0  0  0  0
  6 19  1  0  0  0  0
  7 10  2  0  0  0  0
  7 18  1  0  0  0  0
  8 21  1  0  0  0  0
  9 21  2  0  0  0  0
 10 22  1  0  0  0  0
 11 12  2  0  0  0  0
 11 23  1  0  0  0  0
 12 24  1  0  0  0  0
 13 20  1  0  0  0  0
 13 22  2  0  0  0  0
 14 24  2  0  0  0  0
 14 25  1  0  0  0  0
 15 26  1  0  0  0  0
 16 26  1  0  0  0  0
 16 29  2  0  0  0  0
 16 30  1  0  0  0  0
 17 19  2  0  0  0  0
 17 35  1  0  0  0  0
 18 20  2  0  0  0  0
 18 36  1  0  0  0  0
 19 44  1  0  0  0  0
 20 37  1  0  0  0  0
 21 83  1  0  0  0  0
 22 84  1  0  0  0  0
 23 25  2  0  0  0  0
 23 83  1  0  0  0  0
 24 85  1  0  0  0  0
 25 86  1  0  0  0  0
 26 66  2  0  0  0  0
 27 28  2  0  0  0  0
 27 56  1  0  0  0  0
 27 67  1  0  0  0  0
 28 47  1  0  0  0  0
 28 69  1  0  0  0  0
 29 70  1  0  0  0  0
 29 73  1  0  0  0  0
 30 74  1  0  0  0  0
 30 78  2  0  0  0  0
 31 45  1  0  0  0  0
 31 75  1  0  0  0  0
 31 79  2  0  0  0  0
 32 60  1  0  0  0  0
 32 71  1  0  0  0  0
 32 80  2  0  0  0  0
 33 63  1  0  0  0  0
 33 72  1  0  0  0  0
 33 81  2  0  0  0  0
 34 61  1  0  0  0  0
 34 76  1  0  0  0  0
 34 82  2  0  0  0  0
 35 38  1  0  0  0  0
 36 45  1  0  0  0  0
 37 71  1  0  0  0  0
 38 40  1  0  0  0  0
 39 41  1  0  0  0  0
 39 42  1  0  0  0  0
 40 44  1  0  0  0  0
 41 46  1  0  0  0  0
 42 72  1  0  0  0  0
 43 46  1  0  0  0  0
 43 72  1  0  0  0  0
 44 75  1  0  0  0  0
 45 71  1  0  0  0  0
 46 70  1  0  0  0  0
 48 61  1  0  0  0  0
 49 62  1  0  0  0  0
 50 64  1  0  0  0  0
 51 64  1  0  0  0  0
 52 64  1  0  0  0  0
 53 65  1  0  0  0  0
 54 65  1  0  0  0  0
 55 77  1  0  0  0  0
 56 57  1  0  0  0  0
 57 58  1  0  0  0  0
 58 59  1  0  0  0  0
 59 84  1  0  0  0  0
 60 64  1  0  0  0  0
 60 76  1  0  0  0  0
 61 77  1  0  0  0  0
 62 65  1  0  0  0  0
 62 69  1  0  0  0  0
 63 65  1  0  0  0  0
 63 87  1  0  0  0  0
 63 88  1  0  0  0  0
 66 70  1  0  0  0  0
 67 68  2  0  0  0  0
 68 69  1  0  0  0  0
M  CHG  1  77   1
M  ISO  4  33 100  59 101  63 100  84 101
M  END
> <Batch ID>
0074

> <Smiles>
CNC(C)C(=O)NC(C(=O)N1Cc2cc([101O:1][101CH2:1]CCCc3nnn(C(C)C(C)(C)[100C:0](F)(F)[100C:0](=O)N4CCCC(n5nc(-c6ccc(Oc7ccc(F)cc7F)cc6)c(C(N)=O)c5N)C4)c3C)ccc2CC1C(=O)NC1CCCc2ccccc21)C(C)(C)C

> <Shape>
0.293

> <Color>
0.058

> <Negative vol penalty>
0.000

$$$$

  -OEChem-04052318293D

 87 95  0     1  0  0  0  0  0999 V2000
  -29.1348  -29.7404   19.9813 C   0  0  0  0  0  0  0  0  0  0  0  0
  -28.0463  -28.8822   20.1005 C   0  0  0  0  0  0  0  0  0  0  0  0
  -22.7015  -17.0263   19.0825 C   0  0  0  0  0  0  0  0  0  0  0  0
  -23.6766  -18.4607   20.7644 C   0  0  0  0  0  0  0  0  0  0  0  0
  -30.3332  -29.2737   19.4430 C   0  0  0  0  0  0  0  0  0  0  0  0
  -28.1554  -27.5571   19.6804 C   0  0  0  0  0  0  0  0  0  0  0  0
  -26.1714  -24.2948   23.0070 C   0  0  0  0  0  0  0  0  0  0  0  0
  -23.7194  -16.0947   19.2869 C   0  0  0  0  0  0  0  0  0  0  0  0
  -24.6945  -17.5291   20.9688 C   0  0  0  0  0  0  0  0  0  0  0  0
  -24.7831  -24.1677   23.0236 C   0  0  0  0  0  0  0  0  0  0  0  0
  -25.8597  -13.1755   19.6218 C   0  0  0  0  0  0  0  0  0  0  0  0
  -25.4987  -11.8318   19.7211 C   0  0  0  0  0  0  0  0  0  0  0  0
  -24.9580  -22.1512   21.7113 C   0  0  0  0  0  0  0  0  0  0  0  0
  -19.7975  -28.4501   21.7900 C   0  0  0  0  0  0  0  0  0  0  0  0
  -20.0220  -27.1314   23.7887 C   0  0  0  0  0  0  0  0  0  0  0  0
  -24.1190  -12.3440   21.6371 C   0  0  0  0  0  0  0  0  0  0  0  0
  -22.6802  -18.2093   19.8212 C   0  0  0  0  0  0  0  0  0  0  0  0
  -20.3896  -19.2369   20.2741 C   0  0  0  0  0  0  0  0  0  0  0  0
  -30.4601  -27.9397   19.0250 C   0  0  0  0  0  0  0  0  0  0  0  0
  -26.9641  -23.3555   22.3320 C   0  0  0  0  0  0  0  0  0  0  0  0
  -29.3562  -27.0725   19.1347 C   0  0  0  0  0  0  0  0  0  0  0  0
  -26.3563  -22.2672   21.6898 C   0  0  0  0  0  0  0  0  0  0  0  0
  -20.0694  -28.3660   23.1509 C   0  0  0  0  0  0  0  0  0  0  0  0
  -24.7158  -16.3461   20.2300 C   0  0  0  0  0  0  0  0  0  0  0  0
  -24.1760  -23.0974   22.3733 C   0  0  0  0  0  0  0  0  0  0  0  0
  -25.3504  -14.1034   20.5302 C   0  0  0  0  0  0  0  0  0  0  0  0
  -24.6284  -11.4161   20.7287 C   0  0  0  0  0  0  0  0  0  0  0  0
  -24.4800  -13.6877   21.5378 C   0  0  0  0  0  0  0  0  0  0  0  0
  -21.6293  -19.1722   19.6102 C   0  0  0  0  0  0  0  0  0  0  0  0
  -19.4858  -27.2796   21.1173 C   0  0  0  0  0  0  0  0  0  0  0  0
  -19.7001  -26.0199   23.0266 C   0  0  0  0  0  0  0  0  0  0  0  0
  -19.7577  -20.3215   19.7166 C   0  0  0  0  0  0  0  0  0  0  0  0
  -19.8569  -18.3921   21.3028 C   0  0  0  0  0  0  0  0  0  0  0  0
  -28.9826  -23.4727   19.8794 C   0  0  0  0  0  0  0  0  0  0  0  0
  -29.5236  -20.3761   20.6798 C   0  0  0  0  0  0  0  0  0  0  0  0
  -28.6070  -17.9854   22.5114 C   0  0  0  0  0  0  0  0  0  0  0  0
  -22.2527  -25.0991   16.8032 C   0  0  0  0  0  0  0  0  0  0  0  0
  -31.7608  -27.4935   18.4056 C   0  0  0  0  0  0  0  0  0  0  0  0
  -28.4619  -23.4921   22.3460 C   0  0  0  0  0  0  0  0  0  0  0  0
  -27.1637  -21.2205   20.9681 C   0  0  0  0  0  0  0  0  0  0  0  0
  -31.9109  -25.9762   18.3304 C   0  0  0  0  0  0  0  0  0  0  0  0
  -19.5231  -22.8661   15.6787 C   0  0  0  0  0  0  0  0  0  0  0  0
  -30.6345  -25.3398   17.7895 C   0  0  0  0  0  0  0  0  0  0  0  0
  -19.7029  -21.6424   16.5756 C   0  0  0  0  0  0  0  0  0  0  0  0
  -20.8419  -23.5968   15.4451 C   0  0  0  0  0  0  0  0  0  0  0  0
  -21.7284  -22.7556   17.5947 C   0  0  0  0  0  0  0  0  0  0  0  0
  -29.4432  -25.6217   18.7131 C   0  0  1  0  0  0  0  0  0  0  0  0
  -29.1396  -22.7592   21.1924 C   0  0  1  0  0  0  0  0  0  0  0  0
  -20.4104  -22.0233   17.8877 C   0  0  2  0  0  0  0  0  0  0  0  0
  -20.4115  -29.5949   23.9232 C   0  0  0  0  0  0  0  0  0  0  0  0
  -28.5469  -15.5769   23.2135 C   0  0  0  0  0  0  0  0  0  0  0  0
  -19.9547  -24.6627   25.2137 C   0  0  0  0  0  0  0  0  0  0  0  0
  -18.1906  -24.0960   23.5670 C   0  0  0  0  0  0  0  0  0  0  0  0
  -28.9086  -19.6499   17.7808 C   0  0  0  0  0  0  0  0  0  0  0  0
  -28.6382  -17.2693   18.5075 C   0  0  0  0  0  0  0  0  0  0  0  0
  -30.8388  -18.4122   18.7793 C   0  0  0  0  0  0  0  0  0  0  0  0
  -23.5003  -26.4934   18.4091 C   0  0  0  0  0  0  0  0  0  0  0  0
  -29.6687  -18.6221   25.1995 C   0  0  0  0  0  0  0  0  0  0  0  0
  -19.1898  -27.3315   19.6557 C   0  0  0  0  0  0  0  0  0  0  0  0
  -20.4236  -27.1554   18.7490 C   0  0  0  0  0  0  0  0  0  0  0  0
  -20.5970  -23.6260   23.0037 C   0  0  0  0  0  0  0  0  0  0  0  0
  -21.1858  -25.8508   18.9710 C   0  0  0  0  0  0  0  0  0  0  0  0
  -22.0830  -23.9719   23.0877 C   0  0  0  0  0  0  0  0  0  1  0  0
  -28.9159  -19.0497   20.2919 C   0  0  1  0  0  0  0  0  0  0  0  0
  -29.2098  -16.9298   23.4207 C   0  0  2  0  0  0  0  0  0  0  0  0
  -19.6363  -24.6367   23.6995 C   0  0  0  0  0  0  0  0  0  0  0  0
  -29.3098  -18.6159   18.8517 C   0  0  0  0  0  0  0  0  0  0  0  0
  -21.7780  -20.1387   18.7004 N   0  0  0  0  0  0  0  0  0  0  0  0
  -19.4299  -26.0623   21.7027 N   0  0  0  0  0  0  0  0  0  0  0  0
  -20.6234  -20.8209   18.7886 N   0  0  0  0  0  0  0  0  0  0  0  0
  -28.6243  -21.4014   21.0048 N   0  0  0  0  0  0  0  0  0  0  0  0
  -21.5139  -23.9084   16.7071 N   0  0  0  0  0  0  0  0  0  0  0  0
  -18.5515  -20.8871   19.9345 N   0  0  0  0  0  0  0  0  0  0  0  0
  -20.6386  -17.3226   21.7606 N   0  0  0  0  0  0  0  0  0  0  0  0
  -29.4883  -24.7586   19.8739 N   0  0  0  0  0  0  0  0  0  0  0  0
  -29.3077  -18.1021   21.3296 N   0  0  0  0  0  0  0  0  0  0  0  0
  -22.3238  -25.7075   18.0656 N   0  0  0  0  0  0  0  0  0  0  0  0
  -29.0438  -17.3207   24.8492 N   0  3  0  0  0  0  0  0  0  0  0  0
  -18.7146  -18.5701   21.7897 O   0  0  0  0  0  0  0  0  0  0  0  0
  -28.4440  -22.8984   18.9403 O   0  0  0  0  0  0  0  0  0  0  0  0
  -30.7511  -20.4958   20.7008 O   0  0  0  0  0  0  0  0  0  0  0  0
  -27.6116  -18.6383   22.8172 O   0  0  0  0  0  0  0  0  0  0  0  0
  -22.8086  -25.5954   15.8150 O   0  0  0  0  0  0  0  0  0  0  0  0
  -25.7091  -15.4372   20.4299 O   0  0  0  0  0  0  0  0  0  0  0  0
  -22.8211  -22.9713   22.3874 O   0  0  0  0  0  0  0  0  0  1  0  0
  -24.2806  -10.1260   20.8229 F   0  0  0  0  0  0  0  0  0  0  0  0
  -23.9865  -14.5748   22.4127 F   0  0  0  0  0  0  0  0  0  0  0  0
  1  2  1  0  0  0  0
  1  5  2  0  0  0  0
  2  6  2  0  0  0  0
  3  8  2  0  0  0  0
  3 17  1  0  0  0  0
  4  9  1  0  0  0  0
  4 17  2  0  0  0  0
  5 19  1  0  0  0  0
  6 21  1  0  0  0  0
  7 10  2  0  0  0  0
  7 20  1  0  0  0  0
  8 24  1  0  0  0  0
  9 24  2  0  0  0  0
 10 25  1  0  0  0  0
 11 12  2  0  0  0  0
 11 26  1  0  0  0  0
 12 27  1  0  0  0  0
 13 22  1  0  0  0  0
 13 25  2  0  0  0  0
 14 23  1  0  0  0  0
 14 30  2  0  0  0  0
 15 23  2  0  0  0  0
 15 31  1  0  0  0  0
 16 27  2  0  0  0  0
 16 28  1  0  0  0  0
 17 29  1  0  0  0  0
 18 29  1  0  0  0  0
 18 32  2  0  0  0  0
 18 33  1  0  0  0  0
 19 21  2  0  0  0  0
 19 38  1  0  0  0  0
 20 22  2  0  0  0  0
 20 39  1  0  0  0  0
 21 47  1  0  0  0  0
 22 40  1  0  0  0  0
 23 50  1  0  0  0  0
 24 84  1  0  0  0  0
 25 85  1  0  0  0  0
 26 28  2  0  0  0  0
 26 84  1  0  0  0  0
 27 86  1  0  0  0  0
 28 87  1  0  0  0  0
 29 68  2  0  0  0  0
 30 59  1  0  0  0  0
 30 69  1  0  0  0  0
 31 66  1  0  0  0  0
 31 69  2  0  0  0  0
 32 70  1  0  0  0  0
 32 73  1  0  0  0  0
 33 74  1  0  0  0  0
 33 79  2  0  0  0  0
 34 48  1  0  0  0  0
 34 75  1  0  0  0  0
 34 80  2  0  0  0  0
 35 64  1  0  0  0  0
 35 71  1  0  0  0  0
 35 81  2  0  0  0  0
 36 65  1  0  0  0  0
 36 76  1  0  0  0  0
 36 82  2  0  0  0  0
 37 72  1  0  0  0  0
 37 77  1  0  0  0  0
 37 83  2  0  0  0  0
 38 41  1  0  0  0  0
 39 48  1  0  0  0  0
 40 71  1  0  0  0  0
 41 43  1  0  0  0  0
 42 44  1  0  0  0  0
 42 45  1  0  0  0  0
 43 47  1  0  0  0  0
 44 49  1  0  0  0  0
 45 72  1  0  0  0  0
 46 49  1  0  0  0  0
 46 72  1  0  0  0  0
 47 75  1  0  0  0  0
 48 71  1  0  0  0  0
 49 70  1  0  0  0  0
 51 65  1  0  0  0  0
 52 66  1  0  0  0  0
 53 66  1  0  0  0  0
 54 67  1  0  0  0  0
 55 67  1  0  0  0  0
 56 67  1  0  0  0  0
 57 77  1  0  0  0  0
 58 78  1  0  0  0  0
 59 60  1  0  0  0  0
 60 62  1  0  0  0  0
 61 63  1  0  0  0  0
 61 66  1  0  0  0  0
 62 77  1  0  0  0  0
 63 85  1  0  0  0  0
 64 67  1  0  0  0  0
 64 76  1  0  0  0  0
 65 78  1  0  0  0  0
 68 70  1  0  0  0  0
M  CHG  1  78   1
M  ISO  4  37 100  63 101  77 100  85 101
M  END
> <Batch ID>
0074

> <Smiles>
CNC(C)C(=O)NC(C(=O)N1Cc2cc([101O:1][101CH2:1]CC(C)(C)c3cc(C)cc(CCC[100N:0](C)[100C:0](=O)N4CCCC(n5nc(-c6ccc(Oc7ccc(F)cc7F)cc6)c(C(N)=O)c5N)C4)n3)ccc2CC1C(=O)NC1CCCc2ccccc21)C(C)(C)C

> <Shape>
0.194

> <Color>
0.064

> <Negative vol penalty>
0.000

$$$$

  -OEChem-04052318293D

 88 96  0     1  0  0  0  0  0999 V2000
  -30.3166  -12.8985   19.6480 C   0  0  0  0  0  0  0  0  0  0  0  0
  -29.8200  -14.1553   19.9783 C   0  0  0  0  0  0  0  0  0  0  0  0
  -29.1074  -21.4765   22.1860 C   0  0  0  0  0  0  0  0  0  0  0  0
  -27.8402  -21.1605   20.1533 C   0  0  0  0  0  0  0  0  0  0  0  0
  -29.4414  -11.8830   19.2650 C   0  0  0  0  0  0  0  0  0  0  0  0
  -28.4478  -14.3977   19.9248 C   0  0  0  0  0  0  0  0  0  0  0  0
  -25.2069  -18.0474   23.6236 C   0  0  0  0  0  0  0  0  0  0  0  0
  -18.2319  -23.8758   21.7322 C   0  0  0  0  0  0  0  0  0  0  0  0
  -29.3671  -20.1070   22.2370 C   0  0  0  0  0  0  0  0  0  0  0  0
  -28.1000  -19.7910   20.2043 C   0  0  0  0  0  0  0  0  0  0  0  0
  -24.7453  -19.3553   23.4817 C   0  0  0  0  0  0  0  0  0  0  0  0
  -30.6665  -16.7445   22.7058 C   0  0  0  0  0  0  0  0  0  0  0  0
  -31.9704  -16.3420   22.9948 C   0  0  0  0  0  0  0  0  0  0  0  0
  -18.6439  -25.1642   21.4105 C   0  0  0  0  0  0  0  0  0  0  0  0
  -22.6094  -18.5146   22.7397 C   0  0  0  0  0  0  0  0  0  0  0  0
  -32.7649  -17.5076   21.0334 C   0  0  0  0  0  0  0  0  0  0  0  0
  -28.3439  -22.0033   21.1442 C   0  0  0  0  0  0  0  0  0  0  0  0
  -28.8483  -24.4071   20.4550 C   0  0  0  0  0  0  0  0  0  0  0  0
  -28.0570  -12.1103   19.2160 C   0  0  0  0  0  0  0  0  0  0  0  0
  -24.3754  -16.9616   23.3137 C   0  0  0  0  0  0  0  0  0  0  0  0
  -27.5534  -13.3847   19.5394 C   0  0  0  0  0  0  0  0  0  0  0  0
  -23.0620  -17.1939   22.8810 C   0  0  0  0  0  0  0  0  0  0  0  0
  -18.7128  -23.2656   22.8853 C   0  0  0  0  0  0  0  0  0  0  0  0
  -28.8634  -19.2642   21.2462 C   0  0  0  0  0  0  0  0  0  0  0  0
  -23.4474  -19.5891   23.0369 C   0  0  0  0  0  0  0  0  0  0  0  0
  -30.4118  -17.5285   21.5806 C   0  0  0  0  0  0  0  0  0  0  0  0
  -33.0196  -16.7236   22.1586 C   0  0  0  0  0  0  0  0  0  0  0  0
  -31.4610  -17.9100   20.7444 C   0  0  0  0  0  0  0  0  0  0  0  0
  -28.0748  -23.4178   21.0912 C   0  0  0  0  0  0  0  0  0  0  0  0
  -19.5311  -25.7945   22.2680 C   0  0  0  0  0  0  0  0  0  0  0  0
  -19.5971  -23.9809   23.6767 C   0  0  0  0  0  0  0  0  0  0  0  0
  -28.1717  -25.5783   20.6938 C   0  0  0  0  0  0  0  0  0  0  0  0
  -30.0692  -24.2788   19.7144 C   0  0  0  0  0  0  0  0  0  0  0  0
  -24.4816  -14.5851   21.2055 C   0  0  0  0  0  0  0  0  0  0  0  0
  -21.8501  -13.5670   22.8059 C   0  0  0  0  0  0  0  0  0  0  0  0
  -22.4308  -26.5962   21.8258 C   0  0  0  0  0  0  0  0  0  0  0  0
  -19.1827  -14.3453   24.7873 C   0  0  0  0  0  0  0  0  0  0  0  0
  -27.1543  -10.9953   18.7504 C   0  0  0  0  0  0  0  0  0  0  0  0
  -24.8795  -15.5565   23.4977 C   0  0  0  0  0  0  0  0  0  0  0  0
  -22.1228  -16.0626   22.5545 C   0  0  0  0  0  0  0  0  0  0  0  0
  -25.6819  -11.2256   19.0807 C   0  0  0  0  0  0  0  0  0  0  0  0
  -25.2552  -27.6482   23.8613 C   0  0  0  0  0  0  0  0  0  0  0  0
  -25.2685  -12.6474   18.7139 C   0  0  0  0  0  0  0  0  0  0  0  0
  -26.3666  -26.7420   23.3335 C   0  0  0  0  0  0  0  0  0  0  0  0
  -23.9055  -26.9351   23.8684 C   0  0  0  0  0  0  0  0  0  0  0  0
  -24.6242  -25.4665   22.0107 C   0  0  0  0  0  0  0  0  0  0  0  0
  -26.0692  -13.6793   19.5173 C   0  0  1  0  0  0  0  0  0  0  0  0
  -24.1161  -14.5336   22.6620 C   0  0  1  0  0  0  0  0  0  0  0  0
  -25.9966  -26.1583   21.9587 C   0  0  2  0  0  0  0  0  0  0  0  0
  -18.2761  -21.8851   23.2345 C   0  0  0  0  0  0  0  0  0  0  0  0
  -22.2486  -30.5891   20.4099 C   0  0  0  0  0  0  0  0  0  0  0  0
  -20.8621  -29.6826   24.3037 C   0  0  0  0  0  0  0  0  0  0  0  0
  -17.1869  -13.3086   25.9005 C   0  0  0  0  0  0  0  0  0  0  0  0
  -20.4121  -13.4542   20.1172 C   0  0  0  0  0  0  0  0  0  0  0  0
  -18.2418  -13.3509   21.3610 C   0  0  0  0  0  0  0  0  0  0  0  0
  -19.9260  -11.5323   21.6417 C   0  0  0  0  0  0  0  0  0  0  0  0
  -20.1487  -15.0986   27.4815 C   0  0  0  0  0  0  0  0  0  0  0  0
  -19.9929  -27.1785   21.9543 C   0  0  0  0  0  0  0  0  0  0  0  0
  -20.1491  -23.3713   24.9407 C   0  0  0  0  0  0  0  0  0  0  0  0
  -21.2476  -22.3304   24.6977 C   0  0  0  0  0  0  0  0  0  0  0  0
  -22.4930  -22.9185   24.0327 C   0  0  0  0  0  0  0  0  0  0  0  0
  -21.8362  -29.1541   20.6555 C   0  0  0  0  0  0  0  0  0  0  0  0
  -20.8231  -29.8956   22.8062 C   0  0  0  0  0  0  0  0  0  0  0  0
  -23.5449  -21.8490   23.7714 C   0  0  0  0  0  0  0  0  0  1  0  0
  -20.3639  -13.7974   22.6757 C   0  0  1  0  0  0  0  0  0  0  0  0
  -21.4060  -27.4988   22.4654 C   0  0  2  0  0  0  0  0  0  0  0  0
  -18.6476  -13.7026   26.0543 C   0  0  2  0  0  0  0  0  0  0  0  0
  -19.7540  -13.0553   21.4531 C   0  0  0  0  0  0  0  0  0  0  0  0
  -26.9898  -23.9170   21.6894 N   0  0  0  0  0  0  0  0  0  0  0  0
  -20.0201  -25.2340   23.3969 N   0  0  0  0  0  0  0  0  0  0  0  0
  -27.0768  -25.2328   21.4301 N   0  0  0  0  0  0  0  0  0  0  0  0
  -22.6644  -14.7068   22.7443 N   0  0  0  0  0  0  0  0  0  0  0  0
  -23.6026  -26.3697   22.5482 N   0  0  0  0  0  0  0  0  0  0  0  0
  -28.4124  -26.8596   20.3437 N   0  0  0  0  0  0  0  0  0  0  0  0
  -30.6290  -23.0026   19.5647 N   0  0  0  0  0  0  0  0  0  0  0  0
  -25.5529  -13.7813   20.8655 N   0  0  0  0  0  0  0  0  0  0  0  0
  -19.7783  -13.4193   23.9573 N   0  0  0  0  0  0  0  0  0  0  0  0
  -18.7614  -14.6467   27.2018 N   0  3  0  0  0  0  0  0  0  0  0  0
  -21.7490  -28.9099   22.1403 N   0  3  0  0  0  0  0  0  0  0  0  0
  -30.6554  -25.2688   19.2145 O   0  0  0  0  0  0  0  0  0  0  0  0
  -23.8382  -15.3000   20.4460 O   0  0  0  0  0  0  0  0  0  0  0  0
  -22.2726  -12.4189   22.9639 O   0  0  0  0  0  0  0  0  0  0  0  0
  -22.1963  -26.1104   20.7163 O   0  0  0  0  0  0  0  0  0  0  0  0
  -19.0791  -15.5478   24.5554 O   0  0  0  0  0  0  0  0  0  0  0  0
  -29.1169  -17.9279   21.2955 O   0  0  0  0  0  0  0  0  0  0  0  0
  -22.9945  -20.8648   22.8969 O   0  0  0  0  0  0  0  0  0  1  0  0
  -34.2719  -16.3383   22.4371 F   0  0  0  0  0  0  0  0  0  0  0  0
  -31.2226  -18.6642   19.6626 F   0  0  0  0  0  0  0  0  0  0  0  0
  1  2  1  0  0  0  0
  1  5  2  0  0  0  0
  2  6  2  0  0  0  0
  3  9  2  0  0  0  0
  3 17  1  0  0  0  0
  4 10  1  0  0  0  0
  4 17  2  0  0  0  0
  5 19  1  0  0  0  0
  6 21  1  0  0  0  0
  7 11  2  0  0  0  0
  7 20  1  0  0  0  0
  8 14  2  0  0  0  0
  8 23  1  0  0  0  0
  9 24  1  0  0  0  0
 10 24  2  0  0  0  0
 11 25  1  0  0  0  0
 12 13  2  0  0  0  0
 12 26  1  0  0  0  0
 13 27  1  0  0  0  0
 14 30  1  0  0  0  0
 15 22  1  0  0  0  0
 15 25  2  0  0  0  0
 16 27  2  0  0  0  0
 16 28  1  0  0  0  0
 17 29  1  0  0  0  0
 18 29  1  0  0  0  0
 18 32  2  0  0  0  0
 18 33  1  0  0  0  0
 19 21  2  0  0  0  0
 19 38  1  0  0  0  0
 20 22  2  0  0  0  0
 20 39  1  0  0  0  0
 21 47  1  0  0  0  0
 22 40  1  0  0  0  0
 23 31  2  0  0  0  0
 23 50  1  0  0  0  0
 24 85  1  0  0  0  0
 25 86  1  0  0  0  0
 26 28  2  0  0  0  0
 26 85  1  0  0  0  0
 27 87  1  0  0  0  0
 28 88  1  0  0  0  0
 29 69  2  0  0  0  0
 30 58  1  0  0  0  0
 30 70  2  0  0  0  0
 31 59  1  0  0  0  0
 31 70  1  0  0  0  0
 32 71  1  0  0  0  0
 32 74  1  0  0  0  0
 33 75  1  0  0  0  0
 33 80  2  0  0  0  0
 34 48  1  0  0  0  0
 34 76  1  0  0  0  0
 34 81  2  0  0  0  0
 35 65  1  0  0  0  0
 35 72  1  0  0  0  0
 35 82  2  0  0  0  0
 36 66  1  0  0  0  0
 36 73  1  0  0  0  0
 36 83  2  0  0  0  0
 37 67  1  0  0  0  0
 37 77  1  0  0  0  0
 37 84  2  0  0  0  0
 38 41  1  0  0  0  0
 39 48  1  0  0  0  0
 40 72  1  0  0  0  0
 41 43  1  0  0  0  0
 42 44  1  0  0  0  0
 42 45  1  0  0  0  0
 43 47  1  0  0  0  0
 44 49  1  0  0  0  0
 45 73  1  0  0  0  0
 46 49  1  0  0  0  0
 46 73  1  0  0  0  0
 47 76  1  0  0  0  0
 48 72  1  0  0  0  0
 49 71  1  0  0  0  0
 51 62  1  0  0  0  0
 52 63  1  0  0  0  0
 53 67  1  0  0  0  0
 54 68  1  0  0  0  0
 55 68  1  0  0  0  0
 56 68  1  0  0  0  0
 57 78  1  0  0  0  0
 58 66  1  0  0  0  0
 59 60  1  0  0  0  0
 60 61  1  0  0  0  0
 61 64  1  0  0  0  0
 62 79  1  0  0  0  0
 63 79  1  0  0  0  0
 64 86  1  0  0  0  0
 65 68  1  0  0  0  0
 65 77  1  0  0  0  0
 66 79  1  0  0  0  0
 67 78  1  0  0  0  0
 69 71  1  0  0  0  0
M  CHG  2  78   1  79   1
M  ISO  4  36 100  64 101  66 100  86 101
M  END
> <Batch ID>
0074

> <Smiles>
CCN(CC)[100CH:0](Cc1ccc(C)c(CCC[101CH2:1][101O:1]c2ccc3c(c2)CN(C(=O)C(NC(=O)C(C)NC)C(C)(C)C)C(C(=O)NC2CCCc4ccccc42)C3)n1)[100C:0](=O)N1CCCC(n2nc(-c3ccc(Oc4ccc(F)cc4F)cc3)c(C(N)=O)c2N)C1

> <Shape>
0.213

> <Color>
0.070

> <Negative vol penalty>
0.000

$$$$

  -OEChem-04052318293D

 85 93  0     1  0  0  0  0  0999 V2000
  -30.1279  -12.3547   20.4075 C   0  0  0  0  0  0  0  0  0  0  0  0
  -29.8265  -13.6597   20.7839 C   0  0  0  0  0  0  0  0  0  0  0  0
  -29.0468  -22.2001   19.9152 C   0  0  0  0  0  0  0  0  0  0  0  0
  -26.7979  -21.5047   19.3713 C   0  0  0  0  0  0  0  0  0  0  0  0
  -29.3288  -11.6979   19.4727 C   0  0  0  0  0  0  0  0  0  0  0  0
  -28.7264  -14.3090   20.2248 C   0  0  0  0  0  0  0  0  0  0  0  0
  -23.6764  -19.1281   21.8340 C   0  0  0  0  0  0  0  0  0  0  0  0
  -29.2858  -20.9616   20.5106 C   0  0  0  0  0  0  0  0  0  0  0  0
  -27.0369  -20.2661   19.9667 C   0  0  0  0  0  0  0  0  0  0  0  0
  -23.1280  -20.3156   21.3514 C   0  0  0  0  0  0  0  0  0  0  0  0
  -28.5734  -19.4259   23.4361 C   0  0  0  0  0  0  0  0  0  0  0  0
  -29.2147  -19.4161   24.6747 C   0  0  0  0  0  0  0  0  0  0  0  0
  -21.7725  -19.0544   19.8052 C   0  0  0  0  0  0  0  0  0  0  0  0
  -31.0119  -18.1038   23.7339 C   0  0  0  0  0  0  0  0  0  0  0  0
  -19.7155  -25.6511   21.1601 C   0  0  0  0  0  0  0  0  0  0  0  0
  -27.8028  -22.4717   19.3455 C   0  0  0  0  0  0  0  0  0  0  0  0
  -27.7712  -24.1038   17.3852 C   0  0  0  0  0  0  0  0  0  0  0  0
  -28.2127  -12.3360   18.9091 C   0  0  0  0  0  0  0  0  0  0  0  0
  -23.2842  -17.8933   21.2973 C   0  0  0  0  0  0  0  0  0  0  0  0
  -27.9124  -13.6605   19.2805 C   0  0  0  0  0  0  0  0  0  0  0  0
  -22.3155  -17.8524   20.2844 C   0  0  0  0  0  0  0  0  0  0  0  0
  -28.2809  -19.9946   20.5363 C   0  0  0  0  0  0  0  0  0  0  0  0
  -22.1781  -20.2791   20.3349 C   0  0  0  0  0  0  0  0  0  0  0  0
  -29.1513  -18.7745   22.3463 C   0  0  0  0  0  0  0  0  0  0  0  0
  -30.4339  -18.7551   24.8237 C   0  0  0  0  0  0  0  0  0  0  0  0
  -30.3705  -18.1135   22.4952 C   0  0  0  0  0  0  0  0  0  0  0  0
  -27.5551  -23.7511   18.7308 C   0  0  0  0  0  0  0  0  0  0  0  0
  -21.0790  -25.5053   21.1659 C   0  0  0  0  0  0  0  0  0  0  0  0
  -27.3823  -25.4188   17.3082 C   0  0  0  0  0  0  0  0  0  0  0  0
  -21.2834  -27.7290   21.5024 C   0  0  0  0  0  0  0  0  0  0  0  0
  -28.2782  -23.3133   16.3017 C   0  0  0  0  0  0  0  0  0  0  0  0
  -24.7696  -15.5452   19.7534 C   0  0  0  0  0  0  0  0  0  0  0  0
  -21.9038  -14.0566   20.0597 C   0  0  0  0  0  0  0  0  0  0  0  0
  -23.3279  -28.8428   19.4656 C   0  0  0  0  0  0  0  0  0  0  0  0
  -18.5288  -14.3285   20.4861 C   0  0  0  0  0  0  0  0  0  0  0  0
  -27.4062  -11.6020   17.8672 C   0  0  0  0  0  0  0  0  0  0  0  0
  -23.8656  -16.6197   21.8472 C   0  0  0  0  0  0  0  0  0  0  0  0
  -21.8456  -16.5514   19.6885 C   0  0  0  0  0  0  0  0  0  0  0  0
  -26.0398  -12.2288   17.6016 C   0  0  0  0  0  0  0  0  0  0  0  0
  -26.7876  -29.0832   20.5610 C   0  0  0  0  0  0  0  0  0  0  0  0
  -26.1686  -13.7398   17.4370 C   0  0  0  0  0  0  0  0  0  0  0  0
  -27.3505  -27.7422   20.0919 C   0  0  0  0  0  0  0  0  0  0  0  0
  -25.3372  -28.9537   21.0188 C   0  0  0  0  0  0  0  0  0  0  0  0
  -24.9933  -27.0139   19.5210 C   0  0  0  0  0  0  0  0  0  0  0  0
  -26.7130  -14.3896   18.7149 C   0  0  1  0  0  0  0  0  0  0  0  0
  -23.7713  -15.4501   20.8723 C   0  0  1  0  0  0  0  0  0  0  0  0
  -26.4450  -27.1073   19.0221 C   0  0  2  0  0  0  0  0  0  0  0  0
  -16.4467  -12.9383   20.6590 C   0  0  0  0  0  0  0  0  0  0  0  0
  -22.7095  -22.0775   17.8100 C   0  0  0  0  0  0  0  0  0  0  0  0
  -21.2718  -30.1556   19.6176 C   0  0  0  0  0  0  0  0  0  0  0  0
  -21.9545  -13.6098   17.0418 C   0  0  0  0  0  0  0  0  0  0  0  0
  -19.5051  -13.1022   17.1460 C   0  0  0  0  0  0  0  0  0  0  0  0
  -21.1293  -11.6590   18.3715 C   0  0  0  0  0  0  0  0  0  0  0  0
  -17.9614  -15.3096   23.2201 C   0  0  0  0  0  0  0  0  0  0  0  0
  -21.7051  -24.1473   20.9726 C   0  0  0  0  0  0  0  0  0  0  0  0
  -21.9880  -23.7993   19.5039 C   0  0  0  0  0  0  0  0  0  0  0  0
  -22.1480  -28.9269   21.6948 C   0  0  1  0  0  0  0  0  0  0  0  0
  -20.6424  -13.9854   19.2334 C   0  0  1  0  0  0  0  0  0  0  0  0
  -17.5716  -13.6169   21.4252 C   0  0  2  0  0  0  0  0  0  0  0  0
  -22.5433  -22.3853   19.2927 C   0  0  1  0  0  0  0  0  0  1  0  0
  -22.5067  -29.7023   20.3935 C   0  0  1  0  0  0  0  0  0  0  0  0
  -20.8179  -13.1139   17.9579 C   0  0  0  0  0  0  0  0  0  0  0  0
  -19.1508  -26.8604   21.3291 N   0  0  0  0  0  0  0  0  0  0  0  0
  -27.0669  -24.7606   19.4564 N   0  0  0  0  0  0  0  0  0  0  0  0
  -21.9024  -26.5503   21.3389 N   0  0  0  0  0  0  0  0  0  0  0  0
  -19.9513  -27.9322   21.5054 N   0  0  0  0  0  0  0  0  0  0  0  0
  -26.9731  -25.7606   18.5635 N   0  0  0  0  0  0  0  0  0  0  0  0
  -22.4483  -15.3337   20.2554 N   0  0  0  0  0  0  0  0  0  0  0  0
  -24.5133  -28.3196   19.9827 N   0  0  0  0  0  0  0  0  0  0  0  0
  -27.3539  -26.3045   16.2898 N   0  0  0  0  0  0  0  0  0  0  0  0
  -28.6300  -21.9805   16.5546 N   0  0  0  0  0  0  0  0  0  0  0  0
  -25.6692  -14.4971   19.7115 N   0  0  0  0  0  0  0  0  0  0  0  0
  -19.5908  -13.5232   20.1329 N   0  0  0  0  0  0  0  0  0  0  0  0
  -21.5428  -29.9177   22.6648 N   0  3  0  0  0  0  0  0  0  0  0  0
  -16.9693  -14.5865   22.3834 N   0  3  0  0  0  0  0  0  0  0  0  0
  -28.4305  -23.7801   15.1474 O   0  0  0  0  0  0  0  0  0  0  0  0
  -24.7260  -16.4981   18.9842 O   0  0  0  0  0  0  0  0  0  0  0  0
  -22.3843  -13.0181   20.5206 O   0  0  0  0  0  0  0  0  0  0  0  0
  -22.9275  -28.6458   18.3154 O   0  0  0  0  0  0  0  0  0  0  0  0
  -18.3501  -15.4820   20.1013 O   0  0  0  0  0  0  0  0  0  0  0  0
  -28.5138  -18.7858   21.1170 O   0  0  0  0  0  0  0  0  0  0  0  0
  -21.6417  -21.4368   19.8616 O   0  0  0  0  0  0  0  0  0  1  0  0
  -31.0503  -18.7471   26.0128 F   0  0  0  0  0  0  0  0  0  0  0  0
  -30.9312  -17.4871   21.4517 F   0  0  0  0  0  0  0  0  0  0  0  0
  -23.2171  -30.8180   20.7251 F   0  0  0  0  0  0  0  0  0  0  0  0
  1  2  1  0  0  0  0
  1  5  2  0  0  0  0
  2  6  2  0  0  0  0
  3  8  2  0  0  0  0
  3 16  1  0  0  0  0
  4  9  1  0  0  0  0
  4 16  2  0  0  0  0
  5 18  1  0  0  0  0
  6 20  1  0  0  0  0
  7 10  2  0  0  0  0
  7 19  1  0  0  0  0
  8 22  1  0  0  0  0
  9 22  2  0  0  0  0
 10 23  1  0  0  0  0
 11 12  2  0  0  0  0
 11 24  1  0  0  0  0
 12 25  1  0  0  0  0
 13 21  1  0  0  0  0
 13 23  2  0  0  0  0
 14 25  2  0  0  0  0
 14 26  1  0  0  0  0
 15 28  1  0  0  0  0
 15 63  2  0  0  0  0
 16 27  1  0  0  0  0
 17 27  1  0  0  0  0
 17 29  2  0  0  0  0
 17 31  1  0  0  0  0
 18 20  2  0  0  0  0
 18 36  1  0  0  0  0
 19 21  2  0  0  0  0
 19 37  1  0  0  0  0
 20 45  1  0  0  0  0
 21 38  1  0  0  0  0
 22 81  1  0  0  0  0
 23 82  1  0  0  0  0
 24 26  2  0  0  0  0
 24 81  1  0  0  0  0
 25 83  1  0  0  0  0
 26 84  1  0  0  0  0
 27 64  2  0  0  0  0
 28 55  1  0  0  0  0
 28 65  2  0  0  0  0
 29 67  1  0  0  0  0
 29 70  1  0  0  0  0
 30 57  1  0  0  0  0
 30 65  1  0  0  0  0
 30 66  2  0  0  0  0
 31 71  1  0  0  0  0
 31 76  2  0  0  0  0
 32 46  1  0  0  0  0
 32 72  1  0  0  0  0
 32 77  2  0  0  0  0
 33 58  1  0  0  0  0
 33 68  1  0  0  0  0
 33 78  2  0  0  0  0
 34 61  1  0  0  0  0
 34 69  1  0  0  0  0
 34 79  2  0  0  0  0
 35 59  1  0  0  0  0
 35 73  1  0  0  0  0
 35 80  2  0  0  0  0
 36 39  1  0  0  0  0
 37 46  1  0  0  0  0
 38 68  1  0  0  0  0
 39 41  1  0  0  0  0
 40 42  1  0  0  0  0
 40 43  1  0  0  0  0
 41 45  1  0  0  0  0
 42 47  1  0  0  0  0
 43 69  1  0  0  0  0
 44 47  1  0  0  0  0
 44 69  1  0  0  0  0
 45 72  1  0  0  0  0
 46 68  1  0  0  0  0
 47 67  1  0  0  0  0
 48 59  1  0  0  0  0
 49 60  1  0  0  0  0
 50 61  1  0  0  0  0
 51 62  1  0  0  0  0
 52 62  1  0  0  0  0
 53 62  1  0  0  0  0
 54 75  1  0  0  0  0
 55 56  1  0  0  0  0
 56 60  1  0  0  0  0
 57 61  1  0  0  0  0
 57 74  1  0  0  0  0
 58 62  1  0  0  0  0
 58 73  1  0  0  0  0
 59 75  1  0  0  0  0
 60 82  1  0  0  0  0
 61 85  1  0  0  0  0
 63 66  1  0  0  0  0
 64 67  1  0  0  0  0
M  CHG  2  74   1  75   1
M  ISO  4  34 100  60 101  61 100  82 101
M  END
> <Batch ID>
0074

> <Smiles>
CNC(C)C(=O)NC(C(=O)N1Cc2cc([101O:1][101CH:1](C)CCc3cnnc(C(N)[100C:0](C)(F)[100C:0](=O)N4CCCC(n5nc(-c6ccc(Oc7ccc(F)cc7F)cc6)c(C(N)=O)c5N)C4)n3)ccc2CC1C(=O)NC1CCCc2ccccc21)C(C)(C)C

> <Shape>
0.211

> <Color>
0.054

> <Negative vol penalty>
0.000

$$$$
