
  -OEChem-04052318323D

 83 91  0     1  0  0  0  0  0999 V2000
  -23.3953   -8.1271   21.5804 C   0  0  0  0  0  0  0  0  0  0  0  0
  -23.9929   -9.0449   20.7227 C   0  0  0  0  0  0  0  0  0  0  0  0
  -22.4226  -28.1713   20.7094 C   0  0  0  0  0  0  0  0  0  0  0  0
  -23.3245  -26.4347   22.1263 C   0  0  0  0  0  0  0  0  0  0  0  0
  -22.2687   -8.4931   22.3158 C   0  0  0  0  0  0  0  0  0  0  0  0
  -23.4636  -10.3290   20.5990 C   0  0  0  0  0  0  0  0  0  0  0  0
  -26.5773  -15.5212   19.6757 C   0  0  0  0  0  0  0  0  0  0  0  0
  -21.1428  -27.9026   21.1946 C   0  0  0  0  0  0  0  0  0  0  0  0
  -22.0447  -26.1660   22.6116 C   0  0  0  0  0  0  0  0  0  0  0  0
  -26.8409  -16.2651   18.5264 C   0  0  0  0  0  0  0  0  0  0  0  0
  -19.3318  -28.5984   23.9639 C   0  0  0  0  0  0  0  0  0  0  0  0
  -18.5315  -29.6845   24.3180 C   0  0  0  0  0  0  0  0  0  0  0  0
  -24.9631  -17.6940   19.0279 C   0  0  0  0  0  0  0  0  0  0  0  0
  -16.8871  -29.0058   22.6833 C   0  0  0  0  0  0  0  0  0  0  0  0
  -28.6458  -19.4851   20.1650 C   0  0  0  0  0  0  0  0  0  0  0  0
  -23.5135  -27.4373   21.1752 C   0  0  0  0  0  0  0  0  0  0  0  0
  -25.7699  -28.6271   21.1987 C   0  0  0  0  0  0  0  0  0  0  0  0
  -21.7310   -9.7854   22.2083 C   0  0  0  0  0  0  0  0  0  0  0  0
  -25.4962  -15.8520   20.5053 C   0  0  0  0  0  0  0  0  0  0  0  0
  -22.3280  -10.7122   21.3326 C   0  0  0  0  0  0  0  0  0  0  0  0
  -24.6895  -16.9543   20.1885 C   0  0  0  0  0  0  0  0  0  0  0  0
  -20.9538  -26.9000   22.1457 C   0  0  0  0  0  0  0  0  0  0  0  0
  -26.0320  -17.3500   18.2008 C   0  0  0  0  0  0  0  0  0  0  0  0
  -18.9098  -27.7160   22.9694 C   0  0  0  0  0  0  0  0  0  0  0  0
  -17.3092  -29.8882   23.6777 C   0  0  0  0  0  0  0  0  0  0  0  0
  -17.6875  -27.9196   22.3291 C   0  0  0  0  0  0  0  0  0  0  0  0
  -24.8357  -27.7141   20.6739 C   0  0  0  0  0  0  0  0  0  0  0  0
  -28.7438  -20.4424   21.1349 C   0  0  0  0  0  0  0  0  0  0  0  0
  -26.8603  -28.5167   20.3708 C   0  0  0  0  0  0  0  0  0  0  0  0
  -29.4001  -21.3396   19.2205 C   0  0  0  0  0  0  0  0  0  0  0  0
  -25.6618  -29.4972   22.3331 C   0  0  0  0  0  0  0  0  0  0  0  0
  -22.8380  -14.3707   21.4236 C   0  0  0  0  0  0  0  0  0  0  0  0
  -22.5117  -16.9730   23.3326 C   0  0  0  0  0  0  0  0  0  0  0  0
  -23.2593  -20.2516   23.9141 C   0  0  0  0  0  0  0  0  0  0  0  0
  -28.8756  -24.1148   16.8476 C   0  0  0  0  0  0  0  0  0  0  0  0
  -20.4839  -10.1199   22.9877 C   0  0  0  0  0  0  0  0  0  0  0  0
  -25.2414  -15.0559   21.7557 C   0  0  0  0  0  0  0  0  0  0  0  0
  -23.5289  -17.3631   21.0570 C   0  0  0  0  0  0  0  0  0  0  0  0
  -20.2080  -11.6183   23.0817 C   0  0  0  0  0  0  0  0  0  0  0  0
  -28.0451  -27.4342   15.8635 C   0  0  0  0  0  0  0  0  0  0  0  0
  -20.3655  -12.2769   21.7148 C   0  0  0  0  0  0  0  0  0  0  0  0
  -27.2127  -27.9647   17.0321 C   0  0  0  0  0  0  0  0  0  0  0  0
  -27.7753  -25.9535   15.6048 C   0  0  0  0  0  0  0  0  0  0  0  0
  -27.1029  -25.6104   17.9508 C   0  0  0  0  0  0  0  0  0  0  0  0
  -21.7980  -12.1225   21.1898 C   0  0  1  0  0  0  0  0  0  0  0  0
  -23.8037  -15.1687   22.2533 C   0  0  1  0  0  0  0  0  0  0  0  0
  -27.3820  -27.0856   18.2858 C   0  0  2  0  0  0  0  0  0  0  0  0
  -28.4447  -20.4020   22.5686 C   0  0  0  0  0  0  0  0  0  0  0  0
  -31.3052  -22.8523   18.5541 C   0  0  0  0  0  0  0  0  0  0  0  0
  -23.3472  -22.4370   25.1444 C   0  0  0  0  0  0  0  0  0  0  0  0
  -25.5077  -20.2798   16.5298 C   0  0  0  0  0  0  0  0  0  0  0  0
  -19.7236  -17.3371   22.1477 C   0  0  0  0  0  0  0  0  0  0  0  0
  -19.7182  -19.6701   23.0562 C   0  0  0  0  0  0  0  0  0  0  0  0
  -19.8682  -17.7274   24.6137 C   0  0  0  0  0  0  0  0  0  0  0  0
  -25.7526  -19.4942   25.3171 C   0  0  0  0  0  0  0  0  0  0  0  0
  -27.9697  -19.7678   16.7050 C   0  0  0  0  0  0  0  0  0  0  0  0
  -29.1129  -19.3759   17.6522 C   0  0  0  0  0  0  0  0  0  0  0  0
  -29.8984  -22.3227   18.2265 C   0  0  2  0  0  0  0  0  0  0  0  0
  -21.8674  -18.3306   23.1884 C   0  0  1  0  0  0  0  0  0  0  0  0
  -23.7425  -20.9686   25.1618 C   0  0  2  0  0  0  0  0  0  0  0  0
  -26.5706  -19.4647   17.2554 C   0  0  2  0  0  0  0  0  0  1  0  0
  -20.3150  -18.2577   23.2339 C   0  0  0  0  0  0  0  0  0  0  0  0
  -25.2926  -27.0711   19.5960 N   0  0  0  0  0  0  0  0  0  0  0  0
  -29.0577  -20.0678   18.9908 N   0  0  0  0  0  0  0  0  0  0  0  0
  -26.5258  -27.5809   19.4366 N   0  0  0  0  0  0  0  0  0  0  0  0
  -29.2132  -21.5793   20.5225 N   0  3  0  0  0  0  0  0  0  0  0  0
  -23.3165  -16.5496   22.2655 N   0  0  0  0  0  0  0  0  0  0  0  0
  -27.9547  -25.1753   16.8328 N   0  0  0  0  0  0  0  0  0  0  0  0
  -28.0629  -29.1298   20.3579 N   0  0  0  0  0  0  0  0  0  0  0  0
  -24.4720  -29.4847   23.0738 N   0  0  0  0  0  0  0  0  0  0  0  0
  -22.6806  -13.0641   21.8448 N   0  0  0  0  0  0  0  0  0  0  0  0
  -22.4565  -19.1739   24.2229 N   0  0  0  0  0  0  0  0  0  0  0  0
  -28.9887  -23.4331   18.0531 N   0  0  0  0  0  0  0  0  0  0  0  0
  -25.2266  -20.8826   25.2668 N   0  3  0  0  0  0  0  0  0  0  0  0
  -26.5865  -30.2750   22.6700 O   0  0  0  0  0  0  0  0  0  0  0  0
  -22.2762  -14.9016   20.4727 O   0  0  0  0  0  0  0  0  0  0  0  0
  -22.3140  -16.3155   24.3575 O   0  0  0  0  0  0  0  0  0  0  0  0
  -23.5606  -20.6138   22.7789 O   0  0  0  0  0  0  0  0  0  0  0  0
  -29.5511  -23.8022   15.8612 O   0  0  0  0  0  0  0  0  0  0  0  0
  -19.7051  -26.6377   22.6196 O   0  0  0  0  0  0  0  0  0  0  0  0
  -26.2867  -18.0774   17.0792 O   0  0  0  0  0  0  0  0  0  1  0  0
  -16.5400  -30.9304   24.0189 F   0  0  0  0  0  0  0  0  0  0  0  0
  -17.2762  -27.0746   21.3738 F   0  0  0  0  0  0  0  0  0  0  0  0
  1  2  1  0  0  0  0
  1  5  2  0  0  0  0
  2  6  2  0  0  0  0
  3  8  2  0  0  0  0
  3 16  1  0  0  0  0
  4  9  1  0  0  0  0
  4 16  2  0  0  0  0
  5 18  1  0  0  0  0
  6 20  1  0  0  0  0
  7 10  2  0  0  0  0
  7 19  1  0  0  0  0
  8 22  1  0  0  0  0
  9 22  2  0  0  0  0
 10 23  1  0  0  0  0
 11 12  2  0  0  0  0
 11 24  1  0  0  0  0
 12 25  1  0  0  0  0
 13 21  1  0  0  0  0
 13 23  2  0  0  0  0
 14 25  2  0  0  0  0
 14 26  1  0  0  0  0
 15 28  2  0  0  0  0
 15 64  1  0  0  0  0
 16 27  1  0  0  0  0
 17 27  1  0  0  0  0
 17 29  2  0  0  0  0
 17 31  1  0  0  0  0
 18 20  2  0  0  0  0
 18 36  1  0  0  0  0
 19 21  2  0  0  0  0
 19 37  1  0  0  0  0
 20 45  1  0  0  0  0
 21 38  1  0  0  0  0
 22 80  1  0  0  0  0
 23 81  1  0  0  0  0
 24 26  2  0  0  0  0
 24 80  1  0  0  0  0
 25 82  1  0  0  0  0
 26 83  1  0  0  0  0
 27 63  2  0  0  0  0
 28 48  1  0  0  0  0
 28 66  1  0  0  0  0
 29 65  1  0  0  0  0
 29 69  1  0  0  0  0
 30 58  1  0  0  0  0
 30 64  1  0  0  0  0
 30 66  2  0  0  0  0
 31 70  1  0  0  0  0
 31 75  2  0  0  0  0
 32 46  1  0  0  0  0
 32 71  1  0  0  0  0
 32 76  2  0  0  0  0
 33 59  1  0  0  0  0
 33 67  1  0  0  0  0
 33 77  2  0  0  0  0
 34 60  1  0  0  0  0
 34 72  1  0  0  0  0
 34 78  2  0  0  0  0
 35 68  1  0  0  0  0
 35 73  1  0  0  0  0
 35 79  2  0  0  0  0
 36 39  1  0  0  0  0
 37 46  1  0  0  0  0
 38 67  1  0  0  0  0
 39 41  1  0  0  0  0
 40 42  1  0  0  0  0
 40 43  1  0  0  0  0
 41 45  1  0  0  0  0
 42 47  1  0  0  0  0
 43 68  1  0  0  0  0
 44 47  1  0  0  0  0
 44 68  1  0  0  0  0
 45 71  1  0  0  0  0
 46 67  1  0  0  0  0
 47 65  1  0  0  0  0
 49 58  1  0  0  0  0
 50 60  1  0  0  0  0
 51 61  1  0  0  0  0
 52 62  1  0  0  0  0
 53 62  1  0  0  0  0
 54 62  1  0  0  0  0
 55 74  1  0  0  0  0
 56 57  1  0  0  0  0
 56 61  1  0  0  0  0
 57 64  1  0  0  0  0
 58 73  1  0  0  0  0
 59 62  1  0  0  0  0
 59 72  1  0  0  0  0
 60 74  1  0  0  0  0
 61 81  1  0  0  0  0
 63 65  1  0  0  0  0
M  CHG  2  66   1  74   1
M  ISO  4  35 100  61 101  73 100  81 101
M  END
> <Batch ID>
0075

> <Smiles>
CNC(C)C(=O)NC(C(=O)N1Cc2cc([101O:1][101CH:1](C)CCn3cc(C)nc3C(C)[100NH:0][100C:0](=O)N3CCCC(n4nc(-c5ccc(Oc6ccc(F)cc6F)cc5)c(C(N)=O)c4N)C3)ccc2CC1C(=O)NC1CCCc2ccccc21)C(C)(C)C

> <Shape>
0.229

> <Color>
0.073

> <Negative vol penalty>
0.000

$$$$

  -OEChem-04052318323D

 83 91  0     1  0  0  0  0  0999 V2000
  -17.6322  -16.5909   30.3643 C   0  0  0  0  0  0  0  0  0  0  0  0
  -18.5945  -16.2165   29.4320 C   0  0  0  0  0  0  0  0  0  0  0  0
  -27.6744  -23.7997   20.9049 C   0  0  0  0  0  0  0  0  0  0  0  0
  -28.3774  -23.4906   18.6142 C   0  0  0  0  0  0  0  0  0  0  0  0
  -16.5770  -17.4179   29.9814 C   0  0  0  0  0  0  0  0  0  0  0  0
  -18.5015  -16.6679   28.1159 C   0  0  0  0  0  0  0  0  0  0  0  0
  -23.1376  -18.0863   24.3742 C   0  0  0  0  0  0  0  0  0  0  0  0
  -27.8185  -25.1797   20.7630 C   0  0  0  0  0  0  0  0  0  0  0  0
  -28.5215  -24.8708   18.4722 C   0  0  0  0  0  0  0  0  0  0  0  0
  -23.7736  -17.3753   23.3574 C   0  0  0  0  0  0  0  0  0  0  0  0
  -26.0737  -27.7404   19.4095 C   0  0  0  0  0  0  0  0  0  0  0  0
  -25.0549  -28.5530   19.9067 C   0  0  0  0  0  0  0  0  0  0  0  0
  -22.3649  -18.4592   21.7265 C   0  0  0  0  0  0  0  0  0  0  0  0
  -26.6328  -29.6232   21.3906 C   0  0  0  0  0  0  0  0  0  0  0  0
  -27.9539  -22.9551   19.8305 C   0  0  0  0  0  0  0  0  0  0  0  0
  -26.6509  -20.7644   19.7252 C   0  0  0  0  0  0  0  0  0  0  0  0
  -16.4763  -17.8875   28.6623 C   0  0  0  0  0  0  0  0  0  0  0  0
  -22.1013  -18.9825   24.0752 C   0  0  0  0  0  0  0  0  0  0  0  0
  -17.4432  -17.5008   27.7147 C   0  0  0  0  0  0  0  0  0  0  0  0
  -21.7191  -19.1823   22.7410 C   0  0  0  0  0  0  0  0  0  0  0  0
  -28.2420  -25.7153   19.5467 C   0  0  0  0  0  0  0  0  0  0  0  0
  -23.3853  -17.5595   22.0336 C   0  0  0  0  0  0  0  0  0  0  0  0
  -27.3721  -27.8690   19.9029 C   0  0  0  0  0  0  0  0  0  0  0  0
  -25.3345  -29.4945   20.8972 C   0  0  0  0  0  0  0  0  0  0  0  0
  -27.6516  -28.8105   20.8935 C   0  0  0  0  0  0  0  0  0  0  0  0
  -27.8057  -21.5293   19.9767 C   0  0  0  0  0  0  0  0  0  0  0  0
  -25.1133  -11.2167   21.1477 C   0  0  0  0  0  0  0  0  0  0  0  0
  -24.2619  -12.2963   21.1513 C   0  0  0  0  0  0  0  0  0  0  0  0
  -27.0242  -19.4743   20.0129 C   0  0  0  0  0  0  0  0  0  0  0  0
  -26.1219  -12.7402   20.0560 C   0  0  0  0  0  0  0  0  0  0  0  0
  -25.3566  -21.1827   19.2720 C   0  0  0  0  0  0  0  0  0  0  0  0
  -19.0177  -19.1760   24.8221 C   0  0  0  0  0  0  0  0  0  0  0  0
  -19.2273  -22.0304   23.2954 C   0  0  0  0  0  0  0  0  0  0  0  0
  -20.8415  -23.9801   21.0063 C   0  0  0  0  0  0  0  0  0  0  0  0
  -30.6974  -15.2849   19.6947 C   0  0  0  0  0  0  0  0  0  0  0  0
  -15.2917  -18.7410   28.2840 C   0  0  0  0  0  0  0  0  0  0  0  0
  -21.4435  -19.7617   25.1809 C   0  0  0  0  0  0  0  0  0  0  0  0
  -20.6259  -20.1478   22.3653 C   0  0  0  0  0  0  0  0  0  0  0  0
  -15.4716  -19.4805   26.9608 C   0  0  0  0  0  0  0  0  0  0  0  0
  -31.1673  -17.6760   22.2905 C   0  0  0  0  0  0  0  0  0  0  0  0
  -16.0126  -18.5371   25.8912 C   0  0  0  0  0  0  0  0  0  0  0  0
  -30.2445  -18.8304   21.8959 C   0  0  0  0  0  0  0  0  0  0  0  0
  -31.8075  -17.0221   21.0680 C   0  0  0  0  0  0  0  0  0  0  0  0
  -29.9326  -17.7360   19.6367 C   0  0  0  0  0  0  0  0  0  0  0  0
  -17.3904  -17.9901   26.2837 C   0  0  1  0  0  0  0  0  0  0  0  0
  -20.0520  -20.2658   24.8106 C   0  0  1  0  0  0  0  0  0  0  0  0
  -29.2202  -18.3911   20.8324 C   0  0  2  0  0  0  0  0  0  0  0  0
  -24.9154   -9.8934   21.7601 C   0  0  0  0  0  0  0  0  0  0  0  0
  -22.9241  -12.4917   21.7384 C   0  0  0  0  0  0  0  0  0  0  0  0
  -20.7586  -26.2536   19.9474 C   0  0  0  0  0  0  0  0  0  0  0  0
  -16.8770  -21.1369   21.5670 C   0  0  0  0  0  0  0  0  0  0  0  0
  -17.4491  -22.9720   19.9629 C   0  0  0  0  0  0  0  0  0  0  0  0
  -16.7826  -23.5255   22.3022 C   0  0  0  0  0  0  0  0  0  0  0  0
  -23.5247  -24.6856   22.0369 C   0  0  0  0  0  0  0  0  0  0  0  0
  -27.0994  -13.5160   19.2648 C   0  0  0  0  0  0  0  0  0  0  0  0
  -28.4949  -12.8614   19.1296 C   0  0  0  0  0  0  0  0  0  0  0  0
  -24.4156  -14.6564   20.1569 C   0  0  0  0  0  0  0  0  0  0  0  0
  -29.4768  -13.6578   18.2728 C   0  0  0  0  0  0  0  0  0  0  0  0
  -24.5167  -15.5760   21.3690 C   0  0  0  0  0  0  0  0  0  1  0  0
  -19.0511  -22.4961   21.8703 C   0  0  1  0  0  0  0  0  0  0  0  0
  -21.3374  -25.4132   21.0749 C   0  0  2  0  0  0  0  0  0  0  0  0
  -17.5593  -22.5129   21.4325 C   0  0  0  0  0  0  0  0  0  0  0  0
  -28.8354  -20.7871   20.3923 N   0  0  0  0  0  0  0  0  0  0  0  0
  -26.2695  -11.4996   20.4646 N   0  0  0  0  0  0  0  0  0  0  0  0
  -24.9219  -13.2647   20.4485 N   0  0  0  0  0  0  0  0  0  0  0  0
  -28.3289  -19.5423   20.4043 N   0  0  0  0  0  0  0  0  0  0  0  0
  -20.0088  -20.8815   23.4827 N   0  0  0  0  0  0  0  0  0  0  0  0
  -30.7822  -16.6273   20.0991 N   0  0  0  0  0  0  0  0  0  0  0  0
  -26.3603  -18.2998   19.9669 N   0  0  0  0  0  0  0  0  0  0  0  0
  -25.1438  -22.5456   19.0236 N   0  0  0  0  0  0  0  0  0  0  0  0
  -18.4145  -18.9858   26.0506 N   0  0  0  0  0  0  0  0  0  0  0  0
  -19.7152  -23.7918   21.7791 N   0  0  0  0  0  0  0  0  0  0  0  0
  -29.6937  -14.9949   18.7786 N   0  0  0  0  0  0  0  0  0  0  0  0
  -22.8238  -25.4523   20.9748 N   0  3  0  0  0  0  0  0  0  0  0  0
  -24.4117  -20.3740   19.1083 O   0  0  0  0  0  0  0  0  0  0  0  0
  -18.7832  -18.5547   23.7922 O   0  0  0  0  0  0  0  0  0  0  0  0
  -18.6972  -22.6669   24.2095 O   0  0  0  0  0  0  0  0  0  0  0  0
  -21.3956  -23.1151   20.3316 O   0  0  0  0  0  0  0  0  0  0  0  0
  -31.4563  -14.4085   20.1226 O   0  0  0  0  0  0  0  0  0  0  0  0
  -28.3826  -27.0620   19.4078 O   0  0  0  0  0  0  0  0  0  0  0  0
  -24.0040  -16.8663   21.0394 O   0  0  0  0  0  0  0  0  0  1  0  0
  -24.3563  -30.2759   21.3735 F   0  0  0  0  0  0  0  0  0  0  0  0
  -28.8972  -28.9395   21.3706 F   0  0  0  0  0  0  0  0  0  0  0  0
  1  2  1  0  0  0  0
  1  5  2  0  0  0  0
  2  6  2  0  0  0  0
  3  8  2  0  0  0  0
  3 15  1  0  0  0  0
  4  9  1  0  0  0  0
  4 15  2  0  0  0  0
  5 17  1  0  0  0  0
  6 19  1  0  0  0  0
  7 10  2  0  0  0  0
  7 18  1  0  0  0  0
  8 21  1  0  0  0  0
  9 21  2  0  0  0  0
 10 22  1  0  0  0  0
 11 12  2  0  0  0  0
 11 23  1  0  0  0  0
 12 24  1  0  0  0  0
 13 20  1  0  0  0  0
 13 22  2  0  0  0  0
 14 24  2  0  0  0  0
 14 25  1  0  0  0  0
 15 26  1  0  0  0  0
 16 26  1  0  0  0  0
 16 29  2  0  0  0  0
 16 31  1  0  0  0  0
 17 19  2  0  0  0  0
 17 36  1  0  0  0  0
 18 20  2  0  0  0  0
 18 37  1  0  0  0  0
 19 45  1  0  0  0  0
 20 38  1  0  0  0  0
 21 80  1  0  0  0  0
 22 81  1  0  0  0  0
 23 25  2  0  0  0  0
 23 80  1  0  0  0  0
 24 82  1  0  0  0  0
 25 83  1  0  0  0  0
 26 63  2  0  0  0  0
 27 28  2  0  0  0  0
 27 48  1  0  0  0  0
 27 64  1  0  0  0  0
 28 49  1  0  0  0  0
 28 65  1  0  0  0  0
 29 66  1  0  0  0  0
 29 69  1  0  0  0  0
 30 55  1  0  0  0  0
 30 64  2  0  0  0  0
 30 65  1  0  0  0  0
 31 70  1  0  0  0  0
 31 75  2  0  0  0  0
 32 46  1  0  0  0  0
 32 71  1  0  0  0  0
 32 76  2  0  0  0  0
 33 60  1  0  0  0  0
 33 67  1  0  0  0  0
 33 77  2  0  0  0  0
 34 61  1  0  0  0  0
 34 72  1  0  0  0  0
 34 78  2  0  0  0  0
 35 68  1  0  0  0  0
 35 73  1  0  0  0  0
 35 79  2  0  0  0  0
 36 39  1  0  0  0  0
 37 46  1  0  0  0  0
 38 67  1  0  0  0  0
 39 41  1  0  0  0  0
 40 42  1  0  0  0  0
 40 43  1  0  0  0  0
 41 45  1  0  0  0  0
 42 47  1  0  0  0  0
 43 68  1  0  0  0  0
 44 47  1  0  0  0  0
 44 68  1  0  0  0  0
 45 71  1  0  0  0  0
 46 67  1  0  0  0  0
 47 66  1  0  0  0  0
 50 61  1  0  0  0  0
 51 62  1  0  0  0  0
 52 62  1  0  0  0  0
 53 62  1  0  0  0  0
 54 74  1  0  0  0  0
 55 56  1  0  0  0  0
 56 58  1  0  0  0  0
 57 59  1  0  0  0  0
 57 65  1  0  0  0  0
 58 73  1  0  0  0  0
 59 81  1  0  0  0  0
 60 62  1  0  0  0  0
 60 72  1  0  0  0  0
 61 74  1  0  0  0  0
 63 66  1  0  0  0  0
M  CHG  1  74   1
M  ISO  4  35 100  59 101  73 100  81 101
M  END
> <Batch ID>
0075

> <Smiles>
CNC(C)C(=O)NC(C(=O)N1Cc2cc([101O:1][101CH2:1]Cn3c(CCC[100NH:0][100C:0](=O)N4CCCC(n5nc(-c6ccc(Oc7ccc(F)cc7F)cc6)c(C(N)=O)c5N)C4)nc(C)c3C)ccc2CC1C(=O)NC1CCCc2ccccc21)C(C)(C)C

> <Shape>
0.193

> <Color>
0.085

> <Negative vol penalty>
0.000

$$$$

  -OEChem-04052318323D

 86 94  0     1  0  0  0  0  0999 V2000
  -18.5764  -24.5215   24.2466 C   0  0  0  0  0  0  0  0  0  0  0  0
  -19.8371  -24.3024   23.7007 C   0  0  0  0  0  0  0  0  0  0  0  0
  -25.2414  -15.3743   21.3517 C   0  0  0  0  0  0  0  0  0  0  0  0
  -26.3010  -15.2284   19.1854 C   0  0  0  0  0  0  0  0  0  0  0  0
  -17.9587  -25.7623   24.0957 C   0  0  0  0  0  0  0  0  0  0  0  0
  -20.4804  -25.3237   23.0025 C   0  0  0  0  0  0  0  0  0  0  0  0
  -26.4968  -26.4578   22.8522 C   0  0  0  0  0  0  0  0  0  0  0  0
  -25.2573  -13.9833   21.4533 C   0  0  0  0  0  0  0  0  0  0  0  0
  -26.3170  -13.8373   19.2869 C   0  0  0  0  0  0  0  0  0  0  0  0
  -27.4888  -26.1379   21.9261 C   0  0  0  0  0  0  0  0  0  0  0  0
  -23.4677  -11.3782   20.2553 C   0  0  0  0  0  0  0  0  0  0  0  0
  -22.3065  -10.7485   20.7033 C   0  0  0  0  0  0  0  0  0  0  0  0
  -27.2378  -28.3136   20.9148 C   0  0  0  0  0  0  0  0  0  0  0  0
  -23.5284   -9.8243   22.5715 C   0  0  0  0  0  0  0  0  0  0  0  0
  -28.1048  -21.5010   15.1578 C   0  0  0  0  0  0  0  0  0  0  0  0
  -25.7632  -15.9969   20.2178 C   0  0  0  0  0  0  0  0  0  0  0  0
  -26.7449  -18.3293   20.5399 C   0  0  0  0  0  0  0  0  0  0  0  0
  -18.5989  -26.8024   23.4036 C   0  0  0  0  0  0  0  0  0  0  0  0
  -25.8592  -27.7060   22.8096 C   0  0  0  0  0  0  0  0  0  0  0  0
  -19.8701  -26.5792   22.8410 C   0  0  0  0  0  0  0  0  0  0  0  0
  -26.2399  -28.6478   21.8430 C   0  0  0  0  0  0  0  0  0  0  0  0
  -25.7951  -13.2148   20.4209 C   0  0  0  0  0  0  0  0  0  0  0  0
  -27.8574  -27.0647   20.9555 C   0  0  0  0  0  0  0  0  0  0  0  0
  -24.6593  -11.2309   20.9654 C   0  0  0  0  0  0  0  0  0  0  0  0
  -22.3368   -9.9716   21.8614 C   0  0  0  0  0  0  0  0  0  0  0  0
  -24.6896  -10.4540   22.1234 C   0  0  0  0  0  0  0  0  0  0  0  0
  -25.7465  -17.4338   20.1121 C   0  0  0  0  0  0  0  0  0  0  0  0
  -27.1531  -20.6294   15.6064 C   0  0  0  0  0  0  0  0  0  0  0  0
  -26.2547  -19.5706   20.2155 C   0  0  0  0  0  0  0  0  0  0  0  0
  -28.8402  -20.5956   17.0393 C   0  0  0  0  0  0  0  0  0  0  0  0
  -28.0031  -18.0629   21.1737 C   0  0  0  0  0  0  0  0  0  0  0  0
  -22.8687  -28.6828   22.3552 C   0  0  0  0  0  0  0  0  0  0  0  0
  -24.1226  -31.5888   23.0661 C   0  0  0  0  0  0  0  0  0  0  0  0
  -22.2690  -21.3578   16.0884 C   0  0  0  0  0  0  0  0  0  0  0  0
  -26.8727  -33.6059   23.1902 C   0  0  0  0  0  0  0  0  0  0  0  0
  -17.8714  -28.1115   23.2256 C   0  0  0  0  0  0  0  0  0  0  0  0
  -24.8099  -28.0456   23.8323 C   0  0  0  0  0  0  0  0  0  0  0  0
  -25.6003  -30.0093   21.7673 C   0  0  0  0  0  0  0  0  0  0  0  0
  -18.7801  -29.2596   22.7938 C   0  0  0  0  0  0  0  0  0  0  0  0
  -22.1539  -21.9474   19.6210 C   0  0  0  0  0  0  0  0  0  0  0  0
  -19.6946  -28.8176   21.6558 C   0  0  0  0  0  0  0  0  0  0  0  0
  -23.1315  -20.9191   20.1886 C   0  0  0  0  0  0  0  0  0  0  0  0
  -21.4102  -21.4000   18.4068 C   0  0  0  0  0  0  0  0  0  0  0  0
  -23.2845  -19.8711   17.8857 C   0  0  0  0  0  0  0  0  0  0  0  0
  -20.6106  -27.6700   22.0981 C   0  0  1  0  0  0  0  0  0  0  0  0
  -23.8665  -29.1540   23.3751 C   0  0  1  0  0  0  0  0  0  0  0  0
  -24.0791  -20.3948   19.0951 C   0  0  2  0  0  0  0  0  0  0  0  0
  -29.6806  -20.2527   18.2136 C   0  0  0  0  0  0  0  0  0  0  0  0
  -27.5779  -35.9411   23.7789 C   0  0  0  0  0  0  0  0  0  0  0  0
  -23.0006  -21.4438   13.7459 C   0  0  0  0  0  0  0  0  0  0  0  0
  -23.0546  -19.2775   14.9974 C   0  0  0  0  0  0  0  0  0  0  0  0
  -22.9184  -32.6082   20.4545 C   0  0  0  0  0  0  0  0  0  0  0  0
  -24.4172  -34.6065   20.6245 C   0  0  0  0  0  0  0  0  0  0  0  0
  -22.7033  -34.1815   22.3866 C   0  0  0  0  0  0  0  0  0  0  0  0
  -28.6999  -32.6439   25.3102 C   0  0  0  0  0  0  0  0  0  0  0  0
  -25.8461  -20.2572   15.0587 C   0  0  0  0  0  0  0  0  0  0  0  0
  -24.6933  -21.1569   15.5793 C   0  0  0  0  0  0  0  0  0  0  0  0
  -29.6505  -23.8102   17.8209 C   0  0  0  0  0  0  0  0  0  0  0  0
  -30.1836  -23.7223   16.3894 C   0  0  0  0  0  0  0  0  0  0  0  0
  -29.4664  -25.2670   18.2563 C   0  0  0  0  0  0  0  0  0  0  0  0
  -30.4062  -22.2680   15.9685 C   0  0  0  0  0  0  0  0  0  0  0  0
  -28.9606  -25.3809   19.6892 C   0  0  0  0  0  0  0  0  0  1  0  0
  -24.7526  -32.7054   22.2690 C   0  0  1  0  0  0  0  0  0  0  0  0
  -27.4057  -34.5163   24.2817 C   0  0  2  0  0  0  0  0  0  0  0  0
  -23.2670  -20.7905   15.1105 C   0  0  0  0  0  0  0  0  0  0  0  0
  -23.7087  -33.4991   21.4336 C   0  0  0  0  0  0  0  0  0  0  0  0
  -24.7009  -18.0535   19.5583 N   0  0  0  0  0  0  0  0  0  0  0  0
  -29.1371  -21.4603   16.0638 N   0  0  0  0  0  0  0  0  0  0  0  0
  -25.0396  -19.3517   19.6360 N   0  0  0  0  0  0  0  0  0  0  0  0
  -27.6346  -20.0834   16.7718 N   0  3  0  0  0  0  0  0  0  0  0  0
  -24.5750  -30.2917   22.7854 N   0  0  0  0  0  0  0  0  0  0  0  0
  -22.3445  -20.8914   17.4010 N   0  0  0  0  0  0  0  0  0  0  0  0
  -26.7487  -20.8171   20.3724 N   0  0  0  0  0  0  0  0  0  0  0  0
  -28.3510  -16.7305   21.4345 N   0  0  0  0  0  0  0  0  0  0  0  0
  -21.7040  -28.1764   22.8997 N   0  0  0  0  0  0  0  0  0  0  0  0
  -25.4970  -33.5191   23.2240 N   0  0  0  0  0  0  0  0  0  0  0  0
  -28.7271  -34.0259   24.7659 N   0  3  0  0  0  0  0  0  0  0  0  0
  -28.7880  -18.9802   21.5141 O   0  0  0  0  0  0  0  0  0  0  0  0
  -23.1351  -28.7735   21.1625 O   0  0  0  0  0  0  0  0  0  0  0  0
  -23.2660  -31.8582   23.9119 O   0  0  0  0  0  0  0  0  0  0  0  0
  -21.4496  -22.1926   15.6963 O   0  0  0  0  0  0  0  0  0  0  0  0
  -27.6034  -33.0322   22.3855 O   0  0  0  0  0  0  0  0  0  0  0  0
  -25.8111  -11.8574   20.5197 O   0  0  0  0  0  0  0  0  0  0  0  0
  -28.8248  -26.7548   20.0500 O   0  0  0  0  0  0  0  0  0  1  0  0
  -21.2213   -9.3682   22.2923 F   0  0  0  0  0  0  0  0  0  0  0  0
  -25.8311  -10.3098   22.8104 F   0  0  0  0  0  0  0  0  0  0  0  0
  1  2  1  0  0  0  0
  1  5  2  0  0  0  0
  2  6  2  0  0  0  0
  3  8  2  0  0  0  0
  3 16  1  0  0  0  0
  4  9  1  0  0  0  0
  4 16  2  0  0  0  0
  5 18  1  0  0  0  0
  6 20  1  0  0  0  0
  7 10  2  0  0  0  0
  7 19  1  0  0  0  0
  8 22  1  0  0  0  0
  9 22  2  0  0  0  0
 10 23  1  0  0  0  0
 11 12  2  0  0  0  0
 11 24  1  0  0  0  0
 12 25  1  0  0  0  0
 13 21  1  0  0  0  0
 13 23  2  0  0  0  0
 14 25  2  0  0  0  0
 14 26  1  0  0  0  0
 15 28  2  0  0  0  0
 15 68  1  0  0  0  0
 16 27  1  0  0  0  0
 17 27  1  0  0  0  0
 17 29  2  0  0  0  0
 17 31  1  0  0  0  0
 18 20  2  0  0  0  0
 18 36  1  0  0  0  0
 19 21  2  0  0  0  0
 19 37  1  0  0  0  0
 20 45  1  0  0  0  0
 21 38  1  0  0  0  0
 22 83  1  0  0  0  0
 23 84  1  0  0  0  0
 24 26  2  0  0  0  0
 24 83  1  0  0  0  0
 25 85  1  0  0  0  0
 26 86  1  0  0  0  0
 27 67  2  0  0  0  0
 28 56  1  0  0  0  0
 28 70  1  0  0  0  0
 29 69  1  0  0  0  0
 29 73  1  0  0  0  0
 30 48  1  0  0  0  0
 30 68  1  0  0  0  0
 30 70  2  0  0  0  0
 31 74  1  0  0  0  0
 31 78  2  0  0  0  0
 32 46  1  0  0  0  0
 32 75  1  0  0  0  0
 32 79  2  0  0  0  0
 33 63  1  0  0  0  0
 33 71  1  0  0  0  0
 33 80  2  0  0  0  0
 34 65  1  0  0  0  0
 34 72  1  0  0  0  0
 34 81  2  0  0  0  0
 35 64  1  0  0  0  0
 35 76  1  0  0  0  0
 35 82  2  0  0  0  0
 36 39  1  0  0  0  0
 37 46  1  0  0  0  0
 38 71  1  0  0  0  0
 39 41  1  0  0  0  0
 40 42  1  0  0  0  0
 40 43  1  0  0  0  0
 41 45  1  0  0  0  0
 42 47  1  0  0  0  0
 43 72  1  0  0  0  0
 44 47  1  0  0  0  0
 44 72  1  0  0  0  0
 45 75  1  0  0  0  0
 46 71  1  0  0  0  0
 47 69  1  0  0  0  0
 49 64  1  0  0  0  0
 50 65  1  0  0  0  0
 51 65  1  0  0  0  0
 52 66  1  0  0  0  0
 53 66  1  0  0  0  0
 54 66  1  0  0  0  0
 55 77  1  0  0  0  0
 56 57  1  0  0  0  0
 57 65  1  0  0  0  0
 58 59  1  0  0  0  0
 58 60  1  0  0  0  0
 59 61  1  0  0  0  0
 60 62  1  0  0  0  0
 61 68  1  0  0  0  0
 62 84  1  0  0  0  0
 63 66  1  0  0  0  0
 63 76  1  0  0  0  0
 64 77  1  0  0  0  0
 67 69  1  0  0  0  0
M  CHG  2  70   1  77   1
M  ISO  4  34 100  62 101  65 100  84 101
M  END
> <Batch ID>
0075

> <Smiles>
CNC(C)C(=O)NC(C(=O)N1Cc2cc([101O:1][101CH2:1]CCCCn3cc(CC[100C:0](C)(C)[100C:0](=O)N4CCCC(n5nc(-c6ccc(Oc7ccc(F)cc7F)cc6)c(C(N)=O)c5N)C4)nc3C)ccc2CC1C(=O)NC1CCCc2ccccc21)C(C)(C)C

> <Shape>
0.232

> <Color>
0.082

> <Negative vol penalty>
0.000

$$$$

  -OEChem-04052318323D

 84 92  0     1  0  0  0  0  0999 V2000
  -18.0781  -33.0394   23.1704 C   0  0  0  0  0  0  0  0  0  0  0  0
  -19.2952  -33.1369   22.5036 C   0  0  0  0  0  0  0  0  0  0  0  0
  -26.5731  -14.0936   21.9733 C   0  0  0  0  0  0  0  0  0  0  0  0
  -26.1628  -14.0034   19.5941 C   0  0  0  0  0  0  0  0  0  0  0  0
  -17.8466  -31.9784   24.0449 C   0  0  0  0  0  0  0  0  0  0  0  0
  -20.2820  -32.1740   22.7119 C   0  0  0  0  0  0  0  0  0  0  0  0
  -25.5962  -28.7969   19.2955 C   0  0  0  0  0  0  0  0  0  0  0  0
  -25.7344  -12.9947   22.1596 C   0  0  0  0  0  0  0  0  0  0  0  0
  -25.3241  -12.9045   19.7804 C   0  0  0  0  0  0  0  0  0  0  0  0
  -26.9538  -28.5104   19.4320 C   0  0  0  0  0  0  0  0  0  0  0  0
  -22.7918  -10.2998   19.6682 C   0  0  0  0  0  0  0  0  0  0  0  0
  -21.5727  -10.2924   18.9905 C   0  0  0  0  0  0  0  0  0  0  0  0
  -26.4128  -26.6784   20.9052 C   0  0  0  0  0  0  0  0  0  0  0  0
  -20.9311  -12.3282   20.1224 C   0  0  0  0  0  0  0  0  0  0  0  0
  -30.1266  -23.7122   17.2307 C   0  0  0  0  0  0  0  0  0  0  0  0
  -27.6249  -24.4824   16.7057 C   0  0  0  0  0  0  0  0  0  0  0  0
  -26.7872  -14.5980   20.6905 C   0  0  0  0  0  0  0  0  0  0  0  0
  -29.0402  -15.7139   20.2588 C   0  0  0  0  0  0  0  0  0  0  0  0
  -18.8275  -30.9968   24.2565 C   0  0  0  0  0  0  0  0  0  0  0  0
  -24.6357  -28.0318   19.9726 C   0  0  0  0  0  0  0  0  0  0  0  0
  -20.0640  -31.0996   23.5910 C   0  0  0  0  0  0  0  0  0  0  0  0
  -25.0435  -26.9556   20.7736 C   0  0  0  0  0  0  0  0  0  0  0  0
  -25.1099  -12.4002   21.0631 C   0  0  0  0  0  0  0  0  0  0  0  0
  -27.3624  -27.4528   20.2393 C   0  0  0  0  0  0  0  0  0  0  0  0
  -23.0806  -11.3213   20.5731 C   0  0  0  0  0  0  0  0  0  0  0  0
  -20.6423  -11.3066   19.2176 C   0  0  0  0  0  0  0  0  0  0  0  0
  -22.1503  -12.3355   20.8001 C   0  0  0  0  0  0  0  0  0  0  0  0
  -27.6530  -15.7335   20.4975 C   0  0  0  0  0  0  0  0  0  0  0  0
  -29.6384  -24.9112   17.7014 C   0  0  0  0  0  0  0  0  0  0  0  0
  -28.1132  -23.2837   16.2343 C   0  0  0  0  0  0  0  0  0  0  0  0
  -29.3882  -17.0379   20.1478 C   0  0  0  0  0  0  0  0  0  0  0  0
  -29.9343  -14.5986   20.1474 C   0  0  0  0  0  0  0  0  0  0  0  0
  -22.4363  -28.6401   22.1853 C   0  0  0  0  0  0  0  0  0  0  0  0
  -21.5881  -25.5584   21.6316 C   0  0  0  0  0  0  0  0  0  0  0  0
  -22.4936  -22.4570   20.5325 C   0  0  0  0  0  0  0  0  0  0  0  0
  -26.3205  -21.9452   18.6122 C   0  0  0  0  0  0  0  0  0  0  0  0
  -18.5493  -29.8943   25.2474 C   0  0  0  0  0  0  0  0  0  0  0  0
  -23.1738  -28.3371   19.7936 C   0  0  0  0  0  0  0  0  0  0  0  0
  -24.0510  -26.0911   21.5056 C   0  0  0  0  0  0  0  0  0  0  0  0
  -19.5063  -28.7111   25.1267 C   0  0  0  0  0  0  0  0  0  0  0  0
  -28.0889  -21.3899   21.6521 C   0  0  0  0  0  0  0  0  0  0  0  0
  -20.9478  -29.1989   25.0234 C   0  0  0  0  0  0  0  0  0  0  0  0
  -28.3029  -19.8755   21.6793 C   0  0  0  0  0  0  0  0  0  0  0  0
  -26.7359  -21.7579   21.0471 C   0  0  0  0  0  0  0  0  0  0  0  0
  -26.6905  -19.6683   19.7413 C   0  0  0  0  0  0  0  0  0  0  0  0
  -21.1500  -30.0613   23.7717 C   0  0  1  0  0  0  0  0  0  0  0  0
  -22.3098  -27.8137   20.9369 C   0  0  1  0  0  0  0  0  0  0  0  0
  -28.0649  -19.2505   20.2915 C   0  0  2  0  0  0  0  0  0  0  0  0
  -22.2257  -20.0517   19.8693 C   0  0  0  0  0  0  0  0  0  0  0  0
  -27.9260  -21.0499   14.9414 C   0  0  0  0  0  0  0  0  0  0  0  0
  -26.8122  -23.0996   14.0963 C   0  0  0  0  0  0  0  0  0  0  0  0
  -21.8463  -25.0791   24.6339 C   0  0  0  0  0  0  0  0  0  0  0  0
  -21.8824  -22.6195   24.1675 C   0  0  0  0  0  0  0  0  0  0  0  0
  -19.8743  -23.9718   23.5665 C   0  0  0  0  0  0  0  0  0  0  0  0
  -21.8078  -23.1810   17.7460 C   0  0  0  0  0  0  0  0  0  0  0  0
  -30.5106  -25.8209   18.5292 C   0  0  0  0  0  0  0  0  0  0  0  0
  -30.4259  -25.5540   20.0336 C   0  0  0  0  0  0  0  0  0  0  0  0
  -25.9301  -21.9719   16.1614 C   0  0  0  0  0  0  0  0  0  0  0  0
  -29.0404  -25.8099   20.6152 C   0  0  0  0  0  0  0  0  0  1  0  0
  -21.9890  -24.2200   22.2033 C   0  0  1  0  0  0  0  0  0  0  0  0
  -21.8149  -21.4874   19.5818 C   0  0  2  0  0  0  0  0  0  0  0  0
  -27.2519  -22.3854   15.4174 C   0  0  0  0  0  0  0  0  0  0  0  0
  -21.4171  -23.9899   23.6307 C   0  0  0  0  0  0  0  0  0  0  0  0
  -28.3787  -25.3177   17.4477 N   0  0  0  0  0  0  0  0  0  0  0  0
  -29.3728  -22.8771   16.4884 N   0  0  0  0  0  0  0  0  0  0  0  0
  -27.1538  -16.9718   20.5362 N   0  0  0  0  0  0  0  0  0  0  0  0
  -28.2333  -17.7426   20.3204 N   0  0  0  0  0  0  0  0  0  0  0  0
  -22.6334  -26.4335   21.3038 N   0  0  0  0  0  0  0  0  0  0  0  0
  -26.5738  -21.1349   19.7312 N   0  0  0  0  0  0  0  0  0  0  0  0
  -30.5664  -17.6565   19.9205 N   0  0  0  0  0  0  0  0  0  0  0  0
  -29.4108  -13.3060   20.2874 N   0  0  0  0  0  0  0  0  0  0  0  0
  -21.2537  -29.2265   22.5940 N   0  0  0  0  0  0  0  0  0  0  0  0
  -21.5767  -23.2186   21.2258 N   0  0  0  0  0  0  0  0  0  0  0  0
  -26.1864  -21.2752   17.4023 N   0  0  0  0  0  0  0  0  0  0  0  0
  -22.1762  -21.8062   18.1716 N   0  3  0  0  0  0  0  0  0  0  0  0
  -31.1639  -14.7445   19.9464 O   0  0  0  0  0  0  0  0  0  0  0  0
  -23.5258  -28.7372   22.7378 O   0  0  0  0  0  0  0  0  0  0  0  0
  -20.3918  -25.8152   21.4748 O   0  0  0  0  0  0  0  0  0  0  0  0
  -23.7148  -22.5289   20.6511 O   0  0  0  0  0  0  0  0  0  0  0  0
  -26.2264  -23.1752   18.6850 O   0  0  0  0  0  0  0  0  0  0  0  0
  -24.2917  -11.3277   21.2445 O   0  0  0  0  0  0  0  0  0  0  0  0
  -28.6869  -27.1714   20.3748 O   0  0  0  0  0  0  0  0  0  1  0  0
  -19.4723  -11.3002   18.5656 F   0  0  0  0  0  0  0  0  0  0  0  0
  -22.4226  -13.3202   21.6673 F   0  0  0  0  0  0  0  0  0  0  0  0
  1  2  1  0  0  0  0
  1  5  2  0  0  0  0
  2  6  2  0  0  0  0
  3  8  2  0  0  0  0
  3 17  1  0  0  0  0
  4  9  1  0  0  0  0
  4 17  2  0  0  0  0
  5 19  1  0  0  0  0
  6 21  1  0  0  0  0
  7 10  2  0  0  0  0
  7 20  1  0  0  0  0
  8 23  1  0  0  0  0
  9 23  2  0  0  0  0
 10 24  1  0  0  0  0
 11 12  2  0  0  0  0
 11 25  1  0  0  0  0
 12 26  1  0  0  0  0
 13 22  1  0  0  0  0
 13 24  2  0  0  0  0
 14 26  2  0  0  0  0
 14 27  1  0  0  0  0
 15 29  1  0  0  0  0
 15 65  2  0  0  0  0
 16 30  2  0  0  0  0
 16 64  1  0  0  0  0
 17 28  1  0  0  0  0
 18 28  1  0  0  0  0
 18 31  2  0  0  0  0
 18 32  1  0  0  0  0
 19 21  2  0  0  0  0
 19 37  1  0  0  0  0
 20 22  2  0  0  0  0
 20 38  1  0  0  0  0
 21 46  1  0  0  0  0
 22 39  1  0  0  0  0
 23 81  1  0  0  0  0
 24 82  1  0  0  0  0
 25 27  2  0  0  0  0
 25 81  1  0  0  0  0
 26 83  1  0  0  0  0
 27 84  1  0  0  0  0
 28 66  2  0  0  0  0
 29 56  1  0  0  0  0
 29 64  2  0  0  0  0
 30 62  1  0  0  0  0
 30 65  1  0  0  0  0
 31 67  1  0  0  0  0
 31 70  1  0  0  0  0
 32 71  1  0  0  0  0
 32 76  2  0  0  0  0
 33 47  1  0  0  0  0
 33 72  1  0  0  0  0
 33 77  2  0  0  0  0
 34 60  1  0  0  0  0
 34 68  1  0  0  0  0
 34 78  2  0  0  0  0
 35 61  1  0  0  0  0
 35 73  1  0  0  0  0
 35 79  2  0  0  0  0
 36 69  1  0  0  0  0
 36 74  1  0  0  0  0
 36 80  2  0  0  0  0
 37 40  1  0  0  0  0
 38 47  1  0  0  0  0
 39 68  1  0  0  0  0
 40 42  1  0  0  0  0
 41 43  1  0  0  0  0
 41 44  1  0  0  0  0
 42 46  1  0  0  0  0
 43 48  1  0  0  0  0
 44 69  1  0  0  0  0
 45 48  1  0  0  0  0
 45 69  1  0  0  0  0
 46 72  1  0  0  0  0
 47 68  1  0  0  0  0
 48 67  1  0  0  0  0
 49 61  1  0  0  0  0
 50 62  1  0  0  0  0
 51 62  1  0  0  0  0
 52 63  1  0  0  0  0
 53 63  1  0  0  0  0
 54 63  1  0  0  0  0
 55 75  1  0  0  0  0
 56 57  1  0  0  0  0
 57 59  1  0  0  0  0
 58 62  1  0  0  0  0
 58 74  1  0  0  0  0
 59 82  1  0  0  0  0
 60 63  1  0  0  0  0
 60 73  1  0  0  0  0
 61 75  1  0  0  0  0
 66 67  1  0  0  0  0
M  CHG  1  75   1
M  ISO  4  36 100  59 101  74 100  82 101
M  END
> <Batch ID>
0075

> <Smiles>
CNC(C)C(=O)NC(C(=O)N1Cc2cc([101O:1][101CH2:1]CCc3cnc(C(C)(C)C[100NH:0][100C:0](=O)N4CCCC(n5nc(-c6ccc(Oc7ccc(F)cc7F)cc6)c(C(N)=O)c5N)C4)cn3)ccc2CC1C(=O)NC1CCCc2ccccc21)C(C)(C)C

> <Shape>
0.233

> <Color>
0.097

> <Negative vol penalty>
0.000

$$$$

  -OEChem-04052318323D

 85 93  0     1  0  0  0  0  0999 V2000
  -24.9210  -35.1922   23.3192 C   0  0  0  0  0  0  0  0  0  0  0  0
  -25.6762  -34.0636   23.0169 C   0  0  0  0  0  0  0  0  0  0  0  0
  -25.0444  -12.8796   20.5167 C   0  0  0  0  0  0  0  0  0  0  0  0
  -25.0772  -12.0674   22.7919 C   0  0  0  0  0  0  0  0  0  0  0  0
  -23.6628  -35.0518   23.9031 C   0  0  0  0  0  0  0  0  0  0  0  0
  -25.1739  -32.7938   23.2995 C   0  0  0  0  0  0  0  0  0  0  0  0
  -25.8704  -29.5361   19.4855 C   0  0  0  0  0  0  0  0  0  0  0  0
  -25.5033  -11.6412   20.0680 C   0  0  0  0  0  0  0  0  0  0  0  0
  -25.5361  -10.8290   22.3432 C   0  0  0  0  0  0  0  0  0  0  0  0
  -27.1452  -28.9911   19.3383 C   0  0  0  0  0  0  0  0  0  0  0  0
  -26.3722   -7.3389   21.7613 C   0  0  0  0  0  0  0  0  0  0  0  0
  -25.7742   -6.1948   22.2893 C   0  0  0  0  0  0  0  0  0  0  0  0
  -26.4035  -26.9750   20.4358 C   0  0  0  0  0  0  0  0  0  0  0  0
  -23.6344   -6.9169   21.4308 C   0  0  0  0  0  0  0  0  0  0  0  0
  -29.6109  -21.8165   19.1776 C   0  0  0  0  0  0  0  0  0  0  0  0
  -24.8314  -13.0927   21.8787 C   0  0  0  0  0  0  0  0  0  0  0  0
  -23.0189  -14.7746   22.5061 C   0  0  0  0  0  0  0  0  0  0  0  0
  -23.1408  -33.7794   24.1842 C   0  0  0  0  0  0  0  0  0  0  0  0
  -24.8538  -28.8076   20.1197 C   0  0  0  0  0  0  0  0  0  0  0  0
  -23.9080  -32.6363   23.8890 C   0  0  0  0  0  0  0  0  0  0  0  0
  -25.1160  -27.5120   20.5874 C   0  0  0  0  0  0  0  0  0  0  0  0
  -28.9561  -22.1768   18.0175 C   0  0  0  0  0  0  0  0  0  0  0  0
  -25.7491  -10.6159   20.9812 C   0  0  0  0  0  0  0  0  0  0  0  0
  -27.4128  -27.7116   19.8161 C   0  0  0  0  0  0  0  0  0  0  0  0
  -25.6013   -8.2722   21.0680 C   0  0  0  0  0  0  0  0  0  0  0  0
  -24.4054   -5.9837   22.1241 C   0  0  0  0  0  0  0  0  0  0  0  0
  -24.2325   -8.0611   20.9028 C   0  0  0  0  0  0  0  0  0  0  0  0
  -24.3579  -14.3720   22.3429 C   0  0  0  0  0  0  0  0  0  0  0  0
  -27.6007  -21.9191   17.9924 C   0  0  0  0  0  0  0  0  0  0  0  0
  -23.1023  -16.0659   22.9667 C   0  0  0  0  0  0  0  0  0  0  0  0
  -27.6762  -21.0481   20.0906 C   0  0  0  0  0  0  0  0  0  0  0  0
  -21.8079  -14.0465   22.2632 C   0  0  0  0  0  0  0  0  0  0  0  0
  -23.0912  -29.2236   22.7320 C   0  0  0  0  0  0  0  0  0  0  0  0
  -21.5639  -26.5738   21.6510 C   0  0  0  0  0  0  0  0  0  0  0  0
  -21.6753  -23.7331   19.7630 C   0  0  0  0  0  0  0  0  0  0  0  0
  -27.6765  -20.0792   22.3833 C   0  0  0  0  0  0  0  0  0  0  0  0
  -21.7958  -33.6794   24.8592 C   0  0  0  0  0  0  0  0  0  0  0  0
  -23.4767  -29.3991   20.2467 C   0  0  0  0  0  0  0  0  0  0  0  0
  -24.0537  -26.6807   21.2576 C   0  0  0  0  0  0  0  0  0  0  0  0
  -21.1781  -32.2855   24.7829 C   0  0  0  0  0  0  0  0  0  0  0  0
  -25.9474  -18.9897   25.4547 C   0  0  0  0  0  0  0  0  0  0  0  0
  -22.2119  -31.2230   25.1426 C   0  0  0  0  0  0  0  0  0  0  0  0
  -25.2851  -17.6812   25.0266 C   0  0  0  0  0  0  0  0  0  0  0  0
  -27.2330  -19.2551   24.6770 C   0  0  0  0  0  0  0  0  0  0  0  0
  -26.3926  -17.9211   22.7680 C   0  0  0  0  0  0  0  0  0  0  0  0
  -23.3871  -31.2411   24.1577 C   0  0  1  0  0  0  0  0  0  0  0  0
  -22.6565  -28.7682   21.3677 C   0  0  1  0  0  0  0  0  0  0  0  0
  -25.0720  -17.6468   23.5033 C   0  0  1  0  0  0  0  0  0  0  0  0
  -25.2898  -22.2038   17.0620 C   0  0  0  0  0  0  0  0  0  0  0  0
  -20.2865  -21.7491   19.1055 C   0  0  0  0  0  0  0  0  0  0  0  0
  -22.0516  -25.3268   24.3927 C   0  0  0  0  0  0  0  0  0  0  0  0
  -21.5228  -23.0929   23.3935 C   0  0  0  0  0  0  0  0  0  0  0  0
  -19.7854  -24.8826   23.4328 C   0  0  0  0  0  0  0  0  0  0  0  0
  -25.5214  -20.4254   21.1978 C   0  0  0  0  0  0  0  0  0  0  0  0
  -21.7799  -24.4635   16.8969 C   0  0  0  0  0  0  0  0  0  0  0  0
  -29.6975  -22.8101   16.8671 C   0  0  0  0  0  0  0  0  0  0  0  0
  -26.7895  -22.2656   16.7876 C   0  0  0  0  0  0  0  0  0  0  0  0
  -30.4551  -24.0875   17.2465 C   0  0  0  0  0  0  0  0  0  0  0  0
  -29.5310  -25.2150   17.7173 C   0  0  0  0  0  0  0  0  0  0  0  0
  -30.3295  -26.4558   18.1132 C   0  0  0  0  0  0  0  0  0  0  0  0
  -29.4181  -27.5967   18.5428 C   0  0  0  0  0  0  0  0  0  1  0  0
  -21.7391  -25.0865   21.8411 C   0  0  1  0  0  0  0  0  0  0  0  0
  -20.7076  -23.1642   18.7411 C   0  0  2  0  0  0  0  0  0  0  0  0
  -21.2955  -24.6133   23.2542 C   0  0  0  0  0  0  0  0  0  0  0  0
  -28.9998  -21.2480   20.2376 N   0  0  0  0  0  0  0  0  0  0  0  0
  -25.2283  -15.3299   22.6728 N   0  0  0  0  0  0  0  0  0  0  0  0
  -26.9260  -21.3536   19.0148 N   0  0  0  0  0  0  0  0  0  0  0  0
  -24.4344  -16.3473   23.0479 N   0  0  0  0  0  0  0  0  0  0  0  0
  -22.7249  -27.3055   21.3638 N   0  0  0  0  0  0  0  0  0  0  0  0
  -27.0124  -19.1716   23.2327 N   0  0  0  0  0  0  0  0  0  0  0  0
  -22.1655  -16.9767   23.3061 N   0  0  0  0  0  0  0  0  0  0  0  0
  -21.9029  -12.7303   21.7912 N   0  0  0  0  0  0  0  0  0  0  0  0
  -23.0182  -30.5908   22.9186 N   0  0  0  0  0  0  0  0  0  0  0  0
  -21.0206  -24.4473   20.7441 N   0  0  0  0  0  0  0  0  0  0  0  0
  -26.9879  -20.4408   21.2052 N   0  0  0  0  0  0  0  0  0  0  0  0
  -21.3384  -23.1339   17.3912 N   0  3  0  0  0  0  0  0  0  0  0  0
  -20.6749  -14.5538   22.4433 O   0  0  0  0  0  0  0  0  0  0  0  0
  -23.4639  -28.3956   23.5550 O   0  0  0  0  0  0  0  0  0  0  0  0
  -20.4374  -27.0671   21.7466 O   0  0  0  0  0  0  0  0  0  0  0  0
  -22.8902  -23.5580   19.6996 O   0  0  0  0  0  0  0  0  0  0  0  0
  -28.7831  -20.5511   22.6703 O   0  0  0  0  0  0  0  0  0  0  0  0
  -26.1967   -9.4072   20.5437 O   0  0  0  0  0  0  0  0  0  0  0  0
  -28.6564  -27.1776   19.6743 O   0  0  0  0  0  0  0  0  0  1  0  0
  -23.8315   -4.8842   22.6299 F   0  0  0  0  0  0  0  0  0  0  0  0
  -23.4869   -8.9535   20.2367 F   0  0  0  0  0  0  0  0  0  0  0  0
  1  2  1  0  0  0  0
  1  5  2  0  0  0  0
  2  6  2  0  0  0  0
  3  8  2  0  0  0  0
  3 16  1  0  0  0  0
  4  9  1  0  0  0  0
  4 16  2  0  0  0  0
  5 18  1  0  0  0  0
  6 20  1  0  0  0  0
  7 10  2  0  0  0  0
  7 19  1  0  0  0  0
  8 23  1  0  0  0  0
  9 23  2  0  0  0  0
 10 24  1  0  0  0  0
 11 12  2  0  0  0  0
 11 25  1  0  0  0  0
 12 26  1  0  0  0  0
 13 21  1  0  0  0  0
 13 24  2  0  0  0  0
 14 26  2  0  0  0  0
 14 27  1  0  0  0  0
 15 22  1  0  0  0  0
 15 65  2  0  0  0  0
 16 28  1  0  0  0  0
 17 28  1  0  0  0  0
 17 30  2  0  0  0  0
 17 32  1  0  0  0  0
 18 20  2  0  0  0  0
 18 37  1  0  0  0  0
 19 21  2  0  0  0  0
 19 38  1  0  0  0  0
 20 46  1  0  0  0  0
 21 39  1  0  0  0  0
 22 29  2  0  0  0  0
 22 56  1  0  0  0  0
 23 82  1  0  0  0  0
 24 83  1  0  0  0  0
 25 27  2  0  0  0  0
 25 82  1  0  0  0  0
 26 84  1  0  0  0  0
 27 85  1  0  0  0  0
 28 66  2  0  0  0  0
 29 57  1  0  0  0  0
 29 67  1  0  0  0  0
 30 68  1  0  0  0  0
 30 71  1  0  0  0  0
 31 65  1  0  0  0  0
 31 67  2  0  0  0  0
 31 75  1  0  0  0  0
 32 72  1  0  0  0  0
 32 77  2  0  0  0  0
 33 47  1  0  0  0  0
 33 73  1  0  0  0  0
 33 78  2  0  0  0  0
 34 62  1  0  0  0  0
 34 69  1  0  0  0  0
 34 79  2  0  0  0  0
 35 63  1  0  0  0  0
 35 74  1  0  0  0  0
 35 80  2  0  0  0  0
 36 70  1  0  0  0  0
 36 75  1  0  0  0  0
 36 81  2  0  0  0  0
 37 40  1  0  0  0  0
 38 47  1  0  0  0  0
 39 69  1  0  0  0  0
 40 42  1  0  0  0  0
 41 43  1  0  0  0  0
 41 44  1  0  0  0  0
 42 46  1  0  0  0  0
 43 48  1  0  0  0  0
 44 70  1  0  0  0  0
 45 48  1  0  0  0  0
 45 70  1  0  0  0  0
 46 73  1  0  0  0  0
 47 69  1  0  0  0  0
 48 68  1  0  0  0  0
 49 57  1  0  0  0  0
 50 63  1  0  0  0  0
 51 64  1  0  0  0  0
 52 64  1  0  0  0  0
 53 64  1  0  0  0  0
 54 75  1  0  0  0  0
 55 76  1  0  0  0  0
 56 58  1  0  0  0  0
 58 59  1  0  0  0  0
 59 60  1  0  0  0  0
 60 61  1  0  0  0  0
 61 83  1  0  0  0  0
 62 64  1  0  0  0  0
 62 74  1  0  0  0  0
 63 76  1  0  0  0  0
 66 68  1  0  0  0  0
M  CHG  1  76   1
M  ISO  4  36 100  61 101  75 100  83 101
M  END
> <Batch ID>
0075

> <Smiles>
CCc1nc([100N:0](C)[100C:0](=O)N2CCCC(n3nc(-c4ccc(Oc5ccc(F)cc5F)cc4)c(C(N)=O)c3N)C2)ncc1CCCC[101CH2:1][101O:1]c1ccc2c(c1)CN(C(=O)C(NC(=O)C(C)NC)C(C)(C)C)C(C(=O)NC1CCCc3ccccc31)C2

> <Shape>
0.202

> <Color>
0.078

> <Negative vol penalty>
0.000

$$$$

  -OEChem-04052318323D

 91 99  0     1  0  0  0  0  0999 V2000
  -32.5916  -18.3287   21.0210 C   0  0  0  0  0  0  0  0  0  0  0  0
  -31.3484  -18.8220   20.6384 C   0  0  0  0  0  0  0  0  0  0  0  0
  -29.5688  -27.6873   21.5831 C   0  0  0  0  0  0  0  0  0  0  0  0
  -28.0851  -27.4894   19.6866 C   0  0  0  0  0  0  0  0  0  0  0  0
  -32.8197  -16.9533   21.0368 C   0  0  0  0  0  0  0  0  0  0  0  0
  -30.3328  -17.9402   20.2704 C   0  0  0  0  0  0  0  0  0  0  0  0
  -25.8689  -19.1475   22.3346 C   0  0  0  0  0  0  0  0  0  0  0  0
  -30.3082  -26.5998   21.1182 C   0  0  0  0  0  0  0  0  0  0  0  0
  -28.8245  -26.4018   19.2217 C   0  0  0  0  0  0  0  0  0  0  0  0
  -25.1601  -20.1964   21.7504 C   0  0  0  0  0  0  0  0  0  0  0  0
  -30.1073  -23.3485   17.7245 C   0  0  0  0  0  0  0  0  0  0  0  0
  -29.4040  -22.2301   17.2772 C   0  0  0  0  0  0  0  0  0  0  0  0
  -23.7728  -18.6026   20.5866 C   0  0  0  0  0  0  0  0  0  0  0  0
  -28.4042  -21.9845   19.4629 C   0  0  0  0  0  0  0  0  0  0  0  0
  -19.3654  -25.8639   18.7517 C   0  0  0  0  0  0  0  0  0  0  0  0
  -28.4572  -28.1321   20.8673 C   0  0  0  0  0  0  0  0  0  0  0  0
  -27.8977  -30.6147   21.0448 C   0  0  0  0  0  0  0  0  0  0  0  0
  -31.8034  -16.0538   20.6780 C   0  0  0  0  0  0  0  0  0  0  0  0
  -25.5415  -17.8162   22.0402 C   0  0  0  0  0  0  0  0  0  0  0  0
  -30.5480  -16.5516   20.2801 C   0  0  0  0  0  0  0  0  0  0  0  0
  -24.4774  -17.5387   21.1703 C   0  0  0  0  0  0  0  0  0  0  0  0
  -19.7317  -24.5592   18.5049 C   0  0  0  0  0  0  0  0  0  0  0  0
  -21.0025  -24.3572   19.0978 C   0  0  0  0  0  0  0  0  0  0  0  0
  -29.9361  -25.9570   19.9375 C   0  0  0  0  0  0  0  0  0  0  0  0
  -24.1138  -19.9240   20.8740 C   0  0  0  0  0  0  0  0  0  0  0  0
  -29.9591  -23.7849   19.0411 C   0  0  0  0  0  0  0  0  0  0  0  0
  -28.5524  -21.5481   18.1463 C   0  0  0  0  0  0  0  0  0  0  0  0
  -29.1076  -23.1029   19.9102 C   0  0  0  0  0  0  0  0  0  0  0  0
  -27.6928  -29.2552   21.3473 C   0  0  0  0  0  0  0  0  0  0  0  0
  -21.3740  -25.5446   19.6890 C   0  0  0  0  0  0  0  0  0  0  0  0
  -26.9157  -31.2737   21.7432 C   0  0  0  0  0  0  0  0  0  0  0  0
  -28.8873  -31.2271   20.2073 C   0  0  0  0  0  0  0  0  0  0  0  0
  -27.0700  -15.3751   20.6954 C   0  0  0  0  0  0  0  0  0  0  0  0
  -24.4104  -13.7352   21.5670 C   0  0  0  0  0  0  0  0  0  0  0  0
  -21.0908  -13.8071   22.3556 C   0  0  0  0  0  0  0  0  0  0  0  0
  -21.5346  -29.6047   23.7703 C   0  0  0  0  0  0  0  0  0  0  0  0
  -32.1119  -14.5776   20.6651 C   0  0  0  0  0  0  0  0  0  0  0  0
  -26.2985  -16.6960   22.6994 C   0  0  0  0  0  0  0  0  0  0  0  0
  -24.0731  -16.1266   20.8371 C   0  0  0  0  0  0  0  0  0  0  0  0
  -30.8667  -13.6955   20.6209 C   0  0  0  0  0  0  0  0  0  0  0  0
  -24.2372  -30.9032   25.6903 C   0  0  0  0  0  0  0  0  0  0  0  0
  -29.8883  -14.2057   19.5677 C   0  0  0  0  0  0  0  0  0  0  0  0
  -25.4478  -30.7508   24.7677 C   0  0  0  0  0  0  0  0  0  0  0  0
  -23.2628  -29.7371   25.5401 C   0  0  0  0  0  0  0  0  0  0  0  0
  -24.0306  -29.3215   23.2355 C   0  0  0  0  0  0  0  0  0  0  0  0
  -29.4134  -15.6259   19.8978 C   0  0  1  0  0  0  0  0  0  0  0  0
  -26.2122  -15.3820   21.9290 C   0  0  1  0  0  0  0  0  0  0  0  0
  -25.0144  -30.5017   23.3105 C   0  0  2  0  0  0  0  0  0  0  0  0
  -23.8816  -25.7801   19.5903 C   0  0  0  0  0  0  0  0  0  0  0  0
  -22.7664  -25.0619   21.7341 C   0  0  0  0  0  0  0  0  0  0  0  0
  -19.1829  -12.3040   22.9863 C   0  0  0  0  0  0  0  0  0  0  0  0
  -18.0434  -24.2371   16.6633 C   0  0  0  0  0  0  0  0  0  0  0  0
  -17.9801  -22.7591   18.6999 C   0  0  0  0  0  0  0  0  0  0  0  0
  -19.7596  -22.4677   16.9883 C   0  0  0  0  0  0  0  0  0  0  0  0
  -24.1773  -12.8179   18.6663 C   0  0  0  0  0  0  0  0  0  0  0  0
  -21.8137  -12.1437   19.1424 C   0  0  0  0  0  0  0  0  0  0  0  0
  -23.6919  -11.0459   20.3630 C   0  0  0  0  0  0  0  0  0  0  0  0
  -19.5672  -27.0066   22.2155 C   0  0  0  0  0  0  0  0  0  0  0  0
  -18.0234  -28.2687   20.7264 C   0  0  0  0  0  0  0  0  0  0  0  0
  -20.7306  -15.1645   24.9607 C   0  0  0  0  0  0  0  0  0  0  0  0
  -21.8029  -23.0794   19.0853 C   0  0  0  0  0  0  0  0  0  0  0  0
  -21.2892  -22.0213   20.0642 C   0  0  0  0  0  0  0  0  0  0  0  0
  -20.3585  -27.8265   19.9264 C   0  0  0  0  0  0  0  0  0  0  0  0
  -19.9239  -29.4602   21.8877 C   0  0  0  0  0  0  0  0  0  0  0  0
  -22.0510  -20.7035   19.9834 C   0  0  0  0  0  0  0  0  0  1  0  0
  -22.5971  -25.8934   20.4423 C   0  0  0  0  0  0  0  0  0  0  0  0
  -23.0798  -13.4347   20.9204 C   0  0  1  0  0  0  0  0  0  0  0  0
  -20.3135  -13.1819   23.4998 C   0  0  2  0  0  0  0  0  0  0  0  0
  -18.9376  -23.5635   17.7578 C   0  0  0  0  0  0  0  0  0  0  0  0
  -23.1993  -12.3873   19.7776 C   0  0  0  0  0  0  0  0  0  0  0  0
  -19.4956  -28.1507   21.1834 C   0  0  0  0  0  0  0  0  0  0  0  0
  -26.6616  -29.0606   22.1737 N   0  0  0  0  0  0  0  0  0  0  0  0
  -20.3711  -26.4532   19.4726 N   0  0  0  0  0  0  0  0  0  0  0  0
  -26.2099  -30.3066   22.3965 N   0  0  0  0  0  0  0  0  0  0  0  0
  -24.8477  -15.0657   21.5020 N   0  0  0  0  0  0  0  0  0  0  0  0
  -22.8901  -29.5552   24.1351 N   0  0  0  0  0  0  0  0  0  0  0  0
  -26.5958  -32.5803   21.8562 N   0  0  0  0  0  0  0  0  0  0  0  0
  -29.8208  -30.4030   19.5639 N   0  0  0  0  0  0  0  0  0  0  0  0
  -28.4119  -15.5940   20.9420 N   0  0  0  0  0  0  0  0  0  0  0  0
  -22.1809  -13.0413   22.0000 N   0  0  0  0  0  0  0  0  0  0  0  0
  -21.2689  -29.4291   22.4178 N   0  0  0  0  0  0  0  0  0  0  0  0
  -19.7280  -14.2419   24.3685 N   0  3  0  0  0  0  0  0  0  0  0  0
  -28.9523  -32.4696   20.0476 O   0  0  0  0  0  0  0  0  0  0  0  0
  -26.5529  -15.1837   19.6010 O   0  0  0  0  0  0  0  0  0  0  0  0
  -25.0354  -12.8243   22.1160 O   0  0  0  0  0  0  0  0  0  0  0  0
  -20.7616  -14.8669   21.8273 O   0  0  0  0  0  0  0  0  0  0  0  0
  -20.6287  -29.7969   24.5885 O   0  0  0  0  0  0  0  0  0  0  0  0
  -30.6574  -24.8959   19.4834 O   0  0  0  0  0  0  0  0  0  0  0  0
  -23.4207  -20.9459   20.3019 O   0  0  0  0  0  0  0  0  0  1  0  0
  -27.8759  -20.4750   17.7162 F   0  0  0  0  0  0  0  0  0  0  0  0
  -28.9602  -23.5181   21.1758 F   0  0  0  0  0  0  0  0  0  0  0  0
  1  2  1  0  0  0  0
  1  5  2  0  0  0  0
  2  6  2  0  0  0  0
  3  8  2  0  0  0  0
  3 16  1  0  0  0  0
  4  9  1  0  0  0  0
  4 16  2  0  0  0  0
  5 18  1  0  0  0  0
  6 20  1  0  0  0  0
  7 10  2  0  0  0  0
  7 19  1  0  0  0  0
  8 24  1  0  0  0  0
  9 24  2  0  0  0  0
 10 25  1  0  0  0  0
 11 12  2  0  0  0  0
 11 26  1  0  0  0  0
 12 27  1  0  0  0  0
 13 21  1  0  0  0  0
 13 25  2  0  0  0  0
 14 27  2  0  0  0  0
 14 28  1  0  0  0  0
 15 22  2  0  0  0  0
 15 73  1  0  0  0  0
 16 29  1  0  0  0  0
 17 29  1  0  0  0  0
 17 31  2  0  0  0  0
 17 32  1  0  0  0  0
 18 20  2  0  0  0  0
 18 37  1  0  0  0  0
 19 21  2  0  0  0  0
 19 38  1  0  0  0  0
 20 46  1  0  0  0  0
 21 39  1  0  0  0  0
 22 23  1  0  0  0  0
 22 69  1  0  0  0  0
 23 30  2  0  0  0  0
 23 61  1  0  0  0  0
 24 88  1  0  0  0  0
 25 89  1  0  0  0  0
 26 28  2  0  0  0  0
 26 88  1  0  0  0  0
 27 90  1  0  0  0  0
 28 91  1  0  0  0  0
 29 72  2  0  0  0  0
 30 66  1  0  0  0  0
 30 73  1  0  0  0  0
 31 74  1  0  0  0  0
 31 77  1  0  0  0  0
 32 78  1  0  0  0  0
 32 83  2  0  0  0  0
 33 47  1  0  0  0  0
 33 79  1  0  0  0  0
 33 84  2  0  0  0  0
 34 67  1  0  0  0  0
 34 75  1  0  0  0  0
 34 85  2  0  0  0  0
 35 68  1  0  0  0  0
 35 80  1  0  0  0  0
 35 86  2  0  0  0  0
 36 76  1  0  0  0  0
 36 81  1  0  0  0  0
 36 87  2  0  0  0  0
 37 40  1  0  0  0  0
 38 47  1  0  0  0  0
 39 75  1  0  0  0  0
 40 42  1  0  0  0  0
 41 43  1  0  0  0  0
 41 44  1  0  0  0  0
 42 46  1  0  0  0  0
 43 48  1  0  0  0  0
 44 76  1  0  0  0  0
 45 48  1  0  0  0  0
 45 76  1  0  0  0  0
 46 79  1  0  0  0  0
 47 75  1  0  0  0  0
 48 74  1  0  0  0  0
 49 66  1  0  0  0  0
 50 66  1  0  0  0  0
 51 68  1  0  0  0  0
 52 69  1  0  0  0  0
 53 69  1  0  0  0  0
 54 69  1  0  0  0  0
 55 70  1  0  0  0  0
 56 70  1  0  0  0  0
 57 70  1  0  0  0  0
 58 71  1  0  0  0  0
 59 71  1  0  0  0  0
 60 82  1  0  0  0  0
 61 62  1  0  0  0  0
 62 65  1  0  0  0  0
 63 71  1  0  0  0  0
 63 73  1  0  0  0  0
 64 71  1  0  0  0  0
 64 81  1  0  0  0  0
 65 89  1  0  0  0  0
 67 70  1  0  0  0  0
 67 80  1  0  0  0  0
 68 82  1  0  0  0  0
 72 74  1  0  0  0  0
M  CHG  1  82   1
M  ISO  4  36 100  65 101  81 100  89 101
M  END
> <Batch ID>
0075

> <Smiles>
CNC(C)C(=O)NC(C(=O)N1Cc2cc([101O:1][101CH2:1]CCc3c(C(C)(C)C)cn(CC(C)(C)C[100NH:0][100C:0](=O)N4CCCC(n5nc(-c6ccc(Oc7ccc(F)cc7F)cc6)c(C(N)=O)c5N)C4)c3C(C)C)ccc2CC1C(=O)NC1CCCc2ccccc21)C(C)(C)C

> <Shape>
0.242

> <Color>
0.054

> <Negative vol penalty>
0.000

$$$$

  -OEChem-04052318323D

 85 93  0     1  0  0  0  0  0999 V2000
  -30.0779  -23.8903   15.6555 C   0  0  0  0  0  0  0  0  0  0  0  0
  -28.7310  -24.1022   15.9318 C   0  0  0  0  0  0  0  0  0  0  0  0
  -26.2689  -12.8467   19.6148 C   0  0  0  0  0  0  0  0  0  0  0  0
  -24.3517  -13.2638   21.0246 C   0  0  0  0  0  0  0  0  0  0  0  0
  -31.0246  -24.0136   16.6716 C   0  0  0  0  0  0  0  0  0  0  0  0
  -28.3299  -24.4365   17.2248 C   0  0  0  0  0  0  0  0  0  0  0  0
  -23.7322  -28.1605   18.8057 C   0  0  0  0  0  0  0  0  0  0  0  0
  -26.2350  -11.4977   19.9677 C   0  0  0  0  0  0  0  0  0  0  0  0
  -24.3178  -11.9147   21.3776 C   0  0  0  0  0  0  0  0  0  0  0  0
  -22.4190  -27.9130   19.2032 C   0  0  0  0  0  0  0  0  0  0  0  0
  -23.2478   -9.0120   20.0174 C   0  0  0  0  0  0  0  0  0  0  0  0
  -22.0073   -8.3743   20.0157 C   0  0  0  0  0  0  0  0  0  0  0  0
  -23.0959  -28.0658   21.5136 C   0  0  0  0  0  0  0  0  0  0  0  0
  -21.8319  -24.1400   21.4632 C   0  0  0  0  0  0  0  0  0  0  0  0
  -22.2609   -7.8747   22.3659 C   0  0  0  0  0  0  0  0  0  0  0  0
  -20.6695  -21.9242   20.3749 C   0  0  0  0  0  0  0  0  0  0  0  0
  -25.3273  -13.7298   20.1433 C   0  0  0  0  0  0  0  0  0  0  0  0
  -24.7005  -15.7368   18.6988 C   0  0  0  0  0  0  0  0  0  0  0  0
  -30.6359  -24.3591   17.9756 C   0  0  0  0  0  0  0  0  0  0  0  0
  -24.7409  -28.3520   19.7609 C   0  0  0  0  0  0  0  0  0  0  0  0
  -29.2721  -24.5633   18.2596 C   0  0  0  0  0  0  0  0  0  0  0  0
  -24.4206  -28.3181   21.1256 C   0  0  0  0  0  0  0  0  0  0  0  0
  -20.4452  -24.0445   21.4287 C   0  0  0  0  0  0  0  0  0  0  0  0
  -19.8450  -22.9187   20.8758 C   0  0  0  0  0  0  0  0  0  0  0  0
  -25.2595  -11.0317   20.8491 C   0  0  0  0  0  0  0  0  0  0  0  0
  -22.1012  -27.8627   20.5573 C   0  0  0  0  0  0  0  0  0  0  0  0
  -23.9949   -9.0811   21.1933 C   0  0  0  0  0  0  0  0  0  0  0  0
  -21.5138   -7.8056   21.1899 C   0  0  0  0  0  0  0  0  0  0  0  0
  -23.5014   -8.5125   22.3675 C   0  0  0  0  0  0  0  0  0  0  0  0
  -25.3621  -15.1235   19.7795 C   0  0  0  0  0  0  0  0  0  0  0  0
  -22.5674  -23.0907   20.9362 C   0  0  0  0  0  0  0  0  0  0  0  0
  -25.0529  -17.0614   18.7875 C   0  0  0  0  0  0  0  0  0  0  0  0
  -23.8440  -15.1607   17.7037 C   0  0  0  0  0  0  0  0  0  0  0  0
  -27.4314  -26.8374   20.5164 C   0  0  0  0  0  0  0  0  0  0  0  0
  -27.8264  -29.3550   22.5234 C   0  0  0  0  0  0  0  0  0  0  0  0
  -26.3967  -31.8786   24.3218 C   0  0  0  0  0  0  0  0  0  0  0  0
  -25.8710  -21.6886   21.7983 C   0  0  0  0  0  0  0  0  0  0  0  0
  -31.6902  -24.4345   19.0514 C   0  0  0  0  0  0  0  0  0  0  0  0
  -26.1475  -28.6445   19.3156 C   0  0  0  0  0  0  0  0  0  0  0  0
  -25.4630  -28.5372   22.1905 C   0  0  0  0  0  0  0  0  0  0  0  0
  -31.2239  -25.1590   20.3115 C   0  0  0  0  0  0  0  0  0  0  0  0
  -28.5536  -19.3537   21.6294 C   0  0  0  0  0  0  0  0  0  0  0  0
  -29.8431  -24.6649   20.7313 C   0  0  0  0  0  0  0  0  0  0  0  0
  -27.9066  -18.0944   21.0501 C   0  0  0  0  0  0  0  0  0  0  0  0
  -27.6044  -20.0951   22.5682 C   0  0  0  0  0  0  0  0  0  0  0  0
  -25.6408  -19.1604   21.4087 C   0  0  0  0  0  0  0  0  0  0  0  0
  -28.8005  -24.9518   19.6441 C   0  0  1  0  0  0  0  0  0  0  0  0
  -27.1914  -28.3142   20.3779 C   0  0  1  0  0  0  0  0  0  0  0  0
  -26.5400  -18.4089   20.4122 C   0  0  2  0  0  0  0  0  0  0  0  0
  -17.8611  -21.5556   21.6240 C   0  0  0  0  0  0  0  0  0  0  0  0
  -17.8409  -22.6766   19.3661 C   0  0  0  0  0  0  0  0  0  0  0  0
  -24.6404  -23.8250   19.7012 C   0  0  0  0  0  0  0  0  0  0  0  0
  -26.9718  -33.7475   25.8946 C   0  0  0  0  0  0  0  0  0  0  0  0
  -28.2061  -27.3363   24.7796 C   0  0  0  0  0  0  0  0  0  0  0  0
  -27.8247  -29.1950   26.4130 C   0  0  0  0  0  0  0  0  0  0  0  0
  -29.7683  -29.2879   24.8521 C   0  0  0  0  0  0  0  0  0  0  0  0
  -25.3303  -33.9231   22.4667 C   0  0  0  0  0  0  0  0  0  0  0  0
  -19.6156  -25.1693   21.9945 C   0  0  0  0  0  0  0  0  0  0  0  0
  -18.9896  -26.0700   20.9275 C   0  0  0  0  0  0  0  0  0  0  0  0
  -20.0196  -26.8139   20.0853 C   0  0  0  0  0  0  0  0  0  1  0  0
  -18.3649  -22.7654   20.8128 C   0  0  0  0  0  0  0  0  0  0  0  0
  -24.0580  -23.1592   20.9560 C   0  0  2  0  0  0  0  0  0  0  0  0
  -27.4354  -29.6566   23.9500 C   0  0  1  0  0  0  0  0  0  0  0  0
  -26.7450  -33.3511   24.4440 C   0  0  2  0  0  0  0  0  0  0  0  0
  -28.2891  -28.8629   24.9789 C   0  0  0  0  0  0  0  0  0  0  0  0
  -22.0201  -21.9814   20.3909 N   0  0  0  0  0  0  0  0  0  0  0  0
  -26.0805  -15.9875   20.5016 N   0  0  0  0  0  0  0  0  0  0  0  0
  -25.8724  -17.1571   19.8734 N   0  0  0  0  0  0  0  0  0  0  0  0
  -26.8251  -28.8135   21.7049 N   0  0  0  0  0  0  0  0  0  0  0  0
  -26.3278  -20.3643   21.9021 N   0  0  0  0  0  0  0  0  0  0  0  0
  -24.7386  -18.1418   18.0417 N   0  0  0  0  0  0  0  0  0  0  0  0
  -23.5866  -13.7841   17.7596 N   0  0  0  0  0  0  0  0  0  0  0  0
  -28.4095  -26.3449   19.6737 N   0  0  0  0  0  0  0  0  0  0  0  0
  -27.5164  -31.1057   24.0978 N   0  0  0  0  0  0  0  0  0  0  0  0
  -24.6552  -21.8562   21.1468 N   0  0  0  0  0  0  0  0  0  0  0  0
  -25.6439  -34.1912   23.8938 N   0  3  0  0  0  0  0  0  0  0  0  0
  -23.3356  -15.8435   16.7823 O   0  0  0  0  0  0  0  0  0  0  0  0
  -26.7786  -26.1928   21.3288 O   0  0  0  0  0  0  0  0  0  0  0  0
  -28.9758  -29.5978   22.1471 O   0  0  0  0  0  0  0  0  0  0  0  0
  -25.2468  -31.4558   24.4194 O   0  0  0  0  0  0  0  0  0  0  0  0
  -26.5027  -22.6508   22.2478 O   0  0  0  0  0  0  0  0  0  0  0  0
  -25.2259   -9.7153   21.1935 O   0  0  0  0  0  0  0  0  0  0  0  0
  -20.8203  -27.6207   20.9480 O   0  0  0  0  0  0  0  0  0  1  0  0
  -20.3219   -7.1946   21.1885 F   0  0  0  0  0  0  0  0  0  0  0  0
  -24.2141   -8.5767   23.5006 F   0  0  0  0  0  0  0  0  0  0  0  0
  1  2  1  0  0  0  0
  1  5  2  0  0  0  0
  2  6  2  0  0  0  0
  3  8  2  0  0  0  0
  3 17  1  0  0  0  0
  4  9  1  0  0  0  0
  4 17  2  0  0  0  0
  5 19  1  0  0  0  0
  6 21  1  0  0  0  0
  7 10  2  0  0  0  0
  7 20  1  0  0  0  0
  8 25  1  0  0  0  0
  9 25  2  0  0  0  0
 10 26  1  0  0  0  0
 11 12  2  0  0  0  0
 11 27  1  0  0  0  0
 12 28  1  0  0  0  0
 13 22  1  0  0  0  0
 13 26  2  0  0  0  0
 14 23  1  0  0  0  0
 14 31  2  0  0  0  0
 15 28  2  0  0  0  0
 15 29  1  0  0  0  0
 16 24  1  0  0  0  0
 16 66  2  0  0  0  0
 17 30  1  0  0  0  0
 18 30  1  0  0  0  0
 18 32  2  0  0  0  0
 18 33  1  0  0  0  0
 19 21  2  0  0  0  0
 19 38  1  0  0  0  0
 20 22  2  0  0  0  0
 20 39  1  0  0  0  0
 21 47  1  0  0  0  0
 22 40  1  0  0  0  0
 23 24  2  0  0  0  0
 23 58  1  0  0  0  0
 24 61  1  0  0  0  0
 25 82  1  0  0  0  0
 26 83  1  0  0  0  0
 27 29  2  0  0  0  0
 27 82  1  0  0  0  0
 28 84  1  0  0  0  0
 29 85  1  0  0  0  0
 30 67  2  0  0  0  0
 31 62  1  0  0  0  0
 31 66  1  0  0  0  0
 32 68  1  0  0  0  0
 32 71  1  0  0  0  0
 33 72  1  0  0  0  0
 33 77  2  0  0  0  0
 34 48  1  0  0  0  0
 34 73  1  0  0  0  0
 34 78  2  0  0  0  0
 35 63  1  0  0  0  0
 35 69  1  0  0  0  0
 35 79  2  0  0  0  0
 36 64  1  0  0  0  0
 36 74  1  0  0  0  0
 36 80  2  0  0  0  0
 37 70  1  0  0  0  0
 37 75  1  0  0  0  0
 37 81  2  0  0  0  0
 38 41  1  0  0  0  0
 39 48  1  0  0  0  0
 40 69  1  0  0  0  0
 41 43  1  0  0  0  0
 42 44  1  0  0  0  0
 42 45  1  0  0  0  0
 43 47  1  0  0  0  0
 44 49  1  0  0  0  0
 45 70  1  0  0  0  0
 46 49  1  0  0  0  0
 46 70  1  0  0  0  0
 47 73  1  0  0  0  0
 48 69  1  0  0  0  0
 49 68  1  0  0  0  0
 50 61  1  0  0  0  0
 51 61  1  0  0  0  0
 52 62  1  0  0  0  0
 53 64  1  0  0  0  0
 54 65  1  0  0  0  0
 55 65  1  0  0  0  0
 56 65  1  0  0  0  0
 57 76  1  0  0  0  0
 58 59  1  0  0  0  0
 59 60  1  0  0  0  0
 60 83  1  0  0  0  0
 62 75  1  0  0  0  0
 63 65  1  0  0  0  0
 63 74  1  0  0  0  0
 64 76  1  0  0  0  0
 67 68  1  0  0  0  0
M  CHG  1  76   1
M  ISO  4  37 100  60 101  75 100  83 101
M  END
> <Batch ID>
0075

> <Smiles>
CNC(C)C(=O)NC(C(=O)N1Cc2cc([101O:1][101CH2:1]CCc3cc(C(C)[100NH:0][100C:0](=O)N4CCCC(n5nc(-c6ccc(Oc7ccc(F)cc7F)cc6)c(C(N)=O)c5N)C4)ncc3C(C)C)ccc2CC1C(=O)NC1CCCc2ccccc21)C(C)(C)C

> <Shape>
0.243

> <Color>
0.060

> <Negative vol penalty>
0.000

$$$$

  -OEChem-04052318323D

 83 91  0     1  0  0  0  0  0999 V2000
  -17.4552  -25.4113   24.5954 C   0  0  0  0  0  0  0  0  0  0  0  0
  -18.0876  -24.5800   23.6764 C   0  0  0  0  0  0  0  0  0  0  0  0
  -25.1299  -13.7840   22.2287 C   0  0  0  0  0  0  0  0  0  0  0  0
  -27.4639  -13.2808   21.8594 C   0  0  0  0  0  0  0  0  0  0  0  0
  -17.6634  -26.7890   24.5460 C   0  0  0  0  0  0  0  0  0  0  0  0
  -18.9277  -25.1262   22.7067 C   0  0  0  0  0  0  0  0  0  0  0  0
  -23.2482  -22.5344   22.1965 C   0  0  0  0  0  0  0  0  0  0  0  0
  -24.7696  -12.6774   21.4597 C   0  0  0  0  0  0  0  0  0  0  0  0
  -27.1036  -12.1741   21.0905 C   0  0  0  0  0  0  0  0  0  0  0  0
  -23.1954  -21.3452   21.4706 C   0  0  0  0  0  0  0  0  0  0  0  0
  -23.2377   -9.7767   19.8930 C   0  0  0  0  0  0  0  0  0  0  0  0
  -22.2312   -8.9455   20.3844 C   0  0  0  0  0  0  0  0  0  0  0  0
  -24.0861  -22.4896   19.5427 C   0  0  0  0  0  0  0  0  0  0  0  0
  -23.5635   -8.4934   22.3485 C   0  0  0  0  0  0  0  0  0  0  0  0
  -29.0293  -19.2687   18.8037 C   0  0  0  0  0  0  0  0  0  0  0  0
  -29.3608  -17.1133   19.1213 C   0  0  0  0  0  0  0  0  0  0  0  0
  -26.4770  -14.0857   22.4285 C   0  0  0  0  0  0  0  0  0  0  0  0
  -27.0769  -15.2620   24.6112 C   0  0  0  0  0  0  0  0  0  0  0  0
  -18.5141  -27.3514   23.5813 C   0  0  0  0  0  0  0  0  0  0  0  0
  -23.7109  -23.7145   21.5967 C   0  0  0  0  0  0  0  0  0  0  0  0
  -19.1464  -26.5129   22.6436 C   0  0  0  0  0  0  0  0  0  0  0  0
  -24.1462  -23.6918   20.2639 C   0  0  0  0  0  0  0  0  0  0  0  0
  -25.7564  -11.8725   20.8906 C   0  0  0  0  0  0  0  0  0  0  0  0
  -23.6117  -21.3233   20.1427 C   0  0  0  0  0  0  0  0  0  0  0  0
  -24.4072   -9.9663   20.6293 C   0  0  0  0  0  0  0  0  0  0  0  0
  -22.3941   -8.3038   21.6122 C   0  0  0  0  0  0  0  0  0  0  0  0
  -24.5701   -9.3246   21.8571 C   0  0  0  0  0  0  0  0  0  0  0  0
  -26.8498  -15.2290   23.2222 C   0  0  0  0  0  0  0  0  0  0  0  0
  -29.9347  -19.0426   19.8135 C   0  0  0  0  0  0  0  0  0  0  0  0
  -27.4015  -16.5702   24.8750 C   0  0  0  0  0  0  0  0  0  0  0  0
  -27.0012  -14.2046   25.5765 C   0  0  0  0  0  0  0  0  0  0  0  0
  -22.4389  -26.5587   20.9672 C   0  0  0  0  0  0  0  0  0  0  0  0
  -25.4660  -27.2750   20.0475 C   0  0  0  0  0  0  0  0  0  0  0  0
  -29.6991  -20.9111   21.4122 C   0  0  0  0  0  0  0  0  0  0  0  0
  -28.4953  -26.1649   18.9348 C   0  0  0  0  0  0  0  0  0  0  0  0
  -18.6710  -28.8508   23.5375 C   0  0  0  0  0  0  0  0  0  0  0  0
  -23.7867  -24.9830   22.4013 C   0  0  0  0  0  0  0  0  0  0  0  0
  -24.6703  -24.9270   19.5797 C   0  0  0  0  0  0  0  0  0  0  0  0
  -19.8705  -29.3139   22.7146 C   0  0  0  0  0  0  0  0  0  0  0  0
  -26.6511  -21.0148   23.2936 C   0  0  0  0  0  0  0  0  0  0  0  0
  -19.9201  -28.5752   21.3810 C   0  0  0  0  0  0  0  0  0  0  0  0
  -26.3622  -19.5439   23.5903 C   0  0  0  0  0  0  0  0  0  0  0  0
  -27.2959  -21.1916   21.9224 C   0  0  0  0  0  0  0  0  0  0  0  0
  -28.2500  -18.9110   22.0217 C   0  0  0  0  0  0  0  0  0  0  0  0
  -20.0845  -27.0653   21.5924 C   0  0  1  0  0  0  0  0  0  0  0  0
  -23.7924  -26.2397   21.5364 C   0  0  1  0  0  0  0  0  0  0  0  0
  -27.6264  -18.6850   23.4103 C   0  0  2  0  0  0  0  0  0  0  0  0
  -30.9099  -26.2722   18.2598 C   0  0  0  0  0  0  0  0  0  0  0  0
  -31.5221  -20.9842   19.7628 C   0  0  0  0  0  0  0  0  0  0  0  0
  -31.5961  -19.4718   21.7480 C   0  0  0  0  0  0  0  0  0  0  0  0
  -24.3040  -28.1988   17.3818 C   0  0  0  0  0  0  0  0  0  0  0  0
  -26.6139  -28.1025   16.4209 C   0  0  0  0  0  0  0  0  0  0  0  0
  -26.1098  -29.6669   18.2974 C   0  0  0  0  0  0  0  0  0  0  0  0
  -29.4120  -25.7067   21.7112 C   0  0  0  0  0  0  0  0  0  0  0  0
  -25.7308  -18.3246   18.7416 C   0  0  0  0  0  0  0  0  0  0  0  0
  -26.3388  -17.2574   17.8292 C   0  0  0  0  0  0  0  0  0  0  0  0
  -24.3606  -17.8890   19.2690 C   0  0  0  0  0  0  0  0  0  0  0  0
  -27.6895  -17.7096   17.2697 C   0  0  0  0  0  0  0  0  0  0  0  0
  -23.7226  -18.9478   20.1600 C   0  0  0  0  0  0  0  0  0  1  0  0
  -26.2405  -27.1838   18.7549 C   0  0  1  0  0  0  0  0  0  0  0  0
  -29.9104  -26.4759   19.3877 C   0  0  2  0  0  0  0  0  0  0  0  0
  -30.6471  -20.0323   20.6357 C   0  0  0  0  0  0  0  0  0  0  0  0
  -25.8054  -28.2650   17.7258 C   0  0  0  0  0  0  0  0  0  0  0  0
  -30.1369  -17.6988   20.0061 N   0  0  0  0  0  0  0  0  0  0  0  0
  -27.0160  -16.4215   22.6441 N   0  0  0  0  0  0  0  0  0  0  0  0
  -28.6709  -18.0235   18.3697 N   0  0  0  0  0  0  0  0  0  0  0  0
  -27.3508  -17.2162   23.6748 N   0  0  0  0  0  0  0  0  0  0  0  0
  -24.7190  -26.1441   20.4066 N   0  0  0  0  0  0  0  0  0  0  0  0
  -28.4803  -20.3426   21.7829 N   0  0  0  0  0  0  0  0  0  0  0  0
  -27.7225  -17.2196   26.0142 N   0  0  0  0  0  0  0  0  0  0  0  0
  -26.6537  -12.9206   25.1352 N   0  0  0  0  0  0  0  0  0  0  0  0
  -21.4575  -26.7476   21.9214 N   0  0  0  0  0  0  0  0  0  0  0  0
  -27.6519  -27.2400   19.1199 N   0  0  0  0  0  0  0  0  0  0  0  0
  -30.2969  -25.5917   20.5235 N   0  3  0  0  0  0  0  0  0  0  0  0
  -27.2187  -14.3964   26.7970 O   0  0  0  0  0  0  0  0  0  0  0  0
  -22.2959  -26.6296   19.7522 O   0  0  0  0  0  0  0  0  0  0  0  0
  -25.5274  -28.3088   20.7176 O   0  0  0  0  0  0  0  0  0  0  0  0
  -30.0347  -22.0670   21.6830 O   0  0  0  0  0  0  0  0  0  0  0  0
  -28.1713  -25.0783   18.4605 O   0  0  0  0  0  0  0  0  0  0  0  0
  -25.4053  -10.7925   20.1404 O   0  0  0  0  0  0  0  0  0  0  0  0
  -23.5606  -20.1641   19.4317 O   0  0  0  0  0  0  0  0  0  1  0  0
  -21.4268   -7.5068   22.0847 F   0  0  0  0  0  0  0  0  0  0  0  0
  -25.6909   -9.5038   22.5695 F   0  0  0  0  0  0  0  0  0  0  0  0
  1  2  1  0  0  0  0
  1  5  2  0  0  0  0
  2  6  2  0  0  0  0
  3  8  2  0  0  0  0
  3 17  1  0  0  0  0
  4  9  1  0  0  0  0
  4 17  2  0  0  0  0
  5 19  1  0  0  0  0
  6 21  1  0  0  0  0
  7 10  2  0  0  0  0
  7 20  1  0  0  0  0
  8 23  1  0  0  0  0
  9 23  2  0  0  0  0
 10 24  1  0  0  0  0
 11 12  2  0  0  0  0
 11 25  1  0  0  0  0
 12 26  1  0  0  0  0
 13 22  1  0  0  0  0
 13 24  2  0  0  0  0
 14 26  2  0  0  0  0
 14 27  1  0  0  0  0
 15 29  2  0  0  0  0
 15 66  1  0  0  0  0
 16 64  2  0  0  0  0
 16 66  1  0  0  0  0
 17 28  1  0  0  0  0
 18 28  1  0  0  0  0
 18 30  2  0  0  0  0
 18 31  1  0  0  0  0
 19 21  2  0  0  0  0
 19 36  1  0  0  0  0
 20 22  2  0  0  0  0
 20 37  1  0  0  0  0
 21 45  1  0  0  0  0
 22 38  1  0  0  0  0
 23 80  1  0  0  0  0
 24 81  1  0  0  0  0
 25 27  2  0  0  0  0
 25 80  1  0  0  0  0
 26 82  1  0  0  0  0
 27 83  1  0  0  0  0
 28 65  2  0  0  0  0
 29 62  1  0  0  0  0
 29 64  1  0  0  0  0
 30 67  1  0  0  0  0
 30 70  1  0  0  0  0
 31 71  1  0  0  0  0
 31 75  2  0  0  0  0
 32 46  1  0  0  0  0
 32 72  1  0  0  0  0
 32 76  2  0  0  0  0
 33 60  1  0  0  0  0
 33 68  1  0  0  0  0
 33 77  2  0  0  0  0
 34 62  1  0  0  0  0
 34 69  1  0  0  0  0
 34 78  2  0  0  0  0
 35 61  1  0  0  0  0
 35 73  1  0  0  0  0
 35 79  2  0  0  0  0
 36 39  1  0  0  0  0
 37 46  1  0  0  0  0
 38 68  1  0  0  0  0
 39 41  1  0  0  0  0
 40 42  1  0  0  0  0
 40 43  1  0  0  0  0
 41 45  1  0  0  0  0
 42 47  1  0  0  0  0
 43 69  1  0  0  0  0
 44 47  1  0  0  0  0
 44 69  1  0  0  0  0
 45 72  1  0  0  0  0
 46 68  1  0  0  0  0
 47 67  1  0  0  0  0
 48 61  1  0  0  0  0
 49 62  1  0  0  0  0
 50 62  1  0  0  0  0
 51 63  1  0  0  0  0
 52 63  1  0  0  0  0
 53 63  1  0  0  0  0
 54 74  1  0  0  0  0
 55 56  1  0  0  0  0
 55 57  1  0  0  0  0
 56 58  1  0  0  0  0
 57 59  1  0  0  0  0
 58 66  1  0  0  0  0
 59 81  1  0  0  0  0
 60 63  1  0  0  0  0
 60 73  1  0  0  0  0
 61 74  1  0  0  0  0
 65 67  1  0  0  0  0
M  CHG  1  74   1
M  ISO  4  34 100  59 101  62 100  81 101
M  END
> <Batch ID>
0075

> <Smiles>
CNC(C)C(=O)NC(C(=O)N1Cc2cc([101O:1][101CH2:1]CCCCn3cnc([100C:0](C)(C)[100C:0](=O)N4CCCC(n5nc(-c6ccc(Oc7ccc(F)cc7F)cc6)c(C(N)=O)c5N)C4)c3)ccc2CC1C(=O)NC1CCCc2ccccc21)C(C)(C)C

> <Shape>
0.206

> <Color>
0.062

> <Negative vol penalty>
0.000

$$$$

  -OEChem-04052318323D

 86 94  0     1  0  0  0  0  0999 V2000
  -22.2954   -7.9933   20.6429 C   0  0  0  0  0  0  0  0  0  0  0  0
  -22.1863   -9.3747   20.5192 C   0  0  0  0  0  0  0  0  0  0  0  0
  -28.9293  -28.3029   20.4738 C   0  0  0  0  0  0  0  0  0  0  0  0
  -27.6073  -26.6376   19.3265 C   0  0  0  0  0  0  0  0  0  0  0  0
  -23.3508   -7.4406   21.3672 C   0  0  0  0  0  0  0  0  0  0  0  0
  -23.1321  -10.2043   21.1207 C   0  0  0  0  0  0  0  0  0  0  0  0
  -24.6775  -13.9289   18.0574 C   0  0  0  0  0  0  0  0  0  0  0  0
  -30.0634  -27.5046   20.3258 C   0  0  0  0  0  0  0  0  0  0  0  0
  -28.7414  -25.8393   19.1785 C   0  0  0  0  0  0  0  0  0  0  0  0
  -23.8261  -15.0223   17.9047 C   0  0  0  0  0  0  0  0  0  0  0  0
  -30.5666  -23.7259   21.0847 C   0  0  0  0  0  0  0  0  0  0  0  0
  -30.4426  -22.3654   21.3658 C   0  0  0  0  0  0  0  0  0  0  0  0
  -25.1556  -16.2704   19.4839 C   0  0  0  0  0  0  0  0  0  0  0  0
  -31.0909  -21.8378   19.0990 C   0  0  0  0  0  0  0  0  0  0  0  0
  -22.7191  -24.2647   19.6953 C   0  0  0  0  0  0  0  0  0  0  0  0
  -21.6110  -23.5438   21.4525 C   0  0  0  0  0  0  0  0  0  0  0  0
  -27.7011  -27.8694   19.9742 C   0  0  0  0  0  0  0  0  0  0  0  0
  -26.0602  -29.6784   19.2375 C   0  0  0  0  0  0  0  0  0  0  0  0
  -24.3154   -8.2636   21.9698 C   0  0  0  0  0  0  0  0  0  0  0  0
  -25.7699  -13.9944   18.9342 C   0  0  0  0  0  0  0  0  0  0  0  0
  -24.2006   -9.6622   21.8549 C   0  0  0  0  0  0  0  0  0  0  0  0
  -26.0208  -15.1774   19.6440 C   0  0  0  0  0  0  0  0  0  0  0  0
  -21.9941  -23.1637   20.1895 C   0  0  0  0  0  0  0  0  0  0  0  0
  -29.9695  -26.2728   19.6781 C   0  0  0  0  0  0  0  0  0  0  0  0
  -24.0634  -16.1923   18.6202 C   0  0  0  0  0  0  0  0  0  0  0  0
  -30.9527  -24.1425   19.8106 C   0  0  0  0  0  0  0  0  0  0  0  0
  -30.7048  -21.4213   20.3730 C   0  0  0  0  0  0  0  0  0  0  0  0
  -31.2148  -23.1984   18.8178 C   0  0  0  0  0  0  0  0  0  0  0  0
  -26.5291  -28.6934   20.1273 C   0  0  0  0  0  0  0  0  0  0  0  0
  -24.9242  -30.1677   19.8345 C   0  0  0  0  0  0  0  0  0  0  0  0
  -26.6030  -30.1121   17.9833 C   0  0  0  0  0  0  0  0  0  0  0  0
  -26.6383  -12.4230   21.5572 C   0  0  0  0  0  0  0  0  0  0  0  0
  -29.3496  -14.1751   21.2389 C   0  0  0  0  0  0  0  0  0  0  0  0
  -21.1300  -27.7565   23.8222 C   0  0  0  0  0  0  0  0  0  0  0  0
  -30.8596  -16.9796   20.0135 C   0  0  0  0  0  0  0  0  0  0  0  0
  -25.4118   -7.6217   22.7825 C   0  0  0  0  0  0  0  0  0  0  0  0
  -26.6944  -12.8155   19.0675 C   0  0  0  0  0  0  0  0  0  0  0  0
  -27.1917  -15.3058   20.5827 C   0  0  0  0  0  0  0  0  0  0  0  0
  -26.5816   -8.5581   23.0742 C   0  0  0  0  0  0  0  0  0  0  0  0
  -22.9310  -30.8396   24.1233 C   0  0  0  0  0  0  0  0  0  0  0  0
  -26.0732   -9.9151   23.5505 C   0  0  0  0  0  0  0  0  0  0  0  0
  -24.0325  -30.7161   23.0714 C   0  0  0  0  0  0  0  0  0  0  0  0
  -22.6181  -29.4916   24.7651 C   0  0  0  0  0  0  0  0  0  0  0  0
  -23.3650  -28.2944   22.7327 C   0  0  0  0  0  0  0  0  0  0  0  0
  -25.2205  -10.5943   22.4721 C   0  0  1  0  0  0  0  0  0  0  0  0
  -27.4791  -12.8164   20.3758 C   0  0  1  0  0  0  0  0  0  0  0  0
  -23.6904  -29.6284   22.0378 C   0  0  2  0  0  0  0  0  0  0  0  0
  -33.0761  -18.1543   19.9472 C   0  0  0  0  0  0  0  0  0  0  0  0
  -20.8786  -27.4447   21.3783 C   0  0  0  0  0  0  0  0  0  0  0  0
  -28.9495  -15.0874   24.1229 C   0  0  0  0  0  0  0  0  0  0  0  0
  -30.5859  -16.9327   23.6927 C   0  0  0  0  0  0  0  0  0  0  0  0
  -31.3164  -14.5541   23.5162 C   0  0  0  0  0  0  0  0  0  0  0  0
  -30.9905  -16.8129   17.0615 C   0  0  0  0  0  0  0  0  0  0  0  0
  -21.7003  -21.8603   19.4904 C   0  0  0  0  0  0  0  0  0  0  0  0
  -22.7605  -20.7787   19.7259 C   0  0  0  0  0  0  0  0  0  0  0  0
  -22.4852  -19.4911   18.9479 C   0  0  0  0  0  0  0  0  0  0  0  0
  -21.9655  -25.6195   22.8106 C   0  0  0  0  0  0  0  0  0  0  0  0
  -23.5358  -18.4277   19.2374 C   0  0  0  0  0  0  0  0  0  1  0  0
  -29.8138  -15.5251   21.7297 C   0  0  1  0  0  0  0  0  0  0  0  0
  -32.1532  -17.1721   19.2428 C   0  0  2  0  0  0  0  0  0  0  0  0
  -20.8919  -26.7351   22.7386 C   0  0  1  0  0  0  0  0  0  0  0  0
  -30.1431  -15.5221   23.2492 C   0  0  0  0  0  0  0  0  0  0  0  0
  -19.5121  -26.1237   23.0050 C   0  0  0  0  0  0  0  0  0  0  0  0
  -22.7933  -25.2689   20.5728 N   0  0  0  0  0  0  0  0  0  0  0  0
  -25.7543  -28.5636   21.2075 N   0  0  0  0  0  0  0  0  0  0  0  0
  -22.1100  -24.8005   21.6310 N   0  0  0  0  0  0  0  0  0  0  0  0
  -24.7872  -29.4734   21.0004 N   0  0  0  0  0  0  0  0  0  0  0  0
  -28.0631  -14.1234   20.6836 N   0  0  0  0  0  0  0  0  0  0  0  0
  -22.3204  -28.4801   23.7495 N   0  0  0  0  0  0  0  0  0  0  0  0
  -24.0391  -31.1199   19.4707 N   0  0  0  0  0  0  0  0  0  0  0  0
  -27.7761  -29.5034   17.5167 N   0  0  0  0  0  0  0  0  0  0  0  0
  -26.0656  -11.1701   21.4480 N   0  0  0  0  0  0  0  0  0  0  0  0
  -30.9339  -15.9066   20.8763 N   0  0  0  0  0  0  0  0  0  0  0  0
  -31.8690  -17.6920   17.8754 N   0  3  0  0  0  0  0  0  0  0  0  0
  -26.0729  -31.0242   17.3047 O   0  0  0  0  0  0  0  0  0  0  0  0
  -26.5191  -13.1980   22.4989 O   0  0  0  0  0  0  0  0  0  0  0  0
  -30.1033  -13.2037   21.3377 O   0  0  0  0  0  0  0  0  0  0  0  0
  -20.2807  -27.9073   24.7044 O   0  0  0  0  0  0  0  0  0  0  0  0
  -29.8823  -17.7104   19.8676 O   0  0  0  0  0  0  0  0  0  0  0  0
  -31.0761  -25.4936   19.5333 O   0  0  0  0  0  0  0  0  0  0  0  0
  -23.2335  -17.2608   18.4736 O   0  0  0  0  0  0  0  0  0  1  0  0
  -30.5871  -20.1148   20.6436 F   0  0  0  0  0  0  0  0  0  0  0  0
  -31.5873  -23.5925   17.5923 F   0  0  0  0  0  0  0  0  0  0  0  0
  -18.5373  -27.0602   22.9746 F   0  0  0  0  0  0  0  0  0  0  0  0
  -19.2029  -25.1901   22.0764 F   0  0  0  0  0  0  0  0  0  0  0  0
  -19.4596  -25.5221   24.2149 F   0  0  0  0  0  0  0  0  0  0  0  0
  1  2  1  0  0  0  0
  1  5  2  0  0  0  0
  2  6  2  0  0  0  0
  3  8  2  0  0  0  0
  3 17  1  0  0  0  0
  4  9  1  0  0  0  0
  4 17  2  0  0  0  0
  5 19  1  0  0  0  0
  6 21  1  0  0  0  0
  7 10  2  0  0  0  0
  7 20  1  0  0  0  0
  8 24  1  0  0  0  0
  9 24  2  0  0  0  0
 10 25  1  0  0  0  0
 11 12  2  0  0  0  0
 11 26  1  0  0  0  0
 12 27  1  0  0  0  0
 13 22  1  0  0  0  0
 13 25  2  0  0  0  0
 14 27  2  0  0  0  0
 14 28  1  0  0  0  0
 15 23  1  0  0  0  0
 15 64  2  0  0  0  0
 16 23  2  0  0  0  0
 16 66  1  0  0  0  0
 17 29  1  0  0  0  0
 18 29  1  0  0  0  0
 18 30  2  0  0  0  0
 18 31  1  0  0  0  0
 19 21  2  0  0  0  0
 19 36  1  0  0  0  0
 20 22  2  0  0  0  0
 20 37  1  0  0  0  0
 21 45  1  0  0  0  0
 22 38  1  0  0  0  0
 23 54  1  0  0  0  0
 24 80  1  0  0  0  0
 25 81  1  0  0  0  0
 26 28  2  0  0  0  0
 26 80  1  0  0  0  0
 27 82  1  0  0  0  0
 28 83  1  0  0  0  0
 29 65  2  0  0  0  0
 30 67  1  0  0  0  0
 30 70  1  0  0  0  0
 31 71  1  0  0  0  0
 31 75  2  0  0  0  0
 32 46  1  0  0  0  0
 32 72  1  0  0  0  0
 32 76  2  0  0  0  0
 33 59  1  0  0  0  0
 33 68  1  0  0  0  0
 33 77  2  0  0  0  0
 34 61  1  0  0  0  0
 34 69  1  0  0  0  0
 34 78  2  0  0  0  0
 35 60  1  0  0  0  0
 35 73  1  0  0  0  0
 35 79  2  0  0  0  0
 36 39  1  0  0  0  0
 37 46  1  0  0  0  0
 38 68  1  0  0  0  0
 39 41  1  0  0  0  0
 40 42  1  0  0  0  0
 40 43  1  0  0  0  0
 41 45  1  0  0  0  0
 42 47  1  0  0  0  0
 43 69  1  0  0  0  0
 44 47  1  0  0  0  0
 44 69  1  0  0  0  0
 45 72  1  0  0  0  0
 46 68  1  0  0  0  0
 47 67  1  0  0  0  0
 48 60  1  0  0  0  0
 49 61  1  0  0  0  0
 50 62  1  0  0  0  0
 51 62  1  0  0  0  0
 52 62  1  0  0  0  0
 53 74  1  0  0  0  0
 54 55  1  0  0  0  0
 55 56  1  0  0  0  0
 56 58  1  0  0  0  0
 57 61  1  0  0  0  0
 57 66  1  0  0  0  0
 58 81  1  0  0  0  0
 59 62  1  0  0  0  0
 59 73  1  0  0  0  0
 60 74  1  0  0  0  0
 61 63  1  0  0  0  0
 63 84  1  0  0  0  0
 63 85  1  0  0  0  0
 63 86  1  0  0  0  0
 64 66  1  0  0  0  0
 65 67  1  0  0  0  0
M  CHG  1  74   1
M  ISO  4  34 100  58 101  61 100  81 101
M  END
> <Batch ID>
0075

> <Smiles>
CNC(C)C(=O)NC(C(=O)N1Cc2cc([101O:1][101CH2:1]CCCc3cnn(C[100C:0](C)([100C:0](=O)N4CCCC(n5nc(-c6ccc(Oc7ccc(F)cc7F)cc6)c(C(N)=O)c5N)C4)C(F)(F)F)c3)ccc2CC1C(=O)NC1CCCc2ccccc21)C(C)(C)C

> <Shape>
0.274

> <Color>
0.056

> <Negative vol penalty>
0.000

$$$$

  -OEChem-04052318323D

 86 94  0     1  0  0  0  0  0999 V2000
  -29.2452  -21.6190   15.1031 C   0  0  0  0  0  0  0  0  0  0  0  0
  -28.8821  -21.5313   16.4432 C   0  0  0  0  0  0  0  0  0  0  0  0
  -27.4680  -16.2307   18.9406 C   0  0  0  0  0  0  0  0  0  0  0  0
  -27.1320  -17.5185   20.9570 C   0  0  0  0  0  0  0  0  0  0  0  0
  -29.6196  -22.8484   14.5626 C   0  0  0  0  0  0  0  0  0  0  0  0
  -28.8943  -22.6728   17.2439 C   0  0  0  0  0  0  0  0  0  0  0  0
  -24.7615  -23.0550   20.1455 C   0  0  0  0  0  0  0  0  0  0  0  0
  -28.8133  -16.5987   18.9296 C   0  0  0  0  0  0  0  0  0  0  0  0
  -28.4774  -17.8865   20.9461 C   0  0  0  0  0  0  0  0  0  0  0  0
  -24.7119  -22.2612   21.2906 C   0  0  0  0  0  0  0  0  0  0  0  0
  -31.9053  -18.8725   21.6502 C   0  0  0  0  0  0  0  0  0  0  0  0
  -32.6057  -18.8084   22.8547 C   0  0  0  0  0  0  0  0  0  0  0  0
  -25.3738  -24.1576   22.6266 C   0  0  0  0  0  0  0  0  0  0  0  0
  -32.1463  -16.4407   22.9959 C   0  0  0  0  0  0  0  0  0  0  0  0
  -21.0454  -23.8107   22.9117 C   0  0  0  0  0  0  0  0  0  0  0  0
  -26.6273  -16.6906   19.9542 C   0  0  0  0  0  0  0  0  0  0  0  0
  -24.6686  -15.1851   20.5904 C   0  0  0  0  0  0  0  0  0  0  0  0
  -29.6272  -24.0074   15.3546 C   0  0  0  0  0  0  0  0  0  0  0  0
  -25.1289  -24.4056   20.2311 C   0  0  0  0  0  0  0  0  0  0  0  0
  -29.2705  -23.9187   16.7138 C   0  0  0  0  0  0  0  0  0  0  0  0
  -25.4248  -24.9670   21.4814 C   0  0  0  0  0  0  0  0  0  0  0  0
  -29.3181  -17.4266   19.9324 C   0  0  0  0  0  0  0  0  0  0  0  0
  -25.0208  -22.8117   22.5310 C   0  0  0  0  0  0  0  0  0  0  0  0
  -31.3253  -17.7206   21.1185 C   0  0  0  0  0  0  0  0  0  0  0  0
  -32.7262  -17.5925   23.5276 C   0  0  0  0  0  0  0  0  0  0  0  0
  -31.4458  -16.5048   21.7914 C   0  0  0  0  0  0  0  0  0  0  0  0
  -25.2373  -16.3113   19.9657 C   0  0  0  0  0  0  0  0  0  0  0  0
  -21.4233  -22.6880   23.5926 C   0  0  0  0  0  0  0  0  0  0  0  0
  -23.3274  -15.2772   20.3091 C   0  0  0  0  0  0  0  0  0  0  0  0
  -20.0856  -22.0677   21.9414 C   0  0  0  0  0  0  0  0  0  0  0  0
  -25.2966  -14.1486   21.3565 C   0  0  0  0  0  0  0  0  0  0  0  0
  -27.5025  -26.1634   19.0566 C   0  0  0  0  0  0  0  0  0  0  0  0
  -25.8267  -28.6067   20.3772 C   0  0  0  0  0  0  0  0  0  0  0  0
  -23.5605  -29.6370   22.7117 C   0  0  0  0  0  0  0  0  0  0  0  0
  -19.7465  -19.8893   18.9839 C   0  0  0  0  0  0  0  0  0  0  0  0
  -30.0848  -25.3053   14.7377 C   0  0  0  0  0  0  0  0  0  0  0  0
  -25.1517  -25.2551   18.9900 C   0  0  0  0  0  0  0  0  0  0  0  0
  -25.8052  -26.4167   21.6298 C   0  0  0  0  0  0  0  0  0  0  0  0
  -29.7108  -26.5359   15.5600 C   0  0  0  0  0  0  0  0  0  0  0  0
  -20.3000  -16.9743   17.0159 C   0  0  0  0  0  0  0  0  0  0  0  0
  -30.0443  -26.3157   17.0321 C   0  0  0  0  0  0  0  0  0  0  0  0
  -21.5768  -16.3722   17.6051 C   0  0  0  0  0  0  0  0  0  0  0  0
  -20.3415  -18.5009   17.0206 C   0  0  0  0  0  0  0  0  0  0  0  0
  -21.9097  -18.5063   18.9218 C   0  0  0  0  0  0  0  0  0  0  0  0
  -29.2473  -25.1391   17.6083 C   0  0  1  0  0  0  0  0  0  0  0  0
  -26.0375  -26.4895   19.1272 C   0  0  1  0  0  0  0  0  0  0  0  0
  -21.8913  -16.9696   18.9898 C   0  0  2  0  0  0  0  0  0  0  0  0
  -18.1776  -20.4293   21.7508 C   0  0  0  0  0  0  0  0  0  0  0  0
  -22.0219  -31.1987   23.9328 C   0  0  0  0  0  0  0  0  0  0  0  0
  -24.7975  -19.6500   23.7981 C   0  0  0  0  0  0  0  0  0  0  0  0
  -28.3863  -29.4115   21.8301 C   0  0  0  0  0  0  0  0  0  0  0  0
  -26.9933  -30.8276   23.3541 C   0  0  0  0  0  0  0  0  0  0  0  0
  -27.0633  -31.3242   20.9105 C   0  0  0  0  0  0  0  0  0  0  0  0
  -19.9901  -25.7366   21.2063 C   0  0  0  0  0  0  0  0  0  0  0  0
  -18.0539  -24.1266   21.0096 C   0  0  0  0  0  0  0  0  0  0  0  0
  -19.9872  -23.9714   19.4580 C   0  0  0  0  0  0  0  0  0  0  0  0
  -21.3149  -29.0446   20.8773 C   0  0  0  0  0  0  0  0  0  0  0  0
  -22.3165  -22.5046   24.7935 C   0  0  0  0  0  0  0  0  0  0  0  0
  -23.0530  -21.1573   24.8174 C   0  0  0  0  0  0  0  0  0  0  0  0
  -19.2814  -21.2194   21.0269 C   0  0  2  0  0  0  0  0  0  0  0  0
  -25.8096  -29.2856   21.7255 C   0  0  1  0  0  0  0  0  0  0  0  0
  -22.3388  -30.5314   22.6035 C   0  0  2  0  0  0  0  0  0  0  0  0
  -24.0370  -20.9625   23.6573 C   0  0  1  0  0  0  0  0  0  1  0  0
  -27.0579  -30.1844   21.9523 C   0  0  0  0  0  0  0  0  0  0  0  0
  -19.5898  -24.2713   20.9246 C   0  0  0  0  0  0  0  0  0  0  0  0
  -24.3315  -17.0634   19.3350 N   0  0  0  0  0  0  0  0  0  0  0  0
  -20.2184  -23.3973   21.8951 N   0  0  0  0  0  0  0  0  0  0  0  0
  -23.1800  -16.4086   19.5619 N   0  0  0  0  0  0  0  0  0  0  0  0
  -20.8147  -21.6246   22.9707 N   0  3  0  0  0  0  0  0  0  0  0  0
  -25.8195  -27.2047   20.3862 N   0  0  0  0  0  0  0  0  0  0  0  0
  -20.6426  -19.0035   18.3632 N   0  0  0  0  0  0  0  0  0  0  0  0
  -22.2715  -14.4999   20.6305 N   0  0  0  0  0  0  0  0  0  0  0  0
  -26.6836  -14.2071   21.5492 N   0  0  0  0  0  0  0  0  0  0  0  0
  -27.8841  -25.5390   17.8844 N   0  0  0  0  0  0  0  0  0  0  0  0
  -24.5384  -29.9965   21.8085 N   0  0  0  0  0  0  0  0  0  0  0  0
  -20.1044  -20.3125   20.2581 N   0  0  0  0  0  0  0  0  0  0  0  0
  -21.1508  -29.7368   22.1815 N   0  3  0  0  0  0  0  0  0  0  0  0
  -24.6493  -13.1897   21.8414 O   0  0  0  0  0  0  0  0  0  0  0  0
  -28.2330  -26.4578   19.9955 O   0  0  0  0  0  0  0  0  0  0  0  0
  -25.8386  -29.2951   19.3537 O   0  0  0  0  0  0  0  0  0  0  0  0
  -23.6410  -28.7141   23.5195 O   0  0  0  0  0  0  0  0  0  0  0  0
  -18.7019  -20.2704   18.4447 O   0  0  0  0  0  0  0  0  0  0  0  0
  -30.6309  -17.7857   19.9222 O   0  0  0  0  0  0  0  0  0  0  0  0
  -24.9738  -22.0390   23.6502 O   0  0  0  0  0  0  0  0  0  1  0  0
  -33.4002  -17.5309   24.6835 F   0  0  0  0  0  0  0  0  0  0  0  0
  -30.8918  -15.3946   21.2850 F   0  0  0  0  0  0  0  0  0  0  0  0
  1  2  1  0  0  0  0
  1  5  2  0  0  0  0
  2  6  2  0  0  0  0
  3  8  2  0  0  0  0
  3 16  1  0  0  0  0
  4  9  1  0  0  0  0
  4 16  2  0  0  0  0
  5 18  1  0  0  0  0
  6 20  1  0  0  0  0
  7 10  2  0  0  0  0
  7 19  1  0  0  0  0
  8 22  1  0  0  0  0
  9 22  2  0  0  0  0
 10 23  1  0  0  0  0
 11 12  2  0  0  0  0
 11 24  1  0  0  0  0
 12 25  1  0  0  0  0
 13 21  1  0  0  0  0
 13 23  2  0  0  0  0
 14 25  2  0  0  0  0
 14 26  1  0  0  0  0
 15 28  2  0  0  0  0
 15 67  1  0  0  0  0
 16 27  1  0  0  0  0
 17 27  1  0  0  0  0
 17 29  2  0  0  0  0
 17 31  1  0  0  0  0
 18 20  2  0  0  0  0
 18 36  1  0  0  0  0
 19 21  2  0  0  0  0
 19 37  1  0  0  0  0
 20 45  1  0  0  0  0
 21 38  1  0  0  0  0
 22 83  1  0  0  0  0
 23 84  1  0  0  0  0
 24 26  2  0  0  0  0
 24 83  1  0  0  0  0
 25 85  1  0  0  0  0
 26 86  1  0  0  0  0
 27 66  2  0  0  0  0
 28 58  1  0  0  0  0
 28 69  1  0  0  0  0
 29 68  1  0  0  0  0
 29 72  1  0  0  0  0
 30 60  1  0  0  0  0
 30 67  1  0  0  0  0
 30 69  2  0  0  0  0
 31 73  1  0  0  0  0
 31 78  2  0  0  0  0
 32 46  1  0  0  0  0
 32 74  1  0  0  0  0
 32 79  2  0  0  0  0
 33 61  1  0  0  0  0
 33 70  1  0  0  0  0
 33 80  2  0  0  0  0
 34 62  1  0  0  0  0
 34 75  1  0  0  0  0
 34 81  2  0  0  0  0
 35 71  1  0  0  0  0
 35 76  1  0  0  0  0
 35 82  2  0  0  0  0
 36 39  1  0  0  0  0
 37 46  1  0  0  0  0
 38 70  1  0  0  0  0
 39 41  1  0  0  0  0
 40 42  1  0  0  0  0
 40 43  1  0  0  0  0
 41 45  1  0  0  0  0
 42 47  1  0  0  0  0
 43 71  1  0  0  0  0
 44 47  1  0  0  0  0
 44 71  1  0  0  0  0
 45 74  1  0  0  0  0
 46 70  1  0  0  0  0
 47 68  1  0  0  0  0
 48 60  1  0  0  0  0
 49 62  1  0  0  0  0
 50 63  1  0  0  0  0
 51 64  1  0  0  0  0
 52 64  1  0  0  0  0
 53 64  1  0  0  0  0
 54 65  1  0  0  0  0
 55 65  1  0  0  0  0
 56 65  1  0  0  0  0
 57 77  1  0  0  0  0
 58 59  1  0  0  0  0
 59 63  1  0  0  0  0
 60 76  1  0  0  0  0
 61 64  1  0  0  0  0
 61 75  1  0  0  0  0
 62 77  1  0  0  0  0
 63 84  1  0  0  0  0
 65 67  1  0  0  0  0
 66 68  1  0  0  0  0
M  CHG  2  69   1  77   1
M  ISO  4  35 100  63 101  76 100  84 101
M  END
> <Batch ID>
0075

> <Smiles>
CNC(C)C(=O)NC(C(=O)N1Cc2cc([101O:1][101CH:1](C)CCc3cn(C(C)(C)C)c(C(C)[100NH:0][100C:0](=O)N4CCCC(n5nc(-c6ccc(Oc7ccc(F)cc7F)cc6)c(C(N)=O)c5N)C4)n3)ccc2CC1C(=O)NC1CCCc2ccccc21)C(C)(C)C

> <Shape>
0.171

> <Color>
0.086

> <Negative vol penalty>
0.000

$$$$

  -OEChem-04052318323D

 80 88  0     1  0  0  0  0  0999 V2000
  -22.1671  -34.4703   21.1734 C   0  0  0  0  0  0  0  0  0  0  0  0
  -23.2417  -33.5869   21.1905 C   0  0  0  0  0  0  0  0  0  0  0  0
  -24.9962  -17.1022   21.7045 C   0  0  0  0  0  0  0  0  0  0  0  0
  -25.7190  -16.0387   19.6591 C   0  0  0  0  0  0  0  0  0  0  0  0
  -20.9901  -34.1476   21.8474 C   0  0  0  0  0  0  0  0  0  0  0  0
  -23.1402  -32.3807   21.8827 C   0  0  0  0  0  0  0  0  0  0  0  0
  -24.9445  -28.4616   19.2312 C   0  0  0  0  0  0  0  0  0  0  0  0
  -23.8218  -16.3500   21.6806 C   0  0  0  0  0  0  0  0  0  0  0  0
  -24.5445  -15.2865   19.6352 C   0  0  0  0  0  0  0  0  0  0  0  0
  -26.3295  -28.3091   19.1829 C   0  0  0  0  0  0  0  0  0  0  0  0
  -22.8652  -13.1998   22.4513 C   0  0  0  0  0  0  0  0  0  0  0  0
  -22.4514  -12.6059   23.6437 C   0  0  0  0  0  0  0  0  0  0  0  0
  -26.1963  -26.6140   20.8941 C   0  0  0  0  0  0  0  0  0  0  0  0
  -20.3836  -13.8516   23.5465 C   0  0  0  0  0  0  0  0  0  0  0  0
  -30.9793  -25.7993   17.6493 C   0  0  0  0  0  0  0  0  0  0  0  0
  -31.2045  -25.4092   19.8065 C   0  0  0  0  0  0  0  0  0  0  0  0
  -25.9448  -16.9466   20.6937 C   0  0  0  0  0  0  0  0  0  0  0  0
  -28.3777  -17.3769   21.3287 C   0  0  0  0  0  0  0  0  0  0  0  0
  -20.8707  -32.9325   22.5401 C   0  0  0  0  0  0  0  0  0  0  0  0
  -24.1748  -27.6979   20.1205 C   0  0  0  0  0  0  0  0  0  0  0  0
  -21.9609  -32.0420   22.5677 C   0  0  0  0  0  0  0  0  0  0  0  0
  -24.8015  -26.7569   20.9499 C   0  0  0  0  0  0  0  0  0  0  0  0
  -23.5959  -15.4421   20.6460 C   0  0  0  0  0  0  0  0  0  0  0  0
  -26.9559  -27.3873   20.0165 C   0  0  0  0  0  0  0  0  0  0  0  0
  -22.0383  -14.1197   21.8066 C   0  0  0  0  0  0  0  0  0  0  0  0
  -21.2106  -12.9318   24.1912 C   0  0  0  0  0  0  0  0  0  0  0  0
  -20.7974  -14.4455   22.3541 C   0  0  0  0  0  0  0  0  0  0  0  0
  -27.1579  -17.7237   20.7176 C   0  0  0  0  0  0  0  0  0  0  0  0
  -31.3494  -24.4970   17.8888 C   0  0  0  0  0  0  0  0  0  0  0  0
  -29.2069  -18.4403   21.0679 C   0  0  0  0  0  0  0  0  0  0  0  0
  -28.7298  -16.1988   22.0662 C   0  0  0  0  0  0  0  0  0  0  0  0
  -22.2697  -28.3599   22.5772 C   0  0  0  0  0  0  0  0  0  0  0  0
  -21.6666  -25.1746   22.4656 C   0  0  0  0  0  0  0  0  0  0  0  0
  -31.2676  -22.0629   17.4750 C   0  0  0  0  0  0  0  0  0  0  0  0
  -22.6502  -21.7280   22.0522 C   0  0  0  0  0  0  0  0  0  0  0  0
  -19.5952  -32.6485   23.2934 C   0  0  0  0  0  0  0  0  0  0  0  0
  -22.6791  -27.8553   20.1413 C   0  0  0  0  0  0  0  0  0  0  0  0
  -24.0184  -25.8982   21.9079 C   0  0  0  0  0  0  0  0  0  0  0  0
  -19.4357  -31.1832   23.6905 C   0  0  0  0  0  0  0  0  0  0  0  0
  -28.2105  -23.0234   19.1949 C   0  0  0  0  0  0  0  0  0  0  0  0
  -20.7296  -30.6509   24.2982 C   0  0  0  0  0  0  0  0  0  0  0  0
  -27.7503  -21.6849   19.7709 C   0  0  0  0  0  0  0  0  0  0  0  0
  -28.8769  -22.8490   17.8327 C   0  0  0  0  0  0  0  0  0  0  0  0
  -29.5571  -20.5417   18.4139 C   0  0  0  0  0  0  0  0  0  0  0  0
  -21.8805  -30.7128   23.2867 C   0  0  1  0  0  0  0  0  0  0  0  0
  -22.0477  -27.3912   21.4503 C   0  0  1  0  0  0  0  0  0  0  0  0
  -28.9069  -20.6705   19.8015 C   0  0  2  0  0  0  0  0  0  0  0  0
  -21.2783  -19.6268   22.0670 C   0  0  0  0  0  0  0  0  0  0  0  0
  -33.0815  -23.3781   16.4603 C   0  0  0  0  0  0  0  0  0  0  0  0
  -30.7408  -23.4680   15.5959 C   0  0  0  0  0  0  0  0  0  0  0  0
  -22.4050  -25.0581   25.4238 C   0  0  0  0  0  0  0  0  0  0  0  0
  -22.6219  -22.5739   25.2002 C   0  0  0  0  0  0  0  0  0  0  0  0
  -20.4213  -23.6740   24.7884 C   0  0  0  0  0  0  0  0  0  0  0  0
  -23.6585  -20.9128   19.3918 C   0  0  0  0  0  0  0  0  0  0  0  0
  -30.5196  -27.8035   19.1857 C   0  0  0  0  0  0  0  0  0  0  0  0
  -29.0222  -28.0561   19.0475 C   0  0  0  0  0  0  0  0  0  1  0  0
  -22.2797  -23.9477   23.0963 C   0  0  1  0  0  0  0  0  0  0  0  0
  -21.9542  -20.6800   21.2028 C   0  0  2  0  0  0  0  0  0  0  0  0
  -31.5888  -23.4242   16.9115 C   0  0  0  0  0  0  0  0  0  0  0  0
  -21.9472  -23.8308   24.6106 C   0  0  0  0  0  0  0  0  0  0  0  0
  -31.4877  -24.2604   19.2337 N   0  0  0  0  0  0  0  0  0  0  0  0
  -27.2036  -18.9144   20.1141 N   0  0  0  0  0  0  0  0  0  0  0  0
  -30.8899  -26.3710   18.8871 N   0  0  0  0  0  0  0  0  0  0  0  0
  -28.4623  -19.3251   20.3448 N   0  0  0  0  0  0  0  0  0  0  0  0
  -22.5592  -26.0935   21.8957 N   0  0  0  0  0  0  0  0  0  0  0  0
  -29.9546  -21.8547   17.8980 N   0  0  0  0  0  0  0  0  0  0  0  0
  -30.4931  -18.6955   21.3888 N   0  0  0  0  0  0  0  0  0  0  0  0
  -27.7577  -15.2044   22.2406 N   0  0  0  0  0  0  0  0  0  0  0  0
  -21.7758  -29.6276   22.3350 N   0  0  0  0  0  0  0  0  0  0  0  0
  -21.8335  -22.8117   22.2971 N   0  0  0  0  0  0  0  0  0  0  0  0
  -22.9365  -19.9982   20.3133 N   0  3  0  0  0  0  0  0  0  0  0  0
  -29.8676  -16.0403   22.5700 O   0  0  0  0  0  0  0  0  0  0  0  0
  -22.8450  -27.9846   23.5920 O   0  0  0  0  0  0  0  0  0  0  0  0
  -20.4404  -25.3092   22.4718 O   0  0  0  0  0  0  0  0  0  0  0  0
  -32.1590  -21.2123   17.5390 O   0  0  0  0  0  0  0  0  0  0  0  0
  -23.8018  -21.5968   22.4609 O   0  0  0  0  0  0  0  0  0  0  0  0
  -22.4502  -14.7078   20.6225 O   0  0  0  0  0  0  0  0  0  0  0  0
  -28.3077  -27.2369   19.9720 O   0  0  0  0  0  0  0  0  0  1  0  0
  -20.8127  -12.3602   25.3354 F   0  0  0  0  0  0  0  0  0  0  0  0
  -19.9981  -15.3276   21.7387 F   0  0  0  0  0  0  0  0  0  0  0  0
  1  2  1  0  0  0  0
  1  5  2  0  0  0  0
  2  6  2  0  0  0  0
  3  8  2  0  0  0  0
  3 17  1  0  0  0  0
  4  9  1  0  0  0  0
  4 17  2  0  0  0  0
  5 19  1  0  0  0  0
  6 21  1  0  0  0  0
  7 10  2  0  0  0  0
  7 20  1  0  0  0  0
  8 23  1  0  0  0  0
  9 23  2  0  0  0  0
 10 24  1  0  0  0  0
 11 12  2  0  0  0  0
 11 25  1  0  0  0  0
 12 26  1  0  0  0  0
 13 22  1  0  0  0  0
 13 24  2  0  0  0  0
 14 26  2  0  0  0  0
 14 27  1  0  0  0  0
 15 29  2  0  0  0  0
 15 63  1  0  0  0  0
 16 61  2  0  0  0  0
 16 63  1  0  0  0  0
 17 28  1  0  0  0  0
 18 28  1  0  0  0  0
 18 30  2  0  0  0  0
 18 31  1  0  0  0  0
 19 21  2  0  0  0  0
 19 36  1  0  0  0  0
 20 22  2  0  0  0  0
 20 37  1  0  0  0  0
 21 45  1  0  0  0  0
 22 38  1  0  0  0  0
 23 77  1  0  0  0  0
 24 78  1  0  0  0  0
 25 27  2  0  0  0  0
 25 77  1  0  0  0  0
 26 79  1  0  0  0  0
 27 80  1  0  0  0  0
 28 62  2  0  0  0  0
 29 59  1  0  0  0  0
 29 61  1  0  0  0  0
 30 64  1  0  0  0  0
 30 67  1  0  0  0  0
 31 68  1  0  0  0  0
 31 72  2  0  0  0  0
 32 46  1  0  0  0  0
 32 69  1  0  0  0  0
 32 73  2  0  0  0  0
 33 57  1  0  0  0  0
 33 65  1  0  0  0  0
 33 74  2  0  0  0  0
 34 59  1  0  0  0  0
 34 66  1  0  0  0  0
 34 75  2  0  0  0  0
 35 58  1  0  0  0  0
 35 70  1  0  0  0  0
 35 76  2  0  0  0  0
 36 39  1  0  0  0  0
 37 46  1  0  0  0  0
 38 65  1  0  0  0  0
 39 41  1  0  0  0  0
 40 42  1  0  0  0  0
 40 43  1  0  0  0  0
 41 45  1  0  0  0  0
 42 47  1  0  0  0  0
 43 66  1  0  0  0  0
 44 47  1  0  0  0  0
 44 66  1  0  0  0  0
 45 69  1  0  0  0  0
 46 65  1  0  0  0  0
 47 64  1  0  0  0  0
 48 58  1  0  0  0  0
 49 59  1  0  0  0  0
 50 59  1  0  0  0  0
 51 60  1  0  0  0  0
 52 60  1  0  0  0  0
 53 60  1  0  0  0  0
 54 71  1  0  0  0  0
 55 56  1  0  0  0  0
 55 63  1  0  0  0  0
 56 78  1  0  0  0  0
 57 60  1  0  0  0  0
 57 70  1  0  0  0  0
 58 71  1  0  0  0  0
 62 64  1  0  0  0  0
M  CHG  1  71   1
M  ISO  4  34 100  56 101  59 100  78 101
M  END
> <Batch ID>
0075

> <Smiles>
CNC(C)C(=O)NC(C(=O)N1Cc2cc([101O:1][101CH2:1]Cn3cnc([100C:0](C)(C)[100C:0](=O)N4CCCC(n5nc(-c6ccc(Oc7ccc(F)cc7F)cc6)c(C(N)=O)c5N)C4)c3)ccc2CC1C(=O)NC1CCCc2ccccc21)C(C)(C)C

> <Shape>
0.193

> <Color>
0.069

> <Negative vol penalty>
0.000

$$$$

  -OEChem-04052318323D

 83 91  0     1  0  0  0  0  0999 V2000
  -27.0017  -30.0933   30.7284 C   0  0  0  0  0  0  0  0  0  0  0  0
  -26.3303  -28.9283   30.3713 C   0  0  0  0  0  0  0  0  0  0  0  0
  -23.0139   -9.8701   20.0007 C   0  0  0  0  0  0  0  0  0  0  0  0
  -23.7276   -9.9679   22.3068 C   0  0  0  0  0  0  0  0  0  0  0  0
  -27.6037  -30.8786   29.7462 C   0  0  0  0  0  0  0  0  0  0  0  0
  -26.2596  -28.5487   29.0314 C   0  0  0  0  0  0  0  0  0  0  0  0
  -26.0604  -22.7094   24.8865 C   0  0  0  0  0  0  0  0  0  0  0  0
  -22.2538   -8.7355   20.2840 C   0  0  0  0  0  0  0  0  0  0  0  0
  -22.9674   -8.8332   22.5901 C   0  0  0  0  0  0  0  0  0  0  0  0
  -25.3064  -22.1425   23.8599 C   0  0  0  0  0  0  0  0  0  0  0  0
  -23.2366   -5.4880   22.1801 C   0  0  0  0  0  0  0  0  0  0  0  0
  -23.8273   -4.4886   22.9533 C   0  0  0  0  0  0  0  0  0  0  0  0
  -26.4516  -23.5355   22.2576 C   0  0  0  0  0  0  0  0  0  0  0  0
  -22.0938   -4.7501   24.6157 C   0  0  0  0  0  0  0  0  0  0  0  0
  -28.4034  -18.2383   19.4489 C   0  0  0  0  0  0  0  0  0  0  0  0
  -28.3409  -18.8798   21.6940 C   0  0  0  0  0  0  0  0  0  0  0  0
  -23.7509  -10.4863   21.0121 C   0  0  0  0  0  0  0  0  0  0  0  0
  -24.1200  -13.0009   20.7922 C   0  0  0  0  0  0  0  0  0  0  0  0
  -27.5485  -30.5033   28.3946 C   0  0  0  0  0  0  0  0  0  0  0  0
  -27.0096  -23.7031   24.6072 C   0  0  0  0  0  0  0  0  0  0  0  0
  -26.8602  -29.3304   28.0300 C   0  0  0  0  0  0  0  0  0  0  0  0
  -27.2181  -24.1116   23.2821 C   0  0  0  0  0  0  0  0  0  0  0  0
  -29.0816  -18.3806   20.6422 C   0  0  0  0  0  0  0  0  0  0  0  0
  -22.2305   -8.2170   21.5787 C   0  0  0  0  0  0  0  0  0  0  0  0
  -25.4999  -22.5576   22.5456 C   0  0  0  0  0  0  0  0  0  0  0  0
  -22.0744   -6.1185   22.6247 C   0  0  0  0  0  0  0  0  0  0  0  0
  -23.2559   -4.1197   24.1711 C   0  0  0  0  0  0  0  0  0  0  0  0
  -21.5030   -5.7495   23.8425 C   0  0  0  0  0  0  0  0  0  0  0  0
  -24.5367  -11.6582   20.7199 C   0  0  0  0  0  0  0  0  0  0  0  0
  -25.2266  -13.7243   20.4199 C   0  0  0  0  0  0  0  0  0  0  0  0
  -26.4896  -19.0322   20.3839 C   0  0  0  0  0  0  0  0  0  0  0  0
  -22.8465  -13.5455   21.1627 C   0  0  0  0  0  0  0  0  0  0  0  0
  -27.3791  -26.7490   25.4377 C   0  0  0  0  0  0  0  0  0  0  0  0
  -30.2039  -26.4270   23.8759 C   0  0  0  0  0  0  0  0  0  0  0  0
  -32.0412  -24.7742   21.5223 C   0  0  0  0  0  0  0  0  0  0  0  0
  -30.7153  -14.7009   20.6773 C   0  0  0  0  0  0  0  0  0  0  0  0
  -28.1738  -31.4092   27.3636 C   0  0  0  0  0  0  0  0  0  0  0  0
  -27.8337  -24.2856   25.7225 C   0  0  0  0  0  0  0  0  0  0  0  0
  -28.2390  -25.1606   22.9270 C   0  0  0  0  0  0  0  0  0  0  0  0
  -28.3741  -30.7401   26.0062 C   0  0  0  0  0  0  0  0  0  0  0  0
  -29.6023  -12.2273   18.3709 C   0  0  0  0  0  0  0  0  0  0  0  0
  -27.1139  -29.9876   25.5908 C   0  0  0  0  0  0  0  0  0  0  0  0
  -28.1536  -11.9653   18.7863 C   0  0  0  0  0  0  0  0  0  0  0  0
  -30.4973  -12.4907   19.5799 C   0  0  0  0  0  0  0  0  0  0  0  0
  -28.5754  -13.2973   20.8950 C   0  0  0  0  0  0  0  0  0  0  0  0
  -26.7829  -28.8722   26.5898 C   0  0  1  0  0  0  0  0  0  0  0  0
  -28.4103  -25.6574   25.3859 C   0  0  1  0  0  0  0  0  0  0  0  0
  -27.6234  -13.0816   19.7061 C   0  0  2  0  0  0  0  0  0  0  0  0
  -31.3906  -19.2473   21.1334 C   0  0  0  0  0  0  0  0  0  0  0  0
  -34.0547  -24.1299   20.1703 C   0  0  0  0  0  0  0  0  0  0  0  0
  -29.4257  -28.8710   22.2233 C   0  0  0  0  0  0  0  0  0  0  0  0
  -31.2121  -28.2451   20.5846 C   0  0  0  0  0  0  0  0  0  0  0  0
  -31.8223  -28.8134   22.9356 C   0  0  0  0  0  0  0  0  0  0  0  0
  -32.8721  -22.7464   23.5114 C   0  0  0  0  0  0  0  0  0  0  0  0
  -25.0349  -19.4015   20.2388 C   0  0  0  0  0  0  0  0  0  0  0  0
  -24.8058  -20.7284   19.5117 C   0  0  0  0  0  0  0  0  0  0  0  0
  -30.7776  -16.9014   21.8230 C   0  0  0  0  0  0  0  0  0  0  0  0
  -25.3767  -21.9305   20.2549 C   0  0  0  0  0  0  0  0  0  1  0  0
  -30.5138  -18.0228   20.7838 C   0  0  1  0  0  0  0  0  0  0  0  0
  -30.6658  -26.6179   22.4514 C   0  0  1  0  0  0  0  0  0  0  0  0
  -33.4454  -24.1988   21.5619 C   0  0  2  0  0  0  0  0  0  0  0  0
  -30.7608  -28.1184   22.0553 C   0  0  0  0  0  0  0  0  0  0  0  0
  -27.1024  -18.5554   19.2836 N   0  0  0  0  0  0  0  0  0  0  0  0
  -27.0380  -19.2174   21.5998 N   0  0  0  0  0  0  0  0  0  0  0  0
  -25.8087  -11.5332   20.3321 N   0  0  0  0  0  0  0  0  0  0  0  0
  -26.2008  -12.8067   20.1572 N   0  0  0  0  0  0  0  0  0  0  0  0
  -29.0155  -25.7046   24.0533 N   0  0  0  0  0  0  0  0  0  0  0  0
  -29.9392  -13.5610   20.4100 N   0  0  0  0  0  0  0  0  0  0  0  0
  -25.4516  -15.0495   20.2949 N   0  0  0  0  0  0  0  0  0  0  0  0
  -21.8191  -12.6607   21.5174 N   0  0  0  0  0  0  0  0  0  0  0  0
  -27.6442  -27.7293   26.3749 N   0  0  0  0  0  0  0  0  0  0  0  0
  -31.9222  -25.8867   22.3282 N   0  0  0  0  0  0  0  0  0  0  0  0
  -30.1086  -15.6701   21.4667 N   0  0  0  0  0  0  0  0  0  0  0  0
  -33.4256  -22.8233   22.1349 N   0  3  0  0  0  0  0  0  0  0  0  0
  -22.6214  -14.7796   21.1630 O   0  0  0  0  0  0  0  0  0  0  0  0
  -26.4152  -26.7060   24.6823 O   0  0  0  0  0  0  0  0  0  0  0  0
  -30.8768  -26.8952   24.7977 O   0  0  0  0  0  0  0  0  0  0  0  0
  -31.1410  -24.2878   20.8415 O   0  0  0  0  0  0  0  0  0  0  0  0
  -31.8618  -14.8466   20.2400 O   0  0  0  0  0  0  0  0  0  0  0  0
  -21.4887   -7.1099   21.8555 O   0  0  0  0  0  0  0  0  0  0  0  0
  -24.7648  -22.0063   21.5418 O   0  0  0  0  0  0  0  0  0  1  0  0
  -23.8225   -3.1589   24.9128 F   0  0  0  0  0  0  0  0  0  0  0  0
  -20.3860   -6.3508   24.2743 F   0  0  0  0  0  0  0  0  0  0  0  0
  1  2  1  0  0  0  0
  1  5  2  0  0  0  0
  2  6  2  0  0  0  0
  3  8  2  0  0  0  0
  3 17  1  0  0  0  0
  4  9  1  0  0  0  0
  4 17  2  0  0  0  0
  5 19  1  0  0  0  0
  6 21  1  0  0  0  0
  7 10  2  0  0  0  0
  7 20  1  0  0  0  0
  8 24  1  0  0  0  0
  9 24  2  0  0  0  0
 10 25  1  0  0  0  0
 11 12  2  0  0  0  0
 11 26  1  0  0  0  0
 12 27  1  0  0  0  0
 13 22  1  0  0  0  0
 13 25  2  0  0  0  0
 14 27  2  0  0  0  0
 14 28  1  0  0  0  0
 15 23  1  0  0  0  0
 15 63  2  0  0  0  0
 16 23  2  0  0  0  0
 16 64  1  0  0  0  0
 17 29  1  0  0  0  0
 18 29  1  0  0  0  0
 18 30  2  0  0  0  0
 18 32  1  0  0  0  0
 19 21  2  0  0  0  0
 19 37  1  0  0  0  0
 20 22  2  0  0  0  0
 20 38  1  0  0  0  0
 21 46  1  0  0  0  0
 22 39  1  0  0  0  0
 23 59  1  0  0  0  0
 24 80  1  0  0  0  0
 25 81  1  0  0  0  0
 26 28  2  0  0  0  0
 26 80  1  0  0  0  0
 27 82  1  0  0  0  0
 28 83  1  0  0  0  0
 29 65  2  0  0  0  0
 30 66  1  0  0  0  0
 30 69  1  0  0  0  0
 31 55  1  0  0  0  0
 31 63  1  0  0  0  0
 31 64  2  0  0  0  0
 32 70  1  0  0  0  0
 32 75  2  0  0  0  0
 33 47  1  0  0  0  0
 33 71  1  0  0  0  0
 33 76  2  0  0  0  0
 34 60  1  0  0  0  0
 34 67  1  0  0  0  0
 34 77  2  0  0  0  0
 35 61  1  0  0  0  0
 35 72  1  0  0  0  0
 35 78  2  0  0  0  0
 36 68  1  0  0  0  0
 36 73  1  0  0  0  0
 36 79  2  0  0  0  0
 37 40  1  0  0  0  0
 38 47  1  0  0  0  0
 39 67  1  0  0  0  0
 40 42  1  0  0  0  0
 41 43  1  0  0  0  0
 41 44  1  0  0  0  0
 42 46  1  0  0  0  0
 43 48  1  0  0  0  0
 44 68  1  0  0  0  0
 45 48  1  0  0  0  0
 45 68  1  0  0  0  0
 46 71  1  0  0  0  0
 47 67  1  0  0  0  0
 48 66  1  0  0  0  0
 49 59  1  0  0  0  0
 50 61  1  0  0  0  0
 51 62  1  0  0  0  0
 52 62  1  0  0  0  0
 53 62  1  0  0  0  0
 54 74  1  0  0  0  0
 55 56  1  0  0  0  0
 56 58  1  0  0  0  0
 57 59  1  0  0  0  0
 57 73  1  0  0  0  0
 58 81  1  0  0  0  0
 60 62  1  0  0  0  0
 60 72  1  0  0  0  0
 61 74  1  0  0  0  0
 65 66  1  0  0  0  0
M  CHG  1  74   1
M  ISO  4  36 100  58 101  73 100  81 101
M  END
> <Batch ID>
0075

> <Smiles>
CNC(C)C(=O)NC(C(=O)N1Cc2cc([101O:1][101CH2:1]CCc3ncc(C(C)C[100NH:0][100C:0](=O)N4CCCC(n5nc(-c6ccc(Oc7ccc(F)cc7F)cc6)c(C(N)=O)c5N)C4)cn3)ccc2CC1C(=O)NC1CCCc2ccccc21)C(C)(C)C

> <Shape>
0.228

> <Color>
0.194

> <Negative vol penalty>
0.000

$$$$

  -OEChem-04052318323D

 85 94  0     1  0  0  0  0  0999 V2000
  -24.9495  -35.0340   15.3190 C   0  0  0  0  0  0  0  0  0  0  0  0
  -25.3423  -33.6994   15.3292 C   0  0  0  0  0  0  0  0  0  0  0  0
  -23.0244  -10.3325   19.9293 C   0  0  0  0  0  0  0  0  0  0  0  0
  -23.9346   -9.7643   22.0939 C   0  0  0  0  0  0  0  0  0  0  0  0
  -25.0627  -35.8016   16.4774 C   0  0  0  0  0  0  0  0  0  0  0  0
  -25.8496  -33.1320   16.4976 C   0  0  0  0  0  0  0  0  0  0  0  0
  -25.0956  -27.3660   18.4186 C   0  0  0  0  0  0  0  0  0  0  0  0
  -22.2250   -9.1900   19.9655 C   0  0  0  0  0  0  0  0  0  0  0  0
  -23.1352   -8.6218   22.1302 C   0  0  0  0  0  0  0  0  0  0  0  0
  -25.9085  -26.2362   18.3369 C   0  0  0  0  0  0  0  0  0  0  0  0
  -19.9092   -7.8611   22.7896 C   0  0  0  0  0  0  0  0  0  0  0  0
  -19.2311   -7.5838   23.9766 C   0  0  0  0  0  0  0  0  0  0  0  0
  -26.7337  -26.6767   20.5605 C   0  0  0  0  0  0  0  0  0  0  0  0
  -20.3894   -5.4702   24.1445 C   0  0  0  0  0  0  0  0  0  0  0  0
  -28.4237  -17.3779   18.7155 C   0  0  0  0  0  0  0  0  0  0  0  0
  -23.8793  -10.6196   20.9935 C   0  0  0  0  0  0  0  0  0  0  0  0
  -24.3770  -13.0829   21.4318 C   0  0  0  0  0  0  0  0  0  0  0  0
  -25.5626  -35.2407   17.6632 C   0  0  0  0  0  0  0  0  0  0  0  0
  -25.1038  -28.1670   19.5695 C   0  0  0  0  0  0  0  0  0  0  0  0
  -25.9708  -33.8933   17.6726 C   0  0  0  0  0  0  0  0  0  0  0  0
  -25.9181  -27.8146   20.6552 C   0  0  0  0  0  0  0  0  0  0  0  0
  -22.2803   -8.3347   21.0660 C   0  0  0  0  0  0  0  0  0  0  0  0
  -26.7299  -25.8931   19.4068 C   0  0  0  0  0  0  0  0  0  0  0  0
  -20.8273   -6.9429   22.2800 C   0  0  0  0  0  0  0  0  0  0  0  0
  -19.4713   -6.3884   24.6541 C   0  0  0  0  0  0  0  0  0  0  0  0
  -21.0674   -5.7475   22.9575 C   0  0  0  0  0  0  0  0  0  0  0  0
  -24.7058  -11.7993   20.9564 C   0  0  0  0  0  0  0  0  0  0  0  0
  -28.5776  -16.5184   17.6500 C   0  0  0  0  0  0  0  0  0  0  0  0
  -26.9627  -17.6566   16.4985 C   0  0  0  0  0  0  0  0  0  0  0  0
  -26.8086  -18.5159   17.5641 C   0  0  0  0  0  0  0  0  0  0  0  0
  -25.4892  -13.8432   21.1647 C   0  0  0  0  0  0  0  0  0  0  0  0
  -23.1738  -13.5464   22.0589 C   0  0  0  0  0  0  0  0  0  0  0  0
  -29.5467  -15.4156   17.6899 C   0  0  0  0  0  0  0  0  0  0  0  0
  -25.8549  -31.1924   20.1915 C   0  0  0  0  0  0  0  0  0  0  0  0
  -24.7128  -30.4622   23.1384 C   0  0  0  0  0  0  0  0  0  0  0  0
  -24.0362  -28.0648   25.4712 C   0  0  0  0  0  0  0  0  0  0  0  0
  -25.7105  -36.1229   18.8775 C   0  0  0  0  0  0  0  0  0  0  0  0
  -24.2012  -29.3674   19.6523 C   0  0  0  0  0  0  0  0  0  0  0  0
  -25.9486  -28.6300   21.9212 C   0  0  0  0  0  0  0  0  0  0  0  0
  -25.9078  -35.3443   20.1756 C   0  0  0  0  0  0  0  0  0  0  0  0
  -30.1299  -12.5018   19.6676 C   0  0  0  0  0  0  0  0  0  0  0  0
  -26.9517  -34.2481   19.9873 C   0  0  0  0  0  0  0  0  0  0  0  0
  -27.6331  -21.3641   17.7928 C   0  0  0  0  0  0  0  0  0  0  0  0
  -25.2346  -21.9792   18.3079 C   0  0  0  0  0  0  0  0  0  0  0  0
  -28.7411  -12.1505   20.2042 C   0  0  0  0  0  0  0  0  0  0  0  0
  -28.1085  -22.6031   18.5455 C   0  0  0  0  0  0  0  0  0  0  0  0
  -25.7168  -23.2169   19.0586 C   0  0  0  0  0  0  0  0  0  0  0  0
  -30.0607  -13.0635   18.2498 C   0  0  0  0  0  0  0  0  0  0  0  0
  -27.7540  -13.8647   18.6270 C   0  0  0  0  0  0  0  0  0  0  0  0
  -26.5028  -33.2351   18.9272 C   0  0  1  0  0  0  0  0  0  0  0  0
  -24.6722  -30.3999   20.6719 C   0  0  1  0  0  0  0  0  0  0  0  0
  -26.2854  -20.8604   18.3279 C   0  0  0  0  0  0  0  0  0  0  0  0
  -27.7744  -13.3424   20.0730 C   0  0  1  0  0  0  0  0  0  0  0  0
  -27.0598  -23.7120   18.5262 C   0  0  0  0  0  0  0  0  0  1  0  0
  -26.1502  -17.8033   15.2576 C   0  0  0  0  0  0  0  0  0  0  0  0
  -24.4207  -19.1960   17.9996 C   0  0  0  0  0  0  0  0  0  0  0  0
  -23.1412  -27.7773   27.7979 C   0  0  0  0  0  0  0  0  0  0  0  0
  -27.3524  -31.4844   24.2775 C   0  0  0  0  0  0  0  0  0  0  0  0
  -26.7976  -30.3193   26.4229 C   0  0  0  0  0  0  0  0  0  0  0  0
  -25.3256  -32.1497   25.5829 C   0  0  0  0  0  0  0  0  0  0  0  0
  -21.7939  -26.3808   24.5252 C   0  0  0  0  0  0  0  0  0  0  0  0
  -25.8035  -19.6535   17.5250 C   0  0  2  0  0  0  0  0  0  0  0  0
  -25.3105  -29.9100   24.4100 C   0  0  1  0  0  0  0  0  0  0  0  0
  -22.8026  -27.8007   26.3155 C   0  0  2  0  0  0  0  0  0  0  0  0
  -26.1976  -30.9513   25.1489 C   0  0  0  0  0  0  0  0  0  0  0  0
  -27.5364  -18.3922   18.6916 N   0  0  0  0  0  0  0  0  0  0  0  0
  -25.9309  -11.7436   20.4272 N   0  0  0  0  0  0  0  0  0  0  0  0
  -27.8500  -16.6423   16.5224 N   0  0  0  0  0  0  0  0  0  0  0  0
  -26.3816  -13.0017   20.5684 N   0  0  0  0  0  0  0  0  0  0  0  0
  -29.1185  -14.1799   18.1810 N   0  0  0  0  0  0  0  0  0  0  0  0
  -25.0528  -29.7980   21.9514 N   0  0  0  0  0  0  0  0  0  0  0  0
  -25.7810  -15.1429   21.3839 N   0  0  0  0  0  0  0  0  0  0  0  0
  -22.1293  -12.6332   22.2575 N   0  0  0  0  0  0  0  0  0  0  0  0
  -25.5195  -32.3280   19.4793 N   0  0  0  0  0  0  0  0  0  0  0  0
  -24.1928  -29.4081   25.2020 N   0  0  0  0  0  0  0  0  0  0  0  0
  -22.1967  -26.4888   25.9511 N   0  3  0  0  0  0  0  0  0  0  0  0
  -23.0230  -14.7391   22.4171 O   0  0  0  0  0  0  0  0  0  0  0  0
  -30.6815  -15.6747   17.2921 O   0  0  0  0  0  0  0  0  0  0  0  0
  -26.9880  -30.8032   20.4492 O   0  0  0  0  0  0  0  0  0  0  0  0
  -23.9660  -31.4422   23.1971 O   0  0  0  0  0  0  0  0  0  0  0  0
  -24.7879  -27.1696   25.0918 O   0  0  0  0  0  0  0  0  0  0  0  0
  -21.5002   -7.2199   21.1018 O   0  0  0  0  0  0  0  0  0  0  0  0
  -27.5248  -24.7912   19.3295 O   0  0  0  0  0  0  0  0  0  1  0  0
  -18.8212   -6.1230   25.7948 F   0  0  0  0  0  0  0  0  0  0  0  0
  -21.9492   -4.8620   22.4734 F   0  0  0  0  0  0  0  0  0  0  0  0
  1  2  1  0  0  0  0
  1  5  2  0  0  0  0
  2  6  2  0  0  0  0
  3  8  2  0  0  0  0
  3 16  1  0  0  0  0
  4  9  1  0  0  0  0
  4 16  2  0  0  0  0
  5 18  1  0  0  0  0
  6 20  1  0  0  0  0
  7 10  2  0  0  0  0
  7 19  1  0  0  0  0
  8 22  1  0  0  0  0
  9 22  2  0  0  0  0
 10 23  1  0  0  0  0
 11 12  2  0  0  0  0
 11 24  1  0  0  0  0
 12 25  1  0  0  0  0
 13 21  1  0  0  0  0
 13 23  2  0  0  0  0
 14 25  2  0  0  0  0
 14 26  1  0  0  0  0
 15 28  1  0  0  0  0
 15 66  2  0  0  0  0
 16 27  1  0  0  0  0
 17 27  1  0  0  0  0
 17 31  2  0  0  0  0
 17 32  1  0  0  0  0
 18 20  2  0  0  0  0
 18 37  1  0  0  0  0
 19 21  2  0  0  0  0
 19 38  1  0  0  0  0
 20 50  1  0  0  0  0
 21 39  1  0  0  0  0
 22 82  1  0  0  0  0
 23 83  1  0  0  0  0
 24 26  2  0  0  0  0
 24 82  1  0  0  0  0
 25 84  1  0  0  0  0
 26 85  1  0  0  0  0
 27 67  2  0  0  0  0
 28 33  1  0  0  0  0
 28 68  2  0  0  0  0
 29 30  2  0  0  0  0
 29 55  1  0  0  0  0
 29 68  1  0  0  0  0
 30 62  1  0  0  0  0
 30 66  1  0  0  0  0
 31 69  1  0  0  0  0
 31 72  1  0  0  0  0
 32 73  1  0  0  0  0
 32 77  2  0  0  0  0
 33 70  1  0  0  0  0
 33 78  2  0  0  0  0
 34 51  1  0  0  0  0
 34 74  1  0  0  0  0
 34 79  2  0  0  0  0
 35 63  1  0  0  0  0
 35 71  1  0  0  0  0
 35 80  2  0  0  0  0
 36 64  1  0  0  0  0
 36 75  1  0  0  0  0
 36 81  2  0  0  0  0
 37 40  1  0  0  0  0
 38 51  1  0  0  0  0
 39 71  1  0  0  0  0
 40 42  1  0  0  0  0
 41 45  1  0  0  0  0
 41 48  1  0  0  0  0
 42 50  1  0  0  0  0
 43 46  1  0  0  0  0
 43 52  1  0  0  0  0
 44 47  1  0  0  0  0
 44 52  1  0  0  0  0
 45 53  1  0  0  0  0
 46 54  1  0  0  0  0
 47 54  1  0  0  0  0
 48 70  1  0  0  0  0
 49 53  1  0  0  0  0
 49 70  1  0  0  0  0
 50 74  1  0  0  0  0
 51 71  1  0  0  0  0
 52 62  1  0  0  0  0
 53 69  1  0  0  0  0
 54 83  1  0  0  0  0
 56 62  1  0  0  0  0
 57 64  1  0  0  0  0
 58 65  1  0  0  0  0
 59 65  1  0  0  0  0
 60 65  1  0  0  0  0
 61 76  1  0  0  0  0
 63 65  1  0  0  0  0
 63 75  1  0  0  0  0
 64 76  1  0  0  0  0
 67 69  1  0  0  0  0
M  CHG  1  76   1
M  ISO  4  28 100  33 100  54 101  83 101
M  END
> <Batch ID>
0075

> <Smiles>
CNC(C)C(=O)NC(C(=O)N1Cc2cc([101O:1][101CH:1]3CCC(C(C)c4nc[100c:0]([100C:0](=O)N5CCCC(n6nc(-c7ccc(Oc8ccc(F)cc8F)cc7)c(C(N)=O)c6N)C5)nc4C)CC3)ccc2CC1C(=O)NC1CCCc2ccccc21)C(C)(C)C

> <Shape>
0.255

> <Color>
0.157

> <Negative vol penalty>
0.000

$$$$

  -OEChem-04052318323D

 86 94  0     1  0  0  0  0  0999 V2000
  -24.9962  -11.3634   20.2469 C   0  0  0  0  0  0  0  0  0  0  0  0
  -24.4246  -12.3623   19.4653 C   0  0  0  0  0  0  0  0  0  0  0  0
  -26.4316  -30.6802   21.6682 C   0  0  0  0  0  0  0  0  0  0  0  0
  -26.5244  -29.1683   23.5503 C   0  0  0  0  0  0  0  0  0  0  0  0
  -25.7036  -11.7011   21.3999 C   0  0  0  0  0  0  0  0  0  0  0  0
  -24.5592  -13.6995   19.8370 C   0  0  0  0  0  0  0  0  0  0  0  0
  -25.1138  -18.5209   16.1017 C   0  0  0  0  0  0  0  0  0  0  0  0
  -26.8861  -31.7192   22.4803 C   0  0  0  0  0  0  0  0  0  0  0  0
  -26.9790  -30.2072   24.3625 C   0  0  0  0  0  0  0  0  0  0  0  0
  -24.1925  -19.4589   15.6378 C   0  0  0  0  0  0  0  0  0  0  0  0
  -27.6793  -34.8538   24.1441 C   0  0  0  0  0  0  0  0  0  0  0  0
  -27.0340  -36.0864   24.0449 C   0  0  0  0  0  0  0  0  0  0  0  0
  -24.8588  -20.9728   17.3937 C   0  0  0  0  0  0  0  0  0  0  0  0
  -24.9527  -35.0494   24.7006 C   0  0  0  0  0  0  0  0  0  0  0  0
  -20.9663  -21.4310   20.2355 C   0  0  0  0  0  0  0  0  0  0  0  0
  -26.2507  -29.4048   22.2032 C   0  0  0  0  0  0  0  0  0  0  0  0
  -26.5631  -27.4380   20.6089 C   0  0  0  0  0  0  0  0  0  0  0  0
  -25.8551  -13.0437   21.7807 C   0  0  0  0  0  0  0  0  0  0  0  0
  -25.9081  -18.7980   17.2236 C   0  0  0  0  0  0  0  0  0  0  0  0
  -25.2681  -14.0554   20.9969 C   0  0  0  0  0  0  0  0  0  0  0  0
  -25.7912  -20.0376   17.8683 C   0  0  0  0  0  0  0  0  0  0  0  0
  -27.1599  -31.4827   23.8274 C   0  0  0  0  0  0  0  0  0  0  0  0
  -24.0629  -20.6839   16.2855 C   0  0  0  0  0  0  0  0  0  0  0  0
  -26.9613  -33.7190   24.5214 C   0  0  0  0  0  0  0  0  0  0  0  0
  -25.6707  -36.1843   24.3232 C   0  0  0  0  0  0  0  0  0  0  0  0
  -25.5980  -33.8168   24.7997 C   0  0  0  0  0  0  0  0  0  0  0  0
  -25.7806  -28.3313   21.3649 C   0  0  0  0  0  0  0  0  0  0  0  0
  -20.1472  -21.7436   21.2912 C   0  0  0  0  0  0  0  0  0  0  0  0
  -25.6497  -26.6163   19.9950 C   0  0  0  0  0  0  0  0  0  0  0  0
  -27.9882  -27.3580   20.4738 C   0  0  0  0  0  0  0  0  0  0  0  0
  -26.2431  -17.5070   20.1089 C   0  0  0  0  0  0  0  0  0  0  0  0
  -28.6695  -19.6456   20.3563 C   0  0  0  0  0  0  0  0  0  0  0  0
  -30.0512  -22.5915   19.3270 C   0  0  0  0  0  0  0  0  0  0  0  0
  -20.0442  -25.0132   21.3588 C   0  0  0  0  0  0  0  0  0  0  0  0
  -26.5882  -13.3569   23.0610 C   0  0  0  0  0  0  0  0  0  0  0  0
  -26.9160  -17.7861   17.6953 C   0  0  0  0  0  0  0  0  0  0  0  0
  -26.6347  -20.3919   19.0647 C   0  0  0  0  0  0  0  0  0  0  0  0
  -27.0037  -14.8207   23.1825 C   0  0  0  0  0  0  0  0  0  0  0  0
  -21.1537  -26.5776   18.3591 C   0  0  0  0  0  0  0  0  0  0  0  0
  -25.8433  -15.7378   22.8093 C   0  0  0  0  0  0  0  0  0  0  0  0
  -22.5360  -27.1238   18.7211 C   0  0  0  0  0  0  0  0  0  0  0  0
  -20.1813  -26.6806   19.5320 C   0  0  0  0  0  0  0  0  0  0  0  0
  -22.0400  -26.6161   21.1490 C   0  0  0  0  0  0  0  0  0  0  0  0
  -25.4133  -15.5189   21.3537 C   0  0  1  0  0  0  0  0  0  0  0  0
  -27.3094  -17.9715   19.1576 C   0  0  1  0  0  0  0  0  0  0  0  0
  -23.0711  -26.4822   20.0154 C   0  0  2  0  0  0  0  0  0  0  0  0
  -32.0180  -24.0948   19.7382 C   0  0  0  0  0  0  0  0  0  0  0  0
  -22.0288  -21.8377   23.0653 C   0  0  0  0  0  0  0  0  0  0  0  0
  -19.7946  -20.9219   23.6360 C   0  0  0  0  0  0  0  0  0  0  0  0
  -27.3815  -20.6184   22.9457 C   0  0  0  0  0  0  0  0  0  0  0  0
  -28.8012  -22.6752   22.7974 C   0  0  0  0  0  0  0  0  0  0  0  0
  -29.8743  -20.4348   23.0254 C   0  0  0  0  0  0  0  0  0  0  0  0
  -19.5588  -21.4903   14.6798 C   0  0  0  0  0  0  0  0  0  0  0  0
  -21.1550  -23.4112   14.7026 C   0  0  0  0  0  0  0  0  0  0  0  0
  -30.9980  -22.3090   16.5372 C   0  0  0  0  0  0  0  0  0  0  0  0
  -20.4450  -22.2903   16.8772 C   0  0  0  0  0  0  0  0  0  0  0  0
  -20.4438  -21.0246   17.7447 C   0  0  0  0  0  0  0  0  0  0  0  0
  -20.0568  -23.3886   23.2349 C   0  0  0  0  0  0  0  0  0  0  0  0
  -21.9890  -21.1005   15.1986 C   0  0  0  0  0  0  0  0  0  1  0  0
  -28.7920  -21.0733   20.8315 C   0  0  1  0  0  0  0  0  0  0  0  0
  -31.4655  -22.9480   18.9061 C   0  0  2  0  0  0  0  0  0  0  0  0
  -20.4989  -21.9694   22.6991 C   0  0  0  0  0  0  0  0  0  0  0  0
  -28.6948  -21.1933   22.3787 C   0  0  0  0  0  0  0  0  0  0  0  0
  -20.8049  -22.0744   15.3800 C   0  0  0  0  0  0  0  0  0  0  0  0
  -24.4709  -28.0991   21.2437 N   0  0  0  0  0  0  0  0  0  0  0  0
  -18.8537  -21.8350   20.8578 N   0  0  0  0  0  0  0  0  0  0  0  0
  -18.8418  -21.5856   19.5529 N   0  0  0  0  0  0  0  0  0  0  0  0
  -20.1094  -21.3435   19.1818 N   0  0  0  0  0  0  0  0  0  0  0  0
  -24.4233  -27.0506   20.4043 N   0  0  0  0  0  0  0  0  0  0  0  0
  -27.6014  -19.3669   19.4918 N   0  0  0  0  0  0  0  0  0  0  0  0
  -20.7481  -26.0519   20.7275 N   0  0  0  0  0  0  0  0  0  0  0  0
  -25.7838  -25.5718   19.1502 N   0  0  0  0  0  0  0  0  0  0  0  0
  -28.7785  -28.2796   21.1741 N   0  0  0  0  0  0  0  0  0  0  0  0
  -26.3367  -16.1713   20.4503 N   0  0  0  0  0  0  0  0  0  0  0  0
  -30.0372  -21.5852   20.2695 N   0  0  0  0  0  0  0  0  0  0  0  0
  -20.6550  -24.4682   22.4816 N   0  0  0  0  0  0  0  0  0  0  0  0
  -31.4929  -23.3522   17.4720 N   0  3  0  0  0  0  0  0  0  0  0  0
  -28.5438  -26.5053   19.7404 O   0  0  0  0  0  0  0  0  0  0  0  0
  -25.3988  -18.3020   20.5050 O   0  0  0  0  0  0  0  0  0  0  0  0
  -29.4954  -18.8101   20.7324 O   0  0  0  0  0  0  0  0  0  0  0  0
  -29.0584  -23.1524   18.8684 O   0  0  0  0  0  0  0  0  0  0  0  0
  -18.9548  -24.5983   20.9489 O   0  0  0  0  0  0  0  0  0  0  0  0
  -27.6037  -32.4962   24.6202 O   0  0  0  0  0  0  0  0  0  0  0  0
  -23.1640  -21.6010   15.8352 O   0  0  0  0  0  0  0  0  0  1  0  0
  -25.0514  -37.3683   24.2294 F   0  0  0  0  0  0  0  0  0  0  0  0
  -24.9032  -32.7303   25.1638 F   0  0  0  0  0  0  0  0  0  0  0  0
  1  2  1  0  0  0  0
  1  5  2  0  0  0  0
  2  6  2  0  0  0  0
  3  8  2  0  0  0  0
  3 16  1  0  0  0  0
  4  9  1  0  0  0  0
  4 16  2  0  0  0  0
  5 18  1  0  0  0  0
  6 20  1  0  0  0  0
  7 10  2  0  0  0  0
  7 19  1  0  0  0  0
  8 22  1  0  0  0  0
  9 22  2  0  0  0  0
 10 23  1  0  0  0  0
 11 12  2  0  0  0  0
 11 24  1  0  0  0  0
 12 25  1  0  0  0  0
 13 21  1  0  0  0  0
 13 23  2  0  0  0  0
 14 25  2  0  0  0  0
 14 26  1  0  0  0  0
 15 28  2  0  0  0  0
 15 68  1  0  0  0  0
 16 27  1  0  0  0  0
 17 27  1  0  0  0  0
 17 29  2  0  0  0  0
 17 30  1  0  0  0  0
 18 20  2  0  0  0  0
 18 35  1  0  0  0  0
 19 21  2  0  0  0  0
 19 36  1  0  0  0  0
 20 44  1  0  0  0  0
 21 37  1  0  0  0  0
 22 83  1  0  0  0  0
 23 84  1  0  0  0  0
 24 26  2  0  0  0  0
 24 83  1  0  0  0  0
 25 85  1  0  0  0  0
 26 86  1  0  0  0  0
 27 65  2  0  0  0  0
 28 62  1  0  0  0  0
 28 66  1  0  0  0  0
 29 69  1  0  0  0  0
 29 72  1  0  0  0  0
 30 73  1  0  0  0  0
 30 78  2  0  0  0  0
 31 45  1  0  0  0  0
 31 74  1  0  0  0  0
 31 79  2  0  0  0  0
 32 60  1  0  0  0  0
 32 70  1  0  0  0  0
 32 80  2  0  0  0  0
 33 61  1  0  0  0  0
 33 75  1  0  0  0  0
 33 81  2  0  0  0  0
 34 71  1  0  0  0  0
 34 76  1  0  0  0  0
 34 82  2  0  0  0  0
 35 38  1  0  0  0  0
 36 45  1  0  0  0  0
 37 70  1  0  0  0  0
 38 40  1  0  0  0  0
 39 41  1  0  0  0  0
 39 42  1  0  0  0  0
 40 44  1  0  0  0  0
 41 46  1  0  0  0  0
 42 71  1  0  0  0  0
 43 46  1  0  0  0  0
 43 71  1  0  0  0  0
 44 74  1  0  0  0  0
 45 70  1  0  0  0  0
 46 69  1  0  0  0  0
 47 61  1  0  0  0  0
 48 62  1  0  0  0  0
 49 62  1  0  0  0  0
 50 63  1  0  0  0  0
 51 63  1  0  0  0  0
 52 63  1  0  0  0  0
 53 64  1  0  0  0  0
 54 64  1  0  0  0  0
 55 77  1  0  0  0  0
 56 57  1  0  0  0  0
 56 64  1  0  0  0  0
 57 68  1  0  0  0  0
 58 62  1  0  0  0  0
 58 76  1  0  0  0  0
 59 64  1  0  0  0  0
 59 84  1  0  0  0  0
 60 63  1  0  0  0  0
 60 75  1  0  0  0  0
 61 77  1  0  0  0  0
 65 69  1  0  0  0  0
 66 67  2  0  0  0  0
 67 68  1  0  0  0  0
M  CHG  1  77   1
M  ISO  4  34 100  59 101  76 100  84 101
M  END
> <Batch ID>
0075

> <Smiles>
CNC(C)C(=O)NC(C(=O)N1Cc2cc([101O:1][101CH2:1]C(C)(C)CCn3cc(C(C)(C)C[100NH:0][100C:0](=O)N4CCCC(n5nc(-c6ccc(Oc7ccc(F)cc7F)cc6)c(C(N)=O)c5N)C4)nn3)ccc2CC1C(=O)NC1CCCc2ccccc21)C(C)(C)C

> <Shape>
0.227

> <Color>
0.061

> <Negative vol penalty>
0.000

$$$$

  -OEChem-04052318323D

 84 92  0     1  0  0  0  0  0999 V2000
  -17.6306  -30.0147   25.0484 C   0  0  0  0  0  0  0  0  0  0  0  0
  -18.9581  -29.9598   25.4610 C   0  0  0  0  0  0  0  0  0  0  0  0
  -26.9941  -14.8922   21.6043 C   0  0  0  0  0  0  0  0  0  0  0  0
  -26.8305  -15.3932   19.2465 C   0  0  0  0  0  0  0  0  0  0  0  0
  -17.2512  -29.4239   23.8438 C   0  0  0  0  0  0  0  0  0  0  0  0
  -19.9068  -29.3132   24.6697 C   0  0  0  0  0  0  0  0  0  0  0  0
  -25.7837  -30.8781   23.9497 C   0  0  0  0  0  0  0  0  0  0  0  0
  -25.9525  -13.9727   21.4812 C   0  0  0  0  0  0  0  0  0  0  0  0
  -25.7889  -14.4737   19.1234 C   0  0  0  0  0  0  0  0  0  0  0  0
  -26.9585  -30.4058   24.5334 C   0  0  0  0  0  0  0  0  0  0  0  0
  -25.5455  -10.8029   20.3768 C   0  0  0  0  0  0  0  0  0  0  0  0
  -25.6993   -9.5625   20.9958 C   0  0  0  0  0  0  0  0  0  0  0  0
  -27.3041  -28.9471   22.6434 C   0  0  0  0  0  0  0  0  0  0  0  0
  -23.7328   -9.9864   22.3338 C   0  0  0  0  0  0  0  0  0  0  0  0
  -31.0304  -28.5296   22.4687 C   0  0  0  0  0  0  0  0  0  0  0  0
  -27.4331  -15.6025   20.4870 C   0  0  0  0  0  0  0  0  0  0  0  0
  -29.8860  -16.3028   20.4648 C   0  0  0  0  0  0  0  0  0  0  0  0
  -18.1976  -28.7781   23.0327 C   0  0  0  0  0  0  0  0  0  0  0  0
  -25.3539  -30.3797   22.7114 C   0  0  0  0  0  0  0  0  0  0  0  0
  -19.5395  -28.7121   23.4538 C   0  0  0  0  0  0  0  0  0  0  0  0
  -26.1249  -29.4166   22.0449 C   0  0  0  0  0  0  0  0  0  0  0  0
  -25.3499  -13.7634   20.2407 C   0  0  0  0  0  0  0  0  0  0  0  0
  -27.7173  -29.4381   23.8816 C   0  0  0  0  0  0  0  0  0  0  0  0
  -24.4854  -11.6352   20.7363 C   0  0  0  0  0  0  0  0  0  0  0  0
  -24.7929   -9.1542   21.9743 C   0  0  0  0  0  0  0  0  0  0  0  0
  -23.5790  -11.2269   21.7147 C   0  0  0  0  0  0  0  0  0  0  0  0
  -28.5086  -16.5529   20.6137 C   0  0  0  0  0  0  0  0  0  0  0  0
  -30.1044  -27.5684   22.9163 C   0  0  0  0  0  0  0  0  0  0  0  0
  -31.5473  -27.9965   21.3132 C   0  0  0  0  0  0  0  0  0  0  0  0
  -30.4816  -17.5213   20.6815 C   0  0  0  0  0  0  0  0  0  0  0  0
  -30.5662  -15.0785   20.1579 C   0  0  0  0  0  0  0  0  0  0  0  0
  -22.7893  -28.7990   21.6976 C   0  0  0  0  0  0  0  0  0  0  0  0
  -24.1334  -29.2684   18.7829 C   0  0  0  0  0  0  0  0  0  0  0  0
  -26.9540  -29.8570   16.9541 C   0  0  0  0  0  0  0  0  0  0  0  0
  -28.5033  -23.0424   20.0043 C   0  0  0  0  0  0  0  0  0  0  0  0
  -17.7313  -28.1132   21.7618 C   0  0  0  0  0  0  0  0  0  0  0  0
  -24.0985  -30.9189   22.0826 C   0  0  0  0  0  0  0  0  0  0  0  0
  -25.7177  -28.8638   20.7043 C   0  0  0  0  0  0  0  0  0  0  0  0
  -18.8671  -27.7726   20.8005 C   0  0  0  0  0  0  0  0  0  0  0  0
  -29.8482  -21.6302   23.0529 C   0  0  0  0  0  0  0  0  0  0  0  0
  -20.0167  -27.1042   21.5478 C   0  0  0  0  0  0  0  0  0  0  0  0
  -29.7844  -20.1324   22.7483 C   0  0  0  0  0  0  0  0  0  0  0  0
  -28.6405  -22.3634   22.4767 C   0  0  0  0  0  0  0  0  0  0  0  0
  -28.3759  -20.6691   20.7067 C   0  0  0  0  0  0  0  0  0  0  0  0
  -20.6024  -28.0413   22.6110 C   0  0  1  0  0  0  0  0  0  0  0  0
  -23.4863  -29.9671   21.0594 C   0  0  1  0  0  0  0  0  0  0  0  0
  -29.5805  -19.8748   21.2435 C   0  0  2  0  0  0  0  0  0  0  0  0
  -32.5592  -28.5159   20.3751 C   0  0  0  0  0  0  0  0  0  0  0  0
  -29.9358  -27.0421   25.3734 C   0  0  0  0  0  0  0  0  0  0  0  0
  -27.7431  -30.1530   14.5904 C   0  0  0  0  0  0  0  0  0  0  0  0
  -23.9106  -26.2585   18.3342 C   0  0  0  0  0  0  0  0  0  0  0  0
  -25.5323  -26.4911   16.4410 C   0  0  0  0  0  0  0  0  0  0  0  0
  -23.3286  -27.6560   16.3435 C   0  0  0  0  0  0  0  0  0  0  0  0
  -30.4398  -24.8192   17.8340 C   0  0  0  0  0  0  0  0  0  0  0  0
  -30.0180  -27.2293   18.2894 C   0  0  0  0  0  0  0  0  0  0  0  0
  -27.9207  -32.6009   17.4976 C   0  0  0  0  0  0  0  0  0  0  0  0
  -31.1279  -25.8542   20.0687 C   0  0  0  0  0  0  0  0  0  0  0  0
  -28.6441  -25.4578   19.4534 C   0  0  0  0  0  0  0  0  0  0  0  0
  -29.2382  -27.6300   24.1534 C   0  0  1  0  0  0  0  0  0  1  0  0
  -25.1115  -28.5066   17.9215 C   0  0  1  0  0  0  0  0  0  0  0  0
  -27.2466  -30.8526   15.8461 C   0  0  2  0  0  0  0  0  0  0  0  0
  -24.4777  -27.2368   17.2862 C   0  0  0  0  0  0  0  0  0  0  0  0
  -30.0557  -25.8261   18.9375 C   0  0  0  0  0  0  0  0  0  0  0  0
  -28.2447  -17.8299   20.9028 N   0  0  0  0  0  0  0  0  0  0  0  0
  -30.0348  -26.5053   22.1107 N   0  0  0  0  0  0  0  0  0  0  0  0
  -30.9235  -26.7954   21.1453 N   0  0  0  0  0  0  0  0  0  0  0  0
  -29.4644  -18.3931   20.9375 N   0  0  0  0  0  0  0  0  0  0  0  0
  -24.4790  -29.4181   20.1335 N   0  0  0  0  0  0  0  0  0  0  0  0
  -28.5140  -22.0912   21.0379 N   0  0  0  0  0  0  0  0  0  0  0  0
  -31.7709  -17.9213   20.6764 N   0  0  0  0  0  0  0  0  0  0  0  0
  -29.8018  -13.9196   19.9654 N   0  0  0  0  0  0  0  0  0  0  0  0
  -21.4600  -29.0311   21.9951 N   0  0  0  0  0  0  0  0  0  0  0  0
  -25.6325  -29.4636   16.9514 N   0  0  0  0  0  0  0  0  0  0  0  0
  -28.6320  -24.3673   20.4030 N   0  0  0  0  0  0  0  0  0  0  0  0
  -28.2871  -31.8250   16.2849 N   0  3  0  0  0  0  0  0  0  0  0  0
  -31.8159  -15.0108   20.0735 O   0  0  0  0  0  0  0  0  0  0  0  0
  -23.4111  -27.7633   21.9034 O   0  0  0  0  0  0  0  0  0  0  0  0
  -23.1043  -29.7202   18.2747 O   0  0  0  0  0  0  0  0  0  0  0  0
  -27.8128  -29.4645   17.7408 O   0  0  0  0  0  0  0  0  0  0  0  0
  -28.3926  -22.7335   18.8129 O   0  0  0  0  0  0  0  0  0  0  0  0
  -24.3336  -12.8660   20.1202 O   0  0  0  0  0  0  0  0  0  0  0  0
  -28.8640  -28.9749   24.4495 O   0  0  0  0  0  0  0  0  0  1  0  0
  -24.9398   -7.9623   22.5676 F   0  0  0  0  0  0  0  0  0  0  0  0
  -22.5579  -12.0216   22.0635 F   0  0  0  0  0  0  0  0  0  0  0  0
  1  2  1  0  0  0  0
  1  5  2  0  0  0  0
  2  6  2  0  0  0  0
  3  8  2  0  0  0  0
  3 16  1  0  0  0  0
  4  9  1  0  0  0  0
  4 16  2  0  0  0  0
  5 18  1  0  0  0  0
  6 20  1  0  0  0  0
  7 10  2  0  0  0  0
  7 19  1  0  0  0  0
  8 22  1  0  0  0  0
  9 22  2  0  0  0  0
 10 23  1  0  0  0  0
 11 12  2  0  0  0  0
 11 24  1  0  0  0  0
 12 25  1  0  0  0  0
 13 21  1  0  0  0  0
 13 23  2  0  0  0  0
 14 25  2  0  0  0  0
 14 26  1  0  0  0  0
 15 28  1  0  0  0  0
 15 29  2  0  0  0  0
 16 27  1  0  0  0  0
 17 27  1  0  0  0  0
 17 30  2  0  0  0  0
 17 31  1  0  0  0  0
 18 20  2  0  0  0  0
 18 36  1  0  0  0  0
 19 21  2  0  0  0  0
 19 37  1  0  0  0  0
 20 45  1  0  0  0  0
 21 38  1  0  0  0  0
 22 81  1  0  0  0  0
 23 82  1  0  0  0  0
 24 26  2  0  0  0  0
 24 81  1  0  0  0  0
 25 83  1  0  0  0  0
 26 84  1  0  0  0  0
 27 64  2  0  0  0  0
 28 59  1  0  0  0  0
 28 65  2  0  0  0  0
 29 48  1  0  0  0  0
 29 66  1  0  0  0  0
 30 67  1  0  0  0  0
 30 70  1  0  0  0  0
 31 71  1  0  0  0  0
 31 76  2  0  0  0  0
 32 46  1  0  0  0  0
 32 72  1  0  0  0  0
 32 77  2  0  0  0  0
 33 60  1  0  0  0  0
 33 68  1  0  0  0  0
 33 78  2  0  0  0  0
 34 61  1  0  0  0  0
 34 73  1  0  0  0  0
 34 79  2  0  0  0  0
 35 69  1  0  0  0  0
 35 74  1  0  0  0  0
 35 80  2  0  0  0  0
 36 39  1  0  0  0  0
 37 46  1  0  0  0  0
 38 68  1  0  0  0  0
 39 41  1  0  0  0  0
 40 42  1  0  0  0  0
 40 43  1  0  0  0  0
 41 45  1  0  0  0  0
 42 47  1  0  0  0  0
 43 69  1  0  0  0  0
 44 47  1  0  0  0  0
 44 69  1  0  0  0  0
 45 72  1  0  0  0  0
 46 68  1  0  0  0  0
 47 67  1  0  0  0  0
 49 59  1  0  0  0  0
 50 61  1  0  0  0  0
 51 62  1  0  0  0  0
 52 62  1  0  0  0  0
 53 62  1  0  0  0  0
 54 63  1  0  0  0  0
 55 63  1  0  0  0  0
 56 75  1  0  0  0  0
 57 63  1  0  0  0  0
 57 66  1  0  0  0  0
 58 63  1  0  0  0  0
 58 74  1  0  0  0  0
 59 82  1  0  0  0  0
 60 62  1  0  0  0  0
 60 73  1  0  0  0  0
 61 75  1  0  0  0  0
 64 67  1  0  0  0  0
 65 66  1  0  0  0  0
M  CHG  1  75   1
M  ISO  4  35 100  59 101  74 100  82 101
M  END
> <Batch ID>
0075

> <Smiles>
CNC(C)C(=O)NC(C(=O)N1Cc2cc([101O:1][101CH:1](C)c3cc(C)n(CC(C)(C)C[100NH:0][100C:0](=O)N4CCCC(n5nc(-c6ccc(Oc7ccc(F)cc7F)cc6)c(C(N)=O)c5N)C4)n3)ccc2CC1C(=O)NC1CCCc2ccccc21)C(C)(C)C

> <Shape>
0.317

> <Color>
0.082

> <Negative vol penalty>
0.000

$$$$

  -OEChem-04052318323D

 88 96  0     1  0  0  0  0  0999 V2000
  -21.7299  -11.7863   19.2814 C   0  0  0  0  0  0  0  0  0  0  0  0
  -21.5140  -13.1118   19.6446 C   0  0  0  0  0  0  0  0  0  0  0  0
  -29.4635  -26.3357   23.1306 C   0  0  0  0  0  0  0  0  0  0  0  0
  -27.6073  -25.0034   23.9159 C   0  0  0  0  0  0  0  0  0  0  0  0
  -22.9627  -11.1869   19.5362 C   0  0  0  0  0  0  0  0  0  0  0  0
  -22.5304  -13.8383   20.2638 C   0  0  0  0  0  0  0  0  0  0  0  0
  -23.7161  -19.8100   19.6010 C   0  0  0  0  0  0  0  0  0  0  0  0
  -30.2506  -25.8562   24.1775 C   0  0  0  0  0  0  0  0  0  0  0  0
  -28.3945  -24.5238   24.9628 C   0  0  0  0  0  0  0  0  0  0  0  0
  -23.3912  -20.9225   20.3761 C   0  0  0  0  0  0  0  0  0  0  0  0
  -30.6357  -26.4571   27.4813 C   0  0  0  0  0  0  0  0  0  0  0  0
  -31.4074  -27.3805   28.1865 C   0  0  0  0  0  0  0  0  0  0  0  0
  -25.5491  -20.7987   21.4473 C   0  0  0  0  0  0  0  0  0  0  0  0
  -33.4110  -26.1846   27.5599 C   0  0  0  0  0  0  0  0  0  0  0  0
  -20.7884  -25.6094   22.4989 C   0  0  0  0  0  0  0  0  0  0  0  0
  -28.1418  -25.9093   22.9998 C   0  0  0  0  0  0  0  0  0  0  0  0
  -27.1868  -25.8445   20.6352 C   0  0  0  0  0  0  0  0  0  0  0  0
  -23.9980  -11.9094   20.1500 C   0  0  0  0  0  0  0  0  0  0  0  0
  -24.9577  -19.1759   19.7513 C   0  0  0  0  0  0  0  0  0  0  0  0
  -23.7777  -13.2476   20.5282 C   0  0  0  0  0  0  0  0  0  0  0  0
  -25.8882  -19.6799   20.6712 C   0  0  0  0  0  0  0  0  0  0  0  0
  -20.2980  -24.5713   23.2527 C   0  0  0  0  0  0  0  0  0  0  0  0
  -29.7162  -24.9502   25.0936 C   0  0  0  0  0  0  0  0  0  0  0  0
  -24.3066  -21.4152   21.3014 C   0  0  0  0  0  0  0  0  0  0  0  0
  -31.2516  -25.3974   26.8155 C   0  0  0  0  0  0  0  0  0  0  0  0
  -32.7950  -27.2443   28.2258 C   0  0  0  0  0  0  0  0  0  0  0  0
  -32.6392  -25.2611   26.8548 C   0  0  0  0  0  0  0  0  0  0  0  0
  -27.3280  -26.4048   21.9189 C   0  0  0  0  0  0  0  0  0  0  0  0
  -18.9179  -24.5564   22.9755 C   0  0  0  0  0  0  0  0  0  0  0  0
  -26.3110  -26.6824   19.9893 C   0  0  0  0  0  0  0  0  0  0  0  0
  -27.7931  -24.6715   20.0766 C   0  0  0  0  0  0  0  0  0  0  0  0
  -25.9007  -16.2702   20.6296 C   0  0  0  0  0  0  0  0  0  0  0  0
  -28.8282  -17.3940   19.7995 C   0  0  0  0  0  0  0  0  0  0  0  0
  -30.8715  -20.0868   19.3298 C   0  0  0  0  0  0  0  0  0  0  0  0
  -22.0493  -30.4112   21.9349 C   0  0  0  0  0  0  0  0  0  0  0  0
  -25.2976  -11.2045   20.4478 C   0  0  0  0  0  0  0  0  0  0  0  0
  -25.3033  -17.9931   18.8887 C   0  0  0  0  0  0  0  0  0  0  0  0
  -27.2426  -19.0476   20.8564 C   0  0  0  0  0  0  0  0  0  0  0  0
  -26.4472  -12.1563   20.7685 C   0  0  0  0  0  0  0  0  0  0  0  0
  -24.8580  -31.2402   19.9099 C   0  0  0  0  0  0  0  0  0  0  0  0
  -25.9964  -13.2222   21.7622 C   0  0  0  0  0  0  0  0  0  0  0  0
  -25.7968  -30.0444   20.0794 C   0  0  0  0  0  0  0  0  0  0  0  0
  -24.1170  -31.5640   21.2054 C   0  0  0  0  0  0  0  0  0  0  0  0
  -24.3307  -29.2322   21.9740 C   0  0  0  0  0  0  0  0  0  0  0  0
  -24.8639  -14.0762   21.1793 C   0  0  1  0  0  0  0  0  0  0  0  0
  -26.3961  -17.1143   19.4896 C   0  0  1  0  0  0  0  0  0  0  0  0
  -25.0586  -28.8325   20.6790 C   0  0  2  0  0  0  0  0  0  0  0  0
  -33.2216  -20.6880   18.6872 C   0  0  0  0  0  0  0  0  0  0  0  0
  -17.8043  -23.7295   25.0783 C   0  0  0  0  0  0  0  0  0  0  0  0
  -18.2076  -22.1466   23.1631 C   0  0  0  0  0  0  0  0  0  0  0  0
  -16.4261  -23.8743   23.0140 C   0  0  0  0  0  0  0  0  0  0  0  0
  -29.7973  -16.5550   22.5684 C   0  0  0  0  0  0  0  0  0  0  0  0
  -31.8113  -18.0023   22.2255 C   0  0  0  0  0  0  0  0  0  0  0  0
  -31.3975  -16.0645   20.7101 C   0  0  0  0  0  0  0  0  0  0  0  0
  -17.7598  -28.5548   21.8987 C   0  0  0  0  0  0  0  0  0  0  0  0
  -19.3427  -29.6510   20.3219 C   0  0  0  0  0  0  0  0  0  0  0  0
  -29.9580  -21.6104   16.9627 C   0  0  0  0  0  0  0  0  0  0  0  0
  -21.0749  -23.6595   24.1684 C   0  0  0  0  0  0  0  0  0  0  0  0
  -22.5160  -23.4144   23.7159 C   0  0  0  0  0  0  0  0  0  0  0  0
  -19.7307  -27.2482   20.9257 C   0  0  0  0  0  0  0  0  0  0  0  0
  -20.0663  -29.1200   22.6831 C   0  0  0  0  0  0  0  0  0  0  0  0
  -22.6139  -22.6942   22.3761 C   0  0  0  0  0  0  0  0  0  1  0  0
  -29.9383  -18.1204   20.5200 C   0  0  1  0  0  0  0  0  0  0  0  0
  -31.8030  -20.4578   18.1900 C   0  0  2  0  0  0  0  0  0  0  0  0
  -17.8978  -23.6412   23.5168 C   0  0  0  0  0  0  0  0  0  0  0  0
  -30.7099  -17.1965   21.5041 C   0  0  0  0  0  0  0  0  0  0  0  0
  -19.2405  -28.6232   21.4724 C   0  0  0  0  0  0  0  0  0  0  0  0
  -26.6002  -27.5131   22.0807 N   0  0  0  0  0  0  0  0  0  0  0  0
  -18.5548  -25.5095   22.1130 N   0  0  0  0  0  0  0  0  0  0  0  0
  -19.7140  -26.1331   21.8419 N   0  0  0  0  0  0  0  0  0  0  0  0
  -25.9934  -27.6560   20.8901 N   0  0  0  0  0  0  0  0  0  0  0  0
  -27.5312  -17.8897   19.9941 N   0  0  0  0  0  0  0  0  0  0  0  0
  -23.4370  -30.3732   21.7208 N   0  0  0  0  0  0  0  0  0  0  0  0
  -25.7893  -26.6742   18.7442 N   0  0  0  0  0  0  0  0  0  0  0  0
  -28.6684  -23.9257   20.8778 N   0  0  0  0  0  0  0  0  0  0  0  0
  -25.3921  -15.0449   20.2428 N   0  0  0  0  0  0  0  0  0  0  0  0
  -30.7729  -18.7202   19.4846 N   0  0  0  0  0  0  0  0  0  0  0  0
  -21.4830  -29.2382   22.4188 N   0  0  0  0  0  0  0  0  0  0  0  0
  -31.3318  -21.7030   17.5203 N   0  3  0  0  0  0  0  0  0  0  0  0
  -27.5782  -24.3049   18.8963 O   0  0  0  0  0  0  0  0  0  0  0  0
  -25.9758  -16.6981   21.7754 O   0  0  0  0  0  0  0  0  0  0  0  0
  -29.1026  -16.4271   19.0844 O   0  0  0  0  0  0  0  0  0  0  0  0
  -30.2924  -20.9255   20.0167 O   0  0  0  0  0  0  0  0  0  0  0  0
  -21.3648  -31.4143   21.7063 O   0  0  0  0  0  0  0  0  0  0  0  0
  -30.4841  -24.4819   26.1151 O   0  0  0  0  0  0  0  0  0  0  0  0
  -23.9918  -22.5005   22.0596 O   0  0  0  0  0  0  0  0  0  1  0  0
  -33.5361  -28.1320   28.9018 F   0  0  0  0  0  0  0  0  0  0  0  0
  -33.2366  -24.2458   26.2161 F   0  0  0  0  0  0  0  0  0  0  0  0
  1  2  1  0  0  0  0
  1  5  2  0  0  0  0
  2  6  2  0  0  0  0
  3  8  2  0  0  0  0
  3 16  1  0  0  0  0
  4  9  1  0  0  0  0
  4 16  2  0  0  0  0
  5 18  1  0  0  0  0
  6 20  1  0  0  0  0
  7 10  2  0  0  0  0
  7 19  1  0  0  0  0
  8 23  1  0  0  0  0
  9 23  2  0  0  0  0
 10 24  1  0  0  0  0
 11 12  2  0  0  0  0
 11 25  1  0  0  0  0
 12 26  1  0  0  0  0
 13 21  1  0  0  0  0
 13 24  2  0  0  0  0
 14 26  2  0  0  0  0
 14 27  1  0  0  0  0
 15 22  2  0  0  0  0
 15 70  1  0  0  0  0
 16 28  1  0  0  0  0
 17 28  1  0  0  0  0
 17 30  2  0  0  0  0
 17 31  1  0  0  0  0
 18 20  2  0  0  0  0
 18 36  1  0  0  0  0
 19 21  2  0  0  0  0
 19 37  1  0  0  0  0
 20 45  1  0  0  0  0
 21 38  1  0  0  0  0
 22 29  1  0  0  0  0
 22 58  1  0  0  0  0
 23 85  1  0  0  0  0
 24 86  1  0  0  0  0
 25 27  2  0  0  0  0
 25 85  1  0  0  0  0
 26 87  1  0  0  0  0
 27 88  1  0  0  0  0
 28 68  2  0  0  0  0
 29 65  1  0  0  0  0
 29 69  2  0  0  0  0
 30 71  1  0  0  0  0
 30 74  1  0  0  0  0
 31 75  1  0  0  0  0
 31 80  2  0  0  0  0
 32 46  1  0  0  0  0
 32 76  1  0  0  0  0
 32 81  2  0  0  0  0
 33 63  1  0  0  0  0
 33 72  1  0  0  0  0
 33 82  2  0  0  0  0
 34 64  1  0  0  0  0
 34 77  1  0  0  0  0
 34 83  2  0  0  0  0
 35 73  1  0  0  0  0
 35 78  1  0  0  0  0
 35 84  2  0  0  0  0
 36 39  1  0  0  0  0
 37 46  1  0  0  0  0
 38 72  1  0  0  0  0
 39 41  1  0  0  0  0
 40 42  1  0  0  0  0
 40 43  1  0  0  0  0
 41 45  1  0  0  0  0
 42 47  1  0  0  0  0
 43 73  1  0  0  0  0
 44 47  1  0  0  0  0
 44 73  1  0  0  0  0
 45 76  1  0  0  0  0
 46 72  1  0  0  0  0
 47 71  1  0  0  0  0
 48 64  1  0  0  0  0
 49 65  1  0  0  0  0
 50 65  1  0  0  0  0
 51 65  1  0  0  0  0
 52 66  1  0  0  0  0
 53 66  1  0  0  0  0
 54 66  1  0  0  0  0
 55 67  1  0  0  0  0
 56 67  1  0  0  0  0
 57 79  1  0  0  0  0
 58 59  1  0  0  0  0
 59 62  1  0  0  0  0
 60 67  1  0  0  0  0
 60 70  1  0  0  0  0
 61 67  1  0  0  0  0
 61 78  1  0  0  0  0
 62 86  1  0  0  0  0
 63 66  1  0  0  0  0
 63 77  1  0  0  0  0
 64 79  1  0  0  0  0
 68 71  1  0  0  0  0
 69 70  1  0  0  0  0
M  CHG  1  79   1
M  ISO  4  35 100  62 101  78 100  86 101
M  END
> <Batch ID>
0075

> <Smiles>
CNC(C)C(=O)NC(C(=O)N1Cc2cc([101O:1][101CH2:1]CCc3cn(CC(C)(C)C[100NH:0][100C:0](=O)N4CCCC(n5nc(-c6ccc(Oc7ccc(F)cc7F)cc6)c(C(N)=O)c5N)C4)nc3C(C)(C)C)ccc2CC1C(=O)NC1CCCc2ccccc21)C(C)(C)C

> <Shape>
0.204

> <Color>
0.081

> <Negative vol penalty>
0.000

$$$$

  -OEChem-04052318323D

 85 93  0     1  0  0  0  0  0999 V2000
  -23.3029   -7.8617   22.4323 C   0  0  0  0  0  0  0  0  0  0  0  0
  -24.2224   -8.9057   22.4345 C   0  0  0  0  0  0  0  0  0  0  0  0
  -20.4425  -27.6785   23.5927 C   0  0  0  0  0  0  0  0  0  0  0  0
  -19.8422  -27.2704   21.2883 C   0  0  0  0  0  0  0  0  0  0  0  0
  -22.0602   -8.0301   21.8230 C   0  0  0  0  0  0  0  0  0  0  0  0
  -23.9000  -10.1184   21.8263 C   0  0  0  0  0  0  0  0  0  0  0  0
  -25.6111  -15.7135   23.6356 C   0  0  0  0  0  0  0  0  0  0  0  0
  -19.1378  -28.0935   23.8591 C   0  0  0  0  0  0  0  0  0  0  0  0
  -18.5374  -27.6854   21.5548 C   0  0  0  0  0  0  0  0  0  0  0  0
  -26.6326  -16.5639   23.2147 C   0  0  0  0  0  0  0  0  0  0  0  0
  -16.1324  -26.6522   24.4276 C   0  0  0  0  0  0  0  0  0  0  0  0
  -15.5226  -26.1703   25.5858 C   0  0  0  0  0  0  0  0  0  0  0  0
  -25.0773  -17.7059   21.7670 C   0  0  0  0  0  0  0  0  0  0  0  0
  -15.2619  -28.4336   26.3902 C   0  0  0  0  0  0  0  0  0  0  0  0
  -20.7948  -27.2669   22.3073 C   0  0  0  0  0  0  0  0  0  0  0  0
  -22.6559  -25.5314   22.1289 C   0  0  0  0  0  0  0  0  0  0  0  0
  -21.7187   -9.2487   21.2155 C   0  0  0  0  0  0  0  0  0  0  0  0
  -24.3153  -15.8462   23.1163 C   0  0  0  0  0  0  0  0  0  0  0  0
  -22.6521  -10.3028   21.2072 C   0  0  0  0  0  0  0  0  0  0  0  0
  -24.0405  -16.8576   22.1848 C   0  0  0  0  0  0  0  0  0  0  0  0
  -18.1853  -28.0970   22.8402 C   0  0  0  0  0  0  0  0  0  0  0  0
  -26.3665  -17.5584   22.2782 C   0  0  0  0  0  0  0  0  0  0  0  0
  -16.3071  -28.0248   24.2507 C   0  0  0  0  0  0  0  0  0  0  0  0
  -15.0874  -27.0610   26.5671 C   0  0  0  0  0  0  0  0  0  0  0  0
  -15.8718  -28.9154   25.2319 C   0  0  0  0  0  0  0  0  0  0  0  0
  -22.1425  -26.8386   22.0313 C   0  0  0  0  0  0  0  0  0  0  0  0
  -23.9743  -25.6521   21.7632 C   0  0  0  0  0  0  0  0  0  0  0  0
  -29.1367  -23.9205   19.1072 C   0  0  0  0  0  0  0  0  0  0  0  0
  -28.5754  -22.9014   20.9390 C   0  0  0  0  0  0  0  0  0  0  0  0
  -21.9997  -24.3167   22.5154 C   0  0  0  0  0  0  0  0  0  0  0  0
  -22.3741  -13.9808   21.4264 C   0  0  0  0  0  0  0  0  0  0  0  0
  -20.2533  -16.3801   21.9444 C   0  0  0  0  0  0  0  0  0  0  0  0
  -19.7240  -19.6776   22.6466 C   0  0  0  0  0  0  0  0  0  0  0  0
  -27.9194  -27.6812   18.3772 C   0  0  0  0  0  0  0  0  0  0  0  0
  -20.3815   -9.3677   20.5282 C   0  0  0  0  0  0  0  0  0  0  0  0
  -23.2183  -14.9381   23.6005 C   0  0  0  0  0  0  0  0  0  0  0  0
  -22.6616  -17.0548   21.6120 C   0  0  0  0  0  0  0  0  0  0  0  0
  -19.9744  -10.8091   20.2333 C   0  0  0  0  0  0  0  0  0  0  0  0
  -26.8296  -29.7661   21.0496 C   0  0  0  0  0  0  0  0  0  0  0  0
  -21.1388  -11.5770   19.6159 C   0  0  0  0  0  0  0  0  0  0  0  0
  -25.5527  -29.0861   21.5467 C   0  0  0  0  0  0  0  0  0  0  0  0
  -26.9733  -29.6573   19.5332 C   0  0  0  0  0  0  0  0  0  0  0  0
  -25.6092  -27.6050   19.4969 C   0  0  0  0  0  0  0  0  0  0  0  0
  -22.3299  -11.6416   20.5795 C   0  0  1  0  0  0  0  0  0  0  0  0
  -22.0533  -14.8336   22.6212 C   0  0  1  0  0  0  0  0  0  0  0  0
  -25.4486  -27.6399   21.0264 C   0  0  2  0  0  0  0  0  0  0  0  0
  -31.4908  -24.7288   21.1937 C   0  0  0  0  0  0  0  0  0  0  0  0
  -17.8829  -21.3520   22.9695 C   0  0  0  0  0  0  0  0  0  0  0  0
  -27.2778  -21.1844   24.1220 C   0  0  0  0  0  0  0  0  0  0  0  0
  -19.8118  -16.4728   18.9267 C   0  0  0  0  0  0  0  0  0  0  0  0
  -18.7412  -18.7166   19.2225 C   0  0  0  0  0  0  0  0  0  0  0  0
  -17.7299  -16.7033   20.2933 C   0  0  0  0  0  0  0  0  0  0  0  0
  -20.5609  -20.2344   25.4302 C   0  0  0  0  0  0  0  0  0  0  0  0
  -29.7439  -24.9092   18.1986 C   0  0  0  0  0  0  0  0  0  0  0  0
  -28.4612  -22.5793   22.4096 C   0  0  0  0  0  0  0  0  0  0  0  0
  -28.9295  -20.0768   22.5364 C   0  0  0  0  0  0  0  0  0  0  0  0
  -29.9896  -24.9578   21.2306 C   0  0  0  0  0  0  0  0  0  0  0  0
  -28.7378  -25.6160   17.2705 C   0  0  0  0  0  0  0  0  0  0  0  0
  -28.4032  -18.6701   22.7996 C   0  0  0  0  0  0  0  0  0  1  0  0
  -19.8812  -17.6525   21.2223 C   0  0  1  0  0  0  0  0  0  0  0  0
  -18.8126  -20.3599   23.6508 C   0  0  2  0  0  0  0  0  0  0  0  0
  -27.8689  -21.1828   22.7074 C   0  0  1  0  0  0  0  0  0  0  0  0
  -19.0676  -17.3816   19.9254 C   0  0  0  0  0  0  0  0  0  0  0  0
  -23.0600  -27.7247   21.6349 N   0  0  0  0  0  0  0  0  0  0  0  0
  -28.4079  -22.8798   18.7725 N   0  0  0  0  0  0  0  0  0  0  0  0
  -28.0508  -22.2314   19.9379 N   0  0  0  0  0  0  0  0  0  0  0  0
  -24.1632  -26.9729   21.4801 N   0  0  0  0  0  0  0  0  0  0  0  0
  -29.2677  -23.9727   20.4618 N   0  0  0  0  0  0  0  0  0  0  0  0
  -21.6241  -16.1377   22.1121 N   0  0  0  0  0  0  0  0  0  0  0  0
  -26.8669  -28.2604   19.1050 N   0  0  0  0  0  0  0  0  0  0  0  0
  -24.9789  -24.7563   21.6594 N   0  0  0  0  0  0  0  0  0  0  0  0
  -20.6423  -24.3711   22.8602 N   0  0  0  0  0  0  0  0  0  0  0  0
  -22.0984  -12.6383   21.6030 N   0  0  0  0  0  0  0  0  0  0  0  0
  -19.1897  -18.4882   22.1979 N   0  0  0  0  0  0  0  0  0  0  0  0
  -27.7406  -26.3514   18.0160 N   0  0  0  0  0  0  0  0  0  0  0  0
  -19.6189  -21.0931   24.6673 N   0  3  0  0  0  0  0  0  0  0  0  0
  -22.6034  -23.2184   22.5698 O   0  0  0  0  0  0  0  0  0  0  0  0
  -22.8360  -14.5024   20.4183 O   0  0  0  0  0  0  0  0  0  0  0  0
  -19.3605  -15.6324   22.3512 O   0  0  0  0  0  0  0  0  0  0  0  0
  -20.8002  -20.1539   22.2927 O   0  0  0  0  0  0  0  0  0  0  0  0
  -28.9450  -28.3015   18.0765 O   0  0  0  0  0  0  0  0  0  0  0  0
  -16.9119  -28.5017   23.0998 O   0  0  0  0  0  0  0  0  0  0  0  0
  -27.3619  -18.3894   21.8652 O   0  0  0  0  0  0  0  0  0  1  0  0
  -14.5004  -26.5982   27.6786 F   0  0  0  0  0  0  0  0  0  0  0  0
  -16.0357  -30.2352   25.0670 F   0  0  0  0  0  0  0  0  0  0  0  0
  1  2  1  0  0  0  0
  1  5  2  0  0  0  0
  2  6  2  0  0  0  0
  3  8  2  0  0  0  0
  3 15  1  0  0  0  0
  4  9  1  0  0  0  0
  4 15  2  0  0  0  0
  5 17  1  0  0  0  0
  6 19  1  0  0  0  0
  7 10  2  0  0  0  0
  7 18  1  0  0  0  0
  8 21  1  0  0  0  0
  9 21  2  0  0  0  0
 10 22  1  0  0  0  0
 11 12  2  0  0  0  0
 11 23  1  0  0  0  0
 12 24  1  0  0  0  0
 13 20  1  0  0  0  0
 13 22  2  0  0  0  0
 14 24  2  0  0  0  0
 14 25  1  0  0  0  0
 15 26  1  0  0  0  0
 16 26  1  0  0  0  0
 16 27  2  0  0  0  0
 16 30  1  0  0  0  0
 17 19  2  0  0  0  0
 17 35  1  0  0  0  0
 18 20  2  0  0  0  0
 18 36  1  0  0  0  0
 19 44  1  0  0  0  0
 20 37  1  0  0  0  0
 21 82  1  0  0  0  0
 22 83  1  0  0  0  0
 23 25  2  0  0  0  0
 23 82  1  0  0  0  0
 24 84  1  0  0  0  0
 25 85  1  0  0  0  0
 26 64  2  0  0  0  0
 27 67  1  0  0  0  0
 27 71  1  0  0  0  0
 28 54  1  0  0  0  0
 28 65  2  0  0  0  0
 28 68  1  0  0  0  0
 29 55  1  0  0  0  0
 29 66  2  0  0  0  0
 29 68  1  0  0  0  0
 30 72  1  0  0  0  0
 30 77  2  0  0  0  0
 31 45  1  0  0  0  0
 31 73  1  0  0  0  0
 31 78  2  0  0  0  0
 32 60  1  0  0  0  0
 32 69  1  0  0  0  0
 32 79  2  0  0  0  0
 33 61  1  0  0  0  0
 33 74  1  0  0  0  0
 33 80  2  0  0  0  0
 34 70  1  0  0  0  0
 34 75  1  0  0  0  0
 34 81  2  0  0  0  0
 35 38  1  0  0  0  0
 36 45  1  0  0  0  0
 37 69  1  0  0  0  0
 38 40  1  0  0  0  0
 39 41  1  0  0  0  0
 39 42  1  0  0  0  0
 40 44  1  0  0  0  0
 41 46  1  0  0  0  0
 42 70  1  0  0  0  0
 43 46  1  0  0  0  0
 43 70  1  0  0  0  0
 44 73  1  0  0  0  0
 45 69  1  0  0  0  0
 46 67  1  0  0  0  0
 47 57  1  0  0  0  0
 48 61  1  0  0  0  0
 49 62  1  0  0  0  0
 50 63  1  0  0  0  0
 51 63  1  0  0  0  0
 52 63  1  0  0  0  0
 53 76  1  0  0  0  0
 54 58  1  0  0  0  0
 55 62  1  0  0  0  0
 56 59  1  0  0  0  0
 56 62  1  0  0  0  0
 57 68  1  0  0  0  0
 58 75  1  0  0  0  0
 59 83  1  0  0  0  0
 60 63  1  0  0  0  0
 60 74  1  0  0  0  0
 61 76  1  0  0  0  0
 64 67  1  0  0  0  0
 65 66  1  0  0  0  0
M  CHG  1  76   1
M  ISO  4  34 100  59 101  75 100  83 101
M  END
> <Batch ID>
0075

> <Smiles>
CCn1c(CC[100NH:0][100C:0](=O)N2CCCC(n3nc(-c4ccc(Oc5ccc(F)cc5F)cc4)c(C(N)=O)c3N)C2)nnc1CC(C)C[101CH2:1][101O:1]c1ccc2c(c1)CN(C(=O)C(NC(=O)C(C)NC)C(C)(C)C)C(C(=O)NC1CCCc3ccccc31)C2

> <Shape>
0.181

> <Color>
0.092

> <Negative vol penalty>
0.000

$$$$

  -OEChem-04052318323D

 86 94  0     1  0  0  0  0  0999 V2000
  -31.0996  -25.5096   17.8523 C   0  0  0  0  0  0  0  0  0  0  0  0
  -29.7178  -25.3701   17.9326 C   0  0  0  0  0  0  0  0  0  0  0  0
  -24.2541  -14.6917   18.8865 C   0  0  0  0  0  0  0  0  0  0  0  0
  -24.0280  -15.0153   21.2701 C   0  0  0  0  0  0  0  0  0  0  0  0
  -31.7973  -26.1333   18.8857 C   0  0  0  0  0  0  0  0  0  0  0  0
  -29.0329  -25.8533   19.0470 C   0  0  0  0  0  0  0  0  0  0  0  0
  -23.4222  -28.3061   19.1421 C   0  0  0  0  0  0  0  0  0  0  0  0
  -25.0610  -13.5770   19.1144 C   0  0  0  0  0  0  0  0  0  0  0  0
  -24.8349  -13.9005   21.4979 C   0  0  0  0  0  0  0  0  0  0  0  0
  -22.1727  -27.7775   19.4631 C   0  0  0  0  0  0  0  0  0  0  0  0
  -28.2759  -12.9599   19.9558 C   0  0  0  0  0  0  0  0  0  0  0  0
  -29.4406  -12.8380   19.1980 C   0  0  0  0  0  0  0  0  0  0  0  0
  -22.3903  -28.6405   21.7052 C   0  0  0  0  0  0  0  0  0  0  0  0
  -19.5325  -24.7426   23.6235 C   0  0  0  0  0  0  0  0  0  0  0  0
  -20.7487  -23.6551   21.8564 C   0  0  0  0  0  0  0  0  0  0  0  0
  -28.6426  -10.7379   18.3093 C   0  0  0  0  0  0  0  0  0  0  0  0
  -23.7376  -15.4109   19.9644 C   0  0  0  0  0  0  0  0  0  0  0  0
  -21.5035  -16.5852   19.5939 C   0  0  0  0  0  0  0  0  0  0  0  0
  -31.1196  -26.6330   20.0090 C   0  0  0  0  0  0  0  0  0  0  0  0
  -24.1712  -28.9977   20.1051 C   0  0  0  0  0  0  0  0  0  0  0  0
  -29.7224  -26.4831   20.0971 C   0  0  0  0  0  0  0  0  0  0  0  0
  -23.6479  -29.1792   21.3932 C   0  0  0  0  0  0  0  0  0  0  0  0
  -19.7966  -24.5810   22.2680 C   0  0  0  0  0  0  0  0  0  0  0  0
  -25.3514  -13.1814   20.4201 C   0  0  0  0  0  0  0  0  0  0  0  0
  -21.6578  -27.9421   20.7457 C   0  0  0  0  0  0  0  0  0  0  0  0
  -27.2946  -11.9707   19.8904 C   0  0  0  0  0  0  0  0  0  0  0  0
  -29.6239  -11.7271   18.3747 C   0  0  0  0  0  0  0  0  0  0  0  0
  -27.4779  -10.8598   19.0671 C   0  0  0  0  0  0  0  0  0  0  0  0
  -22.9045  -16.5628   19.7297 C   0  0  0  0  0  0  0  0  0  0  0  0
  -20.2420  -23.9602   24.5202 C   0  0  0  0  0  0  0  0  0  0  0  0
  -21.4040  -22.9215   22.8323 C   0  0  0  0  0  0  0  0  0  0  0  0
  -21.1998  -17.9085   19.3863 C   0  0  0  0  0  0  0  0  0  0  0  0
  -20.5609  -15.5064   19.6505 C   0  0  0  0  0  0  0  0  0  0  0  0
  -26.9996  -28.5582   21.4874 C   0  0  0  0  0  0  0  0  0  0  0  0
  -26.3794  -31.4646   22.7877 C   0  0  0  0  0  0  0  0  0  0  0  0
  -24.0976  -22.9671   20.8443 C   0  0  0  0  0  0  0  0  0  0  0  0
  -24.0581  -33.7895   23.7115 C   0  0  0  0  0  0  0  0  0  0  0  0
  -31.9223  -27.2575   21.1227 C   0  0  0  0  0  0  0  0  0  0  0  0
  -25.5056  -29.5850   19.7353 C   0  0  0  0  0  0  0  0  0  0  0  0
  -24.4033  -29.9311   22.4574 C   0  0  0  0  0  0  0  0  0  0  0  0
  -31.0786  -28.0762   22.0965 C   0  0  0  0  0  0  0  0  0  0  0  0
  -23.0235  -21.9389   17.5840 C   0  0  0  0  0  0  0  0  0  0  0  0
  -29.8259  -27.3037   22.4975 C   0  0  0  0  0  0  0  0  0  0  0  0
  -22.7713  -20.4404   17.7452 C   0  0  0  0  0  0  0  0  0  0  0  0
  -24.1988  -22.4024   18.4390 C   0  0  0  0  0  0  0  0  0  0  0  0
  -23.8138  -20.5664   20.0522 C   0  0  0  0  0  0  0  0  0  0  0  0
  -28.9411  -27.0163   21.2784 C   0  0  1  0  0  0  0  0  0  0  0  0
  -26.4071  -29.8268   20.9420 C   0  0  1  0  0  0  0  0  0  0  0  0
  -22.6152  -20.0625   19.2288 C   0  0  2  0  0  0  0  0  0  0  0  0
  -19.9837  -24.1055   25.9827 C   0  0  0  0  0  0  0  0  0  0  0  0
  -22.3939  -20.6511   23.3212 C   0  0  0  0  0  0  0  0  0  0  0  0
  -23.8518  -36.0491   24.7834 C   0  0  0  0  0  0  0  0  0  0  0  0
  -18.0131  -26.4037   21.8485 C   0  0  0  0  0  0  0  0  0  0  0  0
  -18.2449  -24.4793   20.2927 C   0  0  0  0  0  0  0  0  0  0  0  0
  -25.0015  -21.4497   22.5506 C   0  0  0  0  0  0  0  0  0  0  0  0
  -24.1288  -23.7194   23.1463 C   0  0  0  0  0  0  0  0  0  0  0  0
  -26.8933  -30.2118   25.5220 C   0  0  0  0  0  0  0  0  0  0  0  0
  -25.7704  -32.1926   26.5631 C   0  0  0  0  0  0  0  0  0  0  0  0
  -27.8538  -32.5019   25.2265 C   0  0  0  0  0  0  0  0  0  0  0  0
  -22.8178  -34.9535   21.2896 C   0  0  0  0  0  0  0  0  0  0  0  0
  -20.0335  -26.2462   20.3698 C   0  0  0  0  0  0  0  0  0  1  0  0
  -22.4333  -21.9202   22.4266 C   0  0  2  0  0  0  0  0  0  0  0  0
  -25.6905  -31.9505   24.0400 C   0  0  1  0  0  0  0  0  0  0  0  0
  -23.9824  -35.2869   23.4739 C   0  0  2  0  0  0  0  0  0  0  0  0
  -19.0366  -25.4236   21.2264 C   0  0  0  0  0  0  0  0  0  0  0  0
  -23.9029  -22.4821   22.2588 C   0  0  0  0  0  0  0  0  0  0  0  0
  -26.5384  -31.6983   25.3186 C   0  0  0  0  0  0  0  0  0  0  0  0
  -23.4529  -17.7756   19.6176 N   0  0  0  0  0  0  0  0  0  0  0  0
  -21.1743  -23.0506   24.1583 N   0  0  0  0  0  0  0  0  0  0  0  0
  -22.3910  -18.5724   19.4091 N   0  0  0  0  0  0  0  0  0  0  0  0
  -25.7064  -30.4811   22.0489 N   0  0  0  0  0  0  0  0  0  0  0  0
  -24.0233  -22.0049   19.8370 N   0  0  0  0  0  0  0  0  0  0  0  0
  -20.0327  -18.5574   19.1883 N   0  0  0  0  0  0  0  0  0  0  0  0
  -21.0429  -14.2090   19.8716 N   0  0  0  0  0  0  0  0  0  0  0  0
  -28.1991  -28.2004   20.9020 N   0  0  0  0  0  0  0  0  0  0  0  0
  -25.3625  -33.3529   23.8075 N   0  0  0  0  0  0  0  0  0  0  0  0
  -22.8074  -35.6169   22.6187 N   0  3  0  0  0  0  0  0  0  0  0  0
  -19.3294  -15.6852   19.4929 O   0  0  0  0  0  0  0  0  0  0  0  0
  -26.4127  -27.9499   22.3746 O   0  0  0  0  0  0  0  0  0  0  0  0
  -27.4709  -31.9452   22.4726 O   0  0  0  0  0  0  0  0  0  0  0  0
  -24.3064  -24.1662   20.6423 O   0  0  0  0  0  0  0  0  0  0  0  0
  -23.0599  -33.0788   23.8065 O   0  0  0  0  0  0  0  0  0  0  0  0
  -26.1385  -12.0935   20.6428 O   0  0  0  0  0  0  0  0  0  0  0  0
  -20.4388  -27.4266   21.0618 O   0  0  0  0  0  0  0  0  0  1  0  0
  -30.7417  -11.6109   17.6459 F   0  0  0  0  0  0  0  0  0  0  0  0
  -26.5382   -9.9068   18.9993 F   0  0  0  0  0  0  0  0  0  0  0  0
  1  2  1  0  0  0  0
  1  5  2  0  0  0  0
  2  6  2  0  0  0  0
  3  8  2  0  0  0  0
  3 17  1  0  0  0  0
  4  9  1  0  0  0  0
  4 17  2  0  0  0  0
  5 19  1  0  0  0  0
  6 21  1  0  0  0  0
  7 10  2  0  0  0  0
  7 20  1  0  0  0  0
  8 24  1  0  0  0  0
  9 24  2  0  0  0  0
 10 25  1  0  0  0  0
 11 12  2  0  0  0  0
 11 26  1  0  0  0  0
 12 27  1  0  0  0  0
 13 22  1  0  0  0  0
 13 25  2  0  0  0  0
 14 23  1  0  0  0  0
 14 30  2  0  0  0  0
 15 23  2  0  0  0  0
 15 31  1  0  0  0  0
 16 27  2  0  0  0  0
 16 28  1  0  0  0  0
 17 29  1  0  0  0  0
 18 29  1  0  0  0  0
 18 32  2  0  0  0  0
 18 33  1  0  0  0  0
 19 21  2  0  0  0  0
 19 38  1  0  0  0  0
 20 22  2  0  0  0  0
 20 39  1  0  0  0  0
 21 47  1  0  0  0  0
 22 40  1  0  0  0  0
 23 65  1  0  0  0  0
 24 83  1  0  0  0  0
 25 84  1  0  0  0  0
 26 28  2  0  0  0  0
 26 83  1  0  0  0  0
 27 85  1  0  0  0  0
 28 86  1  0  0  0  0
 29 68  2  0  0  0  0
 30 50  1  0  0  0  0
 30 69  1  0  0  0  0
 31 62  1  0  0  0  0
 31 69  2  0  0  0  0
 32 70  1  0  0  0  0
 32 73  1  0  0  0  0
 33 74  1  0  0  0  0
 33 78  2  0  0  0  0
 34 48  1  0  0  0  0
 34 75  1  0  0  0  0
 34 79  2  0  0  0  0
 35 63  1  0  0  0  0
 35 71  1  0  0  0  0
 35 80  2  0  0  0  0
 36 66  1  0  0  0  0
 36 72  1  0  0  0  0
 36 81  2  0  0  0  0
 37 64  1  0  0  0  0
 37 76  1  0  0  0  0
 37 82  2  0  0  0  0
 38 41  1  0  0  0  0
 39 48  1  0  0  0  0
 40 71  1  0  0  0  0
 41 43  1  0  0  0  0
 42 44  1  0  0  0  0
 42 45  1  0  0  0  0
 43 47  1  0  0  0  0
 44 49  1  0  0  0  0
 45 72  1  0  0  0  0
 46 49  1  0  0  0  0
 46 72  1  0  0  0  0
 47 75  1  0  0  0  0
 48 71  1  0  0  0  0
 49 70  1  0  0  0  0
 51 62  1  0  0  0  0
 52 64  1  0  0  0  0
 53 65  1  0  0  0  0
 54 65  1  0  0  0  0
 55 66  1  0  0  0  0
 56 66  1  0  0  0  0
 57 67  1  0  0  0  0
 58 67  1  0  0  0  0
 59 67  1  0  0  0  0
 60 77  1  0  0  0  0
 61 65  1  0  0  0  0
 61 84  1  0  0  0  0
 62 66  1  0  0  0  0
 63 67  1  0  0  0  0
 63 76  1  0  0  0  0
 64 77  1  0  0  0  0
 68 70  1  0  0  0  0
M  CHG  1  77   1
M  ISO  4  36 100  61 101  66 100  84 101
M  END
> <Batch ID>
0075

> <Smiles>
CNC(C)C(=O)NC(C(=O)N1Cc2cc([101O:1][101CH2:1]C(C)(C)c3cc(C)nc(C(C)[100C:0](C)(C)[100C:0](=O)N4CCCC(n5nc(-c6ccc(Oc7ccc(F)cc7F)cc6)c(C(N)=O)c5N)C4)c3)ccc2CC1C(=O)NC1CCCc2ccccc21)C(C)(C)C

> <Shape>
0.257

> <Color>
0.068

> <Negative vol penalty>
0.000

$$$$

  -OEChem-04052318323D

 85 93  0     1  0  0  0  0  0999 V2000
  -16.7164  -28.6910   23.7162 C   0  0  0  0  0  0  0  0  0  0  0  0
  -17.4078  -28.1593   22.6324 C   0  0  0  0  0  0  0  0  0  0  0  0
  -26.5327  -12.0465   21.7000 C   0  0  0  0  0  0  0  0  0  0  0  0
  -25.7737  -13.3610   19.8203 C   0  0  0  0  0  0  0  0  0  0  0  0
  -17.1846  -29.8458   24.3417 C   0  0  0  0  0  0  0  0  0  0  0  0
  -18.5673  -28.7827   22.1728 C   0  0  0  0  0  0  0  0  0  0  0  0
  -22.2978  -25.4914   21.2259 C   0  0  0  0  0  0  0  0  0  0  0  0
  -25.3187  -11.3597   21.7099 C   0  0  0  0  0  0  0  0  0  0  0  0
  -24.5597  -12.6742   19.8302 C   0  0  0  0  0  0  0  0  0  0  0  0
  -22.2229  -24.7693   20.0357 C   0  0  0  0  0  0  0  0  0  0  0  0
  -22.5579   -9.0127   22.0011 C   0  0  0  0  0  0  0  0  0  0  0  0
  -22.5988   -7.6253   22.1381 C   0  0  0  0  0  0  0  0  0  0  0  0
  -23.8033  -26.2849   19.0237 C   0  0  0  0  0  0  0  0  0  0  0  0
  -23.9012   -7.4635   20.1096 C   0  0  0  0  0  0  0  0  0  0  0  0
  -26.7602  -13.0472   20.7552 C   0  0  0  0  0  0  0  0  0  0  0  0
  -29.1794  -13.4143   20.0340 C   0  0  0  0  0  0  0  0  0  0  0  0
  -18.3558  -30.4782   23.8955 C   0  0  0  0  0  0  0  0  0  0  0  0
  -23.1191  -26.6241   21.3208 C   0  0  0  0  0  0  0  0  0  0  0  0
  -19.0509  -29.9478   22.7920 C   0  0  0  0  0  0  0  0  0  0  0  0
  -23.8889  -27.0182   20.2170 C   0  0  0  0  0  0  0  0  0  0  0  0
  -24.3322  -11.6735   20.7750 C   0  0  0  0  0  0  0  0  0  0  0  0
  -22.9735  -25.1676   18.9335 C   0  0  0  0  0  0  0  0  0  0  0  0
  -23.1885   -9.6256   20.9184 C   0  0  0  0  0  0  0  0  0  0  0  0
  -23.2705   -6.8506   21.1924 C   0  0  0  0  0  0  0  0  0  0  0  0
  -23.8602   -8.8510   19.9726 C   0  0  0  0  0  0  0  0  0  0  0  0
  -28.0138  -13.7575   20.7449 C   0  0  0  0  0  0  0  0  0  0  0  0
  -26.5631  -21.3959   17.3860 C   0  0  0  0  0  0  0  0  0  0  0  0
  -25.3547  -21.7959   17.9128 C   0  0  0  0  0  0  0  0  0  0  0  0
  -26.3235  -22.0084   19.9735 C   0  0  0  0  0  0  0  0  0  0  0  0
  -27.5316  -21.6077   19.4467 C   0  0  0  0  0  0  0  0  0  0  0  0
  -30.0811  -14.3987   20.3572 C   0  0  0  0  0  0  0  0  0  0  0  0
  -29.4251  -12.3049   19.1596 C   0  0  0  0  0  0  0  0  0  0  0  0
  -22.6235  -29.7139   21.8784 C   0  0  0  0  0  0  0  0  0  0  0  0
  -25.8652  -29.8320   21.8918 C   0  0  0  0  0  0  0  0  0  0  0  0
  -28.8190  -28.4435   20.8951 C   0  0  0  0  0  0  0  0  0  0  0  0
  -29.4501  -20.0623   22.1946 C   0  0  0  0  0  0  0  0  0  0  0  0
  -18.7969  -31.7511   24.5737 C   0  0  0  0  0  0  0  0  0  0  0  0
  -23.2092  -27.3766   22.6200 C   0  0  0  0  0  0  0  0  0  0  0  0
  -24.8015  -28.2150   20.2734 C   0  0  0  0  0  0  0  0  0  0  0  0
  -20.2399  -32.1390   24.2615 C   0  0  0  0  0  0  0  0  0  0  0  0
  -31.1944  -17.4497   23.8704 C   0  0  0  0  0  0  0  0  0  0  0  0
  -20.5117  -32.0240   22.7649 C   0  0  0  0  0  0  0  0  0  0  0  0
  -30.6822  -16.1762   23.1952 C   0  0  0  0  0  0  0  0  0  0  0  0
  -30.0931  -18.4990   24.0054 C   0  0  0  0  0  0  0  0  0  0  0  0
  -28.8864  -17.5596   22.0728 C   0  0  0  0  0  0  0  0  0  0  0  0
  -20.3262  -30.5812   22.2798 C   0  0  1  0  0  0  0  0  0  0  0  0
  -23.6859  -28.8153   22.4454 C   0  0  1  0  0  0  0  0  0  0  0  0
  -29.9750  -16.4930   21.8638 C   0  0  2  0  0  0  0  0  0  0  0  0
  -26.7065  -21.0516   15.9430 C   0  0  0  0  0  0  0  0  0  0  0  0
  -24.7194  -22.4593   21.8470 C   0  0  0  0  0  0  0  0  0  0  0  0
  -30.0471  -21.7776   19.5181 C   0  0  0  0  0  0  0  0  0  0  0  0
  -31.3013  -28.7868   21.0285 C   0  0  0  0  0  0  0  0  0  0  0  0
  -25.6683  -32.0490   19.8047 C   0  0  0  0  0  0  0  0  0  0  0  0
  -28.0920  -31.6864   19.2924 C   0  0  0  0  0  0  0  0  0  0  0  0
  -27.3981  -32.4292   21.5704 C   0  0  0  0  0  0  0  0  0  0  0  0
  -29.2164  -25.8692   22.3002 C   0  0  0  0  0  0  0  0  0  0  0  0
  -26.1805  -22.3530   21.4165 C   0  0  0  0  0  0  0  0  0  0  0  0
  -24.1200  -21.9039   17.0542 C   0  0  0  0  0  0  0  0  0  0  0  0
  -24.0973  -23.1464   16.1614 C   0  0  0  0  0  0  0  0  0  0  0  0
  -24.0664  -24.4530   16.9458 C   0  0  0  0  0  0  0  0  0  1  0  0
  -28.7520  -21.4997   20.2957 C   0  0  2  0  0  0  0  0  0  0  0  0
  -26.9313  -30.0523   20.8460 C   0  0  1  0  0  0  0  0  0  0  0  0
  -30.0893  -28.1204   21.6609 C   0  0  2  0  0  0  0  0  0  0  0  0
  -27.0038  -31.5328   20.3764 C   0  0  0  0  0  0  0  0  0  0  0  0
  -28.1589  -14.8727   21.4655 N   0  0  0  0  0  0  0  0  0  0  0  0
  -27.6732  -21.2946   18.1436 N   0  0  0  0  0  0  0  0  0  0  0  0
  -25.2133  -22.1094   19.2160 N   0  0  0  0  0  0  0  0  0  0  0  0
  -29.4263  -15.2387   21.2092 N   0  0  0  0  0  0  0  0  0  0  0  0
  -24.8503  -28.9218   21.5640 N   0  0  0  0  0  0  0  0  0  0  0  0
  -29.4639  -18.7547   22.7075 N   0  0  0  0  0  0  0  0  0  0  0  0
  -31.3622  -14.6189   19.9931 N   0  0  0  0  0  0  0  0  0  0  0  0
  -28.3893  -11.3873   18.9371 N   0  0  0  0  0  0  0  0  0  0  0  0
  -21.4727  -29.7752   22.6409 N   0  0  0  0  0  0  0  0  0  0  0  0
  -28.1742  -29.5450   21.4169 N   0  0  0  0  0  0  0  0  0  0  0  0
  -28.8395  -20.2163   20.9560 N   0  0  0  0  0  0  0  0  0  0  0  0
  -30.3205  -26.6484   21.6832 N   0  3  0  0  0  0  0  0  0  0  0  0
  -30.5357  -12.1234   18.6052 O   0  0  0  0  0  0  0  0  0  0  0  0
  -22.8330  -30.3089   20.8278 O   0  0  0  0  0  0  0  0  0  0  0  0
  -25.9343  -30.4396   22.9631 O   0  0  0  0  0  0  0  0  0  0  0  0
  -28.4389  -27.7868   19.9283 O   0  0  0  0  0  0  0  0  0  0  0  0
  -29.9500  -21.0206   22.7935 O   0  0  0  0  0  0  0  0  0  0  0  0
  -23.1476  -11.0033   20.7842 O   0  0  0  0  0  0  0  0  0  0  0  0
  -22.9018  -24.4649   17.7703 O   0  0  0  0  0  0  0  0  0  1  0  0
  -23.3111   -5.5183   21.3249 F   0  0  0  0  0  0  0  0  0  0  0  0
  -24.4689   -9.4342   18.9309 F   0  0  0  0  0  0  0  0  0  0  0  0
  1  2  1  0  0  0  0
  1  5  2  0  0  0  0
  2  6  2  0  0  0  0
  3  8  2  0  0  0  0
  3 15  1  0  0  0  0
  4  9  1  0  0  0  0
  4 15  2  0  0  0  0
  5 17  1  0  0  0  0
  6 19  1  0  0  0  0
  7 10  2  0  0  0  0
  7 18  1  0  0  0  0
  8 21  1  0  0  0  0
  9 21  2  0  0  0  0
 10 22  1  0  0  0  0
 11 12  2  0  0  0  0
 11 23  1  0  0  0  0
 12 24  1  0  0  0  0
 13 20  1  0  0  0  0
 13 22  2  0  0  0  0
 14 24  2  0  0  0  0
 14 25  1  0  0  0  0
 15 26  1  0  0  0  0
 16 26  1  0  0  0  0
 16 31  2  0  0  0  0
 16 32  1  0  0  0  0
 17 19  2  0  0  0  0
 17 37  1  0  0  0  0
 18 20  2  0  0  0  0
 18 38  1  0  0  0  0
 19 46  1  0  0  0  0
 20 39  1  0  0  0  0
 21 82  1  0  0  0  0
 22 83  1  0  0  0  0
 23 25  2  0  0  0  0
 23 82  1  0  0  0  0
 24 84  1  0  0  0  0
 25 85  1  0  0  0  0
 26 65  2  0  0  0  0
 27 28  1  0  0  0  0
 27 49  1  0  0  0  0
 27 66  2  0  0  0  0
 28 58  1  0  0  0  0
 28 67  2  0  0  0  0
 29 30  2  0  0  0  0
 29 57  1  0  0  0  0
 29 67  1  0  0  0  0
 30 61  1  0  0  0  0
 30 66  1  0  0  0  0
 31 68  1  0  0  0  0
 31 71  1  0  0  0  0
 32 72  1  0  0  0  0
 32 77  2  0  0  0  0
 33 47  1  0  0  0  0
 33 73  1  0  0  0  0
 33 78  2  0  0  0  0
 34 62  1  0  0  0  0
 34 69  1  0  0  0  0
 34 79  2  0  0  0  0
 35 63  1  0  0  0  0
 35 74  1  0  0  0  0
 35 80  2  0  0  0  0
 36 70  1  0  0  0  0
 36 75  1  0  0  0  0
 36 81  2  0  0  0  0
 37 40  1  0  0  0  0
 38 47  1  0  0  0  0
 39 69  1  0  0  0  0
 40 42  1  0  0  0  0
 41 43  1  0  0  0  0
 41 44  1  0  0  0  0
 42 46  1  0  0  0  0
 43 48  1  0  0  0  0
 44 70  1  0  0  0  0
 45 48  1  0  0  0  0
 45 70  1  0  0  0  0
 46 73  1  0  0  0  0
 47 69  1  0  0  0  0
 48 68  1  0  0  0  0
 50 57  1  0  0  0  0
 51 61  1  0  0  0  0
 52 63  1  0  0  0  0
 53 64  1  0  0  0  0
 54 64  1  0  0  0  0
 55 64  1  0  0  0  0
 56 76  1  0  0  0  0
 58 59  1  0  0  0  0
 59 60  1  0  0  0  0
 60 83  1  0  0  0  0
 61 75  1  0  0  0  0
 62 64  1  0  0  0  0
 62 74  1  0  0  0  0
 63 76  1  0  0  0  0
 65 68  1  0  0  0  0
M  CHG  1  76   1
M  ISO  4  36 100  60 101  75 100  83 101
M  END
> <Batch ID>
0075

> <Smiles>
CCc1nc(CC[101CH2:1][101O:1]c2ccc3c(c2)CN(C(=O)C(NC(=O)C(C)NC)C(C)(C)C)C(C(=O)NC2CCCc4ccccc42)C3)c(C)nc1C(C)[100NH:0][100C:0](=O)N1CCCC(n2nc(-c3ccc(Oc4ccc(F)cc4F)cc3)c(C(N)=O)c2N)C1

> <Shape>
0.293

> <Color>
0.078

> <Negative vol penalty>
0.000

$$$$

  -OEChem-04052318322D

  0  0  0     0  0  0  0  0  0999 V2000
M  END
$$$$

  -OEChem-04052318323D

 83 91  0     1  0  0  0  0  0999 V2000
  -20.4059  -33.0449   22.8498 C   0  0  0  0  0  0  0  0  0  0  0  0
  -21.7084  -32.5630   22.7678 C   0  0  0  0  0  0  0  0  0  0  0  0
  -25.2869  -13.3381   21.8639 C   0  0  0  0  0  0  0  0  0  0  0  0
  -25.4293  -13.8504   19.5071 C   0  0  0  0  0  0  0  0  0  0  0  0
  -19.3602  -32.1754   23.1569 C   0  0  0  0  0  0  0  0  0  0  0  0
  -21.9661  -31.2114   22.9941 C   0  0  0  0  0  0  0  0  0  0  0  0
  -25.1599  -29.1949   19.4977 C   0  0  0  0  0  0  0  0  0  0  0  0
  -24.2963  -12.3927   21.5985 C   0  0  0  0  0  0  0  0  0  0  0  0
  -24.4387  -12.9049   19.2417 C   0  0  0  0  0  0  0  0  0  0  0  0
  -26.5245  -29.4537   19.6197 C   0  0  0  0  0  0  0  0  0  0  0  0
  -24.1266   -9.2208   20.4395 C   0  0  0  0  0  0  0  0  0  0  0  0
  -24.2286   -7.9807   21.0699 C   0  0  0  0  0  0  0  0  0  0  0  0
  -26.8291  -27.3121   20.6868 C   0  0  0  0  0  0  0  0  0  0  0  0
  -22.0891   -8.3444   22.1316 C   0  0  0  0  0  0  0  0  0  0  0  0
  -30.3619  -24.3456   19.2491 C   0  0  0  0  0  0  0  0  0  0  0  0
  -25.8534  -14.0670   20.8182 C   0  0  0  0  0  0  0  0  0  0  0  0
  -28.2673  -14.8311   21.1292 C   0  0  0  0  0  0  0  0  0  0  0  0
  -19.6039  -30.8107   23.3776 C   0  0  0  0  0  0  0  0  0  0  0  0
  -24.6166  -27.9951   19.9795 C   0  0  0  0  0  0  0  0  0  0  0  0
  -20.9228  -30.3231   23.3058 C   0  0  0  0  0  0  0  0  0  0  0  0
  -25.4583  -27.0385   20.5654 C   0  0  0  0  0  0  0  0  0  0  0  0
  -23.8722  -12.1760   20.2875 C   0  0  0  0  0  0  0  0  0  0  0  0
  -27.3589  -28.5133   20.2163 C   0  0  0  0  0  0  0  0  0  0  0  0
  -23.0059  -10.0228   20.6553 C   0  0  0  0  0  0  0  0  0  0  0  0
  -23.2098   -7.5425   21.9159 C   0  0  0  0  0  0  0  0  0  0  0  0
  -21.9871   -9.5846   21.5013 C   0  0  0  0  0  0  0  0  0  0  0  0
  -26.8763  -15.0442   21.0917 C   0  0  0  0  0  0  0  0  0  0  0  0
  -30.0722  -23.7003   20.4180 C   0  0  0  0  0  0  0  0  0  0  0  0
  -28.7955  -16.0632   21.4281 C   0  0  0  0  0  0  0  0  0  0  0  0
  -32.0934  -24.5831   20.6076 C   0  0  0  0  0  0  0  0  0  0  0  0
  -29.0151  -13.6270   20.9131 C   0  0  0  0  0  0  0  0  0  0  0  0
  -22.4288  -27.1502   22.1579 C   0  0  0  0  0  0  0  0  0  0  0  0
  -28.9767  -21.4842   20.5019 C   0  0  0  0  0  0  0  0  0  0  0  0
  -23.0606  -24.1519   20.8679 C   0  0  0  0  0  0  0  0  0  0  0  0
  -20.8305  -22.9642   22.7445 C   0  0  0  0  0  0  0  0  0  0  0  0
  -18.4475  -29.9182   23.7532 C   0  0  0  0  0  0  0  0  0  0  0  0
  -23.1465  -27.7223   19.8107 C   0  0  0  0  0  0  0  0  0  0  0  0
  -24.9249  -25.7346   21.0944 C   0  0  0  0  0  0  0  0  0  0  0  0
  -18.7553  -28.4299   23.6102 C   0  0  0  0  0  0  0  0  0  0  0  0
  -26.5680  -20.3260   22.9683 C   0  0  0  0  0  0  0  0  0  0  0  0
  -20.1099  -28.1029   24.2308 C   0  0  0  0  0  0  0  0  0  0  0  0
  -26.5292  -18.8264   22.6770 C   0  0  0  0  0  0  0  0  0  0  0  0
  -26.7567  -21.1411   21.6916 C   0  0  0  0  0  0  0  0  0  0  0  0
  -27.9230  -19.2480   20.6051 C   0  0  0  0  0  0  0  0  0  0  0  0
  -21.2391  -28.8588   23.5203 C   0  0  1  0  0  0  0  0  0  0  0  0
  -22.6132  -26.6464   20.7544 C   0  0  1  0  0  0  0  0  0  0  0  0
  -27.7645  -18.3888   21.8706 C   0  0  2  0  0  0  0  0  0  0  0  0
  -33.4118  -24.9692   21.1694 C   0  0  0  0  0  0  0  0  0  0  0  0
  -19.0422  -21.6962   23.9657 C   0  0  0  0  0  0  0  0  0  0  0  0
  -31.3903  -30.0938   18.0751 C   0  0  0  0  0  0  0  0  0  0  0  0
  -21.7752  -24.8924   18.2024 C   0  0  0  0  0  0  0  0  0  0  0  0
  -19.8034  -23.4892   18.8439 C   0  0  0  0  0  0  0  0  0  0  0  0
  -22.0493  -22.4357   18.5819 C   0  0  0  0  0  0  0  0  0  0  0  0
  -22.8169  -21.2371   24.0974 C   0  0  0  0  0  0  0  0  0  0  0  0
  -28.8870  -22.9505   20.8419 C   0  0  0  0  0  0  0  0  0  0  0  0
  -32.3047  -27.1858   18.6534 C   0  0  0  0  0  0  0  0  0  0  0  0
  -30.8618  -27.6914   18.7542 C   0  0  0  0  0  0  0  0  0  0  0  0
  -32.3440  -25.6862   18.3456 C   0  0  0  0  0  0  0  0  0  0  0  0
  -29.2895  -29.5890   19.3380 C   0  0  0  0  0  0  0  0  0  1  0  0
  -21.5987  -23.9119   20.5843 C   0  0  1  0  0  0  0  0  0  0  0  0
  -20.4536  -21.6486   23.4014 C   0  0  2  0  0  0  0  0  0  0  0  0
  -30.7562  -29.1853   19.1298 C   0  0  2  0  0  0  0  0  0  0  0  0
  -21.3153  -23.7037   19.0698 C   0  0  0  0  0  0  0  0  0  0  0  0
  -26.5419  -16.3120   21.3465 N   0  0  0  0  0  0  0  0  0  0  0  0
  -31.6181  -24.8830   19.3945 N   0  0  0  0  0  0  0  0  0  0  0  0
  -27.7303  -16.9065   21.5471 N   0  0  0  0  0  0  0  0  0  0  0  0
  -31.1611  -23.8633   21.2401 N   0  3  0  0  0  0  0  0  0  0  0  0
  -23.5026  -25.4805   20.8304 N   0  0  0  0  0  0  0  0  0  0  0  0
  -27.9273  -20.6753   20.9385 N   0  0  0  0  0  0  0  0  0  0  0  0
  -30.0627  -16.4966   21.5981 N   0  0  0  0  0  0  0  0  0  0  0  0
  -28.3148  -12.4499   20.6157 N   0  0  0  0  0  0  0  0  0  0  0  0
  -21.5610  -28.2205   22.2619 N   0  0  0  0  0  0  0  0  0  0  0  0
  -21.1982  -22.7903   21.4270 N   0  0  0  0  0  0  0  0  0  0  0  0
  -21.3945  -21.3371   24.5143 N   0  3  0  0  0  0  0  0  0  0  0  0
  -30.2661  -13.5923   20.9979 O   0  0  0  0  0  0  0  0  0  0  0  0
  -23.0284  -26.6072   23.0784 O   0  0  0  0  0  0  0  0  0  0  0  0
  -29.9524  -21.0715   19.8694 O   0  0  0  0  0  0  0  0  0  0  0  0
  -23.7939  -23.1889   21.1088 O   0  0  0  0  0  0  0  0  0  0  0  0
  -20.7982  -24.0392   23.3394 O   0  0  0  0  0  0  0  0  0  0  0  0
  -22.9057  -11.2534   20.0282 O   0  0  0  0  0  0  0  0  0  0  0  0
  -28.6912  -28.7631   20.3362 O   0  0  0  0  0  0  0  0  0  1  0  0
  -23.3072   -6.3509   22.5199 F   0  0  0  0  0  0  0  0  0  0  0  0
  -20.9075  -10.3501   21.7116 F   0  0  0  0  0  0  0  0  0  0  0  0
  1  2  1  0  0  0  0
  1  5  2  0  0  0  0
  2  6  2  0  0  0  0
  3  8  2  0  0  0  0
  3 16  1  0  0  0  0
  4  9  1  0  0  0  0
  4 16  2  0  0  0  0
  5 18  1  0  0  0  0
  6 20  1  0  0  0  0
  7 10  2  0  0  0  0
  7 19  1  0  0  0  0
  8 22  1  0  0  0  0
  9 22  2  0  0  0  0
 10 23  1  0  0  0  0
 11 12  2  0  0  0  0
 11 24  1  0  0  0  0
 12 25  1  0  0  0  0
 13 21  1  0  0  0  0
 13 23  2  0  0  0  0
 14 25  2  0  0  0  0
 14 26  1  0  0  0  0
 15 28  2  0  0  0  0
 15 65  1  0  0  0  0
 16 27  1  0  0  0  0
 17 27  1  0  0  0  0
 17 29  2  0  0  0  0
 17 31  1  0  0  0  0
 18 20  2  0  0  0  0
 18 36  1  0  0  0  0
 19 21  2  0  0  0  0
 19 37  1  0  0  0  0
 20 45  1  0  0  0  0
 21 38  1  0  0  0  0
 22 80  1  0  0  0  0
 23 81  1  0  0  0  0
 24 26  2  0  0  0  0
 24 80  1  0  0  0  0
 25 82  1  0  0  0  0
 26 83  1  0  0  0  0
 27 64  2  0  0  0  0
 28 55  1  0  0  0  0
 28 67  1  0  0  0  0
 29 66  1  0  0  0  0
 29 70  1  0  0  0  0
 30 48  1  0  0  0  0
 30 65  1  0  0  0  0
 30 67  2  0  0  0  0
 31 71  1  0  0  0  0
 31 75  2  0  0  0  0
 32 46  1  0  0  0  0
 32 72  1  0  0  0  0
 32 76  2  0  0  0  0
 33 55  1  0  0  0  0
 33 69  1  0  0  0  0
 33 77  2  0  0  0  0
 34 60  1  0  0  0  0
 34 68  1  0  0  0  0
 34 78  2  0  0  0  0
 35 61  1  0  0  0  0
 35 73  1  0  0  0  0
 35 79  2  0  0  0  0
 36 39  1  0  0  0  0
 37 46  1  0  0  0  0
 38 68  1  0  0  0  0
 39 41  1  0  0  0  0
 40 42  1  0  0  0  0
 40 43  1  0  0  0  0
 41 45  1  0  0  0  0
 42 47  1  0  0  0  0
 43 69  1  0  0  0  0
 44 47  1  0  0  0  0
 44 69  1  0  0  0  0
 45 72  1  0  0  0  0
 46 68  1  0  0  0  0
 47 66  1  0  0  0  0
 49 61  1  0  0  0  0
 50 62  1  0  0  0  0
 51 63  1  0  0  0  0
 52 63  1  0  0  0  0
 53 63  1  0  0  0  0
 54 74  1  0  0  0  0
 56 57  1  0  0  0  0
 56 58  1  0  0  0  0
 57 62  1  0  0  0  0
 58 65  1  0  0  0  0
 59 62  1  0  0  0  0
 59 81  1  0  0  0  0
 60 63  1  0  0  0  0
 60 73  1  0  0  0  0
 61 74  1  0  0  0  0
 64 66  1  0  0  0  0
M  CHG  2  67   1  74   1
M  ISO  4  33 100  55 100  59 101  81 101
M  END
> <Batch ID>
0075

> <Smiles>
CNC(C)C(=O)NC(C(=O)N1Cc2cc([101O:1][101CH2:1]C(C)CCCn3cc([100CH2:0][100C:0](=O)N4CCCC(n5nc(-c6ccc(Oc7ccc(F)cc7F)cc6)c(C(N)=O)c5N)C4)nc3C)ccc2CC1C(=O)NC1CCCc2ccccc21)C(C)(C)C

> <Shape>
0.243

> <Color>
0.063

> <Negative vol penalty>
0.000

$$$$

  -OEChem-04052318323D

 86 94  0     1  0  0  0  0  0999 V2000
  -21.5863  -12.6999   19.6078 C   0  0  0  0  0  0  0  0  0  0  0  0
  -21.6535  -13.9365   20.2417 C   0  0  0  0  0  0  0  0  0  0  0  0
  -23.9689  -23.5896   18.3617 C   0  0  0  0  0  0  0  0  0  0  0  0
  -23.3494  -25.7408   17.4531 C   0  0  0  0  0  0  0  0  0  0  0  0
  -22.7261  -11.9025   19.5151 C   0  0  0  0  0  0  0  0  0  0  0  0
  -22.8606  -14.3758   20.7843 C   0  0  0  0  0  0  0  0  0  0  0  0
  -23.8383  -19.2202   19.6792 C   0  0  0  0  0  0  0  0  0  0  0  0
  -22.9672  -22.9815   17.6051 C   0  0  0  0  0  0  0  0  0  0  0  0
  -22.3478  -25.1328   16.6964 C   0  0  0  0  0  0  0  0  0  0  0  0
  -23.1618  -20.1906   20.4170 C   0  0  0  0  0  0  0  0  0  0  0  0
  -20.3371  -20.9109   16.1845 C   0  0  0  0  0  0  0  0  0  0  0  0
  -19.5301  -19.9640   16.8152 C   0  0  0  0  0  0  0  0  0  0  0  0
  -25.1170  -20.4959   21.7967 C   0  0  0  0  0  0  0  0  0  0  0  0
  -18.8055  -21.6374   18.4001 C   0  0  0  0  0  0  0  0  0  0  0  0
  -22.0278  -29.4157   22.9397 C   0  0  0  0  0  0  0  0  0  0  0  0
  -24.1600  -24.9693   18.2858 C   0  0  0  0  0  0  0  0  0  0  0  0
  -26.5306  -25.8220   18.6863 C   0  0  0  0  0  0  0  0  0  0  0  0
  -23.9501  -12.3365   20.0482 C   0  0  0  0  0  0  0  0  0  0  0  0
  -25.1578  -18.8719   20.0020 C   0  0  0  0  0  0  0  0  0  0  0  0
  -24.0177  -13.5828   20.6997 C   0  0  0  0  0  0  0  0  0  0  0  0
  -25.8088  -19.5226   21.0598 C   0  0  0  0  0  0  0  0  0  0  0  0
  -22.1567  -23.7531   16.7724 C   0  0  0  0  0  0  0  0  0  0  0  0
  -23.8001  -20.8266   21.4777 C   0  0  0  0  0  0  0  0  0  0  0  0
  -20.3783  -22.2210   16.6615 C   0  0  0  0  0  0  0  0  0  0  0  0
  -18.7643  -20.3273   17.9231 C   0  0  0  0  0  0  0  0  0  0  0  0
  -19.6125  -22.5843   17.7694 C   0  0  0  0  0  0  0  0  0  0  0  0
  -25.1941  -25.5980   19.0676 C   0  0  0  0  0  0  0  0  0  0  0  0
  -23.0788  -30.1416   22.4548 C   0  0  0  0  0  0  0  0  0  0  0  0
  -27.0976  -26.4445   19.7714 C   0  0  0  0  0  0  0  0  0  0  0  0
  -21.6453  -29.8245   20.7980 C   0  0  0  0  0  0  0  0  0  0  0  0
  -27.1998  -25.4965   17.4607 C   0  0  0  0  0  0  0  0  0  0  0  0
  -26.6047  -16.2083   20.9585 C   0  0  0  0  0  0  0  0  0  0  0  0
  -29.2858  -17.9980   20.5964 C   0  0  0  0  0  0  0  0  0  0  0  0
  -24.7185  -29.7101   24.2199 C   0  0  0  0  0  0  0  0  0  0  0  0
  -30.7062  -21.0992   20.4869 C   0  0  0  0  0  0  0  0  0  0  0  0
  -25.1442  -11.4189   19.9652 C   0  0  0  0  0  0  0  0  0  0  0  0
  -25.8827  -17.8422   19.1795 C   0  0  0  0  0  0  0  0  0  0  0  0
  -27.2315  -19.1995   21.4340 C   0  0  0  0  0  0  0  0  0  0  0  0
  -26.4721  -12.1214   20.2362 C   0  0  0  0  0  0  0  0  0  0  0  0
  -26.7385  -26.7661   24.5239 C   0  0  0  0  0  0  0  0  0  0  0  0
  -26.3654  -13.0054   21.4748 C   0  0  0  0  0  0  0  0  0  0  0  0
  -26.6697  -26.1382   23.1324 C   0  0  0  0  0  0  0  0  0  0  0  0
  -25.4216  -27.4387   24.8988 C   0  0  0  0  0  0  0  0  0  0  0  0
  -24.8851  -27.8291   22.5152 C   0  0  0  0  0  0  0  0  0  0  0  0
  -25.3146  -14.1050   21.2788 C   0  0  1  0  0  0  0  0  0  0  0  0
  -27.0507  -17.1994   19.9210 C   0  0  1  0  0  0  0  0  0  0  0  0
  -26.2052  -27.1654   22.0848 C   0  0  2  0  0  0  0  0  0  0  0  0
  -21.0197  -29.8670   19.4527 C   0  0  0  0  0  0  0  0  0  0  0  0
  -23.7297  -33.1606   22.8179 C   0  0  0  0  0  0  0  0  0  0  0  0
  -32.9238  -22.2416   20.2143 C   0  0  0  0  0  0  0  0  0  0  0  0
  -25.5944  -30.7023   22.2163 C   0  0  0  0  0  0  0  0  0  0  0  0
  -30.0187  -17.2542   23.4634 C   0  0  0  0  0  0  0  0  0  0  0  0
  -31.6770  -19.1299   23.4522 C   0  0  0  0  0  0  0  0  0  0  0  0
  -31.9352  -17.2296   21.8569 C   0  0  0  0  0  0  0  0  0  0  0  0
  -29.8138  -22.5009   18.0379 C   0  0  0  0  0  0  0  0  0  0  0  0
  -24.1286  -32.0491   23.7834 C   0  0  0  0  0  0  0  0  0  0  0  0
  -20.9993  -26.2044   22.0574 C   0  0  0  0  0  0  0  0  0  0  0  0
  -21.0267  -24.7963   21.4591 C   0  0  0  0  0  0  0  0  0  0  0  0
  -19.9143  -27.0646   21.4020 C   0  0  0  0  0  0  0  0  0  0  0  0
  -22.0853  -23.9269   22.1344 C   0  0  0  0  0  0  0  0  0  0  0  0
  -19.8493  -28.4856   21.9732 C   0  0  0  0  0  0  0  0  0  0  0  0
  -22.1482  -22.5370   21.5171 C   0  0  0  0  0  0  0  0  0  1  0  0
  -30.0874  -18.9153   21.4880 C   0  0  1  0  0  0  0  0  0  0  0  0
  -31.6802  -21.7269   19.5063 C   0  0  2  0  0  0  0  0  0  0  0  0
  -24.2977  -30.6321   23.1032 C   0  0  1  0  0  0  0  0  0  0  0  0
  -30.9021  -18.1372   22.5596 C   0  0  0  0  0  0  0  0  0  0  0  0
  -24.9279  -26.0420   20.2989 N   0  0  0  0  0  0  0  0  0  0  0  0
  -21.1557  -29.2345   21.8934 N   0  0  0  0  0  0  0  0  0  0  0  0
  -26.1050  -26.5511   20.7007 N   0  0  0  0  0  0  0  0  0  0  0  0
  -22.8158  -30.3802   21.1274 N   0  3  0  0  0  0  0  0  0  0  0  0
  -27.8958  -18.1812   20.6038 N   0  0  0  0  0  0  0  0  0  0  0  0
  -25.0033  -28.3905   23.8681 N   0  0  0  0  0  0  0  0  0  0  0  0
  -28.3434  -26.9056   20.0119 N   0  0  0  0  0  0  0  0  0  0  0  0
  -26.4688  -24.8581   16.4496 N   0  0  0  0  0  0  0  0  0  0  0  0
  -25.8450  -15.1698   20.4546 N   0  0  0  0  0  0  0  0  0  0  0  0
  -30.9011  -19.7389   20.6003 N   0  0  0  0  0  0  0  0  0  0  0  0
  -31.0371  -22.8686   18.7964 N   0  3  0  0  0  0  0  0  0  0  0  0
  -28.4142  -25.7492   17.2743 O   0  0  0  0  0  0  0  0  0  0  0  0
  -26.9273  -16.3727   22.1292 O   0  0  0  0  0  0  0  0  0  0  0  0
  -29.8720  -17.1548   19.9130 O   0  0  0  0  0  0  0  0  0  0  0  0
  -24.7941  -30.1520   25.3693 O   0  0  0  0  0  0  0  0  0  0  0  0
  -29.8597  -21.7510   21.0945 O   0  0  0  0  0  0  0  0  0  0  0  0
  -21.1793  -23.1601   16.0337 O   0  0  0  0  0  0  0  0  0  0  0  0
  -23.1419  -21.7737   22.1999 O   0  0  0  0  0  0  0  0  0  1  0  0
  -17.9883  -19.4183   18.5278 F   0  0  0  0  0  0  0  0  0  0  0  0
  -19.6471  -23.8416   18.2315 F   0  0  0  0  0  0  0  0  0  0  0  0
  1  2  1  0  0  0  0
  1  5  2  0  0  0  0
  2  6  2  0  0  0  0
  3  8  2  0  0  0  0
  3 16  1  0  0  0  0
  4  9  1  0  0  0  0
  4 16  2  0  0  0  0
  5 18  1  0  0  0  0
  6 20  1  0  0  0  0
  7 10  2  0  0  0  0
  7 19  1  0  0  0  0
  8 22  1  0  0  0  0
  9 22  2  0  0  0  0
 10 23  1  0  0  0  0
 11 12  2  0  0  0  0
 11 24  1  0  0  0  0
 12 25  1  0  0  0  0
 13 21  1  0  0  0  0
 13 23  2  0  0  0  0
 14 25  2  0  0  0  0
 14 26  1  0  0  0  0
 15 28  2  0  0  0  0
 15 68  1  0  0  0  0
 16 27  1  0  0  0  0
 17 27  1  0  0  0  0
 17 29  2  0  0  0  0
 17 31  1  0  0  0  0
 18 20  2  0  0  0  0
 18 36  1  0  0  0  0
 19 21  2  0  0  0  0
 19 37  1  0  0  0  0
 20 45  1  0  0  0  0
 21 38  1  0  0  0  0
 22 83  1  0  0  0  0
 23 84  1  0  0  0  0
 24 26  2  0  0  0  0
 24 83  1  0  0  0  0
 25 85  1  0  0  0  0
 26 86  1  0  0  0  0
 27 67  2  0  0  0  0
 28 65  1  0  0  0  0
 28 70  1  0  0  0  0
 29 69  1  0  0  0  0
 29 73  1  0  0  0  0
 30 48  1  0  0  0  0
 30 68  1  0  0  0  0
 30 70  2  0  0  0  0
 31 74  1  0  0  0  0
 31 78  2  0  0  0  0
 32 46  1  0  0  0  0
 32 75  1  0  0  0  0
 32 79  2  0  0  0  0
 33 63  1  0  0  0  0
 33 71  1  0  0  0  0
 33 80  2  0  0  0  0
 34 65  1  0  0  0  0
 34 72  1  0  0  0  0
 34 81  2  0  0  0  0
 35 64  1  0  0  0  0
 35 76  1  0  0  0  0
 35 82  2  0  0  0  0
 36 39  1  0  0  0  0
 37 46  1  0  0  0  0
 38 71  1  0  0  0  0
 39 41  1  0  0  0  0
 40 42  1  0  0  0  0
 40 43  1  0  0  0  0
 41 45  1  0  0  0  0
 42 47  1  0  0  0  0
 43 72  1  0  0  0  0
 44 47  1  0  0  0  0
 44 72  1  0  0  0  0
 45 75  1  0  0  0  0
 46 71  1  0  0  0  0
 47 69  1  0  0  0  0
 49 56  1  0  0  0  0
 50 64  1  0  0  0  0
 51 65  1  0  0  0  0
 52 66  1  0  0  0  0
 53 66  1  0  0  0  0
 54 66  1  0  0  0  0
 55 77  1  0  0  0  0
 56 65  1  0  0  0  0
 57 58  1  0  0  0  0
 57 59  1  0  0  0  0
 58 60  1  0  0  0  0
 59 61  1  0  0  0  0
 60 62  1  0  0  0  0
 61 68  1  0  0  0  0
 62 84  1  0  0  0  0
 63 66  1  0  0  0  0
 63 76  1  0  0  0  0
 64 77  1  0  0  0  0
 67 69  1  0  0  0  0
M  CHG  2  70   1  77   1
M  ISO  4  34 100  62 101  65 100  84 101
M  END
> <Batch ID>
0075

> <Smiles>
CC[100C:0](C)(c1cn(CCCCC[101CH2:1][101O:1]c2ccc3c(c2)CN(C(=O)C(NC(=O)C(C)NC)C(C)(C)C)C(C(=O)NC2CCCc4ccccc42)C3)c(C)n1)[100C:0](=O)N1CCCC(n2nc(-c3ccc(Oc4ccc(F)cc4F)cc3)c(C(N)=O)c2N)C1

> <Shape>
0.199

> <Color>
0.063

> <Negative vol penalty>
0.000

$$$$

  -OEChem-04052318323D

 79 87  0     1  0  0  0  0  0999 V2000
  -17.8009  -25.3119   21.0378 C   0  0  0  0  0  0  0  0  0  0  0  0
  -19.1040  -25.3131   20.5507 C   0  0  0  0  0  0  0  0  0  0  0  0
  -25.2670  -13.1263   20.0124 C   0  0  0  0  0  0  0  0  0  0  0  0
  -27.2461  -12.6097   21.2982 C   0  0  0  0  0  0  0  0  0  0  0  0
  -17.4200  -26.2372   22.0088 C   0  0  0  0  0  0  0  0  0  0  0  0
  -20.0267  -26.2404   21.0335 C   0  0  0  0  0  0  0  0  0  0  0  0
  -24.5233  -24.1511   22.0632 C   0  0  0  0  0  0  0  0  0  0  0  0
  -24.9003  -11.7807   20.0362 C   0  0  0  0  0  0  0  0  0  0  0  0
  -26.8794  -11.2641   21.3221 C   0  0  0  0  0  0  0  0  0  0  0  0
  -25.3648  -23.8867   20.9834 C   0  0  0  0  0  0  0  0  0  0  0  0
  -23.4695   -9.6270   22.2150 C   0  0  0  0  0  0  0  0  0  0  0  0
  -22.1389   -9.3227   22.5025 C   0  0  0  0  0  0  0  0  0  0  0  0
  -26.6047  -25.8992   21.4647 C   0  0  0  0  0  0  0  0  0  0  0  0
  -21.9245   -8.2330   20.3569 C   0  0  0  0  0  0  0  0  0  0  0  0
  -30.2575  -22.7778   19.0748 C   0  0  0  0  0  0  0  0  0  0  0  0
  -29.6709  -22.6048   21.3293 C   0  0  0  0  0  0  0  0  0  0  0  0
  -26.4399  -13.5408   20.6434 C   0  0  0  0  0  0  0  0  0  0  0  0
  -26.4714  -15.9236   21.5537 C   0  0  0  0  0  0  0  0  0  0  0  0
  -18.3411  -27.1700   22.5107 C   0  0  0  0  0  0  0  0  0  0  0  0
  -24.7098  -25.2992   22.8464 C   0  0  0  0  0  0  0  0  0  0  0  0
  -19.6575  -27.1799   22.0111 C   0  0  0  0  0  0  0  0  0  0  0  0
  -25.7658  -26.1746   22.5553 C   0  0  0  0  0  0  0  0  0  0  0  0
  -30.5678  -22.2913   20.3283 C   0  0  0  0  0  0  0  0  0  0  0  0
  -25.7064  -10.8496   20.6910 C   0  0  0  0  0  0  0  0  0  0  0  0
  -26.4039  -24.7623   20.6823 C   0  0  0  0  0  0  0  0  0  0  0  0
  -24.0275   -9.2344   20.9983 C   0  0  0  0  0  0  0  0  0  0  0  0
  -21.3664   -8.6257   21.5735 C   0  0  0  0  0  0  0  0  0  0  0  0
  -23.2550   -8.5374   20.0693 C   0  0  0  0  0  0  0  0  0  0  0  0
  -26.8195  -14.9305   20.6187 C   0  0  0  0  0  0  0  0  0  0  0  0
  -27.0753  -17.0643   21.0841 C   0  0  0  0  0  0  0  0  0  0  0  0
  -28.3629  -23.7525   19.8668 C   0  0  0  0  0  0  0  0  0  1  0  0
  -25.6735  -15.8239   22.7408 C   0  0  0  0  0  0  0  0  0  0  0  0
  -22.9656  -27.8739   23.5036 C   0  0  0  0  0  0  0  0  0  0  0  0
  -31.5757  -19.6066   18.9457 C   0  0  0  0  0  0  0  0  0  0  0  0
  -25.3933  -28.5151   25.5573 C   0  0  0  0  0  0  0  0  0  0  0  0
  -28.6708  -28.0701   26.3980 C   0  0  0  0  0  0  0  0  0  0  0  0
  -17.8702  -28.1814   23.5256 C   0  0  0  0  0  0  0  0  0  0  0  0
  -23.8099  -25.5561   24.0240 C   0  0  0  0  0  0  0  0  0  0  0  0
  -26.0210  -27.4104   23.3776 C   0  0  0  0  0  0  0  0  0  0  0  0
  -19.0097  -28.8871   24.2563 C   0  0  0  0  0  0  0  0  0  0  0  0
  -29.3084  -18.0348   16.6591 C   0  0  0  0  0  0  0  0  0  0  0  0
  -20.0750  -29.3471   23.2661 C   0  0  0  0  0  0  0  0  0  0  0  0
  -28.4503  -17.1459   17.5585 C   0  0  0  0  0  0  0  0  0  0  0  0
  -30.7476  -18.1112   17.1590 C   0  0  0  0  0  0  0  0  0  0  0  0
  -30.0171  -17.6687   19.4812 C   0  0  0  0  0  0  0  0  0  0  0  0
  -20.6939  -28.1540   22.5279 C   0  0  1  0  0  0  0  0  0  0  0  0
  -23.7755  -27.0233   24.4407 C   0  0  1  0  0  0  0  0  0  0  0  0
  -28.5482  -17.5889   19.0290 C   0  0  2  0  0  0  0  0  0  0  0  0
  -32.6639  -19.1546   21.1059 C   0  0  0  0  0  0  0  0  0  0  0  0
  -30.3757  -28.7515   28.1087 C   0  0  0  0  0  0  0  0  0  0  0  0
  -25.6228  -31.2547   24.2338 C   0  0  0  0  0  0  0  0  0  0  0  0
  -27.8783  -31.4999   25.2924 C   0  0  0  0  0  0  0  0  0  0  0  0
  -25.8479  -31.2772   26.7244 C   0  0  0  0  0  0  0  0  0  0  0  0
  -29.0900  -25.2714   27.2645 C   0  0  0  0  0  0  0  0  0  0  0  0
  -31.7851  -21.4839   20.5832 C   0  0  0  0  0  0  0  0  0  0  0  0
  -31.5730  -19.9625   20.4111 C   0  0  1  0  0  0  0  0  0  0  0  0
  -26.7036  -29.2590   25.4647 C   0  0  1  0  0  0  0  0  0  0  0  0
  -29.3332  -27.7158   27.7171 C   0  0  2  0  0  0  0  0  0  0  0  0
  -26.5074  -30.8005   25.4120 C   0  0  0  0  0  0  0  0  0  0  0  0
  -29.1594  -23.5145   18.8073 N   0  0  0  0  0  0  0  0  0  0  0  0
  -28.5542  -23.3360   21.1332 N   0  0  0  0  0  0  0  0  0  0  0  0
  -27.5851  -15.3992   19.6296 N   0  0  0  0  0  0  0  0  0  0  0  0
  -27.7229  -16.6994   19.9405 N   0  0  0  0  0  0  0  0  0  0  0  0
  -25.1100  -27.6213   24.5148 N   0  0  0  0  0  0  0  0  0  0  0  0
  -30.7968  -18.5135   18.5658 N   0  0  0  0  0  0  0  0  0  0  0  0
  -27.1102  -18.3338   21.5417 N   0  0  0  0  0  0  0  0  0  0  0  0
  -25.1288  -14.5770   23.0770 N   0  0  0  0  0  0  0  0  0  0  0  0
  -21.6488  -27.4744   23.3769 N   0  0  0  0  0  0  0  0  0  0  0  0
  -27.5149  -28.7979   26.5861 N   0  0  0  0  0  0  0  0  0  0  0  0
  -30.0030  -26.3880   27.6203 N   0  3  0  0  0  0  0  0  0  0  0  0
  -25.4367  -16.8147   23.4727 O   0  0  0  0  0  0  0  0  0  0  0  0
  -23.4957  -28.8233   22.9386 O   0  0  0  0  0  0  0  0  0  0  0  0
  -32.2484  -20.2829   18.1631 O   0  0  0  0  0  0  0  0  0  0  0  0
  -24.6517  -28.7141   26.5228 O   0  0  0  0  0  0  0  0  0  0  0  0
  -29.1345  -27.7378   25.3094 O   0  0  0  0  0  0  0  0  0  0  0  0
  -25.3488   -9.5366   20.7147 O   0  0  0  0  0  0  0  0  0  0  0  0
  -27.2263  -24.5069   19.6285 O   0  0  0  0  0  0  0  0  0  1  0  0
  -20.0892   -8.3322   21.8504 F   0  0  0  0  0  0  0  0  0  0  0  0
  -23.7859   -8.1566   18.8993 F   0  0  0  0  0  0  0  0  0  0  0  0
  1  2  1  0  0  0  0
  1  5  2  0  0  0  0
  2  6  2  0  0  0  0
  3  8  2  0  0  0  0
  3 17  1  0  0  0  0
  4  9  1  0  0  0  0
  4 17  2  0  0  0  0
  5 19  1  0  0  0  0
  6 21  1  0  0  0  0
  7 10  2  0  0  0  0
  7 20  1  0  0  0  0
  8 24  1  0  0  0  0
  9 24  2  0  0  0  0
 10 25  1  0  0  0  0
 11 12  2  0  0  0  0
 11 26  1  0  0  0  0
 12 27  1  0  0  0  0
 13 22  1  0  0  0  0
 13 25  2  0  0  0  0
 14 27  2  0  0  0  0
 14 28  1  0  0  0  0
 15 23  1  0  0  0  0
 15 60  2  0  0  0  0
 16 23  2  0  0  0  0
 16 61  1  0  0  0  0
 17 29  1  0  0  0  0
 18 29  1  0  0  0  0
 18 30  2  0  0  0  0
 18 32  1  0  0  0  0
 19 21  2  0  0  0  0
 19 37  1  0  0  0  0
 20 22  2  0  0  0  0
 20 38  1  0  0  0  0
 21 46  1  0  0  0  0
 22 39  1  0  0  0  0
 23 55  1  0  0  0  0
 24 76  1  0  0  0  0
 25 77  1  0  0  0  0
 26 28  2  0  0  0  0
 26 76  1  0  0  0  0
 27 78  1  0  0  0  0
 28 79  1  0  0  0  0
 29 62  2  0  0  0  0
 30 63  1  0  0  0  0
 30 66  1  0  0  0  0
 31 60  1  0  0  0  0
 31 61  2  0  0  0  0
 31 77  1  0  0  0  0
 32 67  1  0  0  0  0
 32 71  2  0  0  0  0
 33 47  1  0  0  0  0
 33 68  1  0  0  0  0
 33 72  2  0  0  0  0
 34 56  1  0  0  0  0
 34 65  1  0  0  0  0
 34 73  2  0  0  0  0
 35 57  1  0  0  0  0
 35 64  1  0  0  0  0
 35 74  2  0  0  0  0
 36 58  1  0  0  0  0
 36 69  1  0  0  0  0
 36 75  2  0  0  0  0
 37 40  1  0  0  0  0
 38 47  1  0  0  0  0
 39 64  1  0  0  0  0
 40 42  1  0  0  0  0
 41 43  1  0  0  0  0
 41 44  1  0  0  0  0
 42 46  1  0  0  0  0
 43 48  1  0  0  0  0
 44 65  1  0  0  0  0
 45 48  1  0  0  0  0
 45 65  1  0  0  0  0
 46 68  1  0  0  0  0
 47 64  1  0  0  0  0
 48 63  1  0  0  0  0
 49 56  1  0  0  0  0
 50 58  1  0  0  0  0
 51 59  1  0  0  0  0
 52 59  1  0  0  0  0
 53 59  1  0  0  0  0
 54 70  1  0  0  0  0
 55 56  1  0  0  0  0
 57 59  1  0  0  0  0
 57 69  1  0  0  0  0
 58 70  1  0  0  0  0
 62 63  1  0  0  0  0
M  CHG  1  70   1
M  ISO  4  31 101  34 100  56 100  77 101
M  END
> <Batch ID>
0075

> <Smiles>
CNC(C)C(=O)NC(C(=O)N1Cc2cc([101O:1][101c:1]3ncc(C[100CH:0](C)[100C:0](=O)N4CCCC(n5nc(-c6ccc(Oc7ccc(F)cc7F)cc6)c(C(N)=O)c5N)C4)cn3)ccc2CC1C(=O)NC1CCCc2ccccc21)C(C)(C)C

> <Shape>
0.223

> <Color>
0.085

> <Negative vol penalty>
0.000

$$$$

  -OEChem-04052318323D

 86 94  0     1  0  0  0  0  0999 V2000
  -27.2532  -11.0412   18.2403 C   0  0  0  0  0  0  0  0  0  0  0  0
  -27.2426  -12.3010   17.6501 C   0  0  0  0  0  0  0  0  0  0  0  0
  -19.8369  -28.2853   23.8719 C   0  0  0  0  0  0  0  0  0  0  0  0
  -20.5270  -26.9922   21.9512 C   0  0  0  0  0  0  0  0  0  0  0  0
  -26.4997  -10.8045   19.3892 C   0  0  0  0  0  0  0  0  0  0  0  0
  -26.4775  -13.3246   18.2081 C   0  0  0  0  0  0  0  0  0  0  0  0
  -27.8524  -19.2908   18.3486 C   0  0  0  0  0  0  0  0  0  0  0  0
  -18.5174  -28.2507   23.4211 C   0  0  0  0  0  0  0  0  0  0  0  0
  -19.2074  -26.9576   21.5004 C   0  0  0  0  0  0  0  0  0  0  0  0
  -27.4551  -20.3639   17.5521 C   0  0  0  0  0  0  0  0  0  0  0  0
  -16.3818  -25.2415   22.2013 C   0  0  0  0  0  0  0  0  0  0  0  0
  -15.8855  -24.0196   21.7471 C   0  0  0  0  0  0  0  0  0  0  0  0
  -25.7355  -20.9084   19.1538 C   0  0  0  0  0  0  0  0  0  0  0  0
  -28.7717  -24.1190   18.6772 C   0  0  0  0  0  0  0  0  0  0  0  0
  -15.4686  -24.9956   19.5767 C   0  0  0  0  0  0  0  0  0  0  0  0
  -29.3180  -25.6193   20.4400 C   0  0  0  0  0  0  0  0  0  0  0  0
  -20.8417  -27.6561   23.1369 C   0  0  0  0  0  0  0  0  0  0  0  0
  -22.8378  -26.7658   24.4524 C   0  0  0  0  0  0  0  0  0  0  0  0
  -25.7326  -11.8284   19.9671 C   0  0  0  0  0  0  0  0  0  0  0  0
  -27.1860  -19.0114   19.5504 C   0  0  0  0  0  0  0  0  0  0  0  0
  -25.7120  -13.1010   19.3651 C   0  0  0  0  0  0  0  0  0  0  0  0
  -26.1278  -19.8327   19.9650 C   0  0  0  0  0  0  0  0  0  0  0  0
  -29.4576  -24.3684   19.8607 C   0  0  0  0  0  0  0  0  0  0  0  0
  -27.9783  -25.1140   18.1172 C   0  0  0  0  0  0  0  0  0  0  0  0
  -18.2026  -27.5869   22.2354 C   0  0  0  0  0  0  0  0  0  0  0  0
  -26.3947  -21.1712   17.9532 C   0  0  0  0  0  0  0  0  0  0  0  0
  -16.4214  -26.3405   21.3432 C   0  0  0  0  0  0  0  0  0  0  0  0
  -15.4290  -23.8966   20.4349 C   0  0  0  0  0  0  0  0  0  0  0  0
  -15.9648  -26.2175   20.0309 C   0  0  0  0  0  0  0  0  0  0  0  0
  -22.2051  -27.6920   23.6017 C   0  0  0  0  0  0  0  0  0  0  0  0
  -27.9047  -26.3315   18.7746 C   0  0  0  0  0  0  0  0  0  0  0  0
  -24.1180  -27.2442   24.5892 C   0  0  0  0  0  0  0  0  0  0  0  0
  -22.3152  -25.5791   25.0641 C   0  0  0  0  0  0  0  0  0  0  0  0
  -25.5064  -16.5537   20.6650 C   0  0  0  0  0  0  0  0  0  0  0  0
  -25.5351  -18.2813   23.4103 C   0  0  0  0  0  0  0  0  0  0  0  0
  -25.1552  -21.7451   24.3460 C   0  0  0  0  0  0  0  0  0  0  0  0
  -27.5561  -30.7346   21.1472 C   0  0  0  0  0  0  0  0  0  0  0  0
  -24.8972  -11.5120   21.1822 C   0  0  0  0  0  0  0  0  0  0  0  0
  -27.6439  -17.8662   20.4113 C   0  0  0  0  0  0  0  0  0  0  0  0
  -25.3927  -19.5874   21.2565 C   0  0  0  0  0  0  0  0  0  0  0  0
  -24.4082  -12.7527   21.9251 C   0  0  0  0  0  0  0  0  0  0  0  0
  -26.6171  -31.3236   24.5307 C   0  0  0  0  0  0  0  0  0  0  0  0
  -23.8407  -13.7734   20.9438 C   0  0  0  0  0  0  0  0  0  0  0  0
  -25.4370  -30.3761   24.7530 C   0  0  0  0  0  0  0  0  0  0  0  0
  -26.6164  -31.9043   23.1183 C   0  0  0  0  0  0  0  0  0  0  0  0
  -25.3761  -29.9554   22.2594 C   0  0  0  0  0  0  0  0  0  0  0  0
  -24.9142  -14.2438   19.9548 C   0  0  1  0  0  0  0  0  0  0  0  0
  -26.5621  -17.3640   21.3626 C   0  0  1  0  0  0  0  0  0  0  0  0
  -25.3656  -29.3013   23.6517 C   0  0  2  0  0  0  0  0  0  0  0  0
  -30.3137  -23.3251   20.4858 C   0  0  0  0  0  0  0  0  0  0  0  0
  -26.0432  -23.0073   26.3248 C   0  0  0  0  0  0  0  0  0  0  0  0
  -22.8405  -17.6159   24.6779 C   0  0  0  0  0  0  0  0  0  0  0  0
  -22.8403  -19.8978   25.7082 C   0  0  0  0  0  0  0  0  0  0  0  0
  -24.6272  -18.2623   26.3041 C   0  0  0  0  0  0  0  0  0  0  0  0
  -28.9029  -28.6225   16.8878 C   0  0  0  0  0  0  0  0  0  0  0  0
  -26.7297  -29.7629   17.3006 C   0  0  0  0  0  0  0  0  0  0  0  0
  -26.4524  -23.7687   22.6195 C   0  0  0  0  0  0  0  0  0  0  0  0
  -27.2332  -24.8509   16.8330 C   0  0  0  0  0  0  0  0  0  0  0  0
  -27.0671  -27.4369   18.2197 C   0  0  0  0  0  0  0  0  0  0  0  0
  -25.7368  -24.5986   17.0297 C   0  0  0  0  0  0  0  0  0  0  0  0
  -28.3789  -29.4516   19.1886 C   0  0  0  0  0  0  0  0  0  0  0  0
  -25.4378  -23.3457   17.8448 C   0  0  0  0  0  0  0  0  0  1  0  0
  -24.6456  -19.3396   24.0169 C   0  0  1  0  0  0  0  0  0  0  0  0
  -26.2431  -22.6736   24.8546 C   0  0  2  0  0  0  0  0  0  0  0  0
  -23.7407  -18.7758   25.1486 C   0  0  0  0  0  0  0  0  0  0  0  0
  -27.7720  -28.8041   17.9210 C   0  0  0  0  0  0  0  0  0  0  0  0
  -28.5564  -26.6108   19.9256 N   0  0  0  0  0  0  0  0  0  0  0  0
  -23.0164  -28.6838   23.2248 N   0  0  0  0  0  0  0  0  0  0  0  0
  -24.1720  -28.3836   23.8416 N   0  0  0  0  0  0  0  0  0  0  0  0
  -25.8737  -18.4518   22.0605 N   0  0  0  0  0  0  0  0  0  0  0  0
  -26.5490  -30.8331   22.1214 N   0  0  0  0  0  0  0  0  0  0  0  0
  -25.1915  -26.7972   25.2749 N   0  0  0  0  0  0  0  0  0  0  0  0
  -20.9794  -25.2333   24.8180 N   0  0  0  0  0  0  0  0  0  0  0  0
  -25.7947  -15.2047   20.5839 N   0  0  0  0  0  0  0  0  0  0  0  0
  -25.5284  -20.4210   24.4406 N   0  0  0  0  0  0  0  0  0  0  0  0
  -27.4196  -29.6871   20.2445 N   0  0  0  0  0  0  0  0  0  0  0  0
  -26.2420  -23.9464   24.0794 N   0  3  0  0  0  0  0  0  0  0  0  0
  -23.0072  -24.8559   25.8202 O   0  0  0  0  0  0  0  0  0  0  0  0
  -24.5038  -17.1109   20.2337 O   0  0  0  0  0  0  0  0  0  0  0  0
  -25.9212  -17.3420   24.1104 O   0  0  0  0  0  0  0  0  0  0  0  0
  -24.0802  -22.1533   23.9120 O   0  0  0  0  0  0  0  0  0  0  0  0
  -28.5094  -31.5188   21.0897 O   0  0  0  0  0  0  0  0  0  0  0  0
  -16.9150  -27.5527   21.7954 O   0  0  0  0  0  0  0  0  0  0  0  0
  -26.0045  -22.2189   17.1773 O   0  0  0  0  0  0  0  0  0  1  0  0
  -14.9539  -22.7227   19.9984 F   0  0  0  0  0  0  0  0  0  0  0  0
  -16.0014  -27.2695   19.2016 F   0  0  0  0  0  0  0  0  0  0  0  0
  1  2  1  0  0  0  0
  1  5  2  0  0  0  0
  2  6  2  0  0  0  0
  3  8  2  0  0  0  0
  3 17  1  0  0  0  0
  4  9  1  0  0  0  0
  4 17  2  0  0  0  0
  5 19  1  0  0  0  0
  6 21  1  0  0  0  0
  7 10  2  0  0  0  0
  7 20  1  0  0  0  0
  8 25  1  0  0  0  0
  9 25  2  0  0  0  0
 10 26  1  0  0  0  0
 11 12  2  0  0  0  0
 11 27  1  0  0  0  0
 12 28  1  0  0  0  0
 13 22  1  0  0  0  0
 13 26  2  0  0  0  0
 14 23  2  0  0  0  0
 14 24  1  0  0  0  0
 15 28  2  0  0  0  0
 15 29  1  0  0  0  0
 16 23  1  0  0  0  0
 16 67  2  0  0  0  0
 17 30  1  0  0  0  0
 18 30  1  0  0  0  0
 18 32  2  0  0  0  0
 18 33  1  0  0  0  0
 19 21  2  0  0  0  0
 19 38  1  0  0  0  0
 20 22  2  0  0  0  0
 20 39  1  0  0  0  0
 21 47  1  0  0  0  0
 22 40  1  0  0  0  0
 23 50  1  0  0  0  0
 24 31  2  0  0  0  0
 24 58  1  0  0  0  0
 25 83  1  0  0  0  0
 26 84  1  0  0  0  0
 27 29  2  0  0  0  0
 27 83  1  0  0  0  0
 28 85  1  0  0  0  0
 29 86  1  0  0  0  0
 30 68  2  0  0  0  0
 31 59  1  0  0  0  0
 31 67  1  0  0  0  0
 32 69  1  0  0  0  0
 32 72  1  0  0  0  0
 33 73  1  0  0  0  0
 33 78  2  0  0  0  0
 34 48  1  0  0  0  0
 34 74  1  0  0  0  0
 34 79  2  0  0  0  0
 35 63  1  0  0  0  0
 35 70  1  0  0  0  0
 35 80  2  0  0  0  0
 36 64  1  0  0  0  0
 36 75  1  0  0  0  0
 36 81  2  0  0  0  0
 37 71  1  0  0  0  0
 37 76  1  0  0  0  0
 37 82  2  0  0  0  0
 38 41  1  0  0  0  0
 39 48  1  0  0  0  0
 40 70  1  0  0  0  0
 41 43  1  0  0  0  0
 42 44  1  0  0  0  0
 42 45  1  0  0  0  0
 43 47  1  0  0  0  0
 44 49  1  0  0  0  0
 45 71  1  0  0  0  0
 46 49  1  0  0  0  0
 46 71  1  0  0  0  0
 47 74  1  0  0  0  0
 48 70  1  0  0  0  0
 49 69  1  0  0  0  0
 51 64  1  0  0  0  0
 52 65  1  0  0  0  0
 53 65  1  0  0  0  0
 54 65  1  0  0  0  0
 55 66  1  0  0  0  0
 56 66  1  0  0  0  0
 57 77  1  0  0  0  0
 58 60  1  0  0  0  0
 59 66  1  0  0  0  0
 60 62  1  0  0  0  0
 61 66  1  0  0  0  0
 61 76  1  0  0  0  0
 62 84  1  0  0  0  0
 63 65  1  0  0  0  0
 63 75  1  0  0  0  0
 64 77  1  0  0  0  0
 68 69  1  0  0  0  0
M  CHG  1  77   1
M  ISO  4  37 100  62 101  76 100  84 101
M  END
> <Batch ID>
0075

> <Smiles>
CNC(C)C(=O)NC(C(=O)N1Cc2cc([101O:1][101CH2:1]CCc3cc(C)cnc3CC(C)(C)C[100NH:0][100C:0](=O)N3CCCC(n4nc(-c5ccc(Oc6ccc(F)cc6F)cc5)c(C(N)=O)c4N)C3)ccc2CC1C(=O)NC1CCCc2ccccc21)C(C)(C)C

> <Shape>
0.190

> <Color>
0.086

> <Negative vol penalty>
0.000

$$$$

  -OEChem-04052318323D

 86 94  0     1  0  0  0  0  0999 V2000
  -37.8015  -29.7911   20.4946 C   0  0  0  0  0  0  0  0  0  0  0  0
  -37.6166  -28.4141   20.4232 C   0  0  0  0  0  0  0  0  0  0  0  0
  -23.3074   -9.7887   19.8643 C   0  0  0  0  0  0  0  0  0  0  0  0
  -23.7585   -9.8641   22.2366 C   0  0  0  0  0  0  0  0  0  0  0  0
  -36.6975  -30.6377   20.5854 C   0  0  0  0  0  0  0  0  0  0  0  0
  -36.3275  -27.8828   20.4437 C   0  0  0  0  0  0  0  0  0  0  0  0
  -32.4982  -22.4202   17.8337 C   0  0  0  0  0  0  0  0  0  0  0  0
  -22.6031   -8.5971   20.0360 C   0  0  0  0  0  0  0  0  0  0  0  0
  -23.0541   -8.6724   22.4084 C   0  0  0  0  0  0  0  0  0  0  0  0
  -31.6507  -21.3984   18.2597 C   0  0  0  0  0  0  0  0  0  0  0  0
  -21.0678   -5.8391   23.5243 C   0  0  0  0  0  0  0  0  0  0  0  0
  -20.1682   -5.7641   24.5875 C   0  0  0  0  0  0  0  0  0  0  0  0
  -29.8154  -22.9619   18.3391 C   0  0  0  0  0  0  0  0  0  0  0  0
  -18.9235   -7.6180   23.6651 C   0  0  0  0  0  0  0  0  0  0  0  0
  -29.0996  -14.9252   22.9356 C   0  0  0  0  0  0  0  0  0  0  0  0
  -23.8852  -10.4222   20.9646 C   0  0  0  0  0  0  0  0  0  0  0  0
  -24.0975  -12.9615   20.8444 C   0  0  0  0  0  0  0  0  0  0  0  0
  -35.3938  -30.1172   20.5973 C   0  0  0  0  0  0  0  0  0  0  0  0
  -32.0123  -23.7250   17.6675 C   0  0  0  0  0  0  0  0  0  0  0  0
  -35.2050  -28.7233   20.5361 C   0  0  0  0  0  0  0  0  0  0  0  0
  -30.6582  -23.9979   17.9086 C   0  0  0  0  0  0  0  0  0  0  0  0
  -22.4764   -8.0389   21.3080 C   0  0  0  0  0  0  0  0  0  0  0  0
  -30.3097  -21.6697   18.5152 C   0  0  0  0  0  0  0  0  0  0  0  0
  -20.8954   -6.8036   22.5314 C   0  0  0  0  0  0  0  0  0  0  0  0
  -19.0960   -6.6535   24.6580 C   0  0  0  0  0  0  0  0  0  0  0  0
  -19.8232   -7.6930   22.6019 C   0  0  0  0  0  0  0  0  0  0  0  0
  -24.6133  -11.6529   20.7877 C   0  0  0  0  0  0  0  0  0  0  0  0
  -29.0905  -16.2414   23.3500 C   0  0  0  0  0  0  0  0  0  0  0  0
  -29.6265  -14.0200   23.8342 C   0  0  0  0  0  0  0  0  0  0  0  0
  -25.1840  -13.7692   20.6131 C   0  0  0  0  0  0  0  0  0  0  0  0
  -30.0452  -15.6760   25.3340 C   0  0  0  0  0  0  0  0  0  0  0  0
  -22.7561  -13.4072   21.0849 C   0  0  0  0  0  0  0  0  0  0  0  0
  -32.6529  -26.5428   18.9918 C   0  0  0  0  0  0  0  0  0  0  0  0
  -30.6037  -27.6351   16.7268 C   0  0  0  0  0  0  0  0  0  0  0  0
  -31.0766  -12.8908   21.3993 C   0  0  0  0  0  0  0  0  0  0  0  0
  -28.0076  -26.9804   14.6106 C   0  0  0  0  0  0  0  0  0  0  0  0
  -34.2333  -31.0692   20.7443 C   0  0  0  0  0  0  0  0  0  0  0  0
  -32.9334  -24.8104   17.1818 C   0  0  0  0  0  0  0  0  0  0  0  0
  -30.0826  -25.3777   17.7258 C   0  0  0  0  0  0  0  0  0  0  0  0
  -32.8866  -30.4483   20.3825 C   0  0  0  0  0  0  0  0  0  0  0  0
  -29.4031  -13.8328   18.3740 C   0  0  0  0  0  0  0  0  0  0  0  0
  -32.7400  -29.0756   21.0313 C   0  0  0  0  0  0  0  0  0  0  0  0
  -27.9428  -13.4731   18.6446 C   0  0  0  0  0  0  0  0  0  0  0  0
  -30.3544  -12.8401   19.0349 C   0  0  0  0  0  0  0  0  0  0  0  0
  -28.6776  -12.3170   20.7774 C   0  0  0  0  0  0  0  0  0  0  0  0
  -33.8214  -28.1105   20.5306 C   0  0  1  0  0  0  0  0  0  0  0  0
  -32.4476  -26.2113   17.5407 C   0  0  1  0  0  0  0  0  0  0  0  0
  -27.6835  -13.3122   20.1530 C   0  0  2  0  0  0  0  0  0  0  0  0
  -30.5671  -16.0919   26.6676 C   0  0  0  0  0  0  0  0  0  0  0  0
  -29.3851  -11.6600   24.6979 C   0  0  0  0  0  0  0  0  0  0  0  0
  -26.5250  -28.0821   12.9119 C   0  0  0  0  0  0  0  0  0  0  0  0
  -30.9747  -10.6177   22.3234 C   0  0  0  0  0  0  0  0  0  0  0  0
  -32.2485  -12.4422   23.4709 C   0  0  0  0  0  0  0  0  0  0  0  0
  -29.0412  -28.9880   18.9715 C   0  0  0  0  0  0  0  0  0  0  0  0
  -27.1208  -29.2445   17.3857 C   0  0  0  0  0  0  0  0  0  0  0  0
  -29.2955  -30.3659   16.8999 C   0  0  0  0  0  0  0  0  0  0  0  0
  -28.9281  -25.1670   12.4604 C   0  0  0  0  0  0  0  0  0  0  0  0
  -28.5335  -17.3042   22.4367 C   0  0  0  0  0  0  0  0  0  0  0  0
  -29.5769  -17.9263   21.5020 C   0  0  0  0  0  0  0  0  0  0  0  0
  -29.0103  -19.0542   20.6385 C   0  0  0  0  0  0  0  0  0  0  0  0
  -30.0640  -19.6202   19.6962 C   0  0  0  0  0  0  0  0  0  1  0  0
  -29.6770  -12.5726   23.4753 C   0  0  2  0  0  0  0  0  0  0  0  0
  -29.1123  -27.8565   16.6518 C   0  0  1  0  0  0  0  0  0  0  0  0
  -27.8046  -27.2922   13.1388 C   0  0  2  0  0  0  0  0  0  0  0  0
  -30.9673  -12.1102   22.6848 C   0  0  0  0  0  0  0  0  0  0  0  0
  -28.6534  -29.0880   17.4826 C   0  0  0  0  0  0  0  0  0  0  0  0
  -25.9255  -11.6262   20.5396 N   0  0  0  0  0  0  0  0  0  0  0  0
  -29.5570  -16.6537   24.5470 N   0  0  0  0  0  0  0  0  0  0  0  0
  -30.1100  -14.3620   25.0464 N   0  0  0  0  0  0  0  0  0  0  0  0
  -26.2433  -12.9280   20.4383 N   0  0  0  0  0  0  0  0  0  0  0  0
  -31.0247  -26.4066   17.2553 N   0  0  0  0  0  0  0  0  0  0  0  0
  -30.0612  -12.6987   20.4622 N   0  0  0  0  0  0  0  0  0  0  0  0
  -25.3271  -15.1098   20.5440 N   0  0  0  0  0  0  0  0  0  0  0  0
  -21.7614  -12.4444   21.3038 N   0  0  0  0  0  0  0  0  0  0  0  0
  -33.4895  -27.6208   19.2098 N   0  0  0  0  0  0  0  0  0  0  0  0
  -28.7823  -27.9363   15.2330 N   0  0  0  0  0  0  0  0  0  0  0  0
  -27.7249  -26.0312   12.3485 N   0  3  0  0  0  0  0  0  0  0  0  0
  -22.4457  -14.6225   21.0886 O   0  0  0  0  0  0  0  0  0  0  0  0
  -32.0925  -25.8712   19.8501 O   0  0  0  0  0  0  0  0  0  0  0  0
  -31.3669  -28.5168   16.3246 O   0  0  0  0  0  0  0  0  0  0  0  0
  -32.0350  -13.6504   21.2358 O   0  0  0  0  0  0  0  0  0  0  0  0
  -27.5240  -25.9901   15.1546 O   0  0  0  0  0  0  0  0  0  0  0  0
  -21.7890   -6.8762   21.4760 O   0  0  0  0  0  0  0  0  0  0  0  0
  -29.4805  -20.6744   18.9317 O   0  0  0  0  0  0  0  0  0  1  0  0
  -18.2313   -6.5804   25.6783 F   0  0  0  0  0  0  0  0  0  0  0  0
  -19.6517   -8.6210   21.6504 F   0  0  0  0  0  0  0  0  0  0  0  0
  1  2  1  0  0  0  0
  1  5  2  0  0  0  0
  2  6  2  0  0  0  0
  3  8  2  0  0  0  0
  3 16  1  0  0  0  0
  4  9  1  0  0  0  0
  4 16  2  0  0  0  0
  5 18  1  0  0  0  0
  6 20  1  0  0  0  0
  7 10  2  0  0  0  0
  7 19  1  0  0  0  0
  8 22  1  0  0  0  0
  9 22  2  0  0  0  0
 10 23  1  0  0  0  0
 11 12  2  0  0  0  0
 11 24  1  0  0  0  0
 12 25  1  0  0  0  0
 13 21  1  0  0  0  0
 13 23  2  0  0  0  0
 14 25  2  0  0  0  0
 14 26  1  0  0  0  0
 15 28  1  0  0  0  0
 15 29  2  0  0  0  0
 16 27  1  0  0  0  0
 17 27  1  0  0  0  0
 17 30  2  0  0  0  0
 17 32  1  0  0  0  0
 18 20  2  0  0  0  0
 18 37  1  0  0  0  0
 19 21  2  0  0  0  0
 19 38  1  0  0  0  0
 20 46  1  0  0  0  0
 21 39  1  0  0  0  0
 22 83  1  0  0  0  0
 23 84  1  0  0  0  0
 24 26  2  0  0  0  0
 24 83  1  0  0  0  0
 25 85  1  0  0  0  0
 26 86  1  0  0  0  0
 27 67  2  0  0  0  0
 28 58  1  0  0  0  0
 28 68  2  0  0  0  0
 29 62  1  0  0  0  0
 29 69  1  0  0  0  0
 30 70  1  0  0  0  0
 30 73  1  0  0  0  0
 31 49  1  0  0  0  0
 31 68  1  0  0  0  0
 31 69  2  0  0  0  0
 32 74  1  0  0  0  0
 32 78  2  0  0  0  0
 33 47  1  0  0  0  0
 33 75  1  0  0  0  0
 33 79  2  0  0  0  0
 34 63  1  0  0  0  0
 34 71  1  0  0  0  0
 34 80  2  0  0  0  0
 35 65  1  0  0  0  0
 35 72  1  0  0  0  0
 35 81  2  0  0  0  0
 36 64  1  0  0  0  0
 36 76  1  0  0  0  0
 36 82  2  0  0  0  0
 37 40  1  0  0  0  0
 38 47  1  0  0  0  0
 39 71  1  0  0  0  0
 40 42  1  0  0  0  0
 41 43  1  0  0  0  0
 41 44  1  0  0  0  0
 42 46  1  0  0  0  0
 43 48  1  0  0  0  0
 44 72  1  0  0  0  0
 45 48  1  0  0  0  0
 45 72  1  0  0  0  0
 46 75  1  0  0  0  0
 47 71  1  0  0  0  0
 48 70  1  0  0  0  0
 50 62  1  0  0  0  0
 51 64  1  0  0  0  0
 52 65  1  0  0  0  0
 53 65  1  0  0  0  0
 54 66  1  0  0  0  0
 55 66  1  0  0  0  0
 56 66  1  0  0  0  0
 57 77  1  0  0  0  0
 58 59  1  0  0  0  0
 59 60  1  0  0  0  0
 60 61  1  0  0  0  0
 61 84  1  0  0  0  0
 62 65  1  0  0  0  0
 63 66  1  0  0  0  0
 63 76  1  0  0  0  0
 64 77  1  0  0  0  0
 67 70  1  0  0  0  0
M  CHG  1  77   1
M  ISO  4  35 100  61 101  65 100  84 101
M  END
> <Batch ID>
0075

> <Smiles>
CNC(C)C(=O)NC(C(=O)N1Cc2cc([101O:1][101CH2:1]CCCc3cc(C(C)[100C:0](C)(C)[100C:0](=O)N4CCCC(n5nc(-c6ccc(Oc7ccc(F)cc7F)cc6)c(C(N)=O)c5N)C4)nc(C)n3)ccc2CC1C(=O)NC1CCCc2ccccc21)C(C)(C)C

> <Shape>
0.199

> <Color>
0.179

> <Negative vol penalty>
0.000

$$$$

  -OEChem-04052318323D

 86 94  0     1  0  0  0  0  0999 V2000
  -23.5364  -29.7506   29.3032 C   0  0  0  0  0  0  0  0  0  0  0  0
  -23.5494  -28.3612   29.3726 C   0  0  0  0  0  0  0  0  0  0  0  0
  -23.0354   -9.9017   19.9887 C   0  0  0  0  0  0  0  0  0  0  0  0
  -23.8718   -9.9306   22.2551 C   0  0  0  0  0  0  0  0  0  0  0  0
  -22.5556  -30.4010   28.5556 C   0  0  0  0  0  0  0  0  0  0  0  0
  -22.5808  -27.6213   28.6952 C   0  0  0  0  0  0  0  0  0  0  0  0
  -23.3177  -22.1559   26.0323 C   0  0  0  0  0  0  0  0  0  0  0  0
  -22.3110   -8.7436   20.2707 C   0  0  0  0  0  0  0  0  0  0  0  0
  -23.1474   -8.7724   22.5372 C   0  0  0  0  0  0  0  0  0  0  0  0
  -23.0239  -20.8598   26.4538 C   0  0  0  0  0  0  0  0  0  0  0  0
  -23.4501   -5.4496   21.9910 C   0  0  0  0  0  0  0  0  0  0  0  0
  -24.0989   -4.4346   22.6942 C   0  0  0  0  0  0  0  0  0  0  0  0
  -20.9279  -20.9543   25.2634 C   0  0  0  0  0  0  0  0  0  0  0  0
  -22.4542   -4.6040   24.4560 C   0  0  0  0  0  0  0  0  0  0  0  0
  -22.9994  -16.6580   24.2511 C   0  0  0  0  0  0  0  0  0  0  0  0
  -24.5234  -15.5747   26.1566 C   0  0  0  0  0  0  0  0  0  0  0  0
  -23.8158  -10.4952   20.9809 C   0  0  0  0  0  0  0  0  0  0  0  0
  -24.1300  -13.0225   20.8337 C   0  0  0  0  0  0  0  0  0  0  0  0
  -21.5802  -29.6684   27.8609 C   0  0  0  0  0  0  0  0  0  0  0  0
  -22.4124  -22.8661   25.2308 C   0  0  0  0  0  0  0  0  0  0  0  0
  -21.5851  -28.2626   27.9388 C   0  0  0  0  0  0  0  0  0  0  0  0
  -21.2137  -22.2582   24.8309 C   0  0  0  0  0  0  0  0  0  0  0  0
  -22.3670   -8.1789   21.5449 C   0  0  0  0  0  0  0  0  0  0  0  0
  -21.8276  -20.2599   26.0718 C   0  0  0  0  0  0  0  0  0  0  0  0
  -22.3035   -6.0419   22.5203 C   0  0  0  0  0  0  0  0  0  0  0  0
  -23.6009   -4.0118   23.9267 C   0  0  0  0  0  0  0  0  0  0  0  0
  -21.8055   -5.6190   23.7527 C   0  0  0  0  0  0  0  0  0  0  0  0
  -24.5647  -11.6913   20.6900 C   0  0  0  0  0  0  0  0  0  0  0  0
  -22.4871  -16.3815   25.4996 C   0  0  0  0  0  0  0  0  0  0  0  0
  -25.0356  -15.8505   24.9080 C   0  0  0  0  0  0  0  0  0  0  0  0
  -25.2024  -13.7794   20.4292 C   0  0  0  0  0  0  0  0  0  0  0  0
  -22.8696  -13.5296   21.2919 C   0  0  0  0  0  0  0  0  0  0  0  0
  -20.7525  -25.5562   25.5648 C   0  0  0  0  0  0  0  0  0  0  0  0
  -19.9620  -24.9941   22.4695 C   0  0  0  0  0  0  0  0  0  0  0  0
  -19.5938  -22.7357   19.9375 C   0  0  0  0  0  0  0  0  0  0  0  0
  -30.8191  -14.5469   20.8537 C   0  0  0  0  0  0  0  0  0  0  0  0
  -20.5118  -30.4172   27.1044 C   0  0  0  0  0  0  0  0  0  0  0  0
  -22.7562  -24.2534   24.7623 C   0  0  0  0  0  0  0  0  0  0  0  0
  -20.2173  -22.9704   23.9544 C   0  0  0  0  0  0  0  0  0  0  0  0
  -19.7454  -29.5473   26.1113 C   0  0  0  0  0  0  0  0  0  0  0  0
  -29.4842  -12.4720   18.0943 C   0  0  0  0  0  0  0  0  0  0  0  0
  -19.3362  -28.2293   26.7610 C   0  0  0  0  0  0  0  0  0  0  0  0
  -28.0740  -12.1400   18.5793 C   0  0  0  0  0  0  0  0  0  0  0  0
  -30.4444  -12.7023   19.2573 C   0  0  0  0  0  0  0  0  0  0  0  0
  -28.5703  -13.3998   20.7117 C   0  0  0  0  0  0  0  0  0  0  0  0
  -20.5661  -27.4243   27.1978 C   0  0  1  0  0  0  0  0  0  0  0  0
  -21.5302  -25.0737   24.3732 C   0  0  1  0  0  0  0  0  0  0  0  0
  -27.5672  -13.2077   19.5644 C   0  0  2  0  0  0  0  0  0  0  0  0
  -18.8966  -22.5688   17.5326 C   0  0  0  0  0  0  0  0  0  0  0  0
  -20.6075  -16.3192   27.2722 C   0  0  0  0  0  0  0  0  0  0  0  0
  -20.1034  -15.8797   24.8784 C   0  0  0  0  0  0  0  0  0  0  0  0
  -17.0369  -25.2357   23.3032 C   0  0  0  0  0  0  0  0  0  0  0  0
  -16.4029  -24.1438   21.1413 C   0  0  0  0  0  0  0  0  0  0  0  0
  -17.5956  -26.3347   21.1273 C   0  0  0  0  0  0  0  0  0  0  0  0
  -31.1692  -16.4063   22.4347 C   0  0  0  0  0  0  0  0  0  0  0  0
  -22.2573  -21.7428   19.1136 C   0  0  0  0  0  0  0  0  0  0  0  0
  -28.2742  -15.5286   23.2035 C   0  0  0  0  0  0  0  0  0  0  0  0
  -28.8542  -15.8116   21.8243 C   0  0  0  0  0  0  0  0  0  0  0  0
  -26.7967  -15.8863   23.3101 C   0  0  0  0  0  0  0  0  0  0  0  0
  -20.7252  -18.2019   25.6185 C   0  0  0  0  0  0  0  0  0  1  0  0
  -18.8583  -24.2401   21.7679 C   0  0  1  0  0  0  0  0  0  0  0  0
  -20.0605  -22.7568   18.4932 C   0  0  2  0  0  0  0  0  0  0  0  0
  -21.0145  -16.6929   25.8265 C   0  0  0  0  0  0  0  0  0  0  0  0
  -17.4911  -24.9756   21.8531 C   0  0  0  0  0  0  0  0  0  0  0  0
  -23.2399  -15.8352   26.4748 N   0  0  0  0  0  0  0  0  0  0  0  0
  -24.2828  -16.3972   23.9328 N   0  0  0  0  0  0  0  0  0  0  0  0
  -25.8157  -11.6041   20.2299 N   0  0  0  0  0  0  0  0  0  0  0  0
  -26.1762  -12.8902   20.0810 N   0  0  0  0  0  0  0  0  0  0  0  0
  -20.5962  -24.3276   23.5275 N   0  0  0  0  0  0  0  0  0  0  0  0
  -29.9185  -13.6896   20.2005 N   0  0  0  0  0  0  0  0  0  0  0  0
  -25.3979  -15.1122   20.3408 N   0  0  0  0  0  0  0  0  0  0  0  0
  -21.8781  -12.6135   21.6687 N   0  0  0  0  0  0  0  0  0  0  0  0
  -21.1768  -26.7757   26.0572 N   0  0  0  0  0  0  0  0  0  0  0  0
  -19.3263  -24.0045   20.4063 N   0  0  0  0  0  0  0  0  0  0  0  0
  -30.2767  -15.4877   21.7422 N   0  0  0  0  0  0  0  0  0  0  0  0
  -21.0491  -21.6679   18.2523 N   0  3  0  0  0  0  0  0  0  0  0  0
  -22.6241  -14.7583   21.3495 O   0  0  0  0  0  0  0  0  0  0  0  0
  -19.8346  -24.8735   26.0041 O   0  0  0  0  0  0  0  0  0  0  0  0
  -20.2557  -26.1299   22.0880 O   0  0  0  0  0  0  0  0  0  0  0  0
  -19.4745  -21.6972   20.5839 O   0  0  0  0  0  0  0  0  0  0  0  0
  -32.0377  -14.4818   20.6468 O   0  0  0  0  0  0  0  0  0  0  0  0
  -21.6601   -7.0489   21.8206 O   0  0  0  0  0  0  0  0  0  0  0  0
  -21.5380  -18.9952   26.4824 O   0  0  0  0  0  0  0  0  0  1  0  0
  -26.3425  -15.5721   24.6231 O   0  0  0  0  0  0  0  0  0  0  0  0
  -24.2231   -3.0360   24.6011 F   0  0  0  0  0  0  0  0  0  0  0  0
  -20.7037   -6.1834   24.2657 F   0  0  0  0  0  0  0  0  0  0  0  0
  1  2  1  0  0  0  0
  1  5  2  0  0  0  0
  2  6  2  0  0  0  0
  3  8  2  0  0  0  0
  3 17  1  0  0  0  0
  4  9  1  0  0  0  0
  4 17  2  0  0  0  0
  5 19  1  0  0  0  0
  6 21  1  0  0  0  0
  7 10  2  0  0  0  0
  7 20  1  0  0  0  0
  8 23  1  0  0  0  0
  9 23  2  0  0  0  0
 10 24  1  0  0  0  0
 11 12  2  0  0  0  0
 11 25  1  0  0  0  0
 12 26  1  0  0  0  0
 13 22  1  0  0  0  0
 13 24  2  0  0  0  0
 14 26  2  0  0  0  0
 14 27  1  0  0  0  0
 15 29  1  0  0  0  0
 15 66  2  0  0  0  0
 16 30  2  0  0  0  0
 16 65  1  0  0  0  0
 17 28  1  0  0  0  0
 18 28  1  0  0  0  0
 18 31  2  0  0  0  0
 18 32  1  0  0  0  0
 19 21  2  0  0  0  0
 19 37  1  0  0  0  0
 20 22  2  0  0  0  0
 20 38  1  0  0  0  0
 21 46  1  0  0  0  0
 22 39  1  0  0  0  0
 23 82  1  0  0  0  0
 24 83  1  0  0  0  0
 25 27  2  0  0  0  0
 25 82  1  0  0  0  0
 26 85  1  0  0  0  0
 27 86  1  0  0  0  0
 28 67  2  0  0  0  0
 29 63  1  0  0  0  0
 29 65  2  0  0  0  0
 30 66  1  0  0  0  0
 30 84  1  0  0  0  0
 31 68  1  0  0  0  0
 31 71  1  0  0  0  0
 32 72  1  0  0  0  0
 32 77  2  0  0  0  0
 33 47  1  0  0  0  0
 33 73  1  0  0  0  0
 33 78  2  0  0  0  0
 34 61  1  0  0  0  0
 34 69  1  0  0  0  0
 34 79  2  0  0  0  0
 35 62  1  0  0  0  0
 35 74  1  0  0  0  0
 35 80  2  0  0  0  0
 36 70  1  0  0  0  0
 36 75  1  0  0  0  0
 36 81  2  0  0  0  0
 37 40  1  0  0  0  0
 38 47  1  0  0  0  0
 39 69  1  0  0  0  0
 40 42  1  0  0  0  0
 41 43  1  0  0  0  0
 41 44  1  0  0  0  0
 42 46  1  0  0  0  0
 43 48  1  0  0  0  0
 44 70  1  0  0  0  0
 45 48  1  0  0  0  0
 45 70  1  0  0  0  0
 46 73  1  0  0  0  0
 47 69  1  0  0  0  0
 48 68  1  0  0  0  0
 49 62  1  0  0  0  0
 50 63  1  0  0  0  0
 51 63  1  0  0  0  0
 52 64  1  0  0  0  0
 53 64  1  0  0  0  0
 54 64  1  0  0  0  0
 55 75  1  0  0  0  0
 56 76  1  0  0  0  0
 57 58  1  0  0  0  0
 57 59  1  0  0  0  0
 58 75  1  0  0  0  0
 59 84  1  0  0  0  0
 60 63  1  0  0  0  0
 60 83  1  0  0  0  0
 61 64  1  0  0  0  0
 61 74  1  0  0  0  0
 62 76  1  0  0  0  0
 67 68  1  0  0  0  0
M  CHG  1  76   1
M  ISO  4  36 100  60 101  75 100  83 101
M  END
> <Batch ID>
0075

> <Smiles>
CNC(C)C(=O)NC(C(=O)N1Cc2cc([101O:1][101CH2:1]C(C)(C)c3cnc(OCCC[100N:0](C)[100C:0](=O)N4CCCC(n5nc(-c6ccc(Oc7ccc(F)cc7F)cc6)c(C(N)=O)c5N)C4)cn3)ccc2CC1C(=O)NC1CCCc2ccccc21)C(C)(C)C

> <Shape>
0.186

> <Color>
0.181

> <Negative vol penalty>
0.000

$$$$

  -OEChem-04052318323D

 81 88  0     1  0  0  0  0  0999 V2000
  -29.6665  -27.6589   33.4737 C   0  0  0  0  0  0  0  0  0  0  0  0
  -29.5907  -26.4289   32.8282 C   0  0  0  0  0  0  0  0  0  0  0  0
  -23.1900   -9.8183   19.9325 C   0  0  0  0  0  0  0  0  0  0  0  0
  -23.5636  -10.0026   22.3124 C   0  0  0  0  0  0  0  0  0  0  0  0
  -28.7907  -28.6849   33.1212 C   0  0  0  0  0  0  0  0  0  0  0  0
  -28.6384  -26.2238   31.8305 C   0  0  0  0  0  0  0  0  0  0  0  0
  -29.2632  -22.7979   26.7928 C   0  0  0  0  0  0  0  0  0  0  0  0
  -22.4227   -8.6725   20.1417 C   0  0  0  0  0  0  0  0  0  0  0  0
  -22.7962   -8.8567   22.5215 C   0  0  0  0  0  0  0  0  0  0  0  0
  -28.8590  -21.4995   26.4853 C   0  0  0  0  0  0  0  0  0  0  0  0
  -23.1958   -5.5094   22.2640 C   0  0  0  0  0  0  0  0  0  0  0  0
  -23.6918   -4.5493   23.1459 C   0  0  0  0  0  0  0  0  0  0  0  0
  -26.8769  -22.3742   25.4245 C   0  0  0  0  0  0  0  0  0  0  0  0
  -21.7326   -4.8128   24.5348 C   0  0  0  0  0  0  0  0  0  0  0  0
  -23.7606  -10.4834   21.0179 C   0  0  0  0  0  0  0  0  0  0  0  0
  -24.1013  -12.9994   20.7705 C   0  0  0  0  0  0  0  0  0  0  0  0
  -27.8335  -28.4954   32.1120 C   0  0  0  0  0  0  0  0  0  0  0  0
  -28.4706  -23.8955   26.4273 C   0  0  0  0  0  0  0  0  0  0  0  0
  -27.7481  -27.2478   31.4652 C   0  0  0  0  0  0  0  0  0  0  0  0
  -27.2746  -23.6857   25.7262 C   0  0  0  0  0  0  0  0  0  0  0  0
  -22.2257   -8.1917   21.4362 C   0  0  0  0  0  0  0  0  0  0  0  0
  -27.6643  -21.2873   25.8036 C   0  0  0  0  0  0  0  0  0  0  0  0
  -21.9682   -6.1213   22.5175 C   0  0  0  0  0  0  0  0  0  0  0  0
  -22.9602   -4.2009   24.2812 C   0  0  0  0  0  0  0  0  0  0  0  0
  -21.2366   -5.7730   23.6529 C   0  0  0  0  0  0  0  0  0  0  0  0
  -24.5539  -11.6667   20.8024 C   0  0  0  0  0  0  0  0  0  0  0  0
  -25.2334  -13.7410   20.5362 C   0  0  0  0  0  0  0  0  0  0  0  0
  -22.7761  -13.5204   20.9377 C   0  0  0  0  0  0  0  0  0  0  0  0
  -29.4485  -14.8568   22.6710 C   0  0  0  0  0  0  0  0  0  0  0  0
  -29.5429  -13.6537   23.3056 C   0  0  0  0  0  0  0  0  0  0  0  0
  -26.9526  -26.1935   28.0143 C   0  0  0  0  0  0  0  0  0  0  0  0
  -26.3860  -27.3407   25.0335 C   0  0  0  0  0  0  0  0  0  0  0  0
  -31.0457  -12.6300   21.5825 C   0  0  0  0  0  0  0  0  0  0  0  0
  -26.0921  -26.7076   21.6929 C   0  0  0  0  0  0  0  0  0  0  0  0
  -26.8772  -29.6188   31.7984 C   0  0  0  0  0  0  0  0  0  0  0  0
  -28.9338  -25.2913   26.7428 C   0  0  0  0  0  0  0  0  0  0  0  0
  -26.3976  -24.8312   25.2935 C   0  0  0  0  0  0  0  0  0  0  0  0
  -26.1442  -29.4419   30.4711 C   0  0  0  0  0  0  0  0  0  0  0  0
  -29.5239  -13.4822   18.4523 C   0  0  0  0  0  0  0  0  0  0  0  0
  -25.6052  -28.0206   30.3442 C   0  0  0  0  0  0  0  0  0  0  0  0
  -28.0394  -13.2072   18.6883 C   0  0  0  0  0  0  0  0  0  0  0  0
  -30.4024  -12.4836   19.1994 C   0  0  0  0  0  0  0  0  0  0  0  0
  -28.6438  -12.1368   20.9050 C   0  0  0  0  0  0  0  0  0  0  0  0
  -26.7449  -26.9948   30.3607 C   0  0  1  0  0  0  0  0  0  0  0  0
  -27.7949  -26.3058   26.7752 C   0  0  1  0  0  0  0  0  0  0  0  0
  -27.7216  -13.1420   20.1926 C   0  0  2  0  0  0  0  0  0  0  0  0
  -30.3464  -15.3208   21.5462 C   0  0  0  0  0  0  0  0  0  0  0  0
  -28.5817  -13.2944   24.4270 C   0  0  0  0  0  0  0  0  0  0  0  0
  -25.5854  -27.8384   19.5107 C   0  0  0  0  0  0  0  0  0  0  0  0
  -31.8187  -12.7528   23.9534 C   0  0  0  0  0  0  0  0  0  0  0  0
  -30.0963  -11.1185   23.1742 C   0  0  0  0  0  0  0  0  0  0  0  0
  -23.4221  -27.4009   25.7556 C   0  0  0  0  0  0  0  0  0  0  0  0
  -22.9031  -27.6088   23.3152 C   0  0  0  0  0  0  0  0  0  0  0  0
  -24.2217  -29.3876   24.4641 C   0  0  0  0  0  0  0  0  0  0  0  0
  -28.7501  -26.0211   20.5870 C   0  0  0  0  0  0  0  0  0  0  0  0
  -28.3885  -15.8990   23.0073 C   0  0  0  0  0  0  0  0  0  0  0  0
  -28.8869  -16.9371   24.0189 C   0  0  0  0  0  0  0  0  0  0  0  0
  -27.8116  -17.9908   24.3028 C   0  0  0  0  0  0  0  0  0  0  0  0
  -28.2889  -19.0514   25.2874 C   0  0  0  0  0  0  0  0  0  1  0  0
  -25.3004  -27.1481   24.0023 C   0  0  1  0  0  0  0  0  0  0  0  0
  -26.6760  -27.4087   20.4796 C   0  0  2  0  0  0  0  0  0  0  0  0
  -30.6101  -12.5691   23.0249 C   0  0  0  0  0  0  0  0  0  0  0  0
  -23.9772  -27.8644   24.3940 C   0  0  0  0  0  0  0  0  0  0  0  0
  -25.8708  -11.5645   20.6041 N   0  0  0  0  0  0  0  0  0  0  0  0
  -26.2554  -12.8424   20.4452 N   0  0  0  0  0  0  0  0  0  0  0  0
  -26.8904  -26.1768   25.6308 N   0  0  0  0  0  0  0  0  0  0  0  0
  -30.0544  -12.4348   20.6206 N   0  0  0  0  0  0  0  0  0  0  0  0
  -25.4444  -15.0675   20.4011 N   0  0  0  0  0  0  0  0  0  0  0  0
  -21.7284  -12.6192   21.1712 N   0  0  0  0  0  0  0  0  0  0  0  0
  -27.4071  -26.9543   29.0745 N   0  0  0  0  0  0  0  0  0  0  0  0
  -25.8634  -27.5870   22.7300 N   0  0  0  0  0  0  0  0  0  0  0  0
  -27.6142  -26.5021   19.7592 N   0  3  0  0  0  0  0  0  0  0  0  0
  -22.5257  -14.7474   20.8655 O   0  0  0  0  0  0  0  0  0  0  0  0
  -25.9626  -25.4712   28.0085 O   0  0  0  0  0  0  0  0  0  0  0  0
  -26.7772  -28.4812   25.2940 O   0  0  0  0  0  0  0  0  0  0  0  0
  -32.2315  -12.8476   21.3204 O   0  0  0  0  0  0  0  0  0  0  0  0
  -25.8585  -25.5012   21.7168 O   0  0  0  0  0  0  0  0  0  0  0  0
  -21.4768   -7.0738   21.6406 O   0  0  0  0  0  0  0  0  0  0  0  0
  -27.2641  -20.0114   25.5006 O   0  0  0  0  0  0  0  0  0  1  0  0
  -23.4360   -3.2778   25.1272 F   0  0  0  0  0  0  0  0  0  0  0  0
  -20.0561   -6.3565   23.9012 F   0  0  0  0  0  0  0  0  0  0  0  0
  1  2  1  0  0  0  0
  1  5  2  0  0  0  0
  2  6  2  0  0  0  0
  3  8  2  0  0  0  0
  3 15  1  0  0  0  0
  4  9  1  0  0  0  0
  4 15  2  0  0  0  0
  5 17  1  0  0  0  0
  6 19  1  0  0  0  0
  7 10  2  0  0  0  0
  7 18  1  0  0  0  0
  8 21  1  0  0  0  0
  9 21  2  0  0  0  0
 10 22  1  0  0  0  0
 11 12  2  0  0  0  0
 11 23  1  0  0  0  0
 12 24  1  0  0  0  0
 13 20  1  0  0  0  0
 13 22  2  0  0  0  0
 14 24  2  0  0  0  0
 14 25  1  0  0  0  0
 15 26  1  0  0  0  0
 16 26  1  0  0  0  0
 16 27  2  0  0  0  0
 16 28  1  0  0  0  0
 17 19  2  0  0  0  0
 17 35  1  0  0  0  0
 18 20  2  0  0  0  0
 18 36  1  0  0  0  0
 19 44  1  0  0  0  0
 20 37  1  0  0  0  0
 21 78  1  0  0  0  0
 22 79  1  0  0  0  0
 23 25  2  0  0  0  0
 23 78  1  0  0  0  0
 24 80  1  0  0  0  0
 25 81  1  0  0  0  0
 26 64  2  0  0  0  0
 27 65  1  0  0  0  0
 27 68  1  0  0  0  0
 28 69  1  0  0  0  0
 28 73  2  0  0  0  0
 29 30  2  0  0  0  0
 29 47  1  0  0  0  0
 29 56  1  0  0  0  0
 30 48  1  0  0  0  0
 30 62  1  0  0  0  0
 31 45  1  0  0  0  0
 31 70  1  0  0  0  0
 31 74  2  0  0  0  0
 32 60  1  0  0  0  0
 32 66  1  0  0  0  0
 32 75  2  0  0  0  0
 33 62  1  0  0  0  0
 33 67  1  0  0  0  0
 33 76  2  0  0  0  0
 34 61  1  0  0  0  0
 34 71  1  0  0  0  0
 34 77  2  0  0  0  0
 35 38  1  0  0  0  0
 36 45  1  0  0  0  0
 37 66  1  0  0  0  0
 38 40  1  0  0  0  0
 39 41  1  0  0  0  0
 39 42  1  0  0  0  0
 40 44  1  0  0  0  0
 41 46  1  0  0  0  0
 42 67  1  0  0  0  0
 43 46  1  0  0  0  0
 43 67  1  0  0  0  0
 44 70  1  0  0  0  0
 45 66  1  0  0  0  0
 46 65  1  0  0  0  0
 49 61  1  0  0  0  0
 50 62  1  0  0  0  0
 51 62  1  0  0  0  0
 52 63  1  0  0  0  0
 53 63  1  0  0  0  0
 54 63  1  0  0  0  0
 55 72  1  0  0  0  0
 56 57  1  0  0  0  0
 57 58  1  0  0  0  0
 58 59  1  0  0  0  0
 59 79  1  0  0  0  0
 60 63  1  0  0  0  0
 60 71  1  0  0  0  0
 61 72  1  0  0  0  0
 64 65  1  0  0  0  0
M  CHG  1  72   1
M  ISO  4  33 100  59 101  62 100  79 101
M  END
> <Batch ID>
0075

> <Smiles>
CNC(C)C(=O)NC(C(=O)N1Cc2cc([101O:1][101CH2:1]CCCC(C)=C(C)[100C:0](C)(C)[100C:0](=O)N3CCCC(n4nc(-c5ccc(Oc6ccc(F)cc6F)cc5)c(C(N)=O)c4N)C3)ccc2CC1C(=O)NC1CCCc2ccccc21)C(C)(C)C

> <Shape>
0.188

> <Color>
0.182

> <Negative vol penalty>
0.000

$$$$

  -OEChem-04052318323D

 85 93  0     1  0  0  0  0  0999 V2000
  -30.1873  -30.4241   22.1422 C   0  0  0  0  0  0  0  0  0  0  0  0
  -29.5017  -29.2576   21.8187 C   0  0  0  0  0  0  0  0  0  0  0  0
  -25.7297  -13.0530   21.3663 C   0  0  0  0  0  0  0  0  0  0  0  0
  -25.6745  -13.9911   19.1405 C   0  0  0  0  0  0  0  0  0  0  0  0
  -29.5815  -31.3864   22.9490 C   0  0  0  0  0  0  0  0  0  0  0  0
  -28.2102  -29.0522   22.3028 C   0  0  0  0  0  0  0  0  0  0  0  0
  -25.0588  -27.2993   18.7474 C   0  0  0  0  0  0  0  0  0  0  0  0
  -24.3737  -13.3406   21.5212 C   0  0  0  0  0  0  0  0  0  0  0  0
  -24.3184  -14.2786   19.2954 C   0  0  0  0  0  0  0  0  0  0  0  0
  -25.1474  -25.9446   18.4298 C   0  0  0  0  0  0  0  0  0  0  0  0
  -22.4289  -16.6319   20.8195 C   0  0  0  0  0  0  0  0  0  0  0  0
  -21.9827  -17.8897   20.4140 C   0  0  0  0  0  0  0  0  0  0  0  0
  -23.2303  -25.4985   19.8243 C   0  0  0  0  0  0  0  0  0  0  0  0
  -30.0186  -17.6689   17.4060 C   0  0  0  0  0  0  0  0  0  0  0  0
  -20.4810  -16.8477   18.8341 C   0  0  0  0  0  0  0  0  0  0  0  0
  -26.3802  -13.3783   20.1759 C   0  0  0  0  0  0  0  0  0  0  0  0
  -28.3465  -11.8992   19.5028 C   0  0  0  0  0  0  0  0  0  0  0  0
  -28.2783  -31.1971   23.4352 C   0  0  0  0  0  0  0  0  0  0  0  0
  -24.0602  -27.7629   19.6159 C   0  0  0  0  0  0  0  0  0  0  0  0
  -27.5869  -30.0123   23.1179 C   0  0  0  0  0  0  0  0  0  0  0  0
  -23.1296  -26.8599   20.1493 C   0  0  0  0  0  0  0  0  0  0  0  0
  -28.7483  -18.2143   17.5548 C   0  0  0  0  0  0  0  0  0  0  0  0
  -28.4669  -19.0171   18.6546 C   0  0  0  0  0  0  0  0  0  0  0  0
  -23.6680  -13.9534   20.4857 C   0  0  0  0  0  0  0  0  0  0  0  0
  -24.2349  -25.0436   18.9706 C   0  0  0  0  0  0  0  0  0  0  0  0
  -21.9012  -15.4819   20.2322 C   0  0  0  0  0  0  0  0  0  0  0  0
  -21.0088  -17.9976   19.4213 C   0  0  0  0  0  0  0  0  0  0  0  0
  -20.9273  -15.5898   19.2395 C   0  0  0  0  0  0  0  0  0  0  0  0
  -27.7811  -13.0820   20.0155 C   0  0  0  0  0  0  0  0  0  0  0  0
  -30.9648  -17.9544   18.3771 C   0  0  0  0  0  0  0  0  0  0  0  0
  -29.4825  -19.2421   19.5699 C   0  0  0  0  0  0  0  0  0  0  0  0
  -29.7019  -12.1142   19.5588 C   0  0  0  0  0  0  0  0  0  0  0  0
  -27.7041  -10.7122   19.0189 C   0  0  0  0  0  0  0  0  0  0  0  0
  -24.0435  -29.2080   22.4470 C   0  0  0  0  0  0  0  0  0  0  0  0
  -20.8500  -29.3802   21.9042 C   0  0  0  0  0  0  0  0  0  0  0  0
  -32.9659  -17.1597   19.6020 C   0  0  0  0  0  0  0  0  0  0  0  0
  -18.1120  -28.1245   20.3002 C   0  0  0  0  0  0  0  0  0  0  0  0
  -27.6828  -32.2442   24.3428 C   0  0  0  0  0  0  0  0  0  0  0  0
  -23.9618  -29.2311   19.9273 C   0  0  0  0  0  0  0  0  0  0  0  0
  -22.0263  -27.3098   21.0706 C   0  0  0  0  0  0  0  0  0  0  0  0
  -26.1703  -32.1191   24.5070 C   0  0  0  0  0  0  0  0  0  0  0  0
  -33.0221  -14.5128   22.0167 C   0  0  0  0  0  0  0  0  0  0  0  0
  -25.7808  -30.6692   24.7769 C   0  0  0  0  0  0  0  0  0  0  0  0
  -31.7221  -13.7553   21.7494 C   0  0  0  0  0  0  0  0  0  0  0  0
  -32.8520  -16.0116   21.7890 C   0  0  0  0  0  0  0  0  0  0  0  0
  -31.0297  -15.6085   20.1647 C   0  0  0  0  0  0  0  0  0  0  0  0
  -26.1752  -29.7644   23.6034 C   0  0  1  0  0  0  0  0  0  0  0  0
  -23.2196  -29.5173   21.2291 C   0  0  1  0  0  0  0  0  0  0  0  0
  -31.1660  -14.0873   20.3533 C   0  0  2  0  0  0  0  0  0  0  0  0
  -27.7076  -17.9214   16.5252 C   0  0  0  0  0  0  0  0  0  0  0  0
  -29.2411  -20.0973   20.7708 C   0  0  0  0  0  0  0  0  0  0  0  0
  -15.6330  -28.4500   20.0858 C   0  0  0  0  0  0  0  0  0  0  0  0
  -33.2675  -18.3535   17.4656 C   0  0  0  0  0  0  0  0  0  0  0  0
  -32.4430  -15.9984   17.5549 C   0  0  0  0  0  0  0  0  0  0  0  0
  -20.4432  -28.0538   24.6218 C   0  0  0  0  0  0  0  0  0  0  0  0
  -18.0864  -27.5490   23.9446 C   0  0  0  0  0  0  0  0  0  0  0  0
  -18.8514  -29.9167   24.1214 C   0  0  0  0  0  0  0  0  0  0  0  0
  -18.3211  -28.7009   17.4049 C   0  0  0  0  0  0  0  0  0  0  0  0
  -27.0993  -19.6242   18.8412 C   0  0  0  0  0  0  0  0  0  0  0  0
  -27.0320  -21.1163   18.4972 C   0  0  0  0  0  0  0  0  0  0  0  0
  -25.6577  -21.7313   18.7657 C   0  0  0  0  0  0  0  0  0  0  0  0
  -25.6177  -23.2025   18.3754 C   0  0  0  0  0  0  0  0  0  1  0  0
  -19.6661  -28.4912   22.1988 C   0  0  1  0  0  0  0  0  0  0  0  0
  -17.0002  -28.8049   19.5222 C   0  0  2  0  0  0  0  0  0  0  0  0
  -32.3392  -17.3873   18.2494 C   0  0  0  0  0  0  0  0  0  0  0  0
  -19.2836  -28.4936   23.7059 C   0  0  0  0  0  0  0  0  0  0  0  0
  -28.7020  -13.9817   20.3713 N   0  0  0  0  0  0  0  0  0  0  0  0
  -30.7287  -18.7297   19.4591 N   0  0  0  0  0  0  0  0  0  0  0  0
  -29.8598  -13.3639   20.0817 N   0  0  0  0  0  0  0  0  0  0  0  0
  -21.9756  -28.7544   21.3500 N   0  0  0  0  0  0  0  0  0  0  0  0
  -32.3007  -16.2841   20.4605 N   0  0  0  0  0  0  0  0  0  0  0  0
  -30.7622  -11.3542   19.2114 N   0  0  0  0  0  0  0  0  0  0  0  0
  -26.3036  -10.6580   19.0317 N   0  0  0  0  0  0  0  0  0  0  0  0
  -25.2325  -29.9088   22.5148 N   0  0  0  0  0  0  0  0  0  0  0  0
  -18.5954  -28.9294   21.3100 N   0  0  0  0  0  0  0  0  0  0  0  0
  -17.0407  -28.3906   18.0912 N   0  3  0  0  0  0  0  0  0  0  0  0
  -28.3530   -9.7224   18.6034 O   0  0  0  0  0  0  0  0  0  0  0  0
  -23.6303  -28.3948   23.2653 O   0  0  0  0  0  0  0  0  0  0  0  0
  -20.7763  -30.5868   22.1500 O   0  0  0  0  0  0  0  0  0  0  0  0
  -34.0168  -17.7412   19.8841 O   0  0  0  0  0  0  0  0  0  0  0  0
  -18.5092  -26.9907   20.0407 O   0  0  0  0  0  0  0  0  0  0  0  0
  -22.3447  -14.2339   20.6364 O   0  0  0  0  0  0  0  0  0  0  0  0
  -24.3195  -23.7207   18.6628 O   0  0  0  0  0  0  0  0  0  1  0  0
  -20.5793  -19.2055   19.0331 F   0  0  0  0  0  0  0  0  0  0  0  0
  -20.4157  -14.4886   18.6725 F   0  0  0  0  0  0  0  0  0  0  0  0
  1  2  1  0  0  0  0
  1  5  2  0  0  0  0
  2  6  2  0  0  0  0
  3  8  2  0  0  0  0
  3 16  1  0  0  0  0
  4  9  1  0  0  0  0
  4 16  2  0  0  0  0
  5 18  1  0  0  0  0
  6 20  1  0  0  0  0
  7 10  2  0  0  0  0
  7 19  1  0  0  0  0
  8 24  1  0  0  0  0
  9 24  2  0  0  0  0
 10 25  1  0  0  0  0
 11 12  2  0  0  0  0
 11 26  1  0  0  0  0
 12 27  1  0  0  0  0
 13 21  1  0  0  0  0
 13 25  2  0  0  0  0
 14 22  2  0  0  0  0
 14 30  1  0  0  0  0
 15 27  2  0  0  0  0
 15 28  1  0  0  0  0
 16 29  1  0  0  0  0
 17 29  1  0  0  0  0
 17 32  2  0  0  0  0
 17 33  1  0  0  0  0
 18 20  2  0  0  0  0
 18 38  1  0  0  0  0
 19 21  2  0  0  0  0
 19 39  1  0  0  0  0
 20 47  1  0  0  0  0
 21 40  1  0  0  0  0
 22 23  1  0  0  0  0
 22 50  1  0  0  0  0
 23 31  2  0  0  0  0
 23 59  1  0  0  0  0
 24 82  1  0  0  0  0
 25 83  1  0  0  0  0
 26 28  2  0  0  0  0
 26 82  1  0  0  0  0
 27 84  1  0  0  0  0
 28 85  1  0  0  0  0
 29 67  2  0  0  0  0
 30 65  1  0  0  0  0
 30 68  2  0  0  0  0
 31 51  1  0  0  0  0
 31 68  1  0  0  0  0
 32 69  1  0  0  0  0
 32 72  1  0  0  0  0
 33 73  1  0  0  0  0
 33 77  2  0  0  0  0
 34 48  1  0  0  0  0
 34 74  1  0  0  0  0
 34 78  2  0  0  0  0
 35 63  1  0  0  0  0
 35 70  1  0  0  0  0
 35 79  2  0  0  0  0
 36 65  1  0  0  0  0
 36 71  1  0  0  0  0
 36 80  2  0  0  0  0
 37 64  1  0  0  0  0
 37 75  1  0  0  0  0
 37 81  2  0  0  0  0
 38 41  1  0  0  0  0
 39 48  1  0  0  0  0
 40 70  1  0  0  0  0
 41 43  1  0  0  0  0
 42 44  1  0  0  0  0
 42 45  1  0  0  0  0
 43 47  1  0  0  0  0
 44 49  1  0  0  0  0
 45 71  1  0  0  0  0
 46 49  1  0  0  0  0
 46 71  1  0  0  0  0
 47 74  1  0  0  0  0
 48 70  1  0  0  0  0
 49 69  1  0  0  0  0
 52 64  1  0  0  0  0
 53 65  1  0  0  0  0
 54 65  1  0  0  0  0
 55 66  1  0  0  0  0
 56 66  1  0  0  0  0
 57 66  1  0  0  0  0
 58 76  1  0  0  0  0
 59 60  1  0  0  0  0
 60 61  1  0  0  0  0
 61 62  1  0  0  0  0
 62 83  1  0  0  0  0
 63 66  1  0  0  0  0
 63 75  1  0  0  0  0
 64 76  1  0  0  0  0
 67 69  1  0  0  0  0
M  CHG  1  76   1
M  ISO  4  36 100  62 101  65 100  83 101
M  END
> <Batch ID>
0075

> <Smiles>
CNC(C)C(=O)NC(C(=O)N1Cc2cc([101O:1][101CH2:1]CCCc3c(C)cc([100C:0](C)(C)[100C:0](=O)N4CCCC(n5nc(-c6ccc(Oc7ccc(F)cc7F)cc6)c(C(N)=O)c5N)C4)nc3C)ccc2CC1C(=O)NC1CCCc2ccccc21)C(C)(C)C

> <Shape>
0.249

> <Color>
0.060

> <Negative vol penalty>
0.000

$$$$

  -OEChem-04052318323D

 84 92  0     1  0  0  0  0  0999 V2000
  -17.5630  -10.7373   22.6783 C   0  0  0  0  0  0  0  0  0  0  0  0
  -17.8697  -12.0763   22.4582 C   0  0  0  0  0  0  0  0  0  0  0  0
  -29.3700  -24.2596   20.7945 C   0  0  0  0  0  0  0  0  0  0  0  0
  -27.1409  -23.8245   19.9704 C   0  0  0  0  0  0  0  0  0  0  0  0
  -18.5504   -9.8621   23.1288 C   0  0  0  0  0  0  0  0  0  0  0  0
  -19.1638  -12.5411   22.6896 C   0  0  0  0  0  0  0  0  0  0  0  0
  -22.1299  -16.8870   19.5556 C   0  0  0  0  0  0  0  0  0  0  0  0
  -29.6528  -22.8945   20.7502 C   0  0  0  0  0  0  0  0  0  0  0  0
  -27.4237  -22.4594   19.9262 C   0  0  0  0  0  0  0  0  0  0  0  0
  -22.3390  -18.2434   19.8014 C   0  0  0  0  0  0  0  0  0  0  0  0
  -27.6780  -18.8954   19.2539 C   0  0  0  0  0  0  0  0  0  0  0  0
  -27.2896  -18.1885   18.1159 C   0  0  0  0  0  0  0  0  0  0  0  0
  -21.4031  -27.6803   21.8575 C   0  0  0  0  0  0  0  0  0  0  0  0
  -21.7613  -28.9696   22.2100 C   0  0  0  0  0  0  0  0  0  0  0  0
  -24.4880  -17.7303   20.7698 C   0  0  0  0  0  0  0  0  0  0  0  0
  -28.6858  -19.6140   16.7537 C   0  0  0  0  0  0  0  0  0  0  0  0
  -28.1140  -24.7247   20.4046 C   0  0  0  0  0  0  0  0  0  0  0  0
  -28.0165  -27.0775   19.4236 C   0  0  0  0  0  0  0  0  0  0  0  0
  -19.8597  -10.3144   23.3565 C   0  0  0  0  0  0  0  0  0  0  0  0
  -23.0951  -15.9395   19.9256 C   0  0  0  0  0  0  0  0  0  0  0  0
  -20.1694  -11.6714   23.1448 C   0  0  0  0  0  0  0  0  0  0  0  0
  -24.2898  -16.3628   20.5253 C   0  0  0  0  0  0  0  0  0  0  0  0
  -28.6797  -21.9943   20.3161 C   0  0  0  0  0  0  0  0  0  0  0  0
  -23.5169  -18.6649   20.4112 C   0  0  0  0  0  0  0  0  0  0  0  0
  -28.5702  -19.9618   19.1418 C   0  0  0  0  0  0  0  0  0  0  0  0
  -27.7935  -18.5477   16.8659 C   0  0  0  0  0  0  0  0  0  0  0  0
  -29.0741  -20.3211   17.8917 C   0  0  0  0  0  0  0  0  0  0  0  0
  -27.8210  -26.1347   20.4506 C   0  0  0  0  0  0  0  0  0  0  0  0
  -21.8108  -27.2106   20.6252 C   0  0  0  0  0  0  0  0  0  0  0  0
  -22.5037  -29.7037   21.3070 C   0  0  0  0  0  0  0  0  0  0  0  0
  -27.5849  -28.2654   19.9613 C   0  0  0  0  0  0  0  0  0  0  0  0
  -28.5411  -26.8957   18.1017 C   0  0  0  0  0  0  0  0  0  0  0  0
  -23.1588  -13.4618   21.9157 C   0  0  0  0  0  0  0  0  0  0  0  0
  -26.0933  -12.9912   20.6158 C   0  0  0  0  0  0  0  0  0  0  0  0
  -23.7723  -31.1328   22.8823 C   0  0  0  0  0  0  0  0  0  0  0  0
  -28.7965  -14.3166   19.0086 C   0  0  0  0  0  0  0  0  0  0  0  0
  -20.8817   -9.3411   23.8885 C   0  0  0  0  0  0  0  0  0  0  0  0
  -22.8660  -14.4828   19.6293 C   0  0  0  0  0  0  0  0  0  0  0  0
  -25.3663  -15.3876   20.9233 C   0  0  0  0  0  0  0  0  0  0  0  0
  -22.3203   -9.8328   23.7511 C   0  0  0  0  0  0  0  0  0  0  0  0
  -26.3840  -29.4962   24.7101 C   0  0  0  0  0  0  0  0  0  0  0  0
  -22.4367  -11.2802   24.2182 C   0  0  0  0  0  0  0  0  0  0  0  0
  -26.9867  -28.5319   23.6893 C   0  0  0  0  0  0  0  0  0  0  0  0
  -24.8779  -29.6436   24.5176 C   0  0  0  0  0  0  0  0  0  0  0  0
  -25.0807  -29.0906   22.1145 C   0  0  0  0  0  0  0  0  0  0  0  0
  -21.5678  -12.2082   23.3606 C   0  0  1  0  0  0  0  0  0  0  0  0
  -23.6932  -13.5557   20.5145 C   0  0  1  0  0  0  0  0  0  0  0  0
  -26.6055  -28.9367   22.2543 C   0  0  2  0  0  0  0  0  0  0  0  0
  -31.0065  -14.3643   17.8208 C   0  0  0  0  0  0  0  0  0  0  0  0
  -21.6807  -31.9968   21.9045 C   0  0  0  0  0  0  0  0  0  0  0  0
  -23.7865  -31.8259   20.5738 C   0  0  0  0  0  0  0  0  0  0  0  0
  -27.2095  -12.9665   23.4554 C   0  0  0  0  0  0  0  0  0  0  0  0
  -29.4937  -13.2987   22.4859 C   0  0  0  0  0  0  0  0  0  0  0  0
  -28.1929  -11.2433   21.9329 C   0  0  0  0  0  0  0  0  0  0  0  0
  -27.5220  -13.8705   16.3750 C   0  0  0  0  0  0  0  0  0  0  0  0
  -21.4454  -25.8133   20.1911 C   0  0  0  0  0  0  0  0  0  0  0  0
  -22.4774  -24.7515   20.5879 C   0  0  0  0  0  0  0  0  0  0  0  0
  -22.0521  -23.3302   20.2063 C   0  0  0  0  0  0  0  0  0  0  0  0
  -23.1219  -22.3102   20.5923 C   0  0  0  0  0  0  0  0  0  0  0  0
  -22.6910  -20.8897   20.2556 C   0  0  0  0  0  0  0  0  0  1  0  0
  -27.4923  -13.4589   20.9368 C   0  0  1  0  0  0  0  0  0  0  0  0
  -29.5770  -13.8461   17.7945 C   0  0  2  0  0  0  0  0  0  0  0  0
  -22.9179  -31.0960   21.6403 C   0  0  0  0  0  0  0  0  0  0  0  0
  -28.0762  -12.7603   22.1971 C   0  0  0  0  0  0  0  0  0  0  0  0
  -27.3056  -26.6769   21.5571 N   0  0  0  0  0  0  0  0  0  0  0  0
  -22.5368  -27.9512   19.7612 N   0  0  0  0  0  0  0  0  0  0  0  0
  -22.8892  -29.2183   20.1079 N   0  0  0  0  0  0  0  0  0  0  0  0
  -27.1736  -27.9733   21.2285 N   0  0  0  0  0  0  0  0  0  0  0  0
  -25.0928  -13.9735   20.6183 N   0  0  0  0  0  0  0  0  0  0  0  0
  -24.5556  -30.0068   23.1365 N   0  0  0  0  0  0  0  0  0  0  0  0
  -27.5210  -29.5208   19.4692 N   0  0  0  0  0  0  0  0  0  0  0  0
  -28.9374  -25.6093   17.7112 N   0  0  0  0  0  0  0  0  0  0  0  0
  -22.2106  -12.4721   22.0911 N   0  0  0  0  0  0  0  0  0  0  0  0
  -28.2782  -13.2580   19.7242 N   0  0  0  0  0  0  0  0  0  0  0  0
  -28.9262  -14.3257   16.5426 N   0  3  0  0  0  0  0  0  0  0  0  0
  -28.6704  -27.8489   17.2965 O   0  0  0  0  0  0  0  0  0  0  0  0
  -23.5771  -14.2294   22.7745 O   0  0  0  0  0  0  0  0  0  0  0  0
  -25.8967  -11.7996   20.3648 O   0  0  0  0  0  0  0  0  0  0  0  0
  -23.7454  -32.1344   23.6022 O   0  0  0  0  0  0  0  0  0  0  0  0
  -28.6633  -15.5042   19.2956 O   0  0  0  0  0  0  0  0  0  0  0  0
  -28.9554  -20.6622   20.2726 O   0  0  0  0  0  0  0  0  0  0  0  0
  -23.7233  -19.9881   20.6529 O   0  0  0  0  0  0  0  0  0  1  0  0
  -27.4216  -17.8678   15.7734 F   0  0  0  0  0  0  0  0  0  0  0  0
  -29.9325  -21.3438   17.7779 F   0  0  0  0  0  0  0  0  0  0  0  0
  1  2  1  0  0  0  0
  1  5  2  0  0  0  0
  2  6  2  0  0  0  0
  3  8  2  0  0  0  0
  3 17  1  0  0  0  0
  4  9  1  0  0  0  0
  4 17  2  0  0  0  0
  5 19  1  0  0  0  0
  6 21  1  0  0  0  0
  7 10  2  0  0  0  0
  7 20  1  0  0  0  0
  8 23  1  0  0  0  0
  9 23  2  0  0  0  0
 10 24  1  0  0  0  0
 11 12  2  0  0  0  0
 11 25  1  0  0  0  0
 12 26  1  0  0  0  0
 13 14  2  0  0  0  0
 13 29  1  0  0  0  0
 14 30  1  0  0  0  0
 15 22  1  0  0  0  0
 15 24  2  0  0  0  0
 16 26  2  0  0  0  0
 16 27  1  0  0  0  0
 17 28  1  0  0  0  0
 18 28  1  0  0  0  0
 18 31  2  0  0  0  0
 18 32  1  0  0  0  0
 19 21  2  0  0  0  0
 19 37  1  0  0  0  0
 20 22  2  0  0  0  0
 20 38  1  0  0  0  0
 21 46  1  0  0  0  0
 22 39  1  0  0  0  0
 23 81  1  0  0  0  0
 24 82  1  0  0  0  0
 25 27  2  0  0  0  0
 25 81  1  0  0  0  0
 26 83  1  0  0  0  0
 27 84  1  0  0  0  0
 28 65  2  0  0  0  0
 29 56  1  0  0  0  0
 29 66  2  0  0  0  0
 30 63  1  0  0  0  0
 30 67  2  0  0  0  0
 31 68  1  0  0  0  0
 31 71  1  0  0  0  0
 32 72  1  0  0  0  0
 32 76  2  0  0  0  0
 33 47  1  0  0  0  0
 33 73  1  0  0  0  0
 33 77  2  0  0  0  0
 34 61  1  0  0  0  0
 34 69  1  0  0  0  0
 34 78  2  0  0  0  0
 35 63  1  0  0  0  0
 35 70  1  0  0  0  0
 35 79  2  0  0  0  0
 36 62  1  0  0  0  0
 36 74  1  0  0  0  0
 36 80  2  0  0  0  0
 37 40  1  0  0  0  0
 38 47  1  0  0  0  0
 39 69  1  0  0  0  0
 40 42  1  0  0  0  0
 41 43  1  0  0  0  0
 41 44  1  0  0  0  0
 42 46  1  0  0  0  0
 43 48  1  0  0  0  0
 44 70  1  0  0  0  0
 45 48  1  0  0  0  0
 45 70  1  0  0  0  0
 46 73  1  0  0  0  0
 47 69  1  0  0  0  0
 48 68  1  0  0  0  0
 49 62  1  0  0  0  0
 50 63  1  0  0  0  0
 51 63  1  0  0  0  0
 52 64  1  0  0  0  0
 53 64  1  0  0  0  0
 54 64  1  0  0  0  0
 55 75  1  0  0  0  0
 56 57  1  0  0  0  0
 57 58  1  0  0  0  0
 58 59  1  0  0  0  0
 59 60  1  0  0  0  0
 60 82  1  0  0  0  0
 61 64  1  0  0  0  0
 61 74  1  0  0  0  0
 62 75  1  0  0  0  0
 65 68  1  0  0  0  0
 66 67  1  0  0  0  0
M  CHG  1  75   1
M  ISO  4  35 100  60 101  63 100  82 101
M  END
> <Batch ID>
0075

> <Smiles>
CNC(C)C(=O)NC(C(=O)N1Cc2cc([101O:1][101CH2:1]CCCCc3ccc([100C:0](C)(C)[100C:0](=O)N4CCCC(n5nc(-c6ccc(Oc7ccc(F)cc7F)cc6)c(C(N)=O)c5N)C4)nn3)ccc2CC1C(=O)NC1CCCc2ccccc21)C(C)(C)C

> <Shape>
0.233

> <Color>
0.065

> <Negative vol penalty>
0.000

$$$$

  -OEChem-04052318323D

 79 87  0     1  0  0  0  0  0999 V2000
  -14.7441  -27.2153   22.9207 C   0  0  0  0  0  0  0  0  0  0  0  0
  -15.5235  -26.6832   21.8985 C   0  0  0  0  0  0  0  0  0  0  0  0
  -29.2274  -17.7989   19.3100 C   0  0  0  0  0  0  0  0  0  0  0  0
  -30.5864  -18.1491   21.2766 C   0  0  0  0  0  0  0  0  0  0  0  0
  -15.2753  -28.1880   23.7666 C   0  0  0  0  0  0  0  0  0  0  0  0
  -16.8343  -27.1245   21.7209 C   0  0  0  0  0  0  0  0  0  0  0  0
  -21.6181  -23.7923   19.8454 C   0  0  0  0  0  0  0  0  0  0  0  0
  -29.6627  -16.4753   19.2449 C   0  0  0  0  0  0  0  0  0  0  0  0
  -31.0217  -16.8255   21.2115 C   0  0  0  0  0  0  0  0  0  0  0  0
  -22.2294  -23.6465   18.6009 C   0  0  0  0  0  0  0  0  0  0  0  0
  -30.1371  -12.9024   18.7717 C   0  0  0  0  0  0  0  0  0  0  0  0
  -29.1800  -11.9158   18.5347 C   0  0  0  0  0  0  0  0  0  0  0  0
  -23.8624  -25.3126   19.2146 C   0  0  0  0  0  0  0  0  0  0  0  0
  -28.0168  -12.5596   20.5520 C   0  0  0  0  0  0  0  0  0  0  0  0
  -28.2499  -24.7912   15.1003 C   0  0  0  0  0  0  0  0  0  0  0  0
  -29.6893  -18.6358   20.3259 C   0  0  0  0  0  0  0  0  0  0  0  0
  -28.1161  -20.4959   21.0828 C   0  0  0  0  0  0  0  0  0  0  0  0
  -16.5964  -28.6344   23.6054 C   0  0  0  0  0  0  0  0  0  0  0  0
  -22.1187  -24.7088   20.7813 C   0  0  0  0  0  0  0  0  0  0  0  0
  -17.3833  -28.1050   22.5647 C   0  0  0  0  0  0  0  0  0  0  0  0
  -23.2572  -25.4663   20.4712 C   0  0  0  0  0  0  0  0  0  0  0  0
  -30.5599  -15.9886   20.1956 C   0  0  0  0  0  0  0  0  0  0  0  0
  -23.3500  -24.4088   18.2842 C   0  0  0  0  0  0  0  0  0  0  0  0
  -30.0341  -13.7175   19.8989 C   0  0  0  0  0  0  0  0  0  0  0  0
  -28.1199  -11.7444   19.4248 C   0  0  0  0  0  0  0  0  0  0  0  0
  -28.9740  -13.5462   20.7890 C   0  0  0  0  0  0  0  0  0  0  0  0
  -29.2404  -20.0033   20.3934 C   0  0  0  0  0  0  0  0  0  0  0  0
  -29.4820  -24.3677   15.5311 C   0  0  0  0  0  0  0  0  0  0  0  0
  -28.1268  -21.8470   20.8359 C   0  0  0  0  0  0  0  0  0  0  0  0
  -27.1488  -19.7949   21.8756 C   0  0  0  0  0  0  0  0  0  0  0  0
  -30.4257  -25.1091   16.3777 C   0  0  0  0  0  0  0  0  0  0  0  0
  -20.9735  -27.3065   22.2109 C   0  0  0  0  0  0  0  0  0  0  0  0
  -23.7546  -27.1429   23.8727 C   0  0  0  0  0  0  0  0  0  0  0  0
  -26.9903  -26.0663   24.0070 C   0  0  0  0  0  0  0  0  0  0  0  0
  -17.1114  -29.7218   24.5148 C   0  0  0  0  0  0  0  0  0  0  0  0
  -21.4638  -24.8349   22.1295 C   0  0  0  0  0  0  0  0  0  0  0  0
  -23.8459  -26.4494   21.4486 C   0  0  0  0  0  0  0  0  0  0  0  0
  -18.6311  -29.8642   24.4941 C   0  0  0  0  0  0  0  0  0  0  0  0
  -31.1086  -25.4622   19.8635 C   0  0  0  0  0  0  0  0  0  0  0  0
  -19.1480  -29.8620   23.0590 C   0  0  0  0  0  0  0  0  0  0  0  0
  -30.6198  -24.1407   20.4589 C   0  0  0  0  0  0  0  0  0  0  0  0
  -31.7192  -25.2646   18.4783 C   0  0  0  0  0  0  0  0  0  0  0  0
  -30.3507  -23.2406   18.1099 C   0  0  0  0  0  0  0  0  0  0  0  0
  -18.8176  -28.5400   22.3556 C   0  0  1  0  0  0  0  0  0  0  0  0
  -21.7511  -26.1693   22.8108 C   0  0  1  0  0  0  0  0  0  0  0  0
  -29.6820  -23.4030   19.4849 C   0  0  1  0  0  0  0  0  0  0  0  0
  -29.2596  -25.6276   24.9842 C   0  0  0  0  0  0  0  0  0  0  0  0
  -24.2640  -30.0400   23.0620 C   0  0  0  0  0  0  0  0  0  0  0  0
  -26.6595  -29.7300   23.7206 C   0  0  0  0  0  0  0  0  0  0  0  0
  -24.8579  -29.4996   25.4305 C   0  0  0  0  0  0  0  0  0  0  0  0
  -26.1371  -23.4576   25.1139 C   0  0  0  0  0  0  0  0  0  0  0  0
  -25.2535  -23.8437   14.5233 C   0  0  0  0  0  0  0  0  0  0  0  0
  -25.1126  -22.7688   15.6023 C   0  0  0  0  0  0  0  0  0  0  0  0
  -26.4799  -23.6371   13.6271 C   0  0  0  0  0  0  0  0  0  0  0  0
  -23.8659  -22.9866   16.4492 C   0  0  0  0  0  0  0  0  0  1  0  0
  -25.1470  -27.6948   23.6837 C   0  0  1  0  0  0  0  0  0  0  0  0
  -27.7688  -25.3486   25.0948 C   0  0  2  0  0  0  0  0  0  0  0  0
  -25.2201  -29.2241   23.9548 C   0  0  0  0  0  0  0  0  0  0  0  0
  -29.9159  -20.9633   19.7562 N   0  0  0  0  0  0  0  0  0  0  0  0
  -29.7300  -23.1118   15.0506 N   0  0  0  0  0  0  0  0  0  0  0  0
  -28.6807  -22.7369   14.3272 N   0  0  0  0  0  0  0  0  0  0  0  0
  -27.7943  -23.7453   14.3583 N   0  0  0  0  0  0  0  0  0  0  0  0
  -29.2142  -22.0727   20.0442 N   0  0  0  0  0  0  0  0  0  0  0  0
  -30.7936  -24.5470   17.6025 N   0  0  0  0  0  0  0  0  0  0  0  0
  -23.1661  -26.5413   22.7513 N   0  0  0  0  0  0  0  0  0  0  0  0
  -27.3120  -22.8521   21.2209 N   0  0  0  0  0  0  0  0  0  0  0  0
  -27.2867  -18.4084   22.0263 N   0  0  0  0  0  0  0  0  0  0  0  0
  -19.7295  -27.4997   22.7805 N   0  0  0  0  0  0  0  0  0  0  0  0
  -26.0220  -26.8947   24.5337 N   0  0  0  0  0  0  0  0  0  0  0  0
  -27.5576  -23.8766   24.9975 N   0  3  0  0  0  0  0  0  0  0  0  0
  -26.1811  -20.3784   22.4203 O   0  0  0  0  0  0  0  0  0  0  0  0
  -30.8150  -26.1905   15.9395 O   0  0  0  0  0  0  0  0  0  0  0  0
  -21.4664  -27.9612   21.2998 O   0  0  0  0  0  0  0  0  0  0  0  0
  -23.2120  -27.2356   24.9766 O   0  0  0  0  0  0  0  0  0  0  0  0
  -27.2208  -25.9107   22.8098 O   0  0  0  0  0  0  0  0  0  0  0  0
  -30.9847  -14.6971   20.1325 O   0  0  0  0  0  0  0  0  0  0  0  0
  -23.9482  -24.2689   17.0699 O   0  0  0  0  0  0  0  0  0  1  0  0
  -27.2000  -10.7980   19.1962 F   0  0  0  0  0  0  0  0  0  0  0  0
  -28.8690  -14.3270   21.8730 F   0  0  0  0  0  0  0  0  0  0  0  0
  1  2  1  0  0  0  0
  1  5  2  0  0  0  0
  2  6  2  0  0  0  0
  3  8  2  0  0  0  0
  3 16  1  0  0  0  0
  4  9  1  0  0  0  0
  4 16  2  0  0  0  0
  5 18  1  0  0  0  0
  6 20  1  0  0  0  0
  7 10  2  0  0  0  0
  7 19  1  0  0  0  0
  8 22  1  0  0  0  0
  9 22  2  0  0  0  0
 10 23  1  0  0  0  0
 11 12  2  0  0  0  0
 11 24  1  0  0  0  0
 12 25  1  0  0  0  0
 13 21  1  0  0  0  0
 13 23  2  0  0  0  0
 14 25  2  0  0  0  0
 14 26  1  0  0  0  0
 15 28  2  0  0  0  0
 15 62  1  0  0  0  0
 16 27  1  0  0  0  0
 17 27  1  0  0  0  0
 17 29  2  0  0  0  0
 17 30  1  0  0  0  0
 18 20  2  0  0  0  0
 18 35  1  0  0  0  0
 19 21  2  0  0  0  0
 19 36  1  0  0  0  0
 20 44  1  0  0  0  0
 21 37  1  0  0  0  0
 22 76  1  0  0  0  0
 23 77  1  0  0  0  0
 24 26  2  0  0  0  0
 24 76  1  0  0  0  0
 25 78  1  0  0  0  0
 26 79  1  0  0  0  0
 27 59  2  0  0  0  0
 28 31  1  0  0  0  0
 28 60  1  0  0  0  0
 29 63  1  0  0  0  0
 29 66  1  0  0  0  0
 30 67  1  0  0  0  0
 30 71  2  0  0  0  0
 31 64  1  0  0  0  0
 31 72  2  0  0  0  0
 32 45  1  0  0  0  0
 32 68  1  0  0  0  0
 32 73  2  0  0  0  0
 33 56  1  0  0  0  0
 33 65  1  0  0  0  0
 33 74  2  0  0  0  0
 34 57  1  0  0  0  0
 34 69  1  0  0  0  0
 34 75  2  0  0  0  0
 35 38  1  0  0  0  0
 36 45  1  0  0  0  0
 37 65  1  0  0  0  0
 38 40  1  0  0  0  0
 39 41  1  0  0  0  0
 39 42  1  0  0  0  0
 40 44  1  0  0  0  0
 41 46  1  0  0  0  0
 42 64  1  0  0  0  0
 43 46  1  0  0  0  0
 43 64  1  0  0  0  0
 44 68  1  0  0  0  0
 45 65  1  0  0  0  0
 46 63  1  0  0  0  0
 47 57  1  0  0  0  0
 48 58  1  0  0  0  0
 49 58  1  0  0  0  0
 50 58  1  0  0  0  0
 51 70  1  0  0  0  0
 52 53  1  0  0  0  0
 52 54  1  0  0  0  0
 53 55  1  0  0  0  0
 54 62  1  0  0  0  0
 55 77  1  0  0  0  0
 56 58  1  0  0  0  0
 56 69  1  0  0  0  0
 57 70  1  0  0  0  0
 59 63  1  0  0  0  0
 60 61  2  0  0  0  0
 61 62  1  0  0  0  0
M  CHG  1  70   1
M  ISO  4  28 100  31 100  55 101  77 101
M  END
> <Batch ID>
0075

> <Smiles>
CNC(C)C(=O)NC(C(=O)N1Cc2cc([101O:1][101CH2:1]CCCn3c[100c:0]([100C:0](=O)N4CCCC(n5nc(-c6ccc(Oc7ccc(F)cc7F)cc6)c(C(N)=O)c5N)C4)nn3)ccc2CC1C(=O)NC1CCCc2ccccc21)C(C)(C)C

> <Shape>
0.234

> <Color>
0.057

> <Negative vol penalty>
0.000

$$$$

  -OEChem-04052318323D

 83 91  0     1  0  0  0  0  0999 V2000
  -21.6204  -11.7705   20.8427 C   0  0  0  0  0  0  0  0  0  0  0  0
  -21.4681  -13.0835   21.2764 C   0  0  0  0  0  0  0  0  0  0  0  0
  -32.7387  -28.0291   18.8464 C   0  0  0  0  0  0  0  0  0  0  0  0
  -32.7876  -28.4713   21.2210 C   0  0  0  0  0  0  0  0  0  0  0  0
  -22.8972  -11.2297   20.6959 C   0  0  0  0  0  0  0  0  0  0  0  0
  -22.5924  -13.8563   21.5647 C   0  0  0  0  0  0  0  0  0  0  0  0
  -23.2490  -19.8787   20.6676 C   0  0  0  0  0  0  0  0  0  0  0  0
  -33.9645  -28.6785   18.7002 C   0  0  0  0  0  0  0  0  0  0  0  0
  -34.0134  -29.1207   21.0749 C   0  0  0  0  0  0  0  0  0  0  0  0
  -23.1296  -20.9730   21.5232 C   0  0  0  0  0  0  0  0  0  0  0  0
  -37.2543  -29.9042   17.7570 C   0  0  0  0  0  0  0  0  0  0  0  0
  -38.2223  -29.2909   16.9617 C   0  0  0  0  0  0  0  0  0  0  0  0
  -21.9814  -31.4571   25.3651 C   0  0  0  0  0  0  0  0  0  0  0  0
  -25.5158  -20.9497   21.8764 C   0  0  0  0  0  0  0  0  0  0  0  0
  -38.2010  -27.3652   18.4206 C   0  0  0  0  0  0  0  0  0  0  0  0
  -22.8658  -32.2061   24.6057 C   0  0  0  0  0  0  0  0  0  0  0  0
  -32.1502  -27.9255   20.1068 C   0  0  0  0  0  0  0  0  0  0  0  0
  -30.6712  -25.8880   20.5175 C   0  0  0  0  0  0  0  0  0  0  0  0
  -24.0380  -11.9993   20.9732 C   0  0  0  0  0  0  0  0  0  0  0  0
  -24.5035  -19.3039   20.4181 C   0  0  0  0  0  0  0  0  0  0  0  0
  -23.8856  -13.3249   21.4227 C   0  0  0  0  0  0  0  0  0  0  0  0
  -25.6488  -19.8498   21.0152 C   0  0  0  0  0  0  0  0  0  0  0  0
  -21.6213  -30.1998   24.8930 C   0  0  0  0  0  0  0  0  0  0  0  0
  -22.1490  -29.7366   23.6930 C   0  0  0  0  0  0  0  0  0  0  0  0
  -34.6018  -29.2243   19.8144 C   0  0  0  0  0  0  0  0  0  0  0  0
  -24.2627  -21.5069   22.1300 C   0  0  0  0  0  0  0  0  0  0  0  0
  -36.7597  -29.2480   18.8841 C   0  0  0  0  0  0  0  0  0  0  0  0
  -38.6957  -28.0215   17.2935 C   0  0  0  0  0  0  0  0  0  0  0  0
  -37.2330  -27.9785   19.2159 C   0  0  0  0  0  0  0  0  0  0  0  0
  -30.8838  -27.2553   20.2583 C   0  0  0  0  0  0  0  0  0  0  0  0
  -23.0258  -30.5627   23.0083 C   0  0  0  0  0  0  0  0  0  0  0  0
  -29.3050  -25.7570   20.5709 C   0  0  0  0  0  0  0  0  0  0  0  0
  -31.6235  -24.8309   20.6943 C   0  0  0  0  0  0  0  0  0  0  0  0
  -25.7997  -16.4445   20.9158 C   0  0  0  0  0  0  0  0  0  0  0  0
  -25.0641  -29.7029   21.8822 C   0  0  0  0  0  0  0  0  0  0  0  0
  -28.2759  -17.7076   19.2438 C   0  0  0  0  0  0  0  0  0  0  0  0
  -29.9530  -20.4952   18.2126 C   0  0  0  0  0  0  0  0  0  0  0  0
  -25.3962  -11.3563   20.8450 C   0  0  0  0  0  0  0  0  0  0  0  0
  -24.6188  -18.1405   19.4717 C   0  0  0  0  0  0  0  0  0  0  0  0
  -27.0211  -19.2821   20.7643 C   0  0  0  0  0  0  0  0  0  0  0  0
  -26.5450  -12.3610   20.8121 C   0  0  0  0  0  0  0  0  0  0  0  0
  -25.2810  -27.6853   18.8641 C   0  0  0  0  0  0  0  0  0  0  0  0
  -26.3753  -13.4024   21.9137 C   0  0  0  0  0  0  0  0  0  0  0  0
  -26.7440  -27.2450   18.8953 C   0  0  0  0  0  0  0  0  0  0  0  0
  -25.1085  -29.0990   19.4134 C   0  0  0  0  0  0  0  0  0  0  0  0
  -27.1276  -28.8436   20.8215 C   0  0  0  0  0  0  0  0  0  0  0  0
  -25.0815  -14.2027   21.7216 C   0  0  1  0  0  0  0  0  0  0  0  0
  -25.8816  -17.3134   19.6927 C   0  0  1  0  0  0  0  0  0  0  0  0
  -27.3404  -27.4112   20.3039 C   0  0  2  0  0  0  0  0  0  0  0  0
  -20.6700  -29.3697   25.6899 C   0  0  0  0  0  0  0  0  0  0  0  0
  -31.9616  -21.2084   16.8881 C   0  0  0  0  0  0  0  0  0  0  0  0
  -30.0873  -16.9102   21.5660 C   0  0  0  0  0  0  0  0  0  0  0  0
  -31.8311  -18.4520   20.6440 C   0  0  0  0  0  0  0  0  0  0  0  0
  -31.0573  -16.4997   19.2977 C   0  0  0  0  0  0  0  0  0  0  0  0
  -28.2877  -21.9782   16.2668 C   0  0  0  0  0  0  0  0  0  0  0  0
  -21.7767  -28.3773   23.1564 C   0  0  0  0  0  0  0  0  0  0  0  0
  -23.6246  -30.1192   21.7137 C   0  0  0  0  0  0  0  0  0  0  0  0
  -22.8426  -27.3025   23.3981 C   0  0  0  0  0  0  0  0  0  0  0  0
  -22.4137  -25.9135   22.9150 C   0  0  0  0  0  0  0  0  0  0  0  0
  -23.5163  -24.8820   23.1476 C   0  0  0  0  0  0  0  0  0  0  0  0
  -23.0844  -23.4898   22.7095 C   0  0  0  0  0  0  0  0  0  1  0  0
  -29.5204  -18.4844   19.5997 C   0  0  1  0  0  0  0  0  0  0  0  0
  -30.4705  -20.9121   16.8477 C   0  0  2  0  0  0  0  0  0  0  0  0
  -30.5981  -17.5963   20.2833 C   0  0  0  0  0  0  0  0  0  0  0  0
  -23.3991  -31.7899   23.4353 N   0  0  0  0  0  0  0  0  0  0  0  0
  -29.7439  -27.9436   20.1541 N   0  0  0  0  0  0  0  0  0  0  0  0
  -28.8019  -27.0051   20.3487 N   0  0  0  0  0  0  0  0  0  0  0  0
  -27.0812  -18.1408   19.8362 N   0  0  0  0  0  0  0  0  0  0  0  0
  -25.7140  -29.2234   20.7447 N   0  0  0  0  0  0  0  0  0  0  0  0
  -28.4970  -24.6971   20.7856 N   0  0  0  0  0  0  0  0  0  0  0  0
  -32.9880  -25.1394   20.6080 N   0  0  0  0  0  0  0  0  0  0  0  0
  -25.2517  -15.1973   20.6842 N   0  0  0  0  0  0  0  0  0  0  0  0
  -29.9679  -19.1252   18.3677 N   0  0  0  0  0  0  0  0  0  0  0  0
  -29.7609  -22.1349   16.3761 N   0  3  0  0  0  0  0  0  0  0  0  0
  -31.2745  -23.6447   20.9058 O   0  0  0  0  0  0  0  0  0  0  0  0
  -26.2050  -16.8733   21.9898 O   0  0  0  0  0  0  0  0  0  0  0  0
  -25.5925  -29.7993   22.9929 O   0  0  0  0  0  0  0  0  0  0  0  0
  -28.3594  -16.7561   18.4632 O   0  0  0  0  0  0  0  0  0  0  0  0
  -29.5770  -21.3041   19.0580 O   0  0  0  0  0  0  0  0  0  0  0  0
  -35.7980  -29.8578   19.6722 O   0  0  0  0  0  0  0  0  0  0  0  0
  -24.1488  -22.5746   22.9660 O   0  0  0  0  0  0  0  0  0  1  0  0
  -39.6241  -27.4321   16.5288 F   0  0  0  0  0  0  0  0  0  0  0  0
  -36.7607  -27.3427   20.2968 F   0  0  0  0  0  0  0  0  0  0  0  0
  1  2  1  0  0  0  0
  1  5  2  0  0  0  0
  2  6  2  0  0  0  0
  3  8  2  0  0  0  0
  3 17  1  0  0  0  0
  4  9  1  0  0  0  0
  4 17  2  0  0  0  0
  5 19  1  0  0  0  0
  6 21  1  0  0  0  0
  7 10  2  0  0  0  0
  7 20  1  0  0  0  0
  8 25  1  0  0  0  0
  9 25  2  0  0  0  0
 10 26  1  0  0  0  0
 11 12  2  0  0  0  0
 11 27  1  0  0  0  0
 12 28  1  0  0  0  0
 13 16  1  0  0  0  0
 13 23  2  0  0  0  0
 14 22  1  0  0  0  0
 14 26  2  0  0  0  0
 15 28  2  0  0  0  0
 15 29  1  0  0  0  0
 16 65  2  0  0  0  0
 17 30  1  0  0  0  0
 18 30  1  0  0  0  0
 18 32  2  0  0  0  0
 18 33  1  0  0  0  0
 19 21  2  0  0  0  0
 19 38  1  0  0  0  0
 20 22  2  0  0  0  0
 20 39  1  0  0  0  0
 21 47  1  0  0  0  0
 22 40  1  0  0  0  0
 23 24  1  0  0  0  0
 23 50  1  0  0  0  0
 24 31  2  0  0  0  0
 24 56  1  0  0  0  0
 25 80  1  0  0  0  0
 26 81  1  0  0  0  0
 27 29  2  0  0  0  0
 27 80  1  0  0  0  0
 28 82  1  0  0  0  0
 29 83  1  0  0  0  0
 30 66  2  0  0  0  0
 31 57  1  0  0  0  0
 31 65  1  0  0  0  0
 32 67  1  0  0  0  0
 32 70  1  0  0  0  0
 33 71  1  0  0  0  0
 33 75  2  0  0  0  0
 34 48  1  0  0  0  0
 34 72  1  0  0  0  0
 34 76  2  0  0  0  0
 35 57  1  0  0  0  0
 35 69  1  0  0  0  0
 35 77  2  0  0  0  0
 36 62  1  0  0  0  0
 36 68  1  0  0  0  0
 36 78  2  0  0  0  0
 37 63  1  0  0  0  0
 37 73  1  0  0  0  0
 37 79  2  0  0  0  0
 38 41  1  0  0  0  0
 39 48  1  0  0  0  0
 40 68  1  0  0  0  0
 41 43  1  0  0  0  0
 42 44  1  0  0  0  0
 42 45  1  0  0  0  0
 43 47  1  0  0  0  0
 44 49  1  0  0  0  0
 45 69  1  0  0  0  0
 46 49  1  0  0  0  0
 46 69  1  0  0  0  0
 47 72  1  0  0  0  0
 48 68  1  0  0  0  0
 49 67  1  0  0  0  0
 51 63  1  0  0  0  0
 52 64  1  0  0  0  0
 53 64  1  0  0  0  0
 54 64  1  0  0  0  0
 55 74  1  0  0  0  0
 56 58  1  0  0  0  0
 58 59  1  0  0  0  0
 59 60  1  0  0  0  0
 60 61  1  0  0  0  0
 61 81  1  0  0  0  0
 62 64  1  0  0  0  0
 62 73  1  0  0  0  0
 63 74  1  0  0  0  0
 66 67  1  0  0  0  0
M  CHG  1  74   1
M  ISO  4  35 100  57 100  61 101  81 101
M  END
> <Batch ID>
0075

> <Smiles>
CNC(C)C(=O)NC(C(=O)N1Cc2cc([101O:1][101CH2:1]CCCCc3c(C)ccnc3[100CH2:0][100C:0](=O)N3CCCC(n4nc(-c5ccc(Oc6ccc(F)cc6F)cc5)c(C(N)=O)c4N)C3)ccc2CC1C(=O)NC1CCCc2ccccc21)C(C)(C)C

> <Shape>
0.212

> <Color>
0.069

> <Negative vol penalty>
0.000

$$$$

  -OEChem-04052318323D

 86 94  0     1  0  0  0  0  0999 V2000
  -18.6657  -24.1989   21.3931 C   0  0  0  0  0  0  0  0  0  0  0  0
  -20.0484  -24.0466   21.4091 C   0  0  0  0  0  0  0  0  0  0  0  0
  -23.9079  -12.3807   21.6472 C   0  0  0  0  0  0  0  0  0  0  0  0
  -23.6422  -12.6536   19.2614 C   0  0  0  0  0  0  0  0  0  0  0  0
  -18.0973  -25.4301   21.7170 C   0  0  0  0  0  0  0  0  0  0  0  0
  -20.8636  -25.1259   21.7481 C   0  0  0  0  0  0  0  0  0  0  0  0
  -24.5574  -23.8360   24.9632 C   0  0  0  0  0  0  0  0  0  0  0  0
  -22.8014  -11.5318   21.6734 C   0  0  0  0  0  0  0  0  0  0  0  0
  -22.5357  -11.8047   19.2876 C   0  0  0  0  0  0  0  0  0  0  0  0
  -25.6642  -23.1768   24.4300 C   0  0  0  0  0  0  0  0  0  0  0  0
  -20.2651   -9.0068   22.3113 C   0  0  0  0  0  0  0  0  0  0  0  0
  -20.3691   -7.8284   23.0503 C   0  0  0  0  0  0  0  0  0  0  0  0
  -26.8934  -25.2524   24.4309 C   0  0  0  0  0  0  0  0  0  0  0  0
  -22.2223   -7.1255   21.6688 C   0  0  0  0  0  0  0  0  0  0  0  0
  -27.9698  -22.6069   17.6846 C   0  0  0  0  0  0  0  0  0  0  0  0
  -24.3283  -12.9416   20.4413 C   0  0  0  0  0  0  0  0  0  0  0  0
  -26.8173  -13.4556   20.2220 C   0  0  0  0  0  0  0  0  0  0  0  0
  -18.9055  -26.5224   22.0695 C   0  0  0  0  0  0  0  0  0  0  0  0
  -24.6068  -25.2129   25.2245 C   0  0  0  0  0  0  0  0  0  0  0  0
  -20.3056  -26.3733   22.0758 C   0  0  0  0  0  0  0  0  0  0  0  0
  -25.7868  -25.9263   24.9698 C   0  0  0  0  0  0  0  0  0  0  0  0
  -22.1153  -11.2438   20.4936 C   0  0  0  0  0  0  0  0  0  0  0  0
  -26.8314  -23.8855   24.1611 C   0  0  0  0  0  0  0  0  0  0  0  0
  -21.1397   -9.2445   21.2509 C   0  0  0  0  0  0  0  0  0  0  0  0
  -21.3477   -6.8878   22.7291 C   0  0  0  0  0  0  0  0  0  0  0  0
  -22.1183   -8.3039   20.9297 C   0  0  0  0  0  0  0  0  0  0  0  0
  -25.4708  -13.8190   20.4137 C   0  0  0  0  0  0  0  0  0  0  0  0
  -28.1582  -21.3778   17.0919 C   0  0  0  0  0  0  0  0  0  0  0  0
  -30.1461  -21.1487   18.1992 C   0  0  0  0  0  0  0  0  0  0  0  0
  -29.9579  -22.3782   18.7912 C   0  0  0  0  0  0  0  0  0  0  0  0
  -27.5051  -14.6430   20.2804 C   0  0  0  0  0  0  0  0  0  0  0  0
  -27.3947  -12.1605   20.0100 C   0  0  0  0  0  0  0  0  0  0  0  0
  -23.0261  -27.7564   24.1587 C   0  0  0  0  0  0  0  0  0  0  0  0
  -24.7336  -29.2922   26.4496 C   0  0  0  0  0  0  0  0  0  0  0  0
  -27.5111  -29.3677   28.4311 C   0  0  0  0  0  0  0  0  0  0  0  0
  -25.9292  -20.3236   19.2320 C   0  0  0  0  0  0  0  0  0  0  0  0
  -18.2474  -27.8466   22.3660 C   0  0  0  0  0  0  0  0  0  0  0  0
  -23.4133  -25.9040   25.8246 C   0  0  0  0  0  0  0  0  0  0  0  0
  -25.8979  -27.4017   25.2513 C   0  0  0  0  0  0  0  0  0  0  0  0
  -19.1653  -28.8371   23.0780 C   0  0  0  0  0  0  0  0  0  0  0  0
  -27.2922  -19.0009   22.2436 C   0  0  0  0  0  0  0  0  0  0  0  0
  -20.5312  -28.8812   22.4003 C   0  0  0  0  0  0  0  0  0  0  0  0
  -27.1015  -17.4901   22.0988 C   0  0  0  0  0  0  0  0  0  0  0  0
  -26.1239  -19.7776   21.6405 C   0  0  0  0  0  0  0  0  0  0  0  0
  -25.6190  -17.9248   20.0958 C   0  0  0  0  0  0  0  0  0  0  0  0
  -21.2222  -27.5137   22.4623 C   0  0  1  0  0  0  0  0  0  0  0  0
  -23.4038  -27.4083   25.5708 C   0  0  1  0  0  0  0  0  0  0  0  0
  -26.7985  -17.1005   20.6395 C   0  0  2  0  0  0  0  0  0  0  0  0
  -31.3577  -20.3276   18.4812 C   0  0  0  0  0  0  0  0  0  0  0  0
  -28.6498  -30.7684   30.1744 C   0  0  0  0  0  0  0  0  0  0  0  0
  -27.4781  -19.4234   15.5381 C   0  0  0  0  0  0  0  0  0  0  0  0
  -26.9945  -21.7728   14.9040 C   0  0  0  0  0  0  0  0  0  0  0  0
  -25.6573  -31.2327   24.2837 C   0  0  0  0  0  0  0  0  0  0  0  0
  -27.4752  -31.9860   25.8316 C   0  0  0  0  0  0  0  0  0  0  0  0
  -25.0847  -32.3046   26.4695 C   0  0  0  0  0  0  0  0  0  0  0  0
  -27.3373  -27.2076   30.4467 C   0  0  0  0  0  0  0  0  0  0  0  0
  -30.9689  -22.9511   19.7523 C   0  0  0  0  0  0  0  0  0  0  0  0
  -30.3551  -23.8412   20.8387 C   0  0  0  0  0  0  0  0  0  0  0  0
  -29.3992  -23.0852   21.7626 C   0  0  0  0  0  0  0  0  0  0  0  0
  -25.7178  -20.7107   16.7898 C   0  0  0  0  0  0  0  0  0  0  0  0
  -28.7796  -24.0088   22.8026 C   0  0  0  0  0  0  0  0  0  1  0  0
  -26.0768  -29.9793   26.5016 C   0  0  1  0  0  0  0  0  0  0  0  0
  -27.6813  -29.6243   29.9176 C   0  0  2  0  0  0  0  0  0  0  0  0
  -27.1468  -20.8326   16.1456 C   0  0  0  0  0  0  0  0  0  0  0  0
  -26.0711  -31.3482   25.7644 C   0  0  0  0  0  0  0  0  0  0  0  0
  -28.8663  -23.1292   18.5448 N   0  0  0  0  0  0  0  0  0  0  0  0
  -25.3106  -15.1344   20.5815 N   0  0  0  0  0  0  0  0  0  0  0  0
  -29.2497  -20.6266   17.3387 N   0  0  0  0  0  0  0  0  0  0  0  0
  -26.5654  -15.6079   20.4955 N   0  0  0  0  0  0  0  0  0  0  0  0
  -24.7018  -28.0338   25.8321 N   0  0  0  0  0  0  0  0  0  0  0  0
  -25.8899  -19.3622   20.2553 N   0  0  0  0  0  0  0  0  0  0  0  0
  -28.8160  -14.9455   20.1683 N   0  0  0  0  0  0  0  0  0  0  0  0
  -26.5442  -11.0469   19.9781 N   0  0  0  0  0  0  0  0  0  0  0  0
  -21.7825  -27.2897   23.7777 N   0  0  0  0  0  0  0  0  0  0  0  0
  -26.4386  -30.0620   27.9125 N   0  0  0  0  0  0  0  0  0  0  0  0
  -25.7031  -19.8445   17.9475 N   0  0  0  0  0  0  0  0  0  0  0  0
  -28.2035  -28.4051   30.5972 N   0  3  0  0  0  0  0  0  0  0  0  0
  -28.6300  -11.9937   19.8699 O   0  0  0  0  0  0  0  0  0  0  0  0
  -23.8046  -28.4018   23.4667 O   0  0  0  0  0  0  0  0  0  0  0  0
  -23.7503  -29.8482   26.9452 O   0  0  0  0  0  0  0  0  0  0  0  0
  -28.2574  -28.6285   27.7930 O   0  0  0  0  0  0  0  0  0  0  0  0
  -26.1548  -21.5194   19.4466 O   0  0  0  0  0  0  0  0  0  0  0  0
  -21.0357  -10.4153   20.5187 O   0  0  0  0  0  0  0  0  0  0  0  0
  -27.9130  -23.2446   23.6401 O   0  0  0  0  0  0  0  0  0  1  0  0
  -21.4485   -5.7569   23.4399 F   0  0  0  0  0  0  0  0  0  0  0  0
  -22.9621   -8.5273   19.9129 F   0  0  0  0  0  0  0  0  0  0  0  0
  1  2  1  0  0  0  0
  1  5  2  0  0  0  0
  2  6  2  0  0  0  0
  3  8  2  0  0  0  0
  3 16  1  0  0  0  0
  4  9  1  0  0  0  0
  4 16  2  0  0  0  0
  5 18  1  0  0  0  0
  6 20  1  0  0  0  0
  7 10  2  0  0  0  0
  7 19  1  0  0  0  0
  8 22  1  0  0  0  0
  9 22  2  0  0  0  0
 10 23  1  0  0  0  0
 11 12  2  0  0  0  0
 11 24  1  0  0  0  0
 12 25  1  0  0  0  0
 13 21  1  0  0  0  0
 13 23  2  0  0  0  0
 14 25  2  0  0  0  0
 14 26  1  0  0  0  0
 15 28  1  0  0  0  0
 15 66  2  0  0  0  0
 16 27  1  0  0  0  0
 17 27  1  0  0  0  0
 17 31  2  0  0  0  0
 17 32  1  0  0  0  0
 18 20  2  0  0  0  0
 18 37  1  0  0  0  0
 19 21  2  0  0  0  0
 19 38  1  0  0  0  0
 20 46  1  0  0  0  0
 21 39  1  0  0  0  0
 22 83  1  0  0  0  0
 23 84  1  0  0  0  0
 24 26  2  0  0  0  0
 24 83  1  0  0  0  0
 25 85  1  0  0  0  0
 26 86  1  0  0  0  0
 27 67  2  0  0  0  0
 28 64  1  0  0  0  0
 28 68  2  0  0  0  0
 29 30  2  0  0  0  0
 29 49  1  0  0  0  0
 29 68  1  0  0  0  0
 30 57  1  0  0  0  0
 30 66  1  0  0  0  0
 31 69  1  0  0  0  0
 31 72  1  0  0  0  0
 32 73  1  0  0  0  0
 32 78  2  0  0  0  0
 33 47  1  0  0  0  0
 33 74  1  0  0  0  0
 33 79  2  0  0  0  0
 34 62  1  0  0  0  0
 34 70  1  0  0  0  0
 34 80  2  0  0  0  0
 35 63  1  0  0  0  0
 35 75  1  0  0  0  0
 35 81  2  0  0  0  0
 36 71  1  0  0  0  0
 36 76  1  0  0  0  0
 36 82  2  0  0  0  0
 37 40  1  0  0  0  0
 38 47  1  0  0  0  0
 39 70  1  0  0  0  0
 40 42  1  0  0  0  0
 41 43  1  0  0  0  0
 41 44  1  0  0  0  0
 42 46  1  0  0  0  0
 43 48  1  0  0  0  0
 44 71  1  0  0  0  0
 45 48  1  0  0  0  0
 45 71  1  0  0  0  0
 46 74  1  0  0  0  0
 47 70  1  0  0  0  0
 48 69  1  0  0  0  0
 50 63  1  0  0  0  0
 51 64  1  0  0  0  0
 52 64  1  0  0  0  0
 53 65  1  0  0  0  0
 54 65  1  0  0  0  0
 55 65  1  0  0  0  0
 56 77  1  0  0  0  0
 57 58  1  0  0  0  0
 58 59  1  0  0  0  0
 59 61  1  0  0  0  0
 60 64  1  0  0  0  0
 60 76  1  0  0  0  0
 61 84  1  0  0  0  0
 62 65  1  0  0  0  0
 62 75  1  0  0  0  0
 63 77  1  0  0  0  0
 67 69  1  0  0  0  0
M  CHG  1  77   1
M  ISO  4  36 100  61 101  76 100  84 101
M  END
> <Batch ID>
0075

> <Smiles>
CNC(C)C(=O)NC(C(=O)N1Cc2cc([101O:1][101CH2:1]CCCc3ncc(C(C)(C)C[100NH:0][100C:0](=O)N4CCCC(n5nc(-c6ccc(Oc7ccc(F)cc7F)cc6)c(C(N)=O)c5N)C4)nc3C)ccc2CC1C(=O)NC1CCCc2ccccc21)C(C)(C)C

> <Shape>
0.223

> <Color>
0.077

> <Negative vol penalty>
0.000

$$$$

  -OEChem-04052318323D

 86 94  0     1  0  0  0  0  0999 V2000
  -22.7997  -12.0884   17.6049 C   0  0  0  0  0  0  0  0  0  0  0  0
  -22.5984  -13.4538   17.7792 C   0  0  0  0  0  0  0  0  0  0  0  0
  -22.5291  -23.9493   22.0934 C   0  0  0  0  0  0  0  0  0  0  0  0
  -22.8191  -24.5623   19.7745 C   0  0  0  0  0  0  0  0  0  0  0  0
  -23.6074  -11.3845   18.4972 C   0  0  0  0  0  0  0  0  0  0  0  0
  -23.2038  -14.1161   18.8466 C   0  0  0  0  0  0  0  0  0  0  0  0
  -27.6827  -19.6445   17.7207 C   0  0  0  0  0  0  0  0  0  0  0  0
  -22.6928  -22.6052   21.7586 C   0  0  0  0  0  0  0  0  0  0  0  0
  -22.9829  -23.2182   19.4397 C   0  0  0  0  0  0  0  0  0  0  0  0
  -28.3853  -20.8434   17.5976 C   0  0  0  0  0  0  0  0  0  0  0  0
  -21.0120  -20.5161   18.9447 C   0  0  0  0  0  0  0  0  0  0  0  0
  -20.3306  -20.0396   17.8248 C   0  0  0  0  0  0  0  0  0  0  0  0
  -27.4688  -26.4467   21.6884 C   0  0  0  0  0  0  0  0  0  0  0  0
  -27.0629  -27.2910   22.7512 C   0  0  0  0  0  0  0  0  0  0  0  0
  -28.7338  -20.8972   19.9900 C   0  0  0  0  0  0  0  0  0  0  0  0
  -22.4347  -19.4413   16.7991 C   0  0  0  0  0  0  0  0  0  0  0  0
  -22.5922  -24.9279   21.1014 C   0  0  0  0  0  0  0  0  0  0  0  0
  -21.2971  -26.9118   22.0471 C   0  0  0  0  0  0  0  0  0  0  0  0
  -24.2308  -12.0403   19.5705 C   0  0  0  0  0  0  0  0  0  0  0  0
  -27.5161  -19.0587   18.9787 C   0  0  0  0  0  0  0  0  0  0  0  0
  -24.0195  -13.4201   19.7549 C   0  0  0  0  0  0  0  0  0  0  0  0
  -28.0417  -19.6899   20.1181 C   0  0  0  0  0  0  0  0  0  0  0  0
  -22.9197  -22.2396   20.4317 C   0  0  0  0  0  0  0  0  0  0  0  0
  -28.9093  -21.4683   18.7295 C   0  0  0  0  0  0  0  0  0  0  0  0
  -22.4047  -20.4553   18.9918 C   0  0  0  0  0  0  0  0  0  0  0  0
  -21.0419  -19.5022   16.7520 C   0  0  0  0  0  0  0  0  0  0  0  0
  -23.1161  -19.9179   17.9190 C   0  0  0  0  0  0  0  0  0  0  0  0
  -22.4226  -26.3165   21.4466 C   0  0  0  0  0  0  0  0  0  0  0  0
  -28.2694  -27.1935   20.8526 C   0  0  0  0  0  0  0  0  0  0  0  0
  -27.6276  -28.5281   22.5323 C   0  0  0  0  0  0  0  0  0  0  0  0
  -21.6317  -28.2388   22.1636 C   0  0  0  0  0  0  0  0  0  0  0  0
  -20.0598  -26.3183   22.4626 C   0  0  0  0  0  0  0  0  0  0  0  0
  -26.1264  -16.2006   20.9726 C   0  0  0  0  0  0  0  0  0  0  0  0
  -28.8870  -16.8455   22.1446 C   0  0  0  0  0  0  0  0  0  0  0  0
  -26.9286  -30.8997   22.5357 C   0  0  0  0  0  0  0  0  0  0  0  0
  -31.9978  -17.2564   22.3824 C   0  0  0  0  0  0  0  0  0  0  0  0
  -25.0570  -11.2283   20.5363 C   0  0  0  0  0  0  0  0  0  0  0  0
  -26.7136  -17.7999   19.1659 C   0  0  0  0  0  0  0  0  0  0  0  0
  -27.8082  -19.0412   21.4550 C   0  0  0  0  0  0  0  0  0  0  0  0
  -25.9640  -12.0761   21.4244 C   0  0  0  0  0  0  0  0  0  0  0  0
  -24.3090  -31.6269   20.1199 C   0  0  0  0  0  0  0  0  0  0  0  0
  -25.1924  -13.2590   22.0008 C   0  0  0  0  0  0  0  0  0  0  0  0
  -23.4385  -30.3756   20.2270 C   0  0  0  0  0  0  0  0  0  0  0  0
  -25.7889  -31.2982   20.2987 C   0  0  0  0  0  0  0  0  0  0  0  0
  -25.2265  -29.3220   21.6782 C   0  0  0  0  0  0  0  0  0  0  0  0
  -24.6790  -14.1786   20.8862 C   0  0  1  0  0  0  0  0  0  0  0  0
  -27.2638  -16.8937   20.2819 C   0  0  1  0  0  0  0  0  0  0  0  0
  -23.7238  -29.6151   21.5339 C   0  0  2  0  0  0  0  0  0  0  0  0
  -34.4451  -17.3581   22.9281 C   0  0  0  0  0  0  0  0  0  0  0  0
  -28.9311  -30.2486   23.8104 C   0  0  0  0  0  0  0  0  0  0  0  0
  -26.6265  -29.7076   24.6044 C   0  0  0  0  0  0  0  0  0  0  0  0
  -27.5419  -18.3723   24.4169 C   0  0  0  0  0  0  0  0  0  0  0  0
  -29.7723  -18.5172   25.5450 C   0  0  0  0  0  0  0  0  0  0  0  0
  -28.7334  -16.2892   25.1210 C   0  0  0  0  0  0  0  0  0  0  0  0
  -29.1562  -29.3921   19.2583 C   0  0  0  0  0  0  0  0  0  0  0  0
  -30.5479  -29.5533   21.3600 C   0  0  0  0  0  0  0  0  0  0  0  0
  -28.5117  -30.9487   21.0843 C   0  0  0  0  0  0  0  0  0  0  0  0
  -32.4926  -14.5922   21.1921 C   0  0  0  0  0  0  0  0  0  0  0  0
  -28.9683  -26.7979   19.5763 C   0  0  0  0  0  0  0  0  0  0  0  0
  -28.7362  -25.3383   19.1701 C   0  0  0  0  0  0  0  0  0  0  0  0
  -29.5141  -24.9347   17.9168 C   0  0  0  0  0  0  0  0  0  0  0  0
  -29.2280  -23.4923   17.5216 C   0  0  0  0  0  0  0  0  0  1  0  0
  -29.6751  -17.6073   23.1799 C   0  0  1  0  0  0  0  0  0  0  0  0
  -33.2502  -16.4511   22.6785 C   0  0  2  0  0  0  0  0  0  0  0  0
  -27.5295  -29.7677   23.3302 C   0  0  0  0  0  0  0  0  0  0  0  0
  -28.9271  -17.7066   24.5393 C   0  0  0  0  0  0  0  0  0  0  0  0
  -29.1101  -29.5499   20.7944 C   0  0  0  0  0  0  0  0  0  0  0  0
  -23.3991  -27.1934   21.1987 N   0  0  0  0  0  0  0  0  0  0  0  0
  -28.3586  -28.4572   21.3753 N   0  0  0  0  0  0  0  0  0  0  0  0
  -22.8882  -28.3532   21.6456 N   0  0  0  0  0  0  0  0  0  0  0  0
  -28.0050  -17.5870   21.3491 N   0  0  0  0  0  0  0  0  0  0  0  0
  -26.0149  -30.5500   21.5411 N   0  0  0  0  0  0  0  0  0  0  0  0
  -20.9708  -29.3073   22.6575 N   0  0  0  0  0  0  0  0  0  0  0  0
  -19.9621  -25.8233   23.7702 N   0  0  0  0  0  0  0  0  0  0  0  0
  -25.7516  -15.0089   20.3818 N   0  0  0  0  0  0  0  0  0  0  0  0
  -30.9783  -16.9567   23.2611 N   0  0  0  0  0  0  0  0  0  0  0  0
  -33.5722  -15.5541   21.5328 N   0  3  0  0  0  0  0  0  0  0  0  0
  -19.0756  -26.2148   21.6918 O   0  0  0  0  0  0  0  0  0  0  0  0
  -25.6256  -16.7078   21.9695 O   0  0  0  0  0  0  0  0  0  0  0  0
  -29.0428  -15.6252   22.0455 O   0  0  0  0  0  0  0  0  0  0  0  0
  -27.2644  -32.0591   22.7910 O   0  0  0  0  0  0  0  0  0  0  0  0
  -31.9319  -18.0725   21.4658 O   0  0  0  0  0  0  0  0  0  0  0  0
  -23.0797  -20.9281   20.1047 O   0  0  0  0  0  0  0  0  0  0  0  0
  -29.5980  -22.6362   18.6016 O   0  0  0  0  0  0  0  0  0  1  0  0
  -20.3873  -19.0432   15.6773 F   0  0  0  0  0  0  0  0  0  0  0  0
  -24.4541  -19.8558   17.9590 F   0  0  0  0  0  0  0  0  0  0  0  0
  1  2  1  0  0  0  0
  1  5  2  0  0  0  0
  2  6  2  0  0  0  0
  3  8  2  0  0  0  0
  3 17  1  0  0  0  0
  4  9  1  0  0  0  0
  4 17  2  0  0  0  0
  5 19  1  0  0  0  0
  6 21  1  0  0  0  0
  7 10  2  0  0  0  0
  7 20  1  0  0  0  0
  8 23  1  0  0  0  0
  9 23  2  0  0  0  0
 10 24  1  0  0  0  0
 11 12  2  0  0  0  0
 11 25  1  0  0  0  0
 12 26  1  0  0  0  0
 13 14  1  0  0  0  0
 13 29  2  0  0  0  0
 14 30  2  0  0  0  0
 15 22  1  0  0  0  0
 15 24  2  0  0  0  0
 16 26  2  0  0  0  0
 16 27  1  0  0  0  0
 17 28  1  0  0  0  0
 18 28  1  0  0  0  0
 18 31  2  0  0  0  0
 18 32  1  0  0  0  0
 19 21  2  0  0  0  0
 19 37  1  0  0  0  0
 20 22  2  0  0  0  0
 20 38  1  0  0  0  0
 21 46  1  0  0  0  0
 22 39  1  0  0  0  0
 23 83  1  0  0  0  0
 24 84  1  0  0  0  0
 25 27  2  0  0  0  0
 25 83  1  0  0  0  0
 26 85  1  0  0  0  0
 27 86  1  0  0  0  0
 28 68  2  0  0  0  0
 29 59  1  0  0  0  0
 29 69  1  0  0  0  0
 30 65  1  0  0  0  0
 30 69  1  0  0  0  0
 31 70  1  0  0  0  0
 31 73  1  0  0  0  0
 32 74  1  0  0  0  0
 32 78  2  0  0  0  0
 33 47  1  0  0  0  0
 33 75  1  0  0  0  0
 33 79  2  0  0  0  0
 34 63  1  0  0  0  0
 34 71  1  0  0  0  0
 34 80  2  0  0  0  0
 35 65  1  0  0  0  0
 35 72  1  0  0  0  0
 35 81  2  0  0  0  0
 36 64  1  0  0  0  0
 36 76  1  0  0  0  0
 36 82  2  0  0  0  0
 37 40  1  0  0  0  0
 38 47  1  0  0  0  0
 39 71  1  0  0  0  0
 40 42  1  0  0  0  0
 41 43  1  0  0  0  0
 41 44  1  0  0  0  0
 42 46  1  0  0  0  0
 43 48  1  0  0  0  0
 44 72  1  0  0  0  0
 45 48  1  0  0  0  0
 45 72  1  0  0  0  0
 46 75  1  0  0  0  0
 47 71  1  0  0  0  0
 48 70  1  0  0  0  0
 49 64  1  0  0  0  0
 50 65  1  0  0  0  0
 51 65  1  0  0  0  0
 52 66  1  0  0  0  0
 53 66  1  0  0  0  0
 54 66  1  0  0  0  0
 55 67  1  0  0  0  0
 56 67  1  0  0  0  0
 57 67  1  0  0  0  0
 58 77  1  0  0  0  0
 59 60  1  0  0  0  0
 60 61  1  0  0  0  0
 61 62  1  0  0  0  0
 62 84  1  0  0  0  0
 63 66  1  0  0  0  0
 63 76  1  0  0  0  0
 64 77  1  0  0  0  0
 67 69  1  0  0  0  0
 68 70  1  0  0  0  0
M  CHG  1  77   1
M  ISO  4  35 100  62 101  65 100  84 101
M  END
> <Batch ID>
0075

> <Smiles>
CNC(C)C(=O)NC(C(=O)N1Cc2cc([101O:1][101CH2:1]CCCc3ccc([100C:0](C)(C)[100C:0](=O)N4CCCC(n5nc(-c6ccc(Oc7ccc(F)cc7F)cc6)c(C(N)=O)c5N)C4)n3C(C)(C)C)ccc2CC1C(=O)NC1CCCc2ccccc21)C(C)(C)C

> <Shape>
0.230

> <Color>
0.077

> <Negative vol penalty>
0.000

$$$$

  -OEChem-04052318323D

 87 95  0     1  0  0  0  0  0999 V2000
  -16.1923  -29.2758   23.6982 C   0  0  0  0  0  0  0  0  0  0  0  0
  -17.0087  -28.6381   22.7696 C   0  0  0  0  0  0  0  0  0  0  0  0
  -24.4754  -12.1672   20.1942 C   0  0  0  0  0  0  0  0  0  0  0  0
  -22.8888  -13.8368   19.4646 C   0  0  0  0  0  0  0  0  0  0  0  0
  -16.7159  -30.2797   24.5117 C   0  0  0  0  0  0  0  0  0  0  0  0
  -18.3490  -29.0047   22.6534 C   0  0  0  0  0  0  0  0  0  0  0  0
  -23.0696  -25.3320   21.3369 C   0  0  0  0  0  0  0  0  0  0  0  0
  -23.4253  -11.2962   20.4845 C   0  0  0  0  0  0  0  0  0  0  0  0
  -21.8387  -12.9658   19.7548 C   0  0  0  0  0  0  0  0  0  0  0  0
  -23.7527  -25.0714   20.1498 C   0  0  0  0  0  0  0  0  0  0  0  0
  -21.3562   -9.2341   18.7817 C   0  0  0  0  0  0  0  0  0  0  0  0
  -21.4798   -7.9084   18.3661 C   0  0  0  0  0  0  0  0  0  0  0  0
  -25.4247  -26.6991   20.7615 C   0  0  0  0  0  0  0  0  0  0  0  0
  -21.3020   -7.1725   20.6604 C   0  0  0  0  0  0  0  0  0  0  0  0
  -29.5411  -22.7371   20.7852 C   0  0  0  0  0  0  0  0  0  0  0  0
  -24.2071  -13.4375   19.6843 C   0  0  0  0  0  0  0  0  0  0  0  0
  -25.9818  -14.4608   18.1641 C   0  0  0  0  0  0  0  0  0  0  0  0
  -18.0657  -30.6522   24.4121 C   0  0  0  0  0  0  0  0  0  0  0  0
  -23.5540  -26.2876   22.2417 C   0  0  0  0  0  0  0  0  0  0  0  0
  -18.8908  -30.0155   23.4654 C   0  0  0  0  0  0  0  0  0  0  0  0
  -24.7473  -26.9682   21.9606 C   0  0  0  0  0  0  0  0  0  0  0  0
  -22.1070  -11.6954   20.2648 C   0  0  0  0  0  0  0  0  0  0  0  0
  -24.9288  -25.7571   19.8605 C   0  0  0  0  0  0  0  0  0  0  0  0
  -21.2055   -9.5291   20.1367 C   0  0  0  0  0  0  0  0  0  0  0  0
  -21.4527   -6.8776   19.3054 C   0  0  0  0  0  0  0  0  0  0  0  0
  -21.1784   -8.4982   21.0761 C   0  0  0  0  0  0  0  0  0  0  0  0
  -25.2914  -14.3379   19.3848 C   0  0  0  0  0  0  0  0  0  0  0  0
  -29.5940  -23.0544   19.4432 C   0  0  0  0  0  0  0  0  0  0  0  0
  -29.3413  -21.4030   21.0758 C   0  0  0  0  0  0  0  0  0  0  0  0
  -26.9115  -15.4455   18.3931 C   0  0  0  0  0  0  0  0  0  0  0  0
  -29.2730  -20.8796   18.8648 C   0  0  0  0  0  0  0  0  0  0  0  0
  -25.7991  -13.7486   16.9333 C   0  0  0  0  0  0  0  0  0  0  0  0
  -22.4514  -29.0292   23.4129 C   0  0  0  0  0  0  0  0  0  0  0  0
  -25.1061  -28.8540   25.2687 C   0  0  0  0  0  0  0  0  0  0  0  0
  -26.9386  -19.9494   22.2647 C   0  0  0  0  0  0  0  0  0  0  0  0
  -28.2673  -27.6411   25.6962 C   0  0  0  0  0  0  0  0  0  0  0  0
  -18.5747  -31.7756   25.2801 C   0  0  0  0  0  0  0  0  0  0  0  0
  -22.8197  -26.5379   23.5304 C   0  0  0  0  0  0  0  0  0  0  0  0
  -25.3201  -27.9891   22.9083 C   0  0  0  0  0  0  0  0  0  0  0  0
  -20.0978  -31.8459   25.3543 C   0  0  0  0  0  0  0  0  0  0  0  0
  -29.5143  -17.4101   21.8845 C   0  0  0  0  0  0  0  0  0  0  0  0
  -20.7065  -31.7194   23.9614 C   0  0  0  0  0  0  0  0  0  0  0  0
  -28.7651  -16.3288   21.1069 C   0  0  0  0  0  0  0  0  0  0  0  0
  -28.5993  -18.1244   22.8757 C   0  0  0  0  0  0  0  0  0  0  0  0
  -26.6217  -17.6267   21.4737 C   0  0  0  0  0  0  0  0  0  0  0  0
  -20.3559  -30.3681   23.3267 C   0  0  1  0  0  0  0  0  0  0  0  0
  -23.1293  -27.9020   24.1392 C   0  0  1  0  0  0  0  0  0  0  0  0
  -27.5021  -16.9028   20.4413 C   0  0  2  0  0  0  0  0  0  0  0  0
  -29.1277  -19.8470   17.7988 C   0  0  0  0  0  0  0  0  0  0  0  0
  -30.2008  -27.7011   27.2947 C   0  0  0  0  0  0  0  0  0  0  0  0
  -30.1423  -21.8710   23.4571 C   0  0  0  0  0  0  0  0  0  0  0  0
  -29.9392  -19.5445   22.7020 C   0  0  0  0  0  0  0  0  0  0  0  0
  -27.0516  -22.2828   22.9756 C   0  0  0  0  0  0  0  0  0  0  0  0
  -27.6385  -20.4460   24.5444 C   0  0  0  0  0  0  0  0  0  0  0  0
  -25.8138  -31.6606   24.3034 C   0  0  0  0  0  0  0  0  0  0  0  0
  -28.1424  -31.2871   25.1440 C   0  0  0  0  0  0  0  0  0  0  0  0
  -26.2237  -31.2604   26.7378 C   0  0  0  0  0  0  0  0  0  0  0  0
  -28.1449  -24.7169   26.1355 C   0  0  0  0  0  0  0  0  0  0  0  0
  -29.8097  -24.4874   19.0264 C   0  0  0  0  0  0  0  0  0  0  0  0
  -29.1608  -24.8465   17.6851 C   0  0  0  0  0  0  0  0  0  0  0  0
  -27.6364  -24.7251   17.7060 C   0  0  0  0  0  0  0  0  0  0  0  0
  -27.0138  -25.6759   18.7194 C   0  0  0  0  0  0  0  0  0  1  0  0
  -26.5341  -29.3264   25.1393 C   0  0  1  0  0  0  0  0  0  0  0  0
  -28.9356  -26.9661   26.8803 C   0  0  2  0  0  0  0  0  0  0  0  0
  -29.2717  -20.9634   22.5000 C   0  0  0  0  0  0  0  0  0  0  0  0
  -27.7617  -20.9157   23.0788 C   0  0  0  0  0  0  0  0  0  0  0  0
  -26.6669  -30.8658   25.3122 C   0  0  0  0  0  0  0  0  0  0  0  0
  -25.7440  -15.1774   20.3199 N   0  0  0  0  0  0  0  0  0  0  0  0
  -29.4633  -22.1475   18.4529 N   0  0  0  0  0  0  0  0  0  0  0  0
  -29.2025  -20.4439   20.1371 N   0  0  0  0  0  0  0  0  0  0  0  0
  -26.7288  -15.8371   19.6867 N   0  0  0  0  0  0  0  0  0  0  0  0
  -24.5623  -28.2031   24.1522 N   0  0  0  0  0  0  0  0  0  0  0  0
  -27.3950  -18.6323   22.2078 N   0  0  0  0  0  0  0  0  0  0  0  0
  -27.8594  -16.0059   17.6121 N   0  0  0  0  0  0  0  0  0  0  0  0
  -24.7985  -12.7692   16.8703 N   0  0  0  0  0  0  0  0  0  0  0  0
  -21.1842  -29.3191   23.8817 N   0  0  0  0  0  0  0  0  0  0  0  0
  -27.3100  -28.5482   26.0988 N   0  0  0  0  0  0  0  0  0  0  0  0
  -29.2985  -25.5615   26.5389 N   0  3  0  0  0  0  0  0  0  0  0  0
  -26.5131  -13.9625   15.9243 O   0  0  0  0  0  0  0  0  0  0  0  0
  -23.0353  -29.5951   22.4961 O   0  0  0  0  0  0  0  0  0  0  0  0
  -24.4980  -29.0487   26.3241 O   0  0  0  0  0  0  0  0  0  0  0  0
  -25.9225  -20.3556   21.6950 O   0  0  0  0  0  0  0  0  0  0  0  0
  -28.5672  -27.3916   24.5307 O   0  0  0  0  0  0  0  0  0  0  0  0
  -21.0821  -10.8457   20.5477 O   0  0  0  0  0  0  0  0  0  0  0  0
  -25.5972  -25.5051   18.7022 O   0  0  0  0  0  0  0  0  0  1  0  0
  -21.5699   -5.6045   18.9059 F   0  0  0  0  0  0  0  0  0  0  0  0
  -21.0326   -8.7753   22.3791 F   0  0  0  0  0  0  0  0  0  0  0  0
  1  2  1  0  0  0  0
  1  5  2  0  0  0  0
  2  6  2  0  0  0  0
  3  8  2  0  0  0  0
  3 16  1  0  0  0  0
  4  9  1  0  0  0  0
  4 16  2  0  0  0  0
  5 18  1  0  0  0  0
  6 20  1  0  0  0  0
  7 10  2  0  0  0  0
  7 19  1  0  0  0  0
  8 22  1  0  0  0  0
  9 22  2  0  0  0  0
 10 23  1  0  0  0  0
 11 12  2  0  0  0  0
 11 24  1  0  0  0  0
 12 25  1  0  0  0  0
 13 21  1  0  0  0  0
 13 23  2  0  0  0  0
 14 25  2  0  0  0  0
 14 26  1  0  0  0  0
 15 28  1  0  0  0  0
 15 29  2  0  0  0  0
 16 27  1  0  0  0  0
 17 27  1  0  0  0  0
 17 30  2  0  0  0  0
 17 32  1  0  0  0  0
 18 20  2  0  0  0  0
 18 37  1  0  0  0  0
 19 21  2  0  0  0  0
 19 38  1  0  0  0  0
 20 46  1  0  0  0  0
 21 39  1  0  0  0  0
 22 84  1  0  0  0  0
 23 85  1  0  0  0  0
 24 26  2  0  0  0  0
 24 84  1  0  0  0  0
 25 86  1  0  0  0  0
 26 87  1  0  0  0  0
 27 68  2  0  0  0  0
 28 59  1  0  0  0  0
 28 69  2  0  0  0  0
 29 65  1  0  0  0  0
 29 70  1  0  0  0  0
 30 71  1  0  0  0  0
 30 74  1  0  0  0  0
 31 49  1  0  0  0  0
 31 69  1  0  0  0  0
 31 70  2  0  0  0  0
 32 75  1  0  0  0  0
 32 79  2  0  0  0  0
 33 47  1  0  0  0  0
 33 76  1  0  0  0  0
 33 80  2  0  0  0  0
 34 63  1  0  0  0  0
 34 72  1  0  0  0  0
 34 81  2  0  0  0  0
 35 66  1  0  0  0  0
 35 73  1  0  0  0  0
 35 82  2  0  0  0  0
 36 64  1  0  0  0  0
 36 77  1  0  0  0  0
 36 83  2  0  0  0  0
 37 40  1  0  0  0  0
 38 47  1  0  0  0  0
 39 72  1  0  0  0  0
 40 42  1  0  0  0  0
 41 43  1  0  0  0  0
 41 44  1  0  0  0  0
 42 46  1  0  0  0  0
 43 48  1  0  0  0  0
 44 73  1  0  0  0  0
 45 48  1  0  0  0  0
 45 73  1  0  0  0  0
 46 76  1  0  0  0  0
 47 72  1  0  0  0  0
 48 71  1  0  0  0  0
 50 64  1  0  0  0  0
 51 65  1  0  0  0  0
 52 65  1  0  0  0  0
 53 66  1  0  0  0  0
 54 66  1  0  0  0  0
 55 67  1  0  0  0  0
 56 67  1  0  0  0  0
 57 67  1  0  0  0  0
 58 78  1  0  0  0  0
 59 60  1  0  0  0  0
 60 61  1  0  0  0  0
 61 62  1  0  0  0  0
 62 85  1  0  0  0  0
 63 67  1  0  0  0  0
 63 77  1  0  0  0  0
 64 78  1  0  0  0  0
 65 66  1  0  0  0  0
 68 71  1  0  0  0  0
M  CHG  1  78   1
M  ISO  4  35 100  62 101  66 100  85 101
M  END
> <Batch ID>
0075

> <Smiles>
CNC(C)C(=O)NC(C(=O)N1Cc2cc([101O:1][101CH2:1]CCCc3cc(C(C)(C)[100C:0](C)(C)[100C:0](=O)N4CCCC(n5nc(-c6ccc(Oc7ccc(F)cc7F)cc6)c(C(N)=O)c5N)C4)nc(C)n3)ccc2CC1C(=O)NC1CCCc2ccccc21)C(C)(C)C

> <Shape>
0.227

> <Color>
0.082

> <Negative vol penalty>
0.000

$$$$

  -OEChem-04052318323D

 83 91  0     1  0  0  0  0  0999 V2000
  -21.9005  -11.1285   19.0550 C   0  0  0  0  0  0  0  0  0  0  0  0
  -21.6015  -12.4779   19.2139 C   0  0  0  0  0  0  0  0  0  0  0  0
  -30.9676  -25.3453   18.5258 C   0  0  0  0  0  0  0  0  0  0  0  0
  -31.7381  -26.5903   20.4477 C   0  0  0  0  0  0  0  0  0  0  0  0
  -23.0994  -10.6182   19.5512 C   0  0  0  0  0  0  0  0  0  0  0  0
  -22.5008  -13.3175   19.8701 C   0  0  0  0  0  0  0  0  0  0  0  0
  -23.6164  -19.2092   18.6253 C   0  0  0  0  0  0  0  0  0  0  0  0
  -32.2604  -25.3533   18.0023 C   0  0  0  0  0  0  0  0  0  0  0  0
  -33.0310  -26.5982   19.9242 C   0  0  0  0  0  0  0  0  0  0  0  0
  -23.1565  -20.3929   19.2008 C   0  0  0  0  0  0  0  0  0  0  0  0
  -34.2675  -27.5184   16.3566 C   0  0  0  0  0  0  0  0  0  0  0  0
  -34.4160  -27.8217   15.0032 C   0  0  0  0  0  0  0  0  0  0  0  0
  -25.1427  -20.4936   20.5662 C   0  0  0  0  0  0  0  0  0  0  0  0
  -35.4349  -25.6628   14.6313 C   0  0  0  0  0  0  0  0  0  0  0  0
  -23.2473  -25.5535   24.1975 C   0  0  0  0  0  0  0  0  0  0  0  0
  -22.4104  -27.2949   23.1476 C   0  0  0  0  0  0  0  0  0  0  0  0
  -30.7064  -25.9638   19.7485 C   0  0  0  0  0  0  0  0  0  0  0  0
  -28.8048  -24.9903   21.1426 C   0  0  0  0  0  0  0  0  0  0  0  0
  -24.0182  -11.4540   20.2053 C   0  0  0  0  0  0  0  0  0  0  0  0
  -24.8398  -18.6521   19.0245 C   0  0  0  0  0  0  0  0  0  0  0  0
  -23.7125  -12.8177   20.3767 C   0  0  0  0  0  0  0  0  0  0  0  0
  -25.6170  -19.3041   19.9924 C   0  0  0  0  0  0  0  0  0  0  0  0
  -22.1765  -25.9615   23.3797 C   0  0  0  0  0  0  0  0  0  0  0  0
  -33.2922  -25.9797   18.7015 C   0  0  0  0  0  0  0  0  0  0  0  0
  -23.9183  -21.0337   20.1735 C   0  0  0  0  0  0  0  0  0  0  0  0
  -34.7027  -26.2874   16.8473 C   0  0  0  0  0  0  0  0  0  0  0  0
  -34.9996  -26.8939   14.1406 C   0  0  0  0  0  0  0  0  0  0  0  0
  -35.2864  -25.3596   15.9847 C   0  0  0  0  0  0  0  0  0  0  0  0
  -29.3710  -25.9564   20.2896 C   0  0  0  0  0  0  0  0  0  0  0  0
  -27.5257  -25.4376   21.3668 C   0  0  0  0  0  0  0  0  0  0  0  0
  -29.3834  -23.7954   21.6841 C   0  0  0  0  0  0  0  0  0  0  0  0
  -25.7220  -15.9185   20.3856 C   0  0  0  0  0  0  0  0  0  0  0  0
  -24.0265  -29.6316   22.5732 C   0  0  0  0  0  0  0  0  0  0  0  0
  -28.7082  -17.0575   19.8312 C   0  0  0  0  0  0  0  0  0  0  0  0
  -30.7284  -19.7582   19.3100 C   0  0  0  0  0  0  0  0  0  0  0  0
  -25.2798  -10.8472   20.7663 C   0  0  0  0  0  0  0  0  0  0  0  0
  -25.3344  -17.3889   18.3748 C   0  0  0  0  0  0  0  0  0  0  0  0
  -26.9470  -18.7579   20.4412 C   0  0  0  0  0  0  0  0  0  0  0  0
  -26.3476  -11.8796   21.1190 C   0  0  0  0  0  0  0  0  0  0  0  0
  -24.8727  -29.1079   19.1309 C   0  0  0  0  0  0  0  0  0  0  0  0
  -25.7331  -13.0383   21.8979 C   0  0  0  0  0  0  0  0  0  0  0  0
  -26.0901  -28.1866   19.1967 C   0  0  0  0  0  0  0  0  0  0  0  0
  -24.8582  -30.0976   20.2917 C   0  0  0  0  0  0  0  0  0  0  0  0
  -26.1513  -28.5334   21.7069 C   0  0  0  0  0  0  0  0  0  0  0  0
  -24.6737  -13.7653   21.0609 C   0  0  1  0  0  0  0  0  0  0  0  0
  -26.3527  -16.6378   19.2270 C   0  0  1  0  0  0  0  0  0  0  0  0
  -26.1884  -27.4976   20.5693 C   0  0  2  0  0  0  0  0  0  0  0  0
  -23.7287  -29.7320   25.0383 C   0  0  0  0  0  0  0  0  0  0  0  0
  -33.1299  -20.3771   18.9265 C   0  0  0  0  0  0  0  0  0  0  0  0
  -20.2327  -24.5462   24.0784 C   0  0  0  0  0  0  0  0  0  0  0  0
  -19.9773  -25.9010   22.0189 C   0  0  0  0  0  0  0  0  0  0  0  0
  -29.2950  -16.6049   22.7910 C   0  0  0  0  0  0  0  0  0  0  0  0
  -31.2998  -18.0848   22.5483 C   0  0  0  0  0  0  0  0  0  0  0  0
  -31.1550  -15.9607   21.2484 C   0  0  0  0  0  0  0  0  0  0  0  0
  -30.1221  -20.9410   16.6657 C   0  0  0  0  0  0  0  0  0  0  0  0
  -22.2742  -24.2703   20.7322 C   0  0  0  0  0  0  0  0  0  0  0  0
  -21.5191  -23.8976   22.0138 C   0  0  0  0  0  0  0  0  0  0  0  0
  -22.6488  -23.0299   19.9297 C   0  0  0  0  0  0  0  0  0  1  0  0
  -24.2125  -28.8802   23.8674 C   0  0  1  0  0  0  0  0  0  0  0  0
  -29.6858  -17.9133   20.5999 C   0  0  1  0  0  0  0  0  0  0  0  0
  -31.8026  -20.0271   18.2717 C   0  0  2  0  0  0  0  0  0  0  0  0
  -21.0069  -25.1069   22.8586 C   0  0  0  0  0  0  0  0  0  0  0  0
  -30.3329  -17.1505   21.7901 C   0  0  0  0  0  0  0  0  0  0  0  0
  -24.0982  -26.5471   24.4667 N   0  0  0  0  0  0  0  0  0  0  0  0
  -28.5212  -26.9429   19.9918 N   0  0  0  0  0  0  0  0  0  0  0  0
  -23.5624  -27.5928   23.8143 N   0  0  0  0  0  0  0  0  0  0  0  0
  -27.4079  -26.5990   20.6615 N   0  0  0  0  0  0  0  0  0  0  0  0
  -27.3845  -17.5170   19.7808 N   0  0  0  0  0  0  0  0  0  0  0  0
  -24.9759  -29.4057   21.5764 N   0  0  0  0  0  0  0  0  0  0  0  0
  -26.5013  -24.9467   22.0963 N   0  0  0  0  0  0  0  0  0  0  0  0
  -30.7093  -23.4854   21.3524 N   0  0  0  0  0  0  0  0  0  0  0  0
  -25.3048  -14.6345   20.0910 N   0  0  0  0  0  0  0  0  0  0  0  0
  -30.6435  -18.4178   19.6218 N   0  0  0  0  0  0  0  0  0  0  0  0
  -31.3999  -21.1599   17.3911 N   0  3  0  0  0  0  0  0  0  0  0  0
  -28.7382  -23.0169   22.4266 O   0  0  0  0  0  0  0  0  0  0  0  0
  -25.6226  -16.4858   21.4673 O   0  0  0  0  0  0  0  0  0  0  0  0
  -23.0640  -30.3940   22.4527 O   0  0  0  0  0  0  0  0  0  0  0  0
  -29.1059  -16.0232   19.2892 O   0  0  0  0  0  0  0  0  0  0  0  0
  -30.0364  -20.6488   19.7986 O   0  0  0  0  0  0  0  0  0  0  0  0
  -34.5539  -25.9875   18.1910 O   0  0  0  0  0  0  0  0  0  0  0  0
  -23.4715  -22.1888   20.7373 O   0  0  0  0  0  0  0  0  0  1  0  0
  -35.1408  -27.1846   12.8407 F   0  0  0  0  0  0  0  0  0  0  0  0
  -35.7053  -24.1748   16.4501 F   0  0  0  0  0  0  0  0  0  0  0  0
  1  2  1  0  0  0  0
  1  5  2  0  0  0  0
  2  6  2  0  0  0  0
  3  8  2  0  0  0  0
  3 17  1  0  0  0  0
  4  9  1  0  0  0  0
  4 17  2  0  0  0  0
  5 19  1  0  0  0  0
  6 21  1  0  0  0  0
  7 10  2  0  0  0  0
  7 20  1  0  0  0  0
  8 24  1  0  0  0  0
  9 24  2  0  0  0  0
 10 25  1  0  0  0  0
 11 12  2  0  0  0  0
 11 26  1  0  0  0  0
 12 27  1  0  0  0  0
 13 22  1  0  0  0  0
 13 25  2  0  0  0  0
 14 27  2  0  0  0  0
 14 28  1  0  0  0  0
 15 23  1  0  0  0  0
 15 64  2  0  0  0  0
 16 23  2  0  0  0  0
 16 66  1  0  0  0  0
 17 29  1  0  0  0  0
 18 29  1  0  0  0  0
 18 30  2  0  0  0  0
 18 31  1  0  0  0  0
 19 21  2  0  0  0  0
 19 36  1  0  0  0  0
 20 22  2  0  0  0  0
 20 37  1  0  0  0  0
 21 45  1  0  0  0  0
 22 38  1  0  0  0  0
 23 62  1  0  0  0  0
 24 80  1  0  0  0  0
 25 81  1  0  0  0  0
 26 28  2  0  0  0  0
 26 80  1  0  0  0  0
 27 82  1  0  0  0  0
 28 83  1  0  0  0  0
 29 65  2  0  0  0  0
 30 67  1  0  0  0  0
 30 70  1  0  0  0  0
 31 71  1  0  0  0  0
 31 75  2  0  0  0  0
 32 46  1  0  0  0  0
 32 72  1  0  0  0  0
 32 76  2  0  0  0  0
 33 59  1  0  0  0  0
 33 69  1  0  0  0  0
 33 77  2  0  0  0  0
 34 60  1  0  0  0  0
 34 68  1  0  0  0  0
 34 78  2  0  0  0  0
 35 61  1  0  0  0  0
 35 73  1  0  0  0  0
 35 79  2  0  0  0  0
 36 39  1  0  0  0  0
 37 46  1  0  0  0  0
 38 68  1  0  0  0  0
 39 41  1  0  0  0  0
 40 42  1  0  0  0  0
 40 43  1  0  0  0  0
 41 45  1  0  0  0  0
 42 47  1  0  0  0  0
 43 69  1  0  0  0  0
 44 47  1  0  0  0  0
 44 69  1  0  0  0  0
 45 72  1  0  0  0  0
 46 68  1  0  0  0  0
 47 67  1  0  0  0  0
 48 59  1  0  0  0  0
 49 61  1  0  0  0  0
 50 62  1  0  0  0  0
 51 62  1  0  0  0  0
 52 63  1  0  0  0  0
 53 63  1  0  0  0  0
 54 63  1  0  0  0  0
 55 74  1  0  0  0  0
 56 57  1  0  0  0  0
 56 58  1  0  0  0  0
 57 62  1  0  0  0  0
 58 81  1  0  0  0  0
 59 66  1  0  0  0  0
 60 63  1  0  0  0  0
 60 73  1  0  0  0  0
 61 74  1  0  0  0  0
 64 66  1  0  0  0  0
 65 67  1  0  0  0  0
M  CHG  1  74   1
M  ISO  4  33 100  58 101  59 100  81 101
M  END
> <Batch ID>
0075

> <Smiles>
CNC(C)C(=O)NC(C(=O)N1Cc2cc([101O:1][101CH2:1]CCC(C)(C)c3cnn([100CH:0](C)[100C:0](=O)N4CCCC(n5nc(-c6ccc(Oc7ccc(F)cc7F)cc6)c(C(N)=O)c5N)C4)c3)ccc2CC1C(=O)NC1CCCc2ccccc21)C(C)(C)C

> <Shape>
0.199

> <Color>
0.071

> <Negative vol penalty>
0.000

$$$$

  -OEChem-04052318323D

 83 91  0     1  0  0  0  0  0999 V2000
  -30.2330  -12.7643   20.0415 C   0  0  0  0  0  0  0  0  0  0  0  0
  -29.9754  -14.1037   20.3154 C   0  0  0  0  0  0  0  0  0  0  0  0
  -29.8907  -25.7150   21.3236 C   0  0  0  0  0  0  0  0  0  0  0  0
  -28.1031  -24.2615   20.5963 C   0  0  0  0  0  0  0  0  0  0  0  0
  -29.2740  -11.9903   19.3894 C   0  0  0  0  0  0  0  0  0  0  0  0
  -28.7590  -14.6702   19.9363 C   0  0  0  0  0  0  0  0  0  0  0  0
  -25.6192  -18.9928   22.9301 C   0  0  0  0  0  0  0  0  0  0  0  0
  -30.4989  -24.6415   21.9741 C   0  0  0  0  0  0  0  0  0  0  0  0
  -28.7114  -23.1879   21.2467 C   0  0  0  0  0  0  0  0  0  0  0  0
  -25.5279  -20.3735   22.7596 C   0  0  0  0  0  0  0  0  0  0  0  0
  -29.9798  -19.9864   22.4128 C   0  0  0  0  0  0  0  0  0  0  0  0
  -30.0631  -18.7746   21.7271 C   0  0  0  0  0  0  0  0  0  0  0  0
  -19.2464  -26.7156   23.5031 C   0  0  0  0  0  0  0  0  0  0  0  0
  -23.5198  -20.0738   21.4570 C   0  0  0  0  0  0  0  0  0  0  0  0
  -31.3584  -19.8457   19.9915 C   0  0  0  0  0  0  0  0  0  0  0  0
  -18.1728  -27.4847   23.1119 C   0  0  0  0  0  0  0  0  0  0  0  0
  -28.6927  -25.5250   20.6347 C   0  0  0  0  0  0  0  0  0  0  0  0
  -28.2673  -27.0484   18.6332 C   0  0  0  0  0  0  0  0  0  0  0  0
  -28.0414  -12.5451   19.0108 C   0  0  0  0  0  0  0  0  0  0  0  0
  -24.6660  -18.1401   22.3552 C   0  0  0  0  0  0  0  0  0  0  0  0
  -27.7831  -13.9033   19.2774 C   0  0  0  0  0  0  0  0  0  0  0  0
  -23.5999  -18.6828   21.6238 C   0  0  0  0  0  0  0  0  0  0  0  0
  -20.2971  -26.9569   22.5839 C   0  0  0  0  0  0  0  0  0  0  0  0
  -29.9093  -23.3779   21.9357 C   0  0  0  0  0  0  0  0  0  0  0  0
  -24.4797  -20.9140   22.0205 C   0  0  0  0  0  0  0  0  0  0  0  0
  -30.5856  -21.1279   21.8878 C   0  0  0  0  0  0  0  0  0  0  0  0
  -30.7525  -18.7042   20.5165 C   0  0  0  0  0  0  0  0  0  0  0  0
  -31.2750  -21.0576   20.6772 C   0  0  0  0  0  0  0  0  0  0  0  0
  -28.0636  -26.6337   19.9630 C   0  0  0  0  0  0  0  0  0  0  0  0
  -19.8336  -27.8663   21.6590 C   0  0  0  0  0  0  0  0  0  0  0  0
  -27.4426  -28.1364   18.4828 C   0  0  0  0  0  0  0  0  0  0  0  0
  -29.1250  -26.4991   17.6241 C   0  0  0  0  0  0  0  0  0  0  0  0
  -24.7537  -15.8092   20.1959 C   0  0  0  0  0  0  0  0  0  0  0  0
  -21.6369  -15.4559   21.0221 C   0  0  0  0  0  0  0  0  0  0  0  0
  -18.8072  -16.8542   22.3198 C   0  0  0  0  0  0  0  0  0  0  0  0
  -22.4179  -29.8576   21.2470 C   0  0  0  0  0  0  0  0  0  0  0  0
  -27.0546  -11.6813   18.2660 C   0  0  0  0  0  0  0  0  0  0  0  0
  -24.7637  -16.6547   22.5709 C   0  0  0  0  0  0  0  0  0  0  0  0
  -22.5393  -17.8119   21.0032 C   0  0  0  0  0  0  0  0  0  0  0  0
  -25.6425  -12.2602   18.2321 C   0  0  0  0  0  0  0  0  0  0  0  0
  -25.4527  -31.7002   20.9789 C   0  0  0  0  0  0  0  0  0  0  0  0
  -25.6808  -13.7398   17.8634 C   0  0  0  0  0  0  0  0  0  0  0  0
  -26.4843  -30.6481   20.5682 C   0  0  0  0  0  0  0  0  0  0  0  0
  -24.4226  -31.1308   21.9519 C   0  0  0  0  0  0  0  0  0  0  0  0
  -24.7759  -28.8536   21.0781 C   0  0  0  0  0  0  0  0  0  0  0  0
  -26.4656  -14.5476   18.9041 C   0  0  1  0  0  0  0  0  0  0  0  0
  -24.0243  -15.8468   21.5089 C   0  0  1  0  0  0  0  0  0  0  0  0
  -25.8031  -29.3656   20.0538 C   0  0  2  0  0  0  0  0  0  0  0  0
  -20.3135  -27.6546   19.1919 C   0  0  0  0  0  0  0  0  0  0  0  0
  -16.4073  -16.3296   22.8326 C   0  0  0  0  0  0  0  0  0  0  0  0
  -20.9538  -15.6948   18.0579 C   0  0  0  0  0  0  0  0  0  0  0  0
  -18.5744  -16.1180   18.7118 C   0  0  0  0  0  0  0  0  0  0  0  0
  -19.6574  -13.9464   19.2896 C   0  0  0  0  0  0  0  0  0  0  0  0
  -17.6831  -29.1008   21.2773 C   0  0  0  0  0  0  0  0  0  0  0  0
  -19.1956  -17.3508   25.2114 C   0  0  0  0  0  0  0  0  0  0  0  0
  -21.6678  -26.3294   22.6189 C   0  0  0  0  0  0  0  0  0  0  0  0
  -21.6975  -24.8788   22.1247 C   0  0  0  0  0  0  0  0  0  0  0  0
  -23.0801  -24.2353   22.2398 C   0  0  0  0  0  0  0  0  0  0  0  0
  -23.0798  -22.8102   21.7034 C   0  0  0  0  0  0  0  0  0  1  0  0
  -20.5097  -28.4642   20.4880 C   0  0  2  0  0  0  0  0  0  0  0  0
  -20.3303  -16.0384   20.5397 C   0  0  1  0  0  0  0  0  0  0  0  0
  -17.8295  -16.3593   23.3704 C   0  0  2  0  0  0  0  0  0  0  0  0
  -19.8999  -15.4660   19.1597 C   0  0  0  0  0  0  0  0  0  0  0  0
  -27.1792  -27.3963   20.6112 N   0  0  0  0  0  0  0  0  0  0  0  0
  -18.5413  -28.1803   21.9900 N   0  0  0  0  0  0  0  0  0  0  0  0
  -26.8198  -28.3011   19.6849 N   0  0  0  0  0  0  0  0  0  0  0  0
  -22.6821  -16.3653   21.2370 N   0  0  0  0  0  0  0  0  0  0  0  0
  -23.8125  -29.9170   21.4037 N   0  0  0  0  0  0  0  0  0  0  0  0
  -27.1969  -28.9589   17.4408 N   0  0  0  0  0  0  0  0  0  0  0  0
  -29.9047  -25.3800   17.9467 N   0  0  0  0  0  0  0  0  0  0  0  0
  -25.6584  -14.7706   20.0844 N   0  0  0  0  0  0  0  0  0  0  0  0
  -19.3633  -15.8122   21.6084 N   0  0  0  0  0  0  0  0  0  0  0  0
  -21.9223  -28.6736   20.7147 N   0  0  0  0  0  0  0  0  0  0  0  0
  -17.8612  -17.2474   24.5667 N   0  3  0  0  0  0  0  0  0  0  0  0
  -29.2102  -26.9963   16.4756 O   0  0  0  0  0  0  0  0  0  0  0  0
  -24.5125  -16.6586   19.3462 O   0  0  0  0  0  0  0  0  0  0  0  0
  -21.7246  -14.2396   21.2083 O   0  0  0  0  0  0  0  0  0  0  0  0
  -19.0501  -18.0463   22.1450 O   0  0  0  0  0  0  0  0  0  0  0  0
  -21.6704  -30.7926   21.5534 O   0  0  0  0  0  0  0  0  0  0  0  0
  -30.5027  -22.3301   22.5701 O   0  0  0  0  0  0  0  0  0  0  0  0
  -24.3886  -22.2613   21.8520 O   0  0  0  0  0  0  0  0  0  1  0  0
  -30.8337  -17.5401   19.8589 F   0  0  0  0  0  0  0  0  0  0  0  0
  -31.8601  -22.1506   20.1685 F   0  0  0  0  0  0  0  0  0  0  0  0
  1  2  1  0  0  0  0
  1  5  2  0  0  0  0
  2  6  2  0  0  0  0
  3  8  2  0  0  0  0
  3 17  1  0  0  0  0
  4  9  1  0  0  0  0
  4 17  2  0  0  0  0
  5 19  1  0  0  0  0
  6 21  1  0  0  0  0
  7 10  2  0  0  0  0
  7 20  1  0  0  0  0
  8 24  1  0  0  0  0
  9 24  2  0  0  0  0
 10 25  1  0  0  0  0
 11 12  2  0  0  0  0
 11 26  1  0  0  0  0
 12 27  1  0  0  0  0
 13 16  2  0  0  0  0
 13 23  1  0  0  0  0
 14 22  1  0  0  0  0
 14 25  2  0  0  0  0
 15 27  2  0  0  0  0
 15 28  1  0  0  0  0
 16 65  1  0  0  0  0
 17 29  1  0  0  0  0
 18 29  1  0  0  0  0
 18 31  2  0  0  0  0
 18 32  1  0  0  0  0
 19 21  2  0  0  0  0
 19 37  1  0  0  0  0
 20 22  2  0  0  0  0
 20 38  1  0  0  0  0
 21 46  1  0  0  0  0
 22 39  1  0  0  0  0
 23 30  2  0  0  0  0
 23 56  1  0  0  0  0
 24 80  1  0  0  0  0
 25 81  1  0  0  0  0
 26 28  2  0  0  0  0
 26 80  1  0  0  0  0
 27 82  1  0  0  0  0
 28 83  1  0  0  0  0
 29 64  2  0  0  0  0
 30 60  1  0  0  0  0
 30 65  1  0  0  0  0
 31 66  1  0  0  0  0
 31 69  1  0  0  0  0
 32 70  1  0  0  0  0
 32 75  2  0  0  0  0
 33 47  1  0  0  0  0
 33 71  1  0  0  0  0
 33 76  2  0  0  0  0
 34 61  1  0  0  0  0
 34 67  1  0  0  0  0
 34 77  2  0  0  0  0
 35 62  1  0  0  0  0
 35 72  1  0  0  0  0
 35 78  2  0  0  0  0
 36 68  1  0  0  0  0
 36 73  1  0  0  0  0
 36 79  2  0  0  0  0
 37 40  1  0  0  0  0
 38 47  1  0  0  0  0
 39 67  1  0  0  0  0
 40 42  1  0  0  0  0
 41 43  1  0  0  0  0
 41 44  1  0  0  0  0
 42 46  1  0  0  0  0
 43 48  1  0  0  0  0
 44 68  1  0  0  0  0
 45 48  1  0  0  0  0
 45 68  1  0  0  0  0
 46 71  1  0  0  0  0
 47 67  1  0  0  0  0
 48 66  1  0  0  0  0
 49 60  1  0  0  0  0
 50 62  1  0  0  0  0
 51 63  1  0  0  0  0
 52 63  1  0  0  0  0
 53 63  1  0  0  0  0
 54 65  1  0  0  0  0
 55 74  1  0  0  0  0
 56 57  1  0  0  0  0
 57 58  1  0  0  0  0
 58 59  1  0  0  0  0
 59 81  1  0  0  0  0
 60 73  1  0  0  0  0
 61 63  1  0  0  0  0
 61 72  1  0  0  0  0
 62 74  1  0  0  0  0
 64 66  1  0  0  0  0
M  CHG  1  74   1
M  ISO  4  36 100  59 101  73 100  81 101
M  END
> <Batch ID>
0075

> <Smiles>
CNC(C)C(=O)NC(C(=O)N1Cc2cc([101O:1][101CH2:1]CCCc3ccn(C)c3C(C)[100NH:0][100C:0](=O)N3CCCC(n4nc(-c5ccc(Oc6ccc(F)cc6F)cc5)c(C(N)=O)c4N)C3)ccc2CC1C(=O)NC1CCCc2ccccc21)C(C)(C)C

> <Shape>
0.214

> <Color>
0.077

> <Negative vol penalty>
0.000

$$$$

  -OEChem-04052318323D

 85 93  0     1  0  0  0  0  0999 V2000
  -18.9437  -33.6637   22.2729 C   0  0  0  0  0  0  0  0  0  0  0  0
  -20.2822  -33.5123   21.9253 C   0  0  0  0  0  0  0  0  0  0  0  0
  -26.8443  -17.9829   18.9520 C   0  0  0  0  0  0  0  0  0  0  0  0
  -29.1017  -17.6350   19.7394 C   0  0  0  0  0  0  0  0  0  0  0  0
  -18.3136  -32.6955   23.0537 C   0  0  0  0  0  0  0  0  0  0  0  0
  -20.9918  -32.3932   22.3592 C   0  0  0  0  0  0  0  0  0  0  0  0
  -25.4113  -29.4321   19.3250 C   0  0  0  0  0  0  0  0  0  0  0  0
  -26.5059  -16.6898   19.3505 C   0  0  0  0  0  0  0  0  0  0  0  0
  -28.7634  -16.3419   20.1380 C   0  0  0  0  0  0  0  0  0  0  0  0
  -26.8022  -29.4883   19.4029 C   0  0  0  0  0  0  0  0  0  0  0  0
  -28.3263  -13.3209   18.6843 C   0  0  0  0  0  0  0  0  0  0  0  0
  -29.2123  -12.2918   18.3656 C   0  0  0  0  0  0  0  0  0  0  0  0
  -26.7903  -27.5817   20.8807 C   0  0  0  0  0  0  0  0  0  0  0  0
  -32.8622  -25.8112   19.8377 C   0  0  0  0  0  0  0  0  0  0  0  0
  -32.6983  -26.0686   17.4521 C   0  0  0  0  0  0  0  0  0  0  0  0
  -29.4775  -11.7927   20.7146 C   0  0  0  0  0  0  0  0  0  0  0  0
  -28.1422  -18.4556   19.1463 C   0  0  0  0  0  0  0  0  0  0  0  0
  -28.4062  -20.9678   19.5022 C   0  0  0  0  0  0  0  0  0  0  0  0
  -19.0133  -31.5591   23.4893 C   0  0  0  0  0  0  0  0  0  0  0  0
  -24.6975  -28.4554   20.0342 C   0  0  0  0  0  0  0  0  0  0  0  0
  -20.3709  -31.4095   23.1476 C   0  0  0  0  0  0  0  0  0  0  0  0
  -25.3906  -27.5137   20.8081 C   0  0  0  0  0  0  0  0  0  0  0  0
  -32.1603  -26.2514   18.7211 C   0  0  0  0  0  0  0  0  0  0  0  0
  -27.4654  -15.8693   19.9436 C   0  0  0  0  0  0  0  0  0  0  0  0
  -27.4917  -28.5648   20.1831 C   0  0  0  0  0  0  0  0  0  0  0  0
  -28.0160  -13.5859   20.0181 C   0  0  0  0  0  0  0  0  0  0  0  0
  -29.7879  -11.5277   19.3807 C   0  0  0  0  0  0  0  0  0  0  0  0
  -28.5916  -12.8218   21.0333 C   0  0  0  0  0  0  0  0  0  0  0  0
  -28.4925  -19.7911   18.7343 C   0  0  0  0  0  0  0  0  0  0  0  0
  -34.0883  -25.1991   19.6333 C   0  0  0  0  0  0  0  0  0  0  0  0
  -33.9318  -25.4451   17.3544 C   0  0  0  0  0  0  0  0  0  0  0  0
  -28.8526  -21.9591   18.6628 C   0  0  0  0  0  0  0  0  0  0  0  0
  -27.9622  -21.1486   20.8534 C   0  0  0  0  0  0  0  0  0  0  0  0
  -22.5114  -28.5077   22.3411 C   0  0  0  0  0  0  0  0  0  0  0  0
  -22.4236  -25.3113   21.7953 C   0  0  0  0  0  0  0  0  0  0  0  0
  -24.0160  -22.5260   20.6321 C   0  0  0  0  0  0  0  0  0  0  0  0
  -32.7666  -22.8582   14.4931 C   0  0  0  0  0  0  0  0  0  0  0  0
  -18.3027  -30.5629   24.3710 C   0  0  0  0  0  0  0  0  0  0  0  0
  -23.1992  -28.3917   19.9184 C   0  0  0  0  0  0  0  0  0  0  0  0
  -24.6726  -26.4328   21.5727 C   0  0  0  0  0  0  0  0  0  0  0  0
  -19.0224  -29.2209   24.4766 C   0  0  0  0  0  0  0  0  0  0  0  0
  -29.3080  -22.4325   13.7627 C   0  0  0  0  0  0  0  0  0  0  0  0
  -20.5110  -29.4322   24.7340 C   0  0  0  0  0  0  0  0  0  0  0  0
  -28.7371  -21.8173   15.0417 C   0  0  0  0  0  0  0  0  0  0  0  0
  -30.7159  -21.9189   13.4692 C   0  0  0  0  0  0  0  0  0  0  0  0
  -31.1037  -21.4557   15.8585 C   0  0  0  0  0  0  0  0  0  0  0  0
  -21.1676  -30.1971   23.5783 C   0  0  1  0  0  0  0  0  0  0  0  0
  -22.5393  -27.6737   21.0916 C   0  0  1  0  0  0  0  0  0  0  0  0
  -29.7073  -21.9857   16.2264 C   0  0  2  0  0  0  0  0  0  0  0  0
  -34.5296  -23.2700   21.1729 C   0  0  0  0  0  0  0  0  0  0  0  0
  -35.8673  -26.0040   15.8493 C   0  0  0  0  0  0  0  0  0  0  0  0
  -23.7054  -20.0515   20.3526 C   0  0  0  0  0  0  0  0  0  0  0  0
  -22.9180  -24.9146   24.7799 C   0  0  0  0  0  0  0  0  0  0  0  0
  -23.5374  -22.5386   24.2906 C   0  0  0  0  0  0  0  0  0  0  0  0
  -21.2351  -23.3550   23.7849 C   0  0  0  0  0  0  0  0  0  0  0  0
  -24.2863  -22.7071   17.6905 C   0  0  0  0  0  0  0  0  0  0  0  0
  -30.8205  -26.9233   18.8857 C   0  0  0  0  0  0  0  0  0  0  0  0
  -34.8689  -24.7126   20.8083 C   0  0  0  0  0  0  0  0  0  0  0  0
  -30.9088  -28.4428   19.0430 C   0  0  0  0  0  0  0  0  0  0  0  0
  -34.7686  -23.7429   15.6631 C   0  0  0  0  0  0  0  0  0  0  0  0
  -29.5463  -29.1217   19.1228 C   0  0  0  0  0  0  0  0  0  1  0  0
  -34.5399  -25.2342   16.0081 C   0  0  1  0  0  0  0  0  0  0  0  0
  -23.1647  -24.1133   22.3380 C   0  0  1  0  0  0  0  0  0  0  0  0
  -23.5568  -21.4179   19.7016 C   0  0  2  0  0  0  0  0  0  0  0  0
  -22.7275  -23.7518   23.7856 C   0  0  0  0  0  0  0  0  0  0  0  0
  -28.9571  -20.0126   17.5018 N   0  0  0  0  0  0  0  0  0  0  0  0
  -34.6432  -25.0040   18.4160 N   0  0  0  0  0  0  0  0  0  0  0  0
  -29.1666  -21.3400   17.4888 N   0  0  0  0  0  0  0  0  0  0  0  0
  -23.2071  -26.4159   21.4325 N   0  0  0  0  0  0  0  0  0  0  0  0
  -31.5863  -22.1095   14.6319 N   0  0  0  0  0  0  0  0  0  0  0  0
  -29.0032  -23.2912   18.8218 N   0  0  0  0  0  0  0  0  0  0  0  0
  -27.5370  -20.0237   21.5732 N   0  0  0  0  0  0  0  0  0  0  0  0
  -21.3958  -29.3153   22.4537 N   0  0  0  0  0  0  0  0  0  0  0  0
  -22.9702  -23.0398   21.3694 N   0  0  0  0  0  0  0  0  0  0  0  0
  -33.5307  -22.9958   15.6455 N   0  0  0  0  0  0  0  0  0  0  0  0
  -24.3595  -21.4300   18.4460 N   0  3  0  0  0  0  0  0  0  0  0  0
  -27.9277  -22.2768   21.4008 O   0  0  0  0  0  0  0  0  0  0  0  0
  -23.4330  -28.4235   23.1443 O   0  0  0  0  0  0  0  0  0  0  0  0
  -21.1954  -25.2659   21.6903 O   0  0  0  0  0  0  0  0  0  0  0  0
  -25.1860  -22.8960   20.7009 O   0  0  0  0  0  0  0  0  0  0  0  0
  -33.1111  -23.3710   13.4229 O   0  0  0  0  0  0  0  0  0  0  0  0
  -27.1356  -14.6074   20.3329 O   0  0  0  0  0  0  0  0  0  0  0  0
  -28.8493  -28.6177   20.2614 O   0  0  0  0  0  0  0  0  0  1  0  0
  -30.6375  -10.5385   19.0744 F   0  0  0  0  0  0  0  0  0  0  0  0
  -28.2963  -13.0709   22.3165 F   0  0  0  0  0  0  0  0  0  0  0  0
  1  2  1  0  0  0  0
  1  5  2  0  0  0  0
  2  6  2  0  0  0  0
  3  8  2  0  0  0  0
  3 17  1  0  0  0  0
  4  9  1  0  0  0  0
  4 17  2  0  0  0  0
  5 19  1  0  0  0  0
  6 21  1  0  0  0  0
  7 10  2  0  0  0  0
  7 20  1  0  0  0  0
  8 24  1  0  0  0  0
  9 24  2  0  0  0  0
 10 25  1  0  0  0  0
 11 12  2  0  0  0  0
 11 26  1  0  0  0  0
 12 27  1  0  0  0  0
 13 22  1  0  0  0  0
 13 25  2  0  0  0  0
 14 23  2  0  0  0  0
 14 30  1  0  0  0  0
 15 23  1  0  0  0  0
 15 31  2  0  0  0  0
 16 27  2  0  0  0  0
 16 28  1  0  0  0  0
 17 29  1  0  0  0  0
 18 29  1  0  0  0  0
 18 32  2  0  0  0  0
 18 33  1  0  0  0  0
 19 21  2  0  0  0  0
 19 38  1  0  0  0  0
 20 22  2  0  0  0  0
 20 39  1  0  0  0  0
 21 47  1  0  0  0  0
 22 40  1  0  0  0  0
 23 57  1  0  0  0  0
 24 82  1  0  0  0  0
 25 83  1  0  0  0  0
 26 28  2  0  0  0  0
 26 82  1  0  0  0  0
 27 84  1  0  0  0  0
 28 85  1  0  0  0  0
 29 66  2  0  0  0  0
 30 58  1  0  0  0  0
 30 67  2  0  0  0  0
 31 62  1  0  0  0  0
 31 67  1  0  0  0  0
 32 68  1  0  0  0  0
 32 71  1  0  0  0  0
 33 72  1  0  0  0  0
 33 77  2  0  0  0  0
 34 48  1  0  0  0  0
 34 73  1  0  0  0  0
 34 78  2  0  0  0  0
 35 63  1  0  0  0  0
 35 69  1  0  0  0  0
 35 79  2  0  0  0  0
 36 64  1  0  0  0  0
 36 74  1  0  0  0  0
 36 80  2  0  0  0  0
 37 70  1  0  0  0  0
 37 75  1  0  0  0  0
 37 81  2  0  0  0  0
 38 41  1  0  0  0  0
 39 48  1  0  0  0  0
 40 69  1  0  0  0  0
 41 43  1  0  0  0  0
 42 44  1  0  0  0  0
 42 45  1  0  0  0  0
 43 47  1  0  0  0  0
 44 49  1  0  0  0  0
 45 70  1  0  0  0  0
 46 49  1  0  0  0  0
 46 70  1  0  0  0  0
 47 73  1  0  0  0  0
 48 69  1  0  0  0  0
 49 68  1  0  0  0  0
 50 58  1  0  0  0  0
 51 62  1  0  0  0  0
 52 64  1  0  0  0  0
 53 65  1  0  0  0  0
 54 65  1  0  0  0  0
 55 65  1  0  0  0  0
 56 76  1  0  0  0  0
 57 59  1  0  0  0  0
 59 61  1  0  0  0  0
 60 62  1  0  0  0  0
 60 75  1  0  0  0  0
 61 83  1  0  0  0  0
 63 65  1  0  0  0  0
 63 74  1  0  0  0  0
 64 76  1  0  0  0  0
 66 68  1  0  0  0  0
M  CHG  1  76   1
M  ISO  4  37 100  61 101  75 100  83 101
M  END
> <Batch ID>
0075

> <Smiles>
CCc1cc(CC[101CH2:1][101O:1]c2ccc3c(c2)CN(C(=O)C(NC(=O)C(C)NC)C(C)(C)C)C(C(=O)NC2CCCc4ccccc42)C3)cc(C(C)C[100NH:0][100C:0](=O)N2CCCC(n3nc(-c4ccc(Oc5ccc(F)cc5F)cc4)c(C(N)=O)c3N)C2)n1

> <Shape>
0.192

> <Color>
0.089

> <Negative vol penalty>
0.000

$$$$

  -OEChem-04052318323D

 83 91  0     1  0  0  0  0  0999 V2000
  -18.9519  -28.6017   26.5573 C   0  0  0  0  0  0  0  0  0  0  0  0
  -20.3242  -28.4148   26.4263 C   0  0  0  0  0  0  0  0  0  0  0  0
  -24.2546  -18.3140   21.5837 C   0  0  0  0  0  0  0  0  0  0  0  0
  -26.3944  -17.6472   20.6817 C   0  0  0  0  0  0  0  0  0  0  0  0
  -18.1337  -28.5659   25.4289 C   0  0  0  0  0  0  0  0  0  0  0  0
  -20.8791  -28.1908   25.1668 C   0  0  0  0  0  0  0  0  0  0  0  0
  -26.3510  -30.0782   23.1662 C   0  0  0  0  0  0  0  0  0  0  0  0
  -23.7057  -17.0963   21.1817 C   0  0  0  0  0  0  0  0  0  0  0  0
  -25.8455  -16.4295   20.2797 C   0  0  0  0  0  0  0  0  0  0  0  0
  -27.5844  -29.4365   23.0631 C   0  0  0  0  0  0  0  0  0  0  0  0
  -25.0977  -12.9987   19.3371 C   0  0  0  0  0  0  0  0  0  0  0  0
  -25.8310  -11.8400   19.5928 C   0  0  0  0  0  0  0  0  0  0  0  0
  -27.1185  -28.9252   20.7521 C   0  0  0  0  0  0  0  0  0  0  0  0
  -25.7576  -12.3160   21.9603 C   0  0  0  0  0  0  0  0  0  0  0  0
  -25.5990  -18.5894   21.3336 C   0  0  0  0  0  0  0  0  0  0  0  0
  -26.7777  -20.1386   22.9823 C   0  0  0  0  0  0  0  0  0  0  0  0
  -18.6801  -28.3510   24.1538 C   0  0  0  0  0  0  0  0  0  0  0  0
  -25.4859  -30.1388   22.0642 C   0  0  0  0  0  0  0  0  0  0  0  0
  -20.0674  -28.1508   24.0204 C   0  0  0  0  0  0  0  0  0  0  0  0
  -25.8758  -29.5705   20.8431 C   0  0  0  0  0  0  0  0  0  0  0  0
  -24.5011  -16.1541   20.5298 C   0  0  0  0  0  0  0  0  0  0  0  0
  -27.9671  -28.8574   21.8568 C   0  0  0  0  0  0  0  0  0  0  0  0
  -24.6945  -13.8161   20.3930 C   0  0  0  0  0  0  0  0  0  0  0  0
  -26.1609  -11.4986   20.9044 C   0  0  0  0  0  0  0  0  0  0  0  0
  -25.0244  -13.4747   21.7046 C   0  0  0  0  0  0  0  0  0  0  0  0
  -26.1665  -19.8473   21.7481 C   0  0  0  0  0  0  0  0  0  0  0  0
  -31.8932  -24.7061   20.3293 C   0  0  0  0  0  0  0  0  0  0  0  0
  -32.0993  -23.3510   20.2204 C   0  0  0  0  0  0  0  0  0  0  0  0
  -27.1466  -21.4577   22.8800 C   0  0  0  0  0  0  0  0  0  0  0  0
  -30.4867  -24.0313   18.8812 C   0  0  0  0  0  0  0  0  0  0  0  0
  -26.9930  -19.2925   24.1196 C   0  0  0  0  0  0  0  0  0  0  0  0
  -22.5584  -29.0643   21.4488 C   0  0  0  0  0  0  0  0  0  0  0  0
  -28.3099  -24.9413   18.1236 C   0  0  0  0  0  0  0  0  0  0  0  0
  -22.9331  -30.7607   18.7095 C   0  0  0  0  0  0  0  0  0  0  0  0
  -25.0591  -32.1472   16.4282 C   0  0  0  0  0  0  0  0  0  0  0  0
  -17.7499  -28.2736   22.9691 C   0  0  0  0  0  0  0  0  0  0  0  0
  -24.1702  -30.8579   22.1841 C   0  0  0  0  0  0  0  0  0  0  0  0
  -24.9922  -29.6258   19.6246 C   0  0  0  0  0  0  0  0  0  0  0  0
  -18.4627  -28.4040   21.6255 C   0  0  0  0  0  0  0  0  0  0  0  0
  -25.9197  -25.5406   20.7251 C   0  0  0  0  0  0  0  0  0  0  0  0
  -19.7016  -27.5147   21.5899 C   0  0  0  0  0  0  0  0  0  0  0  0
  -25.7463  -24.1690   21.3761 C   0  0  0  0  0  0  0  0  0  0  0  0
  -26.1466  -25.4202   19.2214 C   0  0  0  0  0  0  0  0  0  0  0  0
  -27.1198  -23.1624   19.4986 C   0  0  0  0  0  0  0  0  0  0  0  0
  -20.7098  -27.9299   22.6682 C   0  0  1  0  0  0  0  0  0  0  0  0
  -23.1484  -30.4118   21.1428 C   0  0  1  0  0  0  0  0  0  0  0  0
  -26.9188  -23.2370   21.0225 C   0  0  2  0  0  0  0  0  0  0  0  0
  -33.0458  -22.4431   20.8931 C   0  0  0  0  0  0  0  0  0  0  0  0
  -29.9128  -24.1328   16.4211 C   0  0  0  0  0  0  0  0  0  0  0  0
  -25.0703  -33.4379   14.2761 C   0  0  0  0  0  0  0  0  0  0  0  0
  -22.2111  -28.2187   17.1840 C   0  0  0  0  0  0  0  0  0  0  0  0
  -23.1480  -29.2762   15.1171 C   0  0  0  0  0  0  0  0  0  0  0  0
  -21.1912  -30.3103   16.2679 C   0  0  0  0  0  0  0  0  0  0  0  0
  -31.0107  -21.5773   18.8208 C   0  0  0  0  0  0  0  0  0  0  0  0
  -26.4773  -34.4292   17.6693 C   0  0  0  0  0  0  0  0  0  0  0  0
  -32.6113  -25.6957   21.2119 C   0  0  0  0  0  0  0  0  0  0  0  0
  -31.7359  -26.8688   21.6666 C   0  0  0  0  0  0  0  0  0  0  0  0
  -30.5555  -26.4331   22.5359 C   0  0  0  0  0  0  0  0  0  0  0  0
  -29.6874  -27.6188   22.9349 C   0  0  0  0  0  0  0  0  0  1  0  0
  -29.4152  -23.9480   17.8673 C   0  0  1  0  0  0  0  0  0  0  0  0
  -23.4787  -30.4630   17.3337 C   0  0  1  0  0  0  0  0  0  0  0  0
  -25.0965  -33.5260   15.7941 C   0  0  2  0  0  0  0  0  0  0  0  0
  -22.5233  -29.5642   16.4990 C   0  0  0  0  0  0  0  0  0  0  0  0
  -26.1460  -20.8969   20.9224 N   0  0  0  0  0  0  0  0  0  0  0  0
  -30.8879  -25.1233   19.4933 N   0  0  0  0  0  0  0  0  0  0  0  0
  -31.1907  -22.9326   19.2895 N   0  0  0  0  0  0  0  0  0  0  0  0
  -26.7490  -21.8607   21.6391 N   0  0  0  0  0  0  0  0  0  0  0  0
  -23.7129  -30.3345   19.7939 N   0  0  0  0  0  0  0  0  0  0  0  0
  -27.2539  -24.5092   18.9262 N   0  0  0  0  0  0  0  0  0  0  0  0
  -27.7689  -22.3006   23.7312 N   0  0  0  0  0  0  0  0  0  0  0  0
  -26.5516  -17.9637   24.0569 N   0  0  0  0  0  0  0  0  0  0  0  0
  -21.4358  -29.1111   22.2533 N   0  0  0  0  0  0  0  0  0  0  0  0
  -23.7703  -31.7549   16.7219 N   0  0  0  0  0  0  0  0  0  0  0  0
  -26.3336  -34.2502   16.2015 N   0  3  0  0  0  0  0  0  0  0  0  0
  -27.5452  -19.7072   25.1668 O   0  0  0  0  0  0  0  0  0  0  0  0
  -23.0819  -28.0567   20.9878 O   0  0  0  0  0  0  0  0  0  0  0  0
  -28.3860  -26.0681   17.6269 O   0  0  0  0  0  0  0  0  0  0  0  0
  -21.8581  -31.3561   18.8179 O   0  0  0  0  0  0  0  0  0  0  0  0
  -26.0717  -31.4830   16.6382 O   0  0  0  0  0  0  0  0  0  0  0  0
  -23.9659  -14.9657   20.1376 O   0  0  0  0  0  0  0  0  0  0  0  0
  -29.1702  -28.2299   21.7536 O   0  0  0  0  0  0  0  0  0  1  0  0
  -26.8637  -10.3851   21.1499 F   0  0  0  0  0  0  0  0  0  0  0  0
  -24.6387  -14.2554   22.7232 F   0  0  0  0  0  0  0  0  0  0  0  0
  1  2  1  0  0  0  0
  1  5  2  0  0  0  0
  2  6  2  0  0  0  0
  3  8  2  0  0  0  0
  3 15  1  0  0  0  0
  4  9  1  0  0  0  0
  4 15  2  0  0  0  0
  5 17  1  0  0  0  0
  6 19  1  0  0  0  0
  7 10  2  0  0  0  0
  7 18  1  0  0  0  0
  8 21  1  0  0  0  0
  9 21  2  0  0  0  0
 10 22  1  0  0  0  0
 11 12  2  0  0  0  0
 11 23  1  0  0  0  0
 12 24  1  0  0  0  0
 13 20  1  0  0  0  0
 13 22  2  0  0  0  0
 14 24  2  0  0  0  0
 14 25  1  0  0  0  0
 15 26  1  0  0  0  0
 16 26  1  0  0  0  0
 16 29  2  0  0  0  0
 16 31  1  0  0  0  0
 17 19  2  0  0  0  0
 17 36  1  0  0  0  0
 18 20  2  0  0  0  0
 18 37  1  0  0  0  0
 19 45  1  0  0  0  0
 20 38  1  0  0  0  0
 21 80  1  0  0  0  0
 22 81  1  0  0  0  0
 23 25  2  0  0  0  0
 23 80  1  0  0  0  0
 24 82  1  0  0  0  0
 25 83  1  0  0  0  0
 26 64  2  0  0  0  0
 27 28  2  0  0  0  0
 27 56  1  0  0  0  0
 27 65  1  0  0  0  0
 28 48  1  0  0  0  0
 28 66  1  0  0  0  0
 29 67  1  0  0  0  0
 29 70  1  0  0  0  0
 30 60  1  0  0  0  0
 30 65  2  0  0  0  0
 30 66  1  0  0  0  0
 31 71  1  0  0  0  0
 31 75  2  0  0  0  0
 32 46  1  0  0  0  0
 32 72  1  0  0  0  0
 32 76  2  0  0  0  0
 33 60  1  0  0  0  0
 33 69  1  0  0  0  0
 33 77  2  0  0  0  0
 34 61  1  0  0  0  0
 34 68  1  0  0  0  0
 34 78  2  0  0  0  0
 35 62  1  0  0  0  0
 35 73  1  0  0  0  0
 35 79  2  0  0  0  0
 36 39  1  0  0  0  0
 37 46  1  0  0  0  0
 38 68  1  0  0  0  0
 39 41  1  0  0  0  0
 40 42  1  0  0  0  0
 40 43  1  0  0  0  0
 41 45  1  0  0  0  0
 42 47  1  0  0  0  0
 43 69  1  0  0  0  0
 44 47  1  0  0  0  0
 44 69  1  0  0  0  0
 45 72  1  0  0  0  0
 46 68  1  0  0  0  0
 47 67  1  0  0  0  0
 49 60  1  0  0  0  0
 50 62  1  0  0  0  0
 51 63  1  0  0  0  0
 52 63  1  0  0  0  0
 53 63  1  0  0  0  0
 54 66  1  0  0  0  0
 55 74  1  0  0  0  0
 56 57  1  0  0  0  0
 57 58  1  0  0  0  0
 58 59  1  0  0  0  0
 59 81  1  0  0  0  0
 61 63  1  0  0  0  0
 61 73  1  0  0  0  0
 62 74  1  0  0  0  0
 64 67  1  0  0  0  0
M  CHG  1  74   1
M  ISO  4  33 100  59 101  60 100  81 101
M  END
> <Batch ID>
0075

> <Smiles>
CNC(C)C(=O)NC(C(=O)N1Cc2cc([101O:1][101CH2:1]CCCc3nc([100CH:0](C)[100C:0](=O)N4CCCC(n5nc(-c6ccc(Oc7ccc(F)cc7F)cc6)c(C(N)=O)c5N)C4)n(C)c3C)ccc2CC1C(=O)NC1CCCc2ccccc21)C(C)(C)C

> <Shape>
0.195

> <Color>
0.093

> <Negative vol penalty>
0.000

$$$$

  -OEChem-04052318323D

 87 95  0     1  0  0  0  0  0999 V2000
  -17.8874  -26.7505   21.9682 C   0  0  0  0  0  0  0  0  0  0  0  0
  -18.7353  -25.9851   22.7607 C   0  0  0  0  0  0  0  0  0  0  0  0
  -29.3072  -18.4223   17.4536 C   0  0  0  0  0  0  0  0  0  0  0  0
  -24.1135  -10.5202   23.3802 C   0  0  0  0  0  0  0  0  0  0  0  0
  -24.2055  -12.7267   24.3600 C   0  0  0  0  0  0  0  0  0  0  0  0
  -18.3536  -27.9309   21.3933 C   0  0  0  0  0  0  0  0  0  0  0  0
  -20.0460  -26.4059   22.9884 C   0  0  0  0  0  0  0  0  0  0  0  0
  -24.6154  -23.6940   25.9707 C   0  0  0  0  0  0  0  0  0  0  0  0
  -23.6679   -9.9993   24.5949 C   0  0  0  0  0  0  0  0  0  0  0  0
  -23.7599  -12.2058   25.5748 C   0  0  0  0  0  0  0  0  0  0  0  0
  -25.6752  -22.8388   25.6718 C   0  0  0  0  0  0  0  0  0  0  0  0
  -20.8250  -11.2341   26.9396 C   0  0  0  0  0  0  0  0  0  0  0  0
  -19.8236  -11.9325   27.6141 C   0  0  0  0  0  0  0  0  0  0  0  0
  -30.2883  -17.7126   18.1890 C   0  0  0  0  0  0  0  0  0  0  0  0
  -27.1525  -24.7384   25.5033 C   0  0  0  0  0  0  0  0  0  0  0  0
  -21.2973  -12.2171   29.5073 C   0  0  0  0  0  0  0  0  0  0  0  0
  -28.4733  -19.0336   18.3637 C   0  0  0  0  0  0  0  0  0  0  0  0
  -24.3824  -11.8839   23.2627 C   0  0  0  0  0  0  0  0  0  0  0  0
  -24.0529  -12.9229   20.9563 C   0  0  0  0  0  0  0  0  0  0  0  0
  -19.6746  -28.3592   21.6044 C   0  0  0  0  0  0  0  0  0  0  0  0
  -24.8142  -25.0809   26.0274 C   0  0  0  0  0  0  0  0  0  0  0  0
  -20.5281  -27.6066   22.4366 C   0  0  0  0  0  0  0  0  0  0  0  0
  -26.0941  -25.6088   25.8056 C   0  0  0  0  0  0  0  0  0  0  0  0
  -23.4910  -10.8421   25.6922 C   0  0  0  0  0  0  0  0  0  0  0  0
  -26.9433  -23.3612   25.4352 C   0  0  0  0  0  0  0  0  0  0  0  0
  -22.0625  -11.0271   27.5489 C   0  0  0  0  0  0  0  0  0  0  0  0
  -20.0597  -12.4241   28.8979 C   0  0  0  0  0  0  0  0  0  0  0  0
  -22.2987  -11.5186   28.8328 C   0  0  0  0  0  0  0  0  0  0  0  0
  -24.8433  -12.4225   22.0083 C   0  0  0  0  0  0  0  0  0  0  0  0
  -30.0239  -17.9116   19.5262 C   0  0  0  0  0  0  0  0  0  0  0  0
  -24.9595  -13.3106   20.0001 C   0  0  0  0  0  0  0  0  0  0  0  0
  -22.6268  -13.0279   20.8527 C   0  0  0  0  0  0  0  0  0  0  0  0
  -23.6786  -27.5774   24.4206 C   0  0  0  0  0  0  0  0  0  0  0  0
  -30.7359  -14.9261   20.3682 C   0  0  0  0  0  0  0  0  0  0  0  0
  -25.3408  -29.2654   26.6365 C   0  0  0  0  0  0  0  0  0  0  0  0
  -27.9034  -29.3530   28.8886 C   0  0  0  0  0  0  0  0  0  0  0  0
  -20.1246  -29.6488   20.9644 C   0  0  0  0  0  0  0  0  0  0  0  0
  -23.6663  -25.9878   26.3774 C   0  0  0  0  0  0  0  0  0  0  0  0
  -26.3644  -27.0889   25.8746 C   0  0  0  0  0  0  0  0  0  0  0  0
  -21.6426  -29.7813   20.8978 C   0  0  0  0  0  0  0  0  0  0  0  0
  -29.3319  -12.3170   18.3529 C   0  0  0  0  0  0  0  0  0  0  0  0
  -22.2511  -29.4780   22.2587 C   0  0  0  0  0  0  0  0  0  0  0  0
  -27.9614  -12.0741   18.9838 C   0  0  0  0  0  0  0  0  0  0  0  0
  -30.3754  -12.6771   19.4058 C   0  0  0  0  0  0  0  0  0  0  0  0
  -28.6280  -13.6022   20.8932 C   0  0  0  0  0  0  0  0  0  0  0  0
  -21.9669  -28.0287   22.6733 C   0  0  1  0  0  0  0  0  0  0  0  0
  -23.8724  -27.4229   25.9026 C   0  0  1  0  0  0  0  0  0  0  0  0
  -27.5376  -13.2657   19.8607 C   0  0  2  0  0  0  0  0  0  0  0  0
  -26.6684  -17.1315   21.2333 C   0  0  0  0  0  0  0  0  0  0  0  0
  -30.6182  -15.7740   22.6752 C   0  0  0  0  0  0  0  0  0  0  0  0
  -29.0391  -30.8827   30.5219 C   0  0  0  0  0  0  0  0  0  0  0  0
  -30.4172  -20.6898   20.8242 C   0  0  0  0  0  0  0  0  0  0  0  0
  -26.7062  -30.7155   24.3251 C   0  0  0  0  0  0  0  0  0  0  0  0
  -28.4489  -31.5037   25.9406 C   0  0  0  0  0  0  0  0  0  0  0  0
  -26.0684  -32.1837   26.2466 C   0  0  0  0  0  0  0  0  0  0  0  0
  -27.0337  -20.0920   20.5657 C   0  0  0  0  0  0  0  0  0  0  0  0
  -27.2648  -27.5802   31.1708 C   0  0  0  0  0  0  0  0  0  0  0  0
  -30.7327  -17.4023   20.7181 C   0  0  0  0  0  0  0  0  0  0  0  0
  -27.7263  -18.0454   21.8544 C   0  0  0  0  0  0  0  0  0  0  0  0
  -29.6799  -21.9300   23.5039 C   0  0  0  0  0  0  0  0  0  0  0  0
  -28.6808  -21.1941   22.5982 C   0  0  0  0  0  0  0  0  0  0  0  0
  -29.0122  -23.0435   24.3061 C   0  0  0  0  0  0  0  0  0  1  0  0
  -30.2036  -16.0415   21.2322 C   0  0  1  0  0  0  0  0  0  0  0  0
  -26.7492  -29.7991   26.7384 C   0  0  1  0  0  0  0  0  0  0  0  0
  -27.9621  -29.8264   30.3298 C   0  0  2  0  0  0  0  0  0  0  0  0
  -29.3310  -20.0801   21.7310 C   0  0  1  0  0  0  0  0  0  0  0  0
  -26.9880  -31.0227   25.8094 C   0  0  0  0  0  0  0  0  0  0  0  0
  -28.2566  -19.2039   20.9392 C   0  0  2  0  0  0  0  0  0  0  0  0
  -26.1514  -12.4853   21.7454 N   0  0  0  0  0  0  0  0  0  0  0  0
  -28.9183  -18.7159   19.6203 N   0  0  0  0  0  0  0  0  0  0  0  0
  -26.1899  -13.0295   20.5172 N   0  0  0  0  0  0  0  0  0  0  0  0
  -25.2084  -27.9350   26.2142 N   0  0  0  0  0  0  0  0  0  0  0  0
  -29.9257  -13.7986   20.2323 N   0  0  0  0  0  0  0  0  0  0  0  0
  -24.8163  -13.8611   18.7758 N   0  0  0  0  0  0  0  0  0  0  0  0
  -21.8443  -12.5827   21.9268 N   0  0  0  0  0  0  0  0  0  0  0  0
  -22.3745  -27.8425   24.0484 N   0  0  0  0  0  0  0  0  0  0  0  0
  -26.9823  -30.0685   28.1532 N   0  0  0  0  0  0  0  0  0  0  0  0
  -28.2578  -28.6831   31.2389 N   0  3  0  0  0  0  0  0  0  0  0  0
  -22.0624  -13.4873   19.8309 O   0  0  0  0  0  0  0  0  0  0  0  0
  -24.6411  -27.4659   23.6705 O   0  0  0  0  0  0  0  0  0  0  0  0
  -31.8378  -15.0560   19.8287 O   0  0  0  0  0  0  0  0  0  0  0  0
  -24.3933  -29.9995   26.9280 O   0  0  0  0  0  0  0  0  0  0  0  0
  -28.6072  -28.4423   28.4574 O   0  0  0  0  0  0  0  0  0  0  0  0
  -23.0560  -10.3342   26.8777 O   0  0  0  0  0  0  0  0  0  0  0  0
  -27.9871  -22.5226   25.1404 O   0  0  0  0  0  0  0  0  0  1  0  0
  -19.0985  -13.0961   29.5449 F   0  0  0  0  0  0  0  0  0  0  0  0
  -23.4860  -11.3240   29.4229 F   0  0  0  0  0  0  0  0  0  0  0  0
  1  2  1  0  0  0  0
  1  6  2  0  0  0  0
  2  7  2  0  0  0  0
  3 14  1  0  0  0  0
  3 17  2  0  0  0  0
  4  9  2  0  0  0  0
  4 18  1  0  0  0  0
  5 10  1  0  0  0  0
  5 18  2  0  0  0  0
  6 20  1  0  0  0  0
  7 22  1  0  0  0  0
  8 11  2  0  0  0  0
  8 21  1  0  0  0  0
  9 24  1  0  0  0  0
 10 24  2  0  0  0  0
 11 25  1  0  0  0  0
 12 13  2  0  0  0  0
 12 26  1  0  0  0  0
 13 27  1  0  0  0  0
 14 30  2  0  0  0  0
 15 23  1  0  0  0  0
 15 25  2  0  0  0  0
 16 27  2  0  0  0  0
 16 28  1  0  0  0  0
 17 70  1  0  0  0  0
 18 29  1  0  0  0  0
 19 29  1  0  0  0  0
 19 31  2  0  0  0  0
 19 32  1  0  0  0  0
 20 22  2  0  0  0  0
 20 37  1  0  0  0  0
 21 23  2  0  0  0  0
 21 38  1  0  0  0  0
 22 46  1  0  0  0  0
 23 39  1  0  0  0  0
 24 84  1  0  0  0  0
 25 85  1  0  0  0  0
 26 28  2  0  0  0  0
 26 84  1  0  0  0  0
 27 86  1  0  0  0  0
 28 87  1  0  0  0  0
 29 69  2  0  0  0  0
 30 58  1  0  0  0  0
 30 70  1  0  0  0  0
 31 71  1  0  0  0  0
 31 74  1  0  0  0  0
 32 75  1  0  0  0  0
 32 79  2  0  0  0  0
 33 47  1  0  0  0  0
 33 76  1  0  0  0  0
 33 80  2  0  0  0  0
 34 63  1  0  0  0  0
 34 73  1  0  0  0  0
 34 81  2  0  0  0  0
 35 64  1  0  0  0  0
 35 72  1  0  0  0  0
 35 82  2  0  0  0  0
 36 65  1  0  0  0  0
 36 77  1  0  0  0  0
 36 83  2  0  0  0  0
 37 40  1  0  0  0  0
 38 47  1  0  0  0  0
 39 72  1  0  0  0  0
 40 42  1  0  0  0  0
 41 43  1  0  0  0  0
 41 44  1  0  0  0  0
 42 46  1  0  0  0  0
 43 48  1  0  0  0  0
 44 73  1  0  0  0  0
 45 48  1  0  0  0  0
 45 73  1  0  0  0  0
 46 76  1  0  0  0  0
 47 72  1  0  0  0  0
 48 71  1  0  0  0  0
 49 59  1  0  0  0  0
 50 63  1  0  0  0  0
 51 65  1  0  0  0  0
 52 66  1  0  0  0  0
 53 67  1  0  0  0  0
 54 67  1  0  0  0  0
 55 67  1  0  0  0  0
 56 68  1  0  0  0  0
 57 78  1  0  0  0  0
 58 63  1  0  0  0  0
 59 68  1  0  0  0  0
 60 61  1  0  0  0  0
 60 62  1  0  0  0  0
 61 66  1  0  0  0  0
 62 85  1  0  0  0  0
 64 67  1  0  0  0  0
 64 77  1  0  0  0  0
 65 78  1  0  0  0  0
 66 68  1  0  0  0  0
 68 70  1  0  0  0  0
 69 71  1  0  0  0  0
M  CHG  1  78   1
M  ISO  4  34 100  62 101  63 100  85 101
M  END
> <Batch ID>
0075

> <Smiles>
CCC(C)(C(C)CC[101CH2:1][101O:1]c1ccc2c(c1)CN(C(=O)C(NC(=O)C(C)NC)C(C)(C)C)C(C(=O)NC1CCCc3ccccc31)C2)n1cccc1C[100CH:0](C)[100C:0](=O)N1CCCC(n2nc(-c3ccc(Oc4ccc(F)cc4F)cc3)c(C(N)=O)c2N)C1

> <Shape>
0.237

> <Color>
0.105

> <Negative vol penalty>
0.000

$$$$

  -OEChem-04052318323D

 83 91  0     1  0  0  0  0  0999 V2000
  -29.6270  -31.1937   17.0455 C   0  0  0  0  0  0  0  0  0  0  0  0
  -29.6604  -29.9764   17.7183 C   0  0  0  0  0  0  0  0  0  0  0  0
  -24.5546   -9.2451   22.0900 C   0  0  0  0  0  0  0  0  0  0  0  0
  -23.5717   -9.5245   19.9008 C   0  0  0  0  0  0  0  0  0  0  0  0
  -28.9511  -32.2784   17.6026 C   0  0  0  0  0  0  0  0  0  0  0  0
  -29.0187  -29.8435   18.9491 C   0  0  0  0  0  0  0  0  0  0  0  0
  -26.2712  -25.5044   19.2883 C   0  0  0  0  0  0  0  0  0  0  0  0
  -23.4044   -8.5852   22.5223 C   0  0  0  0  0  0  0  0  0  0  0  0
  -22.4214   -8.8645   20.3330 C   0  0  0  0  0  0  0  0  0  0  0  0
  -26.9468  -24.3101   19.5353 C   0  0  0  0  0  0  0  0  0  0  0  0
  -20.8701   -6.5086   24.0973 C   0  0  0  0  0  0  0  0  0  0  0  0
  -21.0337   -5.3390   24.8395 C   0  0  0  0  0  0  0  0  0  0  0  0
  -26.3896  -24.4862   21.8756 C   0  0  0  0  0  0  0  0  0  0  0  0
  -22.2127   -4.3292   22.9882 C   0  0  0  0  0  0  0  0  0  0  0  0
  -30.1213  -18.8391   18.1990 C   0  0  0  0  0  0  0  0  0  0  0  0
  -24.6383   -9.7149   20.7793 C   0  0  0  0  0  0  0  0  0  0  0  0
  -26.9682   -9.8200   19.7457 C   0  0  0  0  0  0  0  0  0  0  0  0
  -28.2926  -32.1560   18.8363 C   0  0  0  0  0  0  0  0  0  0  0  0
  -25.6573  -26.2055   20.3363 C   0  0  0  0  0  0  0  0  0  0  0  0
  -28.3345  -30.9280   19.5239 C   0  0  0  0  0  0  0  0  0  0  0  0
  -25.7028  -25.6865   21.6383 C   0  0  0  0  0  0  0  0  0  0  0  0
  -22.3377   -8.3948   21.6438 C   0  0  0  0  0  0  0  0  0  0  0  0
  -27.0080  -23.8020   20.8295 C   0  0  0  0  0  0  0  0  0  0  0  0
  -21.3778   -6.5885   22.8005 C   0  0  0  0  0  0  0  0  0  0  0  0
  -21.7050   -4.2493   24.2849 C   0  0  0  0  0  0  0  0  0  0  0  0
  -22.0491   -5.4988   22.2460 C   0  0  0  0  0  0  0  0  0  0  0  0
  -25.8260  -10.3972   20.3323 C   0  0  0  0  0  0  0  0  0  0  0  0
  -30.1393  -17.5790   17.6712 C   0  0  0  0  0  0  0  0  0  0  0  0
  -27.8046  -10.8824   19.5048 C   0  0  0  0  0  0  0  0  0  0  0  0
  -30.4408  -17.4084   19.8577 C   0  0  0  0  0  0  0  0  0  0  0  0
  -27.2479   -8.4462   19.4452 C   0  0  0  0  0  0  0  0  0  0  0  0
  -25.9421  -29.1024   21.6678 C   0  0  0  0  0  0  0  0  0  0  0  0
  -23.2937  -28.0136   23.3572 C   0  0  0  0  0  0  0  0  0  0  0  0
  -22.7542  -31.1955   24.4635 C   0  0  0  0  0  0  0  0  0  0  0  0
  -30.1722  -15.5151   21.5431 C   0  0  0  0  0  0  0  0  0  0  0  0
  -27.6150  -33.3699   19.4211 C   0  0  0  0  0  0  0  0  0  0  0  0
  -24.9075  -27.4769   20.0434 C   0  0  0  0  0  0  0  0  0  0  0  0
  -25.0572  -26.3988   22.7961 C   0  0  0  0  0  0  0  0  0  0  0  0
  -26.6437  -33.0398   20.5516 C   0  0  0  0  0  0  0  0  0  0  0  0
  -26.9719  -15.8562   19.6909 C   0  0  0  0  0  0  0  0  0  0  0  0
  -27.2813  -32.0639   21.5354 C   0  0  0  0  0  0  0  0  0  0  0  0
  -26.4632  -14.4158   19.7093 C   0  0  0  0  0  0  0  0  0  0  0  0
  -27.8055  -16.1686   20.9286 C   0  0  0  0  0  0  0  0  0  0  0  0
  -28.4413  -13.7840   21.1618 C   0  0  0  0  0  0  0  0  0  0  0  0
  -27.6295  -30.7375   20.8493 C   0  0  1  0  0  0  0  0  0  0  0  0
  -24.6978  -28.3587   21.2727 C   0  0  1  0  0  0  0  0  0  0  0  0
  -27.6231  -13.4260   19.9101 C   0  0  1  0  0  0  0  0  0  0  0  0
  -29.9900  -17.1048   16.2927 C   0  0  0  0  0  0  0  0  0  0  0  0
  -21.0751  -32.5938   25.6975 C   0  0  0  0  0  0  0  0  0  0  0  0
  -26.5809  -19.9534   21.4774 C   0  0  0  0  0  0  0  0  0  0  0  0
  -21.5272  -28.0803   20.8711 C   0  0  0  0  0  0  0  0  0  0  0  0
  -20.4495  -30.1498   21.7787 C   0  0  0  0  0  0  0  0  0  0  0  0
  -20.2786  -28.0024   23.0366 C   0  0  0  0  0  0  0  0  0  0  0  0
  -31.6034  -17.4858   22.1173 C   0  0  0  0  0  0  0  0  0  0  0  0
  -24.6881  -31.8287   26.6125 C   0  0  0  0  0  0  0  0  0  0  0  0
  -29.0862  -19.9934   21.3844 C   0  0  0  0  0  0  0  0  0  0  0  0
  -30.3602  -19.8419   20.5417 C   0  0  0  0  0  0  0  0  0  0  0  0
  -27.6958  -21.6743   20.0197 C   0  0  0  0  0  0  0  0  0  1  0  0
  -22.4881  -29.2297   22.9738 C   0  0  1  0  0  0  0  0  0  0  0  0
  -22.3226  -31.7321   25.8163 C   0  0  2  0  0  0  0  0  0  0  0  0
  -27.7911  -20.2498   20.5826 C   0  0  2  0  0  0  0  0  0  0  0  0
  -21.2140  -28.8645   22.1610 C   0  0  0  0  0  0  0  0  0  0  0  0
  -25.9247  -11.7234   20.4567 N   0  0  0  0  0  0  0  0  0  0  0  0
  -30.3096  -18.7036   19.5534 N   0  0  0  0  0  0  0  0  0  0  0  0
  -27.1388  -11.9883   19.9450 N   0  0  0  0  0  0  0  0  0  0  0  0
  -30.3388  -16.7138   18.7199 N   0  3  0  0  0  0  0  0  0  0  0  0
  -24.2682  -27.5870   22.4458 N   0  0  0  0  0  0  0  0  0  0  0  0
  -28.8727  -15.1826   21.1280 N   0  0  0  0  0  0  0  0  0  0  0  0
  -29.0374  -10.9692   18.9615 N   0  0  0  0  0  0  0  0  0  0  0  0
  -26.2790   -7.4831   19.7582 N   0  0  0  0  0  0  0  0  0  0  0  0
  -26.4411  -29.9291   20.6795 N   0  0  0  0  0  0  0  0  0  0  0  0
  -22.2197  -29.9491   24.2143 N   0  0  0  0  0  0  0  0  0  0  0  0
  -30.6557  -16.8412   21.1821 N   0  0  0  0  0  0  0  0  0  0  0  0
  -23.4085  -32.5576   26.4166 N   0  3  0  0  0  0  0  0  0  0  0  0
  -28.3319   -8.0816   18.9300 O   0  0  0  0  0  0  0  0  0  0  0  0
  -26.4136  -28.9394   22.7871 O   0  0  0  0  0  0  0  0  0  0  0  0
  -23.0621  -27.4509   24.4309 O   0  0  0  0  0  0  0  0  0  0  0  0
  -23.4889  -31.8211   23.7023 O   0  0  0  0  0  0  0  0  0  0  0  0
  -30.8842  -14.7596   22.2038 O   0  0  0  0  0  0  0  0  0  0  0  0
  -21.2152   -7.7506   22.0652 O   0  0  0  0  0  0  0  0  0  0  0  0
  -27.6663  -22.6362   21.0734 O   0  0  0  0  0  0  0  0  0  1  0  0
  -21.8634   -3.1267   24.9984 F   0  0  0  0  0  0  0  0  0  0  0  0
  -22.5401   -5.5700   21.0011 F   0  0  0  0  0  0  0  0  0  0  0  0
  1  2  1  0  0  0  0
  1  5  2  0  0  0  0
  2  6  2  0  0  0  0
  3  8  2  0  0  0  0
  3 16  1  0  0  0  0
  4  9  1  0  0  0  0
  4 16  2  0  0  0  0
  5 18  1  0  0  0  0
  6 20  1  0  0  0  0
  7 10  2  0  0  0  0
  7 19  1  0  0  0  0
  8 22  1  0  0  0  0
  9 22  2  0  0  0  0
 10 23  1  0  0  0  0
 11 12  2  0  0  0  0
 11 24  1  0  0  0  0
 12 25  1  0  0  0  0
 13 21  1  0  0  0  0
 13 23  2  0  0  0  0
 14 25  2  0  0  0  0
 14 26  1  0  0  0  0
 15 28  2  0  0  0  0
 15 64  1  0  0  0  0
 16 27  1  0  0  0  0
 17 27  1  0  0  0  0
 17 29  2  0  0  0  0
 17 31  1  0  0  0  0
 18 20  2  0  0  0  0
 18 36  1  0  0  0  0
 19 21  2  0  0  0  0
 19 37  1  0  0  0  0
 20 45  1  0  0  0  0
 21 38  1  0  0  0  0
 22 80  1  0  0  0  0
 23 81  1  0  0  0  0
 24 26  2  0  0  0  0
 24 80  1  0  0  0  0
 25 82  1  0  0  0  0
 26 83  1  0  0  0  0
 27 63  2  0  0  0  0
 28 48  1  0  0  0  0
 28 66  1  0  0  0  0
 29 65  1  0  0  0  0
 29 69  1  0  0  0  0
 30 64  1  0  0  0  0
 30 66  2  0  0  0  0
 30 73  1  0  0  0  0
 31 70  1  0  0  0  0
 31 75  2  0  0  0  0
 32 46  1  0  0  0  0
 32 71  1  0  0  0  0
 32 76  2  0  0  0  0
 33 59  1  0  0  0  0
 33 67  1  0  0  0  0
 33 77  2  0  0  0  0
 34 60  1  0  0  0  0
 34 72  1  0  0  0  0
 34 78  2  0  0  0  0
 35 68  1  0  0  0  0
 35 73  1  0  0  0  0
 35 79  2  0  0  0  0
 36 39  1  0  0  0  0
 37 46  1  0  0  0  0
 38 67  1  0  0  0  0
 39 41  1  0  0  0  0
 40 42  1  0  0  0  0
 40 43  1  0  0  0  0
 41 45  1  0  0  0  0
 42 47  1  0  0  0  0
 43 68  1  0  0  0  0
 44 47  1  0  0  0  0
 44 68  1  0  0  0  0
 45 71  1  0  0  0  0
 46 67  1  0  0  0  0
 47 65  1  0  0  0  0
 49 60  1  0  0  0  0
 50 61  1  0  0  0  0
 51 62  1  0  0  0  0
 52 62  1  0  0  0  0
 53 62  1  0  0  0  0
 54 73  1  0  0  0  0
 55 74  1  0  0  0  0
 56 57  1  0  0  0  0
 56 61  1  0  0  0  0
 57 64  1  0  0  0  0
 58 61  1  0  0  0  0
 58 81  1  0  0  0  0
 59 62  1  0  0  0  0
 59 72  1  0  0  0  0
 60 74  1  0  0  0  0
 63 65  1  0  0  0  0
M  CHG  2  66   1  74   1
M  ISO  4  35 100  58 101  73 100  81 101
M  END
> <Batch ID>
0075

> <Smiles>
CNC(C)C(=O)NC(C(=O)N1Cc2cc([101O:1][101CH2:1]C(C)CCn3cc(C)nc3[100N:0](C)[100C:0](=O)N3CCCC(n4nc(-c5ccc(Oc6ccc(F)cc6F)cc5)c(C(N)=O)c4N)C3)ccc2CC1C(=O)NC1CCCc2ccccc21)C(C)(C)C

> <Shape>
0.270

> <Color>
0.078

> <Negative vol penalty>
0.000

$$$$

  -OEChem-04052318323D

 88 96  0     1  0  0  0  0  0999 V2000
  -22.1063  -24.4734   20.5777 C   0  0  0  0  0  0  0  0  0  0  0  0
  -22.7759  -24.1927   21.7644 C   0  0  0  0  0  0  0  0  0  0  0  0
  -23.4262   -9.7385   20.9148 C   0  0  0  0  0  0  0  0  0  0  0  0
  -24.1737  -10.4265   23.1069 C   0  0  0  0  0  0  0  0  0  0  0  0
  -22.7162  -24.2023   19.3535 C   0  0  0  0  0  0  0  0  0  0  0  0
  -24.0555  -23.6397   21.7276 C   0  0  0  0  0  0  0  0  0  0  0  0
  -28.6413  -24.7069   25.6438 C   0  0  0  0  0  0  0  0  0  0  0  0
  -22.8147   -8.6172   21.4753 C   0  0  0  0  0  0  0  0  0  0  0  0
  -23.5621   -9.3051   23.6673 C   0  0  0  0  0  0  0  0  0  0  0  0
  -29.1160  -23.9996   26.7475 C   0  0  0  0  0  0  0  0  0  0  0  0
  -20.4411   -8.3477   24.5409 C   0  0  0  0  0  0  0  0  0  0  0  0
  -19.6898   -8.5332   25.7013 C   0  0  0  0  0  0  0  0  0  0  0  0
  -30.7892  -22.9607   25.3545 C   0  0  0  0  0  0  0  0  0  0  0  0
  -27.8688  -20.4540   27.0880 C   0  0  0  0  0  0  0  0  0  0  0  0
  -21.1370   -7.0016   26.8832 C   0  0  0  0  0  0  0  0  0  0  0  0
  -29.6782  -18.6828   26.0707 C   0  0  0  0  0  0  0  0  0  0  0  0
  -24.1058  -10.6432   21.7306 C   0  0  0  0  0  0  0  0  0  0  0  0
  -24.1646  -13.0710   20.9495 C   0  0  0  0  0  0  0  0  0  0  0  0
  -24.0077  -23.6546   19.3017 C   0  0  0  0  0  0  0  0  0  0  0  0
  -29.2310  -24.5379   24.3828 C   0  0  0  0  0  0  0  0  0  0  0  0
  -24.6826  -23.3597   20.5016 C   0  0  0  0  0  0  0  0  0  0  0  0
  -30.3218  -23.6690   24.2370 C   0  0  0  0  0  0  0  0  0  0  0  0
  -27.4347  -19.4582   26.2201 C   0  0  0  0  0  0  0  0  0  0  0  0
  -22.8826   -8.4005   22.8515 C   0  0  0  0  0  0  0  0  0  0  0  0
  -30.1883  -23.1242   26.6024 C   0  0  0  0  0  0  0  0  0  0  0  0
  -21.5403   -7.4890   24.5515 C   0  0  0  0  0  0  0  0  0  0  0  0
  -28.3503  -18.5517   25.6974 C   0  0  0  0  0  0  0  0  0  0  0  0
  -20.0377   -7.8602   26.8725 C   0  0  0  0  0  0  0  0  0  0  0  0
  -21.8883   -6.8160   25.7227 C   0  0  0  0  0  0  0  0  0  0  0  0
  -24.7382  -11.8014   21.1522 C   0  0  0  0  0  0  0  0  0  0  0  0
  -29.2182  -20.4998   27.3993 C   0  0  0  0  0  0  0  0  0  0  0  0
  -25.1676  -13.8133   20.3755 C   0  0  0  0  0  0  0  0  0  0  0  0
  -22.8434  -13.5376   21.2532 C   0  0  0  0  0  0  0  0  0  0  0  0
  -28.2214  -23.4908   21.5565 C   0  0  0  0  0  0  0  0  0  0  0  0
  -31.1672  -24.4430   20.5880 C   0  0  0  0  0  0  0  0  0  0  0  0
  -30.9393  -14.4023   20.6717 C   0  0  0  0  0  0  0  0  0  0  0  0
  -34.4090  -25.1212   21.4114 C   0  0  0  0  0  0  0  0  0  0  0  0
  -24.6071  -23.3349   17.9551 C   0  0  0  0  0  0  0  0  0  0  0  0
  -28.7244  -25.3284   23.2076 C   0  0  0  0  0  0  0  0  0  0  0  0
  -31.0030  -23.4672   22.9089 C   0  0  0  0  0  0  0  0  0  0  0  0
  -26.1142  -23.0965   18.0004 C   0  0  0  0  0  0  0  0  0  0  0  0
  -29.3216  -12.7685   17.9233 C   0  0  0  0  0  0  0  0  0  0  0  0
  -26.4730  -22.1658   19.1545 C   0  0  0  0  0  0  0  0  0  0  0  0
  -27.9296  -12.4470   18.4657 C   0  0  0  0  0  0  0  0  0  0  0  0
  -30.3846  -12.6557   19.0116 C   0  0  0  0  0  0  0  0  0  0  0  0
  -28.7159  -13.1696   20.7646 C   0  0  0  0  0  0  0  0  0  0  0  0
  -26.0816  -22.7826   20.5027 C   0  0  1  0  0  0  0  0  0  0  0  0
  -29.0704  -24.6914   21.8653 C   0  0  1  0  0  0  0  0  0  0  0  0
  -27.6081  -13.3017   19.7045 C   0  0  2  0  0  0  0  0  0  0  0  0
  -25.9884  -19.3768   25.8613 C   0  0  0  0  0  0  0  0  0  0  0  0
  -30.4020  -20.9785   29.5701 C   0  0  0  0  0  0  0  0  0  0  0  0
  -36.5890  -25.8425   20.3990 C   0  0  0  0  0  0  0  0  0  0  0  0
  -31.6807  -16.1433   22.1914 C   0  0  0  0  0  0  0  0  0  0  0  0
  -30.3088  -14.2542   23.0597 C   0  0  0  0  0  0  0  0  0  0  0  0
  -31.5574  -21.6433   19.4395 C   0  0  0  0  0  0  0  0  0  0  0  0
  -34.0130  -22.1141   19.3104 C   0  0  0  0  0  0  0  0  0  0  0  0
  -32.4090  -23.4939   17.9889 C   0  0  0  0  0  0  0  0  0  0  0  0
  -27.3970  -17.6647   21.9883 C   0  0  0  0  0  0  0  0  0  0  0  0
  -27.2900  -15.4188   23.0585 C   0  0  0  0  0  0  0  0  0  0  0  0
  -34.5072  -27.5652   23.0775 C   0  0  0  0  0  0  0  0  0  0  0  0
  -29.2637  -16.0698   21.5284 C   0  0  0  0  0  0  0  0  0  0  0  0
  -28.9304  -17.1274   23.8833 C   0  0  0  0  0  0  0  0  0  0  0  0
  -29.7195  -21.5557   28.3276 C   0  0  1  0  0  0  0  0  0  1  0  0
  -32.5255  -23.7905   20.4970 C   0  0  1  0  0  0  0  0  0  0  0  0
  -35.3074  -26.2988   21.0789 C   0  0  2  0  0  0  0  0  0  0  0  0
  -30.5030  -15.1995   21.8751 C   0  0  0  0  0  0  0  0  0  0  0  0
  -32.6124  -22.7626   19.3337 C   0  0  0  0  0  0  0  0  0  0  0  0
  -28.2507  -16.5370   22.6258 C   0  0  0  0  0  0  0  0  0  0  0  0
  -30.1374  -19.6369   26.9112 N   0  0  0  0  0  0  0  0  0  0  0  0
  -26.0072  -11.7372   20.7402 N   0  0  0  0  0  0  0  0  0  0  0  0
  -26.2392  -12.9757   20.2728 N   0  0  0  0  0  0  0  0  0  0  0  0
  -30.4670  -24.2579   21.7886 N   0  0  0  0  0  0  0  0  0  0  0  0
  -30.0315  -13.4642   20.1799 N   0  0  0  0  0  0  0  0  0  0  0  0
  -25.2286  -15.0941   19.9535 N   0  0  0  0  0  0  0  0  0  0  0  0
  -21.9380  -12.6440   21.8415 N   0  0  0  0  0  0  0  0  0  0  0  0
  -27.0443  -23.7887   20.8969 N   0  0  0  0  0  0  0  0  0  0  0  0
  -33.4951  -24.8769   20.4081 N   0  0  0  0  0  0  0  0  0  0  0  0
  -35.6717  -27.0390   22.3201 N   0  3  0  0  0  0  0  0  0  0  0  0
  -22.4714  -14.7074   20.9949 O   0  0  0  0  0  0  0  0  0  0  0  0
  -28.6065  -22.3764   21.8906 O   0  0  0  0  0  0  0  0  0  0  0  0
  -30.7461  -25.0989   19.6320 O   0  0  0  0  0  0  0  0  0  0  0  0
  -32.0529  -14.6106   20.1831 O   0  0  0  0  0  0  0  0  0  0  0  0
  -34.5103  -24.4798   22.4548 O   0  0  0  0  0  0  0  0  0  0  0  0
  -22.2857   -7.3065   23.3988 O   0  0  0  0  0  0  0  0  0  0  0  0
  -27.9680  -17.5547   24.8382 O   0  0  0  0  0  0  0  0  0  0  0  0
  -30.6546  -22.4300   27.6812 O   0  0  0  0  0  0  0  0  0  1  0  0
  -19.3171   -8.0397   27.9872 F   0  0  0  0  0  0  0  0  0  0  0  0
  -22.9440   -5.9908   25.7393 F   0  0  0  0  0  0  0  0  0  0  0  0
  1  2  1  0  0  0  0
  1  5  2  0  0  0  0
  2  6  2  0  0  0  0
  3  8  2  0  0  0  0
  3 17  1  0  0  0  0
  4  9  1  0  0  0  0
  4 17  2  0  0  0  0
  5 19  1  0  0  0  0
  6 21  1  0  0  0  0
  7 10  2  0  0  0  0
  7 20  1  0  0  0  0
  8 24  1  0  0  0  0
  9 24  2  0  0  0  0
 10 25  1  0  0  0  0
 11 12  2  0  0  0  0
 11 26  1  0  0  0  0
 12 28  1  0  0  0  0
 13 22  1  0  0  0  0
 13 25  2  0  0  0  0
 14 23  2  0  0  0  0
 14 31  1  0  0  0  0
 15 28  2  0  0  0  0
 15 29  1  0  0  0  0
 16 27  2  0  0  0  0
 16 69  1  0  0  0  0
 17 30  1  0  0  0  0
 18 30  1  0  0  0  0
 18 32  2  0  0  0  0
 18 33  1  0  0  0  0
 19 21  2  0  0  0  0
 19 38  1  0  0  0  0
 20 22  2  0  0  0  0
 20 39  1  0  0  0  0
 21 47  1  0  0  0  0
 22 40  1  0  0  0  0
 23 27  1  0  0  0  0
 23 50  1  0  0  0  0
 24 84  1  0  0  0  0
 25 86  1  0  0  0  0
 26 29  2  0  0  0  0
 26 84  1  0  0  0  0
 27 85  1  0  0  0  0
 28 87  1  0  0  0  0
 29 88  1  0  0  0  0
 30 70  2  0  0  0  0
 31 63  1  0  0  0  0
 31 69  2  0  0  0  0
 32 71  1  0  0  0  0
 32 74  1  0  0  0  0
 33 75  1  0  0  0  0
 33 79  2  0  0  0  0
 34 48  1  0  0  0  0
 34 76  1  0  0  0  0
 34 80  2  0  0  0  0
 35 64  1  0  0  0  0
 35 72  1  0  0  0  0
 35 81  2  0  0  0  0
 36 66  1  0  0  0  0
 36 73  1  0  0  0  0
 36 82  2  0  0  0  0
 37 65  1  0  0  0  0
 37 77  1  0  0  0  0
 37 83  2  0  0  0  0
 38 41  1  0  0  0  0
 39 48  1  0  0  0  0
 40 72  1  0  0  0  0
 41 43  1  0  0  0  0
 42 44  1  0  0  0  0
 42 45  1  0  0  0  0
 43 47  1  0  0  0  0
 44 49  1  0  0  0  0
 45 73  1  0  0  0  0
 46 49  1  0  0  0  0
 46 73  1  0  0  0  0
 47 76  1  0  0  0  0
 48 72  1  0  0  0  0
 49 71  1  0  0  0  0
 51 63  1  0  0  0  0
 52 65  1  0  0  0  0
 53 66  1  0  0  0  0
 54 66  1  0  0  0  0
 55 67  1  0  0  0  0
 56 67  1  0  0  0  0
 57 67  1  0  0  0  0
 58 68  1  0  0  0  0
 59 68  1  0  0  0  0
 60 78  1  0  0  0  0
 61 66  1  0  0  0  0
 61 68  1  0  0  0  0
 62 68  1  0  0  0  0
 62 85  1  0  0  0  0
 63 86  1  0  0  0  0
 64 67  1  0  0  0  0
 64 77  1  0  0  0  0
 65 78  1  0  0  0  0
 70 71  1  0  0  0  0
M  CHG  1  78   1
M  ISO  4  36 100  63 101  66 100  86 101
M  END
> <Batch ID>
0075

> <Smiles>
CNC(C)C(=O)NC(C(=O)N1Cc2cc([101O:1][101CH:1](C)c3cc(C)c(OCC(C)(C)C[100C:0](C)(C)[100C:0](=O)N4CCCC(n5nc(-c6ccc(Oc7ccc(F)cc7F)cc6)c(C(N)=O)c5N)C4)cn3)ccc2CC1C(=O)NC1CCCc2ccccc21)C(C)(C)C

> <Shape>
0.170

> <Color>
0.171

> <Negative vol penalty>
0.000

$$$$

  -OEChem-04052318323D

 86 94  0     1  0  0  0  0  0999 V2000
  -23.1027  -32.1898   18.5314 C   0  0  0  0  0  0  0  0  0  0  0  0
  -22.8325  -30.9512   17.9583 C   0  0  0  0  0  0  0  0  0  0  0  0
  -26.5057  -12.7045   21.6662 C   0  0  0  0  0  0  0  0  0  0  0  0
  -25.9768  -13.8119   19.5851 C   0  0  0  0  0  0  0  0  0  0  0  0
  -23.8319  -32.2636   19.7174 C   0  0  0  0  0  0  0  0  0  0  0  0
  -23.2924  -29.7858   18.5704 C   0  0  0  0  0  0  0  0  0  0  0  0
  -20.4844  -24.3450   18.7077 C   0  0  0  0  0  0  0  0  0  0  0  0
  -25.2506  -12.0961   21.6615 C   0  0  0  0  0  0  0  0  0  0  0  0
  -24.7217  -13.2034   19.5803 C   0  0  0  0  0  0  0  0  0  0  0  0
  -20.6449  -23.1872   17.9477 C   0  0  0  0  0  0  0  0  0  0  0  0
  -22.3234   -9.9692   22.0123 C   0  0  0  0  0  0  0  0  0  0  0  0
  -22.2602   -8.6103   22.3202 C   0  0  0  0  0  0  0  0  0  0  0  0
  -22.0937  -22.2785   19.6490 C   0  0  0  0  0  0  0  0  0  0  0  0
  -25.2073  -18.1486   19.8075 C   0  0  0  0  0  0  0  0  0  0  0  0
  -23.6934   -8.1173   20.4387 C   0  0  0  0  0  0  0  0  0  0  0  0
  -26.8688  -13.5625   20.6280 C   0  0  0  0  0  0  0  0  0  0  0  0
  -29.3536  -13.6941   20.0656 C   0  0  0  0  0  0  0  0  0  0  0  0
  -24.2927  -31.0979   20.3495 C   0  0  0  0  0  0  0  0  0  0  0  0
  -21.1372  -24.4830   19.9411 C   0  0  0  0  0  0  0  0  0  0  0  0
  -24.0297  -29.8442   19.7653 C   0  0  0  0  0  0  0  0  0  0  0  0
  -21.9378  -23.4380   20.4239 C   0  0  0  0  0  0  0  0  0  0  0  0
  -23.8294  -17.9353   19.5143 C   0  0  0  0  0  0  0  0  0  0  0  0
  -24.3585  -12.3455   20.6185 C   0  0  0  0  0  0  0  0  0  0  0  0
  -21.4519  -22.1549   18.4170 C   0  0  0  0  0  0  0  0  0  0  0  0
  -23.0715  -10.4023   20.9174 C   0  0  0  0  0  0  0  0  0  0  0  0
  -22.9453   -7.6843   21.5335 C   0  0  0  0  0  0  0  0  0  0  0  0
  -23.7565   -9.4763   20.1307 C   0  0  0  0  0  0  0  0  0  0  0  0
  -28.1650  -14.1917   20.6326 C   0  0  0  0  0  0  0  0  0  0  0  0
  -25.8100  -18.9774   18.8869 C   0  0  0  0  0  0  0  0  0  0  0  0
  -23.4313  -18.6095   18.3808 C   0  0  0  0  0  0  0  0  0  0  0  0
  -30.2938  -14.6575   20.3383 C   0  0  0  0  0  0  0  0  0  0  0  0
  -29.5869  -12.4704   19.3557 C   0  0  0  0  0  0  0  0  0  0  0  0
  -23.3118  -26.4811   21.1169 C   0  0  0  0  0  0  0  0  0  0  0  0
  -22.7189  -24.8841   23.8775 C   0  0  0  0  0  0  0  0  0  0  0  0
  -29.8022  -20.5420   21.4529 C   0  0  0  0  0  0  0  0  0  0  0  0
  -21.6142  -22.0345   25.3961 C   0  0  0  0  0  0  0  0  0  0  0  0
  -25.1175  -31.2306   21.6052 C   0  0  0  0  0  0  0  0  0  0  0  0
  -20.9325  -25.7271   20.7611 C   0  0  0  0  0  0  0  0  0  0  0  0
  -22.6442  -23.5283   21.7510 C   0  0  0  0  0  0  0  0  0  0  0  0
  -25.2473  -29.9273   22.3892 C   0  0  0  0  0  0  0  0  0  0  0  0
  -31.3658  -18.0619   23.5130 C   0  0  0  0  0  0  0  0  0  0  0  0
  -25.5948  -28.7738   21.4536 C   0  0  0  0  0  0  0  0  0  0  0  0
  -30.8083  -16.7448   22.9749 C   0  0  0  0  0  0  0  0  0  0  0  0
  -30.3266  -19.1767   23.4467 C   0  0  0  0  0  0  0  0  0  0  0  0
  -29.1923  -18.0740   21.5443 C   0  0  0  0  0  0  0  0  0  0  0  0
  -24.4902  -28.5561   20.4124 C   0  0  1  0  0  0  0  0  0  0  0  0
  -22.0549  -25.9727   21.7647 C   0  0  1  0  0  0  0  0  0  0  0  0
  -30.2199  -16.9286   21.5648 C   0  0  2  0  0  0  0  0  0  0  0  0
  -22.9392  -17.0848   20.3401 C   0  0  0  0  0  0  0  0  0  0  0  0
  -19.4559  -19.4005   16.4716 C   0  0  0  0  0  0  0  0  0  0  0  0
  -21.2837  -21.0120   27.6639 C   0  0  0  0  0  0  0  0  0  0  0  0
  -26.7740  -21.3512   20.4438 C   0  0  0  0  0  0  0  0  0  0  0  0
  -29.3854  -22.0541   19.6068 C   0  0  0  0  0  0  0  0  0  0  0  0
  -30.0637  -19.6872   19.1561 C   0  0  0  0  0  0  0  0  0  0  0  0
  -25.7219  -24.3865   24.0881 C   0  0  0  0  0  0  0  0  0  0  0  0
  -25.2380  -22.6099   25.7845 C   0  0  0  0  0  0  0  0  0  0  0  0
  -24.6085  -24.9789   26.2478 C   0  0  0  0  0  0  0  0  0  0  0  0
  -18.6963  -21.7684   24.9788 C   0  0  0  0  0  0  0  0  0  0  0  0
  -27.2158  -19.4352   18.8430 C   0  0  0  0  0  0  0  0  0  0  0  0
  -22.0683  -18.6501   17.7312 C   0  0  0  0  0  0  0  0  0  0  0  0
  -19.7177  -19.5519   17.9643 C   0  0  0  0  0  0  0  0  0  0  0  0
  -23.2882  -23.6558   24.5454 C   0  0  1  0  0  0  0  0  0  0  0  0
  -20.6435  -21.8154   26.5425 C   0  0  2  0  0  0  0  0  0  0  0  0
  -27.7122  -20.1719   20.1334 C   0  0  1  0  0  0  0  0  0  0  0  0
  -21.2003  -19.7944   18.2735 C   0  0  2  0  0  0  0  0  0  1  0  0
  -29.2198  -20.5943   20.0629 C   0  0  0  0  0  0  0  0  0  0  0  0
  -24.7025  -23.9066   25.1405 C   0  0  0  0  0  0  0  0  0  0  0  0
  -28.3322  -15.3789   21.2213 N   0  0  0  0  0  0  0  0  0  0  0  0
  -29.6369  -15.6353   21.0257 N   0  0  0  0  0  0  0  0  0  0  0  0
  -22.4177  -24.7675   22.5131 N   0  0  0  0  0  0  0  0  0  0  0  0
  -29.7756  -19.3046   22.0964 N   0  0  0  0  0  0  0  0  0  0  0  0
  -31.6100  -14.7551   20.0549 N   0  0  0  0  0  0  0  0  0  0  0  0
  -28.5104  -11.5937   19.1637 N   0  0  0  0  0  0  0  0  0  0  0  0
  -23.3693  -27.8570   21.0034 N   0  0  0  0  0  0  0  0  0  0  0  0
  -22.2955  -23.2264   25.5245 N   0  0  0  0  0  0  0  0  0  0  0  0
  -19.4376  -21.0802   26.0668 N   0  3  0  0  0  0  0  0  0  0  0  0
  -30.7202  -12.1559   18.9194 O   0  0  0  0  0  0  0  0  0  0  0  0
  -24.1667  -25.6840   20.7488 O   0  0  0  0  0  0  0  0  0  0  0  0
  -22.5411  -25.9071   24.5434 O   0  0  0  0  0  0  0  0  0  0  0  0
  -30.2691  -21.5706   21.9491 O   0  0  0  0  0  0  0  0  0  0  0  0
  -21.7568  -21.2272   24.4805 O   0  0  0  0  0  0  0  0  0  0  0  0
  -23.1338  -11.7518   20.6135 O   0  0  0  0  0  0  0  0  0  0  0  0
  -21.6108  -21.0240   17.6769 O   0  0  0  0  0  0  0  0  0  1  0  0
  -22.8858   -6.3795   21.8303 F   0  0  0  0  0  0  0  0  0  0  0  0
  -24.4778   -9.8864   19.0784 F   0  0  0  0  0  0  0  0  0  0  0  0
  -24.7161  -19.4947   17.6752 S   0  0  0  0  0  0  0  0  0  0  0  0
  1  2  1  0  0  0  0
  1  5  2  0  0  0  0
  2  6  2  0  0  0  0
  3  8  2  0  0  0  0
  3 16  1  0  0  0  0
  4  9  1  0  0  0  0
  4 16  2  0  0  0  0
  5 18  1  0  0  0  0
  6 20  1  0  0  0  0
  7 10  2  0  0  0  0
  7 19  1  0  0  0  0
  8 23  1  0  0  0  0
  9 23  2  0  0  0  0
 10 24  1  0  0  0  0
 11 12  2  0  0  0  0
 11 25  1  0  0  0  0
 12 26  1  0  0  0  0
 13 21  1  0  0  0  0
 13 24  2  0  0  0  0
 14 22  1  0  0  0  0
 14 29  2  0  0  0  0
 15 26  2  0  0  0  0
 15 27  1  0  0  0  0
 16 28  1  0  0  0  0
 17 28  1  0  0  0  0
 17 31  2  0  0  0  0
 17 32  1  0  0  0  0
 18 20  2  0  0  0  0
 18 37  1  0  0  0  0
 19 21  2  0  0  0  0
 19 38  1  0  0  0  0
 20 46  1  0  0  0  0
 21 39  1  0  0  0  0
 22 30  2  0  0  0  0
 22 49  1  0  0  0  0
 23 82  1  0  0  0  0
 24 83  1  0  0  0  0
 25 27  2  0  0  0  0
 25 82  1  0  0  0  0
 26 84  1  0  0  0  0
 27 85  1  0  0  0  0
 28 68  2  0  0  0  0
 29 59  1  0  0  0  0
 29 86  1  0  0  0  0
 30 60  1  0  0  0  0
 30 86  1  0  0  0  0
 31 69  1  0  0  0  0
 31 72  1  0  0  0  0
 32 73  1  0  0  0  0
 32 77  2  0  0  0  0
 33 47  1  0  0  0  0
 33 74  1  0  0  0  0
 33 78  2  0  0  0  0
 34 62  1  0  0  0  0
 34 70  1  0  0  0  0
 34 79  2  0  0  0  0
 35 66  1  0  0  0  0
 35 71  1  0  0  0  0
 35 80  2  0  0  0  0
 36 63  1  0  0  0  0
 36 75  1  0  0  0  0
 36 81  2  0  0  0  0
 37 40  1  0  0  0  0
 38 47  1  0  0  0  0
 39 70  1  0  0  0  0
 40 42  1  0  0  0  0
 41 43  1  0  0  0  0
 41 44  1  0  0  0  0
 42 46  1  0  0  0  0
 43 48  1  0  0  0  0
 44 71  1  0  0  0  0
 45 48  1  0  0  0  0
 45 71  1  0  0  0  0
 46 74  1  0  0  0  0
 47 70  1  0  0  0  0
 48 69  1  0  0  0  0
 50 61  1  0  0  0  0
 51 63  1  0  0  0  0
 52 64  1  0  0  0  0
 53 66  1  0  0  0  0
 54 66  1  0  0  0  0
 55 67  1  0  0  0  0
 56 67  1  0  0  0  0
 57 67  1  0  0  0  0
 58 76  1  0  0  0  0
 59 64  1  0  0  0  0
 60 65  1  0  0  0  0
 61 65  1  0  0  0  0
 62 67  1  0  0  0  0
 62 75  1  0  0  0  0
 63 76  1  0  0  0  0
 64 66  1  0  0  0  0
 65 83  1  0  0  0  0
 68 69  1  0  0  0  0
M  CHG  1  76   1
M  ISO  4  35 100  65 101  66 100  83 101
M  END
> <Batch ID>
0075

> <Smiles>
CC[101CH:1](Cc1sc(CC(C)[100C:0](C)(C)[100C:0](=O)N2CCCC(n3nc(-c4ccc(Oc5ccc(F)cc5F)cc4)c(C(N)=O)c3N)C2)cc1C)[101O:1]c1ccc2c(c1)CN(C(=O)C(NC(=O)C(C)NC)C(C)(C)C)C(C(=O)NC1CCCc3ccccc31)C2

> <Shape>
0.209

> <Color>
0.070

> <Negative vol penalty>
0.000

$$$$

  -OEChem-04052318323D

 84 92  0     1  0  0  0  0  0999 V2000
  -16.5246  -29.1589   23.5998 C   0  0  0  0  0  0  0  0  0  0  0  0
  -17.3522  -28.0910   23.9317 C   0  0  0  0  0  0  0  0  0  0  0  0
  -24.4566   -9.1552   21.5143 C   0  0  0  0  0  0  0  0  0  0  0  0
  -23.7456  -10.9411   22.9779 C   0  0  0  0  0  0  0  0  0  0  0  0
  -17.0514  -30.2692   22.9413 C   0  0  0  0  0  0  0  0  0  0  0  0
  -18.7070  -28.1324   23.6042 C   0  0  0  0  0  0  0  0  0  0  0  0
  -23.3494  -25.7883   26.8383 C   0  0  0  0  0  0  0  0  0  0  0  0
  -24.0623   -8.2167   22.4678 C   0  0  0  0  0  0  0  0  0  0  0  0
  -23.3513  -10.0026   23.9315 C   0  0  0  0  0  0  0  0  0  0  0  0
  -24.0652  -24.5973   26.7238 C   0  0  0  0  0  0  0  0  0  0  0  0
  -22.9104   -5.3398   24.3683 C   0  0  0  0  0  0  0  0  0  0  0  0
  -22.1882   -4.2311   23.9271 C   0  0  0  0  0  0  0  0  0  0  0  0
  -25.7665  -25.7485   25.4590 C   0  0  0  0  0  0  0  0  0  0  0  0
  -20.4573   -5.6926   23.0874 C   0  0  0  0  0  0  0  0  0  0  0  0
  -25.2212  -17.0555   21.0027 C   0  0  0  0  0  0  0  0  0  0  0  0
  -24.2982  -10.5175   21.7693 C   0  0  0  0  0  0  0  0  0  0  0  0
  -23.9220  -12.0262   19.7470 C   0  0  0  0  0  0  0  0  0  0  0  0
  -18.4153  -30.3283   22.6142 C   0  0  0  0  0  0  0  0  0  0  0  0
  -23.8323  -26.9679   26.2537 C   0  0  0  0  0  0  0  0  0  0  0  0
  -19.2523  -29.2439   22.9395 C   0  0  0  0  0  0  0  0  0  0  0  0
  -25.0562  -26.9536   25.5697 C   0  0  0  0  0  0  0  0  0  0  0  0
  -23.5097   -8.6404   23.6764 C   0  0  0  0  0  0  0  0  0  0  0  0
  -25.2725  -24.5767   26.0317 C   0  0  0  0  0  0  0  0  0  0  0  0
  -22.4061   -6.6250   24.1692 C   0  0  0  0  0  0  0  0  0  0  0  0
  -20.9617   -4.4075   23.2866 C   0  0  0  0  0  0  0  0  0  0  0  0
  -21.1795   -6.8014   23.5287 C   0  0  0  0  0  0  0  0  0  0  0  0
  -24.7058  -11.4874   20.7849 C   0  0  0  0  0  0  0  0  0  0  0  0
  -25.8403  -17.2962   19.8087 C   0  0  0  0  0  0  0  0  0  0  0  0
  -24.7637  -12.8953   19.0968 C   0  0  0  0  0  0  0  0  0  0  0  0
  -27.3976  -16.7735   21.2927 C   0  0  0  0  0  0  0  0  0  0  0  0
  -22.5553  -11.7646   19.4016 C   0  0  0  0  0  0  0  0  0  0  0  0
  -22.7785  -28.9507   24.0038 C   0  0  0  0  0  0  0  0  0  0  0  0
  -29.6689  -15.8498   20.9196 C   0  0  0  0  0  0  0  0  0  0  0  0
  -25.3589  -30.7053   24.8901 C   0  0  0  0  0  0  0  0  0  0  0  0
  -28.4619  -30.7815   26.3087 C   0  0  0  0  0  0  0  0  0  0  0  0
  -18.9296  -31.5290   21.8602 C   0  0  0  0  0  0  0  0  0  0  0  0
  -23.0614  -28.2501   26.4090 C   0  0  0  0  0  0  0  0  0  0  0  0
  -25.6281  -28.1972   24.9413 C   0  0  0  0  0  0  0  0  0  0  0  0
  -20.4506  -31.6568   21.8827 C   0  0  0  0  0  0  0  0  0  0  0  0
  -29.3836  -13.6245   18.1256 C   0  0  0  0  0  0  0  0  0  0  0  0
  -21.1037  -30.3140   21.5710 C   0  0  0  0  0  0  0  0  0  0  0  0
  -28.0955  -12.8534   18.4109 C   0  0  0  0  0  0  0  0  0  0  0  0
  -30.1378  -13.9470   19.4118 C   0  0  0  0  0  0  0  0  0  0  0  0
  -28.0339  -13.9118   20.7133 C   0  0  0  0  0  0  0  0  0  0  0  0
  -20.7321  -29.2623   22.6233 C   0  0  1  0  0  0  0  0  0  0  0  0
  -23.3934  -29.2808   25.3344 C   0  0  1  0  0  0  0  0  0  0  0  0
  -27.2258  -13.5926   19.4431 C   0  0  2  0  0  0  0  0  0  0  0  0
  -25.3039  -17.6769   18.4995 C   0  0  0  0  0  0  0  0  0  0  0  0
  -29.3993  -17.7373   22.4996 C   0  0  0  0  0  0  0  0  0  0  0  0
  -30.3386  -32.3543   26.8581 C   0  0  0  0  0  0  0  0  0  0  0  0
  -26.1911  -30.7337   21.9547 C   0  0  0  0  0  0  0  0  0  0  0  0
  -28.4752  -31.4571   22.6814 C   0  0  0  0  0  0  0  0  0  0  0  0
  -26.5014  -32.9094   23.1481 C   0  0  0  0  0  0  0  0  0  0  0  0
  -28.2291  -30.2312   29.2073 C   0  0  0  0  0  0  0  0  0  0  0  0
  -26.0066  -18.7892   24.2330 C   0  0  0  0  0  0  0  0  0  0  0  0
  -25.2198  -19.8398   25.0195 C   0  0  0  0  0  0  0  0  0  0  0  0
  -25.2299  -17.4723   24.1360 C   0  0  0  0  0  0  0  0  0  0  0  0
  -25.9777  -21.1639   25.0887 C   0  0  0  0  0  0  0  0  0  0  0  0
  -25.9810  -16.3895   23.3530 C   0  0  0  0  0  0  0  0  0  0  0  0
  -25.2214  -22.2024   25.9049 C   0  0  0  0  0  0  0  0  0  1  0  0
  -28.7219  -16.4930   21.9013 C   0  0  1  0  0  0  0  0  0  0  0  0
  -26.8051  -30.7710   24.4622 C   0  0  1  0  0  0  0  0  0  0  0  0
  -29.0657  -31.6924   27.3623 C   0  0  2  0  0  0  0  0  0  0  0  0
  -26.9818  -31.4438   23.0717 C   0  0  0  0  0  0  0  0  0  0  0  0
  -25.9499  -11.9734   20.7971 N   0  0  0  0  0  0  0  0  0  0  0  0
  -26.2085  -16.7338   21.9026 N   0  0  0  0  0  0  0  0  0  0  0  0
  -25.9542  -12.8267   19.7588 N   0  0  0  0  0  0  0  0  0  0  0  0
  -27.1863  -17.1148   20.0174 N   0  3  0  0  0  0  0  0  0  0  0  0
  -24.8341  -29.4247   25.1151 N   0  0  0  0  0  0  0  0  0  0  0  0
  -29.2712  -14.6288   20.3748 N   0  0  0  0  0  0  0  0  0  0  0  0
  -24.5942  -13.7039   18.0292 N   0  0  0  0  0  0  0  0  0  0  0  0
  -21.8354  -10.8435   20.1746 N   0  0  0  0  0  0  0  0  0  0  0  0
  -21.5057  -29.4598   23.8304 N   0  0  0  0  0  0  0  0  0  0  0  0
  -27.5210  -31.4384   25.5442 N   0  0  0  0  0  0  0  0  0  0  0  0
  -29.3946  -30.9162   28.5912 N   0  3  0  0  0  0  0  0  0  0  0  0
  -21.9942  -12.3186   18.4260 O   0  0  0  0  0  0  0  0  0  0  0  0
  -23.4126  -28.2847   23.1938 O   0  0  0  0  0  0  0  0  0  0  0  0
  -30.7285  -16.4187   20.6443 O   0  0  0  0  0  0  0  0  0  0  0  0
  -24.7205  -31.7519   25.0267 O   0  0  0  0  0  0  0  0  0  0  0  0
  -28.7946  -29.6060   26.1746 O   0  0  0  0  0  0  0  0  0  0  0  0
  -23.1246   -7.7248   24.6071 O   0  0  0  0  0  0  0  0  0  0  0  0
  -25.9728  -23.4154   25.9179 O   0  0  0  0  0  0  0  0  0  1  0  0
  -20.2690   -3.3427   22.8616 F   0  0  0  0  0  0  0  0  0  0  0  0
  -20.6905   -8.0337   23.3335 F   0  0  0  0  0  0  0  0  0  0  0  0
  1  2  1  0  0  0  0
  1  5  2  0  0  0  0
  2  6  2  0  0  0  0
  3  8  2  0  0  0  0
  3 16  1  0  0  0  0
  4  9  1  0  0  0  0
  4 16  2  0  0  0  0
  5 18  1  0  0  0  0
  6 20  1  0  0  0  0
  7 10  2  0  0  0  0
  7 19  1  0  0  0  0
  8 22  1  0  0  0  0
  9 22  2  0  0  0  0
 10 23  1  0  0  0  0
 11 12  2  0  0  0  0
 11 24  1  0  0  0  0
 12 25  1  0  0  0  0
 13 21  1  0  0  0  0
 13 23  2  0  0  0  0
 14 25  2  0  0  0  0
 14 26  1  0  0  0  0
 15 28  2  0  0  0  0
 15 66  1  0  0  0  0
 16 27  1  0  0  0  0
 17 27  1  0  0  0  0
 17 29  2  0  0  0  0
 17 31  1  0  0  0  0
 18 20  2  0  0  0  0
 18 36  1  0  0  0  0
 19 21  2  0  0  0  0
 19 37  1  0  0  0  0
 20 45  1  0  0  0  0
 21 38  1  0  0  0  0
 22 81  1  0  0  0  0
 23 82  1  0  0  0  0
 24 26  2  0  0  0  0
 24 81  1  0  0  0  0
 25 83  1  0  0  0  0
 26 84  1  0  0  0  0
 27 65  2  0  0  0  0
 28 48  1  0  0  0  0
 28 68  1  0  0  0  0
 29 67  1  0  0  0  0
 29 71  1  0  0  0  0
 30 61  1  0  0  0  0
 30 66  1  0  0  0  0
 30 68  2  0  0  0  0
 31 72  1  0  0  0  0
 31 76  2  0  0  0  0
 32 46  1  0  0  0  0
 32 73  1  0  0  0  0
 32 77  2  0  0  0  0
 33 61  1  0  0  0  0
 33 70  1  0  0  0  0
 33 78  2  0  0  0  0
 34 62  1  0  0  0  0
 34 69  1  0  0  0  0
 34 79  2  0  0  0  0
 35 63  1  0  0  0  0
 35 74  1  0  0  0  0
 35 80  2  0  0  0  0
 36 39  1  0  0  0  0
 37 46  1  0  0  0  0
 38 69  1  0  0  0  0
 39 41  1  0  0  0  0
 40 42  1  0  0  0  0
 40 43  1  0  0  0  0
 41 45  1  0  0  0  0
 42 47  1  0  0  0  0
 43 70  1  0  0  0  0
 44 47  1  0  0  0  0
 44 70  1  0  0  0  0
 45 73  1  0  0  0  0
 46 69  1  0  0  0  0
 47 67  1  0  0  0  0
 49 61  1  0  0  0  0
 50 63  1  0  0  0  0
 51 64  1  0  0  0  0
 52 64  1  0  0  0  0
 53 64  1  0  0  0  0
 54 75  1  0  0  0  0
 55 56  1  0  0  0  0
 55 57  1  0  0  0  0
 56 58  1  0  0  0  0
 57 59  1  0  0  0  0
 58 60  1  0  0  0  0
 59 66  1  0  0  0  0
 60 82  1  0  0  0  0
 62 64  1  0  0  0  0
 62 74  1  0  0  0  0
 63 75  1  0  0  0  0
 65 67  1  0  0  0  0
M  CHG  2  68   1  75   1
M  ISO  4  33 100  60 101  61 100  82 101
M  END
> <Batch ID>
0075

> <Smiles>
CNC(C)C(=O)NC(C(=O)N1Cc2cc([101O:1][101CH2:1]CCCCCn3cc(C)nc3[100CH:0](C)[100C:0](=O)N3CCCC(n4nc(-c5ccc(Oc6ccc(F)cc6F)cc5)c(C(N)=O)c4N)C3)ccc2CC1C(=O)NC1CCCc2ccccc21)C(C)(C)C

> <Shape>
0.247

> <Color>
0.089

> <Negative vol penalty>
0.000

$$$$

  -OEChem-04052318323D

 84 92  0     1  0  0  0  0  0999 V2000
  -24.6964  -30.8320   21.9028 C   0  0  0  0  0  0  0  0  0  0  0  0
  -24.2088  -29.6001   22.3274 C   0  0  0  0  0  0  0  0  0  0  0  0
  -28.9951  -17.5363   24.1286 C   0  0  0  0  0  0  0  0  0  0  0  0
  -28.6319  -15.2047   24.6471 C   0  0  0  0  0  0  0  0  0  0  0  0
  -25.4884  -30.9099   20.7580 C   0  0  0  0  0  0  0  0  0  0  0  0
  -24.5121  -28.4455   21.6067 C   0  0  0  0  0  0  0  0  0  0  0  0
  -25.7342  -21.4477   22.5301 C   0  0  0  0  0  0  0  0  0  0  0  0
  -28.5022  -17.8922   25.3840 C   0  0  0  0  0  0  0  0  0  0  0  0
  -28.1391  -15.5606   25.9025 C   0  0  0  0  0  0  0  0  0  0  0  0
  -25.3079  -20.2080   22.0554 C   0  0  0  0  0  0  0  0  0  0  0  0
  -27.0037  -19.4357   28.3158 C   0  0  0  0  0  0  0  0  0  0  0  0
  -26.1003  -20.4963   28.3827 C   0  0  0  0  0  0  0  0  0  0  0  0
  -26.7508  -20.4529   20.1378 C   0  0  0  0  0  0  0  0  0  0  0  0
  -24.6346  -13.1630   19.4164 C   0  0  0  0  0  0  0  0  0  0  0  0
  -24.5811  -19.2932   26.9398 C   0  0  0  0  0  0  0  0  0  0  0  0
  -29.0599  -16.1925   23.7601 C   0  0  0  0  0  0  0  0  0  0  0  0
  -30.9046  -15.5403   22.1233 C   0  0  0  0  0  0  0  0  0  0  0  0
  -25.8096  -29.7544   20.0284 C   0  0  0  0  0  0  0  0  0  0  0  0
  -26.6654  -22.2054   21.8055 C   0  0  0  0  0  0  0  0  0  0  0  0
  -25.3081  -28.5082   20.4503 C   0  0  0  0  0  0  0  0  0  0  0  0
  -27.1892  -21.7007   20.6068 C   0  0  0  0  0  0  0  0  0  0  0  0
  -23.9648  -13.3701   20.6094 C   0  0  0  0  0  0  0  0  0  0  0  0
  -28.0743  -16.9044   26.2710 C   0  0  0  0  0  0  0  0  0  0  0  0
  -25.8140  -19.7117   20.8577 C   0  0  0  0  0  0  0  0  0  0  0  0
  -26.6959  -18.3038   27.5609 C   0  0  0  0  0  0  0  0  0  0  0  0
  -24.8890  -20.4251   27.6947 C   0  0  0  0  0  0  0  0  0  0  0  0
  -25.4846  -18.2326   26.8729 C   0  0  0  0  0  0  0  0  0  0  0  0
  -29.5683  -15.8242   22.4632 C   0  0  0  0  0  0  0  0  0  0  0  0
  -25.7104  -12.2981   19.4212 C   0  0  0  0  0  0  0  0  0  0  0  0
  -24.4149  -12.6983   21.7282 C   0  0  0  0  0  0  0  0  0  0  0  0
  -30.8630  -15.2476   20.7820 C   0  0  0  0  0  0  0  0  0  0  0  0
  -32.0786  -15.5409   22.9464 C   0  0  0  0  0  0  0  0  0  0  0  0
  -26.6317  -25.0588   20.4052 C   0  0  0  0  0  0  0  0  0  0  0  0
  -29.7799  -24.4333   19.9362 C   0  0  0  0  0  0  0  0  0  0  0  0
  -26.4361  -13.2400   17.2487 C   0  0  0  0  0  0  0  0  0  0  0  0
  -32.2588  -22.1063   19.6413 C   0  0  0  0  0  0  0  0  0  0  0  0
  -26.6300  -29.8947   18.7707 C   0  0  0  0  0  0  0  0  0  0  0  0
  -27.1351  -23.5287   22.3446 C   0  0  0  0  0  0  0  0  0  0  0  0
  -28.2062  -22.4659   19.8014 C   0  0  0  0  0  0  0  0  0  0  0  0
  -27.2155  -28.5749   18.2750 C   0  0  0  0  0  0  0  0  0  0  0  0
  -28.3944  -16.2081   16.8069 C   0  0  0  0  0  0  0  0  0  0  0  0
  -26.1524  -27.4811   18.2875 C   0  0  0  0  0  0  0  0  0  0  0  0
  -29.0162  -16.4363   18.1840 C   0  0  0  0  0  0  0  0  0  0  0  0
  -26.9881  -15.6275   16.9184 C   0  0  0  0  0  0  0  0  0  0  0  0
  -27.5331  -14.5962   19.1004 C   0  0  0  0  0  0  0  0  0  0  0  0
  -25.6358  -27.2301   19.7093 C   0  0  1  0  0  0  0  0  0  0  0  0
  -27.7008  -24.4467   21.2654 C   0  0  1  0  0  0  0  0  0  0  0  0
  -28.9660  -15.1534   19.0326 C   0  0  2  0  0  0  0  0  0  0  0  0
  -23.7434  -12.8727   23.0485 C   0  0  0  0  0  0  0  0  0  0  0  0
  -34.7243  -21.8968   19.2229 C   0  0  0  0  0  0  0  0  0  0  0  0
  -25.8537  -10.8480   17.3793 C   0  0  0  0  0  0  0  0  0  0  0  0
  -27.9852  -11.7399   18.3255 C   0  0  0  0  0  0  0  0  0  0  0  0
  -29.3229  -25.0008   16.9733 C   0  0  0  0  0  0  0  0  0  0  0  0
  -31.5078  -23.8768   16.4925 C   0  0  0  0  0  0  0  0  0  0  0  0
  -31.4495  -25.9364   17.8988 C   0  0  0  0  0  0  0  0  0  0  0  0
  -32.7126  -20.8182   22.2669 C   0  0  0  0  0  0  0  0  0  0  0  0
  -22.7824  -14.3046   20.6593 C   0  0  0  0  0  0  0  0  0  0  0  0
  -23.0949  -15.6654   21.2917 C   0  0  0  0  0  0  0  0  0  0  0  0
  -24.1293  -16.4690   20.5023 C   0  0  0  0  0  0  0  0  0  0  0  0
  -24.4433  -17.7954   21.1810 C   0  0  0  0  0  0  0  0  0  1  0  0
  -30.5862  -23.7598   18.8521 C   0  0  1  0  0  0  0  0  0  0  0  0
  -33.6343  -22.0137   20.2770 C   0  0  2  0  0  0  0  0  0  0  0  0
  -26.4662  -12.0409   18.1627 C   0  0  0  0  0  0  0  0  0  0  0  0
  -30.6960  -24.6296   17.5681 C   0  0  0  0  0  0  0  0  0  0  0  0
  -28.7384  -15.7214   21.4218 N   0  0  0  0  0  0  0  0  0  0  0  0
  -26.1291  -11.6542   20.5312 N   0  0  0  0  0  0  0  0  0  0  0  0
  -25.4705  -11.8574   21.7037 N   0  0  0  0  0  0  0  0  0  0  0  0
  -29.5553  -15.3696   20.4143 N   0  0  0  0  0  0  0  0  0  0  0  0
  -28.6293  -23.7576   20.3670 N   0  0  0  0  0  0  0  0  0  0  0  0
  -26.9791  -14.4230   17.7504 N   0  0  0  0  0  0  0  0  0  0  0  0
  -31.8177  -14.9005   19.8930 N   0  0  0  0  0  0  0  0  0  0  0  0
  -31.9430  -15.8646   24.3033 N   0  0  0  0  0  0  0  0  0  0  0  0
  -26.5867  -26.4388   20.4602 N   0  0  0  0  0  0  0  0  0  0  0  0
  -31.8705  -23.4159   19.4526 N   0  0  0  0  0  0  0  0  0  0  0  0
  -33.7135  -20.8226   21.1691 N   0  3  0  0  0  0  0  0  0  0  0  0
  -33.2166  -15.2788   22.4886 O   0  0  0  0  0  0  0  0  0  0  0  0
  -25.9026  -24.3328   19.7395 O   0  0  0  0  0  0  0  0  0  0  0  0
  -30.1609  -25.5155   20.3894 O   0  0  0  0  0  0  0  0  0  0  0  0
  -25.9469  -13.1259   16.1218 O   0  0  0  0  0  0  0  0  0  0  0  0
  -31.5968  -21.1160   19.3388 O   0  0  0  0  0  0  0  0  0  0  0  0
  -27.5935  -17.2514   27.4961 O   0  0  0  0  0  0  0  0  0  0  0  0
  -25.3991  -18.5023   20.3917 O   0  0  0  0  0  0  0  0  0  1  0  0
  -24.0208  -21.4430   27.7603 F   0  0  0  0  0  0  0  0  0  0  0  0
  -25.1828  -17.1474   26.1470 F   0  0  0  0  0  0  0  0  0  0  0  0
  1  2  1  0  0  0  0
  1  5  2  0  0  0  0
  2  6  2  0  0  0  0
  3  8  2  0  0  0  0
  3 16  1  0  0  0  0
  4  9  1  0  0  0  0
  4 16  2  0  0  0  0
  5 18  1  0  0  0  0
  6 20  1  0  0  0  0
  7 10  2  0  0  0  0
  7 19  1  0  0  0  0
  8 23  1  0  0  0  0
  9 23  2  0  0  0  0
 10 24  1  0  0  0  0
 11 12  2  0  0  0  0
 11 25  1  0  0  0  0
 12 26  1  0  0  0  0
 13 21  1  0  0  0  0
 13 24  2  0  0  0  0
 14 22  1  0  0  0  0
 14 29  2  0  0  0  0
 15 26  2  0  0  0  0
 15 27  1  0  0  0  0
 16 28  1  0  0  0  0
 17 28  1  0  0  0  0
 17 31  2  0  0  0  0
 17 32  1  0  0  0  0
 18 20  2  0  0  0  0
 18 37  1  0  0  0  0
 19 21  2  0  0  0  0
 19 38  1  0  0  0  0
 20 46  1  0  0  0  0
 21 39  1  0  0  0  0
 22 30  2  0  0  0  0
 22 57  1  0  0  0  0
 23 81  1  0  0  0  0
 24 82  1  0  0  0  0
 25 27  2  0  0  0  0
 25 81  1  0  0  0  0
 26 83  1  0  0  0  0
 27 84  1  0  0  0  0
 28 65  2  0  0  0  0
 29 63  1  0  0  0  0
 29 66  1  0  0  0  0
 30 49  1  0  0  0  0
 30 67  1  0  0  0  0
 31 68  1  0  0  0  0
 31 71  1  0  0  0  0
 32 72  1  0  0  0  0
 32 76  2  0  0  0  0
 33 47  1  0  0  0  0
 33 73  1  0  0  0  0
 33 77  2  0  0  0  0
 34 61  1  0  0  0  0
 34 69  1  0  0  0  0
 34 78  2  0  0  0  0
 35 63  1  0  0  0  0
 35 70  1  0  0  0  0
 35 79  2  0  0  0  0
 36 62  1  0  0  0  0
 36 74  1  0  0  0  0
 36 80  2  0  0  0  0
 37 40  1  0  0  0  0
 38 47  1  0  0  0  0
 39 69  1  0  0  0  0
 40 42  1  0  0  0  0
 41 43  1  0  0  0  0
 41 44  1  0  0  0  0
 42 46  1  0  0  0  0
 43 48  1  0  0  0  0
 44 70  1  0  0  0  0
 45 48  1  0  0  0  0
 45 70  1  0  0  0  0
 46 73  1  0  0  0  0
 47 69  1  0  0  0  0
 48 68  1  0  0  0  0
 50 62  1  0  0  0  0
 51 63  1  0  0  0  0
 52 63  1  0  0  0  0
 53 64  1  0  0  0  0
 54 64  1  0  0  0  0
 55 64  1  0  0  0  0
 56 75  1  0  0  0  0
 57 58  1  0  0  0  0
 58 59  1  0  0  0  0
 59 60  1  0  0  0  0
 60 82  1  0  0  0  0
 61 64  1  0  0  0  0
 61 74  1  0  0  0  0
 62 75  1  0  0  0  0
 65 68  1  0  0  0  0
 66 67  2  0  0  0  0
M  CHG  1  75   1
M  ISO  4  35 100  60 101  63 100  82 101
M  END
> <Batch ID>
0075

> <Smiles>
CNC(C)C(=O)NC(C(=O)N1Cc2cc([101O:1][101CH2:1]CCCc3cc([100C:0](C)(C)[100C:0](=O)N4CCCC(n5nc(-c6ccc(Oc7ccc(F)cc7F)cc6)c(C(N)=O)c5N)C4)nnc3C)ccc2CC1C(=O)NC1CCCc2ccccc21)C(C)(C)C

> <Shape>
0.179

> <Color>
0.087

> <Negative vol penalty>
0.000

$$$$

  -OEChem-04052318323D

 84 92  0     1  0  0  0  0  0999 V2000
  -20.4295  -21.4005   15.5303 C   0  0  0  0  0  0  0  0  0  0  0  0
  -21.3860  -20.5150   16.0166 C   0  0  0  0  0  0  0  0  0  0  0  0
  -27.7171  -23.4769   20.6343 C   0  0  0  0  0  0  0  0  0  0  0  0
  -28.9886  -23.5116   18.5803 C   0  0  0  0  0  0  0  0  0  0  0  0
  -19.9346  -22.4113   16.3532 C   0  0  0  0  0  0  0  0  0  0  0  0
  -21.8489  -20.6405   17.3259 C   0  0  0  0  0  0  0  0  0  0  0  0
  -22.1064  -16.1911   19.7304 C   0  0  0  0  0  0  0  0  0  0  0  0
  -27.7516  -24.8706   20.6793 C   0  0  0  0  0  0  0  0  0  0  0  0
  -29.0231  -24.9053   18.6252 C   0  0  0  0  0  0  0  0  0  0  0  0
  -23.1921  -15.3686   19.4331 C   0  0  0  0  0  0  0  0  0  0  0  0
  -26.1432  -27.4510   19.2002 C   0  0  0  0  0  0  0  0  0  0  0  0
  -24.9569  -28.1194   19.5025 C   0  0  0  0  0  0  0  0  0  0  0  0
  -24.2931  -16.1029   21.4500 C   0  0  0  0  0  0  0  0  0  0  0  0
  -28.1058  -13.8524   19.1877 C   0  0  0  0  0  0  0  0  0  0  0  0
  -26.0056  -29.1027   21.4442 C   0  0  0  0  0  0  0  0  0  0  0  0
  -28.3357  -22.7973   19.5849 C   0  0  0  0  0  0  0  0  0  0  0  0
  -27.3265  -20.5504   18.9212 C   0  0  0  0  0  0  0  0  0  0  0  0
  -20.3846  -22.5433   17.6763 C   0  0  0  0  0  0  0  0  0  0  0  0
  -22.1106  -16.9853   20.8861 C   0  0  0  0  0  0  0  0  0  0  0  0
  -21.3605  -21.6549   18.1669 C   0  0  0  0  0  0  0  0  0  0  0  0
  -23.2051  -16.9327   21.7610 C   0  0  0  0  0  0  0  0  0  0  0  0
  -29.1014  -12.9990   18.7254 C   0  0  0  0  0  0  0  0  0  0  0  0
  -27.5115  -13.6141   20.4220 C   0  0  0  0  0  0  0  0  0  0  0  0
  -28.4045  -25.5848   19.6747 C   0  0  0  0  0  0  0  0  0  0  0  0
  -24.2869  -15.3266   20.2914 C   0  0  0  0  0  0  0  0  0  0  0  0
  -27.2608  -27.6084   20.0200 C   0  0  0  0  0  0  0  0  0  0  0  0
  -24.8881  -28.9452   20.6245 C   0  0  0  0  0  0  0  0  0  0  0  0
  -27.1920  -28.4342   21.1419 C   0  0  0  0  0  0  0  0  0  0  0  0
  -28.3009  -21.3577   19.5383 C   0  0  0  0  0  0  0  0  0  0  0  0
  -29.4639  -11.9300   19.5290 C   0  0  0  0  0  0  0  0  0  0  0  0
  -27.9450  -12.5174   21.1495 C   0  0  0  0  0  0  0  0  0  0  0  0
  -27.7460  -19.2642   19.1582 C   0  0  0  0  0  0  0  0  0  0  0  0
  -26.1477  -20.9293   18.1984 C   0  0  0  0  0  0  0  0  0  0  0  0
  -22.0027  -20.1096   21.4613 C   0  0  0  0  0  0  0  0  0  0  0  0
  -21.7962  -19.1389   24.5496 C   0  0  0  0  0  0  0  0  0  0  0  0
  -22.4065  -16.7130   26.8710 C   0  0  0  0  0  0  0  0  0  0  0  0
  -31.7886  -15.4216   19.3533 C   0  0  0  0  0  0  0  0  0  0  0  0
  -19.8550  -23.6809   18.5131 C   0  0  0  0  0  0  0  0  0  0  0  0
  -20.9201  -17.8470   21.2064 C   0  0  0  0  0  0  0  0  0  0  0  0
  -23.2499  -17.7505   23.0250 C   0  0  0  0  0  0  0  0  0  0  0  0
  -20.1225  -23.5142   20.0068 C   0  0  0  0  0  0  0  0  0  0  0  0
  -31.3627  -17.4919   22.2185 C   0  0  0  0  0  0  0  0  0  0  0  0
  -21.5697  -23.0961   20.2466 C   0  0  0  0  0  0  0  0  0  0  0  0
  -30.4534  -18.6182   21.7240 C   0  0  0  0  0  0  0  0  0  0  0  0
  -32.3462  -17.0455   21.1390 C   0  0  0  0  0  0  0  0  0  0  0  0
  -30.8180  -17.7995   19.3586 C   0  0  0  0  0  0  0  0  0  0  0  0
  -21.8693  -21.7434   19.5894 C   0  0  1  0  0  0  0  0  0  0  0  0
  -21.2537  -19.0016   22.1461 C   0  0  1  0  0  0  0  0  0  0  0  0
  -29.7713  -18.2452   20.3940 C   0  0  2  0  0  0  0  0  0  0  0  0
  -30.5627   -9.7129   19.9339 C   0  0  0  0  0  0  0  0  0  0  0  0
  -27.8743  -13.1315   23.5794 C   0  0  0  0  0  0  0  0  0  0  0  0
  -22.1603  -16.2232   29.3199 C   0  0  0  0  0  0  0  0  0  0  0  0
  -24.1684  -20.9615   25.1501 C   0  0  0  0  0  0  0  0  0  0  0  0
  -24.4705  -19.7391   27.3140 C   0  0  0  0  0  0  0  0  0  0  0  0
  -22.3612  -20.9977   26.8785 C   0  0  0  0  0  0  0  0  0  0  0  0
  -20.6484  -14.3904   26.3482 C   0  0  0  0  0  0  0  0  0  0  0  0
  -29.7421  -13.2489   17.4041 C   0  0  0  0  0  0  0  0  0  0  0  0
  -26.4363  -14.5311   20.9265 C   0  0  0  0  0  0  0  0  0  1  0  0
  -30.5265  -10.9794   19.0839 C   0  0  0  0  0  0  0  0  0  0  0  0
  -27.3428  -12.2141   22.4824 C   0  0  0  0  0  0  0  0  0  0  0  0
  -31.1252  -13.9049   17.5044 C   0  0  0  0  0  0  0  0  0  0  0  0
  -22.7911  -18.8341   25.6432 C   0  0  1  0  0  0  0  0  0  0  0  0
  -21.5243  -16.1007   27.9439 C   0  0  2  0  0  0  0  0  0  0  0  0
  -23.4481  -20.1190   26.2217 C   0  0  0  0  0  0  0  0  0  0  0  0
  -29.2665  -20.6441   20.1234 N   0  0  0  0  0  0  0  0  0  0  0  0
  -28.9094  -11.6663   20.7334 N   0  0  0  0  0  0  0  0  0  0  0  0
  -28.9010  -19.3749   19.8752 N   0  0  0  0  0  0  0  0  0  0  0  0
  -22.0646  -18.5822   23.2911 N   0  0  0  0  0  0  0  0  0  0  0  0
  -31.6355  -16.7046   19.9042 N   0  0  0  0  0  0  0  0  0  0  0  0
  -27.2359  -18.0606   18.8212 N   0  0  0  0  0  0  0  0  0  0  0  0
  -25.8660  -22.2940   18.0479 N   0  0  0  0  0  0  0  0  0  0  0  0
  -21.3309  -20.6632   20.3881 N   0  0  0  0  0  0  0  0  0  0  0  0
  -22.0788  -18.0306   26.6308 N   0  0  0  0  0  0  0  0  0  0  0  0
  -31.0751  -15.1792   18.1859 N   0  0  0  0  0  0  0  0  0  0  0  0
  -21.2912  -14.6562   27.6608 N   0  3  0  0  0  0  0  0  0  0  0  0
  -25.3586  -20.0826   17.7148 O   0  0  0  0  0  0  0  0  0  0  0  0
  -23.1075  -20.4389   21.8767 O   0  0  0  0  0  0  0  0  0  0  0  0
  -20.8131  -19.8392   24.8044 O   0  0  0  0  0  0  0  0  0  0  0  0
  -23.2997  -16.0863   26.3054 O   0  0  0  0  0  0  0  0  0  0  0  0
  -32.5036  -14.5545   19.8670 O   0  0  0  0  0  0  0  0  0  0  0  0
  -28.4381  -26.9448   19.7180 O   0  0  0  0  0  0  0  0  0  0  0  0
  -25.3483  -14.5251   20.0032 O   0  0  0  0  0  0  0  0  0  1  0  0
  -23.7492  -29.5882   20.9138 F   0  0  0  0  0  0  0  0  0  0  0  0
  -28.2627  -28.5903   21.9325 F   0  0  0  0  0  0  0  0  0  0  0  0
  1  2  1  0  0  0  0
  1  5  2  0  0  0  0
  2  6  2  0  0  0  0
  3  8  2  0  0  0  0
  3 16  1  0  0  0  0
  4  9  1  0  0  0  0
  4 16  2  0  0  0  0
  5 18  1  0  0  0  0
  6 20  1  0  0  0  0
  7 10  2  0  0  0  0
  7 19  1  0  0  0  0
  8 24  1  0  0  0  0
  9 24  2  0  0  0  0
 10 25  1  0  0  0  0
 11 12  2  0  0  0  0
 11 26  1  0  0  0  0
 12 27  1  0  0  0  0
 13 21  1  0  0  0  0
 13 25  2  0  0  0  0
 14 22  1  0  0  0  0
 14 23  2  0  0  0  0
 15 27  2  0  0  0  0
 15 28  1  0  0  0  0
 16 29  1  0  0  0  0
 17 29  1  0  0  0  0
 17 32  2  0  0  0  0
 17 33  1  0  0  0  0
 18 20  2  0  0  0  0
 18 38  1  0  0  0  0
 19 21  2  0  0  0  0
 19 39  1  0  0  0  0
 20 47  1  0  0  0  0
 21 40  1  0  0  0  0
 22 30  2  0  0  0  0
 22 57  1  0  0  0  0
 23 31  1  0  0  0  0
 23 58  1  0  0  0  0
 24 81  1  0  0  0  0
 25 82  1  0  0  0  0
 26 28  2  0  0  0  0
 26 81  1  0  0  0  0
 27 83  1  0  0  0  0
 28 84  1  0  0  0  0
 29 65  2  0  0  0  0
 30 59  1  0  0  0  0
 30 66  1  0  0  0  0
 31 60  1  0  0  0  0
 31 66  2  0  0  0  0
 32 67  1  0  0  0  0
 32 70  1  0  0  0  0
 33 71  1  0  0  0  0
 33 76  2  0  0  0  0
 34 48  1  0  0  0  0
 34 72  1  0  0  0  0
 34 77  2  0  0  0  0
 35 62  1  0  0  0  0
 35 68  1  0  0  0  0
 35 78  2  0  0  0  0
 36 63  1  0  0  0  0
 36 73  1  0  0  0  0
 36 79  2  0  0  0  0
 37 69  1  0  0  0  0
 37 74  1  0  0  0  0
 37 80  2  0  0  0  0
 38 41  1  0  0  0  0
 39 48  1  0  0  0  0
 40 68  1  0  0  0  0
 41 43  1  0  0  0  0
 42 44  1  0  0  0  0
 42 45  1  0  0  0  0
 43 47  1  0  0  0  0
 44 49  1  0  0  0  0
 45 69  1  0  0  0  0
 46 49  1  0  0  0  0
 46 69  1  0  0  0  0
 47 72  1  0  0  0  0
 48 68  1  0  0  0  0
 49 67  1  0  0  0  0
 50 59  1  0  0  0  0
 51 60  1  0  0  0  0
 52 63  1  0  0  0  0
 53 64  1  0  0  0  0
 54 64  1  0  0  0  0
 55 64  1  0  0  0  0
 56 75  1  0  0  0  0
 57 61  1  0  0  0  0
 58 82  1  0  0  0  0
 61 74  1  0  0  0  0
 62 64  1  0  0  0  0
 62 73  1  0  0  0  0
 63 75  1  0  0  0  0
 65 67  1  0  0  0  0
M  CHG  1  75   1
M  ISO  4  37 100  58 101  74 100  82 101
M  END
> <Batch ID>
0075

> <Smiles>
CCc1nc(CC)c([101CH2:1][101O:1]c2ccc3c(c2)CN(C(=O)C(NC(=O)C(C)NC)C(C)(C)C)C(C(=O)NC2CCCc4ccccc42)C3)cc1CC[100NH:0][100C:0](=O)N1CCCC(n2nc(-c3ccc(Oc4ccc(F)cc4F)cc3)c(C(N)=O)c2N)C1

> <Shape>
0.190

> <Color>
0.086

> <Negative vol penalty>
0.000

$$$$

  -OEChem-04052318323D

 84 92  0     1  0  0  0  0  0999 V2000
  -17.2032  -28.6769   24.8550 C   0  0  0  0  0  0  0  0  0  0  0  0
  -17.9963  -27.6659   24.3218 C   0  0  0  0  0  0  0  0  0  0  0  0
  -30.7537  -19.3209   19.4034 C   0  0  0  0  0  0  0  0  0  0  0  0
  -28.9822  -19.5786   21.0259 C   0  0  0  0  0  0  0  0  0  0  0  0
  -17.2551  -29.9607   24.3137 C   0  0  0  0  0  0  0  0  0  0  0  0
  -18.8410  -27.9379   23.2463 C   0  0  0  0  0  0  0  0  0  0  0  0
  -23.4569  -25.9439   23.8486 C   0  0  0  0  0  0  0  0  0  0  0  0
  -30.5609  -20.6371   18.9838 C   0  0  0  0  0  0  0  0  0  0  0  0
  -28.7895  -20.8949   20.6064 C   0  0  0  0  0  0  0  0  0  0  0  0
  -23.5975  -24.5785   23.6044 C   0  0  0  0  0  0  0  0  0  0  0  0
  -31.3810  -23.7380   20.0538 C   0  0  0  0  0  0  0  0  0  0  0  0
  -32.5131  -24.5308   19.8657 C   0  0  0  0  0  0  0  0  0  0  0  0
  -24.9876  -14.3214   18.5133 C   0  0  0  0  0  0  0  0  0  0  0  0
  -24.4981  -25.0680   21.4207 C   0  0  0  0  0  0  0  0  0  0  0  0
  -31.9124  -24.8383   17.5459 C   0  0  0  0  0  0  0  0  0  0  0  0
  -25.0058  -15.5510   17.8871 C   0  0  0  0  0  0  0  0  0  0  0  0
  -29.9643  -18.7916   20.4244 C   0  0  0  0  0  0  0  0  0  0  0  0
  -31.0268  -16.9808   21.8733 C   0  0  0  0  0  0  0  0  0  0  0  0
  -18.1080  -30.2509   23.2372 C   0  0  0  0  0  0  0  0  0  0  0  0
  -23.8263  -26.8829   22.8748 C   0  0  0  0  0  0  0  0  0  0  0  0
  -18.9034  -29.2265   22.6892 C   0  0  0  0  0  0  0  0  0  0  0  0
  -24.3636  -26.4448   21.6560 C   0  0  0  0  0  0  0  0  0  0  0  0
  -29.5789  -21.4241   19.5853 C   0  0  0  0  0  0  0  0  0  0  0  0
  -24.1154  -24.1403   22.3892 C   0  0  0  0  0  0  0  0  0  0  0  0
  -30.5146  -23.4953   18.9879 C   0  0  0  0  0  0  0  0  0  0  0  0
  -32.7788  -25.0810   18.6118 C   0  0  0  0  0  0  0  0  0  0  0  0
  -30.7803  -24.0454   17.7339 C   0  0  0  0  0  0  0  0  0  0  0  0
  -30.1625  -17.4319   20.8578 C   0  0  0  0  0  0  0  0  0  0  0  0
  -25.1603  -14.3459   19.8822 C   0  0  0  0  0  0  0  0  0  0  0  0
  -30.8485  -15.6191   21.8962 C   0  0  0  0  0  0  0  0  0  0  0  0
  -25.3362  -16.6122   19.8700 C   0  0  0  0  0  0  0  0  0  0  0  0
  -31.9116  -17.7260   22.7203 C   0  0  0  0  0  0  0  0  0  0  0  0
  -22.2892  -29.1149   21.2138 C   0  0  0  0  0  0  0  0  0  0  0  0
  -25.2764  -29.8576   20.1903 C   0  0  0  0  0  0  0  0  0  0  0  0
  -26.2556  -12.1443   20.1805 C   0  0  0  0  0  0  0  0  0  0  0  0
  -28.4903  -28.8435   19.6525 C   0  0  0  0  0  0  0  0  0  0  0  0
  -18.0948  -31.6423   22.6552 C   0  0  0  0  0  0  0  0  0  0  0  0
  -23.6933  -28.3530   23.1641 C   0  0  0  0  0  0  0  0  0  0  0  0
  -24.7941  -27.4128   20.5855 C   0  0  0  0  0  0  0  0  0  0  0  0
  -19.2935  -31.9384   21.7576 C   0  0  0  0  0  0  0  0  0  0  0  0
  -29.6619  -11.9425   19.0868 C   0  0  0  0  0  0  0  0  0  0  0  0
  -19.5311  -30.7861   20.7868 C   0  0  0  0  0  0  0  0  0  0  0  0
  -30.2473  -13.2971   19.4837 C   0  0  0  0  0  0  0  0  0  0  0  0
  -28.2032  -12.0684   18.6588 C   0  0  0  0  0  0  0  0  0  0  0  0
  -27.9086  -14.0751   20.0758 C   0  0  0  0  0  0  0  0  0  0  0  0
  -19.8508  -29.4883   21.5385 C   0  0  1  0  0  0  0  0  0  0  0  0
  -23.6220  -29.2063   21.9016 C   0  0  1  0  0  0  0  0  0  0  0  0
  -29.3720  -13.9881   20.5442 C   0  0  2  0  0  0  0  0  0  0  0  0
  -30.6928  -29.6619   18.7713 C   0  0  0  0  0  0  0  0  0  0  0  0
  -23.8115  -12.3114   20.4599 C   0  0  0  0  0  0  0  0  0  0  0  0
  -25.3978  -13.1831   22.1797 C   0  0  0  0  0  0  0  0  0  0  0  0
  -24.2268  -29.6024   17.3367 C   0  0  0  0  0  0  0  0  0  0  0  0
  -26.6002  -29.4823   16.5487 C   0  0  0  0  0  0  0  0  0  0  0  0
  -25.7756  -31.5302   17.7101 C   0  0  0  0  0  0  0  0  0  0  0  0
  -29.8278  -28.4007   22.2551 C   0  0  0  0  0  0  0  0  0  0  0  0
  -25.5331  -17.8987   20.6319 C   0  0  0  0  0  0  0  0  0  0  0  0
  -24.2357  -18.6765   20.8798 C   0  0  0  0  0  0  0  0  0  0  0  0
  -24.4456  -19.9398   21.7206 C   0  0  0  0  0  0  0  0  0  0  0  0
  -23.1340  -20.6983   21.9164 C   0  0  0  0  0  0  0  0  0  0  0  0
  -23.3238  -21.9331   22.7860 C   0  0  0  0  0  0  0  0  0  1  0  0
  -26.1544  -29.4163   19.0443 C   0  0  1  0  0  0  0  0  0  0  0  0
  -29.8209  -29.4839   20.0045 C   0  0  2  0  0  0  0  0  0  0  0  0
  -25.1559  -13.0648   20.6466 C   0  0  0  0  0  0  0  0  0  0  0  0
  -25.6794  -29.9892   17.6792 C   0  0  0  0  0  0  0  0  0  0  0  0
  -25.1785  -16.7206   18.5370 N   0  0  0  0  0  0  0  0  0  0  0  0
  -29.4855  -16.4374   20.2774 N   0  0  0  0  0  0  0  0  0  0  0  0
  -25.3381  -15.4774   20.5952 N   0  0  0  0  0  0  0  0  0  0  0  0
  -29.9245  -15.3479   20.9303 N   0  0  0  0  0  0  0  0  0  0  0  0
  -24.6384  -28.8397   20.9133 N   0  0  0  0  0  0  0  0  0  0  0  0
  -27.4097  -12.7498   19.6831 N   0  0  0  0  0  0  0  0  0  0  0  0
  -31.3935  -14.6392   22.6480 N   0  0  0  0  0  0  0  0  0  0  0  0
  -31.9719  -19.1175   22.5640 N   0  0  0  0  0  0  0  0  0  0  0  0
  -21.2214  -29.4978   22.0029 N   0  0  0  0  0  0  0  0  0  0  0  0
  -27.5173  -29.7892   19.4072 N   0  0  0  0  0  0  0  0  0  0  0  0
  -30.5596  -28.6382   20.9843 N   0  3  0  0  0  0  0  0  0  0  0  0
  -32.6397  -17.1725   23.5789 O   0  0  0  0  0  0  0  0  0  0  0  0
  -22.2338  -28.7273   20.0526 O   0  0  0  0  0  0  0  0  0  0  0  0
  -25.1665  -31.0607   20.4395 O   0  0  0  0  0  0  0  0  0  0  0  0
  -26.0931  -10.9239   20.2596 O   0  0  0  0  0  0  0  0  0  0  0  0
  -28.3310  -27.6261   19.5967 O   0  0  0  0  0  0  0  0  0  0  0  0
  -29.3907  -22.7086   19.1764 O   0  0  0  0  0  0  0  0  0  0  0  0
  -24.2531  -22.8081   22.1480 O   0  0  0  0  0  0  0  0  0  1  0  0
  -33.8652  -25.8435   18.4317 F   0  0  0  0  0  0  0  0  0  0  0  0
  -29.9510  -23.8168   16.7064 F   0  0  0  0  0  0  0  0  0  0  0  0
  1  2  1  0  0  0  0
  1  5  2  0  0  0  0
  2  6  2  0  0  0  0
  3  8  2  0  0  0  0
  3 17  1  0  0  0  0
  4  9  1  0  0  0  0
  4 17  2  0  0  0  0
  5 19  1  0  0  0  0
  6 21  1  0  0  0  0
  7 10  2  0  0  0  0
  7 20  1  0  0  0  0
  8 23  1  0  0  0  0
  9 23  2  0  0  0  0
 10 24  1  0  0  0  0
 11 12  2  0  0  0  0
 11 25  1  0  0  0  0
 12 26  1  0  0  0  0
 13 16  1  0  0  0  0
 13 29  2  0  0  0  0
 14 22  1  0  0  0  0
 14 24  2  0  0  0  0
 15 26  2  0  0  0  0
 15 27  1  0  0  0  0
 16 65  2  0  0  0  0
 17 28  1  0  0  0  0
 18 28  1  0  0  0  0
 18 30  2  0  0  0  0
 18 32  1  0  0  0  0
 19 21  2  0  0  0  0
 19 37  1  0  0  0  0
 20 22  2  0  0  0  0
 20 38  1  0  0  0  0
 21 46  1  0  0  0  0
 22 39  1  0  0  0  0
 23 81  1  0  0  0  0
 24 82  1  0  0  0  0
 25 27  2  0  0  0  0
 25 81  1  0  0  0  0
 26 83  1  0  0  0  0
 27 84  1  0  0  0  0
 28 66  2  0  0  0  0
 29 63  1  0  0  0  0
 29 67  1  0  0  0  0
 30 68  1  0  0  0  0
 30 71  1  0  0  0  0
 31 56  1  0  0  0  0
 31 65  1  0  0  0  0
 31 67  2  0  0  0  0
 32 72  1  0  0  0  0
 32 76  2  0  0  0  0
 33 47  1  0  0  0  0
 33 73  1  0  0  0  0
 33 77  2  0  0  0  0
 34 61  1  0  0  0  0
 34 69  1  0  0  0  0
 34 78  2  0  0  0  0
 35 63  1  0  0  0  0
 35 70  1  0  0  0  0
 35 79  2  0  0  0  0
 36 62  1  0  0  0  0
 36 74  1  0  0  0  0
 36 80  2  0  0  0  0
 37 40  1  0  0  0  0
 38 47  1  0  0  0  0
 39 69  1  0  0  0  0
 40 42  1  0  0  0  0
 41 43  1  0  0  0  0
 41 44  1  0  0  0  0
 42 46  1  0  0  0  0
 43 48  1  0  0  0  0
 44 70  1  0  0  0  0
 45 48  1  0  0  0  0
 45 70  1  0  0  0  0
 46 73  1  0  0  0  0
 47 69  1  0  0  0  0
 48 68  1  0  0  0  0
 49 62  1  0  0  0  0
 50 63  1  0  0  0  0
 51 63  1  0  0  0  0
 52 64  1  0  0  0  0
 53 64  1  0  0  0  0
 54 64  1  0  0  0  0
 55 75  1  0  0  0  0
 56 57  1  0  0  0  0
 57 58  1  0  0  0  0
 58 59  1  0  0  0  0
 59 60  1  0  0  0  0
 60 82  1  0  0  0  0
 61 64  1  0  0  0  0
 61 74  1  0  0  0  0
 62 75  1  0  0  0  0
 66 68  1  0  0  0  0
M  CHG  1  75   1
M  ISO  4  35 100  60 101  63 100  82 101
M  END
> <Batch ID>
0075

> <Smiles>
CNC(C)C(=O)NC(C(=O)N1Cc2cc([101O:1][101CH2:1]CCCCc3nccc([100C:0](C)(C)[100C:0](=O)N4CCCC(n5nc(-c6ccc(Oc7ccc(F)cc7F)cc6)c(C(N)=O)c5N)C4)n3)ccc2CC1C(=O)NC1CCCc2ccccc21)C(C)(C)C

> <Shape>
0.266

> <Color>
0.096

> <Negative vol penalty>
0.000

$$$$

  -OEChem-04052318323D

 82 90  0     1  0  0  0  0  0999 V2000
  -27.7066  -35.3376   23.8929 C   0  0  0  0  0  0  0  0  0  0  0  0
  -28.4599  -34.2623   23.4328 C   0  0  0  0  0  0  0  0  0  0  0  0
  -26.9893  -13.6879   21.7452 C   0  0  0  0  0  0  0  0  0  0  0  0
  -26.6180  -13.8481   19.3633 C   0  0  0  0  0  0  0  0  0  0  0  0
  -26.3929  -35.1372   24.3146 C   0  0  0  0  0  0  0  0  0  0  0  0
  -27.9001  -32.9857   23.3953 C   0  0  0  0  0  0  0  0  0  0  0  0
  -28.9733  -28.6161   19.2406 C   0  0  0  0  0  0  0  0  0  0  0  0
  -26.1897  -12.5461   21.7931 C   0  0  0  0  0  0  0  0  0  0  0  0
  -25.8184  -12.7061   19.4111 C   0  0  0  0  0  0  0  0  0  0  0  0
  -29.8081  -27.4995   19.2480 C   0  0  0  0  0  0  0  0  0  0  0  0
  -26.4975   -9.2575   21.0696 C   0  0  0  0  0  0  0  0  0  0  0  0
  -26.9639   -8.1700   21.8080 C   0  0  0  0  0  0  0  0  0  0  0  0
  -27.9532  -26.1249   19.9475 C   0  0  0  0  0  0  0  0  0  0  0  0
  -25.0081   -8.2907   23.2213 C   0  0  0  0  0  0  0  0  0  0  0  0
  -29.6224  -22.0432   18.2862 C   0  0  0  0  0  0  0  0  0  0  0  0
  -30.0041  -23.1110   16.3965 C   0  0  0  0  0  0  0  0  0  0  0  0
  -27.2035  -14.3390   20.5303 C   0  0  0  0  0  0  0  0  0  0  0  0
  -29.4193  -15.5753   20.2671 C   0  0  0  0  0  0  0  0  0  0  0  0
  -25.8136  -33.8592   24.2732 C   0  0  0  0  0  0  0  0  0  0  0  0
  -27.6225  -28.4973   19.5978 C   0  0  0  0  0  0  0  0  0  0  0  0
  -26.5779  -32.7678   23.8181 C   0  0  0  0  0  0  0  0  0  0  0  0
  -27.1028  -27.2411   19.9414 C   0  0  0  0  0  0  0  0  0  0  0  0
  -25.6043  -12.0551   20.6261 C   0  0  0  0  0  0  0  0  0  0  0  0
  -29.2988  -26.2542   19.6043 C   0  0  0  0  0  0  0  0  0  0  0  0
  -25.2863   -9.8617   21.4070 C   0  0  0  0  0  0  0  0  0  0  0  0
  -26.2193   -7.6865   22.8839 C   0  0  0  0  0  0  0  0  0  0  0  0
  -24.5416   -9.3782   22.4828 C   0  0  0  0  0  0  0  0  0  0  0  0
  -28.0289  -15.5189   20.4802 C   0  0  0  0  0  0  0  0  0  0  0  0
  -28.7393  -21.6597   17.3047 C   0  0  0  0  0  0  0  0  0  0  0  0
  -29.7191  -16.9150   20.3096 C   0  0  0  0  0  0  0  0  0  0  0  0
  -30.3560  -14.5118   20.0500 C   0  0  0  0  0  0  0  0  0  0  0  0
  -25.7965  -29.7070   21.9013 C   0  0  0  0  0  0  0  0  0  0  0  0
  -23.4215  -28.2288   20.2593 C   0  0  0  0  0  0  0  0  0  0  0  0
  -26.3831  -21.8078   19.2875 C   0  0  0  0  0  0  0  0  0  0  0  0
  -22.5016  -25.7644   18.0850 C   0  0  0  0  0  0  0  0  0  0  0  0
  -24.4054  -33.6835   24.7840 C   0  0  0  0  0  0  0  0  0  0  0  0
  -26.7289  -29.7066   19.5590 C   0  0  0  0  0  0  0  0  0  0  0  0
  -25.6550  -27.0566   20.3133 C   0  0  0  0  0  0  0  0  0  0  0  0
  -23.7639  -32.3647   24.3603 C   0  0  0  0  0  0  0  0  0  0  0  0
  -28.2520  -21.0289   22.2440 C   0  0  0  0  0  0  0  0  0  0  0  0
  -24.7293  -31.2052   24.5843 C   0  0  0  0  0  0  0  0  0  0  0  0
  -28.5084  -19.5275   22.1214 C   0  0  0  0  0  0  0  0  0  0  0  0
  -26.8891  -21.4109   21.6751 C   0  0  0  0  0  0  0  0  0  0  0  0
  -26.9326  -19.4736   20.1367 C   0  0  0  0  0  0  0  0  0  0  0  0
  -25.9978  -31.3723   23.7390 C   0  0  1  0  0  0  0  0  0  0  0  0
  -25.4900  -29.5626   20.4375 C   0  0  1  0  0  0  0  0  0  0  0  0
  -28.3119  -19.0496   20.6718 C   0  0  2  0  0  0  0  0  0  0  0  0
  -27.4836  -19.8384   16.0881 C   0  0  0  0  0  0  0  0  0  0  0  0
  -20.4848  -24.7800   16.9621 C   0  0  0  0  0  0  0  0  0  0  0  0
  -25.1438  -20.1592   17.9542 C   0  0  0  0  0  0  0  0  0  0  0  0
  -25.7676  -22.3967   17.0202 C   0  0  0  0  0  0  0  0  0  0  0  0
  -22.6398  -26.8576   22.8706 C   0  0  0  0  0  0  0  0  0  0  0  0
  -21.2953  -25.2256   21.5300 C   0  0  0  0  0  0  0  0  0  0  0  0
  -20.7108  -27.6504   21.4904 C   0  0  0  0  0  0  0  0  0  0  0  0
  -23.5522  -26.3914   15.3902 C   0  0  0  0  0  0  0  0  0  0  0  0
  -31.5676  -23.7171   18.3395 C   0  0  0  0  0  0  0  0  0  0  0  0
  -31.1983  -25.1548   18.6882 C   0  0  0  0  0  0  0  0  0  1  0  0
  -27.6487  -20.6770   17.3948 C   0  0  2  0  0  0  0  0  0  0  0  0
  -22.7916  -26.8573   20.2932 C   0  0  1  0  0  0  0  0  0  0  0  0
  -21.6180  -25.7882   16.8509 C   0  0  2  0  0  0  0  0  0  0  0  0
  -26.2445  -21.2286   17.9021 C   0  0  0  0  0  0  0  0  0  0  0  0
  -21.8871  -26.6512   21.5410 C   0  0  0  0  0  0  0  0  0  0  0  0
  -28.9823  -22.3278   16.1307 N   0  0  0  0  0  0  0  0  0  0  0  0
  -27.4832  -16.7268   20.6460 N   0  0  0  0  0  0  0  0  0  0  0  0
  -30.4267  -22.9729   17.6895 N   0  0  0  0  0  0  0  0  0  0  0  0
  -28.5362  -17.5547   20.5371 N   0  0  0  0  0  0  0  0  0  0  0  0
  -24.8230  -28.2703   20.2664 N   0  0  0  0  0  0  0  0  0  0  0  0
  -26.7328  -20.9197   20.3049 N   0  0  0  0  0  0  0  0  0  0  0  0
  -30.8765  -17.5965   20.1742 N   0  0  0  0  0  0  0  0  0  0  0  0
  -29.8793  -13.1939   20.0365 N   0  0  0  0  0  0  0  0  0  0  0  0
  -25.7393  -31.0084   22.3624 N   0  0  0  0  0  0  0  0  0  0  0  0
  -22.0987  -26.6947   19.0196 N   0  0  0  0  0  0  0  0  0  0  0  0
  -22.4172  -25.4648   15.6353 N   0  3  0  0  0  0  0  0  0  0  0  0
  -31.5821  -14.7228   19.8896 O   0  0  0  0  0  0  0  0  0  0  0  0
  -26.0637  -28.7113   22.5638 O   0  0  0  0  0  0  0  0  0  0  0  0
  -22.6969  -29.2263   20.2205 O   0  0  0  0  0  0  0  0  0  0  0  0
  -26.1889  -23.0142   19.4579 O   0  0  0  0  0  0  0  0  0  0  0  0
  -23.4517  -24.9948   18.2092 O   0  0  0  0  0  0  0  0  0  0  0  0
  -24.8242  -10.9408   20.6724 O   0  0  0  0  0  0  0  0  0  0  0  0
  -30.1115  -25.1627   19.6130 O   0  0  0  0  0  0  0  0  0  1  0  0
  -26.6666   -6.6412   23.5919 F   0  0  0  0  0  0  0  0  0  0  0  0
  -23.3768   -9.9538   22.8110 F   0  0  0  0  0  0  0  0  0  0  0  0
  1  2  1  0  0  0  0
  1  5  2  0  0  0  0
  2  6  2  0  0  0  0
  3  8  2  0  0  0  0
  3 17  1  0  0  0  0
  4  9  1  0  0  0  0
  4 17  2  0  0  0  0
  5 19  1  0  0  0  0
  6 21  1  0  0  0  0
  7 10  2  0  0  0  0
  7 20  1  0  0  0  0
  8 23  1  0  0  0  0
  9 23  2  0  0  0  0
 10 24  1  0  0  0  0
 11 12  2  0  0  0  0
 11 25  1  0  0  0  0
 12 26  1  0  0  0  0
 13 22  1  0  0  0  0
 13 24  2  0  0  0  0
 14 26  2  0  0  0  0
 14 27  1  0  0  0  0
 15 29  2  0  0  0  0
 15 65  1  0  0  0  0
 16 63  2  0  0  0  0
 16 65  1  0  0  0  0
 17 28  1  0  0  0  0
 18 28  1  0  0  0  0
 18 30  2  0  0  0  0
 18 31  1  0  0  0  0
 19 21  2  0  0  0  0
 19 36  1  0  0  0  0
 20 22  2  0  0  0  0
 20 37  1  0  0  0  0
 21 45  1  0  0  0  0
 22 38  1  0  0  0  0
 23 79  1  0  0  0  0
 24 80  1  0  0  0  0
 25 27  2  0  0  0  0
 25 79  1  0  0  0  0
 26 81  1  0  0  0  0
 27 82  1  0  0  0  0
 28 64  2  0  0  0  0
 29 58  1  0  0  0  0
 29 63  1  0  0  0  0
 30 66  1  0  0  0  0
 30 69  1  0  0  0  0
 31 70  1  0  0  0  0
 31 74  2  0  0  0  0
 32 46  1  0  0  0  0
 32 71  1  0  0  0  0
 32 75  2  0  0  0  0
 33 59  1  0  0  0  0
 33 67  1  0  0  0  0
 33 76  2  0  0  0  0
 34 61  1  0  0  0  0
 34 68  1  0  0  0  0
 34 77  2  0  0  0  0
 35 60  1  0  0  0  0
 35 72  1  0  0  0  0
 35 78  2  0  0  0  0
 36 39  1  0  0  0  0
 37 46  1  0  0  0  0
 38 67  1  0  0  0  0
 39 41  1  0  0  0  0
 40 42  1  0  0  0  0
 40 43  1  0  0  0  0
 41 45  1  0  0  0  0
 42 47  1  0  0  0  0
 43 68  1  0  0  0  0
 44 47  1  0  0  0  0
 44 68  1  0  0  0  0
 45 71  1  0  0  0  0
 46 67  1  0  0  0  0
 47 66  1  0  0  0  0
 48 58  1  0  0  0  0
 49 60  1  0  0  0  0
 50 61  1  0  0  0  0
 51 61  1  0  0  0  0
 52 62  1  0  0  0  0
 53 62  1  0  0  0  0
 54 62  1  0  0  0  0
 55 73  1  0  0  0  0
 56 57  1  0  0  0  0
 56 65  1  0  0  0  0
 57 80  1  0  0  0  0
 58 61  1  0  0  0  0
 59 62  1  0  0  0  0
 59 72  1  0  0  0  0
 60 73  1  0  0  0  0
 64 66  1  0  0  0  0
M  CHG  1  73   1
M  ISO  4  34 100  57 101  61 100  80 101
M  END
> <Batch ID>
0075

> <Smiles>
CNC(C)C(=O)NC(C(=O)N1Cc2cc([101O:1][101CH2:1]Cn3cnc(C(C)[100C:0](C)(C)[100C:0](=O)N4CCCC(n5nc(-c6ccc(Oc7ccc(F)cc7F)cc6)c(C(N)=O)c5N)C4)c3)ccc2CC1C(=O)NC1CCCc2ccccc21)C(C)(C)C

> <Shape>
0.272

> <Color>
0.067

> <Negative vol penalty>
0.000

$$$$

  -OEChem-04052318323D

 86 94  0     1  0  0  0  0  0999 V2000
  -17.3613  -29.1183   19.9110 C   0  0  0  0  0  0  0  0  0  0  0  0
  -18.6725  -29.0358   19.4535 C   0  0  0  0  0  0  0  0  0  0  0  0
  -24.7292   -9.9184   22.4403 C   0  0  0  0  0  0  0  0  0  0  0  0
  -24.2340  -11.2651   24.3841 C   0  0  0  0  0  0  0  0  0  0  0  0
  -17.1082  -29.2895   21.2713 C   0  0  0  0  0  0  0  0  0  0  0  0
  -19.7316  -29.1255   20.3561 C   0  0  0  0  0  0  0  0  0  0  0  0
  -25.0949  -26.1857   20.0427 C   0  0  0  0  0  0  0  0  0  0  0  0
  -24.2860   -8.7811   23.1154 C   0  0  0  0  0  0  0  0  0  0  0  0
  -23.7908  -10.1277   25.0592 C   0  0  0  0  0  0  0  0  0  0  0  0
  -26.3536  -26.5766   19.5882 C   0  0  0  0  0  0  0  0  0  0  0  0
  -21.3270   -7.3505   23.9096 C   0  0  0  0  0  0  0  0  0  0  0  0
  -20.4898   -6.4729   23.2208 C   0  0  0  0  0  0  0  0  0  0  0  0
  -26.9930  -27.1247   21.8487 C   0  0  0  0  0  0  0  0  0  0  0  0
  -29.4227  -23.8974   20.0486 C   0  0  0  0  0  0  0  0  0  0  0  0
  -31.5817  -22.7221   21.3678 C   0  0  0  0  0  0  0  0  0  0  0  0
  -22.1072   -4.7018   23.5116 C   0  0  0  0  0  0  0  0  0  0  0  0
  -24.7032  -11.1604   23.0747 C   0  0  0  0  0  0  0  0  0  0  0  0
  -24.3931  -13.2046   21.5805 C   0  0  0  0  0  0  0  0  0  0  0  0
  -18.1646  -29.3717   22.1923 C   0  0  0  0  0  0  0  0  0  0  0  0
  -24.7715  -26.2718   21.4045 C   0  0  0  0  0  0  0  0  0  0  0  0
  -19.4925  -29.2993   21.7299 C   0  0  0  0  0  0  0  0  0  0  0  0
  -25.7303  -26.7319   22.3183 C   0  0  0  0  0  0  0  0  0  0  0  0
  -29.2480  -22.7004   20.7429 C   0  0  0  0  0  0  0  0  0  0  0  0
  -30.6770  -24.5069   20.0138 C   0  0  0  0  0  0  0  0  0  0  0  0
  -30.3275  -22.1127   21.4025 C   0  0  0  0  0  0  0  0  0  0  0  0
  -23.8168   -8.8857   24.4248 C   0  0  0  0  0  0  0  0  0  0  0  0
  -27.3019  -27.0489   20.4909 C   0  0  0  0  0  0  0  0  0  0  0  0
  -22.5544   -6.9038   24.3993 C   0  0  0  0  0  0  0  0  0  0  0  0
  -20.8799   -5.1486   23.0218 C   0  0  0  0  0  0  0  0  0  0  0  0
  -22.9444   -5.5795   24.2003 C   0  0  0  0  0  0  0  0  0  0  0  0
  -31.7565  -23.9192   20.6734 C   0  0  0  0  0  0  0  0  0  0  0  0
  -25.1614  -12.3355   22.3781 C   0  0  0  0  0  0  0  0  0  0  0  0
  -25.2861  -14.1554   21.1503 C   0  0  0  0  0  0  0  0  0  0  0  0
  -22.9971  -13.1569   21.2575 C   0  0  0  0  0  0  0  0  0  0  0  0
  -22.6150  -27.8768   23.1007 C   0  0  0  0  0  0  0  0  0  0  0  0
  -23.7791  -26.0892   25.5445 C   0  0  0  0  0  0  0  0  0  0  0  0
  -26.3696  -24.2781   26.8314 C   0  0  0  0  0  0  0  0  0  0  0  0
  -29.2981  -17.6497   21.9597 C   0  0  0  0  0  0  0  0  0  0  0  0
  -17.8427  -29.6042   23.6473 C   0  0  0  0  0  0  0  0  0  0  0  0
  -23.4184  -25.8211   21.8823 C   0  0  0  0  0  0  0  0  0  0  0  0
  -25.4398  -26.8245   23.7933 C   0  0  0  0  0  0  0  0  0  0  0  0
  -19.0128  -29.3144   24.5838 C   0  0  0  0  0  0  0  0  0  0  0  0
  -30.3256  -14.3152   21.4143 C   0  0  0  0  0  0  0  0  0  0  0  0
  -20.2935  -29.9483   24.0500 C   0  0  0  0  0  0  0  0  0  0  0  0
  -29.0034  -13.5633   21.5607 C   0  0  0  0  0  0  0  0  0  0  0  0
  -30.4606  -15.4447   22.4373 C   0  0  0  0  0  0  0  0  0  0  0  0
  -27.9982  -15.6371   22.5858 C   0  0  0  0  0  0  0  0  0  0  0  0
  -20.6676  -29.3675   22.6811 C   0  0  1  0  0  0  0  0  0  0  0  0
  -23.0224  -26.4356   23.2213 C   0  0  1  0  0  0  0  0  0  0  0  0
  -27.8114  -14.5357   21.5310 C   0  0  2  0  0  0  0  0  0  0  0  0
  -26.9454  -22.7604   21.7332 C   0  0  0  0  0  0  0  0  0  0  0  0
  -27.5975  -22.7816   28.4283 C   0  0  0  0  0  0  0  0  0  0  0  0
  -24.2336  -28.6937   27.0677 C   0  0  0  0  0  0  0  0  0  0  0  0
  -25.7353  -27.4377   28.6282 C   0  0  0  0  0  0  0  0  0  0  0  0
  -23.3248  -26.8201   28.4527 C   0  0  0  0  0  0  0  0  0  0  0  0
  -31.4427  -18.1329   23.2135 C   0  0  0  0  0  0  0  0  0  0  0  0
  -25.4232  -21.8364   25.4525 C   0  0  0  0  0  0  0  0  0  0  0  0
  -27.8970  -22.0641   20.7650 C   0  0  0  0  0  0  0  0  0  0  0  0
  -30.8239  -25.7999   19.2522 C   0  0  0  0  0  0  0  0  0  0  0  0
  -30.1646  -20.8299   22.1498 C   0  0  0  0  0  0  0  0  0  0  0  0
  -30.8957  -27.0380   20.1487 C   0  0  0  0  0  0  0  0  0  0  0  0
  -30.6838  -19.6066   21.3864 C   0  0  0  0  0  0  0  0  0  0  0  0
  -29.6236  -27.2747   20.9543 C   0  0  0  0  0  0  0  0  0  1  0  0
  -24.8917  -26.2510   26.5519 C   0  0  1  0  0  0  0  0  0  0  0  0
  -26.4153  -22.9062   27.4798 C   0  0  2  0  0  0  0  0  0  0  0  0
  -24.5515  -27.3008   27.6471 C   0  0  0  0  0  0  0  0  0  0  0  0
  -26.4438  -12.7016   22.4518 N   0  0  0  0  0  0  0  0  0  0  0  0
  -26.4883  -13.8112   21.6949 N   0  0  0  0  0  0  0  0  0  0  0  0
  -24.1005  -26.3779   24.2106 N   0  0  0  0  0  0  0  0  0  0  0  0
  -29.2816  -16.3209   22.4086 N   0  0  0  0  0  0  0  0  0  0  0  0
  -25.1525  -15.2439   20.3631 N   0  0  0  0  0  0  0  0  0  0  0  0
  -22.2249  -12.1122   21.7836 N   0  0  0  0  0  0  0  0  0  0  0  0
  -21.2718  -28.0614   22.8342 N   0  0  0  0  0  0  0  0  0  0  0  0
  -25.1706  -24.9160   27.0699 N   0  0  0  0  0  0  0  0  0  0  0  0
  -30.4892  -18.3708   22.1316 N   0  0  0  0  0  0  0  0  0  0  0  0
  -26.5333  -21.8454   26.4397 N   0  3  0  0  0  0  0  0  0  0  0  0
  -22.4539  -14.0058   20.5106 O   0  0  0  0  0  0  0  0  0  0  0  0
  -23.4568  -28.7563   23.2407 O   0  0  0  0  0  0  0  0  0  0  0  0
  -22.6678  -25.7135   25.9259 O   0  0  0  0  0  0  0  0  0  0  0  0
  -27.3053  -24.7393   26.1817 O   0  0  0  0  0  0  0  0  0  0  0  0
  -28.3009  -18.1676   21.4406 O   0  0  0  0  0  0  0  0  0  0  0  0
  -23.3840   -7.7762   25.0837 O   0  0  0  0  0  0  0  0  0  0  0  0
  -28.5311  -27.4317   20.0498 O   0  0  0  0  0  0  0  0  0  1  0  0
  -20.0752   -4.3055   22.3616 F   0  0  0  0  0  0  0  0  0  0  0  0
  -24.1218   -5.1443   24.6696 F   0  0  0  0  0  0  0  0  0  0  0  0
  -33.3229  -24.6440   20.6523 Cl  0  0  0  0  0  0  0  0  0  0  0  0
  1  2  1  0  0  0  0
  1  5  2  0  0  0  0
  2  6  2  0  0  0  0
  3  8  2  0  0  0  0
  3 17  1  0  0  0  0
  4  9  1  0  0  0  0
  4 17  2  0  0  0  0
  5 19  1  0  0  0  0
  6 21  1  0  0  0  0
  7 10  2  0  0  0  0
  7 20  1  0  0  0  0
  8 26  1  0  0  0  0
  9 26  2  0  0  0  0
 10 27  1  0  0  0  0
 11 12  2  0  0  0  0
 11 28  1  0  0  0  0
 12 29  1  0  0  0  0
 13 22  1  0  0  0  0
 13 27  2  0  0  0  0
 14 23  1  0  0  0  0
 14 24  2  0  0  0  0
 15 25  1  0  0  0  0
 15 31  2  0  0  0  0
 16 29  2  0  0  0  0
 16 30  1  0  0  0  0
 17 32  1  0  0  0  0
 18 32  1  0  0  0  0
 18 33  2  0  0  0  0
 18 34  1  0  0  0  0
 19 21  2  0  0  0  0
 19 39  1  0  0  0  0
 20 22  2  0  0  0  0
 20 40  1  0  0  0  0
 21 48  1  0  0  0  0
 22 41  1  0  0  0  0
 23 25  2  0  0  0  0
 23 58  1  0  0  0  0
 24 31  1  0  0  0  0
 24 59  1  0  0  0  0
 25 60  1  0  0  0  0
 26 82  1  0  0  0  0
 27 83  1  0  0  0  0
 28 30  2  0  0  0  0
 28 82  1  0  0  0  0
 29 84  1  0  0  0  0
 30 85  1  0  0  0  0
 31 86  1  0  0  0  0
 32 67  2  0  0  0  0
 33 68  1  0  0  0  0
 33 71  1  0  0  0  0
 34 72  1  0  0  0  0
 34 77  2  0  0  0  0
 35 49  1  0  0  0  0
 35 73  1  0  0  0  0
 35 78  2  0  0  0  0
 36 64  1  0  0  0  0
 36 69  1  0  0  0  0
 36 79  2  0  0  0  0
 37 65  1  0  0  0  0
 37 74  1  0  0  0  0
 37 80  2  0  0  0  0
 38 70  1  0  0  0  0
 38 75  1  0  0  0  0
 38 81  2  0  0  0  0
 39 42  1  0  0  0  0
 40 49  1  0  0  0  0
 41 69  1  0  0  0  0
 42 44  1  0  0  0  0
 43 45  1  0  0  0  0
 43 46  1  0  0  0  0
 44 48  1  0  0  0  0
 45 50  1  0  0  0  0
 46 70  1  0  0  0  0
 47 50  1  0  0  0  0
 47 70  1  0  0  0  0
 48 73  1  0  0  0  0
 49 69  1  0  0  0  0
 50 68  1  0  0  0  0
 51 58  1  0  0  0  0
 52 65  1  0  0  0  0
 53 66  1  0  0  0  0
 54 66  1  0  0  0  0
 55 66  1  0  0  0  0
 56 75  1  0  0  0  0
 57 76  1  0  0  0  0
 59 61  1  0  0  0  0
 60 62  1  0  0  0  0
 61 63  1  0  0  0  0
 62 75  1  0  0  0  0
 63 83  1  0  0  0  0
 64 66  1  0  0  0  0
 64 74  1  0  0  0  0
 65 76  1  0  0  0  0
 67 68  1  0  0  0  0
M  CHG  1  76   1
M  ISO  4  38 100  63 101  75 100  83 101
M  END
> <Batch ID>
0075

> <Smiles>
CCc1cc(CC[101CH2:1][101O:1]c2ccc3c(c2)CN(C(=O)C(NC(=O)C(C)NC)C(C)(C)C)C(C(=O)NC2CCCc4ccccc42)C3)c(Cl)cc1CC[100N:0](C)[100C:0](=O)N1CCCC(n2nc(-c3ccc(Oc4ccc(F)cc4F)cc3)c(C(N)=O)c2N)C1

> <Shape>
0.230

> <Color>
0.119

> <Negative vol penalty>
0.000

$$$$

  -OEChem-04052318323D

 85 93  0     1  0  0  0  0  0999 V2000
  -18.8743  -27.6467   23.0054 C   0  0  0  0  0  0  0  0  0  0  0  0
  -19.2995  -28.8370   22.4265 C   0  0  0  0  0  0  0  0  0  0  0  0
  -26.4207  -11.9902   20.2458 C   0  0  0  0  0  0  0  0  0  0  0  0
  -25.2522  -14.0740   20.6057 C   0  0  0  0  0  0  0  0  0  0  0  0
  -19.6893  -26.9948   23.9284 C   0  0  0  0  0  0  0  0  0  0  0  0
  -20.5449  -29.3697   22.7615 C   0  0  0  0  0  0  0  0  0  0  0  0
  -26.7093  -28.3771   21.3480 C   0  0  0  0  0  0  0  0  0  0  0  0
  -25.2394  -11.2870   20.4816 C   0  0  0  0  0  0  0  0  0  0  0  0
  -24.0708  -13.3708   20.8414 C   0  0  0  0  0  0  0  0  0  0  0  0
  -26.5835  -27.0248   21.0332 C   0  0  0  0  0  0  0  0  0  0  0  0
  -22.4178  -10.5173   18.7848 C   0  0  0  0  0  0  0  0  0  0  0  0
  -22.0972   -9.4774   17.9122 C   0  0  0  0  0  0  0  0  0  0  0  0
  -24.4079  -27.4543   20.0838 C   0  0  0  0  0  0  0  0  0  0  0  0
  -22.1288   -7.9187   19.7579 C   0  0  0  0  0  0  0  0  0  0  0  0
  -30.4130  -23.8941   20.7197 C   0  0  0  0  0  0  0  0  0  0  0  0
  -26.4271  -13.3837   20.3079 C   0  0  0  0  0  0  0  0  0  0  0  0
  -28.1197  -14.5894   18.8284 C   0  0  0  0  0  0  0  0  0  0  0  0
  -20.9397  -27.5269   24.2836 C   0  0  0  0  0  0  0  0  0  0  0  0
  -25.6790  -29.2779   21.0423 C   0  0  0  0  0  0  0  0  0  0  0  0
  -21.3922  -28.7142   23.6730 C   0  0  0  0  0  0  0  0  0  0  0  0
  -24.5242  -28.8181   20.3934 C   0  0  0  0  0  0  0  0  0  0  0  0
  -24.0644  -11.9773   20.7794 C   0  0  0  0  0  0  0  0  0  0  0  0
  -25.4315  -26.5627   20.4037 C   0  0  0  0  0  0  0  0  0  0  0  0
  -22.5940  -10.2579   20.1440 C   0  0  0  0  0  0  0  0  0  0  0  0
  -21.9527   -8.1782   18.3987 C   0  0  0  0  0  0  0  0  0  0  0  0
  -22.4495   -8.9586   20.6305 C   0  0  0  0  0  0  0  0  0  0  0  0
  -27.6472  -14.1106   20.0651 C   0  0  0  0  0  0  0  0  0  0  0  0
  -31.4603  -23.7607   21.6084 C   0  0  0  0  0  0  0  0  0  0  0  0
  -30.2073  -22.8229   19.8744 C   0  0  0  0  0  0  0  0  0  0  0  0
  -29.3095  -15.2054   19.1306 C   0  0  0  0  0  0  0  0  0  0  0  0
  -31.9500  -21.6937   20.7990 C   0  0  0  0  0  0  0  0  0  0  0  0
  -27.5353  -14.4866   17.5232 C   0  0  0  0  0  0  0  0  0  0  0  0
  -23.7769  -31.1721   22.7446 C   0  0  0  0  0  0  0  0  0  0  0  0
  -22.8258  -32.1962   19.8174 C   0  0  0  0  0  0  0  0  0  0  0  0
  -24.7334  -34.8484   18.8305 C   0  0  0  0  0  0  0  0  0  0  0  0
  -32.3630  -18.5681   22.3732 C   0  0  0  0  0  0  0  0  0  0  0  0
  -21.7848  -26.7759   25.2822 C   0  0  0  0  0  0  0  0  0  0  0  0
  -25.8415  -30.7382   21.3643 C   0  0  0  0  0  0  0  0  0  0  0  0
  -23.3978  -29.7478   20.0254 C   0  0  0  0  0  0  0  0  0  0  0  0
  -22.8793  -27.6382   25.9024 C   0  0  0  0  0  0  0  0  0  0  0  0
  -32.0493  -15.1681   23.3825 C   0  0  0  0  0  0  0  0  0  0  0  0
  -23.6480  -28.3672   24.8105 C   0  0  0  0  0  0  0  0  0  0  0  0
  -30.9115  -14.6317   22.5122 C   0  0  0  0  0  0  0  0  0  0  0  0
  -31.8078  -16.6181   23.7965 C   0  0  0  0  0  0  0  0  0  0  0  0
  -30.4020  -17.0079   21.8101 C   0  0  0  0  0  0  0  0  0  0  0  0
  -22.7297  -29.3283   24.0450 C   0  0  1  0  0  0  0  0  0  0  0  0
  -24.5116  -31.4782   21.4702 C   0  0  1  0  0  0  0  0  0  0  0  0
  -30.6276  -15.5669   21.3213 C   0  0  2  0  0  0  0  0  0  0  0  0
  -32.9471  -24.5477   23.4676 C   0  0  0  0  0  0  0  0  0  0  0  0
  -33.5343  -20.2062   19.5189 C   0  0  0  0  0  0  0  0  0  0  0  0
  -26.7721  -33.6246   18.0284 C   0  0  0  0  0  0  0  0  0  0  0  0
  -21.9004  -34.8085   22.1814 C   0  0  0  0  0  0  0  0  0  0  0  0
  -24.3194  -34.2170   22.4398 C   0  0  0  0  0  0  0  0  0  0  0  0
  -22.5905  -32.4187   22.4407 C   0  0  0  0  0  0  0  0  0  0  0  0
  -27.6917  -36.6911   19.5163 C   0  0  0  0  0  0  0  0  0  0  0  0
  -31.7601  -24.8673   22.5628 C   0  0  0  0  0  0  0  0  0  0  0  0
  -26.9384  -23.7085   19.2006 C   0  0  0  0  0  0  0  0  0  0  0  0
  -26.3930  -24.3879   20.4469 C   0  0  0  0  0  0  0  0  0  1  0  0
  -28.3970  -24.0599   18.9532 C   0  0  0  0  0  0  0  0  0  0  0  0
  -32.8034  -20.4718   20.8432 C   0  0  2  0  0  0  0  0  0  0  0  0
  -23.1519  -33.5972   20.2755 C   0  0  1  0  0  0  0  0  0  0  0  0
  -26.2101  -34.9580   18.4964 C   0  0  2  0  0  0  0  0  0  0  0  0
  -22.9813  -33.7735   21.8109 C   0  0  0  0  0  0  0  0  0  0  0  0
  -28.4699  -14.3976   21.0774 N   0  0  0  0  0  0  0  0  0  0  0  0
  -32.2521  -22.6703   21.6757 N   0  0  0  0  0  0  0  0  0  0  0  0
  -30.9595  -21.7030   19.8866 N   0  0  0  0  0  0  0  0  0  0  0  0
  -29.4713  -15.0633   20.4774 N   0  0  0  0  0  0  0  0  0  0  0  0
  -23.6012  -31.1654   20.3668 N   0  0  0  0  0  0  0  0  0  0  0  0
  -31.5465  -17.4523   22.6210 N   0  0  0  0  0  0  0  0  0  0  0  0
  -30.2228  -15.8492   18.3730 N   0  0  0  0  0  0  0  0  0  0  0  0
  -26.3090  -13.8209   17.3908 N   0  0  0  0  0  0  0  0  0  0  0  0
  -23.4380  -29.8407   22.8927 N   0  0  0  0  0  0  0  0  0  0  0  0
  -24.4964  -33.8838   19.7869 N   0  0  0  0  0  0  0  0  0  0  0  0
  -32.0507  -19.3010   21.2347 N   0  0  0  0  0  0  0  0  0  0  0  0
  -26.9807  -35.3987   19.6934 N   0  3  0  0  0  0  0  0  0  0  0  0
  -28.0922  -14.9563   16.5021 O   0  0  0  0  0  0  0  0  0  0  0  0
  -23.5367  -32.0765   23.5358 O   0  0  0  0  0  0  0  0  0  0  0  0
  -21.9117  -32.0222   19.0075 O   0  0  0  0  0  0  0  0  0  0  0  0
  -23.8762  -35.5509   18.2992 O   0  0  0  0  0  0  0  0  0  0  0  0
  -33.3041  -18.8843   23.1088 O   0  0  0  0  0  0  0  0  0  0  0  0
  -22.9114  -11.2914   21.0092 O   0  0  0  0  0  0  0  0  0  0  0  0
  -25.3058  -25.2430   20.0959 O   0  0  0  0  0  0  0  0  0  1  0  0
  -29.1861  -22.8780   18.9618 O   0  0  0  0  0  0  0  0  0  0  0  0
  -21.6433   -7.1799   17.5608 F   0  0  0  0  0  0  0  0  0  0  0  0
  -22.6164   -8.7035   21.9355 F   0  0  0  0  0  0  0  0  0  0  0  0
  1  2  1  0  0  0  0
  1  5  2  0  0  0  0
  2  6  2  0  0  0  0
  3  8  2  0  0  0  0
  3 16  1  0  0  0  0
  4  9  1  0  0  0  0
  4 16  2  0  0  0  0
  5 18  1  0  0  0  0
  6 20  1  0  0  0  0
  7 10  2  0  0  0  0
  7 19  1  0  0  0  0
  8 22  1  0  0  0  0
  9 22  2  0  0  0  0
 10 23  1  0  0  0  0
 11 12  2  0  0  0  0
 11 24  1  0  0  0  0
 12 25  1  0  0  0  0
 13 21  1  0  0  0  0
 13 23  2  0  0  0  0
 14 25  2  0  0  0  0
 14 26  1  0  0  0  0
 15 28  1  0  0  0  0
 15 29  2  0  0  0  0
 16 27  1  0  0  0  0
 17 27  1  0  0  0  0
 17 30  2  0  0  0  0
 17 32  1  0  0  0  0
 18 20  2  0  0  0  0
 18 37  1  0  0  0  0
 19 21  2  0  0  0  0
 19 38  1  0  0  0  0
 20 46  1  0  0  0  0
 21 39  1  0  0  0  0
 22 81  1  0  0  0  0
 23 82  1  0  0  0  0
 24 26  2  0  0  0  0
 24 81  1  0  0  0  0
 25 84  1  0  0  0  0
 26 85  1  0  0  0  0
 27 64  2  0  0  0  0
 28 56  1  0  0  0  0
 28 65  2  0  0  0  0
 29 66  1  0  0  0  0
 29 83  1  0  0  0  0
 30 67  1  0  0  0  0
 30 70  1  0  0  0  0
 31 60  1  0  0  0  0
 31 65  1  0  0  0  0
 31 66  2  0  0  0  0
 32 71  1  0  0  0  0
 32 76  2  0  0  0  0
 33 47  1  0  0  0  0
 33 72  1  0  0  0  0
 33 77  2  0  0  0  0
 34 61  1  0  0  0  0
 34 68  1  0  0  0  0
 34 78  2  0  0  0  0
 35 62  1  0  0  0  0
 35 73  1  0  0  0  0
 35 79  2  0  0  0  0
 36 69  1  0  0  0  0
 36 74  1  0  0  0  0
 36 80  2  0  0  0  0
 37 40  1  0  0  0  0
 38 47  1  0  0  0  0
 39 68  1  0  0  0  0
 40 42  1  0  0  0  0
 41 43  1  0  0  0  0
 41 44  1  0  0  0  0
 42 46  1  0  0  0  0
 43 48  1  0  0  0  0
 44 69  1  0  0  0  0
 45 48  1  0  0  0  0
 45 69  1  0  0  0  0
 46 72  1  0  0  0  0
 47 68  1  0  0  0  0
 48 67  1  0  0  0  0
 49 56  1  0  0  0  0
 50 60  1  0  0  0  0
 51 62  1  0  0  0  0
 52 63  1  0  0  0  0
 53 63  1  0  0  0  0
 54 63  1  0  0  0  0
 55 75  1  0  0  0  0
 57 58  1  0  0  0  0
 57 59  1  0  0  0  0
 58 82  1  0  0  0  0
 59 83  1  0  0  0  0
 60 74  1  0  0  0  0
 61 63  1  0  0  0  0
 61 73  1  0  0  0  0
 62 75  1  0  0  0  0
 64 67  1  0  0  0  0
M  CHG  1  75   1
M  ISO  4  36 100  58 101  74 100  82 101
M  END
> <Batch ID>
0075

> <Smiles>
CCc1cc(OCC[101CH2:1][101O:1]c2ccc3c(c2)CN(C(=O)C(NC(=O)C(C)NC)C(C)(C)C)C(C(=O)NC2CCCc4ccccc42)C3)nc(C(C)[100NH:0][100C:0](=O)N2CCCC(n3nc(-c4ccc(Oc5ccc(F)cc5F)cc4)c(C(N)=O)c3N)C2)n1

> <Shape>
0.243

> <Color>
0.086

> <Negative vol penalty>
0.000

$$$$

  -OEChem-04052318323D

 86 94  0     1  0  0  0  0  0999 V2000
  -17.3314  -27.1558   22.6111 C   0  0  0  0  0  0  0  0  0  0  0  0
  -18.4209  -26.7273   21.8595 C   0  0  0  0  0  0  0  0  0  0  0  0
  -24.1167  -12.6609   21.1094 C   0  0  0  0  0  0  0  0  0  0  0  0
  -26.3591  -12.5795   20.2137 C   0  0  0  0  0  0  0  0  0  0  0  0
  -17.4519  -28.2724   23.4373 C   0  0  0  0  0  0  0  0  0  0  0  0
  -19.6312  -27.4159   21.9329 C   0  0  0  0  0  0  0  0  0  0  0  0
  -25.2566  -25.0205   21.5824 C   0  0  0  0  0  0  0  0  0  0  0  0
  -23.8101  -11.4707   20.4498 C   0  0  0  0  0  0  0  0  0  0  0  0
  -26.0525  -11.3893   19.5542 C   0  0  0  0  0  0  0  0  0  0  0  0
  -26.1693  -24.9193   20.5334 C   0  0  0  0  0  0  0  0  0  0  0  0
  -24.3518   -8.1634   20.8982 C   0  0  0  0  0  0  0  0  0  0  0  0
  -23.6630   -7.1844   21.6142 C   0  0  0  0  0  0  0  0  0  0  0  0
  -27.2681  -26.9239   21.3039 C   0  0  0  0  0  0  0  0  0  0  0  0
  -21.8577   -7.2826   20.0115 C   0  0  0  0  0  0  0  0  0  0  0  0
  -30.7349  -23.6602   20.3230 C   0  0  0  0  0  0  0  0  0  0  0  0
  -25.3912  -13.2154   20.9913 C   0  0  0  0  0  0  0  0  0  0  0  0
  -26.2325  -14.5871   22.9707 C   0  0  0  0  0  0  0  0  0  0  0  0
  -18.6671  -28.9693   23.5282 C   0  0  0  0  0  0  0  0  0  0  0  0
  -25.3363  -26.0820   22.4953 C   0  0  0  0  0  0  0  0  0  0  0  0
  -19.7676  -28.5437   22.7601 C   0  0  0  0  0  0  0  0  0  0  0  0
  -26.3567  -27.0349   22.3652 C   0  0  0  0  0  0  0  0  0  0  0  0
  -24.7779  -10.8349   19.6723 C   0  0  0  0  0  0  0  0  0  0  0  0
  -27.1735  -25.8727   20.3923 C   0  0  0  0  0  0  0  0  0  0  0  0
  -23.7936   -8.7021   19.7389 C   0  0  0  0  0  0  0  0  0  0  0  0
  -22.4160   -6.7440   21.1709 C   0  0  0  0  0  0  0  0  0  0  0  0
  -22.5466   -8.2616   19.2956 C   0  0  0  0  0  0  0  0  0  0  0  0
  -25.7084  -14.4451   21.6719 C   0  0  0  0  0  0  0  0  0  0  0  0
  -30.7389  -22.2959   20.5304 C   0  0  0  0  0  0  0  0  0  0  0  0
  -30.4458  -24.0676   19.0366 C   0  0  0  0  0  0  0  0  0  0  0  0
  -26.3527  -15.9441   23.1460 C   0  0  0  0  0  0  0  0  0  0  0  0
  -30.2140  -21.9124   18.3522 C   0  0  0  0  0  0  0  0  0  0  0  0
  -26.5798  -13.5823   23.9327 C   0  0  0  0  0  0  0  0  0  0  0  0
  -23.4193  -28.4795   23.3206 C   0  0  0  0  0  0  0  0  0  0  0  0
  -25.6917  -29.0057   25.5748 C   0  0  0  0  0  0  0  0  0  0  0  0
  -28.9377  -28.6303   26.5594 C   0  0  0  0  0  0  0  0  0  0  0  0
  -27.8361  -20.9825   21.2594 C   0  0  0  0  0  0  0  0  0  0  0  0
  -18.7354  -30.1988   24.3990 C   0  0  0  0  0  0  0  0  0  0  0  0
  -24.3604  -26.1621   23.6371 C   0  0  0  0  0  0  0  0  0  0  0  0
  -26.4980  -28.1824   23.3304 C   0  0  0  0  0  0  0  0  0  0  0  0
  -20.1613  -30.6494   24.7058 C   0  0  0  0  0  0  0  0  0  0  0  0
  -24.6022  -19.7906   20.3663 C   0  0  0  0  0  0  0  0  0  0  0  0
  -21.0043  -30.6559   23.4345 C   0  0  0  0  0  0  0  0  0  0  0  0
  -24.6473  -18.3048   20.7276 C   0  0  0  0  0  0  0  0  0  0  0  0
  -25.9431  -20.2805   19.8241 C   0  0  0  0  0  0  0  0  0  0  0  0
  -27.1466  -18.5169   21.0549 C   0  0  0  0  0  0  0  0  0  0  0  0
  -21.1044  -29.2495   22.8317 C   0  0  1  0  0  0  0  0  0  0  0  0
  -24.2223  -27.5703   24.2074 C   0  0  1  0  0  0  0  0  0  0  0  0
  -25.8336  -17.9899   21.6586 C   0  0  2  0  0  0  0  0  0  0  0  0
  -29.9209  -20.9424   17.2581 C   0  0  0  0  0  0  0  0  0  0  0  0
  -30.5061  -29.1994   28.4339 C   0  0  0  0  0  0  0  0  0  0  0  0
  -32.0016  -22.6391   22.7630 C   0  0  0  0  0  0  0  0  0  0  0  0
  -31.7552  -20.3732   21.7827 C   0  0  0  0  0  0  0  0  0  0  0  0
  -30.0777  -25.8749   17.2263 C   0  0  0  0  0  0  0  0  0  0  0  0
  -31.8105  -26.1782   18.9823 C   0  0  0  0  0  0  0  0  0  0  0  0
  -25.8420  -31.8835   24.5722 C   0  0  0  0  0  0  0  0  0  0  0  0
  -28.0191  -32.1191   25.7858 C   0  0  0  0  0  0  0  0  0  0  0  0
  -25.9287  -31.6396   27.0596 C   0  0  0  0  0  0  0  0  0  0  0  0
  -29.4624  -25.7764   27.1415 C   0  0  0  0  0  0  0  0  0  0  0  0
  -29.7446  -21.5309   22.7480 C   0  0  0  0  0  0  0  0  0  0  0  0
  -29.3743  -26.2970   19.5970 C   0  0  0  0  0  0  0  0  0  1  0  0
  -26.9621  -29.8184   25.6429 C   0  0  1  0  0  0  0  0  0  0  0  0
  -29.5453  -28.1641   27.8701 C   0  0  2  0  0  0  0  0  0  0  0  0
  -31.0403  -21.7598   21.8898 C   0  0  0  0  0  0  0  0  0  0  0  0
  -30.4154  -25.5716   18.7059 C   0  0  0  0  0  0  0  0  0  0  0  0
  -26.6844  -31.3447   25.7456 C   0  0  0  0  0  0  0  0  0  0  0  0
  -25.5092  -15.6182   21.0651 N   0  0  0  0  0  0  0  0  0  0  0  0
  -30.4819  -21.3900   19.5641 N   0  0  0  0  0  0  0  0  0  0  0  0
  -30.1797  -23.2178   18.0230 N   0  0  0  0  0  0  0  0  0  0  0  0
  -25.9101  -16.5103   21.9868 N   0  0  0  0  0  0  0  0  0  0  0  0
  -25.5158  -28.2208   24.4265 N   0  0  0  0  0  0  0  0  0  0  0  0
  -27.0257  -19.9522   20.7548 N   0  0  0  0  0  0  0  0  0  0  0  0
  -26.7926  -16.6962   24.1771 N   0  0  0  0  0  0  0  0  0  0  0  0
  -26.3932  -12.2362   23.5898 N   0  0  0  0  0  0  0  0  0  0  0  0
  -22.0602  -28.4506   23.5684 N   0  0  0  0  0  0  0  0  0  0  0  0
  -27.7349  -29.2755   26.7549 N   0  0  0  0  0  0  0  0  0  0  0  0
  -28.8347  -20.5856   22.1404 N   0  0  0  0  0  0  0  0  0  0  0  0
  -30.2916  -26.8897   27.6707 N   0  3  0  0  0  0  0  0  0  0  0  0
  -27.0265  -13.8701   25.0690 O   0  0  0  0  0  0  0  0  0  0  0  0
  -23.9907  -29.1581   22.4752 O   0  0  0  0  0  0  0  0  0  0  0  0
  -24.8885  -29.0596   26.5095 O   0  0  0  0  0  0  0  0  0  0  0  0
  -29.4780  -28.4443   25.4713 O   0  0  0  0  0  0  0  0  0  0  0  0
  -27.6780  -22.1688   20.9520 O   0  0  0  0  0  0  0  0  0  0  0  0
  -24.4791   -9.6734   19.0287 O   0  0  0  0  0  0  0  0  0  0  0  0
  -28.0652  -25.7766   19.3689 O   0  0  0  0  0  0  0  0  0  1  0  0
  -21.7553   -5.8028   21.8577 F   0  0  0  0  0  0  0  0  0  0  0  0
  -22.0058   -8.7745   18.1819 F   0  0  0  0  0  0  0  0  0  0  0  0
  1  2  1  0  0  0  0
  1  5  2  0  0  0  0
  2  6  2  0  0  0  0
  3  8  2  0  0  0  0
  3 16  1  0  0  0  0
  4  9  1  0  0  0  0
  4 16  2  0  0  0  0
  5 18  1  0  0  0  0
  6 20  1  0  0  0  0
  7 10  2  0  0  0  0
  7 19  1  0  0  0  0
  8 22  1  0  0  0  0
  9 22  2  0  0  0  0
 10 23  1  0  0  0  0
 11 12  2  0  0  0  0
 11 24  1  0  0  0  0
 12 25  1  0  0  0  0
 13 21  1  0  0  0  0
 13 23  2  0  0  0  0
 14 25  2  0  0  0  0
 14 26  1  0  0  0  0
 15 28  2  0  0  0  0
 15 29  1  0  0  0  0
 16 27  1  0  0  0  0
 17 27  1  0  0  0  0
 17 30  2  0  0  0  0
 17 32  1  0  0  0  0
 18 20  2  0  0  0  0
 18 37  1  0  0  0  0
 19 21  2  0  0  0  0
 19 38  1  0  0  0  0
 20 46  1  0  0  0  0
 21 39  1  0  0  0  0
 22 83  1  0  0  0  0
 23 84  1  0  0  0  0
 24 26  2  0  0  0  0
 24 83  1  0  0  0  0
 25 85  1  0  0  0  0
 26 86  1  0  0  0  0
 27 66  2  0  0  0  0
 28 63  1  0  0  0  0
 28 67  1  0  0  0  0
 29 64  1  0  0  0  0
 29 68  2  0  0  0  0
 30 69  1  0  0  0  0
 30 72  1  0  0  0  0
 31 49  1  0  0  0  0
 31 67  2  0  0  0  0
 31 68  1  0  0  0  0
 32 73  1  0  0  0  0
 32 78  2  0  0  0  0
 33 47  1  0  0  0  0
 33 74  1  0  0  0  0
 33 79  2  0  0  0  0
 34 61  1  0  0  0  0
 34 70  1  0  0  0  0
 34 80  2  0  0  0  0
 35 62  1  0  0  0  0
 35 75  1  0  0  0  0
 35 81  2  0  0  0  0
 36 71  1  0  0  0  0
 36 76  1  0  0  0  0
 36 82  2  0  0  0  0
 37 40  1  0  0  0  0
 38 47  1  0  0  0  0
 39 70  1  0  0  0  0
 40 42  1  0  0  0  0
 41 43  1  0  0  0  0
 41 44  1  0  0  0  0
 42 46  1  0  0  0  0
 43 48  1  0  0  0  0
 44 71  1  0  0  0  0
 45 48  1  0  0  0  0
 45 71  1  0  0  0  0
 46 74  1  0  0  0  0
 47 70  1  0  0  0  0
 48 69  1  0  0  0  0
 50 62  1  0  0  0  0
 51 63  1  0  0  0  0
 52 63  1  0  0  0  0
 53 64  1  0  0  0  0
 54 64  1  0  0  0  0
 55 65  1  0  0  0  0
 56 65  1  0  0  0  0
 57 65  1  0  0  0  0
 58 77  1  0  0  0  0
 59 63  1  0  0  0  0
 59 76  1  0  0  0  0
 60 64  1  0  0  0  0
 60 84  1  0  0  0  0
 61 65  1  0  0  0  0
 61 75  1  0  0  0  0
 62 77  1  0  0  0  0
 66 69  1  0  0  0  0
M  CHG  1  77   1
M  ISO  4  36 100  60 101  76 100  84 101
M  END
> <Batch ID>
0075

> <Smiles>
CNC(C)C(=O)NC(C(=O)N1Cc2cc([101O:1][101CH2:1]C(C)(C)c3cc(C(C)(C)C[100NH:0][100C:0](=O)N4CCCC(n5nc(-c6ccc(Oc7ccc(F)cc7F)cc6)c(C(N)=O)c5N)C4)nc(C)n3)ccc2CC1C(=O)NC1CCCc2ccccc21)C(C)(C)C

> <Shape>
0.250

> <Color>
0.061

> <Negative vol penalty>
0.000

$$$$

  -OEChem-04052318323D

 81 89  0     1  0  0  0  0  0999 V2000
  -24.7723  -30.8367   13.1082 C   0  0  0  0  0  0  0  0  0  0  0  0
  -24.5524  -29.5276   13.5244 C   0  0  0  0  0  0  0  0  0  0  0  0
  -23.0771   -9.8666   19.9419 C   0  0  0  0  0  0  0  0  0  0  0  0
  -23.8409   -9.8741   22.2340 C   0  0  0  0  0  0  0  0  0  0  0  0
  -26.0747  -31.3206   12.9920 C   0  0  0  0  0  0  0  0  0  0  0  0
  -25.6350  -28.7012   13.8237 C   0  0  0  0  0  0  0  0  0  0  0  0
  -25.8746  -24.3682   18.1450 C   0  0  0  0  0  0  0  0  0  0  0  0
  -22.3358   -8.7120   20.1926 C   0  0  0  0  0  0  0  0  0  0  0  0
  -23.0994   -8.7195   22.4848 C   0  0  0  0  0  0  0  0  0  0  0  0
  -25.7166  -22.9839   18.0950 C   0  0  0  0  0  0  0  0  0  0  0  0
  -21.1217   -5.9783   23.8236 C   0  0  0  0  0  0  0  0  0  0  0  0
  -20.3675   -5.9329   24.9961 C   0  0  0  0  0  0  0  0  0  0  0  0
  -28.2437  -18.8762   21.8596 C   0  0  0  0  0  0  0  0  0  0  0  0
  -28.1106  -22.7217   17.9561 C   0  0  0  0  0  0  0  0  0  0  0  0
  -19.1182   -7.8682   24.2674 C   0  0  0  0  0  0  0  0  0  0  0  0
  -26.9856  -19.0761   21.3356 C   0  0  0  0  0  0  0  0  0  0  0  0
  -28.2939  -18.3432   19.6725 C   0  0  0  0  0  0  0  0  0  0  0  0
  -23.8298  -10.4476   20.9626 C   0  0  0  0  0  0  0  0  0  0  0  0
  -24.1668  -12.9734   20.8430 C   0  0  0  0  0  0  0  0  0  0  0  0
  -27.1735  -30.5028   13.2993 C   0  0  0  0  0  0  0  0  0  0  0  0
  -27.1533  -24.9411   18.0898 C   0  0  0  0  0  0  0  0  0  0  0  0
  -26.9533  -29.1742   13.7103 C   0  0  0  0  0  0  0  0  0  0  0  0
  -28.2822  -24.1134   18.0081 C   0  0  0  0  0  0  0  0  0  0  0  0
  -29.0714  -18.4124   20.8075 C   0  0  0  0  0  0  0  0  0  0  0  0
  -22.3469   -8.1385   21.4641 C   0  0  0  0  0  0  0  0  0  0  0  0
  -26.8345  -22.1605   17.9976 C   0  0  0  0  0  0  0  0  0  0  0  0
  -20.8742   -6.9687   22.8730 C   0  0  0  0  0  0  0  0  0  0  0  0
  -19.3657   -6.8778   25.2179 C   0  0  0  0  0  0  0  0  0  0  0  0
  -19.8725   -7.9136   23.0949 C   0  0  0  0  0  0  0  0  0  0  0  0
  -24.5963  -11.6400   20.7040 C   0  0  0  0  0  0  0  0  0  0  0  0
  -25.2570  -13.7250   20.4782 C   0  0  0  0  0  0  0  0  0  0  0  0
  -22.8961  -13.4868   21.2642 C   0  0  0  0  0  0  0  0  0  0  0  0
  -28.6457  -26.9077   16.0876 C   0  0  0  0  0  0  0  0  0  0  0  0
  -30.9749  -26.8089   18.3431 C   0  0  0  0  0  0  0  0  0  0  0  0
  -32.4333  -25.1275   20.9302 C   0  0  0  0  0  0  0  0  0  0  0  0
  -30.7392  -14.7539   20.6578 C   0  0  0  0  0  0  0  0  0  0  0  0
  -28.5643  -31.0555   13.1132 C   0  0  0  0  0  0  0  0  0  0  0  0
  -27.3083  -26.4350   18.1718 C   0  0  0  0  0  0  0  0  0  0  0  0
  -29.6780  -24.6779   17.9662 C   0  0  0  0  0  0  0  0  0  0  0  0
  -29.6451  -30.2323   13.8095 C   0  0  0  0  0  0  0  0  0  0  0  0
  -29.6019  -12.3682   18.2720 C   0  0  0  0  0  0  0  0  0  0  0  0
  -29.4491  -28.7462   13.5270 C   0  0  0  0  0  0  0  0  0  0  0  0
  -28.1658  -12.0718   18.7072 C   0  0  0  0  0  0  0  0  0  0  0  0
  -30.5207  -12.5902   19.4714 C   0  0  0  0  0  0  0  0  0  0  0  0
  -28.6199  -13.3174   20.8615 C   0  0  0  0  0  0  0  0  0  0  0  0
  -28.1010  -28.2549   14.0679 C   0  0  1  0  0  0  0  0  0  0  0  0
  -28.6282  -26.9315   17.5898 C   0  0  1  0  0  0  0  0  0  0  0  0
  -27.6441  -13.1415   19.6854 C   0  0  2  0  0  0  0  0  0  0  0  0
  -31.3805  -19.2825   21.2920 C   0  0  0  0  0  0  0  0  0  0  0  0
  -34.3436  -25.2791   22.5504 C   0  0  0  0  0  0  0  0  0  0  0  0
  -32.9157  -26.0190   16.1251 C   0  0  0  0  0  0  0  0  0  0  0  0
  -34.5237  -25.2731   17.8932 C   0  0  0  0  0  0  0  0  0  0  0  0
  -33.8277  -27.6655   17.7718 C   0  0  0  0  0  0  0  0  0  0  0  0
  -30.6082  -25.1383   23.2600 C   0  0  0  0  0  0  0  0  0  0  0  0
  -25.8597  -18.8258   19.0527 C   0  0  0  0  0  0  0  0  0  0  0  0
  -30.8033  -16.9040   21.8954 C   0  0  0  0  0  0  0  0  0  0  0  0
  -25.5541  -20.2567   18.6238 C   0  0  0  0  0  0  0  0  0  1  0  0
  -30.5021  -18.0659   20.9077 C   0  0  1  0  0  0  0  0  0  0  0  0
  -32.1796  -25.9356   18.5984 C   0  0  1  0  0  0  0  0  0  0  0  0
  -32.8739  -25.5861   22.3086 C   0  0  2  0  0  0  0  0  0  0  0  0
  -33.3354  -26.2124   17.5960 C   0  0  0  0  0  0  0  0  0  0  0  0
  -25.8606  -11.5466   20.2836 N   0  0  0  0  0  0  0  0  0  0  0  0
  -27.0280  -18.7492   20.0053 N   0  0  0  0  0  0  0  0  0  0  0  0
  -26.2350  -12.8309   20.1551 N   0  0  0  0  0  0  0  0  0  0  0  0
  -29.7772  -26.1448   18.0428 N   0  0  0  0  0  0  0  0  0  0  0  0
  -29.9698  -13.6174   20.3587 N   0  0  0  0  0  0  0  0  0  0  0  0
  -25.4649  -15.0569   20.4053 N   0  0  0  0  0  0  0  0  0  0  0  0
  -21.8864  -12.5757   21.6028 N   0  0  0  0  0  0  0  0  0  0  0  0
  -28.1703  -28.0649   15.5009 N   0  0  0  0  0  0  0  0  0  0  0  0
  -32.5408  -26.1373   19.9974 N   0  0  0  0  0  0  0  0  0  0  0  0
  -30.1398  -15.6813   21.5012 N   0  0  0  0  0  0  0  0  0  0  0  0
  -32.0715  -24.9033   23.3626 N   0  3  0  0  0  0  0  0  0  0  0  0
  -22.6578  -14.7170   21.3224 O   0  0  0  0  0  0  0  0  0  0  0  0
  -29.0613  -25.9135   15.5039 O   0  0  0  0  0  0  0  0  0  0  0  0
  -31.0907  -28.0349   18.4147 O   0  0  0  0  0  0  0  0  0  0  0  0
  -32.0372  -23.9865   20.7028 O   0  0  0  0  0  0  0  0  0  0  0  0
  -31.8741  -14.9315   20.2023 O   0  0  0  0  0  0  0  0  0  0  0  0
  -21.6234   -7.0120   21.7092 O   0  0  0  0  0  0  0  0  0  0  0  0
  -26.6831  -20.8091   17.9480 O   0  0  0  0  0  0  0  0  0  1  0  0
  -18.6404   -6.8331   26.3432 F   0  0  0  0  0  0  0  0  0  0  0  0
  -19.6293   -8.8667   22.1848 F   0  0  0  0  0  0  0  0  0  0  0  0
  1  2  1  0  0  0  0
  1  5  2  0  0  0  0
  2  6  2  0  0  0  0
  3  8  2  0  0  0  0
  3 18  1  0  0  0  0
  4  9  1  0  0  0  0
  4 18  2  0  0  0  0
  5 20  1  0  0  0  0
  6 22  1  0  0  0  0
  7 10  2  0  0  0  0
  7 21  1  0  0  0  0
  8 25  1  0  0  0  0
  9 25  2  0  0  0  0
 10 26  1  0  0  0  0
 11 12  2  0  0  0  0
 11 27  1  0  0  0  0
 12 28  1  0  0  0  0
 13 16  2  0  0  0  0
 13 24  1  0  0  0  0
 14 23  1  0  0  0  0
 14 26  2  0  0  0  0
 15 28  2  0  0  0  0
 15 29  1  0  0  0  0
 16 63  1  0  0  0  0
 17 24  2  0  0  0  0
 17 63  1  0  0  0  0
 18 30  1  0  0  0  0
 19 30  1  0  0  0  0
 19 31  2  0  0  0  0
 19 32  1  0  0  0  0
 20 22  2  0  0  0  0
 20 37  1  0  0  0  0
 21 23  2  0  0  0  0
 21 38  1  0  0  0  0
 22 46  1  0  0  0  0
 23 39  1  0  0  0  0
 24 58  1  0  0  0  0
 25 78  1  0  0  0  0
 26 79  1  0  0  0  0
 27 29  2  0  0  0  0
 27 78  1  0  0  0  0
 28 80  1  0  0  0  0
 29 81  1  0  0  0  0
 30 62  2  0  0  0  0
 31 64  1  0  0  0  0
 31 67  1  0  0  0  0
 32 68  1  0  0  0  0
 32 73  2  0  0  0  0
 33 47  1  0  0  0  0
 33 69  1  0  0  0  0
 33 74  2  0  0  0  0
 34 59  1  0  0  0  0
 34 65  1  0  0  0  0
 34 75  2  0  0  0  0
 35 60  1  0  0  0  0
 35 70  1  0  0  0  0
 35 76  2  0  0  0  0
 36 66  1  0  0  0  0
 36 71  1  0  0  0  0
 36 77  2  0  0  0  0
 37 40  1  0  0  0  0
 38 47  1  0  0  0  0
 39 65  1  0  0  0  0
 40 42  1  0  0  0  0
 41 43  1  0  0  0  0
 41 44  1  0  0  0  0
 42 46  1  0  0  0  0
 43 48  1  0  0  0  0
 44 66  1  0  0  0  0
 45 48  1  0  0  0  0
 45 66  1  0  0  0  0
 46 69  1  0  0  0  0
 47 65  1  0  0  0  0
 48 64  1  0  0  0  0
 49 58  1  0  0  0  0
 50 60  1  0  0  0  0
 51 61  1  0  0  0  0
 52 61  1  0  0  0  0
 53 61  1  0  0  0  0
 54 72  1  0  0  0  0
 55 57  1  0  0  0  0
 55 63  1  0  0  0  0
 56 58  1  0  0  0  0
 56 71  1  0  0  0  0
 57 79  1  0  0  0  0
 59 61  1  0  0  0  0
 59 70  1  0  0  0  0
 60 72  1  0  0  0  0
 62 64  1  0  0  0  0
M  CHG  1  72   1
M  ISO  4  36 100  57 101  71 100  79 101
M  END
> <Batch ID>
0075

> <Smiles>
CNC(C)C(=O)NC(C(=O)N1Cc2cc([101O:1][101CH2:1]Cn3ccc(C(C)C[100NH:0][100C:0](=O)N4CCCC(n5nc(-c6ccc(Oc7ccc(F)cc7F)cc6)c(C(N)=O)c5N)C4)c3)ccc2CC1C(=O)NC1CCCc2ccccc21)C(C)(C)C

> <Shape>
0.229

> <Color>
0.196

> <Negative vol penalty>
0.000

$$$$

  -OEChem-04052318323D

 85 93  0     1  0  0  0  0  0999 V2000
  -24.3169  -18.9577   25.5280 C   0  0  0  0  0  0  0  0  0  0  0  0
  -25.3037  -19.8065   25.0371 C   0  0  0  0  0  0  0  0  0  0  0  0
  -25.6849  -13.0492   20.0217 C   0  0  0  0  0  0  0  0  0  0  0  0
  -25.2485  -14.0613   22.1717 C   0  0  0  0  0  0  0  0  0  0  0  0
  -22.9955  -19.1119   25.1108 C   0  0  0  0  0  0  0  0  0  0  0  0
  -24.9698  -20.8094   24.1276 C   0  0  0  0  0  0  0  0  0  0  0  0
  -27.4853  -26.3767   23.6991 C   0  0  0  0  0  0  0  0  0  0  0  0
  -25.3556  -11.7983   20.5438 C   0  0  0  0  0  0  0  0  0  0  0  0
  -24.9192  -12.8105   22.6937 C   0  0  0  0  0  0  0  0  0  0  0  0
  -28.4693  -26.8994   22.8610 C   0  0  0  0  0  0  0  0  0  0  0  0
  -24.2819   -8.3908   21.2152 C   0  0  0  0  0  0  0  0  0  0  0  0
  -23.4541   -7.5672   20.4523 C   0  0  0  0  0  0  0  0  0  0  0  0
  -26.7563  -27.7600   21.3966 C   0  0  0  0  0  0  0  0  0  0  0  0
  -30.6777  -24.7625   17.6805 C   0  0  0  0  0  0  0  0  0  0  0  0
  -28.7226  -25.1004   19.0399 C   0  0  0  0  0  0  0  0  0  0  0  0
  -21.7178   -9.2456   20.5246 C   0  0  0  0  0  0  0  0  0  0  0  0
  -25.6314  -14.1807   20.8357 C   0  0  0  0  0  0  0  0  0  0  0  0
  -25.1017  -16.3957   19.6863 C   0  0  0  0  0  0  0  0  0  0  0  0
  -22.6437  -20.1233   24.2031 C   0  0  0  0  0  0  0  0  0  0  0  0
  -26.1273  -26.5325   23.3860 C   0  0  0  0  0  0  0  0  0  0  0  0
  -23.6427  -20.9765   23.6968 C   0  0  0  0  0  0  0  0  0  0  0  0
  -25.7570  -27.2405   22.2337 C   0  0  0  0  0  0  0  0  0  0  0  0
  -29.8097  -25.6207   18.3464 C   0  0  0  0  0  0  0  0  0  0  0  0
  -24.9727  -11.6790   21.8797 C   0  0  0  0  0  0  0  0  0  0  0  0
  -28.1049  -27.5887   21.7081 C   0  0  0  0  0  0  0  0  0  0  0  0
  -23.8277   -9.6418   21.6328 C   0  0  0  0  0  0  0  0  0  0  0  0
  -22.1720   -7.9946   20.1070 C   0  0  0  0  0  0  0  0  0  0  0  0
  -22.5456  -10.0692   21.2874 C   0  0  0  0  0  0  0  0  0  0  0  0
  -25.9720  -15.4730   20.2972 C   0  0  0  0  0  0  0  0  0  0  0  0
  -30.4168  -23.4029   17.7384 C   0  0  0  0  0  0  0  0  0  0  0  0
  -28.5491  -23.7258   19.0368 C   0  0  0  0  0  0  0  0  0  0  0  0
  -25.9067  -17.4568   19.3511 C   0  0  0  0  0  0  0  0  0  0  0  0
  -23.6918  -16.3019   19.4438 C   0  0  0  0  0  0  0  0  0  0  0  0
  -23.7311  -24.5453   22.7435 C   0  0  0  0  0  0  0  0  0  0  0  0
  -21.9731  -27.2710   22.7902 C   0  0  0  0  0  0  0  0  0  0  0  0
  -21.8817  -30.6657   22.4523 C   0  0  0  0  0  0  0  0  0  0  0  0
  -29.9686  -21.0050   21.1481 C   0  0  0  0  0  0  0  0  0  0  0  0
  -21.2101  -20.2211   23.7450 C   0  0  0  0  0  0  0  0  0  0  0  0
  -25.0777  -25.9858   24.3144 C   0  0  0  0  0  0  0  0  0  0  0  0
  -24.3126  -27.4528   21.8634 C   0  0  0  0  0  0  0  0  0  0  0  0
  -20.8766  -21.5471   23.0662 C   0  0  0  0  0  0  0  0  0  0  0  0
  -30.9343  -17.9235   19.3387 C   0  0  0  0  0  0  0  0  0  0  0  0
  -21.9530  -21.9114   22.0486 C   0  0  0  0  0  0  0  0  0  0  0  0
  -29.6743  -17.0662   19.4448 C   0  0  0  0  0  0  0  0  0  0  0  0
  -31.0656  -18.8868   20.5146 C   0  0  0  0  0  0  0  0  0  0  0  0
  -28.6126  -18.8953   20.8261 C   0  0  0  0  0  0  0  0  0  0  0  0
  -23.3159  -22.0921   22.7280 C   0  0  1  0  0  0  0  0  0  0  0  0
  -23.7337  -25.7590   23.6293 C   0  0  1  0  0  0  0  0  0  0  0  0
  -28.4262  -17.9462   19.6328 C   0  0  2  0  0  0  0  0  0  0  0  0
  -31.3281  -22.4520   17.0370 C   0  0  0  0  0  0  0  0  0  0  0  0
  -26.1232  -23.0790   18.8935 C   0  0  0  0  0  0  0  0  0  0  0  0
  -20.2949  -32.6089   22.5083 C   0  0  0  0  0  0  0  0  0  0  0  0
  -20.9382  -26.5025   20.0246 C   0  0  0  0  0  0  0  0  0  0  0  0
  -20.1463  -28.8608   19.7423 C   0  0  0  0  0  0  0  0  0  0  0  0
  -19.2045  -27.4403   21.5638 C   0  0  0  0  0  0  0  0  0  0  0  0
  -28.7205  -22.7879   22.3070 C   0  0  0  0  0  0  0  0  0  0  0  0
  -23.3105  -31.9164   24.7224 C   0  0  0  0  0  0  0  0  0  0  0  0
  -30.0468  -27.1094   18.3173 C   0  0  0  0  0  0  0  0  0  0  0  0
  -30.9297  -27.6149   19.4603 C   0  0  0  0  0  0  0  0  0  0  0  0
  -27.6812  -21.7235   20.3391 C   0  0  0  0  0  0  0  0  0  0  0  0
  -30.3109  -27.4084   20.8379 C   0  0  0  0  0  0  0  0  0  1  0  0
  -27.3920  -23.1332   19.7693 C   0  0  1  0  0  0  0  0  0  0  0  0
  -21.5727  -28.3026   21.7634 C   0  0  1  0  0  0  0  0  0  0  0  0
  -21.2549  -31.7472   23.3136 C   0  0  2  0  0  0  0  0  0  0  0  0
  -20.4928  -27.7711   20.7792 C   0  0  0  0  0  0  0  0  0  0  0  0
  -27.2333  -15.9097   20.3481 N   0  0  0  0  0  0  0  0  0  0  0  0
  -29.3712  -22.8605   18.4017 N   0  0  0  0  0  0  0  0  0  0  0  0
  -27.1614  -17.1183   19.7650 N   0  0  0  0  0  0  0  0  0  0  0  0
  -23.3235  -26.8938   22.7997 N   0  0  0  0  0  0  0  0  0  0  0  0
  -29.8496  -19.6800   20.6973 N   0  0  0  0  0  0  0  0  0  0  0  0
  -25.6566  -18.6371   18.7454 N   0  0  0  0  0  0  0  0  0  0  0  0
  -23.0192  -15.1422   19.8525 N   0  0  0  0  0  0  0  0  0  0  0  0
  -23.3831  -23.3760   23.3924 N   0  0  0  0  0  0  0  0  0  0  0  0
  -21.1677  -29.4877   22.5117 N   0  0  0  0  0  0  0  0  0  0  0  0
  -28.7817  -21.7377   21.3004 N   0  0  0  0  0  0  0  0  0  0  0  0
  -22.3104  -32.6295   23.8868 N   0  3  0  0  0  0  0  0  0  0  0  0
  -23.0504  -17.2124   18.8666 O   0  0  0  0  0  0  0  0  0  0  0  0
  -24.0220  -24.6613   21.5588 O   0  0  0  0  0  0  0  0  0  0  0  0
  -21.1207  -26.8218   23.5604 O   0  0  0  0  0  0  0  0  0  0  0  0
  -22.9006  -30.8489   21.7898 O   0  0  0  0  0  0  0  0  0  0  0  0
  -31.0733  -21.5075   21.3909 O   0  0  0  0  0  0  0  0  0  0  0  0
  -24.6511  -10.4586   22.3894 O   0  0  0  0  0  0  0  0  0  0  0  0
  -29.0633  -28.0994   20.8880 O   0  0  0  0  0  0  0  0  0  1  0  0
  -21.3777   -7.2042   19.3731 F   0  0  0  0  0  0  0  0  0  0  0  0
  -22.1042  -11.2705   21.6847 F   0  0  0  0  0  0  0  0  0  0  0  0
  1  2  1  0  0  0  0
  1  5  2  0  0  0  0
  2  6  2  0  0  0  0
  3  8  2  0  0  0  0
  3 17  1  0  0  0  0
  4  9  1  0  0  0  0
  4 17  2  0  0  0  0
  5 19  1  0  0  0  0
  6 21  1  0  0  0  0
  7 10  2  0  0  0  0
  7 20  1  0  0  0  0
  8 24  1  0  0  0  0
  9 24  2  0  0  0  0
 10 25  1  0  0  0  0
 11 12  2  0  0  0  0
 11 26  1  0  0  0  0
 12 27  1  0  0  0  0
 13 22  1  0  0  0  0
 13 25  2  0  0  0  0
 14 23  1  0  0  0  0
 14 30  2  0  0  0  0
 15 23  2  0  0  0  0
 15 31  1  0  0  0  0
 16 27  2  0  0  0  0
 16 28  1  0  0  0  0
 17 29  1  0  0  0  0
 18 29  1  0  0  0  0
 18 32  2  0  0  0  0
 18 33  1  0  0  0  0
 19 21  2  0  0  0  0
 19 38  1  0  0  0  0
 20 22  2  0  0  0  0
 20 39  1  0  0  0  0
 21 47  1  0  0  0  0
 22 40  1  0  0  0  0
 23 58  1  0  0  0  0
 24 82  1  0  0  0  0
 25 83  1  0  0  0  0
 26 28  2  0  0  0  0
 26 82  1  0  0  0  0
 27 84  1  0  0  0  0
 28 85  1  0  0  0  0
 29 66  2  0  0  0  0
 30 50  1  0  0  0  0
 30 67  1  0  0  0  0
 31 62  1  0  0  0  0
 31 67  2  0  0  0  0
 32 68  1  0  0  0  0
 32 71  1  0  0  0  0
 33 72  1  0  0  0  0
 33 77  2  0  0  0  0
 34 48  1  0  0  0  0
 34 73  1  0  0  0  0
 34 78  2  0  0  0  0
 35 63  1  0  0  0  0
 35 69  1  0  0  0  0
 35 79  2  0  0  0  0
 36 64  1  0  0  0  0
 36 74  1  0  0  0  0
 36 80  2  0  0  0  0
 37 70  1  0  0  0  0
 37 75  1  0  0  0  0
 37 81  2  0  0  0  0
 38 41  1  0  0  0  0
 39 48  1  0  0  0  0
 40 69  1  0  0  0  0
 41 43  1  0  0  0  0
 42 44  1  0  0  0  0
 42 45  1  0  0  0  0
 43 47  1  0  0  0  0
 44 49  1  0  0  0  0
 45 70  1  0  0  0  0
 46 49  1  0  0  0  0
 46 70  1  0  0  0  0
 47 73  1  0  0  0  0
 48 69  1  0  0  0  0
 49 68  1  0  0  0  0
 51 62  1  0  0  0  0
 52 64  1  0  0  0  0
 53 65  1  0  0  0  0
 54 65  1  0  0  0  0
 55 65  1  0  0  0  0
 56 75  1  0  0  0  0
 57 76  1  0  0  0  0
 58 59  1  0  0  0  0
 59 61  1  0  0  0  0
 60 62  1  0  0  0  0
 60 75  1  0  0  0  0
 61 83  1  0  0  0  0
 63 65  1  0  0  0  0
 63 74  1  0  0  0  0
 64 76  1  0  0  0  0
 66 68  1  0  0  0  0
M  CHG  1  76   1
M  ISO  4  37 100  61 101  75 100  83 101
M  END
> <Batch ID>
0075

> <Smiles>
CNC(C)C(=O)NC(C(=O)N1Cc2cc([101O:1][101CH2:1]CCc3cc(C)nc(C(C)C[100N:0](C)[100C:0](=O)N4CCCC(n5nc(-c6ccc(Oc7ccc(F)cc7F)cc6)c(C(N)=O)c5N)C4)c3)ccc2CC1C(=O)NC1CCCc2ccccc21)C(C)(C)C

> <Shape>
0.239

> <Color>
0.057

> <Negative vol penalty>
0.000

$$$$

  -OEChem-04052318323D

 85 93  0     1  0  0  0  0  0999 V2000
  -32.6136  -32.4742   19.2844 C   0  0  0  0  0  0  0  0  0  0  0  0
  -32.9891  -31.1580   19.5332 C   0  0  0  0  0  0  0  0  0  0  0  0
  -23.1421   -9.8219   19.8857 C   0  0  0  0  0  0  0  0  0  0  0  0
  -23.9213   -9.7789   22.1722 C   0  0  0  0  0  0  0  0  0  0  0  0
  -31.2625  -32.8144   19.2319 C   0  0  0  0  0  0  0  0  0  0  0  0
  -32.0137  -30.1813   19.7307 C   0  0  0  0  0  0  0  0  0  0  0  0
  -32.2924  -24.3037   18.0329 C   0  0  0  0  0  0  0  0  0  0  0  0
  -22.4520   -8.6286   20.0984 C   0  0  0  0  0  0  0  0  0  0  0  0
  -23.2311   -8.5856   22.3850 C   0  0  0  0  0  0  0  0  0  0  0  0
  -32.6162  -23.1404   18.7298 C   0  0  0  0  0  0  0  0  0  0  0  0
  -20.0467   -7.6240   22.9811 C   0  0  0  0  0  0  0  0  0  0  0  0
  -19.3026   -7.5079   24.1552 C   0  0  0  0  0  0  0  0  0  0  0  0
  -30.2715  -22.7281   19.1190 C   0  0  0  0  0  0  0  0  0  0  0  0
  -20.6346   -5.6018   24.8107 C   0  0  0  0  0  0  0  0  0  0  0  0
  -31.8257  -18.0458   17.8325 C   0  0  0  0  0  0  0  0  0  0  0  0
  -23.8768  -10.3971   20.9226 C   0  0  0  0  0  0  0  0  0  0  0  0
  -24.1061  -12.9376   20.8932 C   0  0  0  0  0  0  0  0  0  0  0  0
  -30.2699  -31.8395   19.4192 C   0  0  0  0  0  0  0  0  0  0  0  0
  -30.9540  -24.6943   17.8829 C   0  0  0  0  0  0  0  0  0  0  0  0
  -30.6480  -30.5090   19.6819 C   0  0  0  0  0  0  0  0  0  0  0  0
  -29.9332  -23.8954   18.4175 C   0  0  0  0  0  0  0  0  0  0  0  0
  -22.4964   -8.0104   21.3480 C   0  0  0  0  0  0  0  0  0  0  0  0
  -31.6059  -22.3539   19.2755 C   0  0  0  0  0  0  0  0  0  0  0  0
  -21.0846   -6.7290   22.7217 C   0  0  0  0  0  0  0  0  0  0  0  0
  -19.5966   -6.4968   25.0700 C   0  0  0  0  0  0  0  0  0  0  0  0
  -21.3786   -5.7179   23.6366 C   0  0  0  0  0  0  0  0  0  0  0  0
  -24.5904  -11.6295   20.7034 C   0  0  0  0  0  0  0  0  0  0  0  0
  -30.6036  -17.4947   17.5688 C   0  0  0  0  0  0  0  0  0  0  0  0
  -25.1609  -13.7475   20.5499 C   0  0  0  0  0  0  0  0  0  0  0  0
  -30.6434  -18.0785   19.7037 C   0  0  0  0  0  0  0  0  0  0  0  0
  -22.8179  -13.3810   21.3401 C   0  0  0  0  0  0  0  0  0  0  0  0
  -29.2381  -27.2136   18.7844 C   0  0  0  0  0  0  0  0  0  0  0  0
  -26.9347  -25.7956   16.9939 C   0  0  0  0  0  0  0  0  0  0  0  0
  -25.6862  -22.9325   15.6187 C   0  0  0  0  0  0  0  0  0  0  0  0
  -30.5959  -15.0010   20.7359 C   0  0  0  0  0  0  0  0  0  0  0  0
  -28.8228  -32.2639   19.4003 C   0  0  0  0  0  0  0  0  0  0  0  0
  -30.6199  -25.9378   17.1054 C   0  0  0  0  0  0  0  0  0  0  0  0
  -28.4797  -24.2601   18.2670 C   0  0  0  0  0  0  0  0  0  0  0  0
  -27.8482  -31.0988   19.2484 C   0  0  0  0  0  0  0  0  0  0  0  0
  -29.5433  -12.6571   18.2712 C   0  0  0  0  0  0  0  0  0  0  0  0
  -28.2223  -29.9630   20.1955 C   0  0  0  0  0  0  0  0  0  0  0  0
  -28.1240  -12.2844   18.7034 C   0  0  0  0  0  0  0  0  0  0  0  0
  -30.4604  -12.8744   19.4727 C   0  0  0  0  0  0  0  0  0  0  0  0
  -28.5407  -13.4694   20.8991 C   0  0  0  0  0  0  0  0  0  0  0  0
  -29.6192  -29.4164   19.8767 C   0  0  1  0  0  0  0  0  0  0  0  0
  -29.2505  -26.5118   17.4559 C   0  0  1  0  0  0  0  0  0  0  0  0
  -27.5648  -13.2949   19.7229 C   0  0  2  0  0  0  0  0  0  0  0  0
  -28.7125  -18.5901   21.2314 C   0  0  0  0  0  0  0  0  0  0  0  0
  -23.7694  -22.0825   14.2401 C   0  0  0  0  0  0  0  0  0  0  0  0
  -30.8730  -15.7329   15.7885 C   0  0  0  0  0  0  0  0  0  0  0  0
  -29.9800  -18.0070   15.1822 C   0  0  0  0  0  0  0  0  0  0  0  0
  -28.5631  -16.3906   16.4317 C   0  0  0  0  0  0  0  0  0  0  0  0
  -25.1064  -25.9743   19.4302 C   0  0  0  0  0  0  0  0  0  0  0  0
  -23.5977  -24.3041   18.3335 C   0  0  0  0  0  0  0  0  0  0  0  0
  -24.0003  -26.5165   17.2537 C   0  0  0  0  0  0  0  0  0  0  0  0
  -27.4935  -22.0100   13.4642 C   0  0  0  0  0  0  0  0  0  0  0  0
  -32.9742  -19.0471   19.8892 C   0  0  0  0  0  0  0  0  0  0  0  0
  -30.5780  -17.1058   22.0506 C   0  0  0  0  0  0  0  0  0  0  0  0
  -33.1057  -20.5306   19.5620 C   0  0  0  0  0  0  0  0  0  1  0  0
  -30.2237  -18.2884   21.1118 C   0  0  1  0  0  0  0  0  0  0  0  0
  -25.8438  -24.7864   17.2596 C   0  0  1  0  0  0  0  0  0  0  0  0
  -25.1917  -22.6204   14.2178 C   0  0  2  0  0  0  0  0  0  0  0  0
  -30.0362  -16.9433   16.3356 C   0  0  0  0  0  0  0  0  0  0  0  0
  -24.6644  -25.3892   18.0739 C   0  0  0  0  0  0  0  0  0  0  0  0
  -25.8545  -11.6051   20.2727 N   0  0  0  0  0  0  0  0  0  0  0  0
  -31.8224  -18.3985   19.1606 N   0  0  0  0  0  0  0  0  0  0  0  0
  -26.1734  -12.9080   20.1890 N   0  0  0  0  0  0  0  0  0  0  0  0
  -29.8929  -17.5275   18.7443 N   0  3  0  0  0  0  0  0  0  0  0  0
  -28.2042  -25.4885   17.5037 N   0  0  0  0  0  0  0  0  0  0  0  0
  -29.8730  -13.8445   20.3999 N   0  0  0  0  0  0  0  0  0  0  0  0
  -25.3118  -15.0887   20.5245 N   0  0  0  0  0  0  0  0  0  0  0  0
  -21.8500  -12.4161   21.6510 N   0  0  0  0  0  0  0  0  0  0  0  0
  -29.5713  -28.5529   18.7163 N   0  0  0  0  0  0  0  0  0  0  0  0
  -25.4590  -24.2493   15.9589 N   0  0  0  0  0  0  0  0  0  0  0  0
  -29.9640  -15.8710   21.6159 N   0  0  0  0  0  0  0  0  0  0  0  0
  -26.0691  -21.6025   13.5736 N   0  3  0  0  0  0  0  0  0  0  0  0
  -22.5282  -14.5970   21.4444 O   0  0  0  0  0  0  0  0  0  0  0  0
  -28.9462  -26.5868   19.7962 O   0  0  0  0  0  0  0  0  0  0  0  0
  -26.6718  -26.8152   16.3513 O   0  0  0  0  0  0  0  0  0  0  0  0
  -26.2173  -22.0914   16.3404 O   0  0  0  0  0  0  0  0  0  0  0  0
  -31.7190  -15.2431   20.2808 O   0  0  0  0  0  0  0  0  0  0  0  0
  -21.8229   -6.8461   21.5560 O   0  0  0  0  0  0  0  0  0  0  0  0
  -31.9192  -21.2183   19.9567 O   0  0  0  0  0  0  0  0  0  1  0  0
  -18.8830   -6.3864   26.1982 F   0  0  0  0  0  0  0  0  0  0  0  0
  -22.3754   -4.8558   23.3935 F   0  0  0  0  0  0  0  0  0  0  0  0
  1  2  1  0  0  0  0
  1  5  2  0  0  0  0
  2  6  2  0  0  0  0
  3  8  2  0  0  0  0
  3 16  1  0  0  0  0
  4  9  1  0  0  0  0
  4 16  2  0  0  0  0
  5 18  1  0  0  0  0
  6 20  1  0  0  0  0
  7 10  2  0  0  0  0
  7 19  1  0  0  0  0
  8 22  1  0  0  0  0
  9 22  2  0  0  0  0
 10 23  1  0  0  0  0
 11 12  2  0  0  0  0
 11 24  1  0  0  0  0
 12 25  1  0  0  0  0
 13 21  1  0  0  0  0
 13 23  2  0  0  0  0
 14 25  2  0  0  0  0
 14 26  1  0  0  0  0
 15 28  2  0  0  0  0
 15 66  1  0  0  0  0
 16 27  1  0  0  0  0
 17 27  1  0  0  0  0
 17 29  2  0  0  0  0
 17 31  1  0  0  0  0
 18 20  2  0  0  0  0
 18 36  1  0  0  0  0
 19 21  2  0  0  0  0
 19 37  1  0  0  0  0
 20 45  1  0  0  0  0
 21 38  1  0  0  0  0
 22 82  1  0  0  0  0
 23 83  1  0  0  0  0
 24 26  2  0  0  0  0
 24 82  1  0  0  0  0
 25 84  1  0  0  0  0
 26 85  1  0  0  0  0
 27 65  2  0  0  0  0
 28 63  1  0  0  0  0
 28 68  1  0  0  0  0
 29 67  1  0  0  0  0
 29 71  1  0  0  0  0
 30 60  1  0  0  0  0
 30 66  1  0  0  0  0
 30 68  2  0  0  0  0
 31 72  1  0  0  0  0
 31 77  2  0  0  0  0
 32 46  1  0  0  0  0
 32 73  1  0  0  0  0
 32 78  2  0  0  0  0
 33 61  1  0  0  0  0
 33 69  1  0  0  0  0
 33 79  2  0  0  0  0
 34 62  1  0  0  0  0
 34 74  1  0  0  0  0
 34 80  2  0  0  0  0
 35 70  1  0  0  0  0
 35 75  1  0  0  0  0
 35 81  2  0  0  0  0
 36 39  1  0  0  0  0
 37 46  1  0  0  0  0
 38 69  1  0  0  0  0
 39 41  1  0  0  0  0
 40 42  1  0  0  0  0
 40 43  1  0  0  0  0
 41 45  1  0  0  0  0
 42 47  1  0  0  0  0
 43 70  1  0  0  0  0
 44 47  1  0  0  0  0
 44 70  1  0  0  0  0
 45 73  1  0  0  0  0
 46 69  1  0  0  0  0
 47 67  1  0  0  0  0
 48 60  1  0  0  0  0
 49 62  1  0  0  0  0
 50 63  1  0  0  0  0
 51 63  1  0  0  0  0
 52 63  1  0  0  0  0
 53 64  1  0  0  0  0
 54 64  1  0  0  0  0
 55 64  1  0  0  0  0
 56 76  1  0  0  0  0
 57 59  1  0  0  0  0
 57 66  1  0  0  0  0
 58 60  1  0  0  0  0
 58 75  1  0  0  0  0
 59 83  1  0  0  0  0
 61 64  1  0  0  0  0
 61 74  1  0  0  0  0
 62 76  1  0  0  0  0
 65 67  1  0  0  0  0
M  CHG  2  68   1  76   1
M  ISO  4  35 100  59 101  75 100  83 101
M  END
> <Batch ID>
0075

> <Smiles>
CNC(C)C(=O)NC(C(=O)N1Cc2cc([101O:1][101CH2:1]Cn3cc(C(C)(C)C)nc3C(C)C[100NH:0][100C:0](=O)N3CCCC(n4nc(-c5ccc(Oc6ccc(F)cc6F)cc5)c(C(N)=O)c4N)C3)ccc2CC1C(=O)NC1CCCc2ccccc21)C(C)(C)C

> <Shape>
0.253

> <Color>
0.192

> <Negative vol penalty>
0.000

$$$$

  -OEChem-04052318323D

 89 97  0     1  0  0  0  0  0999 V2000
  -21.4321   -7.7850   24.2088 C   0  0  0  0  0  0  0  0  0  0  0  0
  -22.2615   -8.8351   24.5894 C   0  0  0  0  0  0  0  0  0  0  0  0
  -22.7723  -29.6203   21.3502 C   0  0  0  0  0  0  0  0  0  0  0  0
  -23.8296  -28.3802   23.1339 C   0  0  0  0  0  0  0  0  0  0  0  0
  -21.5190   -7.2617   22.9194 C   0  0  0  0  0  0  0  0  0  0  0  0
  -23.1791   -9.3617   23.6810 C   0  0  0  0  0  0  0  0  0  0  0  0
  -24.9440  -15.2064   23.2011 C   0  0  0  0  0  0  0  0  0  0  0  0
  -21.7190  -29.9494   22.2033 C   0  0  0  0  0  0  0  0  0  0  0  0
  -22.7763  -28.7095   23.9870 C   0  0  0  0  0  0  0  0  0  0  0  0
  -26.0634  -15.8901   23.6737 C   0  0  0  0  0  0  0  0  0  0  0  0
  -18.5740  -30.8163   23.8098 C   0  0  0  0  0  0  0  0  0  0  0  0
  -17.2753  -30.6986   23.3146 C   0  0  0  0  0  0  0  0  0  0  0  0
  -27.1469  -15.5776   21.5412 C   0  0  0  0  0  0  0  0  0  0  0  0
  -30.1247  -23.2933   18.6337 C   0  0  0  0  0  0  0  0  0  0  0  0
  -17.6379  -28.3421   22.9240 C   0  0  0  0  0  0  0  0  0  0  0  0
  -23.8276  -28.8356   21.8154 C   0  0  0  0  0  0  0  0  0  0  0  0
  -26.1056  -29.2196   20.7333 C   0  0  0  0  0  0  0  0  0  0  0  0
  -22.4313   -7.7886   21.9918 C   0  0  0  0  0  0  0  0  0  0  0  0
  -24.9219  -14.6929   21.8964 C   0  0  0  0  0  0  0  0  0  0  0  0
  -23.2792   -8.8441   22.3784 C   0  0  0  0  0  0  0  0  0  0  0  0
  -26.0250  -14.8901   21.0536 C   0  0  0  0  0  0  0  0  0  0  0  0
  -31.4321  -22.8767   18.4088 C   0  0  0  0  0  0  0  0  0  0  0  0
  -32.1427  -22.2541   19.4290 C   0  0  0  0  0  0  0  0  0  0  0  0
  -21.7210  -29.4941   23.5217 C   0  0  0  0  0  0  0  0  0  0  0  0
  -27.1663  -16.0732   22.8446 C   0  0  0  0  0  0  0  0  0  0  0  0
  -19.4047  -29.6969   23.8620 C   0  0  0  0  0  0  0  0  0  0  0  0
  -16.8072  -29.4615   22.8718 C   0  0  0  0  0  0  0  0  0  0  0  0
  -18.9366  -28.4598   23.4191 C   0  0  0  0  0  0  0  0  0  0  0  0
  -24.9156  -28.4948   20.9345 C   0  0  0  0  0  0  0  0  0  0  0  0
  -29.5779  -23.0656   19.8863 C   0  0  0  0  0  0  0  0  0  0  0  0
  -31.5056  -22.0731   20.6460 C   0  0  0  0  0  0  0  0  0  0  0  0
  -26.8041  -28.4829   19.8083 C   0  0  0  0  0  0  0  0  0  0  0  0
  -26.5406  -30.4488   21.3294 C   0  0  0  0  0  0  0  0  0  0  0  0
  -24.6768  -11.7861   20.6338 C   0  0  0  0  0  0  0  0  0  0  0  0
  -24.5409  -13.4343   17.8432 C   0  0  0  0  0  0  0  0  0  0  0  0
  -26.6270  -22.6535   18.3593 C   0  0  0  0  0  0  0  0  0  0  0  0
  -25.2807  -16.2889   16.1255 C   0  0  0  0  0  0  0  0  0  0  0  0
  -22.5217   -7.1587   20.6244 C   0  0  0  0  0  0  0  0  0  0  0  0
  -23.6962  -13.9811   21.3930 C   0  0  0  0  0  0  0  0  0  0  0  0
  -26.0433  -14.3760   19.6380 C   0  0  0  0  0  0  0  0  0  0  0  0
  -23.2600   -8.0213   19.6040 C   0  0  0  0  0  0  0  0  0  0  0  0
  -26.1688  -25.4532   16.1702 C   0  0  0  0  0  0  0  0  0  0  0  0
  -24.5544   -8.5644   20.2010 C   0  0  0  0  0  0  0  0  0  0  0  0
  -25.8755  -26.6105   17.1240 C   0  0  0  0  0  0  0  0  0  0  0  0
  -25.5815  -24.1428   16.6849 C   0  0  0  0  0  0  0  0  0  0  0  0
  -25.7269  -24.9383   19.0232 C   0  0  0  0  0  0  0  0  0  0  0  0
  -24.2700   -9.4587   21.4138 C   0  0  1  0  0  0  0  0  0  0  0  0
  -23.9849  -13.0531   20.2170 C   0  0  1  0  0  0  0  0  0  0  0  0
  -26.3292  -26.2752   18.5559 C   0  0  2  0  0  0  0  0  0  0  0  0
  -32.0483  -23.1114   17.0693 C   0  0  0  0  0  0  0  0  0  0  0  0
  -33.5458  -21.7944   19.2159 C   0  0  0  0  0  0  0  0  0  0  0  0
  -28.0112  -24.0409   21.6091 C   0  0  0  0  0  0  0  0  0  0  0  0
  -33.0370  -22.4258   22.6003 C   0  0  0  0  0  0  0  0  0  0  0  0
  -25.0778  -17.3272   13.8499 C   0  0  0  0  0  0  0  0  0  0  0  0
  -25.7955  -22.5457   20.6676 C   0  0  0  0  0  0  0  0  0  0  0  0
  -27.5955  -21.0093   19.8509 C   0  0  0  0  0  0  0  0  0  0  0  0
  -26.8328  -11.6856   16.8436 C   0  0  0  0  0  0  0  0  0  0  0  0
  -27.2086  -13.3477   15.0094 C   0  0  0  0  0  0  0  0  0  0  0  0
  -25.0406  -12.1223   15.1549 C   0  0  0  0  0  0  0  0  0  0  0  0
  -23.6256  -18.5134   17.1605 C   0  0  0  0  0  0  0  0  0  0  0  0
  -30.5779  -19.4474   22.0283 C   0  0  0  0  0  0  0  0  0  0  0  0
  -29.7237  -18.6420   23.0130 C   0  0  0  0  0  0  0  0  0  0  0  0
  -31.2833  -20.6133   22.7327 C   0  0  0  0  0  0  0  0  0  0  0  0
  -29.0316  -17.4608   22.3437 C   0  0  0  0  0  0  0  0  0  1  0  0
  -28.1768  -23.4981   20.1632 C   0  0  2  0  0  0  0  0  0  0  0  0
  -32.2290  -21.3980   21.7985 C   0  0  1  0  0  0  0  0  0  0  0  0
  -25.5580  -13.9308   16.8442 C   0  0  1  0  0  0  0  0  0  0  0  0
  -24.4363  -17.1668   15.2194 C   0  0  2  0  0  0  0  0  0  0  0  0
  -27.0528  -22.4485   19.7913 C   0  0  0  0  0  0  0  0  0  0  0  0
  -26.1607  -12.7797   15.9903 C   0  0  0  0  0  0  0  0  0  0  0  0
  -24.8580  -27.3830   20.1964 N   0  0  0  0  0  0  0  0  0  0  0  0
  -30.2370  -22.4641   20.9019 N   0  0  0  0  0  0  0  0  0  0  0  0
  -26.0205  -27.4038   19.5224 N   0  0  0  0  0  0  0  0  0  0  0  0
  -24.8237  -13.6811   19.1941 N   0  0  0  0  0  0  0  0  0  0  0  0
  -26.0181  -23.8714   18.0557 N   0  0  0  0  0  0  0  0  0  0  0  0
  -28.0061  -28.6594   19.2195 N   0  0  0  0  0  0  0  0  0  0  0  0
  -25.7003  -31.0738   22.2609 N   0  0  0  0  0  0  0  0  0  0  0  0
  -23.8156  -10.7638   20.9839 N   0  0  0  0  0  0  0  0  0  0  0  0
  -24.8913  -14.9676   16.0639 N   0  0  0  0  0  0  0  0  0  0  0  0
  -24.2668  -18.5199   15.8204 N   0  3  0  0  0  0  0  0  0  0  0  0
  -27.6346  -30.9859   21.0323 O   0  0  0  0  0  0  0  0  0  0  0  0
  -25.9014  -11.7391   20.6361 O   0  0  0  0  0  0  0  0  0  0  0  0
  -23.5292  -12.8554   17.4394 O   0  0  0  0  0  0  0  0  0  0  0  0
  -26.8330  -21.7581   17.5359 O   0  0  0  0  0  0  0  0  0  0  0  0
  -26.1966  -16.7306   16.8157 O   0  0  0  0  0  0  0  0  0  0  0  0
  -20.6935  -29.8153   24.3545 O   0  0  0  0  0  0  0  0  0  0  0  0
  -28.2605  -16.7395   23.3036 O   0  0  0  0  0  0  0  0  0  1  0  0
  -15.5596  -29.3482   22.3978 F   0  0  0  0  0  0  0  0  0  0  0  0
  -19.7296  -27.3807   23.4679 F   0  0  0  0  0  0  0  0  0  0  0  0
  1  2  1  0  0  0  0
  1  5  2  0  0  0  0
  2  6  2  0  0  0  0
  3  8  2  0  0  0  0
  3 16  1  0  0  0  0
  4  9  1  0  0  0  0
  4 16  2  0  0  0  0
  5 18  1  0  0  0  0
  6 20  1  0  0  0  0
  7 10  2  0  0  0  0
  7 19  1  0  0  0  0
  8 24  1  0  0  0  0
  9 24  2  0  0  0  0
 10 25  1  0  0  0  0
 11 12  2  0  0  0  0
 11 26  1  0  0  0  0
 12 27  1  0  0  0  0
 13 21  1  0  0  0  0
 13 25  2  0  0  0  0
 14 22  2  0  0  0  0
 14 30  1  0  0  0  0
 15 27  2  0  0  0  0
 15 28  1  0  0  0  0
 16 29  1  0  0  0  0
 17 29  1  0  0  0  0
 17 32  2  0  0  0  0
 17 33  1  0  0  0  0
 18 20  2  0  0  0  0
 18 38  1  0  0  0  0
 19 21  2  0  0  0  0
 19 39  1  0  0  0  0
 20 47  1  0  0  0  0
 21 40  1  0  0  0  0
 22 23  1  0  0  0  0
 22 50  1  0  0  0  0
 23 31  2  0  0  0  0
 23 51  1  0  0  0  0
 24 86  1  0  0  0  0
 25 87  1  0  0  0  0
 26 28  2  0  0  0  0
 26 86  1  0  0  0  0
 27 88  1  0  0  0  0
 28 89  1  0  0  0  0
 29 71  2  0  0  0  0
 30 65  1  0  0  0  0
 30 72  2  0  0  0  0
 31 66  1  0  0  0  0
 31 72  1  0  0  0  0
 32 73  1  0  0  0  0
 32 76  1  0  0  0  0
 33 77  1  0  0  0  0
 33 81  2  0  0  0  0
 34 48  1  0  0  0  0
 34 78  1  0  0  0  0
 34 82  2  0  0  0  0
 35 67  1  0  0  0  0
 35 74  1  0  0  0  0
 35 83  2  0  0  0  0
 36 69  1  0  0  0  0
 36 75  1  0  0  0  0
 36 84  2  0  0  0  0
 37 68  1  0  0  0  0
 37 79  1  0  0  0  0
 37 85  2  0  0  0  0
 38 41  1  0  0  0  0
 39 48  1  0  0  0  0
 40 74  1  0  0  0  0
 41 43  1  0  0  0  0
 42 44  1  0  0  0  0
 42 45  1  0  0  0  0
 43 47  1  0  0  0  0
 44 49  1  0  0  0  0
 45 75  1  0  0  0  0
 46 49  1  0  0  0  0
 46 75  1  0  0  0  0
 47 78  1  0  0  0  0
 48 74  1  0  0  0  0
 49 73  1  0  0  0  0
 52 65  1  0  0  0  0
 53 66  1  0  0  0  0
 54 68  1  0  0  0  0
 55 69  1  0  0  0  0
 56 69  1  0  0  0  0
 57 70  1  0  0  0  0
 58 70  1  0  0  0  0
 59 70  1  0  0  0  0
 60 80  1  0  0  0  0
 61 62  1  0  0  0  0
 61 63  1  0  0  0  0
 62 64  1  0  0  0  0
 63 66  1  0  0  0  0
 64 87  1  0  0  0  0
 65 69  1  0  0  0  0
 67 70  1  0  0  0  0
 67 79  1  0  0  0  0
 68 80  1  0  0  0  0
 71 73  1  0  0  0  0
M  CHG  1  80   1
M  ISO  4  36 100  64 101  69 100  87 101
M  END
> <Batch ID>
0075

> <Smiles>
CNC(C)C(=O)NC(C(=O)N1Cc2cc([101O:1][101CH2:1]CCCC(C)c3nc(C(C)[100C:0](C)(C)[100C:0](=O)N4CCCC(n5nc(-c6ccc(Oc7ccc(F)cc7F)cc6)c(C(N)=O)c5N)C4)cc(C)c3C)ccc2CC1C(=O)NC1CCCc2ccccc21)C(C)(C)C

> <Shape>
0.247

> <Color>
0.060

> <Negative vol penalty>
0.000

$$$$

  -OEChem-04052318323D

 82 90  0     1  0  0  0  0  0999 V2000
  -31.6329  -25.1730   18.1807 C   0  0  0  0  0  0  0  0  0  0  0  0
  -30.2792  -24.9058   18.3583 C   0  0  0  0  0  0  0  0  0  0  0  0
  -25.7795  -13.4173   21.2361 C   0  0  0  0  0  0  0  0  0  0  0  0
  -23.8554  -14.8383   20.8959 C   0  0  0  0  0  0  0  0  0  0  0  0
  -32.3099  -25.9762   19.0975 C   0  0  0  0  0  0  0  0  0  0  0  0
  -29.6019  -25.4409   19.4535 C   0  0  0  0  0  0  0  0  0  0  0  0
  -23.7739  -27.3149   19.6211 C   0  0  0  0  0  0  0  0  0  0  0  0
  -24.9409  -12.3785   21.6400 C   0  0  0  0  0  0  0  0  0  0  0  0
  -23.0167  -13.7994   21.2997 C   0  0  0  0  0  0  0  0  0  0  0  0
  -22.6046  -26.7035   20.0713 C   0  0  0  0  0  0  0  0  0  0  0  0
  -22.9398  -10.0799   20.1753 C   0  0  0  0  0  0  0  0  0  0  0  0
  -23.1872   -8.8086   19.6575 C   0  0  0  0  0  0  0  0  0  0  0  0
  -22.8380  -27.8317   22.1907 C   0  0  0  0  0  0  0  0  0  0  0  0
  -23.5298   -7.9639   21.8950 C   0  0  0  0  0  0  0  0  0  0  0  0
  -23.2807  -23.9954   23.3471 C   0  0  0  0  0  0  0  0  0  0  0  0
  -22.2662  -22.0468   23.1720 C   0  0  0  0  0  0  0  0  0  0  0  0
  -25.2367  -14.6473   20.8641 C   0  0  0  0  0  0  0  0  0  0  0  0
  -26.5404  -16.0009   19.1391 C   0  0  0  0  0  0  0  0  0  0  0  0
  -31.6383  -26.5292   20.1992 C   0  0  0  0  0  0  0  0  0  0  0  0
  -24.4911  -28.1823   20.4575 C   0  0  0  0  0  0  0  0  0  0  0  0
  -30.2708  -26.2511   20.3866 C   0  0  0  0  0  0  0  0  0  0  0  0
  -24.0147  -28.4548   21.7478 C   0  0  0  0  0  0  0  0  0  0  0  0
  -23.5595  -12.5695   21.6717 C   0  0  0  0  0  0  0  0  0  0  0  0
  -22.1380  -26.9596   21.3573 C   0  0  0  0  0  0  0  0  0  0  0  0
  -22.9875  -10.2933   21.5530 C   0  0  0  0  0  0  0  0  0  0  0  0
  -23.4821   -7.7506   20.5173 C   0  0  0  0  0  0  0  0  0  0  0  0
  -23.2824   -9.2353   22.4128 C   0  0  0  0  0  0  0  0  0  0  0  0
  -26.1025  -15.7210   20.4474 C   0  0  0  0  0  0  0  0  0  0  0  0
  -24.1790  -22.9792   23.1211 C   0  0  0  0  0  0  0  0  0  0  0  0
  -27.3362  -17.1122   19.2738 C   0  0  0  0  0  0  0  0  0  0  0  0
  -26.2533  -15.3176   17.9118 C   0  0  0  0  0  0  0  0  0  0  0  0
  -27.4139  -28.1871   21.7068 C   0  0  0  0  0  0  0  0  0  0  0  0
  -26.5527  -31.1450   22.7224 C   0  0  0  0  0  0  0  0  0  0  0  0
  -24.0455  -33.3154   23.5289 C   0  0  0  0  0  0  0  0  0  0  0  0
  -27.5441  -21.5110   23.3307 C   0  0  0  0  0  0  0  0  0  0  0  0
  -32.4233  -27.3528   21.1893 C   0  0  0  0  0  0  0  0  0  0  0  0
  -25.7362  -28.8546   19.9474 C   0  0  0  0  0  0  0  0  0  0  0  0
  -24.7368  -29.3940   22.6778 C   0  0  0  0  0  0  0  0  0  0  0  0
  -31.5458  -28.1876   22.1184 C   0  0  0  0  0  0  0  0  0  0  0  0
  -30.1926  -19.3135   22.4180 C   0  0  0  0  0  0  0  0  0  0  0  0
  -30.4030  -27.3439   22.6744 C   0  0  0  0  0  0  0  0  0  0  0  0
  -29.4842  -18.1688   21.6914 C   0  0  0  0  0  0  0  0  0  0  0  0
  -29.3593  -19.8443   23.5825 C   0  0  0  0  0  0  0  0  0  0  0  0
  -27.2745  -19.0947   22.5029 C   0  0  0  0  0  0  0  0  0  0  0  0
  -29.4957  -26.8335   21.5485 C   0  0  1  0  0  0  0  0  0  0  0  0
  -26.6644  -29.3202   21.0650 C   0  0  1  0  0  0  0  0  0  0  0  0
  -28.0513  -18.5636   21.2861 C   0  0  2  0  0  0  0  0  0  0  0  0
  -25.5631  -23.5687   20.4615 C   0  0  0  0  0  0  0  0  0  0  0  0
  -23.6528  -35.6496   24.3624 C   0  0  0  0  0  0  0  0  0  0  0  0
  -27.3288  -30.2670   25.5396 C   0  0  0  0  0  0  0  0  0  0  0  0
  -26.0540  -32.2303   26.4276 C   0  0  0  0  0  0  0  0  0  0  0  0
  -28.0255  -32.5936   24.9430 C   0  0  0  0  0  0  0  0  0  0  0  0
  -22.5726  -34.0682   21.0747 C   0  0  0  0  0  0  0  0  0  0  0  0
  -26.0996  -23.9861   21.8252 C   0  0  0  0  0  0  0  0  0  0  0  0
  -19.9275  -24.2795   22.3172 C   0  0  0  0  0  0  0  0  0  0  0  0
  -20.7286  -24.0547   23.6015 C   0  0  0  0  0  0  0  0  0  0  0  0
  -20.6864  -25.0781   21.2638 C   0  0  0  0  0  0  0  0  0  1  0  0
  -25.6416  -23.0687   22.9945 C   0  0  2  0  0  0  0  0  0  0  0  0
  -25.8778  -31.6979   23.9544 C   0  0  1  0  0  0  0  0  0  0  0  0
  -23.7999  -34.7612   23.1368 C   0  0  2  0  0  0  0  0  0  0  0  0
  -26.8087  -31.6780   25.1996 C   0  0  0  0  0  0  0  0  0  0  0  0
  -23.5411  -21.7688   23.0128 N   0  0  0  0  0  0  0  0  0  0  0  0
  -26.5806  -16.5847   21.3471 N   0  0  0  0  0  0  0  0  0  0  0  0
  -22.0596  -23.3828   23.3767 N   0  0  0  0  0  0  0  0  0  0  0  0
  -27.3273  -17.4183   20.6029 N   0  0  0  0  0  0  0  0  0  0  0  0
  -25.9528  -30.0220   22.1352 N   0  0  0  0  0  0  0  0  0  0  0  0
  -28.0125  -20.2020   23.1307 N   0  0  0  0  0  0  0  0  0  0  0  0
  -28.0358  -17.8477   18.3838 N   0  0  0  0  0  0  0  0  0  0  0  0
  -25.4170  -14.1937   17.9526 N   0  0  0  0  0  0  0  0  0  0  0  0
  -28.6148  -27.8873   21.0924 N   0  0  0  0  0  0  0  0  0  0  0  0
  -25.3920  -33.0252   23.5928 N   0  0  0  0  0  0  0  0  0  0  0  0
  -26.2596  -21.7677   22.8671 N   0  0  0  0  0  0  0  0  0  0  0  0
  -22.5563  -34.8732   22.3232 N   0  3  0  0  0  0  0  0  0  0  0  0
  -26.7377  -15.6828   16.8138 O   0  0  0  0  0  0  0  0  0  0  0  0
  -26.9386  -27.6273   22.6878 O   0  0  0  0  0  0  0  0  0  0  0  0
  -27.5704  -31.6938   22.2927 O   0  0  0  0  0  0  0  0  0  0  0  0
  -23.1341  -32.5236   23.7593 O   0  0  0  0  0  0  0  0  0  0  0  0
  -28.2226  -22.3877   23.8767 O   0  0  0  0  0  0  0  0  0  0  0  0
  -22.7409  -11.5559   22.0655 O   0  0  0  0  0  0  0  0  0  0  0  0
  -20.9973  -26.3637   21.7996 O   0  0  0  0  0  0  0  0  0  1  0  0
  -23.7182   -6.5294   20.0200 F   0  0  0  0  0  0  0  0  0  0  0  0
  -23.3285   -9.4339   23.7373 F   0  0  0  0  0  0  0  0  0  0  0  0
  1  2  1  0  0  0  0
  1  5  2  0  0  0  0
  2  6  2  0  0  0  0
  3  8  2  0  0  0  0
  3 17  1  0  0  0  0
  4  9  1  0  0  0  0
  4 17  2  0  0  0  0
  5 19  1  0  0  0  0
  6 21  1  0  0  0  0
  7 10  2  0  0  0  0
  7 20  1  0  0  0  0
  8 23  1  0  0  0  0
  9 23  2  0  0  0  0
 10 24  1  0  0  0  0
 11 12  2  0  0  0  0
 11 25  1  0  0  0  0
 12 26  1  0  0  0  0
 13 22  1  0  0  0  0
 13 24  2  0  0  0  0
 14 26  2  0  0  0  0
 14 27  1  0  0  0  0
 15 29  2  0  0  0  0
 15 64  1  0  0  0  0
 16 62  2  0  0  0  0
 16 64  1  0  0  0  0
 17 28  1  0  0  0  0
 18 28  1  0  0  0  0
 18 30  2  0  0  0  0
 18 31  1  0  0  0  0
 19 21  2  0  0  0  0
 19 36  1  0  0  0  0
 20 22  2  0  0  0  0
 20 37  1  0  0  0  0
 21 45  1  0  0  0  0
 22 38  1  0  0  0  0
 23 79  1  0  0  0  0
 24 80  1  0  0  0  0
 25 27  2  0  0  0  0
 25 79  1  0  0  0  0
 26 81  1  0  0  0  0
 27 82  1  0  0  0  0
 28 63  2  0  0  0  0
 29 58  1  0  0  0  0
 29 62  1  0  0  0  0
 30 65  1  0  0  0  0
 30 68  1  0  0  0  0
 31 69  1  0  0  0  0
 31 74  2  0  0  0  0
 32 46  1  0  0  0  0
 32 70  1  0  0  0  0
 32 75  2  0  0  0  0
 33 59  1  0  0  0  0
 33 66  1  0  0  0  0
 33 76  2  0  0  0  0
 34 60  1  0  0  0  0
 34 71  1  0  0  0  0
 34 77  2  0  0  0  0
 35 67  1  0  0  0  0
 35 72  1  0  0  0  0
 35 78  2  0  0  0  0
 36 39  1  0  0  0  0
 37 46  1  0  0  0  0
 38 66  1  0  0  0  0
 39 41  1  0  0  0  0
 40 42  1  0  0  0  0
 40 43  1  0  0  0  0
 41 45  1  0  0  0  0
 42 47  1  0  0  0  0
 43 67  1  0  0  0  0
 44 47  1  0  0  0  0
 44 67  1  0  0  0  0
 45 70  1  0  0  0  0
 46 66  1  0  0  0  0
 47 65  1  0  0  0  0
 48 54  1  0  0  0  0
 49 60  1  0  0  0  0
 50 61  1  0  0  0  0
 51 61  1  0  0  0  0
 52 61  1  0  0  0  0
 53 73  1  0  0  0  0
 54 58  1  0  0  0  0
 55 56  1  0  0  0  0
 55 57  1  0  0  0  0
 56 64  1  0  0  0  0
 57 80  1  0  0  0  0
 58 72  1  0  0  0  0
 59 61  1  0  0  0  0
 59 71  1  0  0  0  0
 60 73  1  0  0  0  0
 63 65  1  0  0  0  0
M  CHG  1  73   1
M  ISO  4  35 100  57 101  72 100  80 101
M  END
> <Batch ID>
0075

> <Smiles>
CCC([100NH:0][100C:0](=O)N1CCCC(n2nc(-c3ccc(Oc4ccc(F)cc4F)cc3)c(C(N)=O)c2N)C1)c1cn(CC[101CH2:1][101O:1]c2ccc3c(c2)CN(C(=O)C(NC(=O)C(C)NC)C(C)(C)C)C(C(=O)NC2CCCc4ccccc42)C3)cn1

> <Shape>
0.258

> <Color>
0.059

> <Negative vol penalty>
0.000

$$$$

  -OEChem-04052318323D

 84 92  0     1  0  0  0  0  0999 V2000
  -17.8850  -27.6440   22.7814 C   0  0  0  0  0  0  0  0  0  0  0  0
  -18.8191  -27.0170   21.9630 C   0  0  0  0  0  0  0  0  0  0  0  0
  -24.6610   -9.6050   21.6141 C   0  0  0  0  0  0  0  0  0  0  0  0
  -24.7667  -10.6802   23.7750 C   0  0  0  0  0  0  0  0  0  0  0  0
  -18.2624  -28.7413   23.5544 C   0  0  0  0  0  0  0  0  0  0  0  0
  -20.1309  -27.4876   21.9163 C   0  0  0  0  0  0  0  0  0  0  0  0
  -23.5436  -23.7523   22.1293 C   0  0  0  0  0  0  0  0  0  0  0  0
  -24.3091   -8.4035   22.2290 C   0  0  0  0  0  0  0  0  0  0  0  0
  -24.4148   -9.4787   24.3900 C   0  0  0  0  0  0  0  0  0  0  0  0
  -23.7693  -23.0285   20.9592 C   0  0  0  0  0  0  0  0  0  0  0  0
  -23.0307   -5.1427   23.2027 C   0  0  0  0  0  0  0  0  0  0  0  0
  -21.9858   -4.4086   22.6415 C   0  0  0  0  0  0  0  0  0  0  0  0
  -25.7612  -24.3255   20.5482 C   0  0  0  0  0  0  0  0  0  0  0  0
  -20.4870   -6.2699   22.9974 C   0  0  0  0  0  0  0  0  0  0  0  0
  -29.2218  -20.7914   18.0448 C   0  0  0  0  0  0  0  0  0  0  0  0
  -24.8898  -10.7433   22.3871 C   0  0  0  0  0  0  0  0  0  0  0  0
  -24.3841  -12.9921   21.2939 C   0  0  0  0  0  0  0  0  0  0  0  0
  -19.5818  -29.2196   23.5244 C   0  0  0  0  0  0  0  0  0  0  0  0
  -24.4206  -24.7771   22.5125 C   0  0  0  0  0  0  0  0  0  0  0  0
  -20.5259  -28.5931   22.6886 C   0  0  0  0  0  0  0  0  0  0  0  0
  -25.5459  -25.0591   21.7249 C   0  0  0  0  0  0  0  0  0  0  0  0
  -27.9272  -20.8647   17.5724 C   0  0  0  0  0  0  0  0  0  0  0  0
  -24.1860   -8.3403   23.6170 C   0  0  0  0  0  0  0  0  0  0  0  0
  -24.8766  -23.3170   20.1670 C   0  0  0  0  0  0  0  0  0  0  0  0
  -22.8038   -6.4404   23.6613 C   0  0  0  0  0  0  0  0  0  0  0  0
  -20.7140   -4.9722   22.5389 C   0  0  0  0  0  0  0  0  0  0  0  0
  -21.5320   -7.0040   23.5586 C   0  0  0  0  0  0  0  0  0  0  0  0
  -25.2539  -11.9846   21.7524 C   0  0  0  0  0  0  0  0  0  0  0  0
  -26.9499  -20.4161   18.4372 C   0  0  0  0  0  0  0  0  0  0  0  0
  -25.2161  -13.9541   20.7755 C   0  0  0  0  0  0  0  0  0  0  0  0
  -28.5066  -19.9117   20.0150 C   0  0  0  0  0  0  0  0  0  0  0  0
  -22.9522  -13.0529   21.3332 C   0  0  0  0  0  0  0  0  0  0  0  0
  -24.1471  -27.9117   22.9634 C   0  0  0  0  0  0  0  0  0  0  0  0
  -27.2016  -27.6327   24.0192 C   0  0  0  0  0  0  0  0  0  0  0  0
  -30.1296  -25.8799   23.9863 C   0  0  0  0  0  0  0  0  0  0  0  0
  -29.8028  -17.1158   21.1095 C   0  0  0  0  0  0  0  0  0  0  0  0
  -19.9310  -30.4381   24.3418 C   0  0  0  0  0  0  0  0  0  0  0  0
  -24.1778  -25.5307   23.7915 C   0  0  0  0  0  0  0  0  0  0  0  0
  -26.5288  -26.1360   22.1028 C   0  0  0  0  0  0  0  0  0  0  0  0
  -21.4333  -30.6424   24.5194 C   0  0  0  0  0  0  0  0  0  0  0  0
  -30.1749  -13.8322   19.7844 C   0  0  0  0  0  0  0  0  0  0  0  0
  -22.1561  -30.4746   23.1866 C   0  0  0  0  0  0  0  0  0  0  0  0
  -28.8592  -13.1406   20.1458 C   0  0  0  0  0  0  0  0  0  0  0  0
  -30.6286  -14.7913   20.8826 C   0  0  0  0  0  0  0  0  0  0  0  0
  -28.3063  -15.0991   21.6482 C   0  0  0  0  0  0  0  0  0  0  0  0
  -21.9646  -29.0588   22.6295 C   0  0  1  0  0  0  0  0  0  0  0  0
  -24.8546  -26.8977   23.8172 C   0  0  1  0  0  0  0  0  0  0  0  0
  -27.7795  -14.1638   20.5465 C   0  0  2  0  0  0  0  0  0  0  0  0
  -32.4594  -25.9188   24.9180 C   0  0  0  0  0  0  0  0  0  0  0  0
  -28.9379  -21.8243   15.4740 C   0  0  0  0  0  0  0  0  0  0  0  0
  -26.7019  -22.6493   16.2838 C   0  0  0  0  0  0  0  0  0  0  0  0
  -26.9120  -20.4016   15.2420 C   0  0  0  0  0  0  0  0  0  0  0  0
  -27.9543  -29.8284   22.0387 C   0  0  0  0  0  0  0  0  0  0  0  0
  -30.3519  -29.1652   22.3216 C   0  0  0  0  0  0  0  0  0  0  0  0
  -29.0568  -30.0182   24.2755 C   0  0  0  0  0  0  0  0  0  0  0  0
  -29.7416  -23.2958   25.3758 C   0  0  0  0  0  0  0  0  0  0  0  0
  -25.4970  -20.4483   18.0292 C   0  0  0  0  0  0  0  0  0  0  0  0
  -28.8282  -19.3830   21.3719 C   0  0  0  0  0  0  0  0  0  0  0  0
  -24.6415  -21.2611   18.9948 C   0  0  0  0  0  0  0  0  0  1  0  0
  -28.5657  -27.7067   23.3768 C   0  0  1  0  0  0  0  0  0  0  0  0
  -31.0376  -25.4144   25.1102 C   0  0  2  0  0  0  0  0  0  0  0  0
  -27.6320  -21.3955   16.2172 C   0  0  0  0  0  0  0  0  0  0  0  0
  -28.9628  -29.1606   22.9947 C   0  0  0  0  0  0  0  0  0  0  0  0
  -29.5487  -20.3187   19.2654 N   0  0  0  0  0  0  0  0  0  0  0  0
  -26.5399  -12.2792   21.5435 N   0  0  0  0  0  0  0  0  0  0  0  0
  -27.2049  -19.9313   19.6702 N   0  0  0  0  0  0  0  0  0  0  0  0
  -26.4842  -13.4826   20.9479 N   0  0  0  0  0  0  0  0  0  0  0  0
  -26.2445  -26.8490   23.3591 N   0  0  0  0  0  0  0  0  0  0  0  0
  -29.5596  -15.7363   21.2147 N   0  0  0  0  0  0  0  0  0  0  0  0
  -24.9793  -15.1489   20.1934 N   0  0  0  0  0  0  0  0  0  0  0  0
  -22.2532  -11.9789   21.9009 N   0  0  0  0  0  0  0  0  0  0  0  0
  -22.8284  -28.1237   23.3178 N   0  0  0  0  0  0  0  0  0  0  0  0
  -29.4886  -27.0589   24.3027 N   0  0  0  0  0  0  0  0  0  0  0  0
  -28.7343  -17.9416   21.4369 N   0  0  0  0  0  0  0  0  0  0  0  0
  -31.0707  -23.9255   25.1665 N   0  3  0  0  0  0  0  0  0  0  0  0
  -22.3109  -14.0232   20.8635 O   0  0  0  0  0  0  0  0  0  0  0  0
  -24.7532  -28.4622   22.0517 O   0  0  0  0  0  0  0  0  0  0  0  0
  -26.9950  -28.2418   25.0718 O   0  0  0  0  0  0  0  0  0  0  0  0
  -30.0046  -25.2615   22.9315 O   0  0  0  0  0  0  0  0  0  0  0  0
  -30.8898  -17.5771   20.7454 O   0  0  0  0  0  0  0  0  0  0  0  0
  -23.8424   -7.1682   24.2174 O   0  0  0  0  0  0  0  0  0  0  0  0
  -25.0988  -22.6125   19.0241 O   0  0  0  0  0  0  0  0  0  1  0  0
  -19.7110   -4.2677   21.9986 F   0  0  0  0  0  0  0  0  0  0  0  0
  -21.3082   -8.2506   23.9964 F   0  0  0  0  0  0  0  0  0  0  0  0
  1  2  1  0  0  0  0
  1  5  2  0  0  0  0
  2  6  2  0  0  0  0
  3  8  2  0  0  0  0
  3 16  1  0  0  0  0
  4  9  1  0  0  0  0
  4 16  2  0  0  0  0
  5 18  1  0  0  0  0
  6 20  1  0  0  0  0
  7 10  2  0  0  0  0
  7 19  1  0  0  0  0
  8 23  1  0  0  0  0
  9 23  2  0  0  0  0
 10 24  1  0  0  0  0
 11 12  2  0  0  0  0
 11 25  1  0  0  0  0
 12 26  1  0  0  0  0
 13 21  1  0  0  0  0
 13 24  2  0  0  0  0
 14 26  2  0  0  0  0
 14 27  1  0  0  0  0
 15 22  1  0  0  0  0
 15 64  2  0  0  0  0
 16 28  1  0  0  0  0
 17 28  1  0  0  0  0
 17 30  2  0  0  0  0
 17 32  1  0  0  0  0
 18 20  2  0  0  0  0
 18 37  1  0  0  0  0
 19 21  2  0  0  0  0
 19 38  1  0  0  0  0
 20 46  1  0  0  0  0
 21 39  1  0  0  0  0
 22 29  2  0  0  0  0
 22 62  1  0  0  0  0
 23 81  1  0  0  0  0
 24 82  1  0  0  0  0
 25 27  2  0  0  0  0
 25 81  1  0  0  0  0
 26 83  1  0  0  0  0
 27 84  1  0  0  0  0
 28 65  2  0  0  0  0
 29 57  1  0  0  0  0
 29 66  1  0  0  0  0
 30 67  1  0  0  0  0
 30 70  1  0  0  0  0
 31 58  1  0  0  0  0
 31 64  1  0  0  0  0
 31 66  2  0  0  0  0
 32 71  1  0  0  0  0
 32 76  2  0  0  0  0
 33 47  1  0  0  0  0
 33 72  1  0  0  0  0
 33 77  2  0  0  0  0
 34 60  1  0  0  0  0
 34 68  1  0  0  0  0
 34 78  2  0  0  0  0
 35 61  1  0  0  0  0
 35 73  1  0  0  0  0
 35 79  2  0  0  0  0
 36 69  1  0  0  0  0
 36 74  1  0  0  0  0
 36 80  2  0  0  0  0
 37 40  1  0  0  0  0
 38 47  1  0  0  0  0
 39 68  1  0  0  0  0
 40 42  1  0  0  0  0
 41 43  1  0  0  0  0
 41 44  1  0  0  0  0
 42 46  1  0  0  0  0
 43 48  1  0  0  0  0
 44 69  1  0  0  0  0
 45 48  1  0  0  0  0
 45 69  1  0  0  0  0
 46 72  1  0  0  0  0
 47 68  1  0  0  0  0
 48 67  1  0  0  0  0
 49 61  1  0  0  0  0
 50 62  1  0  0  0  0
 51 62  1  0  0  0  0
 52 62  1  0  0  0  0
 53 63  1  0  0  0  0
 54 63  1  0  0  0  0
 55 63  1  0  0  0  0
 56 75  1  0  0  0  0
 57 59  1  0  0  0  0
 58 74  1  0  0  0  0
 59 82  1  0  0  0  0
 60 63  1  0  0  0  0
 60 73  1  0  0  0  0
 61 75  1  0  0  0  0
 65 67  1  0  0  0  0
M  CHG  1  75   1
M  ISO  4  36 100  59 101  74 100  82 101
M  END
> <Batch ID>
0075

> <Smiles>
CNC(C)C(=O)NC(C(=O)N1Cc2cc([101O:1][101CH2:1]Cc3nc(C[100NH:0][100C:0](=O)N4CCCC(n5nc(-c6ccc(Oc7ccc(F)cc7F)cc6)c(C(N)=O)c5N)C4)ncc3C(C)(C)C)ccc2CC1C(=O)NC1CCCc2ccccc21)C(C)(C)C

> <Shape>
0.238

> <Color>
0.117

> <Negative vol penalty>
0.000

$$$$

  -OEChem-04052318323D

 86 94  0     1  0  0  0  0  0999 V2000
  -29.4052  -30.4560   20.2225 C   0  0  0  0  0  0  0  0  0  0  0  0
  -28.9285  -29.1923   20.5559 C   0  0  0  0  0  0  0  0  0  0  0  0
  -29.8338  -19.9835   20.5411 C   0  0  0  0  0  0  0  0  0  0  0  0
  -27.5040  -19.9892   19.9013 C   0  0  0  0  0  0  0  0  0  0  0  0
  -28.7141  -31.5929   20.6394 C   0  0  0  0  0  0  0  0  0  0  0  0
  -27.7607  -29.0647   21.3073 C   0  0  0  0  0  0  0  0  0  0  0  0
  -24.6475  -25.5173   19.4720 C   0  0  0  0  0  0  0  0  0  0  0  0
  -30.0041  -21.2268   19.9322 C   0  0  0  0  0  0  0  0  0  0  0  0
  -27.6743  -21.2326   19.2924 C   0  0  0  0  0  0  0  0  0  0  0  0
  -24.9629  -24.1879   19.7497 C   0  0  0  0  0  0  0  0  0  0  0  0
  -29.3491  -24.4645   20.6541 C   0  0  0  0  0  0  0  0  0  0  0  0
  -30.0633  -25.4368   21.3542 C   0  0  0  0  0  0  0  0  0  0  0  0
  -23.3292  -24.1775   21.5246 C   0  0  0  0  0  0  0  0  0  0  0  0
  -22.8041  -14.1773   21.8436 C   0  0  0  0  0  0  0  0  0  0  0  0
  -31.6806  -25.5392   19.5623 C   0  0  0  0  0  0  0  0  0  0  0  0
  -21.4793  -14.6838   20.0949 C   0  0  0  0  0  0  0  0  0  0  0  0
  -28.5838  -19.3646   20.5256 C   0  0  0  0  0  0  0  0  0  0  0  0
  -28.0397  -17.8303   22.4897 C   0  0  0  0  0  0  0  0  0  0  0  0
  -27.5320  -31.4790   21.3881 C   0  0  0  0  0  0  0  0  0  0  0  0
  -23.6767  -26.1912   20.2269 C   0  0  0  0  0  0  0  0  0  0  0  0
  -27.0538  -30.2011   21.7357 C   0  0  0  0  0  0  0  0  0  0  0  0
  -23.0015  -25.5146   21.2528 C   0  0  0  0  0  0  0  0  0  0  0  0
  -22.0442  -15.2075   21.2368 C   0  0  0  0  0  0  0  0  0  0  0  0
  -28.9243  -21.8514   19.3079 C   0  0  0  0  0  0  0  0  0  0  0  0
  -24.3057  -23.5187   20.7780 C   0  0  0  0  0  0  0  0  0  0  0  0
  -29.8007  -24.0295   19.4081 C   0  0  0  0  0  0  0  0  0  0  0  0
  -31.2290  -25.9742   20.8083 C   0  0  0  0  0  0  0  0  0  0  0  0
  -30.9664  -24.5669   18.8622 C   0  0  0  0  0  0  0  0  0  0  0  0
  -28.4074  -18.0800   21.1539 C   0  0  0  0  0  0  0  0  0  0  0  0
  -22.6806  -13.0554   21.0539 C   0  0  0  0  0  0  0  0  0  0  0  0
  -28.0088  -16.4606   22.5870 C   0  0  0  0  0  0  0  0  0  0  0  0
  -27.7518  -18.7539   23.5479 C   0  0  0  0  0  0  0  0  0  0  0  0
  -23.6829  -28.7395   22.1268 C   0  0  0  0  0  0  0  0  0  0  0  0
  -20.4773  -28.2434   22.1531 C   0  0  0  0  0  0  0  0  0  0  0  0
  -17.8795  -26.0651   21.7619 C   0  0  0  0  0  0  0  0  0  0  0  0
  -26.6046  -11.7891   19.4694 C   0  0  0  0  0  0  0  0  0  0  0  0
  -26.8453  -32.7375   21.8564 C   0  0  0  0  0  0  0  0  0  0  0  0
  -23.3291  -27.6170   19.8973 C   0  0  0  0  0  0  0  0  0  0  0  0
  -21.9370  -26.1868   22.0794 C   0  0  0  0  0  0  0  0  0  0  0  0
  -25.4122  -32.5090   22.3303 C   0  0  0  0  0  0  0  0  0  0  0  0
  -29.9935  -12.7387   20.0081 C   0  0  0  0  0  0  0  0  0  0  0  0
  -25.3427  -31.2990   23.2564 C   0  0  0  0  0  0  0  0  0  0  0  0
  -29.8958  -14.1897   20.4827 C   0  0  0  0  0  0  0  0  0  0  0  0
  -28.9425  -12.4200   18.9471 C   0  0  0  0  0  0  0  0  0  0  0  0
  -27.4575  -14.1878   19.8093 C   0  0  0  0  0  0  0  0  0  0  0  0
  -25.7773  -30.0213   22.5283 C   0  0  1  0  0  0  0  0  0  0  0  0
  -22.6891  -28.3612   21.0652 C   0  0  1  0  0  0  0  0  0  0  0  0
  -28.4611  -14.5411   20.9203 C   0  0  2  0  0  0  0  0  0  0  0  0
  -15.3760  -25.9426   21.8843 C   0  0  0  0  0  0  0  0  0  0  0  0
  -22.2351  -10.5234   21.3493 C   0  0  0  0  0  0  0  0  0  0  0  0
  -24.1112  -11.6267   22.5404 C   0  0  0  0  0  0  0  0  0  0  0  0
  -20.6289  -28.2406   25.2005 C   0  0  0  0  0  0  0  0  0  0  0  0
  -18.3561  -27.1912   25.2431 C   0  0  0  0  0  0  0  0  0  0  0  0
  -18.6615  -29.4612   24.2549 C   0  0  0  0  0  0  0  0  0  0  0  0
  -21.4856  -12.4819   18.9240 C   0  0  0  0  0  0  0  0  0  0  0  0
  -17.6617  -25.2998   18.9114 C   0  0  0  0  0  0  0  0  0  0  0  0
  -21.8824  -16.6177   21.7462 C   0  0  0  0  0  0  0  0  0  0  0  0
  -22.9406  -17.5926   21.2176 C   0  0  0  0  0  0  0  0  0  0  0  0
  -22.7143  -19.0339   21.6845 C   0  0  0  0  0  0  0  0  0  0  0  0
  -23.8074  -19.9635   21.1602 C   0  0  0  0  0  0  0  0  0  0  0  0
  -24.2405  -11.3080   20.0512 C   0  0  0  0  0  0  0  0  0  0  0  0
  -23.5688  -21.4059   21.5836 C   0  0  0  0  0  0  0  0  0  1  0  0
  -19.5269  -27.4397   23.0073 C   0  0  1  0  0  0  0  0  0  0  0  0
  -16.5800  -26.1762   20.9851 C   0  0  2  0  0  0  0  0  0  0  0  0
  -23.2642  -11.7085   21.2225 C   0  0  0  0  0  0  0  0  0  0  0  0
  -19.3147  -28.0708   24.4123 C   0  0  0  0  0  0  0  0  0  0  0  0
  -28.5966  -16.9589   20.4530 N   0  0  0  0  0  0  0  0  0  0  0  0
  -21.8733  -13.3751   19.9937 N   0  0  0  0  0  0  0  0  0  0  0  0
  -28.3469  -15.9915   21.3518 N   0  0  0  0  0  0  0  0  0  0  0  0
  -21.6371  -27.5834   21.7227 N   0  0  0  0  0  0  0  0  0  0  0  0
  -27.6042  -12.7751   19.4252 N   0  0  0  0  0  0  0  0  0  0  0  0
  -27.7256  -15.6239   23.6078 N   0  0  0  0  0  0  0  0  0  0  0  0
  -27.8305  -20.1267   23.2764 N   0  0  0  0  0  0  0  0  0  0  0  0
  -24.7135  -29.5403   21.6730 N   0  0  0  0  0  0  0  0  0  0  0  0
  -18.3027  -27.2920   22.2276 N   0  0  0  0  0  0  0  0  0  0  0  0
  -25.3667  -12.2082   19.9412 N   0  0  0  0  0  0  0  0  0  0  0  0
  -16.5467  -25.1717   19.8848 N   0  3  0  0  0  0  0  0  0  0  0  0
  -27.4502  -18.3731   24.7044 O   0  0  0  0  0  0  0  0  0  0  0  0
  -23.5254  -28.3360   23.2731 O   0  0  0  0  0  0  0  0  0  0  0  0
  -20.1975  -29.4114   21.8718 O   0  0  0  0  0  0  0  0  0  0  0  0
  -18.4590  -24.9962   21.9412 O   0  0  0  0  0  0  0  0  0  0  0  0
  -26.8024  -10.6206   19.1195 O   0  0  0  0  0  0  0  0  0  0  0  0
  -29.0901  -23.0647   18.7139 O   0  0  0  0  0  0  0  0  0  0  0  0
  -24.6121  -22.2213   21.0516 O   0  0  0  0  0  0  0  0  0  1  0  0
  -31.9139  -26.9090   21.4800 F   0  0  0  0  0  0  0  0  0  0  0  0
  -31.4045  -24.1538   17.6650 F   0  0  0  0  0  0  0  0  0  0  0  0
  1  2  1  0  0  0  0
  1  5  2  0  0  0  0
  2  6  2  0  0  0  0
  3  8  2  0  0  0  0
  3 17  1  0  0  0  0
  4  9  1  0  0  0  0
  4 17  2  0  0  0  0
  5 19  1  0  0  0  0
  6 21  1  0  0  0  0
  7 10  2  0  0  0  0
  7 20  1  0  0  0  0
  8 24  1  0  0  0  0
  9 24  2  0  0  0  0
 10 25  1  0  0  0  0
 11 12  2  0  0  0  0
 11 26  1  0  0  0  0
 12 27  1  0  0  0  0
 13 22  1  0  0  0  0
 13 25  2  0  0  0  0
 14 23  1  0  0  0  0
 14 30  2  0  0  0  0
 15 27  2  0  0  0  0
 15 28  1  0  0  0  0
 16 23  2  0  0  0  0
 16 68  1  0  0  0  0
 17 29  1  0  0  0  0
 18 29  1  0  0  0  0
 18 31  2  0  0  0  0
 18 32  1  0  0  0  0
 19 21  2  0  0  0  0
 19 37  1  0  0  0  0
 20 22  2  0  0  0  0
 20 38  1  0  0  0  0
 21 46  1  0  0  0  0
 22 39  1  0  0  0  0
 23 57  1  0  0  0  0
 24 83  1  0  0  0  0
 25 84  1  0  0  0  0
 26 28  2  0  0  0  0
 26 83  1  0  0  0  0
 27 85  1  0  0  0  0
 28 86  1  0  0  0  0
 29 67  2  0  0  0  0
 30 65  1  0  0  0  0
 30 68  1  0  0  0  0
 31 69  1  0  0  0  0
 31 72  1  0  0  0  0
 32 73  1  0  0  0  0
 32 78  2  0  0  0  0
 33 47  1  0  0  0  0
 33 74  1  0  0  0  0
 33 79  2  0  0  0  0
 34 63  1  0  0  0  0
 34 70  1  0  0  0  0
 34 80  2  0  0  0  0
 35 64  1  0  0  0  0
 35 75  1  0  0  0  0
 35 81  2  0  0  0  0
 36 71  1  0  0  0  0
 36 76  1  0  0  0  0
 36 82  2  0  0  0  0
 37 40  1  0  0  0  0
 38 47  1  0  0  0  0
 39 70  1  0  0  0  0
 40 42  1  0  0  0  0
 41 43  1  0  0  0  0
 41 44  1  0  0  0  0
 42 46  1  0  0  0  0
 43 48  1  0  0  0  0
 44 71  1  0  0  0  0
 45 48  1  0  0  0  0
 45 71  1  0  0  0  0
 46 74  1  0  0  0  0
 47 70  1  0  0  0  0
 48 69  1  0  0  0  0
 49 64  1  0  0  0  0
 50 65  1  0  0  0  0
 51 65  1  0  0  0  0
 52 66  1  0  0  0  0
 53 66  1  0  0  0  0
 54 66  1  0  0  0  0
 55 68  1  0  0  0  0
 56 77  1  0  0  0  0
 57 58  1  0  0  0  0
 58 59  1  0  0  0  0
 59 60  1  0  0  0  0
 60 62  1  0  0  0  0
 61 65  1  0  0  0  0
 61 76  1  0  0  0  0
 62 84  1  0  0  0  0
 63 66  1  0  0  0  0
 63 75  1  0  0  0  0
 64 77  1  0  0  0  0
 67 69  1  0  0  0  0
M  CHG  1  77   1
M  ISO  4  36 100  62 101  76 100  84 101
M  END
> <Batch ID>
0075

> <Smiles>
CNC(C)C(=O)NC(C(=O)N1Cc2cc([101O:1][101CH2:1]CCCCc3cc(C(C)(C)C[100NH:0][100C:0](=O)N4CCCC(n5nc(-c6ccc(Oc7ccc(F)cc7F)cc6)c(C(N)=O)c5N)C4)n(C)c3)ccc2CC1C(=O)NC1CCCc2ccccc21)C(C)(C)C

> <Shape>
0.283

> <Color>
0.042

> <Negative vol penalty>
0.000

$$$$

  -OEChem-04052318323D

 88 96  0     1  0  0  0  0  0999 V2000
  -18.0555  -27.1158   22.7998 C   0  0  0  0  0  0  0  0  0  0  0  0
  -19.0174  -26.5769   21.9514 C   0  0  0  0  0  0  0  0  0  0  0  0
  -23.4068   -9.6191   20.0484 C   0  0  0  0  0  0  0  0  0  0  0  0
  -23.5352  -10.1508   22.4016 C   0  0  0  0  0  0  0  0  0  0  0  0
  -18.4146  -28.0923   23.7279 C   0  0  0  0  0  0  0  0  0  0  0  0
  -20.3389  -27.0150   22.0300 C   0  0  0  0  0  0  0  0  0  0  0  0
  -25.3873  -23.6649   21.1379 C   0  0  0  0  0  0  0  0  0  0  0  0
  -22.6674   -8.4747   20.3473 C   0  0  0  0  0  0  0  0  0  0  0  0
  -22.7958   -9.0064   22.7005 C   0  0  0  0  0  0  0  0  0  0  0  0
  -26.2287  -23.5112   20.0369 C   0  0  0  0  0  0  0  0  0  0  0  0
  -19.5554   -8.0491   22.6361 C   0  0  0  0  0  0  0  0  0  0  0  0
  -18.5189   -8.1724   23.5613 C   0  0  0  0  0  0  0  0  0  0  0  0
  -27.7155  -25.1780   20.9480 C   0  0  0  0  0  0  0  0  0  0  0  0
  -32.6137  -20.0519   19.9991 C   0  0  0  0  0  0  0  0  0  0  0  0
  -19.5949   -6.5425   24.9837 C   0  0  0  0  0  0  0  0  0  0  0  0
  -23.8407  -10.4571   21.0756 C   0  0  0  0  0  0  0  0  0  0  0  0
  -24.1065  -12.9289   20.5035 C   0  0  0  0  0  0  0  0  0  0  0  0
  -19.7430  -28.5357   23.8245 C   0  0  0  0  0  0  0  0  0  0  0  0
  -25.6988  -24.5857   22.1487 C   0  0  0  0  0  0  0  0  0  0  0  0
  -20.7158  -27.9993   22.9594 C   0  0  0  0  0  0  0  0  0  0  0  0
  -26.8778  -25.3396   22.0621 C   0  0  0  0  0  0  0  0  0  0  0  0
  -32.0254  -19.9728   21.2565 C   0  0  0  0  0  0  0  0  0  0  0  0
  -31.9895  -20.7767   18.9900 C   0  0  0  0  0  0  0  0  0  0  0  0
  -22.3619   -8.1683   21.6733 C   0  0  0  0  0  0  0  0  0  0  0  0
  -27.3915  -24.2699   19.9404 C   0  0  0  0  0  0  0  0  0  0  0  0
  -20.6116   -7.1725   22.8845 C   0  0  0  0  0  0  0  0  0  0  0  0
  -18.5387   -7.4191   24.7351 C   0  0  0  0  0  0  0  0  0  0  0  0
  -20.6313   -6.4193   24.0583 C   0  0  0  0  0  0  0  0  0  0  0  0
  -24.6050  -11.6391   20.7675 C   0  0  0  0  0  0  0  0  0  0  0  0
  -30.8220  -20.6311   21.4521 C   0  0  0  0  0  0  0  0  0  0  0  0
  -30.7876  -21.3989   19.2870 C   0  0  0  0  0  0  0  0  0  0  0  0
  -25.2267  -13.6891   20.2715 C   0  0  0  0  0  0  0  0  0  0  0  0
  -22.7520  -13.3979   20.4710 C   0  0  0  0  0  0  0  0  0  0  0  0
  -24.3042  -27.1931   23.3150 C   0  0  0  0  0  0  0  0  0  0  0  0
  -26.7085  -27.0342   25.4868 C   0  0  0  0  0  0  0  0  0  0  0  0
  -29.8534  -25.9532   26.2535 C   0  0  0  0  0  0  0  0  0  0  0  0
  -30.2158  -15.3235   21.4539 C   0  0  0  0  0  0  0  0  0  0  0  0
  -20.0741  -29.6272   24.8111 C   0  0  0  0  0  0  0  0  0  0  0  0
  -24.7944  -24.7203   23.3430 C   0  0  0  0  0  0  0  0  0  0  0  0
  -27.2678  -26.3272   23.1304 C   0  0  0  0  0  0  0  0  0  0  0  0
  -21.5692  -29.7671   25.0858 C   0  0  0  0  0  0  0  0  0  0  0  0
  -30.0418  -12.3472   19.5611 C   0  0  0  0  0  0  0  0  0  0  0  0
  -22.3554  -29.7561   23.7787 C   0  0  0  0  0  0  0  0  0  0  0  0
  -28.5613  -11.9921   19.6909 C   0  0  0  0  0  0  0  0  0  0  0  0
  -30.6203  -12.8869   20.8705 C   0  0  0  0  0  0  0  0  0  0  0  0
  -28.3781  -13.6675   21.5674 C   0  0  0  0  0  0  0  0  0  0  0  0
  -22.1645  -28.4309   23.0312 C   0  0  1  0  0  0  0  0  0  0  0  0
  -24.9472  -26.0580   24.0604 C   0  0  1  0  0  0  0  0  0  0  0  0
  -27.7577  -13.1793   20.2492 C   0  0  2  0  0  0  0  0  0  0  0  0
  -32.6229  -20.8595   17.6429 C   0  0  0  0  0  0  0  0  0  0  0  0
  -29.3656  -21.8573   23.0835 C   0  0  0  0  0  0  0  0  0  0  0  0
  -31.8881  -25.5162   27.6558 C   0  0  0  0  0  0  0  0  0  0  0  0
  -27.3735  -29.9260   24.7760 C   0  0  0  0  0  0  0  0  0  0  0  0
  -29.5943  -29.6157   25.8895 C   0  0  0  0  0  0  0  0  0  0  0  0
  -27.4939  -29.3977   27.2175 C   0  0  0  0  0  0  0  0  0  0  0  0
  -29.1958  -21.4731   17.3842 C   0  0  0  0  0  0  0  0  0  0  0  0
  -32.4902  -14.6570   22.3413 C   0  0  0  0  0  0  0  0  0  0  0  0
  -28.7942  -23.3520   27.1866 C   0  0  0  0  0  0  0  0  0  0  0  0
  -32.6894  -19.1977   22.3418 C   0  0  0  0  0  0  0  0  0  0  0  0
  -30.1448  -20.5807   22.7825 C   0  0  0  0  0  0  0  0  0  0  0  0
  -32.0970  -17.7939   22.5798 C   0  0  0  0  0  0  0  0  0  0  0  0
  -32.1199  -16.8863   21.3518 C   0  0  0  0  0  0  0  0  0  0  0  0
  -30.4147  -23.5392   18.0870 C   0  0  0  0  0  0  0  0  0  0  0  0
  -29.6053  -24.3608   19.0763 C   0  0  0  0  0  0  0  0  0  1  0  0
  -28.1124  -27.5828   25.5695 C   0  0  1  0  0  0  0  0  0  0  0  0
  -30.4034  -25.2402   27.4756 C   0  0  2  0  0  0  0  0  0  0  0  0
  -28.1355  -29.1134   25.8419 C   0  0  0  0  0  0  0  0  0  0  0  0
  -25.9380  -11.5795   20.7088 N   0  0  0  0  0  0  0  0  0  0  0  0
  -30.1857  -21.3446   20.4964 N   0  0  0  0  0  0  0  0  0  0  0  0
  -26.2867  -12.8413   20.4051 N   0  0  0  0  0  0  0  0  0  0  0  0
  -26.3478  -26.4273   24.2754 N   0  0  0  0  0  0  0  0  0  0  0  0
  -29.7972  -13.9862   21.3928 N   0  0  0  0  0  0  0  0  0  0  0  0
  -25.3984  -14.9933   19.9682 N   0  0  0  0  0  0  0  0  0  0  0  0
  -21.7221  -12.4841   20.7329 N   0  0  0  0  0  0  0  0  0  0  0  0
  -22.9736  -27.3914   23.6307 N   0  0  0  0  0  0  0  0  0  0  0  0
  -28.8033  -26.7860   26.5776 N   0  0  0  0  0  0  0  0  0  0  0  0
  -30.1542  -22.1302   18.2733 N   0  0  3  0  0  0  0  0  0  0  0  0
  -31.5875  -15.5598   21.6298 N   0  0  0  0  0  0  0  0  0  0  0  0
  -30.2113  -23.7680   27.3466 N   0  3  0  0  0  0  0  0  0  0  0  0
  -22.4627  -14.5883   20.2011 O   0  0  0  0  0  0  0  0  0  0  0  0
  -24.9667  -27.8420   22.5138 O   0  0  0  0  0  0  0  0  0  0  0  0
  -25.9617  -27.1339   26.4636 O   0  0  0  0  0  0  0  0  0  0  0  0
  -30.3119  -25.7906   25.1249 O   0  0  0  0  0  0  0  0  0  0  0  0
  -29.4078  -16.2570   21.3646 O   0  0  0  0  0  0  0  0  0  0  0  0
  -21.6403   -7.0519   21.9653 O   0  0  0  0  0  0  0  0  0  0  0  0
  -28.2141  -24.1224   18.8664 O   0  0  0  0  0  0  0  0  0  1  0  0
  -17.5441   -7.5388   25.6243 F   0  0  0  0  0  0  0  0  0  0  0  0
  -21.6439   -5.5763   24.3031 F   0  0  0  0  0  0  0  0  0  0  0  0
  1  2  1  0  0  0  0
  1  5  2  0  0  0  0
  2  6  2  0  0  0  0
  3  8  2  0  0  0  0
  3 16  1  0  0  0  0
  4  9  1  0  0  0  0
  4 16  2  0  0  0  0
  5 18  1  0  0  0  0
  6 20  1  0  0  0  0
  7 10  2  0  0  0  0
  7 19  1  0  0  0  0
  8 24  1  0  0  0  0
  9 24  2  0  0  0  0
 10 25  1  0  0  0  0
 11 12  2  0  0  0  0
 11 26  1  0  0  0  0
 12 27  1  0  0  0  0
 13 21  1  0  0  0  0
 13 25  2  0  0  0  0
 14 22  1  0  0  0  0
 14 23  2  0  0  0  0
 15 27  2  0  0  0  0
 15 28  1  0  0  0  0
 16 29  1  0  0  0  0
 17 29  1  0  0  0  0
 17 32  2  0  0  0  0
 17 33  1  0  0  0  0
 18 20  2  0  0  0  0
 18 38  1  0  0  0  0
 19 21  2  0  0  0  0
 19 39  1  0  0  0  0
 20 47  1  0  0  0  0
 21 40  1  0  0  0  0
 22 30  2  0  0  0  0
 22 59  1  0  0  0  0
 23 31  1  0  0  0  0
 23 50  1  0  0  0  0
 24 85  1  0  0  0  0
 25 86  1  0  0  0  0
 26 28  2  0  0  0  0
 26 85  1  0  0  0  0
 27 87  1  0  0  0  0
 28 88  1  0  0  0  0
 29 68  2  0  0  0  0
 30 60  1  0  0  0  0
 30 69  1  0  0  0  0
 31 69  2  0  0  0  0
 31 77  1  0  0  0  0
 32 70  1  0  0  0  0
 32 73  1  0  0  0  0
 33 74  1  0  0  0  0
 33 80  2  0  0  0  0
 34 48  1  0  0  0  0
 34 75  1  0  0  0  0
 34 81  2  0  0  0  0
 35 65  1  0  0  0  0
 35 71  1  0  0  0  0
 35 82  2  0  0  0  0
 36 66  1  0  0  0  0
 36 76  1  0  0  0  0
 36 83  2  0  0  0  0
 37 72  1  0  0  0  0
 37 78  1  0  0  0  0
 37 84  2  0  0  0  0
 38 41  1  0  0  0  0
 39 48  1  0  0  0  0
 40 71  1  0  0  0  0
 41 43  1  0  0  0  0
 42 44  1  0  0  0  0
 42 45  1  0  0  0  0
 43 47  1  0  0  0  0
 44 49  1  0  0  0  0
 45 72  1  0  0  0  0
 46 49  1  0  0  0  0
 46 72  1  0  0  0  0
 47 75  1  0  0  0  0
 48 71  1  0  0  0  0
 49 70  1  0  0  0  0
 51 60  1  0  0  0  0
 52 66  1  0  0  0  0
 53 67  1  0  0  0  0
 54 67  1  0  0  0  0
 55 67  1  0  0  0  0
 56 77  1  0  0  0  0
 57 78  1  0  0  0  0
 58 79  1  0  0  0  0
 59 61  1  0  0  0  0
 61 62  1  0  0  0  0
 62 78  1  0  0  0  0
 63 64  1  0  0  0  0
 63 77  1  0  0  0  0
 64 86  1  0  0  0  0
 65 67  1  0  0  0  0
 65 76  1  0  0  0  0
 66 79  1  0  0  0  0
 68 70  1  0  0  0  0
M  CHG  1  79   1
M  ISO  4  37 100  64 101  78 100  86 101
M  END
> <Batch ID>
0075

> <Smiles>
CCc1nc(N(C)C[101CH2:1][101O:1]c2ccc3c(c2)CN(C(=O)C(NC(=O)C(C)NC)C(C)(C)C)C(C(=O)NC2CCCc4ccccc42)C3)c(C)cc1CCC[100N:0](C)[100C:0](=O)N1CCCC(n2nc(-c3ccc(Oc4ccc(F)cc4F)cc3)c(C(N)=O)c2N)C1

> <Shape>
0.250

> <Color>
0.166

> <Negative vol penalty>
0.000

$$$$

  -OEChem-04052318323D

 82 90  0     1  0  0  0  0  0999 V2000
  -19.5445  -17.0513   23.5157 C   0  0  0  0  0  0  0  0  0  0  0  0
  -20.7628  -17.5415   23.0565 C   0  0  0  0  0  0  0  0  0  0  0  0
  -24.1306  -13.4130   20.5062 C   0  0  0  0  0  0  0  0  0  0  0  0
  -26.4600  -13.1742   21.1013 C   0  0  0  0  0  0  0  0  0  0  0  0
  -18.4027  -17.8483   23.4457 C   0  0  0  0  0  0  0  0  0  0  0  0
  -20.8397  -18.8287   22.5259 C   0  0  0  0  0  0  0  0  0  0  0  0
  -25.5369  -22.7301   22.9971 C   0  0  0  0  0  0  0  0  0  0  0  0
  -24.0462  -12.0385   20.2849 C   0  0  0  0  0  0  0  0  0  0  0  0
  -26.3755  -11.7995   20.8800 C   0  0  0  0  0  0  0  0  0  0  0  0
  -26.5780  -23.0540   22.1283 C   0  0  0  0  0  0  0  0  0  0  0  0
  -23.1231   -8.5422   19.9118 C   0  0  0  0  0  0  0  0  0  0  0  0
  -22.0155   -7.8692   20.4274 C   0  0  0  0  0  0  0  0  0  0  0  0
  -25.3176  -24.9516   21.3349 C   0  0  0  0  0  0  0  0  0  0  0  0
  -22.6371   -8.5557   22.6589 C   0  0  0  0  0  0  0  0  0  0  0  0
  -29.3124  -25.7194   16.6245 C   0  0  0  0  0  0  0  0  0  0  0  0
  -29.3560  -26.1858   17.9172 C   0  0  0  0  0  0  0  0  0  0  0  0
  -25.3376  -13.9809   20.9144 C   0  0  0  0  0  0  0  0  0  0  0  0
  -25.1874  -16.0842   22.3501 C   0  0  0  0  0  0  0  0  0  0  0  0
  -18.4676  -19.1495   22.9229 C   0  0  0  0  0  0  0  0  0  0  0  0
  -24.3718  -23.5096   23.0337 C   0  0  0  0  0  0  0  0  0  0  0  0
  -19.6975  -19.6435   22.4477 C   0  0  0  0  0  0  0  0  0  0  0  0
  -24.2642  -24.6370   22.2070 C   0  0  0  0  0  0  0  0  0  0  0  0
  -25.1686  -11.2317   20.4718 C   0  0  0  0  0  0  0  0  0  0  0  0
  -26.4673  -24.1632   21.2949 C   0  0  0  0  0  0  0  0  0  0  0  0
  -23.9877   -9.2219   20.7698 C   0  0  0  0  0  0  0  0  0  0  0  0
  -21.7724   -7.8760   21.8009 C   0  0  0  0  0  0  0  0  0  0  0  0
  -23.7447   -9.2287   22.1433 C   0  0  0  0  0  0  0  0  0  0  0  0
  -25.4256  -15.4009   21.1426 C   0  0  0  0  0  0  0  0  0  0  0  0
  -25.4018  -17.4060   22.0447 C   0  0  0  0  0  0  0  0  0  0  0  0
  -29.8063  -24.0306   17.8222 C   0  0  0  0  0  0  0  0  0  0  0  0
  -24.8064  -15.5700   23.6331 C   0  0  0  0  0  0  0  0  0  0  0  0
  -21.2956  -22.9749   22.4378 C   0  0  0  0  0  0  0  0  0  0  0  0
  -20.9546  -26.0017   23.5534 C   0  0  0  0  0  0  0  0  0  0  0  0
  -22.3654  -29.0575   24.1180 C   0  0  0  0  0  0  0  0  0  0  0  0
  -28.8829  -20.6264   18.8945 C   0  0  0  0  0  0  0  0  0  0  0  0
  -17.1972  -19.9564   22.8242 C   0  0  0  0  0  0  0  0  0  0  0  0
  -23.2689  -23.1624   23.9957 C   0  0  0  0  0  0  0  0  0  0  0  0
  -23.0427  -25.5181   22.2225 C   0  0  0  0  0  0  0  0  0  0  0  0
  -17.4382  -21.4460   22.5933 C   0  0  0  0  0  0  0  0  0  0  0  0
  -25.4600  -20.0533   17.8683 C   0  0  0  0  0  0  0  0  0  0  0  0
  -18.4759  -21.6549   21.4950 C   0  0  0  0  0  0  0  0  0  0  0  0
  -25.0797  -18.8517   18.7353 C   0  0  0  0  0  0  0  0  0  0  0  0
  -26.9078  -19.9581   17.3961 C   0  0  0  0  0  0  0  0  0  0  0  0
  -27.5267  -18.6050   19.3607 C   0  0  0  0  0  0  0  0  0  0  0  0
  -19.8262  -21.0437   21.8883 C   0  0  1  0  0  0  0  0  0  0  0  0
  -21.9142  -23.7284   23.5811 C   0  0  1  0  0  0  0  0  0  0  0  0
  -26.0813  -18.6533   19.8884 C   0  0  2  0  0  0  0  0  0  0  0  0
  -31.4659  -22.1345   17.7113 C   0  0  0  0  0  0  0  0  0  0  0  0
  -21.8271  -31.3418   25.0066 C   0  0  0  0  0  0  0  0  0  0  0  0
  -19.4615  -26.6510   20.9729 C   0  0  0  0  0  0  0  0  0  0  0  0
  -19.7890  -29.0814   21.4770 C   0  0  0  0  0  0  0  0  0  0  0  0
  -18.4643  -27.6536   23.0356 C   0  0  0  0  0  0  0  0  0  0  0  0
  -31.2547  -24.6352   20.6653 C   0  0  0  0  0  0  0  0  0  0  0  0
  -29.6233  -26.5084   20.7497 C   0  0  0  0  0  0  0  0  0  0  0  0
  -24.3844  -28.8234   26.2693 C   0  0  0  0  0  0  0  0  0  0  0  0
  -28.8040  -24.1326   20.8535 C   0  0  0  0  0  0  0  0  0  1  0  0
  -30.1493  -22.6762   18.3016 C   0  0  2  0  0  0  0  0  0  0  0  0
  -20.9755  -27.3782   22.9338 C   0  0  1  0  0  0  0  0  0  0  0  0
  -22.3624  -29.9580   25.3401 C   0  0  2  0  0  0  0  0  0  0  0  0
  -19.6949  -27.6735   22.1029 C   0  0  0  0  0  0  0  0  0  0  0  0
  -29.8458  -25.0793   20.2035 C   0  0  0  0  0  0  0  0  0  0  0  0
  -29.5933  -24.3771   16.5722 N   0  0  0  0  0  0  0  0  0  0  0  0
  -25.7652  -16.2208   20.1444 N   0  0  0  0  0  0  0  0  0  0  0  0
  -29.6731  -25.0925   18.6731 N   0  0  0  0  0  0  0  0  0  0  0  0
  -25.7419  -17.4331   20.7241 N   0  0  0  0  0  0  0  0  0  0  0  0
  -21.9888  -25.1336   23.1759 N   0  0  0  0  0  0  0  0  0  0  0  0
  -27.8111  -19.7890   18.5430 N   0  0  0  0  0  0  0  0  0  0  0  0
  -25.3307  -18.5362   22.7796 N   0  0  0  0  0  0  0  0  0  0  0  0
  -24.6282  -14.1869   23.7726 N   0  0  0  0  0  0  0  0  0  0  0  0
  -20.5156  -21.9028   22.8270 N   0  0  0  0  0  0  0  0  0  0  0  0
  -21.2071  -28.3149   24.0280 N   0  0  0  0  0  0  0  0  0  0  0  0
  -29.0892  -21.7217   18.0648 N   0  0  0  0  0  0  0  0  0  0  0  0
  -23.7444  -30.1057   25.8780 N   0  3  0  0  0  0  0  0  0  0  0  0
  -24.6133  -16.3167   24.6224 O   0  0  0  0  0  0  0  0  0  0  0  0
  -21.5090  -23.3402   21.2877 O   0  0  0  0  0  0  0  0  0  0  0  0
  -20.0579  -25.7101   24.3486 O   0  0  0  0  0  0  0  0  0  0  0  0
  -23.3000  -29.0195   23.3208 O   0  0  0  0  0  0  0  0  0  0  0  0
  -29.6001  -20.4165   19.8787 O   0  0  0  0  0  0  0  0  0  0  0  0
  -25.0865   -9.8903   20.2562 O   0  0  0  0  0  0  0  0  0  0  0  0
  -27.4817  -24.4811   20.4454 O   0  0  0  0  0  0  0  0  0  1  0  0
  -20.7079   -7.2309   22.2958 F   0  0  0  0  0  0  0  0  0  0  0  0
  -24.5712   -9.8810   22.9723 F   0  0  0  0  0  0  0  0  0  0  0  0
  1  2  1  0  0  0  0
  1  5  2  0  0  0  0
  2  6  2  0  0  0  0
  3  8  2  0  0  0  0
  3 17  1  0  0  0  0
  4  9  1  0  0  0  0
  4 17  2  0  0  0  0
  5 19  1  0  0  0  0
  6 21  1  0  0  0  0
  7 10  2  0  0  0  0
  7 20  1  0  0  0  0
  8 23  1  0  0  0  0
  9 23  2  0  0  0  0
 10 24  1  0  0  0  0
 11 12  2  0  0  0  0
 11 25  1  0  0  0  0
 12 26  1  0  0  0  0
 13 22  1  0  0  0  0
 13 24  2  0  0  0  0
 14 26  2  0  0  0  0
 14 27  1  0  0  0  0
 15 16  2  0  0  0  0
 15 62  1  0  0  0  0
 16 64  1  0  0  0  0
 17 28  1  0  0  0  0
 18 28  1  0  0  0  0
 18 29  2  0  0  0  0
 18 31  1  0  0  0  0
 19 21  2  0  0  0  0
 19 36  1  0  0  0  0
 20 22  2  0  0  0  0
 20 37  1  0  0  0  0
 21 45  1  0  0  0  0
 22 38  1  0  0  0  0
 23 79  1  0  0  0  0
 24 80  1  0  0  0  0
 25 27  2  0  0  0  0
 25 79  1  0  0  0  0
 26 81  1  0  0  0  0
 27 82  1  0  0  0  0
 28 63  2  0  0  0  0
 29 65  1  0  0  0  0
 29 68  1  0  0  0  0
 30 57  1  0  0  0  0
 30 62  2  0  0  0  0
 30 64  1  0  0  0  0
 31 69  1  0  0  0  0
 31 74  2  0  0  0  0
 32 46  1  0  0  0  0
 32 70  1  0  0  0  0
 32 75  2  0  0  0  0
 33 58  1  0  0  0  0
 33 66  1  0  0  0  0
 33 76  2  0  0  0  0
 34 59  1  0  0  0  0
 34 71  1  0  0  0  0
 34 77  2  0  0  0  0
 35 67  1  0  0  0  0
 35 72  1  0  0  0  0
 35 78  2  0  0  0  0
 36 39  1  0  0  0  0
 37 46  1  0  0  0  0
 38 66  1  0  0  0  0
 39 41  1  0  0  0  0
 40 42  1  0  0  0  0
 40 43  1  0  0  0  0
 41 45  1  0  0  0  0
 42 47  1  0  0  0  0
 43 67  1  0  0  0  0
 44 47  1  0  0  0  0
 44 67  1  0  0  0  0
 45 70  1  0  0  0  0
 46 66  1  0  0  0  0
 47 65  1  0  0  0  0
 48 57  1  0  0  0  0
 49 59  1  0  0  0  0
 50 60  1  0  0  0  0
 51 60  1  0  0  0  0
 52 60  1  0  0  0  0
 53 61  1  0  0  0  0
 54 61  1  0  0  0  0
 55 73  1  0  0  0  0
 56 61  1  0  0  0  0
 56 80  1  0  0  0  0
 57 72  1  0  0  0  0
 58 60  1  0  0  0  0
 58 71  1  0  0  0  0
 59 73  1  0  0  0  0
 61 64  1  0  0  0  0
 63 65  1  0  0  0  0
M  CHG  1  73   1
M  ISO  4  35 100  56 101  72 100  80 101
M  END
> <Batch ID>
0075

> <Smiles>
CNC(C)C(=O)NC(C(=O)N1Cc2cc([101O:1][101CH2:1]C(C)(C)n3ccnc3C(C)[100NH:0][100C:0](=O)N3CCCC(n4nc(-c5ccc(Oc6ccc(F)cc6F)cc5)c(C(N)=O)c4N)C3)ccc2CC1C(=O)NC1CCCc2ccccc21)C(C)(C)C

> <Shape>
0.195

> <Color>
0.071

> <Negative vol penalty>
0.000

$$$$

  -OEChem-04052318323D

 86 94  0     1  0  0  0  0  0999 V2000
  -29.5880  -30.5340   11.3901 C   0  0  0  0  0  0  0  0  0  0  0  0
  -30.0016  -29.2363   11.6736 C   0  0  0  0  0  0  0  0  0  0  0  0
  -23.0325   -9.9515   19.9594 C   0  0  0  0  0  0  0  0  0  0  0  0
  -23.7990   -9.9416   22.2506 C   0  0  0  0  0  0  0  0  0  0  0  0
  -29.5233  -31.4823   12.4101 C   0  0  0  0  0  0  0  0  0  0  0  0
  -30.3517  -28.8865   12.9773 C   0  0  0  0  0  0  0  0  0  0  0  0
  -29.4499  -23.4785   15.7061 C   0  0  0  0  0  0  0  0  0  0  0  0
  -22.2725   -8.8088   20.2087 C   0  0  0  0  0  0  0  0  0  0  0  0
  -23.0389   -8.7989   22.4999 C   0  0  0  0  0  0  0  0  0  0  0  0
  -30.2881  -22.3857   15.9226 C   0  0  0  0  0  0  0  0  0  0  0  0
  -23.2793   -5.4744   21.9335 C   0  0  0  0  0  0  0  0  0  0  0  0
  -23.8817   -4.4383   22.6472 C   0  0  0  0  0  0  0  0  0  0  0  0
  -30.7860  -23.2131   18.1332 C   0  0  0  0  0  0  0  0  0  0  0  0
  -22.1880   -4.6327   24.3591 C   0  0  0  0  0  0  0  0  0  0  0  0
  -28.3484  -17.3131   21.5302 C   0  0  0  0  0  0  0  0  0  0  0  0
  -23.7958  -10.5179   20.9803 C   0  0  0  0  0  0  0  0  0  0  0  0
  -24.1744  -13.0380   20.8655 C   0  0  0  0  0  0  0  0  0  0  0  0
  -29.8636  -31.1414   13.7287 C   0  0  0  0  0  0  0  0  0  0  0  0
  -29.2816  -24.4542   16.6992 C   0  0  0  0  0  0  0  0  0  0  0  0
  -30.2928  -29.8315   14.0156 C   0  0  0  0  0  0  0  0  0  0  0  0
  -29.9430  -24.3160   17.9279 C   0  0  0  0  0  0  0  0  0  0  0  0
  -22.2756   -8.2325   21.4789 C   0  0  0  0  0  0  0  0  0  0  0  0
  -30.9586  -22.2544   17.1351 C   0  0  0  0  0  0  0  0  0  0  0  0
  -22.1313   -6.0896   22.4327 C   0  0  0  0  0  0  0  0  0  0  0  0
  -23.3361   -4.0174   23.8599 C   0  0  0  0  0  0  0  0  0  0  0  0
  -21.5856   -5.6688   23.6454 C   0  0  0  0  0  0  0  0  0  0  0  0
  -24.5816  -11.6980   20.7233 C   0  0  0  0  0  0  0  0  0  0  0  0
  -29.4777  -16.7341   20.9945 C   0  0  0  0  0  0  0  0  0  0  0  0
  -28.1910  -18.6895   19.7108 C   0  0  0  0  0  0  0  0  0  0  0  0
  -29.3207  -18.1111   19.1754 C   0  0  0  0  0  0  0  0  0  0  0  0
  -25.2764  -13.7723   20.5009 C   0  0  0  0  0  0  0  0  0  0  0  0
  -22.9129  -13.5714   21.2894 C   0  0  0  0  0  0  0  0  0  0  0  0
  -29.8791  -27.5692   16.9076 C   0  0  0  0  0  0  0  0  0  0  0  0
  -30.7953  -14.6431   20.7725 C   0  0  0  0  0  0  0  0  0  0  0  0
  -28.3512  -27.2757   19.7540 C   0  0  0  0  0  0  0  0  0  0  0  0
  -27.4024  -25.2590   22.3385 C   0  0  0  0  0  0  0  0  0  0  0  0
  -29.8232  -32.2131   14.7891 C   0  0  0  0  0  0  0  0  0  0  0  0
  -28.3529  -25.6130   16.4602 C   0  0  0  0  0  0  0  0  0  0  0  0
  -29.7804  -25.3252   19.0340 C   0  0  0  0  0  0  0  0  0  0  0  0
  -29.8524  -31.6628   16.2127 C   0  0  0  0  0  0  0  0  0  0  0  0
  -29.5896  -12.3701   18.2785 C   0  0  0  0  0  0  0  0  0  0  0  0
  -30.9336  -30.5957   16.3504 C   0  0  0  0  0  0  0  0  0  0  0  0
  -28.1560  -12.0793   18.7208 C   0  0  0  0  0  0  0  0  0  0  0  0
  -30.5164  -12.5562   19.4758 C   0  0  0  0  0  0  0  0  0  0  0  0
  -28.6281  -13.3154   20.8828 C   0  0  0  0  0  0  0  0  0  0  0  0
  -30.6570  -29.4071   15.4218 C   0  0  1  0  0  0  0  0  0  0  0  0
  -28.6566  -26.8152   17.3489 C   0  0  1  0  0  0  0  0  0  0  0  0
  -27.6527  -13.1511   19.7039 C   0  0  2  0  0  0  0  0  0  0  0  0
  -26.4509  -20.4848   19.8992 C   0  0  0  0  0  0  0  0  0  0  0  0
  -31.2735  -16.1538   22.6770 C   0  0  0  0  0  0  0  0  0  0  0  0
  -29.1875  -17.8082   16.6921 C   0  0  0  0  0  0  0  0  0  0  0  0
  -26.2550  -24.5852   24.4661 C   0  0  0  0  0  0  0  0  0  0  0  0
  -33.7357  -19.0186   18.4440 C   0  0  0  0  0  0  0  0  0  0  0  0
  -30.7853  -28.5786   21.0530 C   0  0  0  0  0  0  0  0  0  0  0  0
  -29.9592  -27.7519   23.2671 C   0  0  0  0  0  0  0  0  0  0  0  0
  -28.5834  -29.3592   21.9456 C   0  0  0  0  0  0  0  0  0  0  0  0
  -24.9392  -24.4741   20.8979 C   0  0  0  0  0  0  0  0  0  0  0  0
  -27.4663  -19.7819   19.0014 C   0  0  0  0  0  0  0  0  0  0  0  0
  -31.4143  -18.3921   17.7292 C   0  0  0  0  0  0  0  0  0  0  0  0
  -31.9085  -20.7294   18.6934 C   0  0  0  0  0  0  0  0  0  1  0  0
  -30.1846  -15.6439   21.7209 C   0  0  1  0  0  0  0  0  0  0  0  0
  -29.8812  -18.5592   17.8367 C   0  0  2  0  0  0  0  0  0  0  0  0
  -28.7761  -26.9612   21.1680 C   0  0  1  0  0  0  0  0  0  0  0  0
  -26.0684  -25.0825   23.0411 C   0  0  2  0  0  0  0  0  0  0  0  0
  -32.2434  -19.2322   18.7287 C   0  0  2  0  0  0  0  0  0  0  0  0
  -29.5308  -28.1445   21.8371 C   0  0  0  0  0  0  0  0  0  0  0  0
  -27.6847  -18.3012   20.8980 N   0  0  0  0  0  0  0  0  0  0  0  0
  -25.8437  -11.5846   20.3011 N   0  0  0  0  0  0  0  0  0  0  0  0
  -29.9841  -17.1228   19.8075 N   0  0  0  0  0  0  0  0  0  0  0  0
  -26.2391  -12.8628   20.1748 N   0  0  0  0  0  0  0  0  0  0  0  0
  -28.8665  -26.4439   18.7497 N   0  0  0  0  0  0  0  0  0  0  0  0
  -29.9921  -13.5661   20.3969 N   0  0  0  0  0  0  0  0  0  0  0  0
  -25.5062  -15.1007   20.4305 N   0  0  0  0  0  0  0  0  0  0  0  0
  -21.8887  -12.6764   21.6274 N   0  0  0  0  0  0  0  0  0  0  0  0
  -29.6242  -28.5601   15.9789 N   0  0  0  0  0  0  0  0  0  0  0  0
  -27.5688  -26.5467   21.8744 N   0  0  0  0  0  0  0  0  0  0  0  0
  -25.2225  -24.0992   22.3072 N   0  3  0  0  0  0  0  0  0  0  0  0
  -22.6949  -14.8052   21.3505 O   0  0  0  0  0  0  0  0  0  0  0  0
  -30.9725  -27.2747   17.3763 O   0  0  0  0  0  0  0  0  0  0  0  0
  -31.9507  -14.8166   20.3761 O   0  0  0  0  0  0  0  0  0  0  0  0
  -27.5844  -28.2199   19.5487 O   0  0  0  0  0  0  0  0  0  0  0  0
  -28.2172  -24.3469   22.2170 O   0  0  0  0  0  0  0  0  0  0  0  0
  -21.5339   -7.1176   21.7226 O   0  0  0  0  0  0  0  0  0  0  0  0
  -31.7779  -21.1891   17.3487 O   0  0  0  0  0  0  0  0  0  1  0  0
  -23.9138   -3.0215   24.5443 F   0  0  0  0  0  0  0  0  0  0  0  0
  -20.4822   -6.2552   24.1294 F   0  0  0  0  0  0  0  0  0  0  0  0
  1  2  1  0  0  0  0
  1  5  2  0  0  0  0
  2  6  2  0  0  0  0
  3  8  2  0  0  0  0
  3 16  1  0  0  0  0
  4  9  1  0  0  0  0
  4 16  2  0  0  0  0
  5 18  1  0  0  0  0
  6 20  1  0  0  0  0
  7 10  2  0  0  0  0
  7 19  1  0  0  0  0
  8 22  1  0  0  0  0
  9 22  2  0  0  0  0
 10 23  1  0  0  0  0
 11 12  2  0  0  0  0
 11 24  1  0  0  0  0
 12 25  1  0  0  0  0
 13 21  1  0  0  0  0
 13 23  2  0  0  0  0
 14 25  2  0  0  0  0
 14 26  1  0  0  0  0
 15 28  1  0  0  0  0
 15 67  2  0  0  0  0
 16 27  1  0  0  0  0
 17 27  1  0  0  0  0
 17 31  2  0  0  0  0
 17 32  1  0  0  0  0
 18 20  2  0  0  0  0
 18 37  1  0  0  0  0
 19 21  2  0  0  0  0
 19 38  1  0  0  0  0
 20 46  1  0  0  0  0
 21 39  1  0  0  0  0
 22 83  1  0  0  0  0
 23 84  1  0  0  0  0
 24 26  2  0  0  0  0
 24 83  1  0  0  0  0
 25 85  1  0  0  0  0
 26 86  1  0  0  0  0
 27 68  2  0  0  0  0
 28 61  1  0  0  0  0
 28 69  2  0  0  0  0
 29 30  2  0  0  0  0
 29 58  1  0  0  0  0
 29 67  1  0  0  0  0
 30 62  1  0  0  0  0
 30 69  1  0  0  0  0
 31 70  1  0  0  0  0
 31 73  1  0  0  0  0
 32 74  1  0  0  0  0
 32 78  2  0  0  0  0
 33 47  1  0  0  0  0
 33 75  1  0  0  0  0
 33 79  2  0  0  0  0
 34 61  1  0  0  0  0
 34 72  1  0  0  0  0
 34 80  2  0  0  0  0
 35 63  1  0  0  0  0
 35 71  1  0  0  0  0
 35 81  2  0  0  0  0
 36 64  1  0  0  0  0
 36 76  1  0  0  0  0
 36 82  2  0  0  0  0
 37 40  1  0  0  0  0
 38 47  1  0  0  0  0
 39 71  1  0  0  0  0
 40 42  1  0  0  0  0
 41 43  1  0  0  0  0
 41 44  1  0  0  0  0
 42 46  1  0  0  0  0
 43 48  1  0  0  0  0
 44 72  1  0  0  0  0
 45 48  1  0  0  0  0
 45 72  1  0  0  0  0
 46 75  1  0  0  0  0
 47 71  1  0  0  0  0
 48 70  1  0  0  0  0
 49 58  1  0  0  0  0
 50 61  1  0  0  0  0
 51 62  1  0  0  0  0
 52 64  1  0  0  0  0
 53 65  1  0  0  0  0
 54 66  1  0  0  0  0
 55 66  1  0  0  0  0
 56 66  1  0  0  0  0
 57 77  1  0  0  0  0
 59 62  1  0  0  0  0
 59 65  1  0  0  0  0
 60 65  1  0  0  0  0
 60 84  1  0  0  0  0
 63 66  1  0  0  0  0
 63 76  1  0  0  0  0
 64 77  1  0  0  0  0
 68 70  1  0  0  0  0
M  CHG  1  77   1
M  ISO  4  34 100  60 101  61 100  84 101
M  END
> <Batch ID>
0075

> <Smiles>
CCc1ncc([100CH:0](C)[100C:0](=O)N2CCCC(n3nc(-c4ccc(Oc5ccc(F)cc5F)cc4)c(C(N)=O)c3N)C2)nc1C(C)CC(C)[101CH2:1][101O:1]c1ccc2c(c1)CN(C(=O)C(NC(=O)C(C)NC)C(C)(C)C)C(C(=O)NC1CCCc3ccccc31)C2

> <Shape>
0.286

> <Color>
0.199

> <Negative vol penalty>
0.000

$$$$

  -OEChem-04052318323D

 83 91  0     1  0  0  0  0  0999 V2000
  -19.6510  -24.0739   22.8507 C   0  0  0  0  0  0  0  0  0  0  0  0
  -20.8402  -24.3790   22.1965 C   0  0  0  0  0  0  0  0  0  0  0  0
  -25.4145  -14.0406   19.2883 C   0  0  0  0  0  0  0  0  0  0  0  0
  -23.6254  -12.9577   18.0785 C   0  0  0  0  0  0  0  0  0  0  0  0
  -18.7578  -25.0919   23.1817 C   0  0  0  0  0  0  0  0  0  0  0  0
  -21.1364  -25.7024   21.8717 C   0  0  0  0  0  0  0  0  0  0  0  0
  -25.9219  -26.9468   22.9648 C   0  0  0  0  0  0  0  0  0  0  0  0
  -25.7409  -12.8264   19.8923 C   0  0  0  0  0  0  0  0  0  0  0  0
  -23.9519  -11.7435   18.6825 C   0  0  0  0  0  0  0  0  0  0  0  0
  -26.9097  -26.5163   22.0801 C   0  0  0  0  0  0  0  0  0  0  0  0
  -23.4540  -10.2314   21.6652 C   0  0  0  0  0  0  0  0  0  0  0  0
  -22.4089   -9.4543   22.1647 C   0  0  0  0  0  0  0  0  0  0  0  0
  -26.9584  -28.7095   21.0767 C   0  0  0  0  0  0  0  0  0  0  0  0
  -23.0367   -7.6553   20.6792 C   0  0  0  0  0  0  0  0  0  0  0  0
  -24.3697  -23.1277   18.1091 C   0  0  0  0  0  0  0  0  0  0  0  0
  -24.3566  -14.1062   18.3814 C   0  0  0  0  0  0  0  0  0  0  0  0
  -24.5260  -15.8723   16.5484 C   0  0  0  0  0  0  0  0  0  0  0  0
  -19.0475  -26.4296   22.8695 C   0  0  0  0  0  0  0  0  0  0  0  0
  -25.4364  -28.2610   22.9048 C   0  0  0  0  0  0  0  0  0  0  0  0
  -20.2455  -26.7392   22.1977 C   0  0  0  0  0  0  0  0  0  0  0  0
  -25.9663  -29.1550   21.9635 C   0  0  0  0  0  0  0  0  0  0  0  0
  -25.0097  -11.6779   19.5894 C   0  0  0  0  0  0  0  0  0  0  0  0
  -27.4261  -27.3968   21.1339 C   0  0  0  0  0  0  0  0  0  0  0  0
  -24.2905   -9.7205   20.6727 C   0  0  0  0  0  0  0  0  0  0  0  0
  -22.2002   -8.1662   21.6717 C   0  0  0  0  0  0  0  0  0  0  0  0
  -24.0818   -8.4324   20.1797 C   0  0  0  0  0  0  0  0  0  0  0  0
  -24.0185  -15.3603   17.7576 C   0  0  0  0  0  0  0  0  0  0  0  0
  -23.3663  -22.2719   17.7516 C   0  0  0  0  0  0  0  0  0  0  0  0
  -23.8950  -17.0827   16.3964 C   0  0  0  0  0  0  0  0  0  0  0  0
  -24.8550  -22.3016   16.1135 C   0  0  0  0  0  0  0  0  0  0  0  0
  -25.4822  -15.3045   15.6435 C   0  0  0  0  0  0  0  0  0  0  0  0
  -22.1629  -21.9298   18.5208 C   0  0  0  0  0  0  0  0  0  0  0  0
  -22.6029  -29.5814   22.3291 C   0  0  0  0  0  0  0  0  0  0  0  0
  -24.1539  -32.3191   23.1177 C   0  0  0  0  0  0  0  0  0  0  0  0
  -27.1119  -34.0012   23.3775 C   0  0  0  0  0  0  0  0  0  0  0  0
  -18.0293  -27.4903   23.2053 C   0  0  0  0  0  0  0  0  0  0  0  0
  -24.3897  -28.7176   23.8838 C   0  0  0  0  0  0  0  0  0  0  0  0
  -25.4935  -30.5820   21.8712 C   0  0  0  0  0  0  0  0  0  0  0  0
  -18.5905  -28.9093   23.1601 C   0  0  0  0  0  0  0  0  0  0  0  0
  -19.9981  -19.1168   18.8975 C   0  0  0  0  0  0  0  0  0  0  0  0
  -19.4128  -29.1181   21.8925 C   0  0  0  0  0  0  0  0  0  0  0  0
  -20.8959  -17.9266   18.5547 C   0  0  0  0  0  0  0  0  0  0  0  0
  -20.7700  -20.2134   19.6269 C   0  0  0  0  0  0  0  0  0  0  0  0
  -22.8874  -19.4867   18.5812 C   0  0  0  0  0  0  0  0  0  0  0  0
  -20.6137  -28.1654   21.8507 C   0  0  1  0  0  0  0  0  0  0  0  0
  -23.6028  -29.9298   23.3952 C   0  0  1  0  0  0  0  0  0  0  0  0
  -22.1596  -18.3804   17.7999 C   0  0  1  0  0  0  0  0  0  0  0  0
  -25.5371  -22.0101   14.8284 C   0  0  0  0  0  0  0  0  0  0  0  0
  -28.0575  -36.2364   24.0154 C   0  0  0  0  0  0  0  0  0  0  0  0
  -23.1927  -33.4801   20.4647 C   0  0  0  0  0  0  0  0  0  0  0  0
  -24.9049  -35.2893   20.7160 C   0  0  0  0  0  0  0  0  0  0  0  0
  -23.0774  -35.0617   22.3985 C   0  0  0  0  0  0  0  0  0  0  0  0
  -29.9950  -23.1954   18.7696 C   0  0  0  0  0  0  0  0  0  0  0  0
  -29.5831  -24.1062   16.4888 C   0  0  0  0  0  0  0  0  0  0  0  0
  -28.7196  -32.8261   25.5668 C   0  0  0  0  0  0  0  0  0  0  0  0
  -27.6433  -23.2909   17.9097 C   0  0  0  0  0  0  0  0  0  0  0  0
  -28.9196  -25.4719   18.4811 C   0  0  0  0  0  0  0  0  0  0  0  0
  -26.5528  -23.9325   17.0413 C   0  0  0  0  0  0  0  0  0  0  0  0
  -28.3805  -25.5998   19.9029 C   0  0  0  0  0  0  0  0  0  1  0  0
  -24.9440  -33.3570   22.3578 C   0  0  1  0  0  0  0  0  0  0  0  0
  -27.6987  -34.8398   24.4986 C   0  0  2  0  0  0  0  0  0  0  0  0
  -24.0375  -34.2697   21.4844 C   0  0  0  0  0  0  0  0  0  0  0  0
  -29.0113  -24.0284   17.9202 C   0  0  0  0  0  0  0  0  0  0  0  0
  -23.1335  -16.1786   18.3330 N   0  0  0  0  0  0  0  0  0  0  0  0
  -25.2770  -23.1266   17.0772 N   0  0  0  0  0  0  0  0  0  0  0  0
  -23.0799  -17.2171   17.4817 N   0  0  0  0  0  0  0  0  0  0  0  0
  -23.6926  -21.7753   16.5127 N   0  3  0  0  0  0  0  0  0  0  0  0
  -21.9652  -20.5929   18.8744 N   0  0  0  0  0  0  0  0  0  0  0  0
  -24.4642  -30.9790   22.8462 N   0  0  0  0  0  0  0  0  0  0  0  0
  -23.9634  -18.0347   15.4417 N   0  0  0  0  0  0  0  0  0  0  0  0
  -26.0324  -14.0528   15.9516 N   0  0  0  0  0  0  0  0  0  0  0  0
  -21.6676  -28.6424   22.7203 N   0  0  0  0  0  0  0  0  0  0  0  0
  -25.7353  -34.0754   23.3509 N   0  0  0  0  0  0  0  0  0  0  0  0
  -28.9314  -34.1971   25.0355 N   0  3  0  0  0  0  0  0  0  0  0  0
  -25.8504  -15.8971   14.6010 O   0  0  0  0  0  0  0  0  0  0  0  0
  -21.4051  -22.8614   18.7871 O   0  0  0  0  0  0  0  0  0  0  0  0
  -22.6736  -30.1255   21.2334 O   0  0  0  0  0  0  0  0  0  0  0  0
  -23.2981  -32.6839   23.9276 O   0  0  0  0  0  0  0  0  0  0  0  0
  -27.8056  -33.3487   22.6005 O   0  0  0  0  0  0  0  0  0  0  0  0
  -25.3281  -10.4929   20.1785 O   0  0  0  0  0  0  0  0  0  0  0  0
  -28.3898  -26.9790   20.2688 O   0  0  0  0  0  0  0  0  0  1  0  0
  -21.1975   -7.4195   22.1525 F   0  0  0  0  0  0  0  0  0  0  0  0
  -24.8828   -7.9357   19.2271 F   0  0  0  0  0  0  0  0  0  0  0  0
  1  2  1  0  0  0  0
  1  5  2  0  0  0  0
  2  6  2  0  0  0  0
  3  8  2  0  0  0  0
  3 16  1  0  0  0  0
  4  9  1  0  0  0  0
  4 16  2  0  0  0  0
  5 18  1  0  0  0  0
  6 20  1  0  0  0  0
  7 10  2  0  0  0  0
  7 19  1  0  0  0  0
  8 22  1  0  0  0  0
  9 22  2  0  0  0  0
 10 23  1  0  0  0  0
 11 12  2  0  0  0  0
 11 24  1  0  0  0  0
 12 25  1  0  0  0  0
 13 21  1  0  0  0  0
 13 23  2  0  0  0  0
 14 25  2  0  0  0  0
 14 26  1  0  0  0  0
 15 28  2  0  0  0  0
 15 65  1  0  0  0  0
 16 27  1  0  0  0  0
 17 27  1  0  0  0  0
 17 29  2  0  0  0  0
 17 31  1  0  0  0  0
 18 20  2  0  0  0  0
 18 36  1  0  0  0  0
 19 21  2  0  0  0  0
 19 37  1  0  0  0  0
 20 45  1  0  0  0  0
 21 38  1  0  0  0  0
 22 80  1  0  0  0  0
 23 81  1  0  0  0  0
 24 26  2  0  0  0  0
 24 80  1  0  0  0  0
 25 82  1  0  0  0  0
 26 83  1  0  0  0  0
 27 64  2  0  0  0  0
 28 32  1  0  0  0  0
 28 67  1  0  0  0  0
 29 66  1  0  0  0  0
 29 70  1  0  0  0  0
 30 48  1  0  0  0  0
 30 65  1  0  0  0  0
 30 67  2  0  0  0  0
 31 71  1  0  0  0  0
 31 75  2  0  0  0  0
 32 68  1  0  0  0  0
 32 76  2  0  0  0  0
 33 46  1  0  0  0  0
 33 72  1  0  0  0  0
 33 77  2  0  0  0  0
 34 60  1  0  0  0  0
 34 69  1  0  0  0  0
 34 78  2  0  0  0  0
 35 61  1  0  0  0  0
 35 73  1  0  0  0  0
 35 79  2  0  0  0  0
 36 39  1  0  0  0  0
 37 46  1  0  0  0  0
 38 69  1  0  0  0  0
 39 41  1  0  0  0  0
 40 42  1  0  0  0  0
 40 43  1  0  0  0  0
 41 45  1  0  0  0  0
 42 47  1  0  0  0  0
 43 68  1  0  0  0  0
 44 47  1  0  0  0  0
 44 68  1  0  0  0  0
 45 72  1  0  0  0  0
 46 69  1  0  0  0  0
 47 66  1  0  0  0  0
 49 61  1  0  0  0  0
 50 62  1  0  0  0  0
 51 62  1  0  0  0  0
 52 62  1  0  0  0  0
 53 63  1  0  0  0  0
 54 63  1  0  0  0  0
 55 74  1  0  0  0  0
 56 58  1  0  0  0  0
 56 63  1  0  0  0  0
 57 59  1  0  0  0  0
 57 63  1  0  0  0  0
 58 65  1  0  0  0  0
 59 81  1  0  0  0  0
 60 62  1  0  0  0  0
 60 73  1  0  0  0  0
 61 74  1  0  0  0  0
 64 66  1  0  0  0  0
M  CHG  2  67   1  74   1
M  ISO  4  28 100  32 100  59 101  81 101
M  END
> <Batch ID>
0075

> <Smiles>
CNC(C)C(=O)NC(C(=O)N1Cc2cc([101O:1][101CH2:1]CC(C)(C)CCn3c[100c:0]([100C:0](=O)N4CCCC(n5nc(-c6ccc(Oc7ccc(F)cc7F)cc6)c(C(N)=O)c5N)C4)nc3C)ccc2CC1C(=O)NC1CCCc2ccccc21)C(C)(C)C

> <Shape>
0.204

> <Color>
0.091

> <Negative vol penalty>
0.000

$$$$

  -OEChem-04052318323D

 80 88  0     1  0  0  0  0  0999 V2000
  -16.7241  -27.6412   22.5434 C   0  0  0  0  0  0  0  0  0  0  0  0
  -17.7993  -27.4587   21.6796 C   0  0  0  0  0  0  0  0  0  0  0  0
  -29.6500  -17.8947   19.4560 C   0  0  0  0  0  0  0  0  0  0  0  0
  -31.2066  -18.0854   21.2938 C   0  0  0  0  0  0  0  0  0  0  0  0
  -16.9135  -28.2895   23.7631 C   0  0  0  0  0  0  0  0  0  0  0  0
  -19.0644  -27.9254   22.0347 C   0  0  0  0  0  0  0  0  0  0  0  0
  -22.7164  -24.5454   21.0945 C   0  0  0  0  0  0  0  0  0  0  0  0
  -29.9901  -16.5502   19.3073 C   0  0  0  0  0  0  0  0  0  0  0  0
  -31.5468  -16.7408   21.1451 C   0  0  0  0  0  0  0  0  0  0  0  0
  -23.1419  -24.4189   19.7729 C   0  0  0  0  0  0  0  0  0  0  0  0
  -30.1845  -12.9753   18.6771 C   0  0  0  0  0  0  0  0  0  0  0  0
  -29.1472  -12.0595   18.5013 C   0  0  0  0  0  0  0  0  0  0  0  0
  -25.0577  -25.8002   20.2638 C   0  0  0  0  0  0  0  0  0  0  0  0
  -28.2218  -12.6970   20.6401 C   0  0  0  0  0  0  0  0  0  0  0  0
  -28.7415  -25.0755   15.5795 C   0  0  0  0  0  0  0  0  0  0  0  0
  -30.2582  -18.6623   20.4492 C   0  0  0  0  0  0  0  0  0  0  0  0
  -28.8872  -20.5861   21.4120 C   0  0  0  0  0  0  0  0  0  0  0  0
  -18.1836  -28.7558   24.1375 C   0  0  0  0  0  0  0  0  0  0  0  0
  -23.4538  -25.3106   22.0095 C   0  0  0  0  0  0  0  0  0  0  0  0
  -19.2707  -28.5817   23.2600 C   0  0  0  0  0  0  0  0  0  0  0  0
  -24.6407  -25.9328   21.5970 C   0  0  0  0  0  0  0  0  0  0  0  0
  -30.9385  -15.9732   20.1518 C   0  0  0  0  0  0  0  0  0  0  0  0
  -24.3112  -25.0487   19.3566 C   0  0  0  0  0  0  0  0  0  0  0  0
  -30.2405  -13.7519   19.8345 C   0  0  0  0  0  0  0  0  0  0  0  0
  -28.1658  -11.9203   19.4828 C   0  0  0  0  0  0  0  0  0  0  0  0
  -29.2592  -13.6128   20.8159 C   0  0  0  0  0  0  0  0  0  0  0  0
  -29.9076  -20.0514   20.6029 C   0  0  0  0  0  0  0  0  0  0  0  0
  -29.9762  -24.5747   15.8820 C   0  0  0  0  0  0  0  0  0  0  0  0
  -28.9628  -21.9423   21.2085 C   0  0  0  0  0  0  0  0  0  0  0  0
  -28.8975  -23.0563   14.6857 C   0  0  0  0  0  0  0  0  0  0  0  0
  -27.9545  -19.9167   22.2709 C   0  0  0  0  0  0  0  0  0  0  0  0
  -31.0417  -25.2233   16.6573 C   0  0  0  0  0  0  0  0  0  0  0  0
  -22.8739  -27.9159   23.7358 C   0  0  0  0  0  0  0  0  0  0  0  0
  -25.7881  -27.2545   24.9978 C   0  0  0  0  0  0  0  0  0  0  0  0
  -28.8303  -25.7517   24.6323 C   0  0  0  0  0  0  0  0  0  0  0  0
  -18.3298  -29.4926   25.4454 C   0  0  0  0  0  0  0  0  0  0  0  0
  -22.9955  -25.4153   23.4383 C   0  0  0  0  0  0  0  0  0  0  0  0
  -25.4792  -26.7489   22.5454 C   0  0  0  0  0  0  0  0  0  0  0  0
  -19.7775  -29.6248   25.9114 C   0  0  0  0  0  0  0  0  0  0  0  0
  -32.0706  -25.4001   20.0708 C   0  0  0  0  0  0  0  0  0  0  0  0
  -20.6697  -30.0779   24.7601 C   0  0  0  0  0  0  0  0  0  0  0  0
  -31.5544  -24.0897   20.6678 C   0  0  0  0  0  0  0  0  0  0  0  0
  -32.5341  -25.2179   18.6277 C   0  0  0  0  0  0  0  0  0  0  0  0
  -31.0077  -23.2984   18.3279 C   0  0  0  0  0  0  0  0  0  0  0  0
  -20.6633  -29.0519   23.6205 C   0  0  1  0  0  0  0  0  0  0  0  0
  -23.5510  -26.6418   24.1556 C   0  0  1  0  0  0  0  0  0  0  0  0
  -30.4831  -23.4493   19.7653 C   0  0  1  0  0  0  0  0  0  0  0  0
  -28.5884  -21.8032   13.9537 C   0  0  0  0  0  0  0  0  0  0  0  0
  -31.1181  -24.9404   25.2688 C   0  0  0  0  0  0  0  0  0  0  0  0
  -26.5981  -30.1136   24.3054 C   0  0  0  0  0  0  0  0  0  0  0  0
  -28.9885  -29.4379   24.6177 C   0  0  0  0  0  0  0  0  0  0  0  0
  -27.3984  -29.3137   26.5357 C   0  0  0  0  0  0  0  0  0  0  0  0
  -27.7602  -23.1996   25.6814 C   0  0  0  0  0  0  0  0  0  0  0  0
  -25.6345  -24.5357   15.3476 C   0  0  0  0  0  0  0  0  0  0  0  0
  -25.4777  -23.4070   16.3678 C   0  0  0  0  0  0  0  0  0  0  0  0
  -26.6988  -24.2401   14.2846 C   0  0  0  0  0  0  0  0  0  0  0  0
  -24.3891  -23.7204   17.3854 C   0  0  0  0  0  0  0  0  0  1  0  0
  -27.2103  -27.6304   24.6586 C   0  0  1  0  0  0  0  0  0  0  0  0
  -29.6281  -24.8535   25.5603 C   0  0  2  0  0  0  0  0  0  0  0  0
  -27.5322  -29.1102   25.0107 C   0  0  0  0  0  0  0  0  0  0  0  0
  -30.5819  -20.9913   19.9350 N   0  0  0  0  0  0  0  0  0  0  0  0
  -28.0956  -24.1151   14.8388 N   0  0  0  0  0  0  0  0  0  0  0  0
  -29.9838  -22.1302   20.3240 N   0  0  0  0  0  0  0  0  0  0  0  0
  -30.0455  -23.3243   15.3165 N   0  3  0  0  0  0  0  0  0  0  0  0
  -31.4854  -24.5931   17.8224 N   0  0  0  0  0  0  0  0  0  0  0  0
  -24.9860  -26.8267   23.9304 N   0  0  0  0  0  0  0  0  0  0  0  0
  -28.2547  -22.9806   21.7015 N   0  0  0  0  0  0  0  0  0  0  0  0
  -28.0153  -18.5196   22.3634 N   0  0  0  0  0  0  0  0  0  0  0  0
  -21.5089  -27.9247   23.9504 N   0  0  0  0  0  0  0  0  0  0  0  0
  -28.0618  -26.6568   25.3334 N   0  0  0  0  0  0  0  0  0  0  0  0
  -29.2002  -23.4347   25.4021 N   0  3  0  0  0  0  0  0  0  0  0  0
  -27.0820  -20.5378   22.9240 O   0  0  0  0  0  0  0  0  0  0  0  0
  -31.4580  -26.2944   16.2186 O   0  0  0  0  0  0  0  0  0  0  0  0
  -23.5409  -28.8242   23.2544 O   0  0  0  0  0  0  0  0  0  0  0  0
  -25.4051  -27.3306   26.1679 O   0  0  0  0  0  0  0  0  0  0  0  0
  -28.8863  -25.6621   23.4078 O   0  0  0  0  0  0  0  0  0  0  0  0
  -31.2706  -14.6612   20.0072 O   0  0  0  0  0  0  0  0  0  0  0  0
  -24.7284  -24.9273   18.0670 O   0  0  0  0  0  0  0  0  0  1  0  0
  -27.1689  -11.0420   19.3131 F   0  0  0  0  0  0  0  0  0  0  0  0
  -29.3071  -14.3570   21.9294 F   0  0  0  0  0  0  0  0  0  0  0  0
  1  2  1  0  0  0  0
  1  5  2  0  0  0  0
  2  6  2  0  0  0  0
  3  8  2  0  0  0  0
  3 16  1  0  0  0  0
  4  9  1  0  0  0  0
  4 16  2  0  0  0  0
  5 18  1  0  0  0  0
  6 20  1  0  0  0  0
  7 10  2  0  0  0  0
  7 19  1  0  0  0  0
  8 22  1  0  0  0  0
  9 22  2  0  0  0  0
 10 23  1  0  0  0  0
 11 12  2  0  0  0  0
 11 24  1  0  0  0  0
 12 25  1  0  0  0  0
 13 21  1  0  0  0  0
 13 23  2  0  0  0  0
 14 25  2  0  0  0  0
 14 26  1  0  0  0  0
 15 28  2  0  0  0  0
 15 62  1  0  0  0  0
 16 27  1  0  0  0  0
 17 27  1  0  0  0  0
 17 29  2  0  0  0  0
 17 31  1  0  0  0  0
 18 20  2  0  0  0  0
 18 36  1  0  0  0  0
 19 21  2  0  0  0  0
 19 37  1  0  0  0  0
 20 45  1  0  0  0  0
 21 38  1  0  0  0  0
 22 77  1  0  0  0  0
 23 78  1  0  0  0  0
 24 26  2  0  0  0  0
 24 77  1  0  0  0  0
 25 79  1  0  0  0  0
 26 80  1  0  0  0  0
 27 61  2  0  0  0  0
 28 32  1  0  0  0  0
 28 64  1  0  0  0  0
 29 63  1  0  0  0  0
 29 67  1  0  0  0  0
 30 48  1  0  0  0  0
 30 62  1  0  0  0  0
 30 64  2  0  0  0  0
 31 68  1  0  0  0  0
 31 72  2  0  0  0  0
 32 65  1  0  0  0  0
 32 73  2  0  0  0  0
 33 46  1  0  0  0  0
 33 69  1  0  0  0  0
 33 74  2  0  0  0  0
 34 58  1  0  0  0  0
 34 66  1  0  0  0  0
 34 75  2  0  0  0  0
 35 59  1  0  0  0  0
 35 70  1  0  0  0  0
 35 76  2  0  0  0  0
 36 39  1  0  0  0  0
 37 46  1  0  0  0  0
 38 66  1  0  0  0  0
 39 41  1  0  0  0  0
 40 42  1  0  0  0  0
 40 43  1  0  0  0  0
 41 45  1  0  0  0  0
 42 47  1  0  0  0  0
 43 65  1  0  0  0  0
 44 47  1  0  0  0  0
 44 65  1  0  0  0  0
 45 69  1  0  0  0  0
 46 66  1  0  0  0  0
 47 63  1  0  0  0  0
 49 59  1  0  0  0  0
 50 60  1  0  0  0  0
 51 60  1  0  0  0  0
 52 60  1  0  0  0  0
 53 71  1  0  0  0  0
 54 55  1  0  0  0  0
 54 56  1  0  0  0  0
 55 57  1  0  0  0  0
 56 62  1  0  0  0  0
 57 78  1  0  0  0  0
 58 60  1  0  0  0  0
 58 70  1  0  0  0  0
 59 71  1  0  0  0  0
 61 63  1  0  0  0  0
M  CHG  2  64   1  71   1
M  ISO  4  28 100  32 100  57 101  78 101
M  END
> <Batch ID>
0075

> <Smiles>
CNC(C)C(=O)NC(C(=O)N1Cc2cc([101O:1][101CH2:1]CCCn3c[100c:0]([100C:0](=O)N4CCCC(n5nc(-c6ccc(Oc7ccc(F)cc7F)cc6)c(C(N)=O)c5N)C4)nc3C)ccc2CC1C(=O)NC1CCCc2ccccc21)C(C)(C)C

> <Shape>
0.204

> <Color>
0.061

> <Negative vol penalty>
0.000

$$$$

  -OEChem-04052318323D

 86 94  0     1  0  0  0  0  0999 V2000
  -16.9912  -29.3809   24.5440 C   0  0  0  0  0  0  0  0  0  0  0  0
  -17.4327  -28.1980   23.9601 C   0  0  0  0  0  0  0  0  0  0  0  0
  -22.4355  -15.5172   22.9660 C   0  0  0  0  0  0  0  0  0  0  0  0
  -21.7013  -15.5379   20.6643 C   0  0  0  0  0  0  0  0  0  0  0  0
  -17.5525  -30.5982   24.1606 C   0  0  0  0  0  0  0  0  0  0  0  0
  -18.4352  -28.2317   22.9914 C   0  0  0  0  0  0  0  0  0  0  0  0
  -22.8113  -24.0466   22.0749 C   0  0  0  0  0  0  0  0  0  0  0  0
  -21.2755  -16.1942   23.3421 C   0  0  0  0  0  0  0  0  0  0  0  0
  -20.5412  -16.2149   21.0405 C   0  0  0  0  0  0  0  0  0  0  0  0
  -22.9269  -22.9933   21.1688 C   0  0  0  0  0  0  0  0  0  0  0  0
  -17.2168  -17.6301   21.4455 C   0  0  0  0  0  0  0  0  0  0  0  0
  -16.0061  -17.1902   20.9106 C   0  0  0  0  0  0  0  0  0  0  0  0
  -24.2229  -24.4043   19.7030 C   0  0  0  0  0  0  0  0  0  0  0  0
  -16.3507  -15.0201   21.9151 C   0  0  0  0  0  0  0  0  0  0  0  0
  -22.6485  -15.1891   21.6270 C   0  0  0  0  0  0  0  0  0  0  0  0
  -24.0330  -13.0968   21.1656 C   0  0  0  0  0  0  0  0  0  0  0  0
  -18.5691  -30.6460   23.1937 C   0  0  0  0  0  0  0  0  0  0  0  0
  -23.3924  -25.2920   21.7964 C   0  0  0  0  0  0  0  0  0  0  0  0
  -19.0098  -29.4509   22.5937 C   0  0  0  0  0  0  0  0  0  0  0  0
  -24.1154  -25.4710   20.6084 C   0  0  0  0  0  0  0  0  0  0  0  0
  -20.3283  -16.5430   22.3794 C   0  0  0  0  0  0  0  0  0  0  0  0
  -23.6303  -23.1729   19.9814 C   0  0  0  0  0  0  0  0  0  0  0  0
  -17.9946  -16.7649   22.2152 C   0  0  0  0  0  0  0  0  0  0  0  0
  -15.5730  -15.8853   21.1454 C   0  0  0  0  0  0  0  0  0  0  0  0
  -17.5615  -15.4600   22.4500 C   0  0  0  0  0  0  0  0  0  0  0  0
  -23.8469  -14.4903   21.2377 C   0  0  0  0  0  0  0  0  0  0  0  0
  -25.3328  -12.9450   20.7487 C   0  0  0  0  0  0  0  0  0  0  0  0
  -29.4017  -20.2094   19.7578 C   0  0  0  0  0  0  0  0  0  0  0  0
  -30.0014  -18.6094   18.4202 C   0  0  0  0  0  0  0  0  0  0  0  0
  -23.1130  -12.0344   21.4500 C   0  0  0  0  0  0  0  0  0  0  0  0
  -22.2837  -28.2418   21.3802 C   0  0  0  0  0  0  0  0  0  0  0  0
  -25.4373  -28.9955   21.2860 C   0  0  0  0  0  0  0  0  0  0  0  0
  -28.8686  -16.5592   17.6323 C   0  0  0  0  0  0  0  0  0  0  0  0
  -28.6429  -27.9792   20.7044 C   0  0  0  0  0  0  0  0  0  0  0  0
  -19.1124  -31.9899   22.7773 C   0  0  0  0  0  0  0  0  0  0  0  0
  -23.2814  -26.4101   22.7963 C   0  0  0  0  0  0  0  0  0  0  0  0
  -24.7751  -26.7824   20.2715 C   0  0  0  0  0  0  0  0  0  0  0  0
  -20.4321  -31.9038   22.0150 C   0  0  0  0  0  0  0  0  0  0  0  0
  -29.5933  -15.1024   20.8850 C   0  0  0  0  0  0  0  0  0  0  0  0
  -20.3574  -30.8257   20.9385 C   0  0  0  0  0  0  0  0  0  0  0  0
  -28.1999  -14.6778   21.3470 C   0  0  0  0  0  0  0  0  0  0  0  0
  -29.5465  -16.3965   20.0769 C   0  0  0  0  0  0  0  0  0  0  0  0
  -27.2245  -15.9188   19.3667 C   0  0  0  0  0  0  0  0  0  0  0  0
  -20.1125  -29.4442   21.5574 C   0  0  1  0  0  0  0  0  0  0  0  0
  -23.4762  -27.7895   22.1744 C   0  0  1  0  0  0  0  0  0  0  0  0
  -27.2243  -14.6011   20.1596 C   0  0  2  0  0  0  0  0  0  0  0  0
  -28.5683  -21.2360   20.4085 C   0  0  0  0  0  0  0  0  0  0  0  0
  -31.0036  -28.8296   20.6710 C   0  0  0  0  0  0  0  0  0  0  0  0
  -31.2813  -16.8146   17.2230 C   0  0  0  0  0  0  0  0  0  0  0  0
  -29.5778  -18.0946   15.9217 C   0  0  0  0  0  0  0  0  0  0  0  0
  -24.8991  -30.3778   18.6196 C   0  0  0  0  0  0  0  0  0  0  0  0
  -27.3659  -30.3608   18.1923 C   0  0  0  0  0  0  0  0  0  0  0  0
  -26.4483  -31.6164   20.1427 C   0  0  0  0  0  0  0  0  0  0  0  0
  -26.1117  -21.8716   15.4263 C   0  0  0  0  0  0  0  0  0  0  0  0
  -25.8009  -19.4068   15.5981 C   0  0  0  0  0  0  0  0  0  0  0  0
  -29.4749  -26.0940   22.8288 C   0  0  0  0  0  0  0  0  0  0  0  0
  -27.4225  -20.6019   17.1435 C   0  0  0  0  0  0  0  0  0  0  0  0
  -24.8586  -20.8787   17.3925 C   0  0  0  0  0  0  0  0  0  0  0  0
  -27.5809  -19.4270   18.1179 C   0  0  0  0  0  0  0  0  0  0  0  0
  -24.9215  -22.1116   18.2895 C   0  0  0  0  0  0  0  0  0  1  0  0
  -26.4822  -29.0890   20.2004 C   0  0  1  0  0  0  0  0  0  0  0  0
  -29.9193  -28.1649   21.5048 C   0  0  2  0  0  0  0  0  0  0  0  0
  -29.9352  -17.5894   17.3586 C   0  0  0  0  0  0  0  0  0  0  0  0
  -26.2849  -30.3368   19.2939 C   0  0  0  0  0  0  0  0  0  0  0  0
  -26.0509  -20.6901   16.4181 C   0  0  0  0  0  0  0  0  0  0  0  0
  -24.9411  -15.1751   20.8943 N   0  0  0  0  0  0  0  0  0  0  0  0
  -30.6501  -19.9091   20.0364 N   0  0  0  0  0  0  0  0  0  0  0  0
  -31.0317  -18.8911   19.1854 N   0  0  0  0  0  0  0  0  0  0  0  0
  -25.8272  -14.2077   20.6025 N   0  0  0  0  0  0  0  0  0  0  0  0
  -28.9532  -19.4155   18.7462 N   0  0  0  0  0  0  0  0  0  0  0  0
  -24.6329  -27.8472   21.2783 N   0  0  0  0  0  0  0  0  0  0  0  0
  -28.5858  -16.2922   18.9721 N   0  0  0  0  0  0  0  0  0  0  0  0
  -26.0898  -11.8560   20.4967 N   0  0  0  0  0  0  0  0  0  0  0  0
  -21.8170  -12.3667   21.8672 N   0  0  0  0  0  0  0  0  0  0  0  0
  -21.3368  -28.9200   22.1238 N   0  0  0  0  0  0  0  0  0  0  0  0
  -27.7756  -29.0378   20.8733 N   0  0  0  0  0  0  0  0  0  0  0  0
  -30.4310  -26.8472   21.9769 N   0  3  0  0  0  0  0  0  0  0  0  0
  -23.4360  -10.8262   21.3532 O   0  0  0  0  0  0  0  0  0  0  0  0
  -22.2274  -27.9951   20.1812 O   0  0  0  0  0  0  0  0  0  0  0  0
  -25.3432  -29.9044   22.1147 O   0  0  0  0  0  0  0  0  0  0  0  0
  -28.3068  -16.0073   16.6826 O   0  0  0  0  0  0  0  0  0  0  0  0
  -28.4374  -26.9954   19.9970 O   0  0  0  0  0  0  0  0  0  0  0  0
  -19.1960  -17.2034   22.7462 O   0  0  0  0  0  0  0  0  0  0  0  0
  -23.7440  -22.1467   19.0949 O   0  0  0  0  0  0  0  0  0  1  0  0
  -14.4095  -15.4635   20.6330 F   0  0  0  0  0  0  0  0  0  0  0  0
  -18.3038  -14.6246   23.1896 F   0  0  0  0  0  0  0  0  0  0  0  0
  1  2  1  0  0  0  0
  1  5  2  0  0  0  0
  2  6  2  0  0  0  0
  3  8  2  0  0  0  0
  3 15  1  0  0  0  0
  4  9  1  0  0  0  0
  4 15  2  0  0  0  0
  5 17  1  0  0  0  0
  6 19  1  0  0  0  0
  7 10  2  0  0  0  0
  7 18  1  0  0  0  0
  8 21  1  0  0  0  0
  9 21  2  0  0  0  0
 10 22  1  0  0  0  0
 11 12  2  0  0  0  0
 11 23  1  0  0  0  0
 12 24  1  0  0  0  0
 13 20  1  0  0  0  0
 13 22  2  0  0  0  0
 14 24  2  0  0  0  0
 14 25  1  0  0  0  0
 15 26  1  0  0  0  0
 16 26  1  0  0  0  0
 16 27  2  0  0  0  0
 16 30  1  0  0  0  0
 17 19  2  0  0  0  0
 17 35  1  0  0  0  0
 18 20  2  0  0  0  0
 18 36  1  0  0  0  0
 19 44  1  0  0  0  0
 20 37  1  0  0  0  0
 21 83  1  0  0  0  0
 22 84  1  0  0  0  0
 23 25  2  0  0  0  0
 23 83  1  0  0  0  0
 24 85  1  0  0  0  0
 25 86  1  0  0  0  0
 26 66  2  0  0  0  0
 27 69  1  0  0  0  0
 27 73  1  0  0  0  0
 28 47  1  0  0  0  0
 28 67  2  0  0  0  0
 28 70  1  0  0  0  0
 29 63  1  0  0  0  0
 29 68  2  0  0  0  0
 29 70  1  0  0  0  0
 30 74  1  0  0  0  0
 30 78  2  0  0  0  0
 31 45  1  0  0  0  0
 31 75  1  0  0  0  0
 31 79  2  0  0  0  0
 32 61  1  0  0  0  0
 32 71  1  0  0  0  0
 32 80  2  0  0  0  0
 33 63  1  0  0  0  0
 33 72  1  0  0  0  0
 33 81  2  0  0  0  0
 34 62  1  0  0  0  0
 34 76  1  0  0  0  0
 34 82  2  0  0  0  0
 35 38  1  0  0  0  0
 36 45  1  0  0  0  0
 37 71  1  0  0  0  0
 38 40  1  0  0  0  0
 39 41  1  0  0  0  0
 39 42  1  0  0  0  0
 40 44  1  0  0  0  0
 41 46  1  0  0  0  0
 42 72  1  0  0  0  0
 43 46  1  0  0  0  0
 43 72  1  0  0  0  0
 44 75  1  0  0  0  0
 45 71  1  0  0  0  0
 46 69  1  0  0  0  0
 48 62  1  0  0  0  0
 49 63  1  0  0  0  0
 50 63  1  0  0  0  0
 51 64  1  0  0  0  0
 52 64  1  0  0  0  0
 53 64  1  0  0  0  0
 54 65  1  0  0  0  0
 55 65  1  0  0  0  0
 56 77  1  0  0  0  0
 57 59  1  0  0  0  0
 57 65  1  0  0  0  0
 58 60  1  0  0  0  0
 58 65  1  0  0  0  0
 59 70  1  0  0  0  0
 60 84  1  0  0  0  0
 61 64  1  0  0  0  0
 61 76  1  0  0  0  0
 62 77  1  0  0  0  0
 66 69  1  0  0  0  0
 67 68  1  0  0  0  0
M  CHG  1  77   1
M  ISO  4  33 100  60 101  63 100  84 101
M  END
> <Batch ID>
0075

> <Smiles>
CNC(C)C(=O)NC(C(=O)N1Cc2cc([101O:1][101CH2:1]CC(C)(C)CCn3c(C)nnc3[100C:0](C)(C)[100C:0](=O)N3CCCC(n4nc(-c5ccc(Oc6ccc(F)cc6F)cc5)c(C(N)=O)c4N)C3)ccc2CC1C(=O)NC1CCCc2ccccc21)C(C)(C)C

> <Shape>
0.209

> <Color>
0.103

> <Negative vol penalty>
0.000

$$$$

  -OEChem-04052318323D

 87 95  0     1  0  0  0  0  0999 V2000
  -27.5545  -33.7586   26.0366 C   0  0  0  0  0  0  0  0  0  0  0  0
  -27.8095  -32.5602   25.3776 C   0  0  0  0  0  0  0  0  0  0  0  0
  -24.1578  -14.0080   21.7737 C   0  0  0  0  0  0  0  0  0  0  0  0
  -26.2664  -14.0454   20.5950 C   0  0  0  0  0  0  0  0  0  0  0  0
  -26.2492  -34.0908   26.3967 C   0  0  0  0  0  0  0  0  0  0  0  0
  -26.7593  -31.6928   25.0792 C   0  0  0  0  0  0  0  0  0  0  0  0
  -27.0222  -29.8748   20.3600 C   0  0  0  0  0  0  0  0  0  0  0  0
  -23.8193  -12.8176   21.1304 C   0  0  0  0  0  0  0  0  0  0  0  0
  -25.9279  -12.8549   19.9516 C   0  0  0  0  0  0  0  0  0  0  0  0
  -27.9309  -28.8441   20.1245 C   0  0  0  0  0  0  0  0  0  0  0  0
  -22.5542   -9.5791   20.0686 C   0  0  0  0  0  0  0  0  0  0  0  0
  -22.0031   -8.5578   20.8424 C   0  0  0  0  0  0  0  0  0  0  0  0
  -26.1337  -27.2397   20.2470 C   0  0  0  0  0  0  0  0  0  0  0  0
  -24.0013   -8.5078   22.1995 C   0  0  0  0  0  0  0  0  0  0  0  0
  -29.7097  -19.7796   18.9036 C   0  0  0  0  0  0  0  0  0  0  0  0
  -25.3814  -14.6219   21.5060 C   0  0  0  0  0  0  0  0  0  0  0  0
  -26.4131  -15.9934   23.3934 C   0  0  0  0  0  0  0  0  0  0  0  0
  -25.1812  -33.2315   26.0939 C   0  0  0  0  0  0  0  0  0  0  0  0
  -25.6617  -29.5943   20.5520 C   0  0  0  0  0  0  0  0  0  0  0  0
  -25.4386  -32.0132   25.4367 C   0  0  0  0  0  0  0  0  0  0  0  0
  -25.2093  -28.2690   20.4823 C   0  0  0  0  0  0  0  0  0  0  0  0
  -24.7043  -12.2410   20.2193 C   0  0  0  0  0  0  0  0  0  0  0  0
  -27.4872  -27.5260   20.0708 C   0  0  0  0  0  0  0  0  0  0  0  0
  -23.8289  -10.0648   20.3602 C   0  0  0  0  0  0  0  0  0  0  0  0
  -22.7266   -8.0221   21.9078 C   0  0  0  0  0  0  0  0  0  0  0  0
  -24.5525   -9.5291   21.4257 C   0  0  0  0  0  0  0  0  0  0  0  0
  -25.7314  -15.8519   22.1698 C   0  0  0  0  0  0  0  0  0  0  0  0
  -30.0976  -19.0308   19.9786 C   0  0  0  0  0  0  0  0  0  0  0  0
  -26.4969  -17.3509   23.5847 C   0  0  0  0  0  0  0  0  0  0  0  0
  -29.3861  -20.9877   20.7301 C   0  0  0  0  0  0  0  0  0  0  0  0
  -26.9249  -14.9877   24.2778 C   0  0  0  0  0  0  0  0  0  0  0  0
  -23.6014  -30.0056   22.9373 C   0  0  0  0  0  0  0  0  0  0  0  0
  -21.4546  -28.9470   20.7480 C   0  0  0  0  0  0  0  0  0  0  0  0
  -27.5654  -22.4502   21.5486 C   0  0  0  0  0  0  0  0  0  0  0  0
  -20.8617  -27.1666   17.8975 C   0  0  0  0  0  0  0  0  0  0  0  0
  -23.7932  -33.6116   26.5452 C   0  0  0  0  0  0  0  0  0  0  0  0
  -24.6901  -30.7200   20.7785 C   0  0  0  0  0  0  0  0  0  0  0  0
  -23.7560  -27.9167   20.6615 C   0  0  0  0  0  0  0  0  0  0  0  0
  -22.6891  -32.8112   25.8593 C   0  0  0  0  0  0  0  0  0  0  0  0
  -24.2397  -21.1704   21.1713 C   0  0  0  0  0  0  0  0  0  0  0  0
  -23.0310  -31.3246   25.8557 C   0  0  0  0  0  0  0  0  0  0  0  0
  -24.3930  -19.6793   21.4683 C   0  0  0  0  0  0  0  0  0  0  0  0
  -25.4677  -21.7267   20.4574 C   0  0  0  0  0  0  0  0  0  0  0  0
  -26.9082  -19.9936   21.4786 C   0  0  0  0  0  0  0  0  0  0  0  0
  -24.3228  -31.0575   25.0736 C   0  0  1  0  0  0  0  0  0  0  0  0
  -23.4071  -30.2715   21.4713 C   0  0  1  0  0  0  0  0  0  0  0  0
  -25.7023  -19.3985   22.2269 C   0  0  2  0  0  0  0  0  0  0  0  0
  -30.6426  -17.6736   20.0670 C   0  0  0  0  0  0  0  0  0  0  0  0
  -19.0010  -26.4493   16.3741 C   0  0  0  0  0  0  0  0  0  0  0  0
  -29.8358  -23.3811   21.3317 C   0  0  0  0  0  0  0  0  0  0  0  0
  -29.2233  -21.8128   23.1754 C   0  0  0  0  0  0  0  0  0  0  0  0
  -20.5937  -26.8503   22.7907 C   0  0  0  0  0  0  0  0  0  0  0  0
  -19.4625  -25.6076   20.9348 C   0  0  0  0  0  0  0  0  0  0  0  0
  -18.7131  -27.9115   21.5292 C   0  0  0  0  0  0  0  0  0  0  0  0
  -28.1169  -23.2917   15.7453 C   0  0  0  0  0  0  0  0  0  0  0  0
  -30.4893  -24.0341   15.6084 C   0  0  0  0  0  0  0  0  0  0  0  0
  -22.0482  -28.5879   15.5886 C   0  0  0  0  0  0  0  0  0  0  0  0
  -30.0117  -25.5931   18.2977 C   0  0  0  0  0  0  0  0  0  0  0  0
  -28.9387  -25.0279   17.3555 C   0  0  0  0  0  0  0  0  0  0  0  0
  -29.7828  -22.5781   17.5214 C   0  0  0  0  0  0  0  0  0  0  0  0
  -28.7487  -22.1273   18.5619 C   0  0  0  0  0  0  0  0  0  0  0  0
  -29.5177  -26.8270   19.0489 C   0  0  0  0  0  0  0  0  0  1  0  0
  -20.9218  -27.5946   20.3404 C   0  0  1  0  0  0  0  0  0  0  0  0
  -20.0654  -27.5001   16.6488 C   0  0  2  0  0  0  0  0  0  0  0  0
  -29.0266  -22.0927   21.6535 C   0  0  0  0  0  0  0  0  0  0  0  0
  -19.9505  -26.9971   21.3973 C   0  0  0  0  0  0  0  0  0  0  0  0
  -29.3329  -23.7353   16.5866 C   0  0  0  0  0  0  0  0  0  0  0  0
  -25.4052  -17.0259   21.6225 N   0  0  0  0  0  0  0  0  0  0  0  0
  -29.2735  -20.9852   19.3979 N   0  0  0  0  0  0  0  0  0  0  0  0
  -25.8839  -17.9179   22.5064 N   0  0  0  0  0  0  0  0  0  0  0  0
  -29.8867  -19.8031   21.0954 N   0  3  0  0  0  0  0  0  0  0  0  0
  -22.8458  -29.0518   20.8868 N   0  0  0  0  0  0  0  0  0  0  0  0
  -26.6927  -21.4199   21.1980 N   0  0  0  0  0  0  0  0  0  0  0  0
  -27.0344  -18.1029   24.5686 N   0  0  0  0  0  0  0  0  0  0  0  0
  -26.7530  -13.6411   23.9291 N   0  0  0  0  0  0  0  0  0  0  0  0
  -24.0680  -31.0940   23.6494 N   0  0  0  0  0  0  0  0  0  0  0  0
  -20.3312  -27.7703   19.0180 N   0  0  0  0  0  0  0  0  0  0  0  0
  -20.9670  -27.5767   15.4646 N   0  3  0  0  0  0  0  0  0  0  0  0
  -27.5025  -15.2743   25.3538 O   0  0  0  0  0  0  0  0  0  0  0  0
  -23.3455  -28.8956   23.3891 O   0  0  0  0  0  0  0  0  0  0  0  0
  -20.6660  -29.8780   20.9295 O   0  0  0  0  0  0  0  0  0  0  0  0
  -27.2117  -23.6103   21.7748 O   0  0  0  0  0  0  0  0  0  0  0  0
  -21.8528  -26.4400   17.8812 O   0  0  0  0  0  0  0  0  0  0  0  0
  -24.3744  -11.0793   19.5916 O   0  0  0  0  0  0  0  0  0  0  0  0
  -28.3722  -26.5179   19.8417 O   0  0  0  0  0  0  0  0  0  1  0  0
  -22.1967   -7.0424   22.6518 F   0  0  0  0  0  0  0  0  0  0  0  0
  -25.7770   -9.9923   21.7114 F   0  0  0  0  0  0  0  0  0  0  0  0
  1  2  1  0  0  0  0
  1  5  2  0  0  0  0
  2  6  2  0  0  0  0
  3  8  2  0  0  0  0
  3 16  1  0  0  0  0
  4  9  1  0  0  0  0
  4 16  2  0  0  0  0
  5 18  1  0  0  0  0
  6 20  1  0  0  0  0
  7 10  2  0  0  0  0
  7 19  1  0  0  0  0
  8 22  1  0  0  0  0
  9 22  2  0  0  0  0
 10 23  1  0  0  0  0
 11 12  2  0  0  0  0
 11 24  1  0  0  0  0
 12 25  1  0  0  0  0
 13 21  1  0  0  0  0
 13 23  2  0  0  0  0
 14 25  2  0  0  0  0
 14 26  1  0  0  0  0
 15 28  2  0  0  0  0
 15 69  1  0  0  0  0
 16 27  1  0  0  0  0
 17 27  1  0  0  0  0
 17 29  2  0  0  0  0
 17 31  1  0  0  0  0
 18 20  2  0  0  0  0
 18 36  1  0  0  0  0
 19 21  2  0  0  0  0
 19 37  1  0  0  0  0
 20 45  1  0  0  0  0
 21 38  1  0  0  0  0
 22 84  1  0  0  0  0
 23 85  1  0  0  0  0
 24 26  2  0  0  0  0
 24 84  1  0  0  0  0
 25 86  1  0  0  0  0
 26 87  1  0  0  0  0
 27 68  2  0  0  0  0
 28 48  1  0  0  0  0
 28 71  1  0  0  0  0
 29 70  1  0  0  0  0
 29 74  1  0  0  0  0
 30 65  1  0  0  0  0
 30 69  1  0  0  0  0
 30 71  2  0  0  0  0
 31 75  1  0  0  0  0
 31 79  2  0  0  0  0
 32 46  1  0  0  0  0
 32 76  1  0  0  0  0
 32 80  2  0  0  0  0
 33 63  1  0  0  0  0
 33 72  1  0  0  0  0
 33 81  2  0  0  0  0
 34 65  1  0  0  0  0
 34 73  1  0  0  0  0
 34 82  2  0  0  0  0
 35 64  1  0  0  0  0
 35 77  1  0  0  0  0
 35 83  2  0  0  0  0
 36 39  1  0  0  0  0
 37 46  1  0  0  0  0
 38 72  1  0  0  0  0
 39 41  1  0  0  0  0
 40 42  1  0  0  0  0
 40 43  1  0  0  0  0
 41 45  1  0  0  0  0
 42 47  1  0  0  0  0
 43 73  1  0  0  0  0
 44 47  1  0  0  0  0
 44 73  1  0  0  0  0
 45 76  1  0  0  0  0
 46 72  1  0  0  0  0
 47 70  1  0  0  0  0
 49 64  1  0  0  0  0
 50 65  1  0  0  0  0
 51 65  1  0  0  0  0
 52 66  1  0  0  0  0
 53 66  1  0  0  0  0
 54 66  1  0  0  0  0
 55 67  1  0  0  0  0
 56 67  1  0  0  0  0
 57 78  1  0  0  0  0
 58 59  1  0  0  0  0
 58 62  1  0  0  0  0
 59 67  1  0  0  0  0
 60 61  1  0  0  0  0
 60 67  1  0  0  0  0
 61 69  1  0  0  0  0
 62 85  1  0  0  0  0
 63 66  1  0  0  0  0
 63 77  1  0  0  0  0
 64 78  1  0  0  0  0
 68 70  1  0  0  0  0
M  CHG  2  71   1  78   1
M  ISO  4  34 100  62 101  65 100  85 101
M  END
> <Batch ID>
0075

> <Smiles>
CNC(C)C(=O)NC(C(=O)N1Cc2cc([101O:1][101CH2:1]CCC(C)(C)CCn3cc(C)nc3[100C:0](C)(C)[100C:0](=O)N3CCCC(n4nc(-c5ccc(Oc6ccc(F)cc6F)cc5)c(C(N)=O)c4N)C3)ccc2CC1C(=O)NC1CCCc2ccccc21)C(C)(C)C

> <Shape>
0.306

> <Color>
0.083

> <Negative vol penalty>
0.000

$$$$

  -OEChem-04052318323D

 80 88  0     1  0  0  0  0  0999 V2000
  -33.5582  -27.5755   15.4351 C   0  0  0  0  0  0  0  0  0  0  0  0
  -32.2033  -27.3611   15.2030 C   0  0  0  0  0  0  0  0  0  0  0  0
  -27.8911  -17.4641   18.2613 C   0  0  0  0  0  0  0  0  0  0  0  0
  -29.8284  -17.6591   16.8310 C   0  0  0  0  0  0  0  0  0  0  0  0
  -34.0611  -27.5069   16.7337 C   0  0  0  0  0  0  0  0  0  0  0  0
  -31.3508  -27.0770   16.2693 C   0  0  0  0  0  0  0  0  0  0  0  0
  -24.6036  -28.0993   18.4480 C   0  0  0  0  0  0  0  0  0  0  0  0
  -27.9968  -16.0741   18.2150 C   0  0  0  0  0  0  0  0  0  0  0  0
  -29.9341  -16.2690   16.7847 C   0  0  0  0  0  0  0  0  0  0  0  0
  -23.5042  -27.3838   18.9202 C   0  0  0  0  0  0  0  0  0  0  0  0
  -29.8736  -13.6687   19.6725 C   0  0  0  0  0  0  0  0  0  0  0  0
  -29.7422  -12.9683   20.8716 C   0  0  0  0  0  0  0  0  0  0  0  0
  -24.4707  -27.3689   21.1304 C   0  0  0  0  0  0  0  0  0  0  0  0
  -27.8426  -11.7793   19.9688 C   0  0  0  0  0  0  0  0  0  0  0  0
  -22.1505  -22.5148   16.3123 C   0  0  0  0  0  0  0  0  0  0  0  0
  -28.8069  -18.2567   17.5692 C   0  0  0  0  0  0  0  0  0  0  0  0
  -29.2985  -20.5607   18.5476 C   0  0  0  0  0  0  0  0  0  0  0  0
  -33.2127  -27.2314   17.8176 C   0  0  0  0  0  0  0  0  0  0  0  0
  -25.6518  -28.4461   19.3126 C   0  0  0  0  0  0  0  0  0  0  0  0
  -31.8432  -27.0034   17.5834 C   0  0  0  0  0  0  0  0  0  0  0  0
  -25.5811  -28.0911   20.6672 C   0  0  0  0  0  0  0  0  0  0  0  0
  -29.0183  -15.4765   17.4767 C   0  0  0  0  0  0  0  0  0  0  0  0
  -23.4389  -27.0159   20.2609 C   0  0  0  0  0  0  0  0  0  0  0  0
  -28.9895  -13.4245   18.6216 C   0  0  0  0  0  0  0  0  0  0  0  0
  -28.7267  -12.0236   21.0197 C   0  0  0  0  0  0  0  0  0  0  0  0
  -27.9740  -12.4798   18.7697 C   0  0  0  0  0  0  0  0  0  0  0  0
  -28.6979  -19.6926   17.6162 C   0  0  0  0  0  0  0  0  0  0  0  0
  -23.3463  -23.1842   16.2310 C   0  0  0  0  0  0  0  0  0  0  0  0
  -28.8891  -21.8139   18.1625 C   0  0  0  0  0  0  0  0  0  0  0  0
  -22.8943  -22.7172   18.2690 C   0  0  0  0  0  0  0  0  0  0  0  0
  -30.1503  -20.2611   19.6613 C   0  0  0  0  0  0  0  0  0  0  0  0
  -24.1158  -23.7301   15.1055 C   0  0  0  0  0  0  0  0  0  0  0  0
  -28.7543  -27.7708   19.4604 C   0  0  0  0  0  0  0  0  0  0  0  0
  -28.7093  -29.9224   21.8875 C   0  0  0  0  0  0  0  0  0  0  0  0
  -26.9103  -31.5296   24.3015 C   0  0  0  0  0  0  0  0  0  0  0  0
  -33.8106  -27.1208   19.1978 C   0  0  0  0  0  0  0  0  0  0  0  0
  -26.8182  -29.2413   18.7934 C   0  0  0  0  0  0  0  0  0  0  0  0
  -26.6706  -28.4568   21.6408 C   0  0  0  0  0  0  0  0  0  0  0  0
  -32.7748  -27.1847   20.3172 C   0  0  0  0  0  0  0  0  0  0  0  0
  -27.5461  -24.3032   14.3015 C   0  0  0  0  0  0  0  0  0  0  0  0
  -31.5917  -26.2748   20.0024 C   0  0  0  0  0  0  0  0  0  0  0  0
  -28.2878  -23.2546   15.1324 C   0  0  0  0  0  0  0  0  0  0  0  0
  -26.2083  -23.7742   13.7905 C   0  0  0  0  0  0  0  0  0  0  0  0
  -26.0607  -22.1845   15.6762 C   0  0  0  0  0  0  0  0  0  0  0  0
  -30.8822  -26.7172   18.7169 C   0  0  1  0  0  0  0  0  0  0  0  0
  -28.0707  -29.0950   19.6521 C   0  0  1  0  0  0  0  0  0  0  0  0
  -27.3914  -22.6948   16.2530 C   0  0  1  0  0  0  0  0  0  0  0  0
  -19.6407  -25.3725   20.5924 C   0  0  0  0  0  0  0  0  0  0  0  0
  -27.1557  -33.2037   26.1547 C   0  0  0  0  0  0  0  0  0  0  0  0
  -30.0271  -27.7942   23.6321 C   0  0  0  0  0  0  0  0  0  0  0  0
  -29.3845  -29.1428   25.6413 C   0  0  0  0  0  0  0  0  0  0  0  0
  -30.9349  -30.1041   23.9398 C   0  0  0  0  0  0  0  0  0  0  0  0
  -25.0031  -33.3973   23.0235 C   0  0  0  0  0  0  0  0  0  0  0  0
  -23.1634  -22.7106   19.7527 C   0  0  0  0  0  0  0  0  0  0  0  0
  -20.8467  -24.4570   20.7598 C   0  0  0  0  0  0  0  0  0  0  0  0
  -23.3146  -24.1120   20.3619 C   0  0  0  0  0  0  0  0  0  0  0  0
  -28.4832  -29.8479   23.3782 C   0  0  1  0  0  0  0  0  0  0  0  0
  -26.8242  -32.9958   24.6852 C   0  0  2  0  0  0  0  0  0  0  0  0
  -22.1154  -25.0444   20.1296 C   0  0  2  0  0  0  0  0  0  1  0  0
  -29.6876  -29.2135   24.1293 C   0  0  0  0  0  0  0  0  0  0  0  0
  -21.8663  -22.2180   17.6207 N   0  0  0  0  0  0  0  0  0  0  0  0
  -27.9628  -20.3396   16.7079 N   0  0  0  0  0  0  0  0  0  0  0  0
  -28.0987  -21.6276   17.0668 N   0  0  0  0  0  0  0  0  0  0  0  0
  -25.4073  -23.2423   14.8924 N   0  0  0  0  0  0  0  0  0  0  0  0
  -27.7934  -29.2291   21.0836 N   0  0  0  0  0  0  0  0  0  0  0  0
  -29.1316  -23.0462   18.6578 N   0  0  0  0  0  0  0  0  0  0  0  0
  -30.4716  -18.9207   19.9151 N   0  0  0  0  0  0  0  0  0  0  0  0
  -30.0436  -27.8686   18.9730 N   0  0  0  0  0  0  0  0  0  0  0  0
  -28.1563  -31.2027   23.8097 N   0  0  0  0  0  0  0  0  0  0  0  0
  -25.4505  -33.5169   24.4350 N   0  3  0  0  0  0  0  0  0  0  0  0
  -30.5996  -21.1541   20.4191 O   0  0  0  0  0  0  0  0  0  0  0  0
  -23.5574  -24.5972   14.4352 O   0  0  0  0  0  0  0  0  0  0  0  0
  -28.1569  -26.7369   19.7358 O   0  0  0  0  0  0  0  0  0  0  0  0
  -29.6593  -30.5778   21.4519 O   0  0  0  0  0  0  0  0  0  0  0  0
  -25.9677  -30.7512   24.4290 O   0  0  0  0  0  0  0  0  0  0  0  0
  -23.8369  -23.3207   17.4943 O   0  0  0  0  0  0  0  0  0  0  0  0
  -29.1218  -14.1201   17.4315 O   0  0  0  0  0  0  0  0  0  0  0  0
  -22.3672  -26.3169   20.7243 O   0  0  0  0  0  0  0  0  0  1  0  0
  -28.6015  -11.3500   22.1707 F   0  0  0  0  0  0  0  0  0  0  0  0
  -27.1224  -12.2400   17.7632 F   0  0  0  0  0  0  0  0  0  0  0  0
  1  2  1  0  0  0  0
  1  5  2  0  0  0  0
  2  6  2  0  0  0  0
  3  8  2  0  0  0  0
  3 16  1  0  0  0  0
  4  9  1  0  0  0  0
  4 16  2  0  0  0  0
  5 18  1  0  0  0  0
  6 20  1  0  0  0  0
  7 10  2  0  0  0  0
  7 19  1  0  0  0  0
  8 22  1  0  0  0  0
  9 22  2  0  0  0  0
 10 23  1  0  0  0  0
 11 12  2  0  0  0  0
 11 24  1  0  0  0  0
 12 25  1  0  0  0  0
 13 21  1  0  0  0  0
 13 23  2  0  0  0  0
 14 25  2  0  0  0  0
 14 26  1  0  0  0  0
 15 28  2  0  0  0  0
 15 61  1  0  0  0  0
 16 27  1  0  0  0  0
 17 27  1  0  0  0  0
 17 29  2  0  0  0  0
 17 31  1  0  0  0  0
 18 20  2  0  0  0  0
 18 36  1  0  0  0  0
 19 21  2  0  0  0  0
 19 37  1  0  0  0  0
 20 45  1  0  0  0  0
 21 38  1  0  0  0  0
 22 77  1  0  0  0  0
 23 78  1  0  0  0  0
 24 26  2  0  0  0  0
 24 77  1  0  0  0  0
 25 79  1  0  0  0  0
 26 80  1  0  0  0  0
 27 62  2  0  0  0  0
 28 32  1  0  0  0  0
 28 76  1  0  0  0  0
 29 63  1  0  0  0  0
 29 66  1  0  0  0  0
 30 54  1  0  0  0  0
 30 61  2  0  0  0  0
 30 76  1  0  0  0  0
 31 67  1  0  0  0  0
 31 71  2  0  0  0  0
 32 64  1  0  0  0  0
 32 72  2  0  0  0  0
 33 46  1  0  0  0  0
 33 68  1  0  0  0  0
 33 73  2  0  0  0  0
 34 57  1  0  0  0  0
 34 65  1  0  0  0  0
 34 74  2  0  0  0  0
 35 58  1  0  0  0  0
 35 69  1  0  0  0  0
 35 75  2  0  0  0  0
 36 39  1  0  0  0  0
 37 46  1  0  0  0  0
 38 65  1  0  0  0  0
 39 41  1  0  0  0  0
 40 42  1  0  0  0  0
 40 43  1  0  0  0  0
 41 45  1  0  0  0  0
 42 47  1  0  0  0  0
 43 64  1  0  0  0  0
 44 47  1  0  0  0  0
 44 64  1  0  0  0  0
 45 68  1  0  0  0  0
 46 65  1  0  0  0  0
 47 63  1  0  0  0  0
 48 55  1  0  0  0  0
 49 58  1  0  0  0  0
 50 60  1  0  0  0  0
 51 60  1  0  0  0  0
 52 60  1  0  0  0  0
 53 70  1  0  0  0  0
 54 56  1  0  0  0  0
 55 59  1  0  0  0  0
 56 59  1  0  0  0  0
 57 60  1  0  0  0  0
 57 69  1  0  0  0  0
 58 70  1  0  0  0  0
 59 78  1  0  0  0  0
 62 63  1  0  0  0  0
M  CHG  1  70   1
M  ISO  4  28 100  32 100  59 101  78 101
M  END
> <Batch ID>
0075

> <Smiles>
CC[101CH:1](CCc1nc[100c:0]([100C:0](=O)N2CCCC(n3nc(-c4ccc(Oc5ccc(F)cc5F)cc4)c(C(N)=O)c3N)C2)o1)[101O:1]c1ccc2c(c1)CN(C(=O)C(NC(=O)C(C)NC)C(C)(C)C)C(C(=O)NC1CCCc3ccccc31)C2

> <Shape>
0.189

> <Color>
0.082

> <Negative vol penalty>
0.000

$$$$

  -OEChem-04052318323D

 83 91  0     1  0  0  0  0  0999 V2000
  -18.2307  -25.1581   12.9439 C   0  0  0  0  0  0  0  0  0  0  0  0
  -19.2162  -24.1866   13.0863 C   0  0  0  0  0  0  0  0  0  0  0  0
  -23.0723   -9.8722   19.9432 C   0  0  0  0  0  0  0  0  0  0  0  0
  -23.8354   -9.8789   22.2355 C   0  0  0  0  0  0  0  0  0  0  0  0
  -18.4970  -26.4779   13.3059 C   0  0  0  0  0  0  0  0  0  0  0  0
  -20.4691  -24.5345   13.5899 C   0  0  0  0  0  0  0  0  0  0  0  0
  -24.0977  -21.0985   17.1301 C   0  0  0  0  0  0  0  0  0  0  0  0
  -22.3286   -8.7192   20.1941 C   0  0  0  0  0  0  0  0  0  0  0  0
  -23.0916   -8.7259   22.4865 C   0  0  0  0  0  0  0  0  0  0  0  0
  -25.2007  -20.2957   16.8429 C   0  0  0  0  0  0  0  0  0  0  0  0
  -19.3821   -7.9232   21.6494 C   0  0  0  0  0  0  0  0  0  0  0  0
  -18.0746   -7.8773   21.1659 C   0  0  0  0  0  0  0  0  0  0  0  0
  -26.6707  -22.1193   17.4196 C   0  0  0  0  0  0  0  0  0  0  0  0
  -18.6320   -5.9342   19.8428 C   0  0  0  0  0  0  0  0  0  0  0  0
  -27.0318  -18.7518   20.0451 C   0  0  0  0  0  0  0  0  0  0  0  0
  -23.8258  -10.4520   20.9639 C   0  0  0  0  0  0  0  0  0  0  0  0
  -24.1681  -12.9771   20.8435 C   0  0  0  0  0  0  0  0  0  0  0  0
  -19.7507  -26.8404   13.8233 C   0  0  0  0  0  0  0  0  0  0  0  0
  -24.2730  -22.4235   17.5545 C   0  0  0  0  0  0  0  0  0  0  0  0
  -20.7529  -25.8607   13.9580 C   0  0  0  0  0  0  0  0  0  0  0  0
  -25.5683  -22.9361   17.7140 C   0  0  0  0  0  0  0  0  0  0  0  0
  -22.3381   -8.1461   21.4657 C   0  0  0  0  0  0  0  0  0  0  0  0
  -26.4874  -20.8069   16.9849 C   0  0  0  0  0  0  0  0  0  0  0  0
  -20.3147   -6.9747   21.2295 C   0  0  0  0  0  0  0  0  0  0  0  0
  -17.6995   -6.8828   20.2627 C   0  0  0  0  0  0  0  0  0  0  0  0
  -19.9396   -5.9802   20.3262 C   0  0  0  0  0  0  0  0  0  0  0  0
  -24.5948  -11.6427   20.7052 C   0  0  0  0  0  0  0  0  0  0  0  0
  -27.0385  -19.0654   21.3749 C   0  0  0  0  0  0  0  0  0  0  0  0
  -25.2599  -13.7263   20.4788 C   0  0  0  0  0  0  0  0  0  0  0  0
  -29.0771  -18.4060   20.8181 C   0  0  0  0  0  0  0  0  0  0  0  0
  -22.8983  -13.4932   21.2643 C   0  0  0  0  0  0  0  0  0  0  0  0
  -23.4571  -25.2731   16.4065 C   0  0  0  0  0  0  0  0  0  0  0  0
  -24.6447  -26.3206   19.2375 C   0  0  0  0  0  0  0  0  0  0  0  0
  -26.7183  -25.7691   21.8913 C   0  0  0  0  0  0  0  0  0  0  0  0
  -30.7441  -14.7441   20.6597 C   0  0  0  0  0  0  0  0  0  0  0  0
  -20.0073  -28.2888   14.1566 C   0  0  0  0  0  0  0  0  0  0  0  0
  -23.0733  -23.2682   17.8859 C   0  0  0  0  0  0  0  0  0  0  0  0
  -25.8108  -24.3457   18.1860 C   0  0  0  0  0  0  0  0  0  0  0  0
  -21.2383  -28.5032   15.0333 C   0  0  0  0  0  0  0  0  0  0  0  0
  -29.6027  -12.3600   18.2743 C   0  0  0  0  0  0  0  0  0  0  0  0
  -22.4193  -27.6973   14.5017 C   0  0  0  0  0  0  0  0  0  0  0  0
  -28.1658  -12.0666   18.7092 C   0  0  0  0  0  0  0  0  0  0  0  0
  -30.5215  -12.5805   19.4740 C   0  0  0  0  0  0  0  0  0  0  0  0
  -28.6219  -13.3120   20.8632 C   0  0  0  0  0  0  0  0  0  0  0  0
  -22.1162  -26.1943   14.5238 C   0  0  1  0  0  0  0  0  0  0  0  0
  -23.3591  -24.7652   17.8171 C   0  0  1  0  0  0  0  0  0  0  0  0
  -27.6460  -13.1377   19.6869 C   0  0  2  0  0  0  0  0  0  0  0  0
  -25.9768  -19.5501   22.2606 C   0  0  0  0  0  0  0  0  0  0  0  0
  -31.3887  -19.2737   21.2950 C   0  0  0  0  0  0  0  0  0  0  0  0
  -27.5041  -26.8220   24.0293 C   0  0  0  0  0  0  0  0  0  0  0  0
  -26.4257  -28.2187   17.6452 C   0  0  0  0  0  0  0  0  0  0  0  0
  -27.8149  -28.5311   19.7045 C   0  0  0  0  0  0  0  0  0  0  0  0
  -25.4163  -29.2163   19.7045 C   0  0  0  0  0  0  0  0  0  0  0  0
  -25.6578  -23.5350   23.5171 C   0  0  0  0  0  0  0  0  0  0  0  0
  -29.5349  -18.9806   17.5916 C   0  0  0  0  0  0  0  0  0  0  0  0
  -28.7599  -17.9069   18.3587 C   0  0  0  0  0  0  0  0  0  0  0  0
  -30.8122  -16.8946   21.8966 C   0  0  0  0  0  0  0  0  0  0  0  0
  -28.7638  -20.2860   17.4347 C   0  0  0  0  0  0  0  0  0  1  0  0
  -30.5164  -18.0563   20.9126 C   0  0  1  0  0  0  0  0  0  0  0  0
  -26.0029  -26.7572   19.7312 C   0  0  1  0  0  0  0  0  0  0  0  0
  -26.4919  -25.8858   23.3878 C   0  0  2  0  0  0  0  0  0  0  0  0
  -26.4107  -28.1548   19.1856 C   0  0  0  0  0  0  0  0  0  0  0  0
  -25.8591  -11.5466   20.2851 N   0  0  0  0  0  0  0  0  0  0  0  0
  -28.3060  -18.3474   19.7274 N   0  0  0  0  0  0  0  0  0  0  0  0
  -26.2361  -12.8301   20.1564 N   0  0  0  0  0  0  0  0  0  0  0  0
  -28.3165  -18.8418   21.8276 N   0  3  0  0  0  0  0  0  0  0  0  0
  -24.6055  -25.1342   18.4914 N   0  0  0  0  0  0  0  0  0  0  0  0
  -29.9724  -13.6091   20.3608 N   0  0  0  0  0  0  0  0  0  0  0  0
  -25.4705  -15.0578   20.4056 N   0  0  0  0  0  0  0  0  0  0  0  0
  -21.8866  -12.5842   21.6029 N   0  0  0  0  0  0  0  0  0  0  0  0
  -22.2490  -25.6717   15.8668 N   0  0  0  0  0  0  0  0  0  0  0  0
  -25.9539  -26.6750   21.1869 N   0  0  0  0  0  0  0  0  0  0  0  0
  -30.1464  -15.6730   21.5026 N   0  0  0  0  0  0  0  0  0  0  0  0
  -26.6116  -24.5490   24.0357 N   0  3  0  0  0  0  0  0  0  0  0  0
  -22.6624  -14.7239   21.3220 O   0  0  0  0  0  0  0  0  0  0  0  0
  -24.5482  -25.3027   15.8494 O   0  0  0  0  0  0  0  0  0  0  0  0
  -23.6541  -27.0032   19.5100 O   0  0  0  0  0  0  0  0  0  0  0  0
  -27.4983  -24.9581   21.3969 O   0  0  0  0  0  0  0  0  0  0  0  0
  -31.8795  -14.9193   20.2045 O   0  0  0  0  0  0  0  0  0  0  0  0
  -21.6122   -7.0211   21.7110 O   0  0  0  0  0  0  0  0  0  0  0  0
  -27.5658  -20.0256   16.7046 O   0  0  0  0  0  0  0  0  0  1  0  0
  -16.4434   -6.8380   19.7997 F   0  0  0  0  0  0  0  0  0  0  0  0
  -20.8307   -5.0654   19.9201 F   0  0  0  0  0  0  0  0  0  0  0  0
  1  2  1  0  0  0  0
  1  5  2  0  0  0  0
  2  6  2  0  0  0  0
  3  8  2  0  0  0  0
  3 16  1  0  0  0  0
  4  9  1  0  0  0  0
  4 16  2  0  0  0  0
  5 18  1  0  0  0  0
  6 20  1  0  0  0  0
  7 10  2  0  0  0  0
  7 19  1  0  0  0  0
  8 22  1  0  0  0  0
  9 22  2  0  0  0  0
 10 23  1  0  0  0  0
 11 12  2  0  0  0  0
 11 24  1  0  0  0  0
 12 25  1  0  0  0  0
 13 21  1  0  0  0  0
 13 23  2  0  0  0  0
 14 25  2  0  0  0  0
 14 26  1  0  0  0  0
 15 28  2  0  0  0  0
 15 64  1  0  0  0  0
 16 27  1  0  0  0  0
 17 27  1  0  0  0  0
 17 29  2  0  0  0  0
 17 31  1  0  0  0  0
 18 20  2  0  0  0  0
 18 36  1  0  0  0  0
 19 21  2  0  0  0  0
 19 37  1  0  0  0  0
 20 45  1  0  0  0  0
 21 38  1  0  0  0  0
 22 80  1  0  0  0  0
 23 81  1  0  0  0  0
 24 26  2  0  0  0  0
 24 80  1  0  0  0  0
 25 82  1  0  0  0  0
 26 83  1  0  0  0  0
 27 63  2  0  0  0  0
 28 48  1  0  0  0  0
 28 66  1  0  0  0  0
 29 65  1  0  0  0  0
 29 69  1  0  0  0  0
 30 59  1  0  0  0  0
 30 64  1  0  0  0  0
 30 66  2  0  0  0  0
 31 70  1  0  0  0  0
 31 75  2  0  0  0  0
 32 46  1  0  0  0  0
 32 71  1  0  0  0  0
 32 76  2  0  0  0  0
 33 60  1  0  0  0  0
 33 67  1  0  0  0  0
 33 77  2  0  0  0  0
 34 61  1  0  0  0  0
 34 72  1  0  0  0  0
 34 78  2  0  0  0  0
 35 68  1  0  0  0  0
 35 73  1  0  0  0  0
 35 79  2  0  0  0  0
 36 39  1  0  0  0  0
 37 46  1  0  0  0  0
 38 67  1  0  0  0  0
 39 41  1  0  0  0  0
 40 42  1  0  0  0  0
 40 43  1  0  0  0  0
 41 45  1  0  0  0  0
 42 47  1  0  0  0  0
 43 68  1  0  0  0  0
 44 47  1  0  0  0  0
 44 68  1  0  0  0  0
 45 71  1  0  0  0  0
 46 67  1  0  0  0  0
 47 65  1  0  0  0  0
 49 59  1  0  0  0  0
 50 61  1  0  0  0  0
 51 62  1  0  0  0  0
 52 62  1  0  0  0  0
 53 62  1  0  0  0  0
 54 74  1  0  0  0  0
 55 56  1  0  0  0  0
 55 58  1  0  0  0  0
 56 64  1  0  0  0  0
 57 59  1  0  0  0  0
 57 73  1  0  0  0  0
 58 81  1  0  0  0  0
 60 62  1  0  0  0  0
 60 72  1  0  0  0  0
 61 74  1  0  0  0  0
 63 65  1  0  0  0  0
M  CHG  2  66   1  74   1
M  ISO  4  35 100  58 101  73 100  81 101
M  END
> <Batch ID>
0075

> <Smiles>
CNC(C)C(=O)NC(C(=O)N1Cc2cc([101O:1][101CH2:1]CCn3cc(C)nc3C(C)C[100NH:0][100C:0](=O)N3CCCC(n4nc(-c5ccc(Oc6ccc(F)cc6F)cc5)c(C(N)=O)c4N)C3)ccc2CC1C(=O)NC1CCCc2ccccc21)C(C)(C)C

> <Shape>
0.215

> <Color>
0.187

> <Negative vol penalty>
0.000

$$$$

  -OEChem-04052318323D

 85 93  0     1  0  0  0  0  0999 V2000
  -19.8816  -31.7104   22.6865 C   0  0  0  0  0  0  0  0  0  0  0  0
  -21.2006  -31.2720   22.6291 C   0  0  0  0  0  0  0  0  0  0  0  0
  -25.4919  -15.6253   21.6292 C   0  0  0  0  0  0  0  0  0  0  0  0
  -25.0935  -16.3611   19.3627 C   0  0  0  0  0  0  0  0  0  0  0  0
  -18.8429  -30.7835   22.7641 C   0  0  0  0  0  0  0  0  0  0  0  0
  -21.4819  -29.9064   22.6503 C   0  0  0  0  0  0  0  0  0  0  0  0
  -24.9527  -28.5841   19.2080 C   0  0  0  0  0  0  0  0  0  0  0  0
  -24.2757  -14.9423   21.6212 C   0  0  0  0  0  0  0  0  0  0  0  0
  -23.8773  -15.6781   19.3547 C   0  0  0  0  0  0  0  0  0  0  0  0
  -26.2861  -28.8561   19.5112 C   0  0  0  0  0  0  0  0  0  0  0  0
  -21.4442  -12.7075   22.0716 C   0  0  0  0  0  0  0  0  0  0  0  0
  -21.4250  -11.4111   22.5861 C   0  0  0  0  0  0  0  0  0  0  0  0
  -26.5994  -26.5563   20.1685 C   0  0  0  0  0  0  0  0  0  0  0  0
  -23.0440  -10.7289   20.9277 C   0  0  0  0  0  0  0  0  0  0  0  0
  -25.9008  -16.3347   20.4999 C   0  0  0  0  0  0  0  0  0  0  0  0
  -28.4155  -16.5409   20.1239 C   0  0  0  0  0  0  0  0  0  0  0  0
  -19.1111  -29.4056   22.7765 C   0  0  0  0  0  0  0  0  0  0  0  0
  -24.4290  -27.2966   19.3934 C   0  0  0  0  0  0  0  0  0  0  0  0
  -20.4459  -28.9602   22.7294 C   0  0  0  0  0  0  0  0  0  0  0  0
  -25.2598  -26.2700   19.8645 C   0  0  0  0  0  0  0  0  0  0  0  0
  -23.4684  -14.9687   20.4840 C   0  0  0  0  0  0  0  0  0  0  0  0
  -27.1089  -27.8428   19.9943 C   0  0  0  0  0  0  0  0  0  0  0  0
  -22.2632  -13.0145   20.9850 C   0  0  0  0  0  0  0  0  0  0  0  0
  -22.2249  -10.4219   22.0142 C   0  0  0  0  0  0  0  0  0  0  0  0
  -23.0632  -12.0253   20.4131 C   0  0  0  0  0  0  0  0  0  0  0  0
  -27.1567  -17.0409   20.5077 C   0  0  0  0  0  0  0  0  0  0  0  0
  -29.3893  -23.6555   24.2260 C   0  0  0  0  0  0  0  0  0  0  0  0
  -28.4961  -24.6279   24.6188 C   0  0  0  0  0  0  0  0  0  0  0  0
  -30.2021  -26.1457   24.7413 C   0  0  0  0  0  0  0  0  0  0  0  0
  -31.0955  -25.1732   24.3488 C   0  0  0  0  0  0  0  0  0  0  0  0
  -29.2759  -17.5945   20.3138 C   0  0  0  0  0  0  0  0  0  0  0  0
  -28.7748  -15.2404   19.6390 C   0  0  0  0  0  0  0  0  0  0  0  0
  -28.9751  -22.2776   23.9345 C   0  0  0  0  0  0  0  0  0  0  0  0
  -22.1294  -26.0490   21.1987 C   0  0  0  0  0  0  0  0  0  0  0  0
  -22.8029  -23.3597   19.5145 C   0  0  0  0  0  0  0  0  0  0  0  0
  -25.0603  -21.5862   17.6689 C   0  0  0  0  0  0  0  0  0  0  0  0
  -17.9578  -28.4427   22.9089 C   0  0  0  0  0  0  0  0  0  0  0  0
  -22.9956  -27.0131   19.0363 C   0  0  0  0  0  0  0  0  0  0  0  0
  -24.7514  -24.8661   20.0619 C   0  0  0  0  0  0  0  0  0  0  0  0
  -18.3207  -27.0044   22.5486 C   0  0  0  0  0  0  0  0  0  0  0  0
  -29.4065  -22.3743   20.3329 C   0  0  0  0  0  0  0  0  0  0  0  0
  -19.6346  -26.6033   23.2114 C   0  0  0  0  0  0  0  0  0  0  0  0
  -28.9724  -20.9625   19.9370 C   0  0  0  0  0  0  0  0  0  0  0  0
  -28.5762  -22.9049   21.4977 C   0  0  0  0  0  0  0  0  0  0  0  0
  -28.1484  -20.6087   22.3087 C   0  0  0  0  0  0  0  0  0  0  0  0
  -20.7900  -27.4866   22.7251 C   0  0  1  0  0  0  0  0  0  0  0  0
  -22.4329  -25.7881   19.7504 C   0  0  1  0  0  0  0  0  0  0  0  0
  -28.9742  -20.0176   21.1528 C   0  0  1  0  0  0  0  0  0  0  0  0
  -27.0429  -24.3335   24.7727 C   0  0  0  0  0  0  0  0  0  0  0  0
  -33.0415  -25.2701   22.7497 C   0  0  0  0  0  0  0  0  0  0  0  0
  -33.4224  -24.6463   25.1623 C   0  0  0  0  0  0  0  0  0  0  0  0
  -25.3358  -19.4047   16.4596 C   0  0  0  0  0  0  0  0  0  0  0  0
  -23.1612  -21.9275   22.1847 C   0  0  0  0  0  0  0  0  0  0  0  0
  -24.3331  -20.0850   20.9600 C   0  0  0  0  0  0  0  0  0  0  0  0
  -21.9479  -20.6026   20.4449 C   0  0  0  0  0  0  0  0  0  0  0  0
  -25.4906  -22.9454   15.0753 C   0  0  0  0  0  0  0  0  0  0  0  0
  -30.6523  -27.5547   25.0350 C   0  0  0  0  0  0  0  0  0  0  0  0
  -30.8888  -28.4036   23.7808 C   0  0  0  0  0  0  0  0  0  0  0  0
  -29.6566  -28.4905   22.8747 C   0  0  0  0  0  0  0  0  0  0  0  0
  -29.9277  -29.3695   21.6550 C   0  0  0  0  0  0  0  0  0  0  0  0
  -28.7231  -29.4285   20.7264 C   0  0  0  0  0  0  0  0  0  1  0  0
  -32.5483  -25.4685   24.1958 C   0  0  0  0  0  0  0  0  0  0  0  0
  -23.7546  -22.2005   19.6869 C   0  0  1  0  0  0  0  0  0  0  0  0
  -24.9297  -20.8653   16.3393 C   0  0  2  0  0  0  0  0  0  0  0  0
  -23.3085  -21.2307   20.8173 C   0  0  0  0  0  0  0  0  0  0  0  0
  -27.2084  -18.3131   20.9111 N   0  0  0  0  0  0  0  0  0  0  0  0
  -30.7051  -23.9107   24.0838 N   0  0  0  0  0  0  0  0  0  0  0  0
  -28.8864  -25.8904   24.8835 N   0  0  0  0  0  0  0  0  0  0  0  0
  -28.5100  -18.6214   20.7819 N   0  0  0  0  0  0  0  0  0  0  0  0
  -28.6031  -21.9642   22.6249 N   0  0  0  0  0  0  0  0  0  0  0  0
  -23.3412  -24.6403   19.7045 N   0  0  0  0  0  0  0  0  0  0  0  0
  -30.6053  -17.7334   20.1245 N   0  0  0  0  0  0  0  0  0  0  0  0
  -27.7671  -14.2757   19.5037 N   0  0  0  0  0  0  0  0  0  0  0  0
  -21.2240  -27.0715   21.4084 N   0  0  0  0  0  0  0  0  0  0  0  0
  -23.8761  -21.5736   18.3751 N   0  0  0  0  0  0  0  0  0  0  0  0
  -25.7959  -21.5110   15.3128 N   0  3  0  0  0  0  0  0  0  0  0  0
  -29.9574  -14.9375   19.3502 O   0  0  0  0  0  0  0  0  0  0  0  0
  -28.9988  -21.4923   24.8811 O   0  0  0  0  0  0  0  0  0  0  0  0
  -22.6751  -25.3716   22.0619 O   0  0  0  0  0  0  0  0  0  0  0  0
  -21.6271  -23.1374   19.2149 O   0  0  0  0  0  0  0  0  0  0  0  0
  -26.1089  -22.1052   18.0451 O   0  0  0  0  0  0  0  0  0  0  0  0
  -22.2817  -14.3022   20.4759 O   0  0  0  0  0  0  0  0  0  0  0  0
  -28.4106  -28.1058   20.2917 O   0  0  0  0  0  0  0  0  0  1  0  0
  -22.2076   -9.1774   22.5094 F   0  0  0  0  0  0  0  0  0  0  0  0
  -23.8530  -12.3146   19.3699 F   0  0  0  0  0  0  0  0  0  0  0  0
  1  2  1  0  0  0  0
  1  5  2  0  0  0  0
  2  6  2  0  0  0  0
  3  8  2  0  0  0  0
  3 15  1  0  0  0  0
  4  9  1  0  0  0  0
  4 15  2  0  0  0  0
  5 17  1  0  0  0  0
  6 19  1  0  0  0  0
  7 10  2  0  0  0  0
  7 18  1  0  0  0  0
  8 21  1  0  0  0  0
  9 21  2  0  0  0  0
 10 22  1  0  0  0  0
 11 12  2  0  0  0  0
 11 23  1  0  0  0  0
 12 24  1  0  0  0  0
 13 20  1  0  0  0  0
 13 22  2  0  0  0  0
 14 24  2  0  0  0  0
 14 25  1  0  0  0  0
 15 26  1  0  0  0  0
 16 26  1  0  0  0  0
 16 31  2  0  0  0  0
 16 32  1  0  0  0  0
 17 19  2  0  0  0  0
 17 37  1  0  0  0  0
 18 20  2  0  0  0  0
 18 38  1  0  0  0  0
 19 46  1  0  0  0  0
 20 39  1  0  0  0  0
 21 82  1  0  0  0  0
 22 83  1  0  0  0  0
 23 25  2  0  0  0  0
 23 82  1  0  0  0  0
 24 84  1  0  0  0  0
 25 85  1  0  0  0  0
 26 66  2  0  0  0  0
 27 28  1  0  0  0  0
 27 33  1  0  0  0  0
 27 67  2  0  0  0  0
 28 49  1  0  0  0  0
 28 68  2  0  0  0  0
 29 30  2  0  0  0  0
 29 57  1  0  0  0  0
 29 68  1  0  0  0  0
 30 62  1  0  0  0  0
 30 67  1  0  0  0  0
 31 69  1  0  0  0  0
 31 72  1  0  0  0  0
 32 73  1  0  0  0  0
 32 77  2  0  0  0  0
 33 70  1  0  0  0  0
 33 78  2  0  0  0  0
 34 47  1  0  0  0  0
 34 74  1  0  0  0  0
 34 79  2  0  0  0  0
 35 63  1  0  0  0  0
 35 71  1  0  0  0  0
 35 80  2  0  0  0  0
 36 64  1  0  0  0  0
 36 75  1  0  0  0  0
 36 81  2  0  0  0  0
 37 40  1  0  0  0  0
 38 47  1  0  0  0  0
 39 71  1  0  0  0  0
 40 42  1  0  0  0  0
 41 43  1  0  0  0  0
 41 44  1  0  0  0  0
 42 46  1  0  0  0  0
 43 48  1  0  0  0  0
 44 70  1  0  0  0  0
 45 48  1  0  0  0  0
 45 70  1  0  0  0  0
 46 74  1  0  0  0  0
 47 71  1  0  0  0  0
 48 69  1  0  0  0  0
 50 62  1  0  0  0  0
 51 62  1  0  0  0  0
 52 64  1  0  0  0  0
 53 65  1  0  0  0  0
 54 65  1  0  0  0  0
 55 65  1  0  0  0  0
 56 76  1  0  0  0  0
 57 58  1  0  0  0  0
 58 59  1  0  0  0  0
 59 60  1  0  0  0  0
 60 61  1  0  0  0  0
 61 83  1  0  0  0  0
 63 65  1  0  0  0  0
 63 75  1  0  0  0  0
 64 76  1  0  0  0  0
 66 69  1  0  0  0  0
M  CHG  1  76   1
M  ISO  4  27 100  33 100  61 101  83 101
M  END
> <Batch ID>
0075

> <Smiles>
CNC(C)C(=O)NC(C(=O)N1Cc2cc([101O:1][101CH2:1]CCCCc3nc(C)[100c:0]([100C:0](=O)N4CCCC(n5nc(-c6ccc(Oc7ccc(F)cc7F)cc6)c(C(N)=O)c5N)C4)nc3C(C)C)ccc2CC1C(=O)NC1CCCc2ccccc21)C(C)(C)C

> <Shape>
0.205

> <Color>
0.061

> <Negative vol penalty>
0.000

$$$$

  -OEChem-04052318323D

 83 91  0     1  0  0  0  0  0999 V2000
  -14.8444  -25.3553   14.5146 C   0  0  0  0  0  0  0  0  0  0  0  0
  -15.6885  -24.4946   15.2089 C   0  0  0  0  0  0  0  0  0  0  0  0
  -25.3213  -15.1419   17.4095 C   0  0  0  0  0  0  0  0  0  0  0  0
  -30.7747  -19.3659   18.9678 C   0  0  0  0  0  0  0  0  0  0  0  0
  -28.8358  -19.7836   20.3472 C   0  0  0  0  0  0  0  0  0  0  0  0
  -15.2126  -26.6862   14.3224 C   0  0  0  0  0  0  0  0  0  0  0  0
  -16.9019  -24.9641   15.7105 C   0  0  0  0  0  0  0  0  0  0  0  0
  -19.6579  -23.2327   20.8983 C   0  0  0  0  0  0  0  0  0  0  0  0
  -30.5917  -20.5967   18.3376 C   0  0  0  0  0  0  0  0  0  0  0  0
  -28.6527  -21.0145   19.7171 C   0  0  0  0  0  0  0  0  0  0  0  0
  -20.6894  -22.3311   21.1567 C   0  0  0  0  0  0  0  0  0  0  0  0
  -27.3801  -22.1550   16.7999 C   0  0  0  0  0  0  0  0  0  0  0  0
  -26.0861  -22.4951   16.4055 C   0  0  0  0  0  0  0  0  0  0  0  0
  -25.3940  -16.4250   17.9403 C   0  0  0  0  0  0  0  0  0  0  0  0
  -25.2728  -14.0446   18.2620 C   0  0  0  0  0  0  0  0  0  0  0  0
  -22.2755  -24.1485   21.1345 C   0  0  0  0  0  0  0  0  0  0  0  0
  -26.1658  -24.4469   17.8272 C   0  0  0  0  0  0  0  0  0  0  0  0
  -29.8968  -18.9593   19.9725 C   0  0  0  0  0  0  0  0  0  0  0  0
  -30.8493  -17.4279   21.7767 C   0  0  0  0  0  0  0  0  0  0  0  0
  -16.4268  -27.1747   14.8303 C   0  0  0  0  0  0  0  0  0  0  0  0
  -19.9293  -24.5999   20.7450 C   0  0  0  0  0  0  0  0  0  0  0  0
  -17.2873  -26.3025   15.5238 C   0  0  0  0  0  0  0  0  0  0  0  0
  -21.2453  -25.0658   20.8767 C   0  0  0  0  0  0  0  0  0  0  0  0
  -29.5307  -21.4211   18.7123 C   0  0  0  0  0  0  0  0  0  0  0  0
  -21.9988  -22.7885   21.2719 C   0  0  0  0  0  0  0  0  0  0  0  0
  -28.0670  -22.9609   17.7079 C   0  0  0  0  0  0  0  0  0  0  0  0
  -25.4790  -23.6411   16.9192 C   0  0  0  0  0  0  0  0  0  0  0  0
  -27.4598  -24.1068   18.2216 C   0  0  0  0  0  0  0  0  0  0  0  0
  -30.0850  -17.6877   20.6234 C   0  0  0  0  0  0  0  0  0  0  0  0
  -25.4152  -16.5560   19.3195 C   0  0  0  0  0  0  0  0  0  0  0  0
  -25.2996  -14.2821   19.6268 C   0  0  0  0  0  0  0  0  0  0  0  0
  -30.7066  -16.0780   21.9864 C   0  0  0  0  0  0  0  0  0  0  0  0
  -31.6194  -18.3265   22.5862 C   0  0  0  0  0  0  0  0  0  0  0  0
  -19.5884  -26.7039   18.3869 C   0  0  0  0  0  0  0  0  0  0  0  0
  -20.5329  -28.8173   20.6592 C   0  0  0  0  0  0  0  0  0  0  0  0
  -26.4162  -12.1966   20.3620 C   0  0  0  0  0  0  0  0  0  0  0  0
  -22.1911  -29.3717   23.5901 C   0  0  0  0  0  0  0  0  0  0  0  0
  -16.8035  -28.6092   14.5565 C   0  0  0  0  0  0  0  0  0  0  0  0
  -18.8019  -25.5631   20.4931 C   0  0  0  0  0  0  0  0  0  0  0  0
  -21.5868  -26.5264   20.7408 C   0  0  0  0  0  0  0  0  0  0  0  0
  -17.9347  -29.1219   15.4440 C   0  0  0  0  0  0  0  0  0  0  0  0
  -29.9230  -11.9813   19.6580 C   0  0  0  0  0  0  0  0  0  0  0  0
  -19.0726  -28.1074   15.4979 C   0  0  0  0  0  0  0  0  0  0  0  0
  -30.4263  -13.4033   19.9031 C   0  0  0  0  0  0  0  0  0  0  0  0
  -28.5146  -11.9808   19.0720 C   0  0  0  0  0  0  0  0  0  0  0  0
  -28.0180  -14.1596   20.1339 C   0  0  0  0  0  0  0  0  0  0  0  0
  -18.6005  -26.7806   16.1045 C   0  0  1  0  0  0  0  0  0  0  0  0
  -19.2620  -26.8651   19.8446 C   0  0  1  0  0  0  0  0  0  0  0  0
  -29.4257  -14.2048   20.7544 C   0  0  2  0  0  0  0  0  0  0  0  0
  -22.8246  -31.2088   25.1779 C   0  0  0  0  0  0  0  0  0  0  0  0
  -23.9524  -12.2995   20.3663 C   0  0  0  0  0  0  0  0  0  0  0  0
  -25.3243  -13.4813   22.0854 C   0  0  0  0  0  0  0  0  0  0  0  0
  -22.6986  -29.7435   18.7197 C   0  0  0  0  0  0  0  0  0  0  0  0
  -23.8526  -30.8504   20.6462 C   0  0  0  0  0  0  0  0  0  0  0  0
  -21.5653  -31.5857   19.9752 C   0  0  0  0  0  0  0  0  0  0  0  0
  -20.6935  -28.1222   25.8160 C   0  0  0  0  0  0  0  0  0  0  0  0
  -25.4930  -17.9323   19.9306 C   0  0  0  0  0  0  0  0  0  0  0  0
  -24.1248  -18.5703   20.1958 C   0  0  0  0  0  0  0  0  0  0  0  0
  -24.2245  -19.9948   20.7433 C   0  0  0  0  0  0  0  0  0  0  0  0
  -22.8488  -20.5804   21.0315 C   0  0  0  0  0  0  0  0  0  1  0  0
  -21.8614  -29.3569   21.1313 C   0  0  1  0  0  0  0  0  0  0  0  0
  -21.7985  -30.1384   24.8401 C   0  0  2  0  0  0  0  0  0  0  0  0
  -25.2489  -13.1280   20.5717 C   0  0  0  0  0  0  0  0  0  0  0  0
  -22.4886  -30.3563   20.1188 C   0  0  0  0  0  0  0  0  0  0  0  0
  -29.5002  -16.5908   20.1345 N   0  0  0  0  0  0  0  0  0  0  0  0
  -25.3697  -15.5139   20.1795 N   0  0  0  0  0  0  0  0  0  0  0  0
  -29.8973  -15.6288   20.9848 N   0  0  0  0  0  0  0  0  0  0  0  0
  -20.4506  -27.4281   20.4885 N   0  0  0  0  0  0  0  0  0  0  0  0
  -27.5994  -12.7710   19.8973 N   0  0  0  0  0  0  0  0  0  0  0  0
  -31.1958  -15.2434   22.9280 N   0  0  0  0  0  0  0  0  0  0  0  0
  -31.6581  -19.6812   22.2290 N   0  0  0  0  0  0  0  0  0  0  0  0
  -18.5082  -26.8878   17.5448 N   0  0  0  0  0  0  0  0  0  0  0  0
  -21.6261  -29.9182   22.4572 N   0  0  0  0  0  0  0  0  0  0  0  0
  -21.6858  -29.2120   26.0020 N   0  3  0  0  0  0  0  0  0  0  0  0
  -32.2677  -17.9367   23.5869 O   0  0  0  0  0  0  0  0  0  0  0  0
  -20.7355  -26.4341   18.0508 O   0  0  0  0  0  0  0  0  0  0  0  0
  -19.6003  -29.5988   20.4565 O   0  0  0  0  0  0  0  0  0  0  0  0
  -26.2793  -10.9952   20.6073 O   0  0  0  0  0  0  0  0  0  0  0  0
  -22.9284  -28.3888   23.6156 O   0  0  0  0  0  0  0  0  0  0  0  0
  -29.3519  -22.6223   18.0978 O   0  0  0  0  0  0  0  0  0  0  0  0
  -23.0076  -21.9105   21.5235 O   0  0  0  0  0  0  0  0  0  1  0  0
  -24.2369  -23.9683   16.5392 F   0  0  0  0  0  0  0  0  0  0  0  0
  -28.1151  -24.8855   19.0934 F   0  0  0  0  0  0  0  0  0  0  0  0
  1  2  1  0  0  0  0
  1  6  2  0  0  0  0
  2  7  2  0  0  0  0
  3 14  2  0  0  0  0
  3 15  1  0  0  0  0
  4  9  2  0  0  0  0
  4 18  1  0  0  0  0
  5 10  1  0  0  0  0
  5 18  2  0  0  0  0
  6 20  1  0  0  0  0
  7 22  1  0  0  0  0
  8 11  2  0  0  0  0
  8 21  1  0  0  0  0
  9 24  1  0  0  0  0
 10 24  2  0  0  0  0
 11 25  1  0  0  0  0
 12 13  2  0  0  0  0
 12 26  1  0  0  0  0
 13 27  1  0  0  0  0
 14 30  1  0  0  0  0
 15 31  2  0  0  0  0
 16 23  1  0  0  0  0
 16 25  2  0  0  0  0
 17 27  2  0  0  0  0
 17 28  1  0  0  0  0
 18 29  1  0  0  0  0
 19 29  1  0  0  0  0
 19 32  2  0  0  0  0
 19 33  1  0  0  0  0
 20 22  2  0  0  0  0
 20 38  1  0  0  0  0
 21 23  2  0  0  0  0
 21 39  1  0  0  0  0
 22 47  1  0  0  0  0
 23 40  1  0  0  0  0
 24 80  1  0  0  0  0
 25 81  1  0  0  0  0
 26 28  2  0  0  0  0
 26 80  1  0  0  0  0
 27 82  1  0  0  0  0
 28 83  1  0  0  0  0
 29 65  2  0  0  0  0
 30 57  1  0  0  0  0
 30 66  2  0  0  0  0
 31 63  1  0  0  0  0
 31 66  1  0  0  0  0
 32 67  1  0  0  0  0
 32 70  1  0  0  0  0
 33 71  1  0  0  0  0
 33 75  2  0  0  0  0
 34 48  1  0  0  0  0
 34 72  1  0  0  0  0
 34 76  2  0  0  0  0
 35 61  1  0  0  0  0
 35 68  1  0  0  0  0
 35 77  2  0  0  0  0
 36 63  1  0  0  0  0
 36 69  1  0  0  0  0
 36 78  2  0  0  0  0
 37 62  1  0  0  0  0
 37 73  1  0  0  0  0
 37 79  2  0  0  0  0
 38 41  1  0  0  0  0
 39 48  1  0  0  0  0
 40 68  1  0  0  0  0
 41 43  1  0  0  0  0
 42 44  1  0  0  0  0
 42 45  1  0  0  0  0
 43 47  1  0  0  0  0
 44 49  1  0  0  0  0
 45 69  1  0  0  0  0
 46 49  1  0  0  0  0
 46 69  1  0  0  0  0
 47 72  1  0  0  0  0
 48 68  1  0  0  0  0
 49 67  1  0  0  0  0
 50 62  1  0  0  0  0
 51 63  1  0  0  0  0
 52 63  1  0  0  0  0
 53 64  1  0  0  0  0
 54 64  1  0  0  0  0
 55 64  1  0  0  0  0
 56 74  1  0  0  0  0
 57 58  1  0  0  0  0
 58 59  1  0  0  0  0
 59 60  1  0  0  0  0
 60 81  1  0  0  0  0
 61 64  1  0  0  0  0
 61 73  1  0  0  0  0
 62 74  1  0  0  0  0
 65 67  1  0  0  0  0
M  CHG  1  74   1
M  ISO  4  36 100  60 101  63 100  81 101
M  END
> <Batch ID>
0075

> <Smiles>
CNC(C)C(=O)NC(C(=O)N1Cc2cc([101O:1][101CH2:1]CCCc3cccc([100C:0](C)(C)[100C:0](=O)N4CCCC(n5nc(-c6ccc(Oc7ccc(F)cc7F)cc6)c(C(N)=O)c5N)C4)n3)ccc2CC1C(=O)NC1CCCc2ccccc21)C(C)(C)C

> <Shape>
0.193

> <Color>
0.080

> <Negative vol penalty>
0.000

$$$$

  -OEChem-04052318323D

 86 94  0     1  0  0  0  0  0999 V2000
  -28.1345  -32.3804   27.2645 C   0  0  0  0  0  0  0  0  0  0  0  0
  -28.1858  -31.2805   26.4143 C   0  0  0  0  0  0  0  0  0  0  0  0
  -22.8979  -14.9237   20.9089 C   0  0  0  0  0  0  0  0  0  0  0  0
  -23.7584  -13.6353   19.0550 C   0  0  0  0  0  0  0  0  0  0  0  0
  -26.9100  -32.9832   27.5495 C   0  0  0  0  0  0  0  0  0  0  0  0
  -27.0124  -30.7820   25.8493 C   0  0  0  0  0  0  0  0  0  0  0  0
  -27.5172  -29.7489   20.9175 C   0  0  0  0  0  0  0  0  0  0  0  0
  -22.2554  -13.7874   21.4004 C   0  0  0  0  0  0  0  0  0  0  0  0
  -23.1159  -12.4990   19.5466 C   0  0  0  0  0  0  0  0  0  0  0  0
  -28.1740  -28.5667   20.5786 C   0  0  0  0  0  0  0  0  0  0  0  0
  -21.9987   -9.1755   20.5081 C   0  0  0  0  0  0  0  0  0  0  0  0
  -22.7198   -7.9819   20.5337 C   0  0  0  0  0  0  0  0  0  0  0  0
  -26.0440  -27.4971   20.2063 C   0  0  0  0  0  0  0  0  0  0  0  0
  -28.3834  -20.1680   20.5094 C   0  0  0  0  0  0  0  0  0  0  0  0
  -24.3544   -9.0007   21.9922 C   0  0  0  0  0  0  0  0  0  0  0  0
  -23.6493  -14.8477   19.7361 C   0  0  0  0  0  0  0  0  0  0  0  0
  -23.7142  -17.2342   18.8372 C   0  0  0  0  0  0  0  0  0  0  0  0
  -25.7222  -32.4979   26.9801 C   0  0  0  0  0  0  0  0  0  0  0  0
  -26.1162  -29.8110   20.9139 C   0  0  0  0  0  0  0  0  0  0  0  0
  -25.7708  -31.3781   26.1280 C   0  0  0  0  0  0  0  0  0  0  0  0
  -25.3719  -28.6820   20.5431 C   0  0  0  0  0  0  0  0  0  0  0  0
  -28.2383  -21.5486   20.4316 C   0  0  0  0  0  0  0  0  0  0  0  0
  -28.5966  -22.3419   21.5159 C   0  0  0  0  0  0  0  0  0  0  0  0
  -22.3644  -12.5750   20.7193 C   0  0  0  0  0  0  0  0  0  0  0  0
  -27.4374  -27.4398   20.2257 C   0  0  0  0  0  0  0  0  0  0  0  0
  -22.4554  -10.2818   21.2245 C   0  0  0  0  0  0  0  0  0  0  0  0
  -23.8977   -7.8944   21.2758 C   0  0  0  0  0  0  0  0  0  0  0  0
  -23.6332  -10.1944   21.9666 C   0  0  0  0  0  0  0  0  0  0  0  0
  -24.3128  -16.0213   19.2276 C   0  0  0  0  0  0  0  0  0  0  0  0
  -28.8873  -19.6340   21.6845 C   0  0  0  0  0  0  0  0  0  0  0  0
  -29.0908  -21.7106   22.6459 C   0  0  0  0  0  0  0  0  0  0  0  0
  -24.7649  -18.0209   18.4326 C   0  0  0  0  0  0  0  0  0  0  0  0
  -22.3321  -17.6156   18.8402 C   0  0  0  0  0  0  0  0  0  0  0  0
  -23.8897  -30.3605   23.1149 C   0  0  0  0  0  0  0  0  0  0  0  0
  -21.8956  -30.2768   20.5577 C   0  0  0  0  0  0  0  0  0  0  0  0
  -30.6100  -17.9366   19.8253 C   0  0  0  0  0  0  0  0  0  0  0  0
  -21.3144  -29.2029   17.3709 C   0  0  0  0  0  0  0  0  0  0  0  0
  -24.4167  -33.1533   27.3551 C   0  0  0  0  0  0  0  0  0  0  0  0
  -25.4234  -31.1014   21.2562 C   0  0  0  0  0  0  0  0  0  0  0  0
  -23.8664  -28.7025   20.5039 C   0  0  0  0  0  0  0  0  0  0  0  0
  -23.2647  -32.7956   26.4196 C   0  0  0  0  0  0  0  0  0  0  0  0
  -29.1502  -17.7514   16.5581 C   0  0  0  0  0  0  0  0  0  0  0  0
  -23.2336  -31.2925   26.1617 C   0  0  0  0  0  0  0  0  0  0  0  0
  -27.6969  -17.3690   16.8353 C   0  0  0  0  0  0  0  0  0  0  0  0
  -30.1000  -17.0966   17.5562 C   0  0  0  0  0  0  0  0  0  0  0  0
  -28.3139  -16.9955   19.2653 C   0  0  0  0  0  0  0  0  0  0  0  0
  -24.5227  -30.8236   25.4761 C   0  0  1  0  0  0  0  0  0  0  0  0
  -23.9826  -30.9022   21.7164 C   0  0  1  0  0  0  0  0  0  0  0  0
  -27.3182  -17.6602   18.2983 C   0  0  2  0  0  0  0  0  0  0  0  0
  -27.6951  -22.1518   19.1786 C   0  0  0  0  0  0  0  0  0  0  0  0
  -29.4940  -22.5098   23.8419 C   0  0  0  0  0  0  0  0  0  0  0  0
  -28.7179  -17.6448   23.2299 C   0  0  0  0  0  0  0  0  0  0  0  0
  -19.5797  -29.2600   15.5585 C   0  0  0  0  0  0  0  0  0  0  0  0
  -30.5687  -16.0601   21.4090 C   0  0  0  0  0  0  0  0  0  0  0  0
  -31.6232  -18.2518   22.0025 C   0  0  0  0  0  0  0  0  0  0  0  0
  -20.2631  -28.1803   22.0575 C   0  0  0  0  0  0  0  0  0  0  0  0
  -19.1497  -27.5989   19.8917 C   0  0  0  0  0  0  0  0  0  0  0  0
  -18.9010  -29.8910   20.8440 C   0  0  0  0  0  0  0  0  0  0  0  0
  -23.1350  -30.6143   15.5128 C   0  0  0  0  0  0  0  0  0  0  0  0
  -28.4527  -23.8418   21.4595 C   0  0  0  0  0  0  0  0  0  0  0  0
  -29.5406  -24.5344   20.6358 C   0  0  0  0  0  0  0  0  0  0  0  0
  -29.3386  -26.0403   20.5136 C   0  0  0  0  0  0  0  0  0  1  0  0
  -29.0579  -18.1563   21.8032 C   0  0  2  0  0  0  0  0  0  0  0  0
  -21.1172  -29.1981   19.8438 C   0  0  1  0  0  0  0  0  0  0  0  0
  -20.8145  -29.9330   16.1374 C   0  0  2  0  0  0  0  0  0  0  0  0
  -30.4380  -17.5848   21.2815 C   0  0  0  0  0  0  0  0  0  0  0  0
  -19.8861  -28.7158   20.6618 C   0  0  0  0  0  0  0  0  0  0  0  0
  -25.6406  -16.0318   19.0838 N   0  0  0  0  0  0  0  0  0  0  0  0
  -29.2461  -20.3724   22.7586 N   0  0  0  0  0  0  0  0  0  0  0  0
  -25.8852  -17.2609   18.5985 N   0  0  0  0  0  0  0  0  0  0  0  0
  -23.2350  -29.9859   20.8530 N   0  0  0  0  0  0  0  0  0  0  0  0
  -29.6934  -17.3783   18.9341 N   0  0  0  0  0  0  0  0  0  0  0  0
  -24.8304  -19.2818   17.9547 N   0  0  0  0  0  0  0  0  0  0  0  0
  -21.5672  -17.3641   17.6931 N   0  0  0  0  0  0  0  0  0  0  0  0
  -24.4961  -31.1563   24.0680 N   0  0  0  0  0  0  0  0  0  0  0  0
  -20.7872  -29.7356   18.5283 N   0  0  0  0  0  0  0  0  0  0  0  0
  -21.8715  -29.9591   15.0870 N   0  3  0  0  0  0  0  0  0  0  0  0
  -21.7957  -18.1782   19.8247 O   0  0  0  0  0  0  0  0  0  0  0  0
  -23.3094  -29.2998   23.3146 O   0  0  0  0  0  0  0  0  0  0  0  0
  -21.3378  -31.3411   20.8365 O   0  0  0  0  0  0  0  0  0  0  0  0
  -31.5302  -18.6878   19.4921 O   0  0  0  0  0  0  0  0  0  0  0  0
  -22.0917  -28.2526   17.3132 O   0  0  0  0  0  0  0  0  0  0  0  0
  -21.7378  -11.4659   21.1987 O   0  0  0  0  0  0  0  0  0  0  0  0
  -28.0760  -26.2844   19.8951 O   0  0  0  0  0  0  0  0  0  1  0  0
  -24.5893   -6.7476   21.3015 F   0  0  0  0  0  0  0  0  0  0  0  0
  -24.0763  -11.2535   22.6578 F   0  0  0  0  0  0  0  0  0  0  0  0
  1  2  1  0  0  0  0
  1  5  2  0  0  0  0
  2  6  2  0  0  0  0
  3  8  2  0  0  0  0
  3 16  1  0  0  0  0
  4  9  1  0  0  0  0
  4 16  2  0  0  0  0
  5 18  1  0  0  0  0
  6 20  1  0  0  0  0
  7 10  2  0  0  0  0
  7 19  1  0  0  0  0
  8 24  1  0  0  0  0
  9 24  2  0  0  0  0
 10 25  1  0  0  0  0
 11 12  2  0  0  0  0
 11 26  1  0  0  0  0
 12 27  1  0  0  0  0
 13 21  1  0  0  0  0
 13 25  2  0  0  0  0
 14 22  2  0  0  0  0
 14 30  1  0  0  0  0
 15 27  2  0  0  0  0
 15 28  1  0  0  0  0
 16 29  1  0  0  0  0
 17 29  1  0  0  0  0
 17 32  2  0  0  0  0
 17 33  1  0  0  0  0
 18 20  2  0  0  0  0
 18 38  1  0  0  0  0
 19 21  2  0  0  0  0
 19 39  1  0  0  0  0
 20 47  1  0  0  0  0
 21 40  1  0  0  0  0
 22 23  1  0  0  0  0
 22 50  1  0  0  0  0
 23 31  2  0  0  0  0
 23 60  1  0  0  0  0
 24 83  1  0  0  0  0
 25 84  1  0  0  0  0
 26 28  2  0  0  0  0
 26 83  1  0  0  0  0
 27 85  1  0  0  0  0
 28 86  1  0  0  0  0
 29 68  2  0  0  0  0
 30 63  1  0  0  0  0
 30 69  2  0  0  0  0
 31 51  1  0  0  0  0
 31 69  1  0  0  0  0
 32 70  1  0  0  0  0
 32 73  1  0  0  0  0
 33 74  1  0  0  0  0
 33 78  2  0  0  0  0
 34 48  1  0  0  0  0
 34 75  1  0  0  0  0
 34 79  2  0  0  0  0
 35 64  1  0  0  0  0
 35 71  1  0  0  0  0
 35 80  2  0  0  0  0
 36 66  1  0  0  0  0
 36 72  1  0  0  0  0
 36 81  2  0  0  0  0
 37 65  1  0  0  0  0
 37 76  1  0  0  0  0
 37 82  2  0  0  0  0
 38 41  1  0  0  0  0
 39 48  1  0  0  0  0
 40 71  1  0  0  0  0
 41 43  1  0  0  0  0
 42 44  1  0  0  0  0
 42 45  1  0  0  0  0
 43 47  1  0  0  0  0
 44 49  1  0  0  0  0
 45 72  1  0  0  0  0
 46 49  1  0  0  0  0
 46 72  1  0  0  0  0
 47 75  1  0  0  0  0
 48 71  1  0  0  0  0
 49 70  1  0  0  0  0
 52 63  1  0  0  0  0
 53 65  1  0  0  0  0
 54 66  1  0  0  0  0
 55 66  1  0  0  0  0
 56 67  1  0  0  0  0
 57 67  1  0  0  0  0
 58 67  1  0  0  0  0
 59 77  1  0  0  0  0
 60 61  1  0  0  0  0
 61 62  1  0  0  0  0
 62 84  1  0  0  0  0
 63 66  1  0  0  0  0
 64 67  1  0  0  0  0
 64 76  1  0  0  0  0
 65 77  1  0  0  0  0
 68 70  1  0  0  0  0
M  CHG  1  77   1
M  ISO  4  36 100  62 101  66 100  84 101
M  END
> <Batch ID>
0075

> <Smiles>
CNC(C)C(=O)NC(C(=O)N1Cc2cc([101O:1][101CH2:1]CCc3c(C)cc(C(C)[100C:0](C)(C)[100C:0](=O)N4CCCC(n5nc(-c6ccc(Oc7ccc(F)cc7F)cc6)c(C(N)=O)c5N)C4)nc3C)ccc2CC1C(=O)NC1CCCc2ccccc21)C(C)(C)C

> <Shape>
0.281

> <Color>
0.077

> <Negative vol penalty>
0.000

$$$$

  -OEChem-04052318323D

 84 92  0     1  0  0  0  0  0999 V2000
  -24.4233  -17.8609   14.6525 C   0  0  0  0  0  0  0  0  0  0  0  0
  -24.7108  -17.9087   16.0128 C   0  0  0  0  0  0  0  0  0  0  0  0
  -24.3834   -9.9127   21.7191 C   0  0  0  0  0  0  0  0  0  0  0  0
  -24.6578  -11.1215   23.7929 C   0  0  0  0  0  0  0  0  0  0  0  0
  -24.6374  -18.9850   13.8560 C   0  0  0  0  0  0  0  0  0  0  0  0
  -25.2138  -19.0804   16.5772 C   0  0  0  0  0  0  0  0  0  0  0  0
  -24.0816  -21.2421   22.1942 C   0  0  0  0  0  0  0  0  0  0  0  0
  -23.9889   -8.7802   22.4314 C   0  0  0  0  0  0  0  0  0  0  0  0
  -24.2632   -9.9890   24.5052 C   0  0  0  0  0  0  0  0  0  0  0  0
  -24.8004  -21.1766   23.3870 C   0  0  0  0  0  0  0  0  0  0  0  0
  -22.5624   -5.6807   23.6856 C   0  0  0  0  0  0  0  0  0  0  0  0
  -21.4491   -4.9790   23.2233 C   0  0  0  0  0  0  0  0  0  0  0  0
  -25.7366  -23.3535   22.9354 C   0  0  0  0  0  0  0  0  0  0  0  0
  -28.9733  -20.0090   23.0099 C   0  0  0  0  0  0  0  0  0  0  0  0
  -20.0852   -6.9521   23.5130 C   0  0  0  0  0  0  0  0  0  0  0  0
  -30.7962  -21.1784   23.9678 C   0  0  0  0  0  0  0  0  0  0  0  0
  -24.7179  -11.0834   22.3999 C   0  0  0  0  0  0  0  0  0  0  0  0
  -24.2983  -13.2815   21.1751 C   0  0  0  0  0  0  0  0  0  0  0  0
  -25.1342  -20.1741   14.4127 C   0  0  0  0  0  0  0  0  0  0  0  0
  -24.1935  -22.3610   21.3563 C   0  0  0  0  0  0  0  0  0  0  0  0
  -25.4361  -20.2211   15.7871 C   0  0  0  0  0  0  0  0  0  0  0  0
  -25.0162  -23.4319   21.7338 C   0  0  0  0  0  0  0  0  0  0  0  0
  -29.5443  -20.6157   24.1147 C   0  0  0  0  0  0  0  0  0  0  0  0
  -23.9287   -8.8183   23.8244 C   0  0  0  0  0  0  0  0  0  0  0  0
  -25.6303  -22.2310   23.7564 C   0  0  0  0  0  0  0  0  0  0  0  0
  -22.4371   -7.0180   24.0617 C   0  0  0  0  0  0  0  0  0  0  0  0
  -20.2105   -5.6147   23.1369 C   0  0  0  0  0  0  0  0  0  0  0  0
  -21.1986   -7.6537   23.9754 C   0  0  0  0  0  0  0  0  0  0  0  0
  -25.1261  -12.2534   21.6647 C   0  0  0  0  0  0  0  0  0  0  0  0
  -29.6918  -20.0053   21.8312 C   0  0  0  0  0  0  0  0  0  0  0  0
  -25.1615  -14.1513   20.5549 C   0  0  0  0  0  0  0  0  0  0  0  0
  -22.8763  -13.4363   21.2724 C   0  0  0  0  0  0  0  0  0  0  0  0
  -25.2001  -22.8429   18.3801 C   0  0  0  0  0  0  0  0  0  0  0  0
  -24.1108  -25.8514   18.9134 C   0  0  0  0  0  0  0  0  0  0  0  0
  -23.3332  -28.2943   21.1660 C   0  0  0  0  0  0  0  0  0  0  0  0
  -29.9429  -17.0281   20.4667 C   0  0  0  0  0  0  0  0  0  0  0  0
  -25.3939  -21.3486   13.5029 C   0  0  0  0  0  0  0  0  0  0  0  0
  -23.3908  -22.4280   20.0860 C   0  0  0  0  0  0  0  0  0  0  0  0
  -25.1555  -24.6644   20.8794 C   0  0  0  0  0  0  0  0  0  0  0  0
  -25.5762  -22.6681   14.2485 C   0  0  0  0  0  0  0  0  0  0  0  0
  -30.0505  -13.6459   19.3596 C   0  0  0  0  0  0  0  0  0  0  0  0
  -26.5239  -22.4871   15.4300 C   0  0  0  0  0  0  0  0  0  0  0  0
  -28.7140  -13.0658   19.8256 C   0  0  0  0  0  0  0  0  0  0  0  0
  -30.6138  -14.6456   20.3672 C   0  0  0  0  0  0  0  0  0  0  0  0
  -28.3540  -15.1521   21.2099 C   0  0  0  0  0  0  0  0  0  0  0  0
  -25.9597  -21.4815   16.4409 C   0  0  1  0  0  0  0  0  0  0  0  0
  -23.9771  -23.3916   19.0589 C   0  0  1  0  0  0  0  0  0  0  0  0
  -27.7190  -14.1806   20.2003 C   0  0  2  0  0  0  0  0  0  0  0  0
  -29.8303  -18.4422   26.2374 C   0  0  0  0  0  0  0  0  0  0  0  0
  -27.8012  -20.0080   20.1618 C   0  0  0  0  0  0  0  0  0  0  0  0
  -22.5024  -30.6585   21.2998 C   0  0  0  0  0  0  0  0  0  0  0  0
  -26.8612  -26.8634   18.0642 C   0  0  0  0  0  0  0  0  0  0  0  0
  -26.2944  -29.0685   19.1056 C   0  0  0  0  0  0  0  0  0  0  0  0
  -24.9406  -28.2087   17.1949 C   0  0  0  0  0  0  0  0  0  0  0  0
  -20.9339  -27.4871   22.6992 C   0  0  0  0  0  0  0  0  0  0  0  0
  -29.5887  -19.9125   26.5587 C   0  0  0  0  0  0  0  0  0  0  0  0
  -28.5239  -22.1091   25.9000 C   0  0  0  0  0  0  0  0  0  0  0  0
  -27.5825  -22.8584   24.9611 C   0  0  0  0  0  0  0  0  0  1  0  0
  -28.8159  -20.6612   25.4489 C   0  0  1  0  0  0  0  0  0  0  0  0
  -29.1218  -19.3656   20.6120 C   0  0  2  0  0  0  0  0  0  0  0  0
  -24.7087  -27.1226   19.4662 C   0  0  1  0  0  0  0  0  0  0  0  0
  -22.1138  -29.1882   21.3017 C   0  0  2  0  0  0  0  0  0  0  0  0
  -25.7003  -27.7919   18.4731 C   0  0  0  0  0  0  0  0  0  0  0  0
  -31.4766  -21.1601   22.8021 N   0  0  0  0  0  0  0  0  0  0  0  0
  -26.4161  -12.4504   21.3798 N   0  0  0  0  0  0  0  0  0  0  0  0
  -30.9152  -20.5641   21.7162 N   0  0  0  0  0  0  0  0  0  0  0  0
  -26.4054  -13.6122   20.7045 N   0  0  0  0  0  0  0  0  0  0  0  0
  -24.3552  -24.6798   19.6437 N   0  0  0  0  0  0  0  0  0  0  0  0
  -29.6216  -15.6772   20.6786 N   0  0  0  0  0  0  0  0  0  0  0  0
  -24.9703  -15.3171   19.9015 N   0  0  0  0  0  0  0  0  0  0  0  0
  -22.1411  -12.4499   21.9438 N   0  0  0  0  0  0  0  0  0  0  0  0
  -24.9290  -22.0996   17.2471 N   0  0  0  0  0  0  0  0  0  0  0  0
  -23.5844  -27.9694   19.8498 N   0  0  0  0  0  0  0  0  0  0  0  0
  -28.9436  -17.9407   20.7817 N   0  0  0  0  0  0  0  0  0  0  0  0
  -21.3947  -28.8939   22.5734 N   0  3  0  0  0  0  0  0  0  0  0  0
  -22.2734  -14.4120   20.7644 O   0  0  0  0  0  0  0  0  0  0  0  0
  -26.3079  -23.0777   18.8486 O   0  0  0  0  0  0  0  0  0  0  0  0
  -23.4453  -25.8975   17.8758 O   0  0  0  0  0  0  0  0  0  0  0  0
  -23.9987  -27.9245   22.1309 O   0  0  0  0  0  0  0  0  0  0  0  0
  -31.0373  -17.3934   20.0241 O   0  0  0  0  0  0  0  0  0  0  0  0
  -23.5436   -7.7135   24.5198 O   0  0  0  0  0  0  0  0  0  0  0  0
  -26.3335  -22.1693   24.9198 O   0  0  0  0  0  0  0  0  0  1  0  0
  -19.1418   -4.9412   22.6915 F   0  0  0  0  0  0  0  0  0  0  0  0
  -21.0723   -8.9387   24.3342 F   0  0  0  0  0  0  0  0  0  0  0  0
  1  2  1  0  0  0  0
  1  5  2  0  0  0  0
  2  6  2  0  0  0  0
  3  8  2  0  0  0  0
  3 17  1  0  0  0  0
  4  9  1  0  0  0  0
  4 17  2  0  0  0  0
  5 19  1  0  0  0  0
  6 21  1  0  0  0  0
  7 10  2  0  0  0  0
  7 20  1  0  0  0  0
  8 24  1  0  0  0  0
  9 24  2  0  0  0  0
 10 25  1  0  0  0  0
 11 12  2  0  0  0  0
 11 26  1  0  0  0  0
 12 27  1  0  0  0  0
 13 22  1  0  0  0  0
 13 25  2  0  0  0  0
 14 23  2  0  0  0  0
 14 30  1  0  0  0  0
 15 27  2  0  0  0  0
 15 28  1  0  0  0  0
 16 23  1  0  0  0  0
 16 64  2  0  0  0  0
 17 29  1  0  0  0  0
 18 29  1  0  0  0  0
 18 31  2  0  0  0  0
 18 32  1  0  0  0  0
 19 21  2  0  0  0  0
 19 37  1  0  0  0  0
 20 22  2  0  0  0  0
 20 38  1  0  0  0  0
 21 46  1  0  0  0  0
 22 39  1  0  0  0  0
 23 59  1  0  0  0  0
 24 81  1  0  0  0  0
 25 82  1  0  0  0  0
 26 28  2  0  0  0  0
 26 81  1  0  0  0  0
 27 83  1  0  0  0  0
 28 84  1  0  0  0  0
 29 65  2  0  0  0  0
 30 60  1  0  0  0  0
 30 66  2  0  0  0  0
 31 67  1  0  0  0  0
 31 70  1  0  0  0  0
 32 71  1  0  0  0  0
 32 76  2  0  0  0  0
 33 47  1  0  0  0  0
 33 72  1  0  0  0  0
 33 77  2  0  0  0  0
 34 61  1  0  0  0  0
 34 68  1  0  0  0  0
 34 78  2  0  0  0  0
 35 62  1  0  0  0  0
 35 73  1  0  0  0  0
 35 79  2  0  0  0  0
 36 69  1  0  0  0  0
 36 74  1  0  0  0  0
 36 80  2  0  0  0  0
 37 40  1  0  0  0  0
 38 47  1  0  0  0  0
 39 68  1  0  0  0  0
 40 42  1  0  0  0  0
 41 43  1  0  0  0  0
 41 44  1  0  0  0  0
 42 46  1  0  0  0  0
 43 48  1  0  0  0  0
 44 69  1  0  0  0  0
 45 48  1  0  0  0  0
 45 69  1  0  0  0  0
 46 72  1  0  0  0  0
 47 68  1  0  0  0  0
 48 67  1  0  0  0  0
 49 56  1  0  0  0  0
 50 60  1  0  0  0  0
 51 62  1  0  0  0  0
 52 63  1  0  0  0  0
 53 63  1  0  0  0  0
 54 63  1  0  0  0  0
 55 75  1  0  0  0  0
 56 59  1  0  0  0  0
 57 58  1  0  0  0  0
 57 59  1  0  0  0  0
 58 82  1  0  0  0  0
 60 74  1  0  0  0  0
 61 63  1  0  0  0  0
 61 73  1  0  0  0  0
 62 75  1  0  0  0  0
 64 66  1  0  0  0  0
 65 67  1  0  0  0  0
M  CHG  1  75   1
M  ISO  4  36 100  58 101  74 100  82 101
M  END
> <Batch ID>
0075

> <Smiles>
CCC(C[101CH2:1][101O:1]c1ccc2c(c1)CN(C(=O)C(NC(=O)C(C)NC)C(C)(C)C)C(C(=O)NC1CCCc3ccccc31)C2)c1cnnc(C(C)[100NH:0][100C:0](=O)N2CCCC(n3nc(-c4ccc(Oc5ccc(F)cc5F)cc4)c(C(N)=O)c3N)C2)c1

> <Shape>
0.194

> <Color>
0.110

> <Negative vol penalty>
0.000

$$$$

  -OEChem-04052318323D

 87 95  0     1  0  0  0  0  0999 V2000
  -27.7593  -34.5956   25.2732 C   0  0  0  0  0  0  0  0  0  0  0  0
  -27.9737  -33.3176   24.7671 C   0  0  0  0  0  0  0  0  0  0  0  0
  -24.9669  -14.7867   21.6085 C   0  0  0  0  0  0  0  0  0  0  0  0
  -27.1374  -14.8914   20.5525 C   0  0  0  0  0  0  0  0  0  0  0  0
  -26.4736  -34.9930   25.6380 C   0  0  0  0  0  0  0  0  0  0  0  0
  -26.9026  -32.4358   24.6266 C   0  0  0  0  0  0  0  0  0  0  0  0
  -26.9503  -30.0144   20.1791 C   0  0  0  0  0  0  0  0  0  0  0  0
  -24.9261  -13.4100   21.3883 C   0  0  0  0  0  0  0  0  0  0  0  0
  -27.0966  -13.5146   20.3323 C   0  0  0  0  0  0  0  0  0  0  0  0
  -27.8372  -28.9472   20.0447 C   0  0  0  0  0  0  0  0  0  0  0  0
  -24.2723  -11.3178   18.8154 C   0  0  0  0  0  0  0  0  0  0  0  0
  -23.0860  -10.7763   18.3205 C   0  0  0  0  0  0  0  0  0  0  0  0
  -26.0291  -27.4018   20.4472 C   0  0  0  0  0  0  0  0  0  0  0  0
  -22.9030   -9.3818   20.2850 C   0  0  0  0  0  0  0  0  0  0  0  0
  -29.7019  -23.0497   19.2391 C   0  0  0  0  0  0  0  0  0  0  0  0
  -26.0725  -15.5275   21.1905 C   0  0  0  0  0  0  0  0  0  0  0  0
  -26.6317  -17.6158   22.5447 C   0  0  0  0  0  0  0  0  0  0  0  0
  -25.3847  -34.1190   25.4928 C   0  0  0  0  0  0  0  0  0  0  0  0
  -25.5960  -29.7834   20.4599 C   0  0  0  0  0  0  0  0  0  0  0  0
  -25.6014  -32.8215   24.9910 C   0  0  0  0  0  0  0  0  0  0  0  0
  -25.1266  -28.4678   20.5821 C   0  0  0  0  0  0  0  0  0  0  0  0
  -25.9910  -12.7739   20.7502 C   0  0  0  0  0  0  0  0  0  0  0  0
  -27.3773  -27.6407   20.1816 C   0  0  0  0  0  0  0  0  0  0  0  0
  -24.7741  -10.8913   20.0451 C   0  0  0  0  0  0  0  0  0  0  0  0
  -22.4013   -9.8083   19.0553 C   0  0  0  0  0  0  0  0  0  0  0  0
  -24.0894   -9.9233   20.7799 C   0  0  0  0  0  0  0  0  0  0  0  0
  -26.1150  -16.9497   21.4172 C   0  0  0  0  0  0  0  0  0  0  0  0
  -29.9738  -24.2663   19.8310 C   0  0  0  0  0  0  0  0  0  0  0  0
  -30.4168  -22.7707   18.0923 C   0  0  0  0  0  0  0  0  0  0  0  0
  -26.4373  -18.9485   22.2752 C   0  0  0  0  0  0  0  0  0  0  0  0
  -31.5047  -24.7621   18.2255 C   0  0  0  0  0  0  0  0  0  0  0  0
  -27.2336  -17.0780   23.7297 C   0  0  0  0  0  0  0  0  0  0  0  0
  -23.6407  -30.5353   22.8505 C   0  0  0  0  0  0  0  0  0  0  0  0
  -21.3937  -29.2354   20.9053 C   0  0  0  0  0  0  0  0  0  0  0  0
  -20.6640  -27.1086   18.3380 C   0  0  0  0  0  0  0  0  0  0  0  0
  -25.8677  -22.0367   17.1772 C   0  0  0  0  0  0  0  0  0  0  0  0
  -24.0208  -34.5772   25.9451 C   0  0  0  0  0  0  0  0  0  0  0  0
  -24.6469  -30.9446   20.5754 C   0  0  0  0  0  0  0  0  0  0  0  0
  -23.6782  -28.1655   20.8634 C   0  0  0  0  0  0  0  0  0  0  0  0
  -22.8806  -33.7122   25.4140 C   0  0  0  0  0  0  0  0  0  0  0  0
  -23.5399  -21.8980   19.8676 C   0  0  0  0  0  0  0  0  0  0  0  0
  -23.2059  -32.2325   25.5914 C   0  0  0  0  0  0  0  0  0  0  0  0
  -23.9825  -20.6742   20.6716 C   0  0  0  0  0  0  0  0  0  0  0  0
  -23.7237  -21.6840   18.3668 C   0  0  0  0  0  0  0  0  0  0  0  0
  -25.5232  -20.0481   18.7656 C   0  0  0  0  0  0  0  0  0  0  0  0
  -24.4612  -31.8449   24.8005 C   0  0  1  0  0  0  0  0  0  0  0  0
  -23.3887  -30.6110   21.3711 C   0  0  1  0  0  0  0  0  0  0  0  0
  -25.4091  -20.2373   20.2879 C   0  0  2  0  0  0  0  0  0  0  0  0
  -32.5088  -25.7111   17.6641 C   0  0  0  0  0  0  0  0  0  0  0  0
  -18.7342  -26.2292   16.9965 C   0  0  0  0  0  0  0  0  0  0  0  0
  -31.5015  -20.6440   17.3110 C   0  0  0  0  0  0  0  0  0  0  0  0
  -20.5953  -27.4370   23.2373 C   0  0  0  0  0  0  0  0  0  0  0  0
  -19.3748  -25.9816   21.6062 C   0  0  0  0  0  0  0  0  0  0  0  0
  -18.6757  -28.3551   21.9232 C   0  0  0  0  0  0  0  0  0  0  0  0
  -30.3002  -22.4612   14.9630 C   0  0  0  0  0  0  0  0  0  0  0  0
  -29.3000  -20.2093   15.2922 C   0  0  0  0  0  0  0  0  0  0  0  0
  -21.7694  -28.1975   15.8178 C   0  0  0  0  0  0  0  0  0  0  0  0
  -29.2420  -24.6607   21.0908 C   0  0  0  0  0  0  0  0  0  0  0  0
  -28.0767  -22.2636   16.0690 C   0  0  0  0  0  0  0  0  0  0  0  0
  -27.9503  -25.4165   20.7986 C   0  0  0  0  0  0  0  0  0  1  0  0
  -20.8298  -27.8503   20.6996 C   0  0  1  0  0  0  0  0  0  0  0  0
  -19.8205  -27.2895   17.0889 C   0  0  2  0  0  0  0  0  0  0  0  0
  -30.1922  -21.4776   17.3825 C   0  0  2  0  0  0  0  0  0  0  0  0
  -19.8966  -27.4114   21.8632 C   0  0  0  0  0  0  0  0  0  0  0  0
  -29.4809  -21.6004   15.9519 C   0  0  0  0  0  0  0  0  0  0  0  0
  -25.6288  -17.7900   20.4998 N   0  0  0  0  0  0  0  0  0  0  0  0
  -30.8724  -25.1500   19.3494 N   0  0  0  0  0  0  0  0  0  0  0  0
  -31.3292  -23.6072   17.5555 N   0  0  0  0  0  0  0  0  0  0  0  0
  -25.8390  -18.9977   21.0505 N   0  0  0  0  0  0  0  0  0  0  0  0
  -22.7905  -29.3348   20.9740 N   0  0  0  0  0  0  0  0  0  0  0  0
  -25.0980  -21.2728   18.0700 N   0  0  0  0  0  0  0  0  0  0  0  0
  -26.7213  -20.0713   22.9687 N   0  0  0  0  0  0  0  0  0  0  0  0
  -27.3557  -15.6865   23.8445 N   0  0  0  0  0  0  0  0  0  0  0  0
  -24.1482  -31.6995   23.3951 N   0  0  0  0  0  0  0  0  0  0  0  0
  -20.1869  -27.8617   19.3900 N   0  0  0  0  0  0  0  0  0  0  0  0
  -27.1616  -21.5809   16.9563 N   0  0  0  0  0  0  0  0  0  0  0  0
  -20.6731  -27.1964   15.8702 N   0  3  0  0  0  0  0  0  0  0  0  0
  -27.6359  -17.8089   24.6664 O   0  0  0  0  0  0  0  0  0  0  0  0
  -23.3916  -29.4980   23.4535 O   0  0  0  0  0  0  0  0  0  0  0  0
  -20.6235  -30.1948   20.9944 O   0  0  0  0  0  0  0  0  0  0  0  0
  -21.6457  -26.3701   18.3777 O   0  0  0  0  0  0  0  0  0  0  0  0
  -25.4357  -23.0528   16.6223 O   0  0  0  0  0  0  0  0  0  0  0  0
  -25.9516  -11.4305   20.5354 O   0  0  0  0  0  0  0  0  0  0  0  0
  -28.2410  -26.5972   20.0515 O   0  0  0  0  0  0  0  0  0  1  0  0
  -21.2613   -9.2895   18.5806 F   0  0  0  0  0  0  0  0  0  0  0  0
  -24.5659   -9.5105   21.9624 F   0  0  0  0  0  0  0  0  0  0  0  0
  -29.3509  -20.6405   18.1164 F   0  0  0  0  0  0  0  0  0  0  0  0
  1  2  1  0  0  0  0
  1  5  2  0  0  0  0
  2  6  2  0  0  0  0
  3  8  2  0  0  0  0
  3 16  1  0  0  0  0
  4  9  1  0  0  0  0
  4 16  2  0  0  0  0
  5 18  1  0  0  0  0
  6 20  1  0  0  0  0
  7 10  2  0  0  0  0
  7 19  1  0  0  0  0
  8 22  1  0  0  0  0
  9 22  2  0  0  0  0
 10 23  1  0  0  0  0
 11 12  2  0  0  0  0
 11 24  1  0  0  0  0
 12 25  1  0  0  0  0
 13 21  1  0  0  0  0
 13 23  2  0  0  0  0
 14 25  2  0  0  0  0
 14 26  1  0  0  0  0
 15 28  1  0  0  0  0
 15 29  2  0  0  0  0
 16 27  1  0  0  0  0
 17 27  1  0  0  0  0
 17 30  2  0  0  0  0
 17 32  1  0  0  0  0
 18 20  2  0  0  0  0
 18 37  1  0  0  0  0
 19 21  2  0  0  0  0
 19 38  1  0  0  0  0
 20 46  1  0  0  0  0
 21 39  1  0  0  0  0
 22 83  1  0  0  0  0
 23 84  1  0  0  0  0
 24 26  2  0  0  0  0
 24 83  1  0  0  0  0
 25 85  1  0  0  0  0
 26 86  1  0  0  0  0
 27 66  2  0  0  0  0
 28 58  1  0  0  0  0
 28 67  2  0  0  0  0
 29 63  1  0  0  0  0
 29 68  1  0  0  0  0
 30 69  1  0  0  0  0
 30 72  1  0  0  0  0
 31 49  1  0  0  0  0
 31 67  1  0  0  0  0
 31 68  2  0  0  0  0
 32 73  1  0  0  0  0
 32 78  2  0  0  0  0
 33 47  1  0  0  0  0
 33 74  1  0  0  0  0
 33 79  2  0  0  0  0
 34 61  1  0  0  0  0
 34 70  1  0  0  0  0
 34 80  2  0  0  0  0
 35 62  1  0  0  0  0
 35 75  1  0  0  0  0
 35 81  2  0  0  0  0
 36 71  1  0  0  0  0
 36 76  1  0  0  0  0
 36 82  2  0  0  0  0
 37 40  1  0  0  0  0
 38 47  1  0  0  0  0
 39 70  1  0  0  0  0
 40 42  1  0  0  0  0
 41 43  1  0  0  0  0
 41 44  1  0  0  0  0
 42 46  1  0  0  0  0
 43 48  1  0  0  0  0
 44 71  1  0  0  0  0
 45 48  1  0  0  0  0
 45 71  1  0  0  0  0
 46 74  1  0  0  0  0
 47 70  1  0  0  0  0
 48 69  1  0  0  0  0
 50 62  1  0  0  0  0
 51 63  1  0  0  0  0
 52 64  1  0  0  0  0
 53 64  1  0  0  0  0
 54 64  1  0  0  0  0
 55 65  1  0  0  0  0
 56 65  1  0  0  0  0
 57 77  1  0  0  0  0
 58 60  1  0  0  0  0
 59 65  1  0  0  0  0
 59 76  1  0  0  0  0
 60 84  1  0  0  0  0
 61 64  1  0  0  0  0
 61 75  1  0  0  0  0
 62 77  1  0  0  0  0
 63 65  1  0  0  0  0
 63 87  1  0  0  0  0
 66 69  1  0  0  0  0
M  CHG  1  77   1
M  ISO  4  36 100  60 101  76 100  84 101
M  END
> <Batch ID>
0075

> <Smiles>
CNC(C)C(=O)NC(C(=O)N1Cc2cc([101O:1][101CH2:1]Cc3cc(C(C)(F)C(C)(C)C[100NH:0][100C:0](=O)N4CCCC(n5nc(-c6ccc(Oc7ccc(F)cc7F)cc6)c(C(N)=O)c5N)C4)nc(C)n3)ccc2CC1C(=O)NC1CCCc2ccccc21)C(C)(C)C

> <Shape>
0.251

> <Color>
0.090

> <Negative vol penalty>
0.000

$$$$

  -OEChem-04052318323D

 86 94  0     1  0  0  0  0  0999 V2000
  -16.7793  -28.9985   24.1176 C   0  0  0  0  0  0  0  0  0  0  0  0
  -17.1429  -28.2817   22.9821 C   0  0  0  0  0  0  0  0  0  0  0  0
  -25.1059  -13.6890   21.9212 C   0  0  0  0  0  0  0  0  0  0  0  0
  -25.9284  -13.6748   19.6495 C   0  0  0  0  0  0  0  0  0  0  0  0
  -17.5985  -30.0256   24.5842 C   0  0  0  0  0  0  0  0  0  0  0  0
  -18.3255  -28.5923   22.3118 C   0  0  0  0  0  0  0  0  0  0  0  0
  -22.0679  -24.6836   19.4445 C   0  0  0  0  0  0  0  0  0  0  0  0
  -24.3866  -12.5211   21.6681 C   0  0  0  0  0  0  0  0  0  0  0  0
  -25.2090  -12.5069   19.3964 C   0  0  0  0  0  0  0  0  0  0  0  0
  -22.2092  -24.3338   18.1023 C   0  0  0  0  0  0  0  0  0  0  0  0
  -21.4921  -11.6586   20.1506 C   0  0  0  0  0  0  0  0  0  0  0  0
  -20.1737  -11.5998   20.6020 C   0  0  0  0  0  0  0  0  0  0  0  0
  -24.0039  -25.9304   17.8813 C   0  0  0  0  0  0  0  0  0  0  0  0
  -20.7263   -9.6839   21.9663 C   0  0  0  0  0  0  0  0  0  0  0  0
  -28.4865  -21.7685   14.6757 C   0  0  0  0  0  0  0  0  0  0  0  0
  -28.5451  -23.6747   13.5714 C   0  0  0  0  0  0  0  0  0  0  0  0
  -25.8768  -14.2659   20.9119 C   0  0  0  0  0  0  0  0  0  0  0  0
  -27.9404  -15.5716   21.6499 C   0  0  0  0  0  0  0  0  0  0  0  0
  -18.7967  -30.3426   23.9249 C   0  0  0  0  0  0  0  0  0  0  0  0
  -22.8877  -25.6688   20.0133 C   0  0  0  0  0  0  0  0  0  0  0  0
  -19.1609  -29.6256   22.7693 C   0  0  0  0  0  0  0  0  0  0  0  0
  -23.8728  -26.2891   19.2316 C   0  0  0  0  0  0  0  0  0  0  0  0
  -24.4381  -11.9300   20.4057 C   0  0  0  0  0  0  0  0  0  0  0  0
  -23.1753  -24.9592   17.3197 C   0  0  0  0  0  0  0  0  0  0  0  0
  -22.4277  -10.7300   20.6069 C   0  0  0  0  0  0  0  0  0  0  0  0
  -19.7908  -10.6124   21.5099 C   0  0  0  0  0  0  0  0  0  0  0  0
  -22.0448   -9.7427   21.5148 C   0  0  0  0  0  0  0  0  0  0  0  0
  -26.6197  -15.4727   21.1726 C   0  0  0  0  0  0  0  0  0  0  0  0
  -29.7493  -22.3124   14.6780 C   0  0  0  0  0  0  0  0  0  0  0  0
  -28.1776  -16.9222   21.7265 C   0  0  0  0  0  0  0  0  0  0  0  0
  -28.8697  -14.5351   21.9933 C   0  0  0  0  0  0  0  0  0  0  0  0
  -22.3843  -28.5087   21.3496 C   0  0  0  0  0  0  0  0  0  0  0  0
  -25.5608  -28.3383   21.9846 C   0  0  0  0  0  0  0  0  0  0  0  0
  -28.6107  -27.0362   21.1788 C   0  0  0  0  0  0  0  0  0  0  0  0
  -27.8554  -22.0511   19.5500 C   0  0  0  0  0  0  0  0  0  0  0  0
  -19.6261  -31.4925   24.4393 C   0  0  0  0  0  0  0  0  0  0  0  0
  -22.7406  -26.0157   21.4695 C   0  0  0  0  0  0  0  0  0  0  0  0
  -24.7916  -27.3386   19.7996 C   0  0  0  0  0  0  0  0  0  0  0  0
  -21.0496  -31.5111   23.8884 C   0  0  0  0  0  0  0  0  0  0  0  0
  -25.0136  -20.8484   21.3261 C   0  0  0  0  0  0  0  0  0  0  0  0
  -21.0411  -31.2866   22.3797 C   0  0  0  0  0  0  0  0  0  0  0  0
  -25.2842  -19.3506   21.4782 C   0  0  0  0  0  0  0  0  0  0  0  0
  -25.5109  -21.3783   19.9831 C   0  0  0  0  0  0  0  0  0  0  0  0
  -27.1959  -19.5856   19.8384 C   0  0  0  0  0  0  0  0  0  0  0  0
  -20.4485  -29.9164   22.0291 C   0  0  1  0  0  0  0  0  0  0  0  0
  -23.2855  -27.3989   21.8122 C   0  0  1  0  0  0  0  0  0  0  0  0
  -26.7622  -19.0168   21.2002 C   0  0  2  0  0  0  0  0  0  0  0  0
  -31.0631  -26.5475   21.3892 C   0  0  0  0  0  0  0  0  0  0  0  0
  -31.3235  -20.3657   14.7114 C   0  0  0  0  0  0  0  0  0  0  0  0
  -32.2857  -22.6185   15.0850 C   0  0  0  0  0  0  0  0  0  0  0  0
  -25.8490  -31.0604   20.6366 C   0  0  0  0  0  0  0  0  0  0  0  0
  -28.3141  -30.6487   20.4892 C   0  0  0  0  0  0  0  0  0  0  0  0
  -27.2043  -30.7791   22.7195 C   0  0  0  0  0  0  0  0  0  0  0  0
  -28.1106  -24.6638   22.8761 C   0  0  0  0  0  0  0  0  0  0  0  0
  -25.3431  -22.9059   14.8295 C   0  0  0  0  0  0  0  0  0  0  0  0
  -30.4629  -22.8380   17.6478 C   0  0  0  0  0  0  0  0  0  0  0  0
  -23.8569  -22.8595   14.4710 C   0  0  0  0  0  0  0  0  0  0  0  0
  -30.8384  -21.5642   16.8718 C   0  0  0  0  0  0  0  0  0  0  0  0
  -26.2550  -22.5222   13.6586 C   0  0  0  0  0  0  0  0  0  0  0  0
  -30.2469  -22.5685   19.1353 C   0  0  0  0  0  0  0  0  0  0  0  0
  -22.9848  -23.2801   15.6463 C   0  0  0  0  0  0  0  0  0  1  0  0
  -26.8195  -28.7506   21.2602 C   0  0  1  0  0  0  0  0  0  0  0  0
  -29.6934  -26.4029   22.0340 C   0  0  2  0  0  0  0  0  0  0  0  0
  -30.9690  -21.7789   15.3032 C   0  0  0  0  0  0  0  0  0  0  0  0
  -27.0283  -30.2913   21.2649 C   0  0  0  0  0  0  0  0  0  0  0  0
  -29.7791  -23.4991   13.9892 N   0  0  0  0  0  0  0  0  0  0  0  0
  -26.0573  -16.6655   20.9610 N   0  0  0  0  0  0  0  0  0  0  0  0
  -27.7261  -22.6526   13.9635 N   0  0  0  0  0  0  0  0  0  0  0  0
  -27.0292  -17.5267   21.3070 N   0  0  0  0  0  0  0  0  0  0  0  0
  -24.6044  -27.6478   21.2268 N   0  0  0  0  0  0  0  0  0  0  0  0
  -26.9194  -21.0296   19.7817 N   0  0  0  0  0  0  0  0  0  0  0  0
  -29.2544  -17.6399   22.1110 N   0  0  0  0  0  0  0  0  0  0  0  0
  -28.4635  -13.2009   21.8554 N   0  0  0  0  0  0  0  0  0  0  0  0
  -21.4186  -28.8697   22.2696 N   0  0  0  0  0  0  0  0  0  0  0  0
  -27.9085  -27.9982   21.8736 N   0  0  0  0  0  0  0  0  0  0  0  0
  -29.1695  -21.6346   19.3759 N   0  0  0  0  0  0  0  0  0  0  0  0
  -29.4166  -24.9516   22.2291 N   0  3  0  0  0  0  0  0  0  0  0  0
  -30.0204  -14.7849   22.4258 O   0  0  0  0  0  0  0  0  0  0  0  0
  -22.5536  -29.0020   20.2407 O   0  0  0  0  0  0  0  0  0  0  0  0
  -25.4340  -28.6124   23.1806 O   0  0  0  0  0  0  0  0  0  0  0  0
  -28.4105  -26.7126   20.0102 O   0  0  0  0  0  0  0  0  0  0  0  0
  -27.5439  -23.2461   19.5072 O   0  0  0  0  0  0  0  0  0  0  0  0
  -23.7365  -10.7903   20.1584 O   0  0  0  0  0  0  0  0  0  0  0  0
  -23.3149  -24.6202   16.0092 O   0  0  0  0  0  0  0  0  0  1  0  0
  -18.5250  -10.5570   21.9445 F   0  0  0  0  0  0  0  0  0  0  0  0
  -22.9394   -8.8486   21.9577 F   0  0  0  0  0  0  0  0  0  0  0  0
  1  2  1  0  0  0  0
  1  5  2  0  0  0  0
  2  6  2  0  0  0  0
  3  8  2  0  0  0  0
  3 17  1  0  0  0  0
  4  9  1  0  0  0  0
  4 17  2  0  0  0  0
  5 19  1  0  0  0  0
  6 21  1  0  0  0  0
  7 10  2  0  0  0  0
  7 20  1  0  0  0  0
  8 23  1  0  0  0  0
  9 23  2  0  0  0  0
 10 24  1  0  0  0  0
 11 12  2  0  0  0  0
 11 25  1  0  0  0  0
 12 26  1  0  0  0  0
 13 22  1  0  0  0  0
 13 24  2  0  0  0  0
 14 26  2  0  0  0  0
 14 27  1  0  0  0  0
 15 29  2  0  0  0  0
 15 68  1  0  0  0  0
 16 66  2  0  0  0  0
 16 68  1  0  0  0  0
 17 28  1  0  0  0  0
 18 28  1  0  0  0  0
 18 30  2  0  0  0  0
 18 31  1  0  0  0  0
 19 21  2  0  0  0  0
 19 36  1  0  0  0  0
 20 22  2  0  0  0  0
 20 37  1  0  0  0  0
 21 45  1  0  0  0  0
 22 38  1  0  0  0  0
 23 83  1  0  0  0  0
 24 84  1  0  0  0  0
 25 27  2  0  0  0  0
 25 83  1  0  0  0  0
 26 85  1  0  0  0  0
 27 86  1  0  0  0  0
 28 67  2  0  0  0  0
 29 64  1  0  0  0  0
 29 66  1  0  0  0  0
 30 69  1  0  0  0  0
 30 72  1  0  0  0  0
 31 73  1  0  0  0  0
 31 78  2  0  0  0  0
 32 46  1  0  0  0  0
 32 74  1  0  0  0  0
 32 79  2  0  0  0  0
 33 62  1  0  0  0  0
 33 70  1  0  0  0  0
 33 80  2  0  0  0  0
 34 63  1  0  0  0  0
 34 75  1  0  0  0  0
 34 81  2  0  0  0  0
 35 71  1  0  0  0  0
 35 76  1  0  0  0  0
 35 82  2  0  0  0  0
 36 39  1  0  0  0  0
 37 46  1  0  0  0  0
 38 70  1  0  0  0  0
 39 41  1  0  0  0  0
 40 42  1  0  0  0  0
 40 43  1  0  0  0  0
 41 45  1  0  0  0  0
 42 47  1  0  0  0  0
 43 71  1  0  0  0  0
 44 47  1  0  0  0  0
 44 71  1  0  0  0  0
 45 74  1  0  0  0  0
 46 70  1  0  0  0  0
 47 69  1  0  0  0  0
 48 63  1  0  0  0  0
 49 64  1  0  0  0  0
 50 64  1  0  0  0  0
 51 65  1  0  0  0  0
 52 65  1  0  0  0  0
 53 65  1  0  0  0  0
 54 77  1  0  0  0  0
 55 57  1  0  0  0  0
 55 59  1  0  0  0  0
 56 58  1  0  0  0  0
 56 60  1  0  0  0  0
 57 61  1  0  0  0  0
 58 64  1  0  0  0  0
 59 68  1  0  0  0  0
 60 76  1  0  0  0  0
 61 84  1  0  0  0  0
 62 65  1  0  0  0  0
 62 75  1  0  0  0  0
 63 77  1  0  0  0  0
 67 69  1  0  0  0  0
M  CHG  1  77   1
M  ISO  4  35 100  61 101  76 100  84 101
M  END
> <Batch ID>
0075

> <Smiles>
CNC(C)C(=O)NC(C(=O)N1Cc2cc([101O:1][101CH2:1]CCCn3cnc(C(C)(C)CCC[100NH:0][100C:0](=O)N4CCCC(n5nc(-c6ccc(Oc7ccc(F)cc7F)cc6)c(C(N)=O)c5N)C4)c3)ccc2CC1C(=O)NC1CCCc2ccccc21)C(C)(C)C

> <Shape>
0.228

> <Color>
0.070

> <Negative vol penalty>
0.000

$$$$

  -OEChem-04052318323D

 80 88  0     1  0  0  0  0  0999 V2000
  -22.7202  -20.2339   25.3709 C   0  0  0  0  0  0  0  0  0  0  0  0
  -23.9988  -20.5887   24.9531 C   0  0  0  0  0  0  0  0  0  0  0  0
  -24.8567  -13.5811   19.5386 C   0  0  0  0  0  0  0  0  0  0  0  0
  -25.5847  -13.2396   21.8169 C   0  0  0  0  0  0  0  0  0  0  0  0
  -21.6108  -20.9151   24.8718 C   0  0  0  0  0  0  0  0  0  0  0  0
  -24.1687  -21.6244   24.0349 C   0  0  0  0  0  0  0  0  0  0  0  0
  -28.7887  -25.6392   23.8272 C   0  0  0  0  0  0  0  0  0  0  0  0
  -24.9943  -12.2156   19.2899 C   0  0  0  0  0  0  0  0  0  0  0  0
  -25.7223  -11.8740   21.5682 C   0  0  0  0  0  0  0  0  0  0  0  0
  -29.9511  -25.6927   23.0592 C   0  0  0  0  0  0  0  0  0  0  0  0
  -25.9199   -8.2443   21.6360 C   0  0  0  0  0  0  0  0  0  0  0  0
  -25.4202   -7.3572   22.5893 C   0  0  0  0  0  0  0  0  0  0  0  0
  -28.8447  -27.1613   21.4977 C   0  0  0  0  0  0  0  0  0  0  0  0
  -30.6379  -21.5326   18.2901 C   0  0  0  0  0  0  0  0  0  0  0  0
  -23.2080   -8.2808   22.2890 C   0  0  0  0  0  0  0  0  0  0  0  0
  -29.5813  -23.9514   18.9813 C   0  0  0  0  0  0  0  0  0  0  0  0
  -25.1519  -14.0932   20.8021 C   0  0  0  0  0  0  0  0  0  0  0  0
  -23.8628  -16.1718   21.5266 C   0  0  0  0  0  0  0  0  0  0  0  0
  -21.7678  -21.9660   23.9544 C   0  0  0  0  0  0  0  0  0  0  0  0
  -27.6402  -26.3388   23.4297 C   0  0  0  0  0  0  0  0  0  0  0  0
  -23.0603  -22.3194   23.5220 C   0  0  0  0  0  0  0  0  0  0  0  0
  -27.6698  -27.1171   22.2637 C   0  0  0  0  0  0  0  0  0  0  0  0
  -31.4503  -22.6609   18.2757 C   0  0  0  0  0  0  0  0  0  0  0  0
  -30.9194  -23.8974   18.6260 C   0  0  0  0  0  0  0  0  0  0  0  0
  -25.4271  -11.3620   20.3047 C   0  0  0  0  0  0  0  0  0  0  0  0
  -29.9783  -26.4514   21.8928 C   0  0  0  0  0  0  0  0  0  0  0  0
  -25.0637   -9.1498   21.0092 C   0  0  0  0  0  0  0  0  0  0  0  0
  -24.0642   -7.3754   22.9158 C   0  0  0  0  0  0  0  0  0  0  0  0
  -23.7078   -9.1680   21.3357 C   0  0  0  0  0  0  0  0  0  0  0  0
  -25.0105  -15.5038   21.0595 C   0  0  0  0  0  0  0  0  0  0  0  0
  -29.3121  -21.6925   18.6594 C   0  0  0  0  0  0  0  0  0  0  0  0
  -24.2405  -17.4901   21.6043 C   0  0  0  0  0  0  0  0  0  0  0  0
  -22.5707  -15.6476   21.8604 C   0  0  0  0  0  0  0  0  0  0  0  0
  -28.4087  -20.5358   18.6921 C   0  0  0  0  0  0  0  0  0  0  0  0
  -24.6808  -25.5136   22.6144 C   0  0  0  0  0  0  0  0  0  0  0  0
  -24.2130  -28.7233   22.5778 C   0  0  0  0  0  0  0  0  0  0  0  0
  -25.5595  -31.8441   22.2709 C   0  0  0  0  0  0  0  0  0  0  0  0
  -20.5357  -22.6417   23.4068 C   0  0  0  0  0  0  0  0  0  0  0  0
  -26.4026  -26.2923   24.2833 C   0  0  0  0  0  0  0  0  0  0  0  0
  -26.4699  -27.9030   21.8042 C   0  0  0  0  0  0  0  0  0  0  0  0
  -20.8256  -23.9750   22.7222 C   0  0  0  0  0  0  0  0  0  0  0  0
  -28.0779  -20.2580   22.2949 C   0  0  0  0  0  0  0  0  0  0  0  0
  -22.0174  -23.8430   21.7794 C   0  0  0  0  0  0  0  0  0  0  0  0
  -27.1534  -19.0466   22.4226 C   0  0  0  0  0  0  0  0  0  0  0  0
  -29.0405  -20.1014   21.1217 C   0  0  0  0  0  0  0  0  0  0  0  0
  -27.4433  -18.6313   19.9381 C   0  0  0  0  0  0  0  0  0  0  0  0
  -23.2870  -23.4537   22.5462 C   0  0  1  0  0  0  0  0  0  0  0  0
  -25.1313  -26.6318   23.5114 C   0  0  1  0  0  0  0  0  0  0  0  0
  -26.4342  -18.7523   21.0933 C   0  0  1  0  0  0  0  0  0  0  0  0
  -32.8838  -22.5230   17.8825 C   0  0  0  0  0  0  0  0  0  0  0  0
  -24.9218  -34.2711   22.2462 C   0  0  0  0  0  0  0  0  0  0  0  0
  -23.1276  -28.4068   19.7437 C   0  0  0  0  0  0  0  0  0  0  0  0
  -23.4047  -30.8760   19.4366 C   0  0  0  0  0  0  0  0  0  0  0  0
  -21.8466  -30.0048   21.1790 C   0  0  0  0  0  0  0  0  0  0  0  0
  -27.2335  -32.4276   24.6408 C   0  0  0  0  0  0  0  0  0  0  0  0
  -31.7542  -25.1531   18.6280 C   0  0  0  0  0  0  0  0  0  0  0  0
  -32.6939  -25.2661   19.8304 C   0  0  0  0  0  0  0  0  0  0  0  0
  -31.9603  -25.3580   21.1634 C   0  0  0  0  0  0  0  0  0  1  0  0
  -24.3417  -29.8107   21.5385 C   0  0  1  0  0  0  0  0  0  0  0  0
  -25.3854  -33.1025   23.1019 C   0  0  2  0  0  0  0  0  0  0  0  0
  -23.2023  -29.7583   20.4818 C   0  0  0  0  0  0  0  0  0  0  0  0
  -28.7609  -22.8771   19.0070 N   0  0  0  0  0  0  0  0  0  0  0  0
  -26.0402  -16.3295   20.8547 N   0  0  0  0  0  0  0  0  0  0  0  0
  -25.5408  -17.5300   21.1947 N   0  0  0  0  0  0  0  0  0  0  0  0
  -28.3063  -19.8129   19.8832 N   0  0  0  0  0  0  0  0  0  0  0  0
  -25.2816  -27.8204   22.6694 N   0  0  0  0  0  0  0  0  0  0  0  0
  -23.5839  -18.6074   21.9824 N   0  0  0  0  0  0  0  0  0  0  0  0
  -22.3526  -14.2700   21.7228 N   0  0  0  0  0  0  0  0  0  0  0  0
  -23.8392  -24.6051   23.2273 N   0  0  0  0  0  0  0  0  0  0  0  0
  -24.4189  -31.0694   22.2721 N   0  0  0  0  0  0  0  0  0  0  0  0
  -26.6737  -33.4771   23.7507 N   0  3  0  0  0  0  0  0  0  0  0  0
  -21.6322  -16.3815   22.2530 O   0  0  0  0  0  0  0  0  0  0  0  0
  -27.7953  -20.2971   17.6529 O   0  0  0  0  0  0  0  0  0  0  0  0
  -25.0670  -25.4787   21.4519 O   0  0  0  0  0  0  0  0  0  0  0  0
  -23.2047  -28.6811   23.2872 O   0  0  0  0  0  0  0  0  0  0  0  0
  -26.6018  -31.5771   21.6768 O   0  0  0  0  0  0  0  0  0  0  0  0
  -25.5613  -10.0294   20.0624 O   0  0  0  0  0  0  0  0  0  0  0  0
  -31.1114  -26.5048   21.1410 O   0  0  0  0  0  0  0  0  0  1  0  0
  -23.5841   -6.5223   23.8302 F   0  0  0  0  0  0  0  0  0  0  0  0
  -22.8801  -10.0347   20.7361 F   0  0  0  0  0  0  0  0  0  0  0  0
  1  2  1  0  0  0  0
  1  5  2  0  0  0  0
  2  6  2  0  0  0  0
  3  8  2  0  0  0  0
  3 17  1  0  0  0  0
  4  9  1  0  0  0  0
  4 17  2  0  0  0  0
  5 19  1  0  0  0  0
  6 21  1  0  0  0  0
  7 10  2  0  0  0  0
  7 20  1  0  0  0  0
  8 25  1  0  0  0  0
  9 25  2  0  0  0  0
 10 26  1  0  0  0  0
 11 12  2  0  0  0  0
 11 27  1  0  0  0  0
 12 28  1  0  0  0  0
 13 22  1  0  0  0  0
 13 26  2  0  0  0  0
 14 23  1  0  0  0  0
 14 31  2  0  0  0  0
 15 28  2  0  0  0  0
 15 29  1  0  0  0  0
 16 24  1  0  0  0  0
 16 62  2  0  0  0  0
 17 30  1  0  0  0  0
 18 30  1  0  0  0  0
 18 32  2  0  0  0  0
 18 33  1  0  0  0  0
 19 21  2  0  0  0  0
 19 38  1  0  0  0  0
 20 22  2  0  0  0  0
 20 39  1  0  0  0  0
 21 47  1  0  0  0  0
 22 40  1  0  0  0  0
 23 24  2  0  0  0  0
 23 50  1  0  0  0  0
 24 56  1  0  0  0  0
 25 77  1  0  0  0  0
 26 78  1  0  0  0  0
 27 29  2  0  0  0  0
 27 77  1  0  0  0  0
 28 79  1  0  0  0  0
 29 80  1  0  0  0  0
 30 63  2  0  0  0  0
 31 34  1  0  0  0  0
 31 62  1  0  0  0  0
 32 64  1  0  0  0  0
 32 67  1  0  0  0  0
 33 68  1  0  0  0  0
 33 72  2  0  0  0  0
 34 65  1  0  0  0  0
 34 73  2  0  0  0  0
 35 48  1  0  0  0  0
 35 69  1  0  0  0  0
 35 74  2  0  0  0  0
 36 59  1  0  0  0  0
 36 66  1  0  0  0  0
 36 75  2  0  0  0  0
 37 60  1  0  0  0  0
 37 70  1  0  0  0  0
 37 76  2  0  0  0  0
 38 41  1  0  0  0  0
 39 48  1  0  0  0  0
 40 66  1  0  0  0  0
 41 43  1  0  0  0  0
 42 44  1  0  0  0  0
 42 45  1  0  0  0  0
 43 47  1  0  0  0  0
 44 49  1  0  0  0  0
 45 65  1  0  0  0  0
 46 49  1  0  0  0  0
 46 65  1  0  0  0  0
 47 69  1  0  0  0  0
 48 66  1  0  0  0  0
 49 64  1  0  0  0  0
 51 60  1  0  0  0  0
 52 61  1  0  0  0  0
 53 61  1  0  0  0  0
 54 61  1  0  0  0  0
 55 71  1  0  0  0  0
 56 57  1  0  0  0  0
 57 58  1  0  0  0  0
 58 78  1  0  0  0  0
 59 61  1  0  0  0  0
 59 70  1  0  0  0  0
 60 71  1  0  0  0  0
 63 64  1  0  0  0  0
M  CHG  1  71   1
M  ISO  4  31 100  34 100  58 101  78 101
M  END
> <Batch ID>
0075

> <Smiles>
CNC(C)C(=O)NC(C(=O)N1Cc2cc([101O:1][101CH2:1]CCc3cn[100c:0]([100C:0](=O)N4CCCC(n5nc(-c6ccc(Oc7ccc(F)cc7F)cc6)c(C(N)=O)c5N)C4)cc3C)ccc2CC1C(=O)NC1CCCc2ccccc21)C(C)(C)C

> <Shape>
0.216

> <Color>
0.067

> <Negative vol penalty>
0.000

$$$$

  -OEChem-04052318323D

 85 93  0     1  0  0  0  0  0999 V2000
  -27.6677  -20.6129   25.7445 C   0  0  0  0  0  0  0  0  0  0  0  0
  -27.8649  -21.7707   24.9988 C   0  0  0  0  0  0  0  0  0  0  0  0
  -25.3145  -13.5962   21.2760 C   0  0  0  0  0  0  0  0  0  0  0  0
  -26.1141  -13.3650   19.0079 C   0  0  0  0  0  0  0  0  0  0  0  0
  -26.4194  -19.9920   25.7488 C   0  0  0  0  0  0  0  0  0  0  0  0
  -26.8140  -22.3076   24.2560 C   0  0  0  0  0  0  0  0  0  0  0  0
  -26.4370  -27.3311   24.7737 C   0  0  0  0  0  0  0  0  0  0  0  0
  -24.3790  -12.5868   21.0491 C   0  0  0  0  0  0  0  0  0  0  0  0
  -25.1786  -12.3555   18.7810 C   0  0  0  0  0  0  0  0  0  0  0  0
  -27.3372  -28.1147   24.0531 C   0  0  0  0  0  0  0  0  0  0  0  0
  -24.3450   -9.2088   20.9043 C   0  0  0  0  0  0  0  0  0  0  0  0
  -24.2025   -8.2252   21.8830 C   0  0  0  0  0  0  0  0  0  0  0  0
  -25.6374  -28.5297   22.3925 C   0  0  0  0  0  0  0  0  0  0  0  0
  -21.8809   -8.8352   22.1579 C   0  0  0  0  0  0  0  0  0  0  0  0
  -28.5377  -25.2824   20.0412 C   0  0  0  0  0  0  0  0  0  0  0  0
  -26.1820  -13.9853   20.2553 C   0  0  0  0  0  0  0  0  0  0  0  0
  -28.4634  -14.8772   20.9677 C   0  0  0  0  0  0  0  0  0  0  0  0
  -25.3500  -20.5270   25.0134 C   0  0  0  0  0  0  0  0  0  0  0  0
  -25.1313  -27.1316   24.3027 C   0  0  0  0  0  0  0  0  0  0  0  0
  -25.5506  -21.6925   24.2494 C   0  0  0  0  0  0  0  0  0  0  0  0
  -24.7218  -27.7452   23.1103 C   0  0  0  0  0  0  0  0  0  0  0  0
  -24.3110  -11.9664   19.8017 C   0  0  0  0  0  0  0  0  0  0  0  0
  -26.9384  -28.7119   22.8608 C   0  0  0  0  0  0  0  0  0  0  0  0
  -23.2555  -10.0056   20.5524 C   0  0  0  0  0  0  0  0  0  0  0  0
  -22.9704   -8.0384   22.5097 C   0  0  0  0  0  0  0  0  0  0  0  0
  -22.0235   -9.8188   21.1792 C   0  0  0  0  0  0  0  0  0  0  0  0
  -27.1483  -15.0284   20.4889 C   0  0  0  0  0  0  0  0  0  0  0  0
  -29.7486  -24.6894   19.7593 C   0  0  0  0  0  0  0  0  0  0  0  0
  -30.6877  -26.7521   19.4539 C   0  0  0  0  0  0  0  0  0  0  0  0
  -29.4765  -27.3451   19.7351 C   0  0  0  0  0  0  0  0  0  0  0  0
  -28.9618  -16.1563   21.0121 C   0  0  0  0  0  0  0  0  0  0  0  0
  -29.1713  -13.6870   21.3391 C   0  0  0  0  0  0  0  0  0  0  0  0
  -23.4356  -24.6001   23.3973 C   0  0  0  0  0  0  0  0  0  0  0  0
  -29.6963  -21.0350   18.5754 C   0  0  0  0  0  0  0  0  0  0  0  0
  -21.0264  -26.7650   23.2196 C   0  0  0  0  0  0  0  0  0  0  0  0
  -20.0805  -30.0232   22.8506 C   0  0  0  0  0  0  0  0  0  0  0  0
  -24.0319  -19.7941   25.0113 C   0  0  0  0  0  0  0  0  0  0  0  0
  -24.1642  -26.3053   25.1054 C   0  0  0  0  0  0  0  0  0  0  0  0
  -23.3250  -27.5788   22.5719 C   0  0  0  0  0  0  0  0  0  0  0  0
  -22.8676  -20.6361   24.4957 C   0  0  0  0  0  0  0  0  0  0  0  0
  -26.6511  -20.6200   20.5199 C   0  0  0  0  0  0  0  0  0  0  0  0
  -23.2587  -21.3573   23.2097 C   0  0  0  0  0  0  0  0  0  0  0  0
  -26.6059  -19.1028   20.6971 C   0  0  0  0  0  0  0  0  0  0  0  0
  -27.2224  -21.0094   19.1590 C   0  0  0  0  0  0  0  0  0  0  0  0
  -28.5269  -18.9088   19.0585 C   0  0  0  0  0  0  0  0  0  0  0  0
  -24.4284  -22.3192   23.4505 C   0  0  1  0  0  0  0  0  0  0  0  0
  -23.0156  -25.7496   24.2691 C   0  0  1  0  0  0  0  0  0  0  0  0
  -27.9852  -18.4748   20.4307 C   0  0  2  0  0  0  0  0  0  0  0  0
  -31.8932  -27.5649   19.1256 C   0  0  0  0  0  0  0  0  0  0  0  0
  -18.0410  -31.4782   22.7075 C   0  0  0  0  0  0  0  0  0  0  0  0
  -20.5557  -25.8193   20.3571 C   0  0  0  0  0  0  0  0  0  0  0  0
  -19.2064  -27.8921   19.9682 C   0  0  0  0  0  0  0  0  0  0  0  0
  -18.4710  -26.2296   21.6763 C   0  0  0  0  0  0  0  0  0  0  0  0
  -20.8579  -31.5496   25.2640 C   0  0  0  0  0  0  0  0  0  0  0  0
  -29.8857  -23.2072   19.7754 C   0  0  0  0  0  0  0  0  0  0  0  0
  -29.3135  -28.8440   19.7241 C   0  0  0  0  0  0  0  0  0  0  0  0
  -29.8943  -29.5359   20.9592 C   0  0  0  0  0  0  0  0  0  0  0  0
  -29.1982  -29.1400   22.2562 C   0  0  0  0  0  0  0  0  0  1  0  0
  -29.6029  -22.5317   18.4177 C   0  0  1  0  0  0  0  0  0  0  0  0
  -20.4881  -27.6797   22.1461 C   0  0  1  0  0  0  0  0  0  0  0  0
  -19.0957  -30.8801   23.6254 C   0  0  2  0  0  0  0  0  0  0  0  0
  -30.5753  -22.9638   17.3281 C   0  0  0  0  0  0  0  0  0  0  0  0
  -19.7073  -26.9069   21.0458 C   0  0  0  0  0  0  0  0  0  0  0  0
  -28.3799  -26.6209   20.0341 N   0  0  0  0  0  0  0  0  0  0  0  0
  -26.8311  -16.3030   20.2466 N   0  0  0  0  0  0  0  0  0  0  0  0
  -30.8453  -25.4136   19.4606 N   0  0  0  0  0  0  0  0  0  0  0  0
  -27.9540  -16.9645   20.5745 N   0  0  0  0  0  0  0  0  0  0  0  0
  -22.4181  -26.7564   23.3897 N   0  0  0  0  0  0  0  0  0  0  0  0
  -28.5235  -20.3691   18.9322 N   0  0  0  0  0  0  0  0  0  0  0  0
  -30.1594  -16.6574   21.3824 N   0  0  0  0  0  0  0  0  0  0  0  0
  -28.5103  -12.4557   21.2324 N   0  0  0  0  0  0  0  0  0  0  0  0
  -23.9634  -23.5295   24.0935 N   0  0  0  0  0  0  0  0  0  0  0  0
  -19.7013  -28.6976   22.8339 N   0  0  0  0  0  0  0  0  0  0  0  0
  -19.8075  -31.9947   24.3123 N   0  3  0  0  0  0  0  0  0  0  0  0
  -30.3494  -13.7161   21.7688 O   0  0  0  0  0  0  0  0  0  0  0  0
  -23.2901  -24.6781   22.1831 O   0  0  0  0  0  0  0  0  0  0  0  0
  -30.7806  -20.4766   18.3894 O   0  0  0  0  0  0  0  0  0  0  0  0
  -20.2405  -26.0885   23.8877 O   0  0  0  0  0  0  0  0  0  0  0  0
  -21.0838  -30.4842   22.3108 O   0  0  0  0  0  0  0  0  0  0  0  0
  -23.3984  -10.9812   19.5801 O   0  0  0  0  0  0  0  0  0  0  0  0
  -27.8152  -29.4767   22.1552 O   0  0  0  0  0  0  0  0  0  1  0  0
  -22.8333   -7.0928   23.4485 F   0  0  0  0  0  0  0  0  0  0  0  0
  -20.9729  -10.5804   20.8445 F   0  0  0  0  0  0  0  0  0  0  0  0
  -31.8396  -22.5881   17.6427 F   0  0  0  0  0  0  0  0  0  0  0  0
  -30.2612  -22.3488   16.1593 F   0  0  0  0  0  0  0  0  0  0  0  0
  1  2  1  0  0  0  0
  1  5  2  0  0  0  0
  2  6  2  0  0  0  0
  3  8  2  0  0  0  0
  3 16  1  0  0  0  0
  4  9  1  0  0  0  0
  4 16  2  0  0  0  0
  5 18  1  0  0  0  0
  6 20  1  0  0  0  0
  7 10  2  0  0  0  0
  7 19  1  0  0  0  0
  8 22  1  0  0  0  0
  9 22  2  0  0  0  0
 10 23  1  0  0  0  0
 11 12  2  0  0  0  0
 11 24  1  0  0  0  0
 12 25  1  0  0  0  0
 13 21  1  0  0  0  0
 13 23  2  0  0  0  0
 14 25  2  0  0  0  0
 14 26  1  0  0  0  0
 15 28  1  0  0  0  0
 15 64  2  0  0  0  0
 16 27  1  0  0  0  0
 17 27  1  0  0  0  0
 17 31  2  0  0  0  0
 17 32  1  0  0  0  0
 18 20  2  0  0  0  0
 18 37  1  0  0  0  0
 19 21  2  0  0  0  0
 19 38  1  0  0  0  0
 20 46  1  0  0  0  0
 21 39  1  0  0  0  0
 22 80  1  0  0  0  0
 23 81  1  0  0  0  0
 24 26  2  0  0  0  0
 24 80  1  0  0  0  0
 25 82  1  0  0  0  0
 26 83  1  0  0  0  0
 27 65  2  0  0  0  0
 28 55  1  0  0  0  0
 28 66  2  0  0  0  0
 29 30  2  0  0  0  0
 29 49  1  0  0  0  0
 29 66  1  0  0  0  0
 30 56  1  0  0  0  0
 30 64  1  0  0  0  0
 31 67  1  0  0  0  0
 31 70  1  0  0  0  0
 32 71  1  0  0  0  0
 32 75  2  0  0  0  0
 33 47  1  0  0  0  0
 33 72  1  0  0  0  0
 33 76  2  0  0  0  0
 34 59  1  0  0  0  0
 34 69  1  0  0  0  0
 34 77  2  0  0  0  0
 35 60  1  0  0  0  0
 35 68  1  0  0  0  0
 35 78  2  0  0  0  0
 36 61  1  0  0  0  0
 36 73  1  0  0  0  0
 36 79  2  0  0  0  0
 37 40  1  0  0  0  0
 38 47  1  0  0  0  0
 39 68  1  0  0  0  0
 40 42  1  0  0  0  0
 41 43  1  0  0  0  0
 41 44  1  0  0  0  0
 42 46  1  0  0  0  0
 43 48  1  0  0  0  0
 44 69  1  0  0  0  0
 45 48  1  0  0  0  0
 45 69  1  0  0  0  0
 46 72  1  0  0  0  0
 47 68  1  0  0  0  0
 48 67  1  0  0  0  0
 50 61  1  0  0  0  0
 51 63  1  0  0  0  0
 52 63  1  0  0  0  0
 53 63  1  0  0  0  0
 54 74  1  0  0  0  0
 55 59  1  0  0  0  0
 56 57  1  0  0  0  0
 57 58  1  0  0  0  0
 58 81  1  0  0  0  0
 59 62  1  0  0  0  0
 60 63  1  0  0  0  0
 60 73  1  0  0  0  0
 61 74  1  0  0  0  0
 62 84  1  0  0  0  0
 62 85  1  0  0  0  0
 65 67  1  0  0  0  0
M  CHG  1  74   1
M  ISO  4  34 100  58 101  59 100  81 101
M  END
> <Batch ID>
0075

> <Smiles>
CNC(C)C(=O)NC(C(=O)N1Cc2cc([101O:1][101CH2:1]CCc3ncc(C[100CH:0](C(F)F)[100C:0](=O)N4CCCC(n5nc(-c6ccc(Oc7ccc(F)cc7F)cc6)c(C(N)=O)c5N)C4)nc3C)ccc2CC1C(=O)NC1CCCc2ccccc21)C(C)(C)C

> <Shape>
0.266

> <Color>
0.069

> <Negative vol penalty>
0.000

$$$$

  -OEChem-04052318323D

 82 90  0     1  0  0  0  0  0999 V2000
  -32.3705  -12.7743   21.6042 C   0  0  0  0  0  0  0  0  0  0  0  0
  -31.9423  -14.0841   21.7954 C   0  0  0  0  0  0  0  0  0  0  0  0
  -29.9846  -23.9019   18.8110 C   0  0  0  0  0  0  0  0  0  0  0  0
  -28.8293  -23.6679   20.9199 C   0  0  0  0  0  0  0  0  0  0  0  0
  -31.5945  -11.8908   20.8551 C   0  0  0  0  0  0  0  0  0  0  0  0
  -30.7384  -14.5114   21.2367 C   0  0  0  0  0  0  0  0  0  0  0  0
  -25.2713  -18.9670   22.4922 C   0  0  0  0  0  0  0  0  0  0  0  0
  -30.1053  -22.5151   18.7232 C   0  0  0  0  0  0  0  0  0  0  0  0
  -28.9500  -22.2811   20.8321 C   0  0  0  0  0  0  0  0  0  0  0  0
  -24.5554  -19.9933   21.8776 C   0  0  0  0  0  0  0  0  0  0  0  0
  -31.3383  -19.9492   21.3695 C   0  0  0  0  0  0  0  0  0  0  0  0
  -31.7417  -19.2601   22.5132 C   0  0  0  0  0  0  0  0  0  0  0  0
  -23.2590  -18.3570   20.6688 C   0  0  0  0  0  0  0  0  0  0  0  0
  -29.6767  -18.0063   22.4861 C   0  0  0  0  0  0  0  0  0  0  0  0
  -24.8850  -26.1136   16.2093 C   0  0  0  0  0  0  0  0  0  0  0  0
  -23.5322  -27.2153   17.5476 C   0  0  0  0  0  0  0  0  0  0  0  0
  -29.3466  -24.4784   19.9094 C   0  0  0  0  0  0  0  0  0  0  0  0
  -30.2664  -26.8545   20.0356 C   0  0  0  0  0  0  0  0  0  0  0  0
  -30.3757  -12.3048   20.2950 C   0  0  0  0  0  0  0  0  0  0  0  0
  -24.9934  -17.6259   22.1910 C   0  0  0  0  0  0  0  0  0  0  0  0
  -29.9460  -13.6330   20.4782 C   0  0  0  0  0  0  0  0  0  0  0  0
  -23.9712  -17.3154   21.2828 C   0  0  0  0  0  0  0  0  0  0  0  0
  -23.7924  -25.9497   17.0818 C   0  0  0  0  0  0  0  0  0  0  0  0
  -29.5880  -21.7047   19.7337 C   0  0  0  0  0  0  0  0  0  0  0  0
  -23.5510  -19.6885   20.9635 C   0  0  0  0  0  0  0  0  0  0  0  0
  -30.1041  -19.6669   20.7841 C   0  0  0  0  0  0  0  0  0  0  0  0
  -30.9110  -18.2886   23.0714 C   0  0  0  0  0  0  0  0  0  0  0  0
  -29.2733  -18.6954   21.3424 C   0  0  0  0  0  0  0  0  0  0  0  0
  -29.2222  -25.9109   20.0010 C   0  0  0  0  0  0  0  0  0  0  0  0
  -29.6296  -28.0682   20.1251 C   0  0  0  0  0  0  0  0  0  0  0  0
  -31.6850  -26.6520   19.9907 C   0  0  0  0  0  0  0  0  0  0  0  0
  -26.6405  -15.2257   20.9142 C   0  0  0  0  0  0  0  0  0  0  0  0
  -23.9979  -13.5128   21.6919 C   0  0  0  0  0  0  0  0  0  0  0  0
  -24.1168  -29.8356   18.5135 C   0  0  0  0  0  0  0  0  0  0  0  0
  -20.6503  -13.4918   22.3548 C   0  0  0  0  0  0  0  0  0  0  0  0
  -29.5943  -11.3272   19.4533 C   0  0  0  0  0  0  0  0  0  0  0  0
  -25.7567  -16.5298   22.8826 C   0  0  0  0  0  0  0  0  0  0  0  0
  -23.6202  -15.8914   20.9403 C   0  0  0  0  0  0  0  0  0  0  0  0
  -28.1488  -11.7529   19.2094 C   0  0  0  0  0  0  0  0  0  0  0  0
  -25.6213  -30.0912   21.7557 C   0  0  0  0  0  0  0  0  0  0  0  0
  -28.0864  -13.2209   18.7995 C   0  0  0  0  0  0  0  0  0  0  0  0
  -26.7930  -29.1128   21.6858 C   0  0  0  0  0  0  0  0  0  0  0  0
  -24.4248  -29.5876   20.9544 C   0  0  0  0  0  0  0  0  0  0  0  0
  -25.9094  -28.2956   19.4550 C   0  0  0  0  0  0  0  0  0  0  0  0
  -28.6338  -14.1271   19.9089 C   0  0  1  0  0  0  0  0  0  0  0  0
  -25.7370  -15.2117   22.1147 C   0  0  1  0  0  0  0  0  0  0  0  0
  -27.1498  -28.7809   20.2260 C   0  0  2  0  0  0  0  0  0  0  0  0
  -18.7636  -11.9364   22.9193 C   0  0  0  0  0  0  0  0  0  0  0  0
  -23.6895  -30.1874   16.1018 C   0  0  0  0  0  0  0  0  0  0  0  0
  -26.0100  -29.9965   16.9982 C   0  0  0  0  0  0  0  0  0  0  0  0
  -23.9006  -12.5808   18.7881 C   0  0  0  0  0  0  0  0  0  0  0  0
  -21.5408  -11.8405   19.1777 C   0  0  0  0  0  0  0  0  0  0  0  0
  -23.4024  -10.8005   20.4723 C   0  0  0  0  0  0  0  0  0  0  0  0
  -20.1535  -14.8458   24.9391 C   0  0  0  0  0  0  0  0  0  0  0  0
  -23.0672  -24.6734   17.4268 C   0  0  0  0  0  0  0  0  0  0  0  0
  -23.6515  -23.9372   18.6376 C   0  0  0  0  0  0  0  0  0  0  0  0
  -22.9520  -22.6079   18.9247 C   0  0  0  0  0  0  0  0  0  0  0  0
  -23.5323  -21.9254   20.1560 C   0  0  0  0  0  0  0  0  0  1  0  0
  -22.7017  -13.1724   20.9969 C   0  0  1  0  0  0  0  0  0  0  0  0
  -19.8486  -12.8478   23.4715 C   0  0  2  0  0  0  0  0  0  0  0  0
  -24.5733  -29.4554   17.1275 C   0  0  0  0  0  0  0  0  0  0  0  0
  -22.8941  -12.1255   19.8635 C   0  0  0  0  0  0  0  0  0  0  0  0
  -25.2908  -27.3832   16.1240 N   0  0  0  0  0  0  0  0  0  0  0  0
  -28.0138  -26.4766   20.0636 N   0  0  0  0  0  0  0  0  0  0  0  0
  -24.4487  -28.0287   16.9489 N   0  0  0  0  0  0  0  0  0  0  0  0
  -28.2947  -27.7887   20.1385 N   0  0  0  0  0  0  0  0  0  0  0  0
  -24.3992  -14.8551   21.6381 N   0  0  0  0  0  0  0  0  0  0  0  0
  -24.8096  -29.2622   19.5799 N   0  0  0  0  0  0  0  0  0  0  0  0
  -30.0869  -29.3365   20.1930 N   0  0  0  0  0  0  0  0  0  0  0  0
  -32.3741  -26.4815   21.1992 N   0  0  0  0  0  0  0  0  0  0  0  0
  -27.6531  -14.2866   20.9611 N   0  0  0  0  0  0  0  0  0  0  0  0
  -21.7744  -12.7565   22.0435 N   0  0  0  0  0  0  0  0  0  0  0  0
  -19.2008  -13.8931   24.3133 N   0  3  0  0  0  0  0  0  0  0  0  0
  -32.3251  -26.6394   18.9120 O   0  0  0  0  0  0  0  0  0  0  0  0
  -26.4334  -16.0282   20.0116 O   0  0  0  0  0  0  0  0  0  0  0  0
  -24.6275  -12.6218   22.2676 O   0  0  0  0  0  0  0  0  0  0  0  0
  -23.1744  -30.6214   18.6425 O   0  0  0  0  0  0  0  0  0  0  0  0
  -20.3111  -14.5402   21.8103 O   0  0  0  0  0  0  0  0  0  0  0  0
  -29.7053  -20.3514   19.6483 O   0  0  0  0  0  0  0  0  0  0  0  0
  -22.8511  -20.6884   20.3617 O   0  0  0  0  0  0  0  0  0  1  0  0
  -31.2992  -17.6258   24.1688 F   0  0  0  0  0  0  0  0  0  0  0  0
  -28.0869  -18.4190   20.7839 F   0  0  0  0  0  0  0  0  0  0  0  0
  1  2  1  0  0  0  0
  1  5  2  0  0  0  0
  2  6  2  0  0  0  0
  3  8  2  0  0  0  0
  3 17  1  0  0  0  0
  4  9  1  0  0  0  0
  4 17  2  0  0  0  0
  5 19  1  0  0  0  0
  6 21  1  0  0  0  0
  7 10  2  0  0  0  0
  7 20  1  0  0  0  0
  8 24  1  0  0  0  0
  9 24  2  0  0  0  0
 10 25  1  0  0  0  0
 11 12  2  0  0  0  0
 11 26  1  0  0  0  0
 12 27  1  0  0  0  0
 13 22  1  0  0  0  0
 13 25  2  0  0  0  0
 14 27  2  0  0  0  0
 14 28  1  0  0  0  0
 15 23  1  0  0  0  0
 15 63  2  0  0  0  0
 16 23  2  0  0  0  0
 16 65  1  0  0  0  0
 17 29  1  0  0  0  0
 18 29  1  0  0  0  0
 18 30  2  0  0  0  0
 18 31  1  0  0  0  0
 19 21  2  0  0  0  0
 19 36  1  0  0  0  0
 20 22  2  0  0  0  0
 20 37  1  0  0  0  0
 21 45  1  0  0  0  0
 22 38  1  0  0  0  0
 23 55  1  0  0  0  0
 24 79  1  0  0  0  0
 25 80  1  0  0  0  0
 26 28  2  0  0  0  0
 26 79  1  0  0  0  0
 27 81  1  0  0  0  0
 28 82  1  0  0  0  0
 29 64  2  0  0  0  0
 30 66  1  0  0  0  0
 30 69  1  0  0  0  0
 31 70  1  0  0  0  0
 31 74  2  0  0  0  0
 32 46  1  0  0  0  0
 32 71  1  0  0  0  0
 32 75  2  0  0  0  0
 33 59  1  0  0  0  0
 33 67  1  0  0  0  0
 33 76  2  0  0  0  0
 34 61  1  0  0  0  0
 34 68  1  0  0  0  0
 34 77  2  0  0  0  0
 35 60  1  0  0  0  0
 35 72  1  0  0  0  0
 35 78  2  0  0  0  0
 36 39  1  0  0  0  0
 37 46  1  0  0  0  0
 38 67  1  0  0  0  0
 39 41  1  0  0  0  0
 40 42  1  0  0  0  0
 40 43  1  0  0  0  0
 41 45  1  0  0  0  0
 42 47  1  0  0  0  0
 43 68  1  0  0  0  0
 44 47  1  0  0  0  0
 44 68  1  0  0  0  0
 45 71  1  0  0  0  0
 46 67  1  0  0  0  0
 47 66  1  0  0  0  0
 48 60  1  0  0  0  0
 49 61  1  0  0  0  0
 50 61  1  0  0  0  0
 51 62  1  0  0  0  0
 52 62  1  0  0  0  0
 53 62  1  0  0  0  0
 54 73  1  0  0  0  0
 55 56  1  0  0  0  0
 56 57  1  0  0  0  0
 57 58  1  0  0  0  0
 58 80  1  0  0  0  0
 59 62  1  0  0  0  0
 59 72  1  0  0  0  0
 60 73  1  0  0  0  0
 61 65  1  0  0  0  0
 63 65  1  0  0  0  0
 64 66  1  0  0  0  0
M  CHG  1  73   1
M  ISO  4  34 100  58 101  61 100  80 101
M  END
> <Batch ID>
0075

> <Smiles>
CNC(C)C(=O)NC(C(=O)N1Cc2cc([101O:1][101CH2:1]CCCc3cnn([100C:0](C)(C)[100C:0](=O)N4CCCC(n5nc(-c6ccc(Oc7ccc(F)cc7F)cc6)c(C(N)=O)c5N)C4)c3)ccc2CC1C(=O)NC1CCCc2ccccc21)C(C)(C)C

> <Shape>
0.239

> <Color>
0.080

> <Negative vol penalty>
0.000

$$$$

  -OEChem-04052318323D

 85 93  0     1  0  0  0  0  0999 V2000
  -26.7536  -29.9275   24.1384 C   0  0  0  0  0  0  0  0  0  0  0  0
  -26.8340  -28.6969   24.7823 C   0  0  0  0  0  0  0  0  0  0  0  0
  -20.4607  -22.8229   22.7021 C   0  0  0  0  0  0  0  0  0  0  0  0
  -22.1718  -22.8466   20.9966 C   0  0  0  0  0  0  0  0  0  0  0  0
  -26.5603  -29.9796   22.7586 C   0  0  0  0  0  0  0  0  0  0  0  0
  -26.7200  -27.5177   24.0469 C   0  0  0  0  0  0  0  0  0  0  0  0
  -29.1110  -20.7662   23.9167 C   0  0  0  0  0  0  0  0  0  0  0  0
  -20.6189  -24.1973   22.8800 C   0  0  0  0  0  0  0  0  0  0  0  0
  -22.3299  -24.2210   21.1744 C   0  0  0  0  0  0  0  0  0  0  0  0
  -28.6367  -19.4566   23.8545 C   0  0  0  0  0  0  0  0  0  0  0  0
  -20.3181  -27.7614   23.5291 C   0  0  0  0  0  0  0  0  0  0  0  0
  -19.1648  -28.5404   23.6213 C   0  0  0  0  0  0  0  0  0  0  0  0
  -28.3839  -19.6681   21.4648 C   0  0  0  0  0  0  0  0  0  0  0  0
  -18.5005  -27.8184   21.4135 C   0  0  0  0  0  0  0  0  0  0  0  0
  -27.1843  -12.0753   21.2160 C   0  0  0  0  0  0  0  0  0  0  0  0
  -27.1050  -13.6846   19.7198 C   0  0  0  0  0  0  0  0  0  0  0  0
  -21.2372  -22.1475   21.7605 C   0  0  0  0  0  0  0  0  0  0  0  0
  -20.1967  -20.0807   20.6866 C   0  0  0  0  0  0  0  0  0  0  0  0
  -26.4536  -28.8003   22.0045 C   0  0  0  0  0  0  0  0  0  0  0  0
  -29.2152  -21.5415   22.7529 C   0  0  0  0  0  0  0  0  0  0  0  0
  -26.5237  -27.5541   22.6559 C   0  0  0  0  0  0  0  0  0  0  0  0
  -28.8622  -20.9863   21.5146 C   0  0  0  0  0  0  0  0  0  0  0  0
  -27.8973  -13.1850   20.7243 C   0  0  0  0  0  0  0  0  0  0  0  0
  -21.5535  -24.8964   22.1161 C   0  0  0  0  0  0  0  0  0  0  0  0
  -28.2703  -18.9083   22.6289 C   0  0  0  0  0  0  0  0  0  0  0  0
  -20.5628  -27.0110   22.3790 C   0  0  0  0  0  0  0  0  0  0  0  0
  -18.2559  -28.5689   22.5636 C   0  0  0  0  0  0  0  0  0  0  0  0
  -19.6539  -27.0394   21.3212 C   0  0  0  0  0  0  0  0  0  0  0  0
  -21.0747  -20.7277   21.5767 C   0  0  0  0  0  0  0  0  0  0  0  0
  -20.4228  -18.7419   20.8937 C   0  0  0  0  0  0  0  0  0  0  0  0
  -19.2605  -20.6399   19.7558 C   0  0  0  0  0  0  0  0  0  0  0  0
  -27.8973  -24.2495   21.7362 C   0  0  0  0  0  0  0  0  0  0  0  0
  -29.9722  -23.8778   19.2706 C   0  0  0  0  0  0  0  0  0  0  0  0
  -31.8857  -21.7716   17.3867 C   0  0  0  0  0  0  0  0  0  0  0  0
  -23.9169  -14.4546   21.6388 C   0  0  0  0  0  0  0  0  0  0  0  0
  -26.1978  -28.9073   20.5220 C   0  0  0  0  0  0  0  0  0  0  0  0
  -29.7538  -22.9435   22.8333 C   0  0  0  0  0  0  0  0  0  0  0  0
  -28.9743  -21.7700   20.2333 C   0  0  0  0  0  0  0  0  0  0  0  0
  -26.4619  -27.6093   19.7632 C   0  0  0  0  0  0  0  0  0  0  0  0
  -23.0402  -16.3660   24.5118 C   0  0  0  0  0  0  0  0  0  0  0  0
  -25.8275  -26.4277   20.4898 C   0  0  0  0  0  0  0  0  0  0  0  0
  -22.3843  -17.6199   23.9308 C   0  0  0  0  0  0  0  0  0  0  0  0
  -24.1994  -15.8816   23.6438 C   0  0  0  0  0  0  0  0  0  0  0  0
  -23.2071  -16.9229   21.6426 C   0  0  0  0  0  0  0  0  0  0  0  0
  -26.4295  -26.2528   21.8892 C   0  0  1  0  0  0  0  0  0  0  0  0
  -29.3329  -23.8140   21.6532 C   0  0  1  0  0  0  0  0  0  0  0  0
  -21.9970  -17.4168   22.4536 C   0  0  2  0  0  0  0  0  0  0  0  0
  -30.2823  -13.6110   20.0781 C   0  0  0  0  0  0  0  0  0  0  0  0
  -33.4413  -21.7543   15.4177 C   0  0  0  0  0  0  0  0  0  0  0  0
  -27.5869  -24.1456   17.3869 C   0  0  0  0  0  0  0  0  0  0  0  0
  -29.0097  -23.1900   15.5618 C   0  0  0  0  0  0  0  0  0  0  0  0
  -29.6478  -25.3482   16.6379 C   0  0  0  0  0  0  0  0  0  0  0  0
  -25.0074  -14.1936   17.7892 C   0  0  0  0  0  0  0  0  0  0  0  0
  -24.7997  -11.7238   17.9043 C   0  0  0  0  0  0  0  0  0  0  0  0
  -34.1337  -20.7598   19.0243 C   0  0  0  0  0  0  0  0  0  0  0  0
  -28.2813  -15.2965   22.9776 C   0  0  0  0  0  0  0  0  0  0  0  0
  -29.1682  -15.1622   21.7312 C   0  0  0  0  0  0  0  0  0  0  0  0
  -23.5572  -13.1501   19.5584 C   0  0  0  0  0  0  0  0  0  0  0  0
  -28.2962  -16.7126   23.5421 C   0  0  0  0  0  0  0  0  0  1  0  0
  -29.2398  -13.7148   21.1981 C   0  0  1  0  0  0  0  0  0  0  0  0
  -29.9241  -23.1910   17.9272 C   0  0  1  0  0  0  0  0  0  0  0  0
  -33.3309  -21.8604   16.9307 C   0  0  2  0  0  0  0  0  0  0  0  0
  -29.0380  -23.9543   16.9027 C   0  0  0  0  0  0  0  0  0  0  0  0
  -24.8881  -13.0027   18.7716 C   0  0  0  0  0  0  0  0  0  0  0  0
  -26.0278  -11.8810   20.5767 N   0  0  0  0  0  0  0  0  0  0  0  0
  -21.8040  -19.8704   22.2959 N   0  0  0  0  0  0  0  0  0  0  0  0
  -26.0081  -12.8754   19.6729 N   0  0  0  0  0  0  0  0  0  0  0  0
  -21.3848  -18.6711   21.8579 N   0  0  0  0  0  0  0  0  0  0  0  0
  -29.5005  -23.1387   20.3647 N   0  0  0  0  0  0  0  0  0  0  0  0
  -23.7653  -15.7074   22.2556 N   0  0  0  0  0  0  0  0  0  0  0  0
  -19.8905  -17.6301   20.3432 N   0  0  0  0  0  0  0  0  0  0  0  0
  -19.1552  -22.0349   19.6706 N   0  0  0  0  0  0  0  0  0  0  0  0
  -27.7280  -25.6192   21.8052 N   0  0  0  0  0  0  0  0  0  0  0  0
  -31.3105  -23.0190   17.5068 N   0  0  0  0  0  0  0  0  0  0  0  0
  -23.4741  -14.3737   20.3242 N   0  0  0  0  0  0  0  0  0  0  0  0
  -34.1343  -20.7622   17.5387 N   0  3  0  0  0  0  0  0  0  0  0  0
  -18.5269  -19.9237   19.0330 O   0  0  0  0  0  0  0  0  0  0  0  0
  -27.0089  -23.4054   21.7360 O   0  0  0  0  0  0  0  0  0  0  0  0
  -30.4186  -25.0252   19.3476 O   0  0  0  0  0  0  0  0  0  0  0  0
  -31.3222  -20.7025   17.6102 O   0  0  0  0  0  0  0  0  0  0  0  0
  -24.4055  -13.4788   22.2185 O   0  0  0  0  0  0  0  0  0  0  0  0
  -21.7079  -26.2375   22.2892 O   0  0  0  0  0  0  0  0  0  0  0  0
  -27.8065  -17.6306   22.5654 O   0  0  0  0  0  0  0  0  0  1  0  0
  -17.1476  -29.3157   22.6530 F   0  0  0  0  0  0  0  0  0  0  0  0
  -19.8829  -26.3197   20.2143 F   0  0  0  0  0  0  0  0  0  0  0  0
  1  2  1  0  0  0  0
  1  5  2  0  0  0  0
  2  6  2  0  0  0  0
  3  8  2  0  0  0  0
  3 17  1  0  0  0  0
  4  9  1  0  0  0  0
  4 17  2  0  0  0  0
  5 19  1  0  0  0  0
  6 21  1  0  0  0  0
  7 10  2  0  0  0  0
  7 20  1  0  0  0  0
  8 24  1  0  0  0  0
  9 24  2  0  0  0  0
 10 25  1  0  0  0  0
 11 12  2  0  0  0  0
 11 26  1  0  0  0  0
 12 27  1  0  0  0  0
 13 22  1  0  0  0  0
 13 25  2  0  0  0  0
 14 27  2  0  0  0  0
 14 28  1  0  0  0  0
 15 23  1  0  0  0  0
 15 65  2  0  0  0  0
 16 23  2  0  0  0  0
 16 67  1  0  0  0  0
 17 29  1  0  0  0  0
 18 29  1  0  0  0  0
 18 30  2  0  0  0  0
 18 31  1  0  0  0  0
 19 21  2  0  0  0  0
 19 36  1  0  0  0  0
 20 22  2  0  0  0  0
 20 37  1  0  0  0  0
 21 45  1  0  0  0  0
 22 38  1  0  0  0  0
 23 60  1  0  0  0  0
 24 82  1  0  0  0  0
 25 83  1  0  0  0  0
 26 28  2  0  0  0  0
 26 82  1  0  0  0  0
 27 84  1  0  0  0  0
 28 85  1  0  0  0  0
 29 66  2  0  0  0  0
 30 68  1  0  0  0  0
 30 71  1  0  0  0  0
 31 72  1  0  0  0  0
 31 77  2  0  0  0  0
 32 46  1  0  0  0  0
 32 73  1  0  0  0  0
 32 78  2  0  0  0  0
 33 61  1  0  0  0  0
 33 69  1  0  0  0  0
 33 79  2  0  0  0  0
 34 62  1  0  0  0  0
 34 74  1  0  0  0  0
 34 80  2  0  0  0  0
 35 70  1  0  0  0  0
 35 75  1  0  0  0  0
 35 81  2  0  0  0  0
 36 39  1  0  0  0  0
 37 46  1  0  0  0  0
 38 69  1  0  0  0  0
 39 41  1  0  0  0  0
 40 42  1  0  0  0  0
 40 43  1  0  0  0  0
 41 45  1  0  0  0  0
 42 47  1  0  0  0  0
 43 70  1  0  0  0  0
 44 47  1  0  0  0  0
 44 70  1  0  0  0  0
 45 73  1  0  0  0  0
 46 69  1  0  0  0  0
 47 68  1  0  0  0  0
 48 60  1  0  0  0  0
 49 62  1  0  0  0  0
 50 63  1  0  0  0  0
 51 63  1  0  0  0  0
 52 63  1  0  0  0  0
 53 64  1  0  0  0  0
 54 64  1  0  0  0  0
 55 76  1  0  0  0  0
 56 57  1  0  0  0  0
 56 59  1  0  0  0  0
 57 60  1  0  0  0  0
 58 64  1  0  0  0  0
 58 75  1  0  0  0  0
 59 83  1  0  0  0  0
 61 63  1  0  0  0  0
 61 74  1  0  0  0  0
 62 76  1  0  0  0  0
 64 67  1  0  0  0  0
 65 67  1  0  0  0  0
 66 68  1  0  0  0  0
M  CHG  1  76   1
M  ISO  4  35 100  59 101  75 100  83 101
M  END
> <Batch ID>
0075

> <Smiles>
CNC(C)C(=O)NC(C(=O)N1Cc2cc([101O:1][101CH2:1]CCC(C)c3cnn(C(C)(C)C[100NH:0][100C:0](=O)N4CCCC(n5nc(-c6ccc(Oc7ccc(F)cc7F)cc6)c(C(N)=O)c5N)C4)c3)ccc2CC1C(=O)NC1CCCc2ccccc21)C(C)(C)C

> <Shape>
0.204

> <Color>
0.055

> <Negative vol penalty>
0.000

$$$$

  -OEChem-04052318323D

 84 92  0     1  0  0  0  0  0999 V2000
  -13.3690   -8.3906   18.7167 C   0  0  0  0  0  0  0  0  0  0  0  0
  -14.7190   -8.6163   18.4677 C   0  0  0  0  0  0  0  0  0  0  0  0
  -23.2882   -9.7904   19.9097 C   0  0  0  0  0  0  0  0  0  0  0  0
  -23.7129   -9.9369   22.2836 C   0  0  0  0  0  0  0  0  0  0  0  0
  -12.4034   -9.1558   18.0640 C   0  0  0  0  0  0  0  0  0  0  0  0
  -15.1041   -9.6067   17.5648 C   0  0  0  0  0  0  0  0  0  0  0  0
  -20.0667  -13.1784   17.9141 C   0  0  0  0  0  0  0  0  0  0  0  0
  -22.5550   -8.6214   20.1131 C   0  0  0  0  0  0  0  0  0  0  0  0
  -22.9795   -8.7679   22.4870 C   0  0  0  0  0  0  0  0  0  0  0  0
  -21.3197  -13.1051   17.3072 C   0  0  0  0  0  0  0  0  0  0  0  0
  -19.7267   -7.8702   22.6706 C   0  0  0  0  0  0  0  0  0  0  0  0
  -18.8123   -7.8555   23.7239 C   0  0  0  0  0  0  0  0  0  0  0  0
  -20.5703  -14.6248   15.5903 C   0  0  0  0  0  0  0  0  0  0  0  0
  -19.9997   -6.0069   24.7288 C   0  0  0  0  0  0  0  0  0  0  0  0
  -28.3981  -15.4859   15.8466 C   0  0  0  0  0  0  0  0  0  0  0  0
  -23.8672  -10.4481   20.9950 C   0  0  0  0  0  0  0  0  0  0  0  0
  -24.1388  -12.9764   20.7912 C   0  0  0  0  0  0  0  0  0  0  0  0
  -12.7772  -10.1626   17.1600 C   0  0  0  0  0  0  0  0  0  0  0  0
  -19.0509  -13.9682   17.3567 C   0  0  0  0  0  0  0  0  0  0  0  0
  -14.1426  -10.3853   16.8984 C   0  0  0  0  0  0  0  0  0  0  0  0
  -19.3061  -14.7085   16.1935 C   0  0  0  0  0  0  0  0  0  0  0  0
  -22.4006   -8.1102   21.4016 C   0  0  0  0  0  0  0  0  0  0  0  0
  -21.5708  -13.8261   16.1435 C   0  0  0  0  0  0  0  0  0  0  0  0
  -20.7775   -6.9532   22.6464 C   0  0  0  0  0  0  0  0  0  0  0  0
  -18.9488   -6.9239   24.7530 C   0  0  0  0  0  0  0  0  0  0  0  0
  -20.9140   -6.0216   23.6755 C   0  0  0  0  0  0  0  0  0  0  0  0
  -24.6253  -11.6554   20.7856 C   0  0  0  0  0  0  0  0  0  0  0  0
  -28.9195  -15.6846   17.1087 C   0  0  0  0  0  0  0  0  0  0  0  0
  -27.4806  -16.4264   15.4248 C   0  0  0  0  0  0  0  0  0  0  0  0
  -25.2461  -13.7512   20.5462 C   0  0  0  0  0  0  0  0  0  0  0  0
  -27.6751  -17.5670   17.3814 C   0  0  0  0  0  0  0  0  0  0  0  0
  -22.8052  -13.4600   20.9995 C   0  0  0  0  0  0  0  0  0  0  0  0
  -29.9047  -14.7466   17.6623 C   0  0  0  0  0  0  0  0  0  0  0  0
  -16.1600  -13.3932   16.1669 C   0  0  0  0  0  0  0  0  0  0  0  0
  -16.0036  -16.6299   16.0199 C   0  0  0  0  0  0  0  0  0  0  0  0
  -17.6650  -19.6060   15.8482 C   0  0  0  0  0  0  0  0  0  0  0  0
  -11.6963  -10.9322   16.4430 C   0  0  0  0  0  0  0  0  0  0  0  0
  -17.7131  -14.0576   18.0383 C   0  0  0  0  0  0  0  0  0  0  0  0
  -18.2558  -15.5872   15.5664 C   0  0  0  0  0  0  0  0  0  0  0  0
  -12.1971  -12.2144   15.7831 C   0  0  0  0  0  0  0  0  0  0  0  0
  -30.1618  -12.5645   20.4755 C   0  0  0  0  0  0  0  0  0  0  0  0
  -13.4847  -11.9490   15.0096 C   0  0  0  0  0  0  0  0  0  0  0  0
  -28.7057  -12.2242   20.7979 C   0  0  0  0  0  0  0  0  0  0  0  0
  -30.3877  -12.7070   18.9724 C   0  0  0  0  0  0  0  0  0  0  0  0
  -28.0209  -13.3251   18.6254 C   0  0  0  0  0  0  0  0  0  0  0  0
  -14.6006  -11.4672   15.9446 C   0  0  1  0  0  0  0  0  0  0  0  0
  -16.5915  -14.4899   17.0989 C   0  0  1  0  0  0  0  0  0  0  0  0
  -27.7393  -13.2228   20.1335 C   0  0  1  0  0  0  0  0  0  0  0  0
  -26.2947  -18.3209   19.3341 C   0  0  0  0  0  0  0  0  0  0  0  0
  -17.2660  -22.0792   15.7022 C   0  0  0  0  0  0  0  0  0  0  0  0
  -27.1940  -17.5576   13.2095 C   0  0  0  0  0  0  0  0  0  0  0  0
  -27.3682  -15.0854   13.2156 C   0  0  0  0  0  0  0  0  0  0  0  0
  -15.2749  -16.3359   13.0716 C   0  0  0  0  0  0  0  0  0  0  0  0
  -15.8198  -18.7604   12.7669 C   0  0  0  0  0  0  0  0  0  0  0  0
  -13.9718  -18.0822   14.2991 C   0  0  0  0  0  0  0  0  0  0  0  0
  -19.0605  -20.0996   18.4109 C   0  0  0  0  0  0  0  0  0  0  0  0
  -27.2736  -18.7228   18.2336 C   0  0  0  0  0  0  0  0  0  0  0  0
  -24.7540  -14.9643   14.8713 C   0  0  0  0  0  0  0  0  0  0  0  0
  -25.2863  -16.1939   14.1255 C   0  0  0  0  0  0  0  0  0  0  0  0
  -23.2316  -14.9068   14.8284 C   0  0  0  0  0  0  0  0  0  1  0  0
  -16.3688  -17.6723   14.9908 C   0  0  1  0  0  0  0  0  0  0  0  0
  -17.5019  -20.8972   16.6296 C   0  0  2  0  0  0  0  0  0  0  0  0
  -26.8419  -16.2914   14.0306 C   0  0  0  0  0  0  0  0  0  0  0  0
  -15.3782  -17.6947   13.7926 C   0  0  0  0  0  0  0  0  0  0  0  0
  -25.9393  -11.5908   20.5550 N   0  0  0  0  0  0  0  0  0  0  0  0
  -28.5792  -16.7182   17.9063 N   0  0  0  0  0  0  0  0  0  0  0  0
  -27.0947  -17.4835   16.1691 N   0  0  0  0  0  0  0  0  0  0  0  0
  -26.2879  -12.8810   20.4134 N   0  0  0  0  0  0  0  0  0  0  0  0
  -29.4346  -13.6529   18.3933 N   0  0  0  0  0  0  0  0  0  0  0  0
  -16.9617  -15.6365   16.2667 N   0  0  0  0  0  0  0  0  0  0  0  0
  -25.4206  -15.0851   20.4333 N   0  0  0  0  0  0  0  0  0  0  0  0
  -21.7862  -12.5278   21.2385 N   0  0  0  0  0  0  0  0  0  0  0  0
  -15.1639  -12.5819   16.6757 N   0  0  0  0  0  0  0  0  0  0  0  0
  -16.4666  -18.9383   15.7091 N   0  0  0  0  0  0  0  0  0  0  0  0
  -18.7232  -21.1709   17.4385 N   0  3  0  0  0  0  0  0  0  0  0  0
  -22.5225  -14.6814   20.9580 O   0  0  0  0  0  0  0  0  0  0  0  0
  -31.0867  -15.0090   17.4451 O   0  0  0  0  0  0  0  0  0  0  0  0
  -16.6905  -13.2915   15.0669 O   0  0  0  0  0  0  0  0  0  0  0  0
  -14.9114  -16.6988   16.5891 O   0  0  0  0  0  0  0  0  0  0  0  0
  -18.7466  -19.2293   15.4024 O   0  0  0  0  0  0  0  0  0  0  0  0
  -21.6849   -6.9696   21.6004 O   0  0  0  0  0  0  0  0  0  0  0  0
  -22.7927  -13.7558   15.5487 O   0  0  0  0  0  0  0  0  0  1  0  0
  -18.0716   -6.9109   25.7651 F   0  0  0  0  0  0  0  0  0  0  0  0
  -21.9221   -5.1389   23.6583 F   0  0  0  0  0  0  0  0  0  0  0  0
  1  2  1  0  0  0  0
  1  5  2  0  0  0  0
  2  6  2  0  0  0  0
  3  8  2  0  0  0  0
  3 16  1  0  0  0  0
  4  9  1  0  0  0  0
  4 16  2  0  0  0  0
  5 18  1  0  0  0  0
  6 20  1  0  0  0  0
  7 10  2  0  0  0  0
  7 19  1  0  0  0  0
  8 22  1  0  0  0  0
  9 22  2  0  0  0  0
 10 23  1  0  0  0  0
 11 12  2  0  0  0  0
 11 24  1  0  0  0  0
 12 25  1  0  0  0  0
 13 21  1  0  0  0  0
 13 23  2  0  0  0  0
 14 25  2  0  0  0  0
 14 26  1  0  0  0  0
 15 28  2  0  0  0  0
 15 29  1  0  0  0  0
 16 27  1  0  0  0  0
 17 27  1  0  0  0  0
 17 30  2  0  0  0  0
 17 32  1  0  0  0  0
 18 20  2  0  0  0  0
 18 37  1  0  0  0  0
 19 21  2  0  0  0  0
 19 38  1  0  0  0  0
 20 46  1  0  0  0  0
 21 39  1  0  0  0  0
 22 81  1  0  0  0  0
 23 82  1  0  0  0  0
 24 26  2  0  0  0  0
 24 81  1  0  0  0  0
 25 83  1  0  0  0  0
 26 84  1  0  0  0  0
 27 65  2  0  0  0  0
 28 33  1  0  0  0  0
 28 66  1  0  0  0  0
 29 63  1  0  0  0  0
 29 67  2  0  0  0  0
 30 68  1  0  0  0  0
 30 71  1  0  0  0  0
 31 57  1  0  0  0  0
 31 66  2  0  0  0  0
 31 67  1  0  0  0  0
 32 72  1  0  0  0  0
 32 76  2  0  0  0  0
 33 69  1  0  0  0  0
 33 77  2  0  0  0  0
 34 47  1  0  0  0  0
 34 73  1  0  0  0  0
 34 78  2  0  0  0  0
 35 61  1  0  0  0  0
 35 70  1  0  0  0  0
 35 79  2  0  0  0  0
 36 62  1  0  0  0  0
 36 74  1  0  0  0  0
 36 80  2  0  0  0  0
 37 40  1  0  0  0  0
 38 47  1  0  0  0  0
 39 70  1  0  0  0  0
 40 42  1  0  0  0  0
 41 43  1  0  0  0  0
 41 44  1  0  0  0  0
 42 46  1  0  0  0  0
 43 48  1  0  0  0  0
 44 69  1  0  0  0  0
 45 48  1  0  0  0  0
 45 69  1  0  0  0  0
 46 73  1  0  0  0  0
 47 70  1  0  0  0  0
 48 68  1  0  0  0  0
 49 57  1  0  0  0  0
 50 62  1  0  0  0  0
 51 63  1  0  0  0  0
 52 63  1  0  0  0  0
 53 64  1  0  0  0  0
 54 64  1  0  0  0  0
 55 64  1  0  0  0  0
 56 75  1  0  0  0  0
 58 59  1  0  0  0  0
 58 60  1  0  0  0  0
 59 63  1  0  0  0  0
 60 82  1  0  0  0  0
 61 64  1  0  0  0  0
 61 74  1  0  0  0  0
 62 75  1  0  0  0  0
 65 68  1  0  0  0  0
M  CHG  1  75   1
M  ISO  4  28 100  33 100  60 101  82 101
M  END
> <Batch ID>
0075

> <Smiles>
CCc1nc(C(C)(C)CC[101CH2:1][101O:1]c2ccc3c(c2)CN(C(=O)C(NC(=O)C(C)NC)C(C)(C)C)C(C(=O)NC2CCCc4ccccc42)C3)c[100c:0]([100C:0](=O)N2CCCC(n3nc(-c4ccc(Oc5ccc(F)cc5F)cc4)c(C(N)=O)c3N)C2)n1

> <Shape>
0.136

> <Color>
0.170

> <Negative vol penalty>
0.000

$$$$

  -OEChem-04052318323D

 87 95  0     1  0  0  0  0  0999 V2000
  -25.9999  -33.0065   13.6990 C   0  0  0  0  0  0  0  0  0  0  0  0
  -26.2848  -31.6643   13.9286 C   0  0  0  0  0  0  0  0  0  0  0  0
  -23.9246   -9.7790   21.8837 C   0  0  0  0  0  0  0  0  0  0  0  0
  -24.4650  -11.0971   23.8350 C   0  0  0  0  0  0  0  0  0  0  0  0
  -26.3043  -33.9587   14.6709 C   0  0  0  0  0  0  0  0  0  0  0  0
  -26.8755  -31.2737   15.1299 C   0  0  0  0  0  0  0  0  0  0  0  0
  -25.8927  -26.0617   18.1918 C   0  0  0  0  0  0  0  0  0  0  0  0
  -23.4473   -8.7581   22.7055 C   0  0  0  0  0  0  0  0  0  0  0  0
  -23.9876  -10.0761   24.6568 C   0  0  0  0  0  0  0  0  0  0  0  0
  -26.5994  -24.8614   18.2515 C   0  0  0  0  0  0  0  0  0  0  0  0
  -20.6487   -8.0945   24.4834 C   0  0  0  0  0  0  0  0  0  0  0  0
  -19.4335   -7.5016   24.1411 C   0  0  0  0  0  0  0  0  0  0  0  0
  -27.7044  -25.6187   20.2576 C   0  0  0  0  0  0  0  0  0  0  0  0
  -20.5350   -5.3608   23.9391 C   0  0  0  0  0  0  0  0  0  0  0  0
  -30.1464  -17.6157   20.4015 C   0  0  0  0  0  0  0  0  0  0  0  0
  -24.4336  -10.9485   22.4484 C   0  0  0  0  0  0  0  0  0  0  0  0
  -24.1948  -13.0839   21.0733 C   0  0  0  0  0  0  0  0  0  0  0  0
  -26.8901  -33.5784   15.8886 C   0  0  0  0  0  0  0  0  0  0  0  0
  -26.0950  -27.0556   19.1601 C   0  0  0  0  0  0  0  0  0  0  0  0
  -27.1893  -32.2219   16.1184 C   0  0  0  0  0  0  0  0  0  0  0  0
  -26.9972  -26.8297   20.2094 C   0  0  0  0  0  0  0  0  0  0  0  0
  -30.5035  -18.9295   20.5831 C   0  0  0  0  0  0  0  0  0  0  0  0
  -23.4787   -8.9066   24.0920 C   0  0  0  0  0  0  0  0  0  0  0  0
  -27.5076  -24.6409   19.2828 C   0  0  0  0  0  0  0  0  0  0  0  0
  -21.8072   -7.3207   24.5535 C   0  0  0  0  0  0  0  0  0  0  0  0
  -19.3766   -6.1347   23.8689 C   0  0  0  0  0  0  0  0  0  0  0  0
  -21.7503   -5.9538   24.2813 C   0  0  0  0  0  0  0  0  0  0  0  0
  -24.9274  -12.0033   21.6001 C   0  0  0  0  0  0  0  0  0  0  0  0
  -30.5337  -19.0960   21.9806 C   0  0  0  0  0  0  0  0  0  0  0  0
  -25.1122  -13.7955   20.3396 C   0  0  0  0  0  0  0  0  0  0  0  0
  -22.8089  -13.4148   21.2330 C   0  0  0  0  0  0  0  0  0  0  0  0
  -27.1482  -30.0543   19.1105 C   0  0  0  0  0  0  0  0  0  0  0  0
  -26.2948  -29.9942   22.2395 C   0  0  0  0  0  0  0  0  0  0  0  0
  -31.0977  -14.1926   20.6976 C   0  0  0  0  0  0  0  0  0  0  0  0
  -25.7011  -28.1448   25.0456 C   0  0  0  0  0  0  0  0  0  0  0  0
  -27.2444  -34.6495   16.8896 C   0  0  0  0  0  0  0  0  0  0  0  0
  -25.3051  -28.3341   19.0965 C   0  0  0  0  0  0  0  0  0  0  0  0
  -27.2357  -27.8566   21.2851 C   0  0  0  0  0  0  0  0  0  0  0  0
  -27.5261  -34.1068   18.2883 C   0  0  0  0  0  0  0  0  0  0  0  0
  -29.1475  -13.2584   17.8404 C   0  0  0  0  0  0  0  0  0  0  0  0
  -28.4520  -32.8968   18.2150 C   0  0  0  0  0  0  0  0  0  0  0  0
  -27.7862  -12.9015   18.4360 C   0  0  0  0  0  0  0  0  0  0  0  0
  -30.2866  -12.8650   18.7756 C   0  0  0  0  0  0  0  0  0  0  0  0
  -28.8090  -13.0832   20.7481 C   0  0  0  0  0  0  0  0  0  0  0  0
  -27.8069  -31.7559   17.4190 C   0  0  1  0  0  0  0  0  0  0  0  0
  -25.9690  -29.4845   19.8471 C   0  0  1  0  0  0  0  0  0  0  0  0
  -27.6290  -13.4917   19.8485 C   0  0  2  0  0  0  0  0  0  0  0  0
  -30.8593  -20.3174   22.7378 C   0  0  0  0  0  0  0  0  0  0  0  0
  -25.0569  -28.3792   27.4595 C   0  0  0  0  0  0  0  0  0  0  0  0
  -28.6871  -15.7059   23.2051 C   0  0  0  0  0  0  0  0  0  0  0  0
  -30.5732  -13.5457   23.0080 C   0  0  0  0  0  0  0  0  0  0  0  0
  -32.1180  -15.4492   22.4994 C   0  0  0  0  0  0  0  0  0  0  0  0
  -29.1192  -30.9418   22.8987 C   0  0  0  0  0  0  0  0  0  0  0  0
  -28.7220  -30.2511   25.2722 C   0  0  0  0  0  0  0  0  0  0  0  0
  -27.3129  -32.0326   24.2411 C   0  0  0  0  0  0  0  0  0  0  0  0
  -30.0469  -21.2974   16.8471 C   0  0  0  0  0  0  0  0  0  0  0  0
  -30.9456  -22.9374   18.5175 C   0  0  0  0  0  0  0  0  0  0  0  0
  -23.2400  -26.5460   24.6641 C   0  0  0  0  0  0  0  0  0  0  0  0
  -30.7953  -19.9550   19.5142 C   0  0  0  0  0  0  0  0  0  0  0  0
  -29.6140  -20.9169   19.3251 C   0  0  0  0  0  0  0  0  0  0  0  0
  -28.4858  -22.8209   18.1052 C   0  0  0  0  0  0  0  0  0  1  0  0
  -26.9879  -29.6284   23.5298 C   0  0  1  0  0  0  0  0  0  0  0  0
  -24.5547  -28.1635   26.0404 C   0  0  2  0  0  0  0  0  0  0  0  0
  -29.6154  -15.7397   21.9756 C   0  0  2  0  0  0  0  0  0  0  0  0
  -30.8194  -14.7400   22.0749 C   0  0  0  0  0  0  0  0  0  0  0  0
  -28.0327  -30.6947   23.9643 C   0  0  0  0  0  0  0  0  0  0  0  0
  -29.7826  -21.9800   18.2021 C   0  0  0  0  0  0  0  0  0  0  0  0
  -26.2112  -12.0226   21.2321 N   0  0  0  0  0  0  0  0  0  0  0  0
  -30.2206  -17.9775   22.6401 N   0  0  0  0  0  0  0  0  0  0  0  0
  -29.9901  -17.0956   21.6525 N   0  0  0  0  0  0  0  0  0  0  0  0
  -26.2925  -13.1239   20.4662 N   0  0  0  0  0  0  0  0  0  0  0  0
  -26.4440  -29.0930   21.1757 N   0  0  0  0  0  0  0  0  0  0  0  0
  -30.0890  -13.4266   20.1131 N   0  0  0  0  0  0  0  0  0  0  0  0
  -25.0164  -14.9239   19.6048 N   0  0  0  0  0  0  0  0  0  0  0  0
  -22.0082  -12.5762   22.0203 N   0  0  0  0  0  0  0  0  0  0  0  0
  -26.8244  -31.0674   18.2283 N   0  0  0  0  0  0  0  0  0  0  0  0
  -25.9315  -29.3935   24.5082 N   0  0  0  0  0  0  0  0  0  0  0  0
  -23.8097  -26.8735   25.9965 N   0  3  0  0  0  0  0  0  0  0  0  0
  -22.2921  -14.4152   20.6802 O   0  0  0  0  0  0  0  0  0  0  0  0
  -28.2689  -29.6088   19.3276 O   0  0  0  0  0  0  0  0  0  0  0  0
  -25.6391  -31.0373   22.1798 O   0  0  0  0  0  0  0  0  0  0  0  0
  -32.1788  -14.4419   20.1579 O   0  0  0  0  0  0  0  0  0  0  0  0
  -26.3319  -27.1252   24.7752 O   0  0  0  0  0  0  0  0  0  0  0  0
  -23.0127   -7.9107   24.8943 O   0  0  0  0  0  0  0  0  0  0  0  0
  -28.1991  -23.4704   19.3431 O   0  0  0  0  0  0  0  0  0  1  0  0
  -18.2093   -5.5651   23.5417 F   0  0  0  0  0  0  0  0  0  0  0  0
  -22.8596   -5.2049   24.3482 F   0  0  0  0  0  0  0  0  0  0  0  0
  1  2  1  0  0  0  0
  1  5  2  0  0  0  0
  2  6  2  0  0  0  0
  3  8  2  0  0  0  0
  3 16  1  0  0  0  0
  4  9  1  0  0  0  0
  4 16  2  0  0  0  0
  5 18  1  0  0  0  0
  6 20  1  0  0  0  0
  7 10  2  0  0  0  0
  7 19  1  0  0  0  0
  8 23  1  0  0  0  0
  9 23  2  0  0  0  0
 10 24  1  0  0  0  0
 11 12  2  0  0  0  0
 11 25  1  0  0  0  0
 12 26  1  0  0  0  0
 13 21  1  0  0  0  0
 13 24  2  0  0  0  0
 14 26  2  0  0  0  0
 14 27  1  0  0  0  0
 15 22  2  0  0  0  0
 15 70  1  0  0  0  0
 16 28  1  0  0  0  0
 17 28  1  0  0  0  0
 17 30  2  0  0  0  0
 17 31  1  0  0  0  0
 18 20  2  0  0  0  0
 18 36  1  0  0  0  0
 19 21  2  0  0  0  0
 19 37  1  0  0  0  0
 20 45  1  0  0  0  0
 21 38  1  0  0  0  0
 22 29  1  0  0  0  0
 22 59  1  0  0  0  0
 23 84  1  0  0  0  0
 24 85  1  0  0  0  0
 25 27  2  0  0  0  0
 25 84  1  0  0  0  0
 26 86  1  0  0  0  0
 27 87  1  0  0  0  0
 28 68  2  0  0  0  0
 29 48  1  0  0  0  0
 29 69  2  0  0  0  0
 30 71  1  0  0  0  0
 30 74  1  0  0  0  0
 31 75  1  0  0  0  0
 31 79  2  0  0  0  0
 32 46  1  0  0  0  0
 32 76  1  0  0  0  0
 32 80  2  0  0  0  0
 33 62  1  0  0  0  0
 33 72  1  0  0  0  0
 33 81  2  0  0  0  0
 34 65  1  0  0  0  0
 34 73  1  0  0  0  0
 34 82  2  0  0  0  0
 35 63  1  0  0  0  0
 35 77  1  0  0  0  0
 35 83  2  0  0  0  0
 36 39  1  0  0  0  0
 37 46  1  0  0  0  0
 38 72  1  0  0  0  0
 39 41  1  0  0  0  0
 40 42  1  0  0  0  0
 40 43  1  0  0  0  0
 41 45  1  0  0  0  0
 42 47  1  0  0  0  0
 43 73  1  0  0  0  0
 44 47  1  0  0  0  0
 44 73  1  0  0  0  0
 45 76  1  0  0  0  0
 46 72  1  0  0  0  0
 47 71  1  0  0  0  0
 49 63  1  0  0  0  0
 50 64  1  0  0  0  0
 51 65  1  0  0  0  0
 52 65  1  0  0  0  0
 53 66  1  0  0  0  0
 54 66  1  0  0  0  0
 55 66  1  0  0  0  0
 56 67  1  0  0  0  0
 57 67  1  0  0  0  0
 58 78  1  0  0  0  0
 59 60  1  0  0  0  0
 60 67  1  0  0  0  0
 61 67  1  0  0  0  0
 61 85  1  0  0  0  0
 62 66  1  0  0  0  0
 62 77  1  0  0  0  0
 63 78  1  0  0  0  0
 64 65  1  0  0  0  0
 64 70  1  0  0  0  0
 68 71  1  0  0  0  0
 69 70  1  0  0  0  0
M  CHG  1  78   1
M  ISO  4  34 100  61 101  65 100  85 101
M  END
> <Batch ID>
0075

> <Smiles>
CNC(C)C(=O)NC(C(=O)N1Cc2cc([101O:1][101CH2:1]C(C)(C)CCc3cn(C(C)[100C:0](C)(C)[100C:0](=O)N4CCCC(n5nc(-c6ccc(Oc7ccc(F)cc7F)cc6)c(C(N)=O)c5N)C4)nc3C)ccc2CC1C(=O)NC1CCCc2ccccc21)C(C)(C)C

> <Shape>
0.273

> <Color>
0.144

> <Negative vol penalty>
0.000

$$$$

  -OEChem-04052318323D

 87 95  0     1  0  0  0  0  0999 V2000
  -30.7365  -30.9646   25.4819 C   0  0  0  0  0  0  0  0  0  0  0  0
  -30.0447  -29.9051   24.9037 C   0  0  0  0  0  0  0  0  0  0  0  0
  -24.7606   -9.0122   21.3117 C   0  0  0  0  0  0  0  0  0  0  0  0
  -23.0584  -10.1583   20.0365 C   0  0  0  0  0  0  0  0  0  0  0  0
  -30.0427  -32.0899   25.9247 C   0  0  0  0  0  0  0  0  0  0  0  0
  -28.6583  -29.9700   24.7690 C   0  0  0  0  0  0  0  0  0  0  0  0
  -27.0756  -28.4367   20.2095 C   0  0  0  0  0  0  0  0  0  0  0  0
  -23.8476   -8.0055   21.6257 C   0  0  0  0  0  0  0  0  0  0  0  0
  -22.1454   -9.1515   20.3505 C   0  0  0  0  0  0  0  0  0  0  0  0
  -27.0262  -27.0621   19.9817 C   0  0  0  0  0  0  0  0  0  0  0  0
  -21.2885   -7.5499   23.7861 C   0  0  0  0  0  0  0  0  0  0  0  0
  -21.2401   -7.1094   25.1087 C   0  0  0  0  0  0  0  0  0  0  0  0
  -26.6462  -18.6328   18.9502 C   0  0  0  0  0  0  0  0  0  0  0  0
  -27.0536  -19.6897   18.1553 C   0  0  0  0  0  0  0  0  0  0  0  0
  -24.6488  -27.0860   20.3897 C   0  0  0  0  0  0  0  0  0  0  0  0
  -21.8159   -4.8770   24.3863 C   0  0  0  0  0  0  0  0  0  0  0  0
  -24.3660  -10.0886   20.5171 C   0  0  0  0  0  0  0  0  0  0  0  0
  -26.1727  -11.1775   19.0826 C   0  0  0  0  0  0  0  0  0  0  0  0
  -28.6481  -32.1727   25.7865 C   0  0  0  0  0  0  0  0  0  0  0  0
  -25.9118  -29.1456   20.5404 C   0  0  0  0  0  0  0  0  0  0  0  0
  -27.9450  -31.0969   25.2116 C   0  0  0  0  0  0  0  0  0  0  0  0
  -24.6857  -28.4699   20.6187 C   0  0  0  0  0  0  0  0  0  0  0  0
  -22.5400   -8.0752   21.1451 C   0  0  0  0  0  0  0  0  0  0  0  0
  -25.8132  -26.3861   20.0746 C   0  0  0  0  0  0  0  0  0  0  0  0
  -21.6005   -6.6539   22.7636 C   0  0  0  0  0  0  0  0  0  0  0  0
  -21.5038   -5.7730   25.4088 C   0  0  0  0  0  0  0  0  0  0  0  0
  -21.8643   -5.3175   23.0637 C   0  0  0  0  0  0  0  0  0  0  0  0
  -25.3085  -11.1291   20.1928 C   0  0  0  0  0  0  0  0  0  0  0  0
  -25.3252  -18.2394   18.8747 C   0  0  0  0  0  0  0  0  0  0  0  0
  -26.1132  -20.2830   17.3373 C   0  0  0  0  0  0  0  0  0  0  0  0
  -26.8562  -12.3596   19.2308 C   0  0  0  0  0  0  0  0  0  0  0  0
  -26.3422  -10.2381   18.0128 C   0  0  0  0  0  0  0  0  0  0  0  0
  -24.9571  -30.8428   23.0527 C   0  0  0  0  0  0  0  0  0  0  0  0
  -22.4128  -31.4997   21.1508 C   0  0  0  0  0  0  0  0  0  0  0  0
  -25.4943  -17.4466   22.1256 C   0  0  0  0  0  0  0  0  0  0  0  0
  -20.4488  -30.5750   18.5174 C   0  0  0  0  0  0  0  0  0  0  0  0
  -27.9364  -33.3893   26.3231 C   0  0  0  0  0  0  0  0  0  0  0  0
  -25.9773  -30.6326   20.7569 C   0  0  0  0  0  0  0  0  0  0  0  0
  -23.4042  -29.1883   20.9508 C   0  0  0  0  0  0  0  0  0  0  0  0
  -26.5091  -33.5389   25.8028 C   0  0  0  0  0  0  0  0  0  0  0  0
  -28.4055  -15.4049   22.5691 C   0  0  0  0  0  0  0  0  0  0  0  0
  -25.7665  -32.2095   25.8915 C   0  0  0  0  0  0  0  0  0  0  0  0
  -28.0096  -14.0724   21.9344 C   0  0  0  0  0  0  0  0  0  0  0  0
  -27.2161  -16.0740   23.2507 C   0  0  0  0  0  0  0  0  0  0  0  0
  -25.6372  -14.9391   21.7208 C   0  0  0  0  0  0  0  0  0  0  0  0
  -26.4438  -31.1404   25.0255 C   0  0  1  0  0  0  0  0  0  0  0  0
  -24.8177  -31.1665   21.5921 C   0  0  1  0  0  0  0  0  0  0  0  0
  -26.8029  -14.2446   20.9948 C   0  0  2  0  0  0  0  0  0  0  0  0
  -23.7977  -16.2310   18.9561 C   0  0  0  0  0  0  0  0  0  0  0  0
  -18.4218  -31.2933   17.2240 C   0  0  0  0  0  0  0  0  0  0  0  0
  -27.6257  -20.9739   15.4652 C   0  0  0  0  0  0  0  0  0  0  0  0
  -25.3637  -21.9839   15.5381 C   0  0  0  0  0  0  0  0  0  0  0  0
  -23.2368  -16.5735   21.7103 C   0  0  0  0  0  0  0  0  0  0  0  0
  -23.8348  -18.9516   21.2053 C   0  0  0  0  0  0  0  0  0  0  0  0
  -20.6224  -30.5339   23.4249 C   0  0  0  0  0  0  0  0  0  0  0  0
  -18.7406  -30.3718   21.7815 C   0  0  0  0  0  0  0  0  0  0  0  0
  -19.8003  -32.5815   22.2476 C   0  0  0  0  0  0  0  0  0  0  0  0
  -21.9954  -30.8214   16.0062 C   0  0  0  0  0  0  0  0  0  0  0  0
  -26.0994  -23.2914   18.2473 C   0  0  0  0  0  0  0  0  0  0  0  0
  -27.0864  -22.6504   17.2641 C   0  0  0  0  0  0  0  0  0  0  0  0
  -26.7159  -24.4997   18.9421 C   0  0  0  0  0  0  0  0  0  1  0  0
  -24.8347  -17.1080   19.7114 C   0  0  2  0  0  0  0  0  0  0  0  0
  -21.0693  -30.8573   20.9027 C   0  0  1  0  0  0  0  0  0  0  0  0
  -19.9384  -31.3545   17.3189 C   0  0  2  0  0  0  0  0  0  0  0  0
  -26.5151  -21.4602   16.4303 C   0  0  0  0  0  0  0  0  0  0  0  0
  -24.3350  -17.4965   21.1625 C   0  0  0  0  0  0  0  0  0  0  0  0
  -20.0824  -31.0720   22.0848 C   0  0  0  0  0  0  0  0  0  0  0  0
  -25.4302  -12.1955   20.9878 N   0  0  0  0  0  0  0  0  0  0  0  0
  -24.4265  -18.8384   18.0650 N   0  0  0  0  0  0  0  0  0  0  0  0
  -24.8270  -19.8769   17.2835 N   0  0  0  0  0  0  0  0  0  0  0  0
  -26.3789  -12.9251   20.3764 N   0  0  0  0  0  0  0  0  0  0  0  0
  -23.5210  -30.6409   21.1601 N   0  0  0  0  0  0  0  0  0  0  0  0
  -26.0832  -16.1989   22.3320 N   0  0  0  0  0  0  0  0  0  0  0  0
  -27.8132  -12.9599   18.4917 N   0  0  0  0  0  0  0  0  0  0  0  0
  -25.5595   -9.0755   18.0142 N   0  0  0  0  0  0  0  0  0  0  0  0
  -26.1117  -31.3352   23.6304 N   0  0  0  0  0  0  0  0  0  0  0  0
  -20.5957  -31.3814   19.6262 N   0  0  0  0  0  0  0  0  0  0  0  0
  -20.5109  -30.8012   16.0591 N   0  3  0  0  0  0  0  0  0  0  0  0
  -27.1752  -10.4162   17.0920 O   0  0  0  0  0  0  0  0  0  0  0  0
  -24.0812  -30.1954   23.6143 O   0  0  0  0  0  0  0  0  0  0  0  0
  -22.4773  -32.7195   21.3227 O   0  0  0  0  0  0  0  0  0  0  0  0
  -25.8659  -18.4870   22.6748 O   0  0  0  0  0  0  0  0  0  0  0  0
  -20.6892  -29.3705   18.4753 O   0  0  0  0  0  0  0  0  0  0  0  0
  -21.6489   -7.0929   21.4511 O   0  0  0  0  0  0  0  0  0  0  0  0
  -25.7623  -25.0443   19.8534 O   0  0  0  0  0  0  0  0  0  1  0  0
  -21.4588   -5.3505   26.6791 F   0  0  0  0  0  0  0  0  0  0  0  0
  -22.1658   -4.4523   22.0857 F   0  0  0  0  0  0  0  0  0  0  0  0
  1  2  1  0  0  0  0
  1  5  2  0  0  0  0
  2  6  2  0  0  0  0
  3  8  2  0  0  0  0
  3 17  1  0  0  0  0
  4  9  1  0  0  0  0
  4 17  2  0  0  0  0
  5 19  1  0  0  0  0
  6 21  1  0  0  0  0
  7 10  2  0  0  0  0
  7 20  1  0  0  0  0
  8 23  1  0  0  0  0
  9 23  2  0  0  0  0
 10 24  1  0  0  0  0
 11 12  2  0  0  0  0
 11 25  1  0  0  0  0
 12 26  1  0  0  0  0
 13 14  2  0  0  0  0
 13 29  1  0  0  0  0
 14 30  1  0  0  0  0
 15 22  1  0  0  0  0
 15 24  2  0  0  0  0
 16 26  2  0  0  0  0
 16 27  1  0  0  0  0
 17 28  1  0  0  0  0
 18 28  1  0  0  0  0
 18 31  2  0  0  0  0
 18 32  1  0  0  0  0
 19 21  2  0  0  0  0
 19 37  1  0  0  0  0
 20 22  2  0  0  0  0
 20 38  1  0  0  0  0
 21 46  1  0  0  0  0
 22 39  1  0  0  0  0
 23 84  1  0  0  0  0
 24 85  1  0  0  0  0
 25 27  2  0  0  0  0
 25 84  1  0  0  0  0
 26 86  1  0  0  0  0
 27 87  1  0  0  0  0
 28 68  2  0  0  0  0
 29 62  1  0  0  0  0
 29 69  2  0  0  0  0
 30 65  1  0  0  0  0
 30 70  2  0  0  0  0
 31 71  1  0  0  0  0
 31 74  1  0  0  0  0
 32 75  1  0  0  0  0
 32 79  2  0  0  0  0
 33 47  1  0  0  0  0
 33 76  1  0  0  0  0
 33 80  2  0  0  0  0
 34 63  1  0  0  0  0
 34 72  1  0  0  0  0
 34 81  2  0  0  0  0
 35 66  1  0  0  0  0
 35 73  1  0  0  0  0
 35 82  2  0  0  0  0
 36 64  1  0  0  0  0
 36 77  1  0  0  0  0
 36 83  2  0  0  0  0
 37 40  1  0  0  0  0
 38 47  1  0  0  0  0
 39 72  1  0  0  0  0
 40 42  1  0  0  0  0
 41 43  1  0  0  0  0
 41 44  1  0  0  0  0
 42 46  1  0  0  0  0
 43 48  1  0  0  0  0
 44 73  1  0  0  0  0
 45 48  1  0  0  0  0
 45 73  1  0  0  0  0
 46 76  1  0  0  0  0
 47 72  1  0  0  0  0
 48 71  1  0  0  0  0
 49 62  1  0  0  0  0
 50 64  1  0  0  0  0
 51 65  1  0  0  0  0
 52 65  1  0  0  0  0
 53 66  1  0  0  0  0
 54 66  1  0  0  0  0
 55 67  1  0  0  0  0
 56 67  1  0  0  0  0
 57 67  1  0  0  0  0
 58 78  1  0  0  0  0
 59 60  1  0  0  0  0
 59 61  1  0  0  0  0
 60 65  1  0  0  0  0
 61 85  1  0  0  0  0
 62 66  1  0  0  0  0
 63 67  1  0  0  0  0
 63 77  1  0  0  0  0
 64 78  1  0  0  0  0
 68 71  1  0  0  0  0
 69 70  1  0  0  0  0
M  CHG  1  78   1
M  ISO  4  35 100  61 101  66 100  85 101
M  END
> <Batch ID>
0075

> <Smiles>
CNC(C)C(=O)NC(C(=O)N1Cc2cc([101O:1][101CH2:1]CCC(C)(C)c3ccc(C(C)[100C:0](C)(C)[100C:0](=O)N4CCCC(n5nc(-c6ccc(Oc7ccc(F)cc7F)cc6)c(C(N)=O)c5N)C4)nn3)ccc2CC1C(=O)NC1CCCc2ccccc21)C(C)(C)C

> <Shape>
0.254

> <Color>
0.085

> <Negative vol penalty>
0.000

$$$$

  -OEChem-04052318323D

 85 93  0     1  0  0  0  0  0999 V2000
  -17.9050  -27.8199   23.3054 C   0  0  0  0  0  0  0  0  0  0  0  0
  -18.9203  -26.9159   23.6010 C   0  0  0  0  0  0  0  0  0  0  0  0
  -24.5148   -9.2355   21.5382 C   0  0  0  0  0  0  0  0  0  0  0  0
  -24.4338  -10.6295   23.5098 C   0  0  0  0  0  0  0  0  0  0  0  0
  -18.1370  -28.8562   22.4019 C   0  0  0  0  0  0  0  0  0  0  0  0
  -20.1680  -27.0471   22.9924 C   0  0  0  0  0  0  0  0  0  0  0  0
  -25.6235  -25.7778   25.4687 C   0  0  0  0  0  0  0  0  0  0  0  0
  -24.2045   -8.1191   22.3147 C   0  0  0  0  0  0  0  0  0  0  0  0
  -24.1234   -9.5131   24.2863 C   0  0  0  0  0  0  0  0  0  0  0  0
  -26.4615  -24.6676   25.3733 C   0  0  0  0  0  0  0  0  0  0  0  0
  -21.4505   -6.7493   23.7191 C   0  0  0  0  0  0  0  0  0  0  0  0
  -20.4831   -5.8700   23.2328 C   0  0  0  0  0  0  0  0  0  0  0  0
  -27.7126  -25.7692   23.6296 C   0  0  0  0  0  0  0  0  0  0  0  0
  -22.1077   -4.0817   23.2348 C   0  0  0  0  0  0  0  0  0  0  0  0
  -26.3644  -22.1131   20.6320 C   0  0  0  0  0  0  0  0  0  0  0  0
  -24.6295  -10.4907   22.1357 C   0  0  0  0  0  0  0  0  0  0  0  0
  -24.0469  -12.5077   20.6867 C   0  0  0  0  0  0  0  0  0  0  0  0
  -19.3912  -29.0058   21.7893 C   0  0  0  0  0  0  0  0  0  0  0  0
  -25.8175  -26.8895   24.6363 C   0  0  0  0  0  0  0  0  0  0  0  0
  -20.4167  -28.0855   22.0789 C   0  0  0  0  0  0  0  0  0  0  0  0
  -26.8773  -26.8933   23.7182 C   0  0  0  0  0  0  0  0  0  0  0  0
  -24.0087   -8.2579   23.6888 C   0  0  0  0  0  0  0  0  0  0  0  0
  -27.5044  -24.6620   24.4517 C   0  0  0  0  0  0  0  0  0  0  0  0
  -22.7465   -6.2948   23.9632 C   0  0  0  0  0  0  0  0  0  0  0  0
  -20.8117   -4.5362   22.9906 C   0  0  0  0  0  0  0  0  0  0  0  0
  -23.0751   -4.9610   23.7211 C   0  0  0  0  0  0  0  0  0  0  0  0
  -24.9507  -11.6442   21.3342 C   0  0  0  0  0  0  0  0  0  0  0  0
  -25.2997  -21.2708   20.4775 C   0  0  0  0  0  0  0  0  0  0  0  0
  -24.8451  -13.4361   20.0641 C   0  0  0  0  0  0  0  0  0  0  0  0
  -27.1359  -20.1564   19.9416 C   0  0  0  0  0  0  0  0  0  0  0  0
  -22.6140  -12.4739   20.6512 C   0  0  0  0  0  0  0  0  0  0  0  0
  -24.0877  -28.3500   22.4050 C   0  0  0  0  0  0  0  0  0  0  0  0
  -29.2127  -16.9269   20.2322 C   0  0  0  0  0  0  0  0  0  0  0  0
  -26.5228  -30.4921   22.4725 C   0  0  0  0  0  0  0  0  0  0  0  0
  -29.7996  -31.1321   23.1791 C   0  0  0  0  0  0  0  0  0  0  0  0
  -19.5802  -30.1136   20.7834 C   0  0  0  0  0  0  0  0  0  0  0  0
  -24.9213  -28.0901   24.7701 C   0  0  0  0  0  0  0  0  0  0  0  0
  -27.1405  -28.0701   22.8157 C   0  0  0  0  0  0  0  0  0  0  0  0
  -21.0447  -30.4050   20.4662 C   0  0  0  0  0  0  0  0  0  0  0  0
  -29.8384  -13.5212   19.3105 C   0  0  0  0  0  0  0  0  0  0  0  0
  -21.8049  -29.1067   20.2145 C   0  0  0  0  0  0  0  0  0  0  0  0
  -28.5605  -12.7953   19.7292 C   0  0  0  0  0  0  0  0  0  0  0  0
  -30.1803  -14.6518   20.2758 C   0  0  0  0  0  0  0  0  0  0  0  0
  -27.7976  -14.9170   20.8876 C   0  0  0  0  0  0  0  0  0  0  0  0
  -21.7912  -28.2094   21.4579 C   0  0  1  0  0  0  0  0  0  0  0  0
  -24.8951  -28.9589   23.5163 C   0  0  1  0  0  0  0  0  0  0  0  0
  -27.3994  -13.7869   19.9218 C   0  0  2  0  0  0  0  0  0  0  0  0
  -23.8644  -21.4761   20.6883 C   0  0  0  0  0  0  0  0  0  0  0  0
  -27.7535  -18.6666   18.0358 C   0  0  0  0  0  0  0  0  0  0  0  0
  -27.9454  -18.1590   21.9120 C   0  0  0  0  0  0  0  0  0  0  0  0
  -31.5114  -32.9652   23.0946 C   0  0  0  0  0  0  0  0  0  0  0  0
  -30.1369  -21.3171   23.9837 C   0  0  0  0  0  0  0  0  0  0  0  0
  -26.7636  -30.1246   19.4531 C   0  0  0  0  0  0  0  0  0  0  0  0
  -29.0225  -31.1976   19.5728 C   0  0  0  0  0  0  0  0  0  0  0  0
  -26.9938  -32.4879   20.2380 C   0  0  0  0  0  0  0  0  0  0  0  0
  -30.2062  -31.0458   26.1093 C   0  0  0  0  0  0  0  0  0  0  0  0
  -29.7292  -21.4444   21.5130 C   0  0  0  0  0  0  0  0  0  0  0  0
  -28.8974  -21.9327   20.3189 C   0  0  0  0  0  0  0  0  0  0  0  0
  -28.8974  -23.3101   23.0776 C   0  0  0  0  0  0  0  0  0  1  0  0
  -28.0401  -19.0624   19.5076 C   0  0  2  0  0  0  0  0  0  0  0  0
  -27.9966  -17.7971   20.4266 C   0  0  1  0  0  0  0  0  0  0  0  0
  -27.8367  -30.6403   21.7440 C   0  0  1  0  0  0  0  0  0  0  0  0
  -30.4628  -32.2635   23.9437 C   0  0  2  0  0  0  0  0  0  0  0  0
  -29.1647  -21.8090   22.9038 C   0  0  2  0  0  0  0  0  0  0  0  0
  -27.6483  -31.0895   20.2675 C   0  0  0  0  0  0  0  0  0  0  0  0
  -26.2255  -11.9927   21.1407 N   0  0  0  0  0  0  0  0  0  0  0  0
  -27.4876  -21.3972   20.2941 N   0  0  0  0  0  0  0  0  0  0  0  0
  -26.1285  -13.0855   20.3646 N   0  0  0  0  0  0  0  0  0  0  0  0
  -25.8063  -20.0674   20.0493 N   0  3  0  0  0  0  0  0  0  0  0  0
  -26.2329  -29.2176   22.9800 N   0  0  0  0  0  0  0  0  0  0  0  0
  -29.0446  -15.5591   20.4491 N   0  0  0  0  0  0  0  0  0  0  0  0
  -24.5674  -14.5098   19.2944 N   0  0  0  0  0  0  0  0  0  0  0  0
  -21.9524  -11.4519   21.3457 N   0  0  0  0  0  0  0  0  0  0  0  0
  -22.7473  -28.6847   22.4348 N   0  0  0  0  0  0  0  0  0  0  0  0
  -28.6478  -31.5496   22.5463 N   0  0  0  0  0  0  0  0  0  0  0  0
  -31.1257  -31.7402   25.1716 N   0  3  0  0  0  0  0  0  0  0  0  0
  -21.9408  -13.3150   20.0088 O   0  0  0  0  0  0  0  0  0  0  0  0
  -24.6402  -27.6311   21.5806 O   0  0  0  0  0  0  0  0  0  0  0  0
  -30.2786  -17.4486   19.8948 O   0  0  0  0  0  0  0  0  0  0  0  0
  -25.7842  -31.4727   22.5932 O   0  0  0  0  0  0  0  0  0  0  0  0
  -30.2595  -29.9929   23.1435 O   0  0  0  0  0  0  0  0  0  0  0  0
  -23.7056   -7.1689   24.4468 O   0  0  0  0  0  0  0  0  0  0  0  0
  -28.3234  -23.5794   24.3560 O   0  0  0  0  0  0  0  0  0  1  0  0
  -19.8822   -3.6915   22.5250 F   0  0  0  0  0  0  0  0  0  0  0  0
  -24.3181   -4.5183   23.9548 F   0  0  0  0  0  0  0  0  0  0  0  0
  1  2  1  0  0  0  0
  1  5  2  0  0  0  0
  2  6  2  0  0  0  0
  3  8  2  0  0  0  0
  3 16  1  0  0  0  0
  4  9  1  0  0  0  0
  4 16  2  0  0  0  0
  5 18  1  0  0  0  0
  6 20  1  0  0  0  0
  7 10  2  0  0  0  0
  7 19  1  0  0  0  0
  8 22  1  0  0  0  0
  9 22  2  0  0  0  0
 10 23  1  0  0  0  0
 11 12  2  0  0  0  0
 11 24  1  0  0  0  0
 12 25  1  0  0  0  0
 13 21  1  0  0  0  0
 13 23  2  0  0  0  0
 14 25  2  0  0  0  0
 14 26  1  0  0  0  0
 15 28  2  0  0  0  0
 15 67  1  0  0  0  0
 16 27  1  0  0  0  0
 17 27  1  0  0  0  0
 17 29  2  0  0  0  0
 17 31  1  0  0  0  0
 18 20  2  0  0  0  0
 18 36  1  0  0  0  0
 19 21  2  0  0  0  0
 19 37  1  0  0  0  0
 20 45  1  0  0  0  0
 21 38  1  0  0  0  0
 22 82  1  0  0  0  0
 23 83  1  0  0  0  0
 24 26  2  0  0  0  0
 24 82  1  0  0  0  0
 25 84  1  0  0  0  0
 26 85  1  0  0  0  0
 27 66  2  0  0  0  0
 28 48  1  0  0  0  0
 28 69  1  0  0  0  0
 29 68  1  0  0  0  0
 29 72  1  0  0  0  0
 30 60  1  0  0  0  0
 30 67  1  0  0  0  0
 30 69  2  0  0  0  0
 31 73  1  0  0  0  0
 31 77  2  0  0  0  0
 32 46  1  0  0  0  0
 32 74  1  0  0  0  0
 32 78  2  0  0  0  0
 33 61  1  0  0  0  0
 33 71  1  0  0  0  0
 33 79  2  0  0  0  0
 34 62  1  0  0  0  0
 34 70  1  0  0  0  0
 34 80  2  0  0  0  0
 35 63  1  0  0  0  0
 35 75  1  0  0  0  0
 35 81  2  0  0  0  0
 36 39  1  0  0  0  0
 37 46  1  0  0  0  0
 38 70  1  0  0  0  0
 39 41  1  0  0  0  0
 40 42  1  0  0  0  0
 40 43  1  0  0  0  0
 41 45  1  0  0  0  0
 42 47  1  0  0  0  0
 43 71  1  0  0  0  0
 44 47  1  0  0  0  0
 44 71  1  0  0  0  0
 45 74  1  0  0  0  0
 46 70  1  0  0  0  0
 47 68  1  0  0  0  0
 49 60  1  0  0  0  0
 50 61  1  0  0  0  0
 51 63  1  0  0  0  0
 52 64  1  0  0  0  0
 53 65  1  0  0  0  0
 54 65  1  0  0  0  0
 55 65  1  0  0  0  0
 56 76  1  0  0  0  0
 57 58  1  0  0  0  0
 57 64  1  0  0  0  0
 58 67  1  0  0  0  0
 59 64  1  0  0  0  0
 59 83  1  0  0  0  0
 60 61  1  0  0  0  0
 62 65  1  0  0  0  0
 62 75  1  0  0  0  0
 63 76  1  0  0  0  0
 66 68  1  0  0  0  0
M  CHG  2  69   1  76   1
M  ISO  4  33 100  59 101  61 100  83 101
M  END
> <Batch ID>
0075

> <Smiles>
CNC(C)C(=O)NC(C(=O)N1Cc2cc([101O:1][101CH2:1]C(C)CCn3cc(C)nc3C(C)[100CH:0](C)[100C:0](=O)N3CCCC(n4nc(-c5ccc(Oc6ccc(F)cc6F)cc5)c(C(N)=O)c4N)C3)ccc2CC1C(=O)NC1CCCc2ccccc21)C(C)(C)C

> <Shape>
0.252

> <Color>
0.093

> <Negative vol penalty>
0.000

$$$$

  -OEChem-04052318323D

 85 93  0     1  0  0  0  0  0999 V2000
  -29.4067  -13.0095   18.6688 C   0  0  0  0  0  0  0  0  0  0  0  0
  -29.3420  -14.3825   18.8835 C   0  0  0  0  0  0  0  0  0  0  0  0
  -30.5945  -23.5537   20.5079 C   0  0  0  0  0  0  0  0  0  0  0  0
  -28.4118  -23.6285   19.4748 C   0  0  0  0  0  0  0  0  0  0  0  0
  -28.2367  -12.2513   18.6558 C   0  0  0  0  0  0  0  0  0  0  0  0
  -28.1071  -14.9983   19.0844 C   0  0  0  0  0  0  0  0  0  0  0  0
  -25.0907  -20.4279   22.6532 C   0  0  0  0  0  0  0  0  0  0  0  0
  -30.5987  -22.1632   20.3983 C   0  0  0  0  0  0  0  0  0  0  0  0
  -28.4160  -22.2379   19.3652 C   0  0  0  0  0  0  0  0  0  0  0  0
  -24.2788  -21.5404   22.4364 C   0  0  0  0  0  0  0  0  0  0  0  0
  -29.2420  -19.5324   22.0300 C   0  0  0  0  0  0  0  0  0  0  0  0
  -29.6577  -18.7968   23.1398 C   0  0  0  0  0  0  0  0  0  0  0  0
  -22.3308  -20.1180   22.4718 C   0  0  0  0  0  0  0  0  0  0  0  0
  -31.4435  -17.8305   21.8304 C   0  0  0  0  0  0  0  0  0  0  0  0
  -22.7188  -27.7797   21.7946 C   0  0  0  0  0  0  0  0  0  0  0  0
  -29.5010  -24.2864   20.0462 C   0  0  0  0  0  0  0  0  0  0  0  0
  -29.9739  -26.6517   19.2161 C   0  0  0  0  0  0  0  0  0  0  0  0
  -26.9877  -12.8566   18.8662 C   0  0  0  0  0  0  0  0  0  0  0  0
  -24.5287  -19.1485   22.7702 C   0  0  0  0  0  0  0  0  0  0  0  0
  -26.9192  -14.2476   19.0728 C   0  0  0  0  0  0  0  0  0  0  0  0
  -23.1375  -18.9913   22.6926 C   0  0  0  0  0  0  0  0  0  0  0  0
  -29.5095  -21.5053   19.8269 C   0  0  0  0  0  0  0  0  0  0  0  0
  -22.8989  -21.3851   22.3428 C   0  0  0  0  0  0  0  0  0  0  0  0
  -29.9270  -19.4169   20.8203 C   0  0  0  0  0  0  0  0  0  0  0  0
  -30.7585  -17.9459   23.0401 C   0  0  0  0  0  0  0  0  0  0  0  0
  -31.0277  -18.5661   20.7206 C   0  0  0  0  0  0  0  0  0  0  0  0
  -29.4958  -25.7228   20.1596 C   0  0  0  0  0  0  0  0  0  0  0  0
  -22.5738  -29.0254   22.3368 C   0  0  0  0  0  0  0  0  0  0  0  0
  -29.7422  -27.8767   19.7925 C   0  0  0  0  0  0  0  0  0  0  0  0
  -20.5678  -28.3003   21.7445 C   0  0  0  0  0  0  0  0  0  0  0  0
  -30.5739  -26.4275   17.9334 C   0  0  0  0  0  0  0  0  0  0  0  0
  -24.7682  -16.4349   21.1323 C   0  0  0  0  0  0  0  0  0  0  0  0
  -22.9485  -15.2690   23.5514 C   0  0  0  0  0  0  0  0  0  0  0  0
  -20.7072  -15.8889   26.0492 C   0  0  0  0  0  0  0  0  0  0  0  0
  -25.8170  -29.7749   23.8963 C   0  0  0  0  0  0  0  0  0  0  0  0
  -25.7463  -12.0029   18.7962 C   0  0  0  0  0  0  0  0  0  0  0  0
  -25.4160  -17.9622   23.0306 C   0  0  0  0  0  0  0  0  0  0  0  0
  -22.4830  -17.6419   22.8316 C   0  0  0  0  0  0  0  0  0  0  0  0
  -24.5108  -12.6747   19.3899 C   0  0  0  0  0  0  0  0  0  0  0  0
  -29.3667  -29.9927   24.0671 C   0  0  0  0  0  0  0  0  0  0  0  0
  -24.3908  -14.1102   18.8883 C   0  0  0  0  0  0  0  0  0  0  0  0
  -29.8454  -29.0069   22.9999 C   0  0  0  0  0  0  0  0  0  0  0  0
  -28.1136  -29.4886   24.7796 C   0  0  0  0  0  0  0  0  0  0  0  0
  -27.4769  -28.1373   22.8194 C   0  0  0  0  0  0  0  0  0  0  0  0
  -25.6006  -14.9482   19.3192 C   0  0  1  0  0  0  0  0  0  0  0  0
  -24.7787  -16.6381   22.6210 C   0  0  1  0  0  0  0  0  0  0  0  0
  -28.7058  -28.6280   22.0350 C   0  0  2  0  0  0  0  0  0  0  0  0
  -19.1009  -28.2454   21.5257 C   0  0  0  0  0  0  0  0  0  0  0  0
  -23.8754  -31.2226   20.6519 C   0  0  0  0  0  0  0  0  0  0  0  0
  -19.3738  -14.7304   27.8317 C   0  0  0  0  0  0  0  0  0  0  0  0
  -20.4864  -23.9743   24.0426 C   0  0  0  0  0  0  0  0  0  0  0  0
  -21.0074  -14.2461   21.4311 C   0  0  0  0  0  0  0  0  0  0  0  0
  -19.2935  -13.9671   23.2347 C   0  0  0  0  0  0  0  0  0  0  0  0
  -21.4171  -12.6612   23.3218 C   0  0  0  0  0  0  0  0  0  0  0  0
  -22.0380  -17.4211   28.2033 C   0  0  0  0  0  0  0  0  0  0  0  0
  -23.5923  -31.3294   22.1453 C   0  0  0  0  0  0  0  0  0  0  0  0
  -20.5162  -25.0063   21.7577 C   0  0  0  0  0  0  0  0  0  0  0  0
  -21.1447  -26.0261   20.7979 C   0  0  0  0  0  0  0  0  0  0  0  0
  -22.5614  -23.7201   22.6430 C   0  0  0  0  0  0  0  0  0  1  0  0
  -23.5566  -29.9614   22.8888 C   0  0  2  0  0  0  0  0  0  0  0  0
  -21.4664  -15.1417   23.8088 C   0  0  1  0  0  0  0  0  0  0  0  0
  -20.6718  -15.4511   27.5023 C   0  0  2  0  0  0  0  0  0  0  0  0
  -21.3785  -24.6361   22.9846 C   0  0  2  0  0  0  0  0  0  0  0  0
  -20.8083  -14.0293   22.9445 C   0  0  0  0  0  0  0  0  0  0  0  0
  -28.9980  -26.3075   21.2525 N   0  0  0  0  0  0  0  0  0  0  0  0
  -21.4619  -27.3549   21.4373 N   0  0  0  0  0  0  0  0  0  0  0  0
  -29.1622  -27.6171   20.9993 N   0  0  0  0  0  0  0  0  0  0  0  0
  -21.2329  -29.3223   22.2928 N   0  3  0  0  0  0  0  0  0  0  0  0
  -23.3936  -16.5118   23.0790 N   0  0  0  0  0  0  0  0  0  0  0  0
  -27.0710  -29.1482   23.8085 N   0  0  0  0  0  0  0  0  0  0  0  0
  -29.9800  -29.1398   19.3797 N   0  0  0  0  0  0  0  0  0  0  0  0
  -30.7374  -25.1066   17.4940 N   0  0  0  0  0  0  0  0  0  0  0  0
  -25.4817  -15.3294   20.7102 N   0  0  0  0  0  0  0  0  0  0  0  0
  -21.3171  -14.9478   25.2470 N   0  0  0  0  0  0  0  0  0  0  0  0
  -24.8883  -29.3997   22.9333 N   0  0  0  0  0  0  0  0  0  0  0  0
  -20.7948  -16.6326   28.4024 N   0  3  0  0  0  0  0  0  0  0  0  0
  -30.9687  -27.3699   17.2057 O   0  0  0  0  0  0  0  0  0  0  0  0
  -24.1566  -17.2220   20.4195 O   0  0  0  0  0  0  0  0  0  0  0  0
  -23.6851  -14.3037   23.7684 O   0  0  0  0  0  0  0  0  0  0  0  0
  -20.2373  -16.9571   25.6637 O   0  0  0  0  0  0  0  0  0  0  0  0
  -25.5470  -30.6111   24.7651 O   0  0  0  0  0  0  0  0  0  0  0  0
  -29.5134  -20.1484   19.7196 O   0  0  0  0  0  0  0  0  0  0  0  0
  -22.1041  -22.4692   22.1306 O   0  0  0  0  0  0  0  0  0  1  0  0
  -31.1586  -17.2408   24.1063 F   0  0  0  0  0  0  0  0  0  0  0  0
  -31.6905  -18.4519   19.5615 F   0  0  0  0  0  0  0  0  0  0  0  0
  1  2  1  0  0  0  0
  1  5  2  0  0  0  0
  2  6  2  0  0  0  0
  3  8  2  0  0  0  0
  3 16  1  0  0  0  0
  4  9  1  0  0  0  0
  4 16  2  0  0  0  0
  5 18  1  0  0  0  0
  6 20  1  0  0  0  0
  7 10  2  0  0  0  0
  7 19  1  0  0  0  0
  8 22  1  0  0  0  0
  9 22  2  0  0  0  0
 10 23  1  0  0  0  0
 11 12  2  0  0  0  0
 11 24  1  0  0  0  0
 12 25  1  0  0  0  0
 13 21  1  0  0  0  0
 13 23  2  0  0  0  0
 14 25  2  0  0  0  0
 14 26  1  0  0  0  0
 15 28  2  0  0  0  0
 15 66  1  0  0  0  0
 16 27  1  0  0  0  0
 17 27  1  0  0  0  0
 17 29  2  0  0  0  0
 17 31  1  0  0  0  0
 18 20  2  0  0  0  0
 18 36  1  0  0  0  0
 19 21  2  0  0  0  0
 19 37  1  0  0  0  0
 20 45  1  0  0  0  0
 21 38  1  0  0  0  0
 22 82  1  0  0  0  0
 23 83  1  0  0  0  0
 24 26  2  0  0  0  0
 24 82  1  0  0  0  0
 25 84  1  0  0  0  0
 26 85  1  0  0  0  0
 27 65  2  0  0  0  0
 28 60  1  0  0  0  0
 28 68  1  0  0  0  0
 29 67  1  0  0  0  0
 29 71  1  0  0  0  0
 30 48  1  0  0  0  0
 30 66  1  0  0  0  0
 30 68  2  0  0  0  0
 31 72  1  0  0  0  0
 31 77  2  0  0  0  0
 32 46  1  0  0  0  0
 32 73  1  0  0  0  0
 32 78  2  0  0  0  0
 33 61  1  0  0  0  0
 33 69  1  0  0  0  0
 33 79  2  0  0  0  0
 34 62  1  0  0  0  0
 34 74  1  0  0  0  0
 34 80  2  0  0  0  0
 35 70  1  0  0  0  0
 35 75  1  0  0  0  0
 35 81  2  0  0  0  0
 36 39  1  0  0  0  0
 37 46  1  0  0  0  0
 38 69  1  0  0  0  0
 39 41  1  0  0  0  0
 40 42  1  0  0  0  0
 40 43  1  0  0  0  0
 41 45  1  0  0  0  0
 42 47  1  0  0  0  0
 43 70  1  0  0  0  0
 44 47  1  0  0  0  0
 44 70  1  0  0  0  0
 45 73  1  0  0  0  0
 46 69  1  0  0  0  0
 47 67  1  0  0  0  0
 49 56  1  0  0  0  0
 50 62  1  0  0  0  0
 51 63  1  0  0  0  0
 52 64  1  0  0  0  0
 53 64  1  0  0  0  0
 54 64  1  0  0  0  0
 55 76  1  0  0  0  0
 56 60  1  0  0  0  0
 57 58  1  0  0  0  0
 57 63  1  0  0  0  0
 58 66  1  0  0  0  0
 59 63  1  0  0  0  0
 59 83  1  0  0  0  0
 60 75  1  0  0  0  0
 61 64  1  0  0  0  0
 61 74  1  0  0  0  0
 62 76  1  0  0  0  0
 65 67  1  0  0  0  0
M  CHG  2  68   1  76   1
M  ISO  4  35 100  59 101  75 100  83 101
M  END
> <Batch ID>
0075

> <Smiles>
CCC([100NH:0][100C:0](=O)N1CCCC(n2nc(-c3ccc(Oc4ccc(F)cc4F)cc3)c(C(N)=O)c2N)C1)c1cn(CCC(C)[101CH2:1][101O:1]c2ccc3c(c2)CN(C(=O)C(NC(=O)C(C)NC)C(C)(C)C)C(C(=O)NC2CCCc4ccccc42)C3)c(C)n1

> <Shape>
0.225

> <Color>
0.055

> <Negative vol penalty>
0.000

$$$$

  -OEChem-04052318323D

 81 89  0     1  0  0  0  0  0999 V2000
  -24.8495   -9.8305   24.5775 C   0  0  0  0  0  0  0  0  0  0  0  0
  -25.4923  -10.8374   23.8644 C   0  0  0  0  0  0  0  0  0  0  0  0
  -25.0902  -29.2884   22.7916 C   0  0  0  0  0  0  0  0  0  0  0  0
  -24.4550  -30.5600   20.8381 C   0  0  0  0  0  0  0  0  0  0  0  0
  -23.8710   -9.0546   23.9576 C   0  0  0  0  0  0  0  0  0  0  0  0
  -25.1576  -11.0682   22.5306 C   0  0  0  0  0  0  0  0  0  0  0  0
  -24.6164  -15.9941   21.4878 C   0  0  0  0  0  0  0  0  0  0  0  0
  -24.5071  -30.2552   23.6106 C   0  0  0  0  0  0  0  0  0  0  0  0
  -23.8717  -31.5268   21.6571 C   0  0  0  0  0  0  0  0  0  0  0  0
  -25.7814  -16.7406   21.3171 C   0  0  0  0  0  0  0  0  0  0  0  0
  -25.2972  -33.3201   24.7965 C   0  0  0  0  0  0  0  0  0  0  0  0
  -26.0163  -33.7399   25.9155 C   0  0  0  0  0  0  0  0  0  0  0  0
  -25.5237  -16.5844   18.9237 C   0  0  0  0  0  0  0  0  0  0  0  0
  -24.2229  -32.9892   27.3498 C   0  0  0  0  0  0  0  0  0  0  0  0
  -30.8521  -22.6594   19.9649 C   0  0  0  0  0  0  0  0  0  0  0  0
  -25.0642  -29.4408   21.4053 C   0  0  0  0  0  0  0  0  0  0  0  0
  -25.0471  -27.3008   20.0168 C   0  0  0  0  0  0  0  0  0  0  0  0
  -23.5173   -9.2824   22.6183 C   0  0  0  0  0  0  0  0  0  0  0  0
  -23.9009  -15.5271   20.3758 C   0  0  0  0  0  0  0  0  0  0  0  0
  -24.1744  -10.2937   21.8918 C   0  0  0  0  0  0  0  0  0  0  0  0
  -24.3484  -15.8344   19.0830 C   0  0  0  0  0  0  0  0  0  0  0  0
  -23.8978  -31.3744   23.0434 C   0  0  0  0  0  0  0  0  0  0  0  0
  -26.2369  -17.0334   20.0349 C   0  0  0  0  0  0  0  0  0  0  0  0
  -24.0408  -32.7349   24.9541 C   0  0  0  0  0  0  0  0  0  0  0  0
  -25.4793  -33.5744   27.1921 C   0  0  0  0  0  0  0  0  0  0  0  0
  -23.5037  -32.5694   26.2307 C   0  0  0  0  0  0  0  0  0  0  0  0
  -25.6670  -28.4427   20.5588 C   0  0  0  0  0  0  0  0  0  0  0  0
  -30.5112  -23.6835   19.1174 C   0  0  0  0  0  0  0  0  0  0  0  0
  -26.0375  -26.6839   19.2922 C   0  0  0  0  0  0  0  0  0  0  0  0
  -23.6969  -26.8392   20.1559 C   0  0  0  0  0  0  0  0  0  0  0  0
  -31.2914  -24.8955   18.8364 C   0  0  0  0  0  0  0  0  0  0  0  0
  -23.1222  -12.6570   19.2534 C   0  0  0  0  0  0  0  0  0  0  0  0
  -21.4040  -14.3891   17.1158 C   0  0  0  0  0  0  0  0  0  0  0  0
  -20.9563  -17.3496   15.4780 C   0  0  0  0  0  0  0  0  0  0  0  0
  -22.4871   -8.3867   21.9772 C   0  0  0  0  0  0  0  0  0  0  0  0
  -22.6314  -14.7459   20.5769 C   0  0  0  0  0  0  0  0  0  0  0  0
  -23.6056  -15.3738   17.8563 C   0  0  0  0  0  0  0  0  0  0  0  0
  -21.9255   -8.9421   20.6708 C   0  0  0  0  0  0  0  0  0  0  0  0
  -30.6405  -28.2909   17.9480 C   0  0  0  0  0  0  0  0  0  0  0  0
  -23.0536   -9.4471   19.7768 C   0  0  0  0  0  0  0  0  0  0  0  0
  -29.2452  -28.5486   18.5197 C   0  0  0  0  0  0  0  0  0  0  0  0
  -31.4544  -27.3619   18.8452 C   0  0  0  0  0  0  0  0  0  0  0  0
  -29.3915  -26.3361   19.7379 C   0  0  0  0  0  0  0  0  0  0  0  0
  -23.8214  -10.5908   20.4505 C   0  0  1  0  0  0  0  0  0  0  0  0
  -22.2632  -13.8840   19.3732 C   0  0  1  0  0  0  0  0  0  0  0  0
  -28.5201  -27.2275   18.8379 C   0  0  1  0  0  0  0  0  0  0  0  0
  -19.4911  -18.4506   13.7638 C   0  0  0  0  0  0  0  0  0  0  0  0
  -22.8371  -12.8495   14.9054 C   0  0  0  0  0  0  0  0  0  0  0  0
  -22.0714  -14.5988   13.2862 C   0  0  0  0  0  0  0  0  0  0  0  0
  -20.3949  -13.2137   14.5084 C   0  0  0  0  0  0  0  0  0  0  0  0
  -30.0567  -16.8415   19.1871 C   0  0  0  0  0  0  0  0  0  0  0  0
  -30.8244  -17.6951   21.4053 C   0  0  0  0  0  0  0  0  0  0  0  0
  -20.0538  -19.4087   17.4027 C   0  0  0  0  0  0  0  0  0  0  0  0
  -29.9171  -19.2962   19.6438 C   0  0  0  0  0  0  0  0  0  0  0  0
  -29.6197  -20.4795   20.5743 C   0  0  0  0  0  0  0  0  0  0  0  0
  -28.3753  -17.6465   20.8758 C   0  0  0  0  0  0  0  0  0  1  0  0
  -21.6812  -14.9939   15.7606 C   0  0  1  0  0  0  0  0  0  0  0  0
  -19.7170  -18.1949   15.2459 C   0  0  2  0  0  0  0  0  0  0  0  0
  -21.7614  -13.9212   14.6381 C   0  0  0  0  0  0  0  0  0  0  0  0
  -29.7826  -17.8880   20.2890 C   0  0  0  0  0  0  0  0  0  0  0  0
  -26.9516  -28.5473   20.2085 N   0  0  0  0  0  0  0  0  0  0  0  0
  -29.2990  -23.4197   18.5424 N   0  0  0  0  0  0  0  0  0  0  0  0
  -28.8707  -22.2523   19.0101 N   0  0  0  0  0  0  0  0  0  0  0  0
  -29.8034  -21.7981   19.8628 N   0  0  0  0  0  0  0  0  0  0  0  0
  -27.1471  -27.4632   19.4387 N   0  0  0  0  0  0  0  0  0  0  0  0
  -30.7126  -26.1334   19.1265 N   0  0  0  0  0  0  0  0  0  0  0  0
  -22.3732  -14.6077   18.1050 N   0  0  0  0  0  0  0  0  0  0  0  0
  -26.0586  -25.5562   18.5504 N   0  0  0  0  0  0  0  0  0  0  0  0
  -22.8099  -27.5933   20.9362 N   0  0  0  0  0  0  0  0  0  0  0  0
  -23.0733  -11.8261   20.3565 N   0  0  0  0  0  0  0  0  0  0  0  0
  -20.6527  -16.0063   15.5473 N   0  0  0  0  0  0  0  0  0  0  0  0
  -19.8503  -19.5097   15.9346 N   0  3  0  0  0  0  0  0  0  0  0  0
  -23.2934  -25.7802   19.6181 O   0  0  0  0  0  0  0  0  0  0  0  0
  -32.4072  -24.7226   18.3484 O   0  0  0  0  0  0  0  0  0  0  0  0
  -23.7796  -12.4767   18.2351 O   0  0  0  0  0  0  0  0  0  0  0  0
  -20.3622  -13.7525   17.2921 O   0  0  0  0  0  0  0  0  0  0  0  0
  -22.0817  -17.8322   15.5833 O   0  0  0  0  0  0  0  0  0  0  0  0
  -23.3284  -32.3179   23.8423 O   0  0  0  0  0  0  0  0  0  0  0  0
  -27.3741  -17.7612   19.8654 O   0  0  0  0  0  0  0  0  0  1  0  0
  -26.1707  -33.9762   28.2667 F   0  0  0  0  0  0  0  0  0  0  0  0
  -22.2978  -32.0067   26.3886 F   0  0  0  0  0  0  0  0  0  0  0  0
  1  2  1  0  0  0  0
  1  5  2  0  0  0  0
  2  6  2  0  0  0  0
  3  8  2  0  0  0  0
  3 16  1  0  0  0  0
  4  9  1  0  0  0  0
  4 16  2  0  0  0  0
  5 18  1  0  0  0  0
  6 20  1  0  0  0  0
  7 10  2  0  0  0  0
  7 19  1  0  0  0  0
  8 22  1  0  0  0  0
  9 22  2  0  0  0  0
 10 23  1  0  0  0  0
 11 12  2  0  0  0  0
 11 24  1  0  0  0  0
 12 25  1  0  0  0  0
 13 21  1  0  0  0  0
 13 23  2  0  0  0  0
 14 25  2  0  0  0  0
 14 26  1  0  0  0  0
 15 28  2  0  0  0  0
 15 64  1  0  0  0  0
 16 27  1  0  0  0  0
 17 27  1  0  0  0  0
 17 29  2  0  0  0  0
 17 30  1  0  0  0  0
 18 20  2  0  0  0  0
 18 35  1  0  0  0  0
 19 21  2  0  0  0  0
 19 36  1  0  0  0  0
 20 44  1  0  0  0  0
 21 37  1  0  0  0  0
 22 78  1  0  0  0  0
 23 79  1  0  0  0  0
 24 26  2  0  0  0  0
 24 78  1  0  0  0  0
 25 80  1  0  0  0  0
 26 81  1  0  0  0  0
 27 61  2  0  0  0  0
 28 31  1  0  0  0  0
 28 62  1  0  0  0  0
 29 65  1  0  0  0  0
 29 68  1  0  0  0  0
 30 69  1  0  0  0  0
 30 73  2  0  0  0  0
 31 66  1  0  0  0  0
 31 74  2  0  0  0  0
 32 45  1  0  0  0  0
 32 70  1  0  0  0  0
 32 75  2  0  0  0  0
 33 57  1  0  0  0  0
 33 67  1  0  0  0  0
 33 76  2  0  0  0  0
 34 58  1  0  0  0  0
 34 71  1  0  0  0  0
 34 77  2  0  0  0  0
 35 38  1  0  0  0  0
 36 45  1  0  0  0  0
 37 67  1  0  0  0  0
 38 40  1  0  0  0  0
 39 41  1  0  0  0  0
 39 42  1  0  0  0  0
 40 44  1  0  0  0  0
 41 46  1  0  0  0  0
 42 66  1  0  0  0  0
 43 46  1  0  0  0  0
 43 66  1  0  0  0  0
 44 70  1  0  0  0  0
 45 67  1  0  0  0  0
 46 65  1  0  0  0  0
 47 58  1  0  0  0  0
 48 59  1  0  0  0  0
 49 59  1  0  0  0  0
 50 59  1  0  0  0  0
 51 60  1  0  0  0  0
 52 60  1  0  0  0  0
 53 72  1  0  0  0  0
 54 55  1  0  0  0  0
 54 60  1  0  0  0  0
 55 64  1  0  0  0  0
 56 60  1  0  0  0  0
 56 79  1  0  0  0  0
 57 59  1  0  0  0  0
 57 71  1  0  0  0  0
 58 72  1  0  0  0  0
 61 65  1  0  0  0  0
 62 63  2  0  0  0  0
 63 64  1  0  0  0  0
M  CHG  1  72   1
M  ISO  4  28 100  31 100  56 101  79 101
M  END
> <Batch ID>
0075

> <Smiles>
CNC(C)C(=O)NC(C(=O)N1Cc2cc([101O:1][101CH2:1]C(C)(C)CCn3c[100c:0]([100C:0](=O)N4CCCC(n5nc(-c6ccc(Oc7ccc(F)cc7F)cc6)c(C(N)=O)c5N)C4)nn3)ccc2CC1C(=O)NC1CCCc2ccccc21)C(C)(C)C

> <Shape>
0.235

> <Color>
0.077

> <Negative vol penalty>
0.000

$$$$

  -OEChem-04052318323D

 85 93  0     1  0  0  0  0  0999 V2000
  -23.5254  -28.0699   33.9355 C   0  0  0  0  0  0  0  0  0  0  0  0
  -24.3803  -26.9788   33.8165 C   0  0  0  0  0  0  0  0  0  0  0  0
  -23.0740   -9.8689   19.9418 C   0  0  0  0  0  0  0  0  0  0  0  0
  -23.8384   -9.8746   22.2337 C   0  0  0  0  0  0  0  0  0  0  0  0
  -22.3251  -28.0941   33.2266 C   0  0  0  0  0  0  0  0  0  0  0  0
  -24.0348  -25.9108   32.9893 C   0  0  0  0  0  0  0  0  0  0  0  0
  -27.8377  -22.4544   29.6580 C   0  0  0  0  0  0  0  0  0  0  0  0
  -22.3313   -8.7151   20.1924 C   0  0  0  0  0  0  0  0  0  0  0  0
  -23.0956   -8.7209   22.4843 C   0  0  0  0  0  0  0  0  0  0  0  0
  -28.4048  -21.2006   29.8818 C   0  0  0  0  0  0  0  0  0  0  0  0
  -19.8691   -7.9208   23.0925 C   0  0  0  0  0  0  0  0  0  0  0  0
  -19.1145   -7.8796   24.2649 C   0  0  0  0  0  0  0  0  0  0  0  0
  -26.6395  -20.1788   28.5939 C   0  0  0  0  0  0  0  0  0  0  0  0
  -20.3584   -5.9423   24.9975 C   0  0  0  0  0  0  0  0  0  0  0  0
  -31.0829  -17.5196   24.3844 C   0  0  0  0  0  0  0  0  0  0  0  0
  -23.8276  -10.4486   20.9624 C   0  0  0  0  0  0  0  0  0  0  0  0
  -24.1678  -12.9740   20.8436 C   0  0  0  0  0  0  0  0  0  0  0  0
  -21.9693  -27.0302   32.3827 C   0  0  0  0  0  0  0  0  0  0  0  0
  -26.6592  -22.5789   28.9082 C   0  0  0  0  0  0  0  0  0  0  0  0
  -22.8280  -25.9202   32.2694 C   0  0  0  0  0  0  0  0  0  0  0  0
  -26.0609  -21.4356   28.3597 C   0  0  0  0  0  0  0  0  0  0  0  0
  -22.3420   -8.1411   21.4636 C   0  0  0  0  0  0  0  0  0  0  0  0
  -27.8041  -20.0623   29.3522 C   0  0  0  0  0  0  0  0  0  0  0  0
  -20.8683   -6.9727   22.8726 C   0  0  0  0  0  0  0  0  0  0  0  0
  -19.3591   -6.8904   25.2174 C   0  0  0  0  0  0  0  0  0  0  0  0
  -21.1130   -5.9835   23.8251 C   0  0  0  0  0  0  0  0  0  0  0  0
  -24.5955  -11.6401   20.7041 C   0  0  0  0  0  0  0  0  0  0  0  0
  -30.3901  -17.3723   23.2160 C   0  0  0  0  0  0  0  0  0  0  0  0
  -25.2588  -13.7244   20.4787 C   0  0  0  0  0  0  0  0  0  0  0  0
  -28.9939  -18.1579   24.7438 C   0  0  0  0  0  0  0  0  0  0  0  0
  -22.8978  -13.4888   21.2653 C   0  0  0  0  0  0  0  0  0  0  0  0
  -23.7218  -23.6364   29.5056 C   0  0  0  0  0  0  0  0  0  0  0  0
  -23.3236  -23.1622   26.3214 C   0  0  0  0  0  0  0  0  0  0  0  0
  -24.3092  -21.5327   23.4894 C   0  0  0  0  0  0  0  0  0  0  0  0
  -30.7423  -14.7464   20.6571 C   0  0  0  0  0  0  0  0  0  0  0  0
  -20.6393  -27.0800   31.6732 C   0  0  0  0  0  0  0  0  0  0  0  0
  -26.0748  -23.9412   28.6533 C   0  0  0  0  0  0  0  0  0  0  0  0
  -24.8061  -21.5174   27.5307 C   0  0  0  0  0  0  0  0  0  0  0  0
  -20.5221  -26.0775   30.5279 C   0  0  0  0  0  0  0  0  0  0  0  0
  -29.6014  -12.3630   18.2708 C   0  0  0  0  0  0  0  0  0  0  0  0
  -21.0191  -24.7041   30.9677 C   0  0  0  0  0  0  0  0  0  0  0  0
  -28.1650  -12.0681   18.7063 C   0  0  0  0  0  0  0  0  0  0  0  0
  -30.5208  -12.5835   19.4701 C   0  0  0  0  0  0  0  0  0  0  0  0
  -28.6213  -13.3125   20.8609 C   0  0  0  0  0  0  0  0  0  0  0  0
  -22.4999  -24.7537   31.3629 C   0  0  1  0  0  0  0  0  0  0  0  0
  -24.5895  -23.8990   28.3074 C   0  0  1  0  0  0  0  0  0  0  0  0
  -27.6450  -13.1382   19.6850 C   0  0  2  0  0  0  0  0  0  0  0  0
  -27.7562  -18.6579   25.3926 C   0  0  0  0  0  0  0  0  0  0  0  0
  -30.6370  -17.9440   20.7719 C   0  0  0  0  0  0  0  0  0  0  0  0
  -23.7703  -21.3256   21.0473 C   0  0  0  0  0  0  0  0  0  0  0  0
  -20.8827  -21.4643   27.0065 C   0  0  0  0  0  0  0  0  0  0  0  0
  -20.9634  -20.5355   24.6830 C   0  0  0  0  0  0  0  0  0  0  0  0
  -20.5828  -22.9754   25.0364 C   0  0  0  0  0  0  0  0  0  0  0  0
  -29.6940  -16.2806   29.9873 C   0  0  0  0  0  0  0  0  0  0  0  0
  -31.8543  -17.4149   29.4535 C   0  0  0  0  0  0  0  0  0  0  0  0
  -26.9979  -22.4822   22.6968 C   0  0  0  0  0  0  0  0  0  0  0  0
  -30.0199  -17.2279   27.6959 C   0  0  0  0  0  0  0  0  0  0  0  0
  -30.5279  -18.3242   26.7502 C   0  0  0  0  0  0  0  0  0  0  0  0
  -29.7720  -18.7817   29.7309 C   0  0  0  0  0  0  0  0  0  1  0  0
  -30.8094  -16.8961   21.8954 C   0  0  2  0  0  0  0  0  0  0  0  0
  -22.8785  -22.0048   25.4604 C   0  0  1  0  0  0  0  0  0  0  0  0
  -24.6157  -22.0385   22.0913 C   0  0  2  0  0  0  0  0  0  0  0  0
  -21.3494  -21.7429   25.5638 C   0  0  0  0  0  0  0  0  0  0  0  0
  -30.3362  -17.4453   29.2026 C   0  0  0  0  0  0  0  0  0  0  0  0
  -25.8596  -11.5453   20.2832 N   0  0  0  0  0  0  0  0  0  0  0  0
  -30.1947  -18.0077   25.3123 N   0  0  0  0  0  0  0  0  0  0  0  0
  -26.2355  -12.8292   20.1551 N   0  0  0  0  0  0  0  0  0  0  0  0
  -29.1004  -17.7743   23.4675 N   0  3  0  0  0  0  0  0  0  0  0  0
  -24.2693  -22.8712   27.3148 N   0  0  0  0  0  0  0  0  0  0  0  0
  -29.9714  -13.6110   20.3579 N   0  0  0  0  0  0  0  0  0  0  0  0
  -25.4683  -15.0560   20.4062 N   0  0  0  0  0  0  0  0  0  0  0  0
  -21.8871  -12.5789   21.6039 N   0  0  0  0  0  0  0  0  0  0  0  0
  -23.3374  -24.7779   30.1829 N   0  0  0  0  0  0  0  0  0  0  0  0
  -23.3444  -22.2983   24.1094 N   0  0  0  0  0  0  0  0  0  0  0  0
  -30.1443  -15.6743   21.5010 N   0  0  0  0  0  0  0  0  0  0  0  0
  -26.0525  -21.8169   21.7637 N   0  3  0  0  0  0  0  0  0  0  0  0
  -22.6610  -14.7193   21.3240 O   0  0  0  0  0  0  0  0  0  0  0  0
  -23.4219  -22.4837   29.7934 O   0  0  0  0  0  0  0  0  0  0  0  0
  -22.8549  -24.2845   26.1155 O   0  0  0  0  0  0  0  0  0  0  0  0
  -24.8669  -20.5540   23.9809 O   0  0  0  0  0  0  0  0  0  0  0  0
  -31.8773  -14.9228   20.2014 O   0  0  0  0  0  0  0  0  0  0  0  0
  -21.6172   -7.0155   21.7085 O   0  0  0  0  0  0  0  0  0  0  0  0
  -28.3553  -18.8372   29.5698 O   0  0  0  0  0  0  0  0  0  1  0  0
  -18.6354   -6.8519   26.3438 F   0  0  0  0  0  0  0  0  0  0  0  0
  -22.0724   -5.0707   23.6200 F   0  0  0  0  0  0  0  0  0  0  0  0
  1  2  1  0  0  0  0
  1  5  2  0  0  0  0
  2  6  2  0  0  0  0
  3  8  2  0  0  0  0
  3 16  1  0  0  0  0
  4  9  1  0  0  0  0
  4 16  2  0  0  0  0
  5 18  1  0  0  0  0
  6 20  1  0  0  0  0
  7 10  2  0  0  0  0
  7 19  1  0  0  0  0
  8 22  1  0  0  0  0
  9 22  2  0  0  0  0
 10 23  1  0  0  0  0
 11 12  2  0  0  0  0
 11 24  1  0  0  0  0
 12 25  1  0  0  0  0
 13 21  1  0  0  0  0
 13 23  2  0  0  0  0
 14 25  2  0  0  0  0
 14 26  1  0  0  0  0
 15 28  2  0  0  0  0
 15 66  1  0  0  0  0
 16 27  1  0  0  0  0
 17 27  1  0  0  0  0
 17 29  2  0  0  0  0
 17 31  1  0  0  0  0
 18 20  2  0  0  0  0
 18 36  1  0  0  0  0
 19 21  2  0  0  0  0
 19 37  1  0  0  0  0
 20 45  1  0  0  0  0
 21 38  1  0  0  0  0
 22 82  1  0  0  0  0
 23 83  1  0  0  0  0
 24 26  2  0  0  0  0
 24 82  1  0  0  0  0
 25 84  1  0  0  0  0
 26 85  1  0  0  0  0
 27 65  2  0  0  0  0
 28 60  1  0  0  0  0
 28 68  1  0  0  0  0
 29 67  1  0  0  0  0
 29 71  1  0  0  0  0
 30 48  1  0  0  0  0
 30 66  1  0  0  0  0
 30 68  2  0  0  0  0
 31 72  1  0  0  0  0
 31 77  2  0  0  0  0
 32 46  1  0  0  0  0
 32 73  1  0  0  0  0
 32 78  2  0  0  0  0
 33 61  1  0  0  0  0
 33 69  1  0  0  0  0
 33 79  2  0  0  0  0
 34 62  1  0  0  0  0
 34 74  1  0  0  0  0
 34 80  2  0  0  0  0
 35 70  1  0  0  0  0
 35 75  1  0  0  0  0
 35 81  2  0  0  0  0
 36 39  1  0  0  0  0
 37 46  1  0  0  0  0
 38 69  1  0  0  0  0
 39 41  1  0  0  0  0
 40 42  1  0  0  0  0
 40 43  1  0  0  0  0
 41 45  1  0  0  0  0
 42 47  1  0  0  0  0
 43 70  1  0  0  0  0
 44 47  1  0  0  0  0
 44 70  1  0  0  0  0
 45 73  1  0  0  0  0
 46 69  1  0  0  0  0
 47 67  1  0  0  0  0
 49 60  1  0  0  0  0
 50 62  1  0  0  0  0
 51 63  1  0  0  0  0
 52 63  1  0  0  0  0
 53 63  1  0  0  0  0
 54 64  1  0  0  0  0
 55 64  1  0  0  0  0
 56 76  1  0  0  0  0
 57 58  1  0  0  0  0
 57 64  1  0  0  0  0
 58 66  1  0  0  0  0
 59 64  1  0  0  0  0
 59 83  1  0  0  0  0
 60 75  1  0  0  0  0
 61 63  1  0  0  0  0
 61 74  1  0  0  0  0
 62 76  1  0  0  0  0
 65 67  1  0  0  0  0
M  CHG  2  68   1  76   1
M  ISO  4  35 100  59 101  75 100  83 101
M  END
> <Batch ID>
0075

> <Smiles>
CNC(C)C(=O)NC(C(=O)N1Cc2cc([101O:1][101CH2:1]C(C)(C)CCn3cc(C(C)[100NH:0][100C:0](=O)N4CCCC(n5nc(-c6ccc(Oc7ccc(F)cc7F)cc6)c(C(N)=O)c5N)C4)nc3C)ccc2CC1C(=O)NC1CCCc2ccccc21)C(C)(C)C

> <Shape>
0.170

> <Color>
0.187

> <Negative vol penalty>
0.000

$$$$

  -OEChem-04052318323D

 86 94  0     1  0  0  0  0  0999 V2000
  -21.6953  -19.4611   16.0354 C   0  0  0  0  0  0  0  0  0  0  0  0
  -23.0414  -19.1127   16.0801 C   0  0  0  0  0  0  0  0  0  0  0  0
  -22.5683  -29.2426   21.2952 C   0  0  0  0  0  0  0  0  0  0  0  0
  -23.6719  -28.2148   23.1827 C   0  0  0  0  0  0  0  0  0  0  0  0
  -20.8531  -19.1219   17.0935 C   0  0  0  0  0  0  0  0  0  0  0  0
  -23.5464  -18.4258   17.1835 C   0  0  0  0  0  0  0  0  0  0  0  0
  -27.9586  -14.1786   17.1726 C   0  0  0  0  0  0  0  0  0  0  0  0
  -21.5308  -29.6598   22.1289 C   0  0  0  0  0  0  0  0  0  0  0  0
  -22.6344  -28.6321   24.0165 C   0  0  0  0  0  0  0  0  0  0  0  0
  -29.3222  -14.2419   17.4561 C   0  0  0  0  0  0  0  0  0  0  0  0
  -18.7888  -28.3005   23.5635 C   0  0  0  0  0  0  0  0  0  0  0  0
  -17.4819  -28.1186   23.1112 C   0  0  0  0  0  0  0  0  0  0  0  0
  -28.8803  -13.5159   19.7137 C   0  0  0  0  0  0  0  0  0  0  0  0
  -17.1050  -30.5015   23.2424 C   0  0  0  0  0  0  0  0  0  0  0  0
  -23.6388  -28.5200   21.8221 C   0  0  0  0  0  0  0  0  0  0  0  0
  -25.8907  -28.7919   20.6547 C   0  0  0  0  0  0  0  0  0  0  0  0
  -21.3460  -18.4220   18.2061 C   0  0  0  0  0  0  0  0  0  0  0  0
  -27.0429  -13.7933   18.1623 C   0  0  0  0  0  0  0  0  0  0  0  0
  -22.7103  -18.0780   18.2581 C   0  0  0  0  0  0  0  0  0  0  0  0
  -27.5059  -13.4460   19.4395 C   0  0  0  0  0  0  0  0  0  0  0  0
  -21.5639  -29.3546   23.4896 C   0  0  0  0  0  0  0  0  0  0  0  0
  -29.7829  -13.9133   18.7276 C   0  0  0  0  0  0  0  0  0  0  0  0
  -19.2538  -29.5828   23.8553 C   0  0  0  0  0  0  0  0  0  0  0  0
  -16.6400  -29.2191   22.9506 C   0  0  0  0  0  0  0  0  0  0  0  0
  -18.4119  -30.6833   23.6947 C   0  0  0  0  0  0  0  0  0  0  0  0
  -24.7106  -28.0882   20.9613 C   0  0  0  0  0  0  0  0  0  0  0  0
  -32.4492  -18.4616   20.0350 C   0  0  0  0  0  0  0  0  0  0  0  0
  -31.8327  -17.2694   20.3450 C   0  0  0  0  0  0  0  0  0  0  0  0
  -29.8068  -18.3291   20.3920 C   0  0  0  0  0  0  0  0  0  0  0  0
  -30.4233  -19.5216   20.0828 C   0  0  0  0  0  0  0  0  0  0  0  0
  -26.5750  -27.9599   19.8026 C   0  0  0  0  0  0  0  0  0  0  0  0
  -26.3292  -30.0821   21.1003 C   0  0  0  0  0  0  0  0  0  0  0  0
  -24.5815  -15.1918   19.6077 C   0  0  0  0  0  0  0  0  0  0  0  0
  -24.1907  -12.2554   20.9294 C   0  0  0  0  0  0  0  0  0  0  0  0
  -28.4101  -22.8371   18.5066 C   0  0  0  0  0  0  0  0  0  0  0  0
  -25.5859   -9.2727   21.8258 C   0  0  0  0  0  0  0  0  0  0  0  0
  -20.4074  -18.1187   19.3471 C   0  0  0  0  0  0  0  0  0  0  0  0
  -25.5780  -13.7043   17.8328 C   0  0  0  0  0  0  0  0  0  0  0  0
  -26.5661  -13.0067   20.5313 C   0  0  0  0  0  0  0  0  0  0  0  0
  -20.9411  -17.0616   20.3103 C   0  0  0  0  0  0  0  0  0  0  0  0
  -25.1188  -23.7498   17.4229 C   0  0  0  0  0  0  0  0  0  0  0  0
  -22.3945  -17.3527   20.6706 C   0  0  0  0  0  0  0  0  0  0  0  0
  -24.8044  -24.9999   18.2437 C   0  0  0  0  0  0  0  0  0  0  0  0
  -25.9555  -22.7541   18.2203 C   0  0  0  0  0  0  0  0  0  0  0  0
  -26.9077  -24.5784   19.5940 C   0  0  0  0  0  0  0  0  0  0  0  0
  -23.2902  -17.3109   19.4266 C   0  0  1  0  0  0  0  0  0  0  0  0
  -24.6821  -13.7946   19.0643 C   0  0  1  0  0  0  0  0  0  0  0  0
  -26.0900  -25.6238   18.8150 C   0  0  2  0  0  0  0  0  0  0  0  0
  -33.9234  -18.5450   19.8328 C   0  0  0  0  0  0  0  0  0  0  0  0
  -28.3316  -18.2500   20.5878 C   0  0  0  0  0  0  0  0  0  0  0  0
  -25.0251   -7.0856   22.9211 C   0  0  0  0  0  0  0  0  0  0  0  0
  -30.2245  -24.3323   19.2567 C   0  0  0  0  0  0  0  0  0  0  0  0
  -24.2182  -13.6182   23.6593 C   0  0  0  0  0  0  0  0  0  0  0  0
  -24.6125  -11.3745   24.6978 C   0  0  0  0  0  0  0  0  0  0  0  0
  -22.5153  -11.8027   23.4167 C   0  0  0  0  0  0  0  0  0  0  0  0
  -26.2787   -7.7422   19.3893 C   0  0  0  0  0  0  0  0  0  0  0  0
  -32.6205  -15.9926   20.4949 C   0  0  0  0  0  0  0  0  0  0  0  0
  -33.0544  -15.3765   19.1631 C   0  0  0  0  0  0  0  0  0  0  0  0
  -31.8837  -14.9388   18.2905 C   0  0  0  0  0  0  0  0  0  1  0  0
  -30.4250  -21.8553   19.6252 C   0  0  0  0  0  0  0  0  0  0  0  0
  -24.7023  -11.5650   22.1706 C   0  0  1  0  0  0  0  0  0  0  0  0
  -25.1311   -7.8412   21.6056 C   0  0  2  0  0  0  0  0  0  0  0  0
  -29.4704  -23.0435   19.5588 C   0  0  2  0  0  0  0  0  0  0  0  0
  -24.0298  -12.1002   23.4663 C   0  0  0  0  0  0  0  0  0  0  0  0
  -24.6456  -26.9007   20.3533 N   0  0  0  0  0  0  0  0  0  0  0  0
  -30.5004  -17.1817   20.5290 N   0  0  0  0  0  0  0  0  0  0  0  0
  -31.7555  -19.6091   19.8984 N   0  0  0  0  0  0  0  0  0  0  0  0
  -25.7934  -26.8518   19.6561 N   0  0  0  0  0  0  0  0  0  0  0  0
  -25.1424  -12.9417   20.1619 N   0  0  0  0  0  0  0  0  0  0  0  0
  -27.1560  -23.3908   18.7649 N   0  0  0  0  0  0  0  0  0  0  0  0
  -27.7630  -28.0754   19.1719 N   0  0  0  0  0  0  0  0  0  0  0  0
  -25.5041  -30.8031   21.9743 N   0  0  0  0  0  0  0  0  0  0  0  0
  -23.5649  -15.9416   19.0474 N   0  0  0  0  0  0  0  0  0  0  0  0
  -24.5170  -10.1351   21.9481 N   0  0  0  0  0  0  0  0  0  0  0  0
  -26.0949   -7.1210   20.7262 N   0  3  0  0  0  0  0  0  0  0  0  0
  -27.4127  -30.5880   20.7214 O   0  0  0  0  0  0  0  0  0  0  0  0
  -25.3670  -15.5618   20.4724 O   0  0  0  0  0  0  0  0  0  0  0  0
  -22.9920  -12.1823   20.6474 O   0  0  0  0  0  0  0  0  0  0  0  0
  -28.6909  -22.2050   17.4849 O   0  0  0  0  0  0  0  0  0  0  0  0
  -26.7708   -9.5931   21.8872 O   0  0  0  0  0  0  0  0  0  0  0  0
  -20.5518  -29.7618   24.3035 O   0  0  0  0  0  0  0  0  0  0  0  0
  -31.1133  -13.9749   19.0072 O   0  0  0  0  0  0  0  0  0  1  0  0
  -29.6992  -20.6726   19.9459 O   0  0  0  0  0  0  0  0  0  0  0  0
  -15.3855  -29.0445   22.5148 F   0  0  0  0  0  0  0  0  0  0  0  0
  -18.8533  -31.9178   23.9723 F   0  0  0  0  0  0  0  0  0  0  0  0
  -28.8854  -23.1876   20.7827 F   0  0  0  0  0  0  0  0  0  0  0  0
  1  2  1  0  0  0  0
  1  5  2  0  0  0  0
  2  6  2  0  0  0  0
  3  8  2  0  0  0  0
  3 15  1  0  0  0  0
  4  9  1  0  0  0  0
  4 15  2  0  0  0  0
  5 17  1  0  0  0  0
  6 19  1  0  0  0  0
  7 10  2  0  0  0  0
  7 18  1  0  0  0  0
  8 21  1  0  0  0  0
  9 21  2  0  0  0  0
 10 22  1  0  0  0  0
 11 12  2  0  0  0  0
 11 23  1  0  0  0  0
 12 24  1  0  0  0  0
 13 20  1  0  0  0  0
 13 22  2  0  0  0  0
 14 24  2  0  0  0  0
 14 25  1  0  0  0  0
 15 26  1  0  0  0  0
 16 26  1  0  0  0  0
 16 31  2  0  0  0  0
 16 32  1  0  0  0  0
 17 19  2  0  0  0  0
 17 37  1  0  0  0  0
 18 20  2  0  0  0  0
 18 38  1  0  0  0  0
 19 46  1  0  0  0  0
 20 39  1  0  0  0  0
 21 81  1  0  0  0  0
 22 82  1  0  0  0  0
 23 25  2  0  0  0  0
 23 81  1  0  0  0  0
 24 84  1  0  0  0  0
 25 85  1  0  0  0  0
 26 65  2  0  0  0  0
 27 28  2  0  0  0  0
 27 49  1  0  0  0  0
 27 67  1  0  0  0  0
 28 57  1  0  0  0  0
 28 66  1  0  0  0  0
 29 30  1  0  0  0  0
 29 50  1  0  0  0  0
 29 66  2  0  0  0  0
 30 67  2  0  0  0  0
 30 83  1  0  0  0  0
 31 68  1  0  0  0  0
 31 71  1  0  0  0  0
 32 72  1  0  0  0  0
 32 76  2  0  0  0  0
 33 47  1  0  0  0  0
 33 73  1  0  0  0  0
 33 77  2  0  0  0  0
 34 61  1  0  0  0  0
 34 69  1  0  0  0  0
 34 78  2  0  0  0  0
 35 63  1  0  0  0  0
 35 70  1  0  0  0  0
 35 79  2  0  0  0  0
 36 62  1  0  0  0  0
 36 74  1  0  0  0  0
 36 80  2  0  0  0  0
 37 40  1  0  0  0  0
 38 47  1  0  0  0  0
 39 69  1  0  0  0  0
 40 42  1  0  0  0  0
 41 43  1  0  0  0  0
 41 44  1  0  0  0  0
 42 46  1  0  0  0  0
 43 48  1  0  0  0  0
 44 70  1  0  0  0  0
 45 48  1  0  0  0  0
 45 70  1  0  0  0  0
 46 73  1  0  0  0  0
 47 69  1  0  0  0  0
 48 68  1  0  0  0  0
 51 62  1  0  0  0  0
 52 63  1  0  0  0  0
 53 64  1  0  0  0  0
 54 64  1  0  0  0  0
 55 64  1  0  0  0  0
 56 75  1  0  0  0  0
 57 58  1  0  0  0  0
 58 59  1  0  0  0  0
 59 82  1  0  0  0  0
 60 63  1  0  0  0  0
 60 83  1  0  0  0  0
 61 64  1  0  0  0  0
 61 74  1  0  0  0  0
 62 75  1  0  0  0  0
 63 86  1  0  0  0  0
 65 68  1  0  0  0  0
M  CHG  1  75   1
M  ISO  4  35 100  59 101  63 100  82 101
M  END
> <Batch ID>
0075

> <Smiles>
CNC(C)C(=O)NC(C(=O)N1Cc2cc([101O:1][101CH2:1]CCc3nc(C)c(OC[100C:0](C)(F)[100C:0](=O)N4CCCC(n5nc(-c6ccc(Oc7ccc(F)cc7F)cc6)c(C(N)=O)c5N)C4)nc3C)ccc2CC1C(=O)NC1CCCc2ccccc21)C(C)(C)C

> <Shape>
0.267

> <Color>
0.080

> <Negative vol penalty>
0.000

$$$$

  -OEChem-04052318323D

 85 93  0     1  0  0  0  0  0999 V2000
  -22.4088  -29.1385   17.6416 C   0  0  0  0  0  0  0  0  0  0  0  0
  -22.3236  -28.0012   18.4383 C   0  0  0  0  0  0  0  0  0  0  0  0
  -23.0657   -9.8756   19.9491 C   0  0  0  0  0  0  0  0  0  0  0  0
  -23.8600   -9.8739   22.2309 C   0  0  0  0  0  0  0  0  0  0  0  0
  -22.1835  -29.0451   16.2689 C   0  0  0  0  0  0  0  0  0  0  0  0
  -22.0120  -26.7699   17.8627 C   0  0  0  0  0  0  0  0  0  0  0  0
  -24.9721  -23.0277   19.5593 C   0  0  0  0  0  0  0  0  0  0  0  0
  -22.3278   -8.7200   20.2052 C   0  0  0  0  0  0  0  0  0  0  0  0
  -23.1220   -8.7183   22.4869 C   0  0  0  0  0  0  0  0  0  0  0  0
  -24.6793  -22.5051   20.8182 C   0  0  0  0  0  0  0  0  0  0  0  0
  -19.9047   -7.9119   23.1343 C   0  0  0  0  0  0  0  0  0  0  0  0
  -19.1655   -7.8654   24.3163 C   0  0  0  0  0  0  0  0  0  0  0  0
  -23.5529  -20.6434   19.7769 C   0  0  0  0  0  0  0  0  0  0  0  0
  -27.0917  -19.4346   22.1785 C   0  0  0  0  0  0  0  0  0  0  0  0
  -20.4213   -5.9271   25.0255 C   0  0  0  0  0  0  0  0  0  0  0  0
  -23.8319  -10.4526   20.9620 C   0  0  0  0  0  0  0  0  0  0  0  0
  -24.1674  -12.9788   20.8479 C   0  0  0  0  0  0  0  0  0  0  0  0
  -21.8785  -27.8103   15.6748 C   0  0  0  0  0  0  0  0  0  0  0  0
  -24.5474  -22.3665   18.3978 C   0  0  0  0  0  0  0  0  0  0  0  0
  -21.7811  -26.6601   16.4809 C   0  0  0  0  0  0  0  0  0  0  0  0
  -23.8438  -21.1583   18.5043 C   0  0  0  0  0  0  0  0  0  0  0  0
  -28.0657  -18.8225   21.3975 C   0  0  0  0  0  0  0  0  0  0  0  0
  -26.4598  -18.7121   23.1845 C   0  0  0  0  0  0  0  0  0  0  0  0
  -22.3559   -8.1413   21.4741 C   0  0  0  0  0  0  0  0  0  0  0  0
  -23.9671  -21.3144   20.9272 C   0  0  0  0  0  0  0  0  0  0  0  0
  -20.9022   -6.9659   22.8979 C   0  0  0  0  0  0  0  0  0  0  0  0
  -19.4238   -6.8731   25.2619 C   0  0  0  0  0  0  0  0  0  0  0  0
  -21.1605   -5.9735   23.8435 C   0  0  0  0  0  0  0  0  0  0  0  0
  -24.5949  -11.6460   20.6980 C   0  0  0  0  0  0  0  0  0  0  0  0
  -28.3691  -17.4964   21.6606 C   0  0  0  0  0  0  0  0  0  0  0  0
  -26.8349  -17.3909   23.3674 C   0  0  0  0  0  0  0  0  0  0  0  0
  -25.2526  -13.7319   20.4716 C   0  0  0  0  0  0  0  0  0  0  0  0
  -22.9024  -13.4905   21.2882 C   0  0  0  0  0  0  0  0  0  0  0  0
  -22.6158  -23.0956   15.9810 C   0  0  0  0  0  0  0  0  0  0  0  0
  -30.7591  -14.6935   20.6784 C   0  0  0  0  0  0  0  0  0  0  0  0
  -23.6855  -20.2759   14.7862 C   0  0  0  0  0  0  0  0  0  0  0  0
  -25.0389  -17.2013   15.3880 C   0  0  0  0  0  0  0  0  0  0  0  0
  -21.5966  -27.7673   14.1938 C   0  0  0  0  0  0  0  0  0  0  0  0
  -24.8945  -22.9294   17.0469 C   0  0  0  0  0  0  0  0  0  0  0  0
  -23.3828  -20.3992   17.2879 C   0  0  0  0  0  0  0  0  0  0  0  0
  -21.6401  -26.3590   13.6062 C   0  0  0  0  0  0  0  0  0  0  0  0
  -29.5611  -12.4057   18.1944 C   0  0  0  0  0  0  0  0  0  0  0  0
  -20.8584  -25.3890   14.4864 C   0  0  0  0  0  0  0  0  0  0  0  0
  -28.1380  -12.0903   18.6533 C   0  0  0  0  0  0  0  0  0  0  0  0
  -30.4992  -12.6048   19.3807 C   0  0  0  0  0  0  0  0  0  0  0  0
  -28.6158  -13.3299   20.8121 C   0  0  0  0  0  0  0  0  0  0  0  0
  -21.4699  -25.3022   15.8899 C   0  0  1  0  0  0  0  0  0  0  0  0
  -23.9669  -22.4394   15.9392 C   0  0  1  0  0  0  0  0  0  0  0  0
  -27.6290  -13.1517   19.6447 C   0  0  2  0  0  0  0  0  0  0  0  0
  -28.7465  -19.5912   20.3183 C   0  0  0  0  0  0  0  0  0  0  0  0
  -26.9410  -15.2645   24.6918 C   0  0  0  0  0  0  0  0  0  0  0  0
  -31.2512  -16.2611   22.5102 C   0  0  0  0  0  0  0  0  0  0  0  0
  -25.7637  -15.1043   14.2155 C   0  0  0  0  0  0  0  0  0  0  0  0
  -20.7665  -19.4438   14.4750 C   0  0  0  0  0  0  0  0  0  0  0  0
  -21.5409  -17.0765   14.2208 C   0  0  0  0  0  0  0  0  0  0  0  0
  -22.2438  -18.8019   12.5619 C   0  0  0  0  0  0  0  0  0  0  0  0
  -27.8371  -17.5221   16.2967 C   0  0  0  0  0  0  0  0  0  0  0  0
  -25.4024  -19.3698   24.0347 C   0  0  0  0  0  0  0  0  0  0  0  0
  -29.4061  -16.7864   20.8534 C   0  0  0  0  0  0  0  0  0  0  0  0
  -26.1904  -16.5675   24.4341 C   0  0  0  0  0  0  0  0  0  0  0  0
  -23.9742  -18.9625   23.6661 C   0  0  0  0  0  0  0  0  0  0  0  0
  -23.5709  -19.3833   22.2577 C   0  0  0  0  0  0  0  0  0  1  0  0
  -30.1436  -15.6823   21.6362 C   0  0  1  0  0  0  0  0  0  0  0  0
  -23.2422  -18.8361   14.8845 C   0  0  1  0  0  0  0  0  0  0  0  0
  -26.1965  -16.4655   14.7377 C   0  0  2  0  0  0  0  0  0  0  0  0
  -21.9552  -18.5546   14.0587 C   0  0  0  0  0  0  0  0  0  0  0  0
  -25.8535  -11.5543   20.2603 N   0  0  0  0  0  0  0  0  0  0  0  0
  -27.7767  -16.7622   22.6289 N   0  0  0  0  0  0  0  0  0  0  0  0
  -26.2261  -12.8391   20.1320 N   0  0  0  0  0  0  0  0  0  0  0  0
  -23.7411  -20.9935   15.9894 N   0  0  0  0  0  0  0  0  0  0  0  0
  -29.9694  -13.6041   20.3102 N   0  0  0  0  0  0  0  0  0  0  0  0
  -25.4595  -15.0641   20.4013 N   0  0  0  0  0  0  0  0  0  0  0  0
  -21.8973  -12.5779   21.6366 N   0  0  0  0  0  0  0  0  0  0  0  0
  -22.6557  -24.4727   15.8743 N   0  0  0  0  0  0  0  0  0  0  0  0
  -24.3918  -18.0274   14.4936 N   0  0  0  0  0  0  0  0  0  0  0  0
  -27.2990  -16.2633   15.7198 N   0  3  0  0  0  0  0  0  0  0  0  0
  -22.6648  -14.7204   21.3544 O   0  0  0  0  0  0  0  0  0  0  0  0
  -21.6115  -22.4035   16.0996 O   0  0  0  0  0  0  0  0  0  0  0  0
  -31.9066  -14.8869   20.2684 O   0  0  0  0  0  0  0  0  0  0  0  0
  -23.9787  -20.7444   13.6834 O   0  0  0  0  0  0  0  0  0  0  0  0
  -24.7364  -17.0548   16.5702 O   0  0  0  0  0  0  0  0  0  0  0  0
  -21.6357   -7.0138   21.7243 O   0  0  0  0  0  0  0  0  0  0  0  0
  -23.6793  -20.8025   22.1549 O   0  0  0  0  0  0  0  0  0  1  0  0
  -18.7150   -6.8295   26.3976 F   0  0  0  0  0  0  0  0  0  0  0  0
  -22.1183   -5.0627   23.6225 F   0  0  0  0  0  0  0  0  0  0  0  0
  1  2  1  0  0  0  0
  1  5  2  0  0  0  0
  2  6  2  0  0  0  0
  3  8  2  0  0  0  0
  3 16  1  0  0  0  0
  4  9  1  0  0  0  0
  4 16  2  0  0  0  0
  5 18  1  0  0  0  0
  6 20  1  0  0  0  0
  7 10  2  0  0  0  0
  7 19  1  0  0  0  0
  8 24  1  0  0  0  0
  9 24  2  0  0  0  0
 10 25  1  0  0  0  0
 11 12  2  0  0  0  0
 11 26  1  0  0  0  0
 12 27  1  0  0  0  0
 13 21  1  0  0  0  0
 13 25  2  0  0  0  0
 14 22  2  0  0  0  0
 14 23  1  0  0  0  0
 15 27  2  0  0  0  0
 15 28  1  0  0  0  0
 16 29  1  0  0  0  0
 17 29  1  0  0  0  0
 17 32  2  0  0  0  0
 17 33  1  0  0  0  0
 18 20  2  0  0  0  0
 18 38  1  0  0  0  0
 19 21  2  0  0  0  0
 19 39  1  0  0  0  0
 20 47  1  0  0  0  0
 21 40  1  0  0  0  0
 22 30  1  0  0  0  0
 22 50  1  0  0  0  0
 23 31  2  0  0  0  0
 23 58  1  0  0  0  0
 24 82  1  0  0  0  0
 25 83  1  0  0  0  0
 26 28  2  0  0  0  0
 26 82  1  0  0  0  0
 27 84  1  0  0  0  0
 28 85  1  0  0  0  0
 29 67  2  0  0  0  0
 30 59  1  0  0  0  0
 30 68  2  0  0  0  0
 31 60  1  0  0  0  0
 31 68  1  0  0  0  0
 32 69  1  0  0  0  0
 32 72  1  0  0  0  0
 33 73  1  0  0  0  0
 33 77  2  0  0  0  0
 34 48  1  0  0  0  0
 34 74  1  0  0  0  0
 34 78  2  0  0  0  0
 35 63  1  0  0  0  0
 35 71  1  0  0  0  0
 35 79  2  0  0  0  0
 36 64  1  0  0  0  0
 36 70  1  0  0  0  0
 36 80  2  0  0  0  0
 37 65  1  0  0  0  0
 37 75  1  0  0  0  0
 37 81  2  0  0  0  0
 38 41  1  0  0  0  0
 39 48  1  0  0  0  0
 40 70  1  0  0  0  0
 41 43  1  0  0  0  0
 42 44  1  0  0  0  0
 42 45  1  0  0  0  0
 43 47  1  0  0  0  0
 44 49  1  0  0  0  0
 45 71  1  0  0  0  0
 46 49  1  0  0  0  0
 46 71  1  0  0  0  0
 47 74  1  0  0  0  0
 48 70  1  0  0  0  0
 49 69  1  0  0  0  0
 51 60  1  0  0  0  0
 52 63  1  0  0  0  0
 53 65  1  0  0  0  0
 54 66  1  0  0  0  0
 55 66  1  0  0  0  0
 56 66  1  0  0  0  0
 57 76  1  0  0  0  0
 58 61  1  0  0  0  0
 59 63  1  0  0  0  0
 61 62  1  0  0  0  0
 62 83  1  0  0  0  0
 64 66  1  0  0  0  0
 64 75  1  0  0  0  0
 65 76  1  0  0  0  0
 67 69  1  0  0  0  0
M  CHG  1  76   1
M  ISO  4  35 100  62 101  63 100  83 101
M  END
> <Batch ID>
0075

> <Smiles>
CCc1nc(C[100CH:0](C)[100C:0](=O)N2CCCC(n3nc(-c4ccc(Oc5ccc(F)cc5F)cc4)c(C(N)=O)c3N)C2)c(C)cc1CC[101CH2:1][101O:1]c1ccc2c(c1)CN(C(=O)C(NC(=O)C(C)NC)C(C)(C)C)C(C(=O)NC1CCCc3ccccc31)C2

> <Shape>
0.181

> <Color>
0.191

> <Negative vol penalty>
0.000

$$$$

  -OEChem-04052318323D

 86 94  0     1  0  0  0  0  0999 V2000
  -34.2912  -29.9038   21.4688 C   0  0  0  0  0  0  0  0  0  0  0  0
  -33.3695  -29.1148   22.1495 C   0  0  0  0  0  0  0  0  0  0  0  0
  -23.2858   -9.8607   19.8838 C   0  0  0  0  0  0  0  0  0  0  0  0
  -23.7168   -9.9649   22.2588 C   0  0  0  0  0  0  0  0  0  0  0  0
  -34.4268  -29.7799   20.0867 C   0  0  0  0  0  0  0  0  0  0  0  0
  -32.5821  -28.2022   21.4483 C   0  0  0  0  0  0  0  0  0  0  0  0
  -30.6687  -22.7238   23.4058 C   0  0  0  0  0  0  0  0  0  0  0  0
  -22.5393   -8.6973   20.0703 C   0  0  0  0  0  0  0  0  0  0  0  0
  -22.9702   -8.8015   22.4453 C   0  0  0  0  0  0  0  0  0  0  0  0
  -29.4619  -22.2930   23.9553 C   0  0  0  0  0  0  0  0  0  0  0  0
  -20.8772   -6.0592   23.5930 C   0  0  0  0  0  0  0  0  0  0  0  0
  -19.9655   -6.0350   24.6484 C   0  0  0  0  0  0  0  0  0  0  0  0
  -28.7353  -21.5647   21.7733 C   0  0  0  0  0  0  0  0  0  0  0  0
  -18.7942   -7.9129   23.6796 C   0  0  0  0  0  0  0  0  0  0  0  0
  -23.8746  -10.4945   20.9781 C   0  0  0  0  0  0  0  0  0  0  0  0
  -24.1754  -13.0224   20.8135 C   0  0  0  0  0  0  0  0  0  0  0  0
  -33.6476  -28.8585   19.3695 C   0  0  0  0  0  0  0  0  0  0  0  0
  -30.9139  -22.5879   22.0318 C   0  0  0  0  0  0  0  0  0  0  0  0
  -32.7066  -28.0668   20.0551 C   0  0  0  0  0  0  0  0  0  0  0  0
  -29.9471  -21.9922   21.2093 C   0  0  0  0  0  0  0  0  0  0  0  0
  -22.3815   -8.1677   21.3510 C   0  0  0  0  0  0  0  0  0  0  0  0
  -28.4938  -21.7160   23.1386 C   0  0  0  0  0  0  0  0  0  0  0  0
  -20.7474   -7.0104   22.5809 C   0  0  0  0  0  0  0  0  0  0  0  0
  -18.9240   -6.9618   24.6917 C   0  0  0  0  0  0  0  0  0  0  0  0
  -19.7059   -7.9372   22.6242 C   0  0  0  0  0  0  0  0  0  0  0  0
  -24.6464  -11.6960   20.7860 C   0  0  0  0  0  0  0  0  0  0  0  0
  -27.3963  -16.5790   24.5209 C   0  0  0  0  0  0  0  0  0  0  0  0
  -27.7486  -17.8785   24.8115 C   0  0  0  0  0  0  0  0  0  0  0  0
  -29.9349  -17.3881   24.3537 C   0  0  0  0  0  0  0  0  0  0  0  0
  -29.5826  -16.0883   24.0638 C   0  0  0  0  0  0  0  0  0  0  0  0
  -25.2912  -13.7879   20.5782 C   0  0  0  0  0  0  0  0  0  0  0  0
  -22.8479  -13.5181   21.0322 C   0  0  0  0  0  0  0  0  0  0  0  0
  -31.4731  -24.6083   19.6425 C   0  0  0  0  0  0  0  0  0  0  0  0
  -31.9696  -21.8766   17.9652 C   0  0  0  0  0  0  0  0  0  0  0  0
  -31.3851  -18.5300   17.6395 C   0  0  0  0  0  0  0  0  0  0  0  0
  -31.1750  -12.3022   21.4224 C   0  0  0  0  0  0  0  0  0  0  0  0
  -33.7963  -28.7939   17.8700 C   0  0  0  0  0  0  0  0  0  0  0  0
  -32.2315  -23.0332   21.4590 C   0  0  0  0  0  0  0  0  0  0  0  0
  -30.1695  -21.8049   19.7315 C   0  0  0  0  0  0  0  0  0  0  0  0
  -33.1891  -27.5374   17.2513 C   0  0  0  0  0  0  0  0  0  0  0  0
  -29.5395  -13.6638   18.3938 C   0  0  0  0  0  0  0  0  0  0  0  0
  -31.7963  -27.2825   17.8186 C   0  0  0  0  0  0  0  0  0  0  0  0
  -28.0643  -13.3560   18.6449 C   0  0  0  0  0  0  0  0  0  0  0  0
  -30.4546  -12.6604   19.0891 C   0  0  0  0  0  0  0  0  0  0  0  0
  -28.7257  -12.2173   20.8005 C   0  0  0  0  0  0  0  0  0  0  0  0
  -31.8519  -27.0479   19.3330 C   0  0  1  0  0  0  0  0  0  0  0  0
  -32.1673  -23.3144   19.9610 C   0  0  1  0  0  0  0  0  0  0  0  0
  -27.7775  -13.2370   20.1519 C   0  0  2  0  0  0  0  0  0  0  0  0
  -25.9819  -16.1179   24.6118 C   0  0  0  0  0  0  0  0  0  0  0  0
  -31.6142  -18.6674   23.0010 C   0  0  0  0  0  0  0  0  0  0  0  0
  -31.8937  -16.5776   16.1473 C   0  0  0  0  0  0  0  0  0  0  0  0
  -29.9354  -22.9014   15.9350 C   0  0  0  0  0  0  0  0  0  0  0  0
  -29.7783  -20.5753   15.0225 C   0  0  0  0  0  0  0  0  0  0  0  0
  -31.9472  -21.8043   14.9333 C   0  0  0  0  0  0  0  0  0  0  0  0
  -32.0765  -12.6088   23.6968 C   0  0  0  0  0  0  0  0  0  0  0  0
  -32.7653  -17.0767   19.8171 C   0  0  0  0  0  0  0  0  0  0  0  0
  -31.3494  -17.8489   24.2624 C   0  0  0  0  0  0  0  0  0  0  0  0
  -26.7197  -18.8959   25.2357 C   0  0  0  0  0  0  0  0  0  0  0  0
  -30.5997  -15.0822   23.6458 C   0  0  0  0  0  0  0  0  0  0  0  0
  -25.8665  -19.4269   24.0817 C   0  0  0  0  0  0  0  0  0  0  0  0
  -29.9925  -13.7849   23.0975 C   0  0  0  0  0  0  0  0  0  0  0  0
  -26.6718  -20.1910   23.0372 C   0  0  0  0  0  0  0  0  0  1  0  0
  -31.0993  -20.9463   17.1552 C   0  0  1  0  0  0  0  0  0  0  0  0
  -32.3218  -17.3649   17.3760 C   0  0  2  0  0  0  0  0  0  0  0  0
  -30.6848  -21.5620   15.7890 C   0  0  0  0  0  0  0  0  0  0  0  0
  -25.9591  -11.6197   20.5516 N   0  0  0  0  0  0  0  0  0  0  0  0
  -28.3069  -15.6605   24.1419 N   0  0  0  0  0  0  0  0  0  0  0  0
  -29.0243  -18.3064   24.7330 N   0  0  0  0  0  0  0  0  0  0  0  0
  -26.3225  -12.9078   20.4296 N   0  0  0  0  0  0  0  0  0  0  0  0
  -31.4712  -22.2621   19.2177 N   0  0  0  0  0  0  0  0  0  0  0  0
  -30.1320  -12.5351   20.5109 N   0  0  0  0  0  0  0  0  0  0  0  0
  -25.4810  -15.1213   20.4860 N   0  0  0  0  0  0  0  0  0  0  0  0
  -21.8186  -12.5943   21.2587 N   0  0  0  0  0  0  0  0  0  0  0  0
  -32.3120  -25.7062   19.6201 N   0  0  0  0  0  0  0  0  0  0  0  0
  -31.8345  -19.6909   17.0463 N   0  0  0  0  0  0  0  0  0  0  0  0
  -31.0174  -12.8144   22.7192 N   0  0  0  0  0  0  0  0  0  0  0  0
  -32.3393  -16.4399   18.5443 N   0  3  0  0  0  0  0  0  0  0  0  0
  -22.5795  -14.7433   21.0105 O   0  0  0  0  0  0  0  0  0  0  0  0
  -30.2661  -24.6103   19.4312 O   0  0  0  0  0  0  0  0  0  0  0  0
  -33.0550  -22.2418   17.5067 O   0  0  0  0  0  0  0  0  0  0  0  0
  -30.3557  -18.4205   18.3019 O   0  0  0  0  0  0  0  0  0  0  0  0
  -32.1933  -11.6806   21.0931 O   0  0  0  0  0  0  0  0  0  0  0  0
  -21.6529   -7.0326   21.5334 O   0  0  0  0  0  0  0  0  0  0  0  0
  -27.3148  -21.2954   23.6722 O   0  0  0  0  0  0  0  0  0  1  0  0
  -18.0477   -6.9374   25.7044 F   0  0  0  0  0  0  0  0  0  0  0  0
  -19.5754   -8.8525   21.6542 F   0  0  0  0  0  0  0  0  0  0  0  0
  1  2  1  0  0  0  0
  1  5  2  0  0  0  0
  2  6  2  0  0  0  0
  3  8  2  0  0  0  0
  3 15  1  0  0  0  0
  4  9  1  0  0  0  0
  4 15  2  0  0  0  0
  5 17  1  0  0  0  0
  6 19  1  0  0  0  0
  7 10  2  0  0  0  0
  7 18  1  0  0  0  0
  8 21  1  0  0  0  0
  9 21  2  0  0  0  0
 10 22  1  0  0  0  0
 11 12  2  0  0  0  0
 11 23  1  0  0  0  0
 12 24  1  0  0  0  0
 13 20  1  0  0  0  0
 13 22  2  0  0  0  0
 14 24  2  0  0  0  0
 14 25  1  0  0  0  0
 15 26  1  0  0  0  0
 16 26  1  0  0  0  0
 16 31  2  0  0  0  0
 16 32  1  0  0  0  0
 17 19  2  0  0  0  0
 17 37  1  0  0  0  0
 18 20  2  0  0  0  0
 18 38  1  0  0  0  0
 19 46  1  0  0  0  0
 20 39  1  0  0  0  0
 21 83  1  0  0  0  0
 22 84  1  0  0  0  0
 23 25  2  0  0  0  0
 23 83  1  0  0  0  0
 24 85  1  0  0  0  0
 25 86  1  0  0  0  0
 26 66  2  0  0  0  0
 27 28  1  0  0  0  0
 27 49  1  0  0  0  0
 27 67  2  0  0  0  0
 28 58  1  0  0  0  0
 28 68  2  0  0  0  0
 29 30  2  0  0  0  0
 29 57  1  0  0  0  0
 29 68  1  0  0  0  0
 30 59  1  0  0  0  0
 30 67  1  0  0  0  0
 31 69  1  0  0  0  0
 31 72  1  0  0  0  0
 32 73  1  0  0  0  0
 32 78  2  0  0  0  0
 33 47  1  0  0  0  0
 33 74  1  0  0  0  0
 33 79  2  0  0  0  0
 34 63  1  0  0  0  0
 34 70  1  0  0  0  0
 34 80  2  0  0  0  0
 35 64  1  0  0  0  0
 35 75  1  0  0  0  0
 35 81  2  0  0  0  0
 36 71  1  0  0  0  0
 36 76  1  0  0  0  0
 36 82  2  0  0  0  0
 37 40  1  0  0  0  0
 38 47  1  0  0  0  0
 39 70  1  0  0  0  0
 40 42  1  0  0  0  0
 41 43  1  0  0  0  0
 41 44  1  0  0  0  0
 42 46  1  0  0  0  0
 43 48  1  0  0  0  0
 44 71  1  0  0  0  0
 45 48  1  0  0  0  0
 45 71  1  0  0  0  0
 46 74  1  0  0  0  0
 47 70  1  0  0  0  0
 48 69  1  0  0  0  0
 50 57  1  0  0  0  0
 51 64  1  0  0  0  0
 52 65  1  0  0  0  0
 53 65  1  0  0  0  0
 54 65  1  0  0  0  0
 55 76  1  0  0  0  0
 56 77  1  0  0  0  0
 58 60  1  0  0  0  0
 59 61  1  0  0  0  0
 60 62  1  0  0  0  0
 61 76  1  0  0  0  0
 62 84  1  0  0  0  0
 63 65  1  0  0  0  0
 63 75  1  0  0  0  0
 64 77  1  0  0  0  0
 66 69  1  0  0  0  0
M  CHG  1  77   1
M  ISO  4  36 100  62 101  76 100  84 101
M  END
> <Batch ID>
0075

> <Smiles>
CCc1nc(CC[101CH2:1][101O:1]c2ccc3c(c2)CN(C(=O)C(NC(=O)C(C)NC)C(C)(C)C)C(C(=O)NC2CCCc4ccccc42)C3)c(C)nc1CC[100N:0](C)[100C:0](=O)N1CCCC(n2nc(-c3ccc(Oc4ccc(F)cc4F)cc3)c(C(N)=O)c2N)C1

> <Shape>
0.183

> <Color>
0.185

> <Negative vol penalty>
0.000

$$$$

  -OEChem-04052318323D

 84 92  0     1  0  0  0  0  0999 V2000
  -17.8467  -33.4355   22.0009 C   0  0  0  0  0  0  0  0  0  0  0  0
  -19.1346  -33.4373   21.4750 C   0  0  0  0  0  0  0  0  0  0  0  0
  -25.7895  -13.6653   21.4366 C   0  0  0  0  0  0  0  0  0  0  0  0
  -25.0783  -14.3644   19.2360 C   0  0  0  0  0  0  0  0  0  0  0  0
  -17.5107  -32.5405   23.0158 C   0  0  0  0  0  0  0  0  0  0  0  0
  -20.0877  -32.5448   21.9644 C   0  0  0  0  0  0  0  0  0  0  0  0
  -25.7629  -28.7211   19.8461 C   0  0  0  0  0  0  0  0  0  0  0  0
  -24.7634  -12.7211   21.4683 C   0  0  0  0  0  0  0  0  0  0  0  0
  -24.0522  -13.4201   19.2677 C   0  0  0  0  0  0  0  0  0  0  0  0
  -27.0940  -28.4887   20.1894 C   0  0  0  0  0  0  0  0  0  0  0  0
  -24.1669   -9.6470   20.1927 C   0  0  0  0  0  0  0  0  0  0  0  0
  -24.4803   -8.3639   20.6409 C   0  0  0  0  0  0  0  0  0  0  0  0
  -26.3778  -26.9340   21.8893 C   0  0  0  0  0  0  0  0  0  0  0  0
  -22.8683   -8.5936   22.4258 C   0  0  0  0  0  0  0  0  0  0  0  0
  -28.8377  -24.8705   18.6738 C   0  0  0  0  0  0  0  0  0  0  0  0
  -25.9469  -14.4871   20.3205 C   0  0  0  0  0  0  0  0  0  0  0  0
  -28.3163  -15.2798   19.8055 C   0  0  0  0  0  0  0  0  0  0  0  0
  -18.4574  -31.6300   23.5112 C   0  0  0  0  0  0  0  0  0  0  0  0
  -24.7270  -28.0688   20.5302 C   0  0  0  0  0  0  0  0  0  0  0  0
  -19.7644  -31.6377   22.9878 C   0  0  0  0  0  0  0  0  0  0  0  0
  -25.0345  -27.1580   21.5509 C   0  0  0  0  0  0  0  0  0  0  0  0
  -29.9575  -24.6928   19.4491 C   0  0  0  0  0  0  0  0  0  0  0  0
  -23.8947  -12.5984   20.3839 C   0  0  0  0  0  0  0  0  0  0  0  0
  -27.4015  -27.5972   21.2131 C   0  0  0  0  0  0  0  0  0  0  0  0
  -23.2042  -10.4035   20.8611 C   0  0  0  0  0  0  0  0  0  0  0  0
  -23.8311   -7.8372   21.7574 C   0  0  0  0  0  0  0  0  0  0  0  0
  -22.5549   -9.8768   21.9776 C   0  0  0  0  0  0  0  0  0  0  0  0
  -27.0064  -15.4631   20.2873 C   0  0  0  0  0  0  0  0  0  0  0  0
  -30.2166  -23.3107   19.3814 C   0  0  0  0  0  0  0  0  0  0  0  0
  -28.9250  -16.4965   19.9943 C   0  0  0  0  0  0  0  0  0  0  0  0
  -28.9282  -14.1140   19.2379 C   0  0  0  0  0  0  0  0  0  0  0  0
  -22.2815  -29.0146   22.3270 C   0  0  0  0  0  0  0  0  0  0  0  0
  -21.4985  -25.8682   22.2308 C   0  0  0  0  0  0  0  0  0  0  0  0
  -22.5215  -22.6396   21.8108 C   0  0  0  0  0  0  0  0  0  0  0  0
  -26.8210  -22.0861   20.4188 C   0  0  0  0  0  0  0  0  0  0  0  0
  -18.0609  -30.7136   24.6416 C   0  0  0  0  0  0  0  0  0  0  0  0
  -23.2974  -28.3102   20.1298 C   0  0  0  0  0  0  0  0  0  0  0  0
  -23.9601  -26.4169   22.3026 C   0  0  0  0  0  0  0  0  0  0  0  0
  -19.0229  -29.5459   24.8451 C   0  0  0  0  0  0  0  0  0  0  0  0
  -28.7904  -20.3515   22.8248 C   0  0  0  0  0  0  0  0  0  0  0  0
  -20.4676  -30.0351   24.8271 C   0  0  0  0  0  0  0  0  0  0  0  0
  -28.6747  -18.8854   22.4039 C   0  0  0  0  0  0  0  0  0  0  0  0
  -27.4843  -21.1091   22.5963 C   0  0  0  0  0  0  0  0  0  0  0  0
  -26.8285  -19.5472   20.8063 C   0  0  0  0  0  0  0  0  0  0  0  0
  -20.8190  -30.6679   23.4752 C   0  0  1  0  0  0  0  0  0  0  0  0
  -22.3025  -27.9795   21.2381 C   0  0  1  0  0  0  0  0  0  0  0  0
  -28.1378  -18.7557   20.9657 C   0  0  2  0  0  0  0  0  0  0  0  0
  -31.3078  -22.5636   20.0312 C   0  0  0  0  0  0  0  0  0  0  0  0
  -22.3292  -20.1505   21.5562 C   0  0  0  0  0  0  0  0  0  0  0  0
  -21.3971  -25.9287   25.2797 C   0  0  0  0  0  0  0  0  0  0  0  0
  -21.4830  -23.4266   25.2627 C   0  0  0  0  0  0  0  0  0  0  0  0
  -19.5635  -24.6141   24.2008 C   0  0  0  0  0  0  0  0  0  0  0  0
  -26.9945  -24.4577   16.3855 C   0  0  0  0  0  0  0  0  0  0  0  0
  -27.7868  -22.1075   16.4548 C   0  0  0  0  0  0  0  0  0  0  0  0
  -22.1734  -22.8498   18.8793 C   0  0  0  0  0  0  0  0  0  0  0  0
  -30.7271  -25.7500   20.1997 C   0  0  0  0  0  0  0  0  0  0  0  0
  -30.4636  -25.7500   21.7071 C   0  0  0  0  0  0  0  0  0  0  0  0
  -26.1454  -22.9129   18.1784 C   0  0  0  0  0  0  0  0  0  0  0  0
  -29.0193  -26.0779   22.0676 C   0  0  0  0  0  0  0  0  0  1  0  0
  -21.8258  -24.6588   23.0730 C   0  0  1  0  0  0  0  0  0  0  0  0
  -21.9586  -21.5054   20.9734 C   0  0  2  0  0  0  0  0  0  0  0  0
  -21.0877  -24.6723   24.4414 C   0  0  0  0  0  0  0  0  0  0  0  0
  -27.3945  -23.3107   17.3457 C   0  0  0  0  0  0  0  0  0  0  0  0
  -26.7945  -16.6989   20.7478 N   0  0  0  0  0  0  0  0  0  0  0  0
  -29.3326  -22.6568   18.6231 N   0  0  0  0  0  0  0  0  0  0  0  0
  -28.5070  -23.6323   18.2073 N   0  0  0  0  0  0  0  0  0  0  0  0
  -27.9796  -17.3031   20.5563 N   0  0  0  0  0  0  0  0  0  0  0  0
  -22.5773  -26.6916   21.8784 N   0  0  0  0  0  0  0  0  0  0  0  0
  -27.0302  -20.9467   21.2131 N   0  0  0  0  0  0  0  0  0  0  0  0
  -30.1714  -16.9444   19.7330 N   0  0  0  0  0  0  0  0  0  0  0  0
  -28.1599  -12.9481   19.1166 N   0  0  0  0  0  0  0  0  0  0  0  0
  -21.0600  -29.6414   22.4840 N   0  0  0  0  0  0  0  0  0  0  0  0
  -21.5304  -23.4937   22.2462 N   0  0  0  0  0  0  0  0  0  0  0  0
  -26.3970  -21.8431   19.1180 N   0  0  0  0  0  0  0  0  0  0  0  0
  -22.4856  -21.5783   19.5814 N   0  3  0  0  0  0  0  0  0  0  0  0
  -30.1258  -14.1017   18.8648 O   0  0  0  0  0  0  0  0  0  0  0  0
  -23.2979  -29.2278   22.9776 O   0  0  0  0  0  0  0  0  0  0  0  0
  -20.3299  -26.0708   21.8918 O   0  0  0  0  0  0  0  0  0  0  0  0
  -23.7201  -22.7542   22.0573 O   0  0  0  0  0  0  0  0  0  0  0  0
  -27.0039  -23.2347   20.8361 O   0  0  0  0  0  0  0  0  0  0  0  0
  -22.8935  -11.6769   20.4144 O   0  0  0  0  0  0  0  0  0  0  0  0
  -28.6999  -27.3691   21.5507 O   0  0  0  0  0  0  0  0  0  1  0  0
  -24.1311   -6.6044   22.1868 F   0  0  0  0  0  0  0  0  0  0  0  0
  -21.6283  -10.5983   22.6231 F   0  0  0  0  0  0  0  0  0  0  0  0
  1  2  1  0  0  0  0
  1  5  2  0  0  0  0
  2  6  2  0  0  0  0
  3  8  2  0  0  0  0
  3 16  1  0  0  0  0
  4  9  1  0  0  0  0
  4 16  2  0  0  0  0
  5 18  1  0  0  0  0
  6 20  1  0  0  0  0
  7 10  2  0  0  0  0
  7 19  1  0  0  0  0
  8 23  1  0  0  0  0
  9 23  2  0  0  0  0
 10 24  1  0  0  0  0
 11 12  2  0  0  0  0
 11 25  1  0  0  0  0
 12 26  1  0  0  0  0
 13 21  1  0  0  0  0
 13 24  2  0  0  0  0
 14 26  2  0  0  0  0
 14 27  1  0  0  0  0
 15 22  2  0  0  0  0
 15 66  1  0  0  0  0
 16 28  1  0  0  0  0
 17 28  1  0  0  0  0
 17 30  2  0  0  0  0
 17 31  1  0  0  0  0
 18 20  2  0  0  0  0
 18 36  1  0  0  0  0
 19 21  2  0  0  0  0
 19 37  1  0  0  0  0
 20 45  1  0  0  0  0
 21 38  1  0  0  0  0
 22 29  1  0  0  0  0
 22 56  1  0  0  0  0
 23 81  1  0  0  0  0
 24 82  1  0  0  0  0
 25 27  2  0  0  0  0
 25 81  1  0  0  0  0
 26 83  1  0  0  0  0
 27 84  1  0  0  0  0
 28 64  2  0  0  0  0
 29 48  1  0  0  0  0
 29 65  2  0  0  0  0
 30 67  1  0  0  0  0
 30 70  1  0  0  0  0
 31 71  1  0  0  0  0
 31 76  2  0  0  0  0
 32 46  1  0  0  0  0
 32 72  1  0  0  0  0
 32 77  2  0  0  0  0
 33 60  1  0  0  0  0
 33 68  1  0  0  0  0
 33 78  2  0  0  0  0
 34 61  1  0  0  0  0
 34 73  1  0  0  0  0
 34 79  2  0  0  0  0
 35 69  1  0  0  0  0
 35 74  1  0  0  0  0
 35 80  2  0  0  0  0
 36 39  1  0  0  0  0
 37 46  1  0  0  0  0
 38 68  1  0  0  0  0
 39 41  1  0  0  0  0
 40 42  1  0  0  0  0
 40 43  1  0  0  0  0
 41 45  1  0  0  0  0
 42 47  1  0  0  0  0
 43 69  1  0  0  0  0
 44 47  1  0  0  0  0
 44 69  1  0  0  0  0
 45 72  1  0  0  0  0
 46 68  1  0  0  0  0
 47 67  1  0  0  0  0
 49 61  1  0  0  0  0
 50 62  1  0  0  0  0
 51 62  1  0  0  0  0
 52 62  1  0  0  0  0
 53 63  1  0  0  0  0
 54 63  1  0  0  0  0
 55 75  1  0  0  0  0
 56 57  1  0  0  0  0
 57 59  1  0  0  0  0
 58 63  1  0  0  0  0
 58 74  1  0  0  0  0
 59 82  1  0  0  0  0
 60 62  1  0  0  0  0
 60 73  1  0  0  0  0
 61 75  1  0  0  0  0
 63 66  1  0  0  0  0
 64 67  1  0  0  0  0
 65 66  1  0  0  0  0
M  CHG  1  75   1
M  ISO  4  35 100  59 101  74 100  82 101
M  END
> <Batch ID>
0075

> <Smiles>
CNC(C)C(=O)NC(C(=O)N1Cc2cc([101O:1][101CH2:1]CCc3cn(C(C)(C)C[100NH:0][100C:0](=O)N4CCCC(n5nc(-c6ccc(Oc7ccc(F)cc7F)cc6)c(C(N)=O)c5N)C4)nc3C)ccc2CC1C(=O)NC1CCCc2ccccc21)C(C)(C)C

> <Shape>
0.238

> <Color>
0.090

> <Negative vol penalty>
0.000

$$$$

  -OEChem-04052318323D

 86 94  0     1  0  0  0  0  0999 V2000
  -32.4623  -25.2770   21.1142 C   0  0  0  0  0  0  0  0  0  0  0  0
  -31.3332  -25.4025   20.3128 C   0  0  0  0  0  0  0  0  0  0  0  0
  -26.2857  -12.7932   21.6210 C   0  0  0  0  0  0  0  0  0  0  0  0
  -25.8639  -13.6854   19.4157 C   0  0  0  0  0  0  0  0  0  0  0  0
  -32.3320  -25.2843   22.5014 C   0  0  0  0  0  0  0  0  0  0  0  0
  -30.0749  -25.5475   20.8981 C   0  0  0  0  0  0  0  0  0  0  0  0
  -26.3044  -26.4993   17.8848 C   0  0  0  0  0  0  0  0  0  0  0  0
  -25.0749  -12.1023   21.5730 C   0  0  0  0  0  0  0  0  0  0  0  0
  -24.6531  -12.9944   19.3677 C   0  0  0  0  0  0  0  0  0  0  0  0
  -25.7701  -25.5441   17.0211 C   0  0  0  0  0  0  0  0  0  0  0  0
  -23.8767   -9.2708   20.1658 C   0  0  0  0  0  0  0  0  0  0  0  0
  -23.8729   -7.9399   20.5832 C   0  0  0  0  0  0  0  0  0  0  0  0
  -23.8966  -25.2525   18.5125 C   0  0  0  0  0  0  0  0  0  0  0  0
  -26.9690  -19.6867   16.1763 C   0  0  0  0  0  0  0  0  0  0  0  0
  -22.2614   -8.4828   22.2995 C   0  0  0  0  0  0  0  0  0  0  0  0
  -27.7504  -21.4736   15.0509 C   0  0  0  0  0  0  0  0  0  0  0  0
  -26.6801  -13.5848   20.5423 C   0  0  0  0  0  0  0  0  0  0  0  0
  -29.1901  -13.8386   20.1639 C   0  0  0  0  0  0  0  0  0  0  0  0
  -31.0698  -25.4169   23.1032 C   0  0  0  0  0  0  0  0  0  0  0  0
  -25.6432  -26.8309   19.0761 C   0  0  0  0  0  0  0  0  0  0  0  0
  -29.9254  -25.5813   22.2964 C   0  0  0  0  0  0  0  0  0  0  0  0
  -24.4233  -26.2140   19.3883 C   0  0  0  0  0  0  0  0  0  0  0  0
  -26.6224  -20.7119   15.2620 C   0  0  0  0  0  0  0  0  0  0  0  0
  -24.2586  -12.2028   20.4464 C   0  0  0  0  0  0  0  0  0  0  0  0
  -24.5675  -24.9184   17.3363 C   0  0  0  0  0  0  0  0  0  0  0  0
  -23.0729  -10.2078   20.8153 C   0  0  0  0  0  0  0  0  0  0  0  0
  -23.0652   -7.5459   21.6500 C   0  0  0  0  0  0  0  0  0  0  0  0
  -22.2652   -9.8137   21.8821 C   0  0  0  0  0  0  0  0  0  0  0  0
  -27.9304  -14.2992   20.5914 C   0  0  0  0  0  0  0  0  0  0  0  0
  -28.2984  -19.8532   16.4962 C   0  0  0  0  0  0  0  0  0  0  0  0
  -30.0436  -14.8832   20.4224 C   0  0  0  0  0  0  0  0  0  0  0  0
  -29.5560  -12.5790   19.5848 C   0  0  0  0  0  0  0  0  0  0  0  0
  -26.3552  -26.6297   22.1675 C   0  0  0  0  0  0  0  0  0  0  0  0
  -23.5598  -28.2379   22.5167 C   0  0  0  0  0  0  0  0  0  0  0  0
  -29.1013  -20.7926   20.9725 C   0  0  0  0  0  0  0  0  0  0  0  0
  -20.5038  -29.0488   21.2320 C   0  0  0  0  0  0  0  0  0  0  0  0
  -30.9872  -25.4264   24.6093 C   0  0  0  0  0  0  0  0  0  0  0  0
  -26.2193  -27.8827   19.9840 C   0  0  0  0  0  0  0  0  0  0  0  0
  -23.6640  -26.5492   20.6451 C   0  0  0  0  0  0  0  0  0  0  0  0
  -29.5826  -25.1387   25.1295 C   0  0  0  0  0  0  0  0  0  0  0  0
  -30.6383  -18.6045   23.3578 C   0  0  0  0  0  0  0  0  0  0  0  0
  -28.5719  -26.0212   24.4123 C   0  0  0  0  0  0  0  0  0  0  0  0
  -30.2091  -17.2123   22.8965 C   0  0  0  0  0  0  0  0  0  0  0  0
  -29.5417  -19.6364   23.1134 C   0  0  0  0  0  0  0  0  0  0  0  0
  -28.6385  -18.3049   21.2338 C   0  0  0  0  0  0  0  0  0  0  0  0
  -28.5432  -25.7094   22.9107 C   0  0  1  0  0  0  0  0  0  0  0  0
  -25.7209  -27.7694   21.4214 C   0  0  1  0  0  0  0  0  0  0  0  0
  -29.7293  -17.2379   21.4345 C   0  0  2  0  0  0  0  0  0  0  0  0
  -18.4254  -30.3504   21.7646 C   0  0  0  0  0  0  0  0  0  0  0  0
  -30.4268  -18.3963   16.7437 C   0  0  0  0  0  0  0  0  0  0  0  0
  -28.3682  -17.8137   17.9432 C   0  0  0  0  0  0  0  0  0  0  0  0
  -27.1913  -20.1874   19.5278 C   0  0  0  0  0  0  0  0  0  0  0  0
  -28.6511  -22.1312   18.9933 C   0  0  0  0  0  0  0  0  0  0  0  0
  -22.6830  -26.0434   24.4467 C   0  0  0  0  0  0  0  0  0  0  0  0
  -20.3299  -26.8617   24.1985 C   0  0  0  0  0  0  0  0  0  0  0  0
  -22.0757  -28.3626   25.1587 C   0  0  0  0  0  0  0  0  0  0  0  0
  -30.1109  -21.4652   15.8558 C   0  0  0  0  0  0  0  0  0  0  0  0
  -20.8641  -30.8092   18.8804 C   0  0  0  0  0  0  0  0  0  0  0  0
  -25.2687  -20.9299   14.6345 C   0  0  0  0  0  0  0  0  0  0  0  0
  -24.3545  -21.8500   15.4463 C   0  0  0  0  0  0  0  0  0  0  0  0
  -29.6386  -19.8434   18.7075 C   0  0  0  0  0  0  0  0  0  0  0  0
  -24.9657  -23.2192   15.7208 C   0  0  0  0  0  0  0  0  0  1  0  0
  -22.1126  -27.8424   22.6848 C   0  0  1  0  0  0  0  0  0  0  0  0
  -19.7904  -30.3817   21.0947 C   0  0  2  0  0  0  0  0  0  0  0  0
  -29.1618  -19.0655   17.4003 C   0  0  0  0  0  0  0  0  0  0  0  0
  -28.6338  -20.6896   19.5425 C   0  0  0  0  0  0  0  0  0  0  0  0
  -21.8154  -27.2696   24.0994 C   0  0  0  0  0  0  0  0  0  0  0  0
  -27.9751  -15.5399   21.0843 N   0  0  0  0  0  0  0  0  0  0  0  0
  -28.7630  -20.9426   15.8066 N   0  0  0  0  0  0  0  0  0  0  0  0
  -29.2733  -15.8676   20.9681 N   0  0  0  0  0  0  0  0  0  0  0  0
  -24.2713  -27.5794   21.5038 N   0  0  0  0  0  0  0  0  0  0  0  0
  -29.0975  -19.6139   21.7186 N   0  0  0  0  0  0  0  0  0  0  0  0
  -31.3703  -15.0465   20.2339 N   0  0  0  0  0  0  0  0  0  0  0  0
  -28.5550  -11.6180   19.3883 N   0  0  0  0  0  0  0  0  0  0  0  0
  -27.7333  -26.7011   22.2380 N   0  0  0  0  0  0  0  0  0  0  0  0
  -21.3247  -29.0206   22.3396 N   0  0  0  0  0  0  0  0  0  0  0  0
  -19.6002  -30.7216   19.6562 N   0  3  0  0  0  0  0  0  0  0  0  0
  -30.7386  -12.3075   19.2667 O   0  0  0  0  0  0  0  0  0  0  0  0
  -25.6465  -25.7514   22.6451 O   0  0  0  0  0  0  0  0  0  0  0  0
  -24.0393  -29.1045   23.2521 O   0  0  0  0  0  0  0  0  0  0  0  0
  -29.4615  -21.8883   21.4106 O   0  0  0  0  0  0  0  0  0  0  0  0
  -20.3457  -28.1238   20.4384 O   0  0  0  0  0  0  0  0  0  0  0  0
  -23.0772  -11.5286   20.3992 O   0  0  0  0  0  0  0  0  0  0  0  0
  -24.0440  -23.9853   16.4954 O   0  0  0  0  0  0  0  0  0  1  0  0
  -23.0605   -6.2675   22.0498 F   0  0  0  0  0  0  0  0  0  0  0  0
  -21.4900  -10.7091   22.5091 F   0  0  0  0  0  0  0  0  0  0  0  0
  1  2  1  0  0  0  0
  1  5  2  0  0  0  0
  2  6  2  0  0  0  0
  3  8  2  0  0  0  0
  3 17  1  0  0  0  0
  4  9  1  0  0  0  0
  4 17  2  0  0  0  0
  5 19  1  0  0  0  0
  6 21  1  0  0  0  0
  7 10  2  0  0  0  0
  7 20  1  0  0  0  0
  8 24  1  0  0  0  0
  9 24  2  0  0  0  0
 10 25  1  0  0  0  0
 11 12  2  0  0  0  0
 11 26  1  0  0  0  0
 12 27  1  0  0  0  0
 13 22  1  0  0  0  0
 13 25  2  0  0  0  0
 14 23  1  0  0  0  0
 14 30  2  0  0  0  0
 15 27  2  0  0  0  0
 15 28  1  0  0  0  0
 16 23  2  0  0  0  0
 16 69  1  0  0  0  0
 17 29  1  0  0  0  0
 18 29  1  0  0  0  0
 18 31  2  0  0  0  0
 18 32  1  0  0  0  0
 19 21  2  0  0  0  0
 19 37  1  0  0  0  0
 20 22  2  0  0  0  0
 20 38  1  0  0  0  0
 21 46  1  0  0  0  0
 22 39  1  0  0  0  0
 23 59  1  0  0  0  0
 24 83  1  0  0  0  0
 25 84  1  0  0  0  0
 26 28  2  0  0  0  0
 26 83  1  0  0  0  0
 27 85  1  0  0  0  0
 28 86  1  0  0  0  0
 29 68  2  0  0  0  0
 30 65  1  0  0  0  0
 30 69  1  0  0  0  0
 31 70  1  0  0  0  0
 31 73  1  0  0  0  0
 32 74  1  0  0  0  0
 32 78  2  0  0  0  0
 33 47  1  0  0  0  0
 33 75  1  0  0  0  0
 33 79  2  0  0  0  0
 34 63  1  0  0  0  0
 34 71  1  0  0  0  0
 34 80  2  0  0  0  0
 35 66  1  0  0  0  0
 35 72  1  0  0  0  0
 35 81  2  0  0  0  0
 36 64  1  0  0  0  0
 36 76  1  0  0  0  0
 36 82  2  0  0  0  0
 37 40  1  0  0  0  0
 38 47  1  0  0  0  0
 39 71  1  0  0  0  0
 40 42  1  0  0  0  0
 41 43  1  0  0  0  0
 41 44  1  0  0  0  0
 42 46  1  0  0  0  0
 43 48  1  0  0  0  0
 44 72  1  0  0  0  0
 45 48  1  0  0  0  0
 45 72  1  0  0  0  0
 46 75  1  0  0  0  0
 47 71  1  0  0  0  0
 48 70  1  0  0  0  0
 49 64  1  0  0  0  0
 50 65  1  0  0  0  0
 51 65  1  0  0  0  0
 52 66  1  0  0  0  0
 53 66  1  0  0  0  0
 54 67  1  0  0  0  0
 55 67  1  0  0  0  0
 56 67  1  0  0  0  0
 57 69  1  0  0  0  0
 58 77  1  0  0  0  0
 59 60  1  0  0  0  0
 60 62  1  0  0  0  0
 61 65  1  0  0  0  0
 61 66  1  0  0  0  0
 62 84  1  0  0  0  0
 63 67  1  0  0  0  0
 63 76  1  0  0  0  0
 64 77  1  0  0  0  0
 68 70  1  0  0  0  0
M  CHG  1  77   1
M  ISO  4  35 100  62 101  66 100  84 101
M  END
> <Batch ID>
0075

> <Smiles>
CNC(C)C(=O)NC(C(=O)N1Cc2cc([101O:1][101CH2:1]CCc3cc(C(C)(C)C[100C:0](C)(C)[100C:0](=O)N4CCCC(n5nc(-c6ccc(Oc7ccc(F)cc7F)cc6)c(C(N)=O)c5N)C4)n(C)c3)ccc2CC1C(=O)NC1CCCc2ccccc21)C(C)(C)C

> <Shape>
0.234

> <Color>
0.080

> <Negative vol penalty>
0.000

$$$$

  -OEChem-04052318323D

 88 96  0     1  0  0  0  0  0999 V2000
  -31.2827  -24.1668   17.8953 C   0  0  0  0  0  0  0  0  0  0  0  0
  -29.9560  -24.5561   18.0408 C   0  0  0  0  0  0  0  0  0  0  0  0
  -24.4720  -14.5219   21.3288 C   0  0  0  0  0  0  0  0  0  0  0  0
  -25.7174  -14.5505   19.2588 C   0  0  0  0  0  0  0  0  0  0  0  0
  -32.2408  -24.6183   18.8004 C   0  0  0  0  0  0  0  0  0  0  0  0
  -29.5890  -25.4064   19.0844 C   0  0  0  0  0  0  0  0  0  0  0  0
  -24.9571  -27.0645   19.0927 C   0  0  0  0  0  0  0  0  0  0  0  0
  -24.6782  -13.1464   21.4339 C   0  0  0  0  0  0  0  0  0  0  0  0
  -25.9237  -13.1750   19.3639 C   0  0  0  0  0  0  0  0  0  0  0  0
  -23.8662  -26.2519   19.3984 C   0  0  0  0  0  0  0  0  0  0  0  0
  -23.3849  -10.3249   20.0956 C   0  0  0  0  0  0  0  0  0  0  0  0
  -22.2927   -9.5315   20.4462 C   0  0  0  0  0  0  0  0  0  0  0  0
  -23.7361  -27.2599   21.5861 C   0  0  0  0  0  0  0  0  0  0  0  0
  -23.8105  -21.7330   23.3499 C   0  0  0  0  0  0  0  0  0  0  0  0
  -23.4751   -8.7722   22.4116 C   0  0  0  0  0  0  0  0  0  0  0  0
  -24.9915  -15.2239   20.2412 C   0  0  0  0  0  0  0  0  0  0  0  0
  -23.5432  -17.3154   20.0521 C   0  0  0  0  0  0  0  0  0  0  0  0
  -31.8824  -25.4646   19.8627 C   0  0  0  0  0  0  0  0  0  0  0  0
  -25.4534  -27.9747   20.0370 C   0  0  0  0  0  0  0  0  0  0  0  0
  -30.5455  -25.8921   19.9943 C   0  0  0  0  0  0  0  0  0  0  0  0
  -24.8318  -28.0847   21.2890 C   0  0  0  0  0  0  0  0  0  0  0  0
  -25.1057  -21.6370   23.8465 C   0  0  0  0  0  0  0  0  0  0  0  0
  -26.1237  -22.3863   23.2673 C   0  0  0  0  0  0  0  0  0  0  0  0
  -25.4041  -12.4729   20.4514 C   0  0  0  0  0  0  0  0  0  0  0  0
  -23.2574  -26.3475   20.6462 C   0  0  0  0  0  0  0  0  0  0  0  0
  -24.5224  -10.3419   20.9029 C   0  0  0  0  0  0  0  0  0  0  0  0
  -22.3377   -8.7552   21.6042 C   0  0  0  0  0  0  0  0  0  0  0  0
  -24.5674   -9.5656   22.0609 C   0  0  0  0  0  0  0  0  0  0  0  0
  -24.7784  -16.6447   20.1318 C   0  0  0  0  0  0  0  0  0  0  0  0
  -23.5873  -22.5859   22.2810 C   0  0  0  0  0  0  0  0  0  0  0  0
  -25.7970  -23.2099   22.2020 C   0  0  0  0  0  0  0  0  0  0  0  0
  -23.8791  -18.6442   19.9632 C   0  0  0  0  0  0  0  0  0  0  0  0
  -22.2113  -16.7846   20.0579 C   0  0  0  0  0  0  0  0  0  0  0  0
  -28.2213  -28.3469   21.5547 C   0  0  0  0  0  0  0  0  0  0  0  0
  -28.7662  -21.6732   21.7104 C   0  0  0  0  0  0  0  0  0  0  0  0
  -26.8167  -31.0631   22.6371 C   0  0  0  0  0  0  0  0  0  0  0  0
  -23.9365  -32.7633   23.3155 C   0  0  0  0  0  0  0  0  0  0  0  0
  -32.9613  -25.9297   20.8087 C   0  0  0  0  0  0  0  0  0  0  0  0
  -26.6141  -28.8630   19.6821 C   0  0  0  0  0  0  0  0  0  0  0  0
  -25.3135  -29.0602   22.3306 C   0  0  0  0  0  0  0  0  0  0  0  0
  -32.4076  -26.4601   22.1272 C   0  0  0  0  0  0  0  0  0  0  0  0
  -27.3494  -21.5422   18.4217 C   0  0  0  0  0  0  0  0  0  0  0  0
  -31.2953  -27.4625   21.8582 C   0  0  0  0  0  0  0  0  0  0  0  0
  -26.4391  -20.3158   18.4716 C   0  0  0  0  0  0  0  0  0  0  0  0
  -28.6043  -21.3409   19.2655 C   0  0  0  0  0  0  0  0  0  0  0  0
  -27.4176  -19.7470   20.7396 C   0  0  0  0  0  0  0  0  0  0  0  0
  -30.1177  -26.7918   21.1396 C   0  0  1  0  0  0  0  0  0  0  0  0
  -27.3581  -29.3910   20.9049 C   0  0  1  0  0  0  0  0  0  0  0  0
  -26.1235  -19.9204   19.9250 C   0  0  2  0  0  0  0  0  0  0  0  0
  -25.3764  -20.7237   24.9961 C   0  0  0  0  0  0  0  0  0  0  0  0
  -26.8474  -24.0402   21.5395 C   0  0  0  0  0  0  0  0  0  0  0  0
  -22.4703  -34.6904   23.9744 C   0  0  0  0  0  0  0  0  0  0  0  0
  -30.4901  -20.4610   26.3116 C   0  0  0  0  0  0  0  0  0  0  0  0
  -28.7608  -18.8986   25.4425 C   0  0  0  0  0  0  0  0  0  0  0  0
  -30.4359  -19.6884   23.1773 C   0  0  0  0  0  0  0  0  0  0  0  0
  -27.4808  -30.1306   25.4654 C   0  0  0  0  0  0  0  0  0  0  0  0
  -25.8388  -31.8111   26.3302 C   0  0  0  0  0  0  0  0  0  0  0  0
  -27.8460  -32.5711   25.0589 C   0  0  0  0  0  0  0  0  0  0  0  0
  -23.8038  -33.7641   20.5335 C   0  0  0  0  0  0  0  0  0  0  0  0
  -27.5221  -22.3056   23.7805 C   0  0  0  0  0  0  0  0  0  0  0  0
  -22.1951  -22.7165   21.7169 C   0  0  0  0  0  0  0  0  0  0  0  0
  -21.3632  -23.8173   22.3787 C   0  0  0  0  0  0  0  0  0  0  0  0
  -22.0208  -25.1910   22.3165 C   0  0  0  0  0  0  0  0  0  1  0  0
  -28.3674  -21.2068   23.0879 C   0  0  2  0  0  0  0  0  0  0  0  0
  -25.9602  -31.4228   23.8271 C   0  0  1  0  0  0  0  0  0  0  0  0
  -23.4978  -34.1768   22.9778 C   0  0  2  0  0  0  0  0  0  0  0  0
  -29.2839  -20.3407   25.3706 C   0  0  0  0  0  0  0  0  0  0  0  0
  -29.6222  -20.7740   23.9049 C   0  0  1  0  0  0  0  0  0  0  0  0
  -26.7734  -31.4640   25.1517 C   0  0  0  0  0  0  0  0  0  0  0  0
  -25.8211  -17.4787   20.0965 N   0  0  0  0  0  0  0  0  0  0  0  0
  -24.5506  -23.3295   21.6921 N   0  0  0  0  0  0  0  0  0  0  0  0
  -25.2419  -18.6870   19.9935 N   0  0  0  0  0  0  0  0  0  0  0  0
  -26.4555  -29.9025   21.9384 N   0  0  0  0  0  0  0  0  0  0  0  0
  -28.2626  -20.9445   20.6327 N   0  0  0  0  0  0  0  0  0  0  0  0
  -23.1386  -19.7685   19.8627 N   0  0  0  0  0  0  0  0  0  0  0  0
  -21.6211  -16.4473   18.8323 N   0  0  0  0  0  0  0  0  0  0  0  0
  -29.1806  -27.8095   20.7178 N   0  0  0  0  0  0  0  0  0  0  0  0
  -25.3016  -32.6804   23.4908 N   0  0  0  0  0  0  0  0  0  0  0  0
  -22.8943  -34.2205   21.6159 N   0  3  0  0  0  0  0  0  0  0  0  0
  -21.5576  -16.6299   21.1173 O   0  0  0  0  0  0  0  0  0  0  0  0
  -28.0321  -28.0518   22.7289 O   0  0  0  0  0  0  0  0  0  0  0  0
  -29.5010  -22.6579   21.5975 O   0  0  0  0  0  0  0  0  0  0  0  0
  -27.7668  -31.7893   22.3343 O   0  0  0  0  0  0  0  0  0  0  0  0
  -23.1467  -31.8272   23.4175 O   0  0  0  0  0  0  0  0  0  0  0  0
  -25.6057  -11.1307   20.5538 O   0  0  0  0  0  0  0  0  0  0  0  0
  -22.1928  -25.5550   20.9474 O   0  0  0  0  0  0  0  0  0  1  0  0
  -21.2881   -7.9945   21.9417 F   0  0  0  0  0  0  0  0  0  0  0  0
  -25.6569   -9.5788   22.8410 F   0  0  0  0  0  0  0  0  0  0  0  0
  1  2  1  0  0  0  0
  1  5  2  0  0  0  0
  2  6  2  0  0  0  0
  3  8  2  0  0  0  0
  3 16  1  0  0  0  0
  4  9  1  0  0  0  0
  4 16  2  0  0  0  0
  5 18  1  0  0  0  0
  6 20  1  0  0  0  0
  7 10  2  0  0  0  0
  7 19  1  0  0  0  0
  8 24  1  0  0  0  0
  9 24  2  0  0  0  0
 10 25  1  0  0  0  0
 11 12  2  0  0  0  0
 11 26  1  0  0  0  0
 12 27  1  0  0  0  0
 13 21  1  0  0  0  0
 13 25  2  0  0  0  0
 14 22  2  0  0  0  0
 14 30  1  0  0  0  0
 15 27  2  0  0  0  0
 15 28  1  0  0  0  0
 16 29  1  0  0  0  0
 17 29  1  0  0  0  0
 17 32  2  0  0  0  0
 17 33  1  0  0  0  0
 18 20  2  0  0  0  0
 18 38  1  0  0  0  0
 19 21  2  0  0  0  0
 19 39  1  0  0  0  0
 20 47  1  0  0  0  0
 21 40  1  0  0  0  0
 22 23  1  0  0  0  0
 22 50  1  0  0  0  0
 23 31  2  0  0  0  0
 23 60  1  0  0  0  0
 24 85  1  0  0  0  0
 25 86  1  0  0  0  0
 26 28  2  0  0  0  0
 26 85  1  0  0  0  0
 27 87  1  0  0  0  0
 28 88  1  0  0  0  0
 29 70  2  0  0  0  0
 30 61  1  0  0  0  0
 30 71  2  0  0  0  0
 31 51  1  0  0  0  0
 31 71  1  0  0  0  0
 32 72  1  0  0  0  0
 32 75  1  0  0  0  0
 33 76  1  0  0  0  0
 33 80  2  0  0  0  0
 34 48  1  0  0  0  0
 34 77  1  0  0  0  0
 34 81  2  0  0  0  0
 35 64  1  0  0  0  0
 35 74  1  0  0  0  0
 35 82  2  0  0  0  0
 36 65  1  0  0  0  0
 36 73  1  0  0  0  0
 36 83  2  0  0  0  0
 37 66  1  0  0  0  0
 37 78  1  0  0  0  0
 37 84  2  0  0  0  0
 38 41  1  0  0  0  0
 39 48  1  0  0  0  0
 40 73  1  0  0  0  0
 41 43  1  0  0  0  0
 42 44  1  0  0  0  0
 42 45  1  0  0  0  0
 43 47  1  0  0  0  0
 44 49  1  0  0  0  0
 45 74  1  0  0  0  0
 46 49  1  0  0  0  0
 46 74  1  0  0  0  0
 47 77  1  0  0  0  0
 48 73  1  0  0  0  0
 49 72  1  0  0  0  0
 52 66  1  0  0  0  0
 53 67  1  0  0  0  0
 54 67  1  0  0  0  0
 55 68  1  0  0  0  0
 56 69  1  0  0  0  0
 57 69  1  0  0  0  0
 58 69  1  0  0  0  0
 59 79  1  0  0  0  0
 60 64  1  0  0  0  0
 61 62  1  0  0  0  0
 62 63  1  0  0  0  0
 63 86  1  0  0  0  0
 64 68  1  0  0  0  0
 65 69  1  0  0  0  0
 65 78  1  0  0  0  0
 66 79  1  0  0  0  0
 67 68  1  0  0  0  0
 70 72  1  0  0  0  0
M  CHG  1  79   1
M  ISO  4  35 100  63 101  64 100  86 101
M  END
> <Batch ID>
0075

> <Smiles>
CNC(C)C(=O)NC(C(=O)N1Cc2cc([101O:1][101CH2:1]CCc3cc(C)c(C[100CH:0](C(C)C(C)C)[100C:0](=O)N4CCCC(n5nc(-c6ccc(Oc7ccc(F)cc7F)cc6)c(C(N)=O)c5N)C4)c(C)n3)ccc2CC1C(=O)NC1CCCc2ccccc21)C(C)(C)C

> <Shape>
0.252

> <Color>
0.071

> <Negative vol penalty>
0.000

$$$$

  -OEChem-04052318323D

 85 93  0     1  0  0  0  0  0999 V2000
  -17.0596  -32.0006   22.6724 C   0  0  0  0  0  0  0  0  0  0  0  0
  -18.2903  -32.3990   22.1606 C   0  0  0  0  0  0  0  0  0  0  0  0
  -25.5706  -15.5690   21.6552 C   0  0  0  0  0  0  0  0  0  0  0  0
  -24.9706  -16.4596   19.4910 C   0  0  0  0  0  0  0  0  0  0  0  0
  -16.9792  -30.8807   23.4990 C   0  0  0  0  0  0  0  0  0  0  0  0
  -19.4417  -31.6782   22.4760 C   0  0  0  0  0  0  0  0  0  0  0  0
  -25.7510  -29.7379   19.6932 C   0  0  0  0  0  0  0  0  0  0  0  0
  -24.3367  -14.9232   21.7316 C   0  0  0  0  0  0  0  0  0  0  0  0
  -23.7366  -15.8138   19.5673 C   0  0  0  0  0  0  0  0  0  0  0  0
  -27.1128  -29.7625   19.9911 C   0  0  0  0  0  0  0  0  0  0  0  0
  -21.1383  -15.7414   22.4565 C   0  0  0  0  0  0  0  0  0  0  0  0
  -20.4375  -15.8247   23.6595 C   0  0  0  0  0  0  0  0  0  0  0  0
  -26.8416  -27.7980   21.3645 C   0  0  0  0  0  0  0  0  0  0  0  0
  -29.4231  -27.0111   18.1088 C   0  0  0  0  0  0  0  0  0  0  0  0
  -31.5549  -25.8980   18.1354 C   0  0  0  0  0  0  0  0  0  0  0  0
  -20.4983  -13.4179   23.8616 C   0  0  0  0  0  0  0  0  0  0  0  0
  -25.8876  -16.3373   20.5349 C   0  0  0  0  0  0  0  0  0  0  0  0
  -28.3569  -16.4947   19.9141 C   0  0  0  0  0  0  0  0  0  0  0  0
  -18.1287  -30.1402   23.8169 C   0  0  0  0  0  0  0  0  0  0  0  0
  -24.9209  -28.7480   20.2385 C   0  0  0  0  0  0  0  0  0  0  0  0
  -19.3767  -30.5482   23.3087 C   0  0  0  0  0  0  0  0  0  0  0  0
  -25.4701  -27.7616   21.0700 C   0  0  0  0  0  0  0  0  0  0  0  0
  -30.7373  -26.9405   18.5573 C   0  0  0  0  0  0  0  0  0  0  0  0
  -23.4197  -15.0456   20.6876 C   0  0  0  0  0  0  0  0  0  0  0  0
  -27.6578  -28.7941   20.8291 C   0  0  0  0  0  0  0  0  0  0  0  0
  -21.5191  -14.4963   21.9559 C   0  0  0  0  0  0  0  0  0  0  0  0
  -20.1174  -14.6629   24.3621 C   0  0  0  0  0  0  0  0  0  0  0  0
  -21.1991  -13.3346   22.6585 C   0  0  0  0  0  0  0  0  0  0  0  0
  -27.1619  -17.0051   20.4557 C   0  0  0  0  0  0  0  0  0  0  0  0
  -28.9781  -26.0224   17.2462 C   0  0  0  0  0  0  0  0  0  0  0  0
  -31.0144  -24.9589   17.2717 C   0  0  0  0  0  0  0  0  0  0  0  0
  -29.2687  -17.5088   20.0778 C   0  0  0  0  0  0  0  0  0  0  0  0
  -28.6193  -15.2181   19.3165 C   0  0  0  0  0  0  0  0  0  0  0  0
  -22.3989  -28.7509   22.1733 C   0  0  0  0  0  0  0  0  0  0  0  0
  -22.3545  -25.5818   21.4823 C   0  0  0  0  0  0  0  0  0  0  0  0
  -24.0721  -22.8142   20.4640 C   0  0  0  0  0  0  0  0  0  0  0  0
  -30.6442  -22.9098   19.7909 C   0  0  0  0  0  0  0  0  0  0  0  0
  -17.9991  -28.9645   24.7527 C   0  0  0  0  0  0  0  0  0  0  0  0
  -23.4589  -28.7196   19.8860 C   0  0  0  0  0  0  0  0  0  0  0  0
  -24.6256  -26.6654   21.6647 C   0  0  0  0  0  0  0  0  0  0  0  0
  -19.2105  -28.0358   24.7353 C   0  0  0  0  0  0  0  0  0  0  0  0
  -28.9749  -21.8032   22.7346 C   0  0  0  0  0  0  0  0  0  0  0  0
  -20.5027  -28.8425   24.8149 C   0  0  0  0  0  0  0  0  0  0  0  0
  -28.4480  -20.4175   22.3573 C   0  0  0  0  0  0  0  0  0  0  0  0
  -28.9112  -22.7715   21.5555 C   0  0  0  0  0  0  0  0  0  0  0  0
  -29.0428  -20.9080   19.9481 C   0  0  0  0  0  0  0  0  0  0  0  0
  -20.6444  -29.7777   23.6079 C   0  0  1  0  0  0  0  0  0  0  0  0
  -22.6122  -27.9680   20.9086 C   0  0  1  0  0  0  0  0  0  0  0  0
  -29.1391  -19.8810   21.0893 C   0  0  2  0  0  0  0  0  0  0  0  0
  -27.5739  -26.0669   16.7433 C   0  0  0  0  0  0  0  0  0  0  0  0
  -23.7756  -20.3601   20.0321 C   0  0  0  0  0  0  0  0  0  0  0  0
  -33.1538  -24.2343   16.0088 C   0  0  0  0  0  0  0  0  0  0  0  0
  -31.0598  -22.9181   15.8120 C   0  0  0  0  0  0  0  0  0  0  0  0
  -22.3660  -25.0540   24.4875 C   0  0  0  0  0  0  0  0  0  0  0  0
  -23.0223  -22.6878   23.9989 C   0  0  0  0  0  0  0  0  0  0  0  0
  -20.8401  -23.5708   23.1737 C   0  0  0  0  0  0  0  0  0  0  0  0
  -24.8058  -23.1093   17.6121 C   0  0  0  0  0  0  0  0  0  0  0  0
  -31.2740  -27.9908   19.4965 C   0  0  0  0  0  0  0  0  0  0  0  0
  -31.0792  -27.6517   20.9759 C   0  0  0  0  0  0  0  0  0  0  0  0
  -32.3369  -22.8981   17.9760 C   0  0  0  0  0  0  0  0  0  0  0  0
  -29.6141  -27.5622   21.3870 C   0  0  0  0  0  0  0  0  0  1  0  0
  -22.9841  -24.3479   22.0822 C   0  0  1  0  0  0  0  0  0  0  0  0
  -23.7504  -21.7545   19.4257 C   0  0  2  0  0  0  0  0  0  0  0  0
  -31.8629  -23.8255   16.8001 C   0  0  0  0  0  0  0  0  0  0  0  0
  -22.3190  -23.9368   23.4261 C   0  0  0  0  0  0  0  0  0  0  0  0
  -27.2990  -18.2468   20.9282 N   0  0  0  0  0  0  0  0  0  0  0  0
  -29.7427  -24.9944   16.8145 N   0  0  0  0  0  0  0  0  0  0  0  0
  -28.5909  -18.5252   20.6841 N   0  0  0  0  0  0  0  0  0  0  0  0
  -23.2006  -26.6841   21.2953 N   0  0  0  0  0  0  0  0  0  0  0  0
  -29.5858  -22.2035   20.3858 N   0  0  0  0  0  0  0  0  0  0  0  0
  -30.5761  -17.6213   19.7608 N   0  0  0  0  0  0  0  0  0  0  0  0
  -27.5698  -14.2935   19.2278 N   0  0  0  0  0  0  0  0  0  0  0  0
  -21.0738  -29.0362   22.4416 N   0  0  0  0  0  0  0  0  0  0  0  0
  -22.9303  -23.3189   21.0494 N   0  0  0  0  0  0  0  0  0  0  0  0
  -31.2327  -22.2978   18.6909 N   0  0  0  0  0  0  0  0  0  0  0  0
  -24.7413  -21.8014   18.3136 N   0  3  0  0  0  0  0  0  0  0  0  0
  -29.7551  -14.9005   18.8891 O   0  0  0  0  0  0  0  0  0  0  0  0
  -23.3650  -29.0711   22.8559 O   0  0  0  0  0  0  0  0  0  0  0  0
  -21.1577  -25.5658   21.1837 O   0  0  0  0  0  0  0  0  0  0  0  0
  -25.2216  -23.1572   20.7318 O   0  0  0  0  0  0  0  0  0  0  0  0
  -31.0392  -24.0022   20.2122 O   0  0  0  0  0  0  0  0  0  0  0  0
  -22.2156  -14.4153   20.7617 O   0  0  0  0  0  0  0  0  0  0  0  0
  -28.9865  -28.8161   21.1220 O   0  0  0  0  0  0  0  0  0  1  0  0
  -19.4458  -14.7432   25.5182 F   0  0  0  0  0  0  0  0  0  0  0  0
  -21.5633  -12.1357   22.1832 F   0  0  0  0  0  0  0  0  0  0  0  0
  1  2  1  0  0  0  0
  1  5  2  0  0  0  0
  2  6  2  0  0  0  0
  3  8  2  0  0  0  0
  3 17  1  0  0  0  0
  4  9  1  0  0  0  0
  4 17  2  0  0  0  0
  5 19  1  0  0  0  0
  6 21  1  0  0  0  0
  7 10  2  0  0  0  0
  7 20  1  0  0  0  0
  8 24  1  0  0  0  0
  9 24  2  0  0  0  0
 10 25  1  0  0  0  0
 11 12  2  0  0  0  0
 11 26  1  0  0  0  0
 12 27  1  0  0  0  0
 13 22  1  0  0  0  0
 13 25  2  0  0  0  0
 14 23  1  0  0  0  0
 14 30  2  0  0  0  0
 15 23  2  0  0  0  0
 15 31  1  0  0  0  0
 16 27  2  0  0  0  0
 16 28  1  0  0  0  0
 17 29  1  0  0  0  0
 18 29  1  0  0  0  0
 18 32  2  0  0  0  0
 18 33  1  0  0  0  0
 19 21  2  0  0  0  0
 19 38  1  0  0  0  0
 20 22  2  0  0  0  0
 20 39  1  0  0  0  0
 21 47  1  0  0  0  0
 22 40  1  0  0  0  0
 23 58  1  0  0  0  0
 24 82  1  0  0  0  0
 25 83  1  0  0  0  0
 26 28  2  0  0  0  0
 26 82  1  0  0  0  0
 27 84  1  0  0  0  0
 28 85  1  0  0  0  0
 29 66  2  0  0  0  0
 30 50  1  0  0  0  0
 30 67  1  0  0  0  0
 31 64  1  0  0  0  0
 31 67  2  0  0  0  0
 32 68  1  0  0  0  0
 32 71  1  0  0  0  0
 33 72  1  0  0  0  0
 33 77  2  0  0  0  0
 34 48  1  0  0  0  0
 34 73  1  0  0  0  0
 34 78  2  0  0  0  0
 35 62  1  0  0  0  0
 35 69  1  0  0  0  0
 35 79  2  0  0  0  0
 36 63  1  0  0  0  0
 36 74  1  0  0  0  0
 36 80  2  0  0  0  0
 37 70  1  0  0  0  0
 37 75  1  0  0  0  0
 37 81  2  0  0  0  0
 38 41  1  0  0  0  0
 39 48  1  0  0  0  0
 40 69  1  0  0  0  0
 41 43  1  0  0  0  0
 42 44  1  0  0  0  0
 42 45  1  0  0  0  0
 43 47  1  0  0  0  0
 44 49  1  0  0  0  0
 45 70  1  0  0  0  0
 46 49  1  0  0  0  0
 46 70  1  0  0  0  0
 47 73  1  0  0  0  0
 48 69  1  0  0  0  0
 49 68  1  0  0  0  0
 51 63  1  0  0  0  0
 52 64  1  0  0  0  0
 53 64  1  0  0  0  0
 54 65  1  0  0  0  0
 55 65  1  0  0  0  0
 56 65  1  0  0  0  0
 57 76  1  0  0  0  0
 58 59  1  0  0  0  0
 59 61  1  0  0  0  0
 60 64  1  0  0  0  0
 60 75  1  0  0  0  0
 61 83  1  0  0  0  0
 62 65  1  0  0  0  0
 62 74  1  0  0  0  0
 63 76  1  0  0  0  0
 66 68  1  0  0  0  0
M  CHG  1  76   1
M  ISO  4  37 100  61 101  75 100  83 101
M  END
> <Batch ID>
0075

> <Smiles>
CNC(C)C(=O)NC(C(=O)N1Cc2cc([101O:1][101CH2:1]CCc3cc(C)nc(C(C)(C)C[100NH:0][100C:0](=O)N4CCCC(n5nc(-c6ccc(Oc7ccc(F)cc7F)cc6)c(C(N)=O)c5N)C4)c3)ccc2CC1C(=O)NC1CCCc2ccccc21)C(C)(C)C

> <Shape>
0.233

> <Color>
0.082

> <Negative vol penalty>
0.000

$$$$

  -OEChem-04052318323D

 85 93  0     1  0  0  0  0  0999 V2000
  -28.1144  -35.3407   24.2507 C   0  0  0  0  0  0  0  0  0  0  0  0
  -28.8516  -34.2631   23.7705 C   0  0  0  0  0  0  0  0  0  0  0  0
  -24.8958  -10.0355   21.6733 C   0  0  0  0  0  0  0  0  0  0  0  0
  -25.1987  -11.4653   23.5971 C   0  0  0  0  0  0  0  0  0  0  0  0
  -26.8209  -35.1402   24.7310 C   0  0  0  0  0  0  0  0  0  0  0  0
  -28.2962  -32.9841   23.7714 C   0  0  0  0  0  0  0  0  0  0  0  0
  -28.3457  -26.8735   20.0330 C   0  0  0  0  0  0  0  0  0  0  0  0
  -24.7219   -8.9380   22.5163 C   0  0  0  0  0  0  0  0  0  0  0  0
  -25.0248  -10.3677   24.4402 C   0  0  0  0  0  0  0  0  0  0  0  0
  -28.5392  -25.5042   20.2099 C   0  0  0  0  0  0  0  0  0  0  0  0
  -22.2608   -7.6355   24.4345 C   0  0  0  0  0  0  0  0  0  0  0  0
  -21.2096   -6.7627   24.1538 C   0  0  0  0  0  0  0  0  0  0  0  0
  -26.2667  -25.2900   20.9904 C   0  0  0  0  0  0  0  0  0  0  0  0
  -28.9110  -20.4964   19.6843 C   0  0  0  0  0  0  0  0  0  0  0  0
  -22.7851   -4.9500   23.8907 C   0  0  0  0  0  0  0  0  0  0  0  0
  -25.1342  -11.2992   22.2137 C   0  0  0  0  0  0  0  0  0  0  0  0
  -24.3164  -13.2990   20.8574 C   0  0  0  0  0  0  0  0  0  0  0  0
  -26.2458  -33.8596   24.7288 C   0  0  0  0  0  0  0  0  0  0  0  0
  -27.1125  -27.4641   20.3443 C   0  0  0  0  0  0  0  0  0  0  0  0
  -26.9943  -32.7660   24.2534 C   0  0  0  0  0  0  0  0  0  0  0  0
  -26.0593  -26.6666   20.8141 C   0  0  0  0  0  0  0  0  0  0  0  0
  -28.9083  -19.1236   19.9046 C   0  0  0  0  0  0  0  0  0  0  0  0
  -28.9691  -21.3683   20.7659 C   0  0  0  0  0  0  0  0  0  0  0  0
  -24.7864   -9.1040   23.8998 C   0  0  0  0  0  0  0  0  0  0  0  0
  -27.5006  -24.7127   20.6914 C   0  0  0  0  0  0  0  0  0  0  0  0
  -23.5741   -7.1656   24.4431 C   0  0  0  0  0  0  0  0  0  0  0  0
  -21.4717   -5.4199   23.8820 C   0  0  0  0  0  0  0  0  0  0  0  0
  -23.8362   -5.8229   24.1713 C   0  0  0  0  0  0  0  0  0  0  0  0
  -25.3145  -12.4333   21.3434 C   0  0  0  0  0  0  0  0  0  0  0  0
  -28.9647  -18.6768   21.2149 C   0  0  0  0  0  0  0  0  0  0  0  0
  -29.0226  -20.8211   22.0377 C   0  0  0  0  0  0  0  0  0  0  0  0
  -24.9960  -14.2038   20.0790 C   0  0  0  0  0  0  0  0  0  0  0  0
  -22.9015  -13.2864   21.0889 C   0  0  0  0  0  0  0  0  0  0  0  0
  -26.1440  -29.6808   22.4063 C   0  0  0  0  0  0  0  0  0  0  0  0
  -23.3168  -29.3321   20.8547 C   0  0  0  0  0  0  0  0  0  0  0  0
  -30.7174  -16.0409   20.1294 C   0  0  0  0  0  0  0  0  0  0  0  0
  -21.2781  -27.3616   18.9554 C   0  0  0  0  0  0  0  0  0  0  0  0
  -24.8618  -33.6845   25.3019 C   0  0  0  0  0  0  0  0  0  0  0  0
  -26.9115  -28.9382   20.1226 C   0  0  0  0  0  0  0  0  0  0  0  0
  -24.7099  -27.2486   21.1438 C   0  0  0  0  0  0  0  0  0  0  0  0
  -24.2081  -32.3586   24.9211 C   0  0  0  0  0  0  0  0  0  0  0  0
  -28.9098  -14.6332   17.3742 C   0  0  0  0  0  0  0  0  0  0  0  0
  -25.1873  -31.2053   25.1161 C   0  0  0  0  0  0  0  0  0  0  0  0
  -27.7073  -13.9638   18.0383 C   0  0  0  0  0  0  0  0  0  0  0  0
  -30.1560  -14.5368   18.2487 C   0  0  0  0  0  0  0  0  0  0  0  0
  -28.7710  -14.4113   20.2951 C   0  0  0  0  0  0  0  0  0  0  0  0
  -26.4174  -31.3675   24.2150 C   0  0  1  0  0  0  0  0  0  0  0  0
  -25.7752  -29.5187   20.9588 C   0  0  1  0  0  0  0  0  0  0  0  0
  -27.4834  -14.5129   19.4584 C   0  0  2  0  0  0  0  0  0  0  0  0
  -29.0876  -21.7103   23.2362 C   0  0  0  0  0  0  0  0  0  0  0  0
  -28.0490  -18.7532   17.5784 C   0  0  0  0  0  0  0  0  0  0  0  0
  -28.1454  -16.8819   22.7900 C   0  0  0  0  0  0  0  0  0  0  0  0
  -19.0136  -27.3347   17.8744 C   0  0  0  0  0  0  0  0  0  0  0  0
  -30.4825  -15.3100   22.4622 C   0  0  0  0  0  0  0  0  0  0  0  0
  -31.4930  -17.5252   21.8791 C   0  0  0  0  0  0  0  0  0  0  0  0
  -22.0261  -28.8456   23.5764 C   0  0  0  0  0  0  0  0  0  0  0  0
  -20.0339  -27.9064   22.3860 C   0  0  0  0  0  0  0  0  0  0  0  0
  -20.6892  -30.2869   22.0305 C   0  0  0  0  0  0  0  0  0  0  0  0
  -22.4441  -27.0624   16.2517 C   0  0  0  0  0  0  0  0  0  0  0  0
  -28.8463  -18.1842   18.7501 C   0  0  0  0  0  0  0  0  0  0  0  0
  -28.9720  -22.8509   20.5350 C   0  0  0  0  0  0  0  0  0  1  0  0
  -28.9636  -17.2131   21.5126 C   0  0  2  0  0  0  0  0  0  0  0  0
  -22.1049  -28.4485   21.0265 C   0  0  1  0  0  0  0  0  0  0  0  0
  -20.4896  -27.6515   17.6910 C   0  0  2  0  0  0  0  0  0  0  0  0
  -30.3847  -16.5189   21.5203 C   0  0  0  0  0  0  0  0  0  0  0  0
  -21.2394  -28.8609   22.2505 C   0  0  0  0  0  0  0  0  0  0  0  0
  -26.5352  -12.7588   20.9099 N   0  0  0  0  0  0  0  0  0  0  0  0
  -29.0220  -19.4931   22.2910 N   0  0  0  0  0  0  0  0  0  0  0  0
  -26.3086  -13.8391   20.1432 N   0  0  0  0  0  0  0  0  0  0  0  0
  -24.5647  -28.6959   20.9162 N   0  0  0  0  0  0  0  0  0  0  0  0
  -29.8960  -15.0476   19.5958 N   0  0  0  0  0  0  0  0  0  0  0  0
  -24.5928  -15.2679   19.3526 N   0  0  0  0  0  0  0  0  0  0  0  0
  -22.3685  -12.2872   21.9146 N   0  0  0  0  0  0  0  0  0  0  0  0
  -26.1012  -30.9872   22.8549 N   0  0  0  0  0  0  0  0  0  0  0  0
  -21.3929  -28.4801   19.7535 N   0  0  0  0  0  0  0  0  0  0  0  0
  -21.0085  -26.8341   16.5581 N   0  3  0  0  0  0  0  0  0  0  0  0
  -22.1307  -14.1264   20.5656 O   0  0  0  0  0  0  0  0  0  0  0  0
  -26.4437  -28.6937   23.0677 O   0  0  0  0  0  0  0  0  0  0  0  0
  -23.1617  -30.5412   20.6657 O   0  0  0  0  0  0  0  0  0  0  0  0
  -31.6773  -16.5387   19.5352 O   0  0  0  0  0  0  0  0  0  0  0  0
  -21.7423  -26.2527   19.2113 O   0  0  0  0  0  0  0  0  0  0  0  0
  -24.6166   -8.0333   24.7227 O   0  0  0  0  0  0  0  0  0  0  0  0
  -27.6870  -23.3760   20.8656 O   0  0  0  0  0  0  0  0  0  1  0  0
  -20.4621   -4.5815   23.6140 F   0  0  0  0  0  0  0  0  0  0  0  0
  -25.0958   -5.3654   24.1793 F   0  0  0  0  0  0  0  0  0  0  0  0
  1  2  1  0  0  0  0
  1  5  2  0  0  0  0
  2  6  2  0  0  0  0
  3  8  2  0  0  0  0
  3 16  1  0  0  0  0
  4  9  1  0  0  0  0
  4 16  2  0  0  0  0
  5 18  1  0  0  0  0
  6 20  1  0  0  0  0
  7 10  2  0  0  0  0
  7 19  1  0  0  0  0
  8 24  1  0  0  0  0
  9 24  2  0  0  0  0
 10 25  1  0  0  0  0
 11 12  2  0  0  0  0
 11 26  1  0  0  0  0
 12 27  1  0  0  0  0
 13 21  1  0  0  0  0
 13 25  2  0  0  0  0
 14 22  1  0  0  0  0
 14 23  2  0  0  0  0
 15 27  2  0  0  0  0
 15 28  1  0  0  0  0
 16 29  1  0  0  0  0
 17 29  1  0  0  0  0
 17 32  2  0  0  0  0
 17 33  1  0  0  0  0
 18 20  2  0  0  0  0
 18 38  1  0  0  0  0
 19 21  2  0  0  0  0
 19 39  1  0  0  0  0
 20 47  1  0  0  0  0
 21 40  1  0  0  0  0
 22 30  2  0  0  0  0
 22 60  1  0  0  0  0
 23 31  1  0  0  0  0
 23 61  1  0  0  0  0
 24 82  1  0  0  0  0
 25 83  1  0  0  0  0
 26 28  2  0  0  0  0
 26 82  1  0  0  0  0
 27 84  1  0  0  0  0
 28 85  1  0  0  0  0
 29 67  2  0  0  0  0
 30 62  1  0  0  0  0
 30 68  1  0  0  0  0
 31 50  1  0  0  0  0
 31 68  2  0  0  0  0
 32 69  1  0  0  0  0
 32 72  1  0  0  0  0
 33 73  1  0  0  0  0
 33 77  2  0  0  0  0
 34 48  1  0  0  0  0
 34 74  1  0  0  0  0
 34 78  2  0  0  0  0
 35 63  1  0  0  0  0
 35 70  1  0  0  0  0
 35 79  2  0  0  0  0
 36 65  1  0  0  0  0
 36 71  1  0  0  0  0
 36 80  2  0  0  0  0
 37 64  1  0  0  0  0
 37 75  1  0  0  0  0
 37 81  2  0  0  0  0
 38 41  1  0  0  0  0
 39 48  1  0  0  0  0
 40 70  1  0  0  0  0
 41 43  1  0  0  0  0
 42 44  1  0  0  0  0
 42 45  1  0  0  0  0
 43 47  1  0  0  0  0
 44 49  1  0  0  0  0
 45 71  1  0  0  0  0
 46 49  1  0  0  0  0
 46 71  1  0  0  0  0
 47 74  1  0  0  0  0
 48 70  1  0  0  0  0
 49 69  1  0  0  0  0
 51 60  1  0  0  0  0
 52 62  1  0  0  0  0
 53 64  1  0  0  0  0
 54 65  1  0  0  0  0
 55 65  1  0  0  0  0
 56 66  1  0  0  0  0
 57 66  1  0  0  0  0
 58 66  1  0  0  0  0
 59 76  1  0  0  0  0
 61 83  1  0  0  0  0
 62 65  1  0  0  0  0
 63 66  1  0  0  0  0
 63 75  1  0  0  0  0
 64 76  1  0  0  0  0
 67 69  1  0  0  0  0
M  CHG  1  76   1
M  ISO  4  36 100  61 101  65 100  83 101
M  END
> <Batch ID>
0075

> <Smiles>
CCc1cc([101CH2:1][101O:1]c2ccc3c(c2)CN(C(=O)C(NC(=O)C(C)NC)C(C)(C)C)C(C(=O)NC2CCCc4ccccc42)C3)c(C)nc1C(C)[100C:0](C)(C)[100C:0](=O)N1CCCC(n2nc(-c3ccc(Oc4ccc(F)cc4F)cc3)c(C(N)=O)c2N)C1

> <Shape>
0.338

> <Color>
0.065

> <Negative vol penalty>
0.000

$$$$

  -OEChem-04052318323D

 85 93  0     1  0  0  0  0  0999 V2000
  -19.7546   -8.8270   19.9985 C   0  0  0  0  0  0  0  0  0  0  0  0
  -19.6378  -10.0982   20.5515 C   0  0  0  0  0  0  0  0  0  0  0  0
  -22.3340  -30.3263   20.0998 C   0  0  0  0  0  0  0  0  0  0  0  0
  -22.4861  -28.8353   21.9947 C   0  0  0  0  0  0  0  0  0  0  0  0
  -20.9830   -8.1678   20.0226 C   0  0  0  0  0  0  0  0  0  0  0  0
  -20.7491  -10.7105   21.1299 C   0  0  0  0  0  0  0  0  0  0  0  0
  -22.0947  -16.6850   21.0956 C   0  0  0  0  0  0  0  0  0  0  0  0
  -20.9483  -30.1683   20.0866 C   0  0  0  0  0  0  0  0  0  0  0  0
  -21.1003  -28.6773   21.9815 C   0  0  0  0  0  0  0  0  0  0  0  0
  -21.9094  -17.6936   22.0401 C   0  0  0  0  0  0  0  0  0  0  0  0
  -18.3869  -30.4158   22.9990 C   0  0  0  0  0  0  0  0  0  0  0  0
  -17.7166  -30.4846   24.2203 C   0  0  0  0  0  0  0  0  0  0  0  0
  -24.1711  -17.3744   22.8159 C   0  0  0  0  0  0  0  0  0  0  0  0
  -25.8796  -24.3606   22.8450 C   0  0  0  0  0  0  0  0  0  0  0  0
  -16.8977  -28.2346   23.8976 C   0  0  0  0  0  0  0  0  0  0  0  0
  -27.8042  -23.6546   23.7763 C   0  0  0  0  0  0  0  0  0  0  0  0
  -23.1030  -29.6598   21.0538 C   0  0  0  0  0  0  0  0  0  0  0  0
  -25.2734  -30.7920   21.7716 C   0  0  0  0  0  0  0  0  0  0  0  0
  -22.1121   -8.7763   20.5929 C   0  0  0  0  0  0  0  0  0  0  0  0
  -23.3181  -16.0048   21.0113 C   0  0  0  0  0  0  0  0  0  0  0  0
  -21.9934  -10.0583   21.1628 C   0  0  0  0  0  0  0  0  0  0  0  0
  -24.3703  -16.3592   21.8677 C   0  0  0  0  0  0  0  0  0  0  0  0
  -27.2915  -24.4595   22.7830 C   0  0  0  0  0  0  0  0  0  0  0  0
  -20.3314  -29.3438   21.0274 C   0  0  0  0  0  0  0  0  0  0  0  0
  -22.9467  -18.0365   22.9023 C   0  0  0  0  0  0  0  0  0  0  0  0
  -18.3125  -29.2565   22.2269 C   0  0  0  0  0  0  0  0  0  0  0  0
  -16.9721  -29.3940   24.6697 C   0  0  0  0  0  0  0  0  0  0  0  0
  -17.5679  -28.1659   22.6763 C   0  0  0  0  0  0  0  0  0  0  0  0
  -24.5346  -29.8223   21.0676 C   0  0  0  0  0  0  0  0  0  0  0  0
  -25.5725  -23.4983   23.8744 C   0  0  0  0  0  0  0  0  0  0  0  0
  -26.5826  -30.5225   21.4556 C   0  0  0  0  0  0  0  0  0  0  0  0
  -24.8170  -31.8424   22.6342 C   0  0  0  0  0  0  0  0  0  0  0  0
  -24.2367  -12.9855   21.3900 C   0  0  0  0  0  0  0  0  0  0  0  0
  -27.0904  -14.1333   20.3598 C   0  0  0  0  0  0  0  0  0  0  0  0
  -29.3159  -25.4919   19.6298 C   0  0  0  0  0  0  0  0  0  0  0  0
  -29.1741  -16.8110   19.9924 C   0  0  0  0  0  0  0  0  0  0  0  0
  -23.4075   -8.0051   20.6377 C   0  0  0  0  0  0  0  0  0  0  0  0
  -23.5108  -14.9375   19.9692 C   0  0  0  0  0  0  0  0  0  0  0  0
  -25.7097  -15.6734   21.8043 C   0  0  0  0  0  0  0  0  0  0  0  0
  -24.6252   -8.8765   20.9349 C   0  0  0  0  0  0  0  0  0  0  0  0
  -29.3025  -28.6775   17.9892 C   0  0  0  0  0  0  0  0  0  0  0  0
  -24.3386   -9.8135   22.1040 C   0  0  0  0  0  0  0  0  0  0  0  0
  -28.1278  -29.4097   18.6365 C   0  0  0  0  0  0  0  0  0  0  0  0
  -29.0222  -27.1844   17.8512 C   0  0  0  0  0  0  0  0  0  0  0  0
  -27.4788  -27.2448   19.7841 C   0  0  0  0  0  0  0  0  0  0  0  0
  -23.1818  -10.7656   21.7772 C   0  0  1  0  0  0  0  0  0  0  0  0
  -24.6293  -13.9595   20.3153 C   0  0  1  0  0  0  0  0  0  0  0  0
  -27.7332  -28.7511   19.9703 C   0  0  2  0  0  0  0  0  0  0  0  0
  -27.3908  -26.6425   21.5187 C   0  0  0  0  0  0  0  0  0  0  0  0
  -31.4553  -17.4310   19.1504 C   0  0  0  0  0  0  0  0  0  0  0  0
  -27.3648  -24.0006   19.6553 C   0  0  0  0  0  0  0  0  0  0  0  0
  -29.4979  -23.3865   20.8133 C   0  0  0  0  0  0  0  0  0  0  0  0
  -28.3425  -12.9122   22.8600 C   0  0  0  0  0  0  0  0  0  0  0  0
  -30.3604  -14.3398   22.4620 C   0  0  0  0  0  0  0  0  0  0  0  0
  -29.6917  -12.6298   20.7734 C   0  0  0  0  0  0  0  0  0  0  0  0
  -26.8798  -22.1595   25.5454 C   0  0  0  0  0  0  0  0  0  0  0  0
  -28.0527  -18.6561   17.9682 C   0  0  0  0  0  0  0  0  0  0  0  0
  -24.2297  -23.0344   24.3798 C   0  0  0  0  0  0  0  0  0  0  0  0
  -23.7150  -21.7641   23.6937 C   0  0  0  0  0  0  0  0  0  0  0  0
  -22.3191  -21.3532   24.1643 C   0  0  0  0  0  0  0  0  0  0  0  0
  -21.8583  -20.0673   23.4914 C   0  0  0  0  0  0  0  0  0  1  0  0
  -28.0703  -25.2737   21.8306 C   0  0  2  0  0  0  0  0  0  0  0  0
  -28.3065  -14.7296   21.0265 C   0  0  1  0  0  0  0  0  0  0  0  0
  -29.9798  -17.3048   18.8043 C   0  0  2  0  0  0  0  0  0  0  0  0
  -28.5300  -24.5409   20.4970 C   0  0  0  0  0  0  0  0  0  0  0  0
  -29.1495  -13.6646   21.7832 C   0  0  0  0  0  0  0  0  0  0  0  0
  -25.3100  -28.9983   20.3578 N   0  0  0  0  0  0  0  0  0  0  0  0
  -26.7502  -23.0756   24.4334 N   0  0  0  0  0  0  0  0  0  0  0  0
  -26.5496  -29.4497   20.6140 N   0  0  0  0  0  0  0  0  0  0  0  0
  -25.8469  -14.6321   20.7727 N   0  0  0  0  0  0  0  0  0  0  0  0
  -28.6290  -26.6006   19.1349 N   0  0  0  0  0  0  0  0  0  0  0  0
  -27.7472  -31.1009   21.8182 N   0  0  0  0  0  0  0  0  0  0  0  0
  -23.4389  -31.9780   22.8505 N   0  0  0  0  0  0  0  0  0  0  0  0
  -23.6360  -11.8354   20.9148 N   0  0  0  0  0  0  0  0  0  0  0  0
  -29.0379  -15.4389   19.9823 N   0  0  0  0  0  0  0  0  0  0  0  0
  -29.4851  -18.6391   18.3616 N   0  3  0  0  0  0  0  0  0  0  0  0
  -25.6068  -32.6474   23.1835 O   0  0  0  0  0  0  0  0  0  0  0  0
  -24.4635  -13.2567   22.5633 O   0  0  0  0  0  0  0  0  0  0  0  0
  -27.2388  -13.2622   19.4990 O   0  0  0  0  0  0  0  0  0  0  0  0
  -30.5055  -25.2562   19.4026 O   0  0  0  0  0  0  0  0  0  0  0  0
  -28.7148  -17.5665   20.8461 O   0  0  0  0  0  0  0  0  0  0  0  0
  -18.9791  -29.1895   21.0150 O   0  0  0  0  0  0  0  0  0  0  0  0
  -22.7683  -19.0202   23.8256 O   0  0  0  0  0  0  0  0  0  1  0  0
  -16.3298  -29.4597   25.8432 F   0  0  0  0  0  0  0  0  0  0  0  0
  -17.4937  -27.0490   21.9395 F   0  0  0  0  0  0  0  0  0  0  0  0
  1  2  1  0  0  0  0
  1  5  2  0  0  0  0
  2  6  2  0  0  0  0
  3  8  2  0  0  0  0
  3 17  1  0  0  0  0
  4  9  1  0  0  0  0
  4 17  2  0  0  0  0
  5 19  1  0  0  0  0
  6 21  1  0  0  0  0
  7 10  2  0  0  0  0
  7 20  1  0  0  0  0
  8 24  1  0  0  0  0
  9 24  2  0  0  0  0
 10 25  1  0  0  0  0
 11 12  2  0  0  0  0
 11 26  1  0  0  0  0
 12 27  1  0  0  0  0
 13 22  1  0  0  0  0
 13 25  2  0  0  0  0
 14 23  1  0  0  0  0
 14 30  2  0  0  0  0
 15 27  2  0  0  0  0
 15 28  1  0  0  0  0
 16 23  2  0  0  0  0
 16 68  1  0  0  0  0
 17 29  1  0  0  0  0
 18 29  1  0  0  0  0
 18 31  2  0  0  0  0
 18 32  1  0  0  0  0
 19 21  2  0  0  0  0
 19 37  1  0  0  0  0
 20 22  2  0  0  0  0
 20 38  1  0  0  0  0
 21 46  1  0  0  0  0
 22 39  1  0  0  0  0
 23 62  1  0  0  0  0
 24 82  1  0  0  0  0
 25 83  1  0  0  0  0
 26 28  2  0  0  0  0
 26 82  1  0  0  0  0
 27 84  1  0  0  0  0
 28 85  1  0  0  0  0
 29 67  2  0  0  0  0
 30 58  1  0  0  0  0
 30 68  1  0  0  0  0
 31 69  1  0  0  0  0
 31 72  1  0  0  0  0
 32 73  1  0  0  0  0
 32 77  2  0  0  0  0
 33 47  1  0  0  0  0
 33 74  1  0  0  0  0
 33 78  2  0  0  0  0
 34 63  1  0  0  0  0
 34 70  1  0  0  0  0
 34 79  2  0  0  0  0
 35 65  1  0  0  0  0
 35 71  1  0  0  0  0
 35 80  2  0  0  0  0
 36 64  1  0  0  0  0
 36 75  1  0  0  0  0
 36 81  2  0  0  0  0
 37 40  1  0  0  0  0
 38 47  1  0  0  0  0
 39 70  1  0  0  0  0
 40 42  1  0  0  0  0
 41 43  1  0  0  0  0
 41 44  1  0  0  0  0
 42 46  1  0  0  0  0
 43 48  1  0  0  0  0
 44 71  1  0  0  0  0
 45 48  1  0  0  0  0
 45 71  1  0  0  0  0
 46 74  1  0  0  0  0
 47 70  1  0  0  0  0
 48 69  1  0  0  0  0
 49 62  1  0  0  0  0
 50 64  1  0  0  0  0
 51 65  1  0  0  0  0
 52 65  1  0  0  0  0
 53 66  1  0  0  0  0
 54 66  1  0  0  0  0
 55 66  1  0  0  0  0
 56 68  1  0  0  0  0
 57 76  1  0  0  0  0
 58 59  1  0  0  0  0
 59 60  1  0  0  0  0
 60 61  1  0  0  0  0
 61 83  1  0  0  0  0
 62 65  1  0  0  0  0
 63 66  1  0  0  0  0
 63 75  1  0  0  0  0
 64 76  1  0  0  0  0
 67 69  1  0  0  0  0
M  CHG  1  76   1
M  ISO  4  35 100  61 101  65 100  83 101
M  END
> <Batch ID>
0075

> <Smiles>
CNC(C)C(=O)NC(C(=O)N1Cc2cc([101O:1][101CH2:1]CCCc3cc(C(C)[100C:0](C)(C)[100C:0](=O)N4CCCC(n5nc(-c6ccc(Oc7ccc(F)cc7F)cc6)c(C(N)=O)c5N)C4)cn3C)ccc2CC1C(=O)NC1CCCc2ccccc21)C(C)(C)C

> <Shape>
0.289

> <Color>
0.065

> <Negative vol penalty>
0.000

$$$$

  -OEChem-04052318323D

 83 91  0     1  0  0  0  0  0999 V2000
  -19.1154  -28.3689   26.4873 C   0  0  0  0  0  0  0  0  0  0  0  0
  -20.5013  -28.3502   26.3673 C   0  0  0  0  0  0  0  0  0  0  0  0
  -27.0006  -14.9677   21.8331 C   0  0  0  0  0  0  0  0  0  0  0  0
  -26.2225  -15.3535   19.5787 C   0  0  0  0  0  0  0  0  0  0  0  0
  -18.3167  -28.1569   25.3643 C   0  0  0  0  0  0  0  0  0  0  0  0
  -21.0893  -28.1184   25.1243 C   0  0  0  0  0  0  0  0  0  0  0  0
  -26.2913  -30.5547   23.0008 C   0  0  0  0  0  0  0  0  0  0  0  0
  -26.6300  -13.6268   21.7316 C   0  0  0  0  0  0  0  0  0  0  0  0
  -25.8519  -14.0126   19.4771 C   0  0  0  0  0  0  0  0  0  0  0  0
  -27.5970  -30.0700   22.9382 C   0  0  0  0  0  0  0  0  0  0  0  0
  -23.7881  -11.8072   21.9226 C   0  0  0  0  0  0  0  0  0  0  0  0
  -23.1027  -11.2418   22.9979 C   0  0  0  0  0  0  0  0  0  0  0  0
  -27.2168  -29.3563   20.6655 C   0  0  0  0  0  0  0  0  0  0  0  0
  -24.8707   -9.6178   23.2707 C   0  0  0  0  0  0  0  0  0  0  0  0
  -29.0965  -24.7607   19.2993 C   0  0  0  0  0  0  0  0  0  0  0  0
  -26.7968  -15.8311   20.7567 C   0  0  0  0  0  0  0  0  0  0  0  0
  -28.4241  -17.7823   20.5280 C   0  0  0  0  0  0  0  0  0  0  0  0
  -18.8952  -27.9319   24.1052 C   0  0  0  0  0  0  0  0  0  0  0  0
  -25.4336  -30.4339   21.8980 C   0  0  0  0  0  0  0  0  0  0  0  0
  -20.2976  -27.9018   23.9837 C   0  0  0  0  0  0  0  0  0  0  0  0
  -25.9014  -29.8426   20.7157 C   0  0  0  0  0  0  0  0  0  0  0  0
  -26.0557  -13.1492   20.5536 C   0  0  0  0  0  0  0  0  0  0  0  0
  -28.0590  -29.4681   21.7714 C   0  0  0  0  0  0  0  0  0  0  0  0
  -25.0147  -11.2779   21.5213 C   0  0  0  0  0  0  0  0  0  0  0  0
  -23.6440  -10.1471   23.6720 C   0  0  0  0  0  0  0  0  0  0  0  0
  -25.5560  -10.1832   22.1954 C   0  0  0  0  0  0  0  0  0  0  0  0
  -27.1788  -17.2164   20.8611 C   0  0  0  0  0  0  0  0  0  0  0  0
  -28.2016  -23.7846   19.6593 C   0  0  0  0  0  0  0  0  0  0  0  0
  -28.2789  -19.1195   20.8060 C   0  0  0  0  0  0  0  0  0  0  0  0
  -29.6062  -17.1553   20.0131 C   0  0  0  0  0  0  0  0  0  0  0  0
  -22.6710  -28.9581   21.3561 C   0  0  0  0  0  0  0  0  0  0  0  0
  -22.8469  -30.5091   18.5125 C   0  0  0  0  0  0  0  0  0  0  0  0
  -25.2349  -23.8030   20.5096 C   0  0  0  0  0  0  0  0  0  0  0  0
  -24.7960  -32.0057   16.1444 C   0  0  0  0  0  0  0  0  0  0  0  0
  -17.9911  -27.6609   22.9289 C   0  0  0  0  0  0  0  0  0  0  0  0
  -24.0364  -30.9858   21.9725 C   0  0  0  0  0  0  0  0  0  0  0  0
  -25.0268  -29.7067   19.4971 C   0  0  0  0  0  0  0  0  0  0  0  0
  -18.6913  -27.7944   21.5790 C   0  0  0  0  0  0  0  0  0  0  0  0
  -24.6379  -21.6019   23.2734 C   0  0  0  0  0  0  0  0  0  0  0  0
  -20.0334  -27.0697   21.5997 C   0  0  0  0  0  0  0  0  0  0  0  0
  -25.3219  -20.3022   22.8515 C   0  0  0  0  0  0  0  0  0  0  0  0
  -24.0240  -22.3235   22.0777 C   0  0  0  0  0  0  0  0  0  0  0  0
  -25.6758  -21.2979   20.5475 C   0  0  0  0  0  0  0  0  0  0  0  0
  -20.9728  -27.6782   22.6479 C   0  0  1  0  0  0  0  0  0  0  0  0
  -23.0871  -30.3474   20.9632 C   0  0  1  0  0  0  0  0  0  0  0  0
  -26.3359  -20.5529   21.7212 C   0  0  2  0  0  0  0  0  0  0  0  0
  -27.4443  -23.0491   17.3659 C   0  0  0  0  0  0  0  0  0  0  0  0
  -24.6587  -33.1465   13.9135 C   0  0  0  0  0  0  0  0  0  0  0  0
  -24.5660  -23.2616   18.2094 C   0  0  0  0  0  0  0  0  0  0  0  0
  -25.7450  -25.4001   18.7616 C   0  0  0  0  0  0  0  0  0  0  0  0
  -22.4650  -27.8033   17.1552 C   0  0  0  0  0  0  0  0  0  0  0  0
  -23.2749  -28.8366   15.0234 C   0  0  0  0  0  0  0  0  0  0  0  0
  -21.1942  -29.6849   16.1068 C   0  0  0  0  0  0  0  0  0  0  0  0
  -25.9035  -34.5246   17.2342 C   0  0  0  0  0  0  0  0  0  0  0  0
  -30.7285  -27.0639   21.4170 C   0  0  0  0  0  0  0  0  0  0  0  0
  -31.0586  -25.8207   20.5880 C   0  0  0  0  0  0  0  0  0  0  0  0
  -29.5673  -27.8748   20.8537 C   0  0  0  0  0  0  0  0  0  1  0  0
  -27.0968  -23.2103   18.8805 C   0  0  2  0  0  0  0  0  0  0  0  0
  -23.4359  -30.1956   17.1584 C   0  0  1  0  0  0  0  0  0  0  0  0
  -24.6624  -33.3345   15.4226 C   0  0  2  0  0  0  0  0  0  0  0  0
  -25.6706  -23.8936   19.0688 C   0  0  0  0  0  0  0  0  0  0  0  0
  -22.6086  -29.1308   16.3844 C   0  0  0  0  0  0  0  0  0  0  0  0
  -26.3069  -18.1202   21.3162 N   0  0  0  0  0  0  0  0  0  0  0  0
  -28.4708  -23.3610   20.9311 N   0  0  0  0  0  0  0  0  0  0  0  0
  -29.5147  -24.0503   21.3786 N   0  0  0  0  0  0  0  0  0  0  0  0
  -29.8882  -24.8891   20.3988 N   0  0  0  0  0  0  0  0  0  0  0  0
  -27.0053  -19.2675   21.2710 N   0  0  0  0  0  0  0  0  0  0  0  0
  -23.6666  -30.2561   19.6215 N   0  0  0  0  0  0  0  0  0  0  0  0
  -25.0132  -22.5226   21.0170 N   0  0  0  0  0  0  0  0  0  0  0  0
  -29.1178  -20.1714   20.6957 N   0  0  0  0  0  0  0  0  0  0  0  0
  -29.5838  -15.7726   19.7851 N   0  0  0  0  0  0  0  0  0  0  0  0
  -21.5458  -28.9131   22.1569 N   0  0  0  0  0  0  0  0  0  0  0  0
  -23.5654  -31.4722   16.4641 N   0  0  0  0  0  0  0  0  0  0  0  0
  -25.7945  -34.2349   15.7812 N   0  3  0  0  0  0  0  0  0  0  0  0
  -30.6567  -17.7993   19.7783 O   0  0  0  0  0  0  0  0  0  0  0  0
  -23.3216  -27.9979   20.9606 O   0  0  0  0  0  0  0  0  0  0  0  0
  -21.7043  -30.9685   18.5833 O   0  0  0  0  0  0  0  0  0  0  0  0
  -25.0990  -24.8402   21.1637 O   0  0  0  0  0  0  0  0  0  0  0  0
  -25.8832  -31.4907   16.3960 O   0  0  0  0  0  0  0  0  0  0  0  0
  -25.6942  -11.8408   20.4541 O   0  0  0  0  0  0  0  0  0  0  0  0
  -29.3329  -28.9936   21.7079 O   0  0  0  0  0  0  0  0  0  1  0  0
  -22.9865   -9.6052   24.7055 F   0  0  0  0  0  0  0  0  0  0  0  0
  -26.7346   -9.6711   21.8153 F   0  0  0  0  0  0  0  0  0  0  0  0
  1  2  1  0  0  0  0
  1  5  2  0  0  0  0
  2  6  2  0  0  0  0
  3  8  2  0  0  0  0
  3 16  1  0  0  0  0
  4  9  1  0  0  0  0
  4 16  2  0  0  0  0
  5 18  1  0  0  0  0
  6 20  1  0  0  0  0
  7 10  2  0  0  0  0
  7 19  1  0  0  0  0
  8 22  1  0  0  0  0
  9 22  2  0  0  0  0
 10 23  1  0  0  0  0
 11 12  2  0  0  0  0
 11 24  1  0  0  0  0
 12 25  1  0  0  0  0
 13 21  1  0  0  0  0
 13 23  2  0  0  0  0
 14 25  2  0  0  0  0
 14 26  1  0  0  0  0
 15 28  2  0  0  0  0
 15 66  1  0  0  0  0
 16 27  1  0  0  0  0
 17 27  1  0  0  0  0
 17 29  2  0  0  0  0
 17 30  1  0  0  0  0
 18 20  2  0  0  0  0
 18 35  1  0  0  0  0
 19 21  2  0  0  0  0
 19 36  1  0  0  0  0
 20 44  1  0  0  0  0
 21 37  1  0  0  0  0
 22 80  1  0  0  0  0
 23 81  1  0  0  0  0
 24 26  2  0  0  0  0
 24 80  1  0  0  0  0
 25 82  1  0  0  0  0
 26 83  1  0  0  0  0
 27 63  2  0  0  0  0
 28 58  1  0  0  0  0
 28 64  1  0  0  0  0
 29 67  1  0  0  0  0
 29 70  1  0  0  0  0
 30 71  1  0  0  0  0
 30 75  2  0  0  0  0
 31 45  1  0  0  0  0
 31 72  1  0  0  0  0
 31 76  2  0  0  0  0
 32 59  1  0  0  0  0
 32 68  1  0  0  0  0
 32 77  2  0  0  0  0
 33 61  1  0  0  0  0
 33 69  1  0  0  0  0
 33 78  2  0  0  0  0
 34 60  1  0  0  0  0
 34 73  1  0  0  0  0
 34 79  2  0  0  0  0
 35 38  1  0  0  0  0
 36 45  1  0  0  0  0
 37 68  1  0  0  0  0
 38 40  1  0  0  0  0
 39 41  1  0  0  0  0
 39 42  1  0  0  0  0
 40 44  1  0  0  0  0
 41 46  1  0  0  0  0
 42 69  1  0  0  0  0
 43 46  1  0  0  0  0
 43 69  1  0  0  0  0
 44 72  1  0  0  0  0
 45 68  1  0  0  0  0
 46 67  1  0  0  0  0
 47 58  1  0  0  0  0
 48 60  1  0  0  0  0
 49 61  1  0  0  0  0
 50 61  1  0  0  0  0
 51 62  1  0  0  0  0
 52 62  1  0  0  0  0
 53 62  1  0  0  0  0
 54 74  1  0  0  0  0
 55 56  1  0  0  0  0
 55 57  1  0  0  0  0
 56 66  1  0  0  0  0
 57 81  1  0  0  0  0
 58 61  1  0  0  0  0
 59 62  1  0  0  0  0
 59 73  1  0  0  0  0
 60 74  1  0  0  0  0
 63 67  1  0  0  0  0
 64 65  2  0  0  0  0
 65 66  1  0  0  0  0
M  CHG  1  74   1
M  ISO  4  33 100  57 101  61 100  81 101
M  END
> <Batch ID>
0075

> <Smiles>
CNC(C)C(=O)NC(C(=O)N1Cc2cc([101O:1][101CH2:1]CCn3cc(C(C)[100C:0](C)(C)[100C:0](=O)N4CCCC(n5nc(-c6ccc(Oc7ccc(F)cc7F)cc6)c(C(N)=O)c5N)C4)nn3)ccc2CC1C(=O)NC1CCCc2ccccc21)C(C)(C)C

> <Shape>
0.232

> <Color>
0.094

> <Negative vol penalty>
0.000

$$$$

  -OEChem-04052318323D

 82 90  0     1  0  0  0  0  0999 V2000
  -32.3338  -14.2169   19.4979 C   0  0  0  0  0  0  0  0  0  0  0  0
  -31.5473  -15.3598   19.6016 C   0  0  0  0  0  0  0  0  0  0  0  0
  -29.6635  -24.0128   21.0333 C   0  0  0  0  0  0  0  0  0  0  0  0
  -29.0754  -23.7483   18.7049 C   0  0  0  0  0  0  0  0  0  0  0  0
  -31.7314  -12.9616   19.4265 C   0  0  0  0  0  0  0  0  0  0  0  0
  -30.1577  -15.2480   19.6328 C   0  0  0  0  0  0  0  0  0  0  0  0
  -26.2510  -18.7657   22.7743 C   0  0  0  0  0  0  0  0  0  0  0  0
  -29.7607  -22.6277   21.1661 C   0  0  0  0  0  0  0  0  0  0  0  0
  -29.1726  -22.3632   18.8377 C   0  0  0  0  0  0  0  0  0  0  0  0
  -25.4655  -19.8566   22.4045 C   0  0  0  0  0  0  0  0  0  0  0  0
  -29.6182  -18.7734   18.4725 C   0  0  0  0  0  0  0  0  0  0  0  0
  -30.2944  -18.0714   17.4748 C   0  0  0  0  0  0  0  0  0  0  0  0
  -23.5856  -18.3822   22.0708 C   0  0  0  0  0  0  0  0  0  0  0  0
  -32.2999  -19.3337   17.9458 C   0  0  0  0  0  0  0  0  0  0  0  0
  -23.1424  -26.9713   18.2197 C   0  0  0  0  0  0  0  0  0  0  0  0
  -24.1935  -25.6919   16.7654 C   0  0  0  0  0  0  0  0  0  0  0  0
  -29.3208  -24.5731   19.8027 C   0  0  0  0  0  0  0  0  0  0  0  0
  -30.2456  -26.8977   19.3041 C   0  0  0  0  0  0  0  0  0  0  0  0
  -30.3340  -12.8337   19.4666 C   0  0  0  0  0  0  0  0  0  0  0  0
  -25.7118  -17.4712   22.7846 C   0  0  0  0  0  0  0  0  0  0  0  0
  -29.5360  -13.9898   19.5605 C   0  0  0  0  0  0  0  0  0  0  0  0
  -24.3657  -17.2769   22.4435 C   0  0  0  0  0  0  0  0  0  0  0  0
  -29.5153  -21.8029   20.0684 C   0  0  0  0  0  0  0  0  0  0  0  0
  -24.1334  -19.6646   22.0499 C   0  0  0  0  0  0  0  0  0  0  0  0
  -30.2828  -19.7557   19.2068 C   0  0  0  0  0  0  0  0  0  0  0  0
  -31.6353  -18.3515   17.2115 C   0  0  0  0  0  0  0  0  0  0  0  0
  -31.6236  -20.0358   18.9435 C   0  0  0  0  0  0  0  0  0  0  0  0
  -29.2197  -26.0038   19.6650 C   0  0  0  0  0  0  0  0  0  0  0  0
  -23.8956  -27.7182   17.3448 C   0  0  0  0  0  0  0  0  0  0  0  0
  -29.6445  -28.1326   19.3148 C   0  0  0  0  0  0  0  0  0  0  0  0
  -31.6191  -26.6352   18.9875 C   0  0  0  0  0  0  0  0  0  0  0  0
  -26.3322  -14.7703   21.2277 C   0  0  0  0  0  0  0  0  0  0  0  0
  -24.1171  -13.5481   23.2579 C   0  0  0  0  0  0  0  0  0  0  0  0
  -23.9117  -29.8106   18.6580 C   0  0  0  0  0  0  0  0  0  0  0  0
  -21.4249  -14.0995   25.2815 C   0  0  0  0  0  0  0  0  0  0  0  0
  -29.7270  -11.4590   19.3388 C   0  0  0  0  0  0  0  0  0  0  0  0
  -26.5649  -16.3084   23.2117 C   0  0  0  0  0  0  0  0  0  0  0  0
  -23.7333  -15.9100   22.4580 C   0  0  0  0  0  0  0  0  0  0  0  0
  -28.2596  -11.3999   19.7556 C   0  0  0  0  0  0  0  0  0  0  0  0
  -26.0969  -30.5611   21.3969 C   0  0  0  0  0  0  0  0  0  0  0  0
  -27.4823  -12.5581   19.1383 C   0  0  0  0  0  0  0  0  0  0  0  0
  -27.2241  -29.5402   21.2470 C   0  0  0  0  0  0  0  0  0  0  0  0
  -24.7527  -29.9743   20.9775 C   0  0  0  0  0  0  0  0  0  0  0  0
  -25.8683  -28.3867   19.4425 C   0  0  0  0  0  0  0  0  0  0  0  0
  -28.0262  -13.9077   19.6224 C   0  0  1  0  0  0  0  0  0  0  0  0
  -26.0534  -14.9689   22.6908 C   0  0  1  0  0  0  0  0  0  0  0  0
  -27.2486  -28.9485   19.8265 C   0  0  2  0  0  0  0  0  0  0  0  0
  -19.8080  -12.8999   26.7795 C   0  0  0  0  0  0  0  0  0  0  0  0
  -22.9690  -29.8432   16.3865 C   0  0  0  0  0  0  0  0  0  0  0  0
  -25.4295  -29.7260   16.7946 C   0  0  0  0  0  0  0  0  0  0  0  0
  -22.6440  -12.4802   20.8086 C   0  0  0  0  0  0  0  0  0  0  0  0
  -20.6259  -12.1494   22.2529 C   0  0  0  0  0  0  0  0  0  0  0  0
  -22.7285  -10.9009   22.7458 C   0  0  0  0  0  0  0  0  0  0  0  0
  -22.2788  -15.6601   27.6467 C   0  0  0  0  0  0  0  0  0  0  0  0
  -23.7065  -23.7035   19.4082 C   0  0  0  0  0  0  0  0  0  0  0  0
  -23.0518  -22.5210   20.1242 C   0  0  0  0  0  0  0  0  0  0  0  0
  -22.7430  -24.4503   18.4787 C   0  0  0  0  0  0  0  0  0  0  0  0
  -24.0280  -21.8262   21.0639 C   0  0  0  0  0  0  0  0  0  1  0  0
  -22.6171  -13.3801   23.2283 C   0  0  1  0  0  0  0  0  0  0  0  0
  -21.1250  -13.6563   26.7021 C   0  0  2  0  0  0  0  0  0  0  0  0
  -24.0499  -29.1800   17.2952 C   0  0  0  0  0  0  0  0  0  0  0  0
  -22.1660  -12.2533   22.2567 C   0  0  0  0  0  0  0  0  0  0  0  0
  -24.5471  -26.9159   16.4418 N   0  0  0  0  0  0  0  0  0  0  0  0
  -28.0552  -26.6186   19.8887 N   0  0  0  0  0  0  0  0  0  0  0  0
  -23.3430  -25.6753   17.8358 N   0  0  0  0  0  0  0  0  0  0  0  0
  -28.3458  -27.9120   19.6680 N   0  0  0  0  0  0  0  0  0  0  0  0
  -24.6103  -14.8040   22.8766 N   0  0  0  0  0  0  0  0  0  0  0  0
  -24.8235  -29.4025   19.6317 N   0  0  0  0  0  0  0  0  0  0  0  0
  -30.1055  -29.3749   19.0565 N   0  0  0  0  0  0  0  0  0  0  0  0
  -32.0717  -25.3093   19.0246 N   0  0  0  0  0  0  0  0  0  0  0  0
  -27.5579  -14.1901   20.9623 N   0  0  0  0  0  0  0  0  0  0  0  0
  -22.2017  -13.1777   24.6121 N   0  0  0  0  0  0  0  0  0  0  0  0
  -21.0423  -14.8377   27.6067 N   0  3  0  0  0  0  0  0  0  0  0  0
  -32.4253  -27.5512   18.6968 O   0  0  0  0  0  0  0  0  0  0  0  0
  -25.4965  -15.1165   20.4010 O   0  0  0  0  0  0  0  0  0  0  0  0
  -24.8246  -12.6023   23.6133 O   0  0  0  0  0  0  0  0  0  0  0  0
  -23.0212  -30.6430   18.8487 O   0  0  0  0  0  0  0  0  0  0  0  0
  -21.0083  -15.1559   24.8114 O   0  0  0  0  0  0  0  0  0  0  0  0
  -29.6102  -20.4513   20.1976 O   0  0  0  0  0  0  0  0  0  0  0  0
  -23.3647  -20.7275   21.6879 O   0  0  0  0  0  0  0  0  0  1  0  0
  -32.2850  -17.6762   16.2544 F   0  0  0  0  0  0  0  0  0  0  0  0
  -32.2677  -20.9775   19.6465 F   0  0  0  0  0  0  0  0  0  0  0  0
  1  2  1  0  0  0  0
  1  5  2  0  0  0  0
  2  6  2  0  0  0  0
  3  8  2  0  0  0  0
  3 17  1  0  0  0  0
  4  9  1  0  0  0  0
  4 17  2  0  0  0  0
  5 19  1  0  0  0  0
  6 21  1  0  0  0  0
  7 10  2  0  0  0  0
  7 20  1  0  0  0  0
  8 23  1  0  0  0  0
  9 23  2  0  0  0  0
 10 24  1  0  0  0  0
 11 12  2  0  0  0  0
 11 25  1  0  0  0  0
 12 26  1  0  0  0  0
 13 22  1  0  0  0  0
 13 24  2  0  0  0  0
 14 26  2  0  0  0  0
 14 27  1  0  0  0  0
 15 29  2  0  0  0  0
 15 65  1  0  0  0  0
 16 63  2  0  0  0  0
 16 65  1  0  0  0  0
 17 28  1  0  0  0  0
 18 28  1  0  0  0  0
 18 30  2  0  0  0  0
 18 31  1  0  0  0  0
 19 21  2  0  0  0  0
 19 36  1  0  0  0  0
 20 22  2  0  0  0  0
 20 37  1  0  0  0  0
 21 45  1  0  0  0  0
 22 38  1  0  0  0  0
 23 79  1  0  0  0  0
 24 80  1  0  0  0  0
 25 27  2  0  0  0  0
 25 79  1  0  0  0  0
 26 81  1  0  0  0  0
 27 82  1  0  0  0  0
 28 64  2  0  0  0  0
 29 61  1  0  0  0  0
 29 63  1  0  0  0  0
 30 66  1  0  0  0  0
 30 69  1  0  0  0  0
 31 70  1  0  0  0  0
 31 74  2  0  0  0  0
 32 46  1  0  0  0  0
 32 71  1  0  0  0  0
 32 75  2  0  0  0  0
 33 59  1  0  0  0  0
 33 67  1  0  0  0  0
 33 76  2  0  0  0  0
 34 61  1  0  0  0  0
 34 68  1  0  0  0  0
 34 77  2  0  0  0  0
 35 60  1  0  0  0  0
 35 72  1  0  0  0  0
 35 78  2  0  0  0  0
 36 39  1  0  0  0  0
 37 46  1  0  0  0  0
 38 67  1  0  0  0  0
 39 41  1  0  0  0  0
 40 42  1  0  0  0  0
 40 43  1  0  0  0  0
 41 45  1  0  0  0  0
 42 47  1  0  0  0  0
 43 68  1  0  0  0  0
 44 47  1  0  0  0  0
 44 68  1  0  0  0  0
 45 71  1  0  0  0  0
 46 67  1  0  0  0  0
 47 66  1  0  0  0  0
 48 60  1  0  0  0  0
 49 61  1  0  0  0  0
 50 61  1  0  0  0  0
 51 62  1  0  0  0  0
 52 62  1  0  0  0  0
 53 62  1  0  0  0  0
 54 73  1  0  0  0  0
 55 56  1  0  0  0  0
 55 57  1  0  0  0  0
 56 58  1  0  0  0  0
 57 65  1  0  0  0  0
 58 80  1  0  0  0  0
 59 62  1  0  0  0  0
 59 72  1  0  0  0  0
 60 73  1  0  0  0  0
 64 66  1  0  0  0  0
M  CHG  1  73   1
M  ISO  4  34 100  58 101  61 100  80 101
M  END
> <Batch ID>
0075

> <Smiles>
CNC(C)C(=O)NC(C(=O)N1Cc2cc([101O:1][101CH2:1]CCCn3cnc([100C:0](C)(C)[100C:0](=O)N4CCCC(n5nc(-c6ccc(Oc7ccc(F)cc7F)cc6)c(C(N)=O)c5N)C4)c3)ccc2CC1C(=O)NC1CCCc2ccccc21)C(C)(C)C

> <Shape>
0.202

> <Color>
0.077

> <Negative vol penalty>
0.000

$$$$

  -OEChem-04052318323D

 81 89  0     1  0  0  0  0  0999 V2000
  -21.8955  -11.9977   19.1984 C   0  0  0  0  0  0  0  0  0  0  0  0
  -21.7340  -13.3097   19.6321 C   0  0  0  0  0  0  0  0  0  0  0  0
  -24.9722  -29.0900   19.3310 C   0  0  0  0  0  0  0  0  0  0  0  0
  -25.9548  -27.4930   20.8546 C   0  0  0  0  0  0  0  0  0  0  0  0
  -23.1073  -11.3402   19.4061 C   0  0  0  0  0  0  0  0  0  0  0  0
  -22.7840  -13.9646   20.2747 C   0  0  0  0  0  0  0  0  0  0  0  0
  -23.4541  -18.6894   18.5798 C   0  0  0  0  0  0  0  0  0  0  0  0
  -26.1849  -29.7762   19.2682 C   0  0  0  0  0  0  0  0  0  0  0  0
  -27.1676  -28.1792   20.7917 C   0  0  0  0  0  0  0  0  0  0  0  0
  -22.5717  -19.6636   19.0444 C   0  0  0  0  0  0  0  0  0  0  0  0
  -30.6247  -29.3039   20.7504 C   0  0  0  0  0  0  0  0  0  0  0  0
  -31.7891  -28.5516   20.5965 C   0  0  0  0  0  0  0  0  0  0  0  0
  -24.2280  -20.3953   20.6382 C   0  0  0  0  0  0  0  0  0  0  0  0
  -30.9471  -27.6757   18.5082 C   0  0  0  0  0  0  0  0  0  0  0  0
  -19.3343  -23.3047   28.0789 C   0  0  0  0  0  0  0  0  0  0  0  0
  -19.1393  -22.5758   26.9294 C   0  0  0  0  0  0  0  0  0  0  0  0
  -24.8571  -27.9484   20.1243 C   0  0  0  0  0  0  0  0  0  0  0  0
  -23.1797  -26.1852   19.3594 C   0  0  0  0  0  0  0  0  0  0  0  0
  -24.1760  -11.9907   20.0430 C   0  0  0  0  0  0  0  0  0  0  0  0
  -24.7284  -18.5534   19.1493 C   0  0  0  0  0  0  0  0  0  0  0  0
  -24.0108  -13.3148   20.4923 C   0  0  0  0  0  0  0  0  0  0  0  0
  -25.1257  -19.4202   20.1773 C   0  0  0  0  0  0  0  0  0  0  0  0
  -27.2826  -29.3209   19.9985 C   0  0  0  0  0  0  0  0  0  0  0  0
  -22.9575  -20.5149   20.0757 C   0  0  0  0  0  0  0  0  0  0  0  0
  -29.6214  -29.2420   19.7833 C   0  0  0  0  0  0  0  0  0  0  0  0
  -31.9504  -27.7375   19.4754 C   0  0  0  0  0  0  0  0  0  0  0  0
  -29.7826  -28.4279   18.6622 C   0  0  0  0  0  0  0  0  0  0  0  0
  -23.6045  -27.2394   20.1901 C   0  0  0  0  0  0  0  0  0  0  0  0
  -21.9297  -25.8615   19.8275 C   0  0  0  0  0  0  0  0  0  0  0  0
  -19.9517  -24.5762   26.4875 C   0  0  0  0  0  0  0  0  0  0  0  0
  -23.8547  -25.5550   18.2626 C   0  0  0  0  0  0  0  0  0  0  0  0
  -26.2480  -16.2466   20.7218 C   0  0  0  0  0  0  0  0  0  0  0  0
  -19.3407  -26.6030   25.1996 C   0  0  0  0  0  0  0  0  0  0  0  0
  -28.7635  -18.2817   20.4915 C   0  0  0  0  0  0  0  0  0  0  0  0
  -29.8715  -21.4870   20.1102 C   0  0  0  0  0  0  0  0  0  0  0  0
  -25.4511  -11.2232   20.2873 C   0  0  0  0  0  0  0  0  0  0  0  0
  -25.6783  -17.5149   18.6188 C   0  0  0  0  0  0  0  0  0  0  0  0
  -26.4901  -19.3288   20.8087 C   0  0  0  0  0  0  0  0  0  0  0  0
  -26.6394  -12.1135   20.6418 C   0  0  0  0  0  0  0  0  0  0  0  0
  -18.1392  -27.7606   22.0285 C   0  0  0  0  0  0  0  0  0  0  0  0
  -26.2402  -13.1425   21.6947 C   0  0  0  0  0  0  0  0  0  0  0  0
  -19.3728  -27.6893   21.1294 C   0  0  0  0  0  0  0  0  0  0  0  0
  -18.5106  -28.1479   23.4565 C   0  0  0  0  0  0  0  0  0  0  0  0
  -20.7743  -27.1878   23.1811 C   0  0  0  0  0  0  0  0  0  0  0  0
  -25.1347  -14.0672   21.1712 C   0  0  1  0  0  0  0  0  0  0  0  0
  -26.7626  -17.1297   19.6204 C   0  0  1  0  0  0  0  0  0  0  0  0
  -20.4470  -26.7696   21.7367 C   0  0  2  0  0  0  0  0  0  0  0  0
  -21.4972  -26.5757   26.4120 C   0  0  0  0  0  0  0  0  0  0  0  0
  -31.9807  -22.8421   19.9992 C   0  0  0  0  0  0  0  0  0  0  0  0
  -29.0740  -18.0416   23.5174 C   0  0  0  0  0  0  0  0  0  0  0  0
  -30.5189  -20.0854   23.4613 C   0  0  0  0  0  0  0  0  0  0  0  0
  -31.2260  -18.0265   22.2434 C   0  0  0  0  0  0  0  0  0  0  0  0
  -29.2699  -22.4126   17.3642 C   0  0  0  0  0  0  0  0  0  0  0  0
  -20.8934  -22.6808   23.8847 C   0  0  0  0  0  0  0  0  0  0  0  0
  -20.8385  -22.2504   22.4180 C   0  0  0  0  0  0  0  0  0  0  0  0
  -19.5212  -23.0669   24.4485 C   0  0  0  0  0  0  0  0  0  0  0  0
  -22.2121  -21.8413   21.9036 C   0  0  0  0  0  0  0  0  0  1  0  0
  -20.4543  -25.7078   25.6820 C   0  0  1  0  0  0  0  0  0  0  0  0
  -29.3103  -19.4057   21.3381 C   0  0  1  0  0  0  0  0  0  0  0  0
  -30.9301  -22.0854   19.2015 C   0  0  2  0  0  0  0  0  0  0  0  0
  -30.0058  -18.8905   22.6297 C   0  0  0  0  0  0  0  0  0  0  0  0
  -19.8399  -24.5490   27.7970 N   0  0  0  0  0  0  0  0  0  0  0  0
  -22.6979  -27.5639   21.1157 N   0  0  0  0  0  0  0  0  0  0  0  0
  -19.5388  -23.4036   25.9183 N   0  0  0  0  0  0  0  0  0  0  0  0
  -21.6909  -26.7087   20.8694 N   0  0  0  0  0  0  0  0  0  0  0  0
  -27.3808  -18.2931   20.2596 N   0  0  0  0  0  0  0  0  0  0  0  0
  -19.5494  -27.2646   23.9894 N   0  0  0  0  0  0  0  0  0  0  0  0
  -21.0224  -24.9377   19.4455 N   0  0  0  0  0  0  0  0  0  0  0  0
  -25.1335  -26.0106   17.9144 N   0  0  0  0  0  0  0  0  0  0  0  0
  -25.6891  -15.0629   20.2791 N   0  0  0  0  0  0  0  0  0  0  0  0
  -30.1768  -20.1900   20.4650 N   0  0  0  0  0  0  0  0  0  0  0  0
  -30.3065  -23.0294   18.2314 N   0  3  0  0  0  0  0  0  0  0  0  0
  -23.3323  -24.6265   17.6004 O   0  0  0  0  0  0  0  0  0  0  0  0
  -26.3518  -16.6113   21.8871 O   0  0  0  0  0  0  0  0  0  0  0  0
  -18.3156  -26.7075   25.8781 O   0  0  0  0  0  0  0  0  0  0  0  0
  -29.5358  -17.4291   20.0463 O   0  0  0  0  0  0  0  0  0  0  0  0
  -28.8753  -22.1091   20.4722 O   0  0  0  0  0  0  0  0  0  0  0  0
  -28.4662  -29.9901   19.9372 O   0  0  0  0  0  0  0  0  0  0  0  0
  -22.0978  -21.4663   20.5315 O   0  0  0  0  0  0  0  0  0  1  0  0
  -33.0693  -27.0164   19.3269 F   0  0  0  0  0  0  0  0  0  0  0  0
  -28.8228  -28.3653   17.7292 F   0  0  0  0  0  0  0  0  0  0  0  0
  1  2  1  0  0  0  0
  1  5  2  0  0  0  0
  2  6  2  0  0  0  0
  3  8  2  0  0  0  0
  3 17  1  0  0  0  0
  4  9  1  0  0  0  0
  4 17  2  0  0  0  0
  5 19  1  0  0  0  0
  6 21  1  0  0  0  0
  7 10  2  0  0  0  0
  7 20  1  0  0  0  0
  8 23  1  0  0  0  0
  9 23  2  0  0  0  0
 10 24  1  0  0  0  0
 11 12  2  0  0  0  0
 11 25  1  0  0  0  0
 12 26  1  0  0  0  0
 13 22  1  0  0  0  0
 13 24  2  0  0  0  0
 14 26  2  0  0  0  0
 14 27  1  0  0  0  0
 15 16  2  0  0  0  0
 15 62  1  0  0  0  0
 16 64  1  0  0  0  0
 17 28  1  0  0  0  0
 18 28  1  0  0  0  0
 18 29  2  0  0  0  0
 18 31  1  0  0  0  0
 19 21  2  0  0  0  0
 19 36  1  0  0  0  0
 20 22  2  0  0  0  0
 20 37  1  0  0  0  0
 21 45  1  0  0  0  0
 22 38  1  0  0  0  0
 23 78  1  0  0  0  0
 24 79  1  0  0  0  0
 25 27  2  0  0  0  0
 25 78  1  0  0  0  0
 26 80  1  0  0  0  0
 27 81  1  0  0  0  0
 28 63  2  0  0  0  0
 29 65  1  0  0  0  0
 29 68  1  0  0  0  0
 30 58  1  0  0  0  0
 30 62  2  0  0  0  0
 30 64  1  0  0  0  0
 31 69  1  0  0  0  0
 31 73  2  0  0  0  0
 32 46  1  0  0  0  0
 32 70  1  0  0  0  0
 32 74  2  0  0  0  0
 33 58  1  0  0  0  0
 33 67  1  0  0  0  0
 33 75  2  0  0  0  0
 34 59  1  0  0  0  0
 34 66  1  0  0  0  0
 34 76  2  0  0  0  0
 35 60  1  0  0  0  0
 35 71  1  0  0  0  0
 35 77  2  0  0  0  0
 36 39  1  0  0  0  0
 37 46  1  0  0  0  0
 38 66  1  0  0  0  0
 39 41  1  0  0  0  0
 40 42  1  0  0  0  0
 40 43  1  0  0  0  0
 41 45  1  0  0  0  0
 42 47  1  0  0  0  0
 43 67  1  0  0  0  0
 44 47  1  0  0  0  0
 44 67  1  0  0  0  0
 45 70  1  0  0  0  0
 46 66  1  0  0  0  0
 47 65  1  0  0  0  0
 48 58  1  0  0  0  0
 49 60  1  0  0  0  0
 50 61  1  0  0  0  0
 51 61  1  0  0  0  0
 52 61  1  0  0  0  0
 53 72  1  0  0  0  0
 54 55  1  0  0  0  0
 54 56  1  0  0  0  0
 55 57  1  0  0  0  0
 56 64  1  0  0  0  0
 57 79  1  0  0  0  0
 59 61  1  0  0  0  0
 59 71  1  0  0  0  0
 60 72  1  0  0  0  0
 63 65  1  0  0  0  0
M  CHG  1  72   1
M  ISO  4  33 100  57 101  58 100  79 101
M  END
> <Batch ID>
0075

> <Smiles>
CNC(C)C(=O)NC(C(=O)N1Cc2cc([101O:1][101CH2:1]CCCn3ccnc3[100CH:0](C)[100C:0](=O)N3CCCC(n4nc(-c5ccc(Oc6ccc(F)cc6F)cc5)c(C(N)=O)c4N)C3)ccc2CC1C(=O)NC1CCCc2ccccc21)C(C)(C)C

> <Shape>
0.193

> <Color>
0.083

> <Negative vol penalty>
0.000

$$$$

  -OEChem-04052318323D

 85 93  0     1  0  0  0  0  0999 V2000
  -28.3057  -24.7658   16.6488 C   0  0  0  0  0  0  0  0  0  0  0  0
  -27.1041  -24.9442   17.3269 C   0  0  0  0  0  0  0  0  0  0  0  0
  -23.6952  -13.4224   20.5480 C   0  0  0  0  0  0  0  0  0  0  0  0
  -26.0104  -13.9363   21.0088 C   0  0  0  0  0  0  0  0  0  0  0  0
  -29.4896  -25.2687   17.1866 C   0  0  0  0  0  0  0  0  0  0  0  0
  -27.0860  -25.6248   18.5439 C   0  0  0  0  0  0  0  0  0  0  0  0
  -23.2945  -28.9684   18.8437 C   0  0  0  0  0  0  0  0  0  0  0  0
  -24.0365  -12.0894   20.3194 C   0  0  0  0  0  0  0  0  0  0  0  0
  -26.3518  -12.6033   20.7803 C   0  0  0  0  0  0  0  0  0  0  0  0
  -22.0224  -28.4660   19.1139 C   0  0  0  0  0  0  0  0  0  0  0  0
  -24.2446   -8.4772   19.9673 C   0  0  0  0  0  0  0  0  0  0  0  0
  -23.4369   -7.4938   20.5383 C   0  0  0  0  0  0  0  0  0  0  0  0
  -22.2710  -29.0984   21.4286 C   0  0  0  0  0  0  0  0  0  0  0  0
  -20.5275  -24.4339   21.7699 C   0  0  0  0  0  0  0  0  0  0  0  0
  -23.9346   -8.3620   22.7373 C   0  0  0  0  0  0  0  0  0  0  0  0
  -24.6821  -14.3459   20.8927 C   0  0  0  0  0  0  0  0  0  0  0  0
  -23.4413  -16.2188   22.1009 C   0  0  0  0  0  0  0  0  0  0  0  0
  -29.4846  -25.9642   18.4060 C   0  0  0  0  0  0  0  0  0  0  0  0
  -24.0701  -29.5307   19.8677 C   0  0  0  0  0  0  0  0  0  0  0  0
  -28.2712  -26.1363   19.0991 C   0  0  0  0  0  0  0  0  0  0  0  0
  -23.5517  -29.6096   21.1681 C   0  0  0  0  0  0  0  0  0  0  0  0
  -19.6326  -25.4798   21.9119 C   0  0  0  0  0  0  0  0  0  0  0  0
  -25.3649  -11.6799   20.4355 C   0  0  0  0  0  0  0  0  0  0  0  0
  -21.5116  -28.5283   20.4071 C   0  0  0  0  0  0  0  0  0  0  0  0
  -24.8974   -9.4030   20.7813 C   0  0  0  0  0  0  0  0  0  0  0  0
  -23.2818   -7.4362   21.9233 C   0  0  0  0  0  0  0  0  0  0  0  0
  -24.7423   -9.3454   22.1663 C   0  0  0  0  0  0  0  0  0  0  0  0
  -24.3302  -15.7231   21.1284 C   0  0  0  0  0  0  0  0  0  0  0  0
  -21.1527  -23.9599   22.9056 C   0  0  0  0  0  0  0  0  0  0  0  0
  -19.4220  -25.9823   23.1803 C   0  0  0  0  0  0  0  0  0  0  0  0
  -23.4533  -17.5797   21.9151 C   0  0  0  0  0  0  0  0  0  0  0  0
  -22.6736  -15.5125   23.0844 C   0  0  0  0  0  0  0  0  0  0  0  0
  -26.8730  -28.8375   21.1971 C   0  0  0  0  0  0  0  0  0  0  0  0
  -26.3758  -31.6290   22.7726 C   0  0  0  0  0  0  0  0  0  0  0  0
  -24.1550  -33.9526   23.9199 C   0  0  0  0  0  0  0  0  0  0  0  0
  -26.7137  -22.1742   21.1556 C   0  0  0  0  0  0  0  0  0  0  0  0
  -30.7965  -26.4483   18.9710 C   0  0  0  0  0  0  0  0  0  0  0  0
  -25.4298  -30.0924   19.5544 C   0  0  0  0  0  0  0  0  0  0  0  0
  -24.3360  -30.2218   22.2988 C   0  0  0  0  0  0  0  0  0  0  0  0
  -30.6365  -27.4839   20.0811 C   0  0  0  0  0  0  0  0  0  0  0  0
  -25.3828  -20.3957   18.1946 C   0  0  0  0  0  0  0  0  0  0  0  0
  -29.5776  -27.0336   21.0825 C   0  0  0  0  0  0  0  0  0  0  0  0
  -24.9862  -19.0379   18.7720 C   0  0  0  0  0  0  0  0  0  0  0  0
  -26.5288  -21.0314   18.9758 C   0  0  0  0  0  0  0  0  0  0  0  0
  -25.8719  -19.7942   21.0135 C   0  0  0  0  0  0  0  0  0  0  0  0
  -28.2072  -26.8906   20.4095 C   0  0  1  0  0  0  0  0  0  0  0  0
  -26.3376  -30.1773   20.7775 C   0  0  1  0  0  0  0  0  0  0  0  0
  -24.6887  -19.1478   20.2775 C   0  0  2  0  0  0  0  0  0  0  0  0
  -18.6194  -27.7174   24.8026 C   0  0  0  0  0  0  0  0  0  0  0  0
  -23.3503  -36.0861   24.9677 C   0  0  0  0  0  0  0  0  0  0  0  0
  -26.8274  -30.0972   25.3726 C   0  0  0  0  0  0  0  0  0  0  0  0
  -25.7886  -32.0152   26.6016 C   0  0  0  0  0  0  0  0  0  0  0  0
  -27.8871  -32.3613   25.2981 C   0  0  0  0  0  0  0  0  0  0  0  0
  -26.3965  -23.7057   23.0617 C   0  0  0  0  0  0  0  0  0  0  0  0
  -24.2323  -35.3882   21.3330 C   0  0  0  0  0  0  0  0  0  0  0  0
  -18.9211  -26.0354   20.7022 C   0  0  0  0  0  0  0  0  0  0  0  0
  -22.1256  -22.8353   22.8070 C   0  0  0  0  0  0  0  0  0  0  0  0
  -18.4727  -27.1095   23.4100 C   0  0  0  0  0  0  0  0  0  0  0  0
  -23.5859  -23.2720   22.5739 C   0  0  0  0  0  0  0  0  0  0  0  0
  -24.5859  -22.1188   22.5238 C   0  0  0  0  0  0  0  0  0  0  0  0
  -19.8163  -26.9487   19.8717 C   0  0  0  0  0  0  0  0  0  1  0  0
  -25.7052  -32.0213   24.0670 C   0  0  1  0  0  0  0  0  0  0  0  0
  -24.1449  -35.4678   23.8280 C   0  0  2  0  0  0  0  0  0  0  0  0
  -26.5378  -31.6104   25.3141 C   0  0  0  0  0  0  0  0  0  0  0  0
  -24.8676  -16.6902   20.3801 N   0  0  0  0  0  0  0  0  0  0  0  0
  -20.9275  -24.4709   24.1346 N   0  0  0  0  0  0  0  0  0  0  0  0
  -20.0477  -25.4986   24.2741 N   0  0  0  0  0  0  0  0  0  0  0  0
  -24.3147  -17.8073   20.8826 N   0  0  0  0  0  0  0  0  0  0  0  0
  -25.6629  -30.7516   21.9434 N   0  0  0  0  0  0  0  0  0  0  0  0
  -26.2377  -21.0839   20.4089 N   0  0  0  0  0  0  0  0  0  0  0  0
  -22.8107  -18.5917   22.5359 N   0  0  0  0  0  0  0  0  0  0  0  0
  -23.2474  -15.2844   24.3426 N   0  0  0  0  0  0  0  0  0  0  0  0
  -27.6007  -28.1904   20.2167 N   0  0  0  0  0  0  0  0  0  0  0  0
  -25.4390  -33.4526   23.9714 N   0  0  0  0  0  0  0  0  0  0  0  0
  -25.9501  -22.5731   22.2630 N   0  0  0  0  0  0  0  0  0  0  0  0
  -23.5363  -35.9046   22.5396 N   0  3  0  0  0  0  0  0  0  0  0  0
  -21.5193  -15.0815   22.8489 O   0  0  0  0  0  0  0  0  0  0  0  0
  -26.6442  -28.4223   22.3271 O   0  0  0  0  0  0  0  0  0  0  0  0
  -27.4879  -32.0900   22.5038 O   0  0  0  0  0  0  0  0  0  0  0  0
  -23.1266  -33.2800   23.9472 O   0  0  0  0  0  0  0  0  0  0  0  0
  -27.7565  -22.7637   20.8442 O   0  0  0  0  0  0  0  0  0  0  0  0
  -25.6983  -10.3792   20.2128 O   0  0  0  0  0  0  0  0  0  0  0  0
  -20.2705  -28.0381   20.6738 O   0  0  0  0  0  0  0  0  0  1  0  0
  -22.5049   -6.4927   22.4714 F   0  0  0  0  0  0  0  0  0  0  0  0
  -25.3660  -10.2327   22.9534 F   0  0  0  0  0  0  0  0  0  0  0  0
  1  2  1  0  0  0  0
  1  5  2  0  0  0  0
  2  6  2  0  0  0  0
  3  8  2  0  0  0  0
  3 16  1  0  0  0  0
  4  9  1  0  0  0  0
  4 16  2  0  0  0  0
  5 18  1  0  0  0  0
  6 20  1  0  0  0  0
  7 10  2  0  0  0  0
  7 19  1  0  0  0  0
  8 23  1  0  0  0  0
  9 23  2  0  0  0  0
 10 24  1  0  0  0  0
 11 12  2  0  0  0  0
 11 25  1  0  0  0  0
 12 26  1  0  0  0  0
 13 21  1  0  0  0  0
 13 24  2  0  0  0  0
 14 22  1  0  0  0  0
 14 29  2  0  0  0  0
 15 26  2  0  0  0  0
 15 27  1  0  0  0  0
 16 28  1  0  0  0  0
 17 28  1  0  0  0  0
 17 31  2  0  0  0  0
 17 32  1  0  0  0  0
 18 20  2  0  0  0  0
 18 37  1  0  0  0  0
 19 21  2  0  0  0  0
 19 38  1  0  0  0  0
 20 46  1  0  0  0  0
 21 39  1  0  0  0  0
 22 30  2  0  0  0  0
 22 56  1  0  0  0  0
 23 82  1  0  0  0  0
 24 83  1  0  0  0  0
 25 27  2  0  0  0  0
 25 82  1  0  0  0  0
 26 84  1  0  0  0  0
 27 85  1  0  0  0  0
 28 65  2  0  0  0  0
 29 57  1  0  0  0  0
 29 66  1  0  0  0  0
 30 58  1  0  0  0  0
 30 67  1  0  0  0  0
 31 68  1  0  0  0  0
 31 71  1  0  0  0  0
 32 72  1  0  0  0  0
 32 77  2  0  0  0  0
 33 47  1  0  0  0  0
 33 73  1  0  0  0  0
 33 78  2  0  0  0  0
 34 62  1  0  0  0  0
 34 69  1  0  0  0  0
 34 79  2  0  0  0  0
 35 63  1  0  0  0  0
 35 74  1  0  0  0  0
 35 80  2  0  0  0  0
 36 70  1  0  0  0  0
 36 75  1  0  0  0  0
 36 81  2  0  0  0  0
 37 40  1  0  0  0  0
 38 47  1  0  0  0  0
 39 69  1  0  0  0  0
 40 42  1  0  0  0  0
 41 43  1  0  0  0  0
 41 44  1  0  0  0  0
 42 46  1  0  0  0  0
 43 48  1  0  0  0  0
 44 70  1  0  0  0  0
 45 48  1  0  0  0  0
 45 70  1  0  0  0  0
 46 73  1  0  0  0  0
 47 69  1  0  0  0  0
 48 68  1  0  0  0  0
 49 58  1  0  0  0  0
 50 63  1  0  0  0  0
 51 64  1  0  0  0  0
 52 64  1  0  0  0  0
 53 64  1  0  0  0  0
 54 75  1  0  0  0  0
 55 76  1  0  0  0  0
 56 61  1  0  0  0  0
 57 59  1  0  0  0  0
 59 60  1  0  0  0  0
 60 75  1  0  0  0  0
 61 83  1  0  0  0  0
 62 64  1  0  0  0  0
 62 74  1  0  0  0  0
 63 76  1  0  0  0  0
 65 68  1  0  0  0  0
 66 67  2  0  0  0  0
M  CHG  1  76   1
M  ISO  4  36 100  61 101  75 100  83 101
M  END
> <Batch ID>
0075

> <Smiles>
CCc1nnc(CCC[100N:0](C)[100C:0](=O)N2CCCC(n3nc(-c4ccc(Oc5ccc(F)cc5F)cc4)c(C(N)=O)c3N)C2)cc1C[101CH2:1][101O:1]c1ccc2c(c1)CN(C(=O)C(NC(=O)C(C)NC)C(C)(C)C)C(C(=O)NC1CCCc3ccccc31)C2

> <Shape>
0.291

> <Color>
0.080

> <Negative vol penalty>
0.000

$$$$

  -OEChem-04052318323D

 82 90  0     1  0  0  0  0  0999 V2000
  -30.9419  -25.8261   17.6910 C   0  0  0  0  0  0  0  0  0  0  0  0
  -29.5512  -25.7980   17.6674 C   0  0  0  0  0  0  0  0  0  0  0  0
  -23.9493  -14.2960   19.0993 C   0  0  0  0  0  0  0  0  0  0  0  0
  -24.2430  -15.9814   20.8051 C   0  0  0  0  0  0  0  0  0  0  0  0
  -31.6096  -26.2911   18.8232 C   0  0  0  0  0  0  0  0  0  0  0  0
  -28.8273  -26.2340   18.7766 C   0  0  0  0  0  0  0  0  0  0  0  0
  -23.4349  -29.1370   18.7444 C   0  0  0  0  0  0  0  0  0  0  0  0
  -25.3333  -14.2005   18.9552 C   0  0  0  0  0  0  0  0  0  0  0  0
  -25.6271  -15.8860   20.6611 C   0  0  0  0  0  0  0  0  0  0  0  0
  -22.1277  -28.6896   18.9308 C   0  0  0  0  0  0  0  0  0  0  0  0
  -28.7978  -13.2531   18.3936 C   0  0  0  0  0  0  0  0  0  0  0  0
  -29.3556  -11.9768   18.3202 C   0  0  0  0  0  0  0  0  0  0  0  0
  -22.2488  -29.3225   21.2554 C   0  0  0  0  0  0  0  0  0  0  0  0
  -28.4717  -11.4646   20.5096 C   0  0  0  0  0  0  0  0  0  0  0  0
  -16.7997  -23.7221   20.8913 C   0  0  0  0  0  0  0  0  0  0  0  0
  -18.7705  -22.1250   21.7234 C   0  0  0  0  0  0  0  0  0  0  0  0
  -23.4041  -15.1865   20.0242 C   0  0  0  0  0  0  0  0  0  0  0  0
  -21.1570  -14.5442   21.0469 C   0  0  0  0  0  0  0  0  0  0  0  0
  -30.8933  -26.7421   19.9432 C   0  0  0  0  0  0  0  0  0  0  0  0
  -24.1639  -29.6714   19.8165 C   0  0  0  0  0  0  0  0  0  0  0  0
  -29.4860  -26.7043   19.9254 C   0  0  0  0  0  0  0  0  0  0  0  0
  -23.5643  -29.7784   21.0794 C   0  0  0  0  0  0  0  0  0  0  0  0
  -26.1723  -14.9955   19.7361 C   0  0  0  0  0  0  0  0  0  0  0  0
  -21.5354  -28.7796   20.1870 C   0  0  0  0  0  0  0  0  0  0  0  0
  -28.0769  -13.6353   19.5250 C   0  0  0  0  0  0  0  0  0  0  0  0
  -29.1926  -11.0826   19.3782 C   0  0  0  0  0  0  0  0  0  0  0  0
  -27.9138  -12.7410   20.5830 C   0  0  0  0  0  0  0  0  0  0  0  0
  -21.9744  -15.2860   20.1731 C   0  0  0  0  0  0  0  0  0  0  0  0
  -17.5222  -24.0169   22.0265 C   0  0  0  0  0  0  0  0  0  0  0  0
  -18.0476  -21.8297   20.5887 C   0  0  0  0  0  0  0  0  0  0  0  0
  -19.8872  -15.0094   20.8072 C   0  0  0  0  0  0  0  0  0  0  0  0
  -21.5138  -13.5259   21.9910 C   0  0  0  0  0  0  0  0  0  0  0  0
  -26.8410  -28.8682   21.3305 C   0  0  0  0  0  0  0  0  0  0  0  0
  -26.3584  -31.6859   22.8634 C   0  0  0  0  0  0  0  0  0  0  0  0
  -24.1662  -34.1060   23.8556 C   0  0  0  0  0  0  0  0  0  0  0  0
  -17.7647  -20.1836   18.7028 C   0  0  0  0  0  0  0  0  0  0  0  0
  -31.6595  -27.1916   21.1620 C   0  0  0  0  0  0  0  0  0  0  0  0
  -25.5638  -30.1742   19.5929 C   0  0  0  0  0  0  0  0  0  0  0  0
  -24.2971  -30.3629   22.2583 C   0  0  0  0  0  0  0  0  0  0  0  0
  -30.8143  -27.9868   22.1537 C   0  0  0  0  0  0  0  0  0  0  0  0
  -17.1975  -16.9404   17.3472 C   0  0  0  0  0  0  0  0  0  0  0  0
  -29.4788  -27.2905   22.3956 C   0  0  0  0  0  0  0  0  0  0  0  0
  -18.2799  -16.0794   18.0022 C   0  0  0  0  0  0  0  0  0  0  0  0
  -17.7053  -18.3461   17.0309 C   0  0  0  0  0  0  0  0  0  0  0  0
  -19.3931  -18.1960   18.8192 C   0  0  0  0  0  0  0  0  0  0  0  0
  -28.6652  -27.1920   21.0995 C   0  0  1  0  0  0  0  0  0  0  0  0
  -26.3914  -30.2271   20.8734 C   0  0  1  0  0  0  0  0  0  0  0  0
  -18.9091  -16.7917   19.2156 C   0  0  2  0  0  0  0  0  0  0  0  0
  -16.7335  -24.8868   24.2419 C   0  0  0  0  0  0  0  0  0  0  0  0
  -24.0609  -36.2676   25.1259 C   0  0  0  0  0  0  0  0  0  0  0  0
  -26.5720  -30.1495   25.4909 C   0  0  0  0  0  0  0  0  0  0  0  0
  -25.5357  -32.1153   26.6441 C   0  0  0  0  0  0  0  0  0  0  0  0
  -27.7286  -32.3668   25.4821 C   0  0  0  0  0  0  0  0  0  0  0  0
  -23.2008  -35.5876   21.4826 C   0  0  0  0  0  0  0  0  0  0  0  0
  -18.8108  -26.8092   21.5510 C   0  0  0  0  0  0  0  0  0  0  0  0
  -18.4030  -26.2450   22.9197 C   0  0  0  0  0  0  0  0  0  0  0  0
  -19.9257  -27.8426   21.6657 C   0  0  0  0  0  0  0  0  0  1  0  0
  -17.2127  -25.2650   22.8350 C   0  0  1  0  0  0  0  0  0  0  0  0
  -25.6206  -32.1123   24.1096 C   0  0  1  0  0  0  0  0  0  0  0  0
  -24.2260  -35.6198   23.7599 C   0  0  2  0  0  0  0  0  0  0  0  0
  -26.3508  -31.6731   25.4101 C   0  0  0  0  0  0  0  0  0  0  0  0
  -18.5208  -23.2239   22.4627 N   0  0  0  0  0  0  0  0  0  0  0  0
  -17.0492  -22.6230   20.1522 N   0  0  0  0  0  0  0  0  0  0  0  0
  -21.2819  -16.1561   19.4333 N   0  0  0  0  0  0  0  0  0  0  0  0
  -20.0160  -15.9641   19.8416 N   0  0  0  0  0  0  0  0  0  0  0  0
  -25.6657  -30.8349   21.9906 N   0  0  0  0  0  0  0  0  0  0  0  0
  -18.2837  -18.9605   18.2279 N   0  0  0  0  0  0  0  0  0  0  0  0
  -18.6840  -14.6909   21.3301 N   0  0  0  0  0  0  0  0  0  0  0  0
  -22.8638  -13.1688   22.1104 N   0  0  0  0  0  0  0  0  0  0  0  0
  -18.3721  -20.6547   19.8663 N   0  0  0  0  0  0  0  0  0  0  0  0
  -28.0480  -28.4645   20.7924 N   0  0  0  0  0  0  0  0  0  0  0  0
  -25.4218  -33.5529   23.9934 N   0  0  0  0  0  0  0  0  0  0  0  0
  -23.1459  -36.1254   22.8663 N   0  3  0  0  0  0  0  0  0  0  0  0
  -20.6587  -12.9381   22.6959 O   0  0  0  0  0  0  0  0  0  0  0  0
  -26.1451  -28.2336   22.1145 O   0  0  0  0  0  0  0  0  0  0  0  0
  -27.5043  -32.0985   22.6681 O   0  0  0  0  0  0  0  0  0  0  0  0
  -23.1109  -33.4772   23.8162 O   0  0  0  0  0  0  0  0  0  0  0  0
  -16.8307  -20.7561   18.1355 O   0  0  0  0  0  0  0  0  0  0  0  0
  -27.5229  -14.9024   19.5960 O   0  0  0  0  0  0  0  0  0  0  0  0
  -20.2598  -28.3431   20.3718 O   0  0  0  0  0  0  0  0  0  1  0  0
  -29.7271   -9.8564   19.3070 F   0  0  0  0  0  0  0  0  0  0  0  0
  -27.2213  -13.1019   21.6720 F   0  0  0  0  0  0  0  0  0  0  0  0
  1  2  1  0  0  0  0
  1  5  2  0  0  0  0
  2  6  2  0  0  0  0
  3  8  2  0  0  0  0
  3 17  1  0  0  0  0
  4  9  1  0  0  0  0
  4 17  2  0  0  0  0
  5 19  1  0  0  0  0
  6 21  1  0  0  0  0
  7 10  2  0  0  0  0
  7 20  1  0  0  0  0
  8 23  1  0  0  0  0
  9 23  2  0  0  0  0
 10 24  1  0  0  0  0
 11 12  2  0  0  0  0
 11 25  1  0  0  0  0
 12 26  1  0  0  0  0
 13 22  1  0  0  0  0
 13 24  2  0  0  0  0
 14 26  2  0  0  0  0
 14 27  1  0  0  0  0
 15 29  1  0  0  0  0
 15 63  2  0  0  0  0
 16 30  2  0  0  0  0
 16 62  1  0  0  0  0
 17 28  1  0  0  0  0
 18 28  1  0  0  0  0
 18 31  2  0  0  0  0
 18 32  1  0  0  0  0
 19 21  2  0  0  0  0
 19 37  1  0  0  0  0
 20 22  2  0  0  0  0
 20 38  1  0  0  0  0
 21 46  1  0  0  0  0
 22 39  1  0  0  0  0
 23 79  1  0  0  0  0
 24 80  1  0  0  0  0
 25 27  2  0  0  0  0
 25 79  1  0  0  0  0
 26 81  1  0  0  0  0
 27 82  1  0  0  0  0
 28 64  2  0  0  0  0
 29 58  1  0  0  0  0
 29 62  2  0  0  0  0
 30 63  1  0  0  0  0
 30 70  1  0  0  0  0
 31 65  1  0  0  0  0
 31 68  1  0  0  0  0
 32 69  1  0  0  0  0
 32 74  2  0  0  0  0
 33 47  1  0  0  0  0
 33 71  1  0  0  0  0
 33 75  2  0  0  0  0
 34 59  1  0  0  0  0
 34 66  1  0  0  0  0
 34 76  2  0  0  0  0
 35 60  1  0  0  0  0
 35 72  1  0  0  0  0
 35 77  2  0  0  0  0
 36 67  1  0  0  0  0
 36 70  1  0  0  0  0
 36 78  2  0  0  0  0
 37 40  1  0  0  0  0
 38 47  1  0  0  0  0
 39 66  1  0  0  0  0
 40 42  1  0  0  0  0
 41 43  1  0  0  0  0
 41 44  1  0  0  0  0
 42 46  1  0  0  0  0
 43 48  1  0  0  0  0
 44 67  1  0  0  0  0
 45 48  1  0  0  0  0
 45 67  1  0  0  0  0
 46 71  1  0  0  0  0
 47 66  1  0  0  0  0
 48 65  1  0  0  0  0
 49 58  1  0  0  0  0
 50 60  1  0  0  0  0
 51 61  1  0  0  0  0
 52 61  1  0  0  0  0
 53 61  1  0  0  0  0
 54 73  1  0  0  0  0
 55 56  1  0  0  0  0
 55 57  1  0  0  0  0
 56 58  1  0  0  0  0
 57 80  1  0  0  0  0
 59 61  1  0  0  0  0
 59 72  1  0  0  0  0
 60 73  1  0  0  0  0
 64 65  1  0  0  0  0
M  CHG  1  73   1
M  ISO  4  36 100  57 101  70 100  80 101
M  END
> <Batch ID>
0075

> <Smiles>
CNC(C)C(=O)NC(C(=O)N1Cc2cc([101O:1][101CH2:1]CCC(C)c3cnc([100NH:0][100C:0](=O)N4CCCC(n5nc(-c6ccc(Oc7ccc(F)cc7F)cc6)c(C(N)=O)c5N)C4)cn3)ccc2CC1C(=O)NC1CCCc2ccccc21)C(C)(C)C

> <Shape>
0.288

> <Color>
0.074

> <Negative vol penalty>
0.000

$$$$

  -OEChem-04052318323D

 84 92  0     1  0  0  0  0  0999 V2000
  -17.6708  -25.9710   23.2470 C   0  0  0  0  0  0  0  0  0  0  0  0
  -18.9255  -25.6244   22.7561 C   0  0  0  0  0  0  0  0  0  0  0  0
  -26.6068  -12.5502   21.1479 C   0  0  0  0  0  0  0  0  0  0  0  0
  -25.2435  -14.2759   20.1477 C   0  0  0  0  0  0  0  0  0  0  0  0
  -17.2499  -27.2995   23.2054 C   0  0  0  0  0  0  0  0  0  0  0  0
  -19.7596  -26.6060   22.2222 C   0  0  0  0  0  0  0  0  0  0  0  0
  -25.8699  -26.8318   22.5681 C   0  0  0  0  0  0  0  0  0  0  0  0
  -25.4568  -11.8348   21.4812 C   0  0  0  0  0  0  0  0  0  0  0  0
  -24.0934  -13.5604   20.4810 C   0  0  0  0  0  0  0  0  0  0  0  0
  -26.8742  -26.4672   21.6724 C   0  0  0  0  0  0  0  0  0  0  0  0
  -22.8953   -9.3805   22.2752 C   0  0  0  0  0  0  0  0  0  0  0  0
  -22.8904   -8.0081   22.0261 C   0  0  0  0  0  0  0  0  0  0  0  0
  -27.0145  -28.7513   20.9094 C   0  0  0  0  0  0  0  0  0  0  0  0
  -23.2393   -8.4339   19.6736 C   0  0  0  0  0  0  0  0  0  0  0  0
  -31.3102  -21.5186   19.4347 C   0  0  0  0  0  0  0  0  0  0  0  0
  -26.5002  -13.7709   20.4812 C   0  0  0  0  0  0  0  0  0  0  0  0
  -28.4357  -14.4129   18.9485 C   0  0  0  0  0  0  0  0  0  0  0  0
  -18.0831  -28.2995   22.6795 C   0  0  0  0  0  0  0  0  0  0  0  0
  -25.4220  -28.1590   22.6335 C   0  0  0  0  0  0  0  0  0  0  0  0
  -19.3489  -27.9490   22.1723 C   0  0  0  0  0  0  0  0  0  0  0  0
  -26.0062  -29.1307   21.8085 C   0  0  0  0  0  0  0  0  0  0  0  0
  -24.2001  -12.3398   21.1477 C   0  0  0  0  0  0  0  0  0  0  0  0
  -27.4447  -27.4264   20.8408 C   0  0  0  0  0  0  0  0  0  0  0  0
  -23.0722  -10.2796   21.2235 C   0  0  0  0  0  0  0  0  0  0  0  0
  -23.0624   -7.5348   20.7253 C   0  0  0  0  0  0  0  0  0  0  0  0
  -23.2442   -9.8063   19.9227 C   0  0  0  0  0  0  0  0  0  0  0  0
  -27.6878  -14.5107   20.1371 C   0  0  0  0  0  0  0  0  0  0  0  0
  -29.9356  -21.5171   19.5235 C   0  0  0  0  0  0  0  0  0  0  0  0
  -31.2187  -23.3342   18.0474 C   0  0  0  0  0  0  0  0  0  0  0  0
  -29.8440  -23.3323   18.1355 C   0  0  0  0  0  0  0  0  0  0  0  0
  -29.4579  -15.3158   19.1108 C   0  0  0  0  0  0  0  0  0  0  0  0
  -28.2252  -13.5805   17.8003 C   0  0  0  0  0  0  0  0  0  0  0  0
  -22.6453  -29.6174   22.1173 C   0  0  0  0  0  0  0  0  0  0  0  0
  -24.2426  -32.2089   23.2376 C   0  0  0  0  0  0  0  0  0  0  0  0
  -27.2346  -33.7645   23.7622 C   0  0  0  0  0  0  0  0  0  0  0  0
  -29.6829  -20.1859   22.8215 C   0  0  0  0  0  0  0  0  0  0  0  0
  -17.5656  -29.7145   22.6125 C   0  0  0  0  0  0  0  0  0  0  0  0
  -24.3565  -28.5414   23.6239 C   0  0  0  0  0  0  0  0  0  0  0  0
  -25.5751  -30.5731   21.8542 C   0  0  0  0  0  0  0  0  0  0  0  0
  -18.6593  -30.7523   22.3735 C   0  0  0  0  0  0  0  0  0  0  0  0
  -32.1147  -17.4159   22.4821 C   0  0  0  0  0  0  0  0  0  0  0  0
  -19.5860  -30.3020   21.2488 C   0  0  0  0  0  0  0  0  0  0  0  0
  -31.2861  -16.3266   21.8034 C   0  0  0  0  0  0  0  0  0  0  0  0
  -31.2476  -18.3451   23.3262 C   0  0  0  0  0  0  0  0  0  0  0  0
  -29.2851  -17.8650   21.9006 C   0  0  0  0  0  0  0  0  0  0  0  0
  -20.2923  -28.9891   21.6081 C   0  0  1  0  0  0  0  0  0  0  0  0
  -23.6188  -29.8214   23.2436 C   0  0  1  0  0  0  0  0  0  0  0  0
  -30.1225  -16.9397   21.0051 C   0  0  2  0  0  0  0  0  0  0  0  0
  -31.9436  -24.3447   17.2256 C   0  0  0  0  0  0  0  0  0  0  0  0
  -27.8406  -20.1418   19.8082 C   0  0  0  0  0  0  0  0  0  0  0  0
  -28.2184  -35.8907   24.6615 C   0  0  0  0  0  0  0  0  0  0  0  0
  -23.4002  -33.6711   20.6955 C   0  0  0  0  0  0  0  0  0  0  0  0
  -25.1512  -35.3914   21.1880 C   0  0  0  0  0  0  0  0  0  0  0  0
  -23.2641  -35.0432   22.7819 C   0  0  0  0  0  0  0  0  0  0  0  0
  -28.6689  -22.2678   21.9748 C   0  0  0  0  0  0  0  0  0  0  0  0
  -28.7377  -32.3176   25.8613 C   0  0  0  0  0  0  0  0  0  0  0  0
  -29.0081  -24.3524   17.4047 C   0  0  0  0  0  0  0  0  0  0  0  0
  -29.0089  -25.7344   18.0619 C   0  0  0  0  0  0  0  0  0  0  0  0
  -28.3903  -25.7409   19.4550 C   0  0  0  0  0  0  0  0  0  1  0  0
  -29.2333  -20.4984   20.3511 C   0  0  2  0  0  0  0  0  0  0  0  0
  -25.0847  -33.2968   22.6160 C   0  0  1  0  0  0  0  0  0  0  0  0
  -27.8066  -34.4624   24.9829 C   0  0  2  0  0  0  0  0  0  0  0  0
  -24.2321  -34.3232   21.8179 C   0  0  0  0  0  0  0  0  0  0  0  0
  -31.9765  -22.4272   18.6951 N   0  0  0  0  0  0  0  0  0  0  0  0
  -28.1920  -15.4050   20.9915 N   0  0  0  0  0  0  0  0  0  0  0  0
  -29.1778  -22.4239   18.8755 N   0  0  0  0  0  0  0  0  0  0  0  0
  -29.2678  -15.8773   20.3391 N   0  0  0  0  0  0  0  0  0  0  0  0
  -24.5255  -30.8961   22.8348 N   0  0  0  0  0  0  0  0  0  0  0  0
  -30.1248  -18.8796   22.5549 N   0  0  0  0  0  0  0  0  0  0  0  0
  -30.4920  -15.6761   18.3213 N   0  0  0  0  0  0  0  0  0  0  0  0
  -27.1265  -12.7103   17.7983 N   0  0  0  0  0  0  0  0  0  0  0  0
  -21.3819  -29.2367   22.5278 N   0  0  0  0  0  0  0  0  0  0  0  0
  -25.8621  -33.8825   23.7028 N   0  0  0  0  0  0  0  0  0  0  0  0
  -29.1307  -20.9053   21.7509 N   0  0  0  0  0  0  0  0  0  0  0  0
  -29.0034  -33.7300   25.4850 N   0  3  0  0  0  0  0  0  0  0  0  0
  -28.9981  -13.5957   16.8124 O   0  0  0  0  0  0  0  0  0  0  0  0
  -23.0127  -29.7940   20.9617 O   0  0  0  0  0  0  0  0  0  0  0  0
  -23.3709  -32.5122   24.0560 O   0  0  0  0  0  0  0  0  0  0  0  0
  -27.9356  -33.1768   22.9413 O   0  0  0  0  0  0  0  0  0  0  0  0
  -29.7854  -20.6844   23.9498 O   0  0  0  0  0  0  0  0  0  0  0  0
  -23.0777  -11.6418   21.4726 O   0  0  0  0  0  0  0  0  0  0  0  0
  -28.4246  -27.0731   19.9652 O   0  0  0  0  0  0  0  0  0  1  0  0
  -23.0592   -6.2168   20.4864 F   0  0  0  0  0  0  0  0  0  0  0  0
  -23.4158  -10.6652   18.9085 F   0  0  0  0  0  0  0  0  0  0  0  0
  1  2  1  0  0  0  0
  1  5  2  0  0  0  0
  2  6  2  0  0  0  0
  3  8  2  0  0  0  0
  3 16  1  0  0  0  0
  4  9  1  0  0  0  0
  4 16  2  0  0  0  0
  5 18  1  0  0  0  0
  6 20  1  0  0  0  0
  7 10  2  0  0  0  0
  7 19  1  0  0  0  0
  8 22  1  0  0  0  0
  9 22  2  0  0  0  0
 10 23  1  0  0  0  0
 11 12  2  0  0  0  0
 11 24  1  0  0  0  0
 12 25  1  0  0  0  0
 13 21  1  0  0  0  0
 13 23  2  0  0  0  0
 14 25  2  0  0  0  0
 14 26  1  0  0  0  0
 15 28  1  0  0  0  0
 15 64  2  0  0  0  0
 16 27  1  0  0  0  0
 17 27  1  0  0  0  0
 17 31  2  0  0  0  0
 17 32  1  0  0  0  0
 18 20  2  0  0  0  0
 18 37  1  0  0  0  0
 19 21  2  0  0  0  0
 19 38  1  0  0  0  0
 20 46  1  0  0  0  0
 21 39  1  0  0  0  0
 22 81  1  0  0  0  0
 23 82  1  0  0  0  0
 24 26  2  0  0  0  0
 24 81  1  0  0  0  0
 25 83  1  0  0  0  0
 26 84  1  0  0  0  0
 27 65  2  0  0  0  0
 28 60  1  0  0  0  0
 28 66  2  0  0  0  0
 29 30  2  0  0  0  0
 29 49  1  0  0  0  0
 29 64  1  0  0  0  0
 30 57  1  0  0  0  0
 30 66  1  0  0  0  0
 31 67  1  0  0  0  0
 31 70  1  0  0  0  0
 32 71  1  0  0  0  0
 32 76  2  0  0  0  0
 33 47  1  0  0  0  0
 33 72  1  0  0  0  0
 33 77  2  0  0  0  0
 34 61  1  0  0  0  0
 34 68  1  0  0  0  0
 34 78  2  0  0  0  0
 35 62  1  0  0  0  0
 35 73  1  0  0  0  0
 35 79  2  0  0  0  0
 36 69  1  0  0  0  0
 36 74  1  0  0  0  0
 36 80  2  0  0  0  0
 37 40  1  0  0  0  0
 38 47  1  0  0  0  0
 39 68  1  0  0  0  0
 40 42  1  0  0  0  0
 41 43  1  0  0  0  0
 41 44  1  0  0  0  0
 42 46  1  0  0  0  0
 43 48  1  0  0  0  0
 44 69  1  0  0  0  0
 45 48  1  0  0  0  0
 45 69  1  0  0  0  0
 46 72  1  0  0  0  0
 47 68  1  0  0  0  0
 48 67  1  0  0  0  0
 50 60  1  0  0  0  0
 51 62  1  0  0  0  0
 52 63  1  0  0  0  0
 53 63  1  0  0  0  0
 54 63  1  0  0  0  0
 55 74  1  0  0  0  0
 56 75  1  0  0  0  0
 57 58  1  0  0  0  0
 58 59  1  0  0  0  0
 59 82  1  0  0  0  0
 60 74  1  0  0  0  0
 61 63  1  0  0  0  0
 61 73  1  0  0  0  0
 62 75  1  0  0  0  0
 65 67  1  0  0  0  0
M  CHG  1  75   1
M  ISO  4  36 100  59 101  74 100  82 101
M  END
> <Batch ID>
0075

> <Smiles>
CNC(C)C(=O)NC(C(=O)N1Cc2cc([101O:1][101CH2:1]CCc3nc(C(C)[100N:0](C)[100C:0](=O)N4CCCC(n5nc(-c6ccc(Oc7ccc(F)cc7F)cc6)c(C(N)=O)c5N)C4)cnc3C)ccc2CC1C(=O)NC1CCCc2ccccc21)C(C)(C)C

> <Shape>
0.354

> <Color>
0.127

> <Negative vol penalty>
0.000

$$$$

  -OEChem-04052318323D

 86 94  0     1  0  0  0  0  0999 V2000
  -19.4606  -24.0432   22.2587 C   0  0  0  0  0  0  0  0  0  0  0  0
  -20.6623  -24.3785   21.6432 C   0  0  0  0  0  0  0  0  0  0  0  0
  -27.5228  -18.3417   20.8978 C   0  0  0  0  0  0  0  0  0  0  0  0
  -28.2762  -20.5237   21.6107 C   0  0  0  0  0  0  0  0  0  0  0  0
  -18.5957  -25.0480   22.6903 C   0  0  0  0  0  0  0  0  0  0  0  0
  -20.9992  -25.7189   21.4578 C   0  0  0  0  0  0  0  0  0  0  0  0
  -25.8125  -26.7001   22.6884 C   0  0  0  0  0  0  0  0  0  0  0  0
  -28.6455  -17.7612   21.4878 C   0  0  0  0  0  0  0  0  0  0  0  0
  -29.3989  -19.9433   22.2008 C   0  0  0  0  0  0  0  0  0  0  0  0
  -26.7927  -26.3338   21.7670 C   0  0  0  0  0  0  0  0  0  0  0  0
  -31.4981  -15.7438   22.4960 C   0  0  0  0  0  0  0  0  0  0  0  0
  -32.1891  -14.7765   21.7663 C   0  0  0  0  0  0  0  0  0  0  0  0
  -26.9121  -28.6163   20.9957 C   0  0  0  0  0  0  0  0  0  0  0  0
  -32.6138  -16.3948   20.0234 C   0  0  0  0  0  0  0  0  0  0  0  0
  -30.6526  -25.8557   14.6005 C   0  0  0  0  0  0  0  0  0  0  0  0
  -27.3382  -19.7229   20.9592 C   0  0  0  0  0  0  0  0  0  0  0  0
  -24.9280  -20.5588   20.9507 C   0  0  0  0  0  0  0  0  0  0  0  0
  -18.9266  -26.4014   22.5189 C   0  0  0  0  0  0  0  0  0  0  0  0
  -25.3663  -28.0274   22.7630 C   0  0  0  0  0  0  0  0  0  0  0  0
  -20.1373  -26.7426   21.8863 C   0  0  0  0  0  0  0  0  0  0  0  0
  -25.9281  -28.9974   21.9206 C   0  0  0  0  0  0  0  0  0  0  0  0
  -29.5836  -18.5620   22.1393 C   0  0  0  0  0  0  0  0  0  0  0  0
  -27.3406  -27.2914   20.9185 C   0  0  0  0  0  0  0  0  0  0  0  0
  -31.3648  -17.0366   21.9894 C   0  0  0  0  0  0  0  0  0  0  0  0
  -32.7470  -15.1020   20.5300 C   0  0  0  0  0  0  0  0  0  0  0  0
  -31.9227  -17.3621   20.7531 C   0  0  0  0  0  0  0  0  0  0  0  0
  -26.1789  -20.3232   20.3494 C   0  0  0  0  0  0  0  0  0  0  0  0
  -30.2331  -24.8155   13.8203 C   0  0  0  0  0  0  0  0  0  0  0  0
  -24.1758  -21.1428   19.9609 C   0  0  0  0  0  0  0  0  0  0  0  0
  -28.8562  -24.9733   15.5464 C   0  0  0  0  0  0  0  0  0  0  0  0
  -24.4856  -20.2752   22.2846 C   0  0  0  0  0  0  0  0  0  0  0  0
  -22.5765  -29.4843   22.3180 C   0  0  0  0  0  0  0  0  0  0  0  0
  -24.2026  -32.0784   23.3899 C   0  0  0  0  0  0  0  0  0  0  0  0
  -25.7180  -24.2550   15.0570 C   0  0  0  0  0  0  0  0  0  0  0  0
  -27.2072  -33.6355   23.8313 C   0  0  0  0  0  0  0  0  0  0  0  0
  -17.9380  -27.4518   22.9592 C   0  0  0  0  0  0  0  0  0  0  0  0
  -24.3275  -28.4116   23.7806 C   0  0  0  0  0  0  0  0  0  0  0  0
  -25.4981  -30.4399   21.9749 C   0  0  0  0  0  0  0  0  0  0  0  0
  -18.5410  -28.8504   23.0627 C   0  0  0  0  0  0  0  0  0  0  0  0
  -23.6968  -21.3001   15.2107 C   0  0  0  0  0  0  0  0  0  0  0  0
  -19.3769  -29.1642   21.8259 C   0  0  0  0  0  0  0  0  0  0  0  0
  -24.0121  -20.7208   16.5892 C   0  0  0  0  0  0  0  0  0  0  0  0
  -24.9231  -21.9608   14.5889 C   0  0  0  0  0  0  0  0  0  0  0  0
  -25.8651  -22.4340   16.8273 C   0  0  0  0  0  0  0  0  0  0  0  0
  -20.5495  -28.1854   21.6897 C   0  0  1  0  0  0  0  0  0  0  0  0
  -23.5796  -29.6908   23.4174 C   0  0  1  0  0  0  0  0  0  0  0  0
  -24.6452  -21.7842   17.5040 C   0  0  2  0  0  0  0  0  0  0  0  0
  -30.7647  -24.2677   12.5696 C   0  0  0  0  0  0  0  0  0  0  0  0
  -28.2142  -35.7637   24.6996 C   0  0  0  0  0  0  0  0  0  0  0  0
  -26.4512  -26.5760   15.3470 C   0  0  0  0  0  0  0  0  0  0  0  0
  -25.3707  -25.3611   17.2457 C   0  0  0  0  0  0  0  0  0  0  0  0
  -23.2924  -33.5351   20.8681 C   0  0  0  0  0  0  0  0  0  0  0  0
  -25.0556  -35.2568   21.3102 C   0  0  0  0  0  0  0  0  0  0  0  0
  -23.2117  -34.9116   22.9546 C   0  0  0  0  0  0  0  0  0  0  0  0
  -31.1408  -26.4617   20.4529 C   0  0  0  0  0  0  0  0  0  0  0  0
  -31.6132  -28.3992   18.9491 C   0  0  0  0  0  0  0  0  0  0  0  0
  -28.7660  -32.1932   25.8925 C   0  0  0  0  0  0  0  0  0  0  0  0
  -27.7320  -24.7037   16.4772 C   0  0  0  0  0  0  0  0  0  0  0  0
  -30.4493  -26.3175   18.0540 C   0  0  0  0  0  0  0  0  0  0  0  0
  -29.8629  -26.9407   16.7803 C   0  0  0  0  0  0  0  0  0  0  0  0
  -29.2574  -27.9308   19.6644 C   0  0  0  0  0  0  0  0  0  1  0  0
  -25.0276  -33.1651   22.7438 C   0  0  1  0  0  0  0  0  0  0  0  0
  -27.8115  -34.3360   25.0348 C   0  0  2  0  0  0  0  0  0  0  0  0
  -26.3208  -25.2156   16.0510 C   0  0  0  0  0  0  0  0  0  0  0  0
  -24.1538  -34.1897   21.9666 C   0  0  0  0  0  0  0  0  0  0  0  0
  -30.6003  -27.2837   19.2627 C   0  0  0  0  0  0  0  0  0  0  0  0
  -26.2227  -20.7246   19.0762 N   0  0  0  0  0  0  0  0  0  0  0  0
  -29.7822  -25.9309   15.6611 N   0  0  0  0  0  0  0  0  0  0  0  0
  -24.9900  -21.2182   18.8693 N   0  0  0  0  0  0  0  0  0  0  0  0
  -29.1203  -24.2877   14.4295 N   0  3  0  0  0  0  0  0  0  0  0  0
  -24.4749  -30.7648   22.9824 N   0  0  0  0  0  0  0  0  0  0  0  0
  -25.5083  -22.9482   15.4977 N   0  0  0  0  0  0  0  0  0  0  0  0
  -22.9039  -21.5940   19.9265 N   0  0  0  0  0  0  0  0  0  0  0  0
  -25.3864  -19.6730   23.1735 N   0  0  0  0  0  0  0  0  0  0  0  0
  -21.6116  -28.5384   22.6071 N   0  0  0  0  0  0  0  0  0  0  0  0
  -25.8336  -33.7532   23.8082 N   0  0  0  0  0  0  0  0  0  0  0  0
  -29.0214  -33.6048   25.5063 N   0  3  0  0  0  0  0  0  0  0  0  0
  -23.3206  -20.5329   22.6719 O   0  0  0  0  0  0  0  0  0  0  0  0
  -22.6700  -30.1362   21.2845 O   0  0  0  0  0  0  0  0  0  0  0  0
  -23.3529  -32.3832   24.2306 O   0  0  0  0  0  0  0  0  0  0  0  0
  -25.4396  -24.6568   13.9242 O   0  0  0  0  0  0  0  0  0  0  0  0
  -27.8861  -33.0462   22.9932 O   0  0  0  0  0  0  0  0  0  0  0  0
  -30.6791  -17.9959   22.7154 O   0  0  0  0  0  0  0  0  0  0  0  0
  -28.2969  -26.9364   20.0178 O   0  0  0  0  0  0  0  0  0  1  0  0
  -33.4119  -14.1735   19.8301 F   0  0  0  0  0  0  0  0  0  0  0  0
  -31.7990  -18.6027   20.2618 F   0  0  0  0  0  0  0  0  0  0  0  0
  1  2  1  0  0  0  0
  1  5  2  0  0  0  0
  2  6  2  0  0  0  0
  3  8  2  0  0  0  0
  3 16  1  0  0  0  0
  4  9  1  0  0  0  0
  4 16  2  0  0  0  0
  5 18  1  0  0  0  0
  6 20  1  0  0  0  0
  7 10  2  0  0  0  0
  7 19  1  0  0  0  0
  8 22  1  0  0  0  0
  9 22  2  0  0  0  0
 10 23  1  0  0  0  0
 11 12  2  0  0  0  0
 11 24  1  0  0  0  0
 12 25  1  0  0  0  0
 13 21  1  0  0  0  0
 13 23  2  0  0  0  0
 14 25  2  0  0  0  0
 14 26  1  0  0  0  0
 15 28  2  0  0  0  0
 15 68  1  0  0  0  0
 16 27  1  0  0  0  0
 17 27  1  0  0  0  0
 17 29  2  0  0  0  0
 17 31  1  0  0  0  0
 18 20  2  0  0  0  0
 18 36  1  0  0  0  0
 19 21  2  0  0  0  0
 19 37  1  0  0  0  0
 20 45  1  0  0  0  0
 21 38  1  0  0  0  0
 22 83  1  0  0  0  0
 23 84  1  0  0  0  0
 24 26  2  0  0  0  0
 24 83  1  0  0  0  0
 25 85  1  0  0  0  0
 26 86  1  0  0  0  0
 27 67  2  0  0  0  0
 28 48  1  0  0  0  0
 28 70  1  0  0  0  0
 29 69  1  0  0  0  0
 29 73  1  0  0  0  0
 30 58  1  0  0  0  0
 30 68  1  0  0  0  0
 30 70  2  0  0  0  0
 31 74  1  0  0  0  0
 31 78  2  0  0  0  0
 32 46  1  0  0  0  0
 32 75  1  0  0  0  0
 32 79  2  0  0  0  0
 33 62  1  0  0  0  0
 33 71  1  0  0  0  0
 33 80  2  0  0  0  0
 34 64  1  0  0  0  0
 34 72  1  0  0  0  0
 34 81  2  0  0  0  0
 35 63  1  0  0  0  0
 35 76  1  0  0  0  0
 35 82  2  0  0  0  0
 36 39  1  0  0  0  0
 37 46  1  0  0  0  0
 38 71  1  0  0  0  0
 39 41  1  0  0  0  0
 40 42  1  0  0  0  0
 40 43  1  0  0  0  0
 41 45  1  0  0  0  0
 42 47  1  0  0  0  0
 43 72  1  0  0  0  0
 44 47  1  0  0  0  0
 44 72  1  0  0  0  0
 45 75  1  0  0  0  0
 46 71  1  0  0  0  0
 47 69  1  0  0  0  0
 49 63  1  0  0  0  0
 50 64  1  0  0  0  0
 51 64  1  0  0  0  0
 52 65  1  0  0  0  0
 53 65  1  0  0  0  0
 54 65  1  0  0  0  0
 55 66  1  0  0  0  0
 56 66  1  0  0  0  0
 57 77  1  0  0  0  0
 58 64  1  0  0  0  0
 59 60  1  0  0  0  0
 59 66  1  0  0  0  0
 60 68  1  0  0  0  0
 61 66  1  0  0  0  0
 61 84  1  0  0  0  0
 62 65  1  0  0  0  0
 62 76  1  0  0  0  0
 63 77  1  0  0  0  0
 67 69  1  0  0  0  0
M  CHG  2  70   1  77   1
M  ISO  4  34 100  61 101  64 100  84 101
M  END
> <Batch ID>
0075

> <Smiles>
CNC(C)C(=O)NC(C(=O)N1Cc2cc([101O:1][101CH2:1]C(C)(C)CCn3cc(C)nc3C[100C:0](C)(C)[100C:0](=O)N3CCCC(n4nc(-c5ccc(Oc6ccc(F)cc6F)cc5)c(C(N)=O)c4N)C3)ccc2CC1C(=O)NC1CCCc2ccccc21)C(C)(C)C

> <Shape>
0.210

> <Color>
0.074

> <Negative vol penalty>
0.000

$$$$

  -OEChem-04052318323D

 91 99  0     1  0  0  0  0  0999 V2000
  -28.7899  -35.9324   21.1090 C   0  0  0  0  0  0  0  0  0  0  0  0
  -28.9849  -34.5566   21.0410 C   0  0  0  0  0  0  0  0  0  0  0  0
  -29.9780  -15.8303   23.6623 C   0  0  0  0  0  0  0  0  0  0  0  0
  -30.9842  -17.7305   22.5606 C   0  0  0  0  0  0  0  0  0  0  0  0
  -27.8227  -36.4568   21.9654 C   0  0  0  0  0  0  0  0  0  0  0  0
  -28.2135  -33.7045   21.8304 C   0  0  0  0  0  0  0  0  0  0  0  0
  -26.4967  -29.6955   19.2563 C   0  0  0  0  0  0  0  0  0  0  0  0
  -30.2975  -15.0266   22.5680 C   0  0  0  0  0  0  0  0  0  0  0  0
  -31.3038  -16.9268   21.4662 C   0  0  0  0  0  0  0  0  0  0  0  0
  -27.3955  -28.6552   19.0244 C   0  0  0  0  0  0  0  0  0  0  0  0
  -29.0822  -14.4411   19.4689 C   0  0  0  0  0  0  0  0  0  0  0  0
  -28.0976  -13.5759   18.9917 C   0  0  0  0  0  0  0  0  0  0  0  0
  -26.4334  -27.4225   20.8612 C   0  0  0  0  0  0  0  0  0  0  0  0
  -29.5415  -11.6897   19.4327 C   0  0  0  0  0  0  0  0  0  0  0  0
  -30.3213  -17.1823   23.6586 C   0  0  0  0  0  0  0  0  0  0  0  0
  -30.7831  -18.2540   25.9270 C   0  0  0  0  0  0  0  0  0  0  0  0
  -27.0324  -35.6101   22.7584 C   0  0  0  0  0  0  0  0  0  0  0  0
  -25.5652  -29.6116   20.3011 C   0  0  0  0  0  0  0  0  0  0  0  0
  -27.2357  -34.2181   22.6992 C   0  0  0  0  0  0  0  0  0  0  0  0
  -25.5222  -28.4619   21.1027 C   0  0  0  0  0  0  0  0  0  0  0  0
  -30.9604  -15.5748   21.4700 C   0  0  0  0  0  0  0  0  0  0  0  0
  -27.3659  -27.5197   19.8287 C   0  0  0  0  0  0  0  0  0  0  0  0
  -30.2964  -13.9306   19.9279 C   0  0  0  0  0  0  0  0  0  0  0  0
  -28.3273  -12.2002   18.9736 C   0  0  0  0  0  0  0  0  0  0  0  0
  -30.5261  -12.5549   19.9099 C   0  0  0  0  0  0  0  0  0  0  0  0
  -29.9909  -18.0132   24.7885 C   0  0  0  0  0  0  0  0  0  0  0  0
  -26.7641  -21.6475   21.4977 C   0  0  0  0  0  0  0  0  0  0  0  0
  -27.7451  -22.5553   21.1752 C   0  0  0  0  0  0  0  0  0  0  0  0
  -30.0270  -19.1026   26.6982 C   0  0  0  0  0  0  0  0  0  0  0  0
  -26.8984  -22.9579   23.1696 C   0  0  0  0  0  0  0  0  0  0  0  0
  -32.0860  -17.7554   26.2579 C   0  0  0  0  0  0  0  0  0  0  0  0
  -25.0033  -31.2840   22.9451 C   0  0  0  0  0  0  0  0  0  0  0  0
  -22.4200  -29.3343   23.1627 C   0  0  0  0  0  0  0  0  0  0  0  0
  -25.6372  -22.9596   25.2963 C   0  0  0  0  0  0  0  0  0  0  0  0
  -20.9574  -26.3609   22.3461 C   0  0  0  0  0  0  0  0  0  0  0  0
  -26.0318  -36.2261   23.7040 C   0  0  0  0  0  0  0  0  0  0  0  0
  -24.5847  -30.7308   20.5213 C   0  0  0  0  0  0  0  0  0  0  0  0
  -24.5281  -28.3140   22.2244 C   0  0  0  0  0  0  0  0  0  0  0  0
  -24.9991  -35.2325   24.2300 C   0  0  0  0  0  0  0  0  0  0  0  0
  -25.4942  -20.2666   27.6558 C   0  0  0  0  0  0  0  0  0  0  0  0
  -25.6802  -33.9465   24.6873 C   0  0  0  0  0  0  0  0  0  0  0  0
  -26.6864  -19.3905   27.2733 C   0  0  0  0  0  0  0  0  0  0  0  0
  -24.8536  -20.9051   26.4274 C   0  0  0  0  0  0  0  0  0  0  0  0
  -26.9994  -20.8133   25.1991 C   0  0  0  0  0  0  0  0  0  0  0  0
  -26.4016  -33.2597   23.5214 C   0  0  1  0  0  0  0  0  0  0  0  0
  -24.0192  -30.7597   21.9379 C   0  0  1  0  0  0  0  0  0  0  0  0
  -27.6946  -20.1736   26.4138 C   0  0  2  0  0  0  0  0  0  0  0  0
  -24.4130  -18.7876   20.4030 C   0  0  0  0  0  0  0  0  0  0  0  0
  -18.8562  -25.0358   22.7018 C   0  0  0  0  0  0  0  0  0  0  0  0
  -29.9636  -21.9287   20.0023 C   0  0  0  0  0  0  0  0  0  0  0  0
  -27.8599  -22.1399   18.7082 C   0  0  0  0  0  0  0  0  0  0  0  0
  -26.2711  -25.1139   24.2880 C   0  0  0  0  0  0  0  0  0  0  0  0
  -27.9385  -23.6505   25.4335 C   0  0  0  0  0  0  0  0  0  0  0  0
  -29.9297  -25.3289   24.4307 C   0  0  0  0  0  0  0  0  0  0  0  0
  -29.9801  -22.8872   23.9139 C   0  0  0  0  0  0  0  0  0  0  0  0
  -31.2672  -24.5002   22.4928 C   0  0  0  0  0  0  0  0  0  0  0  0
  -23.3406  -28.6370   25.9869 C   0  0  0  0  0  0  0  0  0  0  0  0
  -21.8049  -26.6606   25.9246 C   0  0  0  0  0  0  0  0  0  0  0  0
  -20.8735  -28.9678   25.7458 C   0  0  0  0  0  0  0  0  0  0  0  0
  -20.3487  -26.3298   19.4500 C   0  0  0  0  0  0  0  0  0  0  0  0
  -26.2634  -20.5186   20.6975 C   0  0  0  0  0  0  0  0  0  0  0  0
  -24.9494  -19.9284   21.2530 C   0  0  0  0  0  0  0  0  0  0  0  0
  -28.9451  -24.2097   19.6394 C   0  0  0  0  0  0  0  0  0  0  0  0
  -28.7116  -24.5160   22.4047 C   0  0  0  0  0  0  0  0  0  0  0  0
  -27.8085  -25.1857   19.9400 C   0  0  0  0  0  0  0  0  0  1  0  0
  -22.1453  -27.9897   23.7918 C   0  0  1  0  0  0  0  0  0  0  0  0
  -19.5770  -26.0319   21.8068 C   0  0  2  0  0  0  0  0  0  0  0  0
  -28.6302  -22.7104   19.9252 C   0  0  0  0  0  0  0  0  0  0  0  0
  -26.7070  -23.6298   24.4716 C   0  0  0  0  0  0  0  0  0  0  0  0
  -29.9685  -24.2926   23.2895 C   0  0  0  0  0  0  0  0  0  0  0  0
  -22.0612  -28.0671   25.3424 C   0  0  0  0  0  0  0  0  0  0  0  0
  -28.8211  -18.6566   24.8287 N   0  0  0  0  0  0  0  0  0  0  0  0
  -26.2408  -21.9037   22.7403 N   0  0  0  0  0  0  0  0  0  0  0  0
  -27.8195  -23.3886   22.2556 N   0  0  0  0  0  0  0  0  0  0  0  0
  -28.8727  -19.3100   26.0019 N   0  0  0  0  0  0  0  0  0  0  0  0
  -23.5945  -29.4381   22.4040 N   0  0  0  0  0  0  0  0  0  0  0  0
  -25.8479  -21.6205   25.6256 N   0  0  0  0  0  0  0  0  0  0  0  0
  -30.2435  -19.6840   27.8971 N   0  0  0  0  0  0  0  0  0  0  0  0
  -32.7212  -16.8937   25.3533 N   0  0  0  0  0  0  0  0  0  0  0  0
  -25.4525  -32.5635   22.6794 N   0  0  0  0  0  0  0  0  0  0  0  0
  -20.9374  -27.4791   23.1527 N   0  0  0  0  0  0  0  0  0  0  0  0
  -19.6809  -25.4464   20.4402 N   0  3  0  0  0  0  0  0  0  0  0  0
  -32.6628  -18.0518   27.3317 O   0  0  0  0  0  0  0  0  0  0  0  0
  -25.3296  -30.5805   23.8939 O   0  0  0  0  0  0  0  0  0  0  0  0
  -21.6182  -30.2563   23.3321 O   0  0  0  0  0  0  0  0  0  0  0  0
  -24.6460  -23.6093   25.6393 O   0  0  0  0  0  0  0  0  0  0  0  0
  -21.9530  -25.6907   22.0816 O   0  0  0  0  0  0  0  0  0  0  0  0
  -31.2726  -14.7908   20.4020 O   0  0  0  0  0  0  0  0  0  0  0  0
  -28.2425  -26.5032   19.6049 O   0  0  0  0  0  0  0  0  0  1  0  0
  -27.3811  -11.3694   18.5168 F   0  0  0  0  0  0  0  0  0  0  0  0
  -31.6901  -12.0585   20.3507 F   0  0  0  0  0  0  0  0  0  0  0  0
  1  2  1  0  0  0  0
  1  5  2  0  0  0  0
  2  6  2  0  0  0  0
  3  8  2  0  0  0  0
  3 15  1  0  0  0  0
  4  9  1  0  0  0  0
  4 15  2  0  0  0  0
  5 17  1  0  0  0  0
  6 19  1  0  0  0  0
  7 10  2  0  0  0  0
  7 18  1  0  0  0  0
  8 21  1  0  0  0  0
  9 21  2  0  0  0  0
 10 22  1  0  0  0  0
 11 12  2  0  0  0  0
 11 23  1  0  0  0  0
 12 24  1  0  0  0  0
 13 20  1  0  0  0  0
 13 22  2  0  0  0  0
 14 24  2  0  0  0  0
 14 25  1  0  0  0  0
 15 26  1  0  0  0  0
 16 26  1  0  0  0  0
 16 29  2  0  0  0  0
 16 31  1  0  0  0  0
 17 19  2  0  0  0  0
 17 36  1  0  0  0  0
 18 20  2  0  0  0  0
 18 37  1  0  0  0  0
 19 45  1  0  0  0  0
 20 38  1  0  0  0  0
 21 88  1  0  0  0  0
 22 89  1  0  0  0  0
 23 25  2  0  0  0  0
 23 88  1  0  0  0  0
 24 90  1  0  0  0  0
 25 91  1  0  0  0  0
 26 72  2  0  0  0  0
 27 28  2  0  0  0  0
 27 61  1  0  0  0  0
 27 73  1  0  0  0  0
 28 68  1  0  0  0  0
 28 74  1  0  0  0  0
 29 75  1  0  0  0  0
 29 78  1  0  0  0  0
 30 69  1  0  0  0  0
 30 73  2  0  0  0  0
 30 74  1  0  0  0  0
 31 79  1  0  0  0  0
 31 83  2  0  0  0  0
 32 46  1  0  0  0  0
 32 80  1  0  0  0  0
 32 84  2  0  0  0  0
 33 66  1  0  0  0  0
 33 76  1  0  0  0  0
 33 85  2  0  0  0  0
 34 69  1  0  0  0  0
 34 77  1  0  0  0  0
 34 86  2  0  0  0  0
 35 67  1  0  0  0  0
 35 81  1  0  0  0  0
 35 87  2  0  0  0  0
 36 39  1  0  0  0  0
 37 46  1  0  0  0  0
 38 76  1  0  0  0  0
 39 41  1  0  0  0  0
 40 42  1  0  0  0  0
 40 43  1  0  0  0  0
 41 45  1  0  0  0  0
 42 47  1  0  0  0  0
 43 77  1  0  0  0  0
 44 47  1  0  0  0  0
 44 77  1  0  0  0  0
 45 80  1  0  0  0  0
 46 76  1  0  0  0  0
 47 75  1  0  0  0  0
 48 62  1  0  0  0  0
 49 67  1  0  0  0  0
 50 68  1  0  0  0  0
 51 68  1  0  0  0  0
 52 69  1  0  0  0  0
 53 69  1  0  0  0  0
 54 70  1  0  0  0  0
 55 70  1  0  0  0  0
 56 70  1  0  0  0  0
 57 71  1  0  0  0  0
 58 71  1  0  0  0  0
 59 71  1  0  0  0  0
 60 82  1  0  0  0  0
 61 62  1  0  0  0  0
 63 65  1  0  0  0  0
 63 68  1  0  0  0  0
 64 70  1  0  0  0  0
 64 74  1  0  0  0  0
 65 89  1  0  0  0  0
 66 71  1  0  0  0  0
 66 81  1  0  0  0  0
 67 82  1  0  0  0  0
 72 75  1  0  0  0  0
M  CHG  1  82   1
M  ISO  4  34 100  65 101  69 100  89 101
M  END
> <Batch ID>
0075

> <Smiles>
CCCc1nc([100C:0](C)(C)[100C:0](=O)N2CCCC(n3nc(-c4ccc(Oc5ccc(F)cc5F)cc4)c(C(N)=O)c3N)C2)n(CC(C)(C)C)c1C(C)(C)C[101CH2:1][101O:1]c1ccc2c(c1)CN(C(=O)C(NC(=O)C(C)NC)C(C)(C)C)C(C(=O)NC1CCCc3ccccc31)C2

> <Shape>
0.238

> <Color>
0.067

> <Negative vol penalty>
0.000

$$$$
