
  -OEChem-04052318343D

 85 93  0     1  0  0  0  0  0999 V2000
  -30.3589  -25.4254   17.4828 C   0  0  0  0  0  0  0  0  0  0  0  0
  -28.9695  -25.4530   17.5459 C   0  0  0  0  0  0  0  0  0  0  0  0
  -26.3468  -19.7294   19.8635 C   0  0  0  0  0  0  0  0  0  0  0  0
  -26.9635  -18.8354   17.7054 C   0  0  0  0  0  0  0  0  0  0  0  0
  -31.1138  -25.8868   18.5604 C   0  0  0  0  0  0  0  0  0  0  0  0
  -28.3340  -25.9408   18.6872 C   0  0  0  0  0  0  0  0  0  0  0  0
  -23.0673  -29.0574   18.9206 C   0  0  0  0  0  0  0  0  0  0  0  0
  -27.6676  -19.6030   20.2934 C   0  0  0  0  0  0  0  0  0  0  0  0
  -28.2845  -18.7090   18.1352 C   0  0  0  0  0  0  0  0  0  0  0  0
  -21.7579  -28.6670   19.1978 C   0  0  0  0  0  0  0  0  0  0  0  0
  -30.9481  -19.8528   21.8397 C   0  0  0  0  0  0  0  0  0  0  0  0
  -31.5091  -20.9239   22.5351 C   0  0  0  0  0  0  0  0  0  0  0  0
  -22.0491  -29.3430   21.4950 C   0  0  0  0  0  0  0  0  0  0  0  0
  -31.1397  -22.3572   20.6255 C   0  0  0  0  0  0  0  0  0  0  0  0
  -17.1328  -20.0161   20.1440 C   0  0  0  0  0  0  0  0  0  0  0  0
  -25.9946  -19.3455   18.5695 C   0  0  0  0  0  0  0  0  0  0  0  0
  -24.0435  -20.5895   17.4955 C   0  0  0  0  0  0  0  0  0  0  0  0
  -30.4873  -26.3895   19.7117 C   0  0  0  0  0  0  0  0  0  0  0  0
  -23.8823  -29.5843   19.9328 C   0  0  0  0  0  0  0  0  0  0  0  0
  -29.0812  -26.4081   19.7818 C   0  0  0  0  0  0  0  0  0  0  0  0
  -23.3676  -29.7417   21.2275 C   0  0  0  0  0  0  0  0  0  0  0  0
  -28.6365  -19.0929   19.4293 C   0  0  0  0  0  0  0  0  0  0  0  0
  -21.2495  -28.8071   20.4858 C   0  0  0  0  0  0  0  0  0  0  0  0
  -30.4830  -20.0338   20.5371 C   0  0  0  0  0  0  0  0  0  0  0  0
  -31.6049  -22.1761   21.9281 C   0  0  0  0  0  0  0  0  0  0  0  0
  -30.5788  -21.2860   19.9301 C   0  0  0  0  0  0  0  0  0  0  0  0
  -24.6302  -19.4753   18.1250 C   0  0  0  0  0  0  0  0  0  0  0  0
  -17.7654  -19.3251   19.1494 C   0  0  0  0  0  0  0  0  0  0  0  0
  -22.7404  -20.2141   17.2777 C   0  0  0  0  0  0  0  0  0  0  0  0
  -17.7449  -21.4661   18.5873 C   0  0  0  0  0  0  0  0  0  0  0  0
  -24.6245  -21.8510   17.1395 C   0  0  0  0  0  0  0  0  0  0  0  0
  -18.0178  -17.8799   19.0821 C   0  0  0  0  0  0  0  0  0  0  0  0
  -26.6157  -28.7057   21.2967 C   0  0  0  0  0  0  0  0  0  0  0  0
  -26.3402  -31.5720   22.7904 C   0  0  0  0  0  0  0  0  0  0  0  0
  -24.3104  -34.0986   23.8593 C   0  0  0  0  0  0  0  0  0  0  0  0
  -31.3453  -26.8332   20.8700 C   0  0  0  0  0  0  0  0  0  0  0  0
  -25.2839  -30.0255   19.6114 C   0  0  0  0  0  0  0  0  0  0  0  0
  -24.1951  -30.3207   22.3449 C   0  0  0  0  0  0  0  0  0  0  0  0
  -30.5955  -27.6823   21.8932 C   0  0  0  0  0  0  0  0  0  0  0  0
  -20.4850  -15.7064   17.6926 C   0  0  0  0  0  0  0  0  0  0  0  0
  -29.2517  -27.0456   22.2334 C   0  0  0  0  0  0  0  0  0  0  0  0
  -21.7423  -16.5765   17.6465 C   0  0  0  0  0  0  0  0  0  0  0  0
  -19.6313  -16.0143   18.9202 C   0  0  0  0  0  0  0  0  0  0  0  0
  -20.5290  -18.3137   19.0287 C   0  0  0  0  0  0  0  0  0  0  0  0
  -28.3553  -26.9529   20.9927 C   0  0  1  0  0  0  0  0  0  0  0  0
  -26.1915  -30.0718   20.8367 C   0  0  1  0  0  0  0  0  0  0  0  0
  -21.3921  -18.0704   17.7797 C   0  0  1  0  0  0  0  0  0  0  0  0
  -17.9612  -22.7222   17.8276 C   0  0  0  0  0  0  0  0  0  0  0  0
  -24.3690  -36.2888   25.0828 C   0  0  0  0  0  0  0  0  0  0  0  0
  -26.6581  -30.0834   25.4348 C   0  0  0  0  0  0  0  0  0  0  0  0
  -25.7734  -32.1131   26.6036 C   0  0  0  0  0  0  0  0  0  0  0  0
  -27.8973  -32.2516   25.3027 C   0  0  0  0  0  0  0  0  0  0  0  0
  -17.1142  -26.3249   23.7923 C   0  0  0  0  0  0  0  0  0  0  0  0
  -18.7289  -24.4453   24.0345 C   0  0  0  0  0  0  0  0  0  0  0  0
  -23.2564  -35.5681   21.5165 C   0  0  0  0  0  0  0  0  0  0  0  0
  -17.5790  -23.2903   21.3480 C   0  0  0  0  0  0  0  0  0  0  0  0
  -18.3760  -26.6039   20.7930 C   0  0  0  0  0  0  0  0  0  0  0  0
  -16.9398  -24.3712   22.2332 C   0  0  0  0  0  0  0  0  0  0  0  0
  -18.9579  -25.9975   22.0790 C   0  0  0  0  0  0  0  0  0  0  0  0
  -16.5397  -22.4684   20.5728 C   0  0  0  0  0  0  0  0  0  0  0  0
  -19.4317  -27.3566   19.9886 C   0  0  0  0  0  0  0  0  0  1  0  0
  -25.6991  -32.0537   24.0694 C   0  0  1  0  0  0  0  0  0  0  0  0
  -24.4229  -35.6065   23.7248 C   0  0  2  0  0  0  0  0  0  0  0  0
  -26.4917  -31.6127   25.3322 C   0  0  0  0  0  0  0  0  0  0  0  0
  -17.9361  -25.2805   23.0066 C   0  0  0  0  0  0  0  0  0  0  0  0
  -23.7703  -18.4677   18.2961 N   0  0  0  0  0  0  0  0  0  0  0  0
  -17.1344  -21.3383   19.7699 N   0  0  0  0  0  0  0  0  0  0  0  0
  -22.6300  -18.9473   17.7710 N   0  0  0  0  0  0  0  0  0  0  0  0
  -18.1335  -20.2471   18.1994 N   0  3  0  0  0  0  0  0  0  0  0  0
  -19.3433  -17.4456   19.0043 N   0  0  0  0  0  0  0  0  0  0  0  0
  -25.5615  -30.7315   21.9821 N   0  0  0  0  0  0  0  0  0  0  0  0
  -21.6897  -20.8473   16.7143 N   0  0  0  0  0  0  0  0  0  0  0  0
  -25.9766  -22.0712   17.4356 N   0  0  0  0  0  0  0  0  0  0  0  0
  -27.7700  -28.2425   20.6947 N   0  0  0  0  0  0  0  0  0  0  0  0
  -25.5496  -33.4984   23.9321 N   0  0  0  0  0  0  0  0  0  0  0  0
  -23.3094  -36.1364   22.8881 N   0  3  0  0  0  0  0  0  0  0  0  0
  -23.9600  -22.7622   16.5904 O   0  0  0  0  0  0  0  0  0  0  0  0
  -17.0248  -17.1540   19.0876 O   0  0  0  0  0  0  0  0  0  0  0  0
  -25.9461  -28.1162   22.1369 O   0  0  0  0  0  0  0  0  0  0  0  0
  -27.4868  -31.9339   22.5149 O   0  0  0  0  0  0  0  0  0  0  0  0
  -23.2310  -33.5122   23.8999 O   0  0  0  0  0  0  0  0  0  0  0  0
  -29.9256  -18.9696   19.8483 O   0  0  0  0  0  0  0  0  0  0  0  0
  -19.9622  -28.4234   20.7613 O   0  0  0  0  0  0  0  0  0  1  0  0
  -32.1422  -23.2050   22.5965 F   0  0  0  0  0  0  0  0  0  0  0  0
  -30.1325  -21.4663   18.6794 F   0  0  0  0  0  0  0  0  0  0  0  0
  1  2  1  0  0  0  0
  1  5  2  0  0  0  0
  2  6  2  0  0  0  0
  3  8  2  0  0  0  0
  3 16  1  0  0  0  0
  4  9  1  0  0  0  0
  4 16  2  0  0  0  0
  5 18  1  0  0  0  0
  6 20  1  0  0  0  0
  7 10  2  0  0  0  0
  7 19  1  0  0  0  0
  8 22  1  0  0  0  0
  9 22  2  0  0  0  0
 10 23  1  0  0  0  0
 11 12  2  0  0  0  0
 11 24  1  0  0  0  0
 12 25  1  0  0  0  0
 13 21  1  0  0  0  0
 13 23  2  0  0  0  0
 14 25  2  0  0  0  0
 14 26  1  0  0  0  0
 15 28  2  0  0  0  0
 15 67  1  0  0  0  0
 16 27  1  0  0  0  0
 17 27  1  0  0  0  0
 17 29  2  0  0  0  0
 17 31  1  0  0  0  0
 18 20  2  0  0  0  0
 18 36  1  0  0  0  0
 19 21  2  0  0  0  0
 19 37  1  0  0  0  0
 20 45  1  0  0  0  0
 21 38  1  0  0  0  0
 22 82  1  0  0  0  0
 23 83  1  0  0  0  0
 24 26  2  0  0  0  0
 24 82  1  0  0  0  0
 25 84  1  0  0  0  0
 26 85  1  0  0  0  0
 27 66  2  0  0  0  0
 28 32  1  0  0  0  0
 28 69  1  0  0  0  0
 29 68  1  0  0  0  0
 29 72  1  0  0  0  0
 30 48  1  0  0  0  0
 30 67  1  0  0  0  0
 30 69  2  0  0  0  0
 31 73  1  0  0  0  0
 31 77  2  0  0  0  0
 32 70  1  0  0  0  0
 32 78  2  0  0  0  0
 33 46  1  0  0  0  0
 33 74  1  0  0  0  0
 33 79  2  0  0  0  0
 34 62  1  0  0  0  0
 34 71  1  0  0  0  0
 34 80  2  0  0  0  0
 35 63  1  0  0  0  0
 35 75  1  0  0  0  0
 35 81  2  0  0  0  0
 36 39  1  0  0  0  0
 37 46  1  0  0  0  0
 38 71  1  0  0  0  0
 39 41  1  0  0  0  0
 40 42  1  0  0  0  0
 40 43  1  0  0  0  0
 41 45  1  0  0  0  0
 42 47  1  0  0  0  0
 43 70  1  0  0  0  0
 44 47  1  0  0  0  0
 44 70  1  0  0  0  0
 45 74  1  0  0  0  0
 46 71  1  0  0  0  0
 47 68  1  0  0  0  0
 49 63  1  0  0  0  0
 50 64  1  0  0  0  0
 51 64  1  0  0  0  0
 52 64  1  0  0  0  0
 53 65  1  0  0  0  0
 54 65  1  0  0  0  0
 55 76  1  0  0  0  0
 56 58  1  0  0  0  0
 56 60  1  0  0  0  0
 57 59  1  0  0  0  0
 57 61  1  0  0  0  0
 58 65  1  0  0  0  0
 59 65  1  0  0  0  0
 60 67  1  0  0  0  0
 61 83  1  0  0  0  0
 62 64  1  0  0  0  0
 62 75  1  0  0  0  0
 63 76  1  0  0  0  0
 66 68  1  0  0  0  0
M  CHG  2  69   1  76   1
M  ISO  4  28 100  32 100  61 101  83 101
M  END
> <Batch ID>
0076

> <Smiles>
CNC(C)C(=O)NC(C(=O)N1Cc2cc([101O:1][101CH2:1]CCC(C)(C)CCCn3c[100c:0]([100C:0](=O)N4CCCC(n5nc(-c6ccc(Oc7ccc(F)cc7F)cc6)c(C(N)=O)c5N)C4)nc3C)ccc2CC1C(=O)NC1CCCc2ccccc21)C(C)(C)C

> <Shape>
0.237

> <Color>
0.057

> <Negative vol penalty>
0.000

$$$$

  -OEChem-04052318343D

 86 94  0     1  0  0  0  0  0999 V2000
  -36.6508  -15.2426   22.4990 C   0  0  0  0  0  0  0  0  0  0  0  0
  -35.9443  -16.4339   22.6301 C   0  0  0  0  0  0  0  0  0  0  0  0
  -22.8071  -24.5878   21.0630 C   0  0  0  0  0  0  0  0  0  0  0  0
  -23.0052  -24.6835   23.4690 C   0  0  0  0  0  0  0  0  0  0  0  0
  -36.2117  -14.2680   21.6038 C   0  0  0  0  0  0  0  0  0  0  0  0
  -34.7988  -16.6517   21.8652 C   0  0  0  0  0  0  0  0  0  0  0  0
  -29.7698  -19.7105   23.5557 C   0  0  0  0  0  0  0  0  0  0  0  0
  -23.0921  -23.2227   21.0938 C   0  0  0  0  0  0  0  0  0  0  0  0
  -23.2901  -23.3184   23.4998 C   0  0  0  0  0  0  0  0  0  0  0  0
  -29.3410  -21.0155   23.3170 C   0  0  0  0  0  0  0  0  0  0  0  0
  -23.7145  -19.7852   24.2447 C   0  0  0  0  0  0  0  0  0  0  0  0
  -23.0680  -19.0086   25.2062 C   0  0  0  0  0  0  0  0  0  0  0  0
  -28.0197  -20.2344   21.4559 C   0  0  0  0  0  0  0  0  0  0  0  0
  -20.9290  -19.6332   24.2727 C   0  0  0  0  0  0  0  0  0  0  0  0
  -28.1325  -29.3027   23.5982 C   0  0  0  0  0  0  0  0  0  0  0  0
  -27.0288  -27.6114   24.4800 C   0  0  0  0  0  0  0  0  0  0  0  0
  -22.7637  -25.3182   22.2506 C   0  0  0  0  0  0  0  0  0  0  0  0
  -21.2019  -27.3347   22.2998 C   0  0  0  0  0  0  0  0  0  0  0  0
  -35.0549  -14.4700   20.8347 C   0  0  0  0  0  0  0  0  0  0  0  0
  -29.3346  -18.6575   22.7383 C   0  0  0  0  0  0  0  0  0  0  0  0
  -34.3447  -15.6794   20.9580 C   0  0  0  0  0  0  0  0  0  0  0  0
  -28.4425  -18.9166   21.6880 C   0  0  0  0  0  0  0  0  0  0  0  0
  -23.3336  -22.5880   22.3122 C   0  0  0  0  0  0  0  0  0  0  0  0
  -28.4681  -21.2780   22.2652 C   0  0  0  0  0  0  0  0  0  0  0  0
  -22.9682  -20.4860   23.2972 C   0  0  0  0  0  0  0  0  0  0  0  0
  -21.6753  -18.9326   25.2202 C   0  0  0  0  0  0  0  0  0  0  0  0
  -21.5755  -20.4099   23.3112 C   0  0  0  0  0  0  0  0  0  0  0  0
  -22.4699  -26.7285   22.2193 C   0  0  0  0  0  0  0  0  0  0  0  0
  -27.1308  -29.7369   24.4340 C   0  0  0  0  0  0  0  0  0  0  0  0
  -21.4600  -28.6817   22.2258 C   0  0  0  0  0  0  0  0  0  0  0  0
  -19.9066  -26.7339   22.4299 C   0  0  0  0  0  0  0  0  0  0  0  0
  -30.7653  -16.5830   20.8010 C   0  0  0  0  0  0  0  0  0  0  0  0
  -27.7896  -15.3062   20.6077 C   0  0  0  0  0  0  0  0  0  0  0  0
  -26.3547  -31.9079   23.5467 C   0  0  0  0  0  0  0  0  0  0  0  0
  -24.4189  -15.7584   20.8912 C   0  0  0  0  0  0  0  0  0  0  0  0
  -34.6459  -13.4071   19.8459 C   0  0  0  0  0  0  0  0  0  0  0  0
  -29.7853  -17.2515   23.0255 C   0  0  0  0  0  0  0  0  0  0  0  0
  -27.9298  -17.8184   20.7938 C   0  0  0  0  0  0  0  0  0  0  0  0
  -33.2118  -13.5600   19.3456 C   0  0  0  0  0  0  0  0  0  0  0  0
  -24.5919  -31.8089   20.4286 C   0  0  0  0  0  0  0  0  0  0  0  0
  -32.9337  -15.0086   18.9567 C   0  0  0  0  0  0  0  0  0  0  0  0
  -23.7542  -30.5349   20.5301 C   0  0  0  0  0  0  0  0  0  0  0  0
  -25.9405  -31.6473   21.1229 C   0  0  0  0  0  0  0  0  0  0  0  0
  -25.0039  -29.9453   22.6552 C   0  0  0  0  0  0  0  0  0  0  0  0
  -33.0836  -15.9424   20.1638 C   0  0  1  0  0  0  0  0  0  0  0  0
  -29.6832  -16.3318   21.8127 C   0  0  1  0  0  0  0  0  0  0  0  0
  -23.6208  -30.0761   21.9930 C   0  0  2  0  0  0  0  0  0  0  0  0
  -21.9851  -15.1502   20.9535 C   0  0  0  0  0  0  0  0  0  0  0  0
  -27.9454  -31.8937   25.4227 C   0  0  0  0  0  0  0  0  0  0  0  0
  -25.5371  -31.3096   25.7277 C   0  0  0  0  0  0  0  0  0  0  0  0
  -28.0315  -15.5185   17.5735 C   0  0  0  0  0  0  0  0  0  0  0  0
  -25.5521  -15.2052   17.4237 C   0  0  0  0  0  0  0  0  0  0  0  0
  -26.9792  -13.4020   18.3905 C   0  0  0  0  0  0  0  0  0  0  0  0
  -31.2506  -26.5043   20.8581 C   0  0  0  0  0  0  0  0  0  0  0  0
  -29.5770  -26.6994   19.0252 C   0  0  0  0  0  0  0  0  0  0  0  0
  -24.5238  -15.1589   23.7875 C   0  0  0  0  0  0  0  0  0  0  0  0
  -27.9785  -24.3810   20.4254 C   0  0  0  0  0  0  0  0  0  0  0  0
  -29.4389  -24.7811   20.6820 C   0  0  0  0  0  0  0  0  0  0  0  0
  -28.8706  -27.2187   21.3725 C   0  0  0  0  0  0  0  0  0  0  0  0
  -28.9355  -26.9710   22.8856 C   0  0  0  0  0  0  0  0  0  0  0  0
  -27.7421  -22.8942   20.6787 C   0  0  0  0  0  0  0  0  0  1  0  0
  -26.5905  -15.5197   19.7158 C   0  0  1  0  0  0  0  0  0  0  0  0
  -23.3487  -14.9428   21.5940 C   0  0  2  0  0  0  0  0  0  0  0  0
  -26.7594  -31.1204   24.7674 C   0  0  0  0  0  0  0  0  0  0  0  0
  -26.7993  -14.9326   18.2913 C   0  0  0  0  0  0  0  0  0  0  0  0
  -29.7636  -26.2909   20.5022 C   0  0  0  0  0  0  0  0  0  0  0  0
  -26.4476  -28.6792   24.9800 N   0  0  0  0  0  0  0  0  0  0  0  0
  -23.4600  -27.6174   22.1029 N   0  0  0  0  0  0  0  0  0  0  0  0
  -28.0551  -27.9390   23.6382 N   0  0  0  0  0  0  0  0  0  0  0  0
  -22.8141  -28.7959   22.1096 N   0  0  0  0  0  0  0  0  0  0  0  0
  -28.4044  -16.4613   21.1112 N   0  0  0  0  0  0  0  0  0  0  0  0
  -25.7718  -31.1889   22.5030 N   0  0  0  0  0  0  0  0  0  0  0  0
  -20.6584  -29.7676   22.2493 N   0  0  0  0  0  0  0  0  0  0  0  0
  -19.8215  -25.3363   22.4918 N   0  0  0  0  0  0  0  0  0  0  0  0
  -31.9191  -15.8543   21.0186 N   0  0  0  0  0  0  0  0  0  0  0  0
  -25.4465  -14.9632   20.4297 N   0  0  0  0  0  0  0  0  0  0  0  0
  -23.2583  -15.3340   23.0292 N   0  3  0  0  0  0  0  0  0  0  0  0
  -18.8545  -27.4155   22.4730 O   0  0  0  0  0  0  0  0  0  0  0  0
  -30.5676  -17.3779   19.8896 O   0  0  0  0  0  0  0  0  0  0  0  0
  -28.1626  -14.1566   20.8545 O   0  0  0  0  0  0  0  0  0  0  0  0
  -26.5489  -33.1261   23.5245 O   0  0  0  0  0  0  0  0  0  0  0  0
  -24.3484  -16.9785   20.7610 O   0  0  0  0  0  0  0  0  0  0  0  0
  -23.6114  -21.2559   22.3427 O   0  0  0  0  0  0  0  0  0  0  0  0
  -28.0485  -22.5509   22.0295 O   0  0  0  0  0  0  0  0  0  1  0  0
  -21.0548  -18.1855   26.1427 F   0  0  0  0  0  0  0  0  0  0  0  0
  -20.8532  -21.0799   22.4027 F   0  0  0  0  0  0  0  0  0  0  0  0
  1  2  1  0  0  0  0
  1  5  2  0  0  0  0
  2  6  2  0  0  0  0
  3  8  2  0  0  0  0
  3 17  1  0  0  0  0
  4  9  1  0  0  0  0
  4 17  2  0  0  0  0
  5 19  1  0  0  0  0
  6 21  1  0  0  0  0
  7 10  2  0  0  0  0
  7 20  1  0  0  0  0
  8 23  1  0  0  0  0
  9 23  2  0  0  0  0
 10 24  1  0  0  0  0
 11 12  2  0  0  0  0
 11 25  1  0  0  0  0
 12 26  1  0  0  0  0
 13 22  1  0  0  0  0
 13 24  2  0  0  0  0
 14 26  2  0  0  0  0
 14 27  1  0  0  0  0
 15 29  2  0  0  0  0
 15 69  1  0  0  0  0
 16 67  2  0  0  0  0
 16 69  1  0  0  0  0
 17 28  1  0  0  0  0
 18 28  1  0  0  0  0
 18 30  2  0  0  0  0
 18 31  1  0  0  0  0
 19 21  2  0  0  0  0
 19 36  1  0  0  0  0
 20 22  2  0  0  0  0
 20 37  1  0  0  0  0
 21 45  1  0  0  0  0
 22 38  1  0  0  0  0
 23 83  1  0  0  0  0
 24 84  1  0  0  0  0
 25 27  2  0  0  0  0
 25 83  1  0  0  0  0
 26 85  1  0  0  0  0
 27 86  1  0  0  0  0
 28 68  2  0  0  0  0
 29 64  1  0  0  0  0
 29 67  1  0  0  0  0
 30 70  1  0  0  0  0
 30 73  1  0  0  0  0
 31 74  1  0  0  0  0
 31 78  2  0  0  0  0
 32 46  1  0  0  0  0
 32 75  1  0  0  0  0
 32 79  2  0  0  0  0
 33 62  1  0  0  0  0
 33 71  1  0  0  0  0
 33 80  2  0  0  0  0
 34 64  1  0  0  0  0
 34 72  1  0  0  0  0
 34 81  2  0  0  0  0
 35 63  1  0  0  0  0
 35 76  1  0  0  0  0
 35 82  2  0  0  0  0
 36 39  1  0  0  0  0
 37 46  1  0  0  0  0
 38 71  1  0  0  0  0
 39 41  1  0  0  0  0
 40 42  1  0  0  0  0
 40 43  1  0  0  0  0
 41 45  1  0  0  0  0
 42 47  1  0  0  0  0
 43 72  1  0  0  0  0
 44 47  1  0  0  0  0
 44 72  1  0  0  0  0
 45 75  1  0  0  0  0
 46 71  1  0  0  0  0
 47 70  1  0  0  0  0
 48 63  1  0  0  0  0
 49 64  1  0  0  0  0
 50 64  1  0  0  0  0
 51 65  1  0  0  0  0
 52 65  1  0  0  0  0
 53 65  1  0  0  0  0
 54 66  1  0  0  0  0
 55 66  1  0  0  0  0
 56 77  1  0  0  0  0
 57 58  1  0  0  0  0
 57 61  1  0  0  0  0
 58 66  1  0  0  0  0
 59 60  1  0  0  0  0
 59 66  1  0  0  0  0
 60 69  1  0  0  0  0
 61 84  1  0  0  0  0
 62 65  1  0  0  0  0
 62 76  1  0  0  0  0
 63 77  1  0  0  0  0
 68 70  1  0  0  0  0
M  CHG  1  77   1
M  ISO  4  34 100  61 101  64 100  84 101
M  END
> <Batch ID>
0076

> <Smiles>
CNC(C)C(=O)NC(C(=O)N1Cc2cc([101O:1][101CH2:1]CCC(C)(C)CCn3cnc([100C:0](C)(C)[100C:0](=O)N4CCCC(n5nc(-c6ccc(Oc7ccc(F)cc7F)cc6)c(C(N)=O)c5N)C4)c3)ccc2CC1C(=O)NC1CCCc2ccccc21)C(C)(C)C

> <Shape>
0.237

> <Color>
0.069

> <Negative vol penalty>
0.000

$$$$

  -OEChem-04052318343D

 88 96  0     1  0  0  0  0  0999 V2000
  -37.7240  -25.0013   21.5591 C   0  0  0  0  0  0  0  0  0  0  0  0
  -36.3959  -25.3795   21.3902 C   0  0  0  0  0  0  0  0  0  0  0  0
  -22.9998   -9.8946   19.9829 C   0  0  0  0  0  0  0  0  0  0  0  0
  -23.7293   -9.9463   22.2856 C   0  0  0  0  0  0  0  0  0  0  0  0
  -38.0328  -23.8453   22.2748 C   0  0  0  0  0  0  0  0  0  0  0  0
  -35.3757  -24.6013   21.9360 C   0  0  0  0  0  0  0  0  0  0  0  0
  -30.0624  -26.5888   24.2436 C   0  0  0  0  0  0  0  0  0  0  0  0
  -22.2344   -8.7597   20.2509 C   0  0  0  0  0  0  0  0  0  0  0  0
  -22.9639   -8.8114   22.5535 C   0  0  0  0  0  0  0  0  0  0  0  0
  -28.7776  -26.6663   23.7079 C   0  0  0  0  0  0  0  0  0  0  0  0
  -23.2093   -5.4725   22.0816 C   0  0  0  0  0  0  0  0  0  0  0  0
  -23.7988   -4.4557   22.8326 C   0  0  0  0  0  0  0  0  0  0  0  0
  -28.2270  -24.5559   24.7384 C   0  0  0  0  0  0  0  0  0  0  0  0
  -22.0780   -4.6979   24.5111 C   0  0  0  0  0  0  0  0  0  0  0  0
  -28.1124  -20.8328   20.6990 C   0  0  0  0  0  0  0  0  0  0  0  0
  -23.7473  -10.4879   21.0003 C   0  0  0  0  0  0  0  0  0  0  0  0
  -24.1308  -13.0037   20.8232 C   0  0  0  0  0  0  0  0  0  0  0  0
  -37.0163  -23.0577   22.8379 C   0  0  0  0  0  0  0  0  0  0  0  0
  -30.4432  -25.4870   25.0231 C   0  0  0  0  0  0  0  0  0  0  0  0
  -35.6711  -23.4330   22.6588 C   0  0  0  0  0  0  0  0  0  0  0  0
  -29.5164  -24.4680   25.2850 C   0  0  0  0  0  0  0  0  0  0  0  0
  -22.2164   -8.2181   21.5362 C   0  0  0  0  0  0  0  0  0  0  0  0
  -27.8606  -25.6484   23.9528 C   0  0  0  0  0  0  0  0  0  0  0  0
  -22.0541   -6.1021   22.5453 C   0  0  0  0  0  0  0  0  0  0  0  0
  -23.2332   -4.0684   24.0474 C   0  0  0  0  0  0  0  0  0  0  0  0
  -21.4885   -5.7147   23.7600 C   0  0  0  0  0  0  0  0  0  0  0  0
  -24.5386  -11.6599   20.7240 C   0  0  0  0  0  0  0  0  0  0  0  0
  -27.9968  -19.5055   21.0019 C   0  0  0  0  0  0  0  0  0  0  0  0
  -25.2395  -13.7268   20.4566 C   0  0  0  0  0  0  0  0  0  0  0  0
  -26.0981  -20.5004   21.5549 C   0  0  0  0  0  0  0  0  0  0  0  0
  -22.8633  -13.5494   21.2121 C   0  0  0  0  0  0  0  0  0  0  0  0
  -32.6399  -23.2047   24.7594 C   0  0  0  0  0  0  0  0  0  0  0  0
  -31.6189  -22.4189   27.7364 C   0  0  0  0  0  0  0  0  0  0  0  0
  -29.1231  -22.5129   30.0621 C   0  0  0  0  0  0  0  0  0  0  0  0
  -30.7358  -14.6646   20.6944 C   0  0  0  0  0  0  0  0  0  0  0  0
  -37.3968  -21.7912   23.5630 C   0  0  0  0  0  0  0  0  0  0  0  0
  -31.8245  -25.4313   25.6159 C   0  0  0  0  0  0  0  0  0  0  0  0
  -29.8692  -23.2738   26.1323 C   0  0  0  0  0  0  0  0  0  0  0  0
  -36.2746  -21.2244   24.4289 C   0  0  0  0  0  0  0  0  0  0  0  0
  -29.5920  -12.2400   18.3514 C   0  0  0  0  0  0  0  0  0  0  0  0
  -34.9597  -21.2091   23.6558 C   0  0  0  0  0  0  0  0  0  0  0  0
  -28.1444  -11.9795   18.7719 C   0  0  0  0  0  0  0  0  0  0  0  0
  -30.4966  -12.4760   19.5589 C   0  0  0  0  0  0  0  0  0  0  0  0
  -28.5886  -13.2706   20.9013 C   0  0  0  0  0  0  0  0  0  0  0  0
  -34.5376  -22.6283   23.2570 C   0  0  1  0  0  0  0  0  0  0  0  0
  -32.2665  -24.0144   25.9688 C   0  0  1  0  0  0  0  0  0  0  0  0
  -27.6274  -13.0823   19.7151 C   0  0  2  0  0  0  0  0  0  0  0  0
  -24.7175  -20.7154   22.0555 C   0  0  0  0  0  0  0  0  0  0  0  0
  -29.7791  -18.4910   19.5347 C   0  0  0  0  0  0  0  0  0  0  0  0
  -28.5685  -21.7520   32.3883 C   0  0  0  0  0  0  0  0  0  0  0  0
  -31.1804  -19.5823   26.7014 C   0  0  0  0  0  0  0  0  0  0  0  0
  -29.7732  -19.1366   28.7236 C   0  0  0  0  0  0  0  0  0  0  0  0
  -32.1853  -19.7149   28.9876 C   0  0  0  0  0  0  0  0  0  0  0  0
  -30.7605  -19.2502   22.5049 C   0  0  0  0  0  0  0  0  0  0  0  0
  -28.9699  -17.7253   23.3345 C   0  0  0  0  0  0  0  0  0  0  0  0
  -27.3228  -25.8591   21.1435 C   0  0  0  0  0  0  0  0  0  0  0  0
  -24.9399  -25.3657   21.7500 C   0  0  0  0  0  0  0  0  0  0  0  0
  -28.7724  -25.2936   31.0128 C   0  0  0  0  0  0  0  0  0  0  0  0
  -26.6965  -23.6350   22.2304 C   0  0  0  0  0  0  0  0  0  0  0  0
  -26.6021  -22.8898   20.8915 C   0  0  0  0  0  0  0  0  0  0  0  0
  -30.8195  -16.8437   21.8792 C   0  0  0  0  0  0  0  0  0  0  0  0
  -28.9367  -18.3921   20.8485 C   0  0  1  0  0  0  0  0  0  0  0  0
  -30.5484  -21.5128   28.2950 C   0  0  1  0  0  0  0  0  0  0  0  0
  -29.1326  -22.8779   31.5356 C   0  0  2  0  0  0  0  0  0  0  0  0
  -30.9155  -20.0081   28.1593 C   0  0  0  0  0  0  0  0  0  0  0  0
  -29.8671  -18.0514   22.1159 C   0  0  0  0  0  0  0  0  0  0  0  0
  -26.4055  -25.1468   22.1398 C   0  0  0  0  0  0  0  0  0  1  0  0
  -25.8071  -11.5341   20.3254 N   0  0  0  0  0  0  0  0  0  0  0  0
  -26.9230  -21.4240   21.0511 N   0  0  0  0  0  0  0  0  0  0  0  0
  -26.2061  -12.8081   20.1708 N   0  0  0  0  0  0  0  0  0  0  0  0
  -26.7407  -19.3282   21.5301 N   0  3  0  0  0  0  0  0  0  0  0  0
  -31.2340  -23.2620   26.6843 N   0  0  0  0  0  0  0  0  0  0  0  0
  -29.9508  -13.5345   20.4119 N   0  0  0  0  0  0  0  0  0  0  0  0
  -25.4720  -15.0527   20.3539 N   0  0  0  0  0  0  0  0  0  0  0  0
  -21.8327  -12.6647   21.5577 N   0  0  0  0  0  0  0  0  0  0  0  0
  -33.9663  -23.3231   24.3907 N   0  0  0  0  0  0  0  0  0  0  0  0
  -30.3186  -21.9504   29.6676 N   0  0  0  0  0  0  0  0  0  0  0  0
  -30.1404  -15.6231   21.5053 N   0  0  0  0  0  0  0  0  0  0  0  0
  -28.3147  -24.1011   31.7715 N   0  3  0  0  0  0  0  0  0  0  0  0
  -22.6459  -14.7846   21.2361 O   0  0  0  0  0  0  0  0  0  0  0  0
  -31.7880  -22.5219   24.2029 O   0  0  0  0  0  0  0  0  0  0  0  0
  -32.7529  -22.3851   28.2206 O   0  0  0  0  0  0  0  0  0  0  0  0
  -28.1510  -22.7040   29.3348 O   0  0  0  0  0  0  0  0  0  0  0  0
  -31.8803  -14.8111   20.2521 O   0  0  0  0  0  0  0  0  0  0  0  0
  -21.4695   -7.1108   21.7980 O   0  0  0  0  0  0  0  0  0  0  0  0
  -26.6061  -25.7213   23.4306 O   0  0  0  0  0  0  0  0  0  1  0  0
  -23.7986   -3.0909   24.7678 F   0  0  0  0  0  0  0  0  0  0  0  0
  -20.3781   -6.3150   24.2101 F   0  0  0  0  0  0  0  0  0  0  0  0
  1  2  1  0  0  0  0
  1  5  2  0  0  0  0
  2  6  2  0  0  0  0
  3  8  2  0  0  0  0
  3 16  1  0  0  0  0
  4  9  1  0  0  0  0
  4 16  2  0  0  0  0
  5 18  1  0  0  0  0
  6 20  1  0  0  0  0
  7 10  2  0  0  0  0
  7 19  1  0  0  0  0
  8 22  1  0  0  0  0
  9 22  2  0  0  0  0
 10 23  1  0  0  0  0
 11 12  2  0  0  0  0
 11 24  1  0  0  0  0
 12 25  1  0  0  0  0
 13 21  1  0  0  0  0
 13 23  2  0  0  0  0
 14 25  2  0  0  0  0
 14 26  1  0  0  0  0
 15 28  2  0  0  0  0
 15 69  1  0  0  0  0
 16 27  1  0  0  0  0
 17 27  1  0  0  0  0
 17 29  2  0  0  0  0
 17 31  1  0  0  0  0
 18 20  2  0  0  0  0
 18 36  1  0  0  0  0
 19 21  2  0  0  0  0
 19 37  1  0  0  0  0
 20 45  1  0  0  0  0
 21 38  1  0  0  0  0
 22 85  1  0  0  0  0
 23 86  1  0  0  0  0
 24 26  2  0  0  0  0
 24 85  1  0  0  0  0
 25 87  1  0  0  0  0
 26 88  1  0  0  0  0
 27 68  2  0  0  0  0
 28 62  1  0  0  0  0
 28 71  1  0  0  0  0
 29 70  1  0  0  0  0
 29 74  1  0  0  0  0
 30 48  1  0  0  0  0
 30 69  1  0  0  0  0
 30 71  2  0  0  0  0
 31 75  1  0  0  0  0
 31 80  2  0  0  0  0
 32 46  1  0  0  0  0
 32 76  1  0  0  0  0
 32 81  2  0  0  0  0
 33 63  1  0  0  0  0
 33 72  1  0  0  0  0
 33 82  2  0  0  0  0
 34 64  1  0  0  0  0
 34 77  1  0  0  0  0
 34 83  2  0  0  0  0
 35 73  1  0  0  0  0
 35 78  1  0  0  0  0
 35 84  2  0  0  0  0
 36 39  1  0  0  0  0
 37 46  1  0  0  0  0
 38 72  1  0  0  0  0
 39 41  1  0  0  0  0
 40 42  1  0  0  0  0
 40 43  1  0  0  0  0
 41 45  1  0  0  0  0
 42 47  1  0  0  0  0
 43 73  1  0  0  0  0
 44 47  1  0  0  0  0
 44 73  1  0  0  0  0
 45 76  1  0  0  0  0
 46 72  1  0  0  0  0
 47 70  1  0  0  0  0
 49 62  1  0  0  0  0
 50 64  1  0  0  0  0
 51 65  1  0  0  0  0
 52 65  1  0  0  0  0
 53 65  1  0  0  0  0
 54 66  1  0  0  0  0
 55 66  1  0  0  0  0
 56 67  1  0  0  0  0
 57 67  1  0  0  0  0
 58 79  1  0  0  0  0
 59 60  1  0  0  0  0
 59 67  1  0  0  0  0
 60 69  1  0  0  0  0
 61 66  1  0  0  0  0
 61 78  1  0  0  0  0
 62 66  1  0  0  0  0
 63 65  1  0  0  0  0
 63 77  1  0  0  0  0
 64 79  1  0  0  0  0
 67 86  1  0  0  0  0
 68 70  1  0  0  0  0
M  CHG  2  71   1  79   1
M  ISO  4  35 100  67 101  78 100  86 101
M  END
> <Batch ID>
0076

> <Smiles>
CNC(C)C(=O)NC(C(=O)N1Cc2cc([101O:1][101C:1](C)(C)CCn3cc(C(C)C(C)(C)C[100NH:0][100C:0](=O)N4CCCC(n5nc(-c6ccc(Oc7ccc(F)cc7F)cc6)c(C(N)=O)c5N)C4)nc3C)ccc2CC1C(=O)NC1CCCc2ccccc21)C(C)(C)C

> <Shape>
0.203

> <Color>
0.185

> <Negative vol penalty>
0.000

$$$$

  -OEChem-04052318343D

 88 96  0     1  0  0  0  0  0999 V2000
  -29.8617  -30.9545   16.8979 C   0  0  0  0  0  0  0  0  0  0  0  0
  -29.6994  -29.9881   17.8854 C   0  0  0  0  0  0  0  0  0  0  0  0
  -23.0015   -9.8915   19.9794 C   0  0  0  0  0  0  0  0  0  0  0  0
  -23.7266   -9.9419   22.2835 C   0  0  0  0  0  0  0  0  0  0  0  0
  -29.4634  -30.6859   15.5890 C   0  0  0  0  0  0  0  0  0  0  0  0
  -29.1376  -28.7527   17.5647 C   0  0  0  0  0  0  0  0  0  0  0  0
  -31.6731  -24.8758   19.6107 C   0  0  0  0  0  0  0  0  0  0  0  0
  -22.2361   -8.7561   20.2452 C   0  0  0  0  0  0  0  0  0  0  0  0
  -22.9611   -8.8065   22.5493 C   0  0  0  0  0  0  0  0  0  0  0  0
  -31.4556  -24.6156   20.9630 C   0  0  0  0  0  0  0  0  0  0  0  0
  -23.2087   -5.4681   22.0755 C   0  0  0  0  0  0  0  0  0  0  0  0
  -23.7973   -4.4510   22.8271 C   0  0  0  0  0  0  0  0  0  0  0  0
  -29.9430  -22.8323   20.3704 C   0  0  0  0  0  0  0  0  0  0  0  0
  -22.0732   -4.6914   24.5024 C   0  0  0  0  0  0  0  0  0  0  0  0
  -23.7468  -10.4844   20.9986 C   0  0  0  0  0  0  0  0  0  0  0  0
  -24.1296  -13.0004   20.8239 C   0  0  0  0  0  0  0  0  0  0  0  0
  -28.9054  -29.4431   15.2502 C   0  0  0  0  0  0  0  0  0  0  0  0
  -31.0177  -24.1221   18.6264 C   0  0  0  0  0  0  0  0  0  0  0  0
  -28.7303  -28.4677   16.2504 C   0  0  0  0  0  0  0  0  0  0  0  0
  -30.1559  -23.0833   19.0063 C   0  0  0  0  0  0  0  0  0  0  0  0
  -22.2159   -8.2136   21.5301 C   0  0  0  0  0  0  0  0  0  0  0  0
  -30.5883  -23.5956   21.3431 C   0  0  0  0  0  0  0  0  0  0  0  0
  -22.0524   -6.0968   22.5375 C   0  0  0  0  0  0  0  0  0  0  0  0
  -23.2295   -4.0627   24.0405 C   0  0  0  0  0  0  0  0  0  0  0  0
  -21.4846   -5.7085   23.7509 C   0  0  0  0  0  0  0  0  0  0  0  0
  -24.5381  -11.6569   20.7246 C   0  0  0  0  0  0  0  0  0  0  0  0
  -31.4674  -19.2874   22.6978 C   0  0  0  0  0  0  0  0  0  0  0  0
  -32.2486  -18.4644   21.9169 C   0  0  0  0  0  0  0  0  0  0  0  0
  -29.7968  -17.7260   22.6724 C   0  0  0  0  0  0  0  0  0  0  0  0
  -30.5777  -16.9032   21.8908 C   0  0  0  0  0  0  0  0  0  0  0  0
  -25.2387  -13.7243   20.4599 C   0  0  0  0  0  0  0  0  0  0  0  0
  -22.8612  -13.5454   21.2108 C   0  0  0  0  0  0  0  0  0  0  0  0
  -28.9466  -24.7795   16.3064 C   0  0  0  0  0  0  0  0  0  0  0  0
  -29.4245  -21.6665   15.5298 C   0  0  0  0  0  0  0  0  0  0  0  0
  -30.3553  -18.5401   16.5329 C   0  0  0  0  0  0  0  0  0  0  0  0
  -30.7172  -14.6906   20.6944 C   0  0  0  0  0  0  0  0  0  0  0  0
  -28.4464  -29.2160   13.8316 C   0  0  0  0  0  0  0  0  0  0  0  0
  -31.2836  -24.3979   17.1719 C   0  0  0  0  0  0  0  0  0  0  0  0
  -29.4434  -22.2319   17.9885 C   0  0  0  0  0  0  0  0  0  0  0  0
  -28.2047  -27.7462   13.4976 C   0  0  0  0  0  0  0  0  0  0  0  0
  -29.6014  -12.2379   18.3672 C   0  0  0  0  0  0  0  0  0  0  0  0
  -27.3943  -27.0741   14.6014 C   0  0  0  0  0  0  0  0  0  0  0  0
  -28.1510  -11.9786   18.7812 C   0  0  0  0  0  0  0  0  0  0  0  0
  -30.5016  -12.4815   19.5771 C   0  0  0  0  0  0  0  0  0  0  0  0
  -28.5855  -13.2678   20.9110 C   0  0  0  0  0  0  0  0  0  0  0  0
  -28.1478  -27.1067   15.9366 C   0  0  1  0  0  0  0  0  0  0  0  0
  -30.1673  -23.9047   16.2565 C   0  0  1  0  0  0  0  0  0  0  0  0
  -27.6280  -13.0812   19.7227 C   0  0  2  0  0  0  0  0  0  0  0  0
  -27.3979  -17.4761   21.9874 C   0  0  0  0  0  0  0  0  0  0  0  0
  -33.7471  -18.9855   19.9582 C   0  0  0  0  0  0  0  0  0  0  0  0
  -34.7089  -17.9284   22.0349 C   0  0  0  0  0  0  0  0  0  0  0  0
  -30.9384  -16.1076   16.3323 C   0  0  0  0  0  0  0  0  0  0  0  0
  -26.3967  -21.3048   15.6372 C   0  0  0  0  0  0  0  0  0  0  0  0
  -26.7656  -18.8302   15.7305 C   0  0  0  0  0  0  0  0  0  0  0  0
  -27.5213  -20.1278   13.7386 C   0  0  0  0  0  0  0  0  0  0  0  0
  -32.8354  -22.6235   25.4111 C   0  0  0  0  0  0  0  0  0  0  0  0
  -30.4138  -23.1553   25.7861 C   0  0  0  0  0  0  0  0  0  0  0  0
  -33.1993  -19.1479   15.9841 C   0  0  0  0  0  0  0  0  0  0  0  0
  -31.9617  -20.6373   23.1592 C   0  0  0  0  0  0  0  0  0  0  0  0
  -28.4261  -17.3293   23.1061 C   0  0  0  0  0  0  0  0  0  0  0  0
  -31.0569  -21.2195   24.2542 C   0  0  0  0  0  0  0  0  0  0  0  0
  -31.4469  -23.6181   23.5607 C   0  0  0  0  0  0  0  0  0  1  0  0
  -33.6177  -18.8695   21.4892 C   0  0  0  0  0  0  0  0  0  0  0  0
  -28.7818  -20.3569   15.9182 C   0  0  1  0  0  0  0  0  0  0  0  0
  -31.3017  -17.5250   15.9179 C   0  0  2  0  0  0  0  0  0  0  0  0
  -27.3781  -20.1720   15.2755 C   0  0  0  0  0  0  0  0  0  0  0  0
  -31.4394  -22.6396   24.7610 C   0  0  0  0  0  0  0  0  0  0  0  0
  -25.8075  -11.5319   20.3284 N   0  0  0  0  0  0  0  0  0  0  0  0
  -30.2275  -18.9330   23.0896 N   0  0  0  0  0  0  0  0  0  0  0  0
  -31.8178  -17.2575   21.4994 N   0  0  0  0  0  0  0  0  0  0  0  0
  -26.2062  -12.8061   20.1754 N   0  0  0  0  0  0  0  0  0  0  0  0
  -29.7313  -22.5445   16.5789 N   0  0  0  0  0  0  0  0  0  0  0  0
  -29.9456  -13.5415   20.4210 N   0  0  0  0  0  0  0  0  0  0  0  0
  -25.4709  -15.0503   20.3586 N   0  0  0  0  0  0  0  0  0  0  0  0
  -21.8302  -12.6600   21.5538 N   0  0  0  0  0  0  0  0  0  0  0  0
  -30.0720  -15.6448   21.4805 N   0  0  0  0  0  0  0  0  0  0  0  0
  -29.1829  -26.0955   15.9576 N   0  0  0  0  0  0  0  0  0  0  0  0
  -29.7401  -19.3131   15.5710 N   0  0  0  0  0  0  0  0  0  0  0  0
  -32.7026  -17.7959   16.3481 N   0  3  0  0  0  0  0  0  0  0  0  0
  -22.6432  -14.7805   21.2352 O   0  0  0  0  0  0  0  0  0  0  0  0
  -27.8698  -24.2959   16.6356 O   0  0  0  0  0  0  0  0  0  0  0  0
  -29.6527  -21.8987   14.3400 O   0  0  0  0  0  0  0  0  0  0  0  0
  -30.1766  -18.6352   17.7452 O   0  0  0  0  0  0  0  0  0  0  0  0
  -31.8557  -14.8309   20.2405 O   0  0  0  0  0  0  0  0  0  0  0  0
  -21.4689   -7.1058   21.7898 O   0  0  0  0  0  0  0  0  0  0  0  0
  -30.3737  -23.3399   22.6623 O   0  0  0  0  0  0  0  0  0  1  0  0
  -23.7939   -3.0849   24.7614 F   0  0  0  0  0  0  0  0  0  0  0  0
  -20.3732   -6.3080   24.1992 F   0  0  0  0  0  0  0  0  0  0  0  0
  1  2  1  0  0  0  0
  1  5  2  0  0  0  0
  2  6  2  0  0  0  0
  3  8  2  0  0  0  0
  3 15  1  0  0  0  0
  4  9  1  0  0  0  0
  4 15  2  0  0  0  0
  5 17  1  0  0  0  0
  6 19  1  0  0  0  0
  7 10  2  0  0  0  0
  7 18  1  0  0  0  0
  8 21  1  0  0  0  0
  9 21  2  0  0  0  0
 10 22  1  0  0  0  0
 11 12  2  0  0  0  0
 11 23  1  0  0  0  0
 12 24  1  0  0  0  0
 13 20  1  0  0  0  0
 13 22  2  0  0  0  0
 14 24  2  0  0  0  0
 14 25  1  0  0  0  0
 15 26  1  0  0  0  0
 16 26  1  0  0  0  0
 16 31  2  0  0  0  0
 16 32  1  0  0  0  0
 17 19  2  0  0  0  0
 17 37  1  0  0  0  0
 18 20  2  0  0  0  0
 18 38  1  0  0  0  0
 19 46  1  0  0  0  0
 20 39  1  0  0  0  0
 21 85  1  0  0  0  0
 22 86  1  0  0  0  0
 23 25  2  0  0  0  0
 23 85  1  0  0  0  0
 24 87  1  0  0  0  0
 25 88  1  0  0  0  0
 26 68  2  0  0  0  0
 27 28  1  0  0  0  0
 27 59  1  0  0  0  0
 27 69  2  0  0  0  0
 28 63  1  0  0  0  0
 28 70  2  0  0  0  0
 29 30  2  0  0  0  0
 29 60  1  0  0  0  0
 29 69  1  0  0  0  0
 30 70  1  0  0  0  0
 30 76  1  0  0  0  0
 31 71  1  0  0  0  0
 31 74  1  0  0  0  0
 32 75  1  0  0  0  0
 32 80  2  0  0  0  0
 33 47  1  0  0  0  0
 33 77  1  0  0  0  0
 33 81  2  0  0  0  0
 34 64  1  0  0  0  0
 34 72  1  0  0  0  0
 34 82  2  0  0  0  0
 35 65  1  0  0  0  0
 35 78  1  0  0  0  0
 35 83  2  0  0  0  0
 36 73  1  0  0  0  0
 36 76  1  0  0  0  0
 36 84  2  0  0  0  0
 37 40  1  0  0  0  0
 38 47  1  0  0  0  0
 39 72  1  0  0  0  0
 40 42  1  0  0  0  0
 41 43  1  0  0  0  0
 41 44  1  0  0  0  0
 42 46  1  0  0  0  0
 43 48  1  0  0  0  0
 44 73  1  0  0  0  0
 45 48  1  0  0  0  0
 45 73  1  0  0  0  0
 46 77  1  0  0  0  0
 47 72  1  0  0  0  0
 48 71  1  0  0  0  0
 49 60  1  0  0  0  0
 50 63  1  0  0  0  0
 51 63  1  0  0  0  0
 52 65  1  0  0  0  0
 53 66  1  0  0  0  0
 54 66  1  0  0  0  0
 55 66  1  0  0  0  0
 56 67  1  0  0  0  0
 57 67  1  0  0  0  0
 58 79  1  0  0  0  0
 59 61  1  0  0  0  0
 61 67  1  0  0  0  0
 62 67  1  0  0  0  0
 62 86  1  0  0  0  0
 64 66  1  0  0  0  0
 64 78  1  0  0  0  0
 65 79  1  0  0  0  0
 68 71  1  0  0  0  0
M  CHG  1  79   1
M  ISO  4  36 100  62 101  76 100  86 101
M  END
> <Batch ID>
0076

> <Smiles>
CCc1nc(CCC(C)(C)[101CH2:1][101O:1]c2ccc3c(c2)CN(C(=O)C(NC(=O)C(C)NC)C(C)(C)C)C(C(=O)NC2CCCc4ccccc42)C3)c(C(C)C)nc1[100NH:0][100C:0](=O)N1CCCC(n2nc(-c3ccc(Oc4ccc(F)cc4F)cc3)c(C(N)=O)c2N)C1

> <Shape>
0.229

> <Color>
0.186

> <Negative vol penalty>
0.000

$$$$

  -OEChem-04052318343D

 83 91  0     1  0  0  0  0  0999 V2000
  -17.1070  -31.0784   23.3836 C   0  0  0  0  0  0  0  0  0  0  0  0
  -18.4447  -30.6968   23.4056 C   0  0  0  0  0  0  0  0  0  0  0  0
  -28.3686  -15.9911   22.1064 C   0  0  0  0  0  0  0  0  0  0  0  0
  -29.6759  -16.0545   20.0756 C   0  0  0  0  0  0  0  0  0  0  0  0
  -16.1078  -30.1235   23.5669 C   0  0  0  0  0  0  0  0  0  0  0  0
  -18.7839  -29.3601   23.6121 C   0  0  0  0  0  0  0  0  0  0  0  0
  -22.3822  -27.7551   20.4308 C   0  0  0  0  0  0  0  0  0  0  0  0
  -27.9417  -14.7011   21.7914 C   0  0  0  0  0  0  0  0  0  0  0  0
  -29.2491  -14.7644   19.7606 C   0  0  0  0  0  0  0  0  0  0  0  0
  -23.6957  -28.1250   20.7163 C   0  0  0  0  0  0  0  0  0  0  0  0
  -26.2234  -11.5279   21.3418 C   0  0  0  0  0  0  0  0  0  0  0  0
  -24.8690  -11.2347   21.4998 C   0  0  0  0  0  0  0  0  0  0  0  0
  -24.0934  -25.9486   21.6776 C   0  0  0  0  0  0  0  0  0  0  0  0
  -24.3089  -12.9643   19.9086 C   0  0  0  0  0  0  0  0  0  0  0  0
  -30.4745  -27.1122   17.9372 C   0  0  0  0  0  0  0  0  0  0  0  0
  -30.9223  -26.5360   20.0167 C   0  0  0  0  0  0  0  0  0  0  0  0
  -29.2357  -16.6678   21.2485 C   0  0  0  0  0  0  0  0  0  0  0  0
  -30.8156  -18.3616   22.3174 C   0  0  0  0  0  0  0  0  0  0  0  0
  -16.4346  -28.7729   23.7661 C   0  0  0  0  0  0  0  0  0  0  0  0
  -21.9104  -26.4808   20.7769 C   0  0  0  0  0  0  0  0  0  0  0  0
  -17.7881  -28.3864   23.7996 C   0  0  0  0  0  0  0  0  0  0  0  0
  -22.7742  -25.5640   21.3930 C   0  0  0  0  0  0  0  0  0  0  0  0
  -28.3820  -14.0877   20.6185 C   0  0  0  0  0  0  0  0  0  0  0  0
  -24.5507  -27.2228   21.3424 C   0  0  0  0  0  0  0  0  0  0  0  0
  -26.6207  -12.5394   20.4673 C   0  0  0  0  0  0  0  0  0  0  0  0
  -23.9117  -11.9528   20.7832 C   0  0  0  0  0  0  0  0  0  0  0  0
  -25.6634  -13.2576   19.7506 C   0  0  0  0  0  0  0  0  0  0  0  0
  -29.6765  -18.0006   21.5731 C   0  0  0  0  0  0  0  0  0  0  0  0
  -30.8680  -25.7975   18.0212 C   0  0  0  0  0  0  0  0  0  0  0  0
  -30.7888  -19.7346   22.3420 C   0  0  0  0  0  0  0  0  0  0  0  0
  -31.8091  -17.5302   22.9316 C   0  0  0  0  0  0  0  0  0  0  0  0
  -19.6280  -25.3785   22.6951 C   0  0  0  0  0  0  0  0  0  0  0  0
  -20.4529  -22.5243   21.3931 C   0  0  0  0  0  0  0  0  0  0  0  0
  -22.8239  -20.6277   19.8349 C   0  0  0  0  0  0  0  0  0  0  0  0
  -28.3660  -23.8311   18.7088 C   0  0  0  0  0  0  0  0  0  0  0  0
  -15.3212  -27.7845   24.0068 C   0  0  0  0  0  0  0  0  0  0  0  0
  -20.4986  -26.0878   20.4379 C   0  0  0  0  0  0  0  0  0  0  0  0
  -22.3225  -24.1767   21.7668 C   0  0  0  0  0  0  0  0  0  0  0  0
  -15.7533  -26.3292   23.8461 C   0  0  0  0  0  0  0  0  0  0  0  0
  -27.7458  -23.4236   22.1911 C   0  0  0  0  0  0  0  0  0  0  0  0
  -17.0687  -26.0791   24.5769 C   0  0  0  0  0  0  0  0  0  0  0  0
  -28.2731  -22.0202   22.4947 C   0  0  0  0  0  0  0  0  0  0  0  0
  -27.0977  -23.4965   20.8103 C   0  0  0  0  0  0  0  0  0  0  0  0
  -28.4735  -21.6168   20.0056 C   0  0  0  0  0  0  0  0  0  0  0  0
  -18.1952  -26.9422   23.9962 C   0  0  1  0  0  0  0  0  0  0  0  0
  -19.9738  -24.9432   21.2992 C   0  0  1  0  0  0  0  0  0  0  0  0
  -29.1859  -21.5074   21.3646 C   0  0  2  0  0  0  0  0  0  0  0  0
  -32.1537  -23.8055   17.1827 C   0  0  0  0  0  0  0  0  0  0  0  0
  -23.2192  -18.3207   18.9299 C   0  0  0  0  0  0  0  0  0  0  0  0
  -20.8144  -21.4741   24.2350 C   0  0  0  0  0  0  0  0  0  0  0  0
  -22.0908  -19.5415   23.2840 C   0  0  0  0  0  0  0  0  0  0  0  0
  -19.6972  -19.8778   22.6672 C   0  0  0  0  0  0  0  0  0  0  0  0
  -23.2515  -21.6514   17.0911 C   0  0  0  0  0  0  0  0  0  0  0  0
  -28.6710  -29.2390   19.7873 C   0  0  0  0  0  0  0  0  0  0  0  0
  -27.9453  -28.2476   20.6984 C   0  0  0  0  0  0  0  0  0  0  0  0
  -30.1762  -28.9678   19.6838 C   0  0  0  0  0  0  0  0  0  0  0  0
  -29.7042  -24.0195   16.6273 C   0  0  0  0  0  0  0  0  0  0  0  0
  -26.4491  -28.5264   20.7487 C   0  0  0  0  0  0  0  0  0  1  0  0
  -31.0051  -24.8172   16.9333 C   0  0  1  0  0  0  0  0  0  0  0  0
  -21.4495  -21.4424   21.7327 C   0  0  1  0  0  0  0  0  0  0  0  0
  -22.7533  -19.7327   18.6107 C   0  0  2  0  0  0  0  0  0  0  0  0
  -21.0212  -20.6107   22.9746 C   0  0  0  0  0  0  0  0  0  0  0  0
  -31.1450  -25.4449   19.3183 N   0  0  0  0  0  0  0  0  0  0  0  0
  -28.9770  -19.0589   21.1551 N   0  0  0  0  0  0  0  0  0  0  0  0
  -30.5138  -27.5720   19.2234 N   0  0  0  0  0  0  0  0  0  0  0  0
  -29.6783  -20.0984   21.6386 N   0  0  0  0  0  0  0  0  0  0  0  0
  -20.9313  -23.8419   21.4202 N   0  0  0  0  0  0  0  0  0  0  0  0
  -28.0158  -22.9974   19.7837 N   0  0  0  0  0  0  0  0  0  0  0  0
  -31.6069  -20.6542   22.8965 N   0  0  0  0  0  0  0  0  0  0  0  0
  -31.6851  -16.1395   22.8093 N   0  0  0  0  0  0  0  0  0  0  0  0
  -18.6751  -26.3775   22.7531 N   0  0  0  0  0  0  0  0  0  0  0  0
  -21.6263  -20.6543   20.5178 N   0  0  0  0  0  0  0  0  0  0  0  0
  -29.2460  -23.2826   17.7839 N   0  0  0  0  0  0  0  0  0  0  0  0
  -23.6130  -20.2763   17.5215 N   0  3  0  0  0  0  0  0  0  0  0  0
  -32.7691  -18.0059   23.5840 O   0  0  0  0  0  0  0  0  0  0  0  0
  -20.1835  -24.8463   23.6490 O   0  0  0  0  0  0  0  0  0  0  0  0
  -19.2945  -22.2112   21.1072 O   0  0  0  0  0  0  0  0  0  0  0  0
  -23.8409  -21.2388   20.1555 O   0  0  0  0  0  0  0  0  0  0  0  0
  -27.9310  -24.9812   18.5856 O   0  0  0  0  0  0  0  0  0  0  0  0
  -27.9658  -12.8289   20.3109 O   0  0  0  0  0  0  0  0  0  0  0  0
  -25.8331  -27.5815   21.6228 O   0  0  0  0  0  0  0  0  0  1  0  0
  -22.6111  -11.6701   20.9338 F   0  0  0  0  0  0  0  0  0  0  0  0
  -26.0390  -14.2296   18.9081 F   0  0  0  0  0  0  0  0  0  0  0  0
  1  2  1  0  0  0  0
  1  5  2  0  0  0  0
  2  6  2  0  0  0  0
  3  8  2  0  0  0  0
  3 17  1  0  0  0  0
  4  9  1  0  0  0  0
  4 17  2  0  0  0  0
  5 19  1  0  0  0  0
  6 21  1  0  0  0  0
  7 10  2  0  0  0  0
  7 20  1  0  0  0  0
  8 23  1  0  0  0  0
  9 23  2  0  0  0  0
 10 24  1  0  0  0  0
 11 12  2  0  0  0  0
 11 25  1  0  0  0  0
 12 26  1  0  0  0  0
 13 22  1  0  0  0  0
 13 24  2  0  0  0  0
 14 26  2  0  0  0  0
 14 27  1  0  0  0  0
 15 29  2  0  0  0  0
 15 65  1  0  0  0  0
 16 63  2  0  0  0  0
 16 65  1  0  0  0  0
 17 28  1  0  0  0  0
 18 28  1  0  0  0  0
 18 30  2  0  0  0  0
 18 31  1  0  0  0  0
 19 21  2  0  0  0  0
 19 36  1  0  0  0  0
 20 22  2  0  0  0  0
 20 37  1  0  0  0  0
 21 45  1  0  0  0  0
 22 38  1  0  0  0  0
 23 80  1  0  0  0  0
 24 81  1  0  0  0  0
 25 27  2  0  0  0  0
 25 80  1  0  0  0  0
 26 82  1  0  0  0  0
 27 83  1  0  0  0  0
 28 64  2  0  0  0  0
 29 59  1  0  0  0  0
 29 63  1  0  0  0  0
 30 66  1  0  0  0  0
 30 69  1  0  0  0  0
 31 70  1  0  0  0  0
 31 75  2  0  0  0  0
 32 46  1  0  0  0  0
 32 71  1  0  0  0  0
 32 76  2  0  0  0  0
 33 60  1  0  0  0  0
 33 67  1  0  0  0  0
 33 77  2  0  0  0  0
 34 61  1  0  0  0  0
 34 72  1  0  0  0  0
 34 78  2  0  0  0  0
 35 68  1  0  0  0  0
 35 73  1  0  0  0  0
 35 79  2  0  0  0  0
 36 39  1  0  0  0  0
 37 46  1  0  0  0  0
 38 67  1  0  0  0  0
 39 41  1  0  0  0  0
 40 42  1  0  0  0  0
 40 43  1  0  0  0  0
 41 45  1  0  0  0  0
 42 47  1  0  0  0  0
 43 68  1  0  0  0  0
 44 47  1  0  0  0  0
 44 68  1  0  0  0  0
 45 71  1  0  0  0  0
 46 67  1  0  0  0  0
 47 66  1  0  0  0  0
 48 59  1  0  0  0  0
 49 61  1  0  0  0  0
 50 62  1  0  0  0  0
 51 62  1  0  0  0  0
 52 62  1  0  0  0  0
 53 74  1  0  0  0  0
 54 55  1  0  0  0  0
 54 56  1  0  0  0  0
 55 58  1  0  0  0  0
 56 65  1  0  0  0  0
 57 59  1  0  0  0  0
 57 73  1  0  0  0  0
 58 81  1  0  0  0  0
 60 62  1  0  0  0  0
 60 72  1  0  0  0  0
 61 74  1  0  0  0  0
 64 66  1  0  0  0  0
M  CHG  1  74   1
M  ISO  4  35 100  58 101  73 100  81 101
M  END
> <Batch ID>
0076

> <Smiles>
CNC(C)C(=O)NC(C(=O)N1Cc2cc([101O:1][101CH2:1]CCCn3cnc(C(C)C[100NH:0][100C:0](=O)N4CCCC(n5nc(-c6ccc(Oc7ccc(F)cc7F)cc6)c(C(N)=O)c5N)C4)c3)ccc2CC1C(=O)NC1CCCc2ccccc21)C(C)(C)C

> <Shape>
0.239

> <Color>
0.046

> <Negative vol penalty>
0.000

$$$$

  -OEChem-04052318343D

 83 91  0     1  0  0  0  0  0999 V2000
  -30.6672  -10.3501   17.1105 C   0  0  0  0  0  0  0  0  0  0  0  0
  -30.1011  -11.2407   16.2040 C   0  0  0  0  0  0  0  0  0  0  0  0
  -27.0314  -26.9380   20.0170 C   0  0  0  0  0  0  0  0  0  0  0  0
  -24.9617  -28.1340   19.6659 C   0  0  0  0  0  0  0  0  0  0  0  0
  -30.5293  -10.5698   18.4805 C   0  0  0  0  0  0  0  0  0  0  0  0
  -29.3958  -12.3510   16.6670 C   0  0  0  0  0  0  0  0  0  0  0  0
  -29.1549  -17.8986   14.0841 C   0  0  0  0  0  0  0  0  0  0  0  0
  -27.5967  -28.0818   20.5807 C   0  0  0  0  0  0  0  0  0  0  0  0
  -25.5270  -29.2777   20.2297 C   0  0  0  0  0  0  0  0  0  0  0  0
  -28.2126  -18.5079   13.2566 C   0  0  0  0  0  0  0  0  0  0  0  0
  -26.2020  -30.4539   23.3251 C   0  0  0  0  0  0  0  0  0  0  0  0
  -25.4367  -31.1650   24.2494 C   0  0  0  0  0  0  0  0  0  0  0  0
  -27.2114  -19.5609   15.1822 C   0  0  0  0  0  0  0  0  0  0  0  0
  -25.5408  -33.1190   22.8323 C   0  0  0  0  0  0  0  0  0  0  0  0
  -20.2588  -18.1979   13.4494 C   0  0  0  0  0  0  0  0  0  0  0  0
  -25.7139  -26.9641   19.5595 C   0  0  0  0  0  0  0  0  0  0  0  0
  -24.4267  -24.7634   19.6457 C   0  0  0  0  0  0  0  0  0  0  0  0
  -29.8302  -11.6885   18.9604 C   0  0  0  0  0  0  0  0  0  0  0  0
  -29.1257  -18.1076   15.4704 C   0  0  0  0  0  0  0  0  0  0  0  0
  -29.2473  -12.5851   18.0446 C   0  0  0  0  0  0  0  0  0  0  0  0
  -28.1560  -18.9551   16.0248 C   0  0  0  0  0  0  0  0  0  0  0  0
  -21.1179  -19.2643   13.3436 C   0  0  0  0  0  0  0  0  0  0  0  0
  -26.8446  -29.2516   20.6871 C   0  0  0  0  0  0  0  0  0  0  0  0
  -27.2389  -19.3369   13.8059 C   0  0  0  0  0  0  0  0  0  0  0  0
  -26.6368  -31.0754   22.1544 C   0  0  0  0  0  0  0  0  0  0  0  0
  -25.1061  -32.4976   24.0030 C   0  0  0  0  0  0  0  0  0  0  0  0
  -26.3062  -32.4079   21.9080 C   0  0  0  0  0  0  0  0  0  0  0  0
  -25.1296  -25.7831   18.9765 C   0  0  0  0  0  0  0  0  0  0  0  0
  -20.8887  -20.0180   14.5103 C   0  0  0  0  0  0  0  0  0  0  0  0
  -24.0815  -23.8770   18.6549 C   0  0  0  0  0  0  0  0  0  0  0  0
  -24.1136  -24.6295   21.0385 C   0  0  0  0  0  0  0  0  0  0  0  0
  -28.7207  -16.2422   18.0120 C   0  0  0  0  0  0  0  0  0  0  0  0
  -29.4201  -18.9626   19.6345 C   0  0  0  0  0  0  0  0  0  0  0  0
  -29.5068  -22.3740   19.6695 C   0  0  0  0  0  0  0  0  0  0  0  0
  -21.8874  -23.3013   13.4423 C   0  0  0  0  0  0  0  0  0  0  0  0
  -29.6672  -11.8584   20.4501 C   0  0  0  0  0  0  0  0  0  0  0  0
  -30.1656  -17.4643   16.3463 C   0  0  0  0  0  0  0  0  0  0  0  0
  -28.0940  -19.2282   17.5047 C   0  0  0  0  0  0  0  0  0  0  0  0
  -29.2246  -13.2612   20.8583 C   0  0  0  0  0  0  0  0  0  0  0  0
  -25.5589  -23.5580   13.8372 C   0  0  0  0  0  0  0  0  0  0  0  0
  -28.0712  -13.7340   19.9791 C   0  0  0  0  0  0  0  0  0  0  0  0
  -25.7028  -24.1439   15.2408 C   0  0  0  0  0  0  0  0  0  0  0  0
  -24.2470  -23.9759   13.1799 C   0  0  0  0  0  0  0  0  0  0  0  0
  -23.1837  -24.2484   15.3956 C   0  0  0  0  0  0  0  0  0  0  0  0
  -28.4960  -13.8143   18.5079 C   0  0  1  0  0  0  0  0  0  0  0  0
  -29.7262  -17.3387   17.8018 C   0  0  1  0  0  0  0  0  0  0  0  0
  -24.4739  -23.8086   16.1038 C   0  0  2  0  0  0  0  0  0  0  0  0
  -30.0910  -24.3146   21.1495 C   0  0  0  0  0  0  0  0  0  0  0  0
  -26.8303  -18.5495   21.1943 C   0  0  0  0  0  0  0  0  0  0  0  0
  -26.9825  -20.9338   21.9426 C   0  0  0  0  0  0  0  0  0  0  0  0
  -28.7699  -19.3131   22.5761 C   0  0  0  0  0  0  0  0  0  0  0  0
  -18.5804  -17.5003   15.1743 C   0  0  0  0  0  0  0  0  0  0  0  0
  -19.6182  -22.5004   13.9797 C   0  0  0  0  0  0  0  0  0  0  0  0
  -31.5955  -23.3214   17.7990 C   0  0  0  0  0  0  0  0  0  0  0  0
  -22.0849  -19.5518   12.2227 C   0  0  0  0  0  0  0  0  0  0  0  0
  -21.5426  -21.2742   14.9169 C   0  0  0  0  0  0  0  0  0  0  0  0
  -23.5442  -19.2341   12.5673 C   0  0  0  0  0  0  0  0  0  0  0  0
  -24.5179  -19.6039   11.4474 C   0  0  0  0  0  0  0  0  0  0  0  0
  -25.9509  -19.2378   11.8091 C   0  0  0  0  0  0  0  0  0  1  0  0
  -28.6163  -20.1164   20.1838 C   0  0  1  0  0  0  0  0  0  0  0  0
  -30.5925  -23.3498   20.0863 C   0  0  2  0  0  0  0  0  0  0  0  0
  -27.7995  -19.7217   21.4465 C   0  0  0  0  0  0  0  0  0  0  0  0
  -25.2263  -25.5657   17.6622 N   0  0  0  0  0  0  0  0  0  0  0  0
  -19.9569  -19.4764   15.2992 N   0  0  0  0  0  0  0  0  0  0  0  0
  -19.5929  -18.3711   14.6270 N   0  0  0  0  0  0  0  0  0  0  0  0
  -24.5796  -24.3992   17.4976 N   0  0  0  0  0  0  0  0  0  0  0  0
  -29.1287  -18.5710   18.3201 N   0  0  0  0  0  0  0  0  0  0  0  0
  -23.0992  -23.6853   14.0398 N   0  0  0  0  0  0  0  0  0  0  0  0
  -23.4037  -22.7097   18.6695 N   0  0  0  0  0  0  0  0  0  0  0  0
  -24.5438  -25.6311   21.9194 N   0  0  0  0  0  0  0  0  0  0  0  0
  -29.2819  -15.0067   18.2731 N   0  0  0  0  0  0  0  0  0  0  0  0
  -29.5619  -21.2061   20.4003 N   0  0  0  0  0  0  0  0  0  0  0  0
  -21.0597  -22.4360   14.1737 N   0  0  0  0  0  0  0  0  0  0  0  0
  -31.0546  -24.1429   18.9123 N   0  3  0  0  0  0  0  0  0  0  0  0
  -23.4855  -23.6423   21.4909 O   0  0  0  0  0  0  0  0  0  0  0  0
  -27.5242  -16.4983   17.9440 O   0  0  0  0  0  0  0  0  0  0  0  0
  -30.2798  -18.4330   20.3431 O   0  0  0  0  0  0  0  0  0  0  0  0
  -28.6893  -22.6245   18.7867 O   0  0  0  0  0  0  0  0  0  0  0  0
  -21.5682  -23.7010   12.3153 O   0  0  0  0  0  0  0  0  0  0  0  0
  -27.3958  -30.3678   21.2374 O   0  0  0  0  0  0  0  0  0  0  0  0
  -26.3176  -19.9323   13.0006 O   0  0  0  0  0  0  0  0  0  1  0  0
  -24.3699  -33.1799   24.8899 F   0  0  0  0  0  0  0  0  0  0  0  0
  -26.7199  -33.0099   20.7846 F   0  0  0  0  0  0  0  0  0  0  0  0
  1  2  1  0  0  0  0
  1  5  2  0  0  0  0
  2  6  2  0  0  0  0
  3  8  2  0  0  0  0
  3 16  1  0  0  0  0
  4  9  1  0  0  0  0
  4 16  2  0  0  0  0
  5 18  1  0  0  0  0
  6 20  1  0  0  0  0
  7 10  2  0  0  0  0
  7 19  1  0  0  0  0
  8 23  1  0  0  0  0
  9 23  2  0  0  0  0
 10 24  1  0  0  0  0
 11 12  2  0  0  0  0
 11 25  1  0  0  0  0
 12 26  1  0  0  0  0
 13 21  1  0  0  0  0
 13 24  2  0  0  0  0
 14 26  2  0  0  0  0
 14 27  1  0  0  0  0
 15 22  2  0  0  0  0
 15 65  1  0  0  0  0
 16 28  1  0  0  0  0
 17 28  1  0  0  0  0
 17 30  2  0  0  0  0
 17 31  1  0  0  0  0
 18 20  2  0  0  0  0
 18 36  1  0  0  0  0
 19 21  2  0  0  0  0
 19 37  1  0  0  0  0
 20 45  1  0  0  0  0
 21 38  1  0  0  0  0
 22 29  1  0  0  0  0
 22 55  1  0  0  0  0
 23 80  1  0  0  0  0
 24 81  1  0  0  0  0
 25 27  2  0  0  0  0
 25 80  1  0  0  0  0
 26 82  1  0  0  0  0
 27 83  1  0  0  0  0
 28 63  2  0  0  0  0
 29 56  1  0  0  0  0
 29 64  2  0  0  0  0
 30 66  1  0  0  0  0
 30 69  1  0  0  0  0
 31 70  1  0  0  0  0
 31 75  2  0  0  0  0
 32 46  1  0  0  0  0
 32 71  1  0  0  0  0
 32 76  2  0  0  0  0
 33 60  1  0  0  0  0
 33 67  1  0  0  0  0
 33 77  2  0  0  0  0
 34 61  1  0  0  0  0
 34 72  1  0  0  0  0
 34 78  2  0  0  0  0
 35 68  1  0  0  0  0
 35 73  1  0  0  0  0
 35 79  2  0  0  0  0
 36 39  1  0  0  0  0
 37 46  1  0  0  0  0
 38 67  1  0  0  0  0
 39 41  1  0  0  0  0
 40 42  1  0  0  0  0
 40 43  1  0  0  0  0
 41 45  1  0  0  0  0
 42 47  1  0  0  0  0
 43 68  1  0  0  0  0
 44 47  1  0  0  0  0
 44 68  1  0  0  0  0
 45 71  1  0  0  0  0
 46 67  1  0  0  0  0
 47 66  1  0  0  0  0
 48 61  1  0  0  0  0
 49 62  1  0  0  0  0
 50 62  1  0  0  0  0
 51 62  1  0  0  0  0
 52 65  1  0  0  0  0
 53 73  1  0  0  0  0
 54 74  1  0  0  0  0
 55 57  1  0  0  0  0
 56 73  1  0  0  0  0
 57 58  1  0  0  0  0
 58 59  1  0  0  0  0
 59 81  1  0  0  0  0
 60 62  1  0  0  0  0
 60 72  1  0  0  0  0
 61 74  1  0  0  0  0
 63 66  1  0  0  0  0
 64 65  1  0  0  0  0
M  CHG  1  74   1
M  ISO  4  35 100  59 101  73 100  81 101
M  END
> <Batch ID>
0076

> <Smiles>
CNC(C)C(=O)NC(C(=O)N1Cc2cc([101O:1][101CH2:1]CCCc3cn(C)nc3C[100N:0](C)[100C:0](=O)N3CCCC(n4nc(-c5ccc(Oc6ccc(F)cc6F)cc5)c(C(N)=O)c4N)C3)ccc2CC1C(=O)NC1CCCc2ccccc21)C(C)(C)C

> <Shape>
0.193

> <Color>
0.063

> <Negative vol penalty>
0.000

$$$$

  -OEChem-04052318343D

 86 94  0     1  0  0  0  0  0999 V2000
  -33.2647  -31.4716   26.7647 C   0  0  0  0  0  0  0  0  0  0  0  0
  -33.2613  -30.4097   25.8660 C   0  0  0  0  0  0  0  0  0  0  0  0
  -23.0656   -9.8285   20.0557 C   0  0  0  0  0  0  0  0  0  0  0  0
  -23.7960   -9.9711   22.3542 C   0  0  0  0  0  0  0  0  0  0  0  0
  -32.0903  -31.8262   27.4274 C   0  0  0  0  0  0  0  0  0  0  0  0
  -32.0838  -29.7011   25.6301 C   0  0  0  0  0  0  0  0  0  0  0  0
  -30.2885  -27.2024   20.3349 C   0  0  0  0  0  0  0  0  0  0  0  0
  -22.2992   -8.7059   20.3689 C   0  0  0  0  0  0  0  0  0  0  0  0
  -23.0296   -8.8485   22.6674 C   0  0  0  0  0  0  0  0  0  0  0  0
  -30.3574  -25.9004   19.8411 C   0  0  0  0  0  0  0  0  0  0  0  0
  -19.7809   -8.1432   23.2751 C   0  0  0  0  0  0  0  0  0  0  0  0
  -19.0084   -8.1910   24.4355 C   0  0  0  0  0  0  0  0  0  0  0  0
  -28.0967  -25.5053   20.5845 C   0  0  0  0  0  0  0  0  0  0  0  0
  -20.2073   -6.2854   25.3121 C   0  0  0  0  0  0  0  0  0  0  0  0
  -23.8141  -10.4610   21.0484 C   0  0  0  0  0  0  0  0  0  0  0  0
  -24.2001  -12.9674   20.7711 C   0  0  0  0  0  0  0  0  0  0  0  0
  -30.8956  -31.1278   27.1923 C   0  0  0  0  0  0  0  0  0  0  0  0
  -29.1251  -27.6629   20.9680 C   0  0  0  0  0  0  0  0  0  0  0  0
  -30.8926  -30.0459   26.2912 C   0  0  0  0  0  0  0  0  0  0  0  0
  -28.0147  -26.8144   21.0832 C   0  0  0  0  0  0  0  0  0  0  0  0
  -22.2811   -8.2160   21.6747 C   0  0  0  0  0  0  0  0  0  0  0  0
  -29.2624  -25.0507   19.9684 C   0  0  0  0  0  0  0  0  0  0  0  0
  -20.7666   -7.1664   23.1331 C   0  0  0  0  0  0  0  0  0  0  0  0
  -19.2217   -7.2621   25.4540 C   0  0  0  0  0  0  0  0  0  0  0  0
  -20.9798   -6.2376   24.1516 C   0  0  0  0  0  0  0  0  0  0  0  0
  -24.6065  -11.6203   20.7253 C   0  0  0  0  0  0  0  0  0  0  0  0
  -28.9401  -19.1693   18.1020 C   0  0  0  0  0  0  0  0  0  0  0  0
  -28.9136  -19.3929   19.4610 C   0  0  0  0  0  0  0  0  0  0  0  0
  -28.4456  -21.6002   19.0889 C   0  0  0  0  0  0  0  0  0  0  0  0
  -28.4728  -21.3769   17.7298 C   0  0  0  0  0  0  0  0  0  0  0  0
  -25.3094  -13.6742   20.3756 C   0  0  0  0  0  0  0  0  0  0  0  0
  -22.9333  -13.5295   21.1383 C   0  0  0  0  0  0  0  0  0  0  0  0
  -28.4249  -28.7148   23.8847 C   0  0  0  0  0  0  0  0  0  0  0  0
  -25.5365  -29.3345   22.5447 C   0  0  0  0  0  0  0  0  0  0  0  0
  -23.2713  -28.6342   20.0900 C   0  0  0  0  0  0  0  0  0  0  0  0
  -30.8067  -14.6151   20.5742 C   0  0  0  0  0  0  0  0  0  0  0  0
  -29.6621  -31.5177   27.9676 C   0  0  0  0  0  0  0  0  0  0  0  0
  -29.0573  -29.0786   21.4714 C   0  0  0  0  0  0  0  0  0  0  0  0
  -26.7353  -27.2668   21.7364 C   0  0  0  0  0  0  0  0  0  0  0  0
  -28.3703  -30.9546   27.3806 C   0  0  0  0  0  0  0  0  0  0  0  0
  -29.6596  -12.1002   18.3301 C   0  0  0  0  0  0  0  0  0  0  0  0
  -28.5364  -29.4758   27.0454 C   0  0  0  0  0  0  0  0  0  0  0  0
  -28.2120  -11.8582   18.7610 C   0  0  0  0  0  0  0  0  0  0  0  0
  -30.5649  -12.3833   19.5269 C   0  0  0  0  0  0  0  0  0  0  0  0
  -28.6581  -13.2327   20.8371 C   0  0  0  0  0  0  0  0  0  0  0  0
  -29.6295  -29.2687   25.9901 C   0  0  1  0  0  0  0  0  0  0  0  0
  -28.0035  -29.2771   22.5566 C   0  0  1  0  0  0  0  0  0  0  0  0
  -27.6964  -12.9982   19.6597 C   0  0  2  0  0  0  0  0  0  0  0  0
  -27.9462  -17.1222   17.0494 C   0  0  0  0  0  0  0  0  0  0  0  0
  -26.9799  -22.2318   15.8876 C   0  0  0  0  0  0  0  0  0  0  0  0
  -29.4472  -22.7479   15.8524 C   0  0  0  0  0  0  0  0  0  0  0  0
  -20.9858  -29.2768   19.2770 C   0  0  0  0  0  0  0  0  0  0  0  0
  -24.2800  -27.7199   24.8084 C   0  0  0  0  0  0  0  0  0  0  0  0
  -22.1770  -27.5915   23.4559 C   0  0  0  0  0  0  0  0  0  0  0  0
  -23.0429  -29.8079   24.2048 C   0  0  0  0  0  0  0  0  0  0  0  0
  -24.3306  -29.5575   17.4853 C   0  0  0  0  0  0  0  0  0  0  0  0
  -29.2142  -17.8153   17.5424 C   0  0  0  0  0  0  0  0  0  0  0  0
  -29.1581  -18.2917   20.4351 C   0  0  0  0  0  0  0  0  0  0  0  0
  -28.1684  -22.9628   19.6523 C   0  0  0  0  0  0  0  0  0  1  0  0
  -30.6445  -17.9338   20.6352 C   0  0  0  0  0  0  0  0  0  0  0  0
  -30.8931  -16.8396   21.6712 C   0  0  0  0  0  0  0  0  0  0  0  0
  -28.2286  -22.4784   16.7560 C   0  0  0  0  0  0  0  0  0  0  0  0
  -24.2522  -28.5611   22.3675 C   0  0  1  0  0  0  0  0  0  0  0  0
  -22.4796  -29.5380   19.1623 C   0  0  2  0  0  0  0  0  0  0  0  0
  -23.4626  -28.4107   23.6985 C   0  0  0  0  0  0  0  0  0  0  0  0
  -25.8748  -11.4774   20.3317 N   0  0  0  0  0  0  0  0  0  0  0  0
  -28.6658  -20.6123   19.9788 N   0  0  0  0  0  0  0  0  0  0  0  0
  -28.7202  -20.1573   17.2120 N   0  0  0  0  0  0  0  0  0  0  0  0
  -26.2750  -12.7438   20.1264 N   0  0  0  0  0  0  0  0  0  0  0  0
  -26.7204  -28.6579   22.2184 N   0  0  0  0  0  0  0  0  0  0  0  0
  -30.0205  -13.4755   20.3372 N   0  0  0  0  0  0  0  0  0  0  0  0
  -25.5432  -14.9947   20.2201 N   0  0  0  0  0  0  0  0  0  0  0  0
  -21.9019  -12.6603   21.5192 N   0  0  0  0  0  0  0  0  0  0  0  0
  -29.1307  -29.6032   24.6734 N   0  0  0  0  0  0  0  0  0  0  0  0
  -23.5122  -29.2363   21.3069 N   0  0  0  0  0  0  0  0  0  0  0  0
  -30.2126  -15.6058   21.3465 N   0  0  0  0  0  0  0  0  0  0  0  0
  -22.8887  -29.3136   17.7470 N   0  3  0  0  0  0  0  0  0  0  0  0
  -22.7172  -14.7648   21.1132 O   0  0  0  0  0  0  0  0  0  0  0  0
  -28.1302  -27.5608   24.1731 O   0  0  0  0  0  0  0  0  0  0  0  0
  -25.4905  -30.4984   22.9506 O   0  0  0  0  0  0  0  0  0  0  0  0
  -23.6362  -27.5054   19.7688 O   0  0  0  0  0  0  0  0  0  0  0  0
  -31.9512  -14.7427   20.1261 O   0  0  0  0  0  0  0  0  0  0  0  0
  -21.5332   -7.1208   21.9808 O   0  0  0  0  0  0  0  0  0  0  0  0
  -29.3272  -23.7792   19.4879 O   0  0  0  0  0  0  0  0  0  1  0  0
  -18.4808   -7.3091   26.5690 F   0  0  0  0  0  0  0  0  0  0  0  0
  -21.9260   -5.2976   24.0214 F   0  0  0  0  0  0  0  0  0  0  0  0
  1  2  1  0  0  0  0
  1  5  2  0  0  0  0
  2  6  2  0  0  0  0
  3  8  2  0  0  0  0
  3 15  1  0  0  0  0
  4  9  1  0  0  0  0
  4 15  2  0  0  0  0
  5 17  1  0  0  0  0
  6 19  1  0  0  0  0
  7 10  2  0  0  0  0
  7 18  1  0  0  0  0
  8 21  1  0  0  0  0
  9 21  2  0  0  0  0
 10 22  1  0  0  0  0
 11 12  2  0  0  0  0
 11 23  1  0  0  0  0
 12 24  1  0  0  0  0
 13 20  1  0  0  0  0
 13 22  2  0  0  0  0
 14 24  2  0  0  0  0
 14 25  1  0  0  0  0
 15 26  1  0  0  0  0
 16 26  1  0  0  0  0
 16 31  2  0  0  0  0
 16 32  1  0  0  0  0
 17 19  2  0  0  0  0
 17 37  1  0  0  0  0
 18 20  2  0  0  0  0
 18 38  1  0  0  0  0
 19 46  1  0  0  0  0
 20 39  1  0  0  0  0
 21 83  1  0  0  0  0
 22 84  1  0  0  0  0
 23 25  2  0  0  0  0
 23 83  1  0  0  0  0
 24 85  1  0  0  0  0
 25 86  1  0  0  0  0
 26 66  2  0  0  0  0
 27 28  2  0  0  0  0
 27 57  1  0  0  0  0
 27 68  1  0  0  0  0
 28 58  1  0  0  0  0
 28 67  1  0  0  0  0
 29 30  1  0  0  0  0
 29 59  1  0  0  0  0
 29 67  2  0  0  0  0
 30 62  1  0  0  0  0
 30 68  2  0  0  0  0
 31 69  1  0  0  0  0
 31 72  1  0  0  0  0
 32 73  1  0  0  0  0
 32 78  2  0  0  0  0
 33 47  1  0  0  0  0
 33 74  1  0  0  0  0
 33 79  2  0  0  0  0
 34 63  1  0  0  0  0
 34 70  1  0  0  0  0
 34 80  2  0  0  0  0
 35 64  1  0  0  0  0
 35 75  1  0  0  0  0
 35 81  2  0  0  0  0
 36 71  1  0  0  0  0
 36 76  1  0  0  0  0
 36 82  2  0  0  0  0
 37 40  1  0  0  0  0
 38 47  1  0  0  0  0
 39 70  1  0  0  0  0
 40 42  1  0  0  0  0
 41 43  1  0  0  0  0
 41 44  1  0  0  0  0
 42 46  1  0  0  0  0
 43 48  1  0  0  0  0
 44 71  1  0  0  0  0
 45 48  1  0  0  0  0
 45 71  1  0  0  0  0
 46 74  1  0  0  0  0
 47 70  1  0  0  0  0
 48 69  1  0  0  0  0
 49 57  1  0  0  0  0
 50 62  1  0  0  0  0
 51 62  1  0  0  0  0
 52 64  1  0  0  0  0
 53 65  1  0  0  0  0
 54 65  1  0  0  0  0
 55 65  1  0  0  0  0
 56 77  1  0  0  0  0
 58 60  1  0  0  0  0
 59 84  1  0  0  0  0
 60 61  1  0  0  0  0
 61 76  1  0  0  0  0
 63 65  1  0  0  0  0
 63 75  1  0  0  0  0
 64 77  1  0  0  0  0
 66 69  1  0  0  0  0
M  CHG  1  77   1
M  ISO  4  36 100  59 101  76 100  84 101
M  END
> <Batch ID>
0076

> <Smiles>
CCc1nc(C(C)C)c([101CH2:1][101O:1]c2ccc3c(c2)CN(C(=O)C(NC(=O)C(C)NC)C(C)(C)C)C(C(=O)NC2CCCc4ccccc42)C3)nc1CCC[100NH:0][100C:0](=O)N1CCCC(n2nc(-c3ccc(Oc4ccc(F)cc4F)cc3)c(C(N)=O)c2N)C1

> <Shape>
0.322

> <Color>
0.200

> <Negative vol penalty>
0.000

$$$$

  -OEChem-04052318343D

 85 93  0     1  0  0  0  0  0999 V2000
  -30.3196  -25.9506   16.8004 C   0  0  0  0  0  0  0  0  0  0  0  0
  -28.9313  -25.9481   16.8907 C   0  0  0  0  0  0  0  0  0  0  0  0
  -21.1398  -15.0083   21.7424 C   0  0  0  0  0  0  0  0  0  0  0  0
  -22.9242  -14.5236   20.1874 C   0  0  0  0  0  0  0  0  0  0  0  0
  -31.0880  -26.3237   17.9024 C   0  0  0  0  0  0  0  0  0  0  0  0
  -28.3107  -26.3175   18.0835 C   0  0  0  0  0  0  0  0  0  0  0  0
  -23.0014  -29.3074   18.6988 C   0  0  0  0  0  0  0  0  0  0  0  0
  -20.7986  -13.6562   21.7724 C   0  0  0  0  0  0  0  0  0  0  0  0
  -22.5831  -13.1714   20.2175 C   0  0  0  0  0  0  0  0  0  0  0  0
  -21.7039  -28.8705   18.9621 C   0  0  0  0  0  0  0  0  0  0  0  0
  -23.0536  -10.5306   22.2731 C   0  0  0  0  0  0  0  0  0  0  0  0
  -24.0899   -9.6049   22.3941 C   0  0  0  0  0  0  0  0  0  0  0  0
  -22.0292  -29.3367   21.3065 C   0  0  0  0  0  0  0  0  0  0  0  0
  -22.5663  -23.6935   21.6966 C   0  0  0  0  0  0  0  0  0  0  0  0
  -20.1779  -23.8717   21.9158 C   0  0  0  0  0  0  0  0  0  0  0  0
  -23.4507   -8.6138   20.2855 C   0  0  0  0  0  0  0  0  0  0  0  0
  -22.2026  -15.4420   20.9498 C   0  0  0  0  0  0  0  0  0  0  0  0
  -23.4680  -17.5045   21.7577 C   0  0  0  0  0  0  0  0  0  0  0  0
  -30.4763  -26.7071   19.1063 C   0  0  0  0  0  0  0  0  0  0  0  0
  -23.8277  -29.7528   19.7406 C   0  0  0  0  0  0  0  0  0  0  0  0
  -29.0717  -26.6947   19.2030 C   0  0  0  0  0  0  0  0  0  0  0  0
  -23.3359  -29.7812   21.0534 C   0  0  0  0  0  0  0  0  0  0  0  0
  -21.3696  -23.2278   22.2297 C   0  0  0  0  0  0  0  0  0  0  0  0
  -21.5203  -12.7377   21.0100 C   0  0  0  0  0  0  0  0  0  0  0  0
  -21.2186  -28.8823   20.2665 C   0  0  0  0  0  0  0  0  0  0  0  0
  -22.2157  -10.4979   21.1583 C   0  0  0  0  0  0  0  0  0  0  0  0
  -24.2885   -8.6465   21.4003 C   0  0  0  0  0  0  0  0  0  0  0  0
  -22.4144   -9.5395   20.1645 C   0  0  0  0  0  0  0  0  0  0  0  0
  -22.5551  -16.8387   20.9179 C   0  0  0  0  0  0  0  0  0  0  0  0
  -22.5180  -24.7980   20.8615 C   0  0  0  0  0  0  0  0  0  0  0  0
  -20.2365  -24.9684   21.0711 C   0  0  0  0  0  0  0  0  0  0  0  0
  -23.4456  -18.8077   21.3245 C   0  0  0  0  0  0  0  0  0  0  0  0
  -24.2650  -16.9908   22.8331 C   0  0  0  0  0  0  0  0  0  0  0  0
  -26.6005  -28.7997   20.9681 C   0  0  0  0  0  0  0  0  0  0  0  0
  -26.3094  -31.5108   22.7252 C   0  0  0  0  0  0  0  0  0  0  0  0
  -24.2616  -33.8925   24.0597 C   0  0  0  0  0  0  0  0  0  0  0  0
  -23.6804  -22.1799   16.8325 C   0  0  0  0  0  0  0  0  0  0  0  0
  -31.3496  -27.0569   20.2851 C   0  0  0  0  0  0  0  0  0  0  0  0
  -25.2157  -30.2460   19.4363 C   0  0  0  0  0  0  0  0  0  0  0  0
  -24.1759  -30.2690   22.2045 C   0  0  0  0  0  0  0  0  0  0  0  0
  -30.6067  -27.7950   21.3958 C   0  0  0  0  0  0  0  0  0  0  0  0
  -20.3234  -21.1809   18.1459 C   0  0  0  0  0  0  0  0  0  0  0  0
  -29.2800  -27.1063   21.6996 C   0  0  0  0  0  0  0  0  0  0  0  0
  -20.6936  -19.9701   19.0012 C   0  0  0  0  0  0  0  0  0  0  0  0
  -21.2974  -21.3563   16.9870 C   0  0  0  0  0  0  0  0  0  0  0  0
  -23.1045  -20.2529   18.2649 C   0  0  0  0  0  0  0  0  0  0  0  0
  -28.3611  -27.1129   20.4720 C   0  0  1  0  0  0  0  0  0  0  0  0
  -26.1462  -30.1948   20.6441 C   0  0  1  0  0  0  0  0  0  0  0  0
  -22.1594  -20.0484   19.4606 C   0  0  2  0  0  0  0  0  0  0  0  0
  -21.3641  -22.0418   23.1336 C   0  0  0  0  0  0  0  0  0  0  0  0
  -24.3098  -35.9612   25.4794 C   0  0  0  0  0  0  0  0  0  0  0  0
  -26.7020  -29.7905   25.2145 C   0  0  0  0  0  0  0  0  0  0  0  0
  -25.8086  -31.6880   26.5817 C   0  0  0  0  0  0  0  0  0  0  0  0
  -27.9044  -31.9828   25.2613 C   0  0  0  0  0  0  0  0  0  0  0  0
  -26.0862  -22.8852   17.1699 C   0  0  0  0  0  0  0  0  0  0  0  0
  -23.1394  -35.5532   21.8822 C   0  0  0  0  0  0  0  0  0  0  0  0
  -23.7826  -25.3246   20.2698 C   0  0  0  0  0  0  0  0  0  0  0  0
  -18.9638  -25.6923   20.7108 C   0  0  0  0  0  0  0  0  0  0  0  0
  -24.1569  -24.7034   18.9099 C   0  0  0  0  0  0  0  0  0  0  0  0
  -18.6095  -26.8301   21.6706 C   0  0  0  0  0  0  0  0  0  0  0  0
  -24.4126  -23.1984   18.9552 C   0  0  0  0  0  0  0  0  0  0  0  0
  -19.7142  -27.8716   21.8063 C   0  0  0  0  0  0  0  0  0  1  0  0
  -25.6860  -31.8614   24.0547 C   0  0  1  0  0  0  0  0  0  0  0  0
  -24.3479  -35.4081   24.0633 C   0  0  2  0  0  0  0  0  0  0  0  0
  -26.5098  -31.3196   25.2568 C   0  0  0  0  0  0  0  0  0  0  0  0
  -21.9936  -17.6519   20.0193 N   0  0  0  0  0  0  0  0  0  0  0  0
  -21.3798  -25.4498   20.5338 N   0  0  0  0  0  0  0  0  0  0  0  0
  -22.5551  -18.8420   20.2920 N   0  0  0  0  0  0  0  0  0  0  0  0
  -25.5284  -30.7351   21.8568 N   0  0  0  0  0  0  0  0  0  0  0  0
  -22.6906  -21.3980   17.4507 N   0  0  0  0  0  0  0  0  0  0  0  0
  -24.1009  -19.9161   21.7298 N   0  0  0  0  0  0  0  0  0  0  0  0
  -24.1665  -15.6282   23.1461 N   0  0  0  0  0  0  0  0  0  0  0  0
  -27.7500  -28.4141   20.3051 N   0  0  0  0  0  0  0  0  0  0  0  0
  -25.5112  -33.3098   24.0543 N   0  0  0  0  0  0  0  0  0  0  0  0
  -24.7249  -22.6470   17.6444 N   0  0  0  0  0  0  0  0  0  0  0  0
  -23.2101  -35.9935   23.2993 N   0  3  0  0  0  0  0  0  0  0  0  0
  -25.0292  -17.7219   23.5076 O   0  0  0  0  0  0  0  0  0  0  0  0
  -25.9568  -28.1237   21.7620 O   0  0  0  0  0  0  0  0  0  0  0  0
  -27.4447  -31.9165   22.4639 O   0  0  0  0  0  0  0  0  0  0  0  0
  -23.1925  -33.2862   24.0652 O   0  0  0  0  0  0  0  0  0  0  0  0
  -23.6383  -22.4363   15.6224 O   0  0  0  0  0  0  0  0  0  0  0  0
  -21.1878  -11.4182   21.0393 O   0  0  0  0  0  0  0  0  0  0  0  0
  -19.9528  -28.4558   20.5264 O   0  0  0  0  0  0  0  0  0  1  0  0
  -25.2847   -7.7586   21.5159 F   0  0  0  0  0  0  0  0  0  0  0  0
  -21.6135   -9.5039   19.0907 F   0  0  0  0  0  0  0  0  0  0  0  0
  1  2  1  0  0  0  0
  1  5  2  0  0  0  0
  2  6  2  0  0  0  0
  3  8  2  0  0  0  0
  3 17  1  0  0  0  0
  4  9  1  0  0  0  0
  4 17  2  0  0  0  0
  5 19  1  0  0  0  0
  6 21  1  0  0  0  0
  7 10  2  0  0  0  0
  7 20  1  0  0  0  0
  8 24  1  0  0  0  0
  9 24  2  0  0  0  0
 10 25  1  0  0  0  0
 11 12  2  0  0  0  0
 11 26  1  0  0  0  0
 12 27  1  0  0  0  0
 13 22  1  0  0  0  0
 13 25  2  0  0  0  0
 14 23  1  0  0  0  0
 14 30  2  0  0  0  0
 15 23  2  0  0  0  0
 15 31  1  0  0  0  0
 16 27  2  0  0  0  0
 16 28  1  0  0  0  0
 17 29  1  0  0  0  0
 18 29  1  0  0  0  0
 18 32  2  0  0  0  0
 18 33  1  0  0  0  0
 19 21  2  0  0  0  0
 19 38  1  0  0  0  0
 20 22  2  0  0  0  0
 20 39  1  0  0  0  0
 21 47  1  0  0  0  0
 22 40  1  0  0  0  0
 23 50  1  0  0  0  0
 24 82  1  0  0  0  0
 25 83  1  0  0  0  0
 26 28  2  0  0  0  0
 26 82  1  0  0  0  0
 27 84  1  0  0  0  0
 28 85  1  0  0  0  0
 29 66  2  0  0  0  0
 30 57  1  0  0  0  0
 30 67  1  0  0  0  0
 31 58  1  0  0  0  0
 31 67  2  0  0  0  0
 32 68  1  0  0  0  0
 32 71  1  0  0  0  0
 33 72  1  0  0  0  0
 33 77  2  0  0  0  0
 34 48  1  0  0  0  0
 34 73  1  0  0  0  0
 34 78  2  0  0  0  0
 35 63  1  0  0  0  0
 35 69  1  0  0  0  0
 35 79  2  0  0  0  0
 36 64  1  0  0  0  0
 36 74  1  0  0  0  0
 36 80  2  0  0  0  0
 37 70  1  0  0  0  0
 37 75  1  0  0  0  0
 37 81  2  0  0  0  0
 38 41  1  0  0  0  0
 39 48  1  0  0  0  0
 40 69  1  0  0  0  0
 41 43  1  0  0  0  0
 42 44  1  0  0  0  0
 42 45  1  0  0  0  0
 43 47  1  0  0  0  0
 44 49  1  0  0  0  0
 45 70  1  0  0  0  0
 46 49  1  0  0  0  0
 46 70  1  0  0  0  0
 47 73  1  0  0  0  0
 48 69  1  0  0  0  0
 49 68  1  0  0  0  0
 51 64  1  0  0  0  0
 52 65  1  0  0  0  0
 53 65  1  0  0  0  0
 54 65  1  0  0  0  0
 55 75  1  0  0  0  0
 56 76  1  0  0  0  0
 57 59  1  0  0  0  0
 58 60  1  0  0  0  0
 59 61  1  0  0  0  0
 60 62  1  0  0  0  0
 61 75  1  0  0  0  0
 62 83  1  0  0  0  0
 63 65  1  0  0  0  0
 63 74  1  0  0  0  0
 64 76  1  0  0  0  0
 66 68  1  0  0  0  0
M  CHG  1  76   1
M  ISO  4  37 100  62 101  75 100  83 101
M  END
> <Batch ID>
0076

> <Smiles>
CNC(C)C(=O)NC(C(=O)N1Cc2cc([101O:1][101CH2:1]CCc3cc(C)cc(CCC[100N:0](C)[100C:0](=O)N4CCCC(n5nc(-c6ccc(Oc7ccc(F)cc7F)cc6)c(C(N)=O)c5N)C4)n3)ccc2CC1C(=O)NC1CCCc2ccccc21)C(C)(C)C

> <Shape>
0.251

> <Color>
0.073

> <Negative vol penalty>
0.000

$$$$

  -OEChem-04052318343D

 87 95  0     1  0  0  0  0  0999 V2000
  -37.0066  -17.7179   23.7926 C   0  0  0  0  0  0  0  0  0  0  0  0
  -36.0528  -18.2300   22.9189 C   0  0  0  0  0  0  0  0  0  0  0  0
  -18.5343  -30.0408   22.8169 C   0  0  0  0  0  0  0  0  0  0  0  0
  -19.4362  -28.0149   23.7758 C   0  0  0  0  0  0  0  0  0  0  0  0
  -37.0676  -16.3454   24.0298 C   0  0  0  0  0  0  0  0  0  0  0  0
  -35.1600  -17.3696   22.2809 C   0  0  0  0  0  0  0  0  0  0  0  0
  -30.4014  -19.0999   22.3602 C   0  0  0  0  0  0  0  0  0  0  0  0
  -17.2738  -29.4474   22.7487 C   0  0  0  0  0  0  0  0  0  0  0  0
  -18.1756  -27.4215   23.7077 C   0  0  0  0  0  0  0  0  0  0  0  0
  -30.0735  -20.1035   21.4497 C   0  0  0  0  0  0  0  0  0  0  0  0
  -16.2277  -25.9735   21.3540 C   0  0  0  0  0  0  0  0  0  0  0  0
  -16.1511  -24.6688   20.8669 C   0  0  0  0  0  0  0  0  0  0  0  0
  -29.0585  -18.4564   20.0089 C   0  0  0  0  0  0  0  0  0  0  0  0
  -15.1962  -23.9420   22.9638 C   0  0  0  0  0  0  0  0  0  0  0  0
  -24.3709  -25.4987   20.8850 C   0  0  0  0  0  0  0  0  0  0  0  0
  -19.6155  -29.3245   23.3304 C   0  0  0  0  0  0  0  0  0  0  0  0
  -21.4513  -30.6803   24.4704 C   0  0  0  0  0  0  0  0  0  0  0  0
  -36.1688  -15.4687   23.4018 C   0  0  0  0  0  0  0  0  0  0  0  0
  -30.0693  -17.7633   22.0963 C   0  0  0  0  0  0  0  0  0  0  0  0
  -35.2099  -15.9838   22.5088 C   0  0  0  0  0  0  0  0  0  0  0  0
  -29.3810  -17.4381   20.9188 C   0  0  0  0  0  0  0  0  0  0  0  0
  -17.0945  -28.1378   23.1941 C   0  0  0  0  0  0  0  0  0  0  0  0
  -29.4046  -19.7815   20.2725 C   0  0  0  0  0  0  0  0  0  0  0  0
  -15.7886  -26.2626   22.6461 C   0  0  0  0  0  0  0  0  0  0  0  0
  -15.6354  -23.6530   21.6717 C   0  0  0  0  0  0  0  0  0  0  0  0
  -15.2728  -25.2468   23.4509 C   0  0  0  0  0  0  0  0  0  0  0  0
  -20.9180  -29.9367   23.4006 C   0  0  0  0  0  0  0  0  0  0  0  0
  -24.1409  -25.6739   22.2204 C   0  0  0  0  0  0  0  0  0  0  0  0
  -22.7079  -31.0383   24.0470 C   0  0  0  0  0  0  0  0  0  0  0  0
  -25.9768  -26.7917   21.6909 C   0  0  0  0  0  0  0  0  0  0  0  0
  -20.8634  -31.0172   25.7339 C   0  0  0  0  0  0  0  0  0  0  0  0
  -31.7235  -15.0807   21.6827 C   0  0  0  0  0  0  0  0  0  0  0  0
  -28.7747  -13.7300   21.6335 C   0  0  0  0  0  0  0  0  0  0  0  0
  -27.0943  -28.8614   20.9217 C   0  0  0  0  0  0  0  0  0  0  0  0
  -25.4265  -14.1017   21.0876 C   0  0  0  0  0  0  0  0  0  0  0  0
  -36.3040  -13.9877   23.6531 C   0  0  0  0  0  0  0  0  0  0  0  0
  -30.4064  -16.6959   23.1012 C   0  0  0  0  0  0  0  0  0  0  0  0
  -28.9839  -16.0211   20.5979 C   0  0  0  0  0  0  0  0  0  0  0  0
  -35.0793  -13.1831   23.2254 C   0  0  0  0  0  0  0  0  0  0  0  0
  -24.9371  -31.4298   19.6610 C   0  0  0  0  0  0  0  0  0  0  0  0
  -34.6203  -13.6083   21.8342 C   0  0  0  0  0  0  0  0  0  0  0  0
  -23.7185  -31.3584   20.5803 C   0  0  0  0  0  0  0  0  0  0  0  0
  -25.5329  -30.0472   19.4151 C   0  0  0  0  0  0  0  0  0  0  0  0
  -24.6667  -29.2333   21.5851 C   0  0  0  0  0  0  0  0  0  0  0  0
  -34.2080  -15.0852   21.8168 C   0  0  1  0  0  0  0  0  0  0  0  0
  -30.4752  -15.3000   22.4897 C   0  0  1  0  0  0  0  0  0  0  0  0
  -24.0527  -30.6123   21.8842 C   0  0  2  0  0  0  0  0  0  0  0  0
  -23.2749  -12.8102   21.0895 C   0  0  0  0  0  0  0  0  0  0  0  0
  -23.0432  -23.5996   23.1358 C   0  0  0  0  0  0  0  0  0  0  0  0
  -21.6550  -25.6370   22.6278 C   0  0  0  0  0  0  0  0  0  0  0  0
  -23.1573  -25.5996   24.6085 C   0  0  0  0  0  0  0  0  0  0  0  0
  -28.4651  -26.8670   21.3824 C   0  0  0  0  0  0  0  0  0  0  0  0
  -27.4776  -28.2421   23.2176 C   0  0  0  0  0  0  0  0  0  0  0  0
  -29.5396  -12.4565   18.9683 C   0  0  0  0  0  0  0  0  0  0  0  0
  -27.1114  -11.9921   18.5728 C   0  0  0  0  0  0  0  0  0  0  0  0
  -28.2773  -10.9538   20.5184 C   0  0  0  0  0  0  0  0  0  0  0  0
  -24.2697  -15.8073   23.2117 C   0  0  0  0  0  0  0  0  0  0  0  0
  -27.5157  -24.1988   19.5545 C   0  0  0  0  0  0  0  0  0  0  0  0
  -26.4922  -24.9077   18.6651 C   0  0  0  0  0  0  0  0  0  0  0  0
  -27.8365  -22.7984   19.0241 C   0  0  0  0  0  0  0  0  0  0  0  0
  -26.1409  -26.2910   19.2174 C   0  0  0  0  0  0  0  0  0  0  0  0
  -28.8349  -22.0616   19.9087 C   0  0  0  0  0  0  0  0  0  1  0  0
  -27.7552  -13.4271   20.5621 C   0  0  1  0  0  0  0  0  0  0  0  0
  -24.2195  -13.6789   21.9055 C   0  0  2  0  0  0  0  0  0  0  0  0
  -23.0790  -25.1685   23.0943 C   0  0  0  0  0  0  0  0  0  0  0  0
  -27.1865  -27.6439   21.8067 C   0  0  0  0  0  0  0  0  0  0  0  0
  -28.1799  -12.2339   19.6602 C   0  0  0  0  0  0  0  0  0  0  0  0
  -21.7663  -29.8281   22.3747 N   0  0  0  0  0  0  0  0  0  0  0  0
  -25.5127  -26.2016   20.5846 N   0  0  0  0  0  0  0  0  0  0  0  0
  -22.8454  -30.5083   22.7978 N   0  0  0  0  0  0  0  0  0  0  0  0
  -25.1499  -26.4777   22.6934 N   0  3  0  0  0  0  0  0  0  0  0  0
  -29.3413  -15.0122   21.6089 N   0  0  0  0  0  0  0  0  0  0  0  0
  -25.8154  -29.3623   20.6777 N   0  0  0  0  0  0  0  0  0  0  0  0
  -23.6975  -31.7516   24.6251 N   0  0  0  0  0  0  0  0  0  0  0  0
  -19.5638  -30.5689   26.0070 N   0  0  0  0  0  0  0  0  0  0  0  0
  -32.8932  -15.2498   22.3987 N   0  0  0  0  0  0  0  0  0  0  0  0
  -26.4842  -13.2325   21.2513 N   0  0  0  0  0  0  0  0  0  0  0  0
  -23.4678  -14.8764   22.3766 N   0  3  0  0  0  0  0  0  0  0  0  0
  -21.4662  -31.7097   26.5887 O   0  0  0  0  0  0  0  0  0  0  0  0
  -31.6322  -14.7788   20.4986 O   0  0  0  0  0  0  0  0  0  0  0  0
  -29.0526  -12.8632   22.4661 O   0  0  0  0  0  0  0  0  0  0  0  0
  -28.1294  -29.3528   20.4642 O   0  0  0  0  0  0  0  0  0  0  0  0
  -25.4293  -15.1009   20.3720 O   0  0  0  0  0  0  0  0  0  0  0  0
  -15.8646  -27.5586   23.1279 O   0  0  0  0  0  0  0  0  0  0  0  0
  -29.0840  -20.7591   19.3818 O   0  0  0  0  0  0  0  0  0  1  0  0
  -15.5604  -22.4004   21.2033 F   0  0  0  0  0  0  0  0  0  0  0  0
  -14.8483  -25.5185   24.6926 F   0  0  0  0  0  0  0  0  0  0  0  0
  1  2  1  0  0  0  0
  1  5  2  0  0  0  0
  2  6  2  0  0  0  0
  3  8  2  0  0  0  0
  3 16  1  0  0  0  0
  4  9  1  0  0  0  0
  4 16  2  0  0  0  0
  5 18  1  0  0  0  0
  6 20  1  0  0  0  0
  7 10  2  0  0  0  0
  7 19  1  0  0  0  0
  8 22  1  0  0  0  0
  9 22  2  0  0  0  0
 10 23  1  0  0  0  0
 11 12  2  0  0  0  0
 11 24  1  0  0  0  0
 12 25  1  0  0  0  0
 13 21  1  0  0  0  0
 13 23  2  0  0  0  0
 14 25  2  0  0  0  0
 14 26  1  0  0  0  0
 15 28  2  0  0  0  0
 15 69  1  0  0  0  0
 16 27  1  0  0  0  0
 17 27  1  0  0  0  0
 17 29  2  0  0  0  0
 17 31  1  0  0  0  0
 18 20  2  0  0  0  0
 18 36  1  0  0  0  0
 19 21  2  0  0  0  0
 19 37  1  0  0  0  0
 20 45  1  0  0  0  0
 21 38  1  0  0  0  0
 22 84  1  0  0  0  0
 23 85  1  0  0  0  0
 24 26  2  0  0  0  0
 24 84  1  0  0  0  0
 25 86  1  0  0  0  0
 26 87  1  0  0  0  0
 27 68  2  0  0  0  0
 28 65  1  0  0  0  0
 28 71  1  0  0  0  0
 29 70  1  0  0  0  0
 29 74  1  0  0  0  0
 30 66  1  0  0  0  0
 30 69  1  0  0  0  0
 30 71  2  0  0  0  0
 31 75  1  0  0  0  0
 31 79  2  0  0  0  0
 32 46  1  0  0  0  0
 32 76  1  0  0  0  0
 32 80  2  0  0  0  0
 33 63  1  0  0  0  0
 33 72  1  0  0  0  0
 33 81  2  0  0  0  0
 34 66  1  0  0  0  0
 34 73  1  0  0  0  0
 34 82  2  0  0  0  0
 35 64  1  0  0  0  0
 35 77  1  0  0  0  0
 35 83  2  0  0  0  0
 36 39  1  0  0  0  0
 37 46  1  0  0  0  0
 38 72  1  0  0  0  0
 39 41  1  0  0  0  0
 40 42  1  0  0  0  0
 40 43  1  0  0  0  0
 41 45  1  0  0  0  0
 42 47  1  0  0  0  0
 43 73  1  0  0  0  0
 44 47  1  0  0  0  0
 44 73  1  0  0  0  0
 45 76  1  0  0  0  0
 46 72  1  0  0  0  0
 47 70  1  0  0  0  0
 48 64  1  0  0  0  0
 49 65  1  0  0  0  0
 50 65  1  0  0  0  0
 51 65  1  0  0  0  0
 52 66  1  0  0  0  0
 53 66  1  0  0  0  0
 54 67  1  0  0  0  0
 55 67  1  0  0  0  0
 56 67  1  0  0  0  0
 57 78  1  0  0  0  0
 58 59  1  0  0  0  0
 58 60  1  0  0  0  0
 59 61  1  0  0  0  0
 60 62  1  0  0  0  0
 61 69  1  0  0  0  0
 62 85  1  0  0  0  0
 63 67  1  0  0  0  0
 63 77  1  0  0  0  0
 64 78  1  0  0  0  0
 68 70  1  0  0  0  0
M  CHG  2  71   1  78   1
M  ISO  4  34 100  62 101  66 100  85 101
M  END
> <Batch ID>
0076

> <Smiles>
CNC(C)C(=O)NC(C(=O)N1Cc2cc([101O:1][101CH2:1]CCCCn3cc(C(C)(C)C)nc3[100C:0](C)(C)[100C:0](=O)N3CCCC(n4nc(-c5ccc(Oc6ccc(F)cc6F)cc5)c(C(N)=O)c4N)C3)ccc2CC1C(=O)NC1CCCc2ccccc21)C(C)(C)C

> <Shape>
0.257

> <Color>
0.079

> <Negative vol penalty>
0.000

$$$$

  -OEChem-04052318343D

 82 90  0     1  0  0  0  0  0999 V2000
  -26.0383  -34.9899   25.0156 C   0  0  0  0  0  0  0  0  0  0  0  0
  -26.6075  -33.8286   24.5030 C   0  0  0  0  0  0  0  0  0  0  0  0
  -25.7558  -12.5887   21.9030 C   0  0  0  0  0  0  0  0  0  0  0  0
  -25.2509  -13.5648   19.7514 C   0  0  0  0  0  0  0  0  0  0  0  0
  -24.7087  -34.9867   25.4354 C   0  0  0  0  0  0  0  0  0  0  0  0
  -25.8476  -32.6630   24.4109 C   0  0  0  0  0  0  0  0  0  0  0  0
  -26.4416  -30.3026   19.9701 C   0  0  0  0  0  0  0  0  0  0  0  0
  -25.3397  -11.3423   21.4352 C   0  0  0  0  0  0  0  0  0  0  0  0
  -24.8348  -12.3183   19.2836 C   0  0  0  0  0  0  0  0  0  0  0  0
  -27.6030  -29.5504   19.7992 C   0  0  0  0  0  0  0  0  0  0  0  0
  -22.4162   -9.7356   20.8910 C   0  0  0  0  0  0  0  0  0  0  0  0
  -21.5912   -8.9755   21.7200 C   0  0  0  0  0  0  0  0  0  0  0  0
  -26.3637  -27.5381   20.2829 C   0  0  0  0  0  0  0  0  0  0  0  0
  -23.2440   -7.2136   21.7493 C   0  0  0  0  0  0  0  0  0  0  0  0
  -30.5138  -22.9978   19.7367 C   0  0  0  0  0  0  0  0  0  0  0  0
  -29.8787  -21.8150   19.4826 C   0  0  0  0  0  0  0  0  0  0  0  0
  -25.7113  -13.7000   21.0611 C   0  0  0  0  0  0  0  0  0  0  0  0
  -27.4389  -15.5287   21.4843 C   0  0  0  0  0  0  0  0  0  0  0  0
  -23.9294  -33.8231   25.3394 C   0  0  0  0  0  0  0  0  0  0  0  0
  -25.2329  -29.6782   20.3100 C   0  0  0  0  0  0  0  0  0  0  0  0
  -24.5068  -32.6439   24.8310 C   0  0  0  0  0  0  0  0  0  0  0  0
  -25.1879  -28.2843   20.4551 C   0  0  0  0  0  0  0  0  0  0  0  0
  -24.8792  -11.2071   20.1255 C   0  0  0  0  0  0  0  0  0  0  0  0
  -27.5648  -28.1683   19.9584 C   0  0  0  0  0  0  0  0  0  0  0  0
  -23.6551   -9.2347   20.4911 C   0  0  0  0  0  0  0  0  0  0  0  0
  -22.0051   -7.7145   22.1491 C   0  0  0  0  0  0  0  0  0  0  0  0
  -24.0690   -7.9737   20.9202 C   0  0  0  0  0  0  0  0  0  0  0  0
  -26.1405  -14.9880   21.5439 C   0  0  0  0  0  0  0  0  0  0  0  0
  -27.3233  -16.7650   22.0714 C   0  0  0  0  0  0  0  0  0  0  0  0
  -29.2099  -22.5374   21.4654 C   0  0  0  0  0  0  0  0  0  0  0  0
  -28.6419  -14.9640   20.9463 C   0  0  0  0  0  0  0  0  0  0  0  0
  -23.2415  -29.8414   22.7822 C   0  0  0  0  0  0  0  0  0  0  0  0
  -21.4139  -27.8957   20.9392 C   0  0  0  0  0  0  0  0  0  0  0  0
  -21.2556  -25.6099   18.4100 C   0  0  0  0  0  0  0  0  0  0  0  0
  -24.6073  -21.5918   22.7577 C   0  0  0  0  0  0  0  0  0  0  0  0
  -22.5105  -33.8555   25.8498 C   0  0  0  0  0  0  0  0  0  0  0  0
  -23.9832  -30.5009   20.4647 C   0  0  0  0  0  0  0  0  0  0  0  0
  -23.9110  -27.5637   20.7997 C   0  0  0  0  0  0  0  0  0  0  0  0
  -21.6638  -32.6792   25.3705 C   0  0  0  0  0  0  0  0  0  0  0  0
  -23.5236  -18.8160   24.7063 C   0  0  0  0  0  0  0  0  0  0  0  0
  -22.4275  -31.3692   25.5363 C   0  0  0  0  0  0  0  0  0  0  0  0
  -24.2097  -17.6173   24.0487 C   0  0  0  0  0  0  0  0  0  0  0  0
  -23.0952  -19.8570   23.6745 C   0  0  0  0  0  0  0  0  0  0  0  0
  -24.8559  -19.1171   22.1169 C   0  0  0  0  0  0  0  0  0  0  0  0
  -23.7077  -31.3662   24.6922 C   0  0  1  0  0  0  0  0  0  0  0  0
  -22.9181  -29.8155   21.3151 C   0  0  1  0  0  0  0  0  0  0  0  0
  -25.3561  -18.0660   23.1225 C   0  0  2  0  0  0  0  0  0  0  0  0
  -19.6279  -24.1697   17.1554 C   0  0  0  0  0  0  0  0  0  0  0  0
  -21.2917  -25.9753   23.3070 C   0  0  0  0  0  0  0  0  0  0  0  0
  -20.5016  -24.1955   21.7334 C   0  0  0  0  0  0  0  0  0  0  0  0
  -19.1325  -26.2523   22.0761 C   0  0  0  0  0  0  0  0  0  0  0  0
  -21.8765  -26.9436   15.8421 C   0  0  0  0  0  0  0  0  0  0  0  0
  -28.5076  -22.6140   22.7704 C   0  0  0  0  0  0  0  0  0  0  0  0
  -27.2858  -23.5587   22.7914 C   0  0  0  0  0  0  0  0  0  0  0  0
  -30.2820  -25.9543   20.8229 C   0  0  0  0  0  0  0  0  0  0  0  0
  -30.5213  -24.6918   21.6540 C   0  0  0  0  0  0  0  0  0  0  0  0
  -26.2075  -23.2100   21.7677 C   0  0  0  0  0  0  0  0  0  0  0  0
  -28.8072  -26.2298   20.5539 C   0  0  0  0  0  0  0  0  0  1  0  0
  -21.2864  -26.4021   20.7607 C   0  0  1  0  0  0  0  0  0  0  0  0
  -20.3463  -25.5094   17.1985 C   0  0  2  0  0  0  0  0  0  0  0  0
  -20.5777  -25.7198   21.9647 C   0  0  0  0  0  0  0  0  0  0  0  0
  -25.2644  -15.8131   22.1233 N   0  0  0  0  0  0  0  0  0  0  0  0
  -30.0810  -23.4224   20.9698 N   0  0  0  0  0  0  0  0  0  0  0  0
  -26.0137  -16.8848   22.4332 N   0  0  0  0  0  0  0  0  0  0  0  0
  -29.0786  -21.5544   20.5688 N   0  3  0  0  0  0  0  0  0  0  0  0
  -22.7172  -28.4126   20.9468 N   0  0  0  0  0  0  0  0  0  0  0  0
  -24.2285  -20.2411   22.8295 N   0  0  0  0  0  0  0  0  0  0  0  0
  -28.2151  -17.7504   22.3083 N   0  0  0  0  0  0  0  0  0  0  0  0
  -28.5837  -13.6833   20.3798 N   0  0  0  0  0  0  0  0  0  0  0  0
  -23.3959  -31.1124   23.3020 N   0  0  0  0  0  0  0  0  0  0  0  0
  -20.6170  -26.1997   19.4803 N   0  0  0  0  0  0  0  0  0  0  0  0
  -25.6954  -21.8687   21.9390 N   0  0  0  0  0  0  0  0  0  0  0  0
  -21.1365  -25.6595   15.9440 N   0  3  0  0  0  0  0  0  0  0  0  0
  -29.7396  -15.5701   20.9820 O   0  0  0  0  0  0  0  0  0  0  0  0
  -23.3420  -28.7863   23.3974 O   0  0  0  0  0  0  0  0  0  0  0  0
  -20.3944  -28.5796   21.0600 O   0  0  0  0  0  0  0  0  0  0  0  0
  -22.4151  -25.2023   18.4083 O   0  0  0  0  0  0  0  0  0  0  0  0
  -24.0228  -22.4841   23.3815 O   0  0  0  0  0  0  0  0  0  0  0  0
  -24.4733   -9.9909   19.6687 O   0  0  0  0  0  0  0  0  0  0  0  0
  -28.6971  -27.4318   19.7927 O   0  0  0  0  0  0  0  0  0  1  0  0
  -21.2135   -6.9853   22.9465 F   0  0  0  0  0  0  0  0  0  0  0  0
  -25.2586   -7.4877   20.5403 F   0  0  0  0  0  0  0  0  0  0  0  0
  1  2  1  0  0  0  0
  1  5  2  0  0  0  0
  2  6  2  0  0  0  0
  3  8  2  0  0  0  0
  3 17  1  0  0  0  0
  4  9  1  0  0  0  0
  4 17  2  0  0  0  0
  5 19  1  0  0  0  0
  6 21  1  0  0  0  0
  7 10  2  0  0  0  0
  7 20  1  0  0  0  0
  8 23  1  0  0  0  0
  9 23  2  0  0  0  0
 10 24  1  0  0  0  0
 11 12  2  0  0  0  0
 11 25  1  0  0  0  0
 12 26  1  0  0  0  0
 13 22  1  0  0  0  0
 13 24  2  0  0  0  0
 14 26  2  0  0  0  0
 14 27  1  0  0  0  0
 15 16  2  0  0  0  0
 15 63  1  0  0  0  0
 16 65  1  0  0  0  0
 17 28  1  0  0  0  0
 18 28  1  0  0  0  0
 18 29  2  0  0  0  0
 18 31  1  0  0  0  0
 19 21  2  0  0  0  0
 19 36  1  0  0  0  0
 20 22  2  0  0  0  0
 20 37  1  0  0  0  0
 21 45  1  0  0  0  0
 22 38  1  0  0  0  0
 23 79  1  0  0  0  0
 24 80  1  0  0  0  0
 25 27  2  0  0  0  0
 25 79  1  0  0  0  0
 26 81  1  0  0  0  0
 27 82  1  0  0  0  0
 28 62  2  0  0  0  0
 29 64  1  0  0  0  0
 29 68  1  0  0  0  0
 30 53  1  0  0  0  0
 30 63  1  0  0  0  0
 30 65  2  0  0  0  0
 31 69  1  0  0  0  0
 31 74  2  0  0  0  0
 32 46  1  0  0  0  0
 32 70  1  0  0  0  0
 32 75  2  0  0  0  0
 33 59  1  0  0  0  0
 33 66  1  0  0  0  0
 33 76  2  0  0  0  0
 34 60  1  0  0  0  0
 34 71  1  0  0  0  0
 34 77  2  0  0  0  0
 35 67  1  0  0  0  0
 35 72  1  0  0  0  0
 35 78  2  0  0  0  0
 36 39  1  0  0  0  0
 37 46  1  0  0  0  0
 38 66  1  0  0  0  0
 39 41  1  0  0  0  0
 40 42  1  0  0  0  0
 40 43  1  0  0  0  0
 41 45  1  0  0  0  0
 42 47  1  0  0  0  0
 43 67  1  0  0  0  0
 44 47  1  0  0  0  0
 44 67  1  0  0  0  0
 45 70  1  0  0  0  0
 46 66  1  0  0  0  0
 47 64  1  0  0  0  0
 48 60  1  0  0  0  0
 49 61  1  0  0  0  0
 50 61  1  0  0  0  0
 51 61  1  0  0  0  0
 52 73  1  0  0  0  0
 53 54  1  0  0  0  0
 54 57  1  0  0  0  0
 55 56  1  0  0  0  0
 55 58  1  0  0  0  0
 56 63  1  0  0  0  0
 57 72  1  0  0  0  0
 58 80  1  0  0  0  0
 59 61  1  0  0  0  0
 59 71  1  0  0  0  0
 60 73  1  0  0  0  0
 62 64  1  0  0  0  0
M  CHG  2  65   1  73   1
M  ISO  4  35 100  58 101  72 100  80 101
M  END
> <Batch ID>
0076

> <Smiles>
CNC(C)C(=O)NC(C(=O)N1Cc2cc([101O:1][101CH2:1]CCn3ccnc3CCC[100NH:0][100C:0](=O)N3CCCC(n4nc(-c5ccc(Oc6ccc(F)cc6F)cc5)c(C(N)=O)c4N)C3)ccc2CC1C(=O)NC1CCCc2ccccc21)C(C)(C)C

> <Shape>
0.256

> <Color>
0.072

> <Negative vol penalty>
0.000

$$$$

  -OEChem-04052318343D

 85 93  0     1  0  0  0  0  0999 V2000
  -28.3163  -29.8789   17.8040 C   0  0  0  0  0  0  0  0  0  0  0  0
  -27.9796  -29.0034   18.8314 C   0  0  0  0  0  0  0  0  0  0  0  0
  -23.0308   -9.9642   19.8911 C   0  0  0  0  0  0  0  0  0  0  0  0
  -23.8277   -9.8358   22.1683 C   0  0  0  0  0  0  0  0  0  0  0  0
  -28.5280  -29.3909   16.5152 C   0  0  0  0  0  0  0  0  0  0  0  0
  -27.8532  -27.6395   18.5703 C   0  0  0  0  0  0  0  0  0  0  0  0
  -29.2917  -23.0230   22.3286 C   0  0  0  0  0  0  0  0  0  0  0  0
  -22.2672   -8.8147   20.0935 C   0  0  0  0  0  0  0  0  0  0  0  0
  -23.0640   -8.6863   22.3707 C   0  0  0  0  0  0  0  0  0  0  0  0
  -28.5211  -22.2296   23.1774 C   0  0  0  0  0  0  0  0  0  0  0  0
  -22.7747   -5.4747   20.2014 C   0  0  0  0  0  0  0  0  0  0  0  0
  -22.8049   -4.4946   19.2095 C   0  0  0  0  0  0  0  0  0  0  0  0
  -28.3741  -20.5438   21.4581 C   0  0  0  0  0  0  0  0  0  0  0  0
  -20.4190   -4.7263   18.9081 C   0  0  0  0  0  0  0  0  0  0  0  0
  -29.3633  -17.7035   25.2473 C   0  0  0  0  0  0  0  0  0  0  0  0
  -23.8111  -10.4748   20.9285 C   0  0  0  0  0  0  0  0  0  0  0  0
  -24.2036  -12.9954   20.9342 C   0  0  0  0  0  0  0  0  0  0  0  0
  -28.4137  -28.0191   16.2402 C   0  0  0  0  0  0  0  0  0  0  0  0
  -29.6006  -22.5868   21.0322 C   0  0  0  0  0  0  0  0  0  0  0  0
  -28.0623  -27.1329   17.2763 C   0  0  0  0  0  0  0  0  0  0  0  0
  -29.1509  -21.3325   20.5958 C   0  0  0  0  0  0  0  0  0  0  0  0
  -28.0004  -17.8541   25.1673 C   0  0  0  0  0  0  0  0  0  0  0  0
  -22.2838   -8.1757   21.3333 C   0  0  0  0  0  0  0  0  0  0  0  0
  -28.0597  -20.9910   22.7412 C   0  0  0  0  0  0  0  0  0  0  0  0
  -21.5667   -6.0806   20.5468 C   0  0  0  0  0  0  0  0  0  0  0  0
  -21.6270   -4.1204   18.5628 C   0  0  0  0  0  0  0  0  0  0  0  0
  -20.3888   -5.7064   19.9001 C   0  0  0  0  0  0  0  0  0  0  0  0
  -24.6006  -11.6619   20.7199 C   0  0  0  0  0  0  0  0  0  0  0  0
  -27.5549  -16.6871   24.5183 C   0  0  0  0  0  0  0  0  0  0  0  0
  -25.3052  -13.7409   20.5916 C   0  0  0  0  0  0  0  0  0  0  0  0
  -22.9511  -13.5139   21.4012 C   0  0  0  0  0  0  0  0  0  0  0  0
  -28.9850  -23.6513   18.1011 C   0  0  0  0  0  0  0  0  0  0  0  0
  -30.9615  -21.2318   17.2283 C   0  0  0  0  0  0  0  0  0  0  0  0
  -32.3572  -18.2125   17.9914 C   0  0  0  0  0  0  0  0  0  0  0  0
  -30.8113  -14.6388   20.7381 C   0  0  0  0  0  0  0  0  0  0  0  0
  -28.6055  -27.5447   14.8215 C   0  0  0  0  0  0  0  0  0  0  0  0
  -30.4554  -23.4429   20.1383 C   0  0  0  0  0  0  0  0  0  0  0  0
  -29.4720  -20.8094   19.2204 C   0  0  0  0  0  0  0  0  0  0  0  0
  -28.8191  -26.0375   14.7069 C   0  0  0  0  0  0  0  0  0  0  0  0
  -29.5857  -12.4058   18.2505 C   0  0  0  0  0  0  0  0  0  0  0  0
  -27.7956  -25.2874   15.5533 C   0  0  0  0  0  0  0  0  0  0  0  0
  -28.1496  -12.1187   18.6923 C   0  0  0  0  0  0  0  0  0  0  0  0
  -30.5266  -12.5451   19.4452 C   0  0  0  0  0  0  0  0  0  0  0  0
  -28.6632  -13.2404   20.9006 C   0  0  0  0  0  0  0  0  0  0  0  0
  -27.9401  -25.6435   17.0379 C   0  0  1  0  0  0  0  0  0  0  0  0
  -30.2774  -23.1239   18.6571 C   0  0  1  0  0  0  0  0  0  0  0  0
  -27.6667  -13.1472   19.7325 C   0  0  2  0  0  0  0  0  0  0  0  0
  -26.1711  -16.3194   24.1704 C   0  0  0  0  0  0  0  0  0  0  0  0
  -27.2902  -19.1708   27.1906 C   0  0  0  0  0  0  0  0  0  0  0  0
  -33.9036  -16.4666   17.0650 C   0  0  0  0  0  0  0  0  0  0  0  0
  -28.7467  -20.2609   15.3676 C   0  0  0  0  0  0  0  0  0  0  0  0
  -29.9382  -18.0646   15.2093 C   0  0  0  0  0  0  0  0  0  0  0  0
  -31.0491  -20.1456   14.3980 C   0  0  0  0  0  0  0  0  0  0  0  0
  -32.4943  -17.7483   23.8103 C   0  0  0  0  0  0  0  0  0  0  0  0
  -34.2668  -18.5515   20.2269 C   0  0  0  0  0  0  0  0  0  0  0  0
  -30.9459  -15.9066   24.5085 C   0  0  0  0  0  0  0  0  0  0  0  0
  -30.9420  -16.7199   22.0840 C   0  0  0  0  0  0  0  0  0  0  0  0
  -27.5445  -20.3377   24.9691 C   0  0  0  0  0  0  0  0  0  1  0  0
  -27.1710  -19.0249   25.6710 C   0  0  1  0  0  0  0  0  0  0  0  0
  -30.7787  -19.7734   16.8840 C   0  0  1  0  0  0  0  0  0  0  0  0
  -33.7910  -17.7189   17.9206 C   0  0  2  0  0  0  0  0  0  0  0  0
  -30.1203  -19.5715   15.4900 C   0  0  0  0  0  0  0  0  0  0  0  0
  -31.7826  -16.4757   23.3437 C   0  0  1  0  0  0  0  0  0  0  0  0
  -25.8563  -11.5629   20.2754 N   0  0  0  0  0  0  0  0  0  0  0  0
  -28.5537  -15.8564   24.2078 N   0  0  0  0  0  0  0  0  0  0  0  0
  -29.6405  -16.5024   24.6637 N   0  0  0  0  0  0  0  0  0  0  0  0
  -26.2578  -12.8436   20.2076 N   0  0  0  0  0  0  0  0  0  0  0  0
  -30.3057  -21.6860   18.3813 N   0  0  0  0  0  0  0  0  0  0  0  0
  -30.0120  -13.5366   20.3929 N   0  0  0  0  0  0  0  0  0  0  0  0
  -25.5421  -15.0699   20.5844 N   0  0  0  0  0  0  0  0  0  0  0  0
  -21.9260  -12.6087   21.7081 N   0  0  0  0  0  0  0  0  0  0  0  0
  -29.0660  -24.9435   17.6182 N   0  0  0  0  0  0  0  0  0  0  0  0
  -32.0927  -19.1542   17.0195 N   0  0  0  0  0  0  0  0  0  0  0  0
  -30.2454  -15.5340   21.6376 N   0  0  0  0  0  0  0  0  0  0  0  0
  -34.2979  -17.4024   19.2858 N   0  3  0  0  0  0  0  0  0  0  0  0
  -22.7416  -14.7443   21.5266 O   0  0  0  0  0  0  0  0  0  0  0  0
  -27.9885  -22.9382   18.1081 O   0  0  0  0  0  0  0  0  0  0  0  0
  -31.6662  -21.9402   16.5049 O   0  0  0  0  0  0  0  0  0  0  0  0
  -31.5514  -17.8009   18.8231 O   0  0  0  0  0  0  0  0  0  0  0  0
  -31.9432  -14.8151   20.2747 O   0  0  0  0  0  0  0  0  0  0  0  0
  -21.5385   -7.0541   21.5312 O   0  0  0  0  0  0  0  0  0  0  0  0
  -27.3068  -20.2149   23.5674 O   0  0  0  0  0  0  0  0  0  1  0  0
  -21.6564   -3.1802   17.6091 F   0  0  0  0  0  0  0  0  0  0  0  0
  -19.2254   -6.2857   20.2267 F   0  0  0  0  0  0  0  0  0  0  0  0
  -32.7546  -15.5657   23.0343 F   0  0  0  0  0  0  0  0  0  0  0  0
  1  2  1  0  0  0  0
  1  5  2  0  0  0  0
  2  6  2  0  0  0  0
  3  8  2  0  0  0  0
  3 16  1  0  0  0  0
  4  9  1  0  0  0  0
  4 16  2  0  0  0  0
  5 18  1  0  0  0  0
  6 20  1  0  0  0  0
  7 10  2  0  0  0  0
  7 19  1  0  0  0  0
  8 23  1  0  0  0  0
  9 23  2  0  0  0  0
 10 24  1  0  0  0  0
 11 12  2  0  0  0  0
 11 25  1  0  0  0  0
 12 26  1  0  0  0  0
 13 21  1  0  0  0  0
 13 24  2  0  0  0  0
 14 26  2  0  0  0  0
 14 27  1  0  0  0  0
 15 22  2  0  0  0  0
 15 66  1  0  0  0  0
 16 28  1  0  0  0  0
 17 28  1  0  0  0  0
 17 30  2  0  0  0  0
 17 31  1  0  0  0  0
 18 20  2  0  0  0  0
 18 36  1  0  0  0  0
 19 21  2  0  0  0  0
 19 37  1  0  0  0  0
 20 45  1  0  0  0  0
 21 38  1  0  0  0  0
 22 29  1  0  0  0  0
 22 59  1  0  0  0  0
 23 81  1  0  0  0  0
 24 82  1  0  0  0  0
 25 27  2  0  0  0  0
 25 81  1  0  0  0  0
 26 83  1  0  0  0  0
 27 84  1  0  0  0  0
 28 64  2  0  0  0  0
 29 48  1  0  0  0  0
 29 65  2  0  0  0  0
 30 67  1  0  0  0  0
 30 70  1  0  0  0  0
 31 71  1  0  0  0  0
 31 76  2  0  0  0  0
 32 46  1  0  0  0  0
 32 72  1  0  0  0  0
 32 77  2  0  0  0  0
 33 60  1  0  0  0  0
 33 68  1  0  0  0  0
 33 78  2  0  0  0  0
 34 61  1  0  0  0  0
 34 73  1  0  0  0  0
 34 79  2  0  0  0  0
 35 69  1  0  0  0  0
 35 74  1  0  0  0  0
 35 80  2  0  0  0  0
 36 39  1  0  0  0  0
 37 46  1  0  0  0  0
 38 68  1  0  0  0  0
 39 41  1  0  0  0  0
 40 42  1  0  0  0  0
 40 43  1  0  0  0  0
 41 45  1  0  0  0  0
 42 47  1  0  0  0  0
 43 69  1  0  0  0  0
 44 47  1  0  0  0  0
 44 69  1  0  0  0  0
 45 72  1  0  0  0  0
 46 68  1  0  0  0  0
 47 67  1  0  0  0  0
 49 59  1  0  0  0  0
 50 61  1  0  0  0  0
 51 62  1  0  0  0  0
 52 62  1  0  0  0  0
 53 62  1  0  0  0  0
 54 63  1  0  0  0  0
 55 75  1  0  0  0  0
 56 63  1  0  0  0  0
 56 66  1  0  0  0  0
 57 63  1  0  0  0  0
 57 74  1  0  0  0  0
 58 59  1  0  0  0  0
 58 82  1  0  0  0  0
 60 62  1  0  0  0  0
 60 73  1  0  0  0  0
 61 75  1  0  0  0  0
 63 85  1  0  0  0  0
 64 67  1  0  0  0  0
 65 66  1  0  0  0  0
M  CHG  1  75   1
M  ISO  4  35 100  58 101  74 100  82 101
M  END
> <Batch ID>
0076

> <Smiles>
CNC(C)C(=O)NC(C(=O)N1Cc2cc([101O:1][101CH2:1]C(C)c3cn(CC(C)(F)C[100NH:0][100C:0](=O)N4CCCC(n5nc(-c6ccc(Oc7ccc(F)cc7F)cc6)c(C(N)=O)c5N)C4)nc3C)ccc2CC1C(=O)NC1CCCc2ccccc21)C(C)(C)C

> <Shape>
0.213

> <Color>
0.195

> <Negative vol penalty>
0.000

$$$$

  -OEChem-04052318343D

 88 96  0     1  0  0  0  0  0999 V2000
  -25.2651  -35.0525   23.5670 C   0  0  0  0  0  0  0  0  0  0  0  0
  -25.9420  -33.8794   23.2492 C   0  0  0  0  0  0  0  0  0  0  0  0
  -23.2529  -10.0697   22.4067 C   0  0  0  0  0  0  0  0  0  0  0  0
  -23.8247   -9.6414   20.0988 C   0  0  0  0  0  0  0  0  0  0  0  0
  -23.9805  -34.9906   24.1055 C   0  0  0  0  0  0  0  0  0  0  0  0
  -25.3351  -32.6437   23.4707 C   0  0  0  0  0  0  0  0  0  0  0  0
  -25.9119  -29.4686   19.5680 C   0  0  0  0  0  0  0  0  0  0  0  0
  -22.4456   -8.9323   22.4178 C   0  0  0  0  0  0  0  0  0  0  0  0
  -23.0174   -8.5039   20.1099 C   0  0  0  0  0  0  0  0  0  0  0  0
  -27.1459  -28.8319   19.4421 C   0  0  0  0  0  0  0  0  0  0  0  0
  -20.5187   -5.9409   23.1616 C   0  0  0  0  0  0  0  0  0  0  0  0
  -20.6170   -5.0865   24.2598 C   0  0  0  0  0  0  0  0  0  0  0  0
  -26.2156  -26.8442   20.4436 C   0  0  0  0  0  0  0  0  0  0  0  0
  -22.9568   -4.7310   23.7738 C   0  0  0  0  0  0  0  0  0  0  0  0
  -28.3007  -23.3985   16.3756 C   0  0  0  0  0  0  0  0  0  0  0  0
  -23.9425  -10.4243   21.2472 C   0  0  0  0  0  0  0  0  0  0  0  0
  -26.1439  -11.6748   21.5596 C   0  0  0  0  0  0  0  0  0  0  0  0
  -23.3538  -33.7538   24.3247 C   0  0  0  0  0  0  0  0  0  0  0  0
  -24.8217  -28.8004   20.1435 C   0  0  0  0  0  0  0  0  0  0  0  0
  -24.0415  -32.5652   24.0139 C   0  0  0  0  0  0  0  0  0  0  0  0
  -24.9682  -27.4738   20.5733 C   0  0  0  0  0  0  0  0  0  0  0  0
  -22.3279   -8.1494   21.2694 C   0  0  0  0  0  0  0  0  0  0  0  0
  -27.2986  -27.5205   19.8826 C   0  0  0  0  0  0  0  0  0  0  0  0
  -21.6394   -6.1903   22.3694 C   0  0  0  0  0  0  0  0  0  0  0  0
  -21.8360   -4.4816   24.5659 C   0  0  0  0  0  0  0  0  0  0  0  0
  -22.8584   -5.5854   22.6755 C   0  0  0  0  0  0  0  0  0  0  0  0
  -24.7761  -11.5994   21.2349 C   0  0  0  0  0  0  0  0  0  0  0  0
  -28.6485  -23.0662   17.6545 C   0  0  0  0  0  0  0  0  0  0  0  0
  -26.4640  -13.0000   21.3921 C   0  0  0  0  0  0  0  0  0  0  0  0
  -26.8369  -21.9127   17.1177 C   0  0  0  0  0  0  0  0  0  0  0  0
  -27.0445  -10.6396   21.9753 C   0  0  0  0  0  0  0  0  0  0  0  0
  -23.0073  -29.2655   22.7117 C   0  0  0  0  0  0  0  0  0  0  0  0
  -21.3207  -26.7785   21.4900 C   0  0  0  0  0  0  0  0  0  0  0  0
  -21.2801  -24.0011   19.5074 C   0  0  0  0  0  0  0  0  0  0  0  0
  -25.4314  -17.3830   18.0813 C   0  0  0  0  0  0  0  0  0  0  0  0
  -21.9827  -33.7359   24.9529 C   0  0  0  0  0  0  0  0  0  0  0  0
  -23.4901  -29.4921   20.2477 C   0  0  0  0  0  0  0  0  0  0  0  0
  -23.8234  -26.7056   21.1797 C   0  0  0  0  0  0  0  0  0  0  0  0
  -21.2637  -32.3972   24.8079 C   0  0  0  0  0  0  0  0  0  0  0  0
  -23.9160  -17.2236   21.2673 C   0  0  0  0  0  0  0  0  0  0  0  0
  -22.2006  -31.2468   25.1623 C   0  0  0  0  0  0  0  0  0  0  0  0
  -24.1093  -15.7497   21.6209 C   0  0  0  0  0  0  0  0  0  0  0  0
  -23.5576  -17.4186   19.7929 C   0  0  0  0  0  0  0  0  0  0  0  0
  -24.7015  -15.3032   19.2101 C   0  0  0  0  0  0  0  0  0  0  0  0
  -23.4069  -31.2063   24.2165 C   0  0  1  0  0  0  0  0  0  0  0  0
  -22.5862  -28.8901   21.3191 C   0  0  1  0  0  0  0  0  0  0  0  0
  -25.1211  -15.0843   20.6719 C   0  0  2  0  0  0  0  0  0  0  0  0
  -26.6627  -21.4717   21.6851 C   0  0  0  0  0  0  0  0  0  0  0  0
  -31.3783  -21.7032   17.7049 C   0  0  0  0  0  0  0  0  0  0  0  0
  -19.7677  -22.1530   18.7365 C   0  0  0  0  0  0  0  0  0  0  0  0
  -26.2500  -19.1541   15.5078 C   0  0  0  0  0  0  0  0  0  0  0  0
  -21.6177  -25.4084   24.2000 C   0  0  0  0  0  0  0  0  0  0  0  0
  -20.9548  -23.2560   23.1063 C   0  0  0  0  0  0  0  0  0  0  0  0
  -19.3585  -25.1723   23.1538 C   0  0  0  0  0  0  0  0  0  0  0  0
  -23.6584  -19.0066   17.2905 C   0  0  0  0  0  0  0  0  0  0  0  0
  -21.5383  -24.8148   16.6736 C   0  0  0  0  0  0  0  0  0  0  0  0
  -25.6782  -20.9872   17.1724 C   0  0  0  0  0  0  0  0  0  0  0  0
  -26.6571  -22.1333   20.3168 C   0  0  0  0  0  0  0  0  0  0  0  0
  -31.1756  -23.2000   17.9099 C   0  0  0  0  0  0  0  0  0  0  0  0
  -29.7205  -25.0705   18.7911 C   0  0  0  0  0  0  0  0  0  0  0  0
  -27.7096  -21.5180   19.3972 C   0  0  0  0  0  0  0  0  0  0  0  0
  -28.4852  -25.4806   19.5881 C   0  0  0  0  0  0  0  0  0  1  0  0
  -29.8000  -23.5520   18.5209 C   0  0  1  0  0  0  0  0  0  0  0  0
  -21.3755  -25.2767   21.6329 C   0  0  1  0  0  0  0  0  0  0  0  0
  -20.3076  -23.5425   18.4358 C   0  0  2  0  0  0  0  0  0  0  0  0
  -26.0559  -19.4990   16.9810 C   0  0  1  0  0  0  0  0  0  0  0  0
  -20.8489  -24.7932   23.0137 C   0  0  0  0  0  0  0  0  0  0  0  0
  -24.2626  -12.7825   20.8876 N   0  0  0  0  0  0  0  0  0  0  0  0
  -27.7255  -22.1457   18.0891 N   0  0  0  0  0  0  0  0  0  0  0  0
  -25.3133  -13.6139   20.9932 N   0  0  0  0  0  0  0  0  0  0  0  0
  -27.1767  -22.6698   16.0694 N   0  3  0  0  0  0  0  0  0  0  0  0
  -22.5432  -27.4274   21.2657 N   0  0  0  0  0  0  0  0  0  0  0  0
  -24.5210  -16.7286   18.9241 N   0  0  0  0  0  0  0  0  0  0  0  0
  -27.6147  -13.6883   21.5487 N   0  0  0  0  0  0  0  0  0  0  0  0
  -26.5510   -9.3334   22.0962 N   0  0  0  0  0  0  0  0  0  0  0  0
  -23.0323  -30.6274   22.9441 N   0  0  0  0  0  0  0  0  0  0  0  0
  -20.6484  -24.7312   20.4918 N   0  0  0  0  0  0  0  0  0  0  0  0
  -25.0438  -18.6261   17.5591 N   0  0  0  0  0  0  0  0  0  0  0  0
  -20.9801  -23.5079   17.1064 N   0  3  0  0  0  0  0  0  0  0  0  0
  -28.2473  -10.8691   22.2478 O   0  0  0  0  0  0  0  0  0  0  0  0
  -23.2874  -28.3847   23.5163 O   0  0  0  0  0  0  0  0  0  0  0  0
  -20.2323  -27.3540   21.5672 O   0  0  0  0  0  0  0  0  0  0  0  0
  -22.4796  -23.7348   19.4763 O   0  0  0  0  0  0  0  0  0  0  0  0
  -26.5282  -16.8812   17.8031 O   0  0  0  0  0  0  0  0  0  0  0  0
  -21.5404   -7.0393   21.2800 O   0  0  0  0  0  0  0  0  0  0  0  0
  -28.5021  -26.8970   19.7616 O   0  0  0  0  0  0  0  0  0  1  0  0
  -21.9306   -3.6624   25.6214 F   0  0  0  0  0  0  0  0  0  0  0  0
  -23.9388   -5.8221   21.9189 F   0  0  0  0  0  0  0  0  0  0  0  0
  1  2  1  0  0  0  0
  1  5  2  0  0  0  0
  2  6  2  0  0  0  0
  3  8  2  0  0  0  0
  3 16  1  0  0  0  0
  4  9  1  0  0  0  0
  4 16  2  0  0  0  0
  5 18  1  0  0  0  0
  6 20  1  0  0  0  0
  7 10  2  0  0  0  0
  7 19  1  0  0  0  0
  8 22  1  0  0  0  0
  9 22  2  0  0  0  0
 10 23  1  0  0  0  0
 11 12  2  0  0  0  0
 11 24  1  0  0  0  0
 12 25  1  0  0  0  0
 13 21  1  0  0  0  0
 13 23  2  0  0  0  0
 14 25  2  0  0  0  0
 14 26  1  0  0  0  0
 15 28  2  0  0  0  0
 15 71  1  0  0  0  0
 16 27  1  0  0  0  0
 17 27  1  0  0  0  0
 17 29  2  0  0  0  0
 17 31  1  0  0  0  0
 18 20  2  0  0  0  0
 18 36  1  0  0  0  0
 19 21  2  0  0  0  0
 19 37  1  0  0  0  0
 20 45  1  0  0  0  0
 21 38  1  0  0  0  0
 22 85  1  0  0  0  0
 23 86  1  0  0  0  0
 24 26  2  0  0  0  0
 24 85  1  0  0  0  0
 25 87  1  0  0  0  0
 26 88  1  0  0  0  0
 27 68  2  0  0  0  0
 28 63  1  0  0  0  0
 28 69  1  0  0  0  0
 29 70  1  0  0  0  0
 29 74  1  0  0  0  0
 30 57  1  0  0  0  0
 30 69  1  0  0  0  0
 30 71  2  0  0  0  0
 31 75  1  0  0  0  0
 31 80  2  0  0  0  0
 32 46  1  0  0  0  0
 32 76  1  0  0  0  0
 32 81  2  0  0  0  0
 33 64  1  0  0  0  0
 33 72  1  0  0  0  0
 33 82  2  0  0  0  0
 34 65  1  0  0  0  0
 34 77  1  0  0  0  0
 34 83  2  0  0  0  0
 35 73  1  0  0  0  0
 35 78  1  0  0  0  0
 35 84  2  0  0  0  0
 36 39  1  0  0  0  0
 37 46  1  0  0  0  0
 38 72  1  0  0  0  0
 39 41  1  0  0  0  0
 40 42  1  0  0  0  0
 40 43  1  0  0  0  0
 41 45  1  0  0  0  0
 42 47  1  0  0  0  0
 43 73  1  0  0  0  0
 44 47  1  0  0  0  0
 44 73  1  0  0  0  0
 45 76  1  0  0  0  0
 46 72  1  0  0  0  0
 47 70  1  0  0  0  0
 48 58  1  0  0  0  0
 49 59  1  0  0  0  0
 50 65  1  0  0  0  0
 51 66  1  0  0  0  0
 52 67  1  0  0  0  0
 53 67  1  0  0  0  0
 54 67  1  0  0  0  0
 55 78  1  0  0  0  0
 56 79  1  0  0  0  0
 57 66  1  0  0  0  0
 58 61  1  0  0  0  0
 59 63  1  0  0  0  0
 60 62  1  0  0  0  0
 60 63  1  0  0  0  0
 61 69  1  0  0  0  0
 62 86  1  0  0  0  0
 64 67  1  0  0  0  0
 64 77  1  0  0  0  0
 65 79  1  0  0  0  0
 66 78  1  0  0  0  0
 68 70  1  0  0  0  0
M  CHG  2  71   1  79   1
M  ISO  4  35 100  62 101  78 100  86 101
M  END
> <Batch ID>
0076

> <Smiles>
CCCn1c(C(CC)C[101CH2:1][101O:1]c2ccc3c(c2)CN(C(=O)C(NC(=O)C(C)NC)C(C)(C)C)C(C(=O)NC2CCCc4ccccc42)C3)cnc1CC(C)[100N:0](C)[100C:0](=O)N1CCCC(n2nc(-c3ccc(Oc4ccc(F)cc4F)cc3)c(C(N)=O)c2N)C1

> <Shape>
0.256

> <Color>
0.124

> <Negative vol penalty>
0.000

$$$$

  -OEChem-04052318343D

 84 92  0     1  0  0  0  0  0999 V2000
  -18.1495  -33.2755   22.8475 C   0  0  0  0  0  0  0  0  0  0  0  0
  -19.4475  -33.3645   22.3548 C   0  0  0  0  0  0  0  0  0  0  0  0
  -25.5881  -14.1856   21.1061 C   0  0  0  0  0  0  0  0  0  0  0  0
  -25.4135  -14.3701   18.7035 C   0  0  0  0  0  0  0  0  0  0  0  0
  -17.7652  -32.1662   23.5996 C   0  0  0  0  0  0  0  0  0  0  0  0
  -20.3623  -32.3447   22.6149 C   0  0  0  0  0  0  0  0  0  0  0  0
  -25.9595  -28.9808   19.6703 C   0  0  0  0  0  0  0  0  0  0  0  0
  -24.6338  -13.1684   21.0974 C   0  0  0  0  0  0  0  0  0  0  0  0
  -24.4592  -13.3528   18.6948 C   0  0  0  0  0  0  0  0  0  0  0  0
  -27.2755  -28.6230   19.9602 C   0  0  0  0  0  0  0  0  0  0  0  0
  -24.5244   -9.8614   20.4010 C   0  0  0  0  0  0  0  0  0  0  0  0
  -24.7789   -8.7273   21.1721 C   0  0  0  0  0  0  0  0  0  0  0  0
  -30.5497  -23.8546   17.8306 C   0  0  0  0  0  0  0  0  0  0  0  0
  -29.7919  -23.1510   16.9111 C   0  0  0  0  0  0  0  0  0  0  0  0
  -26.4767  -26.7167   21.2041 C   0  0  0  0  0  0  0  0  0  0  0  0
  -22.7642   -9.1380   22.4408 C   0  0  0  0  0  0  0  0  0  0  0  0
  -25.9779  -14.7865   19.9092 C   0  0  0  0  0  0  0  0  0  0  0  0
  -28.3592  -15.6954   19.8050 C   0  0  0  0  0  0  0  0  0  0  0  0
  -18.6729  -31.1277   23.8609 C   0  0  0  0  0  0  0  0  0  0  0  0
  -24.8902  -28.2141   20.1550 C   0  0  0  0  0  0  0  0  0  0  0  0
  -19.9901  -31.2211   23.3723 C   0  0  0  0  0  0  0  0  0  0  0  0
  -25.1482  -27.0654   20.9167 C   0  0  0  0  0  0  0  0  0  0  0  0
  -24.0694  -12.7519   19.8918 C   0  0  0  0  0  0  0  0  0  0  0  0
  -27.5341  -27.4924   20.7296 C   0  0  0  0  0  0  0  0  0  0  0  0
  -23.3899  -10.6339   20.6498 C   0  0  0  0  0  0  0  0  0  0  0  0
  -23.8987   -8.3656   22.1920 C   0  0  0  0  0  0  0  0  0  0  0  0
  -22.5098  -10.2721   21.6697 C   0  0  0  0  0  0  0  0  0  0  0  0
  -26.9632  -15.8378   19.9176 C   0  0  0  0  0  0  0  0  0  0  0  0
  -30.0353  -25.0377   18.3215 C   0  0  0  0  0  0  0  0  0  0  0  0
  -28.5696  -23.6769   16.5437 C   0  0  0  0  0  0  0  0  0  0  0  0
  -28.8416  -16.9799   19.8677 C   0  0  0  0  0  0  0  0  0  0  0  0
  -29.1494  -14.5082   19.6569 C   0  0  0  0  0  0  0  0  0  0  0  0
  -22.4383  -28.7623   22.1022 C   0  0  0  0  0  0  0  0  0  0  0  0
  -21.5609  -25.7708   21.2059 C   0  0  0  0  0  0  0  0  0  0  0  0
  -22.4924  -22.7180   19.9978 C   0  0  0  0  0  0  0  0  0  0  0  0
  -26.4274  -22.3086   18.5918 C   0  0  0  0  0  0  0  0  0  0  0  0
  -18.2251  -29.9709   24.7187 C   0  0  0  0  0  0  0  0  0  0  0  0
  -23.4772  -28.5984   19.8110 C   0  0  0  0  0  0  0  0  0  0  0  0
  -24.0362  -26.1972   21.4440 C   0  0  0  0  0  0  0  0  0  0  0  0
  -19.1462  -28.7566   24.6328 C   0  0  0  0  0  0  0  0  0  0  0  0
  -27.8186  -21.2783   21.7030 C   0  0  0  0  0  0  0  0  0  0  0  0
  -20.6054  -29.1836   24.7565 C   0  0  0  0  0  0  0  0  0  0  0  0
  -27.8831  -19.7543   21.5881 C   0  0  0  0  0  0  0  0  0  0  0  0
  -26.5750  -21.8436   21.0205 C   0  0  0  0  0  0  0  0  0  0  0  0
  -26.4624  -19.9067   19.5007 C   0  0  0  0  0  0  0  0  0  0  0  0
  -21.0040  -30.1236   23.6123 C   0  0  1  0  0  0  0  0  0  0  0  0
  -22.4500  -28.0345   20.7878 C   0  0  1  0  0  0  0  0  0  0  0  0
  -27.7279  -19.2952   20.1257 C   0  0  2  0  0  0  0  0  0  0  0  0
  -22.2287  -20.3814   19.1213 C   0  0  0  0  0  0  0  0  0  0  0  0
  -28.3042  -21.6104   15.0088 C   0  0  0  0  0  0  0  0  0  0  0  0
  -27.4807  -23.8372   14.2884 C   0  0  0  0  0  0  0  0  0  0  0  0
  -21.3983  -25.0655   24.1701 C   0  0  0  0  0  0  0  0  0  0  0  0
  -21.4075  -22.6468   23.5236 C   0  0  0  0  0  0  0  0  0  0  0  0
  -19.5478  -24.1298   22.7721 C   0  0  0  0  0  0  0  0  0  0  0  0
  -22.2116  -23.6713   17.2101 C   0  0  0  0  0  0  0  0  0  0  0  0
  -30.8214  -25.8444   19.3239 C   0  0  0  0  0  0  0  0  0  0  0  0
  -30.5270  -25.4742   20.7792 C   0  0  0  0  0  0  0  0  0  0  0  0
  -26.2909  -22.6135   16.1326 C   0  0  0  0  0  0  0  0  0  0  0  0
  -29.0864  -25.7512   21.1930 C   0  0  0  0  0  0  0  0  0  1  0  0
  -21.8333  -24.3777   21.7198 C   0  0  1  0  0  0  0  0  0  0  0  0
  -21.9122  -21.8515   18.8946 C   0  0  2  0  0  0  0  0  0  0  0  0
  -27.7136  -22.9558   15.5595 C   0  0  0  0  0  0  0  0  0  0  0  0
  -21.0678  -24.0722   23.0382 C   0  0  0  0  0  0  0  0  0  0  0  0
  -26.5833  -17.1122   20.0425 N   0  0  0  0  0  0  0  0  0  0  0  0
  -28.8359  -25.5288   17.9441 N   0  0  0  0  0  0  0  0  0  0  0  0
  -28.0909  -24.8370   17.0407 N   0  0  0  0  0  0  0  0  0  0  0  0
  -27.7478  -17.7823   20.0089 N   0  0  0  0  0  0  0  0  0  0  0  0
  -22.6716  -26.6181   21.0859 N   0  0  0  0  0  0  0  0  0  0  0  0
  -26.4879  -21.3716   19.6364 N   0  0  0  0  0  0  0  0  0  0  0  0
  -30.0904  -17.4900   19.8154 N   0  0  0  0  0  0  0  0  0  0  0  0
  -28.4934  -13.2706   19.6103 N   0  0  0  0  0  0  0  0  0  0  0  0
  -21.2337  -29.3717   22.3973 N   0  0  0  0  0  0  0  0  0  0  0  0
  -21.5193  -23.4692   20.6224 N   0  0  0  0  0  0  0  0  0  0  0  0
  -26.3529  -21.7768   17.3103 N   0  0  0  0  0  0  0  0  0  0  0  0
  -22.4699  -22.2539   17.5725 N   0  3  0  0  0  0  0  0  0  0  0  0
  -30.4012  -14.5426   19.5849 O   0  0  0  0  0  0  0  0  0  0  0  0
  -23.4471  -28.7692   22.7980 O   0  0  0  0  0  0  0  0  0  0  0  0
  -20.4063  -26.0930   20.9147 O   0  0  0  0  0  0  0  0  0  0  0  0
  -23.6886  -22.7249   20.2799 O   0  0  0  0  0  0  0  0  0  0  0  0
  -26.4444  -23.5288   18.7864 O   0  0  0  0  0  0  0  0  0  0  0  0
  -23.1383  -11.7591   19.8829 O   0  0  0  0  0  0  0  0  0  0  0  0
  -28.8176  -27.1413   21.0146 O   0  0  0  0  0  0  0  0  0  1  0  0
  -24.1424   -7.2756   22.9314 F   0  0  0  0  0  0  0  0  0  0  0  0
  -21.4176  -11.0096   21.9127 F   0  0  0  0  0  0  0  0  0  0  0  0
  1  2  1  0  0  0  0
  1  5  2  0  0  0  0
  2  6  2  0  0  0  0
  3  8  2  0  0  0  0
  3 17  1  0  0  0  0
  4  9  1  0  0  0  0
  4 17  2  0  0  0  0
  5 19  1  0  0  0  0
  6 21  1  0  0  0  0
  7 10  2  0  0  0  0
  7 20  1  0  0  0  0
  8 23  1  0  0  0  0
  9 23  2  0  0  0  0
 10 24  1  0  0  0  0
 11 12  2  0  0  0  0
 11 25  1  0  0  0  0
 12 26  1  0  0  0  0
 13 14  2  0  0  0  0
 13 29  1  0  0  0  0
 14 30  1  0  0  0  0
 15 22  1  0  0  0  0
 15 24  2  0  0  0  0
 16 26  2  0  0  0  0
 16 27  1  0  0  0  0
 17 28  1  0  0  0  0
 18 28  1  0  0  0  0
 18 31  2  0  0  0  0
 18 32  1  0  0  0  0
 19 21  2  0  0  0  0
 19 37  1  0  0  0  0
 20 22  2  0  0  0  0
 20 38  1  0  0  0  0
 21 46  1  0  0  0  0
 22 39  1  0  0  0  0
 23 81  1  0  0  0  0
 24 82  1  0  0  0  0
 25 27  2  0  0  0  0
 25 81  1  0  0  0  0
 26 83  1  0  0  0  0
 27 84  1  0  0  0  0
 28 64  2  0  0  0  0
 29 56  1  0  0  0  0
 29 65  2  0  0  0  0
 30 62  1  0  0  0  0
 30 66  2  0  0  0  0
 31 67  1  0  0  0  0
 31 70  1  0  0  0  0
 32 71  1  0  0  0  0
 32 76  2  0  0  0  0
 33 47  1  0  0  0  0
 33 72  1  0  0  0  0
 33 77  2  0  0  0  0
 34 60  1  0  0  0  0
 34 68  1  0  0  0  0
 34 78  2  0  0  0  0
 35 61  1  0  0  0  0
 35 73  1  0  0  0  0
 35 79  2  0  0  0  0
 36 69  1  0  0  0  0
 36 74  1  0  0  0  0
 36 80  2  0  0  0  0
 37 40  1  0  0  0  0
 38 47  1  0  0  0  0
 39 68  1  0  0  0  0
 40 42  1  0  0  0  0
 41 43  1  0  0  0  0
 41 44  1  0  0  0  0
 42 46  1  0  0  0  0
 43 48  1  0  0  0  0
 44 69  1  0  0  0  0
 45 48  1  0  0  0  0
 45 69  1  0  0  0  0
 46 72  1  0  0  0  0
 47 68  1  0  0  0  0
 48 67  1  0  0  0  0
 49 61  1  0  0  0  0
 50 62  1  0  0  0  0
 51 62  1  0  0  0  0
 52 63  1  0  0  0  0
 53 63  1  0  0  0  0
 54 63  1  0  0  0  0
 55 75  1  0  0  0  0
 56 57  1  0  0  0  0
 57 59  1  0  0  0  0
 58 62  1  0  0  0  0
 58 74  1  0  0  0  0
 59 82  1  0  0  0  0
 60 63  1  0  0  0  0
 60 73  1  0  0  0  0
 61 75  1  0  0  0  0
 64 67  1  0  0  0  0
 65 66  1  0  0  0  0
M  CHG  1  75   1
M  ISO  4  36 100  59 101  74 100  82 101
M  END
> <Batch ID>
0076

> <Smiles>
CNC(C)C(=O)NC(C(=O)N1Cc2cc([101O:1][101CH2:1]CCc3ccc(C(C)(C)C[100NH:0][100C:0](=O)N4CCCC(n5nc(-c6ccc(Oc7ccc(F)cc7F)cc6)c(C(N)=O)c5N)C4)nn3)ccc2CC1C(=O)NC1CCCc2ccccc21)C(C)(C)C

> <Shape>
0.243

> <Color>
0.088

> <Negative vol penalty>
0.000

$$$$

  -OEChem-04052318343D

 82 90  0     1  0  0  0  0  0999 V2000
  -33.3315  -14.8391   16.6308 C   0  0  0  0  0  0  0  0  0  0  0  0
  -32.6203  -15.9844   16.9741 C   0  0  0  0  0  0  0  0  0  0  0  0
  -23.0458   -9.9012   19.9772 C   0  0  0  0  0  0  0  0  0  0  0  0
  -23.8159   -9.9260   22.2671 C   0  0  0  0  0  0  0  0  0  0  0  0
  -34.7130  -14.7967   16.8138 C   0  0  0  0  0  0  0  0  0  0  0  0
  -33.2902  -17.0878   17.5015 C   0  0  0  0  0  0  0  0  0  0  0  0
  -31.7840  -21.4521   15.4208 C   0  0  0  0  0  0  0  0  0  0  0  0
  -22.2745   -8.7712   20.2489 C   0  0  0  0  0  0  0  0  0  0  0  0
  -23.0445   -8.7960   22.5387 C   0  0  0  0  0  0  0  0  0  0  0  0
  -30.5739  -21.9843   15.8635 C   0  0  0  0  0  0  0  0  0  0  0  0
  -19.8002   -8.0891   23.1673 C   0  0  0  0  0  0  0  0  0  0  0  0
  -19.0478   -8.0870   24.3417 C   0  0  0  0  0  0  0  0  0  0  0  0
  -31.7752  -23.5092   17.2955 C   0  0  0  0  0  0  0  0  0  0  0  0
  -20.2437   -6.1312   25.1044 C   0  0  0  0  0  0  0  0  0  0  0  0
  -28.7484  -19.2337   18.4077 C   0  0  0  0  0  0  0  0  0  0  0  0
  -23.8165  -10.4786   20.9863 C   0  0  0  0  0  0  0  0  0  0  0  0
  -24.2208  -12.9921   20.8240 C   0  0  0  0  0  0  0  0  0  0  0  0
  -35.4015  -15.9037   17.3347 C   0  0  0  0  0  0  0  0  0  0  0  0
  -33.0007  -21.9378   15.9211 C   0  0  0  0  0  0  0  0  0  0  0  0
  -34.6821  -17.0598   17.6929 C   0  0  0  0  0  0  0  0  0  0  0  0
  -32.9995  -22.9832   16.8557 C   0  0  0  0  0  0  0  0  0  0  0  0
  -22.2738   -8.2186   21.5296 C   0  0  0  0  0  0  0  0  0  0  0  0
  -30.5692  -23.0110   16.8031 C   0  0  0  0  0  0  0  0  0  0  0  0
  -20.7744   -7.1122   22.9613 C   0  0  0  0  0  0  0  0  0  0  0  0
  -19.2695   -7.1080   25.3103 C   0  0  0  0  0  0  0  0  0  0  0  0
  -20.9961   -6.1333   23.9299 C   0  0  0  0  0  0  0  0  0  0  0  0
  -24.6139  -11.6455   20.7062 C   0  0  0  0  0  0  0  0  0  0  0  0
  -28.9644  -19.4292   19.7476 C   0  0  0  0  0  0  0  0  0  0  0  0
  -25.3296  -13.7081   20.4442 C   0  0  0  0  0  0  0  0  0  0  0  0
  -28.5167  -21.4655   18.1519 C   0  0  0  0  0  0  0  0  0  0  0  0
  -22.9654  -13.5463   21.2397 C   0  0  0  0  0  0  0  0  0  0  0  0
  -35.4113  -20.6799   17.5674 C   0  0  0  0  0  0  0  0  0  0  0  0
  -36.7739  -23.5750   17.0346 C   0  0  0  0  0  0  0  0  0  0  0  0
  -36.3556  -26.8918   16.3486 C   0  0  0  0  0  0  0  0  0  0  0  0
  -30.8379  -14.5925   20.5936 C   0  0  0  0  0  0  0  0  0  0  0  0
  -36.8889  -15.7938   17.5586 C   0  0  0  0  0  0  0  0  0  0  0  0
  -34.2983  -21.3713   15.4135 C   0  0  0  0  0  0  0  0  0  0  0  0
  -34.2789  -23.5537   17.4088 C   0  0  0  0  0  0  0  0  0  0  0  0
  -37.5737  -17.1411   17.7733 C   0  0  0  0  0  0  0  0  0  0  0  0
  -29.6305  -12.1991   18.2505 C   0  0  0  0  0  0  0  0  0  0  0  0
  -36.7864  -17.9876   18.7685 C   0  0  0  0  0  0  0  0  0  0  0  0
  -28.1881  -11.9484   18.6940 C   0  0  0  0  0  0  0  0  0  0  0  0
  -30.5582  -12.4162   19.4439 C   0  0  0  0  0  0  0  0  0  0  0  0
  -28.6815  -13.2168   20.8262 C   0  0  0  0  0  0  0  0  0  0  0  0
  -35.3764  -18.2860   18.2447 C   0  0  1  0  0  0  0  0  0  0  0  0
  -35.4628  -21.5915   16.3741 C   0  0  1  0  0  0  0  0  0  0  0  0
  -27.6980  -13.0477   19.6555 C   0  0  2  0  0  0  0  0  0  0  0  0
  -27.0397  -23.4540   17.6968 C   0  0  0  0  0  0  0  0  0  0  0  0
  -37.6540  -29.0124   16.0099 C   0  0  0  0  0  0  0  0  0  0  0  0
  -37.2228  -23.7782   20.0458 C   0  0  0  0  0  0  0  0  0  0  0  0
  -37.6235  -26.2318   19.7501 C   0  0  0  0  0  0  0  0  0  0  0  0
  -39.1358  -24.5814   18.6493 C   0  0  0  0  0  0  0  0  0  0  0  0
  -35.3505  -27.2022   13.5823 C   0  0  0  0  0  0  0  0  0  0  0  0
  -29.2191  -18.2844   20.6616 C   0  0  0  0  0  0  0  0  0  0  0  0
  -30.7070  -17.9055   20.8178 C   0  0  0  0  0  0  0  0  0  0  0  0
  -30.9629  -16.7603   21.7952 C   0  0  0  0  0  0  0  0  0  0  0  0
  -28.2618  -22.6574   17.2580 C   0  0  1  0  0  0  0  0  0  1  0  0
  -36.7903  -24.8987   17.7603 C   0  0  1  0  0  0  0  0  0  0  0  0
  -37.0248  -27.8031   15.3357 C   0  0  2  0  0  0  0  0  0  0  0  0
  -37.6688  -24.8607   19.0426 C   0  0  0  0  0  0  0  0  0  0  0  0
  -28.5175  -20.2566   17.5707 N   0  0  0  0  0  0  0  0  0  0  0  0
  -25.8741  -11.5113   20.2843 N   0  0  0  0  0  0  0  0  0  0  0  0
  -28.9517  -20.6670   20.2746 N   0  0  0  0  0  0  0  0  0  0  0  0
  -28.7220  -21.7176   19.4596 N   0  0  0  0  0  0  0  0  0  0  0  0
  -26.2824  -12.7829   20.1337 N   0  0  0  0  0  0  0  0  0  0  0  0
  -35.5217  -22.9621   16.8861 N   0  0  0  0  0  0  0  0  0  0  0  0
  -30.0374  -13.4723   20.3153 N   0  0  0  0  0  0  0  0  0  0  0  0
  -25.5729  -15.0325   20.3487 N   0  0  0  0  0  0  0  0  0  0  0  0
  -21.9327  -12.6682   21.5958 N   0  0  0  0  0  0  0  0  0  0  0  0
  -35.4187  -19.3353   17.2489 N   0  0  0  0  0  0  0  0  0  0  0  0
  -37.2063  -25.8963   16.7804 N   0  0  0  0  0  0  0  0  0  0  0  0
  -30.2659  -15.5494   21.4229 N   0  0  0  0  0  0  0  0  0  0  0  0
  -36.0299  -28.2866   14.3370 N   0  3  0  0  0  0  0  0  0  0  0  0
  -22.7602  -14.7832   21.2780 O   0  0  0  0  0  0  0  0  0  0  0  0
  -35.3695  -21.1608   18.6938 O   0  0  0  0  0  0  0  0  0  0  0  0
  -37.8322  -23.1057   16.6087 O   0  0  0  0  0  0  0  0  0  0  0  0
  -35.1955  -27.0497   16.7224 O   0  0  0  0  0  0  0  0  0  0  0  0
  -31.9758  -14.7321   20.1326 O   0  0  0  0  0  0  0  0  0  0  0  0
  -21.5211   -7.1161   21.7951 O   0  0  0  0  0  0  0  0  0  0  0  0
  -29.3894  -23.5318   17.2374 O   0  0  0  0  0  0  0  0  0  1  0  0
  -18.5479   -7.1070   26.4388 F   0  0  0  0  0  0  0  0  0  0  0  0
  -21.9314   -5.1929   23.7382 F   0  0  0  0  0  0  0  0  0  0  0  0
  1  2  1  0  0  0  0
  1  5  2  0  0  0  0
  2  6  2  0  0  0  0
  3  8  2  0  0  0  0
  3 16  1  0  0  0  0
  4  9  1  0  0  0  0
  4 16  2  0  0  0  0
  5 18  1  0  0  0  0
  6 20  1  0  0  0  0
  7 10  2  0  0  0  0
  7 19  1  0  0  0  0
  8 22  1  0  0  0  0
  9 22  2  0  0  0  0
 10 23  1  0  0  0  0
 11 12  2  0  0  0  0
 11 24  1  0  0  0  0
 12 25  1  0  0  0  0
 13 21  1  0  0  0  0
 13 23  2  0  0  0  0
 14 25  2  0  0  0  0
 14 26  1  0  0  0  0
 15 28  1  0  0  0  0
 15 61  2  0  0  0  0
 16 27  1  0  0  0  0
 17 27  1  0  0  0  0
 17 29  2  0  0  0  0
 17 31  1  0  0  0  0
 18 20  2  0  0  0  0
 18 36  1  0  0  0  0
 19 21  2  0  0  0  0
 19 37  1  0  0  0  0
 20 45  1  0  0  0  0
 21 38  1  0  0  0  0
 22 79  1  0  0  0  0
 23 80  1  0  0  0  0
 24 26  2  0  0  0  0
 24 79  1  0  0  0  0
 25 81  1  0  0  0  0
 26 82  1  0  0  0  0
 27 62  2  0  0  0  0
 28 54  1  0  0  0  0
 28 63  2  0  0  0  0
 29 65  1  0  0  0  0
 29 68  1  0  0  0  0
 30 57  1  0  0  0  0
 30 61  1  0  0  0  0
 30 64  2  0  0  0  0
 31 69  1  0  0  0  0
 31 74  2  0  0  0  0
 32 46  1  0  0  0  0
 32 70  1  0  0  0  0
 32 75  2  0  0  0  0
 33 58  1  0  0  0  0
 33 66  1  0  0  0  0
 33 76  2  0  0  0  0
 34 59  1  0  0  0  0
 34 71  1  0  0  0  0
 34 77  2  0  0  0  0
 35 67  1  0  0  0  0
 35 72  1  0  0  0  0
 35 78  2  0  0  0  0
 36 39  1  0  0  0  0
 37 46  1  0  0  0  0
 38 66  1  0  0  0  0
 39 41  1  0  0  0  0
 40 42  1  0  0  0  0
 40 43  1  0  0  0  0
 41 45  1  0  0  0  0
 42 47  1  0  0  0  0
 43 67  1  0  0  0  0
 44 47  1  0  0  0  0
 44 67  1  0  0  0  0
 45 70  1  0  0  0  0
 46 66  1  0  0  0  0
 47 65  1  0  0  0  0
 48 57  1  0  0  0  0
 49 59  1  0  0  0  0
 50 60  1  0  0  0  0
 51 60  1  0  0  0  0
 52 60  1  0  0  0  0
 53 73  1  0  0  0  0
 54 55  1  0  0  0  0
 55 56  1  0  0  0  0
 56 72  1  0  0  0  0
 57 80  1  0  0  0  0
 58 60  1  0  0  0  0
 58 71  1  0  0  0  0
 59 73  1  0  0  0  0
 62 65  1  0  0  0  0
 63 64  1  0  0  0  0
M  CHG  1  73   1
M  ISO  4  35 100  57 101  72 100  80 101
M  END
> <Batch ID>
0076

> <Smiles>
CNC(C)C(=O)NC(C(=O)N1Cc2cc([101O:1][101CH:1](C)c3ncc(CCC[100NH:0][100C:0](=O)N4CCCC(n5nc(-c6ccc(Oc7ccc(F)cc7F)cc6)c(C(N)=O)c5N)C4)nn3)ccc2CC1C(=O)NC1CCCc2ccccc21)C(C)(C)C

> <Shape>
0.216

> <Color>
0.208

> <Negative vol penalty>
0.000

$$$$

  -OEChem-04052318343D

 85 93  0     1  0  0  0  0  0999 V2000
  -24.5901  -34.4675   27.5202 C   0  0  0  0  0  0  0  0  0  0  0  0
  -24.6055  -33.0964   27.7552 C   0  0  0  0  0  0  0  0  0  0  0  0
  -26.4028  -12.6318   21.6293 C   0  0  0  0  0  0  0  0  0  0  0  0
  -25.9828  -13.5544   19.4363 C   0  0  0  0  0  0  0  0  0  0  0  0
  -24.1002  -34.9610   26.3118 C   0  0  0  0  0  0  0  0  0  0  0  0
  -24.1300  -32.2180   26.7822 C   0  0  0  0  0  0  0  0  0  0  0  0
  -26.2594  -26.6156   25.5233 C   0  0  0  0  0  0  0  0  0  0  0  0
  -25.1470  -12.0250   21.6146 C   0  0  0  0  0  0  0  0  0  0  0  0
  -24.7269  -12.9475   19.4215 C   0  0  0  0  0  0  0  0  0  0  0  0
  -25.8301  -25.3430   25.8974 C   0  0  0  0  0  0  0  0  0  0  0  0
  -23.7210   -9.2840   20.2411 C   0  0  0  0  0  0  0  0  0  0  0  0
  -23.6380   -7.9557   20.6587 C   0  0  0  0  0  0  0  0  0  0  0  0
  -24.6150  -25.1495   23.8224 C   0  0  0  0  0  0  0  0  0  0  0  0
  -22.1145   -8.6040   22.4182 C   0  0  0  0  0  0  0  0  0  0  0  0
  -29.1147  -21.7732   24.1914 C   0  0  0  0  0  0  0  0  0  0  0  0
  -26.8207  -13.3966   20.5402 C   0  0  0  0  0  0  0  0  0  0  0  0
  -29.3309  -13.4797   20.0934 C   0  0  0  0  0  0  0  0  0  0  0  0
  -23.6273  -34.0877   25.3197 C   0  0  0  0  0  0  0  0  0  0  0  0
  -25.8602  -27.1700   24.2987 C   0  0  0  0  0  0  0  0  0  0  0  0
  -23.6321  -32.7003   25.5599 C   0  0  0  0  0  0  0  0  0  0  0  0
  -25.0427  -26.4283   23.4340 C   0  0  0  0  0  0  0  0  0  0  0  0
  -24.3091  -12.1827   20.5107 C   0  0  0  0  0  0  0  0  0  0  0  0
  -25.0054  -24.6109   25.0482 C   0  0  0  0  0  0  0  0  0  0  0  0
  -23.0008  -10.2723   20.9121 C   0  0  0  0  0  0  0  0  0  0  0  0
  -22.8348   -7.6157   21.7472 C   0  0  0  0  0  0  0  0  0  0  0  0
  -22.1976   -9.9323   22.0006 C   0  0  0  0  0  0  0  0  0  0  0  0
  -28.1176  -14.0242   20.5551 C   0  0  0  0  0  0  0  0  0  0  0  0
  -28.8004  -21.5730   22.8769 C   0  0  0  0  0  0  0  0  0  0  0  0
  -30.2602  -14.4634   20.3283 C   0  0  0  0  0  0  0  0  0  0  0  0
  -26.9959  -21.1411   24.0841 C   0  0  0  0  0  0  0  0  0  0  0  0
  -29.5943  -12.1991   19.5047 C   0  0  0  0  0  0  0  0  0  0  0  0
  -24.1824  -29.7280   23.4351 C   0  0  0  0  0  0  0  0  0  0  0  0
  -25.0715  -28.8209   20.4502 C   0  0  0  0  0  0  0  0  0  0  0  0
  -29.7375  -20.4223   20.9030 C   0  0  0  0  0  0  0  0  0  0  0  0
  -26.0898  -26.3182   18.3655 C   0  0  0  0  0  0  0  0  0  0  0  0
  -23.0635  -34.6706   24.0481 C   0  0  0  0  0  0  0  0  0  0  0  0
  -26.3537  -28.5332   23.8979 C   0  0  0  0  0  0  0  0  0  0  0  0
  -24.6025  -26.9701   22.0994 C   0  0  0  0  0  0  0  0  0  0  0  0
  -22.9252  -33.6517   22.9198 C   0  0  0  0  0  0  0  0  0  0  0  0
  -31.1865  -18.1306   23.2458 C   0  0  0  0  0  0  0  0  0  0  0  0
  -22.2821  -32.3682   23.4355 C   0  0  0  0  0  0  0  0  0  0  0  0
  -30.6512  -16.7716   22.7966 C   0  0  0  0  0  0  0  0  0  0  0  0
  -30.1564  -19.2351   23.0313 C   0  0  0  0  0  0  0  0  0  0  0  0
  -29.1138  -17.9713   21.1772 C   0  0  0  0  0  0  0  0  0  0  0  0
  -23.1478  -31.7142   24.5192 C   0  0  1  0  0  0  0  0  0  0  0  0
  -25.4669  -29.2070   22.8552 C   0  0  1  0  0  0  0  0  0  0  0  0
  -30.1345  -16.8323   21.3482 C   0  0  2  0  0  0  0  0  0  0  0  0
  -26.9179  -25.2348   16.2589 C   0  0  0  0  0  0  0  0  0  0  0  0
  -31.0803  -22.1591   22.0102 C   0  0  0  0  0  0  0  0  0  0  0  0
  -29.1118  -22.7210   20.5807 C   0  0  0  0  0  0  0  0  0  0  0  0
  -22.1182  -28.8870   19.6860 C   0  0  0  0  0  0  0  0  0  0  0  0
  -22.6881  -27.5526   17.6456 C   0  0  0  0  0  0  0  0  0  0  0  0
  -23.6640  -29.8269   17.9592 C   0  0  0  0  0  0  0  0  0  0  0  0
  -27.6815  -20.2930   20.5651 C   0  0  0  0  0  0  0  0  0  0  0  0
  -26.0388  -22.1344   21.1042 C   0  0  0  0  0  0  0  0  0  0  0  0
  -25.6185  -19.8065   21.8613 C   0  0  0  0  0  0  0  0  0  0  0  0
  -28.9189  -26.7748   19.1051 C   0  0  0  0  0  0  0  0  0  0  0  0
  -25.5956  -20.7631   24.4962 C   0  0  0  0  0  0  0  0  0  0  0  0
  -25.2596  -21.1289   25.9436 C   0  0  0  0  0  0  0  0  0  0  0  0
  -25.4515  -22.6092   26.2524 C   0  0  0  0  0  0  0  0  0  1  0  0
  -24.4918  -27.9147   19.3911 C   0  0  1  0  0  0  0  0  0  0  0  0
  -27.2186  -26.2474   17.3530 C   0  0  2  0  0  0  0  0  0  0  0  0
  -29.6228  -21.7160   21.6692 C   0  0  0  0  0  0  0  0  0  0  0  0
  -23.2471  -28.5356   18.6964 C   0  0  0  0  0  0  0  0  0  0  0  0
  -26.7307  -20.8618   21.6417 C   0  0  0  0  0  0  0  0  0  0  0  0
  -28.2600  -15.2581   21.0463 N   0  0  0  0  0  0  0  0  0  0  0  0
  -27.4836  -21.1821   22.8399 N   0  0  0  0  0  0  0  0  0  0  0  0
  -29.5738  -15.4970   20.8947 N   0  0  0  0  0  0  0  0  0  0  0  0
  -27.9797  -21.4990   24.9156 N   0  3  0  0  0  0  0  0  0  0  0  0
  -25.1062  -28.3100   21.7555 N   0  0  0  0  0  0  0  0  0  0  0  0
  -29.6739  -19.2453   21.6492 N   0  0  0  0  0  0  0  0  0  0  0  0
  -31.5893  -14.5364   20.1037 N   0  0  0  0  0  0  0  0  0  0  0  0
  -28.5252  -11.3088   19.3358 N   0  0  0  0  0  0  0  0  0  0  0  0
  -24.2671  -31.0189   23.9206 N   0  0  0  0  0  0  0  0  0  0  0  0
  -25.5873  -27.5970   18.4816 N   0  0  0  0  0  0  0  0  0  0  0  0
  -28.4905  -25.8526   18.0220 N   0  3  0  0  0  0  0  0  0  0  0  0
  -30.7466  -11.8483   19.1545 O   0  0  0  0  0  0  0  0  0  0  0  0
  -23.1877  -29.0123   23.4401 O   0  0  0  0  0  0  0  0  0  0  0  0
  -25.4850  -29.9381   20.1300 O   0  0  0  0  0  0  0  0  0  0  0  0
  -29.8766  -20.4587   19.6776 O   0  0  0  0  0  0  0  0  0  0  0  0
  -25.6910  -25.3365   18.9883 O   0  0  0  0  0  0  0  0  0  0  0  0
  -23.0837  -11.5905   20.4959 O   0  0  0  0  0  0  0  0  0  0  0  0
  -24.5844  -23.3688   25.4113 O   0  0  0  0  0  0  0  0  0  1  0  0
  -22.7539   -6.3399   22.1471 F   0  0  0  0  0  0  0  0  0  0  0  0
  -21.5024  -10.8773   22.6485 F   0  0  0  0  0  0  0  0  0  0  0  0
  1  2  1  0  0  0  0
  1  5  2  0  0  0  0
  2  6  2  0  0  0  0
  3  8  2  0  0  0  0
  3 16  1  0  0  0  0
  4  9  1  0  0  0  0
  4 16  2  0  0  0  0
  5 18  1  0  0  0  0
  6 20  1  0  0  0  0
  7 10  2  0  0  0  0
  7 19  1  0  0  0  0
  8 22  1  0  0  0  0
  9 22  2  0  0  0  0
 10 23  1  0  0  0  0
 11 12  2  0  0  0  0
 11 24  1  0  0  0  0
 12 25  1  0  0  0  0
 13 21  1  0  0  0  0
 13 23  2  0  0  0  0
 14 25  2  0  0  0  0
 14 26  1  0  0  0  0
 15 28  2  0  0  0  0
 15 69  1  0  0  0  0
 16 27  1  0  0  0  0
 17 27  1  0  0  0  0
 17 29  2  0  0  0  0
 17 31  1  0  0  0  0
 18 20  2  0  0  0  0
 18 36  1  0  0  0  0
 19 21  2  0  0  0  0
 19 37  1  0  0  0  0
 20 45  1  0  0  0  0
 21 38  1  0  0  0  0
 22 82  1  0  0  0  0
 23 83  1  0  0  0  0
 24 26  2  0  0  0  0
 24 82  1  0  0  0  0
 25 84  1  0  0  0  0
 26 85  1  0  0  0  0
 27 66  2  0  0  0  0
 28 63  1  0  0  0  0
 28 67  1  0  0  0  0
 29 68  1  0  0  0  0
 29 72  1  0  0  0  0
 30 58  1  0  0  0  0
 30 67  1  0  0  0  0
 30 69  2  0  0  0  0
 31 73  1  0  0  0  0
 31 77  2  0  0  0  0
 32 46  1  0  0  0  0
 32 74  1  0  0  0  0
 32 78  2  0  0  0  0
 33 61  1  0  0  0  0
 33 70  1  0  0  0  0
 33 79  2  0  0  0  0
 34 63  1  0  0  0  0
 34 71  1  0  0  0  0
 34 80  2  0  0  0  0
 35 62  1  0  0  0  0
 35 75  1  0  0  0  0
 35 81  2  0  0  0  0
 36 39  1  0  0  0  0
 37 46  1  0  0  0  0
 38 70  1  0  0  0  0
 39 41  1  0  0  0  0
 40 42  1  0  0  0  0
 40 43  1  0  0  0  0
 41 45  1  0  0  0  0
 42 47  1  0  0  0  0
 43 71  1  0  0  0  0
 44 47  1  0  0  0  0
 44 71  1  0  0  0  0
 45 74  1  0  0  0  0
 46 70  1  0  0  0  0
 47 68  1  0  0  0  0
 48 62  1  0  0  0  0
 49 63  1  0  0  0  0
 50 63  1  0  0  0  0
 51 64  1  0  0  0  0
 52 64  1  0  0  0  0
 53 64  1  0  0  0  0
 54 65  1  0  0  0  0
 55 65  1  0  0  0  0
 56 65  1  0  0  0  0
 57 76  1  0  0  0  0
 58 59  1  0  0  0  0
 59 60  1  0  0  0  0
 60 83  1  0  0  0  0
 61 64  1  0  0  0  0
 61 75  1  0  0  0  0
 62 76  1  0  0  0  0
 65 67  1  0  0  0  0
 66 68  1  0  0  0  0
M  CHG  2  69   1  76   1
M  ISO  4  34 100  60 101  63 100  83 101
M  END
> <Batch ID>
0076

> <Smiles>
CNC(C)C(=O)NC(C(=O)N1Cc2cc([101O:1][101CH2:1]CCc3ncc([100C:0](C)(C)[100C:0](=O)N4CCCC(n5nc(-c6ccc(Oc7ccc(F)cc7F)cc6)c(C(N)=O)c5N)C4)n3C(C)(C)C)ccc2CC1C(=O)NC1CCCc2ccccc21)C(C)(C)C

> <Shape>
0.242

> <Color>
0.081

> <Negative vol penalty>
0.000

$$$$

  -OEChem-04052318343D

 88 96  0     1  0  0  0  0  0999 V2000
  -30.8805  -24.0971   13.0178 C   0  0  0  0  0  0  0  0  0  0  0  0
  -30.5620  -23.4912   14.2289 C   0  0  0  0  0  0  0  0  0  0  0  0
  -23.2319   -9.8254   19.9131 C   0  0  0  0  0  0  0  0  0  0  0  0
  -23.7870   -9.9257   22.2624 C   0  0  0  0  0  0  0  0  0  0  0  0
  -32.1610  -24.6086   12.8110 C   0  0  0  0  0  0  0  0  0  0  0  0
  -31.5242  -23.3955   15.2336 C   0  0  0  0  0  0  0  0  0  0  0  0
  -29.7006  -24.6303   19.7937 C   0  0  0  0  0  0  0  0  0  0  0  0
  -22.5069   -8.6545   20.1344 C   0  0  0  0  0  0  0  0  0  0  0  0
  -23.0619   -8.7548   22.4837 C   0  0  0  0  0  0  0  0  0  0  0  0
  -28.9290  -23.6733   20.4514 C   0  0  0  0  0  0  0  0  0  0  0  0
  -21.0574   -5.9895   23.7300 C   0  0  0  0  0  0  0  0  0  0  0  0
  -20.2031   -5.9534   24.8320 C   0  0  0  0  0  0  0  0  0  0  0  0
  -30.8400  -23.0615   21.7904 C   0  0  0  0  0  0  0  0  0  0  0  0
  -18.9652   -7.8236   23.9336 C   0  0  0  0  0  0  0  0  0  0  0  0
  -30.4185  -16.5881   19.9898 C   0  0  0  0  0  0  0  0  0  0  0  0
  -23.8721  -10.4610   20.9771 C   0  0  0  0  0  0  0  0  0  0  0  0
  -24.1408  -12.9920   20.8064 C   0  0  0  0  0  0  0  0  0  0  0  0
  -33.1364  -24.5277   13.8173 C   0  0  0  0  0  0  0  0  0  0  0  0
  -31.0528  -24.8029   20.1225 C   0  0  0  0  0  0  0  0  0  0  0  0
  -32.8193  -23.9052   15.0396 C   0  0  0  0  0  0  0  0  0  0  0  0
  -31.6259  -24.0231   21.1372 C   0  0  0  0  0  0  0  0  0  0  0  0
  -22.4218   -8.1193   21.4196 C   0  0  0  0  0  0  0  0  0  0  0  0
  -29.4994  -22.8867   21.4479 C   0  0  0  0  0  0  0  0  0  0  0  0
  -20.8657   -6.9428   22.7298 C   0  0  0  0  0  0  0  0  0  0  0  0
  -19.1570   -6.8704   24.9338 C   0  0  0  0  0  0  0  0  0  0  0  0
  -19.8196   -7.8598   22.8316 C   0  0  0  0  0  0  0  0  0  0  0  0
  -24.6217  -11.6702   20.7491 C   0  0  0  0  0  0  0  0  0  0  0  0
  -30.3238  -17.9436   20.1325 C   0  0  0  0  0  0  0  0  0  0  0  0
  -25.2357  -13.7686   20.5155 C   0  0  0  0  0  0  0  0  0  0  0  0
  -32.4715  -17.4078   20.1059 C   0  0  0  0  0  0  0  0  0  0  0  0
  -22.8224  -13.4748   21.0969 C   0  0  0  0  0  0  0  0  0  0  0  0
  -33.7998  -24.4959   18.5528 C   0  0  0  0  0  0  0  0  0  0  0  0
  -35.0479  -25.7253   21.2829 C   0  0  0  0  0  0  0  0  0  0  0  0
  -30.8698  -13.8275   21.5500 C   0  0  0  0  0  0  0  0  0  0  0  0
  -34.7273  -26.2359   24.6419 C   0  0  0  0  0  0  0  0  0  0  0  0
  -34.5209  -25.0527   13.5301 C   0  0  0  0  0  0  0  0  0  0  0  0
  -31.8646  -25.8579   19.4222 C   0  0  0  0  0  0  0  0  0  0  0  0
  -33.0679  -24.1832   21.5416 C   0  0  0  0  0  0  0  0  0  0  0  0
  -35.3711  -25.2457   14.7832 C   0  0  0  0  0  0  0  0  0  0  0  0
  -29.5586  -13.0083   18.2580 C   0  0  0  0  0  0  0  0  0  0  0  0
  -35.2705  -24.0233   15.6900 C   0  0  0  0  0  0  0  0  0  0  0  0
  -28.1028  -12.6764   18.5828 C   0  0  0  0  0  0  0  0  0  0  0  0
  -30.4985  -12.5639   19.3757 C   0  0  0  0  0  0  0  0  0  0  0  0
  -28.6847  -12.7826   21.0451 C   0  0  0  0  0  0  0  0  0  0  0  0
  -33.8283  -23.8044   16.1629 C   0  0  1  0  0  0  0  0  0  0  0  0
  -33.3660  -25.5943   19.4819 C   0  0  1  0  0  0  0  0  0  0  0  0
  -27.7009  -13.2421   19.9561 C   0  0  2  0  0  0  0  0  0  0  0  0
  -34.4354  -18.6859   21.0350 C   0  0  0  0  0  0  0  0  0  0  0  0
  -34.5692  -17.6681   18.7325 C   0  0  0  0  0  0  0  0  0  0  0  0
  -35.9266  -27.2376   26.6055 C   0  0  0  0  0  0  0  0  0  0  0  0
  -32.9966  -12.7262   20.9198 C   0  0  0  0  0  0  0  0  0  0  0  0
  -32.9885  -14.8395   22.2547 C   0  0  0  0  0  0  0  0  0  0  0  0
  -36.9275  -23.3229   21.3573 C   0  0  0  0  0  0  0  0  0  0  0  0
  -37.4084  -23.8615   23.7545 C   0  0  0  0  0  0  0  0  0  0  0  0
  -37.9938  -25.5010   21.9680 C   0  0  0  0  0  0  0  0  0  0  0  0
  -26.9939  -19.9767   23.3451 C   0  0  0  0  0  0  0  0  0  0  0  0
  -26.2059  -19.3651   21.0445 C   0  0  0  0  0  0  0  0  0  0  0  0
  -32.5438  -28.1717   25.1359 C   0  0  0  0  0  0  0  0  0  0  0  0
  -29.1243  -18.8569   20.2124 C   0  0  0  0  0  0  0  0  0  0  0  0
  -28.6598  -19.0439   21.6635 C   0  0  0  0  0  0  0  0  0  0  0  0
  -32.3093  -14.9503   19.8409 C   0  0  0  0  0  0  0  0  0  0  0  0
  -27.6835  -21.3540   21.3530 C   0  0  0  0  0  0  0  0  0  1  0  0
  -33.9506  -17.5266   20.1392 C   0  0  0  0  0  0  0  0  0  0  0  0
  -35.5659  -25.1461   22.5772 C   0  0  1  0  0  0  0  0  0  0  0  0
  -34.9162  -27.4776   25.4946 C   0  0  2  0  0  0  0  0  0  0  0  0
  -32.2930  -14.0742   21.1171 C   0  0  0  0  0  0  0  0  0  0  0  0
  -36.9472  -24.4533   22.4055 C   0  0  0  0  0  0  0  0  0  0  0  0
  -27.3890  -19.9198   21.8576 C   0  0  0  0  0  0  0  0  0  0  0  0
  -25.9208  -11.6068   20.4453 N   0  0  0  0  0  0  0  0  0  0  0  0
  -31.7585  -16.2843   19.9760 N   0  0  0  0  0  0  0  0  0  0  0  0
  -26.2656  -12.8986   20.3092 N   0  0  0  0  0  0  0  0  0  0  0  0
  -31.6090  -18.4247   20.2020 N   0  3  0  0  0  0  0  0  0  0  0  0
  -33.8219  -25.2238   20.8232 N   0  0  0  0  0  0  0  0  0  0  0  0
  -30.0657  -13.1010   20.6714 N   0  0  0  0  0  0  0  0  0  0  0  0
  -25.4083  -15.1040   20.4184 N   0  0  0  0  0  0  0  0  0  0  0  0
  -21.8149  -12.5407   21.3740 N   0  0  0  0  0  0  0  0  0  0  0  0
  -33.4985  -24.7306   17.2248 N   0  0  0  0  0  0  0  0  0  0  0  0
  -35.5614  -26.2386   23.5440 N   0  0  0  0  0  0  0  0  0  0  0  0
  -33.6228  -27.8817   26.1149 N   0  3  0  0  0  0  0  0  0  0  0  0
  -22.5421  -14.6975   21.0941 O   0  0  0  0  0  0  0  0  0  0  0  0
  -34.3672  -23.5093   19.0070 O   0  0  0  0  0  0  0  0  0  0  0  0
  -35.7033  -26.5959   20.7048 O   0  0  0  0  0  0  0  0  0  0  0  0
  -30.4853  -14.2703   22.6354 O   0  0  0  0  0  0  0  0  0  0  0  0
  -33.9231  -25.3503   24.9238 O   0  0  0  0  0  0  0  0  0  0  0  0
  -21.7142   -6.9769   21.6360 O   0  0  0  0  0  0  0  0  0  0  0  0
  -28.7487  -21.9514   22.0910 O   0  0  0  0  0  0  0  0  0  1  0  0
  -18.3357   -6.8346   25.9913 F   0  0  0  0  0  0  0  0  0  0  0  0
  -19.6297   -8.7771   21.8734 F   0  0  0  0  0  0  0  0  0  0  0  0
  1  2  1  0  0  0  0
  1  5  2  0  0  0  0
  2  6  2  0  0  0  0
  3  8  2  0  0  0  0
  3 16  1  0  0  0  0
  4  9  1  0  0  0  0
  4 16  2  0  0  0  0
  5 18  1  0  0  0  0
  6 20  1  0  0  0  0
  7 10  2  0  0  0  0
  7 19  1  0  0  0  0
  8 22  1  0  0  0  0
  9 22  2  0  0  0  0
 10 23  1  0  0  0  0
 11 12  2  0  0  0  0
 11 24  1  0  0  0  0
 12 25  1  0  0  0  0
 13 21  1  0  0  0  0
 13 23  2  0  0  0  0
 14 25  2  0  0  0  0
 14 26  1  0  0  0  0
 15 28  2  0  0  0  0
 15 70  1  0  0  0  0
 16 27  1  0  0  0  0
 17 27  1  0  0  0  0
 17 29  2  0  0  0  0
 17 31  1  0  0  0  0
 18 20  2  0  0  0  0
 18 36  1  0  0  0  0
 19 21  2  0  0  0  0
 19 37  1  0  0  0  0
 20 45  1  0  0  0  0
 21 38  1  0  0  0  0
 22 85  1  0  0  0  0
 23 86  1  0  0  0  0
 24 26  2  0  0  0  0
 24 85  1  0  0  0  0
 25 87  1  0  0  0  0
 26 88  1  0  0  0  0
 27 69  2  0  0  0  0
 28 59  1  0  0  0  0
 28 72  1  0  0  0  0
 29 71  1  0  0  0  0
 29 75  1  0  0  0  0
 30 63  1  0  0  0  0
 30 70  1  0  0  0  0
 30 72  2  0  0  0  0
 31 76  1  0  0  0  0
 31 80  2  0  0  0  0
 32 46  1  0  0  0  0
 32 77  1  0  0  0  0
 32 81  2  0  0  0  0
 33 64  1  0  0  0  0
 33 73  1  0  0  0  0
 33 82  2  0  0  0  0
 34 66  1  0  0  0  0
 34 74  1  0  0  0  0
 34 83  2  0  0  0  0
 35 65  1  0  0  0  0
 35 78  1  0  0  0  0
 35 84  2  0  0  0  0
 36 39  1  0  0  0  0
 37 46  1  0  0  0  0
 38 73  1  0  0  0  0
 39 41  1  0  0  0  0
 40 42  1  0  0  0  0
 40 43  1  0  0  0  0
 41 45  1  0  0  0  0
 42 47  1  0  0  0  0
 43 74  1  0  0  0  0
 44 47  1  0  0  0  0
 44 74  1  0  0  0  0
 45 77  1  0  0  0  0
 46 73  1  0  0  0  0
 47 71  1  0  0  0  0
 48 63  1  0  0  0  0
 49 63  1  0  0  0  0
 50 65  1  0  0  0  0
 51 66  1  0  0  0  0
 52 66  1  0  0  0  0
 53 67  1  0  0  0  0
 54 67  1  0  0  0  0
 55 67  1  0  0  0  0
 56 68  1  0  0  0  0
 57 68  1  0  0  0  0
 58 79  1  0  0  0  0
 59 60  1  0  0  0  0
 60 68  1  0  0  0  0
 61 66  1  0  0  0  0
 61 70  1  0  0  0  0
 62 68  1  0  0  0  0
 62 86  1  0  0  0  0
 64 67  1  0  0  0  0
 64 78  1  0  0  0  0
 65 79  1  0  0  0  0
 69 71  1  0  0  0  0
M  CHG  2  72   1  79   1
M  ISO  4  34 100  62 101  66 100  86 101
M  END
> <Batch ID>
0076

> <Smiles>
CNC(C)C(=O)NC(C(=O)N1Cc2cc([101O:1][101CH2:1]C(C)(C)CCc3cn(C[100C:0](C)(C)[100C:0](=O)N4CCCC(n5nc(-c6ccc(Oc7ccc(F)cc7F)cc6)c(C(N)=O)c5N)C4)c(C(C)C)n3)ccc2CC1C(=O)NC1CCCc2ccccc21)C(C)(C)C

> <Shape>
0.205

> <Color>
0.166

> <Negative vol penalty>
0.000

$$$$

  -OEChem-04052318343D

 87 95  0     1  0  0  0  0  0999 V2000
  -26.5187  -32.4303   17.7995 C   0  0  0  0  0  0  0  0  0  0  0  0
  -27.3803  -31.3579   18.0069 C   0  0  0  0  0  0  0  0  0  0  0  0
  -23.0584  -10.0996   19.9078 C   0  0  0  0  0  0  0  0  0  0  0  0
  -23.9207   -9.5665   22.1008 C   0  0  0  0  0  0  0  0  0  0  0  0
  -25.3681  -32.5589   18.5764 C   0  0  0  0  0  0  0  0  0  0  0  0
  -27.0924  -30.4140   18.9921 C   0  0  0  0  0  0  0  0  0  0  0  0
  -27.7774  -25.6600   17.3874 C   0  0  0  0  0  0  0  0  0  0  0  0
  -22.2877   -8.9373   19.9282 C   0  0  0  0  0  0  0  0  0  0  0  0
  -23.1499   -8.4041   22.1212 C   0  0  0  0  0  0  0  0  0  0  0  0
  -29.0887  -25.1899   17.3304 C   0  0  0  0  0  0  0  0  0  0  0  0
  -23.3019   -5.2907   20.8119 C   0  0  0  0  0  0  0  0  0  0  0  0
  -23.9138   -4.1149   21.2463 C   0  0  0  0  0  0  0  0  0  0  0  0
  -28.7622  -24.0426   19.4271 C   0  0  0  0  0  0  0  0  0  0  0  0
  -22.2980   -3.9342   23.0334 C   0  0  0  0  0  0  0  0  0  0  0  0
  -33.5658  -17.4271   18.6070 C   0  0  0  0  0  0  0  0  0  0  0  0
  -35.2507  -18.4358   19.6071 C   0  0  0  0  0  0  0  0  0  0  0  0
  -23.8750  -10.4142   20.9940 C   0  0  0  0  0  0  0  0  0  0  0  0
  -24.2971  -12.8918   21.4314 C   0  0  0  0  0  0  0  0  0  0  0  0
  -25.0610  -31.6108   19.5651 C   0  0  0  0  0  0  0  0  0  0  0  0
  -26.9507  -25.3333   18.4719 C   0  0  0  0  0  0  0  0  0  0  0  0
  -25.9374  -30.5308   19.7839 C   0  0  0  0  0  0  0  0  0  0  0  0
  -27.4399  -24.5077   19.4942 C   0  0  0  0  0  0  0  0  0  0  0  0
  -22.3334   -8.0895   21.0349 C   0  0  0  0  0  0  0  0  0  0  0  0
  -29.5822  -24.3835   18.3518 C   0  0  0  0  0  0  0  0  0  0  0  0
  -22.1881   -5.7883   21.4883 C   0  0  0  0  0  0  0  0  0  0  0  0
  -23.4118   -3.4366   22.3570 C   0  0  0  0  0  0  0  0  0  0  0  0
  -21.6861   -5.1101   22.5990 C   0  0  0  0  0  0  0  0  0  0  0  0
  -24.6719  -11.6145   20.9733 C   0  0  0  0  0  0  0  0  0  0  0  0
  -34.2907  -16.5499   19.3787 C   0  0  0  0  0  0  0  0  0  0  0  0
  -25.3967  -13.6790   21.1913 C   0  0  0  0  0  0  0  0  0  0  0  0
  -23.0651  -13.3276   22.0213 C   0  0  0  0  0  0  0  0  0  0  0  0
  -25.4646  -26.9929   20.7393 C   0  0  0  0  0  0  0  0  0  0  0  0
  -24.1976  -24.1005   21.4816 C   0  0  0  0  0  0  0  0  0  0  0  0
  -24.4746  -20.7009   21.3685 C   0  0  0  0  0  0  0  0  0  0  0  0
  -31.0801  -12.5972   20.8228 C   0  0  0  0  0  0  0  0  0  0  0  0
  -23.8302  -31.8178   20.4119 C   0  0  0  0  0  0  0  0  0  0  0  0
  -25.5301  -25.8264   18.5052 C   0  0  0  0  0  0  0  0  0  0  0  0
  -26.5865  -24.1114   20.6702 C   0  0  0  0  0  0  0  0  0  0  0  0
  -23.4038  -30.5705   21.1819 C   0  0  0  0  0  0  0  0  0  0  0  0
  -29.1520  -14.0920   18.2694 C   0  0  0  0  0  0  0  0  0  0  0  0
  -24.6077  -29.9241   21.8599 C   0  0  0  0  0  0  0  0  0  0  0  0
  -27.7337  -13.7407   18.7162 C   0  0  0  0  0  0  0  0  0  0  0  0
  -30.1283  -12.9359   18.4945 C   0  0  0  0  0  0  0  0  0  0  0  0
  -28.7126  -12.0656   20.3278 C   0  0  0  0  0  0  0  0  0  0  0  0
  -25.6466  -29.4728   20.8261 C   0  0  1  0  0  0  0  0  0  0  0  0
  -24.9399  -25.8538   19.9117 C   0  0  1  0  0  0  0  0  0  0  0  0
  -27.7245  -13.2312   20.1679 C   0  0  2  0  0  0  0  0  0  0  0  0
  -35.1846  -14.2314   18.9497 C   0  0  0  0  0  0  0  0  0  0  0  0
  -23.3024  -18.6037   22.0932 C   0  0  0  0  0  0  0  0  0  0  0  0
  -25.1672  -24.5491   24.3397 C   0  0  0  0  0  0  0  0  0  0  0  0
  -24.8352  -22.1037   24.7620 C   0  0  0  0  0  0  0  0  0  0  0  0
  -22.8865  -23.5392   24.1582 C   0  0  0  0  0  0  0  0  0  0  0  0
  -34.8614  -14.9829   22.0604 C   0  0  0  0  0  0  0  0  0  0  0  0
  -32.4497  -15.3867   21.5703 C   0  0  0  0  0  0  0  0  0  0  0  0
  -32.8411  -11.9235   19.1346 C   0  0  0  0  0  0  0  0  0  0  0  0
  -24.1436  -19.7821   18.5747 C   0  0  0  0  0  0  0  0  0  0  0  0
  -32.6105  -20.6284   18.8017 C   0  0  0  0  0  0  0  0  0  0  0  0
  -32.2844  -21.9936   18.1942 C   0  0  0  0  0  0  0  0  0  0  0  0
  -33.7953  -19.9355   18.1192 C   0  0  0  0  0  0  0  0  0  0  0  0
  -33.4602  -13.1148   21.2043 C   0  0  0  0  0  0  0  0  0  0  0  0
  -31.1266  -22.6663   18.9194 C   0  0  0  0  0  0  0  0  0  1  0  0
  -34.0603  -15.1116   19.5819 C   0  0  1  0  0  0  0  0  0  0  0  0
  -24.5950  -22.9598   22.3870 C   0  0  1  0  0  0  0  0  0  0  0  0
  -23.4811  -19.6217   20.9776 C   0  0  2  0  0  0  0  0  0  0  0  0
  -24.3879  -23.2968   23.8906 C   0  0  0  0  0  0  0  0  0  0  0  0
  -33.7167  -14.6447   21.0798 C   0  0  0  0  0  0  0  0  0  0  0  0
  -35.3380  -17.1841   19.9988 N   0  0  0  0  0  0  0  0  0  0  0  0
  -25.9126  -11.5875   20.4794 N   0  0  0  0  0  0  0  0  0  0  0  0
  -34.1925  -18.6313   18.7638 N   0  0  0  0  0  0  0  0  0  0  0  0
  -26.3269  -12.8575   20.6257 N   0  0  0  0  0  0  0  0  0  0  0  0
  -25.2064  -24.6239   20.6605 N   0  0  0  0  0  0  0  0  0  0  0  0
  -30.0533  -12.4492   19.8788 N   0  0  0  0  0  0  0  0  0  0  0  0
  -25.6489  -14.9869   21.4109 N   0  0  0  0  0  0  0  0  0  0  0  0
  -22.0390  -12.3890   22.1957 N   0  0  0  0  0  0  0  0  0  0  0  0
  -25.2279  -28.2403   20.1938 N   0  0  0  0  0  0  0  0  0  0  0  0
  -23.8475  -21.7943   21.9274 N   0  0  0  0  0  0  0  0  0  0  0  0
  -32.3974  -12.6199   20.3406 N   0  0  0  0  0  0  0  0  0  0  0  0
  -23.9484  -18.9048   19.7576 N   0  3  0  0  0  0  0  0  0  0  0  0
  -22.8738  -14.5179   22.3679 O   0  0  0  0  0  0  0  0  0  0  0  0
  -26.0401  -26.7576   21.7952 O   0  0  0  0  0  0  0  0  0  0  0  0
  -23.0331  -24.5073   21.4970 O   0  0  0  0  0  0  0  0  0  0  0  0
  -25.6863  -20.5839   21.1987 O   0  0  0  0  0  0  0  0  0  0  0  0
  -30.8351  -12.6957   22.0321 O   0  0  0  0  0  0  0  0  0  0  0  0
  -21.5812   -6.9553   21.0553 O   0  0  0  0  0  0  0  0  0  0  0  0
  -30.8620  -23.9239   18.2990 O   0  0  0  0  0  0  0  0  0  1  0  0
  -23.9986   -2.3067   22.7731 F   0  0  0  0  0  0  0  0  0  0  0  0
  -20.6156   -5.5826   23.2521 F   0  0  0  0  0  0  0  0  0  0  0  0
  1  2  1  0  0  0  0
  1  5  2  0  0  0  0
  2  6  2  0  0  0  0
  3  8  2  0  0  0  0
  3 17  1  0  0  0  0
  4  9  1  0  0  0  0
  4 17  2  0  0  0  0
  5 19  1  0  0  0  0
  6 21  1  0  0  0  0
  7 10  2  0  0  0  0
  7 20  1  0  0  0  0
  8 23  1  0  0  0  0
  9 23  2  0  0  0  0
 10 24  1  0  0  0  0
 11 12  2  0  0  0  0
 11 25  1  0  0  0  0
 12 26  1  0  0  0  0
 13 22  1  0  0  0  0
 13 24  2  0  0  0  0
 14 26  2  0  0  0  0
 14 27  1  0  0  0  0
 15 29  2  0  0  0  0
 15 69  1  0  0  0  0
 16 67  2  0  0  0  0
 16 69  1  0  0  0  0
 17 28  1  0  0  0  0
 18 28  1  0  0  0  0
 18 30  2  0  0  0  0
 18 31  1  0  0  0  0
 19 21  2  0  0  0  0
 19 36  1  0  0  0  0
 20 22  2  0  0  0  0
 20 37  1  0  0  0  0
 21 45  1  0  0  0  0
 22 38  1  0  0  0  0
 23 84  1  0  0  0  0
 24 85  1  0  0  0  0
 25 27  2  0  0  0  0
 25 84  1  0  0  0  0
 26 86  1  0  0  0  0
 27 87  1  0  0  0  0
 28 68  2  0  0  0  0
 29 62  1  0  0  0  0
 29 67  1  0  0  0  0
 30 70  1  0  0  0  0
 30 73  1  0  0  0  0
 31 74  1  0  0  0  0
 31 79  2  0  0  0  0
 32 46  1  0  0  0  0
 32 75  1  0  0  0  0
 32 80  2  0  0  0  0
 33 63  1  0  0  0  0
 33 71  1  0  0  0  0
 33 81  2  0  0  0  0
 34 64  1  0  0  0  0
 34 76  1  0  0  0  0
 34 82  2  0  0  0  0
 35 72  1  0  0  0  0
 35 77  1  0  0  0  0
 35 83  2  0  0  0  0
 36 39  1  0  0  0  0
 37 46  1  0  0  0  0
 38 71  1  0  0  0  0
 39 41  1  0  0  0  0
 40 42  1  0  0  0  0
 40 43  1  0  0  0  0
 41 45  1  0  0  0  0
 42 47  1  0  0  0  0
 43 72  1  0  0  0  0
 44 47  1  0  0  0  0
 44 72  1  0  0  0  0
 45 75  1  0  0  0  0
 46 71  1  0  0  0  0
 47 70  1  0  0  0  0
 48 62  1  0  0  0  0
 49 64  1  0  0  0  0
 50 65  1  0  0  0  0
 51 65  1  0  0  0  0
 52 65  1  0  0  0  0
 53 66  1  0  0  0  0
 54 66  1  0  0  0  0
 55 77  1  0  0  0  0
 56 78  1  0  0  0  0
 57 58  1  0  0  0  0
 57 59  1  0  0  0  0
 58 61  1  0  0  0  0
 59 69  1  0  0  0  0
 60 66  1  0  0  0  0
 60 77  1  0  0  0  0
 61 85  1  0  0  0  0
 62 66  1  0  0  0  0
 63 65  1  0  0  0  0
 63 76  1  0  0  0  0
 64 78  1  0  0  0  0
 68 70  1  0  0  0  0
M  CHG  1  78   1
M  ISO  4  35 100  61 101  77 100  85 101
M  END
> <Batch ID>
0076

> <Smiles>
CNC(C)C(=O)NC(C(=O)N1Cc2cc([101O:1][101CH2:1]CCCn3cnc(C(C)C(C)(C)C[100N:0](C)[100C:0](=O)N4CCCC(n5nc(-c6ccc(Oc7ccc(F)cc7F)cc6)c(C(N)=O)c5N)C4)c3)ccc2CC1C(=O)NC1CCCc2ccccc21)C(C)(C)C

> <Shape>
0.221

> <Color>
0.134

> <Negative vol penalty>
0.000

$$$$

  -OEChem-04052318343D

 84 92  0     1  0  0  0  0  0999 V2000
  -18.1897  -25.6181   20.5499 C   0  0  0  0  0  0  0  0  0  0  0  0
  -18.7942  -24.4455   20.1085 C   0  0  0  0  0  0  0  0  0  0  0  0
  -27.3077  -26.0167   18.2813 C   0  0  0  0  0  0  0  0  0  0  0  0
  -29.4845  -26.3533   19.2738 C   0  0  0  0  0  0  0  0  0  0  0  0
  -18.7575  -26.3422   21.5974 C   0  0  0  0  0  0  0  0  0  0  0  0
  -19.9676  -23.9967   20.7137 C   0  0  0  0  0  0  0  0  0  0  0  0
  -21.6356  -18.1786   21.6482 C   0  0  0  0  0  0  0  0  0  0  0  0
  -26.9384  -27.3094   18.6528 C   0  0  0  0  0  0  0  0  0  0  0  0
  -29.1153  -27.6461   19.6452 C   0  0  0  0  0  0  0  0  0  0  0  0
  -22.4854  -17.3226   20.9489 C   0  0  0  0  0  0  0  0  0  0  0  0
  -25.2983  -30.3957   19.6571 C   0  0  0  0  0  0  0  0  0  0  0  0
  -24.0397  -30.5725   20.2316 C   0  0  0  0  0  0  0  0  0  0  0  0
  -24.2841  -17.8892   22.4531 C   0  0  0  0  0  0  0  0  0  0  0  0
  -24.6499  -29.0773   22.0286 C   0  0  0  0  0  0  0  0  0  0  0  0
  -30.1547  -12.6620   18.9074 C   0  0  0  0  0  0  0  0  0  0  0  0
  -28.5807  -25.5385   18.5919 C   0  0  0  0  0  0  0  0  0  0  0  0
  -29.5734  -23.8058   17.0045 C   0  0  0  0  0  0  0  0  0  0  0  0
  -19.9331  -25.8970   22.2222 C   0  0  0  0  0  0  0  0  0  0  0  0
  -22.1075  -18.9059   22.7503 C   0  0  0  0  0  0  0  0  0  0  0  0
  -20.5524  -24.7162   21.7697 C   0  0  0  0  0  0  0  0  0  0  0  0
  -23.4377  -18.7519   23.1662 C   0  0  0  0  0  0  0  0  0  0  0  0
  -27.8422  -28.1242   19.3347 C   0  0  0  0  0  0  0  0  0  0  0  0
  -23.8106  -17.1800   21.3495 C   0  0  0  0  0  0  0  0  0  0  0  0
  -26.2328  -29.5597   20.2682 C   0  0  0  0  0  0  0  0  0  0  0  0
  -23.7155  -29.9133   21.4174 C   0  0  0  0  0  0  0  0  0  0  0  0
  -25.9086  -28.9005   21.4540 C   0  0  0  0  0  0  0  0  0  0  0  0
  -28.9626  -24.2030   18.2090 C   0  0  0  0  0  0  0  0  0  0  0  0
  -29.7283  -13.6869   19.7041 C   0  0  0  0  0  0  0  0  0  0  0  0
  -29.7275  -22.4468   17.1295 C   0  0  0  0  0  0  0  0  0  0  0  0
  -28.1960  -12.0904   19.7660 C   0  0  0  0  0  0  0  0  0  0  0  0
  -29.9664  -24.5949   15.8737 C   0  0  0  0  0  0  0  0  0  0  0  0
  -22.4177  -21.9948   23.4332 C   0  0  0  0  0  0  0  0  0  0  0  0
  -23.2746  -20.8643   26.3504 C   0  0  0  0  0  0  0  0  0  0  0  0
  -24.5206  -18.2860   28.2068 C   0  0  0  0  0  0  0  0  0  0  0  0
  -31.0085  -18.4978   20.8715 C   0  0  0  0  0  0  0  0  0  0  0  0
  -20.5356  -26.7385   23.3193 C   0  0  0  0  0  0  0  0  0  0  0  0
  -21.1711  -19.8048   23.5103 C   0  0  0  0  0  0  0  0  0  0  0  0
  -23.9880  -19.4947   24.3553 C   0  0  0  0  0  0  0  0  0  0  0  0
  -21.5749  -25.9960   24.1553 C   0  0  0  0  0  0  0  0  0  0  0  0
  -27.6428  -18.9312   19.8938 C   0  0  0  0  0  0  0  0  0  0  0  0
  -22.5451  -25.2403   23.2530 C   0  0  0  0  0  0  0  0  0  0  0  0
  -27.6926  -20.3120   19.2413 C   0  0  0  0  0  0  0  0  0  0  0  0
  -28.5118  -18.8579   21.1507 C   0  0  0  0  0  0  0  0  0  0  0  0
  -29.9631  -20.6638   20.2819 C   0  0  0  0  0  0  0  0  0  0  0  0
  -21.8123  -24.1839   22.4172 C   0  0  1  0  0  0  0  0  0  0  0  0
  -21.8952  -20.8877   24.3043 C   0  0  1  0  0  0  0  0  0  0  0  0
  -29.1458  -20.7465   18.9835 C   0  0  2  0  0  0  0  0  0  0  0  0
  -26.9718  -11.3123   20.0796 C   0  0  0  0  0  0  0  0  0  0  0  0
  -25.1415  -17.6727   30.5596 C   0  0  0  0  0  0  0  0  0  0  0  0
  -25.8172  -22.5341   26.1121 C   0  0  0  0  0  0  0  0  0  0  0  0
  -26.7981  -21.1796   27.9753 C   0  0  0  0  0  0  0  0  0  0  0  0
  -24.7603  -22.5607   28.3785 C   0  0  0  0  0  0  0  0  0  0  0  0
  -30.2691  -17.3468   23.0007 C   0  0  0  0  0  0  0  0  0  0  0  0
  -22.5449  -16.0836   28.2775 C   0  0  0  0  0  0  0  0  0  0  0  0
  -30.3578  -14.9761   20.0148 C   0  0  0  0  0  0  0  0  0  0  0  0
  -31.2923  -14.9747   21.2531 C   0  0  0  0  0  0  0  0  0  0  0  0
  -26.4909  -14.8287   20.4733 C   0  0  0  0  0  0  0  0  0  0  0  0
  -27.6638  -14.1256   21.1601 C   0  0  0  0  0  0  0  0  0  0  0  0
  -31.9606  -16.3202   21.5273 C   0  0  0  0  0  0  0  0  0  0  0  0
  -25.6935  -15.7285   21.4103 C   0  0  0  0  0  0  0  0  0  1  0  0
  -24.5746  -20.4513   26.9973 C   0  0  1  0  0  0  0  0  0  0  0  0
  -24.0461  -17.6580   29.5048 C   0  0  2  0  0  0  0  0  0  0  0  0
  -25.4780  -21.6688   27.3421 C   0  0  0  0  0  0  0  0  0  0  0  0
  -28.7434  -23.1790   19.0382 N   0  0  0  0  0  0  0  0  0  0  0  0
  -28.5138  -13.3064   20.2220 N   0  0  0  0  0  0  0  0  0  0  0  0
  -29.2191  -22.1250   18.3534 N   0  0  0  0  0  0  0  0  0  0  0  0
  -29.1875  -11.6877   18.9646 N   0  3  0  0  0  0  0  0  0  0  0  0
  -23.0349  -20.3664   25.0618 N   0  0  0  0  0  0  0  0  0  0  0  0
  -29.8764  -19.3258   20.8720 N   0  0  0  0  0  0  0  0  0  0  0  0
  -30.2469  -21.5075   16.3106 N   0  0  0  0  0  0  0  0  0  0  0  0
  -29.7352  -25.9767   15.9105 N   0  0  0  0  0  0  0  0  0  0  0  0
  -21.5145  -23.0193   23.2231 N   0  0  0  0  0  0  0  0  0  0  0  0
  -24.2149  -19.6292   28.1476 N   0  0  0  0  0  0  0  0  0  0  0  0
  -30.9945  -17.3902   21.7326 N   0  0  0  0  0  0  0  0  0  0  0  0
  -23.6332  -16.2445   29.2758 N   0  3  0  0  0  0  0  0  0  0  0  0
  -30.4917  -24.0872   14.8540 O   0  0  0  0  0  0  0  0  0  0  0  0
  -23.5566  -21.9255   22.9860 O   0  0  0  0  0  0  0  0  0  0  0  0
  -22.4971  -21.5958   26.9686 O   0  0  0  0  0  0  0  0  0  0  0  0
  -25.1073  -17.6495   27.3343 O   0  0  0  0  0  0  0  0  0  0  0  0
  -31.9832  -18.7384   20.1475 O   0  0  0  0  0  0  0  0  0  0  0  0
  -27.4823  -29.3858   19.6970 O   0  0  0  0  0  0  0  0  0  0  0  0
  -24.6423  -16.3456   20.6684 O   0  0  0  0  0  0  0  0  0  1  0  0
  -22.5073  -30.0844   21.9698 F   0  0  0  0  0  0  0  0  0  0  0  0
  -26.8026  -28.0970   22.0464 F   0  0  0  0  0  0  0  0  0  0  0  0
  1  2  1  0  0  0  0
  1  5  2  0  0  0  0
  2  6  2  0  0  0  0
  3  8  2  0  0  0  0
  3 16  1  0  0  0  0
  4  9  1  0  0  0  0
  4 16  2  0  0  0  0
  5 18  1  0  0  0  0
  6 20  1  0  0  0  0
  7 10  2  0  0  0  0
  7 19  1  0  0  0  0
  8 22  1  0  0  0  0
  9 22  2  0  0  0  0
 10 23  1  0  0  0  0
 11 12  2  0  0  0  0
 11 24  1  0  0  0  0
 12 25  1  0  0  0  0
 13 21  1  0  0  0  0
 13 23  2  0  0  0  0
 14 25  2  0  0  0  0
 14 26  1  0  0  0  0
 15 28  2  0  0  0  0
 15 67  1  0  0  0  0
 16 27  1  0  0  0  0
 17 27  1  0  0  0  0
 17 29  2  0  0  0  0
 17 31  1  0  0  0  0
 18 20  2  0  0  0  0
 18 36  1  0  0  0  0
 19 21  2  0  0  0  0
 19 37  1  0  0  0  0
 20 45  1  0  0  0  0
 21 38  1  0  0  0  0
 22 81  1  0  0  0  0
 23 82  1  0  0  0  0
 24 26  2  0  0  0  0
 24 81  1  0  0  0  0
 25 83  1  0  0  0  0
 26 84  1  0  0  0  0
 27 64  2  0  0  0  0
 28 55  1  0  0  0  0
 28 65  1  0  0  0  0
 29 66  1  0  0  0  0
 29 70  1  0  0  0  0
 30 48  1  0  0  0  0
 30 65  1  0  0  0  0
 30 67  2  0  0  0  0
 31 71  1  0  0  0  0
 31 76  2  0  0  0  0
 32 46  1  0  0  0  0
 32 72  1  0  0  0  0
 32 77  2  0  0  0  0
 33 61  1  0  0  0  0
 33 68  1  0  0  0  0
 33 78  2  0  0  0  0
 34 62  1  0  0  0  0
 34 73  1  0  0  0  0
 34 79  2  0  0  0  0
 35 69  1  0  0  0  0
 35 74  1  0  0  0  0
 35 80  2  0  0  0  0
 36 39  1  0  0  0  0
 37 46  1  0  0  0  0
 38 68  1  0  0  0  0
 39 41  1  0  0  0  0
 40 42  1  0  0  0  0
 40 43  1  0  0  0  0
 41 45  1  0  0  0  0
 42 47  1  0  0  0  0
 43 69  1  0  0  0  0
 44 47  1  0  0  0  0
 44 69  1  0  0  0  0
 45 72  1  0  0  0  0
 46 68  1  0  0  0  0
 47 66  1  0  0  0  0
 49 62  1  0  0  0  0
 50 63  1  0  0  0  0
 51 63  1  0  0  0  0
 52 63  1  0  0  0  0
 53 74  1  0  0  0  0
 54 75  1  0  0  0  0
 55 56  1  0  0  0  0
 56 59  1  0  0  0  0
 57 58  1  0  0  0  0
 57 60  1  0  0  0  0
 58 65  1  0  0  0  0
 59 74  1  0  0  0  0
 60 82  1  0  0  0  0
 61 63  1  0  0  0  0
 61 73  1  0  0  0  0
 62 75  1  0  0  0  0
 64 66  1  0  0  0  0
M  CHG  2  67   1  75   1
M  ISO  4  35 100  60 101  74 100  82 101
M  END
> <Batch ID>
0076

> <Smiles>
CNC(C)C(=O)NC(C(=O)N1Cc2cc([101O:1][101CH2:1]CCn3c(CCC[100N:0](C)[100C:0](=O)N4CCCC(n5nc(-c6ccc(Oc7ccc(F)cc7F)cc6)c(C(N)=O)c5N)C4)cnc3C)ccc2CC1C(=O)NC1CCCc2ccccc21)C(C)(C)C

> <Shape>
0.223

> <Color>
0.054

> <Negative vol penalty>
0.000

$$$$

  -OEChem-04052318343D

 83 91  0     1  0  0  0  0  0999 V2000
  -16.6325  -30.3310   24.7415 C   0  0  0  0  0  0  0  0  0  0  0  0
  -17.0491  -29.1496   24.1363 C   0  0  0  0  0  0  0  0  0  0  0  0
  -25.4529  -11.4602   20.9797 C   0  0  0  0  0  0  0  0  0  0  0  0
  -25.4772  -12.5725   23.1243 C   0  0  0  0  0  0  0  0  0  0  0  0
  -17.2326  -31.5404   24.3934 C   0  0  0  0  0  0  0  0  0  0  0  0
  -18.0653  -29.1771   23.1819 C   0  0  0  0  0  0  0  0  0  0  0  0
  -21.4737  -25.4948   23.8666 C   0  0  0  0  0  0  0  0  0  0  0  0
  -25.7121  -10.2423   21.6084 C   0  0  0  0  0  0  0  0  0  0  0  0
  -25.7363  -11.3546   23.7530 C   0  0  0  0  0  0  0  0  0  0  0  0
  -21.1209  -24.2140   23.4437 C   0  0  0  0  0  0  0  0  0  0  0  0
  -23.9764   -7.9141   23.3403 C   0  0  0  0  0  0  0  0  0  0  0  0
  -23.2286   -6.8064   22.9412 C   0  0  0  0  0  0  0  0  0  0  0  0
  -22.4132  -24.5292   21.4313 C   0  0  0  0  0  0  0  0  0  0  0  0
  -25.2584   -5.6727   22.2843 C   0  0  0  0  0  0  0  0  0  0  0  0
  -26.0024  -21.6127   21.9908 C   0  0  0  0  0  0  0  0  0  0  0  0
  -26.2181  -19.5057   22.5815 C   0  0  0  0  0  0  0  0  0  0  0  0
  -25.3355  -12.6253   21.7376 C   0  0  0  0  0  0  0  0  0  0  0  0
  -23.8082  -14.4465   20.8113 C   0  0  0  0  0  0  0  0  0  0  0  0
  -18.2634  -31.5814   23.4413 C   0  0  0  0  0  0  0  0  0  0  0  0
  -22.2913  -26.3079   23.0687 C   0  0  0  0  0  0  0  0  0  0  0  0
  -18.6789  -30.3883   22.8198 C   0  0  0  0  0  0  0  0  0  0  0  0
  -22.7770  -25.8190   21.8476 C   0  0  0  0  0  0  0  0  0  0  0  0
  -25.3067  -20.5332   22.5673 C   0  0  0  0  0  0  0  0  0  0  0  0
  -25.8538  -10.1895   22.9950 C   0  0  0  0  0  0  0  0  0  0  0  0
  -21.5884  -23.7321   22.2245 C   0  0  0  0  0  0  0  0  0  0  0  0
  -25.3653   -7.9011   23.2114 C   0  0  0  0  0  0  0  0  0  0  0  0
  -23.8695   -5.6857   22.4132 C   0  0  0  0  0  0  0  0  0  0  0  0
  -26.0063   -6.7804   22.6834 C   0  0  0  0  0  0  0  0  0  0  0  0
  -25.0684  -13.8837   21.0887 C   0  0  0  0  0  0  0  0  0  0  0  0
  -24.0934  -15.6382   20.1909 C   0  0  0  0  0  0  0  0  0  0  0  0
  -22.4970  -13.9375   21.0896 C   0  0  0  0  0  0  0  0  0  0  0  0
  -21.9343  -29.1155   21.6218 C   0  0  0  0  0  0  0  0  0  0  0  0
  -28.9323  -19.1971   20.3684 C   0  0  0  0  0  0  0  0  0  0  0  0
  -25.0867  -28.7351   20.9586 C   0  0  0  0  0  0  0  0  0  0  0  0
  -27.7241  -26.6093   20.5439 C   0  0  0  0  0  0  0  0  0  0  0  0
  -18.8494  -32.9187   23.0631 C   0  0  0  0  0  0  0  0  0  0  0  0
  -22.6845  -27.6771   23.5516 C   0  0  0  0  0  0  0  0  0  0  0  0
  -23.6741  -26.6446   20.9633 C   0  0  0  0  0  0  0  0  0  0  0  0
  -20.1766  -32.8128   22.3163 C   0  0  0  0  0  0  0  0  0  0  0  0
  -27.3993  -17.7544   17.4686 C   0  0  0  0  0  0  0  0  0  0  0  0
  -20.0867  -31.7618   21.2145 C   0  0  0  0  0  0  0  0  0  0  0  0
  -26.5354  -16.6311   18.0406 C   0  0  0  0  0  0  0  0  0  0  0  0
  -28.6911  -17.9245   18.2621 C   0  0  0  0  0  0  0  0  0  0  0  0
  -27.6173  -17.0205   20.2996 C   0  0  0  0  0  0  0  0  0  0  0  0
  -19.7952  -30.3741   21.7982 C   0  0  1  0  0  0  0  0  0  0  0  0
  -23.1028  -28.6121   22.4210 C   0  0  1  0  0  0  0  0  0  0  0  0
  -26.2884  -16.8356   19.5458 C   0  0  2  0  0  0  0  0  0  0  0  0
  -29.7667  -19.9454   22.5863 C   0  0  0  0  0  0  0  0  0  0  0  0
  -30.1666  -26.5894   19.9684 C   0  0  0  0  0  0  0  0  0  0  0  0
  -24.3960  -29.1940   18.0222 C   0  0  0  0  0  0  0  0  0  0  0  0
  -26.6305  -28.2389   17.4195 C   0  0  0  0  0  0  0  0  0  0  0  0
  -26.4936  -30.3196   18.7888 C   0  0  0  0  0  0  0  0  0  0  0  0
  -21.1313  -19.0716   23.4576 C   0  0  0  0  0  0  0  0  0  0  0  0
  -20.5229  -19.7419   21.1193 C   0  0  0  0  0  0  0  0  0  0  0  0
  -28.4490  -25.4241   23.1571 C   0  0  0  0  0  0  0  0  0  0  0  0
  -23.8806  -20.5084   23.0622 C   0  0  0  0  0  0  0  0  0  0  0  0
  -22.9100  -20.0887   21.9494 C   0  0  0  0  0  0  0  0  0  0  0  0
  -21.0065  -21.5045   22.8202 C   0  0  0  0  0  0  0  0  0  1  0  0
  -28.6018  -19.3048   21.8358 C   0  0  1  0  0  0  0  0  0  0  0  0
  -25.8744  -28.1034   19.8363 C   0  0  1  0  0  0  0  0  0  0  0  0
  -29.1403  -26.6428   21.0894 C   0  0  2  0  0  0  0  0  0  0  0  0
  -25.8302  -28.9489   18.5322 C   0  0  0  0  0  0  0  0  0  0  0  0
  -21.4026  -20.0887   22.3335 C   0  0  0  0  0  0  0  0  0  0  0  0
  -27.2588  -21.3002   21.6627 N   0  0  0  0  0  0  0  0  0  0  0  0
  -26.0790  -14.6545   20.6781 N   0  0  0  0  0  0  0  0  0  0  0  0
  -27.3599  -20.0127   22.0343 N   0  0  0  0  0  0  0  0  0  0  0  0
  -25.4541  -15.7137   20.1362 N   0  0  0  0  0  0  0  0  0  0  0  0
  -24.0253  -27.9792   21.4762 N   0  0  0  0  0  0  0  0  0  0  0  0
  -28.4149  -18.0936   19.6898 N   0  0  0  0  0  0  0  0  0  0  0  0
  -23.3105  -16.6184   19.6922 N   0  0  0  0  0  0  0  0  0  0  0  0
  -22.3843  -12.6976   21.7332 N   0  0  0  0  0  0  0  0  0  0  0  0
  -20.9965  -29.8030   22.3684 N   0  0  0  0  0  0  0  0  0  0  0  0
  -27.2184  -27.8784   20.3572 N   0  0  0  0  0  0  0  0  0  0  0  0
  -29.3738  -25.4833   21.9960 N   0  3  0  0  0  0  0  0  0  0  0  0
  -21.4560  -14.5561   20.7622 O   0  0  0  0  0  0  0  0  0  0  0  0
  -21.8877  -28.8977   20.4168 O   0  0  0  0  0  0  0  0  0  0  0  0
  -29.6271  -20.0703   19.8421 O   0  0  0  0  0  0  0  0  0  0  0  0
  -25.4059  -29.8548   21.3659 O   0  0  0  0  0  0  0  0  0  0  0  0
  -27.1275  -25.5620   20.3036 O   0  0  0  0  0  0  0  0  0  0  0  0
  -26.1064   -9.0013   23.6089 O   0  0  0  0  0  0  0  0  0  0  0  0
  -21.2451  -22.4826   21.8089 O   0  0  0  0  0  0  0  0  0  1  0  0
  -23.1514   -4.6215   22.0313 F   0  0  0  0  0  0  0  0  0  0  0  0
  -27.3404   -6.7616   22.5582 F   0  0  0  0  0  0  0  0  0  0  0  0
  1  2  1  0  0  0  0
  1  5  2  0  0  0  0
  2  6  2  0  0  0  0
  3  8  2  0  0  0  0
  3 17  1  0  0  0  0
  4  9  1  0  0  0  0
  4 17  2  0  0  0  0
  5 19  1  0  0  0  0
  6 21  1  0  0  0  0
  7 10  2  0  0  0  0
  7 20  1  0  0  0  0
  8 24  1  0  0  0  0
  9 24  2  0  0  0  0
 10 25  1  0  0  0  0
 11 12  2  0  0  0  0
 11 26  1  0  0  0  0
 12 27  1  0  0  0  0
 13 22  1  0  0  0  0
 13 25  2  0  0  0  0
 14 27  2  0  0  0  0
 14 28  1  0  0  0  0
 15 23  1  0  0  0  0
 15 64  2  0  0  0  0
 16 23  2  0  0  0  0
 16 66  1  0  0  0  0
 17 29  1  0  0  0  0
 18 29  1  0  0  0  0
 18 30  2  0  0  0  0
 18 31  1  0  0  0  0
 19 21  2  0  0  0  0
 19 36  1  0  0  0  0
 20 22  2  0  0  0  0
 20 37  1  0  0  0  0
 21 45  1  0  0  0  0
 22 38  1  0  0  0  0
 23 56  1  0  0  0  0
 24 80  1  0  0  0  0
 25 81  1  0  0  0  0
 26 28  2  0  0  0  0
 26 80  1  0  0  0  0
 27 82  1  0  0  0  0
 28 83  1  0  0  0  0
 29 65  2  0  0  0  0
 30 67  1  0  0  0  0
 30 70  1  0  0  0  0
 31 71  1  0  0  0  0
 31 75  2  0  0  0  0
 32 46  1  0  0  0  0
 32 72  1  0  0  0  0
 32 76  2  0  0  0  0
 33 59  1  0  0  0  0
 33 69  1  0  0  0  0
 33 77  2  0  0  0  0
 34 60  1  0  0  0  0
 34 68  1  0  0  0  0
 34 78  2  0  0  0  0
 35 61  1  0  0  0  0
 35 73  1  0  0  0  0
 35 79  2  0  0  0  0
 36 39  1  0  0  0  0
 37 46  1  0  0  0  0
 38 68  1  0  0  0  0
 39 41  1  0  0  0  0
 40 42  1  0  0  0  0
 40 43  1  0  0  0  0
 41 45  1  0  0  0  0
 42 47  1  0  0  0  0
 43 69  1  0  0  0  0
 44 47  1  0  0  0  0
 44 69  1  0  0  0  0
 45 72  1  0  0  0  0
 46 68  1  0  0  0  0
 47 67  1  0  0  0  0
 48 59  1  0  0  0  0
 49 61  1  0  0  0  0
 50 62  1  0  0  0  0
 51 62  1  0  0  0  0
 52 62  1  0  0  0  0
 53 63  1  0  0  0  0
 54 63  1  0  0  0  0
 55 74  1  0  0  0  0
 56 57  1  0  0  0  0
 57 63  1  0  0  0  0
 58 63  1  0  0  0  0
 58 81  1  0  0  0  0
 59 66  1  0  0  0  0
 60 62  1  0  0  0  0
 60 73  1  0  0  0  0
 61 74  1  0  0  0  0
 64 66  1  0  0  0  0
 65 67  1  0  0  0  0
M  CHG  1  74   1
M  ISO  4  33 100  58 101  59 100  81 101
M  END
> <Batch ID>
0076

> <Smiles>
CNC(C)C(=O)NC(C(=O)N1Cc2cc([101O:1][101CH2:1]C(C)(C)CCc3cnn([100CH:0](C)[100C:0](=O)N4CCCC(n5nc(-c6ccc(Oc7ccc(F)cc7F)cc6)c(C(N)=O)c5N)C4)c3)ccc2CC1C(=O)NC1CCCc2ccccc21)C(C)(C)C

> <Shape>
0.210

> <Color>
0.070

> <Negative vol penalty>
0.000

$$$$

  -OEChem-04052318343D

 85 93  0     1  0  0  0  0  0999 V2000
  -22.1090  -31.2966   17.9020 C   0  0  0  0  0  0  0  0  0  0  0  0
  -22.9487  -30.2413   17.5605 C   0  0  0  0  0  0  0  0  0  0  0  0
  -24.0356  -10.1981   22.9655 C   0  0  0  0  0  0  0  0  0  0  0  0
  -24.3847  -12.1595   24.3323 C   0  0  0  0  0  0  0  0  0  0  0  0
  -22.2770  -31.9535   19.1202 C   0  0  0  0  0  0  0  0  0  0  0  0
  -23.9576  -29.8429   18.4367 C   0  0  0  0  0  0  0  0  0  0  0  0
  -26.0000  -24.1423   19.3520 C   0  0  0  0  0  0  0  0  0  0  0  0
  -27.7498  -19.6451   20.3387 C   0  0  0  0  0  0  0  0  0  0  0  0
  -23.5880   -9.4974   24.0854 C   0  0  0  0  0  0  0  0  0  0  0  0
  -23.9371  -11.4588   25.4522 C   0  0  0  0  0  0  0  0  0  0  0  0
  -27.1056  -23.4514   18.8581 C   0  0  0  0  0  0  0  0  0  0  0  0
  -20.7547   -9.2768   25.9175 C   0  0  0  0  0  0  0  0  0  0  0  0
  -19.6018   -8.5037   25.7803 C   0  0  0  0  0  0  0  0  0  0  0  0
  -27.0141  -19.0958   21.3828 C   0  0  0  0  0  0  0  0  0  0  0  0
  -28.3428  -24.0198   20.8495 C   0  0  0  0  0  0  0  0  0  0  0  0
  -20.8560   -6.5274   26.3787 C   0  0  0  0  0  0  0  0  0  0  0  0
  -24.4340  -11.5292   23.0890 C   0  0  0  0  0  0  0  0  0  0  0  0
  -24.1200  -13.0147   21.0390 C   0  0  0  0  0  0  0  0  0  0  0  0
  -23.2823  -31.5567   20.0161 C   0  0  0  0  0  0  0  0  0  0  0  0
  -26.0611  -24.7874   20.5956 C   0  0  0  0  0  0  0  0  0  0  0  0
  -24.1401  -30.4960   19.6676 C   0  0  0  0  0  0  0  0  0  0  0  0
  -27.2357  -24.7160   21.3581 C   0  0  0  0  0  0  0  0  0  0  0  0
  -29.0676  -19.2487   20.1402 C   0  0  0  0  0  0  0  0  0  0  0  0
  -23.5387  -10.1277   25.3288 C   0  0  0  0  0  0  0  0  0  0  0  0
  -28.2782  -23.3925   19.6055 C   0  0  0  0  0  0  0  0  0  0  0  0
  -21.9583   -8.6752   26.2852 C   0  0  0  0  0  0  0  0  0  0  0  0
  -19.6525   -7.1290   26.0110 C   0  0  0  0  0  0  0  0  0  0  0  0
  -22.0089   -7.3005   26.5159 C   0  0  0  0  0  0  0  0  0  0  0  0
  -24.8971  -12.2535   21.9326 C   0  0  0  0  0  0  0  0  0  0  0  0
  -27.6374  -18.1611   22.1938 C   0  0  0  0  0  0  0  0  0  0  0  0
  -29.5990  -18.3073   21.0070 C   0  0  0  0  0  0  0  0  0  0  0  0
  -25.0228  -13.4943   20.1217 C   0  0  0  0  0  0  0  0  0  0  0  0
  -22.7084  -13.2659   21.0383 C   0  0  0  0  0  0  0  0  0  0  0  0
  -25.7960  -27.7996   21.5755 C   0  0  0  0  0  0  0  0  0  0  0  0
  -25.9542  -26.4462   24.5192 C   0  0  0  0  0  0  0  0  0  0  0  0
  -26.9492  -23.8118   26.4471 C   0  0  0  0  0  0  0  0  0  0  0  0
  -30.9105  -14.5554   20.3657 C   0  0  0  0  0  0  0  0  0  0  0  0
  -23.4556  -32.3278   21.3006 C   0  0  0  0  0  0  0  0  0  0  0  0
  -24.8509  -25.5059   21.1263 C   0  0  0  0  0  0  0  0  0  0  0  0
  -27.3460  -25.3745   22.7082 C   0  0  0  0  0  0  0  0  0  0  0  0
  -24.3091  -31.6011   22.3368 C   0  0  0  0  0  0  0  0  0  0  0  0
  -29.2130  -12.4203   18.0773 C   0  0  0  0  0  0  0  0  0  0  0  0
  -25.5732  -31.0429   21.6906 C   0  0  0  0  0  0  0  0  0  0  0  0
  -27.8443  -12.2041   18.7253 C   0  0  0  0  0  0  0  0  0  0  0  0
  -30.3257  -12.4952   19.1205 C   0  0  0  0  0  0  0  0  0  0  0  0
  -28.7374  -13.2706   20.8380 C   0  0  0  0  0  0  0  0  0  0  0  0
  -25.2302  -30.0185   20.6023 C   0  0  1  0  0  0  0  0  0  0  0  0
  -25.1938  -26.5601   22.1744 C   0  0  1  0  0  0  0  0  0  0  0  0
  -27.5761  -13.2442   19.8296 C   0  0  2  0  0  0  0  0  0  0  0  0
  -27.4991  -17.8727   24.6941 C   0  0  0  0  0  0  0  0  0  0  0  0
  -26.7163  -16.0260   23.1670 C   0  0  0  0  0  0  0  0  0  0  0  0
  -26.9736  -23.0090   28.8246 C   0  0  0  0  0  0  0  0  0  0  0  0
  -28.2433  -28.3654   25.1412 C   0  0  0  0  0  0  0  0  0  0  0  0
  -28.8348  -26.9163   27.0952 C   0  0  0  0  0  0  0  0  0  0  0  0
  -26.6125  -28.0462   27.0102 C   0  0  0  0  0  0  0  0  0  0  0  0
  -25.3115  -21.4374   25.7842 C   0  0  0  0  0  0  0  0  0  0  0  0
  -29.8710  -19.8418   19.0104 C   0  0  0  0  0  0  0  0  0  0  0  0
  -31.0083  -17.8417   20.8400 C   0  0  0  0  0  0  0  0  0  0  0  0
  -30.8830  -20.8971   19.4620 C   0  0  0  0  0  0  0  0  0  0  0  0
  -31.3504  -16.6103   21.6858 C   0  0  0  0  0  0  0  0  0  0  0  0
  -30.2346  -22.1280   20.0847 C   0  0  0  0  0  0  0  0  0  1  0  0
  -26.8767  -17.5498   23.3229 C   0  0  0  0  0  0  0  0  0  0  0  0
  -27.0683  -26.0906   25.4739 C   0  0  1  0  0  0  0  0  0  0  0  0
  -26.2180  -23.0048   27.5048 C   0  0  2  0  0  0  0  0  0  0  0  0
  -27.6886  -27.3437   26.1539 C   0  0  0  0  0  0  0  0  0  0  0  0
  -26.1936  -12.2468   21.6119 N   0  0  0  0  0  0  0  0  0  0  0  0
  -28.9154  -17.7512   22.0322 N   0  0  0  0  0  0  0  0  0  0  0  0
  -26.2383  -13.0098   20.5064 N   0  0  0  0  0  0  0  0  0  0  0  0
  -26.1377  -26.0703   23.1810 N   0  0  0  0  0  0  0  0  0  0  0  0
  -30.0107  -13.5011   20.1378 N   0  0  0  0  0  0  0  0  0  0  0  0
  -24.8875  -14.2790   19.0315 N   0  0  0  0  0  0  0  0  0  0  0  0
  -21.9279  -12.6964   22.0536 N   0  0  0  0  0  0  0  0  0  0  0  0
  -24.8672  -28.7505   21.1981 N   0  0  0  0  0  0  0  0  0  0  0  0
  -26.5107  -25.1185   26.4080 N   0  0  0  0  0  0  0  0  0  0  0  0
  -30.5325  -15.4684   21.3425 N   0  0  0  0  0  0  0  0  0  0  0  0
  -26.0580  -21.5916   27.0593 N   0  3  0  0  0  0  0  0  0  0  0  0
  -22.1533  -13.9609   20.1538 O   0  0  0  0  0  0  0  0  0  0  0  0
  -27.0133  -27.8873   21.4653 O   0  0  0  0  0  0  0  0  0  0  0  0
  -24.9548  -27.0294   24.9465 O   0  0  0  0  0  0  0  0  0  0  0  0
  -27.8245  -23.3320   25.7301 O   0  0  0  0  0  0  0  0  0  0  0  0
  -31.9697  -14.6771   19.7408 O   0  0  0  0  0  0  0  0  0  0  0  0
  -23.1018   -9.4442   26.4217 O   0  0  0  0  0  0  0  0  0  0  0  0
  -29.3591  -22.7194   19.1254 O   0  0  0  0  0  0  0  0  0  1  0  0
  -18.5450   -6.3870   25.8807 F   0  0  0  0  0  0  0  0  0  0  0  0
  -23.1620   -6.7170   26.8706 F   0  0  0  0  0  0  0  0  0  0  0  0
  1  2  1  0  0  0  0
  1  5  2  0  0  0  0
  2  6  2  0  0  0  0
  3  9  2  0  0  0  0
  3 17  1  0  0  0  0
  4 10  1  0  0  0  0
  4 17  2  0  0  0  0
  5 19  1  0  0  0  0
  6 21  1  0  0  0  0
  7 11  2  0  0  0  0
  7 20  1  0  0  0  0
  8 14  2  0  0  0  0
  8 23  1  0  0  0  0
  9 24  1  0  0  0  0
 10 24  2  0  0  0  0
 11 25  1  0  0  0  0
 12 13  2  0  0  0  0
 12 26  1  0  0  0  0
 13 27  1  0  0  0  0
 14 30  1  0  0  0  0
 15 22  1  0  0  0  0
 15 25  2  0  0  0  0
 16 27  2  0  0  0  0
 16 28  1  0  0  0  0
 17 29  1  0  0  0  0
 18 29  1  0  0  0  0
 18 32  2  0  0  0  0
 18 33  1  0  0  0  0
 19 21  2  0  0  0  0
 19 38  1  0  0  0  0
 20 22  2  0  0  0  0
 20 39  1  0  0  0  0
 21 47  1  0  0  0  0
 22 40  1  0  0  0  0
 23 31  2  0  0  0  0
 23 57  1  0  0  0  0
 24 82  1  0  0  0  0
 25 83  1  0  0  0  0
 26 28  2  0  0  0  0
 26 82  1  0  0  0  0
 27 84  1  0  0  0  0
 28 85  1  0  0  0  0
 29 66  2  0  0  0  0
 30 62  1  0  0  0  0
 30 67  2  0  0  0  0
 31 58  1  0  0  0  0
 31 67  1  0  0  0  0
 32 68  1  0  0  0  0
 32 71  1  0  0  0  0
 33 72  1  0  0  0  0
 33 77  2  0  0  0  0
 34 48  1  0  0  0  0
 34 73  1  0  0  0  0
 34 78  2  0  0  0  0
 35 63  1  0  0  0  0
 35 69  1  0  0  0  0
 35 79  2  0  0  0  0
 36 64  1  0  0  0  0
 36 74  1  0  0  0  0
 36 80  2  0  0  0  0
 37 70  1  0  0  0  0
 37 75  1  0  0  0  0
 37 81  2  0  0  0  0
 38 41  1  0  0  0  0
 39 48  1  0  0  0  0
 40 69  1  0  0  0  0
 41 43  1  0  0  0  0
 42 44  1  0  0  0  0
 42 45  1  0  0  0  0
 43 47  1  0  0  0  0
 44 49  1  0  0  0  0
 45 70  1  0  0  0  0
 46 49  1  0  0  0  0
 46 70  1  0  0  0  0
 47 73  1  0  0  0  0
 48 69  1  0  0  0  0
 49 68  1  0  0  0  0
 50 62  1  0  0  0  0
 51 62  1  0  0  0  0
 52 64  1  0  0  0  0
 53 65  1  0  0  0  0
 54 65  1  0  0  0  0
 55 65  1  0  0  0  0
 56 76  1  0  0  0  0
 57 59  1  0  0  0  0
 58 60  1  0  0  0  0
 59 61  1  0  0  0  0
 60 75  1  0  0  0  0
 61 83  1  0  0  0  0
 63 65  1  0  0  0  0
 63 74  1  0  0  0  0
 64 76  1  0  0  0  0
 66 68  1  0  0  0  0
M  CHG  1  76   1
M  ISO  4  37 100  61 101  75 100  83 101
M  END
> <Batch ID>
0076

> <Smiles>
CNC(C)C(=O)NC(C(=O)N1Cc2cc([101O:1][101CH2:1]CCc3ccc(C(C)C)nc3CC[100NH:0][100C:0](=O)N3CCCC(n4nc(-c5ccc(Oc6ccc(F)cc6F)cc5)c(C(N)=O)c4N)C3)ccc2CC1C(=O)NC1CCCc2ccccc21)C(C)(C)C

> <Shape>
0.213

> <Color>
0.110

> <Negative vol penalty>
0.000

$$$$

  -OEChem-04052318343D

 85 93  0     1  0  0  0  0  0999 V2000
  -16.7503  -29.9754   23.0094 C   0  0  0  0  0  0  0  0  0  0  0  0
  -17.8114  -30.1957   22.1371 C   0  0  0  0  0  0  0  0  0  0  0  0
  -25.1594  -10.5085   22.8013 C   0  0  0  0  0  0  0  0  0  0  0  0
  -24.7751  -12.0320   24.6366 C   0  0  0  0  0  0  0  0  0  0  0  0
  -16.9548  -29.2571   24.1867 C   0  0  0  0  0  0  0  0  0  0  0  0
  -19.0780  -29.6987   22.4422 C   0  0  0  0  0  0  0  0  0  0  0  0
  -24.9609  -27.0938   19.2921 C   0  0  0  0  0  0  0  0  0  0  0  0
  -24.8699   -9.4294   23.6364 C   0  0  0  0  0  0  0  0  0  0  0  0
  -24.4855  -10.9529   25.4718 C   0  0  0  0  0  0  0  0  0  0  0  0
  -26.3414  -27.2858   19.2622 C   0  0  0  0  0  0  0  0  0  0  0  0
  -23.8803   -6.2965   25.1923 C   0  0  0  0  0  0  0  0  0  0  0  0
  -23.0431   -5.2979   24.6949 C   0  0  0  0  0  0  0  0  0  0  0  0
  -26.5592  -25.9911   21.2859 C   0  0  0  0  0  0  0  0  0  0  0  0
  -21.2800   -6.9232   24.3996 C   0  0  0  0  0  0  0  0  0  0  0  0
  -25.1120  -11.8098   23.3015 C   0  0  0  0  0  0  0  0  0  0  0  0
  -24.5053  -13.6530   21.6455 C   0  0  0  0  0  0  0  0  0  0  0  0
  -18.2224  -28.7427   24.5017 C   0  0  0  0  0  0  0  0  0  0  0  0
  -24.3670  -26.3569   20.3268 C   0  0  0  0  0  0  0  0  0  0  0  0
  -19.3000  -28.9739   23.6255 C   0  0  0  0  0  0  0  0  0  0  0  0
  -25.1712  -25.7890   21.3252 C   0  0  0  0  0  0  0  0  0  0  0  0
  -24.5329   -9.6516   24.9716 C   0  0  0  0  0  0  0  0  0  0  0  0
  -27.1406  -26.7369   20.2608 C   0  0  0  0  0  0  0  0  0  0  0  0
  -23.4174   -7.6085   25.2934 C   0  0  0  0  0  0  0  0  0  0  0  0
  -21.7429   -5.6113   24.2985 C   0  0  0  0  0  0  0  0  0  0  0  0
  -22.1173   -7.9218   24.8971 C   0  0  0  0  0  0  0  0  0  0  0  0
  -25.4115  -12.9248   22.4395 C   0  0  0  0  0  0  0  0  0  0  0  0
  -25.2796  -14.6007   21.0221 C   0  0  0  0  0  0  0  0  0  0  0  0
  -23.0901  -13.4875   21.4859 C   0  0  0  0  0  0  0  0  0  0  0  0
  -22.2566  -27.0017   22.6147 C   0  0  0  0  0  0  0  0  0  0  0  0
  -22.4630  -23.8116   23.1648 C   0  0  0  0  0  0  0  0  0  0  0  0
  -24.2824  -20.9369   22.8952 C   0  0  0  0  0  0  0  0  0  0  0  0
  -29.1447  -18.4694   21.2243 C   0  0  0  0  0  0  0  0  0  0  0  0
  -18.4053  -28.0129   25.8089 C   0  0  0  0  0  0  0  0  0  0  0  0
  -22.8791  -26.1363   20.3300 C   0  0  0  0  0  0  0  0  0  0  0  0
  -24.5848  -24.9725   22.4469 C   0  0  0  0  0  0  0  0  0  0  0  0
  -19.6947  -27.1986   25.8766 C   0  0  0  0  0  0  0  0  0  0  0  0
  -30.3076  -15.0776   20.7336 C   0  0  0  0  0  0  0  0  0  0  0  0
  -20.8751  -28.0252   25.3762 C   0  0  0  0  0  0  0  0  0  0  0  0
  -29.5957  -24.2331   18.3509 C   0  0  0  0  0  0  0  0  0  0  0  0
  -31.9113  -24.4316   19.3389 C   0  0  0  0  0  0  0  0  0  0  0  0
  -29.5902  -22.7380   18.6644 C   0  0  0  0  0  0  0  0  0  0  0  0
  -31.9055  -22.9365   19.6526 C   0  0  0  0  0  0  0  0  0  0  0  0
  -29.0509  -14.2734   21.0714 C   0  0  0  0  0  0  0  0  0  0  0  0
  -30.4454  -16.2955   21.6425 C   0  0  0  0  0  0  0  0  0  0  0  0
  -28.0061  -16.4010   21.9777 C   0  0  0  0  0  0  0  0  0  0  0  0
  -20.6831  -28.4295   23.9095 C   0  0  1  0  0  0  0  0  0  0  0  0
  -22.3276  -25.8021   21.7126 C   0  0  1  0  0  0  0  0  0  0  0  0
  -30.4919  -25.0128   19.3216 C   0  0  0  0  0  0  0  0  0  0  0  0
  -31.0098  -22.1571   18.6815 C   0  0  0  0  0  0  0  0  0  0  0  0
  -27.7978  -15.1688   21.0787 C   0  0  2  0  0  0  0  0  0  0  0  0
  -31.6367  -28.7139   19.5876 C   0  0  0  0  0  0  0  0  0  0  0  0
  -24.2052  -18.4955   23.4705 C   0  0  0  0  0  0  0  0  0  0  0  0
  -32.4210  -20.1186   19.0126 C   0  0  0  0  0  0  0  0  0  0  0  0
  -30.1422  -19.8987   18.0109 C   0  0  0  0  0  0  0  0  0  0  0  0
  -23.0833  -24.4805   26.0764 C   0  0  0  0  0  0  0  0  0  0  0  0
  -23.9154  -22.1369   26.3649 C   0  0  0  0  0  0  0  0  0  0  0  0
  -21.5305  -22.5460   25.7585 C   0  0  0  0  0  0  0  0  0  0  0  0
  -24.4451  -20.1422   20.0490 C   0  0  0  0  0  0  0  0  0  0  0  0
  -31.4770  -27.2354   19.9117 C   0  0  0  0  0  0  0  0  0  0  0  0
  -30.4209  -20.4606   20.4735 C   0  0  0  0  0  0  0  0  0  0  0  0
  -29.0985  -27.0713   18.9529 C   0  0  0  0  0  0  0  0  0  1  0  0
  -23.3329  -22.9295   24.0275 C   0  0  1  0  0  0  0  0  0  0  0  0
  -23.9052  -19.5474   22.4140 C   0  0  2  0  0  0  0  0  0  0  0  0
  -30.5210  -26.4956   18.9562 C   0  0  2  0  0  0  0  0  0  0  0  0
  -30.9816  -20.6739   19.0458 C   0  0  0  0  0  0  0  0  0  0  0  0
  -22.9767  -23.0402   25.5369 C   0  0  0  0  0  0  0  0  0  0  0  0
  -26.6657  -13.3716   22.3319 N   0  0  0  0  0  0  0  0  0  0  0  0
  -26.5530  -14.3906   21.4630 N   0  0  0  0  0  0  0  0  0  0  0  0
  -23.1244  -24.7904   22.4096 N   0  0  0  0  0  0  0  0  0  0  0  0
  -29.2268  -17.1154   21.5893 N   0  0  0  0  0  0  0  0  0  0  0  0
  -24.9886  -15.5849   20.1451 N   0  0  0  0  0  0  0  0  0  0  0  0
  -22.4522  -12.4644   22.2006 N   0  0  0  0  0  0  0  0  0  0  0  0
  -20.9780  -27.3145   23.0352 N   0  0  0  0  0  0  0  0  0  0  0  0
  -23.2144  -21.5813   23.4829 N   0  0  0  0  0  0  0  0  0  0  0  0
  -30.3466  -19.0740   20.8771 N   0  0  0  0  0  0  0  0  0  0  0  0
  -24.6647  -19.2030   21.1789 N   0  3  0  0  0  0  0  0  0  0  0  0
  -22.4139  -14.2146   20.7193 O   0  0  0  0  0  0  0  0  0  0  0  0
  -23.2858  -27.5984   22.9087 O   0  0  0  0  0  0  0  0  0  0  0  0
  -21.2424  -23.6338   23.1557 O   0  0  0  0  0  0  0  0  0  0  0  0
  -25.4125  -21.4024   22.7663 O   0  0  0  0  0  0  0  0  0  0  0  0
  -28.0778  -19.0927   21.2041 O   0  0  0  0  0  0  0  0  0  0  0  0
  -24.2501   -8.5989   25.7867 O   0  0  0  0  0  0  0  0  0  0  0  0
  -28.4883  -26.9234   20.2344 O   0  0  0  0  0  0  0  0  0  1  0  0
  -20.9395   -4.6525   23.8195 F   0  0  0  0  0  0  0  0  0  0  0  0
  -21.6674   -9.1806   24.9908 F   0  0  0  0  0  0  0  0  0  0  0  0
  1  2  1  0  0  0  0
  1  5  2  0  0  0  0
  2  6  2  0  0  0  0
  3  8  2  0  0  0  0
  3 15  1  0  0  0  0
  4  9  1  0  0  0  0
  4 15  2  0  0  0  0
  5 17  1  0  0  0  0
  6 19  1  0  0  0  0
  7 10  2  0  0  0  0
  7 18  1  0  0  0  0
  8 21  1  0  0  0  0
  9 21  2  0  0  0  0
 10 22  1  0  0  0  0
 11 12  2  0  0  0  0
 11 23  1  0  0  0  0
 12 24  1  0  0  0  0
 13 20  1  0  0  0  0
 13 22  2  0  0  0  0
 14 24  2  0  0  0  0
 14 25  1  0  0  0  0
 15 26  1  0  0  0  0
 16 26  1  0  0  0  0
 16 27  2  0  0  0  0
 16 28  1  0  0  0  0
 17 19  2  0  0  0  0
 17 33  1  0  0  0  0
 18 20  2  0  0  0  0
 18 34  1  0  0  0  0
 19 46  1  0  0  0  0
 20 35  1  0  0  0  0
 21 82  1  0  0  0  0
 22 83  1  0  0  0  0
 23 25  2  0  0  0  0
 23 82  1  0  0  0  0
 24 84  1  0  0  0  0
 25 85  1  0  0  0  0
 26 67  2  0  0  0  0
 27 68  1  0  0  0  0
 27 71  1  0  0  0  0
 28 72  1  0  0  0  0
 28 77  2  0  0  0  0
 29 47  1  0  0  0  0
 29 73  1  0  0  0  0
 29 78  2  0  0  0  0
 30 62  1  0  0  0  0
 30 69  1  0  0  0  0
 30 79  2  0  0  0  0
 31 63  1  0  0  0  0
 31 74  1  0  0  0  0
 31 80  2  0  0  0  0
 32 70  1  0  0  0  0
 32 75  1  0  0  0  0
 32 81  2  0  0  0  0
 33 36  1  0  0  0  0
 34 47  1  0  0  0  0
 35 69  1  0  0  0  0
 36 38  1  0  0  0  0
 37 43  1  0  0  0  0
 37 44  1  0  0  0  0
 38 46  1  0  0  0  0
 39 41  1  0  0  0  0
 39 48  1  0  0  0  0
 40 42  1  0  0  0  0
 40 48  1  0  0  0  0
 41 49  1  0  0  0  0
 42 49  1  0  0  0  0
 43 50  1  0  0  0  0
 44 70  1  0  0  0  0
 45 50  1  0  0  0  0
 45 70  1  0  0  0  0
 46 73  1  0  0  0  0
 47 69  1  0  0  0  0
 48 64  1  0  0  0  0
 49 65  1  0  0  0  0
 50 68  1  0  0  0  0
 51 59  1  0  0  0  0
 52 63  1  0  0  0  0
 53 65  1  0  0  0  0
 54 65  1  0  0  0  0
 55 66  1  0  0  0  0
 56 66  1  0  0  0  0
 57 66  1  0  0  0  0
 58 76  1  0  0  0  0
 59 64  1  0  0  0  0
 60 65  1  0  0  0  0
 60 75  1  0  0  0  0
 61 64  1  0  0  0  0
 61 83  1  0  0  0  0
 62 66  1  0  0  0  0
 62 74  1  0  0  0  0
 63 76  1  0  0  0  0
 67 68  1  0  0  0  0
M  CHG  1  76   1
M  ISO  4  32 100  61 101  75 100  83 101
M  END
> <Batch ID>
0076

> <Smiles>
CCC(C1CCC(C(C)(C)C[100NH:0][100C:0](=O)N2CCCC(n3nc(-c4ccc(Oc5ccc(F)cc5F)cc4)c(C(N)=O)c3N)C2)CC1)[101CH2:1][101O:1]c1ccc2c(c1)CN(C(=O)C(NC(=O)C(C)NC)C(C)(C)C)C(C(=O)NC1CCCc3ccccc31)C2

> <Shape>
0.222

> <Color>
0.101

> <Negative vol penalty>
0.000

$$$$

  -OEChem-04052318343D

 84 92  0     1  0  0  0  0  0999 V2000
  -28.8295  -17.0846   14.5926 C   0  0  0  0  0  0  0  0  0  0  0  0
  -29.2410  -16.6159   15.8361 C   0  0  0  0  0  0  0  0  0  0  0  0
  -26.0806  -27.5227   18.8983 C   0  0  0  0  0  0  0  0  0  0  0  0
  -26.6085  -27.5462   21.2558 C   0  0  0  0  0  0  0  0  0  0  0  0
  -27.4950  -17.4320   14.3866 C   0  0  0  0  0  0  0  0  0  0  0  0
  -28.3184  -16.4952   16.8747 C   0  0  0  0  0  0  0  0  0  0  0  0
  -28.2411  -12.2122   21.2514 C   0  0  0  0  0  0  0  0  0  0  0  0
  -25.6775  -28.8558   18.9752 C   0  0  0  0  0  0  0  0  0  0  0  0
  -26.2055  -28.8794   21.3327 C   0  0  0  0  0  0  0  0  0  0  0  0
  -28.6890  -12.2121   22.5717 C   0  0  0  0  0  0  0  0  0  0  0  0
  -23.2987  -30.5972   21.5082 C   0  0  0  0  0  0  0  0  0  0  0  0
  -22.4869  -30.9679   22.5801 C   0  0  0  0  0  0  0  0  0  0  0  0
  -26.4621  -12.7588   23.3209 C   0  0  0  0  0  0  0  0  0  0  0  0
  -24.1625  -32.5521   23.3013 C   0  0  0  0  0  0  0  0  0  0  0  0
  -32.2835  -16.2555   24.7639 C   0  0  0  0  0  0  0  0  0  0  0  0
  -26.5460  -26.8678   20.0386 C   0  0  0  0  0  0  0  0  0  0  0  0
  -28.2533  -25.0074   19.6757 C   0  0  0  0  0  0  0  0  0  0  0  0
  -26.5537  -17.3065   15.4203 C   0  0  0  0  0  0  0  0  0  0  0  0
  -26.9004  -12.4968   20.9547 C   0  0  0  0  0  0  0  0  0  0  0  0
  -26.9703  -16.8425   16.6827 C   0  0  0  0  0  0  0  0  0  0  0  0
  -25.9991  -12.7594   21.9962 C   0  0  0  0  0  0  0  0  0  0  0  0
  -25.7400  -29.5342   20.1924 C   0  0  0  0  0  0  0  0  0  0  0  0
  -27.8001  -12.4882   23.6065 C   0  0  0  0  0  0  0  0  0  0  0  0
  -24.5425  -31.2038   21.3329 C   0  0  0  0  0  0  0  0  0  0  0  0
  -22.9187  -31.9454   23.4766 C   0  0  0  0  0  0  0  0  0  0  0  0
  -24.9744  -32.1812   22.2294 C   0  0  0  0  0  0  0  0  0  0  0  0
  -26.9619  -25.4906   19.9599 C   0  0  0  0  0  0  0  0  0  0  0  0
  -28.1257  -23.6406   19.7188 C   0  0  0  0  0  0  0  0  0  0  0  0
  -30.9324  -16.2735   23.0659 C   0  0  0  0  0  0  0  0  0  0  0  0
  -29.4603  -25.7297   19.3977 C   0  0  0  0  0  0  0  0  0  0  0  0
  -25.4008  -14.7581   19.2989 C   0  0  0  0  0  0  0  0  0  0  0  0
  -22.7894  -12.9383   19.9241 C   0  0  0  0  0  0  0  0  0  0  0  0
  -21.2876  -10.6161   21.9238 C   0  0  0  0  0  0  0  0  0  0  0  0
  -26.1870  -19.0080   22.1531 C   0  0  0  0  0  0  0  0  0  0  0  0
  -25.1318  -17.7391   15.1639 C   0  0  0  0  0  0  0  0  0  0  0  0
  -26.4271  -12.4667   19.5273 C   0  0  0  0  0  0  0  0  0  0  0  0
  -24.5453  -13.0512   21.7322 C   0  0  0  0  0  0  0  0  0  0  0  0
  -24.1418  -17.2274   16.2071 C   0  0  0  0  0  0  0  0  0  0  0  0
  -23.9981  -20.7243   19.9305 C   0  0  0  0  0  0  0  0  0  0  0  0
  -24.6875  -17.4480   17.6143 C   0  0  0  0  0  0  0  0  0  0  0  0
  -24.6773  -22.0790   19.7218 C   0  0  0  0  0  0  0  0  0  0  0  0
  -24.1761  -20.2180   21.3602 C   0  0  0  0  0  0  0  0  0  0  0  0
  -26.2527  -21.5196   21.6202 C   0  0  0  0  0  0  0  0  0  0  0  0
  -25.9943  -16.6743   17.8269 C   0  0  1  0  0  0  0  0  0  0  0  0
  -25.1535  -13.2761   19.3028 C   0  0  1  0  0  0  0  0  0  0  0  0
  -26.1483  -22.0450   20.1782 C   0  0  2  0  0  0  0  0  0  0  0  0
  -19.1372   -9.3533   22.2044 C   0  0  0  0  0  0  0  0  0  0  0  0
  -21.4671  -15.4457   21.0530 C   0  0  0  0  0  0  0  0  0  0  0  0
  -19.7684  -13.9707   22.1518 C   0  0  0  0  0  0  0  0  0  0  0  0
  -19.9632  -14.0080   19.6652 C   0  0  0  0  0  0  0  0  0  0  0  0
  -29.9100  -10.8011   24.5695 C   0  0  0  0  0  0  0  0  0  0  0  0
  -29.8668  -12.2338   26.6275 C   0  0  0  0  0  0  0  0  0  0  0  0
  -22.6408   -8.0061   21.5834 C   0  0  0  0  0  0  0  0  0  0  0  0
  -29.7783  -15.9536   22.2068 C   0  0  0  0  0  0  0  0  0  0  0  0
  -28.9305  -17.1728   21.7669 C   0  0  0  0  0  0  0  0  0  0  0  0
  -30.4570  -13.2912   24.4263 C   0  0  0  0  0  0  0  0  0  0  0  0
  -30.2552  -14.7025   24.9959 C   0  0  0  0  0  0  0  0  0  0  0  0
  -28.2868  -17.9332   22.9244 C   0  0  0  0  0  0  0  0  0  0  0  0
  -21.7665  -12.8813   21.0330 C   0  0  1  0  0  0  0  0  0  0  0  0
  -20.5304   -9.3421   21.5949 C   0  0  2  0  0  0  0  0  0  0  0  0
  -20.7691  -14.0729   20.9809 C   0  0  0  0  0  0  0  0  0  0  0  0
  -29.6145  -12.1993   25.1166 C   0  0  0  0  0  0  0  0  0  1  0  0
  -32.7696  -17.0991   23.8816 N   0  0  0  0  0  0  0  0  0  0  0  0
  -26.0789  -24.5103   20.1679 N   0  0  0  0  0  0  0  0  0  0  0  0
  -31.9100  -17.1105   22.8013 N   0  0  0  0  0  0  0  0  0  0  0  0
  -31.1273  -15.7126   24.2915 N   0  0  0  0  0  0  0  0  0  0  0  0
  -26.8166  -23.3975   20.0143 N   0  0  0  0  0  0  0  0  0  0  0  0
  -24.1323  -13.0162   20.3195 N   0  0  0  0  0  0  0  0  0  0  0  0
  -25.5935  -20.2088   21.7304 N   0  0  0  0  0  0  0  0  0  0  0  0
  -29.0067  -22.6349   19.5323 N   0  0  0  0  0  0  0  0  0  0  0  0
  -29.4147  -27.1305   19.3932 N   0  0  0  0  0  0  0  0  0  0  0  0
  -25.7198  -15.2720   18.0565 N   0  0  0  0  0  0  0  0  0  0  0  0
  -21.1355  -11.5693   20.9392 N   0  0  0  0  0  0  0  0  0  0  0  0
  -27.5355  -19.0856   22.4791 N   0  0  0  0  0  0  0  0  0  0  0  0
  -21.2629   -8.1544   22.1183 N   0  3  0  0  0  0  0  0  0  0  0  0
  -30.5434  -25.1498   19.1442 O   0  0  0  0  0  0  0  0  0  0  0  0
  -25.3075  -15.3890   20.3454 O   0  0  0  0  0  0  0  0  0  0  0  0
  -22.4112  -12.9073   18.7504 O   0  0  0  0  0  0  0  0  0  0  0  0
  -21.9449  -10.7533   22.9532 O   0  0  0  0  0  0  0  0  0  0  0  0
  -25.5628  -17.9442   22.2289 O   0  0  0  0  0  0  0  0  0  0  0  0
  -25.3471  -30.8351   20.2677 O   0  0  0  0  0  0  0  0  0  0  0  0
  -28.2349  -12.4894   24.8960 O   0  0  0  0  0  0  0  0  0  1  0  0
  -22.1383  -32.3025   24.5051 F   0  0  0  0  0  0  0  0  0  0  0  0
  -26.1678  -32.7684   22.0654 F   0  0  0  0  0  0  0  0  0  0  0  0
  1  2  1  0  0  0  0
  1  5  2  0  0  0  0
  2  6  2  0  0  0  0
  3  8  2  0  0  0  0
  3 16  1  0  0  0  0
  4  9  1  0  0  0  0
  4 16  2  0  0  0  0
  5 18  1  0  0  0  0
  6 20  1  0  0  0  0
  7 10  2  0  0  0  0
  7 19  1  0  0  0  0
  8 22  1  0  0  0  0
  9 22  2  0  0  0  0
 10 23  1  0  0  0  0
 11 12  2  0  0  0  0
 11 24  1  0  0  0  0
 12 25  1  0  0  0  0
 13 21  1  0  0  0  0
 13 23  2  0  0  0  0
 14 25  2  0  0  0  0
 14 26  1  0  0  0  0
 15 63  2  0  0  0  0
 15 66  1  0  0  0  0
 16 27  1  0  0  0  0
 17 27  1  0  0  0  0
 17 28  2  0  0  0  0
 17 30  1  0  0  0  0
 18 20  2  0  0  0  0
 18 35  1  0  0  0  0
 19 21  2  0  0  0  0
 19 36  1  0  0  0  0
 20 44  1  0  0  0  0
 21 37  1  0  0  0  0
 22 81  1  0  0  0  0
 23 82  1  0  0  0  0
 24 26  2  0  0  0  0
 24 81  1  0  0  0  0
 25 83  1  0  0  0  0
 26 84  1  0  0  0  0
 27 64  2  0  0  0  0
 28 67  1  0  0  0  0
 28 70  1  0  0  0  0
 29 54  1  0  0  0  0
 29 65  2  0  0  0  0
 29 66  1  0  0  0  0
 30 71  1  0  0  0  0
 30 76  2  0  0  0  0
 31 45  1  0  0  0  0
 31 72  1  0  0  0  0
 31 77  2  0  0  0  0
 32 59  1  0  0  0  0
 32 68  1  0  0  0  0
 32 78  2  0  0  0  0
 33 60  1  0  0  0  0
 33 73  1  0  0  0  0
 33 79  2  0  0  0  0
 34 69  1  0  0  0  0
 34 74  1  0  0  0  0
 34 80  2  0  0  0  0
 35 38  1  0  0  0  0
 36 45  1  0  0  0  0
 37 68  1  0  0  0  0
 38 40  1  0  0  0  0
 39 41  1  0  0  0  0
 39 42  1  0  0  0  0
 40 44  1  0  0  0  0
 41 46  1  0  0  0  0
 42 69  1  0  0  0  0
 43 46  1  0  0  0  0
 43 69  1  0  0  0  0
 44 72  1  0  0  0  0
 45 68  1  0  0  0  0
 46 67  1  0  0  0  0
 47 60  1  0  0  0  0
 48 61  1  0  0  0  0
 49 61  1  0  0  0  0
 50 61  1  0  0  0  0
 51 62  1  0  0  0  0
 52 62  1  0  0  0  0
 53 75  1  0  0  0  0
 54 55  1  0  0  0  0
 55 58  1  0  0  0  0
 56 57  1  0  0  0  0
 56 62  1  0  0  0  0
 57 66  1  0  0  0  0
 58 74  1  0  0  0  0
 59 61  1  0  0  0  0
 59 73  1  0  0  0  0
 60 75  1  0  0  0  0
 62 82  1  0  0  0  0
 63 65  1  0  0  0  0
 64 67  1  0  0  0  0
M  CHG  1  75   1
M  ISO  4  34 100  62 101  74 100  82 101
M  END
> <Batch ID>
0076

> <Smiles>
CNC(C)C(=O)NC(C(=O)N1Cc2cc([101O:1][101C:1](C)(C)CCn3cnnc3CCC[100NH:0][100C:0](=O)N3CCCC(n4nc(-c5ccc(Oc6ccc(F)cc6F)cc5)c(C(N)=O)c4N)C3)ccc2CC1C(=O)NC1CCCc2ccccc21)C(C)(C)C

> <Shape>
0.191

> <Color>
0.081

> <Negative vol penalty>
0.000

$$$$

  -OEChem-04052318343D

 86 94  0     1  0  0  0  0  0999 V2000
  -19.1287  -24.0058   21.2582 C   0  0  0  0  0  0  0  0  0  0  0  0
  -20.3928  -24.3715   20.8068 C   0  0  0  0  0  0  0  0  0  0  0  0
  -25.4243  -13.9258   21.6337 C   0  0  0  0  0  0  0  0  0  0  0  0
  -25.9626  -14.1079   19.2855 C   0  0  0  0  0  0  0  0  0  0  0  0
  -18.3854  -24.8907   22.0381 C   0  0  0  0  0  0  0  0  0  0  0  0
  -20.9139  -25.6228   21.1342 C   0  0  0  0  0  0  0  0  0  0  0  0
  -25.7495  -25.3856   22.6194 C   0  0  0  0  0  0  0  0  0  0  0  0
  -25.2993  -12.5432   21.4979 C   0  0  0  0  0  0  0  0  0  0  0  0
  -25.8377  -12.7253   19.1497 C   0  0  0  0  0  0  0  0  0  0  0  0
  -26.7157  -25.2519   21.6232 C   0  0  0  0  0  0  0  0  0  0  0  0
  -23.0003  -10.3521   20.3415 C   0  0  0  0  0  0  0  0  0  0  0  0
  -21.8990   -9.7397   20.9396 C   0  0  0  0  0  0  0  0  0  0  0  0
  -28.6972  -22.0893   16.4814 C   0  0  0  0  0  0  0  0  0  0  0  0
  -27.1754  -27.6160   21.7603 C   0  0  0  0  0  0  0  0  0  0  0  0
  -23.3817   -8.3921   22.2897 C   0  0  0  0  0  0  0  0  0  0  0  0
  -29.9899  -22.5476   16.6085 C   0  0  0  0  0  0  0  0  0  0  0  0
  -28.7547  -24.2407   15.8196 C   0  0  0  0  0  0  0  0  0  0  0  0
  -25.7558  -14.7082   20.5275 C   0  0  0  0  0  0  0  0  0  0  0  0
  -27.0496  -16.8576   20.9898 C   0  0  0  0  0  0  0  0  0  0  0  0
  -18.9015  -26.1497   22.3833 C   0  0  0  0  0  0  0  0  0  0  0  0
  -25.4809  -26.6395   23.1868 C   0  0  0  0  0  0  0  0  0  0  0  0
  -20.1762  -26.5258   21.9183 C   0  0  0  0  0  0  0  0  0  0  0  0
  -26.2071  -27.7625   22.7653 C   0  0  0  0  0  0  0  0  0  0  0  0
  -27.9157  -23.1605   15.9824 C   0  0  0  0  0  0  0  0  0  0  0  0
  -25.5061  -11.9429   20.2559 C   0  0  0  0  0  0  0  0  0  0  0  0
  -27.4268  -26.3677   21.1915 C   0  0  0  0  0  0  0  0  0  0  0  0
  -24.2923   -9.9844   20.7173 C   0  0  0  0  0  0  0  0  0  0  0  0
  -22.0897   -8.7597   21.9138 C   0  0  0  0  0  0  0  0  0  0  0  0
  -24.4830   -9.0044   21.6915 C   0  0  0  0  0  0  0  0  0  0  0  0
  -25.8844  -16.1365   20.6670 C   0  0  0  0  0  0  0  0  0  0  0  0
  -26.6488  -18.1713   20.9990 C   0  0  0  0  0  0  0  0  0  0  0  0
  -28.3756  -16.3825   21.2575 C   0  0  0  0  0  0  0  0  0  0  0  0
  -22.9349  -28.5370   23.3318 C   0  0  0  0  0  0  0  0  0  0  0  0
  -24.8379  -30.2906   25.2877 C   0  0  0  0  0  0  0  0  0  0  0  0
  -27.9981  -31.1306   26.2647 C   0  0  0  0  0  0  0  0  0  0  0  0
  -23.8314  -22.4159   18.7206 C   0  0  0  0  0  0  0  0  0  0  0  0
  -18.0414  -27.0908   23.1890 C   0  0  0  0  0  0  0  0  0  0  0  0
  -24.4543  -26.7622   24.2792 C   0  0  0  0  0  0  0  0  0  0  0  0
  -25.9708  -29.1274   23.3567 C   0  0  0  0  0  0  0  0  0  0  0  0
  -18.8195  -28.2508   23.8048 C   0  0  0  0  0  0  0  0  0  0  0  0
  -22.0188  -20.2021   20.8397 C   0  0  0  0  0  0  0  0  0  0  0  0
  -19.7488  -28.8788   22.7709 C   0  0  0  0  0  0  0  0  0  0  0  0
  -22.9561  -19.0046   21.0049 C   0  0  0  0  0  0  0  0  0  0  0  0
  -22.1009  -20.7933   19.4341 C   0  0  0  0  0  0  0  0  0  0  0  0
  -24.3993  -19.9490   19.1545 C   0  0  0  0  0  0  0  0  0  0  0  0
  -20.7858  -27.8647   22.2732 C   0  0  1  0  0  0  0  0  0  0  0  0
  -23.9020  -28.1770   24.4239 C   0  0  1  0  0  0  0  0  0  0  0  0
  -24.3931  -19.3534   20.5728 C   0  0  2  0  0  0  0  0  0  0  0  0
  -26.1754  -23.3430   14.1851 C   0  0  0  0  0  0  0  0  0  0  0  0
  -29.2361  -32.6197   27.8607 C   0  0  0  0  0  0  0  0  0  0  0  0
  -31.8940  -27.4656   19.7218 C   0  0  0  0  0  0  0  0  0  0  0  0
  -24.2534  -32.6912   23.4975 C   0  0  0  0  0  0  0  0  0  0  0  0
  -26.2065  -33.8579   24.5426 C   0  0  0  0  0  0  0  0  0  0  0  0
  -24.2555  -33.1929   25.9475 C   0  0  0  0  0  0  0  0  0  0  0  0
  -29.2490  -28.8220   27.6301 C   0  0  0  0  0  0  0  0  0  0  0  0
  -31.5982  -25.2378   17.5825 C   0  0  0  0  0  0  0  0  0  0  0  0
  -30.4368  -26.0168   18.2087 C   0  0  0  0  0  0  0  0  0  0  0  0
  -25.6164  -24.1467   16.5134 C   0  0  0  0  0  0  0  0  0  0  0  0
  -31.2356  -24.7380   16.1811 C   0  0  0  0  0  0  0  0  0  0  0  0
  -25.6762  -23.9231   18.0247 C   0  0  0  0  0  0  0  0  0  0  0  0
  -29.4704  -27.1479   20.2582 C   0  0  0  0  0  0  0  0  0  1  0  0
  -26.4696  -23.1270   15.6914 C   0  0  2  0  0  0  0  0  0  0  0  0
  -25.8307  -31.4106   25.0907 C   0  0  1  0  0  0  0  0  0  0  0  0
  -28.6311  -31.2421   27.6400 C   0  0  2  0  0  0  0  0  0  0  0  0
  -30.7179  -26.4901   19.6512 C   0  0  2  0  0  0  0  0  0  0  0  0
  -25.1399  -32.7629   24.7568 C   0  0  0  0  0  0  0  0  0  0  0  0
  -24.8230  -16.9265   20.4844 N   0  0  0  0  0  0  0  0  0  0  0  0
  -30.0131  -23.8565   16.2030 N   0  0  0  0  0  0  0  0  0  0  0  0
  -25.3197  -18.1577   20.6933 N   0  0  0  0  0  0  0  0  0  0  0  0
  -24.9524  -29.1972   24.4175 N   0  0  0  0  0  0  0  0  0  0  0  0
  -23.4897  -21.1035   19.0863 N   0  0  0  0  0  0  0  0  0  0  0  0
  -27.3072  -19.3252   21.2386 N   0  0  0  0  0  0  0  0  0  0  0  0
  -28.6138  -15.0023   21.2058 N   0  0  0  0  0  0  0  0  0  0  0  0
  -21.8397  -27.6982   23.2510 N   0  0  0  0  0  0  0  0  0  0  0  0
  -26.6551  -31.4418   26.2939 N   0  0  0  0  0  0  0  0  0  0  0  0
  -25.1700  -22.6254   18.4125 N   0  0  0  0  0  0  0  0  0  0  0  0
  -29.7085  -30.2247   27.7983 N   0  3  0  0  0  0  0  0  0  0  0  0
  -29.3174  -17.1575   21.5503 O   0  0  0  0  0  0  0  0  0  0  0  0
  -23.1644  -29.5051   22.6164 O   0  0  0  0  0  0  0  0  0  0  0  0
  -23.9966  -30.3792   26.1855 O   0  0  0  0  0  0  0  0  0  0  0  0
  -28.6324  -30.8041   25.2640 O   0  0  0  0  0  0  0  0  0  0  0  0
  -23.0057  -23.3343   18.6775 O   0  0  0  0  0  0  0  0  0  0  0  0
  -25.3846  -10.5938   20.1231 O   0  0  0  0  0  0  0  0  0  0  0  0
  -28.3700  -26.2402   20.2188 O   0  0  0  0  0  0  0  0  0  1  0  0
  -21.0321   -8.1729   22.4892 F   0  0  0  0  0  0  0  0  0  0  0  0
  -25.7218   -8.6479   22.0575 F   0  0  0  0  0  0  0  0  0  0  0  0
  1  2  1  0  0  0  0
  1  5  2  0  0  0  0
  2  6  2  0  0  0  0
  3  8  2  0  0  0  0
  3 18  1  0  0  0  0
  4  9  1  0  0  0  0
  4 18  2  0  0  0  0
  5 20  1  0  0  0  0
  6 22  1  0  0  0  0
  7 10  2  0  0  0  0
  7 21  1  0  0  0  0
  8 25  1  0  0  0  0
  9 25  2  0  0  0  0
 10 26  1  0  0  0  0
 11 12  2  0  0  0  0
 11 27  1  0  0  0  0
 12 28  1  0  0  0  0
 13 16  2  0  0  0  0
 13 24  1  0  0  0  0
 14 23  1  0  0  0  0
 14 26  2  0  0  0  0
 15 28  2  0  0  0  0
 15 29  1  0  0  0  0
 16 68  1  0  0  0  0
 17 24  2  0  0  0  0
 17 68  1  0  0  0  0
 18 30  1  0  0  0  0
 19 30  1  0  0  0  0
 19 31  2  0  0  0  0
 19 32  1  0  0  0  0
 20 22  2  0  0  0  0
 20 37  1  0  0  0  0
 21 23  2  0  0  0  0
 21 38  1  0  0  0  0
 22 46  1  0  0  0  0
 23 39  1  0  0  0  0
 24 62  1  0  0  0  0
 25 83  1  0  0  0  0
 26 84  1  0  0  0  0
 27 29  2  0  0  0  0
 27 83  1  0  0  0  0
 28 85  1  0  0  0  0
 29 86  1  0  0  0  0
 30 67  2  0  0  0  0
 31 69  1  0  0  0  0
 31 72  1  0  0  0  0
 32 73  1  0  0  0  0
 32 78  2  0  0  0  0
 33 47  1  0  0  0  0
 33 74  1  0  0  0  0
 33 79  2  0  0  0  0
 34 63  1  0  0  0  0
 34 70  1  0  0  0  0
 34 80  2  0  0  0  0
 35 64  1  0  0  0  0
 35 75  1  0  0  0  0
 35 81  2  0  0  0  0
 36 71  1  0  0  0  0
 36 76  1  0  0  0  0
 36 82  2  0  0  0  0
 37 40  1  0  0  0  0
 38 47  1  0  0  0  0
 39 70  1  0  0  0  0
 40 42  1  0  0  0  0
 41 43  1  0  0  0  0
 41 44  1  0  0  0  0
 42 46  1  0  0  0  0
 43 48  1  0  0  0  0
 44 71  1  0  0  0  0
 45 48  1  0  0  0  0
 45 71  1  0  0  0  0
 46 74  1  0  0  0  0
 47 70  1  0  0  0  0
 48 69  1  0  0  0  0
 49 62  1  0  0  0  0
 50 64  1  0  0  0  0
 51 65  1  0  0  0  0
 52 66  1  0  0  0  0
 53 66  1  0  0  0  0
 54 66  1  0  0  0  0
 55 77  1  0  0  0  0
 56 57  1  0  0  0  0
 56 59  1  0  0  0  0
 57 65  1  0  0  0  0
 58 60  1  0  0  0  0
 58 62  1  0  0  0  0
 59 68  1  0  0  0  0
 60 76  1  0  0  0  0
 61 65  1  0  0  0  0
 61 84  1  0  0  0  0
 63 66  1  0  0  0  0
 63 75  1  0  0  0  0
 64 77  1  0  0  0  0
 67 69  1  0  0  0  0
M  CHG  1  77   1
M  ISO  4  36 100  61 101  76 100  84 101
M  END
> <Batch ID>
0076

> <Smiles>
CNC(C)C(=O)NC(C(=O)N1Cc2cc([101O:1][101CH2:1]C(C)CCCn3ccc(C(C)CC[100NH:0][100C:0](=O)N4CCCC(n5nc(-c6ccc(Oc7ccc(F)cc7F)cc6)c(C(N)=O)c5N)C4)c3)ccc2CC1C(=O)NC1CCCc2ccccc21)C(C)(C)C

> <Shape>
0.254

> <Color>
0.073

> <Negative vol penalty>
0.000

$$$$

  -OEChem-04052318343D

 86 94  0     1  0  0  0  0  0999 V2000
  -18.8390  -33.9036   21.9112 C   0  0  0  0  0  0  0  0  0  0  0  0
  -20.1920  -33.7325   21.6360 C   0  0  0  0  0  0  0  0  0  0  0  0
  -28.1227  -13.9472   21.8451 C   0  0  0  0  0  0  0  0  0  0  0  0
  -27.7001  -14.3916   19.5082 C   0  0  0  0  0  0  0  0  0  0  0  0
  -18.1674  -32.9747   22.7050 C   0  0  0  0  0  0  0  0  0  0  0  0
  -20.8744  -32.6329   22.1553 C   0  0  0  0  0  0  0  0  0  0  0  0
  -25.4197  -29.5211   19.4790 C   0  0  0  0  0  0  0  0  0  0  0  0
  -27.2330  -12.8739   21.8020 C   0  0  0  0  0  0  0  0  0  0  0  0
  -26.8104  -13.3182   19.4650 C   0  0  0  0  0  0  0  0  0  0  0  0
  -26.8055  -29.5771   19.6212 C   0  0  0  0  0  0  0  0  0  0  0  0
  -24.7994  -10.2383   22.3975 C   0  0  0  0  0  0  0  0  0  0  0  0
  -23.8836  -10.1107   23.4418 C   0  0  0  0  0  0  0  0  0  0  0  0
  -26.7133  -27.7418   21.1840 C   0  0  0  0  0  0  0  0  0  0  0  0
  -22.9677  -12.2806   22.9038 C   0  0  0  0  0  0  0  0  0  0  0  0
  -31.0833  -25.9337   19.5751 C   0  0  0  0  0  0  0  0  0  0  0  0
  -28.3563  -14.7061   20.6983 C   0  0  0  0  0  0  0  0  0  0  0  0
  -30.6587  -15.7838   20.4859 C   0  0  0  0  0  0  0  0  0  0  0  0
  -18.8397  -31.8581   23.2264 C   0  0  0  0  0  0  0  0  0  0  0  0
  -24.6679  -28.5807   20.1978 C   0  0  0  0  0  0  0  0  0  0  0  0
  -20.2114  -31.6890   22.9579 C   0  0  0  0  0  0  0  0  0  0  0  0
  -25.3183  -27.6743   21.0473 C   0  0  0  0  0  0  0  0  0  0  0  0
  -30.7632  -27.0563   18.8390 C   0  0  0  0  0  0  0  0  0  0  0  0
  -26.5768  -12.5594   20.6119 C   0  0  0  0  0  0  0  0  0  0  0  0
  -27.4522  -28.6893   20.4760 C   0  0  0  0  0  0  0  0  0  0  0  0
  -24.7994  -11.3871   21.6063 C   0  0  0  0  0  0  0  0  0  0  0  0
  -22.9677  -11.1318   23.6950 C   0  0  0  0  0  0  0  0  0  0  0  0
  -23.8835  -12.4082   21.8595 C   0  0  0  0  0  0  0  0  0  0  0  0
  -29.2749  -15.8153   20.7424 C   0  0  0  0  0  0  0  0  0  0  0  0
  -30.2934  -26.8196   17.5632 C   0  0  0  0  0  0  0  0  0  0  0  0
  -31.0695  -17.0831   20.6578 C   0  0  0  0  0  0  0  0  0  0  0  0
  -30.4894  -24.5736   17.8533 C   0  0  0  0  0  0  0  0  0  0  0  0
  -31.4978  -14.6788   20.1245 C   0  0  0  0  0  0  0  0  0  0  0  0
  -22.3738  -28.7467   22.3917 C   0  0  0  0  0  0  0  0  0  0  0  0
  -22.2964  -25.5286   21.9919 C   0  0  0  0  0  0  0  0  0  0  0  0
  -23.9290  -22.6876   21.0380 C   0  0  0  0  0  0  0  0  0  0  0  0
  -28.2353  -22.3422   20.2575 C   0  0  0  0  0  0  0  0  0  0  0  0
  -18.0827  -30.9062   24.1183 C   0  0  0  0  0  0  0  0  0  0  0  0
  -23.1766  -28.5157   20.0130 C   0  0  0  0  0  0  0  0  0  0  0  0
  -24.5591  -26.6323   21.8259 C   0  0  0  0  0  0  0  0  0  0  0  0
  -18.7898  -29.5686   24.3209 C   0  0  0  0  0  0  0  0  0  0  0  0
  -29.9858  -21.0632   23.0818 C   0  0  0  0  0  0  0  0  0  0  0  0
  -20.2654  -29.7878   24.6396 C   0  0  0  0  0  0  0  0  0  0  0  0
  -30.1270  -19.5704   22.7793 C   0  0  0  0  0  0  0  0  0  0  0  0
  -28.6499  -21.6150   22.5889 C   0  0  0  0  0  0  0  0  0  0  0  0
  -28.4997  -19.8607   20.8645 C   0  0  0  0  0  0  0  0  0  0  0  0
  -20.9804  -30.4959   23.4826 C   0  0  1  0  0  0  0  0  0  0  0  0
  -22.4575  -27.8551   21.1852 C   0  0  1  0  0  0  0  0  0  0  0  0
  -29.8544  -19.2711   21.2929 C   0  0  2  0  0  0  0  0  0  0  0  0
  -28.4642  -27.8738   16.2107 C   0  0  0  0  0  0  0  0  0  0  0  0
  -24.2525  -20.2595   20.4929 C   0  0  0  0  0  0  0  0  0  0  0  0
  -31.9067  -29.3641   18.6267 C   0  0  0  0  0  0  0  0  0  0  0  0
  -31.4958  -28.3570   20.8616 C   0  0  0  0  0  0  0  0  0  0  0  0
  -22.6449  -25.2707   25.0122 C   0  0  0  0  0  0  0  0  0  0  0  0
  -23.2753  -22.8728   24.6646 C   0  0  0  0  0  0  0  0  0  0  0  0
  -21.0041  -23.6708   24.0110 C   0  0  0  0  0  0  0  0  0  0  0  0
  -23.1054  -23.0900   18.2240 C   0  0  0  0  0  0  0  0  0  0  0  0
  -29.9152  -27.9587   16.6751 C   0  0  0  0  0  0  0  0  0  0  0  0
  -30.3366  -23.1948   17.3060 C   0  0  0  0  0  0  0  0  0  0  0  0
  -28.9193  -22.8631   16.7985 C   0  0  0  0  0  0  0  0  0  0  0  0
  -27.8380  -22.9150   17.8756 C   0  0  0  0  0  0  0  0  0  0  0  0
  -29.5581  -29.1904   19.4911 C   0  0  0  0  0  0  0  0  0  1  0  0
  -23.0047  -24.3553   22.6250 C   0  0  1  0  0  0  0  0  0  0  0  0
  -23.5096  -21.5384   20.1391 C   0  0  2  0  0  0  0  0  0  0  0  0
  -30.9296  -28.4699   19.4273 C   0  0  0  0  0  0  0  0  0  0  0  0
  -22.4966  -24.0632   24.0651 C   0  0  0  0  0  0  0  0  0  0  0  0
  -30.9583  -24.6728   19.1118 N   0  0  0  0  0  0  0  0  0  0  0  0
  -28.8359  -17.0378   21.0537 N   0  0  0  0  0  0  0  0  0  0  0  0
  -30.1435  -25.5867   17.0362 N   0  0  0  0  0  0  0  0  0  0  0  0
  -29.9503  -17.7864   20.9940 N   0  0  0  0  0  0  0  0  0  0  0  0
  -23.1020  -26.6129   21.6162 N   0  0  0  0  0  0  0  0  0  0  0  0
  -28.4535  -21.2988   21.1721 N   0  0  0  0  0  0  0  0  0  0  0  0
  -32.2752  -17.6811   20.5528 N   0  0  0  0  0  0  0  0  0  0  0  0
  -30.9134  -13.4120   19.9901 N   0  0  0  0  0  0  0  0  0  0  0  0
  -21.2581  -29.5618   22.4126 N   0  0  0  0  0  0  0  0  0  0  0  0
  -22.8516  -23.2382   21.6993 N   0  0  0  0  0  0  0  0  0  0  0  0
  -28.0650  -21.9559   18.9337 N   0  0  0  0  0  0  0  0  0  0  0  0
  -23.7917  -21.8666   18.7131 N   0  3  0  0  0  0  0  0  0  0  0  0
  -32.7323  -14.8079   19.9427 O   0  0  0  0  0  0  0  0  0  0  0  0
  -23.2553  -28.6978   23.2415 O   0  0  0  0  0  0  0  0  0  0  0  0
  -21.0744  -25.4817   21.8300 O   0  0  0  0  0  0  0  0  0  0  0  0
  -25.0962  -23.0572   21.1458 O   0  0  0  0  0  0  0  0  0  0  0  0
  -28.2006  -23.5305   20.5948 O   0  0  0  0  0  0  0  0  0  0  0  0
  -25.7087  -11.5119   20.5694 O   0  0  0  0  0  0  0  0  0  0  0  0
  -28.8047  -28.7421   20.6171 O   0  0  0  0  0  0  0  0  0  1  0  0
  -22.0873  -11.0085   24.6969 F   0  0  0  0  0  0  0  0  0  0  0  0
  -23.8779  -13.5137   21.1020 F   0  0  0  0  0  0  0  0  0  0  0  0
  1  2  1  0  0  0  0
  1  5  2  0  0  0  0
  2  6  2  0  0  0  0
  3  8  2  0  0  0  0
  3 16  1  0  0  0  0
  4  9  1  0  0  0  0
  4 16  2  0  0  0  0
  5 18  1  0  0  0  0
  6 20  1  0  0  0  0
  7 10  2  0  0  0  0
  7 19  1  0  0  0  0
  8 23  1  0  0  0  0
  9 23  2  0  0  0  0
 10 24  1  0  0  0  0
 11 12  2  0  0  0  0
 11 25  1  0  0  0  0
 12 26  1  0  0  0  0
 13 21  1  0  0  0  0
 13 24  2  0  0  0  0
 14 26  2  0  0  0  0
 14 27  1  0  0  0  0
 15 22  1  0  0  0  0
 15 66  2  0  0  0  0
 16 28  1  0  0  0  0
 17 28  1  0  0  0  0
 17 30  2  0  0  0  0
 17 32  1  0  0  0  0
 18 20  2  0  0  0  0
 18 37  1  0  0  0  0
 19 21  2  0  0  0  0
 19 38  1  0  0  0  0
 20 46  1  0  0  0  0
 21 39  1  0  0  0  0
 22 29  2  0  0  0  0
 22 64  1  0  0  0  0
 23 83  1  0  0  0  0
 24 84  1  0  0  0  0
 25 27  2  0  0  0  0
 25 83  1  0  0  0  0
 26 85  1  0  0  0  0
 27 86  1  0  0  0  0
 28 67  2  0  0  0  0
 29 57  1  0  0  0  0
 29 68  1  0  0  0  0
 30 69  1  0  0  0  0
 30 72  1  0  0  0  0
 31 58  1  0  0  0  0
 31 66  1  0  0  0  0
 31 68  2  0  0  0  0
 32 73  1  0  0  0  0
 32 78  2  0  0  0  0
 33 47  1  0  0  0  0
 33 74  1  0  0  0  0
 33 79  2  0  0  0  0
 34 62  1  0  0  0  0
 34 70  1  0  0  0  0
 34 80  2  0  0  0  0
 35 63  1  0  0  0  0
 35 75  1  0  0  0  0
 35 81  2  0  0  0  0
 36 71  1  0  0  0  0
 36 76  1  0  0  0  0
 36 82  2  0  0  0  0
 37 40  1  0  0  0  0
 38 47  1  0  0  0  0
 39 70  1  0  0  0  0
 40 42  1  0  0  0  0
 41 43  1  0  0  0  0
 41 44  1  0  0  0  0
 42 46  1  0  0  0  0
 43 48  1  0  0  0  0
 44 71  1  0  0  0  0
 45 48  1  0  0  0  0
 45 71  1  0  0  0  0
 46 74  1  0  0  0  0
 47 70  1  0  0  0  0
 48 69  1  0  0  0  0
 49 57  1  0  0  0  0
 50 63  1  0  0  0  0
 51 64  1  0  0  0  0
 52 64  1  0  0  0  0
 53 65  1  0  0  0  0
 54 65  1  0  0  0  0
 55 65  1  0  0  0  0
 56 77  1  0  0  0  0
 58 59  1  0  0  0  0
 59 60  1  0  0  0  0
 60 76  1  0  0  0  0
 61 64  1  0  0  0  0
 61 84  1  0  0  0  0
 62 65  1  0  0  0  0
 62 75  1  0  0  0  0
 63 77  1  0  0  0  0
 67 69  1  0  0  0  0
M  CHG  1  77   1
M  ISO  4  36 100  61 101  76 100  84 101
M  END
> <Batch ID>
0076

> <Smiles>
CCc1nc(CCC[100NH:0][100C:0](=O)N2CCCC(n3nc(-c4ccc(Oc5ccc(F)cc5F)cc4)c(C(N)=O)c3N)C2)ncc1C(C)(C)[101CH2:1][101O:1]c1ccc2c(c1)CN(C(=O)C(NC(=O)C(C)NC)C(C)(C)C)C(C(=O)NC1CCCc3ccccc31)C2

> <Shape>
0.258

> <Color>
0.089

> <Negative vol penalty>
0.000

$$$$

  -OEChem-04052318343D

 90 98  0     1  0  0  0  0  0999 V2000
  -28.5903  -33.7473   24.1790 C   0  0  0  0  0  0  0  0  0  0  0  0
  -29.0593  -32.5027   23.7709 C   0  0  0  0  0  0  0  0  0  0  0  0
  -21.4513  -10.3968   20.8491 C   0  0  0  0  0  0  0  0  0  0  0  0
  -23.4791   -9.8509   22.0437 C   0  0  0  0  0  0  0  0  0  0  0  0
  -27.2413  -33.9154   24.4884 C   0  0  0  0  0  0  0  0  0  0  0  0
  -28.1797  -31.4252   23.6730 C   0  0  0  0  0  0  0  0  0  0  0  0
  -28.8329  -28.7647   19.4139 C   0  0  0  0  0  0  0  0  0  0  0  0
  -21.1183   -9.0433   20.7958 C   0  0  0  0  0  0  0  0  0  0  0  0
  -23.1461   -8.4974   21.9905 C   0  0  0  0  0  0  0  0  0  0  0  0
  -29.9096  -27.8799   19.3747 C   0  0  0  0  0  0  0  0  0  0  0  0
  -22.6522   -4.9296   22.4858 C   0  0  0  0  0  0  0  0  0  0  0  0
  -22.8046   -4.1772   23.6504 C   0  0  0  0  0  0  0  0  0  0  0  0
  -28.4141  -26.0482   19.8515 C   0  0  0  0  0  0  0  0  0  0  0  0
  -30.1886  -20.3873   18.1054 C   0  0  0  0  0  0  0  0  0  0  0  0
  -21.2358   -5.6201   24.7879 C   0  0  0  0  0  0  0  0  0  0  0  0
  -22.6318  -10.8006   21.4730 C   0  0  0  0  0  0  0  0  0  0  0  0
  -22.6320  -13.1202   22.5344 C   0  0  0  0  0  0  0  0  0  0  0  0
  -26.3428  -32.8417   24.3850 C   0  0  0  0  0  0  0  0  0  0  0  0
  -27.5381  -28.2985   19.6835 C   0  0  0  0  0  0  0  0  0  0  0  0
  -26.8176  -31.5787   23.9827 C   0  0  0  0  0  0  0  0  0  0  0  0
  -27.3222  -26.9287   19.8911 C   0  0  0  0  0  0  0  0  0  0  0  0
  -30.0574  -21.1432   16.9144 C   0  0  0  0  0  0  0  0  0  0  0  0
  -21.9656   -8.0936   21.3666 C   0  0  0  0  0  0  0  0  0  0  0  0
  -29.7008  -26.5218   19.5963 C   0  0  0  0  0  0  0  0  0  0  0  0
  -21.7917   -6.0274   22.4722 C   0  0  0  0  0  0  0  0  0  0  0  0
  -22.0964   -4.5224   24.8014 C   0  0  0  0  0  0  0  0  0  0  0  0
  -21.0835   -6.3726   23.6233 C   0  0  0  0  0  0  0  0  0  0  0  0
  -22.9766  -12.1985   21.5278 C   0  0  0  0  0  0  0  0  0  0  0  0
  -28.9179  -20.0897   18.5459 C   0  0  0  0  0  0  0  0  0  0  0  0
  -28.7104  -21.2846   16.6634 C   0  0  0  0  0  0  0  0  0  0  0  0
  -23.1940  -14.3040   22.1231 C   0  0  0  0  0  0  0  0  0  0  0  0
  -21.8718  -12.9239   23.7341 C   0  0  0  0  0  0  0  0  0  0  0  0
  -25.3972  -28.8218   21.9741 C   0  0  0  0  0  0  0  0  0  0  0  0
  -23.5028  -26.9890   20.0833 C   0  0  0  0  0  0  0  0  0  0  0  0
  -22.8919  -24.1864   17.8949 C   0  0  0  0  0  0  0  0  0  0  0  0
  -27.2593  -17.2275   20.1515 C   0  0  0  0  0  0  0  0  0  0  0  0
  -24.9025  -33.0602   24.7756 C   0  0  0  0  0  0  0  0  0  0  0  0
  -26.3832  -29.2621   19.6959 C   0  0  0  0  0  0  0  0  0  0  0  0
  -25.9485  -26.3748   20.1644 C   0  0  0  0  0  0  0  0  0  0  0  0
  -23.9649  -31.9596   24.2858 C   0  0  0  0  0  0  0  0  0  0  0  0
  -25.2739  -15.6183   17.7142 C   0  0  0  0  0  0  0  0  0  0  0  0
  -24.5581  -30.5846   24.5761 C   0  0  0  0  0  0  0  0  0  0  0  0
  -24.4690  -14.6449   18.5741 C   0  0  0  0  0  0  0  0  0  0  0  0
  -26.7284  -15.7254   18.1758 C   0  0  0  0  0  0  0  0  0  0  0  0
  -26.0727  -15.0778   20.4721 C   0  0  0  0  0  0  0  0  0  0  0  0
  -25.8897  -30.3918   23.8404 C   0  0  1  0  0  0  0  0  0  0  0  0
  -25.1850  -28.7485   20.4884 C   0  0  1  0  0  0  0  0  0  0  0  0
  -24.5929  -14.9972   20.0666 C   0  0  2  0  0  0  0  0  0  0  0  0
  -28.0151  -21.9782   15.5582 C   0  0  0  0  0  0  0  0  0  0  0  0
  -29.6512  -20.8564   21.4484 C   0  0  0  0  0  0  0  0  0  0  0  0
  -26.4071  -22.6858   19.1677 C   0  0  0  0  0  0  0  0  0  0  0  0
  -20.8166  -23.5017   16.6614 C   0  0  0  0  0  0  0  0  0  0  0  0
  -26.1086  -19.1034   17.6451 C   0  0  0  0  0  0  0  0  0  0  0  0
  -22.9817  -25.2318   22.5227 C   0  0  0  0  0  0  0  0  0  0  0  0
  -22.1136  -23.4640   20.9769 C   0  0  0  0  0  0  0  0  0  0  0  0
  -20.9680  -25.6761   21.1076 C   0  0  0  0  0  0  0  0  0  0  0  0
  -29.2186  -17.2913   18.5508 C   0  0  0  0  0  0  0  0  0  0  0  0
  -24.3063  -24.1591   15.2954 C   0  0  0  0  0  0  0  0  0  0  0  0
  -31.1895  -21.6883   16.0804 C   0  0  0  0  0  0  0  0  0  0  0  0
  -29.4760  -19.4372   20.9218 C   0  0  0  0  0  0  0  0  0  0  0  0
  -26.0286  -21.2154   19.0432 C   0  0  0  0  0  0  0  0  0  0  0  0
  -32.1556  -22.5878   16.8597 C   0  0  0  0  0  0  0  0  0  0  0  0
  -31.4893  -23.8571   17.3997 C   0  0  0  0  0  0  0  0  0  0  0  0
  -32.4798  -24.7069   18.1938 C   0  0  0  0  0  0  0  0  0  0  0  0
  -31.8386  -25.9914   18.6995 C   0  0  0  0  0  0  0  0  0  1  0  0
  -28.4824  -19.3271   19.7339 C   0  0  2  0  0  0  0  0  0  0  0  0
  -23.2183  -25.5111   19.9669 C   0  0  1  0  0  0  0  0  0  0  0  0
  -22.1571  -24.2136   16.5669 C   0  0  2  0  0  0  0  0  0  0  0  0
  -26.5859  -20.5545   17.7669 C   0  0  1  0  0  0  0  0  0  0  0  0
  -22.3467  -24.9811   21.1403 C   0  0  0  0  0  0  0  0  0  0  0  0
  -23.7013  -12.7494   20.5504 N   0  0  0  0  0  0  0  0  0  0  0  0
  -28.0274  -20.6405   17.6617 N   0  0  0  0  0  0  0  0  0  0  0  0
  -23.8166  -14.0301   20.9409 N   0  0  0  0  0  0  0  0  0  0  0  0
  -24.8526  -27.3578   20.1726 N   0  0  0  0  0  0  0  0  0  0  0  0
  -26.8014  -16.0155   19.6143 N   0  0  0  0  0  0  0  0  0  0  0  0
  -23.2114  -15.5422   22.6608 N   0  0  0  0  0  0  0  0  0  0  0  0
  -21.3676  -11.6443   24.0038 N   0  0  0  0  0  0  0  0  0  0  0  0
  -25.6569  -30.0953   22.4432 N   0  0  0  0  0  0  0  0  0  0  0  0
  -22.6290  -25.3115   18.6473 N   0  0  0  0  0  0  0  0  0  0  0  0
  -28.2312  -17.9274   19.4207 N   0  0  0  0  0  0  0  0  0  0  0  0
  -22.9703  -23.5464   15.5112 N   0  3  0  0  0  0  0  0  0  0  0  0
  -21.6324  -13.8594   24.5349 O   0  0  0  0  0  0  0  0  0  0  0  0
  -25.3289  -27.7988   22.6453 O   0  0  0  0  0  0  0  0  0  0  0  0
  -22.5625  -27.7874   20.0875 O   0  0  0  0  0  0  0  0  0  0  0  0
  -23.6229  -23.2579   18.2328 O   0  0  0  0  0  0  0  0  0  0  0  0
  -26.8300  -17.6583   21.2295 O   0  0  0  0  0  0  0  0  0  0  0  0
  -21.6409   -6.7729   21.3150 O   0  0  0  0  0  0  0  0  0  0  0  0
  -30.7501  -25.6562   19.5592 O   0  0  0  0  0  0  0  0  0  1  0  0
  -22.2417   -3.7989   25.9192 F   0  0  0  0  0  0  0  0  0  0  0  0
  -20.2544   -7.4254   23.6160 F   0  0  0  0  0  0  0  0  0  0  0  0
  1  2  1  0  0  0  0
  1  5  2  0  0  0  0
  2  6  2  0  0  0  0
  3  8  2  0  0  0  0
  3 16  1  0  0  0  0
  4  9  1  0  0  0  0
  4 16  2  0  0  0  0
  5 18  1  0  0  0  0
  6 20  1  0  0  0  0
  7 10  2  0  0  0  0
  7 19  1  0  0  0  0
  8 23  1  0  0  0  0
  9 23  2  0  0  0  0
 10 24  1  0  0  0  0
 11 12  2  0  0  0  0
 11 25  1  0  0  0  0
 12 26  1  0  0  0  0
 13 21  1  0  0  0  0
 13 24  2  0  0  0  0
 14 22  1  0  0  0  0
 14 29  2  0  0  0  0
 15 26  2  0  0  0  0
 15 27  1  0  0  0  0
 16 28  1  0  0  0  0
 17 28  1  0  0  0  0
 17 31  2  0  0  0  0
 17 32  1  0  0  0  0
 18 20  2  0  0  0  0
 18 37  1  0  0  0  0
 19 21  2  0  0  0  0
 19 38  1  0  0  0  0
 20 46  1  0  0  0  0
 21 39  1  0  0  0  0
 22 30  2  0  0  0  0
 22 59  1  0  0  0  0
 23 87  1  0  0  0  0
 24 88  1  0  0  0  0
 25 27  2  0  0  0  0
 25 87  1  0  0  0  0
 26 89  1  0  0  0  0
 27 90  1  0  0  0  0
 28 71  2  0  0  0  0
 29 66  1  0  0  0  0
 29 72  1  0  0  0  0
 30 49  1  0  0  0  0
 30 72  1  0  0  0  0
 31 73  1  0  0  0  0
 31 76  1  0  0  0  0
 32 77  1  0  0  0  0
 32 82  2  0  0  0  0
 33 47  1  0  0  0  0
 33 78  1  0  0  0  0
 33 83  2  0  0  0  0
 34 67  1  0  0  0  0
 34 74  1  0  0  0  0
 34 84  2  0  0  0  0
 35 68  1  0  0  0  0
 35 79  1  0  0  0  0
 35 85  2  0  0  0  0
 36 75  1  0  0  0  0
 36 80  1  0  0  0  0
 36 86  2  0  0  0  0
 37 40  1  0  0  0  0
 38 47  1  0  0  0  0
 39 74  1  0  0  0  0
 40 42  1  0  0  0  0
 41 43  1  0  0  0  0
 41 44  1  0  0  0  0
 42 46  1  0  0  0  0
 43 48  1  0  0  0  0
 44 75  1  0  0  0  0
 45 48  1  0  0  0  0
 45 75  1  0  0  0  0
 46 78  1  0  0  0  0
 47 74  1  0  0  0  0
 48 73  1  0  0  0  0
 50 60  1  0  0  0  0
 51 61  1  0  0  0  0
 52 68  1  0  0  0  0
 53 69  1  0  0  0  0
 54 70  1  0  0  0  0
 55 70  1  0  0  0  0
 56 70  1  0  0  0  0
 57 80  1  0  0  0  0
 58 81  1  0  0  0  0
 59 62  1  0  0  0  0
 60 66  1  0  0  0  0
 61 69  1  0  0  0  0
 62 63  1  0  0  0  0
 63 64  1  0  0  0  0
 64 65  1  0  0  0  0
 65 88  1  0  0  0  0
 66 80  1  0  0  0  0
 67 70  1  0  0  0  0
 67 79  1  0  0  0  0
 68 81  1  0  0  0  0
 69 72  1  0  0  0  0
 71 73  1  0  0  0  0
M  CHG  1  81   1
M  ISO  4  36 100  65 101  80 100  88 101
M  END
> <Batch ID>
0076

> <Smiles>
CCC(C)n1c(C(CC)[100N:0](C)[100C:0](=O)N2CCCC(n3nc(-c4ccc(Oc5ccc(F)cc5F)cc4)c(C(N)=O)c3N)C2)cc(CCCC[101CH2:1][101O:1]c2ccc3c(c2)CN(C(=O)C(NC(=O)C(C)NC)C(C)(C)C)C(C(=O)NC2CCCc4ccccc42)C3)c1C

> <Shape>
0.274

> <Color>
0.077

> <Negative vol penalty>
0.000

$$$$

  -OEChem-04052318343D

 86 94  0     1  0  0  0  0  0999 V2000
  -28.5773  -20.0216   21.1613 C   0  0  0  0  0  0  0  0  0  0  0  0
  -28.6455  -21.1551   21.9650 C   0  0  0  0  0  0  0  0  0  0  0  0
  -18.7058  -29.0229   23.3207 C   0  0  0  0  0  0  0  0  0  0  0  0
  -20.5310  -27.9852   22.1254 C   0  0  0  0  0  0  0  0  0  0  0  0
  -28.6531  -20.1461   19.7747 C   0  0  0  0  0  0  0  0  0  0  0  0
  -28.7908  -22.4137   21.3827 C   0  0  0  0  0  0  0  0  0  0  0  0
  -26.4034  -27.6898   23.3748 C   0  0  0  0  0  0  0  0  0  0  0  0
  -17.8645  -27.9756   22.9452 C   0  0  0  0  0  0  0  0  0  0  0  0
  -19.6897  -26.9379   21.7498 C   0  0  0  0  0  0  0  0  0  0  0  0
  -26.9370  -28.7366   24.1254 C   0  0  0  0  0  0  0  0  0  0  0  0
  -15.3295  -25.3927   22.6024 C   0  0  0  0  0  0  0  0  0  0  0  0
  -14.5009  -24.8437   23.5810 C   0  0  0  0  0  0  0  0  0  0  0  0
  -27.4276  -29.9369   22.0912 C   0  0  0  0  0  0  0  0  0  0  0  0
  -16.4424  -24.2389   24.8856 C   0  0  0  0  0  0  0  0  0  0  0  0
  -20.0391  -29.0277   22.9108 C   0  0  0  0  0  0  0  0  0  0  0  0
  -21.7086  -30.1851   24.4537 C   0  0  0  0  0  0  0  0  0  0  0  0
  -28.7897  -21.4078   19.1746 C   0  0  0  0  0  0  0  0  0  0  0  0
  -26.3878  -27.7540   21.9741 C   0  0  0  0  0  0  0  0  0  0  0  0
  -28.8699  -22.5551   19.9868 C   0  0  0  0  0  0  0  0  0  0  0  0
  -26.8909  -28.8907   21.3253 C   0  0  0  0  0  0  0  0  0  0  0  0
  -18.3564  -26.9332   22.1598 C   0  0  0  0  0  0  0  0  0  0  0  0
  -27.4518  -29.8591   23.4835 C   0  0  0  0  0  0  0  0  0  0  0  0
  -16.7145  -25.3648   22.7654 C   0  0  0  0  0  0  0  0  0  0  0  0
  -15.0573  -24.2668   24.7225 C   0  0  0  0  0  0  0  0  0  0  0  0
  -17.2710  -24.7879   23.9069 C   0  0  0  0  0  0  0  0  0  0  0  0
  -20.9085  -30.1095   23.2979 C   0  0  0  0  0  0  0  0  0  0  0  0
  -22.3380  -31.4020   24.3567 C   0  0  0  0  0  0  0  0  0  0  0  0
  -24.1063  -35.9808   26.0702 C   0  0  0  0  0  0  0  0  0  0  0  0
  -26.1294  -35.2315   26.6886 C   0  0  0  0  0  0  0  0  0  0  0  0
  -25.9434  -36.6921   24.9948 C   0  0  0  0  0  0  0  0  0  0  0  0
  -21.8687  -29.2397   25.5197 C   0  0  0  0  0  0  0  0  0  0  0  0
  -27.6876  -26.0381   19.6353 C   0  0  0  0  0  0  0  0  0  0  0  0
  -25.8979  -27.9755   17.7470 C   0  0  0  0  0  0  0  0  0  0  0  0
  -24.2821  -30.9564   17.3599 C   0  0  0  0  0  0  0  0  0  0  0  0
  -25.1429  -35.0875   21.4418 C   0  0  0  0  0  0  0  0  0  0  0  0
  -28.9150  -21.4880   17.6737 C   0  0  0  0  0  0  0  0  0  0  0  0
  -25.7844  -26.6282   21.1799 C   0  0  0  0  0  0  0  0  0  0  0  0
  -26.8792  -29.0176   19.8246 C   0  0  0  0  0  0  0  0  0  0  0  0
  -28.6920  -22.8923   17.1181 C   0  0  0  0  0  0  0  0  0  0  0  0
  -21.5364  -35.2844   21.2141 C   0  0  0  0  0  0  0  0  0  0  0  0
  -29.4734  -23.9188   17.9321 C   0  0  0  0  0  0  0  0  0  0  0  0
  -21.1191  -33.9509   21.8369 C   0  0  0  0  0  0  0  0  0  0  0  0
  -22.8053  -35.1321   20.3805 C   0  0  0  0  0  0  0  0  0  0  0  0
  -23.5461  -33.2159   21.7417 C   0  0  0  0  0  0  0  0  0  0  0  0
  -29.0025  -23.9400   19.3913 C   0  0  1  0  0  0  0  0  0  0  0  0
  -26.2882  -26.5750   19.7409 C   0  0  1  0  0  0  0  0  0  0  0  0
  -22.2820  -33.3078   22.6155 C   0  0  2  0  0  0  0  0  0  0  0  0
  -22.6261  -35.9953   26.2453 C   0  0  0  0  0  0  0  0  0  0  0  0
  -22.8313  -32.6954   16.2788 C   0  0  0  0  0  0  0  0  0  0  0  0
  -28.4525  -28.6311   16.2126 C   0  0  0  0  0  0  0  0  0  0  0  0
  -27.2691  -30.6030   15.2230 C   0  0  0  0  0  0  0  0  0  0  0  0
  -26.4312  -28.2958   14.7786 C   0  0  0  0  0  0  0  0  0  0  0  0
  -21.8343  -29.8577   18.6089 C   0  0  0  0  0  0  0  0  0  0  0  0
  -26.9864  -34.3742   27.5855 C   0  0  0  0  0  0  0  0  0  0  0  0
  -26.9523  -32.8828   27.2337 C   0  0  0  0  0  0  0  0  0  0  0  0
  -27.5116  -32.5829   25.8423 C   0  0  0  0  0  0  0  0  0  0  0  0
  -26.4489  -38.3902   21.7292 C   0  0  0  0  0  0  0  0  0  0  0  0
  -25.7898  -38.3153   23.1060 C   0  0  0  0  0  0  0  0  0  0  0  0
  -26.6326  -37.0334   21.0528 C   0  0  0  0  0  0  0  0  0  0  0  0
  -27.4248  -31.0989   25.5128 C   0  0  0  0  0  0  0  0  0  1  0  0
  -26.1145  -29.3089   17.0732 C   0  0  1  0  0  0  0  0  0  0  0  0
  -22.8896  -31.2893   16.8552 C   0  0  2  0  0  0  0  0  0  0  0  0
  -27.0690  -29.2068   15.8501 C   0  0  0  0  0  0  0  0  0  0  0  0
  -21.0176  -31.1923   22.5236 N   0  0  0  0  0  0  0  0  0  0  0  0
  -24.8048  -35.1940   26.9048 N   0  0  0  0  0  0  0  0  0  0  0  0
  -24.6058  -36.7558   25.0939 N   0  0  0  0  0  0  0  0  0  0  0  0
  -26.7686  -35.9545   25.7550 N   0  0  0  0  0  0  0  0  0  0  0  0
  -21.8936  -31.9598   23.1941 N   0  0  0  0  0  0  0  0  0  0  0  0
  -26.2844  -27.8876   19.0919 N   0  0  0  0  0  0  0  0  0  0  0  0
  -23.8785  -34.5317   21.1853 N   0  0  0  0  0  0  0  0  0  0  0  0
  -23.2226  -32.0387   25.1533 N   0  0  0  0  0  0  0  0  0  0  0  0
  -21.1476  -28.0393   25.4621 N   0  0  0  0  0  0  0  0  0  0  0  0
  -26.5430  -37.4809   23.9893 N   0  0  0  0  0  0  0  0  0  0  0  0
  -27.7548  -24.6637   19.5092 N   0  0  0  0  0  0  0  0  0  0  0  0
  -24.7879  -29.8256   16.7545 N   0  0  0  0  0  0  0  0  0  0  0  0
  -25.3805  -36.3327   20.8729 N   0  0  0  0  0  0  0  0  0  0  0  0
  -21.9000  -31.1951   17.9655 N   0  3  0  0  0  0  0  0  0  0  0  0
  -22.6162  -29.4603   26.5027 O   0  0  0  0  0  0  0  0  0  0  0  0
  -28.6360  -26.8135   19.6646 O   0  0  0  0  0  0  0  0  0  0  0  0
  -25.3974  -27.0482   17.1057 O   0  0  0  0  0  0  0  0  0  0  0  0
  -24.8643  -31.6341   18.2038 O   0  0  0  0  0  0  0  0  0  0  0  0
  -25.9957  -34.5184   22.1317 O   0  0  0  0  0  0  0  0  0  0  0  0
  -17.5358  -25.9110   21.7933 O   0  0  0  0  0  0  0  0  0  0  0  0
  -27.9738  -30.8820   24.2136 O   0  0  0  0  0  0  0  0  0  1  0  0
  -14.2615  -23.7410   25.6629 F   0  0  0  0  0  0  0  0  0  0  0  0
  -18.6008  -24.7592   24.0696 F   0  0  0  0  0  0  0  0  0  0  0  0
  1  2  1  0  0  0  0
  1  5  2  0  0  0  0
  2  6  2  0  0  0  0
  3  8  2  0  0  0  0
  3 15  1  0  0  0  0
  4  9  1  0  0  0  0
  4 15  2  0  0  0  0
  5 17  1  0  0  0  0
  6 19  1  0  0  0  0
  7 10  2  0  0  0  0
  7 18  1  0  0  0  0
  8 21  1  0  0  0  0
  9 21  2  0  0  0  0
 10 22  1  0  0  0  0
 11 12  2  0  0  0  0
 11 23  1  0  0  0  0
 12 24  1  0  0  0  0
 13 20  1  0  0  0  0
 13 22  2  0  0  0  0
 14 24  2  0  0  0  0
 14 25  1  0  0  0  0
 15 26  1  0  0  0  0
 16 26  1  0  0  0  0
 16 27  2  0  0  0  0
 16 31  1  0  0  0  0
 17 19  2  0  0  0  0
 17 36  1  0  0  0  0
 18 20  2  0  0  0  0
 18 37  1  0  0  0  0
 19 45  1  0  0  0  0
 20 38  1  0  0  0  0
 21 83  1  0  0  0  0
 22 84  1  0  0  0  0
 23 25  2  0  0  0  0
 23 83  1  0  0  0  0
 24 85  1  0  0  0  0
 25 86  1  0  0  0  0
 26 64  2  0  0  0  0
 27 68  1  0  0  0  0
 27 71  1  0  0  0  0
 28 48  1  0  0  0  0
 28 65  2  0  0  0  0
 28 66  1  0  0  0  0
 29 54  1  0  0  0  0
 29 65  1  0  0  0  0
 29 67  2  0  0  0  0
 30 66  2  0  0  0  0
 30 67  1  0  0  0  0
 30 73  1  0  0  0  0
 31 72  1  0  0  0  0
 31 78  2  0  0  0  0
 32 46  1  0  0  0  0
 32 74  1  0  0  0  0
 32 79  2  0  0  0  0
 33 61  1  0  0  0  0
 33 69  1  0  0  0  0
 33 80  2  0  0  0  0
 34 62  1  0  0  0  0
 34 75  1  0  0  0  0
 34 81  2  0  0  0  0
 35 70  1  0  0  0  0
 35 76  1  0  0  0  0
 35 82  2  0  0  0  0
 36 39  1  0  0  0  0
 37 46  1  0  0  0  0
 38 69  1  0  0  0  0
 39 41  1  0  0  0  0
 40 42  1  0  0  0  0
 40 43  1  0  0  0  0
 41 45  1  0  0  0  0
 42 47  1  0  0  0  0
 43 70  1  0  0  0  0
 44 47  1  0  0  0  0
 44 70  1  0  0  0  0
 45 74  1  0  0  0  0
 46 69  1  0  0  0  0
 47 68  1  0  0  0  0
 49 62  1  0  0  0  0
 50 63  1  0  0  0  0
 51 63  1  0  0  0  0
 52 63  1  0  0  0  0
 53 77  1  0  0  0  0
 54 55  1  0  0  0  0
 55 56  1  0  0  0  0
 56 60  1  0  0  0  0
 57 58  1  0  0  0  0
 57 59  1  0  0  0  0
 58 73  1  0  0  0  0
 59 76  1  0  0  0  0
 60 84  1  0  0  0  0
 61 63  1  0  0  0  0
 61 75  1  0  0  0  0
 62 77  1  0  0  0  0
 64 68  1  0  0  0  0
M  CHG  1  77   1
M  ISO  4  35 100  60 101  76 100  84 101
M  END
> <Batch ID>
0076

> <Smiles>
CNC(C)C(=O)NC(C(=O)N1Cc2cc([101O:1][101CH2:1]CCCc3nc(C)nc(NCCC[100NH:0][100C:0](=O)N4CCCC(n5nc(-c6ccc(Oc7ccc(F)cc7F)cc6)c(C(N)=O)c5N)C4)n3)ccc2CC1C(=O)NC1CCCc2ccccc21)C(C)(C)C

> <Shape>
0.214

> <Color>
0.073

> <Negative vol penalty>
0.000

$$$$

  -OEChem-04052318343D

 85 93  0     1  0  0  0  0  0999 V2000
  -31.4197  -23.5154   24.2957 C   0  0  0  0  0  0  0  0  0  0  0  0
  -30.0582  -23.7452   24.1261 C   0  0  0  0  0  0  0  0  0  0  0  0
  -30.5807  -27.6933   19.3980 C   0  0  0  0  0  0  0  0  0  0  0  0
  -30.1028  -26.1159   21.1645 C   0  0  0  0  0  0  0  0  0  0  0  0
  -32.0714  -22.5751   23.4988 C   0  0  0  0  0  0  0  0  0  0  0  0
  -29.3476  -23.0355   23.1587 C   0  0  0  0  0  0  0  0  0  0  0  0
  -23.5351  -21.1394   23.5123 C   0  0  0  0  0  0  0  0  0  0  0  0
  -31.9351  -27.6542   19.7294 C   0  0  0  0  0  0  0  0  0  0  0  0
  -31.4572  -26.0768   21.4959 C   0  0  0  0  0  0  0  0  0  0  0  0
  -22.3450  -21.6646   23.0108 C   0  0  0  0  0  0  0  0  0  0  0  0
  -34.8378  -25.2855   22.5745 C   0  0  0  0  0  0  0  0  0  0  0  0
  -35.4128  -24.0367   22.8100 C   0  0  0  0  0  0  0  0  0  0  0  0
  -22.5139  -20.2049   21.0977 C   0  0  0  0  0  0  0  0  0  0  0  0
  -34.8414  -23.3504   20.5651 C   0  0  0  0  0  0  0  0  0  0  0  0
  -18.7860  -27.4282   23.2534 C   0  0  0  0  0  0  0  0  0  0  0  0
  -29.6646  -26.9242   20.1155 C   0  0  0  0  0  0  0  0  0  0  0  0
  -27.5905  -26.1393   18.8547 C   0  0  0  0  0  0  0  0  0  0  0  0
  -31.3665  -21.8465   22.5277 C   0  0  0  0  0  0  0  0  0  0  0  0
  -24.2304  -20.1490   22.8037 C   0  0  0  0  0  0  0  0  0  0  0  0
  -29.9908  -22.0855   22.3472 C   0  0  0  0  0  0  0  0  0  0  0  0
  -23.7113  -19.6669   21.5936 C   0  0  0  0  0  0  0  0  0  0  0  0
  -18.9755  -26.6271   22.1539 C   0  0  0  0  0  0  0  0  0  0  0  0
  -32.3733  -26.8460   20.7784 C   0  0  0  0  0  0  0  0  0  0  0  0
  -21.8357  -21.1995   21.8019 C   0  0  0  0  0  0  0  0  0  0  0  0
  -34.2646  -25.5668   21.3344 C   0  0  0  0  0  0  0  0  0  0  0  0
  -35.4147  -23.0692   21.8053 C   0  0  0  0  0  0  0  0  0  0  0  0
  -34.2664  -24.5992   20.3296 C   0  0  0  0  0  0  0  0  0  0  0  0
  -28.2654  -26.9646   19.7740 C   0  0  0  0  0  0  0  0  0  0  0  0
  -19.9005  -27.3316   21.3603 C   0  0  0  0  0  0  0  0  0  0  0  0
  -26.2887  -26.5753   18.8930 C   0  0  0  0  0  0  0  0  0  0  0  0
  -28.0953  -25.0736   18.0390 C   0  0  0  0  0  0  0  0  0  0  0  0
  -27.1072  -19.9494   21.4665 C   0  0  0  0  0  0  0  0  0  0  0  0
  -26.2384  -16.8621   20.9810 C   0  0  0  0  0  0  0  0  0  0  0  0
  -23.7246  -14.5803   20.6326 C   0  0  0  0  0  0  0  0  0  0  0  0
  -23.1682  -29.2769   23.1144 C   0  0  0  0  0  0  0  0  0  0  0  0
  -32.1237  -20.8745   21.6579 C   0  0  0  0  0  0  0  0  0  0  0  0
  -25.4990  -19.5737   23.3713 C   0  0  0  0  0  0  0  0  0  0  0  0
  -24.4089  -18.5905   20.8043 C   0  0  0  0  0  0  0  0  0  0  0  0
  -31.2218  -19.8956   20.9106 C   0  0  0  0  0  0  0  0  0  0  0  0
  -23.6755  -30.4938   19.7440 C   0  0  0  0  0  0  0  0  0  0  0  0
  -30.0523  -20.6328   20.2659 C   0  0  0  0  0  0  0  0  0  0  0  0
  -24.8565  -29.6364   19.2856 C   0  0  0  0  0  0  0  0  0  0  0  0
  -23.8102  -30.8798   21.2141 C   0  0  0  0  0  0  0  0  0  0  0  0
  -25.1515  -28.8668   21.6857 C   0  0  0  0  0  0  0  0  0  0  0  0
  -29.1805  -21.3178   21.3253 C   0  0  1  0  0  0  0  0  0  0  0  0
  -26.3915  -18.9343   22.3121 C   0  0  1  0  0  0  0  0  0  0  0  0
  -25.0629  -28.4247   20.2137 C   0  0  2  0  0  0  0  0  0  0  0  0
  -20.4622  -26.9319   20.0581 C   0  0  0  0  0  0  0  0  0  0  0  0
  -23.3246  -12.1397   20.2074 C   0  0  0  0  0  0  0  0  0  0  0  0
  -19.2293  -30.9382   23.2825 C   0  0  0  0  0  0  0  0  0  0  0  0
  -18.8348  -20.2416   21.7742 C   0  0  0  0  0  0  0  0  0  0  0  0
  -26.9063  -17.2689   18.0317 C   0  0  0  0  0  0  0  0  0  0  0  0
  -25.6193  -15.1822   17.5242 C   0  0  0  0  0  0  0  0  0  0  0  0
  -27.6453  -15.0740   18.9756 C   0  0  0  0  0  0  0  0  0  0  0  0
  -22.3464  -14.2350   23.2287 C   0  0  0  0  0  0  0  0  0  0  0  0
  -18.3304  -25.2935   21.8722 C   0  0  0  0  0  0  0  0  0  0  0  0
  -19.2390  -24.0930   22.1617 C   0  0  0  0  0  0  0  0  0  0  0  0
  -18.5669  -22.7466   21.8594 C   0  0  0  0  0  0  0  0  0  0  0  0
  -21.1561  -29.8190   24.4614 C   0  0  0  0  0  0  0  0  0  0  0  0
  -25.5256  -16.1123   19.8816 C   0  0  1  0  0  0  0  0  0  0  0  0
  -23.5066  -13.2175   21.2647 C   0  0  2  0  0  0  0  0  0  0  0  0
  -19.7167  -29.6480   23.9505 C   0  0  2  0  0  0  0  0  0  0  0  0
  -19.5069  -21.5645   22.1169 C   0  0  2  0  0  0  0  0  0  1  0  0
  -26.4117  -15.9310   18.6169 C   0  0  0  0  0  0  0  0  0  0  0  0
  -27.4589  -27.8576   20.3539 N   0  0  0  0  0  0  0  0  0  0  0  0
  -20.2727  -28.4912   21.9088 N   0  0  0  0  0  0  0  0  0  0  0  0
  -19.5780  -28.5215   23.0589 N   0  0  0  0  0  0  0  0  0  0  0  0
  -26.2639  -27.5959   19.7975 N   0  0  0  0  0  0  0  0  0  0  0  0
  -25.6492  -18.0641   21.3978 N   0  0  0  0  0  0  0  0  0  0  0  0
  -23.9852  -29.6803   22.0452 N   0  0  0  0  0  0  0  0  0  0  0  0
  -25.1742  -26.1816   18.2409 N   0  0  0  0  0  0  0  0  0  0  0  0
  -29.4578  -24.7559   18.1229 N   0  0  0  0  0  0  0  0  0  0  0  0
  -28.3262  -20.3500   21.9795 N   0  0  0  0  0  0  0  0  0  0  0  0
  -25.0652  -14.8607   20.4731 N   0  0  0  0  0  0  0  0  0  0  0  0
  -22.0889  -30.1060   23.3944 N   0  0  0  0  0  0  0  0  0  0  0  0
  -22.2936  -13.2361   22.1304 N   0  3  0  0  0  0  0  0  0  0  0  0
  -27.3632  -24.4333   17.2469 O   0  0  0  0  0  0  0  0  0  0  0  0
  -26.5924  -20.3392   20.4250 O   0  0  0  0  0  0  0  0  0  0  0  0
  -27.2757  -16.3947   21.4575 O   0  0  0  0  0  0  0  0  0  0  0  0
  -22.7983  -15.3204   20.3089 O   0  0  0  0  0  0  0  0  0  0  0  0
  -23.3817  -28.2502   23.7682 O   0  0  0  0  0  0  0  0  0  0  0  0
  -33.6948  -26.8074   21.1019 O   0  0  0  0  0  0  0  0  0  0  0  0
  -20.6746  -21.7109   21.3099 O   0  0  0  0  0  0  0  0  0  1  0  0
  -35.9682  -21.8705   22.0310 F   0  0  0  0  0  0  0  0  0  0  0  0
  -33.7183  -24.8640   19.1358 F   0  0  0  0  0  0  0  0  0  0  0  0
  1  2  1  0  0  0  0
  1  5  2  0  0  0  0
  2  6  2  0  0  0  0
  3  8  2  0  0  0  0
  3 16  1  0  0  0  0
  4  9  1  0  0  0  0
  4 16  2  0  0  0  0
  5 18  1  0  0  0  0
  6 20  1  0  0  0  0
  7 10  2  0  0  0  0
  7 19  1  0  0  0  0
  8 23  1  0  0  0  0
  9 23  2  0  0  0  0
 10 24  1  0  0  0  0
 11 12  2  0  0  0  0
 11 25  1  0  0  0  0
 12 26  1  0  0  0  0
 13 21  1  0  0  0  0
 13 24  2  0  0  0  0
 14 26  2  0  0  0  0
 14 27  1  0  0  0  0
 15 22  2  0  0  0  0
 15 67  1  0  0  0  0
 16 28  1  0  0  0  0
 17 28  1  0  0  0  0
 17 30  2  0  0  0  0
 17 31  1  0  0  0  0
 18 20  2  0  0  0  0
 18 36  1  0  0  0  0
 19 21  2  0  0  0  0
 19 37  1  0  0  0  0
 20 45  1  0  0  0  0
 21 38  1  0  0  0  0
 22 29  1  0  0  0  0
 22 56  1  0  0  0  0
 23 82  1  0  0  0  0
 24 83  1  0  0  0  0
 25 27  2  0  0  0  0
 25 82  1  0  0  0  0
 26 84  1  0  0  0  0
 27 85  1  0  0  0  0
 28 65  2  0  0  0  0
 29 48  1  0  0  0  0
 29 66  2  0  0  0  0
 30 68  1  0  0  0  0
 30 71  1  0  0  0  0
 31 72  1  0  0  0  0
 31 77  2  0  0  0  0
 32 46  1  0  0  0  0
 32 73  1  0  0  0  0
 32 78  2  0  0  0  0
 33 60  1  0  0  0  0
 33 69  1  0  0  0  0
 33 79  2  0  0  0  0
 34 61  1  0  0  0  0
 34 74  1  0  0  0  0
 34 80  2  0  0  0  0
 35 70  1  0  0  0  0
 35 75  1  0  0  0  0
 35 81  2  0  0  0  0
 36 39  1  0  0  0  0
 37 46  1  0  0  0  0
 38 69  1  0  0  0  0
 39 41  1  0  0  0  0
 40 42  1  0  0  0  0
 40 43  1  0  0  0  0
 41 45  1  0  0  0  0
 42 47  1  0  0  0  0
 43 70  1  0  0  0  0
 44 47  1  0  0  0  0
 44 70  1  0  0  0  0
 45 73  1  0  0  0  0
 46 69  1  0  0  0  0
 47 68  1  0  0  0  0
 49 61  1  0  0  0  0
 50 62  1  0  0  0  0
 51 63  1  0  0  0  0
 52 64  1  0  0  0  0
 53 64  1  0  0  0  0
 54 64  1  0  0  0  0
 55 76  1  0  0  0  0
 56 57  1  0  0  0  0
 57 58  1  0  0  0  0
 58 63  1  0  0  0  0
 59 62  1  0  0  0  0
 59 75  1  0  0  0  0
 60 64  1  0  0  0  0
 60 74  1  0  0  0  0
 61 76  1  0  0  0  0
 62 67  1  0  0  0  0
 63 83  1  0  0  0  0
 65 68  1  0  0  0  0
 66 67  1  0  0  0  0
M  CHG  1  76   1
M  ISO  4  35 100  63 101  75 100  83 101
M  END
> <Batch ID>
0076

> <Smiles>
CNC(C)C(=O)NC(C(=O)N1Cc2cc([101O:1][101CH:1](C)CCCc3cn(C(C)C[100NH:0][100C:0](=O)N4CCCC(n5nc(-c6ccc(Oc7ccc(F)cc7F)cc6)c(C(N)=O)c5N)C4)nc3C)ccc2CC1C(=O)NC1CCCc2ccccc21)C(C)(C)C

> <Shape>
0.209

> <Color>
0.088

> <Negative vol penalty>
0.000

$$$$

  -OEChem-04052318343D

 88 96  0     1  0  0  0  0  0999 V2000
  -30.3306  -23.1603   17.0795 C   0  0  0  0  0  0  0  0  0  0  0  0
  -29.0554  -23.6665   16.8488 C   0  0  0  0  0  0  0  0  0  0  0  0
  -27.5852  -14.3680   22.1628 C   0  0  0  0  0  0  0  0  0  0  0  0
  -26.5603  -15.2614   20.1657 C   0  0  0  0  0  0  0  0  0  0  0  0
  -30.8204  -23.0750   18.3821 C   0  0  0  0  0  0  0  0  0  0  0  0
  -28.2689  -24.0867   17.9208 C   0  0  0  0  0  0  0  0  0  0  0  0
  -24.2913  -28.7431   17.9658 C   0  0  0  0  0  0  0  0  0  0  0  0
  -27.0419  -13.1146   21.8810 C   0  0  0  0  0  0  0  0  0  0  0  0
  -26.0170  -14.0080   19.8839 C   0  0  0  0  0  0  0  0  0  0  0  0
  -22.9054  -28.7943   17.8225 C   0  0  0  0  0  0  0  0  0  0  0  0
  -24.0628  -11.1310   18.8283 C   0  0  0  0  0  0  0  0  0  0  0  0
  -22.7264  -11.0779   18.4322 C   0  0  0  0  0  0  0  0  0  0  0  0
  -22.6636  -28.8028   20.2227 C   0  0  0  0  0  0  0  0  0  0  0  0
  -22.0652  -12.0805   20.5286 C   0  0  0  0  0  0  0  0  0  0  0  0
  -17.7272  -26.4472   19.9714 C   0  0  0  0  0  0  0  0  0  0  0  0
  -27.3444  -15.4414   21.3052 C   0  0  0  0  0  0  0  0  0  0  0  0
  -29.1532  -17.2358   21.1786 C   0  0  0  0  0  0  0  0  0  0  0  0
  -30.0432  -23.5034   19.4698 C   0  0  0  0  0  0  0  0  0  0  0  0
  -24.8743  -28.7103   19.2408 C   0  0  0  0  0  0  0  0  0  0  0  0
  -28.7482  -24.0058   19.2393 C   0  0  0  0  0  0  0  0  0  0  0  0
  -24.0572  -28.7537   20.3795 C   0  0  0  0  0  0  0  0  0  0  0  0
  -26.2578  -12.9346   20.7415 C   0  0  0  0  0  0  0  0  0  0  0  0
  -22.0913  -28.8212   18.9510 C   0  0  0  0  0  0  0  0  0  0  0  0
  -24.4004  -11.6588   20.0746 C   0  0  0  0  0  0  0  0  0  0  0  0
  -21.7276  -11.5526   19.2824 C   0  0  0  0  0  0  0  0  0  0  0  0
  -23.4016  -12.1336   20.9247 C   0  0  0  0  0  0  0  0  0  0  0  0
  -27.9049  -16.7365   21.5961 C   0  0  0  0  0  0  0  0  0  0  0  0
  -18.6948  -26.7580   19.0581 C   0  0  0  0  0  0  0  0  0  0  0  0
  -29.2132  -18.4999   21.7123 C   0  0  0  0  0  0  0  0  0  0  0  0
  -19.4682  -25.1323   20.3464 C   0  0  0  0  0  0  0  0  0  0  0  0
  -30.1676  -16.6127   20.3798 C   0  0  0  0  0  0  0  0  0  0  0  0
  -26.6967  -26.6404   20.8214 C   0  0  0  0  0  0  0  0  0  0  0  0
  -26.8046  -29.0162   23.0273 C   0  0  0  0  0  0  0  0  0  0  0  0
  -25.3499  -31.8011   24.3595 C   0  0  0  0  0  0  0  0  0  0  0  0
  -25.0110  -22.4232   23.3858 C   0  0  0  0  0  0  0  0  0  0  0  0
  -30.5972  -23.3477   20.8639 C   0  0  0  0  0  0  0  0  0  0  0  0
  -26.3719  -28.6821   19.3785 C   0  0  0  0  0  0  0  0  0  0  0  0
  -24.6343  -28.7409   21.7706 C   0  0  0  0  0  0  0  0  0  0  0  0
  -29.8449  -24.1627   21.9128 C   0  0  0  0  0  0  0  0  0  0  0  0
  -27.6164  -21.0834   25.4091 C   0  0  0  0  0  0  0  0  0  0  0  0
  -28.3389  -23.9885   21.7449 C   0  0  0  0  0  0  0  0  0  0  0  0
  -28.0984  -19.8625   24.6237 C   0  0  0  0  0  0  0  0  0  0  0  0
  -26.1060  -21.2729   25.2869 C   0  0  0  0  0  0  0  0  0  0  0  0
  -26.0803  -20.1035   23.1177 C   0  0  0  0  0  0  0  0  0  0  0  0
  -27.8744  -24.4948   20.3739 C   0  0  1  0  0  0  0  0  0  0  0  0
  -26.8380  -28.1331   20.7233 C   0  0  1  0  0  0  0  0  0  0  0  0
  -27.6048  -19.9036   23.1649 C   0  0  2  0  0  0  0  0  0  0  0  0
  -25.6522  -33.5026   26.1790 C   0  0  0  0  0  0  0  0  0  0  0  0
  -17.8664  -29.0529   18.2061 C   0  0  0  0  0  0  0  0  0  0  0  0
  -18.1642  -27.1520   16.6327 C   0  0  0  0  0  0  0  0  0  0  0  0
  -25.8679  -26.9727   25.0906 C   0  0  0  0  0  0  0  0  0  0  0  0
  -25.2834  -28.8764   26.6080 C   0  0  0  0  0  0  0  0  0  0  0  0
  -27.6499  -28.5300   25.8992 C   0  0  0  0  0  0  0  0  0  0  0  0
  -16.1330  -25.4319   22.0156 C   0  0  0  0  0  0  0  0  0  0  0  0
  -18.3402  -24.9880   23.1605 C   0  0  0  0  0  0  0  0  0  0  0  0
  -17.3249  -23.2796   21.6706 C   0  0  0  0  0  0  0  0  0  0  0  0
  -25.5200  -34.0234   22.4124 C   0  0  0  0  0  0  0  0  0  0  0  0
  -22.4531  -23.2788   21.4532 C   0  0  0  0  0  0  0  0  0  0  0  0
  -23.9642  -23.4533   21.3852 C   0  0  0  0  0  0  0  0  0  0  0  0
  -21.6939  -24.4216   20.7900 C   0  0  0  0  0  0  0  0  0  0  0  0
  -20.1803  -28.2577   17.6523 C   0  0  0  0  0  0  0  0  0  1  0  0
  -25.9694  -29.4027   24.2240 C   0  0  1  0  0  0  0  0  0  0  0  0
  -25.9206  -33.1603   24.7218 C   0  0  2  0  0  0  0  0  0  0  0  0
  -18.7245  -27.7968   17.9213 C   0  0  0  0  0  0  0  0  0  0  0  0
  -26.1814  -28.4438   25.4294 C   0  0  0  0  0  0  0  0  0  0  0  0
  -17.5348  -24.8030   21.8550 C   0  0  0  0  0  0  0  0  0  0  0  0
  -27.2213  -17.6119   22.3380 N   0  0  0  0  0  0  0  0  0  0  0  0
  -18.2325  -25.4380   20.7552 N   0  0  0  0  0  0  0  0  0  0  0  0
  -28.0430  -18.6741   22.3909 N   0  0  0  0  0  0  0  0  0  0  0  0
  -19.7607  -25.9293   19.3136 N   0  3  0  0  0  0  0  0  0  0  0  0
  -26.1039  -28.7066   21.8531 N   0  0  0  0  0  0  0  0  0  0  0  0
  -25.7035  -21.3049   23.8788 N   0  0  0  0  0  0  0  0  0  0  0  0
  -30.1524  -19.4684   21.6627 N   0  0  0  0  0  0  0  0  0  0  0  0
  -29.9441  -15.3103   19.9127 N   0  0  0  0  0  0  0  0  0  0  0  0
  -27.7982  -25.9400   20.3681 N   0  0  0  0  0  0  0  0  0  0  0  0
  -26.2847  -30.7985   24.5082 N   0  0  0  0  0  0  0  0  0  0  0  0
  -24.6725  -22.3755   22.0390 N   0  0  0  0  0  0  0  0  0  0  0  0
  -25.3124  -34.2212   23.8701 N   0  3  0  0  0  0  0  0  0  0  0  0
  -31.2476  -17.1875   20.1024 O   0  0  0  0  0  0  0  0  0  0  0  0
  -25.6652  -26.1597   21.2760 O   0  0  0  0  0  0  0  0  0  0  0  0
  -28.0339  -28.9968   23.1287 O   0  0  0  0  0  0  0  0  0  0  0  0
  -24.1896  -31.6439   23.9858 O   0  0  0  0  0  0  0  0  0  0  0  0
  -24.7210  -23.3947   24.0923 O   0  0  0  0  0  0  0  0  0  0  0  0
  -25.7276  -11.7116   20.4660 O   0  0  0  0  0  0  0  0  0  0  0  0
  -20.7382  -28.8706   18.8140 O   0  0  0  0  0  0  0  0  0  1  0  0
  -20.3077  -24.1640   20.8876 O   0  0  0  0  0  0  0  0  0  0  0  0
  -20.4445  -11.5030   18.9012 F   0  0  0  0  0  0  0  0  0  0  0  0
  -23.7199  -12.6428   22.1227 F   0  0  0  0  0  0  0  0  0  0  0  0
  1  2  1  0  0  0  0
  1  5  2  0  0  0  0
  2  6  2  0  0  0  0
  3  8  2  0  0  0  0
  3 16  1  0  0  0  0
  4  9  1  0  0  0  0
  4 16  2  0  0  0  0
  5 18  1  0  0  0  0
  6 20  1  0  0  0  0
  7 10  2  0  0  0  0
  7 19  1  0  0  0  0
  8 22  1  0  0  0  0
  9 22  2  0  0  0  0
 10 23  1  0  0  0  0
 11 12  2  0  0  0  0
 11 24  1  0  0  0  0
 12 25  1  0  0  0  0
 13 21  1  0  0  0  0
 13 23  2  0  0  0  0
 14 25  2  0  0  0  0
 14 26  1  0  0  0  0
 15 28  2  0  0  0  0
 15 68  1  0  0  0  0
 16 27  1  0  0  0  0
 17 27  1  0  0  0  0
 17 29  2  0  0  0  0
 17 31  1  0  0  0  0
 18 20  2  0  0  0  0
 18 36  1  0  0  0  0
 19 21  2  0  0  0  0
 19 37  1  0  0  0  0
 20 45  1  0  0  0  0
 21 38  1  0  0  0  0
 22 84  1  0  0  0  0
 23 85  1  0  0  0  0
 24 26  2  0  0  0  0
 24 84  1  0  0  0  0
 25 87  1  0  0  0  0
 26 88  1  0  0  0  0
 27 67  2  0  0  0  0
 28 64  1  0  0  0  0
 28 70  1  0  0  0  0
 29 69  1  0  0  0  0
 29 73  1  0  0  0  0
 30 68  1  0  0  0  0
 30 70  2  0  0  0  0
 30 86  1  0  0  0  0
 31 74  1  0  0  0  0
 31 79  2  0  0  0  0
 32 46  1  0  0  0  0
 32 75  1  0  0  0  0
 32 80  2  0  0  0  0
 33 62  1  0  0  0  0
 33 71  1  0  0  0  0
 33 81  2  0  0  0  0
 34 63  1  0  0  0  0
 34 76  1  0  0  0  0
 34 82  2  0  0  0  0
 35 72  1  0  0  0  0
 35 77  1  0  0  0  0
 35 83  2  0  0  0  0
 36 39  1  0  0  0  0
 37 46  1  0  0  0  0
 38 71  1  0  0  0  0
 39 41  1  0  0  0  0
 40 42  1  0  0  0  0
 40 43  1  0  0  0  0
 41 45  1  0  0  0  0
 42 47  1  0  0  0  0
 43 72  1  0  0  0  0
 44 47  1  0  0  0  0
 44 72  1  0  0  0  0
 45 75  1  0  0  0  0
 46 71  1  0  0  0  0
 47 69  1  0  0  0  0
 48 63  1  0  0  0  0
 49 64  1  0  0  0  0
 50 64  1  0  0  0  0
 51 65  1  0  0  0  0
 52 65  1  0  0  0  0
 53 65  1  0  0  0  0
 54 66  1  0  0  0  0
 55 66  1  0  0  0  0
 56 66  1  0  0  0  0
 57 78  1  0  0  0  0
 58 59  1  0  0  0  0
 58 60  1  0  0  0  0
 59 77  1  0  0  0  0
 60 86  1  0  0  0  0
 61 64  1  0  0  0  0
 61 85  1  0  0  0  0
 62 65  1  0  0  0  0
 62 76  1  0  0  0  0
 63 78  1  0  0  0  0
 66 68  1  0  0  0  0
 67 69  1  0  0  0  0
M  CHG  2  70   1  78   1
M  ISO  4  35 100  61 101  77 100  85 101
M  END
> <Batch ID>
0076

> <Smiles>
CNC(C)C(=O)NC(C(=O)N1Cc2cc([101O:1][101CH2:1]C(C)(C)c3cn(C(C)(C)C)c(OCCC[100NH:0][100C:0](=O)N4CCCC(n5nc(-c6ccc(Oc7ccc(F)cc7F)cc6)c(C(N)=O)c5N)C4)n3)ccc2CC1C(=O)NC1CCCc2ccccc21)C(C)(C)C

> <Shape>
0.221

> <Color>
0.056

> <Negative vol penalty>
0.000

$$$$

  -OEChem-04052318343D

 84 92  0     1  0  0  0  0  0999 V2000
  -32.9175  -25.7135   16.0917 C   0  0  0  0  0  0  0  0  0  0  0  0
  -31.5518  -25.6663   15.8309 C   0  0  0  0  0  0  0  0  0  0  0  0
  -26.4394  -13.8129   18.4828 C   0  0  0  0  0  0  0  0  0  0  0  0
  -25.0667  -14.4346   20.3712 C   0  0  0  0  0  0  0  0  0  0  0  0
  -33.3744  -25.7299   17.4089 C   0  0  0  0  0  0  0  0  0  0  0  0
  -30.6421  -25.6343   16.8872 C   0  0  0  0  0  0  0  0  0  0  0  0
  -24.0644  -27.8501   18.6593 C   0  0  0  0  0  0  0  0  0  0  0  0
  -26.4388  -12.4879   18.9184 C   0  0  0  0  0  0  0  0  0  0  0  0
  -25.0660  -13.1095   20.8069 C   0  0  0  0  0  0  0  0  0  0  0  0
  -22.8620  -27.3581   19.1653 C   0  0  0  0  0  0  0  0  0  0  0  0
  -23.4732  -10.2332   20.0256 C   0  0  0  0  0  0  0  0  0  0  0  0
  -22.2570   -9.6888   20.4380 C   0  0  0  0  0  0  0  0  0  0  0  0
  -23.7635  -27.4705   21.4000 C   0  0  0  0  0  0  0  0  0  0  0  0
  -23.1508  -23.4021   21.1501 C   0  0  0  0  0  0  0  0  0  0  0  0
  -23.1831   -9.2816   22.6320 C   0  0  0  0  0  0  0  0  0  0  0  0
  -25.7534  -14.7863   19.2092 C   0  0  0  0  0  0  0  0  0  0  0  0
  -24.8314  -16.7647   17.8888 C   0  0  0  0  0  0  0  0  0  0  0  0
  -32.4695  -25.7079   18.4819 C   0  0  0  0  0  0  0  0  0  0  0  0
  -25.1309  -28.1461   19.5203 C   0  0  0  0  0  0  0  0  0  0  0  0
  -31.0873  -25.6491   18.2200 C   0  0  0  0  0  0  0  0  0  0  0  0
  -24.9775  -27.9685   20.9026 C   0  0  0  0  0  0  0  0  0  0  0  0
  -21.8033  -23.0730   21.2464 C   0  0  0  0  0  0  0  0  0  0  0  0
  -21.3360  -21.9015   20.6611 C   0  0  0  0  0  0  0  0  0  0  0  0
  -25.7521  -12.1361   20.0805 C   0  0  0  0  0  0  0  0  0  0  0  0
  -22.7124  -27.1655   20.5356 C   0  0  0  0  0  0  0  0  0  0  0  0
  -24.5444  -10.3017   20.9164 C   0  0  0  0  0  0  0  0  0  0  0  0
  -22.1119   -9.2131   21.7412 C   0  0  0  0  0  0  0  0  0  0  0  0
  -24.3994   -9.8260   22.2196 C   0  0  0  0  0  0  0  0  0  0  0  0
  -25.7542  -16.1554   18.7600 C   0  0  0  0  0  0  0  0  0  0  0  0
  -23.9832  -22.5331   20.4633 C   0  0  0  0  0  0  0  0  0  0  0  0
  -22.2496  -21.0997   19.9960 C   0  0  0  0  0  0  0  0  0  0  0  0
  -25.2676  -18.0626   17.7798 C   0  0  0  0  0  0  0  0  0  0  0  0
  -23.6826  -16.2075   17.2366 C   0  0  0  0  0  0  0  0  0  0  0  0
  -28.0986  -27.0624   19.8701 C   0  0  0  0  0  0  0  0  0  0  0  0
  -27.7309  -22.1766   21.0591 C   0  0  0  0  0  0  0  0  0  0  0  0
  -28.3081  -29.4726   22.0310 C   0  0  0  0  0  0  0  0  0  0  0  0
  -26.7041  -31.5933   24.1702 C   0  0  0  0  0  0  0  0  0  0  0  0
  -33.0123  -25.6793   19.8888 C   0  0  0  0  0  0  0  0  0  0  0  0
  -26.4122  -28.7013   18.9612 C   0  0  0  0  0  0  0  0  0  0  0  0
  -26.0851  -28.2902   21.8713 C   0  0  0  0  0  0  0  0  0  0  0  0
  -31.9704  -26.0215   20.9506 C   0  0  0  0  0  0  0  0  0  0  0  0
  -29.5548  -20.3837   18.5493 C   0  0  0  0  0  0  0  0  0  0  0  0
  -30.6758  -25.2566   20.6944 C   0  0  0  0  0  0  0  0  0  0  0  0
  -28.6876  -19.1534   18.2855 C   0  0  0  0  0  0  0  0  0  0  0  0
  -29.5009  -20.8007   20.0157 C   0  0  0  0  0  0  0  0  0  0  0  0
  -27.2487  -19.8078   20.2669 C   0  0  0  0  0  0  0  0  0  0  0  0
  -30.0685  -25.6383   19.3390 C   0  0  1  0  0  0  0  0  0  0  0  0
  -27.6096  -28.4831   19.8810 C   0  0  1  0  0  0  0  0  0  0  0  0
  -27.2505  -19.3713   18.7911 C   0  0  2  0  0  0  0  0  0  0  0  0
  -19.8962  -21.5215   20.7503 C   0  0  0  0  0  0  0  0  0  0  0  0
  -21.8077  -19.8281   19.3485 C   0  0  0  0  0  0  0  0  0  0  0  0
  -26.2226  -23.1687   22.7311 C   0  0  0  0  0  0  0  0  0  0  0  0
  -27.1454  -33.4248   25.8281 C   0  0  0  0  0  0  0  0  0  0  0  0
  -29.2621  -27.4028   24.0598 C   0  0  0  0  0  0  0  0  0  0  0  0
  -28.7742  -29.0583   25.8736 C   0  0  0  0  0  0  0  0  0  0  0  0
  -30.4873  -29.5817   24.1375 C   0  0  0  0  0  0  0  0  0  0  0  0
  -25.1183  -33.5457   22.6106 C   0  0  0  0  0  0  0  0  0  0  0  0
  -20.8730  -24.0013   21.9855 C   0  0  0  0  0  0  0  0  0  0  0  0
  -25.4356  -22.8535   20.3411 C   0  0  0  0  0  0  0  0  0  0  0  0
  -19.9930  -24.8514   21.0667 C   0  0  0  0  0  0  0  0  0  0  0  0
  -20.7871  -25.8129   20.1901 C   0  0  0  0  0  0  0  0  0  1  0  0
  -26.2901  -22.2836   21.4911 C   0  0  1  0  0  0  0  0  0  0  0  0
  -28.0383  -29.6088   23.5101 C   0  0  1  0  0  0  0  0  0  0  0  0
  -26.8221  -33.0922   24.3797 C   0  0  2  0  0  0  0  0  0  0  0  0
  -29.1201  -28.9049   24.3771 C   0  0  0  0  0  0  0  0  0  0  0  0
  -26.7050  -16.9968   19.1747 N   0  0  0  0  0  0  0  0  0  0  0  0
  -23.5659  -21.3863   19.8817 N   0  0  0  0  0  0  0  0  0  0  0  0
  -26.3820  -18.1482   18.5615 N   0  0  0  0  0  0  0  0  0  0  0  0
  -27.3207  -28.8246   21.2754 N   0  0  0  0  0  0  0  0  0  0  0  0
  -28.1182  -20.9759   20.4639 N   0  0  0  0  0  0  0  0  0  0  0  0
  -24.8029  -19.1274   17.0923 N   0  0  0  0  0  0  0  0  0  0  0  0
  -23.3776  -14.8576   17.4583 N   0  0  0  0  0  0  0  0  0  0  0  0
  -29.3997  -26.9186   19.4274 N   0  0  0  0  0  0  0  0  0  0  0  0
  -27.9009  -31.0378   23.7700 N   0  0  0  0  0  0  0  0  0  0  0  0
  -25.5448  -33.7683   24.0161 N   0  3  0  0  0  0  0  0  0  0  0  0
  -22.9577  -16.8822   16.4667 O   0  0  0  0  0  0  0  0  0  0  0  0
  -27.3513  -26.1634   20.2376 O   0  0  0  0  0  0  0  0  0  0  0  0
  -28.4874  -23.1337   21.2434 O   0  0  0  0  0  0  0  0  0  0  0  0
  -29.3530  -29.9308   21.5622 O   0  0  0  0  0  0  0  0  0  0  0  0
  -25.6560  -30.9765   24.3477 O   0  0  0  0  0  0  0  0  0  0  0  0
  -25.7510  -10.8432   20.5057 O   0  0  0  0  0  0  0  0  0  0  0  0
  -21.5401  -26.6848   21.0321 O   0  0  0  0  0  0  0  0  0  1  0  0
  -20.9434   -8.6917   22.1375 F   0  0  0  0  0  0  0  0  0  0  0  0
  -25.4245   -9.8902   23.0802 F   0  0  0  0  0  0  0  0  0  0  0  0
  1  2  1  0  0  0  0
  1  5  2  0  0  0  0
  2  6  2  0  0  0  0
  3  8  2  0  0  0  0
  3 16  1  0  0  0  0
  4  9  1  0  0  0  0
  4 16  2  0  0  0  0
  5 18  1  0  0  0  0
  6 20  1  0  0  0  0
  7 10  2  0  0  0  0
  7 19  1  0  0  0  0
  8 24  1  0  0  0  0
  9 24  2  0  0  0  0
 10 25  1  0  0  0  0
 11 12  2  0  0  0  0
 11 26  1  0  0  0  0
 12 27  1  0  0  0  0
 13 21  1  0  0  0  0
 13 25  2  0  0  0  0
 14 22  1  0  0  0  0
 14 30  2  0  0  0  0
 15 27  2  0  0  0  0
 15 28  1  0  0  0  0
 16 29  1  0  0  0  0
 17 29  1  0  0  0  0
 17 32  2  0  0  0  0
 17 33  1  0  0  0  0
 18 20  2  0  0  0  0
 18 38  1  0  0  0  0
 19 21  2  0  0  0  0
 19 39  1  0  0  0  0
 20 47  1  0  0  0  0
 21 40  1  0  0  0  0
 22 23  2  0  0  0  0
 22 58  1  0  0  0  0
 23 31  1  0  0  0  0
 23 50  1  0  0  0  0
 24 81  1  0  0  0  0
 25 82  1  0  0  0  0
 26 28  2  0  0  0  0
 26 81  1  0  0  0  0
 27 83  1  0  0  0  0
 28 84  1  0  0  0  0
 29 66  2  0  0  0  0
 30 59  1  0  0  0  0
 30 67  1  0  0  0  0
 31 51  1  0  0  0  0
 31 67  2  0  0  0  0
 32 68  1  0  0  0  0
 32 71  1  0  0  0  0
 33 72  1  0  0  0  0
 33 76  2  0  0  0  0
 34 48  1  0  0  0  0
 34 73  1  0  0  0  0
 34 77  2  0  0  0  0
 35 62  1  0  0  0  0
 35 70  1  0  0  0  0
 35 78  2  0  0  0  0
 36 63  1  0  0  0  0
 36 69  1  0  0  0  0
 36 79  2  0  0  0  0
 37 64  1  0  0  0  0
 37 74  1  0  0  0  0
 37 80  2  0  0  0  0
 38 41  1  0  0  0  0
 39 48  1  0  0  0  0
 40 69  1  0  0  0  0
 41 43  1  0  0  0  0
 42 44  1  0  0  0  0
 42 45  1  0  0  0  0
 43 47  1  0  0  0  0
 44 49  1  0  0  0  0
 45 70  1  0  0  0  0
 46 49  1  0  0  0  0
 46 70  1  0  0  0  0
 47 73  1  0  0  0  0
 48 69  1  0  0  0  0
 49 68  1  0  0  0  0
 52 62  1  0  0  0  0
 53 64  1  0  0  0  0
 54 65  1  0  0  0  0
 55 65  1  0  0  0  0
 56 65  1  0  0  0  0
 57 75  1  0  0  0  0
 58 60  1  0  0  0  0
 59 62  1  0  0  0  0
 60 61  1  0  0  0  0
 61 82  1  0  0  0  0
 63 65  1  0  0  0  0
 63 74  1  0  0  0  0
 64 75  1  0  0  0  0
 66 68  1  0  0  0  0
M  CHG  1  75   1
M  ISO  4  35 100  61 101  62 100  82 101
M  END
> <Batch ID>
0076

> <Smiles>
CNC(C)C(=O)NC(C(=O)N1Cc2cc([101O:1][101CH2:1]CCc3cc(C[100CH:0](C)[100C:0](=O)N4CCCC(n5nc(-c6ccc(Oc7ccc(F)cc7F)cc6)c(C(N)=O)c5N)C4)nc(C)c3C)ccc2CC1C(=O)NC1CCCc2ccccc21)C(C)(C)C

> <Shape>
0.234

> <Color>
0.066

> <Negative vol penalty>
0.000

$$$$

  -OEChem-04052318343D

 87 95  0     1  0  0  0  0  0999 V2000
  -27.5378  -36.3956   20.8986 C   0  0  0  0  0  0  0  0  0  0  0  0
  -27.7512  -35.0696   21.2614 C   0  0  0  0  0  0  0  0  0  0  0  0
  -22.7354  -10.2104   20.1563 C   0  0  0  0  0  0  0  0  0  0  0  0
  -23.5787  -10.1715   22.4200 C   0  0  0  0  0  0  0  0  0  0  0  0
  -26.2864  -36.9781   21.0950 C   0  0  0  0  0  0  0  0  0  0  0  0
  -26.7135  -34.3256   21.8218 C   0  0  0  0  0  0  0  0  0  0  0  0
  -26.3547  -29.6838   19.8294 C   0  0  0  0  0  0  0  0  0  0  0  0
  -21.8702   -9.1595   20.4605 C   0  0  0  0  0  0  0  0  0  0  0  0
  -22.7135   -9.1206   22.7243 C   0  0  0  0  0  0  0  0  0  0  0  0
  -27.2688  -28.7286   20.2719 C   0  0  0  0  0  0  0  0  0  0  0  0
  -22.5866   -5.7773   22.2368 C   0  0  0  0  0  0  0  0  0  0  0  0
  -23.1034   -4.7001   22.9566 C   0  0  0  0  0  0  0  0  0  0  0  0
  -25.5944  -27.8207   21.7521 C   0  0  0  0  0  0  0  0  0  0  0  0
  -21.5018   -5.1091   24.7186 C   0  0  0  0  0  0  0  0  0  0  0  0
  -30.9211  -18.7488   21.4956 C   0  0  0  0  0  0  0  0  0  0  0  0
  -23.5897  -10.7164   21.1360 C   0  0  0  0  0  0  0  0  0  0  0  0
  -24.2237  -13.1798   20.9431 C   0  0  0  0  0  0  0  0  0  0  0  0
  -25.2301  -36.2380   21.6492 C   0  0  0  0  0  0  0  0  0  0  0  0
  -25.0547  -29.7215   20.3538 C   0  0  0  0  0  0  0  0  0  0  0  0
  -25.4471  -34.8992   22.0271 C   0  0  0  0  0  0  0  0  0  0  0  0
  -24.6649  -28.7757   21.3128 C   0  0  0  0  0  0  0  0  0  0  0  0
  -21.8592   -8.6145   21.7445 C   0  0  0  0  0  0  0  0  0  0  0  0
  -26.8896  -27.7987   21.2355 C   0  0  0  0  0  0  0  0  0  0  0  0
  -21.5274   -6.5205   22.7580 C   0  0  0  0  0  0  0  0  0  0  0  0
  -22.5610   -4.3659   24.1975 C   0  0  0  0  0  0  0  0  0  0  0  0
  -20.9850   -6.1863   23.9988 C   0  0  0  0  0  0  0  0  0  0  0  0
  -24.4840  -11.8016   20.8222 C   0  0  0  0  0  0  0  0  0  0  0  0
  -30.4727  -17.5045   21.8804 C   0  0  0  0  0  0  0  0  0  0  0  0
  -28.5248  -18.4386   22.6308 C   0  0  0  0  0  0  0  0  0  0  0  0
  -28.9736  -19.6830   22.2466 C   0  0  0  0  0  0  0  0  0  0  0  0
  -25.3822  -13.7863   20.5228 C   0  0  0  0  0  0  0  0  0  0  0  0
  -23.0405  -13.8518   21.3950 C   0  0  0  0  0  0  0  0  0  0  0  0
  -23.3589  -31.8510   21.9950 C   0  0  0  0  0  0  0  0  0  0  0  0
  -20.9635  -29.7105   21.5453 C   0  0  0  0  0  0  0  0  0  0  0  0
  -20.0393  -26.4827   20.9337 C   0  0  0  0  0  0  0  0  0  0  0  0
  -30.9512  -14.1467   20.4891 C   0  0  0  0  0  0  0  0  0  0  0  0
  -23.9084  -36.9249   21.8860 C   0  0  0  0  0  0  0  0  0  0  0  0
  -24.0723  -30.7414   19.8466 C   0  0  0  0  0  0  0  0  0  0  0  0
  -23.2749  -28.7609   21.8927 C   0  0  0  0  0  0  0  0  0  0  0  0
  -22.7557  -35.9567   22.1397 C   0  0  0  0  0  0  0  0  0  0  0  0
  -29.4475  -11.8688   18.2028 C   0  0  0  0  0  0  0  0  0  0  0  0
  -23.1683  -34.8875   23.1463 C   0  0  0  0  0  0  0  0  0  0  0  0
  -28.0032  -11.7574   18.6942 C   0  0  0  0  0  0  0  0  0  0  0  0
  -30.4301  -12.0020   19.3643 C   0  0  0  0  0  0  0  0  0  0  0  0
  -28.6834  -12.9819   20.8004 C   0  0  0  0  0  0  0  0  0  0  0  0
  -24.3394  -34.0522   22.6150 C   0  0  1  0  0  0  0  0  0  0  0  0
  -22.9327  -31.0112   20.8243 C   0  0  1  0  0  0  0  0  0  0  0  0
  -27.6507  -12.9019   19.6632 C   0  0  2  0  0  0  0  0  0  0  0  0
  -27.1883  -18.2611   23.2655 C   0  0  0  0  0  0  0  0  0  0  0  0
  -18.0093  -25.0332   20.6590 C   0  0  0  0  0  0  0  0  0  0  0  0
  -33.2743  -17.0651   23.1614 C   0  0  0  0  0  0  0  0  0  0  0  0
  -31.4676  -15.6533   24.1423 C   0  0  0  0  0  0  0  0  0  0  0  0
  -20.5279  -29.7524   24.5650 C   0  0  0  0  0  0  0  0  0  0  0  0
  -19.1947  -27.6461   24.3317 C   0  0  0  0  0  0  0  0  0  0  0  0
  -18.4272  -29.7368   23.2080 C   0  0  0  0  0  0  0  0  0  0  0  0
  -20.7907  -25.7550   18.1652 C   0  0  0  0  0  0  0  0  0  0  0  0
  -28.2756  -24.5100   21.8595 C   0  0  0  0  0  0  0  0  0  0  0  0
  -27.7431  -23.1455   22.2828 C   0  0  0  0  0  0  0  0  0  0  0  0
  -27.2503  -25.6111   22.0958 C   0  0  0  0  0  0  0  0  0  1  0  0
  -28.7509  -22.0386   22.0072 C   0  0  0  0  0  0  0  0  0  0  0  0
  -31.3194  -16.2978   21.6707 C   0  0  1  0  0  0  0  0  0  0  0  0
  -20.4448  -28.5118   22.3022 C   0  0  1  0  0  0  0  0  0  0  0  0
  -19.0481  -25.8879   19.9497 C   0  0  2  0  0  0  0  0  0  0  0  0
  -32.2669  -15.9448   22.8654 C   0  0  0  0  0  0  0  0  0  0  0  0
  -19.6755  -28.9130   23.5924 C   0  0  0  0  0  0  0  0  0  0  0  0
  -30.1797  -19.8604   21.6718 N   0  0  0  0  0  0  0  0  0  0  0  0
  -25.7115  -11.5473   20.3611 N   0  0  0  0  0  0  0  0  0  0  0  0
  -29.2664  -17.3270   22.4549 N   0  0  0  0  0  0  0  0  0  0  0  0
  -26.2327  -12.7739   20.1884 N   0  0  0  0  0  0  0  0  0  0  0  0
  -22.3526  -29.7821   21.3692 N   0  0  0  0  0  0  0  0  0  0  0  0
  -30.0400  -13.1060   20.2445 N   0  0  0  0  0  0  0  0  0  0  0  0
  -25.7460  -15.0814   20.4103 N   0  0  0  0  0  0  0  0  0  0  0  0
  -21.9416  -13.0767   21.7902 N   0  0  0  0  0  0  0  0  0  0  0  0
  -23.8716  -33.0855   21.6449 N   0  0  0  0  0  0  0  0  0  0  0  0
  -19.6536  -27.7392   21.3507 N   0  0  0  0  0  0  0  0  0  0  0  0
  -30.4994  -15.1567   21.3296 N   0  0  0  0  0  0  0  0  0  0  0  0
  -19.7559  -25.0363   18.9524 N   0  3  0  0  0  0  0  0  0  0  0  0
  -22.9542  -15.1027   21.4312 O   0  0  0  0  0  0  0  0  0  0  0  0
  -23.2308  -31.4121   23.1320 O   0  0  0  0  0  0  0  0  0  0  0  0
  -20.1649  -30.5488   21.1195 O   0  0  0  0  0  0  0  0  0  0  0  0
  -21.0523  -25.8903   21.2990 O   0  0  0  0  0  0  0  0  0  0  0  0
  -32.0816  -14.1763   19.9908 O   0  0  0  0  0  0  0  0  0  0  0  0
  -21.0149   -7.5892   22.0418 O   0  0  0  0  0  0  0  0  0  0  0  0
  -27.7801  -26.8657   21.6696 O   0  0  0  0  0  0  0  0  0  1  0  0
  -28.2021  -20.8000   22.4360 O   0  0  0  0  0  0  0  0  0  0  0  0
  -23.0564   -3.3305   24.8879 F   0  0  0  0  0  0  0  0  0  0  0  0
  -19.9666   -6.8958   24.5041 F   0  0  0  0  0  0  0  0  0  0  0  0
  1  2  1  0  0  0  0
  1  5  2  0  0  0  0
  2  6  2  0  0  0  0
  3  8  2  0  0  0  0
  3 16  1  0  0  0  0
  4  9  1  0  0  0  0
  4 16  2  0  0  0  0
  5 18  1  0  0  0  0
  6 20  1  0  0  0  0
  7 10  2  0  0  0  0
  7 19  1  0  0  0  0
  8 22  1  0  0  0  0
  9 22  2  0  0  0  0
 10 23  1  0  0  0  0
 11 12  2  0  0  0  0
 11 24  1  0  0  0  0
 12 25  1  0  0  0  0
 13 21  1  0  0  0  0
 13 23  2  0  0  0  0
 14 25  2  0  0  0  0
 14 26  1  0  0  0  0
 15 28  1  0  0  0  0
 15 66  2  0  0  0  0
 16 27  1  0  0  0  0
 17 27  1  0  0  0  0
 17 31  2  0  0  0  0
 17 32  1  0  0  0  0
 18 20  2  0  0  0  0
 18 37  1  0  0  0  0
 19 21  2  0  0  0  0
 19 38  1  0  0  0  0
 20 46  1  0  0  0  0
 21 39  1  0  0  0  0
 22 83  1  0  0  0  0
 23 84  1  0  0  0  0
 24 26  2  0  0  0  0
 24 83  1  0  0  0  0
 25 86  1  0  0  0  0
 26 87  1  0  0  0  0
 27 67  2  0  0  0  0
 28 61  1  0  0  0  0
 28 68  2  0  0  0  0
 29 30  2  0  0  0  0
 29 49  1  0  0  0  0
 29 68  1  0  0  0  0
 30 66  1  0  0  0  0
 30 85  1  0  0  0  0
 31 69  1  0  0  0  0
 31 72  1  0  0  0  0
 32 73  1  0  0  0  0
 32 78  2  0  0  0  0
 33 47  1  0  0  0  0
 33 74  1  0  0  0  0
 33 79  2  0  0  0  0
 34 62  1  0  0  0  0
 34 70  1  0  0  0  0
 34 80  2  0  0  0  0
 35 63  1  0  0  0  0
 35 75  1  0  0  0  0
 35 81  2  0  0  0  0
 36 71  1  0  0  0  0
 36 76  1  0  0  0  0
 36 82  2  0  0  0  0
 37 40  1  0  0  0  0
 38 47  1  0  0  0  0
 39 70  1  0  0  0  0
 40 42  1  0  0  0  0
 41 43  1  0  0  0  0
 41 44  1  0  0  0  0
 42 46  1  0  0  0  0
 43 48  1  0  0  0  0
 44 71  1  0  0  0  0
 45 48  1  0  0  0  0
 45 71  1  0  0  0  0
 46 74  1  0  0  0  0
 47 70  1  0  0  0  0
 48 69  1  0  0  0  0
 50 63  1  0  0  0  0
 51 64  1  0  0  0  0
 52 64  1  0  0  0  0
 53 65  1  0  0  0  0
 54 65  1  0  0  0  0
 55 65  1  0  0  0  0
 56 77  1  0  0  0  0
 57 58  1  0  0  0  0
 57 59  1  0  0  0  0
 58 60  1  0  0  0  0
 59 84  1  0  0  0  0
 60 85  1  0  0  0  0
 61 64  1  0  0  0  0
 61 76  1  0  0  0  0
 62 65  1  0  0  0  0
 62 75  1  0  0  0  0
 63 77  1  0  0  0  0
 67 69  1  0  0  0  0
M  CHG  1  77   1
M  ISO  4  36 100  59 101  76 100  84 101
M  END
> <Batch ID>
0076

> <Smiles>
CNC(C)C(=O)NC(C(=O)N1Cc2cc([101O:1][101CH2:1]CCCOc3ncc(C([100NH:0][100C:0](=O)N4CCCC(n5nc(-c6ccc(Oc7ccc(F)cc7F)cc6)c(C(N)=O)c5N)C4)C(C)C)nc3C)ccc2CC1C(=O)NC1CCCc2ccccc21)C(C)(C)C

> <Shape>
0.363

> <Color>
0.193

> <Negative vol penalty>
0.000

$$$$

  -OEChem-04052318343D

 82 90  0     1  0  0  0  0  0999 V2000
  -19.3520  -33.9335   22.7759 C   0  0  0  0  0  0  0  0  0  0  0  0
  -20.6847  -33.6944   22.4561 C   0  0  0  0  0  0  0  0  0  0  0  0
  -27.5433  -17.4808   19.7308 C   0  0  0  0  0  0  0  0  0  0  0  0
  -28.9001  -17.5332   21.7291 C   0  0  0  0  0  0  0  0  0  0  0  0
  -18.5958  -32.9394   23.3954 C   0  0  0  0  0  0  0  0  0  0  0  0
  -21.2622  -32.4613   22.7566 C   0  0  0  0  0  0  0  0  0  0  0  0
  -25.5144  -29.4953   19.4964 C   0  0  0  0  0  0  0  0  0  0  0  0
  -27.3497  -16.1096   19.8982 C   0  0  0  0  0  0  0  0  0  0  0  0
  -28.7065  -16.1620   21.8965 C   0  0  0  0  0  0  0  0  0  0  0  0
  -26.8990  -29.3990   19.6280 C   0  0  0  0  0  0  0  0  0  0  0  0
  -25.4268  -14.0791   21.7988 C   0  0  0  0  0  0  0  0  0  0  0  0
  -24.1337  -13.5823   21.6358 C   0  0  0  0  0  0  0  0  0  0  0  0
  -26.6344  -27.3244   20.8301 C   0  0  0  0  0  0  0  0  0  0  0  0
  -24.9048  -12.1646   19.8379 C   0  0  0  0  0  0  0  0  0  0  0  0
  -32.1018  -29.0533   20.0717 C   0  0  0  0  0  0  0  0  0  0  0  0
  -28.3185  -18.1926   20.6463 C   0  0  0  0  0  0  0  0  0  0  0  0
  -27.7224  -20.6494   20.9876 C   0  0  0  0  0  0  0  0  0  0  0  0
  -19.1617  -31.6901   23.6949 C   0  0  0  0  0  0  0  0  0  0  0  0
  -24.6775  -28.5108   20.0412 C   0  0  0  0  0  0  0  0  0  0  0  0
  -20.5133  -31.4500   23.3819 C   0  0  0  0  0  0  0  0  0  0  0  0
  -25.2397  -27.4092   20.7019 C   0  0  0  0  0  0  0  0  0  0  0  0
  -27.9313  -15.4502   20.9810 C   0  0  0  0  0  0  0  0  0  0  0  0
  -27.4591  -28.3150   20.2974 C   0  0  0  0  0  0  0  0  0  0  0  0
  -26.4590  -13.6187   20.9812 C   0  0  0  0  0  0  0  0  0  0  0  0
  -23.8727  -12.6251   20.6554 C   0  0  0  0  0  0  0  0  0  0  0  0
  -26.1980  -12.6614   20.0008 C   0  0  0  0  0  0  0  0  0  0  0  0
  -28.5193  -19.6089   20.4736 C   0  0  0  0  0  0  0  0  0  0  0  0
  -32.9800  -29.5618   20.9865 C   0  0  0  0  0  0  0  0  0  0  0  0
  -28.3309  -21.7985   20.5453 C   0  0  0  0  0  0  0  0  0  0  0  0
  -32.3246  -27.5719   21.7014 C   0  0  0  0  0  0  0  0  0  0  0  0
  -26.5381  -20.5830   21.7930 C   0  0  0  0  0  0  0  0  0  0  0  0
  -22.4004  -28.4784   22.2587 C   0  0  0  0  0  0  0  0  0  0  0  0
  -22.0315  -25.4083   21.2786 C   0  0  0  0  0  0  0  0  0  0  0  0
  -23.4017  -22.6546   19.7998 C   0  0  0  0  0  0  0  0  0  0  0  0
  -33.6061  -23.9557   19.5288 C   0  0  0  0  0  0  0  0  0  0  0  0
  -18.3180  -30.6631   24.4078 C   0  0  0  0  0  0  0  0  0  0  0  0
  -23.1871  -28.6156   19.8674 C   0  0  0  0  0  0  0  0  0  0  0  0
  -24.3859  -26.3151   21.2870 C   0  0  0  0  0  0  0  0  0  0  0  0
  -18.8996  -29.2528   24.3532 C   0  0  0  0  0  0  0  0  0  0  0  0
  -31.4704  -22.8920   16.8860 C   0  0  0  0  0  0  0  0  0  0  0  0
  -20.3879  -29.2758   24.6869 C   0  0  0  0  0  0  0  0  0  0  0  0
  -30.4176  -22.0336   17.5895 C   0  0  0  0  0  0  0  0  0  0  0  0
  -32.8505  -22.7226   17.5176 C   0  0  0  0  0  0  0  0  0  0  0  0
  -31.8446  -22.0926   19.6774 C   0  0  0  0  0  0  0  0  0  0  0  0
  -21.1685  -30.1165   23.6694 C   0  0  1  0  0  0  0  0  0  0  0  0
  -22.4067  -27.8191   20.9086 C   0  0  1  0  0  0  0  0  0  0  0  0
  -30.4255  -22.2721   19.1115 C   0  0  2  0  0  0  0  0  0  0  0  0
  -33.7153  -30.8287   21.0223 C   0  0  0  0  0  0  0  0  0  0  0  0
  -22.8682  -20.2836   19.1745 C   0  0  0  0  0  0  0  0  0  0  0  0
  -22.3446  -24.5710   24.1959 C   0  0  0  0  0  0  0  0  0  0  0  0
  -22.7551  -22.2305   23.4075 C   0  0  0  0  0  0  0  0  0  0  0  0
  -20.5682  -23.3363   22.9411 C   0  0  0  0  0  0  0  0  0  0  0  0
  -23.8262  -23.1960   16.9213 C   0  0  0  0  0  0  0  0  0  0  0  0
  -32.1845  -26.3555   22.5403 C   0  0  0  0  0  0  0  0  0  0  0  0
  -33.5129  -25.6350   22.8591 C   0  0  0  0  0  0  0  0  0  0  0  0
  -30.7441  -26.8955   19.8440 C   0  0  0  0  0  0  0  0  0  0  0  0
  -34.2506  -25.1094   21.6295 C   0  0  0  0  0  0  0  0  0  0  0  0
  -29.3647  -26.9056   20.4937 C   0  0  0  0  0  0  0  0  0  1  0  0
  -22.6277  -24.0799   21.6771 C   0  0  1  0  0  0  0  0  0  0  0  0
  -22.8824  -21.7322   18.7117 C   0  0  2  0  0  0  0  0  0  0  0  0
  -22.0902  -23.5759   23.0462 C   0  0  0  0  0  0  0  0  0  0  0  0
  -29.5550  -20.0574   19.7592 N   0  0  0  0  0  0  0  0  0  0  0  0
  -31.7127  -27.8212   20.5391 N   0  0  0  0  0  0  0  0  0  0  0  0
  -29.4130  -21.3923   19.8212 N   0  0  0  0  0  0  0  0  0  0  0  0
  -33.0989  -28.6245   21.9841 N   0  3  0  0  0  0  0  0  0  0  0  0
  -22.9338  -26.4659   21.0967 N   0  0  0  0  0  0  0  0  0  0  0  0
  -32.7892  -22.9640   18.9611 N   0  0  0  0  0  0  0  0  0  0  0  0
  -28.0406  -23.1067   20.7090 N   0  0  0  0  0  0  0  0  0  0  0  0
  -26.0480  -19.3217   22.1579 N   0  0  0  0  0  0  0  0  0  0  0  0
  -21.3636  -29.3731   22.4431 N   0  0  0  0  0  0  0  0  0  0  0  0
  -22.3767  -23.1697   20.5649 N   0  0  0  0  0  0  0  0  0  0  0  0
  -33.4814  -24.1242   20.9024 N   0  0  0  0  0  0  0  0  0  0  0  0
  -23.7407  -21.8292   17.4973 N   0  3  0  0  0  0  0  0  0  0  0  0
  -25.9230  -21.6115   22.1639 O   0  0  0  0  0  0  0  0  0  0  0  0
  -23.2709  -28.1953   23.0735 O   0  0  0  0  0  0  0  0  0  0  0  0
  -20.8109  -25.5023   21.1271 O   0  0  0  0  0  0  0  0  0  0  0  0
  -24.5973  -22.8914   19.9578 O   0  0  0  0  0  0  0  0  0  0  0  0
  -34.3848  -24.6439   18.8601 O   0  0  0  0  0  0  0  0  0  0  0  0
  -27.7424  -14.1123   21.1448 O   0  0  0  0  0  0  0  0  0  0  0  0
  -28.8103  -28.2189   20.4278 O   0  0  0  0  0  0  0  0  0  1  0  0
  -22.6311  -12.1469   20.5001 F   0  0  0  0  0  0  0  0  0  0  0  0
  -27.1858  -12.2144   19.2132 F   0  0  0  0  0  0  0  0  0  0  0  0
  1  2  1  0  0  0  0
  1  5  2  0  0  0  0
  2  6  2  0  0  0  0
  3  8  2  0  0  0  0
  3 16  1  0  0  0  0
  4  9  1  0  0  0  0
  4 16  2  0  0  0  0
  5 18  1  0  0  0  0
  6 20  1  0  0  0  0
  7 10  2  0  0  0  0
  7 19  1  0  0  0  0
  8 22  1  0  0  0  0
  9 22  2  0  0  0  0
 10 23  1  0  0  0  0
 11 12  2  0  0  0  0
 11 24  1  0  0  0  0
 12 25  1  0  0  0  0
 13 21  1  0  0  0  0
 13 23  2  0  0  0  0
 14 25  2  0  0  0  0
 14 26  1  0  0  0  0
 15 28  2  0  0  0  0
 15 63  1  0  0  0  0
 16 27  1  0  0  0  0
 17 27  1  0  0  0  0
 17 29  2  0  0  0  0
 17 31  1  0  0  0  0
 18 20  2  0  0  0  0
 18 36  1  0  0  0  0
 19 21  2  0  0  0  0
 19 37  1  0  0  0  0
 20 45  1  0  0  0  0
 21 38  1  0  0  0  0
 22 79  1  0  0  0  0
 23 80  1  0  0  0  0
 24 26  2  0  0  0  0
 24 79  1  0  0  0  0
 25 81  1  0  0  0  0
 26 82  1  0  0  0  0
 27 62  2  0  0  0  0
 28 48  1  0  0  0  0
 28 65  1  0  0  0  0
 29 64  1  0  0  0  0
 29 68  1  0  0  0  0
 30 54  1  0  0  0  0
 30 63  1  0  0  0  0
 30 65  2  0  0  0  0
 31 69  1  0  0  0  0
 31 74  2  0  0  0  0
 32 46  1  0  0  0  0
 32 70  1  0  0  0  0
 32 75  2  0  0  0  0
 33 59  1  0  0  0  0
 33 66  1  0  0  0  0
 33 76  2  0  0  0  0
 34 60  1  0  0  0  0
 34 71  1  0  0  0  0
 34 77  2  0  0  0  0
 35 67  1  0  0  0  0
 35 72  1  0  0  0  0
 35 78  2  0  0  0  0
 36 39  1  0  0  0  0
 37 46  1  0  0  0  0
 38 66  1  0  0  0  0
 39 41  1  0  0  0  0
 40 42  1  0  0  0  0
 40 43  1  0  0  0  0
 41 45  1  0  0  0  0
 42 47  1  0  0  0  0
 43 67  1  0  0  0  0
 44 47  1  0  0  0  0
 44 67  1  0  0  0  0
 45 70  1  0  0  0  0
 46 66  1  0  0  0  0
 47 64  1  0  0  0  0
 49 60  1  0  0  0  0
 50 61  1  0  0  0  0
 51 61  1  0  0  0  0
 52 61  1  0  0  0  0
 53 73  1  0  0  0  0
 54 55  1  0  0  0  0
 55 57  1  0  0  0  0
 56 58  1  0  0  0  0
 56 63  1  0  0  0  0
 57 72  1  0  0  0  0
 58 80  1  0  0  0  0
 59 61  1  0  0  0  0
 59 71  1  0  0  0  0
 60 73  1  0  0  0  0
 62 64  1  0  0  0  0
M  CHG  2  65   1  73   1
M  ISO  4  35 100  58 101  72 100  80 101
M  END
> <Batch ID>
0076

> <Smiles>
CNC(C)C(=O)NC(C(=O)N1Cc2cc([101O:1][101CH2:1]Cn3cc(C)nc3CCC[100NH:0][100C:0](=O)N3CCCC(n4nc(-c5ccc(Oc6ccc(F)cc6F)cc5)c(C(N)=O)c4N)C3)ccc2CC1C(=O)NC1CCCc2ccccc21)C(C)(C)C

> <Shape>
0.208

> <Color>
0.083

> <Negative vol penalty>
0.000

$$$$

  -OEChem-04052318343D

 88 96  0     1  0  0  0  0  0999 V2000
  -30.4769  -26.1735   17.7107 C   0  0  0  0  0  0  0  0  0  0  0  0
  -29.3038  -25.4261   17.7340 C   0  0  0  0  0  0  0  0  0  0  0  0
  -25.5996  -13.5876   21.5465 C   0  0  0  0  0  0  0  0  0  0  0  0
  -26.6421  -13.4032   19.3748 C   0  0  0  0  0  0  0  0  0  0  0  0
  -30.8262  -26.9548   18.8114 C   0  0  0  0  0  0  0  0  0  0  0  0
  -28.4798  -25.4587   18.8584 C   0  0  0  0  0  0  0  0  0  0  0  0
  -23.5823  -25.9431   17.6647 C   0  0  0  0  0  0  0  0  0  0  0  0
  -24.6337  -12.6578   21.1618 C   0  0  0  0  0  0  0  0  0  0  0  0
  -25.6762  -12.4734   18.9900 C   0  0  0  0  0  0  0  0  0  0  0  0
  -22.9191  -24.8000   17.2207 C   0  0  0  0  0  0  0  0  0  0  0  0
  -24.3981   -9.3006   20.8352 C   0  0  0  0  0  0  0  0  0  0  0  0
  -24.0788   -8.2864   21.7379 C   0  0  0  0  0  0  0  0  0  0  0  0
  -21.9727  -24.5024   19.4196 C   0  0  0  0  0  0  0  0  0  0  0  0
  -21.7854   -9.0453   21.7793 C   0  0  0  0  0  0  0  0  0  0  0  0
  -26.6039  -13.9603   20.6530 C   0  0  0  0  0  0  0  0  0  0  0  0
  -28.8393  -14.6562   21.6661 C   0  0  0  0  0  0  0  0  0  0  0  0
  -30.0012  -27.0046   19.9461 C   0  0  0  0  0  0  0  0  0  0  0  0
  -23.4542  -26.3691   18.9946 C   0  0  0  0  0  0  0  0  0  0  0  0
  -28.8191  -26.2403   19.9758 C   0  0  0  0  0  0  0  0  0  0  0  0
  -22.6333  -25.6527   19.8773 C   0  0  0  0  0  0  0  0  0  0  0  0
  -24.6719  -12.1008   19.8835 C   0  0  0  0  0  0  0  0  0  0  0  0
  -22.1164  -24.0778   18.0990 C   0  0  0  0  0  0  0  0  0  0  0  0
  -23.4111  -10.1873   20.4046 C   0  0  0  0  0  0  0  0  0  0  0  0
  -22.7724   -8.1587   22.2099 C   0  0  0  0  0  0  0  0  0  0  0  0
  -22.1048  -10.0596   20.8766 C   0  0  0  0  0  0  0  0  0  0  0  0
  -27.6017  -14.9211   21.0497 C   0  0  0  0  0  0  0  0  0  0  0  0
  -26.8348  -19.9482   16.1617 C   0  0  0  0  0  0  0  0  0  0  0  0
  -25.7930  -20.7497   16.5558 C   0  0  0  0  0  0  0  0  0  0  0  0
  -29.4109  -15.8937   21.8345 C   0  0  0  0  0  0  0  0  0  0  0  0
  -29.4203  -13.4035   22.0518 C   0  0  0  0  0  0  0  0  0  0  0  0
  -25.4614  -26.7595   21.4282 C   0  0  0  0  0  0  0  0  0  0  0  0
  -22.8452  -28.0156   22.8773 C   0  0  0  0  0  0  0  0  0  0  0  0
  -19.4422  -28.1968   23.0621 C   0  0  0  0  0  0  0  0  0  0  0  0
  -28.7213  -21.1232   19.0013 C   0  0  0  0  0  0  0  0  0  0  0  0
  -30.4444  -27.8267   21.1304 C   0  0  0  0  0  0  0  0  0  0  0  0
  -24.1549  -27.6193   19.4508 C   0  0  0  0  0  0  0  0  0  0  0  0
  -22.4464  -26.0795   21.3095 C   0  0  0  0  0  0  0  0  0  0  0  0
  -29.3276  -28.0990   22.1349 C   0  0  0  0  0  0  0  0  0  0  0  0
  -28.2610  -20.4935   22.4752 C   0  0  0  0  0  0  0  0  0  0  0  0
  -28.5545  -26.8185   22.4338 C   0  0  0  0  0  0  0  0  0  0  0  0
  -28.1515  -18.9701   22.5594 C   0  0  0  0  0  0  0  0  0  0  0  0
  -27.6021  -21.0376   21.2096 C   0  0  0  0  0  0  0  0  0  0  0  0
  -27.9620  -18.8995   20.0379 C   0  0  0  0  0  0  0  0  0  0  0  0
  -27.8867  -26.2689   21.1675 C   0  0  1  0  0  0  0  0  0  0  0  0
  -24.3618  -27.6710   20.9614 C   0  0  1  0  0  0  0  0  0  0  0  0
  -28.6611  -18.2991   21.2697 C   0  0  2  0  0  0  0  0  0  0  0  0
  -25.4092  -22.1273   16.2091 C   0  0  0  0  0  0  0  0  0  0  0  0
  -27.3949  -20.4613   13.7871 C   0  0  0  0  0  0  0  0  0  0  0  0
  -17.5954  -29.2777   24.3728 C   0  0  0  0  0  0  0  0  0  0  0  0
  -29.6327  -22.0897   14.5071 C   0  0  0  0  0  0  0  0  0  0  0  0
  -23.3295  -26.0594   25.1683 C   0  0  0  0  0  0  0  0  0  0  0  0
  -20.9940  -26.5067   25.9515 C   0  0  0  0  0  0  0  0  0  0  0  0
  -22.6618  -28.3605   25.8849 C   0  0  0  0  0  0  0  0  0  0  0  0
  -20.1415  -20.4840   16.8908 C   0  0  0  0  0  0  0  0  0  0  0  0
  -20.9239  -19.4828   19.0411 C   0  0  0  0  0  0  0  0  0  0  0  0
  -18.4028  -29.5922   20.6681 C   0  0  0  0  0  0  0  0  0  0  0  0
  -22.5997  -20.2340   17.2755 C   0  0  0  0  0  0  0  0  0  0  0  0
  -23.8363  -20.3035   18.1814 C   0  0  0  0  0  0  0  0  0  0  0  0
  -29.8415  -21.0457   16.7881 C   0  0  0  0  0  0  0  0  0  0  0  0
  -21.2296  -21.9365   18.6324 C   0  0  0  0  0  0  0  0  0  1  0  0
  -27.9324  -20.2407   15.2300 C   0  0  1  0  0  0  0  0  0  0  0  0
  -21.7195  -27.4626   23.7175 C   0  0  1  0  0  0  0  0  0  0  0  0
  -18.5003  -29.3836   23.1552 C   0  0  2  0  0  0  0  0  0  0  0  0
  -28.8587  -21.4471   15.6682 C   0  0  2  0  0  0  0  0  0  0  0  0
  -22.1810  -27.0879   25.1542 C   0  0  0  0  0  0  0  0  0  0  0  0
  -21.2435  -20.5417   17.9708 C   0  0  0  0  0  0  0  0  0  0  0  0
  -27.3982  -16.2246   20.8408 N   0  0  0  0  0  0  0  0  0  0  0  0
  -26.7407  -18.7338   16.7829 N   0  0  0  0  0  0  0  0  0  0  0  0
  -25.6618  -18.7543   17.5580 N   0  0  0  0  0  0  0  0  0  0  0  0
  -25.0950  -19.9639   17.4203 N   0  0  0  0  0  0  0  0  0  0  0  0
  -28.5156  -16.7897   21.3288 N   0  0  0  0  0  0  0  0  0  0  0  0
  -23.1574  -27.3050   21.7097 N   0  0  0  0  0  0  0  0  0  0  0  0
  -28.1304  -20.3610   20.0225 N   0  0  0  0  0  0  0  0  0  0  0  0
  -30.5869  -16.2919   22.3644 N   0  0  0  0  0  0  0  0  0  0  0  0
  -28.6980  -12.2279   21.8057 N   0  0  0  0  0  0  0  0  0  0  0  0
  -26.6918  -27.0244   20.8577 N   0  0  0  0  0  0  0  0  0  0  0  0
  -20.6511  -28.4551   23.6729 N   0  0  0  0  0  0  0  0  0  0  0  0
  -29.2020  -20.4031   17.9145 N   0  0  0  0  0  0  0  0  0  0  0  0
  -17.6435  -29.4616   21.9383 N   0  3  0  0  0  0  0  0  0  0  0  0
  -30.5396  -13.3301   22.6135 O   0  0  0  0  0  0  0  0  0  0  0  0
  -25.2123  -25.8820   22.2464 O   0  0  0  0  0  0  0  0  0  0  0  0
  -23.4213  -29.0443   23.2399 O   0  0  0  0  0  0  0  0  0  0  0  0
  -19.1349  -27.1444   22.5065 O   0  0  0  0  0  0  0  0  0  0  0  0
  -28.8183  -22.3539   19.0564 O   0  0  0  0  0  0  0  0  0  0  0  0
  -23.7296  -11.1933   19.5078 O   0  0  0  0  0  0  0  0  0  0  0  0
  -21.4684  -22.9613   17.6684 O   0  0  0  0  0  0  0  0  0  1  0  0
  -22.4655   -7.1837   23.0756 F   0  0  0  0  0  0  0  0  0  0  0  0
  -21.1521  -10.9077   20.4657 F   0  0  0  0  0  0  0  0  0  0  0  0
  1  2  1  0  0  0  0
  1  5  2  0  0  0  0
  2  6  2  0  0  0  0
  3  8  2  0  0  0  0
  3 15  1  0  0  0  0
  4  9  1  0  0  0  0
  4 15  2  0  0  0  0
  5 17  1  0  0  0  0
  6 19  1  0  0  0  0
  7 10  2  0  0  0  0
  7 18  1  0  0  0  0
  8 21  1  0  0  0  0
  9 21  2  0  0  0  0
 10 22  1  0  0  0  0
 11 12  2  0  0  0  0
 11 23  1  0  0  0  0
 12 24  1  0  0  0  0
 13 20  1  0  0  0  0
 13 22  2  0  0  0  0
 14 24  2  0  0  0  0
 14 25  1  0  0  0  0
 15 26  1  0  0  0  0
 16 26  1  0  0  0  0
 16 29  2  0  0  0  0
 16 30  1  0  0  0  0
 17 19  2  0  0  0  0
 17 35  1  0  0  0  0
 18 20  2  0  0  0  0
 18 36  1  0  0  0  0
 19 44  1  0  0  0  0
 20 37  1  0  0  0  0
 21 85  1  0  0  0  0
 22 86  1  0  0  0  0
 23 25  2  0  0  0  0
 23 85  1  0  0  0  0
 24 87  1  0  0  0  0
 25 88  1  0  0  0  0
 26 67  2  0  0  0  0
 27 28  2  0  0  0  0
 27 61  1  0  0  0  0
 27 68  1  0  0  0  0
 28 47  1  0  0  0  0
 28 70  1  0  0  0  0
 29 71  1  0  0  0  0
 29 74  1  0  0  0  0
 30 75  1  0  0  0  0
 30 80  2  0  0  0  0
 31 45  1  0  0  0  0
 31 76  1  0  0  0  0
 31 81  2  0  0  0  0
 32 62  1  0  0  0  0
 32 72  1  0  0  0  0
 32 82  2  0  0  0  0
 33 63  1  0  0  0  0
 33 77  1  0  0  0  0
 33 83  2  0  0  0  0
 34 73  1  0  0  0  0
 34 78  1  0  0  0  0
 34 84  2  0  0  0  0
 35 38  1  0  0  0  0
 36 45  1  0  0  0  0
 37 72  1  0  0  0  0
 38 40  1  0  0  0  0
 39 41  1  0  0  0  0
 39 42  1  0  0  0  0
 40 44  1  0  0  0  0
 41 46  1  0  0  0  0
 42 73  1  0  0  0  0
 43 46  1  0  0  0  0
 43 73  1  0  0  0  0
 44 76  1  0  0  0  0
 45 72  1  0  0  0  0
 46 71  1  0  0  0  0
 48 61  1  0  0  0  0
 49 63  1  0  0  0  0
 50 64  1  0  0  0  0
 51 65  1  0  0  0  0
 52 65  1  0  0  0  0
 53 65  1  0  0  0  0
 54 66  1  0  0  0  0
 55 66  1  0  0  0  0
 56 79  1  0  0  0  0
 57 58  1  0  0  0  0
 57 66  1  0  0  0  0
 58 70  1  0  0  0  0
 59 64  1  0  0  0  0
 59 78  1  0  0  0  0
 60 66  1  0  0  0  0
 60 86  1  0  0  0  0
 61 64  1  0  0  0  0
 62 65  1  0  0  0  0
 62 77  1  0  0  0  0
 63 79  1  0  0  0  0
 67 71  1  0  0  0  0
 68 69  2  0  0  0  0
 69 70  1  0  0  0  0
M  CHG  1  79   1
M  ISO  4  34 100  60 101  78 100  86 101
M  END
> <Batch ID>
0076

> <Smiles>
CNC(C)C(=O)NC(C(=O)N1Cc2cc([101O:1][101CH2:1]C(C)(C)CCn3nnc(C(C)C(C)C[100NH:0][100C:0](=O)N4CCCC(n5nc(-c6ccc(Oc7ccc(F)cc7F)cc6)c(C(N)=O)c5N)C4)c3C)ccc2CC1C(=O)NC1CCCc2ccccc21)C(C)(C)C

> <Shape>
0.242

> <Color>
0.058

> <Negative vol penalty>
0.000

$$$$

  -OEChem-04052318343D

 86 94  0     1  0  0  0  0  0999 V2000
  -32.8172  -33.0327   15.9792 C   0  0  0  0  0  0  0  0  0  0  0  0
  -32.4748  -31.7012   16.1921 C   0  0  0  0  0  0  0  0  0  0  0  0
  -22.8620  -10.2794   20.7002 C   0  0  0  0  0  0  0  0  0  0  0  0
  -24.5287   -9.1227   22.0121 C   0  0  0  0  0  0  0  0  0  0  0  0
  -32.6072  -33.9748   16.9853 C   0  0  0  0  0  0  0  0  0  0  0  0
  -31.9231  -31.3109   17.4119 C   0  0  0  0  0  0  0  0  0  0  0  0
  -27.6989  -26.9710   18.3213 C   0  0  0  0  0  0  0  0  0  0  0  0
  -22.1098   -9.1074   20.6224 C   0  0  0  0  0  0  0  0  0  0  0  0
  -23.7764   -7.9506   21.9344 C   0  0  0  0  0  0  0  0  0  0  0  0
  -27.7936  -25.6394   18.7234 C   0  0  0  0  0  0  0  0  0  0  0  0
  -21.0438   -6.6428   23.4321 C   0  0  0  0  0  0  0  0  0  0  0  0
  -20.8752   -5.9040   24.6031 C   0  0  0  0  0  0  0  0  0  0  0  0
  -27.3416  -26.3007   20.9988 C   0  0  0  0  0  0  0  0  0  0  0  0
  -26.9063  -21.1816   20.7169 C   0  0  0  0  0  0  0  0  0  0  0  0
  -21.9503   -4.0076   23.5614 C   0  0  0  0  0  0  0  0  0  0  0  0
  -24.0715  -10.2870   21.3950 C   0  0  0  0  0  0  0  0  0  0  0  0
  -24.7664  -12.4973   22.4626 C   0  0  0  0  0  0  0  0  0  0  0  0
  -32.0438  -33.5975   18.2145 C   0  0  0  0  0  0  0  0  0  0  0  0
  -27.4351  -27.9804   19.2583 C   0  0  0  0  0  0  0  0  0  0  0  0
  -31.7067  -32.2486   18.4359 C   0  0  0  0  0  0  0  0  0  0  0  0
  -27.2414  -27.6440   20.6057 C   0  0  0  0  0  0  0  0  0  0  0  0
  -26.9858  -19.9190   21.2776 C   0  0  0  0  0  0  0  0  0  0  0  0
  -22.5670   -7.9430   21.2396 C   0  0  0  0  0  0  0  0  0  0  0  0
  -27.6178  -25.3044   20.0628 C   0  0  0  0  0  0  0  0  0  0  0  0
  -21.6656   -6.0641   22.3257 C   0  0  0  0  0  0  0  0  0  0  0  0
  -21.3284   -4.5864   24.6678 C   0  0  0  0  0  0  0  0  0  0  0  0
  -22.1189   -4.7465   22.3904 C   0  0  0  0  0  0  0  0  0  0  0  0
  -24.8493  -11.4973   21.4752 C   0  0  0  0  0  0  0  0  0  0  0  0
  -28.0233  -21.6736   20.0721 C   0  0  0  0  0  0  0  0  0  0  0  0
  -28.1768  -19.2319   21.1562 C   0  0  0  0  0  0  0  0  0  0  0  0
  -25.7063  -13.4268   22.0896 C   0  0  0  0  0  0  0  0  0  0  0  0
  -23.9159  -12.5786   23.6139 C   0  0  0  0  0  0  0  0  0  0  0  0
  -28.9988  -30.5490   20.2884 C   0  0  0  0  0  0  0  0  0  0  0  0
  -26.2408  -31.0993   21.9048 C   0  0  0  0  0  0  0  0  0  0  0  0
  -23.3838  -29.8322   23.2756 C   0  0  0  0  0  0  0  0  0  0  0  0
  -31.0545  -14.2377   20.3414 C   0  0  0  0  0  0  0  0  0  0  0  0
  -31.8796  -34.6429   19.2891 C   0  0  0  0  0  0  0  0  0  0  0  0
  -27.3096  -29.4089   18.8043 C   0  0  0  0  0  0  0  0  0  0  0  0
  -26.9362  -28.6877   21.6477 C   0  0  0  0  0  0  0  0  0  0  0  0
  -30.9436  -34.2155   20.4168 C   0  0  0  0  0  0  0  0  0  0  0  0
  -28.3602  -13.9226   17.8228 C   0  0  0  0  0  0  0  0  0  0  0  0
  -31.2736  -32.7988   20.8763 C   0  0  0  0  0  0  0  0  0  0  0  0
  -27.2294  -13.2791   18.6235 C   0  0  0  0  0  0  0  0  0  0  0  0
  -29.7317  -13.5469   18.3756 C   0  0  0  0  0  0  0  0  0  0  0  0
  -28.7675  -13.1976   20.6255 C   0  0  0  0  0  0  0  0  0  0  0  0
  -31.0831  -31.7907   19.7365 C   0  0  1  0  0  0  0  0  0  0  0  0
  -27.5467  -30.4154   19.9259 C   0  0  1  0  0  0  0  0  0  0  0  0
  -27.3710  -13.5935   20.1230 C   0  0  2  0  0  0  0  0  0  0  0  0
  -21.3431  -30.5209   24.5635 C   0  0  0  0  0  0  0  0  0  0  0  0
  -24.7931  -18.2704   19.9047 C   0  0  0  0  0  0  0  0  0  0  0  0
  -23.3775  -18.6430   21.9347 C   0  0  0  0  0  0  0  0  0  0  0  0
  -27.9182  -31.3113   24.4447 C   0  0  0  0  0  0  0  0  0  0  0  0
  -25.8133  -31.0447   25.7738 C   0  0  0  0  0  0  0  0  0  0  0  0
  -26.0891  -33.0066   24.2580 C   0  0  0  0  0  0  0  0  0  0  0  0
  -32.2615  -15.5558   22.0400 C   0  0  0  0  0  0  0  0  0  0  0  0
  -21.5737  -28.9327   21.1138 C   0  0  0  0  0  0  0  0  0  0  0  0
  -25.8087  -19.3412   21.9842 C   0  0  0  0  0  0  0  0  0  0  0  0
  -28.3366  -17.8670   21.7359 C   0  0  0  0  0  0  0  0  0  0  0  0
  -27.9899  -23.0375   19.4475 C   0  0  0  0  0  0  0  0  0  1  0  0
  -29.6197  -17.1338   21.2975 C   0  0  0  0  0  0  0  0  0  0  0  0
  -29.8052  -15.7574   21.9327 C   0  0  0  0  0  0  0  0  0  0  0  0
  -25.7021  -30.7153   23.2618 C   0  0  1  0  0  0  0  0  0  0  0  0
  -21.9369  -30.2823   23.1839 C   0  0  2  0  0  0  0  0  0  0  0  0
  -24.5425  -19.1875   21.1045 C   0  0  0  0  0  0  0  0  0  0  0  0
  -26.3883  -31.4998   24.4155 C   0  0  0  0  0  0  0  0  0  0  0  0
  -25.7691  -11.7663   20.5448 N   0  0  0  0  0  0  0  0  0  0  0  0
  -29.1761  -20.9790   19.9684 N   0  0  0  0  0  0  0  0  0  0  0  0
  -29.2540  -19.7379   20.5192 N   0  0  0  0  0  0  0  0  0  0  0  0
  -26.2727  -12.9460   20.9459 N   0  0  0  0  0  0  0  0  0  0  0  0
  -26.8297  -30.0711   21.1553 N   0  0  0  0  0  0  0  0  0  0  0  0
  -29.8242  -13.8158   19.8109 N   0  0  0  0  0  0  0  0  0  0  0  0
  -26.0951  -14.6004   22.6317 N   0  0  0  0  0  0  0  0  0  0  0  0
  -23.0075  -11.5373   23.8485 N   0  0  0  0  0  0  0  0  0  0  0  0
  -29.6780  -31.4989   19.5495 N   0  0  0  0  0  0  0  0  0  0  0  0
  -24.2561  -30.8969   23.1932 N   0  0  0  0  0  0  0  0  0  0  0  0
  -31.0123  -15.0823   21.4610 N   0  0  0  0  0  0  0  0  0  0  0  0
  -21.1160  -29.2493   22.4912 N   0  3  0  0  0  0  0  0  0  0  0  0
  -23.9486  -13.5539   24.4021 O   0  0  0  0  0  0  0  0  0  0  0  0
  -29.4678  -29.8437   21.1739 O   0  0  0  0  0  0  0  0  0  0  0  0
  -26.1363  -32.2669   21.5210 O   0  0  0  0  0  0  0  0  0  0  0  0
  -23.7077  -28.6543   23.4108 O   0  0  0  0  0  0  0  0  0  0  0  0
  -32.1291  -13.8874   19.8369 O   0  0  0  0  0  0  0  0  0  0  0  0
  -21.8330   -6.7992   21.1641 O   0  0  0  0  0  0  0  0  0  0  0  0
  -27.7104  -24.0055   20.4580 O   0  0  0  0  0  0  0  0  0  1  0  0
  -21.1678   -3.8775   25.7928 F   0  0  0  0  0  0  0  0  0  0  0  0
  -22.7181   -4.1855   21.3311 F   0  0  0  0  0  0  0  0  0  0  0  0
  1  2  1  0  0  0  0
  1  5  2  0  0  0  0
  2  6  2  0  0  0  0
  3  8  2  0  0  0  0
  3 16  1  0  0  0  0
  4  9  1  0  0  0  0
  4 16  2  0  0  0  0
  5 18  1  0  0  0  0
  6 20  1  0  0  0  0
  7 10  2  0  0  0  0
  7 19  1  0  0  0  0
  8 23  1  0  0  0  0
  9 23  2  0  0  0  0
 10 24  1  0  0  0  0
 11 12  2  0  0  0  0
 11 25  1  0  0  0  0
 12 26  1  0  0  0  0
 13 21  1  0  0  0  0
 13 24  2  0  0  0  0
 14 22  2  0  0  0  0
 14 29  1  0  0  0  0
 15 26  2  0  0  0  0
 15 27  1  0  0  0  0
 16 28  1  0  0  0  0
 17 28  1  0  0  0  0
 17 31  2  0  0  0  0
 17 32  1  0  0  0  0
 18 20  2  0  0  0  0
 18 37  1  0  0  0  0
 19 21  2  0  0  0  0
 19 38  1  0  0  0  0
 20 46  1  0  0  0  0
 21 39  1  0  0  0  0
 22 30  1  0  0  0  0
 22 57  1  0  0  0  0
 23 83  1  0  0  0  0
 24 84  1  0  0  0  0
 25 27  2  0  0  0  0
 25 83  1  0  0  0  0
 26 85  1  0  0  0  0
 27 86  1  0  0  0  0
 28 66  2  0  0  0  0
 29 59  1  0  0  0  0
 29 67  2  0  0  0  0
 30 58  1  0  0  0  0
 30 68  2  0  0  0  0
 31 69  1  0  0  0  0
 31 72  1  0  0  0  0
 32 73  1  0  0  0  0
 32 78  2  0  0  0  0
 33 47  1  0  0  0  0
 33 74  1  0  0  0  0
 33 79  2  0  0  0  0
 34 62  1  0  0  0  0
 34 70  1  0  0  0  0
 34 80  2  0  0  0  0
 35 63  1  0  0  0  0
 35 75  1  0  0  0  0
 35 81  2  0  0  0  0
 36 71  1  0  0  0  0
 36 76  1  0  0  0  0
 36 82  2  0  0  0  0
 37 40  1  0  0  0  0
 38 47  1  0  0  0  0
 39 70  1  0  0  0  0
 40 42  1  0  0  0  0
 41 43  1  0  0  0  0
 41 44  1  0  0  0  0
 42 46  1  0  0  0  0
 43 48  1  0  0  0  0
 44 71  1  0  0  0  0
 45 48  1  0  0  0  0
 45 71  1  0  0  0  0
 46 74  1  0  0  0  0
 47 70  1  0  0  0  0
 48 69  1  0  0  0  0
 49 63  1  0  0  0  0
 50 64  1  0  0  0  0
 51 64  1  0  0  0  0
 52 65  1  0  0  0  0
 53 65  1  0  0  0  0
 54 65  1  0  0  0  0
 55 76  1  0  0  0  0
 56 77  1  0  0  0  0
 57 64  1  0  0  0  0
 58 60  1  0  0  0  0
 59 84  1  0  0  0  0
 60 61  1  0  0  0  0
 61 76  1  0  0  0  0
 62 65  1  0  0  0  0
 62 75  1  0  0  0  0
 63 77  1  0  0  0  0
 66 69  1  0  0  0  0
 67 68  1  0  0  0  0
M  CHG  1  77   1
M  ISO  4  36 100  59 101  76 100  84 101
M  END
> <Batch ID>
0076

> <Smiles>
CNC(C)C(=O)NC(C(=O)N1Cc2cc([101O:1][101CH2:1]c3cc(CC(C)C)c(CCC[100N:0](C)[100C:0](=O)N4CCCC(n5nc(-c6ccc(Oc7ccc(F)cc7F)cc6)c(C(N)=O)c5N)C4)nn3)ccc2CC1C(=O)NC1CCCc2ccccc21)C(C)(C)C

> <Shape>
0.322

> <Color>
0.183

> <Negative vol penalty>
0.000

$$$$

  -OEChem-04052318343D

 87 95  0     1  0  0  0  0  0999 V2000
  -20.7823  -29.8050   25.1277 C   0  0  0  0  0  0  0  0  0  0  0  0
  -21.9763  -29.2334   24.7001 C   0  0  0  0  0  0  0  0  0  0  0  0
  -25.1541  -11.2915   20.9882 C   0  0  0  0  0  0  0  0  0  0  0  0
  -25.3319  -12.2783   23.1863 C   0  0  0  0  0  0  0  0  0  0  0  0
  -19.5735  -29.3912   24.5697 C   0  0  0  0  0  0  0  0  0  0  0  0
  -21.9621  -28.2467   23.7149 C   0  0  0  0  0  0  0  0  0  0  0  0
  -25.5305  -28.9653   20.1942 C   0  0  0  0  0  0  0  0  0  0  0  0
  -25.2248  -10.0185   21.5539 C   0  0  0  0  0  0  0  0  0  0  0  0
  -25.4026  -11.0052   23.7520 C   0  0  0  0  0  0  0  0  0  0  0  0
  -26.8353  -28.6040   20.5270 C   0  0  0  0  0  0  0  0  0  0  0  0
  -23.1509   -7.8916   23.1688 C   0  0  0  0  0  0  0  0  0  0  0  0
  -22.2483   -6.9298   22.7154 C   0  0  0  0  0  0  0  0  0  0  0  0
  -26.5690  -26.5406   19.3060 C   0  0  0  0  0  0  0  0  0  0  0  0
  -26.6183  -24.9012   24.6406 C   0  0  0  0  0  0  0  0  0  0  0  0
  -24.0897   -5.5399   21.9982 C   0  0  0  0  0  0  0  0  0  0  0  0
  -28.6951  -25.7451   24.8520 C   0  0  0  0  0  0  0  0  0  0  0  0
  -25.2077  -12.4214   21.8044 C   0  0  0  0  0  0  0  0  0  0  0  0
  -23.9749  -14.4948   20.9743 C   0  0  0  0  0  0  0  0  0  0  0  0
  -19.5453  -28.4058   23.5702 C   0  0  0  0  0  0  0  0  0  0  0  0
  -24.7301  -28.1106   19.4226 C   0  0  0  0  0  0  0  0  0  0  0  0
  -20.7517  -27.8183   23.1439 C   0  0  0  0  0  0  0  0  0  0  0  0
  -25.2553  -26.8945   18.9626 C   0  0  0  0  0  0  0  0  0  0  0  0
  -27.5022  -25.5750   25.5192 C   0  0  0  0  0  0  0  0  0  0  0  0
  -25.3490   -9.8753   22.9358 C   0  0  0  0  0  0  0  0  0  0  0  0
  -27.3537  -27.3902   20.0854 C   0  0  0  0  0  0  0  0  0  0  0  0
  -24.5229   -7.6777   23.0369 C   0  0  0  0  0  0  0  0  0  0  0  0
  -22.7176   -5.7538   22.1302 C   0  0  0  0  0  0  0  0  0  0  0  0
  -24.9923   -6.5018   22.4516 C   0  0  0  0  0  0  0  0  0  0  0  0
  -25.1353  -13.7367   21.2205 C   0  0  0  0  0  0  0  0  0  0  0  0
  -27.2982  -24.6799   23.4632 C   0  0  0  0  0  0  0  0  0  0  0  0
  -24.4385  -15.6602   20.4145 C   0  0  0  0  0  0  0  0  0  0  0  0
  -22.6009  -14.1742   21.2289 C   0  0  0  0  0  0  0  0  0  0  0  0
  -21.9917  -26.5676   19.8957 C   0  0  0  0  0  0  0  0  0  0  0  0
  -22.3216  -25.8194   16.7566 C   0  0  0  0  0  0  0  0  0  0  0  0
  -24.3976  -25.4039   14.0799 C   0  0  0  0  0  0  0  0  0  0  0  0
  -28.0592  -19.9059   20.3112 C   0  0  0  0  0  0  0  0  0  0  0  0
  -18.2103  -27.9573   23.0305 C   0  0  0  0  0  0  0  0  0  0  0  0
  -23.3337  -28.5270   19.0497 C   0  0  0  0  0  0  0  0  0  0  0  0
  -24.4439  -25.9506   18.1146 C   0  0  0  0  0  0  0  0  0  0  0  0
  -18.3135  -27.1732   21.7248 C   0  0  0  0  0  0  0  0  0  0  0  0
  -29.0354  -16.8865   18.6966 C   0  0  0  0  0  0  0  0  0  0  0  0
  -19.4093  -26.1165   21.8218 C   0  0  0  0  0  0  0  0  0  0  0  0
  -28.0163  -15.8598   19.1938 C   0  0  0  0  0  0  0  0  0  0  0  0
  -29.4019  -17.8914   19.7866 C   0  0  0  0  0  0  0  0  0  0  0  0
  -27.2342  -17.5479   20.9077 C   0  0  0  0  0  0  0  0  0  0  0  0
  -20.7794  -26.7629   22.0597 C   0  0  1  0  0  0  0  0  0  0  0  0
  -22.4345  -27.3480   18.6905 C   0  0  1  0  0  0  0  0  0  0  0  0
  -26.7914  -16.5468   19.8269 C   0  0  2  0  0  0  0  0  0  0  0  0
  -24.3811  -24.7519   11.6567 C   0  0  0  0  0  0  0  0  0  0  0  0
  -31.3649  -26.4188   21.2183 C   0  0  0  0  0  0  0  0  0  0  0  0
  -26.8153  -24.8102   27.8190 C   0  0  0  0  0  0  0  0  0  0  0  0
  -26.0042  -27.0232   26.9353 C   0  0  0  0  0  0  0  0  0  0  0  0
  -28.3680  -26.7451   27.6539 C   0  0  0  0  0  0  0  0  0  0  0  0
  -21.9966  -22.8909   17.5492 C   0  0  0  0  0  0  0  0  0  0  0  0
  -22.9204  -22.2548   15.3109 C   0  0  0  0  0  0  0  0  0  0  0  0
  -20.7909  -23.5457   15.4583 C   0  0  0  0  0  0  0  0  0  0  0  0
  -25.4601  -28.0368   13.2446 C   0  0  0  0  0  0  0  0  0  0  0  0
  -26.8502  -24.0200   22.2194 C   0  0  0  0  0  0  0  0  0  0  0  0
  -27.1036  -22.4946   22.1630 C   0  0  0  0  0  0  0  0  0  0  0  0
  -29.6454  -25.1758   22.5551 C   0  0  0  0  0  0  0  0  0  0  0  0
  -26.5949  -21.8247   20.8884 C   0  0  0  0  0  0  0  0  0  0  0  0
  -29.1430  -27.5246   21.6463 C   0  0  0  0  0  0  0  0  0  1  0  0
  -22.9781  -24.6980   15.9881 C   0  0  1  0  0  0  0  0  0  0  0  0
  -24.3080  -25.9022   12.6488 C   0  0  2  0  0  0  0  0  0  0  0  0
  -30.2074  -26.5721   22.2119 C   0  0  2  0  0  0  0  0  0  0  0  0
  -27.2015  -26.0144   26.8951 C   0  0  0  0  0  0  0  0  0  0  0  0
  -22.1864  -23.3640   16.0942 C   0  0  0  0  0  0  0  0  0  0  0  0
  -26.2521  -14.3674   20.8476 N   0  0  0  0  0  0  0  0  0  0  0  0
  -28.5597  -25.1969   23.6032 N   0  0  0  0  0  0  0  0  0  0  0  0
  -25.7955  -15.5341   20.3613 N   0  0  0  0  0  0  0  0  0  0  0  0
  -23.0819  -26.3997   17.7818 N   0  0  0  0  0  0  0  0  0  0  0  0
  -28.1960  -18.5083   20.3445 N   0  0  0  0  0  0  0  0  0  0  0  0
  -23.8137  -16.7703   19.9676 N   0  0  0  0  0  0  0  0  0  0  0  0
  -22.3005  -12.9342   21.8090 N   0  0  0  0  0  0  0  0  0  0  0  0
  -21.2980  -27.3163   20.8271 N   0  0  0  0  0  0  0  0  0  0  0  0
  -23.1495  -25.1842   14.6233 N   0  0  0  0  0  0  0  0  0  0  0  0
  -26.8834  -20.4082   20.8552 N   0  0  0  0  0  0  0  0  0  0  0  0
  -25.4246  -26.8454   12.3579 N   0  3  0  0  0  0  0  0  0  0  0  0
  -21.6659  -14.9571   20.9351 O   0  0  0  0  0  0  0  0  0  0  0  0
  -22.2583  -25.3740   19.9740 O   0  0  0  0  0  0  0  0  0  0  0  0
  -21.1792  -26.1724   16.4536 O   0  0  0  0  0  0  0  0  0  0  0  0
  -25.4678  -25.2237   14.6568 O   0  0  0  0  0  0  0  0  0  0  0  0
  -28.9185  -20.6504   19.8274 O   0  0  0  0  0  0  0  0  0  0  0  0
  -25.4178   -8.6333   23.4882 O   0  0  0  0  0  0  0  0  0  0  0  0
  -28.6268  -27.0348   20.4094 O   0  0  0  0  0  0  0  0  0  1  0  0
  -21.8507   -4.8295   21.6962 F   0  0  0  0  0  0  0  0  0  0  0  0
  -26.3093   -6.2901   22.3231 F   0  0  0  0  0  0  0  0  0  0  0  0
  1  2  1  0  0  0  0
  1  5  2  0  0  0  0
  2  6  2  0  0  0  0
  3  8  2  0  0  0  0
  3 17  1  0  0  0  0
  4  9  1  0  0  0  0
  4 17  2  0  0  0  0
  5 19  1  0  0  0  0
  6 21  1  0  0  0  0
  7 10  2  0  0  0  0
  7 20  1  0  0  0  0
  8 24  1  0  0  0  0
  9 24  2  0  0  0  0
 10 25  1  0  0  0  0
 11 12  2  0  0  0  0
 11 26  1  0  0  0  0
 12 27  1  0  0  0  0
 13 22  1  0  0  0  0
 13 25  2  0  0  0  0
 14 23  1  0  0  0  0
 14 30  2  0  0  0  0
 15 27  2  0  0  0  0
 15 28  1  0  0  0  0
 16 23  2  0  0  0  0
 16 69  1  0  0  0  0
 17 29  1  0  0  0  0
 18 29  1  0  0  0  0
 18 31  2  0  0  0  0
 18 32  1  0  0  0  0
 19 21  2  0  0  0  0
 19 37  1  0  0  0  0
 20 22  2  0  0  0  0
 20 38  1  0  0  0  0
 21 46  1  0  0  0  0
 22 39  1  0  0  0  0
 23 66  1  0  0  0  0
 24 84  1  0  0  0  0
 25 85  1  0  0  0  0
 26 28  2  0  0  0  0
 26 84  1  0  0  0  0
 27 86  1  0  0  0  0
 28 87  1  0  0  0  0
 29 68  2  0  0  0  0
 30 58  1  0  0  0  0
 30 69  1  0  0  0  0
 31 70  1  0  0  0  0
 31 73  1  0  0  0  0
 32 74  1  0  0  0  0
 32 79  2  0  0  0  0
 33 47  1  0  0  0  0
 33 75  1  0  0  0  0
 33 80  2  0  0  0  0
 34 63  1  0  0  0  0
 34 71  1  0  0  0  0
 34 81  2  0  0  0  0
 35 64  1  0  0  0  0
 35 76  1  0  0  0  0
 35 82  2  0  0  0  0
 36 72  1  0  0  0  0
 36 77  1  0  0  0  0
 36 83  2  0  0  0  0
 37 40  1  0  0  0  0
 38 47  1  0  0  0  0
 39 71  1  0  0  0  0
 40 42  1  0  0  0  0
 41 43  1  0  0  0  0
 41 44  1  0  0  0  0
 42 46  1  0  0  0  0
 43 48  1  0  0  0  0
 44 72  1  0  0  0  0
 45 48  1  0  0  0  0
 45 72  1  0  0  0  0
 46 75  1  0  0  0  0
 47 71  1  0  0  0  0
 48 70  1  0  0  0  0
 49 64  1  0  0  0  0
 50 65  1  0  0  0  0
 51 66  1  0  0  0  0
 52 66  1  0  0  0  0
 53 66  1  0  0  0  0
 54 67  1  0  0  0  0
 55 67  1  0  0  0  0
 56 67  1  0  0  0  0
 57 78  1  0  0  0  0
 58 59  1  0  0  0  0
 59 61  1  0  0  0  0
 60 65  1  0  0  0  0
 60 69  1  0  0  0  0
 61 77  1  0  0  0  0
 62 65  1  0  0  0  0
 62 85  1  0  0  0  0
 63 67  1  0  0  0  0
 63 76  1  0  0  0  0
 64 78  1  0  0  0  0
 68 70  1  0  0  0  0
M  CHG  1  78   1
M  ISO  4  36 100  62 101  77 100  85 101
M  END
> <Batch ID>
0076

> <Smiles>
CNC(C)C(=O)NC(C(=O)N1Cc2cc([101O:1][101CH2:1]C(C)Cn3cc(C(C)(C)C)cc3CCC[100NH:0][100C:0](=O)N3CCCC(n4nc(-c5ccc(Oc6ccc(F)cc6F)cc5)c(C(N)=O)c4N)C3)ccc2CC1C(=O)NC1CCCc2ccccc21)C(C)(C)C

> <Shape>
0.228

> <Color>
0.092

> <Negative vol penalty>
0.000

$$$$

  -OEChem-04052318343D

 85 93  0     1  0  0  0  0  0999 V2000
  -21.9194  -11.6259   19.0322 C   0  0  0  0  0  0  0  0  0  0  0  0
  -21.7225  -12.9971   19.1599 C   0  0  0  0  0  0  0  0  0  0  0  0
  -21.7912  -29.1477   19.4704 C   0  0  0  0  0  0  0  0  0  0  0  0
  -22.6793  -27.4380   20.9282 C   0  0  0  0  0  0  0  0  0  0  0  0
  -23.0625  -11.0341   19.5679 C   0  0  0  0  0  0  0  0  0  0  0  0
  -22.6681  -13.7772   19.8245 C   0  0  0  0  0  0  0  0  0  0  0  0
  -25.5473  -20.3362   19.7422 C   0  0  0  0  0  0  0  0  0  0  0  0
  -20.7577  -28.2900   19.0940 C   0  0  0  0  0  0  0  0  0  0  0  0
  -21.6457  -26.5803   20.5520 C   0  0  0  0  0  0  0  0  0  0  0  0
  -25.8012  -21.4117   20.5922 C   0  0  0  0  0  0  0  0  0  0  0  0
  -19.0364  -24.0668   20.2488 C   0  0  0  0  0  0  0  0  0  0  0  0
  -18.3864  -23.3527   21.2553 C   0  0  0  0  0  0  0  0  0  0  0  0
  -27.7763  -20.2926   21.4083 C   0  0  0  0  0  0  0  0  0  0  0  0
  -28.6560  -24.1379   19.3609 C   0  0  0  0  0  0  0  0  0  0  0  0
  -17.7258  -25.4280   22.3012 C   0  0  0  0  0  0  0  0  0  0  0  0
  -22.7521  -28.7217   20.3874 C   0  0  0  0  0  0  0  0  0  0  0  0
  -23.8202  -30.5204   21.8475 C   0  0  0  0  0  0  0  0  0  0  0  0
  -24.0273  -11.8088   20.2310 C   0  0  0  0  0  0  0  0  0  0  0  0
  -26.4014  -19.2241   19.7267 C   0  0  0  0  0  0  0  0  0  0  0  0
  -23.8245  -13.1950   20.3707 C   0  0  0  0  0  0  0  0  0  0  0  0
  -27.5324  -19.2054   20.5553 C   0  0  0  0  0  0  0  0  0  0  0  0
  -29.4521  -23.9575   18.2353 C   0  0  0  0  0  0  0  0  0  0  0  0
  -29.1396  -24.8740   20.4368 C   0  0  0  0  0  0  0  0  0  0  0  0
  -20.6849  -27.0063   19.6348 C   0  0  0  0  0  0  0  0  0  0  0  0
  -26.9143  -21.3888   21.4275 C   0  0  0  0  0  0  0  0  0  0  0  0
  -19.0312  -25.4616   20.2685 C   0  0  0  0  0  0  0  0  0  0  0  0
  -17.7311  -24.0333   22.2815 C   0  0  0  0  0  0  0  0  0  0  0  0
  -18.3759  -26.1421   21.2947 C   0  0  0  0  0  0  0  0  0  0  0  0
  -23.8203  -29.6071   20.7761 C   0  0  0  0  0  0  0  0  0  0  0  0
  -30.7143  -24.5291   18.2352 C   0  0  0  0  0  0  0  0  0  0  0  0
  -30.4158  -25.4044   20.3382 C   0  0  0  0  0  0  0  0  0  0  0  0
  -25.0572  -31.1146   21.7922 C   0  0  0  0  0  0  0  0  0  0  0  0
  -22.7937  -30.8059   22.8069 C   0  0  0  0  0  0  0  0  0  0  0  0
  -26.0683  -16.1308   20.3778 C   0  0  0  0  0  0  0  0  0  0  0  0
  -29.1123  -15.9685   19.2689 C   0  0  0  0  0  0  0  0  0  0  0  0
  -32.0700  -17.5658   18.6792 C   0  0  0  0  0  0  0  0  0  0  0  0
  -30.3327  -29.3509   19.5764 C   0  0  0  0  0  0  0  0  0  0  0  0
  -25.2239  -11.1172   20.8348 C   0  0  0  0  0  0  0  0  0  0  0  0
  -26.1283  -18.0838   18.7847 C   0  0  0  0  0  0  0  0  0  0  0  0
  -28.4914  -18.0441   20.5619 C   0  0  0  0  0  0  0  0  0  0  0  0
  -26.3598  -12.0705   21.1971 C   0  0  0  0  0  0  0  0  0  0  0  0
  -28.5148  -32.2838   18.6989 C   0  0  0  0  0  0  0  0  0  0  0  0
  -25.8185  -13.2881   21.9396 C   0  0  0  0  0  0  0  0  0  0  0  0
  -27.1055  -32.0128   19.2284 C   0  0  0  0  0  0  0  0  0  0  0  0
  -29.1681  -31.0142   18.1573 C   0  0  0  0  0  0  0  0  0  0  0  0
  -27.7776  -29.6070   19.6271 C   0  0  0  0  0  0  0  0  0  0  0  0
  -24.8395  -14.0786   21.0631 C   0  0  1  0  0  0  0  0  0  0  0  0
  -26.7812  -16.7767   19.2236 C   0  0  1  0  0  0  0  0  0  0  0  0
  -27.0994  -30.8466   20.2350 C   0  0  2  0  0  0  0  0  0  0  0  0
  -28.9398  -23.1701   17.0792 C   0  0  0  0  0  0  0  0  0  0  0  0
  -31.6142  -24.3678   17.0541 C   0  0  0  0  0  0  0  0  0  0  0  0
  -34.3857  -17.1623   17.8007 C   0  0  0  0  0  0  0  0  0  0  0  0
  -31.9253  -28.4209   22.2528 C   0  0  0  0  0  0  0  0  0  0  0  0
  -29.8546  -14.5676   21.8759 C   0  0  0  0  0  0  0  0  0  0  0  0
  -32.2590  -15.0443   21.3662 C   0  0  0  0  0  0  0  0  0  0  0  0
  -30.9229  -13.6013   19.8315 C   0  0  0  0  0  0  0  0  0  0  0  0
  -31.7071  -19.5262   16.4919 C   0  0  0  0  0  0  0  0  0  0  0  0
  -28.2815  -25.0731   21.6606 C   0  0  0  0  0  0  0  0  0  0  0  0
  -30.9859  -26.2049   21.4632 C   0  0  0  0  0  0  0  0  0  0  0  0
  -28.6869  -24.1953   22.8466 C   0  0  0  0  0  0  0  0  0  0  0  0
  -28.5298  -22.7036   22.5752 C   0  0  0  0  0  0  0  0  0  1  0  0
  -30.4837  -16.0905   19.8881 C   0  0  1  0  0  0  0  0  0  0  0  0
  -32.9703  -17.5998   17.4574 C   0  0  2  0  0  0  0  0  0  0  0  0
  -31.3551  -27.6499   21.0665 C   0  0  1  0  0  0  0  0  0  0  0  0
  -30.8611  -14.8471   20.7419 C   0  0  0  0  0  0  0  0  0  0  0  0
  -24.9664  -29.6170   20.0903 N   0  0  0  0  0  0  0  0  0  0  0  0
  -31.2184  -25.2505   19.2613 N   0  0  0  0  0  0  0  0  0  0  0  0
  -25.6980  -30.5437   20.7322 N   0  0  0  0  0  0  0  0  0  0  0  0
  -28.1779  -16.9503   19.6276 N   0  0  0  0  0  0  0  0  0  0  0  0
  -29.1309  -29.9478   19.1610 N   0  0  0  0  0  0  0  0  0  0  0  0
  -25.6485  -32.0647   22.5474 N   0  0  0  0  0  0  0  0  0  0  0  0
  -21.5837  -30.1040   22.7197 N   0  0  0  0  0  0  0  0  0  0  0  0
  -25.5598  -14.8774   20.0948 N   0  0  0  0  0  0  0  0  0  0  0  0
  -31.4046  -16.3632   18.7900 N   0  0  0  0  0  0  0  0  0  0  0  0
  -30.2087  -28.3530   20.5352 N   0  0  0  0  0  0  0  0  0  0  0  0
  -33.0280  -18.9786   16.8947 N   0  3  0  0  0  0  0  0  0  0  0  0
  -22.9389  -31.6699   23.7046 O   0  0  0  0  0  0  0  0  0  0  0  0
  -25.9869  -16.7248   21.4466 O   0  0  0  0  0  0  0  0  0  0  0  0
  -28.8809  -15.0405   18.4898 O   0  0  0  0  0  0  0  0  0  0  0  0
  -31.9700  -18.5102   19.4594 O   0  0  0  0  0  0  0  0  0  0  0  0
  -31.4350  -29.6865   19.1300 O   0  0  0  0  0  0  0  0  0  0  0  0
  -19.6763  -26.1691   19.2681 O   0  0  0  0  0  0  0  0  0  0  0  0
  -27.1641  -22.4370   22.2586 O   0  0  0  0  0  0  0  0  0  1  0  0
  -17.1056  -23.3474   23.2471 F   0  0  0  0  0  0  0  0  0  0  0  0
  -18.3665  -27.4820   21.3183 F   0  0  0  0  0  0  0  0  0  0  0  0
  1  2  1  0  0  0  0
  1  5  2  0  0  0  0
  2  6  2  0  0  0  0
  3  8  2  0  0  0  0
  3 16  1  0  0  0  0
  4  9  1  0  0  0  0
  4 16  2  0  0  0  0
  5 18  1  0  0  0  0
  6 20  1  0  0  0  0
  7 10  2  0  0  0  0
  7 19  1  0  0  0  0
  8 24  1  0  0  0  0
  9 24  2  0  0  0  0
 10 25  1  0  0  0  0
 11 12  2  0  0  0  0
 11 26  1  0  0  0  0
 12 27  1  0  0  0  0
 13 21  1  0  0  0  0
 13 25  2  0  0  0  0
 14 22  2  0  0  0  0
 14 23  1  0  0  0  0
 15 27  2  0  0  0  0
 15 28  1  0  0  0  0
 16 29  1  0  0  0  0
 17 29  1  0  0  0  0
 17 32  2  0  0  0  0
 17 33  1  0  0  0  0
 18 20  2  0  0  0  0
 18 38  1  0  0  0  0
 19 21  2  0  0  0  0
 19 39  1  0  0  0  0
 20 47  1  0  0  0  0
 21 40  1  0  0  0  0
 22 30  1  0  0  0  0
 22 50  1  0  0  0  0
 23 31  2  0  0  0  0
 23 58  1  0  0  0  0
 24 82  1  0  0  0  0
 25 83  1  0  0  0  0
 26 28  2  0  0  0  0
 26 82  1  0  0  0  0
 27 84  1  0  0  0  0
 28 85  1  0  0  0  0
 29 66  2  0  0  0  0
 30 51  1  0  0  0  0
 30 67  2  0  0  0  0
 31 59  1  0  0  0  0
 31 67  1  0  0  0  0
 32 68  1  0  0  0  0
 32 71  1  0  0  0  0
 33 72  1  0  0  0  0
 33 77  2  0  0  0  0
 34 48  1  0  0  0  0
 34 73  1  0  0  0  0
 34 78  2  0  0  0  0
 35 62  1  0  0  0  0
 35 69  1  0  0  0  0
 35 79  2  0  0  0  0
 36 63  1  0  0  0  0
 36 74  1  0  0  0  0
 36 80  2  0  0  0  0
 37 70  1  0  0  0  0
 37 75  1  0  0  0  0
 37 81  2  0  0  0  0
 38 41  1  0  0  0  0
 39 48  1  0  0  0  0
 40 69  1  0  0  0  0
 41 43  1  0  0  0  0
 42 44  1  0  0  0  0
 42 45  1  0  0  0  0
 43 47  1  0  0  0  0
 44 49  1  0  0  0  0
 45 70  1  0  0  0  0
 46 49  1  0  0  0  0
 46 70  1  0  0  0  0
 47 73  1  0  0  0  0
 48 69  1  0  0  0  0
 49 68  1  0  0  0  0
 52 63  1  0  0  0  0
 53 64  1  0  0  0  0
 54 65  1  0  0  0  0
 55 65  1  0  0  0  0
 56 65  1  0  0  0  0
 57 76  1  0  0  0  0
 58 60  1  0  0  0  0
 59 64  1  0  0  0  0
 60 61  1  0  0  0  0
 61 83  1  0  0  0  0
 62 65  1  0  0  0  0
 62 74  1  0  0  0  0
 63 76  1  0  0  0  0
 64 75  1  0  0  0  0
 66 68  1  0  0  0  0
M  CHG  1  76   1
M  ISO  4  37 100  61 101  75 100  83 101
M  END
> <Batch ID>
0076

> <Smiles>
CNC(C)C(=O)NC(C(=O)N1Cc2cc([101O:1][101CH2:1]CCc3cc(C)c(C)nc3CC(C)[100NH:0][100C:0](=O)N3CCCC(n4nc(-c5ccc(Oc6ccc(F)cc6F)cc5)c(C(N)=O)c4N)C3)ccc2CC1C(=O)NC1CCCc2ccccc21)C(C)(C)C

> <Shape>
0.241

> <Color>
0.090

> <Negative vol penalty>
0.000

$$$$

  -OEChem-04052318343D

 84 92  0     1  0  0  0  0  0999 V2000
  -23.2302  -17.6217   23.6405 C   0  0  0  0  0  0  0  0  0  0  0  0
  -24.1514  -17.6509   24.6814 C   0  0  0  0  0  0  0  0  0  0  0  0
  -23.0723   -9.8701   19.9432 C   0  0  0  0  0  0  0  0  0  0  0  0
  -23.8351   -9.8783   22.2357 C   0  0  0  0  0  0  0  0  0  0  0  0
  -23.1365  -18.7032   22.7671 C   0  0  0  0  0  0  0  0  0  0  0  0
  -24.9709  -18.7665   24.8564 C   0  0  0  0  0  0  0  0  0  0  0  0
  -27.7724  -18.8696   28.8992 C   0  0  0  0  0  0  0  0  0  0  0  0
  -22.3289   -8.7170   20.1947 C   0  0  0  0  0  0  0  0  0  0  0  0
  -23.0916   -8.7251   22.4871 C   0  0  0  0  0  0  0  0  0  0  0  0
  -28.8878  -18.0497   29.0644 C   0  0  0  0  0  0  0  0  0  0  0  0
  -19.3826   -7.9208   21.6500 C   0  0  0  0  0  0  0  0  0  0  0  0
  -18.0751   -7.8742   21.1664 C   0  0  0  0  0  0  0  0  0  0  0  0
  -28.7285  -16.2314   25.8672 C   0  0  0  0  0  0  0  0  0  0  0  0
  -30.3289  -19.9239   28.5850 C   0  0  0  0  0  0  0  0  0  0  0  0
  -18.6334   -5.9305   19.8444 C   0  0  0  0  0  0  0  0  0  0  0  0
  -28.5176  -16.8529   24.6562 C   0  0  0  0  0  0  0  0  0  0  0  0
  -30.7320  -16.7000   24.9525 C   0  0  0  0  0  0  0  0  0  0  0  0
  -23.8255  -10.4508   20.9637 C   0  0  0  0  0  0  0  0  0  0  0  0
  -24.1668  -12.9759   20.8421 C   0  0  0  0  0  0  0  0  0  0  0  0
  -23.9643  -19.8269   22.9247 C   0  0  0  0  0  0  0  0  0  0  0  0
  -27.9268  -20.2226   28.5644 C   0  0  0  0  0  0  0  0  0  0  0  0
  -24.8749  -19.8781   23.9998 C   0  0  0  0  0  0  0  0  0  0  0  0
  -29.2139  -20.7595   28.4186 C   0  0  0  0  0  0  0  0  0  0  0  0
  -30.1294  -16.1345   26.0546 C   0  0  0  0  0  0  0  0  0  0  0  0
  -22.3385   -8.1445   21.4666 C   0  0  0  0  0  0  0  0  0  0  0  0
  -30.1663  -18.5761   28.9044 C   0  0  0  0  0  0  0  0  0  0  0  0
  -20.3155   -6.9723   21.2307 C   0  0  0  0  0  0  0  0  0  0  0  0
  -17.7005   -6.8790   20.2636 C   0  0  0  0  0  0  0  0  0  0  0  0
  -19.9409   -5.9772   20.3280 C   0  0  0  0  0  0  0  0  0  0  0  0
  -24.5941  -11.6416   20.7045 C   0  0  0  0  0  0  0  0  0  0  0  0
  -25.2585  -13.7253   20.4771 C   0  0  0  0  0  0  0  0  0  0  0  0
  -22.8968  -13.4917   21.2624 C   0  0  0  0  0  0  0  0  0  0  0  0
  -27.0626  -22.0366   26.1015 C   0  0  0  0  0  0  0  0  0  0  0  0
  -28.2379  -24.4280   27.9515 C   0  0  0  0  0  0  0  0  0  0  0  0
  -30.3248  -25.3763   30.4798 C   0  0  0  0  0  0  0  0  0  0  0  0
  -30.7423  -14.7451   20.6581 C   0  0  0  0  0  0  0  0  0  0  0  0
  -23.8155  -20.9729   21.9553 C   0  0  0  0  0  0  0  0  0  0  0  0
  -26.7141  -21.1000   28.4161 C   0  0  0  0  0  0  0  0  0  0  0  0
  -29.4342  -22.2103   28.0794 C   0  0  0  0  0  0  0  0  0  0  0  0
  -25.0201  -21.9084   21.9512 C   0  0  0  0  0  0  0  0  0  0  0  0
  -29.6020  -12.3594   18.2739 C   0  0  0  0  0  0  0  0  0  0  0  0
  -25.3798  -22.2988   23.3770 C   0  0  0  0  0  0  0  0  0  0  0  0
  -28.1651  -12.0657   18.7088 C   0  0  0  0  0  0  0  0  0  0  0  0
  -30.5206  -12.5808   19.4735 C   0  0  0  0  0  0  0  0  0  0  0  0
  -28.6205  -13.3123   20.8622 C   0  0  0  0  0  0  0  0  0  0  0  0
  -25.7979  -21.0679   24.1913 C   0  0  1  0  0  0  0  0  0  0  0  0
  -26.9754  -22.3423   27.5700 C   0  0  1  0  0  0  0  0  0  0  0  0
  -27.6449  -13.1371   19.6858 C   0  0  2  0  0  0  0  0  0  0  0  0
  -31.0971  -27.4038   31.7408 C   0  0  0  0  0  0  0  0  0  0  0  0
  -33.5044  -18.1687   28.3192 C   0  0  0  0  0  0  0  0  0  0  0  0
  -29.9850  -25.2327   25.5829 C   0  0  0  0  0  0  0  0  0  0  0  0
  -31.3725  -26.5962   27.1589 C   0  0  0  0  0  0  0  0  0  0  0  0
  -28.9630  -27.1484   26.8239 C   0  0  0  0  0  0  0  0  0  0  0  0
  -28.6502  -18.1677   22.1012 C   0  0  0  0  0  0  0  0  0  0  0  0
  -30.7257  -19.1084   23.0827 C   0  0  0  0  0  0  0  0  0  0  0  0
  -29.3037  -24.3124   33.0458 C   0  0  0  0  0  0  0  0  0  0  0  0
  -30.8327  -15.5242   27.2406 C   0  0  0  0  0  0  0  0  0  0  0  0
  -32.1989  -16.1568   27.5433 C   0  0  0  0  0  0  0  0  0  0  0  0
  -30.8095  -16.8962   21.8939 C   0  0  0  0  0  0  0  0  0  0  0  0
  -29.5897  -25.0761   28.1295 C   0  0  1  0  0  0  0  0  0  0  0  0
  -30.0991  -26.2572   31.6953 C   0  0  2  0  0  0  0  0  0  0  0  0
  -32.1277  -17.6357   27.9430 C   0  0  1  0  0  0  0  0  0  1  0  0
  -29.9737  -25.9855   26.9283 C   0  0  0  0  0  0  0  0  0  0  0  0
  -29.9575  -17.7872   22.8386 C   0  0  0  0  0  0  0  0  0  0  0  0
  -25.8584  -11.5457   20.2847 N   0  0  0  0  0  0  0  0  0  0  0  0
  -29.7425  -17.1335   24.1092 N   0  0  0  0  0  0  0  0  0  0  0  0
  -26.2350  -12.8293   20.1553 N   0  0  0  0  0  0  0  0  0  0  0  0
  -28.2168  -23.0261   27.9383 N   0  0  0  0  0  0  0  0  0  0  0  0
  -29.9710  -13.6097   20.3597 N   0  0  0  0  0  0  0  0  0  0  0  0
  -25.4686  -15.0568   20.4032 N   0  0  0  0  0  0  0  0  0  0  0  0
  -21.8854  -12.5826   21.6014 N   0  0  0  0  0  0  0  0  0  0  0  0
  -25.9278  -21.4437   25.5819 N   0  0  0  0  0  0  0  0  0  0  0  0
  -29.5445  -25.7686   29.4128 N   0  0  0  0  0  0  0  0  0  0  0  0
  -30.1441  -15.6742   21.5005 N   0  0  0  0  0  0  0  0  0  0  0  0
  -30.2418  -25.4601   32.9464 N   0  3  0  0  0  0  0  0  0  0  0  0
  -22.6605  -14.7224   21.3195 O   0  0  0  0  0  0  0  0  0  0  0  0
  -28.0834  -22.3192   25.4851 O   0  0  0  0  0  0  0  0  0  0  0  0
  -27.2368  -25.1392   27.8358 O   0  0  0  0  0  0  0  0  0  0  0  0
  -31.1171  -24.4367   30.4760 O   0  0  0  0  0  0  0  0  0  0  0  0
  -31.8777  -14.9205   20.2030 O   0  0  0  0  0  0  0  0  0  0  0  0
  -21.6130   -7.0195   21.7124 O   0  0  0  0  0  0  0  0  0  0  0  0
  -31.2567  -17.7779   29.0644 O   0  0  0  0  0  0  0  0  0  1  0  0
  -16.4444   -6.8335   19.8005 F   0  0  0  0  0  0  0  0  0  0  0  0
  -20.8324   -5.0626   19.9224 F   0  0  0  0  0  0  0  0  0  0  0  0
  1  2  1  0  0  0  0
  1  5  2  0  0  0  0
  2  6  2  0  0  0  0
  3  8  2  0  0  0  0
  3 18  1  0  0  0  0
  4  9  1  0  0  0  0
  4 18  2  0  0  0  0
  5 20  1  0  0  0  0
  6 22  1  0  0  0  0
  7 10  2  0  0  0  0
  7 21  1  0  0  0  0
  8 25  1  0  0  0  0
  9 25  2  0  0  0  0
 10 26  1  0  0  0  0
 11 12  2  0  0  0  0
 11 27  1  0  0  0  0
 12 28  1  0  0  0  0
 13 16  2  0  0  0  0
 13 24  1  0  0  0  0
 14 23  1  0  0  0  0
 14 26  2  0  0  0  0
 15 28  2  0  0  0  0
 15 29  1  0  0  0  0
 16 66  1  0  0  0  0
 17 24  2  0  0  0  0
 17 66  1  0  0  0  0
 18 30  1  0  0  0  0
 19 30  1  0  0  0  0
 19 31  2  0  0  0  0
 19 32  1  0  0  0  0
 20 22  2  0  0  0  0
 20 37  1  0  0  0  0
 21 23  2  0  0  0  0
 21 38  1  0  0  0  0
 22 46  1  0  0  0  0
 23 39  1  0  0  0  0
 24 57  1  0  0  0  0
 25 81  1  0  0  0  0
 26 82  1  0  0  0  0
 27 29  2  0  0  0  0
 27 81  1  0  0  0  0
 28 83  1  0  0  0  0
 29 84  1  0  0  0  0
 30 65  2  0  0  0  0
 31 67  1  0  0  0  0
 31 70  1  0  0  0  0
 32 71  1  0  0  0  0
 32 76  2  0  0  0  0
 33 47  1  0  0  0  0
 33 72  1  0  0  0  0
 33 77  2  0  0  0  0
 34 60  1  0  0  0  0
 34 68  1  0  0  0  0
 34 78  2  0  0  0  0
 35 61  1  0  0  0  0
 35 73  1  0  0  0  0
 35 79  2  0  0  0  0
 36 69  1  0  0  0  0
 36 74  1  0  0  0  0
 36 80  2  0  0  0  0
 37 40  1  0  0  0  0
 38 47  1  0  0  0  0
 39 68  1  0  0  0  0
 40 42  1  0  0  0  0
 41 43  1  0  0  0  0
 41 44  1  0  0  0  0
 42 46  1  0  0  0  0
 43 48  1  0  0  0  0
 44 69  1  0  0  0  0
 45 48  1  0  0  0  0
 45 69  1  0  0  0  0
 46 72  1  0  0  0  0
 47 68  1  0  0  0  0
 48 67  1  0  0  0  0
 49 61  1  0  0  0  0
 50 62  1  0  0  0  0
 51 63  1  0  0  0  0
 52 63  1  0  0  0  0
 53 63  1  0  0  0  0
 54 64  1  0  0  0  0
 55 64  1  0  0  0  0
 56 75  1  0  0  0  0
 57 58  1  0  0  0  0
 58 62  1  0  0  0  0
 59 64  1  0  0  0  0
 59 74  1  0  0  0  0
 60 63  1  0  0  0  0
 60 73  1  0  0  0  0
 61 75  1  0  0  0  0
 62 82  1  0  0  0  0
 64 66  1  0  0  0  0
 65 67  1  0  0  0  0
M  CHG  1  75   1
M  ISO  4  36 100  62 101  74 100  82 101
M  END
> <Batch ID>
0076

> <Smiles>
CNC(C)C(=O)NC(C(=O)N1Cc2cc([101O:1][101CH:1](C)CCc3ccn(C(C)(C)C[100NH:0][100C:0](=O)N4CCCC(n5nc(-c6ccc(Oc7ccc(F)cc7F)cc6)c(C(N)=O)c5N)C4)c3)ccc2CC1C(=O)NC1CCCc2ccccc21)C(C)(C)C

> <Shape>
0.149

> <Color>
0.196

> <Negative vol penalty>
0.000

$$$$

  -OEChem-04052318343D

 85 93  0     1  0  0  0  0  0999 V2000
  -16.9715  -30.3690   22.9664 C   0  0  0  0  0  0  0  0  0  0  0  0
  -17.5036  -29.5637   21.9645 C   0  0  0  0  0  0  0  0  0  0  0  0
  -24.6934   -9.7294   21.7283 C   0  0  0  0  0  0  0  0  0  0  0  0
  -24.7659  -10.9926   23.7865 C   0  0  0  0  0  0  0  0  0  0  0  0
  -17.7992  -31.2429   23.6699 C   0  0  0  0  0  0  0  0  0  0  0  0
  -18.8637  -29.6327   21.6648 C   0  0  0  0  0  0  0  0  0  0  0  0
  -24.3065  -25.5373   19.4468 C   0  0  0  0  0  0  0  0  0  0  0  0
  -24.4270   -8.5667   22.4513 C   0  0  0  0  0  0  0  0  0  0  0  0
  -24.4995   -9.8299   24.5095 C   0  0  0  0  0  0  0  0  0  0  0  0
  -25.3020  -25.5047   18.4713 C   0  0  0  0  0  0  0  0  0  0  0  0
  -21.7649   -7.1242   23.9564 C   0  0  0  0  0  0  0  0  0  0  0  0
  -20.7566   -6.2840   23.4843 C   0  0  0  0  0  0  0  0  0  0  0  0
  -26.6506  -26.9942   19.8062 C   0  0  0  0  0  0  0  0  0  0  0  0
  -28.6555  -23.1833   19.4141 C   0  0  0  0  0  0  0  0  0  0  0  0
  -22.3586   -4.4900   23.2555 C   0  0  0  0  0  0  0  0  0  0  0  0
  -30.7942  -22.7985   18.8244 C   0  0  0  0  0  0  0  0  0  0  0  0
  -24.8629  -10.9424   22.3959 C   0  0  0  0  0  0  0  0  0  0  0  0
  -24.2005  -13.0528   21.1251 C   0  0  0  0  0  0  0  0  0  0  0  0
  -19.1719  -31.3157   23.3853 C   0  0  0  0  0  0  0  0  0  0  0  0
  -24.4712  -26.3085   20.6063 C   0  0  0  0  0  0  0  0  0  0  0  0
  -19.7103  -30.5094   22.3643 C   0  0  0  0  0  0  0  0  0  0  0  0
  -25.6568  -27.0328   20.7961 C   0  0  0  0  0  0  0  0  0  0  0  0
  -29.6251  -23.3923   18.4025 C   0  0  0  0  0  0  0  0  0  0  0  0
  -24.3300   -8.6169   23.8419 C   0  0  0  0  0  0  0  0  0  0  0  0
  -26.4730  -26.2355   18.6495 C   0  0  0  0  0  0  0  0  0  0  0  0
  -23.0701   -6.6474   24.0781 C   0  0  0  0  0  0  0  0  0  0  0  0
  -21.0534   -4.9669   23.1339 C   0  0  0  0  0  0  0  0  0  0  0  0
  -23.3670   -5.3303   23.7277 C   0  0  0  0  0  0  0  0  0  0  0  0
  -25.1386  -12.1437   21.6497 C   0  0  0  0  0  0  0  0  0  0  0  0
  -29.2617  -22.4682   20.4234 C   0  0  0  0  0  0  0  0  0  0  0  0
  -24.9624  -14.0150   20.5086 C   0  0  0  0  0  0  0  0  0  0  0  0
  -22.7683  -13.0295   21.1893 C   0  0  0  0  0  0  0  0  0  0  0  0
  -22.9414  -28.7803   21.8924 C   0  0  0  0  0  0  0  0  0  0  0  0
  -24.9913  -28.2689   24.3539 C   0  0  0  0  0  0  0  0  0  0  0  0
  -27.9756  -27.0061   25.4243 C   0  0  0  0  0  0  0  0  0  0  0  0
  -29.3473  -17.4670   20.4734 C   0  0  0  0  0  0  0  0  0  0  0  0
  -20.0181  -32.3099   24.1404 C   0  0  0  0  0  0  0  0  0  0  0  0
  -23.3993  -26.3119   21.6615 C   0  0  0  0  0  0  0  0  0  0  0  0
  -25.8911  -27.8604   22.0325 C   0  0  0  0  0  0  0  0  0  0  0  0
  -21.5175  -32.0516   24.0167 C   0  0  0  0  0  0  0  0  0  0  0  0
  -29.9027  -14.1095   19.4269 C   0  0  0  0  0  0  0  0  0  0  0  0
  -21.8955  -31.7867   22.5628 C   0  0  0  0  0  0  0  0  0  0  0  0
  -28.6387  -13.3731   19.8741 C   0  0  0  0  0  0  0  0  0  0  0  0
  -30.3130  -15.1863   20.4290 C   0  0  0  0  0  0  0  0  0  0  0  0
  -27.9885  -15.4175   21.2145 C   0  0  0  0  0  0  0  0  0  0  0  0
  -21.1853  -30.5377   22.0269 C   0  0  1  0  0  0  0  0  0  0  0  0
  -23.4550  -27.5392   22.5659 C   0  0  1  0  0  0  0  0  0  0  0  0
  -27.5037  -14.3597   20.2083 C   0  0  2  0  0  0  0  0  0  0  0  0
  -29.7730  -26.3306   27.0401 C   0  0  0  0  0  0  0  0  0  0  0  0
  -29.4176  -22.5225   23.0049 C   0  0  0  0  0  0  0  0  0  0  0  0
  -27.2164  -22.4405   21.8683 C   0  0  0  0  0  0  0  0  0  0  0  0
  -25.7817  -31.2083   24.1420 C   0  0  0  0  0  0  0  0  0  0  0  0
  -27.8075  -30.6908   25.5192 C   0  0  0  0  0  0  0  0  0  0  0  0
  -25.5298  -30.3618   26.4818 C   0  0  0  0  0  0  0  0  0  0  0  0
  -31.5495  -21.5226   20.8297 C   0  0  0  0  0  0  0  0  0  0  0  0
  -26.7648  -24.3370   25.8348 C   0  0  0  0  0  0  0  0  0  0  0  0
  -29.4170  -24.1284   17.1031 C   0  0  0  0  0  0  0  0  0  0  0  0
  -29.7177  -25.6263   17.1888 C   0  0  0  0  0  0  0  0  0  0  0  0
  -28.6978  -20.4057   21.8292 C   0  0  0  0  0  0  0  0  0  0  0  0
  -28.2372  -19.6850   20.5611 C   0  0  0  0  0  0  0  0  0  0  0  0
  -28.7921  -26.3744   18.1412 C   0  0  0  0  0  0  0  0  0  1  0  0
  -26.3719  -28.7611   24.7153 C   0  0  1  0  0  0  0  0  0  0  0  0
  -28.3297  -26.1238   26.6077 C   0  0  2  0  0  0  0  0  0  0  0  0
  -28.7100  -21.9848   21.7060 C   0  0  0  0  0  0  0  0  0  0  0  0
  -26.3678  -30.2415   25.1903 C   0  0  0  0  0  0  0  0  0  0  0  0
  -26.4002  -12.4968   21.3891 N   0  0  0  0  0  0  0  0  0  0  0  0
  -30.5616  -22.2402   20.0542 N   0  0  0  0  0  0  0  0  0  0  0  0
  -26.2600  -13.6383   20.6940 N   0  0  0  0  0  0  0  0  0  0  0  0
  -24.8108  -27.8365   23.0324 N   0  0  0  0  0  0  0  0  0  0  0  0
  -29.1925  -16.0897   20.7015 N   0  0  0  0  0  0  0  0  0  0  0  0
  -24.6422  -15.1381   19.8315 N   0  0  0  0  0  0  0  0  0  0  0  0
  -22.1468  -11.9683   21.8616 N   0  0  0  0  0  0  0  0  0  0  0  0
  -21.8382  -29.3393   22.5086 N   0  0  0  0  0  0  0  0  0  0  0  0
  -26.8965  -27.8195   25.6985 N   0  0  0  0  0  0  0  0  0  0  0  0
  -28.2347  -18.2516   20.7513 N   0  0  0  0  0  0  0  0  0  0  0  0
  -28.1457  -24.6873   26.2562 N   0  3  0  0  0  0  0  0  0  0  0  0
  -22.0602  -13.9145   20.6519 O   0  0  0  0  0  0  0  0  0  0  0  0
  -23.5054  -29.2005   20.8888 O   0  0  0  0  0  0  0  0  0  0  0  0
  -24.1074  -28.2615   25.2144 O   0  0  0  0  0  0  0  0  0  0  0  0
  -28.5967  -26.9794   24.3641 O   0  0  0  0  0  0  0  0  0  0  0  0
  -30.3974  -17.9603   20.0481 O   0  0  0  0  0  0  0  0  0  0  0  0
  -24.0699   -7.4826   24.5477 O   0  0  0  0  0  0  0  0  0  0  0  0
  -27.4460  -26.2060   17.6986 O   0  0  0  0  0  0  0  0  0  1  0  0
  -20.0848   -4.1596   22.6819 F   0  0  0  0  0  0  0  0  0  0  0  0
  -24.6188   -4.8662   23.8435 F   0  0  0  0  0  0  0  0  0  0  0  0
  1  2  1  0  0  0  0
  1  5  2  0  0  0  0
  2  6  2  0  0  0  0
  3  8  2  0  0  0  0
  3 17  1  0  0  0  0
  4  9  1  0  0  0  0
  4 17  2  0  0  0  0
  5 19  1  0  0  0  0
  6 21  1  0  0  0  0
  7 10  2  0  0  0  0
  7 20  1  0  0  0  0
  8 24  1  0  0  0  0
  9 24  2  0  0  0  0
 10 25  1  0  0  0  0
 11 12  2  0  0  0  0
 11 26  1  0  0  0  0
 12 27  1  0  0  0  0
 13 22  1  0  0  0  0
 13 25  2  0  0  0  0
 14 23  1  0  0  0  0
 14 30  2  0  0  0  0
 15 27  2  0  0  0  0
 15 28  1  0  0  0  0
 16 23  2  0  0  0  0
 16 67  1  0  0  0  0
 17 29  1  0  0  0  0
 18 29  1  0  0  0  0
 18 31  2  0  0  0  0
 18 32  1  0  0  0  0
 19 21  2  0  0  0  0
 19 37  1  0  0  0  0
 20 22  2  0  0  0  0
 20 38  1  0  0  0  0
 21 46  1  0  0  0  0
 22 39  1  0  0  0  0
 23 57  1  0  0  0  0
 24 82  1  0  0  0  0
 25 83  1  0  0  0  0
 26 28  2  0  0  0  0
 26 82  1  0  0  0  0
 27 84  1  0  0  0  0
 28 85  1  0  0  0  0
 29 66  2  0  0  0  0
 30 64  1  0  0  0  0
 30 67  1  0  0  0  0
 31 68  1  0  0  0  0
 31 71  1  0  0  0  0
 32 72  1  0  0  0  0
 32 77  2  0  0  0  0
 33 47  1  0  0  0  0
 33 73  1  0  0  0  0
 33 78  2  0  0  0  0
 34 62  1  0  0  0  0
 34 69  1  0  0  0  0
 34 79  2  0  0  0  0
 35 63  1  0  0  0  0
 35 74  1  0  0  0  0
 35 80  2  0  0  0  0
 36 70  1  0  0  0  0
 36 75  1  0  0  0  0
 36 81  2  0  0  0  0
 37 40  1  0  0  0  0
 38 47  1  0  0  0  0
 39 69  1  0  0  0  0
 40 42  1  0  0  0  0
 41 43  1  0  0  0  0
 41 44  1  0  0  0  0
 42 46  1  0  0  0  0
 43 48  1  0  0  0  0
 44 70  1  0  0  0  0
 45 48  1  0  0  0  0
 45 70  1  0  0  0  0
 46 73  1  0  0  0  0
 47 69  1  0  0  0  0
 48 68  1  0  0  0  0
 49 63  1  0  0  0  0
 50 64  1  0  0  0  0
 51 64  1  0  0  0  0
 52 65  1  0  0  0  0
 53 65  1  0  0  0  0
 54 65  1  0  0  0  0
 55 67  1  0  0  0  0
 56 76  1  0  0  0  0
 57 58  1  0  0  0  0
 58 61  1  0  0  0  0
 59 60  1  0  0  0  0
 59 64  1  0  0  0  0
 60 75  1  0  0  0  0
 61 83  1  0  0  0  0
 62 65  1  0  0  0  0
 62 74  1  0  0  0  0
 63 76  1  0  0  0  0
 66 68  1  0  0  0  0
M  CHG  1  76   1
M  ISO  4  36 100  61 101  75 100  83 101
M  END
> <Batch ID>
0076

> <Smiles>
CNC(C)C(=O)NC(C(=O)N1Cc2cc([101O:1][101CH2:1]CCc3cc(C(C)(C)CC[100NH:0][100C:0](=O)N4CCCC(n5nc(-c6ccc(Oc7ccc(F)cc7F)cc6)c(C(N)=O)c5N)C4)n(C)c3)ccc2CC1C(=O)NC1CCCc2ccccc21)C(C)(C)C

> <Shape>
0.299

> <Color>
0.117

> <Negative vol penalty>
0.000

$$$$

  -OEChem-04052318343D

 85 93  0     1  0  0  0  0  0999 V2000
  -21.5310  -18.4605   21.5905 C   0  0  0  0  0  0  0  0  0  0  0  0
  -22.8112  -19.0044   21.5653 C   0  0  0  0  0  0  0  0  0  0  0  0
  -23.2328   -9.8251   19.9124 C   0  0  0  0  0  0  0  0  0  0  0  0
  -23.7889   -9.9268   22.2613 C   0  0  0  0  0  0  0  0  0  0  0  0
  -21.0353  -17.9016   22.7677 C   0  0  0  0  0  0  0  0  0  0  0  0
  -23.5960  -18.9908   22.7178 C   0  0  0  0  0  0  0  0  0  0  0  0
  -28.3678  -17.5637   21.8018 C   0  0  0  0  0  0  0  0  0  0  0  0
  -22.5086   -8.6538   20.1345 C   0  0  0  0  0  0  0  0  0  0  0  0
  -23.0648   -8.7555   22.4834 C   0  0  0  0  0  0  0  0  0  0  0  0
  -29.2201  -18.5140   21.2413 C   0  0  0  0  0  0  0  0  0  0  0  0
  -19.8246   -7.8604   22.8310 C   0  0  0  0  0  0  0  0  0  0  0  0
  -18.9701   -7.8278   23.9329 C   0  0  0  0  0  0  0  0  0  0  0  0
  -30.1593  -18.9482   23.4205 C   0  0  0  0  0  0  0  0  0  0  0  0
  -20.2062   -5.9586   24.8361 C   0  0  0  0  0  0  0  0  0  0  0  0
  -35.2278  -21.8467   22.8254 C   0  0  0  0  0  0  0  0  0  0  0  0
  -23.8730  -10.4616   20.9757 C   0  0  0  0  0  0  0  0  0  0  0  0
  -24.1399  -12.9927   20.8038 C   0  0  0  0  0  0  0  0  0  0  0  0
  -21.8181  -17.8724   23.9326 C   0  0  0  0  0  0  0  0  0  0  0  0
  -28.3972  -17.3059   23.1799 C   0  0  0  0  0  0  0  0  0  0  0  0
  -23.1098  -18.4322   23.9121 C   0  0  0  0  0  0  0  0  0  0  0  0
  -29.3081  -17.9923   23.9956 C   0  0  0  0  0  0  0  0  0  0  0  0
  -34.4223  -20.9759   22.1203 C   0  0  0  0  0  0  0  0  0  0  0  0
  -22.4246   -8.1190   21.4200 C   0  0  0  0  0  0  0  0  0  0  0  0
  -30.1140  -19.2085   22.0511 C   0  0  0  0  0  0  0  0  0  0  0  0
  -20.8699   -6.9421   22.7315 C   0  0  0  0  0  0  0  0  0  0  0  0
  -19.1609   -6.8769   24.9355 C   0  0  0  0  0  0  0  0  0  0  0  0
  -21.0607   -5.9913   23.7341 C   0  0  0  0  0  0  0  0  0  0  0  0
  -24.6216  -11.6712   20.7468 C   0  0  0  0  0  0  0  0  0  0  0  0
  -34.5131  -19.6487   22.4871 C   0  0  0  0  0  0  0  0  0  0  0  0
  -25.2341  -13.7699   20.5119 C   0  0  0  0  0  0  0  0  0  0  0  0
  -36.0593  -20.1422   24.0786 C   0  0  0  0  0  0  0  0  0  0  0  0
  -22.8213  -13.4747   21.0947 C   0  0  0  0  0  0  0  0  0  0  0  0
  -26.3056  -17.5770   25.5579 C   0  0  0  0  0  0  0  0  0  0  0  0
  -28.6481  -16.1211   27.2654 C   0  0  0  0  0  0  0  0  0  0  0  0
  -31.9694  -15.4182   27.6135 C   0  0  0  0  0  0  0  0  0  0  0  0
  -30.8378  -13.9290   21.5047 C   0  0  0  0  0  0  0  0  0  0  0  0
  -21.2214  -17.3001   25.1940 C   0  0  0  0  0  0  0  0  0  0  0  0
  -27.4899  -16.2585   23.7649 C   0  0  0  0  0  0  0  0  0  0  0  0
  -29.3933  -17.7379   25.4777 C   0  0  0  0  0  0  0  0  0  0  0  0
  -22.2575  -16.9886   26.2710 C   0  0  0  0  0  0  0  0  0  0  0  0
  -29.5621  -12.9874   18.2515 C   0  0  0  0  0  0  0  0  0  0  0  0
  -23.2264  -18.1555   26.4331 C   0  0  0  0  0  0  0  0  0  0  0  0
  -28.0992  -12.6796   18.5759 C   0  0  0  0  0  0  0  0  0  0  0  0
  -30.4855  -12.5337   19.3783 C   0  0  0  0  0  0  0  0  0  0  0  0
  -28.6858  -12.7898   21.0424 C   0  0  0  0  0  0  0  0  0  0  0  0
  -24.0009  -18.4140   25.1351 C   0  0  1  0  0  0  0  0  0  0  0  0
  -27.2477  -16.4452   25.2595 C   0  0  1  0  0  0  0  0  0  0  0  0
  -27.6993  -13.2449   19.9516 C   0  0  2  0  0  0  0  0  0  0  0  0
  -36.9664  -19.6797   25.1679 C   0  0  0  0  0  0  0  0  0  0  0  0
  -34.0403  -14.3721   28.5697 C   0  0  0  0  0  0  0  0  0  0  0  0
  -28.4500  -18.4206   29.2611 C   0  0  0  0  0  0  0  0  0  0  0  0
  -30.6631  -17.7110   30.1922 C   0  0  0  0  0  0  0  0  0  0  0  0
  -28.7125  -16.1597   30.2973 C   0  0  0  0  0  0  0  0  0  0  0  0
  -31.7057  -13.0340   25.8799 C   0  0  0  0  0  0  0  0  0  0  0  0
  -33.5084  -21.4639   21.0247 C   0  0  0  0  0  0  0  0  0  0  0  0
  -32.2440  -22.1550   21.5396 C   0  0  0  0  0  0  0  0  0  0  0  0
  -32.9545  -16.4832   21.4579 C   0  0  0  0  0  0  0  0  0  0  0  0
  -33.0471  -15.0101   21.8320 C   0  0  0  0  0  0  0  0  0  0  0  0
  -31.3332  -21.2301   22.3386 C   0  0  0  0  0  0  0  0  0  1  0  0
  -33.8965  -17.3620   22.2720 C   0  0  0  0  0  0  0  0  0  0  0  0
  -29.8332  -16.5928   28.0728 C   0  0  1  0  0  0  0  0  0  0  0  0
  -32.6994  -14.1181   27.8989 C   0  0  2  0  0  0  0  0  0  0  0  0
  -29.4120  -17.2275   29.4283 C   0  0  0  0  0  0  0  0  0  0  0  0
  -36.0613  -21.4627   23.8144 N   0  0  0  0  0  0  0  0  0  0  0  0
  -25.9207  -11.6086   20.4424 N   0  0  0  0  0  0  0  0  0  0  0  0
  -35.3242  -19.1951   23.4653 N   0  0  0  0  0  0  0  0  0  0  0  0
  -26.2645  -12.9005   20.3055 N   0  0  0  0  0  0  0  0  0  0  0  0
  -28.4811  -16.7089   26.0034 N   0  0  0  0  0  0  0  0  0  0  0  0
  -30.0615  -13.1217   20.6568 N   0  0  0  0  0  0  0  0  0  0  0  0
  -25.4057  -15.1054   20.4142 N   0  0  0  0  0  0  0  0  0  0  0  0
  -21.8145  -12.5401   21.3728 N   0  0  0  0  0  0  0  0  0  0  0  0
  -25.0597  -17.4404   24.9760 N   0  0  0  0  0  0  0  0  0  0  0  0
  -30.7227  -15.4437   28.2018 N   0  0  0  0  0  0  0  0  0  0  0  0
  -32.1314  -14.1903   21.0701 N   0  0  0  0  0  0  0  0  0  0  0  0
  -32.9416  -13.3712   26.6322 N   0  3  0  0  0  0  0  0  0  0  0  0
  -22.5402  -14.6972   21.0915 O   0  0  0  0  0  0  0  0  0  0  0  0
  -26.6807  -18.5049   26.2651 O   0  0  0  0  0  0  0  0  0  0  0  0
  -27.9022  -15.2576   27.7340 O   0  0  0  0  0  0  0  0  0  0  0  0
  -32.4580  -16.3223   26.9394 O   0  0  0  0  0  0  0  0  0  0  0  0
  -30.4079  -14.3878   22.5686 O   0  0  0  0  0  0  0  0  0  0  0  0
  -21.7179   -6.9763   21.6372 O   0  0  0  0  0  0  0  0  0  0  0  0
  -30.9466  -20.1371   21.5066 O   0  0  0  0  0  0  0  0  0  1  0  0
  -33.7516  -18.7102   21.8416 O   0  0  0  0  0  0  0  0  0  0  0  0
  -18.3412   -6.8467   25.9944 F   0  0  0  0  0  0  0  0  0  0  0  0
  -22.0638   -5.1072   23.6446 F   0  0  0  0  0  0  0  0  0  0  0  0
  1  2  1  0  0  0  0
  1  5  2  0  0  0  0
  2  6  2  0  0  0  0
  3  8  2  0  0  0  0
  3 16  1  0  0  0  0
  4  9  1  0  0  0  0
  4 16  2  0  0  0  0
  5 18  1  0  0  0  0
  6 20  1  0  0  0  0
  7 10  2  0  0  0  0
  7 19  1  0  0  0  0
  8 23  1  0  0  0  0
  9 23  2  0  0  0  0
 10 24  1  0  0  0  0
 11 12  2  0  0  0  0
 11 25  1  0  0  0  0
 12 26  1  0  0  0  0
 13 21  1  0  0  0  0
 13 24  2  0  0  0  0
 14 26  2  0  0  0  0
 14 27  1  0  0  0  0
 15 22  1  0  0  0  0
 15 64  2  0  0  0  0
 16 28  1  0  0  0  0
 17 28  1  0  0  0  0
 17 30  2  0  0  0  0
 17 32  1  0  0  0  0
 18 20  2  0  0  0  0
 18 37  1  0  0  0  0
 19 21  2  0  0  0  0
 19 38  1  0  0  0  0
 20 46  1  0  0  0  0
 21 39  1  0  0  0  0
 22 29  2  0  0  0  0
 22 55  1  0  0  0  0
 23 81  1  0  0  0  0
 24 82  1  0  0  0  0
 25 27  2  0  0  0  0
 25 81  1  0  0  0  0
 26 84  1  0  0  0  0
 27 85  1  0  0  0  0
 28 65  2  0  0  0  0
 29 66  1  0  0  0  0
 29 83  1  0  0  0  0
 30 67  1  0  0  0  0
 30 70  1  0  0  0  0
 31 49  1  0  0  0  0
 31 64  1  0  0  0  0
 31 66  2  0  0  0  0
 32 71  1  0  0  0  0
 32 76  2  0  0  0  0
 33 47  1  0  0  0  0
 33 72  1  0  0  0  0
 33 77  2  0  0  0  0
 34 61  1  0  0  0  0
 34 68  1  0  0  0  0
 34 78  2  0  0  0  0
 35 62  1  0  0  0  0
 35 73  1  0  0  0  0
 35 79  2  0  0  0  0
 36 69  1  0  0  0  0
 36 74  1  0  0  0  0
 36 80  2  0  0  0  0
 37 40  1  0  0  0  0
 38 47  1  0  0  0  0
 39 68  1  0  0  0  0
 40 42  1  0  0  0  0
 41 43  1  0  0  0  0
 41 44  1  0  0  0  0
 42 46  1  0  0  0  0
 43 48  1  0  0  0  0
 44 69  1  0  0  0  0
 45 48  1  0  0  0  0
 45 69  1  0  0  0  0
 46 72  1  0  0  0  0
 47 68  1  0  0  0  0
 48 67  1  0  0  0  0
 50 62  1  0  0  0  0
 51 63  1  0  0  0  0
 52 63  1  0  0  0  0
 53 63  1  0  0  0  0
 54 75  1  0  0  0  0
 55 56  1  0  0  0  0
 56 59  1  0  0  0  0
 57 58  1  0  0  0  0
 57 60  1  0  0  0  0
 58 74  1  0  0  0  0
 59 82  1  0  0  0  0
 60 83  1  0  0  0  0
 61 63  1  0  0  0  0
 61 73  1  0  0  0  0
 62 75  1  0  0  0  0
 65 67  1  0  0  0  0
M  CHG  1  75   1
M  ISO  4  36 100  59 101  74 100  82 101
M  END
> <Batch ID>
0076

> <Smiles>
CNC(C)C(=O)NC(C(=O)N1Cc2cc([101O:1][101CH2:1]CCc3cnc(C)nc3OCCC[100NH:0][100C:0](=O)N3CCCC(n4nc(-c5ccc(Oc6ccc(F)cc6F)cc5)c(C(N)=O)c4N)C3)ccc2CC1C(=O)NC1CCCc2ccccc21)C(C)(C)C

> <Shape>
0.163

> <Color>
0.170

> <Negative vol penalty>
0.000

$$$$

  -OEChem-04052318343D

 86 94  0     1  0  0  0  0  0999 V2000
  -21.3411  -35.7861   25.4395 C   0  0  0  0  0  0  0  0  0  0  0  0
  -20.6870  -34.6955   24.8755 C   0  0  0  0  0  0  0  0  0  0  0  0
  -23.3445   -9.7907   20.7660 C   0  0  0  0  0  0  0  0  0  0  0  0
  -24.1157  -10.3795   22.9786 C   0  0  0  0  0  0  0  0  0  0  0  0
  -22.5207  -36.2617   24.8682 C   0  0  0  0  0  0  0  0  0  0  0  0
  -21.2115  -34.0806   23.7392 C   0  0  0  0  0  0  0  0  0  0  0  0
  -22.9646  -27.0937   23.7788 C   0  0  0  0  0  0  0  0  0  0  0  0
  -22.7036   -8.6673   21.2883 C   0  0  0  0  0  0  0  0  0  0  0  0
  -23.4748   -9.2561   23.5009 C   0  0  0  0  0  0  0  0  0  0  0  0
  -23.1273  -25.7149   23.6426 C   0  0  0  0  0  0  0  0  0  0  0  0
  -23.5594   -5.5594   22.3046 C   0  0  0  0  0  0  0  0  0  0  0  0
  -23.7080   -4.3529   21.6207 C   0  0  0  0  0  0  0  0  0  0  0  0
  -23.9242  -26.0215   21.3801 C   0  0  0  0  0  0  0  0  0  0  0  0
  -21.3158   -4.2390   21.3019 C   0  0  0  0  0  0  0  0  0  0  0  0
  -28.8864  -16.7933   22.3490 C   0  0  0  0  0  0  0  0  0  0  0  0
  -24.0506  -10.6468   21.6111 C   0  0  0  0  0  0  0  0  0  0  0  0
  -24.1745  -13.0983   20.9166 C   0  0  0  0  0  0  0  0  0  0  0  0
  -23.0651  -35.6463   23.7300 C   0  0  0  0  0  0  0  0  0  0  0  0
  -23.2961  -27.9439   22.7201 C   0  0  0  0  0  0  0  0  0  0  0  0
  -22.3987  -34.5493   23.1514 C   0  0  0  0  0  0  0  0  0  0  0  0
  -23.7752  -27.4044   21.5150 C   0  0  0  0  0  0  0  0  0  0  0  0
  -22.7687   -8.4000   22.6558 C   0  0  0  0  0  0  0  0  0  0  0  0
  -23.6056  -25.1801   22.4462 C   0  0  0  0  0  0  0  0  0  0  0  0
  -22.2890   -6.1057   22.4873 C   0  0  0  0  0  0  0  0  0  0  0  0
  -22.5862   -3.6927   21.1193 C   0  0  0  0  0  0  0  0  0  0  0  0
  -21.1672   -5.4455   21.9859 C   0  0  0  0  0  0  0  0  0  0  0  0
  -24.7134  -11.8070   21.0721 C   0  0  0  0  0  0  0  0  0  0  0  0
  -29.8941  -16.2981   21.5511 C   0  0  0  0  0  0  0  0  0  0  0  0
  -29.6728  -18.0962   20.1555 C   0  0  0  0  0  0  0  0  0  0  0  0
  -28.6645  -18.5910   20.9531 C   0  0  0  0  0  0  0  0  0  0  0  0
  -25.1962  -13.8327   20.3659 C   0  0  0  0  0  0  0  0  0  0  0  0
  -22.8673  -13.5899   21.2409 C   0  0  0  0  0  0  0  0  0  0  0  0
  -23.5229  -31.4673   21.4513 C   0  0  0  0  0  0  0  0  0  0  0  0
  -30.9826  -14.2521   20.6638 C   0  0  0  0  0  0  0  0  0  0  0  0
  -26.0241  -29.9981   20.4533 C   0  0  0  0  0  0  0  0  0  0  0  0
  -28.8340  -28.1418   19.9095 C   0  0  0  0  0  0  0  0  0  0  0  0
  -24.3170  -36.2256   23.1203 C   0  0  0  0  0  0  0  0  0  0  0  0
  -23.0789  -29.4305   22.8008 C   0  0  0  0  0  0  0  0  0  0  0  0
  -24.0862  -28.3545   20.3910 C   0  0  0  0  0  0  0  0  0  0  0  0
  -25.0075  -35.2841   22.1369 C   0  0  0  0  0  0  0  0  0  0  0  0
  -29.3141  -12.7621   17.8645 C   0  0  0  0  0  0  0  0  0  0  0  0
  -23.9902  -34.6749   21.1773 C   0  0  0  0  0  0  0  0  0  0  0  0
  -27.9151  -12.4599   18.3997 C   0  0  0  0  0  0  0  0  0  0  0  0
  -30.3762  -12.5816   18.9445 C   0  0  0  0  0  0  0  0  0  0  0  0
  -28.7264  -13.0784   20.7202 C   0  0  0  0  0  0  0  0  0  0  0  0
  -22.9496  -33.8400   21.9334 C   0  0  1  0  0  0  0  0  0  0  0  0
  -24.1480  -30.2385   22.0436 C   0  0  1  0  0  0  0  0  0  0  0  0
  -27.6201  -13.2785   19.6692 C   0  0  2  0  0  0  0  0  0  0  0  0
  -29.0029  -17.1754   17.3523 C   0  0  0  0  0  0  0  0  0  0  0  0
  -31.7978  -15.2013   22.8023 C   0  0  0  0  0  0  0  0  0  0  0  0
  -31.0916  -28.2584   18.8200 C   0  0  0  0  0  0  0  0  0  0  0  0
  -24.7161  -29.6747   17.7168 C   0  0  0  0  0  0  0  0  0  0  0  0
  -26.9150  -28.8589   16.8409 C   0  0  0  0  0  0  0  0  0  0  0  0
  -26.7169  -31.1748   17.7464 C   0  0  0  0  0  0  0  0  0  0  0  0
  -30.2271  -27.6926   22.4818 C   0  0  0  0  0  0  0  0  0  0  0  0
  -30.1142  -18.8199   18.9299 C   0  0  0  0  0  0  0  0  0  0  0  0
  -29.1325  -18.6338   17.7624 C   0  0  0  0  0  0  0  0  0  0  0  0
  -25.3273  -22.0350   21.9228 C   0  0  0  0  0  0  0  0  0  0  0  0
  -26.4496  -21.5225   21.0269 C   0  0  0  0  0  0  0  0  0  0  0  0
  -24.7993  -23.3818   21.4468 C   0  0  0  0  0  0  0  0  0  1  0  0
  -27.0070  -20.1971   21.5266 C   0  0  0  0  0  0  0  0  0  0  0  0
  -30.5712  -15.0177   21.8961 C   0  0  1  0  0  0  0  0  0  0  0  0
  -26.6699  -29.2126   19.3400 C   0  0  1  0  0  0  0  0  0  0  0  0
  -30.3053  -28.4598   20.1061 C   0  0  2  0  0  0  0  0  0  0  0  0
  -26.2420  -29.7173   17.9330 C   0  0  0  0  0  0  0  0  0  0  0  0
  -28.2534  -17.9486   22.0643 N   0  0  0  0  0  0  0  0  0  0  0  0
  -25.9791  -11.7227   20.6539 N   0  0  0  0  0  0  0  0  0  0  0  0
  -30.3055  -16.9407   20.4401 N   0  0  0  0  0  0  0  0  0  0  0  0
  -26.2440  -12.9702   20.2300 N   0  0  0  0  0  0  0  0  0  0  0  0
  -24.7837  -29.5399   20.9137 N   0  0  0  0  0  0  0  0  0  0  0  0
  -30.0482  -13.3574   20.1419 N   0  0  0  0  0  0  0  0  0  0  0  0
  -25.2915  -15.1256   19.9894 N   0  0  0  0  0  0  0  0  0  0  0  0
  -21.9390  -12.7011   21.8002 N   0  0  0  0  0  0  0  0  0  0  0  0
  -23.5041  -32.5553   22.3029 N   0  0  0  0  0  0  0  0  0  0  0  0
  -28.1075  -29.2672   19.5827 N   0  0  0  0  0  0  0  0  0  0  0  0
  -30.8897  -27.5794   21.1570 N   0  3  0  0  0  0  0  0  0  0  0  0
  -22.5271  -14.7779   21.0255 O   0  0  0  0  0  0  0  0  0  0  0  0
  -23.0904  -31.4326   20.3052 O   0  0  0  0  0  0  0  0  0  0  0  0
  -32.1004  -14.4470   20.1792 O   0  0  0  0  0  0  0  0  0  0  0  0
  -26.5988  -30.9945   20.9005 O   0  0  0  0  0  0  0  0  0  0  0  0
  -28.3758  -27.0077   20.0300 O   0  0  0  0  0  0  0  0  0  0  0  0
  -22.1432   -7.3040   23.1658 O   0  0  0  0  0  0  0  0  0  0  0  0
  -23.7663  -23.8335   22.3216 O   0  0  0  0  0  0  0  0  0  1  0  0
  -28.0345  -19.7684   20.6437 O   0  0  0  0  0  0  0  0  0  0  0  0
  -22.7292   -2.5348   20.4612 F   0  0  0  0  0  0  0  0  0  0  0  0
  -19.9443   -5.9660   22.1572 F   0  0  0  0  0  0  0  0  0  0  0  0
  1  2  1  0  0  0  0
  1  5  2  0  0  0  0
  2  6  2  0  0  0  0
  3  8  2  0  0  0  0
  3 16  1  0  0  0  0
  4  9  1  0  0  0  0
  4 16  2  0  0  0  0
  5 18  1  0  0  0  0
  6 20  1  0  0  0  0
  7 10  2  0  0  0  0
  7 19  1  0  0  0  0
  8 22  1  0  0  0  0
  9 22  2  0  0  0  0
 10 23  1  0  0  0  0
 11 12  2  0  0  0  0
 11 24  1  0  0  0  0
 12 25  1  0  0  0  0
 13 21  1  0  0  0  0
 13 23  2  0  0  0  0
 14 25  2  0  0  0  0
 14 26  1  0  0  0  0
 15 28  1  0  0  0  0
 15 66  2  0  0  0  0
 16 27  1  0  0  0  0
 17 27  1  0  0  0  0
 17 31  2  0  0  0  0
 17 32  1  0  0  0  0
 18 20  2  0  0  0  0
 18 37  1  0  0  0  0
 19 21  2  0  0  0  0
 19 38  1  0  0  0  0
 20 46  1  0  0  0  0
 21 39  1  0  0  0  0
 22 82  1  0  0  0  0
 23 83  1  0  0  0  0
 24 26  2  0  0  0  0
 24 82  1  0  0  0  0
 25 85  1  0  0  0  0
 26 86  1  0  0  0  0
 27 67  2  0  0  0  0
 28 62  1  0  0  0  0
 28 68  2  0  0  0  0
 29 30  2  0  0  0  0
 29 56  1  0  0  0  0
 29 68  1  0  0  0  0
 30 66  1  0  0  0  0
 30 84  1  0  0  0  0
 31 69  1  0  0  0  0
 31 72  1  0  0  0  0
 32 73  1  0  0  0  0
 32 77  2  0  0  0  0
 33 47  1  0  0  0  0
 33 74  1  0  0  0  0
 33 78  2  0  0  0  0
 34 62  1  0  0  0  0
 34 71  1  0  0  0  0
 34 79  2  0  0  0  0
 35 63  1  0  0  0  0
 35 70  1  0  0  0  0
 35 80  2  0  0  0  0
 36 64  1  0  0  0  0
 36 75  1  0  0  0  0
 36 81  2  0  0  0  0
 37 40  1  0  0  0  0
 38 47  1  0  0  0  0
 39 70  1  0  0  0  0
 40 42  1  0  0  0  0
 41 43  1  0  0  0  0
 41 44  1  0  0  0  0
 42 46  1  0  0  0  0
 43 48  1  0  0  0  0
 44 71  1  0  0  0  0
 45 48  1  0  0  0  0
 45 71  1  0  0  0  0
 46 74  1  0  0  0  0
 47 70  1  0  0  0  0
 48 69  1  0  0  0  0
 49 57  1  0  0  0  0
 50 62  1  0  0  0  0
 51 64  1  0  0  0  0
 52 65  1  0  0  0  0
 53 65  1  0  0  0  0
 54 65  1  0  0  0  0
 55 76  1  0  0  0  0
 56 57  1  0  0  0  0
 58 59  1  0  0  0  0
 58 60  1  0  0  0  0
 59 61  1  0  0  0  0
 60 83  1  0  0  0  0
 61 84  1  0  0  0  0
 63 65  1  0  0  0  0
 63 75  1  0  0  0  0
 64 76  1  0  0  0  0
 67 69  1  0  0  0  0
M  CHG  1  76   1
M  ISO  4  34 100  60 101  62 100  83 101
M  END
> <Batch ID>
0076

> <Smiles>
CCCc1nc([100CH:0](C)[100C:0](=O)N2CCCC(n3nc(-c4ccc(Oc5ccc(F)cc5F)cc4)c(C(N)=O)c3N)C2)cnc1OCCC[101CH2:1][101O:1]c1ccc2c(c1)CN(C(=O)C(NC(=O)C(C)NC)C(C)(C)C)C(C(=O)NC1CCCc3ccccc31)C2

> <Shape>
0.320

> <Color>
0.185

> <Negative vol penalty>
0.000

$$$$

  -OEChem-04052318343D

 84 92  0     1  0  0  0  0  0999 V2000
  -29.0500  -13.7531   20.6503 C   0  0  0  0  0  0  0  0  0  0  0  0
  -28.5186  -15.0252   20.4642 C   0  0  0  0  0  0  0  0  0  0  0  0
  -27.6630  -25.2311   17.8922 C   0  0  0  0  0  0  0  0  0  0  0  0
  -26.1648  -23.9294   19.2700 C   0  0  0  0  0  0  0  0  0  0  0  0
  -28.1997  -12.6555   20.7781 C   0  0  0  0  0  0  0  0  0  0  0  0
  -27.1365  -15.2004   20.4046 C   0  0  0  0  0  0  0  0  0  0  0  0
  -23.9414  -19.9995   22.4699 C   0  0  0  0  0  0  0  0  0  0  0  0
  -28.5832  -24.1830   17.9025 C   0  0  0  0  0  0  0  0  0  0  0  0
  -27.0851  -22.8812   19.2803 C   0  0  0  0  0  0  0  0  0  0  0  0
  -23.4182  -21.1229   21.8313 C   0  0  0  0  0  0  0  0  0  0  0  0
  -29.1923  -20.0011   19.9687 C   0  0  0  0  0  0  0  0  0  0  0  0
  -29.4479  -19.3746   21.1885 C   0  0  0  0  0  0  0  0  0  0  0  0
  -21.2840  -20.0144   21.6426 C   0  0  0  0  0  0  0  0  0  0  0  0
  -30.2122  -21.4745   22.1068 C   0  0  0  0  0  0  0  0  0  0  0  0
  -19.6551  -27.0512   23.4328 C   0  0  0  0  0  0  0  0  0  0  0  0
  -26.4538  -25.1044   18.5760 C   0  0  0  0  0  0  0  0  0  0  0  0
  -24.4655  -26.3989   17.6386 C   0  0  0  0  0  0  0  0  0  0  0  0
  -26.8063  -12.8186   20.7297 C   0  0  0  0  0  0  0  0  0  0  0  0
  -23.1415  -18.8690   22.6903 C   0  0  0  0  0  0  0  0  0  0  0  0
  -26.2668  -14.1038   20.5304 C   0  0  0  0  0  0  0  0  0  0  0  0
  -21.7987  -18.8788   22.2865 C   0  0  0  0  0  0  0  0  0  0  0  0
  -28.2943  -23.0080   18.5965 C   0  0  0  0  0  0  0  0  0  0  0  0
  -22.0901  -21.1295   21.4150 C   0  0  0  0  0  0  0  0  0  0  0  0
  -29.4468  -21.3642   19.8179 C   0  0  0  0  0  0  0  0  0  0  0  0
  -29.9578  -20.1113   22.2575 C   0  0  0  0  0  0  0  0  0  0  0  0
  -29.9567  -22.1010   20.8870 C   0  0  0  0  0  0  0  0  0  0  0  0
  -25.5031  -26.1870   18.5662 C   0  0  0  0  0  0  0  0  0  0  0  0
  -19.8821  -28.3980   23.3963 C   0  0  0  0  0  0  0  0  0  0  0  0
  -23.8540  -27.5525   18.0649 C   0  0  0  0  0  0  0  0  0  0  0  0
  -19.0518  -27.7916   21.4358 C   0  0  0  0  0  0  0  0  0  0  0  0
  -24.0883  -25.6223   16.4939 C   0  0  0  0  0  0  0  0  0  0  0  0
  -23.2380  -15.8346   21.7484 C   0  0  0  0  0  0  0  0  0  0  0  0
  -20.7389  -15.5270   23.7935 C   0  0  0  0  0  0  0  0  0  0  0  0
  -18.1478  -17.0112   25.4459 C   0  0  0  0  0  0  0  0  0  0  0  0
  -23.4631  -30.2248   23.4088 C   0  0  0  0  0  0  0  0  0  0  0  0
  -25.9285  -11.5959   20.8253 C   0  0  0  0  0  0  0  0  0  0  0  0
  -23.7134  -17.6751   23.4045 C   0  0  0  0  0  0  0  0  0  0  0  0
  -20.8924  -17.6982   22.5177 C   0  0  0  0  0  0  0  0  0  0  0  0
  -24.4668  -11.9174   21.1260 C   0  0  0  0  0  0  0  0  0  0  0  0
  -24.7602  -31.6266   20.4040 C   0  0  0  0  0  0  0  0  0  0  0  0
  -23.9752  -13.0522   20.2330 C   0  0  0  0  0  0  0  0  0  0  0  0
  -25.0041  -30.4106   19.5085 C   0  0  0  0  0  0  0  0  0  0  0  0
  -25.0649  -31.3192   21.8685 C   0  0  0  0  0  0  0  0  0  0  0  0
  -24.6113  -28.9226   21.5161 C   0  0  0  0  0  0  0  0  0  0  0  0
  -24.7724  -14.3377   20.4852 C   0  0  1  0  0  0  0  0  0  0  0  0
  -22.9514  -16.3852   23.1168 C   0  0  1  0  0  0  0  0  0  0  0  0
  -24.2642  -29.1672   20.0376 C   0  0  2  0  0  0  0  0  0  0  0  0
  -18.5495  -27.8576   20.0407 C   0  0  0  0  0  0  0  0  0  0  0  0
  -19.5208  -29.4132   25.6685 C   0  0  0  0  0  0  0  0  0  0  0  0
  -16.2583  -16.4955   27.0146 C   0  0  0  0  0  0  0  0  0  0  0  0
  -19.1688  -14.2859   21.4904 C   0  0  0  0  0  0  0  0  0  0  0  0
  -17.0725  -14.6706   22.8041 C   0  0  0  0  0  0  0  0  0  0  0  0
  -18.8444  -13.1605   23.7001 C   0  0  0  0  0  0  0  0  0  0  0  0
  -19.2202  -18.8294   27.5202 C   0  0  0  0  0  0  0  0  0  0  0  0
  -19.8654  -24.2755   21.9343 C   0  0  0  0  0  0  0  0  0  0  0  0
  -21.0493  -24.5557   21.0073 C   0  0  0  0  0  0  0  0  0  0  0  0
  -18.7402  -25.3077   21.7993 C   0  0  0  0  0  0  0  0  0  0  0  0
  -21.8716  -28.9931   24.8612 C   0  0  0  0  0  0  0  0  0  0  0  0
  -22.1302  -23.4918   21.1435 C   0  0  0  0  0  0  0  0  0  1  0  0
  -20.4172  -29.3172   24.4039 C   0  0  1  0  0  0  0  0  0  0  0  0
  -19.2395  -15.6576   23.6765 C   0  0  1  0  0  0  0  0  0  0  0  0
  -17.7071  -16.9425   26.8969 C   0  0  2  0  0  0  0  0  0  0  0  0
  -18.5986  -14.4653   22.9115 C   0  0  0  0  0  0  0  0  0  0  0  0
  -25.5510  -27.1304   19.5105 N   0  0  0  0  0  0  0  0  0  0  0  0
  -19.1409  -26.7031   22.2070 N   0  0  0  0  0  0  0  0  0  0  0  0
  -24.5361  -27.9463   19.1784 N   0  0  0  0  0  0  0  0  0  0  0  0
  -19.5001  -28.8298   22.1490 N   0  3  0  0  0  0  0  0  0  0  0  0
  -21.4999  -16.5523   23.2144 N   0  0  0  0  0  0  0  0  0  0  0  0
  -24.3310  -30.1303   22.3084 N   0  0  0  0  0  0  0  0  0  0  0  0
  -22.8049  -28.2583   17.5922 N   0  0  0  0  0  0  0  0  0  0  0  0
  -24.8233  -24.4659   16.1993 N   0  0  0  0  0  0  0  0  0  0  0  0
  -24.3232  -14.9804   21.7016 N   0  0  0  0  0  0  0  0  0  0  0  0
  -18.7380  -15.8347   25.0350 N   0  0  0  0  0  0  0  0  0  0  0  0
  -22.8018  -29.0530   23.7558 N   0  0  0  0  0  0  0  0  0  0  0  0
  -17.8406  -18.2789   27.5426 N   0  3  0  0  0  0  0  0  0  0  0  0
  -23.1381  -25.9533   15.7448 O   0  0  0  0  0  0  0  0  0  0  0  0
  -22.5263  -16.1595   20.8052 O   0  0  0  0  0  0  0  0  0  0  0  0
  -21.2171  -14.5549   24.3833 O   0  0  0  0  0  0  0  0  0  0  0  0
  -17.9816  -18.0075   24.7457 O   0  0  0  0  0  0  0  0  0  0  0  0
  -23.2862  -31.2769   24.0323 O   0  0  0  0  0  0  0  0  0  0  0  0
  -29.1919  -21.9849   18.6066 O   0  0  0  0  0  0  0  0  0  0  0  0
  -21.5771  -22.2245   20.7908 O   0  0  0  0  0  0  0  0  0  1  0  0
  -30.2016  -19.5099   23.4293 F   0  0  0  0  0  0  0  0  0  0  0  0
  -30.2021  -23.4111   20.7485 F   0  0  0  0  0  0  0  0  0  0  0  0
  1  2  1  0  0  0  0
  1  5  2  0  0  0  0
  2  6  2  0  0  0  0
  3  8  2  0  0  0  0
  3 16  1  0  0  0  0
  4  9  1  0  0  0  0
  4 16  2  0  0  0  0
  5 18  1  0  0  0  0
  6 20  1  0  0  0  0
  7 10  2  0  0  0  0
  7 19  1  0  0  0  0
  8 22  1  0  0  0  0
  9 22  2  0  0  0  0
 10 23  1  0  0  0  0
 11 12  2  0  0  0  0
 11 24  1  0  0  0  0
 12 25  1  0  0  0  0
 13 21  1  0  0  0  0
 13 23  2  0  0  0  0
 14 25  2  0  0  0  0
 14 26  1  0  0  0  0
 15 28  2  0  0  0  0
 15 65  1  0  0  0  0
 16 27  1  0  0  0  0
 17 27  1  0  0  0  0
 17 29  2  0  0  0  0
 17 31  1  0  0  0  0
 18 20  2  0  0  0  0
 18 36  1  0  0  0  0
 19 21  2  0  0  0  0
 19 37  1  0  0  0  0
 20 45  1  0  0  0  0
 21 38  1  0  0  0  0
 22 81  1  0  0  0  0
 23 82  1  0  0  0  0
 24 26  2  0  0  0  0
 24 81  1  0  0  0  0
 25 83  1  0  0  0  0
 26 84  1  0  0  0  0
 27 64  2  0  0  0  0
 28 60  1  0  0  0  0
 28 67  1  0  0  0  0
 29 66  1  0  0  0  0
 29 70  1  0  0  0  0
 30 48  1  0  0  0  0
 30 65  1  0  0  0  0
 30 67  2  0  0  0  0
 31 71  1  0  0  0  0
 31 76  2  0  0  0  0
 32 46  1  0  0  0  0
 32 72  1  0  0  0  0
 32 77  2  0  0  0  0
 33 61  1  0  0  0  0
 33 68  1  0  0  0  0
 33 78  2  0  0  0  0
 34 62  1  0  0  0  0
 34 73  1  0  0  0  0
 34 79  2  0  0  0  0
 35 69  1  0  0  0  0
 35 74  1  0  0  0  0
 35 80  2  0  0  0  0
 36 39  1  0  0  0  0
 37 46  1  0  0  0  0
 38 68  1  0  0  0  0
 39 41  1  0  0  0  0
 40 42  1  0  0  0  0
 40 43  1  0  0  0  0
 41 45  1  0  0  0  0
 42 47  1  0  0  0  0
 43 69  1  0  0  0  0
 44 47  1  0  0  0  0
 44 69  1  0  0  0  0
 45 72  1  0  0  0  0
 46 68  1  0  0  0  0
 47 66  1  0  0  0  0
 49 60  1  0  0  0  0
 50 62  1  0  0  0  0
 51 63  1  0  0  0  0
 52 63  1  0  0  0  0
 53 63  1  0  0  0  0
 54 75  1  0  0  0  0
 55 56  1  0  0  0  0
 55 57  1  0  0  0  0
 56 59  1  0  0  0  0
 57 65  1  0  0  0  0
 58 60  1  0  0  0  0
 58 74  1  0  0  0  0
 59 82  1  0  0  0  0
 61 63  1  0  0  0  0
 61 73  1  0  0  0  0
 62 75  1  0  0  0  0
 64 66  1  0  0  0  0
M  CHG  2  67   1  75   1
M  ISO  4  35 100  59 101  74 100  82 101
M  END
> <Batch ID>
0076

> <Smiles>
CNC(C)C(=O)NC(C(=O)N1Cc2cc([101O:1][101CH2:1]CCCn3cc(C(C)C[100NH:0][100C:0](=O)N4CCCC(n5nc(-c6ccc(Oc7ccc(F)cc7F)cc6)c(C(N)=O)c5N)C4)nc3C)ccc2CC1C(=O)NC1CCCc2ccccc21)C(C)(C)C

> <Shape>
0.201

> <Color>
0.071

> <Negative vol penalty>
0.000

$$$$

  -OEChem-04052318343D

 91100  0     1  0  0  0  0  0999 V2000
  -23.5888  -21.8515   17.5664 C   0  0  0  0  0  0  0  0  0  0  0  0
  -24.7987  -21.1661   17.6058 C   0  0  0  0  0  0  0  0  0  0  0  0
  -23.1381  -25.0556   21.4818 C   0  0  0  0  0  0  0  0  0  0  0  0
  -23.2670  -27.4636   21.3336 C   0  0  0  0  0  0  0  0  0  0  0  0
  -22.6538  -21.6722   18.5851 C   0  0  0  0  0  0  0  0  0  0  0  0
  -25.0749  -20.3017   18.6646 C   0  0  0  0  0  0  0  0  0  0  0  0
  -28.5254  -14.1983   20.1343 C   0  0  0  0  0  0  0  0  0  0  0  0
  -22.0643  -25.1674   22.3650 C   0  0  0  0  0  0  0  0  0  0  0  0
  -22.1930  -27.5754   22.2167 C   0  0  0  0  0  0  0  0  0  0  0  0
  -29.4713  -13.6819   21.0188 C   0  0  0  0  0  0  0  0  0  0  0  0
  -19.2538  -28.4904   24.1511 C   0  0  0  0  0  0  0  0  0  0  0  0
  -18.2459  -29.4015   23.8356 C   0  0  0  0  0  0  0  0  0  0  0  0
  -30.0258  -21.3086   20.1172 C   0  0  0  0  0  0  0  0  0  0  0  0
  -27.7483  -13.3903   22.6817 C   0  0  0  0  0  0  0  0  0  0  0  0
  -17.8169  -28.2138   21.7759 C   0  0  0  0  0  0  0  0  0  0  0  0
  -31.7781  -17.0155   20.5732 C   0  0  0  0  0  0  0  0  0  0  0  0
  -30.4121  -17.9190   22.0404 C   0  0  0  0  0  0  0  0  0  0  0  0
  -23.7395  -26.2037   20.9662 C   0  0  0  0  0  0  0  0  0  0  0  0
  -30.4496  -22.3838   19.3442 C   0  0  0  0  0  0  0  0  0  0  0  0
  -24.7906  -26.0058   18.6502 C   0  0  0  0  0  0  0  0  0  0  0  0
  -22.9147  -20.7978   19.6519 C   0  0  0  0  0  0  0  0  0  0  0  0
  -27.1835  -14.3249   20.5213 C   0  0  0  0  0  0  0  0  0  0  0  0
  -24.1431  -20.1115   19.6991 C   0  0  0  0  0  0  0  0  0  0  0  0
  -26.7868  -13.9062   21.7994 C   0  0  0  0  0  0  0  0  0  0  0  0
  -29.4237  -20.2144   19.5057 C   0  0  0  0  0  0  0  0  0  0  0  0
  -31.5281  -17.1230   21.9544 C   0  0  0  0  0  0  0  0  0  0  0  0
  -21.5917  -26.4273   22.7324 C   0  0  0  0  0  0  0  0  0  0  0  0
  -29.0834  -13.2805   22.2937 C   0  0  0  0  0  0  0  0  0  0  0  0
  -19.5433  -27.4410   23.2789 C   0  0  0  0  0  0  0  0  0  0  0  0
  -17.5274  -29.2633   22.6481 C   0  0  0  0  0  0  0  0  0  0  0  0
  -18.8248  -27.3027   22.0914 C   0  0  0  0  0  0  0  0  0  0  0  0
  -24.8492  -26.0889   20.0543 C   0  0  0  0  0  0  0  0  0  0  0  0
  -30.2500  -22.3166   17.9747 C   0  0  0  0  0  0  0  0  0  0  0  0
  -29.2701  -20.2443   18.1290 C   0  0  0  0  0  0  0  0  0  0  0  0
  -26.1032  -25.9122   18.2567 C   0  0  0  0  0  0  0  0  0  0  0  0
  -31.0842  -23.5409   19.9888 C   0  0  0  0  0  0  0  0  0  0  0  0
  -23.6516  -26.0127   17.7795 C   0  0  0  0  0  0  0  0  0  0  0  0
  -25.1685  -16.7589   20.8661 C   0  0  0  0  0  0  0  0  0  0  0  0
  -23.0143  -14.3930   21.3995 C   0  0  0  0  0  0  0  0  0  0  0  0
  -22.4265  -11.1758   22.3747 C   0  0  0  0  0  0  0  0  0  0  0  0
  -21.8931  -20.6726   20.7543 C   0  0  0  0  0  0  0  0  0  0  0  0
  -26.1705  -14.8590   19.5462 C   0  0  0  0  0  0  0  0  0  0  0  0
  -25.3549  -14.0024   22.2565 C   0  0  0  0  0  0  0  0  0  0  0  0
  -22.1069  -19.4531   21.6472 C   0  0  0  0  0  0  0  0  0  0  0  0
  -30.4576  -27.0405   20.3081 C   0  0  0  0  0  0  0  0  0  0  0  0
  -23.5738  -19.3359   22.0486 C   0  0  0  0  0  0  0  0  0  0  0  0
  -28.9388  -27.1465   20.1593 C   0  0  0  0  0  0  0  0  0  0  0  0
  -30.8642  -25.7657   21.0431 C   0  0  0  0  0  0  0  0  0  0  0  0
  -28.7994  -24.6248   20.3085 C   0  0  0  0  0  0  0  0  0  0  0  0
  -24.4691  -19.1463   20.8182 C   0  0  1  0  0  0  0  0  0  0  0  0
  -24.9258  -15.4215   20.2257 C   0  0  1  0  0  0  0  0  0  0  0  0
  -28.3498  -25.8709   19.5281 C   0  0  1  0  0  0  0  0  0  0  0  0
  -28.6305  -19.0969   17.4176 C   0  0  0  0  0  0  0  0  0  0  0  0
  -31.9763  -23.1247   16.3457 C   0  0  0  0  0  0  0  0  0  0  0  0
  -20.5604   -9.5394   22.7450 C   0  0  0  0  0  0  0  0  0  0  0  0
  -22.2964  -15.8055   24.0071 C   0  0  0  0  0  0  0  0  0  0  0  0
  -21.1730  -13.6979   24.7583 C   0  0  0  0  0  0  0  0  0  0  0  0
  -20.3405  -14.9010   22.7378 C   0  0  0  0  0  0  0  0  0  0  0  0
  -32.2000  -12.0984   23.8266 C   0  0  0  0  0  0  0  0  0  0  0  0
  -31.3610  -11.7384   21.4960 C   0  0  0  0  0  0  0  0  0  0  0  0
  -23.4920   -9.3207   20.3296 C   0  0  0  0  0  0  0  0  0  0  0  0
  -32.3069  -16.5023   23.0868 C   0  0  0  0  0  0  0  0  0  0  0  0
  -28.9629  -19.0467   20.3355 C   0  0  0  0  0  0  0  0  0  0  0  0
  -30.6839  -23.4413   17.0917 C   0  0  0  0  0  0  0  0  0  0  0  0
  -31.8096  -15.1080   23.4901 C   0  0  0  0  0  0  0  0  0  0  0  0
  -31.8654  -14.0974   22.3338 C   0  0  0  0  0  0  0  0  0  0  0  0
  -22.5300  -13.6426   22.6166 C   0  0  1  0  0  0  0  0  0  0  0  0
  -21.5853  -10.0736   21.7566 C   0  0  2  0  0  0  0  0  0  0  0  0
  -21.6124  -14.5116   23.5223 C   0  0  0  0  0  0  0  0  0  0  0  0
  -31.3512  -12.6876   22.6951 C   0  0  0  0  0  0  0  0  0  1  0  0
  -30.8922  -17.6893   19.8349 N   0  0  0  0  0  0  0  0  0  0  0  0
  -26.1000  -26.0512   20.5213 N   0  0  0  0  0  0  0  0  0  0  0  0
  -29.6691  -21.2709   17.3450 N   0  0  0  0  0  0  0  0  0  0  0  0
  -30.0745  -18.2277   20.7555 N   0  0  0  0  0  0  0  0  0  0  0  0
  -26.8395  -25.9434   19.4044 N   0  0  0  0  0  0  0  0  0  0  0  0
  -30.2652  -24.5907   20.4113 N   0  0  0  0  0  0  0  0  0  0  0  0
  -24.4029  -14.5371   21.2690 N   0  0  0  0  0  0  0  0  0  0  0  0
  -26.6878  -25.8070   17.0445 N   0  0  0  0  0  0  0  0  0  0  0  0
  -22.3753  -26.1153   18.3496 N   0  0  0  0  0  0  0  0  0  0  0  0
  -24.3964  -17.7802   20.3460 N   0  0  0  0  0  0  0  0  0  0  0  0
  -21.8991  -12.4242   22.1207 N   0  0  0  0  0  0  0  0  0  0  0  0
  -22.4525   -8.9425   21.3212 N   0  3  0  0  0  0  0  0  0  0  0  0
  -32.3088  -23.4989   20.0968 O   0  0  0  0  0  0  0  0  0  0  0  0
  -23.7613  -25.9137   16.5338 O   0  0  0  0  0  0  0  0  0  0  0  0
  -25.9939  -16.8568   21.7666 O   0  0  0  0  0  0  0  0  0  0  0  0
  -22.1913  -14.8289   20.5907 O   0  0  0  0  0  0  0  0  0  0  0  0
  -23.4472  -10.9515   23.0215 O   0  0  0  0  0  0  0  0  0  0  0  0
  -20.5437  -26.5367   23.5939 O   0  0  0  0  0  0  0  0  0  0  0  0
  -30.0047  -12.7767   23.1592 O   0  0  0  0  0  0  0  0  0  1  0  0
  -16.5585  -30.1374   22.3460 F   0  0  0  0  0  0  0  0  0  0  0  0
  -19.0976  -26.2958   21.2501 F   0  0  0  0  0  0  0  0  0  0  0  0
  1  2  1  0  0  0  0
  1  5  2  0  0  0  0
  2  6  2  0  0  0  0
  3  8  2  0  0  0  0
  3 18  1  0  0  0  0
  4  9  1  0  0  0  0
  4 18  2  0  0  0  0
  5 21  1  0  0  0  0
  6 23  1  0  0  0  0
  7 10  2  0  0  0  0
  7 22  1  0  0  0  0
  8 27  1  0  0  0  0
  9 27  2  0  0  0  0
 10 28  1  0  0  0  0
 11 12  2  0  0  0  0
 11 29  1  0  0  0  0
 12 30  1  0  0  0  0
 13 19  1  0  0  0  0
 13 25  2  0  0  0  0
 14 24  1  0  0  0  0
 14 28  2  0  0  0  0
 15 30  2  0  0  0  0
 15 31  1  0  0  0  0
 16 26  1  0  0  0  0
 16 71  2  0  0  0  0
 17 26  2  0  0  0  0
 17 74  1  0  0  0  0
 18 32  1  0  0  0  0
 19 33  2  0  0  0  0
 19 36  1  0  0  0  0
 20 32  1  0  0  0  0
 20 35  2  0  0  0  0
 20 37  1  0  0  0  0
 21 23  2  0  0  0  0
 21 41  1  0  0  0  0
 22 24  2  0  0  0  0
 22 42  1  0  0  0  0
 23 50  1  0  0  0  0
 24 43  1  0  0  0  0
 25 34  1  0  0  0  0
 25 63  1  0  0  0  0
 26 62  1  0  0  0  0
 27 88  1  0  0  0  0
 28 89  1  0  0  0  0
 29 31  2  0  0  0  0
 29 88  1  0  0  0  0
 30 90  1  0  0  0  0
 31 91  1  0  0  0  0
 32 72  2  0  0  0  0
 33 64  1  0  0  0  0
 33 73  1  0  0  0  0
 34 53  1  0  0  0  0
 34 73  2  0  0  0  0
 35 75  1  0  0  0  0
 35 78  1  0  0  0  0
 36 76  1  0  0  0  0
 36 83  2  0  0  0  0
 37 79  1  0  0  0  0
 37 84  2  0  0  0  0
 38 51  1  0  0  0  0
 38 80  1  0  0  0  0
 38 85  2  0  0  0  0
 39 67  1  0  0  0  0
 39 77  1  0  0  0  0
 39 86  2  0  0  0  0
 40 68  1  0  0  0  0
 40 81  1  0  0  0  0
 40 87  2  0  0  0  0
 41 44  1  0  0  0  0
 42 51  1  0  0  0  0
 43 77  1  0  0  0  0
 44 46  1  0  0  0  0
 45 47  1  0  0  0  0
 45 48  1  0  0  0  0
 46 50  1  0  0  0  0
 47 52  1  0  0  0  0
 48 76  1  0  0  0  0
 49 52  1  0  0  0  0
 49 76  1  0  0  0  0
 50 80  1  0  0  0  0
 51 77  1  0  0  0  0
 52 75  1  0  0  0  0
 54 64  1  0  0  0  0
 55 68  1  0  0  0  0
 56 69  1  0  0  0  0
 57 69  1  0  0  0  0
 58 69  1  0  0  0  0
 59 70  1  0  0  0  0
 60 70  1  0  0  0  0
 61 82  1  0  0  0  0
 62 65  1  0  0  0  0
 63 74  1  0  0  0  0
 65 66  1  0  0  0  0
 66 70  1  0  0  0  0
 67 69  1  0  0  0  0
 67 81  1  0  0  0  0
 68 82  1  0  0  0  0
 70 89  1  0  0  0  0
 71 74  1  0  0  0  0
 72 75  1  0  0  0  0
M  CHG  1  82   1
M  ISO  4  19 100  36 100  70 101  89 101
M  END
> <Batch ID>
0076

> <Smiles>
CCc1nc(C)c(Cn2cc(CCC[101C:1](C)(C)[101O:1]c3ccc4c(c3)CN(C(=O)C(NC(=O)C(C)NC)C(C)(C)C)C(C(=O)NC3CCCc5ccccc53)C4)cn2)c[100c:0]1[100C:0](=O)N1CCCC(n2nc(-c3ccc(Oc4ccc(F)cc4F)cc3)c(C(N)=O)c2N)C1

> <Shape>
0.250

> <Color>
0.053

> <Negative vol penalty>
0.000

$$$$

  -OEChem-04052318343D

 82 90  0     1  0  0  0  0  0999 V2000
  -30.1038  -25.7008   16.6970 C   0  0  0  0  0  0  0  0  0  0  0  0
  -28.8680  -26.3360   16.6497 C   0  0  0  0  0  0  0  0  0  0  0  0
  -28.9133  -15.4530   18.0494 C   0  0  0  0  0  0  0  0  0  0  0  0
  -29.1631  -16.7795   16.0456 C   0  0  0  0  0  0  0  0  0  0  0  0
  -30.7340  -25.5011   17.9235 C   0  0  0  0  0  0  0  0  0  0  0  0
  -28.2675  -26.7822   17.8275 C   0  0  0  0  0  0  0  0  0  0  0  0
  -22.8182  -29.3392   18.7732 C   0  0  0  0  0  0  0  0  0  0  0  0
  -29.1335  -14.2920   17.3083 C   0  0  0  0  0  0  0  0  0  0  0  0
  -29.3834  -15.6185   15.3045 C   0  0  0  0  0  0  0  0  0  0  0  0
  -21.5262  -28.9212   19.0890 C   0  0  0  0  0  0  0  0  0  0  0  0
  -31.7751  -12.6352   16.0005 C   0  0  0  0  0  0  0  0  0  0  0  0
  -32.6464  -11.6835   16.5303 C   0  0  0  0  0  0  0  0  0  0  0  0
  -19.7372  -23.6265   21.3104 C   0  0  0  0  0  0  0  0  0  0  0  0
  -21.9496  -29.3913   21.4169 C   0  0  0  0  0  0  0  0  0  0  0  0
  -30.8625  -10.0541   16.5371 C   0  0  0  0  0  0  0  0  0  0  0  0
  -20.9526  -23.0597   20.9961 C   0  0  0  0  0  0  0  0  0  0  0  0
  -21.3072  -25.2394   21.3670 C   0  0  0  0  0  0  0  0  0  0  0  0
  -28.9280  -16.6967   17.4180 C   0  0  0  0  0  0  0  0  0  0  0  0
  -29.6673  -18.6897   18.8285 C   0  0  0  0  0  0  0  0  0  0  0  0
  -30.1345  -25.9343   19.1176 C   0  0  0  0  0  0  0  0  0  0  0  0
  -23.6908  -29.7768   19.7800 C   0  0  0  0  0  0  0  0  0  0  0  0
  -28.8988  -26.6114   19.0728 C   0  0  0  0  0  0  0  0  0  0  0  0
  -23.2513  -29.8167   21.1109 C   0  0  0  0  0  0  0  0  0  0  0  0
  -19.9615  -25.0055   21.5452 C   0  0  0  0  0  0  0  0  0  0  0  0
  -29.3686  -14.3747   15.9359 C   0  0  0  0  0  0  0  0  0  0  0  0
  -21.0927  -28.9444   20.4114 C   0  0  0  0  0  0  0  0  0  0  0  0
  -30.4474  -12.2964   15.7391 C   0  0  0  0  0  0  0  0  0  0  0  0
  -32.1902  -10.3930   16.7986 C   0  0  0  0  0  0  0  0  0  0  0  0
  -29.9912  -11.0058   16.0074 C   0  0  0  0  0  0  0  0  0  0  0  0
  -28.7000  -17.8963   18.1829 C   0  0  0  0  0  0  0  0  0  0  0  0
  -28.9469  -19.7045   19.4095 C   0  0  0  0  0  0  0  0  0  0  0  0
  -31.0899  -18.5241   18.8967 C   0  0  0  0  0  0  0  0  0  0  0  0
  -26.4963  -28.7899   20.9018 C   0  0  0  0  0  0  0  0  0  0  0  0
  -26.3115  -31.5110   22.6578 C   0  0  0  0  0  0  0  0  0  0  0  0
  -25.0653  -23.5836   19.0054 C   0  0  0  0  0  0  0  0  0  0  0  0
  -24.3504  -33.9255   24.0618 C   0  0  0  0  0  0  0  0  0  0  0  0
  -30.8643  -25.6993   20.4165 C   0  0  0  0  0  0  0  0  0  0  0  0
  -25.0724  -30.2497   19.4195 C   0  0  0  0  0  0  0  0  0  0  0  0
  -24.1424  -30.2970   22.2262 C   0  0  0  0  0  0  0  0  0  0  0  0
  -29.9554  -25.8053   21.6367 C   0  0  0  0  0  0  0  0  0  0  0  0
  -23.9697  -20.2759   20.0474 C   0  0  0  0  0  0  0  0  0  0  0  0
  -29.1386  -27.0869   21.5667 C   0  0  0  0  0  0  0  0  0  0  0  0
  -25.1813  -19.4217   19.6764 C   0  0  0  0  0  0  0  0  0  0  0  0
  -23.7527  -21.4071   19.0457 C   0  0  0  0  0  0  0  0  0  0  0  0
  -26.1626  -21.4284   18.4835 C   0  0  0  0  0  0  0  0  0  0  0  0
  -28.2124  -27.0780   20.3439 C   0  0  1  0  0  0  0  0  0  0  0  0
  -26.0488  -30.1900   20.5901 C   0  0  1  0  0  0  0  0  0  0  0  0
  -26.4343  -20.2943   19.4859 C   0  0  2  0  0  0  0  0  0  0  0  0
  -24.4826  -35.9985   25.4699 C   0  0  0  0  0  0  0  0  0  0  0  0
  -22.7509  -24.0597   18.2636 C   0  0  0  0  0  0  0  0  0  0  0  0
  -24.1233  -25.8121   19.4009 C   0  0  0  0  0  0  0  0  0  0  0  0
  -26.7780  -29.7943   25.1368 C   0  0  0  0  0  0  0  0  0  0  0  0
  -25.9650  -31.7089   26.5302 C   0  0  0  0  0  0  0  0  0  0  0  0
  -28.0111  -31.9700   25.1274 C   0  0  0  0  0  0  0  0  0  0  0  0
  -23.1664  -35.5939   21.9231 C   0  0  0  0  0  0  0  0  0  0  0  0
  -18.9206  -26.0292   21.9219 C   0  0  0  0  0  0  0  0  0  0  0  0
  -18.2691  -26.7163   20.7198 C   0  0  0  0  0  0  0  0  0  0  0  0
  -23.3069  -23.8668   20.7610 C   0  0  0  0  0  0  0  0  0  0  0  0
  -19.2491  -27.5359   19.8885 C   0  0  0  0  0  0  0  0  0  1  0  0
  -25.7456  -31.8749   24.0093 C   0  0  1  0  0  0  0  0  0  0  0  0
  -24.4575  -35.4398   24.0557 C   0  0  2  0  0  0  0  0  0  0  0  0
  -23.7930  -24.3112   19.3599 C   0  0  0  0  0  0  0  0  0  0  0  0
  -26.6085  -31.3261   25.1804 C   0  0  0  0  0  0  0  0  0  0  0  0
  -27.4597  -18.3667   18.3391 N   0  0  0  0  0  0  0  0  0  0  0  0
  -21.8996  -24.0496   21.0332 N   0  0  0  0  0  0  0  0  0  0  0  0
  -27.6427  -19.4665   19.0894 N   0  0  0  0  0  0  0  0  0  0  0  0
  -25.4865  -30.7431   21.8239 N   0  0  0  0  0  0  0  0  0  0  0  0
  -24.9770  -22.1978   18.8719 N   0  0  0  0  0  0  0  0  0  0  0  0
  -29.3082  -20.7683   20.1579 N   0  0  0  0  0  0  0  0  0  0  0  0
  -31.6669  -17.4267   18.2431 N   0  0  0  0  0  0  0  0  0  0  0  0
  -27.6135  -28.3861   20.1958 N   0  0  0  0  0  0  0  0  0  0  0  0
  -25.5908  -33.3256   24.0098 N   0  0  0  0  0  0  0  0  0  0  0  0
  -23.2987  -36.0382   23.3345 N   0  3  0  0  0  0  0  0  0  0  0  0
  -31.8257  -19.3163   19.5326 O   0  0  0  0  0  0  0  0  0  0  0  0
  -25.8751  -28.1257   21.7231 O   0  0  0  0  0  0  0  0  0  0  0  0
  -27.4411  -31.9000   22.3506 O   0  0  0  0  0  0  0  0  0  0  0  0
  -26.1059  -24.2291   18.8548 O   0  0  0  0  0  0  0  0  0  0  0  0
  -23.2742  -33.3341   24.1116 O   0  0  0  0  0  0  0  0  0  0  0  0
  -29.5838  -13.2421   15.2124 O   0  0  0  0  0  0  0  0  0  0  0  0
  -19.8323  -28.5364   20.7225 O   0  0  0  0  0  0  0  0  0  1  0  0
  -33.0274   -9.4787   17.3059 F   0  0  0  0  0  0  0  0  0  0  0  0
  -28.7172  -10.6741   15.7572 F   0  0  0  0  0  0  0  0  0  0  0  0
  1  2  1  0  0  0  0
  1  5  2  0  0  0  0
  2  6  2  0  0  0  0
  3  8  2  0  0  0  0
  3 18  1  0  0  0  0
  4  9  1  0  0  0  0
  4 18  2  0  0  0  0
  5 20  1  0  0  0  0
  6 22  1  0  0  0  0
  7 10  2  0  0  0  0
  7 21  1  0  0  0  0
  8 25  1  0  0  0  0
  9 25  2  0  0  0  0
 10 26  1  0  0  0  0
 11 12  2  0  0  0  0
 11 27  1  0  0  0  0
 12 28  1  0  0  0  0
 13 16  2  0  0  0  0
 13 24  1  0  0  0  0
 14 23  1  0  0  0  0
 14 26  2  0  0  0  0
 15 28  2  0  0  0  0
 15 29  1  0  0  0  0
 16 65  1  0  0  0  0
 17 24  2  0  0  0  0
 17 65  1  0  0  0  0
 18 30  1  0  0  0  0
 19 30  1  0  0  0  0
 19 31  2  0  0  0  0
 19 32  1  0  0  0  0
 20 22  2  0  0  0  0
 20 37  1  0  0  0  0
 21 23  2  0  0  0  0
 21 38  1  0  0  0  0
 22 46  1  0  0  0  0
 23 39  1  0  0  0  0
 24 56  1  0  0  0  0
 25 79  1  0  0  0  0
 26 80  1  0  0  0  0
 27 29  2  0  0  0  0
 27 79  1  0  0  0  0
 28 81  1  0  0  0  0
 29 82  1  0  0  0  0
 30 64  2  0  0  0  0
 31 66  1  0  0  0  0
 31 69  1  0  0  0  0
 32 70  1  0  0  0  0
 32 74  2  0  0  0  0
 33 47  1  0  0  0  0
 33 71  1  0  0  0  0
 33 75  2  0  0  0  0
 34 60  1  0  0  0  0
 34 67  1  0  0  0  0
 34 76  2  0  0  0  0
 35 62  1  0  0  0  0
 35 68  1  0  0  0  0
 35 77  2  0  0  0  0
 36 61  1  0  0  0  0
 36 72  1  0  0  0  0
 36 78  2  0  0  0  0
 37 40  1  0  0  0  0
 38 47  1  0  0  0  0
 39 67  1  0  0  0  0
 40 42  1  0  0  0  0
 41 43  1  0  0  0  0
 41 44  1  0  0  0  0
 42 46  1  0  0  0  0
 43 48  1  0  0  0  0
 44 68  1  0  0  0  0
 45 48  1  0  0  0  0
 45 68  1  0  0  0  0
 46 71  1  0  0  0  0
 47 67  1  0  0  0  0
 48 66  1  0  0  0  0
 49 61  1  0  0  0  0
 50 62  1  0  0  0  0
 51 62  1  0  0  0  0
 52 63  1  0  0  0  0
 53 63  1  0  0  0  0
 54 63  1  0  0  0  0
 55 73  1  0  0  0  0
 56 57  1  0  0  0  0
 57 59  1  0  0  0  0
 58 62  1  0  0  0  0
 58 65  1  0  0  0  0
 59 80  1  0  0  0  0
 60 63  1  0  0  0  0
 60 72  1  0  0  0  0
 61 73  1  0  0  0  0
 64 66  1  0  0  0  0
M  CHG  1  73   1
M  ISO  4  35 100  59 101  62 100  80 101
M  END
> <Batch ID>
0076

> <Smiles>
CNC(C)C(=O)NC(C(=O)N1Cc2cc([101O:1][101CH2:1]CCc3ccn(C[100C:0](C)(C)[100C:0](=O)N4CCCC(n5nc(-c6ccc(Oc7ccc(F)cc7F)cc6)c(C(N)=O)c5N)C4)c3)ccc2CC1C(=O)NC1CCCc2ccccc21)C(C)(C)C

> <Shape>
0.243

> <Color>
0.072

> <Negative vol penalty>
0.000

$$$$

  -OEChem-04052318343D

 87 95  0     1  0  0  0  0  0999 V2000
  -32.4429  -13.8105   20.9639 C   0  0  0  0  0  0  0  0  0  0  0  0
  -31.6614  -14.9454   21.1555 C   0  0  0  0  0  0  0  0  0  0  0  0
  -28.6007  -24.9543   21.6101 C   0  0  0  0  0  0  0  0  0  0  0  0
  -26.7746  -25.1327   20.0383 C   0  0  0  0  0  0  0  0  0  0  0  0
  -31.8868  -12.6730   20.3802 C   0  0  0  0  0  0  0  0  0  0  0  0
  -30.3236  -14.9438   20.7624 C   0  0  0  0  0  0  0  0  0  0  0  0
  -25.6708  -17.8100   23.5268 C   0  0  0  0  0  0  0  0  0  0  0  0
  -28.4651  -23.5660   21.6100 C   0  0  0  0  0  0  0  0  0  0  0  0
  -26.6391  -23.7444   20.0381 C   0  0  0  0  0  0  0  0  0  0  0  0
  -25.0289  -19.0206   23.2693 C   0  0  0  0  0  0  0  0  0  0  0  0
  -29.3363  -20.9783   19.6156 C   0  0  0  0  0  0  0  0  0  0  0  0
  -30.4987  -20.2135   19.5183 C   0  0  0  0  0  0  0  0  0  0  0  0
  -23.3281  -17.8472   22.0246 C   0  0  0  0  0  0  0  0  0  0  0  0
  -30.0007  -19.1860   21.6475 C   0  0  0  0  0  0  0  0  0  0  0  0
  -23.0250  -25.7770   21.3067 C   0  0  0  0  0  0  0  0  0  0  0  0
  -21.0176  -26.6100   22.8572 C   0  0  0  0  0  0  0  0  0  0  0  0
  -27.7554  -25.7376   20.8243 C   0  0  0  0  0  0  0  0  0  0  0  0
  -28.7034  -27.9474   19.9724 C   0  0  0  0  0  0  0  0  0  0  0  0
  -30.5389  -12.6541   19.9885 C   0  0  0  0  0  0  0  0  0  0  0  0
  -25.1511  -16.6081   23.0250 C   0  0  0  0  0  0  0  0  0  0  0  0
  -29.7492  -13.8054   20.1716 C   0  0  0  0  0  0  0  0  0  0  0  0
  -23.9638  -16.6224   22.2793 C   0  0  0  0  0  0  0  0  0  0  0  0
  -27.4844  -22.9611   20.8240 C   0  0  0  0  0  0  0  0  0  0  0  0
  -23.8590  -19.0397   22.5157 C   0  0  0  0  0  0  0  0  0  0  0  0
  -28.5061  -20.8470   20.7288 C   0  0  0  0  0  0  0  0  0  0  0  0
  -30.8309  -19.3173   20.5343 C   0  0  0  0  0  0  0  0  0  0  0  0
  -28.8383  -19.9508   21.7447 C   0  0  0  0  0  0  0  0  0  0  0  0
  -27.8945  -27.1717   20.8244 C   0  0  0  0  0  0  0  0  0  0  0  0
  -22.7214  -25.1309   22.4848 C   0  0  0  0  0  0  0  0  0  0  0  0
  -21.3216  -27.2567   21.6796 C   0  0  0  0  0  0  0  0  0  0  0  0
  -28.4828  -29.2421   20.3744 C   0  0  0  0  0  0  0  0  0  0  0  0
  -29.5761  -27.5345   18.9124 C   0  0  0  0  0  0  0  0  0  0  0  0
  -26.1983  -14.3757   21.0191 C   0  0  0  0  0  0  0  0  0  0  0  0
  -23.4846  -12.8447   21.9216 C   0  0  0  0  0  0  0  0  0  0  0  0
  -23.8580  -31.8318   23.2058 C   0  0  0  0  0  0  0  0  0  0  0  0
  -20.3182  -13.0584   23.1766 C   0  0  0  0  0  0  0  0  0  0  0  0
  -29.9948  -11.4173   19.3185 C   0  0  0  0  0  0  0  0  0  0  0  0
  -25.8409  -15.3076   23.3342 C   0  0  0  0  0  0  0  0  0  0  0  0
  -23.3539  -15.3574   21.7350 C   0  0  0  0  0  0  0  0  0  0  0  0
  -28.4697  -11.3704   19.2725 C   0  0  0  0  0  0  0  0  0  0  0  0
  -27.2975  -31.8297   24.2107 C   0  0  0  0  0  0  0  0  0  0  0  0
  -27.9081  -12.7107   18.8086 C   0  0  0  0  0  0  0  0  0  0  0  0
  -27.9077  -30.6870   23.4000 C   0  0  0  0  0  0  0  0  0  0  0  0
  -25.8615  -31.5186   24.6209 C   0  0  0  0  0  0  0  0  0  0  0  0
  -25.5721  -30.0317   22.6646 C   0  0  0  0  0  0  0  0  0  0  0  0
  -28.2875  -13.8341   19.7811 C   0  0  1  0  0  0  0  0  0  0  0  0
  -25.5033  -14.2011   22.3397 C   0  0  1  0  0  0  0  0  0  0  0  0
  -27.0123  -30.3183   22.2039 C   0  0  2  0  0  0  0  0  0  0  0  0
  -19.7756  -28.1558   19.9249 C   0  0  0  0  0  0  0  0  0  0  0  0
  -18.3325  -11.6411   23.7646 C   0  0  0  0  0  0  0  0  0  0  0  0
  -21.1758  -30.5520   23.4655 C   0  0  0  0  0  0  0  0  0  0  0  0
  -22.3353  -32.6343   21.4854 C   0  0  0  0  0  0  0  0  0  0  0  0
  -22.7928  -12.5898   18.9608 C   0  0  0  0  0  0  0  0  0  0  0  0
  -20.4399  -12.0544   19.6282 C   0  0  0  0  0  0  0  0  0  0  0  0
  -22.3049  -10.5516   20.3253 C   0  0  0  0  0  0  0  0  0  0  0  0
  -20.4432  -13.8597   26.0228 C   0  0  0  0  0  0  0  0  0  0  0  0
  -23.5201  -23.9311   22.9277 C   0  0  0  0  0  0  0  0  0  0  0  0
  -22.9645  -22.5993   22.4186 C   0  0  0  0  0  0  0  0  0  0  0  0
  -21.3747  -29.7422   21.0682 C   0  0  0  0  0  0  0  0  0  0  0  0
  -23.8257  -21.4007   22.7995 C   0  0  0  0  0  0  0  0  0  1  0  0
  -20.5328  -28.4410   21.2421 C   0  0  2  0  0  0  0  0  0  0  0  0
  -22.0590  -12.8143   21.4260 C   0  0  1  0  0  0  0  0  0  0  0  0
  -19.6150  -12.2802   24.2740 C   0  0  2  0  0  0  0  0  0  0  0  0
  -22.1524  -30.2020   22.3339 C   0  0  1  0  0  0  0  0  0  0  0  0
  -23.0780  -31.3996   21.9898 C   0  0  2  0  0  0  0  0  0  0  0  0
  -21.9114  -12.0268   20.0935 C   0  0  0  0  0  0  0  0  0  0  0  0
  -21.7121  -25.5355   23.2810 N   0  0  0  0  0  0  0  0  0  0  0  0
  -22.3307  -26.8518   20.8832 N   0  0  0  0  0  0  0  0  0  0  0  0
  -27.2112  -27.9119   21.7015 N   0  0  0  0  0  0  0  0  0  0  0  0
  -27.5902  -29.1662   21.4028 N   0  0  0  0  0  0  0  0  0  0  0  0
  -24.0689  -14.1118   22.0589 N   0  0  0  0  0  0  0  0  0  0  0  0
  -25.0490  -31.1513   23.4597 N   0  0  0  0  0  0  0  0  0  0  0  0
  -28.9672  -30.4267   19.9449 N   0  0  0  0  0  0  0  0  0  0  0  0
  -29.6851  -26.1658   18.6315 N   0  0  0  0  0  0  0  0  0  0  0  0
  -27.4475  -13.7882   20.9587 N   0  0  0  0  0  0  0  0  0  0  0  0
  -21.2563  -12.2867   22.5240 N   0  0  0  0  0  0  0  0  0  0  0  0
  -19.2719  -13.1818   25.4099 N   0  3  0  0  0  0  0  0  0  0  0  0
  -30.2521  -28.3539   18.2451 O   0  0  0  0  0  0  0  0  0  0  0  0
  -25.6417  -14.9963   20.1208 O   0  0  0  0  0  0  0  0  0  0  0  0
  -24.0563  -11.7837   22.1842 O   0  0  0  0  0  0  0  0  0  0  0  0
  -23.4217  -32.7489   23.9063 O   0  0  0  0  0  0  0  0  0  0  0  0
  -20.0585  -14.2322   22.9211 O   0  0  0  0  0  0  0  0  0  0  0  0
  -27.3520  -21.6065   20.8235 O   0  0  0  0  0  0  0  0  0  0  0  0
  -23.2309  -20.2200   22.2624 O   0  0  0  0  0  0  0  0  0  1  0  0
  -31.9464  -18.5818   20.4400 F   0  0  0  0  0  0  0  0  0  0  0  0
  -28.0441  -19.8194   22.8161 F   0  0  0  0  0  0  0  0  0  0  0  0
  -23.9388  -31.0134   21.0035 F   0  0  0  0  0  0  0  0  0  0  0  0
  1  2  1  0  0  0  0
  1  5  2  0  0  0  0
  2  6  2  0  0  0  0
  3  8  2  0  0  0  0
  3 17  1  0  0  0  0
  4  9  1  0  0  0  0
  4 17  2  0  0  0  0
  5 19  1  0  0  0  0
  6 21  1  0  0  0  0
  7 10  2  0  0  0  0
  7 20  1  0  0  0  0
  8 23  1  0  0  0  0
  9 23  2  0  0  0  0
 10 24  1  0  0  0  0
 11 12  2  0  0  0  0
 11 25  1  0  0  0  0
 12 26  1  0  0  0  0
 13 22  1  0  0  0  0
 13 24  2  0  0  0  0
 14 26  2  0  0  0  0
 14 27  1  0  0  0  0
 15 29  1  0  0  0  0
 15 68  2  0  0  0  0
 16 30  2  0  0  0  0
 16 67  1  0  0  0  0
 17 28  1  0  0  0  0
 18 28  1  0  0  0  0
 18 31  2  0  0  0  0
 18 32  1  0  0  0  0
 19 21  2  0  0  0  0
 19 37  1  0  0  0  0
 20 22  2  0  0  0  0
 20 38  1  0  0  0  0
 21 46  1  0  0  0  0
 22 39  1  0  0  0  0
 23 83  1  0  0  0  0
 24 84  1  0  0  0  0
 25 27  2  0  0  0  0
 25 83  1  0  0  0  0
 26 85  1  0  0  0  0
 27 86  1  0  0  0  0
 28 69  2  0  0  0  0
 29 57  1  0  0  0  0
 29 67  2  0  0  0  0
 30 61  1  0  0  0  0
 30 68  1  0  0  0  0
 31 70  1  0  0  0  0
 31 73  1  0  0  0  0
 32 74  1  0  0  0  0
 32 78  2  0  0  0  0
 33 47  1  0  0  0  0
 33 75  1  0  0  0  0
 33 79  2  0  0  0  0
 34 62  1  0  0  0  0
 34 71  1  0  0  0  0
 34 80  2  0  0  0  0
 35 65  1  0  0  0  0
 35 72  1  0  0  0  0
 35 81  2  0  0  0  0
 36 63  1  0  0  0  0
 36 76  1  0  0  0  0
 36 82  2  0  0  0  0
 37 40  1  0  0  0  0
 38 47  1  0  0  0  0
 39 71  1  0  0  0  0
 40 42  1  0  0  0  0
 41 43  1  0  0  0  0
 41 44  1  0  0  0  0
 42 46  1  0  0  0  0
 43 48  1  0  0  0  0
 44 72  1  0  0  0  0
 45 48  1  0  0  0  0
 45 72  1  0  0  0  0
 46 75  1  0  0  0  0
 47 71  1  0  0  0  0
 48 70  1  0  0  0  0
 49 61  1  0  0  0  0
 50 63  1  0  0  0  0
 51 64  1  0  0  0  0
 52 65  1  0  0  0  0
 53 66  1  0  0  0  0
 54 66  1  0  0  0  0
 55 66  1  0  0  0  0
 56 77  1  0  0  0  0
 57 58  1  0  0  0  0
 58 60  1  0  0  0  0
 59 61  1  0  0  0  0
 59 64  1  0  0  0  0
 60 84  1  0  0  0  0
 62 66  1  0  0  0  0
 62 76  1  0  0  0  0
 63 77  1  0  0  0  0
 64 65  1  0  0  0  0
 65 87  1  0  0  0  0
 69 70  1  0  0  0  0
M  CHG  1  77   1
M  ISO  4  35 100  60 101  65 100  84 101
M  END
> <Batch ID>
0076

> <Smiles>
CNC(C)C(=O)NC(C(=O)N1Cc2cc([101O:1][101CH2:1]CCc3cnc(C(C)CC(C)[100C:0](C)(F)[100C:0](=O)N4CCCC(n5nc(-c6ccc(Oc7ccc(F)cc7F)cc6)c(C(N)=O)c5N)C4)cn3)ccc2CC1C(=O)NC1CCCc2ccccc21)C(C)(C)C

> <Shape>
0.271

> <Color>
0.052

> <Negative vol penalty>
0.000

$$$$

  -OEChem-04052318343D

 88 96  0     1  0  0  0  0  0999 V2000
  -15.2717  -28.8769   22.1683 C   0  0  0  0  0  0  0  0  0  0  0  0
  -16.4983  -29.5247   22.2746 C   0  0  0  0  0  0  0  0  0  0  0  0
  -25.6024  -14.9788   21.4059 C   0  0  0  0  0  0  0  0  0  0  0  0
  -24.6636  -16.8701   20.2317 C   0  0  0  0  0  0  0  0  0  0  0  0
  -15.1944  -27.4976   22.3573 C   0  0  0  0  0  0  0  0  0  0  0  0
  -17.6482  -28.7937   22.5711 C   0  0  0  0  0  0  0  0  0  0  0  0
  -23.3167  -29.8513   20.5084 C   0  0  0  0  0  0  0  0  0  0  0  0
  -24.3664  -14.3344   21.3563 C   0  0  0  0  0  0  0  0  0  0  0  0
  -23.4276  -16.2256   20.1820 C   0  0  0  0  0  0  0  0  0  0  0  0
  -24.4151  -30.4979   21.0735 C   0  0  0  0  0  0  0  0  0  0  0  0
  -21.4202  -14.4676   23.0076 C   0  0  0  0  0  0  0  0  0  0  0  0
  -20.9651  -13.8497   24.1723 C   0  0  0  0  0  0  0  0  0  0  0  0
  -25.2777  -28.3709   21.8157 C   0  0  0  0  0  0  0  0  0  0  0  0
  -20.9098  -11.7250   23.0234 C   0  0  0  0  0  0  0  0  0  0  0  0
  -29.3063  -25.5650   19.6276 C   0  0  0  0  0  0  0  0  0  0  0  0
  -25.7511  -16.2467   20.8437 C   0  0  0  0  0  0  0  0  0  0  0  0
  -28.0643  -16.8387   19.9459 C   0  0  0  0  0  0  0  0  0  0  0  0
  -16.3455  -26.7480   22.6467 C   0  0  0  0  0  0  0  0  0  0  0  0
  -23.1849  -28.4584   20.6024 C   0  0  0  0  0  0  0  0  0  0  0  0
  -17.5860  -27.4034   22.7655 C   0  0  0  0  0  0  0  0  0  0  0  0
  -24.1780  -27.7088   21.2487 C   0  0  0  0  0  0  0  0  0  0  0  0
  -23.2790  -14.9577   20.7443 C   0  0  0  0  0  0  0  0  0  0  0  0
  -25.3943  -29.7580   21.7298 C   0  0  0  0  0  0  0  0  0  0  0  0
  -21.6201  -13.7142   21.8507 C   0  0  0  0  0  0  0  0  0  0  0  0
  -20.7099  -12.4784   24.1803 C   0  0  0  0  0  0  0  0  0  0  0  0
  -21.3649  -12.3430   21.8587 C   0  0  0  0  0  0  0  0  0  0  0  0
  -27.0275  -16.9132   20.8952 C   0  0  0  0  0  0  0  0  0  0  0  0
  -30.5539  -25.3198   19.0977 C   0  0  0  0  0  0  0  0  0  0  0  0
  -31.0454  -27.5497   19.2228 C   0  0  0  0  0  0  0  0  0  0  0  0
  -29.7974  -27.7950   19.7519 C   0  0  0  0  0  0  0  0  0  0  0  0
  -29.0531  -17.6457   20.4533 C   0  0  0  0  0  0  0  0  0  0  0  0
  -28.1279  -16.1056   18.7153 C   0  0  0  0  0  0  0  0  0  0  0  0
  -21.0646  -26.4897   21.9185 C   0  0  0  0  0  0  0  0  0  0  0  0
  -22.8476  -24.2134   20.4483 C   0  0  0  0  0  0  0  0  0  0  0  0
  -25.9794  -22.7637   19.3958 C   0  0  0  0  0  0  0  0  0  0  0  0
  -30.6904  -22.3986   22.8769 C   0  0  0  0  0  0  0  0  0  0  0  0
  -16.2048  -25.2662   22.8894 C   0  0  0  0  0  0  0  0  0  0  0  0
  -22.0076  -27.7734   19.9643 C   0  0  0  0  0  0  0  0  0  0  0  0
  -24.0936  -26.2091   21.3594 C   0  0  0  0  0  0  0  0  0  0  0  0
  -17.5300  -24.5108   22.8307 C   0  0  0  0  0  0  0  0  0  0  0  0
  -29.5382  -19.7902   25.0088 C   0  0  0  0  0  0  0  0  0  0  0  0
  -18.5984  -25.2438   23.6355 C   0  0  0  0  0  0  0  0  0  0  0  0
  -28.8627  -18.8068   24.0514 C   0  0  0  0  0  0  0  0  0  0  0  0
  -29.3152  -21.2387   24.5799 C   0  0  0  0  0  0  0  0  0  0  0  0
  -29.0233  -20.5550   22.2302 C   0  0  0  0  0  0  0  0  0  0  0  0
  -18.8596  -26.6415   23.0613 C   0  0  1  0  0  0  0  0  0  0  0  0
  -21.7152  -26.4027   20.5669 C   0  0  1  0  0  0  0  0  0  0  0  0
  -29.2672  -19.0794   22.5901 C   0  0  2  0  0  0  0  0  0  0  0  0
  -32.0228  -28.6516   18.9941 C   0  0  0  0  0  0  0  0  0  0  0  0
  -31.1755  -23.8180   17.2071 C   0  0  0  0  0  0  0  0  0  0  0  0
  -27.1390  -20.9490   18.1076 C   0  0  0  0  0  0  0  0  0  0  0  0
  -32.6619  -22.0060   19.1101 C   0  0  0  0  0  0  0  0  0  0  0  0
  -23.0866  -22.8289   23.1567 C   0  0  0  0  0  0  0  0  0  0  0  0
  -24.9840  -21.4870   22.2252 C   0  0  0  0  0  0  0  0  0  0  0  0
  -22.7072  -21.2853   21.2259 C   0  0  0  0  0  0  0  0  0  0  0  0
  -28.6943  -31.2823   22.2656 C   0  0  0  0  0  0  0  0  0  0  0  0
  -27.2043  -31.4180   20.2530 C   0  0  0  0  0  0  0  0  0  0  0  0
  -26.3809  -24.5247   17.0513 C   0  0  0  0  0  0  0  0  0  0  0  0
  -29.3613  -29.1906   20.1249 C   0  0  0  0  0  0  0  0  0  0  0  0
  -28.0770  -29.1725   20.9659 C   0  0  0  0  0  0  0  0  0  0  0  0
  -32.0070  -23.4580   21.0594 C   0  0  0  0  0  0  0  0  0  0  0  0
  -30.9621  -23.9346   18.7366 C   0  0  1  0  0  0  0  0  0  0  0  0
  -24.0532  -23.3884   20.8289 C   0  0  1  0  0  0  0  0  0  0  0  0
  -26.3124  -22.2223   18.0172 C   0  0  2  0  0  0  0  0  0  0  0  0
  -32.2188  -23.4154   19.5314 C   0  0  2  0  0  0  0  0  0  0  0  0
  -23.7087  -22.2758   21.8590 C   0  0  0  0  0  0  0  0  0  0  0  0
  -27.6160  -30.5607   21.4544 C   0  0  0  0  0  0  0  0  0  1  0  0
  -28.9056  -26.8071   19.9641 N   0  0  0  0  0  0  0  0  0  0  0  0
  -27.3296  -17.7048   21.9277 N   0  0  0  0  0  0  0  0  0  0  0  0
  -31.4459  -26.3077   18.8859 N   0  0  0  0  0  0  0  0  0  0  0  0
  -28.5675  -18.1351   21.6301 N   0  0  0  0  0  0  0  0  0  0  0  0
  -22.9203  -25.5860   20.7249 N   0  0  0  0  0  0  0  0  0  0  0  0
  -29.7202  -21.4308   23.1852 N   0  0  0  0  0  0  0  0  0  0  0  0
  -30.2819  -17.9772   20.0033 N   0  0  0  0  0  0  0  0  0  0  0  0
  -27.0238  -15.3262   18.3442 N   0  0  0  0  0  0  0  0  0  0  0  0
  -19.6849  -26.5547   21.8756 N   0  0  0  0  0  0  0  0  0  0  0  0
  -24.6188  -22.8913   19.5793 N   0  0  0  0  0  0  0  0  0  0  0  0
  -31.0212  -22.5117   21.5321 N   0  0  0  0  0  0  0  0  0  0  0  0
  -27.0855  -23.2301   17.2378 N   0  3  0  0  0  0  0  0  0  0  0  0
  -29.1404  -16.1278   17.9751 O   0  0  0  0  0  0  0  0  0  0  0  0
  -21.7625  -26.4958   22.9257 O   0  0  0  0  0  0  0  0  0  0  0  0
  -21.8800  -23.6615   19.9183 O   0  0  0  0  0  0  0  0  0  0  0  0
  -26.8400  -23.0417   20.2280 O   0  0  0  0  0  0  0  0  0  0  0  0
  -31.2262  -23.1057   23.7371 O   0  0  0  0  0  0  0  0  0  0  0  0
  -22.0728  -14.3291   20.6954 O   0  0  0  0  0  0  0  0  0  0  0  0
  -26.4671  -30.3866   22.2828 O   0  0  0  0  0  0  0  0  0  1  0  0
  -20.2743  -11.8848   25.2992 F   0  0  0  0  0  0  0  0  0  0  0  0
  -21.5562  -11.6138   20.7507 F   0  0  0  0  0  0  0  0  0  0  0  0
  1  2  1  0  0  0  0
  1  5  2  0  0  0  0
  2  6  2  0  0  0  0
  3  8  2  0  0  0  0
  3 16  1  0  0  0  0
  4  9  1  0  0  0  0
  4 16  2  0  0  0  0
  5 18  1  0  0  0  0
  6 20  1  0  0  0  0
  7 10  2  0  0  0  0
  7 19  1  0  0  0  0
  8 22  1  0  0  0  0
  9 22  2  0  0  0  0
 10 23  1  0  0  0  0
 11 12  2  0  0  0  0
 11 24  1  0  0  0  0
 12 25  1  0  0  0  0
 13 21  1  0  0  0  0
 13 23  2  0  0  0  0
 14 25  2  0  0  0  0
 14 26  1  0  0  0  0
 15 28  1  0  0  0  0
 15 68  2  0  0  0  0
 16 27  1  0  0  0  0
 17 27  1  0  0  0  0
 17 31  2  0  0  0  0
 17 32  1  0  0  0  0
 18 20  2  0  0  0  0
 18 37  1  0  0  0  0
 19 21  2  0  0  0  0
 19 38  1  0  0  0  0
 20 46  1  0  0  0  0
 21 39  1  0  0  0  0
 22 85  1  0  0  0  0
 23 86  1  0  0  0  0
 24 26  2  0  0  0  0
 24 85  1  0  0  0  0
 25 87  1  0  0  0  0
 26 88  1  0  0  0  0
 27 69  2  0  0  0  0
 28 62  1  0  0  0  0
 28 70  2  0  0  0  0
 29 30  2  0  0  0  0
 29 49  1  0  0  0  0
 29 70  1  0  0  0  0
 30 59  1  0  0  0  0
 30 68  1  0  0  0  0
 31 71  1  0  0  0  0
 31 74  1  0  0  0  0
 32 75  1  0  0  0  0
 32 80  2  0  0  0  0
 33 47  1  0  0  0  0
 33 76  1  0  0  0  0
 33 81  2  0  0  0  0
 34 63  1  0  0  0  0
 34 72  1  0  0  0  0
 34 82  2  0  0  0  0
 35 64  1  0  0  0  0
 35 77  1  0  0  0  0
 35 83  2  0  0  0  0
 36 73  1  0  0  0  0
 36 78  1  0  0  0  0
 36 84  2  0  0  0  0
 37 40  1  0  0  0  0
 38 47  1  0  0  0  0
 39 72  1  0  0  0  0
 40 42  1  0  0  0  0
 41 43  1  0  0  0  0
 41 44  1  0  0  0  0
 42 46  1  0  0  0  0
 43 48  1  0  0  0  0
 44 73  1  0  0  0  0
 45 48  1  0  0  0  0
 45 73  1  0  0  0  0
 46 76  1  0  0  0  0
 47 72  1  0  0  0  0
 48 71  1  0  0  0  0
 50 62  1  0  0  0  0
 51 64  1  0  0  0  0
 52 65  1  0  0  0  0
 53 66  1  0  0  0  0
 54 66  1  0  0  0  0
 55 66  1  0  0  0  0
 56 67  1  0  0  0  0
 57 67  1  0  0  0  0
 58 79  1  0  0  0  0
 59 60  1  0  0  0  0
 60 67  1  0  0  0  0
 61 65  1  0  0  0  0
 61 78  1  0  0  0  0
 62 65  1  0  0  0  0
 63 66  1  0  0  0  0
 63 77  1  0  0  0  0
 64 79  1  0  0  0  0
 67 86  1  0  0  0  0
 69 71  1  0  0  0  0
M  CHG  1  79   1
M  ISO  4  36 100  67 101  78 100  86 101
M  END
> <Batch ID>
0076

> <Smiles>
CNC(C)C(=O)NC(C(=O)N1Cc2cc([101O:1][101C:1](C)(C)CCc3ncc(C(C)C(C)C[100NH:0][100C:0](=O)N4CCCC(n5nc(-c6ccc(Oc7ccc(F)cc7F)cc6)c(C(N)=O)c5N)C4)nc3C)ccc2CC1C(=O)NC1CCCc2ccccc21)C(C)(C)C

> <Shape>
0.216

> <Color>
0.054

> <Negative vol penalty>
0.000

$$$$

  -OEChem-04052318343D

 88 96  0     1  0  0  0  0  0999 V2000
  -16.6536  -26.8325   21.8438 C   0  0  0  0  0  0  0  0  0  0  0  0
  -17.9100  -26.3739   21.4610 C   0  0  0  0  0  0  0  0  0  0  0  0
  -24.0616  -12.9259   24.6140 C   0  0  0  0  0  0  0  0  0  0  0  0
  -23.9982  -15.1941   23.7844 C   0  0  0  0  0  0  0  0  0  0  0  0
  -16.5359  -28.0213   22.5628 C   0  0  0  0  0  0  0  0  0  0  0  0
  -19.0495  -27.1045   21.7961 C   0  0  0  0  0  0  0  0  0  0  0  0
  -22.7830  -24.1770   23.5669 C   0  0  0  0  0  0  0  0  0  0  0  0
  -23.4156  -13.3345   25.7808 C   0  0  0  0  0  0  0  0  0  0  0  0
  -23.3522  -15.6028   24.9512 C   0  0  0  0  0  0  0  0  0  0  0  0
  -23.5272  -23.4590   22.6318 C   0  0  0  0  0  0  0  0  0  0  0  0
  -21.4606  -13.7145   28.8219 C   0  0  0  0  0  0  0  0  0  0  0  0
  -20.4106  -12.9259   29.2921 C   0  0  0  0  0  0  0  0  0  0  0  0
  -25.2719  -25.1204   22.7535 C   0  0  0  0  0  0  0  0  0  0  0  0
  -31.5054  -19.2247   20.3361 C   0  0  0  0  0  0  0  0  0  0  0  0
  -19.2130  -13.2880   27.2253 C   0  0  0  0  0  0  0  0  0  0  0  0
  -24.3529  -13.8557   23.6158 C   0  0  0  0  0  0  0  0  0  0  0  0
  -24.4207  -12.9823   21.2200 C   0  0  0  0  0  0  0  0  0  0  0  0
  -17.6752  -28.7618   22.9152 C   0  0  0  0  0  0  0  0  0  0  0  0
  -23.2738  -25.3798   24.0951 C   0  0  0  0  0  0  0  0  0  0  0  0
  -18.9468  -28.3050   22.5193 C   0  0  0  0  0  0  0  0  0  0  0  0
  -24.5332  -25.8505   23.6971 C   0  0  0  0  0  0  0  0  0  0  0  0
  -31.0056  -20.4425   20.7626 C   0  0  0  0  0  0  0  0  0  0  0  0
  -23.0610  -14.6730   25.9494 C   0  0  0  0  0  0  0  0  0  0  0  0
  -24.7705  -23.9321   22.2227 C   0  0  0  0  0  0  0  0  0  0  0  0
  -21.3868  -14.2900   27.5534 C   0  0  0  0  0  0  0  0  0  0  0  0
  -19.2868  -12.7126   28.4938 C   0  0  0  0  0  0  0  0  0  0  0  0
  -20.2630  -14.0767   26.7551 C   0  0  0  0  0  0  0  0  0  0  0  0
  -25.0206  -13.4343   22.4106 C   0  0  0  0  0  0  0  0  0  0  0  0
  -30.6450  -18.3672   19.6804 C   0  0  0  0  0  0  0  0  0  0  0  0
  -29.6786  -20.7224   20.5048 C   0  0  0  0  0  0  0  0  0  0  0  0
  -25.4769  -12.7077   20.3860 C   0  0  0  0  0  0  0  0  0  0  0  0
  -23.0328  -12.8248   20.8967 C   0  0  0  0  0  0  0  0  0  0  0  0
  -22.3054  -28.4071   24.0563 C   0  0  0  0  0  0  0  0  0  0  0  0
  -24.7988  -28.8230   26.0891 C   0  0  0  0  0  0  0  0  0  0  0  0
  -27.8179  -27.7189   27.2350 C   0  0  0  0  0  0  0  0  0  0  0  0
  -31.1029  -14.7406   20.1267 C   0  0  0  0  0  0  0  0  0  0  0  0
  -17.4945  -30.0652   23.6521 C   0  0  0  0  0  0  0  0  0  0  0  0
  -22.4706  -26.1287   25.1229 C   0  0  0  0  0  0  0  0  0  0  0  0
  -25.1139  -27.1258   24.2491 C   0  0  0  0  0  0  0  0  0  0  0  0
  -18.7789  -30.5865   24.2917 C   0  0  0  0  0  0  0  0  0  0  0  0
  -30.0647  -11.3528   20.4757 C   0  0  0  0  0  0  0  0  0  0  0  0
  -19.9379  -30.5070   23.3032 C   0  0  0  0  0  0  0  0  0  0  0  0
  -28.6001  -11.4613   20.9037 C   0  0  0  0  0  0  0  0  0  0  0  0
  -30.9150  -12.4646   21.0864 C   0  0  0  0  0  0  0  0  0  0  0  0
  -28.9492  -13.9392   21.2738 C   0  0  0  0  0  0  0  0  0  0  0  0
  -20.2083  -29.0565   22.8855 C   0  0  1  0  0  0  0  0  0  0  0  0
  -22.8404  -27.6062   25.2097 C   0  0  1  0  0  0  0  0  0  0  0  0
  -28.0414  -12.8723   20.6384 C   0  0  2  0  0  0  0  0  0  0  0  0
  -34.8643  -25.5059   21.0845 C   0  0  0  0  0  0  0  0  0  0  0  0
  -31.8135  -17.9022   16.8797 C   0  0  0  0  0  0  0  0  0  0  0  0
  -29.6308  -28.2883   28.8741 C   0  0  0  0  0  0  0  0  0  0  0  0
  -25.7889  -31.0264   24.2250 C   0  0  0  0  0  0  0  0  0  0  0  0
  -28.0154  -30.8918   25.3622 C   0  0  0  0  0  0  0  0  0  0  0  0
  -25.9911  -31.5523   26.6616 C   0  0  0  0  0  0  0  0  0  0  0  0
  -27.4386  -25.1828   28.7125 C   0  0  0  0  0  0  0  0  0  0  0  0
  -31.8923  -21.4046   21.4746 C   0  0  0  0  0  0  0  0  0  0  0  0
  -29.0637  -22.0286   20.9401 C   0  0  0  0  0  0  0  0  0  0  0  0
  -33.8725  -24.5927   20.3816 C   0  0  0  0  0  0  0  0  0  0  0  0
  -31.0005  -16.8823   17.6677 C   0  0  0  0  0  0  0  0  0  0  0  0
  -32.4037  -22.5478   20.5865 C   0  0  0  0  0  0  0  0  0  0  0  0
  -27.5350  -22.0416   20.8750 C   0  0  0  0  0  0  0  0  0  0  0  0
  -33.3725  -23.4870   21.3121 C   0  0  0  0  0  0  0  0  0  0  0  0
  -26.9194  -23.3345   21.3974 C   0  0  0  0  0  0  0  0  0  1  0  0
  -31.1333  -17.0431   19.2012 C   0  0  2  0  0  0  0  0  0  0  0  0
  -26.2647  -29.1475   25.9308 C   0  0  1  0  0  0  0  0  0  0  0  0
  -28.3455  -27.5091   28.6429 C   0  0  2  0  0  0  0  0  0  0  0  0
  -26.5035  -30.6314   25.5329 C   0  0  0  0  0  0  0  0  0  0  0  0
  -26.3545  -13.4474   22.3431 N   0  0  0  0  0  0  0  0  0  0  0  0
  -29.3507  -18.6672   19.4418 N   0  0  0  0  0  0  0  0  0  0  0  0
  -28.8597  -19.8644   19.8606 N   0  0  0  0  0  0  0  0  0  0  0  0
  -26.6015  -13.0001   21.1001 N   0  0  0  0  0  0  0  0  0  0  0  0
  -24.2877  -27.8254   25.2468 N   0  0  0  0  0  0  0  0  0  0  0  0
  -30.3316  -13.7768   20.7970 N   0  0  0  0  0  0  0  0  0  0  0  0
  -25.5441  -12.2469   19.1189 N   0  0  0  0  0  0  0  0  0  0  0  0
  -22.0787  -13.1532   21.8695 N   0  0  0  0  0  0  0  0  0  0  0  0
  -20.9306  -28.3571   23.9263 N   0  0  0  0  0  0  0  0  0  0  0  0
  -26.9073  -28.7529   27.1796 N   0  0  0  0  0  0  0  0  0  0  0  0
  -30.4719  -15.9550   19.8862 N   0  0  0  0  0  0  0  0  0  0  0  0
  -28.6222  -26.0644   28.8824 N   0  3  0  0  0  0  0  0  0  0  0  0
  -22.6504  -12.3898   19.7840 O   0  0  0  0  0  0  0  0  0  0  0  0
  -23.0823  -29.0258   23.3385 O   0  0  0  0  0  0  0  0  0  0  0  0
  -24.1336  -29.4271   26.9341 O   0  0  0  0  0  0  0  0  0  0  0  0
  -28.1804  -27.0365   26.2792 O   0  0  0  0  0  0  0  0  0  0  0  0
  -32.2657  -14.5323   19.7642 O   0  0  0  0  0  0  0  0  0  0  0  0
  -22.4304  -15.0721   27.0877 O   0  0  0  0  0  0  0  0  0  0  0  0
  -25.4986  -23.2336   21.3096 O   0  0  0  0  0  0  0  0  0  1  0  0
  -18.2792  -11.9539   28.9448 F   0  0  0  0  0  0  0  0  0  0  0  0
  -20.1870  -14.6259   25.5351 F   0  0  0  0  0  0  0  0  0  0  0  0
  1  2  1  0  0  0  0
  1  5  2  0  0  0  0
  2  6  2  0  0  0  0
  3  8  2  0  0  0  0
  3 16  1  0  0  0  0
  4  9  1  0  0  0  0
  4 16  2  0  0  0  0
  5 18  1  0  0  0  0
  6 20  1  0  0  0  0
  7 10  2  0  0  0  0
  7 19  1  0  0  0  0
  8 23  1  0  0  0  0
  9 23  2  0  0  0  0
 10 24  1  0  0  0  0
 11 12  2  0  0  0  0
 11 25  1  0  0  0  0
 12 26  1  0  0  0  0
 13 21  1  0  0  0  0
 13 24  2  0  0  0  0
 14 22  1  0  0  0  0
 14 29  2  0  0  0  0
 15 26  2  0  0  0  0
 15 27  1  0  0  0  0
 16 28  1  0  0  0  0
 17 28  1  0  0  0  0
 17 31  2  0  0  0  0
 17 32  1  0  0  0  0
 18 20  2  0  0  0  0
 18 37  1  0  0  0  0
 19 21  2  0  0  0  0
 19 38  1  0  0  0  0
 20 46  1  0  0  0  0
 21 39  1  0  0  0  0
 22 30  2  0  0  0  0
 22 56  1  0  0  0  0
 23 85  1  0  0  0  0
 24 86  1  0  0  0  0
 25 27  2  0  0  0  0
 25 85  1  0  0  0  0
 26 87  1  0  0  0  0
 27 88  1  0  0  0  0
 28 68  2  0  0  0  0
 29 64  1  0  0  0  0
 29 69  1  0  0  0  0
 30 57  1  0  0  0  0
 30 70  1  0  0  0  0
 31 71  1  0  0  0  0
 31 74  1  0  0  0  0
 32 75  1  0  0  0  0
 32 80  2  0  0  0  0
 33 47  1  0  0  0  0
 33 76  1  0  0  0  0
 33 81  2  0  0  0  0
 34 65  1  0  0  0  0
 34 72  1  0  0  0  0
 34 82  2  0  0  0  0
 35 66  1  0  0  0  0
 35 77  1  0  0  0  0
 35 83  2  0  0  0  0
 36 73  1  0  0  0  0
 36 78  1  0  0  0  0
 36 84  2  0  0  0  0
 37 40  1  0  0  0  0
 38 47  1  0  0  0  0
 39 72  1  0  0  0  0
 40 42  1  0  0  0  0
 41 43  1  0  0  0  0
 41 44  1  0  0  0  0
 42 46  1  0  0  0  0
 43 48  1  0  0  0  0
 44 73  1  0  0  0  0
 45 48  1  0  0  0  0
 45 73  1  0  0  0  0
 46 76  1  0  0  0  0
 47 72  1  0  0  0  0
 48 71  1  0  0  0  0
 49 58  1  0  0  0  0
 50 59  1  0  0  0  0
 51 66  1  0  0  0  0
 52 67  1  0  0  0  0
 53 67  1  0  0  0  0
 54 67  1  0  0  0  0
 55 79  1  0  0  0  0
 56 60  1  0  0  0  0
 57 61  1  0  0  0  0
 58 62  1  0  0  0  0
 59 64  1  0  0  0  0
 60 62  1  0  0  0  0
 61 63  1  0  0  0  0
 63 86  1  0  0  0  0
 64 78  1  0  0  0  0
 65 67  1  0  0  0  0
 65 77  1  0  0  0  0
 66 79  1  0  0  0  0
 68 71  1  0  0  0  0
 69 70  2  0  0  0  0
M  CHG  1  79   1
M  ISO  4  36 100  63 101  78 100  86 101
M  END
> <Batch ID>
0076

> <Smiles>
CCCCCc1cc(C(CC)[100NH:0][100C:0](=O)N2CCCC(n3nc(-c4ccc(Oc5ccc(F)cc5F)cc4)c(C(N)=O)c3N)C2)nnc1CC[101CH2:1][101O:1]c1ccc2c(c1)CN(C(=O)C(NC(=O)C(C)NC)C(C)(C)C)C(C(=O)NC1CCCc3ccccc31)C2

> <Shape>
0.211

> <Color>
0.093

> <Negative vol penalty>
0.000

$$$$

  -OEChem-04052318343D

 86 94  0     1  0  0  0  0  0999 V2000
  -32.2136  -14.1489   21.4908 C   0  0  0  0  0  0  0  0  0  0  0  0
  -31.3011  -15.1721   21.7269 C   0  0  0  0  0  0  0  0  0  0  0  0
  -23.1992  -29.7927   20.7905 C   0  0  0  0  0  0  0  0  0  0  0  0
  -25.5013  -30.5186   20.6879 C   0  0  0  0  0  0  0  0  0  0  0  0
  -31.8291  -13.0300   20.7531 C   0  0  0  0  0  0  0  0  0  0  0  0
  -30.0038  -15.0776   21.2245 C   0  0  0  0  0  0  0  0  0  0  0  0
  -26.4994  -16.4001   24.6325 C   0  0  0  0  0  0  0  0  0  0  0  0
  -23.0124  -30.5487   21.9477 C   0  0  0  0  0  0  0  0  0  0  0  0
  -25.3145  -31.2746   21.8451 C   0  0  0  0  0  0  0  0  0  0  0  0
  -26.3073  -17.7634   24.8521 C   0  0  0  0  0  0  0  0  0  0  0  0
  -25.1651  -30.7314   25.1788 C   0  0  0  0  0  0  0  0  0  0  0  0
  -26.1475  -30.6583   26.1663 C   0  0  0  0  0  0  0  0  0  0  0  0
  -24.3653  -17.7139   23.4218 C   0  0  0  0  0  0  0  0  0  0  0  0
  -26.5278  -33.0356   25.9639 C   0  0  0  0  0  0  0  0  0  0  0  0
  -24.4437  -29.7776   20.1606 C   0  0  0  0  0  0  0  0  0  0  0  0
  -24.4461  -29.4158   17.6354 C   0  0  0  0  0  0  0  0  0  0  0  0
  -30.5236  -12.9173   20.2496 C   0  0  0  0  0  0  0  0  0  0  0  0
  -25.6308  -15.6845   23.7959 C   0  0  0  0  0  0  0  0  0  0  0  0
  -29.6019  -13.9568   20.4782 C   0  0  0  0  0  0  0  0  0  0  0  0
  -24.5471  -16.3411   23.1953 C   0  0  0  0  0  0  0  0  0  0  0  0
  -24.0700  -31.2897   22.4750 C   0  0  0  0  0  0  0  0  0  0  0  0
  -25.2418  -18.4212   24.2444 C   0  0  0  0  0  0  0  0  0  0  0  0
  -24.8641  -31.9566   24.5838 C   0  0  0  0  0  0  0  0  0  0  0  0
  -26.8288  -31.8104   26.5589 C   0  0  0  0  0  0  0  0  0  0  0  0
  -25.5455  -33.1087   24.9764 C   0  0  0  0  0  0  0  0  0  0  0  0
  -24.6375  -28.9964   18.9655 C   0  0  0  0  0  0  0  0  0  0  0  0
  -27.8757  -22.3680   21.6005 C   0  0  0  0  0  0  0  0  0  0  0  0
  -27.6808  -19.9429   20.5014 C   0  0  0  0  0  0  0  0  0  0  0  0
  -26.7785  -21.5684   21.8331 C   0  0  0  0  0  0  0  0  0  0  0  0
  -28.7777  -20.7428   20.2682 C   0  0  0  0  0  0  0  0  0  0  0  0
  -24.7609  -28.3134   16.8791 C   0  0  0  0  0  0  0  0  0  0  0  0
  -24.0219  -30.6882   17.1288 C   0  0  0  0  0  0  0  0  0  0  0  0
  -25.9574  -14.0722   21.0761 C   0  0  0  0  0  0  0  0  0  0  0  0
  -22.8549  -13.2954   21.6177 C   0  0  0  0  0  0  0  0  0  0  0  0
  -19.8911  -14.0798   23.1168 C   0  0  0  0  0  0  0  0  0  0  0  0
  -28.2971  -23.7034   17.9274 C   0  0  0  0  0  0  0  0  0  0  0  0
  -30.1681  -11.7106   19.4175 C   0  0  0  0  0  0  0  0  0  0  0  0
  -25.8360  -14.2087   23.5905 C   0  0  0  0  0  0  0  0  0  0  0  0
  -23.5742  -15.6141   22.3046 C   0  0  0  0  0  0  0  0  0  0  0  0
  -28.6647  -11.5153   19.2390 C   0  0  0  0  0  0  0  0  0  0  0  0
  -24.7876  -23.5307   17.0609 C   0  0  0  0  0  0  0  0  0  0  0  0
  -27.9959  -12.8340   18.8639 C   0  0  0  0  0  0  0  0  0  0  0  0
  -24.3370  -24.9678   17.3292 C   0  0  0  0  0  0  0  0  0  0  0  0
  -25.8139  -23.0715   18.0923 C   0  0  0  0  0  0  0  0  0  0  0  0
  -26.5632  -25.3883   18.4725 C   0  0  0  0  0  0  0  0  0  0  0  0
  -28.1782  -13.8795   19.9708 C   0  0  1  0  0  0  0  0  0  0  0  0
  -25.1907  -13.6881   22.3099 C   0  0  1  0  0  0  0  0  0  0  0  0
  -25.5419  -25.9195   17.4503 C   0  0  2  0  0  0  0  0  0  0  0  0
  -27.9935  -23.7229   22.2103 C   0  0  0  0  0  0  0  0  0  0  0  0
  -27.5628  -18.5879   19.8920 C   0  0  0  0  0  0  0  0  0  0  0  0
  -30.9362  -19.4675   20.1883 C   0  0  0  0  0  0  0  0  0  0  0  0
  -17.5251  -13.2750   23.3448 C   0  0  0  0  0  0  0  0  0  0  0  0
  -22.2387  -14.3193   18.8102 C   0  0  0  0  0  0  0  0  0  0  0  0
  -19.8165  -14.3827   19.4404 C   0  0  0  0  0  0  0  0  0  0  0  0
  -21.0462  -12.2123   19.4373 C   0  0  0  0  0  0  0  0  0  0  0  0
  -20.1592  -13.7609   26.0469 C   0  0  0  0  0  0  0  0  0  0  0  0
  -25.6447  -22.0264   22.7152 C   0  0  0  0  0  0  0  0  0  0  0  0
  -25.9617  -21.9586   24.2107 C   0  0  0  0  0  0  0  0  0  0  0  0
  -30.6275  -21.4448   18.6474 C   0  0  0  0  0  0  0  0  0  0  0  0
  -29.9184  -21.9082   17.3747 C   0  0  0  0  0  0  0  0  0  0  0  0
  -26.2140  -20.5409   24.7107 C   0  0  0  0  0  0  0  0  0  1  0  0
  -29.8978  -20.2904   19.3950 C   0  0  2  0  0  0  0  0  0  0  0  0
  -21.5216  -13.9037   21.2554 C   0  0  1  0  0  0  0  0  0  0  0  0
  -18.9252  -13.2443   23.9376 C   0  0  2  0  0  0  0  0  0  0  0  0
  -21.1750  -13.7189   19.7510 C   0  0  0  0  0  0  0  0  0  0  0  0
  -25.0423  -27.7265   19.0526 N   0  0  0  0  0  0  0  0  0  0  0  0
  -26.6614  -20.3413   21.2880 N   0  0  0  0  0  0  0  0  0  0  0  0
  -28.8949  -21.9697   20.8136 N   0  0  0  0  0  0  0  0  0  0  0  0
  -25.1078  -27.3385   17.7676 N   0  0  0  0  0  0  0  0  0  0  0  0
  -23.8209  -14.1732   22.1297 N   0  0  0  0  0  0  0  0  0  0  0  0
  -26.9436  -24.0102   18.1447 N   0  0  0  0  0  0  0  0  0  0  0  0
  -24.7719  -28.0925   15.5474 N   0  0  0  0  0  0  0  0  0  0  0  0
  -23.7393  -31.7113   18.0441 N   0  0  0  0  0  0  0  0  0  0  0  0
  -27.2643  -13.6235   21.0633 N   0  0  0  0  0  0  0  0  0  0  0  0
  -20.5452  -13.3209   22.1695 N   0  0  0  0  0  0  0  0  0  0  0  0
  -28.5736  -22.3748   17.6291 N   0  0  0  0  0  0  0  0  0  0  0  0
  -18.8552  -13.7570   25.3352 N   0  3  0  0  0  0  0  0  0  0  0  0
  -23.8812  -30.9064   15.9016 O   0  0  0  0  0  0  0  0  0  0  0  0
  -25.4038  -14.7258   20.1997 O   0  0  0  0  0  0  0  0  0  0  0  0
  -23.0303  -12.0847   21.4592 O   0  0  0  0  0  0  0  0  0  0  0  0
  -20.0467  -15.2858   23.2956 O   0  0  0  0  0  0  0  0  0  0  0  0
  -29.1931  -24.5522   17.9893 O   0  0  0  0  0  0  0  0  0  0  0  0
  -23.8880  -32.0277   23.6041 O   0  0  0  0  0  0  0  0  0  0  0  0
  -25.0524  -19.7520   24.4565 O   0  0  0  0  0  0  0  0  0  1  0  0
  -27.7711  -31.7403   27.5083 F   0  0  0  0  0  0  0  0  0  0  0  0
  -25.2599  -34.2888   24.4092 F   0  0  0  0  0  0  0  0  0  0  0  0
  1  2  1  0  0  0  0
  1  5  2  0  0  0  0
  2  6  2  0  0  0  0
  3  8  2  0  0  0  0
  3 15  1  0  0  0  0
  4  9  1  0  0  0  0
  4 15  2  0  0  0  0
  5 17  1  0  0  0  0
  6 19  1  0  0  0  0
  7 10  2  0  0  0  0
  7 18  1  0  0  0  0
  8 21  1  0  0  0  0
  9 21  2  0  0  0  0
 10 22  1  0  0  0  0
 11 12  2  0  0  0  0
 11 23  1  0  0  0  0
 12 24  1  0  0  0  0
 13 20  1  0  0  0  0
 13 22  2  0  0  0  0
 14 24  2  0  0  0  0
 14 25  1  0  0  0  0
 15 26  1  0  0  0  0
 16 26  1  0  0  0  0
 16 31  2  0  0  0  0
 16 32  1  0  0  0  0
 17 19  2  0  0  0  0
 17 37  1  0  0  0  0
 18 20  2  0  0  0  0
 18 38  1  0  0  0  0
 19 46  1  0  0  0  0
 20 39  1  0  0  0  0
 21 83  1  0  0  0  0
 22 84  1  0  0  0  0
 23 25  2  0  0  0  0
 23 83  1  0  0  0  0
 24 85  1  0  0  0  0
 25 86  1  0  0  0  0
 26 66  2  0  0  0  0
 27 29  2  0  0  0  0
 27 49  1  0  0  0  0
 27 68  1  0  0  0  0
 28 30  1  0  0  0  0
 28 50  1  0  0  0  0
 28 67  2  0  0  0  0
 29 57  1  0  0  0  0
 29 67  1  0  0  0  0
 30 62  1  0  0  0  0
 30 68  2  0  0  0  0
 31 69  1  0  0  0  0
 31 72  1  0  0  0  0
 32 73  1  0  0  0  0
 32 78  2  0  0  0  0
 33 47  1  0  0  0  0
 33 74  1  0  0  0  0
 33 79  2  0  0  0  0
 34 63  1  0  0  0  0
 34 70  1  0  0  0  0
 34 80  2  0  0  0  0
 35 64  1  0  0  0  0
 35 75  1  0  0  0  0
 35 81  2  0  0  0  0
 36 71  1  0  0  0  0
 36 76  1  0  0  0  0
 36 82  2  0  0  0  0
 37 40  1  0  0  0  0
 38 47  1  0  0  0  0
 39 70  1  0  0  0  0
 40 42  1  0  0  0  0
 41 43  1  0  0  0  0
 41 44  1  0  0  0  0
 42 46  1  0  0  0  0
 43 48  1  0  0  0  0
 44 71  1  0  0  0  0
 45 48  1  0  0  0  0
 45 71  1  0  0  0  0
 46 74  1  0  0  0  0
 47 70  1  0  0  0  0
 48 69  1  0  0  0  0
 51 62  1  0  0  0  0
 52 64  1  0  0  0  0
 53 65  1  0  0  0  0
 54 65  1  0  0  0  0
 55 65  1  0  0  0  0
 56 77  1  0  0  0  0
 57 58  1  0  0  0  0
 58 61  1  0  0  0  0
 59 60  1  0  0  0  0
 59 62  1  0  0  0  0
 60 76  1  0  0  0  0
 61 84  1  0  0  0  0
 63 65  1  0  0  0  0
 63 75  1  0  0  0  0
 64 77  1  0  0  0  0
 66 69  1  0  0  0  0
M  CHG  1  77   1
M  ISO  4  36 100  61 101  76 100  84 101
M  END
> <Batch ID>
0076

> <Smiles>
CNC(C)C(=O)NC(C(=O)N1Cc2cc([101O:1][101CH2:1]CCc3nc(C)c(C(C)CC[100NH:0][100C:0](=O)N4CCCC(n5nc(-c6ccc(Oc7ccc(F)cc7F)cc6)c(C(N)=O)c5N)C4)nc3C)ccc2CC1C(=O)NC1CCCc2ccccc21)C(C)(C)C

> <Shape>
0.251

> <Color>
0.063

> <Negative vol penalty>
0.000

$$$$

  -OEChem-04052318343D

 85 93  0     1  0  0  0  0  0999 V2000
  -28.1090  -24.4315   17.2142 C   0  0  0  0  0  0  0  0  0  0  0  0
  -26.9221  -24.6699   17.8996 C   0  0  0  0  0  0  0  0  0  0  0  0
  -24.2170  -12.0272   21.1540 C   0  0  0  0  0  0  0  0  0  0  0  0
  -25.3469  -13.9510   20.2270 C   0  0  0  0  0  0  0  0  0  0  0  0
  -29.3062  -24.9654   17.6892 C   0  0  0  0  0  0  0  0  0  0  0  0
  -26.9318  -25.4415   19.0610 C   0  0  0  0  0  0  0  0  0  0  0  0
  -23.1664  -28.8258   19.1768 C   0  0  0  0  0  0  0  0  0  0  0  0
  -25.2006  -11.1933   20.6223 C   0  0  0  0  0  0  0  0  0  0  0  0
  -26.3305  -13.1170   19.6953 C   0  0  0  0  0  0  0  0  0  0  0  0
  -21.8970  -28.3548   19.5090 C   0  0  0  0  0  0  0  0  0  0  0  0
  -29.0721  -11.4809   20.8033 C   0  0  0  0  0  0  0  0  0  0  0  0
  -30.4025  -11.8705   20.9574 C   0  0  0  0  0  0  0  0  0  0  0  0
  -22.1947  -29.1602   21.7633 C   0  0  0  0  0  0  0  0  0  0  0  0
  -30.6662  -11.9198   18.5563 C   0  0  0  0  0  0  0  0  0  0  0  0
  -21.0694  -23.7443   22.0787 C   0  0  0  0  0  0  0  0  0  0  0  0
  -24.2901  -13.4061   20.9563 C   0  0  0  0  0  0  0  0  0  0  0  0
  -23.2722  -14.8802   22.7724 C   0  0  0  0  0  0  0  0  0  0  0  0
  -29.3292  -25.7520   18.8517 C   0  0  0  0  0  0  0  0  0  0  0  0
  -23.9652  -29.4589   20.1398 C   0  0  0  0  0  0  0  0  0  0  0  0
  -28.1307  -25.9853   19.5528 C   0  0  0  0  0  0  0  0  0  0  0  0
  -23.4729  -29.6406   21.4401 C   0  0  0  0  0  0  0  0  0  0  0  0
  -26.2574  -11.7382   19.8930 C   0  0  0  0  0  0  0  0  0  0  0  0
  -21.4120  -28.5193   20.8032 C   0  0  0  0  0  0  0  0  0  0  0  0
  -28.5387  -11.3107   19.5256 C   0  0  0  0  0  0  0  0  0  0  0  0
  -31.1996  -12.0900   19.8339 C   0  0  0  0  0  0  0  0  0  0  0  0
  -29.3358  -11.5302   18.4022 C   0  0  0  0  0  0  0  0  0  0  0  0
  -23.2740  -14.2680   21.5047 C   0  0  0  0  0  0  0  0  0  0  0  0
  -21.4992  -22.8947   23.0587 C   0  0  0  0  0  0  0  0  0  0  0  0
  -22.0966  -15.5895   22.8094 C   0  0  0  0  0  0  0  0  0  0  0  0
  -19.7176  -21.9915   22.1045 C   0  0  0  0  0  0  0  0  0  0  0  0
  -24.2460  -14.8137   23.8226 C   0  0  0  0  0  0  0  0  0  0  0  0
  -26.7896  -28.8489   21.4644 C   0  0  0  0  0  0  0  0  0  0  0  0
  -26.3396  -31.7561   22.8311 C   0  0  0  0  0  0  0  0  0  0  0  0
  -24.1553  -34.1765   23.8396 C   0  0  0  0  0  0  0  0  0  0  0  0
  -18.3923  -18.9995   20.4019 C   0  0  0  0  0  0  0  0  0  0  0  0
  -30.6547  -26.2683   19.3528 C   0  0  0  0  0  0  0  0  0  0  0  0
  -25.3217  -29.9852   19.7585 C   0  0  0  0  0  0  0  0  0  0  0  0
  -24.2828  -30.3317   22.5054 C   0  0  0  0  0  0  0  0  0  0  0  0
  -30.5226  -27.3867   20.3833 C   0  0  0  0  0  0  0  0  0  0  0  0
  -18.1108  -15.5212   19.6956 C   0  0  0  0  0  0  0  0  0  0  0  0
  -29.4810  -27.0219   21.4364 C   0  0  0  0  0  0  0  0  0  0  0  0
  -19.4308  -14.9371   20.2020 C   0  0  0  0  0  0  0  0  0  0  0  0
  -18.3051  -16.9056   19.0811 C   0  0  0  0  0  0  0  0  0  0  0  0
  -20.3122  -17.2944   20.4574 C   0  0  0  0  0  0  0  0  0  0  0  0
  -28.0968  -26.8379   20.8026 C   0  0  1  0  0  0  0  0  0  0  0  0
  -26.2538  -30.1566   20.9540 C   0  0  1  0  0  0  0  0  0  0  0  0
  -20.1583  -15.9226   21.1363 C   0  0  2  0  0  0  0  0  0  0  0  0
  -22.6221  -22.9864   23.9954 C   0  0  0  0  0  0  0  0  0  0  0  0
  -17.6725  -20.8021   22.9789 C   0  0  0  0  0  0  0  0  0  0  0  0
  -24.0818  -36.4216   24.9584 C   0  0  0  0  0  0  0  0  0  0  0  0
  -26.8333  -30.4240   25.5314 C   0  0  0  0  0  0  0  0  0  0  0  0
  -25.8300  -32.4377   26.6299 C   0  0  0  0  0  0  0  0  0  0  0  0
  -27.9045  -32.6680   25.2638 C   0  0  0  0  0  0  0  0  0  0  0  0
  -17.3569  -25.2243   19.4450 C   0  0  0  0  0  0  0  0  0  0  0  0
  -17.0864  -24.3184   21.7452 C   0  0  0  0  0  0  0  0  0  0  0  0
  -22.9368  -35.4505   21.4624 C   0  0  0  0  0  0  0  0  0  0  0  0
  -18.7734  -26.1259   21.3457 C   0  0  0  0  0  0  0  0  0  0  0  0
  -19.1612  -23.7514   20.3693 C   0  0  0  0  0  0  0  0  0  0  0  0
  -19.6974  -26.9159   20.4226 C   0  0  0  0  0  0  0  0  0  1  0  0
  -18.6194  -21.0437   21.7907 C   0  0  2  0  0  0  0  0  0  0  0  0
  -25.6968  -32.2509   24.1043 C   0  0  1  0  0  0  0  0  0  0  0  0
  -24.1522  -35.6804   23.6323 C   0  0  2  0  0  0  0  0  0  0  0  0
  -26.5514  -31.9304   25.3630 C   0  0  0  0  0  0  0  0  0  0  0  0
  -18.1232  -24.8555   20.7348 C   0  0  0  0  0  0  0  0  0  0  0  0
  -22.1859  -14.5625   20.7883 N   0  0  0  0  0  0  0  0  0  0  0  0
  -19.9662  -23.1601   21.5045 N   0  0  0  0  0  0  0  0  0  0  0  0
  -21.4893  -15.3675   21.6085 N   0  0  0  0  0  0  0  0  0  0  0  0
  -20.6444  -21.8189   23.0525 N   0  3  0  0  0  0  0  0  0  0  0  0
  -25.6055  -30.8231   22.0852 N   0  0  0  0  0  0  0  0  0  0  0  0
  -18.9990  -17.7921   20.0184 N   0  0  0  0  0  0  0  0  0  0  0  0
  -21.5334  -16.3753   23.7517 N   0  0  0  0  0  0  0  0  0  0  0  0
  -25.3962  -14.0392   23.6191 N   0  0  0  0  0  0  0  0  0  0  0  0
  -27.4941  -28.1235   20.5226 N   0  0  0  0  0  0  0  0  0  0  0  0
  -25.4371  -33.6726   23.9047 N   0  0  0  0  0  0  0  0  0  0  0  0
  -19.1147  -19.7776   21.2982 N   0  0  0  0  0  0  0  0  0  0  0  0
  -22.9817  -36.0867   22.8041 N   0  3  0  0  0  0  0  0  0  0  0  0
  -24.0928  -15.4099   24.9156 O   0  0  0  0  0  0  0  0  0  0  0  0
  -26.5806  -28.5229   22.6270 O   0  0  0  0  0  0  0  0  0  0  0  0
  -27.4489  -32.1871   22.5066 O   0  0  0  0  0  0  0  0  0  0  0  0
  -23.1238  -33.5156   23.9380 O   0  0  0  0  0  0  0  0  0  0  0  0
  -17.2862  -19.3550   19.9811 O   0  0  0  0  0  0  0  0  0  0  0  0
  -27.2175  -10.9247   19.3743 O   0  0  0  0  0  0  0  0  0  0  0  0
  -20.1736  -28.0599   21.1303 O   0  0  0  0  0  0  0  0  0  1  0  0
  -32.4768  -12.4656   19.9821 F   0  0  0  0  0  0  0  0  0  0  0  0
  -28.8286  -11.3695   17.1722 F   0  0  0  0  0  0  0  0  0  0  0  0
  1  2  1  0  0  0  0
  1  5  2  0  0  0  0
  2  6  2  0  0  0  0
  3  8  2  0  0  0  0
  3 16  1  0  0  0  0
  4  9  1  0  0  0  0
  4 16  2  0  0  0  0
  5 18  1  0  0  0  0
  6 20  1  0  0  0  0
  7 10  2  0  0  0  0
  7 19  1  0  0  0  0
  8 22  1  0  0  0  0
  9 22  2  0  0  0  0
 10 23  1  0  0  0  0
 11 12  2  0  0  0  0
 11 24  1  0  0  0  0
 12 25  1  0  0  0  0
 13 21  1  0  0  0  0
 13 23  2  0  0  0  0
 14 25  2  0  0  0  0
 14 26  1  0  0  0  0
 15 28  2  0  0  0  0
 15 66  1  0  0  0  0
 16 27  1  0  0  0  0
 17 27  1  0  0  0  0
 17 29  2  0  0  0  0
 17 31  1  0  0  0  0
 18 20  2  0  0  0  0
 18 36  1  0  0  0  0
 19 21  2  0  0  0  0
 19 37  1  0  0  0  0
 20 45  1  0  0  0  0
 21 38  1  0  0  0  0
 22 82  1  0  0  0  0
 23 83  1  0  0  0  0
 24 26  2  0  0  0  0
 24 82  1  0  0  0  0
 25 84  1  0  0  0  0
 26 85  1  0  0  0  0
 27 65  2  0  0  0  0
 28 48  1  0  0  0  0
 28 68  1  0  0  0  0
 29 67  1  0  0  0  0
 29 71  1  0  0  0  0
 30 60  1  0  0  0  0
 30 66  1  0  0  0  0
 30 68  2  0  0  0  0
 31 72  1  0  0  0  0
 31 77  2  0  0  0  0
 32 46  1  0  0  0  0
 32 73  1  0  0  0  0
 32 78  2  0  0  0  0
 33 61  1  0  0  0  0
 33 69  1  0  0  0  0
 33 79  2  0  0  0  0
 34 62  1  0  0  0  0
 34 74  1  0  0  0  0
 34 80  2  0  0  0  0
 35 70  1  0  0  0  0
 35 75  1  0  0  0  0
 35 81  2  0  0  0  0
 36 39  1  0  0  0  0
 37 46  1  0  0  0  0
 38 69  1  0  0  0  0
 39 41  1  0  0  0  0
 40 42  1  0  0  0  0
 40 43  1  0  0  0  0
 41 45  1  0  0  0  0
 42 47  1  0  0  0  0
 43 70  1  0  0  0  0
 44 47  1  0  0  0  0
 44 70  1  0  0  0  0
 45 73  1  0  0  0  0
 46 69  1  0  0  0  0
 47 67  1  0  0  0  0
 49 60  1  0  0  0  0
 50 62  1  0  0  0  0
 51 63  1  0  0  0  0
 52 63  1  0  0  0  0
 53 63  1  0  0  0  0
 54 64  1  0  0  0  0
 55 64  1  0  0  0  0
 56 76  1  0  0  0  0
 57 59  1  0  0  0  0
 57 64  1  0  0  0  0
 58 64  1  0  0  0  0
 58 66  1  0  0  0  0
 59 83  1  0  0  0  0
 60 75  1  0  0  0  0
 61 63  1  0  0  0  0
 61 74  1  0  0  0  0
 62 76  1  0  0  0  0
 65 67  1  0  0  0  0
M  CHG  2  68   1  76   1
M  ISO  4  35 100  59 101  75 100  83 101
M  END
> <Batch ID>
0076

> <Smiles>
CNC(C)C(=O)NC(C(=O)N1Cc2cc([101O:1][101CH2:1]CC(C)(C)Cn3cc(C)nc3C(C)[100NH:0][100C:0](=O)N3CCCC(n4nc(-c5ccc(Oc6ccc(F)cc6F)cc5)c(C(N)=O)c4N)C3)ccc2CC1C(=O)NC1CCCc2ccccc21)C(C)(C)C

> <Shape>
0.278

> <Color>
0.091

> <Negative vol penalty>
0.000

$$$$

  -OEChem-04052318343D

 88 96  0     1  0  0  0  0  0999 V2000
  -17.5398  -29.0368   23.2559 C   0  0  0  0  0  0  0  0  0  0  0  0
  -17.1426  -27.9611   22.4682 C   0  0  0  0  0  0  0  0  0  0  0  0
  -28.4040  -23.0211   19.8943 C   0  0  0  0  0  0  0  0  0  0  0  0
  -30.4029  -22.1247   18.8755 C   0  0  0  0  0  0  0  0  0  0  0  0
  -18.8932  -29.2452   23.5180 C   0  0  0  0  0  0  0  0  0  0  0  0
  -18.0988  -27.0937   21.9412 C   0  0  0  0  0  0  0  0  0  0  0  0
  -19.0295  -20.2112   20.1860 C   0  0  0  0  0  0  0  0  0  0  0  0
  -28.9537  -24.3021   19.8460 C   0  0  0  0  0  0  0  0  0  0  0  0
  -30.9526  -23.4057   18.8271 C   0  0  0  0  0  0  0  0  0  0  0  0
  -19.4396  -19.4188   19.1147 C   0  0  0  0  0  0  0  0  0  0  0  0
  -31.2016  -26.1152   21.6020 C   0  0  0  0  0  0  0  0  0  0  0  0
  -31.0844  -26.9133   22.7399 C   0  0  0  0  0  0  0  0  0  0  0  0
  -21.7434  -19.8312   19.6995 C   0  0  0  0  0  0  0  0  0  0  0  0
  -29.8602  -28.5573   21.4609 C   0  0  0  0  0  0  0  0  0  0  0  0
  -24.0887  -13.0002   21.2753 C   0  0  0  0  0  0  0  0  0  0  0  0
  -29.1285  -21.9323   19.4091 C   0  0  0  0  0  0  0  0  0  0  0  0
  -27.7774  -19.9818   18.4723 C   0  0  0  0  0  0  0  0  0  0  0  0
  -19.8658  -28.3743   23.0019 C   0  0  0  0  0  0  0  0  0  0  0  0
  -19.9749  -20.8294   21.0170 C   0  0  0  0  0  0  0  0  0  0  0  0
  -19.4666  -27.2914   22.1955 C   0  0  0  0  0  0  0  0  0  0  0  0
  -21.3426  -20.6289   20.7822 C   0  0  0  0  0  0  0  0  0  0  0  0
  -30.2281  -24.4944   19.3124 C   0  0  0  0  0  0  0  0  0  0  0  0
  -20.7968  -19.2311   18.8696 C   0  0  0  0  0  0  0  0  0  0  0  0
  -30.6482  -26.5382   20.3935 C   0  0  0  0  0  0  0  0  0  0  0  0
  -30.4137  -28.1343   22.6694 C   0  0  0  0  0  0  0  0  0  0  0  0
  -29.9775  -27.7592   20.3229 C   0  0  0  0  0  0  0  0  0  0  0  0
  -28.5614  -20.6087   19.4593 C   0  0  0  0  0  0  0  0  0  0  0  0
  -24.6959  -11.7614   21.3065 C   0  0  0  0  0  0  0  0  0  0  0  0
  -24.6915  -13.9403   20.4646 C   0  0  0  0  0  0  0  0  0  0  0  0
  -27.4907  -18.7449   18.9960 C   0  0  0  0  0  0  0  0  0  0  0  0
  -26.2986  -12.4544   19.8511 C   0  0  0  0  0  0  0  0  0  0  0  0
  -27.3470  -20.4736   17.1961 C   0  0  0  0  0  0  0  0  0  0  0  0
  -20.7011  -23.8391   21.7368 C   0  0  0  0  0  0  0  0  0  0  0  0
  -22.7081  -22.4359   23.8642 C   0  0  0  0  0  0  0  0  0  0  0  0
  -24.5247  -19.6878   24.7554 C   0  0  0  0  0  0  0  0  0  0  0  0
  -29.0708  -14.1023   21.6596 C   0  0  0  0  0  0  0  0  0  0  0  0
  -21.3201  -28.6675   23.2734 C   0  0  0  0  0  0  0  0  0  0  0  0
  -19.5160  -21.6594   22.1845 C   0  0  0  0  0  0  0  0  0  0  0  0
  -22.3974  -21.2540   21.6569 C   0  0  0  0  0  0  0  0  0  0  0  0
  -22.2434  -27.4861   22.9869 C   0  0  0  0  0  0  0  0  0  0  0  0
  -28.1684  -16.9064   23.6594 C   0  0  0  0  0  0  0  0  0  0  0  0
  -21.9055  -26.8593   21.6379 C   0  0  0  0  0  0  0  0  0  0  0  0
  -28.1317  -18.0682   22.6650 C   0  0  0  0  0  0  0  0  0  0  0  0
  -29.2851  -15.9178   23.3313 C   0  0  0  0  0  0  0  0  0  0  0  0
  -29.2348  -16.5664   20.9542 C   0  0  0  0  0  0  0  0  0  0  0  0
  -20.4722  -26.3142   21.6264 C   0  0  1  0  0  0  0  0  0  0  0  0
  -20.5674  -22.6588   22.6570 C   0  0  1  0  0  0  0  0  0  0  0  0
  -28.0895  -17.5607   21.2110 C   0  0  2  0  0  0  0  0  0  0  0  0
  -24.1159  -10.6794   22.1545 C   0  0  0  0  0  0  0  0  0  0  0  0
  -26.0947  -18.8538   26.5266 C   0  0  0  0  0  0  0  0  0  0  0  0
  -27.6724  -12.9486   17.7145 C   0  0  0  0  0  0  0  0  0  0  0  0
  -27.5386  -10.6464   18.6300 C   0  0  0  0  0  0  0  0  0  0  0  0
  -24.9571  -24.1046   22.6529 C   0  0  0  0  0  0  0  0  0  0  0  0
  -26.5972  -22.5760   23.7673 C   0  0  0  0  0  0  0  0  0  0  0  0
  -25.0172  -23.9263   25.1467 C   0  0  0  0  0  0  0  0  0  0  0  0
  -20.0483  -16.4926   18.5544 C   0  0  0  0  0  0  0  0  0  0  0  0
  -21.7899  -16.4093   16.7585 C   0  0  0  0  0  0  0  0  0  0  0  0
  -22.6835  -17.5010   25.5214 C   0  0  0  0  0  0  0  0  0  0  0  0
  -24.0994  -15.3234   20.3639 C   0  0  0  0  0  0  0  0  0  0  0  0
  -23.0589  -15.4726   19.2462 C   0  0  0  0  0  0  0  0  0  0  0  0
  -22.4555  -16.8842   19.1777 C   0  0  0  0  0  0  0  0  0  0  0  0
  -28.8459  -12.3985   19.8692 C   0  0  0  0  0  0  0  0  0  0  0  0
  -24.1390  -21.9562   23.8280 C   0  0  1  0  0  0  0  0  0  0  0  0
  -24.6458  -18.9444   26.0735 C   0  0  2  0  0  0  0  0  0  0  0  0
  -27.5239  -12.1508   19.0571 C   0  0  0  0  0  0  0  0  0  0  0  0
  -25.1580  -23.1304   23.8309 C   0  0  0  0  0  0  0  0  0  0  0  0
  -21.3869  -17.0671   18.0790 C   0  0  0  0  0  0  0  0  0  1  0  0
  -28.7599  -19.8341   20.5291 N   0  0  0  0  0  0  0  0  0  0  0  0
  -25.8059  -11.4528   20.6044 N   0  0  0  0  0  0  0  0  0  0  0  0
  -25.8015  -13.7007   19.7361 N   0  0  0  0  0  0  0  0  0  0  0  0
  -28.0965  -18.7077   20.2174 N   0  0  0  0  0  0  0  0  0  0  0  0
  -21.8987  -22.0620   22.7821 N   0  0  0  0  0  0  0  0  0  0  0  0
  -29.1870  -15.4740   21.9387 N   0  0  0  0  0  0  0  0  0  0  0  0
  -26.7820  -17.6963   18.5263 N   0  0  0  0  0  0  0  0  0  0  0  0
  -27.7310  -21.7662   16.8141 N   0  0  0  0  0  0  0  0  0  0  0  0
  -20.4060  -25.0515   22.3304 N   0  0  0  0  0  0  0  0  0  0  0  0
  -24.2883  -21.0326   24.9474 N   0  0  0  0  0  0  0  0  0  0  0  0
  -28.9767  -13.7680   20.3142 N   0  0  0  0  0  0  0  0  0  0  0  0
  -24.1079  -17.5611   25.9392 N   0  3  0  0  0  0  0  0  0  0  0  0
  -26.6290  -19.7932   16.4247 O   0  0  0  0  0  0  0  0  0  0  0  0
  -21.0479  -23.6630   20.5747 O   0  0  0  0  0  0  0  0  0  0  0  0
  -22.3208  -23.1115   24.8209 O   0  0  0  0  0  0  0  0  0  0  0  0
  -24.6330  -19.1318   23.6647 O   0  0  0  0  0  0  0  0  0  0  0  0
  -29.0470  -13.2398   22.5442 O   0  0  0  0  0  0  0  0  0  0  0  0
  -30.7647  -25.7443   19.2648 O   0  0  0  0  0  0  0  0  0  0  0  0
  -21.1998  -18.4587   17.8242 O   0  0  0  0  0  0  0  0  0  1  0  0
  -30.2999  -28.8999   23.7626 F   0  0  0  0  0  0  0  0  0  0  0  0
  -29.4427  -28.1702   19.1650 F   0  0  0  0  0  0  0  0  0  0  0  0
  1  2  1  0  0  0  0
  1  5  2  0  0  0  0
  2  6  2  0  0  0  0
  3  8  2  0  0  0  0
  3 16  1  0  0  0  0
  4  9  1  0  0  0  0
  4 16  2  0  0  0  0
  5 18  1  0  0  0  0
  6 20  1  0  0  0  0
  7 10  2  0  0  0  0
  7 19  1  0  0  0  0
  8 22  1  0  0  0  0
  9 22  2  0  0  0  0
 10 23  1  0  0  0  0
 11 12  2  0  0  0  0
 11 24  1  0  0  0  0
 12 25  1  0  0  0  0
 13 21  1  0  0  0  0
 13 23  2  0  0  0  0
 14 25  2  0  0  0  0
 14 26  1  0  0  0  0
 15 28  2  0  0  0  0
 15 29  1  0  0  0  0
 16 27  1  0  0  0  0
 17 27  1  0  0  0  0
 17 30  2  0  0  0  0
 17 32  1  0  0  0  0
 18 20  2  0  0  0  0
 18 37  1  0  0  0  0
 19 21  2  0  0  0  0
 19 38  1  0  0  0  0
 20 46  1  0  0  0  0
 21 39  1  0  0  0  0
 22 85  1  0  0  0  0
 23 86  1  0  0  0  0
 24 26  2  0  0  0  0
 24 85  1  0  0  0  0
 25 87  1  0  0  0  0
 26 88  1  0  0  0  0
 27 68  2  0  0  0  0
 28 49  1  0  0  0  0
 28 69  1  0  0  0  0
 29 59  1  0  0  0  0
 29 70  2  0  0  0  0
 30 71  1  0  0  0  0
 30 74  1  0  0  0  0
 31 65  1  0  0  0  0
 31 69  2  0  0  0  0
 31 70  1  0  0  0  0
 32 75  1  0  0  0  0
 32 80  2  0  0  0  0
 33 47  1  0  0  0  0
 33 76  1  0  0  0  0
 33 81  2  0  0  0  0
 34 63  1  0  0  0  0
 34 72  1  0  0  0  0
 34 82  2  0  0  0  0
 35 64  1  0  0  0  0
 35 77  1  0  0  0  0
 35 83  2  0  0  0  0
 36 73  1  0  0  0  0
 36 78  1  0  0  0  0
 36 84  2  0  0  0  0
 37 40  1  0  0  0  0
 38 47  1  0  0  0  0
 39 72  1  0  0  0  0
 40 42  1  0  0  0  0
 41 43  1  0  0  0  0
 41 44  1  0  0  0  0
 42 46  1  0  0  0  0
 43 48  1  0  0  0  0
 44 73  1  0  0  0  0
 45 48  1  0  0  0  0
 45 73  1  0  0  0  0
 46 76  1  0  0  0  0
 47 72  1  0  0  0  0
 48 71  1  0  0  0  0
 50 64  1  0  0  0  0
 51 65  1  0  0  0  0
 52 65  1  0  0  0  0
 53 66  1  0  0  0  0
 54 66  1  0  0  0  0
 55 66  1  0  0  0  0
 56 67  1  0  0  0  0
 57 67  1  0  0  0  0
 58 79  1  0  0  0  0
 59 60  1  0  0  0  0
 60 61  1  0  0  0  0
 61 67  1  0  0  0  0
 62 65  1  0  0  0  0
 62 78  1  0  0  0  0
 63 66  1  0  0  0  0
 63 77  1  0  0  0  0
 64 79  1  0  0  0  0
 67 86  1  0  0  0  0
 68 71  1  0  0  0  0
M  CHG  1  79   1
M  ISO  4  36 100  67 101  78 100  86 101
M  END
> <Batch ID>
0076

> <Smiles>
CNC(C)C(=O)NC(C(=O)N1Cc2cc([101O:1][101C:1](C)(C)CCCc3cc(C)nc(C(C)(C)C[100NH:0][100C:0](=O)N4CCCC(n5nc(-c6ccc(Oc7ccc(F)cc7F)cc6)c(C(N)=O)c5N)C4)n3)ccc2CC1C(=O)NC1CCCc2ccccc21)C(C)(C)C

> <Shape>
0.235

> <Color>
0.068

> <Negative vol penalty>
0.000

$$$$

  -OEChem-04052318343D

 88 96  0     1  0  0  0  0  0999 V2000
  -19.4448  -26.9650   16.4213 C   0  0  0  0  0  0  0  0  0  0  0  0
  -20.5825  -26.8487   17.2118 C   0  0  0  0  0  0  0  0  0  0  0  0
  -24.9794  -12.8646   21.9379 C   0  0  0  0  0  0  0  0  0  0  0  0
  -26.0120  -13.2371   19.7857 C   0  0  0  0  0  0  0  0  0  0  0  0
  -18.9800  -28.2269   16.0569 C   0  0  0  0  0  0  0  0  0  0  0  0
  -21.2489  -27.9943   17.6482 C   0  0  0  0  0  0  0  0  0  0  0  0
  -24.9258  -27.3566   20.8540 C   0  0  0  0  0  0  0  0  0  0  0  0
  -24.1860  -11.8603   21.3835 C   0  0  0  0  0  0  0  0  0  0  0  0
  -25.2186  -12.2327   19.2312 C   0  0  0  0  0  0  0  0  0  0  0  0
  -26.1539  -26.8048   20.4923 C   0  0  0  0  0  0  0  0  0  0  0  0
  -24.5362   -8.6187   20.4875 C   0  0  0  0  0  0  0  0  0  0  0  0
  -24.4096   -7.4257   21.1990 C   0  0  0  0  0  0  0  0  0  0  0  0
  -27.1417  -29.0055   20.5120 C   0  0  0  0  0  0  0  0  0  0  0  0
  -22.0197   -7.7557   21.3271 C   0  0  0  0  0  0  0  0  0  0  0  0
  -33.7617  -20.7940   19.1012 C   0  0  0  0  0  0  0  0  0  0  0  0
  -25.8924  -13.5531   21.1390 C   0  0  0  0  0  0  0  0  0  0  0  0
  -27.9840  -14.4444   22.2958 C   0  0  0  0  0  0  0  0  0  0  0  0
  -19.6488  -29.3877   16.4790 C   0  0  0  0  0  0  0  0  0  0  0  0
  -24.7936  -28.7406   21.0371 C   0  0  0  0  0  0  0  0  0  0  0  0
  -20.7816  -29.2774   17.3109 C   0  0  0  0  0  0  0  0  0  0  0  0
  -25.9114  -29.5721   20.8786 C   0  0  0  0  0  0  0  0  0  0  0  0
  -24.3056  -11.5443   20.0302 C   0  0  0  0  0  0  0  0  0  0  0  0
  -27.2615  -27.6296   20.3184 C   0  0  0  0  0  0  0  0  0  0  0  0
  -23.4045   -9.3803   20.1959 C   0  0  0  0  0  0  0  0  0  0  0  0
  -23.1514   -6.9941   21.6187 C   0  0  0  0  0  0  0  0  0  0  0  0
  -22.1463   -8.9488   20.6157 C   0  0  0  0  0  0  0  0  0  0  0  0
  -26.7119  -14.5910   21.7111 C   0  0  0  0  0  0  0  0  0  0  0  0
  -33.8341  -19.6881   19.9003 C   0  0  0  0  0  0  0  0  0  0  0  0
  -28.3328  -15.7155   22.6822 C   0  0  0  0  0  0  0  0  0  0  0  0
  -32.2379  -21.0010   20.6934 C   0  0  0  0  0  0  0  0  0  0  0  0
  -28.7794  -13.2649   22.4738 C   0  0  0  0  0  0  0  0  0  0  0  0
  -23.0877  -31.0344   19.6471 C   0  0  0  0  0  0  0  0  0  0  0  0
  -24.3279  -32.8595   22.0247 C   0  0  0  0  0  0  0  0  0  0  0  0
  -26.8196  -33.3441   24.3057 C   0  0  0  0  0  0  0  0  0  0  0  0
  -28.6822  -21.1902   21.6571 C   0  0  0  0  0  0  0  0  0  0  0  0
  -19.0978  -30.7285   16.0619 C   0  0  0  0  0  0  0  0  0  0  0  0
  -23.4682  -29.3173   21.4534 C   0  0  0  0  0  0  0  0  0  0  0  0
  -25.8269  -31.0619   21.0831 C   0  0  0  0  0  0  0  0  0  0  0  0
  -20.1142  -31.8574   16.1983 C   0  0  0  0  0  0  0  0  0  0  0  0
  -25.5864  -19.9571   22.9112 C   0  0  0  0  0  0  0  0  0  0  0  0
  -20.7580  -31.8135   17.5760 C   0  0  0  0  0  0  0  0  0  0  0  0
  -25.7059  -18.4403   22.7531 C   0  0  0  0  0  0  0  0  0  0  0  0
  -26.2562  -20.6993   21.7568 C   0  0  0  0  0  0  0  0  0  0  0  0
  -27.7798  -18.8051   21.3515 C   0  0  0  0  0  0  0  0  0  0  0  0
  -21.5404  -30.5087   17.7719 C   0  0  1  0  0  0  0  0  0  0  0  0
  -23.3266  -30.7973   21.1115 C   0  0  1  0  0  0  0  0  0  0  0  0
  -27.1680  -18.0142   22.5204 C   0  0  2  0  0  0  0  0  0  0  0  0
  -34.1134  -17.3645   19.0006 C   0  0  0  0  0  0  0  0  0  0  0  0
  -31.5602  -21.7362   23.0090 C   0  0  0  0  0  0  0  0  0  0  0  0
  -27.5797  -34.9447   26.0827 C   0  0  0  0  0  0  0  0  0  0  0  0
  -25.2919  -34.7915   19.8688 C   0  0  0  0  0  0  0  0  0  0  0  0
  -26.8160  -35.8186   21.5689 C   0  0  0  0  0  0  0  0  0  0  0  0
  -24.3454  -35.8900   21.9064 C   0  0  0  0  0  0  0  0  0  0  0  0
  -33.1272  -25.7200   17.9408 C   0  0  0  0  0  0  0  0  0  0  0  0
  -33.2013  -26.5372   20.2914 C   0  0  0  0  0  0  0  0  0  0  0  0
  -26.6375  -31.2732   26.4122 C   0  0  0  0  0  0  0  0  0  0  0  0
  -34.7001  -18.5076   19.8435 C   0  0  0  0  0  0  0  0  0  0  0  0
  -30.2323  -25.5424   20.5847 C   0  0  0  0  0  0  0  0  0  0  0  0
  -31.0069  -25.7626   19.2771 C   0  0  0  0  0  0  0  0  0  0  0  0
  -32.8991  -24.0860   19.8688 C   0  0  0  0  0  0  0  0  0  0  0  0
  -32.3365  -22.9194   19.0454 C   0  0  0  0  0  0  0  0  0  0  0  0
  -28.7326  -25.7629   20.4027 C   0  0  0  0  0  0  0  0  0  1  0  0
  -31.1392  -21.5212   21.5450 C   0  0  2  0  0  0  0  0  0  0  0  0
  -25.5723  -33.6978   22.1907 C   0  0  1  0  0  0  0  0  0  0  0  0
  -26.7793  -33.6865   25.7841 C   0  0  2  0  0  0  0  0  0  0  0  0
  -25.5079  -35.0217   21.3779 C   0  0  0  0  0  0  0  0  0  0  0  0
  -32.5387  -25.5068   19.3520 C   0  0  0  0  0  0  0  0  0  0  0  0
  -26.2815  -15.8554   21.7228 N   0  0  0  0  0  0  0  0  0  0  0  0
  -32.7656  -21.5889   19.6148 N   0  0  0  0  0  0  0  0  0  0  0  0
  -27.2889  -16.5149   22.3198 N   0  0  0  0  0  0  0  0  0  0  0  0
  -32.8802  -19.8430   20.8772 N   0  3  0  0  0  0  0  0  0  0  0  0
  -24.5078  -31.5788   21.4834 N   0  0  0  0  0  0  0  0  0  0  0  0
  -27.6406  -20.2502   21.5902 N   0  0  0  0  0  0  0  0  0  0  0  0
  -29.4275  -16.2161   23.2933 N   0  0  0  0  0  0  0  0  0  0  0  0
  -28.2704  -12.0409   22.0186 N   0  0  0  0  0  0  0  0  0  0  0  0
  -21.9575  -30.4112   19.1533 N   0  0  0  0  0  0  0  0  0  0  0  0
  -25.7491  -33.8862   23.6265 N   0  0  0  0  0  0  0  0  0  0  0  0
  -29.9644  -20.6798   21.4952 N   0  0  0  0  0  0  0  0  0  0  0  0
  -27.3441  -32.5678   26.5906 N   0  3  0  0  0  0  0  0  0  0  0  0
  -29.9009  -13.2928   23.0350 O   0  0  0  0  0  0  0  0  0  0  0  0
  -23.8699  -31.7323   19.0125 O   0  0  0  0  0  0  0  0  0  0  0  0
  -23.2372  -33.3214   22.3696 O   0  0  0  0  0  0  0  0  0  0  0  0
  -27.7135  -32.6667   23.8030 O   0  0  0  0  0  0  0  0  0  0  0  0
  -28.4846  -22.3943   21.8524 O   0  0  0  0  0  0  0  0  0  0  0  0
  -23.5317  -10.5642   19.4888 O   0  0  0  0  0  0  0  0  0  0  0  0
  -28.4613  -27.0936   19.9647 O   0  0  0  0  0  0  0  0  0  1  0  0
  -23.0298   -5.8476   22.3006 F   0  0  0  0  0  0  0  0  0  0  0  0
  -21.0553   -9.6755   20.3375 F   0  0  0  0  0  0  0  0  0  0  0  0
  1  2  1  0  0  0  0
  1  5  2  0  0  0  0
  2  6  2  0  0  0  0
  3  8  2  0  0  0  0
  3 16  1  0  0  0  0
  4  9  1  0  0  0  0
  4 16  2  0  0  0  0
  5 18  1  0  0  0  0
  6 20  1  0  0  0  0
  7 10  2  0  0  0  0
  7 19  1  0  0  0  0
  8 22  1  0  0  0  0
  9 22  2  0  0  0  0
 10 23  1  0  0  0  0
 11 12  2  0  0  0  0
 11 24  1  0  0  0  0
 12 25  1  0  0  0  0
 13 21  1  0  0  0  0
 13 23  2  0  0  0  0
 14 25  2  0  0  0  0
 14 26  1  0  0  0  0
 15 28  2  0  0  0  0
 15 69  1  0  0  0  0
 16 27  1  0  0  0  0
 17 27  1  0  0  0  0
 17 29  2  0  0  0  0
 17 31  1  0  0  0  0
 18 20  2  0  0  0  0
 18 36  1  0  0  0  0
 19 21  2  0  0  0  0
 19 37  1  0  0  0  0
 20 45  1  0  0  0  0
 21 38  1  0  0  0  0
 22 85  1  0  0  0  0
 23 86  1  0  0  0  0
 24 26  2  0  0  0  0
 24 85  1  0  0  0  0
 25 87  1  0  0  0  0
 26 88  1  0  0  0  0
 27 68  2  0  0  0  0
 28 57  1  0  0  0  0
 28 71  1  0  0  0  0
 29 70  1  0  0  0  0
 29 74  1  0  0  0  0
 30 63  1  0  0  0  0
 30 69  1  0  0  0  0
 30 71  2  0  0  0  0
 31 75  1  0  0  0  0
 31 80  2  0  0  0  0
 32 46  1  0  0  0  0
 32 76  1  0  0  0  0
 32 81  2  0  0  0  0
 33 64  1  0  0  0  0
 33 72  1  0  0  0  0
 33 82  2  0  0  0  0
 34 65  1  0  0  0  0
 34 77  1  0  0  0  0
 34 83  2  0  0  0  0
 35 73  1  0  0  0  0
 35 78  1  0  0  0  0
 35 84  2  0  0  0  0
 36 39  1  0  0  0  0
 37 46  1  0  0  0  0
 38 72  1  0  0  0  0
 39 41  1  0  0  0  0
 40 42  1  0  0  0  0
 40 43  1  0  0  0  0
 41 45  1  0  0  0  0
 42 47  1  0  0  0  0
 43 73  1  0  0  0  0
 44 47  1  0  0  0  0
 44 73  1  0  0  0  0
 45 76  1  0  0  0  0
 46 72  1  0  0  0  0
 47 70  1  0  0  0  0
 48 57  1  0  0  0  0
 49 63  1  0  0  0  0
 50 65  1  0  0  0  0
 51 66  1  0  0  0  0
 52 66  1  0  0  0  0
 53 66  1  0  0  0  0
 54 67  1  0  0  0  0
 55 67  1  0  0  0  0
 56 79  1  0  0  0  0
 58 59  1  0  0  0  0
 58 62  1  0  0  0  0
 59 67  1  0  0  0  0
 60 61  1  0  0  0  0
 60 67  1  0  0  0  0
 61 69  1  0  0  0  0
 62 86  1  0  0  0  0
 63 78  1  0  0  0  0
 64 66  1  0  0  0  0
 64 77  1  0  0  0  0
 65 79  1  0  0  0  0
 68 70  1  0  0  0  0
M  CHG  2  71   1  79   1
M  ISO  4  35 100  62 101  78 100  86 101
M  END
> <Batch ID>
0076

> <Smiles>
CCc1cn(CCC(C)(C)CC[101CH2:1][101O:1]c2ccc3c(c2)CN(C(=O)C(NC(=O)C(C)NC)C(C)(C)C)C(C(=O)NC2CCCc4ccccc42)C3)c(C(C)[100NH:0][100C:0](=O)N2CCCC(n3nc(-c4ccc(Oc5ccc(F)cc5F)cc4)c(C(N)=O)c3N)C2)n1

> <Shape>
0.232

> <Color>
0.084

> <Negative vol penalty>
0.000

$$$$

  -OEChem-04052318343D

 84 92  0     1  0  0  0  0  0999 V2000
  -29.1332  -23.0062   29.0944 C   0  0  0  0  0  0  0  0  0  0  0  0
  -28.1782  -22.1053   28.6343 C   0  0  0  0  0  0  0  0  0  0  0  0
  -28.3325  -26.5346   18.2725 C   0  0  0  0  0  0  0  0  0  0  0  0
  -27.0276  -25.9220   20.2113 C   0  0  0  0  0  0  0  0  0  0  0  0
  -28.9333  -24.3764   28.9310 C   0  0  0  0  0  0  0  0  0  0  0  0
  -27.0221  -22.5741   28.0114 C   0  0  0  0  0  0  0  0  0  0  0  0
  -25.8866  -19.9764   23.8152 C   0  0  0  0  0  0  0  0  0  0  0  0
  -27.5007  -27.6339   18.0599 C   0  0  0  0  0  0  0  0  0  0  0  0
  -26.1958  -27.0213   19.9988 C   0  0  0  0  0  0  0  0  0  0  0  0
  -25.2832  -18.7306   23.9814 C   0  0  0  0  0  0  0  0  0  0  0  0
  -26.2833  -30.3535   20.5552 C   0  0  0  0  0  0  0  0  0  0  0  0
  -25.9455  -31.1322   21.6620 C   0  0  0  0  0  0  0  0  0  0  0  0
  -23.1326  -19.7159   23.5087 C   0  0  0  0  0  0  0  0  0  0  0  0
  -23.6078  -30.6506   21.2872 C   0  0  0  0  0  0  0  0  0  0  0  0
  -24.7604  -11.7861   21.3172 C   0  0  0  0  0  0  0  0  0  0  0  0
  -28.0959  -25.6786   19.3481 C   0  0  0  0  0  0  0  0  0  0  0  0
  -30.1278  -24.5013   20.3447 C   0  0  0  0  0  0  0  0  0  0  0  0
  -27.7787  -24.8618   28.2971 C   0  0  0  0  0  0  0  0  0  0  0  0
  -25.1148  -21.1053   23.5048 C   0  0  0  0  0  0  0  0  0  0  0  0
  -26.8059  -23.9521   27.8405 C   0  0  0  0  0  0  0  0  0  0  0  0
  -23.7289  -20.9744   23.3367 C   0  0  0  0  0  0  0  0  0  0  0  0
  -26.4323  -27.8773   18.9231 C   0  0  0  0  0  0  0  0  0  0  0  0
  -23.9057  -18.6007   23.8310 C   0  0  0  0  0  0  0  0  0  0  0  0
  -25.2834  -29.7234   19.8143 C   0  0  0  0  0  0  0  0  0  0  0  0
  -24.6077  -31.2807   22.0281 C   0  0  0  0  0  0  0  0  0  0  0  0
  -23.9457  -29.8719   20.1803 C   0  0  0  0  0  0  0  0  0  0  0  0
  -28.9545  -24.5425   19.5678 C   0  0  0  0  0  0  0  0  0  0  0  0
  -24.3786  -13.0989   21.1490 C   0  0  0  0  0  0  0  0  0  0  0  0
  -26.5368  -12.1233   19.9172 C   0  0  0  0  0  0  0  0  0  0  0  0
  -26.1547  -13.4359   19.7484 C   0  0  0  0  0  0  0  0  0  0  0  0
  -30.5684  -23.2053   20.2328 C   0  0  0  0  0  0  0  0  0  0  0  0
  -30.7626  -25.5416   21.1001 C   0  0  0  0  0  0  0  0  0  0  0  0
  -24.5195  -23.8790   24.9388 C   0  0  0  0  0  0  0  0  0  0  0  0
  -27.6256  -18.1804   19.0637 C   0  0  0  0  0  0  0  0  0  0  0  0
  -22.9706  -24.5355   22.1653 C   0  0  0  0  0  0  0  0  0  0  0  0
  -21.3796  -23.3558   19.3860 C   0  0  0  0  0  0  0  0  0  0  0  0
  -27.5844  -26.3533   28.1855 C   0  0  0  0  0  0  0  0  0  0  0  0
  -25.7842  -22.4370   23.3026 C   0  0  0  0  0  0  0  0  0  0  0  0
  -22.8582  -22.1515   22.9836 C   0  0  0  0  0  0  0  0  0  0  0  0
  -26.5081  -26.7538   27.1798 C   0  0  0  0  0  0  0  0  0  0  0  0
  -30.5103  -19.4658   17.2600 C   0  0  0  0  0  0  0  0  0  0  0  0
  -25.2544  -25.9068   27.3739 C   0  0  0  0  0  0  0  0  0  0  0  0
  -30.5222  -20.9278   17.7046 C   0  0  0  0  0  0  0  0  0  0  0  0
  -29.0867  -18.9321   17.1241 C   0  0  0  0  0  0  0  0  0  0  0  0
  -28.2727  -20.5545   18.8062 C   0  0  0  0  0  0  0  0  0  0  0  0
  -25.5505  -24.4209   27.1375 C   0  0  1  0  0  0  0  0  0  0  0  0
  -24.8366  -23.6172   23.4936 C   0  0  1  0  0  0  0  0  0  0  0  0
  -29.6908  -21.1221   18.9847 C   0  0  2  0  0  0  0  0  0  0  0  0
  -27.7401  -11.5699   19.2333 C   0  0  0  0  0  0  0  0  0  0  0  0
  -20.2387  -23.4219   17.1519 C   0  0  0  0  0  0  0  0  0  0  0  0
  -20.5182  -25.2264   23.8442 C   0  0  0  0  0  0  0  0  0  0  0  0
  -19.1348  -25.0650   21.7637 C   0  0  0  0  0  0  0  0  0  0  0  0
  -20.9415  -26.7771   21.9284 C   0  0  0  0  0  0  0  0  0  0  0  0
  -23.9507  -23.1365   17.9367 C   0  0  0  0  0  0  0  0  0  0  0  0
  -23.1577  -13.6367   21.8519 C   0  0  0  0  0  0  0  0  0  0  0  0
  -26.9269  -14.3638   18.8739 C   0  0  0  0  0  0  0  0  0  0  0  0
  -27.6813  -16.7788   18.5104 C   0  0  0  0  0  0  0  0  0  0  0  0
  -23.2418  -15.1309   22.1830 C   0  0  0  0  0  0  0  0  0  0  0  0
  -26.8823  -15.8154   19.3827 C   0  0  0  0  0  0  0  0  0  0  0  0
  -22.0291  -15.6404   22.9631 C   0  0  0  0  0  0  0  0  0  0  0  0
  -22.1292  -17.1346   23.2388 C   0  0  0  0  0  0  0  0  0  1  0  0
  -21.5630  -24.3418   21.6551 C   0  0  1  0  0  0  0  0  0  0  0  0
  -21.5203  -23.7125   17.9172 C   0  0  2  0  0  0  0  0  0  0  0  0
  -20.5553  -25.3306   22.3064 C   0  0  0  0  0  0  0  0  0  0  0  0
  -25.8464  -11.2747   20.7043 N   0  0  0  0  0  0  0  0  0  0  0  0
  -28.6679  -23.3662   19.0039 N   0  0  0  0  0  0  0  0  0  0  0  0
  -25.0689  -13.9474   20.3615 N   0  0  0  0  0  0  0  0  0  0  0  0
  -29.6675  -22.5736   19.4267 N   0  0  0  0  0  0  0  0  0  0  0  0
  -23.5587  -23.4337   22.8025 N   0  0  0  0  0  0  0  0  0  0  0  0
  -28.3196  -19.1610   18.3543 N   0  0  0  0  0  0  0  0  0  0  0  0
  -31.6347  -22.5557   20.7461 N   0  0  0  0  0  0  0  0  0  0  0  0
  -30.1768  -26.8148   21.1072 N   0  0  0  0  0  0  0  0  0  0  0  0
  -25.6290  -24.1405   25.7198 N   0  0  0  0  0  0  0  0  0  0  0  0
  -21.6390  -24.4372   20.2013 N   0  0  0  0  0  0  0  0  0  0  0  0
  -22.6259  -22.9286   17.2974 N   0  3  0  0  0  0  0  0  0  0  0  0
  -31.8270  -25.3520   21.7362 O   0  0  0  0  0  0  0  0  0  0  0  0
  -23.3543  -23.8475   25.3170 O   0  0  0  0  0  0  0  0  0  0  0  0
  -26.9864  -18.3949   20.0969 O   0  0  0  0  0  0  0  0  0  0  0  0
  -23.5303  -25.6219   21.9981 O   0  0  0  0  0  0  0  0  0  0  0  0
  -21.0670  -22.2315   19.7715 O   0  0  0  0  0  0  0  0  0  0  0  0
  -25.6206  -28.9500   18.7161 O   0  0  0  0  0  0  0  0  0  0  0  0
  -23.3141  -17.3859   23.9932 O   0  0  0  0  0  0  0  0  0  1  0  0
  -24.2835  -32.0272   23.0919 F   0  0  0  0  0  0  0  0  0  0  0  0
  -22.9808  -29.2681   19.4732 F   0  0  0  0  0  0  0  0  0  0  0  0
  1  2  1  0  0  0  0
  1  5  2  0  0  0  0
  2  6  2  0  0  0  0
  3  8  2  0  0  0  0
  3 16  1  0  0  0  0
  4  9  1  0  0  0  0
  4 16  2  0  0  0  0
  5 18  1  0  0  0  0
  6 20  1  0  0  0  0
  7 10  2  0  0  0  0
  7 19  1  0  0  0  0
  8 22  1  0  0  0  0
  9 22  2  0  0  0  0
 10 23  1  0  0  0  0
 11 12  2  0  0  0  0
 11 24  1  0  0  0  0
 12 25  1  0  0  0  0
 13 21  1  0  0  0  0
 13 23  2  0  0  0  0
 14 25  2  0  0  0  0
 14 26  1  0  0  0  0
 15 28  1  0  0  0  0
 15 65  2  0  0  0  0
 16 27  1  0  0  0  0
 17 27  1  0  0  0  0
 17 31  2  0  0  0  0
 17 32  1  0  0  0  0
 18 20  2  0  0  0  0
 18 37  1  0  0  0  0
 19 21  2  0  0  0  0
 19 38  1  0  0  0  0
 20 46  1  0  0  0  0
 21 39  1  0  0  0  0
 22 81  1  0  0  0  0
 23 82  1  0  0  0  0
 24 26  2  0  0  0  0
 24 81  1  0  0  0  0
 25 83  1  0  0  0  0
 26 84  1  0  0  0  0
 27 66  2  0  0  0  0
 28 55  1  0  0  0  0
 28 67  2  0  0  0  0
 29 30  2  0  0  0  0
 29 49  1  0  0  0  0
 29 65  1  0  0  0  0
 30 56  1  0  0  0  0
 30 67  1  0  0  0  0
 31 68  1  0  0  0  0
 31 71  1  0  0  0  0
 32 72  1  0  0  0  0
 32 76  2  0  0  0  0
 33 47  1  0  0  0  0
 33 73  1  0  0  0  0
 33 77  2  0  0  0  0
 34 57  1  0  0  0  0
 34 70  1  0  0  0  0
 34 78  2  0  0  0  0
 35 62  1  0  0  0  0
 35 69  1  0  0  0  0
 35 79  2  0  0  0  0
 36 63  1  0  0  0  0
 36 74  1  0  0  0  0
 36 80  2  0  0  0  0
 37 40  1  0  0  0  0
 38 47  1  0  0  0  0
 39 69  1  0  0  0  0
 40 42  1  0  0  0  0
 41 43  1  0  0  0  0
 41 44  1  0  0  0  0
 42 46  1  0  0  0  0
 43 48  1  0  0  0  0
 44 70  1  0  0  0  0
 45 48  1  0  0  0  0
 45 70  1  0  0  0  0
 46 73  1  0  0  0  0
 47 69  1  0  0  0  0
 48 68  1  0  0  0  0
 50 63  1  0  0  0  0
 51 64  1  0  0  0  0
 52 64  1  0  0  0  0
 53 64  1  0  0  0  0
 54 75  1  0  0  0  0
 55 58  1  0  0  0  0
 56 59  1  0  0  0  0
 57 59  1  0  0  0  0
 58 60  1  0  0  0  0
 60 61  1  0  0  0  0
 61 82  1  0  0  0  0
 62 64  1  0  0  0  0
 62 74  1  0  0  0  0
 63 75  1  0  0  0  0
 66 68  1  0  0  0  0
M  CHG  1  75   1
M  ISO  4  34 100  57 100  61 101  82 101
M  END
> <Batch ID>
0076

> <Smiles>
CNC(C)C(=O)NC(C(=O)N1Cc2cc([101O:1][101CH2:1]CCCc3cnc(C)c(CC[100CH2:0][100C:0](=O)N4CCCC(n5nc(-c6ccc(Oc7ccc(F)cc7F)cc6)c(C(N)=O)c5N)C4)n3)ccc2CC1C(=O)NC1CCCc2ccccc21)C(C)(C)C

> <Shape>
0.186

> <Color>
0.070

> <Negative vol penalty>
0.000

$$$$

  -OEChem-04052318343D

 85 93  0     1  0  0  0  0  0999 V2000
  -20.0859  -16.7047   16.3902 C   0  0  0  0  0  0  0  0  0  0  0  0
  -21.2263  -17.4281   16.7243 C   0  0  0  0  0  0  0  0  0  0  0  0
  -24.9969  -31.1226   21.0853 C   0  0  0  0  0  0  0  0  0  0  0  0
  -24.1988  -29.5584   22.7446 C   0  0  0  0  0  0  0  0  0  0  0  0
  -19.8180  -15.4941   17.0277 C   0  0  0  0  0  0  0  0  0  0  0  0
  -22.0989  -16.9417   17.6971 C   0  0  0  0  0  0  0  0  0  0  0  0
  -26.9561  -17.3257   16.3168 C   0  0  0  0  0  0  0  0  0  0  0  0
  -24.2655  -32.1421   21.6945 C   0  0  0  0  0  0  0  0  0  0  0  0
  -23.4674  -30.5779   23.3539 C   0  0  0  0  0  0  0  0  0  0  0  0
  -27.5505  -18.5824   16.4222 C   0  0  0  0  0  0  0  0  0  0  0  0
  -22.8946  -35.2351   23.0245 C   0  0  0  0  0  0  0  0  0  0  0  0
  -23.5277  -36.4634   23.2139 C   0  0  0  0  0  0  0  0  0  0  0  0
  -28.5780  -17.9154   18.5004 C   0  0  0  0  0  0  0  0  0  0  0  0
  -27.0674  -22.9766   21.3114 C   0  0  0  0  0  0  0  0  0  0  0  0
  -25.2047  -35.3882   24.5809 C   0  0  0  0  0  0  0  0  0  0  0  0
  -24.9636  -29.8307   21.6103 C   0  0  0  0  0  0  0  0  0  0  0  0
  -27.1121  -28.7279   20.7886 C   0  0  0  0  0  0  0  0  0  0  0  0
  -20.6928  -14.9879   18.0019 C   0  0  0  0  0  0  0  0  0  0  0  0
  -27.1597  -16.3565   17.3096 C   0  0  0  0  0  0  0  0  0  0  0  0
  -21.8418  -15.7238   18.3493 C   0  0  0  0  0  0  0  0  0  0  0  0
  -27.9870  -16.6463   18.4039 C   0  0  0  0  0  0  0  0  0  0  0  0
  -28.3229  -22.3948   21.3266 C   0  0  0  0  0  0  0  0  0  0  0  0
  -23.5007  -31.8698   22.8288 C   0  0  0  0  0  0  0  0  0  0  0  0
  -28.3593  -18.8785   17.5156 C   0  0  0  0  0  0  0  0  0  0  0  0
  -23.4164  -34.0833   23.6134 C   0  0  0  0  0  0  0  0  0  0  0  0
  -24.6828  -36.5400   23.9921 C   0  0  0  0  0  0  0  0  0  0  0  0
  -24.5715  -34.1598   24.3915 C   0  0  0  0  0  0  0  0  0  0  0  0
  -25.7185  -28.7770   20.9811 C   0  0  0  0  0  0  0  0  0  0  0  0
  -26.1711  -22.6047   22.2932 C   0  0  0  0  0  0  0  0  0  0  0  0
  -28.5991  -21.4799   22.3228 C   0  0  0  0  0  0  0  0  0  0  0  0
  -27.3288  -27.5309   20.1510 C   0  0  0  0  0  0  0  0  0  0  0  0
  -28.1207  -29.6793   21.1537 C   0  0  0  0  0  0  0  0  0  0  0  0
  -25.2782  -14.8014   19.3456 C   0  0  0  0  0  0  0  0  0  0  0  0
  -28.0056  -13.1808   20.0219 C   0  0  0  0  0  0  0  0  0  0  0  0
  -24.1556  -22.4297   20.0062 C   0  0  0  0  0  0  0  0  0  0  0  0
  -31.4179  -13.1312   20.0381 C   0  0  0  0  0  0  0  0  0  0  0  0
  -20.3366  -13.6979   18.6975 C   0  0  0  0  0  0  0  0  0  0  0  0
  -26.5329  -14.9966   17.1676 C   0  0  0  0  0  0  0  0  0  0  0  0
  -28.2538  -15.6338   19.4865 C   0  0  0  0  0  0  0  0  0  0  0  0
  -21.5063  -13.0683   19.4495 C   0  0  0  0  0  0  0  0  0  0  0  0
  -25.2204  -24.4081   17.2148 C   0  0  0  0  0  0  0  0  0  0  0  0
  -22.2369  -14.1205   20.2777 C   0  0  0  0  0  0  0  0  0  0  0  0
  -25.5684  -25.7571   17.8428 C   0  0  0  0  0  0  0  0  0  0  0  0
  -24.0375  -23.7523   17.9203 C   0  0  0  0  0  0  0  0  0  0  0  0
  -24.5703  -24.9395   20.0246 C   0  0  0  0  0  0  0  0  0  0  0  0
  -22.8253  -15.2170   19.3817 C   0  0  1  0  0  0  0  0  0  0  0  0
  -26.3941  -14.2609   18.4969 C   0  0  1  0  0  0  0  0  0  0  0  0
  -25.7796  -25.6219   19.3612 C   0  0  2  0  0  0  0  0  0  0  0  0
  -29.9302  -20.8119   22.4020 C   0  0  0  0  0  0  0  0  0  0  0  0
  -24.3114  -23.4583   23.7720 C   0  0  0  0  0  0  0  0  0  0  0  0
  -33.7318  -12.2004   20.3155 C   0  0  0  0  0  0  0  0  0  0  0  0
  -22.3264  -23.1091   21.4975 C   0  0  0  0  0  0  0  0  0  0  0  0
  -23.5900  -20.9787   21.8612 C   0  0  0  0  0  0  0  0  0  0  0  0
  -27.5388  -13.8697   22.9575 C   0  0  0  0  0  0  0  0  0  0  0  0
  -29.9229  -13.2532   23.4091 C   0  0  0  0  0  0  0  0  0  0  0  0
  -28.3337  -11.5342   22.5477 C   0  0  0  0  0  0  0  0  0  0  0  0
  -31.4742  -12.1296   17.2538 C   0  0  0  0  0  0  0  0  0  0  0  0
  -29.3400  -22.7662   20.2773 C   0  0  0  0  0  0  0  0  0  0  0  0
  -29.0823  -22.1207   18.9140 C   0  0  0  0  0  0  0  0  0  0  0  0
  -29.1771  -20.5996   18.9385 C   0  0  0  0  0  0  0  0  0  1  0  0
  -24.8057  -23.2014   22.3213 C   0  0  2  0  0  0  0  0  0  0  0  0
  -29.1423  -13.3615   20.9988 C   0  0  1  0  0  0  0  0  0  0  0  0
  -32.4124  -12.0849   19.5682 C   0  0  2  0  0  0  0  0  0  0  0  0
  -23.7154  -22.4563   21.4483 C   0  0  0  0  0  0  0  0  0  0  0  0
  -28.7281  -13.0246   22.4590 C   0  0  0  0  0  0  0  0  0  0  0  0
  -25.0938  -27.6970   20.5042 N   0  0  0  0  0  0  0  0  0  0  0  0
  -26.4685  -21.7066   23.2560 N   0  0  0  0  0  0  0  0  0  0  0  0
  -27.7026  -21.1351   23.2711 N   0  0  0  0  0  0  0  0  0  0  0  0
  -26.0995  -26.9581   20.0056 N   0  0  0  0  0  0  0  0  0  0  0  0
  -27.6132  -14.3205   19.3058 N   0  0  0  0  0  0  0  0  0  0  0  0
  -24.2675  -23.6627   19.3633 N   0  0  0  0  0  0  0  0  0  0  0  0
  -28.4489  -26.9229   19.7060 N   0  0  0  0  0  0  0  0  0  0  0  0
  -28.7218  -29.5652   22.4147 N   0  0  0  0  0  0  0  0  0  0  0  0
  -24.0365  -14.7507   18.7414 N   0  0  0  0  0  0  0  0  0  0  0  0
  -30.2487  -12.5576   20.4909 N   0  0  0  0  0  0  0  0  0  0  0  0
  -32.6820  -12.2440   18.1112 N   0  3  0  0  0  0  0  0  0  0  0  0
  -28.4667  -30.6131   20.3909 O   0  0  0  0  0  0  0  0  0  0  0  0
  -25.5253  -15.2312   20.4663 O   0  0  0  0  0  0  0  0  0  0  0  0
  -27.4897  -12.0677   19.8937 O   0  0  0  0  0  0  0  0  0  0  0  0
  -24.3952  -21.3448   19.4698 O   0  0  0  0  0  0  0  0  0  0  0  0
  -31.6561  -14.3366   20.0101 O   0  0  0  0  0  0  0  0  0  0  0  0
  -22.7871  -32.8644   23.4237 O   0  0  0  0  0  0  0  0  0  0  0  0
  -28.9402  -20.1045   17.6213 O   0  0  0  0  0  0  0  0  0  1  0  0
  -25.2916  -37.7194   24.1726 F   0  0  0  0  0  0  0  0  0  0  0  0
  -25.0782  -33.0565   24.9588 F   0  0  0  0  0  0  0  0  0  0  0  0
  1  2  1  0  0  0  0
  1  5  2  0  0  0  0
  2  6  2  0  0  0  0
  3  8  2  0  0  0  0
  3 16  1  0  0  0  0
  4  9  1  0  0  0  0
  4 16  2  0  0  0  0
  5 18  1  0  0  0  0
  6 20  1  0  0  0  0
  7 10  2  0  0  0  0
  7 19  1  0  0  0  0
  8 23  1  0  0  0  0
  9 23  2  0  0  0  0
 10 24  1  0  0  0  0
 11 12  2  0  0  0  0
 11 25  1  0  0  0  0
 12 26  1  0  0  0  0
 13 21  1  0  0  0  0
 13 24  2  0  0  0  0
 14 22  1  0  0  0  0
 14 29  2  0  0  0  0
 15 26  2  0  0  0  0
 15 27  1  0  0  0  0
 16 28  1  0  0  0  0
 17 28  1  0  0  0  0
 17 31  2  0  0  0  0
 17 32  1  0  0  0  0
 18 20  2  0  0  0  0
 18 37  1  0  0  0  0
 19 21  2  0  0  0  0
 19 38  1  0  0  0  0
 20 46  1  0  0  0  0
 21 39  1  0  0  0  0
 22 30  2  0  0  0  0
 22 58  1  0  0  0  0
 23 82  1  0  0  0  0
 24 83  1  0  0  0  0
 25 27  2  0  0  0  0
 25 82  1  0  0  0  0
 26 84  1  0  0  0  0
 27 85  1  0  0  0  0
 28 66  2  0  0  0  0
 29 61  1  0  0  0  0
 29 67  1  0  0  0  0
 30 49  1  0  0  0  0
 30 68  1  0  0  0  0
 31 69  1  0  0  0  0
 31 72  1  0  0  0  0
 32 73  1  0  0  0  0
 32 77  2  0  0  0  0
 33 47  1  0  0  0  0
 33 74  1  0  0  0  0
 33 78  2  0  0  0  0
 34 62  1  0  0  0  0
 34 70  1  0  0  0  0
 34 79  2  0  0  0  0
 35 64  1  0  0  0  0
 35 71  1  0  0  0  0
 35 80  2  0  0  0  0
 36 63  1  0  0  0  0
 36 75  1  0  0  0  0
 36 81  2  0  0  0  0
 37 40  1  0  0  0  0
 38 47  1  0  0  0  0
 39 70  1  0  0  0  0
 40 42  1  0  0  0  0
 41 43  1  0  0  0  0
 41 44  1  0  0  0  0
 42 46  1  0  0  0  0
 43 48  1  0  0  0  0
 44 71  1  0  0  0  0
 45 48  1  0  0  0  0
 45 71  1  0  0  0  0
 46 74  1  0  0  0  0
 47 70  1  0  0  0  0
 48 69  1  0  0  0  0
 50 61  1  0  0  0  0
 51 63  1  0  0  0  0
 52 64  1  0  0  0  0
 53 64  1  0  0  0  0
 54 65  1  0  0  0  0
 55 65  1  0  0  0  0
 56 65  1  0  0  0  0
 57 76  1  0  0  0  0
 58 59  1  0  0  0  0
 59 60  1  0  0  0  0
 60 83  1  0  0  0  0
 61 64  1  0  0  0  0
 62 65  1  0  0  0  0
 62 75  1  0  0  0  0
 63 76  1  0  0  0  0
 66 69  1  0  0  0  0
 67 68  2  0  0  0  0
M  CHG  1  76   1
M  ISO  4  35 100  60 101  64 100  83 101
M  END
> <Batch ID>
0076

> <Smiles>
CNC(C)C(=O)NC(C(=O)N1Cc2cc([101O:1][101CH2:1]CCc3cc(C(C)[100C:0](C)(C)[100C:0](=O)N4CCCC(n5nc(-c6ccc(Oc7ccc(F)cc7F)cc6)c(C(N)=O)c5N)C4)nnc3C)ccc2CC1C(=O)NC1CCCc2ccccc21)C(C)(C)C

> <Shape>
0.220

> <Color>
0.074

> <Negative vol penalty>
0.000

$$$$

  -OEChem-04052318343D

 85 93  0     1  0  0  0  0  0999 V2000
  -21.1586  -14.4677   24.6806 C   0  0  0  0  0  0  0  0  0  0  0  0
  -22.2452  -15.1220   24.1090 C   0  0  0  0  0  0  0  0  0  0  0  0
  -23.1906   -9.8176   19.9314 C   0  0  0  0  0  0  0  0  0  0  0  0
  -23.5672  -10.0002   22.3109 C   0  0  0  0  0  0  0  0  0  0  0  0
  -19.9724  -15.1621   24.9143 C   0  0  0  0  0  0  0  0  0  0  0  0
  -22.1457  -16.4709   23.7698 C   0  0  0  0  0  0  0  0  0  0  0  0
  -26.2142  -19.1346   25.1832 C   0  0  0  0  0  0  0  0  0  0  0  0
  -22.4248   -8.6707   20.1406 C   0  0  0  0  0  0  0  0  0  0  0  0
  -22.8014   -8.8533   22.5201 C   0  0  0  0  0  0  0  0  0  0  0  0
  -27.3541  -19.0261   24.3879 C   0  0  0  0  0  0  0  0  0  0  0  0
  -21.2450   -5.7695   23.6506 C   0  0  0  0  0  0  0  0  0  0  0  0
  -21.7413   -4.8107   24.5337 C   0  0  0  0  0  0  0  0  0  0  0  0
  -26.8075  -21.1234   23.3288 C   0  0  0  0  0  0  0  0  0  0  0  0
  -23.7010   -4.5467   23.1455 C   0  0  0  0  0  0  0  0  0  0  0  0
  -32.7992  -16.9487   21.1873 C   0  0  0  0  0  0  0  0  0  0  0  0
  -23.7618  -10.4824   21.0166 C   0  0  0  0  0  0  0  0  0  0  0  0
  -24.0992  -12.9990   20.7709 C   0  0  0  0  0  0  0  0  0  0  0  0
  -19.8615  -16.5226   24.5867 C   0  0  0  0  0  0  0  0  0  0  0  0
  -25.3550  -20.2348   25.0494 C   0  0  0  0  0  0  0  0  0  0  0  0
  -20.9565  -17.1838   23.9981 C   0  0  0  0  0  0  0  0  0  0  0  0
  -25.6587  -21.2448   24.1254 C   0  0  0  0  0  0  0  0  0  0  0  0
  -22.2302   -8.1885   21.4349 C   0  0  0  0  0  0  0  0  0  0  0  0
  -27.6493  -20.0191   23.4584 C   0  0  0  0  0  0  0  0  0  0  0  0
  -21.9766   -6.1169   22.5148 C   0  0  0  0  0  0  0  0  0  0  0  0
  -22.9694   -4.1993   24.2812 C   0  0  0  0  0  0  0  0  0  0  0  0
  -23.2046   -5.5055   22.2624 C   0  0  0  0  0  0  0  0  0  0  0  0
  -24.5534  -11.6669   20.8010 C   0  0  0  0  0  0  0  0  0  0  0  0
  -33.6986  -16.3674   22.0577 C   0  0  0  0  0  0  0  0  0  0  0  0
  -31.4688  -16.6790   21.4354 C   0  0  0  0  0  0  0  0  0  0  0  0
  -25.2302  -13.7421   20.5357 C   0  0  0  0  0  0  0  0  0  0  0  0
  -32.0119  -15.3945   23.2305 C   0  0  0  0  0  0  0  0  0  0  0  0
  -22.7736  -13.5183   20.9404 C   0  0  0  0  0  0  0  0  0  0  0  0
  -22.3088  -20.6149   24.2250 C   0  0  0  0  0  0  0  0  0  0  0  0
  -22.8759  -23.7006   25.0493 C   0  0  0  0  0  0  0  0  0  0  0  0
  -25.1436  -26.2138   25.4824 C   0  0  0  0  0  0  0  0  0  0  0  0
  -31.0448  -12.7564   21.5696 C   0  0  0  0  0  0  0  0  0  0  0  0
  -18.5433  -17.2191   24.8145 C   0  0  0  0  0  0  0  0  0  0  0  0
  -24.1437  -20.3504   25.9336 C   0  0  0  0  0  0  0  0  0  0  0  0
  -24.7795  -22.4561   23.9572 C   0  0  0  0  0  0  0  0  0  0  0  0
  -18.6435  -18.7417   24.7711 C   0  0  0  0  0  0  0  0  0  0  0  0
  -29.5191  -13.4702   18.4328 C   0  0  0  0  0  0  0  0  0  0  0  0
  -19.4609  -19.1888   23.5634 C   0  0  0  0  0  0  0  0  0  0  0  0
  -28.0324  -13.2092   18.6814 C   0  0  0  0  0  0  0  0  0  0  0  0
  -30.4005  -12.4820   19.1934 C   0  0  0  0  0  0  0  0  0  0  0  0
  -28.6460  -12.1396   20.8900 C   0  0  0  0  0  0  0  0  0  0  0  0
  -20.8956  -18.6527   23.6392 C   0  0  1  0  0  0  0  0  0  0  0  0
  -23.0645  -21.2589   25.3528 C   0  0  1  0  0  0  0  0  0  0  0  0
  -27.7184  -13.1463   20.1883 C   0  0  2  0  0  0  0  0  0  0  0  0
  -35.1601  -16.6021   21.8700 C   0  0  0  0  0  0  0  0  0  0  0  0
  -25.3029  -28.6343   26.1254 C   0  0  0  0  0  0  0  0  0  0  0  0
  -30.1673  -14.8790   24.9708 C   0  0  0  0  0  0  0  0  0  0  0  0
  -32.5663  -14.6697   25.5682 C   0  0  0  0  0  0  0  0  0  0  0  0
  -21.8209  -24.4980   22.2995 C   0  0  0  0  0  0  0  0  0  0  0  0
  -22.8689  -26.7480   22.6269 C   0  0  0  0  0  0  0  0  0  0  0  0
  -21.0706  -25.9748   24.1732 C   0  0  0  0  0  0  0  0  0  0  0  0
  -26.8533  -25.6005   27.8190 C   0  0  0  0  0  0  0  0  0  0  0  0
  -30.4112  -17.2716   20.5389 C   0  0  0  0  0  0  0  0  0  0  0  0
  -29.9071  -18.6401   21.0021 C   0  0  0  0  0  0  0  0  0  0  0  0
  -31.5333  -13.0098   23.9896 C   0  0  0  0  0  0  0  0  0  0  0  0
  -29.2050  -18.5989   22.3545 C   0  0  0  0  0  0  0  0  0  1  0  0
  -23.3674  -24.9285   24.3216 C   0  0  1  0  0  0  0  0  0  0  0  0
  -25.3526  -27.1970   26.6200 C   0  0  2  0  0  0  0  0  0  0  0  0
  -31.5737  -14.5344   24.3672 C   0  0  0  0  0  0  0  0  0  0  0  0
  -22.2977  -25.5136   23.3569 C   0  0  0  0  0  0  0  0  0  0  0  0
  -25.8702  -11.5664   20.6008 N   0  0  0  0  0  0  0  0  0  0  0  0
  -33.3384  -15.5819   23.0938 N   0  0  0  0  0  0  0  0  0  0  0  0
  -31.0380  -15.9032   22.4517 N   0  0  0  0  0  0  0  0  0  0  0  0
  -26.2531  -12.8448   20.4426 N   0  0  0  0  0  0  0  0  0  0  0  0
  -23.6033  -22.5203   24.8403 N   0  0  0  0  0  0  0  0  0  0  0  0
  -30.0530  -12.4719   20.6165 N   0  0  0  0  0  0  0  0  0  0  0  0
  -25.4394  -15.0690   20.4015 N   0  0  0  0  0  0  0  0  0  0  0  0
  -21.7273  -12.6156   21.1745 N   0  0  0  0  0  0  0  0  0  0  0  0
  -21.6788  -19.4348   24.5715 N   0  0  0  0  0  0  0  0  0  0  0  0
  -23.8176  -25.8598   25.3504 N   0  0  0  0  0  0  0  0  0  0  0  0
  -30.6298  -12.7319   22.8954 N   0  0  0  0  0  0  0  0  0  0  0  0
  -26.6758  -26.9679   27.2662 N   0  3  0  0  0  0  0  0  0  0  0  0
  -22.5217  -14.7451   20.8696 O   0  0  0  0  0  0  0  0  0  0  0  0
  -22.2968  -21.1499   23.1226 O   0  0  0  0  0  0  0  0  0  0  0  0
  -21.8872  -23.7871   25.7820 O   0  0  0  0  0  0  0  0  0  0  0  0
  -26.0641  -25.8039   24.7787 O   0  0  0  0  0  0  0  0  0  0  0  0
  -32.2125  -13.0184   21.2614 O   0  0  0  0  0  0  0  0  0  0  0  0
  -21.4828   -7.0695   21.6395 O   0  0  0  0  0  0  0  0  0  0  0  0
  -28.7610  -19.9153   22.6804 O   0  0  0  0  0  0  0  0  0  1  0  0
  -23.4466   -3.2797   25.1301 F   0  0  0  0  0  0  0  0  0  0  0  0
  -23.9126   -5.8359   21.1736 F   0  0  0  0  0  0  0  0  0  0  0  0
  1  2  1  0  0  0  0
  1  5  2  0  0  0  0
  2  6  2  0  0  0  0
  3  8  2  0  0  0  0
  3 16  1  0  0  0  0
  4  9  1  0  0  0  0
  4 16  2  0  0  0  0
  5 18  1  0  0  0  0
  6 20  1  0  0  0  0
  7 10  2  0  0  0  0
  7 19  1  0  0  0  0
  8 22  1  0  0  0  0
  9 22  2  0  0  0  0
 10 23  1  0  0  0  0
 11 12  2  0  0  0  0
 11 24  1  0  0  0  0
 12 25  1  0  0  0  0
 13 21  1  0  0  0  0
 13 23  2  0  0  0  0
 14 25  2  0  0  0  0
 14 26  1  0  0  0  0
 15 28  2  0  0  0  0
 15 29  1  0  0  0  0
 16 27  1  0  0  0  0
 17 27  1  0  0  0  0
 17 30  2  0  0  0  0
 17 32  1  0  0  0  0
 18 20  2  0  0  0  0
 18 37  1  0  0  0  0
 19 21  2  0  0  0  0
 19 38  1  0  0  0  0
 20 46  1  0  0  0  0
 21 39  1  0  0  0  0
 22 82  1  0  0  0  0
 23 83  1  0  0  0  0
 24 26  2  0  0  0  0
 24 82  1  0  0  0  0
 25 84  1  0  0  0  0
 26 85  1  0  0  0  0
 27 65  2  0  0  0  0
 28 49  1  0  0  0  0
 28 66  1  0  0  0  0
 29 57  1  0  0  0  0
 29 67  2  0  0  0  0
 30 68  1  0  0  0  0
 30 71  1  0  0  0  0
 31 63  1  0  0  0  0
 31 66  2  0  0  0  0
 31 67  1  0  0  0  0
 32 72  1  0  0  0  0
 32 77  2  0  0  0  0
 33 47  1  0  0  0  0
 33 73  1  0  0  0  0
 33 78  2  0  0  0  0
 34 61  1  0  0  0  0
 34 69  1  0  0  0  0
 34 79  2  0  0  0  0
 35 62  1  0  0  0  0
 35 74  1  0  0  0  0
 35 80  2  0  0  0  0
 36 70  1  0  0  0  0
 36 75  1  0  0  0  0
 36 81  2  0  0  0  0
 37 40  1  0  0  0  0
 38 47  1  0  0  0  0
 39 69  1  0  0  0  0
 40 42  1  0  0  0  0
 41 43  1  0  0  0  0
 41 44  1  0  0  0  0
 42 46  1  0  0  0  0
 43 48  1  0  0  0  0
 44 70  1  0  0  0  0
 45 48  1  0  0  0  0
 45 70  1  0  0  0  0
 46 73  1  0  0  0  0
 47 69  1  0  0  0  0
 48 68  1  0  0  0  0
 50 62  1  0  0  0  0
 51 63  1  0  0  0  0
 52 63  1  0  0  0  0
 53 64  1  0  0  0  0
 54 64  1  0  0  0  0
 55 64  1  0  0  0  0
 56 76  1  0  0  0  0
 57 58  1  0  0  0  0
 58 60  1  0  0  0  0
 59 63  1  0  0  0  0
 59 75  1  0  0  0  0
 60 83  1  0  0  0  0
 61 64  1  0  0  0  0
 61 74  1  0  0  0  0
 62 76  1  0  0  0  0
 65 68  1  0  0  0  0
M  CHG  1  76   1
M  ISO  4  36 100  60 101  75 100  83 101
M  END
> <Batch ID>
0076

> <Smiles>
CNC(C)C(=O)NC(C(=O)N1Cc2cc([101O:1][101CH2:1]CCc3cc(C)nc(C(C)(C)C[100NH:0][100C:0](=O)N4CCCC(n5nc(-c6ccc(Oc7ccc(F)cc7F)cc6)c(C(N)=O)c5N)C4)n3)ccc2CC1C(=O)NC1CCCc2ccccc21)C(C)(C)C

> <Shape>
0.180

> <Color>
0.178

> <Negative vol penalty>
0.000

$$$$

  -OEChem-04052318343D

 88 96  0     1  0  0  0  0  0999 V2000
  -29.7075  -24.7635   16.7617 C   0  0  0  0  0  0  0  0  0  0  0  0
  -28.5366  -24.6791   17.5082 C   0  0  0  0  0  0  0  0  0  0  0  0
  -28.0088  -16.9511   18.9346 C   0  0  0  0  0  0  0  0  0  0  0  0
  -27.7103  -17.4641   21.2766 C   0  0  0  0  0  0  0  0  0  0  0  0
  -30.7488  -25.5853   17.1909 C   0  0  0  0  0  0  0  0  0  0  0  0
  -28.4068  -25.4157   18.6851 C   0  0  0  0  0  0  0  0  0  0  0  0
  -23.9052  -27.7053   19.0574 C   0  0  0  0  0  0  0  0  0  0  0  0
  -28.7899  -18.0967   18.7832 C   0  0  0  0  0  0  0  0  0  0  0  0
  -28.4916  -18.6097   21.1252 C   0  0  0  0  0  0  0  0  0  0  0  0
  -22.8199  -26.9177   19.4391 C   0  0  0  0  0  0  0  0  0  0  0  0
  -31.7772  -19.3724   20.9170 C   0  0  0  0  0  0  0  0  0  0  0  0
  -32.7479  -19.6257   21.8861 C   0  0  0  0  0  0  0  0  0  0  0  0
  -23.0160  -27.7513   21.6943 C   0  0  0  0  0  0  0  0  0  0  0  0
  -31.6786  -21.7286   22.4074 C   0  0  0  0  0  0  0  0  0  0  0  0
  -19.2628  -19.3416   23.2189 C   0  0  0  0  0  0  0  0  0  0  0  0
  -27.4689  -16.6348   20.1813 C   0  0  0  0  0  0  0  0  0  0  0  0
  -27.1040  -14.1593   20.6779 C   0  0  0  0  0  0  0  0  0  0  0  0
  -30.6279  -26.3398   18.3685 C   0  0  0  0  0  0  0  0  0  0  0  0
  -24.5620  -28.5149   19.9953 C   0  0  0  0  0  0  0  0  0  0  0  0
  -29.4480  -26.2473   19.1312 C   0  0  0  0  0  0  0  0  0  0  0  0
  -24.1077  -28.5501   21.3214 C   0  0  0  0  0  0  0  0  0  0  0  0
  -29.0314  -18.9260   19.8785 C   0  0  0  0  0  0  0  0  0  0  0  0
  -22.3770  -26.9384   20.7584 C   0  0  0  0  0  0  0  0  0  0  0  0
  -30.7572  -20.2971   20.6930 C   0  0  0  0  0  0  0  0  0  0  0  0
  -20.4184  -20.0959   23.2202 C   0  0  0  0  0  0  0  0  0  0  0  0
  -32.6986  -20.8038   22.6313 C   0  0  0  0  0  0  0  0  0  0  0  0
  -30.7079  -21.4752   21.4383 C   0  0  0  0  0  0  0  0  0  0  0  0
  -26.6614  -15.4518   20.3382 C   0  0  0  0  0  0  0  0  0  0  0  0
  -21.5092  -19.5159   23.8351 C   0  0  0  0  0  0  0  0  0  0  0  0
  -25.9601  -13.3993   20.6995 C   0  0  0  0  0  0  0  0  0  0  0  0
  -20.3002  -17.6586   24.3407 C   0  0  0  0  0  0  0  0  0  0  0  0
  -28.4305  -13.6879   20.9498 C   0  0  0  0  0  0  0  0  0  0  0  0
  -27.5130  -28.6463   21.1692 C   0  0  0  0  0  0  0  0  0  0  0  0
  -26.3978  -31.3239   22.6216 C   0  0  0  0  0  0  0  0  0  0  0  0
  -23.7171  -33.0846   23.7880 C   0  0  0  0  0  0  0  0  0  0  0  0
  -20.1910  -14.7385   21.5796 C   0  0  0  0  0  0  0  0  0  0  0  0
  -31.7989  -27.1777   18.8173 C   0  0  0  0  0  0  0  0  0  0  0  0
  -25.7143  -29.3788   19.5617 C   0  0  0  0  0  0  0  0  0  0  0  0
  -24.7656  -29.4176   22.3622 C   0  0  0  0  0  0  0  0  0  0  0  0
  -31.4357  -28.2135   19.8781 C   0  0  0  0  0  0  0  0  0  0  0  0
  -21.6057  -13.1303   18.7355 C   0  0  0  0  0  0  0  0  0  0  0  0
  -30.5802  -27.5809   20.9711 C   0  0  0  0  0  0  0  0  0  0  0  0
  -23.1017  -13.4263   18.8544 C   0  0  0  0  0  0  0  0  0  0  0  0
  -20.7578  -14.3099   19.2066 C   0  0  0  0  0  0  0  0  0  0  0  0
  -22.5705  -15.0939   20.6807 C   0  0  0  0  0  0  0  0  0  0  0  0
  -29.2597  -27.0499   20.4002 C   0  0  1  0  0  0  0  0  0  0  0  0
  -26.6312  -29.7749   20.7148 C   0  0  1  0  0  0  0  0  0  0  0  0
  -23.4663  -13.9128   20.2699 C   0  0  2  0  0  0  0  0  0  0  0  0
  -23.9337  -19.4971   23.1458 C   0  0  0  0  0  0  0  0  0  0  0  0
  -23.2542  -20.5425   25.3368 C   0  0  0  0  0  0  0  0  0  0  0  0
  -23.1236  -35.2229   24.9596 C   0  0  0  0  0  0  0  0  0  0  0  0
  -19.7398  -13.8348   24.6690 C   0  0  0  0  0  0  0  0  0  0  0  0
  -27.3592  -30.1398   25.2642 C   0  0  0  0  0  0  0  0  0  0  0  0
  -25.9276  -31.8135   26.4548 C   0  0  0  0  0  0  0  0  0  0  0  0
  -27.7978  -32.5874   24.9968 C   0  0  0  0  0  0  0  0  0  0  0  0
  -22.0885  -34.0212   21.5012 C   0  0  0  0  0  0  0  0  0  0  0  0
  -20.2352  -16.3041   24.9608 C   0  0  0  0  0  0  0  0  0  0  0  0
  -20.4451  -23.9277   21.3317 C   0  0  0  0  0  0  0  0  0  0  0  0
  -20.2297  -22.5971   20.6191 C   0  0  0  0  0  0  0  0  0  0  0  0
  -21.1182  -24.9486   20.4239 C   0  0  0  0  0  0  0  0  0  1  0  0
  -19.5960  -21.5629   21.5388 C   0  0  0  0  0  0  0  0  0  0  0  0
  -22.8121  -20.2425   23.8926 C   0  0  0  0  0  0  0  0  0  0  0  0
  -25.7160  -31.6227   23.9349 C   0  0  1  0  0  0  0  0  0  0  0  0
  -23.3142  -34.5380   23.6153 C   0  0  2  0  0  0  0  0  0  0  0  0
  -19.7816  -15.1972   23.9840 C   0  0  1  0  0  0  0  0  0  0  0  0
  -26.6888  -31.5229   25.1437 C   0  0  0  0  0  0  0  0  0  0  0  0
  -19.1680  -18.1146   23.7719 N   0  0  0  0  0  0  0  0  0  0  0  0
  -25.3395  -15.5131   20.1569 N   0  0  0  0  0  0  0  0  0  0  0  0
  -21.4854  -18.2945   24.4078 N   0  0  0  0  0  0  0  0  0  0  0  0
  -24.9416  -14.2496   20.3834 N   0  0  0  0  0  0  0  0  0  0  0  0
  -25.8923  -30.2394   21.8906 N   0  0  0  0  0  0  0  0  0  0  0  0
  -21.1527  -14.7212   20.5559 N   0  0  0  0  0  0  0  0  0  0  0  0
  -25.7362  -12.0934   20.9578 N   0  0  0  0  0  0  0  0  0  0  0  0
  -29.4909  -14.6019   20.8840 N   0  0  0  0  0  0  0  0  0  0  0  0
  -28.3312  -28.1377   20.1786 N   0  0  0  0  0  0  0  0  0  0  0  0
  -25.0872  -32.9300   23.7802 N   0  0  0  0  0  0  0  0  0  0  0  0
  -20.6502  -15.1347   22.8298 N   0  0  0  0  0  0  0  0  0  0  0  0
  -22.0370  -34.6344   22.8534 N   0  3  0  0  0  0  0  0  0  0  0  0
  -28.6703  -12.4881   21.2263 O   0  0  0  0  0  0  0  0  0  0  0  0
  -27.4563  -28.2661   22.3328 O   0  0  0  0  0  0  0  0  0  0  0  0
  -27.3394  -32.0311   22.2543 O   0  0  0  0  0  0  0  0  0  0  0  0
  -22.8983  -32.1776   23.9205 O   0  0  0  0  0  0  0  0  0  0  0  0
  -19.0117  -14.4191   21.3944 O   0  0  0  0  0  0  0  0  0  0  0  0
  -29.7938  -20.0438   19.7311 O   0  0  0  0  0  0  0  0  0  0  0  0
  -21.3183  -26.1702   21.1338 O   0  0  0  0  0  0  0  0  0  1  0  0
  -20.4612  -21.3387   22.6435 O   0  0  0  0  0  0  0  0  0  0  0  0
  -33.6299  -21.0462   23.5630 F   0  0  0  0  0  0  0  0  0  0  0  0
  -29.7298  -22.3668   21.2284 F   0  0  0  0  0  0  0  0  0  0  0  0
  1  2  1  0  0  0  0
  1  5  2  0  0  0  0
  2  6  2  0  0  0  0
  3  8  2  0  0  0  0
  3 16  1  0  0  0  0
  4  9  1  0  0  0  0
  4 16  2  0  0  0  0
  5 18  1  0  0  0  0
  6 20  1  0  0  0  0
  7 10  2  0  0  0  0
  7 19  1  0  0  0  0
  8 22  1  0  0  0  0
  9 22  2  0  0  0  0
 10 23  1  0  0  0  0
 11 12  2  0  0  0  0
 11 24  1  0  0  0  0
 12 26  1  0  0  0  0
 13 21  1  0  0  0  0
 13 23  2  0  0  0  0
 14 26  2  0  0  0  0
 14 27  1  0  0  0  0
 15 25  1  0  0  0  0
 15 67  2  0  0  0  0
 16 28  1  0  0  0  0
 17 28  1  0  0  0  0
 17 30  2  0  0  0  0
 17 32  1  0  0  0  0
 18 20  2  0  0  0  0
 18 37  1  0  0  0  0
 19 21  2  0  0  0  0
 19 38  1  0  0  0  0
 20 46  1  0  0  0  0
 21 39  1  0  0  0  0
 22 84  1  0  0  0  0
 23 85  1  0  0  0  0
 24 27  2  0  0  0  0
 24 84  1  0  0  0  0
 25 29  2  0  0  0  0
 25 86  1  0  0  0  0
 26 87  1  0  0  0  0
 27 88  1  0  0  0  0
 28 68  2  0  0  0  0
 29 62  1  0  0  0  0
 29 69  1  0  0  0  0
 30 70  1  0  0  0  0
 30 73  1  0  0  0  0
 31 57  1  0  0  0  0
 31 67  1  0  0  0  0
 31 69  2  0  0  0  0
 32 74  1  0  0  0  0
 32 79  2  0  0  0  0
 33 47  1  0  0  0  0
 33 75  1  0  0  0  0
 33 80  2  0  0  0  0
 34 63  1  0  0  0  0
 34 71  1  0  0  0  0
 34 81  2  0  0  0  0
 35 64  1  0  0  0  0
 35 76  1  0  0  0  0
 35 82  2  0  0  0  0
 36 72  1  0  0  0  0
 36 77  1  0  0  0  0
 36 83  2  0  0  0  0
 37 40  1  0  0  0  0
 38 47  1  0  0  0  0
 39 71  1  0  0  0  0
 40 42  1  0  0  0  0
 41 43  1  0  0  0  0
 41 44  1  0  0  0  0
 42 46  1  0  0  0  0
 43 48  1  0  0  0  0
 44 72  1  0  0  0  0
 45 48  1  0  0  0  0
 45 72  1  0  0  0  0
 46 75  1  0  0  0  0
 47 71  1  0  0  0  0
 48 70  1  0  0  0  0
 49 62  1  0  0  0  0
 50 62  1  0  0  0  0
 51 64  1  0  0  0  0
 52 65  1  0  0  0  0
 53 66  1  0  0  0  0
 54 66  1  0  0  0  0
 55 66  1  0  0  0  0
 56 78  1  0  0  0  0
 57 65  1  0  0  0  0
 58 59  1  0  0  0  0
 58 60  1  0  0  0  0
 59 61  1  0  0  0  0
 60 85  1  0  0  0  0
 61 86  1  0  0  0  0
 63 66  1  0  0  0  0
 63 76  1  0  0  0  0
 64 78  1  0  0  0  0
 65 77  1  0  0  0  0
 68 70  1  0  0  0  0
M  CHG  1  78   1
M  ISO  4  36 100  60 101  77 100  85 101
M  END
> <Batch ID>
0076

> <Smiles>
CNC(C)C(=O)NC(C(=O)N1Cc2cc([101O:1][101CH2:1]CCCOc3cnc(CC(C)[100NH:0][100C:0](=O)N4CCCC(n5nc(-c6ccc(Oc7ccc(F)cc7F)cc6)c(C(N)=O)c5N)C4)nc3C(C)C)ccc2CC1C(=O)NC1CCCc2ccccc21)C(C)(C)C

> <Shape>
0.260

> <Color>
0.084

> <Negative vol penalty>
0.000

$$$$

  -OEChem-04052318343D

 83 91  0     1  0  0  0  0  0999 V2000
  -23.7414  -31.3443   20.9680 C   0  0  0  0  0  0  0  0  0  0  0  0
  -23.1626  -30.1889   21.4831 C   0  0  0  0  0  0  0  0  0  0  0  0
  -30.5576  -19.4047   18.8379 C   0  0  0  0  0  0  0  0  0  0  0  0
  -28.7690  -19.8277   20.4061 C   0  0  0  0  0  0  0  0  0  0  0  0
  -25.0796  -31.3373   20.5765 C   0  0  0  0  0  0  0  0  0  0  0  0
  -23.9213  -29.0254   21.6060 C   0  0  0  0  0  0  0  0  0  0  0  0
  -23.4777  -24.7885   26.0056 C   0  0  0  0  0  0  0  0  0  0  0  0
  -30.3189  -20.6386   18.2328 C   0  0  0  0  0  0  0  0  0  0  0  0
  -28.5304  -21.0617   19.8011 C   0  0  0  0  0  0  0  0  0  0  0  0
  -22.8358  -23.5518   26.0556 C   0  0  0  0  0  0  0  0  0  0  0  0
  -26.9778  -22.2186   17.0294 C   0  0  0  0  0  0  0  0  0  0  0  0
  -25.6527  -22.5666   16.7678 C   0  0  0  0  0  0  0  0  0  0  0  0
  -24.9049  -22.4608   25.4658 C   0  0  0  0  0  0  0  0  0  0  0  0
  -25.8852  -24.5132   18.1800 C   0  0  0  0  0  0  0  0  0  0  0  0
  -22.1786  -15.9779   20.9591 C   0  0  0  0  0  0  0  0  0  0  0  0
  -22.4268  -14.7823   22.7878 C   0  0  0  0  0  0  0  0  0  0  0  0
  -29.7826  -18.9992   19.9245 C   0  0  0  0  0  0  0  0  0  0  0  0
  -30.9030  -17.4569   21.6197 C   0  0  0  0  0  0  0  0  0  0  0  0
  -25.8577  -30.1759   20.7036 C   0  0  0  0  0  0  0  0  0  0  0  0
  -24.8377  -24.8716   25.6741 C   0  0  0  0  0  0  0  0  0  0  0  0
  -25.2707  -29.0025   21.2145 C   0  0  0  0  0  0  0  0  0  0  0  0
  -25.5623  -23.6995   25.4148 C   0  0  0  0  0  0  0  0  0  0  0  0
  -22.0472  -16.0310   22.3597 C   0  0  0  0  0  0  0  0  0  0  0  0
  -29.3054  -21.4671   18.7144 C   0  0  0  0  0  0  0  0  0  0  0  0
  -23.5487  -22.3880   25.7829 C   0  0  0  0  0  0  0  0  0  0  0  0
  -27.7567  -23.0178   17.8663 C   0  0  0  0  0  0  0  0  0  0  0  0
  -25.1063  -23.7139   17.3431 C   0  0  0  0  0  0  0  0  0  0  0  0
  -27.2103  -24.1651   18.4416 C   0  0  0  0  0  0  0  0  0  0  0  0
  -30.0283  -17.7245   20.5496 C   0  0  0  0  0  0  0  0  0  0  0  0
  -30.7747  -16.1071   21.8387 C   0  0  0  0  0  0  0  0  0  0  0  0
  -31.7552  -18.3488   22.3504 C   0  0  0  0  0  0  0  0  0  0  0  0
  -26.4950  -26.2276   23.3250 C   0  0  0  0  0  0  0  0  0  0  0  0
  -29.0404  -25.2559   25.0853 C   0  0  0  0  0  0  0  0  0  0  0  0
  -30.2986  -23.1059   27.4180 C   0  0  0  0  0  0  0  0  0  0  0  0
  -26.3785  -12.1961   20.7301 C   0  0  0  0  0  0  0  0  0  0  0  0
  -27.2870  -30.2035   20.2230 C   0  0  0  0  0  0  0  0  0  0  0  0
  -25.5217  -26.2110   25.6506 C   0  0  0  0  0  0  0  0  0  0  0  0
  -27.0289  -23.7330   25.0738 C   0  0  0  0  0  0  0  0  0  0  0  0
  -28.1245  -29.0343   20.7349 C   0  0  0  0  0  0  0  0  0  0  0  0
  -29.7388  -12.0266   19.5656 C   0  0  0  0  0  0  0  0  0  0  0  0
  -27.3656  -27.7214   20.5695 C   0  0  0  0  0  0  0  0  0  0  0  0
  -30.2729  -13.4435   19.7822 C   0  0  0  0  0  0  0  0  0  0  0  0
  -28.2719  -12.0352   19.1410 C   0  0  0  0  0  0  0  0  0  0  0  0
  -27.9068  -14.2043   20.2525 C   0  0  0  0  0  0  0  0  0  0  0  0
  -26.0679  -27.7277   21.3864 C   0  0  1  0  0  0  0  0  0  0  0  0
  -26.7873  -26.2207   24.7988 C   0  0  1  0  0  0  0  0  0  0  0  0
  -29.3665  -14.2447   20.7360 C   0  0  2  0  0  0  0  0  0  0  0  0
  -32.4222  -22.5318   28.6254 C   0  0  0  0  0  0  0  0  0  0  0  0
  -22.1362  -11.7572   22.1286 C   0  0  0  0  0  0  0  0  0  0  0  0
  -30.0941  -23.8814   22.5732 C   0  0  0  0  0  0  0  0  0  0  0  0
  -31.6549  -22.5721   24.0285 C   0  0  0  0  0  0  0  0  0  0  0  0
  -31.8366  -25.0580   23.9274 C   0  0  0  0  0  0  0  0  0  0  0  0
  -29.0986  -23.7084   30.0555 C   0  0  0  0  0  0  0  0  0  0  0  0
  -21.5945  -17.1962   23.2031 C   0  0  0  0  0  0  0  0  0  0  0  0
  -22.7360  -18.1142   23.6544 C   0  0  0  0  0  0  0  0  0  0  0  0
  -22.2678  -19.2451   24.5713 C   0  0  0  0  0  0  0  0  0  0  0  0
  -24.5315  -12.5088   22.3581 C   0  0  0  0  0  0  0  0  0  0  0  0
  -23.4206  -20.1580   24.9664 C   0  0  0  0  0  0  0  0  0  1  0  0
  -29.8855  -24.0063   25.1436 C   0  0  1  0  0  0  0  0  0  0  0  0
  -31.1381  -23.3457   28.6599 C   0  0  2  0  0  0  0  0  0  0  0  0
  -23.2090  -12.7173   21.6034 C   0  0  2  0  0  0  0  0  0  0  0  0
  -30.8397  -23.8786   23.9227 C   0  0  0  0  0  0  0  0  0  0  0  0
  -22.6083  -14.7896   20.5262 N   0  0  0  0  0  0  0  0  0  0  0  0
  -29.3915  -16.6323   20.1187 N   0  0  0  0  0  0  0  0  0  0  0  0
  -22.7503  -14.0845   21.6614 N   0  0  0  0  0  0  0  0  0  0  0  0
  -29.8665  -15.6653   20.9220 N   0  0  0  0  0  0  0  0  0  0  0  0
  -27.6514  -25.0671   25.0573 N   0  0  0  0  0  0  0  0  0  0  0  0
  -27.4664  -12.8101   20.0879 N   0  0  0  0  0  0  0  0  0  0  0  0
  -31.3512  -15.2668   22.7241 N   0  0  0  0  0  0  0  0  0  0  0  0
  -31.7652  -19.7045   21.9950 N   0  0  0  0  0  0  0  0  0  0  0  0
  -26.3505  -27.4917   22.7860 N   0  0  0  0  0  0  0  0  0  0  0  0
  -30.5662  -24.0336   26.4337 N   0  0  0  0  0  0  0  0  0  0  0  0
  -25.6719  -12.9995   21.6168 N   0  0  0  0  0  0  0  0  0  0  0  0
  -30.3745  -22.9673   29.8824 N   0  3  0  0  0  0  0  0  0  0  0  0
  -32.4984  -17.9523   23.2798 O   0  0  0  0  0  0  0  0  0  0  0  0
  -26.4084  -25.1647   22.7212 O   0  0  0  0  0  0  0  0  0  0  0  0
  -29.5923  -26.3590   25.0725 O   0  0  0  0  0  0  0  0  0  0  0  0
  -29.4892  -22.1854   27.3287 O   0  0  0  0  0  0  0  0  0  0  0  0
  -26.0635  -11.0178   20.5322 O   0  0  0  0  0  0  0  0  0  0  0  0
  -29.0723  -22.6714   18.1244 O   0  0  0  0  0  0  0  0  0  0  0  0
  -22.9245  -21.1797   25.8304 O   0  0  0  0  0  0  0  0  0  1  0  0
  -23.8342  -24.0488   17.0906 F   0  0  0  0  0  0  0  0  0  0  0  0
  -27.9540  -24.9375   19.2454 F   0  0  0  0  0  0  0  0  0  0  0  0
  1  2  1  0  0  0  0
  1  5  2  0  0  0  0
  2  6  2  0  0  0  0
  3  8  2  0  0  0  0
  3 17  1  0  0  0  0
  4  9  1  0  0  0  0
  4 17  2  0  0  0  0
  5 19  1  0  0  0  0
  6 21  1  0  0  0  0
  7 10  2  0  0  0  0
  7 20  1  0  0  0  0
  8 24  1  0  0  0  0
  9 24  2  0  0  0  0
 10 25  1  0  0  0  0
 11 12  2  0  0  0  0
 11 26  1  0  0  0  0
 12 27  1  0  0  0  0
 13 22  1  0  0  0  0
 13 25  2  0  0  0  0
 14 27  2  0  0  0  0
 14 28  1  0  0  0  0
 15 23  1  0  0  0  0
 15 63  2  0  0  0  0
 16 23  2  0  0  0  0
 16 65  1  0  0  0  0
 17 29  1  0  0  0  0
 18 29  1  0  0  0  0
 18 30  2  0  0  0  0
 18 31  1  0  0  0  0
 19 21  2  0  0  0  0
 19 36  1  0  0  0  0
 20 22  2  0  0  0  0
 20 37  1  0  0  0  0
 21 45  1  0  0  0  0
 22 38  1  0  0  0  0
 23 54  1  0  0  0  0
 24 80  1  0  0  0  0
 25 81  1  0  0  0  0
 26 28  2  0  0  0  0
 26 80  1  0  0  0  0
 27 82  1  0  0  0  0
 28 83  1  0  0  0  0
 29 64  2  0  0  0  0
 30 66  1  0  0  0  0
 30 69  1  0  0  0  0
 31 70  1  0  0  0  0
 31 75  2  0  0  0  0
 32 46  1  0  0  0  0
 32 71  1  0  0  0  0
 32 76  2  0  0  0  0
 33 59  1  0  0  0  0
 33 67  1  0  0  0  0
 33 77  2  0  0  0  0
 34 60  1  0  0  0  0
 34 72  1  0  0  0  0
 34 78  2  0  0  0  0
 35 68  1  0  0  0  0
 35 73  1  0  0  0  0
 35 79  2  0  0  0  0
 36 39  1  0  0  0  0
 37 46  1  0  0  0  0
 38 67  1  0  0  0  0
 39 41  1  0  0  0  0
 40 42  1  0  0  0  0
 40 43  1  0  0  0  0
 41 45  1  0  0  0  0
 42 47  1  0  0  0  0
 43 68  1  0  0  0  0
 44 47  1  0  0  0  0
 44 68  1  0  0  0  0
 45 71  1  0  0  0  0
 46 67  1  0  0  0  0
 47 66  1  0  0  0  0
 48 60  1  0  0  0  0
 49 61  1  0  0  0  0
 50 62  1  0  0  0  0
 51 62  1  0  0  0  0
 52 62  1  0  0  0  0
 53 74  1  0  0  0  0
 54 55  1  0  0  0  0
 55 56  1  0  0  0  0
 56 58  1  0  0  0  0
 57 61  1  0  0  0  0
 57 73  1  0  0  0  0
 58 81  1  0  0  0  0
 59 62  1  0  0  0  0
 59 72  1  0  0  0  0
 60 74  1  0  0  0  0
 61 65  1  0  0  0  0
 63 65  1  0  0  0  0
 64 66  1  0  0  0  0
M  CHG  1  74   1
M  ISO  4  35 100  58 101  73 100  81 101
M  END
> <Batch ID>
0076

> <Smiles>
CNC(C)C(=O)NC(C(=O)N1Cc2cc([101O:1][101CH2:1]CCCc3cnn(C(C)C[100NH:0][100C:0](=O)N4CCCC(n5nc(-c6ccc(Oc7ccc(F)cc7F)cc6)c(C(N)=O)c5N)C4)c3)ccc2CC1C(=O)NC1CCCc2ccccc21)C(C)(C)C

> <Shape>
0.188

> <Color>
0.081

> <Negative vol penalty>
0.000

$$$$

  -OEChem-04052318343D

 86 94  0     1  0  0  0  0  0999 V2000
  -18.0997  -28.2822   22.6838 C   0  0  0  0  0  0  0  0  0  0  0  0
  -18.0697  -26.9152   22.9400 C   0  0  0  0  0  0  0  0  0  0  0  0
  -28.9582  -22.7915   20.6163 C   0  0  0  0  0  0  0  0  0  0  0  0
  -29.9246  -22.2728   18.4636 C   0  0  0  0  0  0  0  0  0  0  0  0
  -19.3008  -28.8989   22.3358 C   0  0  0  0  0  0  0  0  0  0  0  0
  -19.2407  -26.1637   22.8474 C   0  0  0  0  0  0  0  0  0  0  0  0
  -22.4773  -20.4859   25.7804 C   0  0  0  0  0  0  0  0  0  0  0  0
  -29.5185  -24.0676   20.5605 C   0  0  0  0  0  0  0  0  0  0  0  0
  -30.4849  -23.5490   18.4078 C   0  0  0  0  0  0  0  0  0  0  0  0
  -23.0805  -19.2827   25.4164 C   0  0  0  0  0  0  0  0  0  0  0  0
  -30.9947  -27.3386   21.1480 C   0  0  0  0  0  0  0  0  0  0  0  0
  -31.6247  -27.8226   22.2944 C   0  0  0  0  0  0  0  0  0  0  0  0
  -25.1123  -20.4693   24.8844 C   0  0  0  0  0  0  0  0  0  0  0  0
  -33.1747  -25.9707   22.2247 C   0  0  0  0  0  0  0  0  0  0  0  0
  -25.7629  -14.1441   19.3482 C   0  0  0  0  0  0  0  0  0  0  0  0
  -29.1612  -21.8940   19.5679 C   0  0  0  0  0  0  0  0  0  0  0  0
  -27.3174  -20.1809   19.1519 C   0  0  0  0  0  0  0  0  0  0  0  0
  -20.4889  -28.1563   22.2482 C   0  0  0  0  0  0  0  0  0  0  0  0
  -23.1848  -21.6931   25.6886 C   0  0  0  0  0  0  0  0  0  0  0  0
  -20.4586  -26.7708   22.4966 C   0  0  0  0  0  0  0  0  0  0  0  0
  -24.5167  -21.6860   25.2503 C   0  0  0  0  0  0  0  0  0  0  0  0
  -30.2819  -24.4464   19.4562 C   0  0  0  0  0  0  0  0  0  0  0  0
  -24.3972  -19.2747   24.9655 C   0  0  0  0  0  0  0  0  0  0  0  0
  -31.4546  -26.1705   20.5399 C   0  0  0  0  0  0  0  0  0  0  0  0
  -32.7147  -27.1387   22.8328 C   0  0  0  0  0  0  0  0  0  0  0  0
  -32.5446  -25.4866   21.0782 C   0  0  0  0  0  0  0  0  0  0  0  0
  -28.5831  -20.5755   19.6253 C   0  0  0  0  0  0  0  0  0  0  0  0
  -26.2480  -12.8878   19.6379 C   0  0  0  0  0  0  0  0  0  0  0  0
  -24.8943  -14.2953   21.4582 C   0  0  0  0  0  0  0  0  0  0  0  0
  -25.3787  -13.0387   21.7478 C   0  0  0  0  0  0  0  0  0  0  0  0
  -27.2452  -18.8402   19.4415 C   0  0  0  0  0  0  0  0  0  0  0  0
  -26.2982  -20.9568   18.5079 C   0  0  0  0  0  0  0  0  0  0  0  0
  -22.8220  -24.3859   24.0391 C   0  0  0  0  0  0  0  0  0  0  0  0
  -25.3218  -25.3760   25.8537 C   0  0  0  0  0  0  0  0  0  0  0  0
  -28.0544  -24.5451   27.7216 C   0  0  0  0  0  0  0  0  0  0  0  0
  -31.0886  -14.3347   19.5524 C   0  0  0  0  0  0  0  0  0  0  0  0
  -21.7540  -28.8584   21.8224 C   0  0  0  0  0  0  0  0  0  0  0  0
  -22.5286  -22.9791   26.1105 C   0  0  0  0  0  0  0  0  0  0  0  0
  -25.3262  -22.9524   25.1528 C   0  0  0  0  0  0  0  0  0  0  0  0
  -23.0215  -28.0583   22.1117 C   0  0  0  0  0  0  0  0  0  0  0  0
  -29.5508  -15.8079   22.5800 C   0  0  0  0  0  0  0  0  0  0  0  0
  -22.8520  -26.6097   21.6651 C   0  0  0  0  0  0  0  0  0  0  0  0
  -29.0948  -17.1804   22.0878 C   0  0  0  0  0  0  0  0  0  0  0  0
  -30.7594  -15.2986   21.8006 C   0  0  0  0  0  0  0  0  0  0  0  0
  -30.1022  -16.6457   19.8340 C   0  0  0  0  0  0  0  0  0  0  0  0
  -21.7125  -25.9262   22.4305 C   0  0  1  0  0  0  0  0  0  0  0  0
  -23.1764  -24.2125   25.4889 C   0  0  1  0  0  0  0  0  0  0  0  0
  -28.8574  -17.1670   20.5677 C   0  0  2  0  0  0  0  0  0  0  0  0
  -26.0436  -11.1803   23.2941 C   0  0  0  0  0  0  0  0  0  0  0  0
  -29.9216  -25.5729   29.0464 C   0  0  0  0  0  0  0  0  0  0  0  0
  -26.7445  -26.1274   23.2611 C   0  0  0  0  0  0  0  0  0  0  0  0
  -28.8875  -26.2379   24.5508 C   0  0  0  0  0  0  0  0  0  0  0  0
  -27.0126  -27.7833   25.1160 C   0  0  0  0  0  0  0  0  0  0  0  0
  -31.1328  -13.4887   17.2369 C   0  0  0  0  0  0  0  0  0  0  0  0
  -27.1715  -23.2176   30.2150 C   0  0  0  0  0  0  0  0  0  0  0  0
  -27.0020  -12.1145   18.6135 C   0  0  0  0  0  0  0  0  0  0  0  0
  -24.1285  -15.0974   22.4799 C   0  0  0  0  0  0  0  0  0  0  0  0
  -25.1682  -12.4136   23.0845 C   0  0  0  0  0  0  0  0  0  0  0  0
  -28.5265  -12.3500   18.6265 C   0  0  0  0  0  0  0  0  0  0  0  0
  -24.9466  -16.2212   23.1197 C   0  0  0  0  0  0  0  0  0  0  0  0
  -28.9416  -13.7894   18.3295 C   0  0  0  0  0  0  0  0  0  0  0  0
  -24.1401  -17.0796   24.0872 C   0  0  0  0  0  0  0  0  0  1  0  0
  -26.8247  -25.3348   25.7170 C   0  0  1  0  0  0  0  0  0  0  0  0
  -28.5128  -25.0022   29.0948 C   0  0  2  0  0  0  0  0  0  0  0  0
  -27.3517  -26.3471   24.6611 C   0  0  0  0  0  0  0  0  0  0  0  0
  -25.0774  -14.8704   20.2532 N   0  0  0  0  0  0  0  0  0  0  0  0
  -29.2658  -19.5671   20.1741 N   0  0  0  0  0  0  0  0  0  0  0  0
  -26.0645  -12.3125   20.8429 N   0  0  0  0  0  0  0  0  0  0  0  0
  -28.4259  -18.5256   20.0475 N   0  0  0  0  0  0  0  0  0  0  0  0
  -24.6382  -24.1850   25.5708 N   0  0  0  0  0  0  0  0  0  0  0  0
  -30.5225  -15.3371   20.3571 N   0  0  0  0  0  0  0  0  0  0  0  0
  -26.2875  -17.9115   19.2345 N   0  0  0  0  0  0  0  0  0  0  0  0
  -26.5359  -22.3202   18.2870 N   0  0  0  0  0  0  0  0  0  0  0  0
  -22.1466  -25.5590   23.7614 N   0  0  0  0  0  0  0  0  0  0  0  0
  -27.3622  -25.5361   27.0582 N   0  0  0  0  0  0  0  0  0  0  0  0
  -30.3895  -13.9772   18.3896 N   0  0  0  0  0  0  0  0  0  0  0  0
  -28.5012  -23.8597   30.0516 N   0  3  0  0  0  0  0  0  0  0  0  0
  -25.2023  -20.4594   18.1541 O   0  0  0  0  0  0  0  0  0  0  0  0
  -23.1392  -23.5201   23.2318 O   0  0  0  0  0  0  0  0  0  0  0  0
  -24.7752  -26.4243   26.2057 O   0  0  0  0  0  0  0  0  0  0  0  0
  -28.2904  -23.4227   27.2801 O   0  0  0  0  0  0  0  0  0  0  0  0
  -32.1530  -13.7836   19.8611 O   0  0  0  0  0  0  0  0  0  0  0  0
  -30.8286  -25.6916   19.4013 O   0  0  0  0  0  0  0  0  0  0  0  0
  -24.9881  -18.1018   24.6090 O   0  0  0  0  0  0  0  0  0  1  0  0
  -33.3205  -27.6045   23.9328 F   0  0  0  0  0  0  0  0  0  0  0  0
  -32.9918  -24.3645   20.4977 F   0  0  0  0  0  0  0  0  0  0  0  0
  1  2  1  0  0  0  0
  1  5  2  0  0  0  0
  2  6  2  0  0  0  0
  3  8  2  0  0  0  0
  3 16  1  0  0  0  0
  4  9  1  0  0  0  0
  4 16  2  0  0  0  0
  5 18  1  0  0  0  0
  6 20  1  0  0  0  0
  7 10  2  0  0  0  0
  7 19  1  0  0  0  0
  8 22  1  0  0  0  0
  9 22  2  0  0  0  0
 10 23  1  0  0  0  0
 11 12  2  0  0  0  0
 11 24  1  0  0  0  0
 12 25  1  0  0  0  0
 13 21  1  0  0  0  0
 13 23  2  0  0  0  0
 14 25  2  0  0  0  0
 14 26  1  0  0  0  0
 15 28  1  0  0  0  0
 15 66  2  0  0  0  0
 16 27  1  0  0  0  0
 17 27  1  0  0  0  0
 17 31  2  0  0  0  0
 17 32  1  0  0  0  0
 18 20  2  0  0  0  0
 18 37  1  0  0  0  0
 19 21  2  0  0  0  0
 19 38  1  0  0  0  0
 20 46  1  0  0  0  0
 21 39  1  0  0  0  0
 22 83  1  0  0  0  0
 23 84  1  0  0  0  0
 24 26  2  0  0  0  0
 24 83  1  0  0  0  0
 25 85  1  0  0  0  0
 26 86  1  0  0  0  0
 27 67  2  0  0  0  0
 28 56  1  0  0  0  0
 28 68  2  0  0  0  0
 29 30  2  0  0  0  0
 29 57  1  0  0  0  0
 29 66  1  0  0  0  0
 30 58  1  0  0  0  0
 30 68  1  0  0  0  0
 31 69  1  0  0  0  0
 31 72  1  0  0  0  0
 32 73  1  0  0  0  0
 32 78  2  0  0  0  0
 33 47  1  0  0  0  0
 33 74  1  0  0  0  0
 33 79  2  0  0  0  0
 34 63  1  0  0  0  0
 34 70  1  0  0  0  0
 34 80  2  0  0  0  0
 35 64  1  0  0  0  0
 35 75  1  0  0  0  0
 35 81  2  0  0  0  0
 36 71  1  0  0  0  0
 36 76  1  0  0  0  0
 36 82  2  0  0  0  0
 37 40  1  0  0  0  0
 38 47  1  0  0  0  0
 39 70  1  0  0  0  0
 40 42  1  0  0  0  0
 41 43  1  0  0  0  0
 41 44  1  0  0  0  0
 42 46  1  0  0  0  0
 43 48  1  0  0  0  0
 44 71  1  0  0  0  0
 45 48  1  0  0  0  0
 45 71  1  0  0  0  0
 46 74  1  0  0  0  0
 47 70  1  0  0  0  0
 48 69  1  0  0  0  0
 49 58  1  0  0  0  0
 50 64  1  0  0  0  0
 51 65  1  0  0  0  0
 52 65  1  0  0  0  0
 53 65  1  0  0  0  0
 54 76  1  0  0  0  0
 55 77  1  0  0  0  0
 56 59  1  0  0  0  0
 57 60  1  0  0  0  0
 59 61  1  0  0  0  0
 60 62  1  0  0  0  0
 61 76  1  0  0  0  0
 62 84  1  0  0  0  0
 63 65  1  0  0  0  0
 63 75  1  0  0  0  0
 64 77  1  0  0  0  0
 67 69  1  0  0  0  0
M  CHG  1  77   1
M  ISO  4  36 100  62 101  76 100  84 101
M  END
> <Batch ID>
0076

> <Smiles>
CCc1nc(CCC[100N:0](C)[100C:0](=O)N2CCCC(n3nc(-c4ccc(Oc5ccc(F)cc5F)cc4)c(C(N)=O)c3N)C2)cnc1CC[101CH2:1][101O:1]c1ccc2c(c1)CN(C(=O)C(NC(=O)C(C)NC)C(C)(C)C)C(C(=O)NC1CCCc3ccccc31)C2

> <Shape>
0.212

> <Color>
0.086

> <Negative vol penalty>
0.000

$$$$

  -OEChem-04052318343D

 85 93  0     1  0  0  0  0  0999 V2000
  -40.7032  -19.5155   17.5063 C   0  0  0  0  0  0  0  0  0  0  0  0
  -39.4388  -19.1103   17.9216 C   0  0  0  0  0  0  0  0  0  0  0  0
  -23.3553   -9.8008   19.8972 C   0  0  0  0  0  0  0  0  0  0  0  0
  -23.8057   -9.9435   22.2666 C   0  0  0  0  0  0  0  0  0  0  0  0
  -41.0268  -20.8714   17.4832 C   0  0  0  0  0  0  0  0  0  0  0  0
  -38.4975  -20.0609   18.3152 C   0  0  0  0  0  0  0  0  0  0  0  0
  -32.4363  -19.8069   17.4767 C   0  0  0  0  0  0  0  0  0  0  0  0
  -22.6788   -8.5978   20.0982 C   0  0  0  0  0  0  0  0  0  0  0  0
  -23.1291   -8.7404   22.4676 C   0  0  0  0  0  0  0  0  0  0  0  0
  -31.3884  -19.4298   18.3154 C   0  0  0  0  0  0  0  0  0  0  0  0
  -19.6383   -7.6025   21.1929 C   0  0  0  0  0  0  0  0  0  0  0  0
  -18.4140   -7.4316   20.5469 C   0  0  0  0  0  0  0  0  0  0  0  0
  -31.0282  -21.7435   18.8956 C   0  0  0  0  0  0  0  0  0  0  0  0
  -19.2938   -5.5018   19.3898 C   0  0  0  0  0  0  0  0  0  0  0  0
  -23.9189  -10.4737   20.9814 C   0  0  0  0  0  0  0  0  0  0  0  0
  -24.0726  -13.0136   20.8001 C   0  0  0  0  0  0  0  0  0  0  0  0
  -40.0859  -21.8397   17.8675 C   0  0  0  0  0  0  0  0  0  0  0  0
  -32.7957  -21.1564   17.3493 C   0  0  0  0  0  0  0  0  0  0  0  0
  -38.8093  -21.4310   18.2985 C   0  0  0  0  0  0  0  0  0  0  0  0
  -32.0794  -22.1353   18.0526 C   0  0  0  0  0  0  0  0  0  0  0  0
  -22.5656   -8.0675   21.3834 C   0  0  0  0  0  0  0  0  0  0  0  0
  -30.6860  -20.3979   19.0272 C   0  0  0  0  0  0  0  0  0  0  0  0
  -20.6905   -6.7232   20.9373 C   0  0  0  0  0  0  0  0  0  0  0  0
  -18.2417   -6.3813   19.6454 C   0  0  0  0  0  0  0  0  0  0  0  0
  -20.5183   -5.6728   20.0358 C   0  0  0  0  0  0  0  0  0  0  0  0
  -24.6184  -11.7162   20.7743 C   0  0  0  0  0  0  0  0  0  0  0  0
  -25.1401  -13.8403   20.5483 C   0  0  0  0  0  0  0  0  0  0  0  0
  -33.4669  -17.7655   22.1293 C   0  0  0  0  0  0  0  0  0  0  0  0
  -32.1558  -16.4998   23.3076 C   0  0  0  0  0  0  0  0  0  0  0  0
  -22.7214  -13.4339   21.0312 C   0  0  0  0  0  0  0  0  0  0  0  0
  -35.4129  -22.8491   17.9728 C   0  0  0  0  0  0  0  0  0  0  0  0
  -33.7400  -25.2328   16.5439 C   0  0  0  0  0  0  0  0  0  0  0  0
  -30.7022  -26.5221   15.6742 C   0  0  0  0  0  0  0  0  0  0  0  0
  -31.0430  -13.2360   21.3493 C   0  0  0  0  0  0  0  0  0  0  0  0
  -40.4974  -23.2907   17.8708 C   0  0  0  0  0  0  0  0  0  0  0  0
  -33.9112  -21.5493   16.4200 C   0  0  0  0  0  0  0  0  0  0  0  0
  -32.4126  -23.5994   17.9351 C   0  0  0  0  0  0  0  0  0  0  0  0
  -39.3188  -24.2579   17.9467 C   0  0  0  0  0  0  0  0  0  0  0  0
  -29.3573  -13.9277   18.2904 C   0  0  0  0  0  0  0  0  0  0  0  0
  -38.3348  -23.8168   19.0255 C   0  0  0  0  0  0  0  0  0  0  0  0
  -27.9024  -13.5565   18.5825 C   0  0  0  0  0  0  0  0  0  0  0  0
  -30.3322  -12.9830   18.9898 C   0  0  0  0  0  0  0  0  0  0  0  0
  -28.6691  -12.4718   20.7353 C   0  0  0  0  0  0  0  0  0  0  0  0
  -37.7529  -22.4337   18.7093 C   0  0  1  0  0  0  0  0  0  0  0  0
  -34.5249  -22.9035   16.7620 C   0  0  1  0  0  0  0  0  0  0  0  0
  -27.6491  -13.4301   20.0968 C   0  0  2  0  0  0  0  0  0  0  0  0
  -33.9140  -18.8278   21.2110 C   0  0  0  0  0  0  0  0  0  0  0  0
  -29.6528  -28.5035   14.5472 C   0  0  0  0  0  0  0  0  0  0  0  0
  -34.2651  -26.9220   19.0301 C   0  0  0  0  0  0  0  0  0  0  0  0
  -32.4470  -28.4699   18.2771 C   0  0  0  0  0  0  0  0  0  0  0  0
  -34.4798  -28.1564   16.8657 C   0  0  0  0  0  0  0  0  0  0  0  0
  -28.9882  -18.1397   18.5337 C   0  0  0  0  0  0  0  0  0  0  0  0
  -28.1752  -18.4706   20.8830 C   0  0  0  0  0  0  0  0  0  0  0  0
  -29.4823  -24.8288   13.5758 C   0  0  0  0  0  0  0  0  0  0  0  0
  -30.9249  -15.9425   23.8959 C   0  0  0  0  0  0  0  0  0  0  0  0
  -31.1057  -14.5975   24.6427 C   0  0  0  0  0  0  0  0  0  0  0  0
  -30.5950  -17.9112   20.5050 C   0  0  0  0  0  0  0  0  0  0  0  0
  -30.9630  -18.3214   21.9380 C   0  0  0  0  0  0  0  0  0  0  0  0
  -31.6014  -13.4561   23.7574 C   0  0  0  0  0  0  0  0  0  0  0  0
  -32.7762  -26.2944   17.0163 C   0  0  1  0  0  0  0  0  0  0  0  0
  -30.1872  -27.0915   14.3646 C   0  0  2  0  0  0  0  0  0  0  0  0
  -33.4868  -27.4330   17.8012 C   0  0  0  0  0  0  0  0  0  0  0  0
  -29.3633  -18.6398   19.9304 C   0  0  0  0  0  0  0  0  0  1  0  0
  -25.9307  -11.7138   20.5255 N   0  0  0  0  0  0  0  0  0  0  0  0
  -34.2218  -16.8965   22.7630 N   0  0  0  0  0  0  0  0  0  0  0  0
  -33.3876  -16.0913   23.5126 N   0  0  0  0  0  0  0  0  0  0  0  0
  -26.2184  -13.0198   20.3927 N   0  0  0  0  0  0  0  0  0  0  0  0
  -32.1589  -17.5521   22.4431 N   0  0  0  0  0  0  0  0  0  0  0  0
  -33.5155  -23.9328   17.0186 N   0  0  0  0  0  0  0  0  0  0  0  0
  -30.0388  -12.9092   20.4231 N   0  0  0  0  0  0  0  0  0  0  0  0
  -25.2522  -15.1818   20.4469 N   0  0  0  0  0  0  0  0  0  0  0  0
  -21.7492  -12.4541   21.2742 N   0  0  0  0  0  0  0  0  0  0  0  0
  -36.7292  -22.5367   17.6915 N   0  0  0  0  0  0  0  0  0  0  0  0
  -32.0536  -26.7458   15.8320 N   0  0  0  0  0  0  0  0  0  0  0  0
  -30.6796  -13.1459   22.6874 N   0  0  0  0  0  0  0  0  0  0  0  0
  -29.0896  -26.2396   13.8255 N   0  3  0  0  0  0  0  0  0  0  0  0
  -22.3830  -14.6415   21.0061 O   0  0  0  0  0  0  0  0  0  0  0  0
  -34.9392  -23.0754   19.0801 O   0  0  0  0  0  0  0  0  0  0  0  0
  -34.6539  -25.5442   15.7762 O   0  0  0  0  0  0  0  0  0  0  0  0
  -29.9774  -25.9407   16.4786 O   0  0  0  0  0  0  0  0  0  0  0  0
  -32.1777  -13.5876   21.0088 O   0  0  0  0  0  0  0  0  0  0  0  0
  -21.9052   -6.8937   21.5800 O   0  0  0  0  0  0  0  0  0  0  0  0
  -29.6631  -20.0325   19.8470 O   0  0  0  0  0  0  0  0  0  1  0  0
  -17.0654   -6.2163   19.0264 F   0  0  0  0  0  0  0  0  0  0  0  0
  -21.5250   -4.8241   19.7870 F   0  0  0  0  0  0  0  0  0  0  0  0
  1  2  1  0  0  0  0
  1  5  2  0  0  0  0
  2  6  2  0  0  0  0
  3  8  2  0  0  0  0
  3 15  1  0  0  0  0
  4  9  1  0  0  0  0
  4 15  2  0  0  0  0
  5 17  1  0  0  0  0
  6 19  1  0  0  0  0
  7 10  2  0  0  0  0
  7 18  1  0  0  0  0
  8 21  1  0  0  0  0
  9 21  2  0  0  0  0
 10 22  1  0  0  0  0
 11 12  2  0  0  0  0
 11 23  1  0  0  0  0
 12 24  1  0  0  0  0
 13 20  1  0  0  0  0
 13 22  2  0  0  0  0
 14 24  2  0  0  0  0
 14 25  1  0  0  0  0
 15 26  1  0  0  0  0
 16 26  1  0  0  0  0
 16 27  2  0  0  0  0
 16 30  1  0  0  0  0
 17 19  2  0  0  0  0
 17 35  1  0  0  0  0
 18 20  2  0  0  0  0
 18 36  1  0  0  0  0
 19 44  1  0  0  0  0
 20 37  1  0  0  0  0
 21 82  1  0  0  0  0
 22 83  1  0  0  0  0
 23 25  2  0  0  0  0
 23 82  1  0  0  0  0
 24 84  1  0  0  0  0
 25 85  1  0  0  0  0
 26 64  2  0  0  0  0
 27 67  1  0  0  0  0
 27 71  1  0  0  0  0
 28 47  1  0  0  0  0
 28 65  2  0  0  0  0
 28 68  1  0  0  0  0
 29 55  1  0  0  0  0
 29 66  2  0  0  0  0
 29 68  1  0  0  0  0
 30 72  1  0  0  0  0
 30 77  2  0  0  0  0
 31 45  1  0  0  0  0
 31 73  1  0  0  0  0
 31 78  2  0  0  0  0
 32 60  1  0  0  0  0
 32 69  1  0  0  0  0
 32 79  2  0  0  0  0
 33 61  1  0  0  0  0
 33 74  1  0  0  0  0
 33 80  2  0  0  0  0
 34 70  1  0  0  0  0
 34 75  1  0  0  0  0
 34 81  2  0  0  0  0
 35 38  1  0  0  0  0
 36 45  1  0  0  0  0
 37 69  1  0  0  0  0
 38 40  1  0  0  0  0
 39 41  1  0  0  0  0
 39 42  1  0  0  0  0
 40 44  1  0  0  0  0
 41 46  1  0  0  0  0
 42 70  1  0  0  0  0
 43 46  1  0  0  0  0
 43 70  1  0  0  0  0
 44 73  1  0  0  0  0
 45 69  1  0  0  0  0
 46 67  1  0  0  0  0
 48 61  1  0  0  0  0
 49 62  1  0  0  0  0
 50 62  1  0  0  0  0
 51 62  1  0  0  0  0
 52 63  1  0  0  0  0
 53 63  1  0  0  0  0
 54 76  1  0  0  0  0
 55 56  1  0  0  0  0
 56 59  1  0  0  0  0
 57 58  1  0  0  0  0
 57 63  1  0  0  0  0
 58 68  1  0  0  0  0
 59 75  1  0  0  0  0
 60 62  1  0  0  0  0
 60 74  1  0  0  0  0
 61 76  1  0  0  0  0
 63 83  1  0  0  0  0
 64 67  1  0  0  0  0
 65 66  1  0  0  0  0
M  CHG  1  76   1
M  ISO  4  34 100  63 101  75 100  83 101
M  END
> <Batch ID>
0076

> <Smiles>
CNC(C)C(=O)NC(C(=O)N1Cc2cc([101O:1][101C:1](C)(C)CCn3c(C)nnc3CCC[100NH:0][100C:0](=O)N3CCCC(n4nc(-c5ccc(Oc6ccc(F)cc6F)cc5)c(C(N)=O)c4N)C3)ccc2CC1C(=O)NC1CCCc2ccccc21)C(C)(C)C

> <Shape>
0.171

> <Color>
0.184

> <Negative vol penalty>
0.000

$$$$

  -OEChem-04052318343D

 83 91  0     1  0  0  0  0  0999 V2000
  -17.7625  -31.7882   19.9765 C   0  0  0  0  0  0  0  0  0  0  0  0
  -19.1270  -31.8869   19.7244 C   0  0  0  0  0  0  0  0  0  0  0  0
  -27.3812  -17.4846   20.0562 C   0  0  0  0  0  0  0  0  0  0  0  0
  -29.6575  -17.0910   19.3487 C   0  0  0  0  0  0  0  0  0  0  0  0
  -17.3138  -31.2003   21.1585 C   0  0  0  0  0  0  0  0  0  0  0  0
  -20.0439  -31.3985   20.6546 C   0  0  0  0  0  0  0  0  0  0  0  0
  -25.4506  -28.7781   19.4685 C   0  0  0  0  0  0  0  0  0  0  0  0
  -27.0595  -16.1606   19.7579 C   0  0  0  0  0  0  0  0  0  0  0  0
  -29.3358  -15.7669   19.0504 C   0  0  0  0  0  0  0  0  0  0  0  0
  -26.7540  -29.2730   19.4734 C   0  0  0  0  0  0  0  0  0  0  0  0
  -28.8868  -12.8735   20.7378 C   0  0  0  0  0  0  0  0  0  0  0  0
  -29.7731  -11.8822   21.1589 C   0  0  0  0  0  0  0  0  0  0  0  0
  -27.0523  -28.4480   21.7205 C   0  0  0  0  0  0  0  0  0  0  0  0
  -30.0914  -11.1926   18.8654 C   0  0  0  0  0  0  0  0  0  0  0  0
  -33.5582  -26.5926   19.2962 C   0  0  0  0  0  0  0  0  0  0  0  0
  -28.6803  -17.9498   19.8516 C   0  0  0  0  0  0  0  0  0  0  0  0
  -29.4822  -19.8231   21.3863 C   0  0  0  0  0  0  0  0  0  0  0  0
  -18.2255  -30.6957   22.0992 C   0  0  0  0  0  0  0  0  0  0  0  0
  -24.9337  -28.1229   20.5954 C   0  0  0  0  0  0  0  0  0  0  0  0
  -19.6071  -30.8044   21.8508 C   0  0  0  0  0  0  0  0  0  0  0  0
  -25.7429  -27.9434   21.7264 C   0  0  0  0  0  0  0  0  0  0  0  0
  -28.0368  -15.3017   19.2550 C   0  0  0  0  0  0  0  0  0  0  0  0
  -27.5541  -29.1105   20.6006 C   0  0  0  0  0  0  0  0  0  0  0  0
  -28.6027  -13.0244   19.3805 C   0  0  0  0  0  0  0  0  0  0  0  0
  -30.3754  -11.0418   20.2227 C   0  0  0  0  0  0  0  0  0  0  0  0
  -29.2051  -12.1840   18.4443 C   0  0  0  0  0  0  0  0  0  0  0  0
  -29.0131  -19.3176   20.1590 C   0  0  0  0  0  0  0  0  0  0  0  0
  -33.8348  -26.4667   17.9641 C   0  0  0  0  0  0  0  0  0  0  0  0
  -29.6464  -21.1684   21.1632 C   0  0  0  0  0  0  0  0  0  0  0  0
  -34.2258  -28.5660   18.5477 C   0  0  0  0  0  0  0  0  0  0  0  0
  -29.7459  -19.1379   22.6178 C   0  0  0  0  0  0  0  0  0  0  0  0
  -22.5268  -28.6670   22.5990 C   0  0  0  0  0  0  0  0  0  0  0  0
  -31.3052  -24.7627   16.9116 C   0  0  0  0  0  0  0  0  0  0  0  0
  -23.3615  -25.7613   23.7749 C   0  0  0  0  0  0  0  0  0  0  0  0
  -25.7740  -23.3800   24.1702 C   0  0  0  0  0  0  0  0  0  0  0  0
  -17.6940  -30.1113   23.3840 C   0  0  0  0  0  0  0  0  0  0  0  0
  -23.5347  -27.5713   20.5644 C   0  0  0  0  0  0  0  0  0  0  0  0
  -25.2422  -27.2295   22.9544 C   0  0  0  0  0  0  0  0  0  0  0  0
  -18.7230  -29.2809   24.1469 C   0  0  0  0  0  0  0  0  0  0  0  0
  -27.8758  -24.4085   17.8881 C   0  0  0  0  0  0  0  0  0  0  0  0
  -20.0549  -30.0205   24.2237 C   0  0  0  0  0  0  0  0  0  0  0  0
  -27.8579  -23.0929   18.6653 C   0  0  0  0  0  0  0  0  0  0  0  0
  -28.8718  -24.3614   16.7336 C   0  0  0  0  0  0  0  0  0  0  0  0
  -30.2462  -22.6821   17.9221 C   0  0  0  0  0  0  0  0  0  0  0  0
  -20.6322  -30.2641   22.8241 C   0  0  1  0  0  0  0  0  0  0  0  0
  -22.9394  -27.3736   21.9550 C   0  0  1  0  0  0  0  0  0  0  0  0
  -29.2754  -22.6978   19.1161 C   0  0  2  0  0  0  0  0  0  0  0  0
  -34.6029  -29.9995   18.4711 C   0  0  0  0  0  0  0  0  0  0  0  0
  -35.1006  -24.5480   16.9464 C   0  0  0  0  0  0  0  0  0  0  0  0
  -26.7880  -21.1778   24.8178 C   0  0  0  0  0  0  0  0  0  0  0  0
  -23.5443  -27.0667   26.5267 C   0  0  0  0  0  0  0  0  0  0  0  0
  -24.8299  -25.0673   27.3128 C   0  0  0  0  0  0  0  0  0  0  0  0
  -22.4814  -24.8029   26.5144 C   0  0  0  0  0  0  0  0  0  0  0  0
  -25.0808  -22.1625   21.5633 C   0  0  0  0  0  0  0  0  0  0  0  0
  -32.6397  -24.2864   17.4276 C   0  0  0  0  0  0  0  0  0  0  0  0
  -32.2314  -28.3209   21.5868 C   0  0  0  0  0  0  0  0  0  0  0  0
  -31.1599  -29.0602   20.7839 C   0  0  0  0  0  0  0  0  0  0  0  0
  -33.6403  -28.4925   21.0075 C   0  0  0  0  0  0  0  0  0  0  0  0
  -29.7807  -28.8960   21.4082 C   0  0  0  0  0  0  0  0  0  1  0  0
  -33.7545  -25.3139   17.0634 C   0  0  1  0  0  0  0  0  0  0  0  0
  -24.3150  -25.2720   24.8381 C   0  0  1  0  0  0  0  0  0  0  0  0
  -25.7519  -21.8779   23.9523 C   0  0  2  0  0  0  0  0  0  0  0  0
  -23.8017  -25.5674   26.2757 C   0  0  0  0  0  0  0  0  0  0  0  0
  -28.8873  -20.2646   19.2256 N   0  0  0  0  0  0  0  0  0  0  0  0
  -33.8094  -27.9015   19.6305 N   0  0  0  0  0  0  0  0  0  0  0  0
  -29.2797  -21.3788   19.8665 N   0  0  0  0  0  0  0  0  0  0  0  0
  -34.2454  -27.7029   17.5268 N   0  3  0  0  0  0  0  0  0  0  0  0
  -23.8654  -26.7137   22.8776 N   0  0  0  0  0  0  0  0  0  0  0  0
  -30.2006  -23.9607   17.1992 N   0  0  0  0  0  0  0  0  0  0  0  0
  -30.0672  -22.1801   21.9518 N   0  0  0  0  0  0  0  0  0  0  0  0
  -29.5235  -17.7553   22.6740 N   0  0  0  0  0  0  0  0  0  0  0  0
  -21.2324  -29.0529   22.3072 N   0  0  0  0  0  0  0  0  0  0  0  0
  -24.5415  -23.8572   24.5634 N   0  0  0  0  0  0  0  0  0  0  0  0
  -26.0375  -21.5572   22.5252 N   0  3  0  0  0  0  0  0  0  0  0  0
  -30.1508  -19.7368   23.6430 O   0  0  0  0  0  0  0  0  0  0  0  0
  -23.3232  -29.2694   23.3092 O   0  0  0  0  0  0  0  0  0  0  0  0
  -31.2478  -25.8177   16.2746 O   0  0  0  0  0  0  0  0  0  0  0  0
  -22.2142  -25.3098   23.7372 O   0  0  0  0  0  0  0  0  0  0  0  0
  -26.7845  -24.0613   24.0114 O   0  0  0  0  0  0  0  0  0  0  0  0
  -27.7232  -14.0096   18.9640 O   0  0  0  0  0  0  0  0  0  0  0  0
  -28.8264  -29.5932   20.6083 O   0  0  0  0  0  0  0  0  0  1  0  0
  -31.2277  -10.0908   20.6271 F   0  0  0  0  0  0  0  0  0  0  0  0
  -28.9370  -12.3249   17.1389 F   0  0  0  0  0  0  0  0  0  0  0  0
  1  2  1  0  0  0  0
  1  5  2  0  0  0  0
  2  6  2  0  0  0  0
  3  8  2  0  0  0  0
  3 16  1  0  0  0  0
  4  9  1  0  0  0  0
  4 16  2  0  0  0  0
  5 18  1  0  0  0  0
  6 20  1  0  0  0  0
  7 10  2  0  0  0  0
  7 19  1  0  0  0  0
  8 22  1  0  0  0  0
  9 22  2  0  0  0  0
 10 23  1  0  0  0  0
 11 12  2  0  0  0  0
 11 24  1  0  0  0  0
 12 25  1  0  0  0  0
 13 21  1  0  0  0  0
 13 23  2  0  0  0  0
 14 25  2  0  0  0  0
 14 26  1  0  0  0  0
 15 28  2  0  0  0  0
 15 65  1  0  0  0  0
 16 27  1  0  0  0  0
 17 27  1  0  0  0  0
 17 29  2  0  0  0  0
 17 31  1  0  0  0  0
 18 20  2  0  0  0  0
 18 36  1  0  0  0  0
 19 21  2  0  0  0  0
 19 37  1  0  0  0  0
 20 45  1  0  0  0  0
 21 38  1  0  0  0  0
 22 80  1  0  0  0  0
 23 81  1  0  0  0  0
 24 26  2  0  0  0  0
 24 80  1  0  0  0  0
 25 82  1  0  0  0  0
 26 83  1  0  0  0  0
 27 64  2  0  0  0  0
 28 60  1  0  0  0  0
 28 67  1  0  0  0  0
 29 66  1  0  0  0  0
 29 70  1  0  0  0  0
 30 48  1  0  0  0  0
 30 65  1  0  0  0  0
 30 67  2  0  0  0  0
 31 71  1  0  0  0  0
 31 75  2  0  0  0  0
 32 46  1  0  0  0  0
 32 72  1  0  0  0  0
 32 76  2  0  0  0  0
 33 55  1  0  0  0  0
 33 69  1  0  0  0  0
 33 77  2  0  0  0  0
 34 61  1  0  0  0  0
 34 68  1  0  0  0  0
 34 78  2  0  0  0  0
 35 62  1  0  0  0  0
 35 73  1  0  0  0  0
 35 79  2  0  0  0  0
 36 39  1  0  0  0  0
 37 46  1  0  0  0  0
 38 68  1  0  0  0  0
 39 41  1  0  0  0  0
 40 42  1  0  0  0  0
 40 43  1  0  0  0  0
 41 45  1  0  0  0  0
 42 47  1  0  0  0  0
 43 69  1  0  0  0  0
 44 47  1  0  0  0  0
 44 69  1  0  0  0  0
 45 72  1  0  0  0  0
 46 68  1  0  0  0  0
 47 66  1  0  0  0  0
 49 60  1  0  0  0  0
 50 62  1  0  0  0  0
 51 63  1  0  0  0  0
 52 63  1  0  0  0  0
 53 63  1  0  0  0  0
 54 74  1  0  0  0  0
 55 60  1  0  0  0  0
 56 57  1  0  0  0  0
 56 58  1  0  0  0  0
 57 59  1  0  0  0  0
 58 65  1  0  0  0  0
 59 81  1  0  0  0  0
 61 63  1  0  0  0  0
 61 73  1  0  0  0  0
 62 74  1  0  0  0  0
 64 66  1  0  0  0  0
M  CHG  2  67   1  74   1
M  ISO  4  33 100  55 100  59 101  81 101
M  END
> <Batch ID>
0076

> <Smiles>
CNC(C)C(=O)NC(C(=O)N1Cc2cc([101O:1][101CH2:1]CCCn3cc(C(C)[100CH2:0][100C:0](=O)N4CCCC(n5nc(-c6ccc(Oc7ccc(F)cc7F)cc6)c(C(N)=O)c5N)C4)nc3C)ccc2CC1C(=O)NC1CCCc2ccccc21)C(C)(C)C

> <Shape>
0.203

> <Color>
0.064

> <Negative vol penalty>
0.000

$$$$

  -OEChem-04052318343D

 84 92  0     1  0  0  0  0  0999 V2000
  -16.6426  -29.6661   23.6490 C   0  0  0  0  0  0  0  0  0  0  0  0
  -17.7057  -30.4011   24.1638 C   0  0  0  0  0  0  0  0  0  0  0  0
  -30.3598  -21.1907   22.0425 C   0  0  0  0  0  0  0  0  0  0  0  0
  -28.0630  -20.6285   22.5385 C   0  0  0  0  0  0  0  0  0  0  0  0
  -16.8856  -28.4732   22.9694 C   0  0  0  0  0  0  0  0  0  0  0  0
  -19.0125  -29.9429   24.0003 C   0  0  0  0  0  0  0  0  0  0  0  0
  -25.7006  -32.3478   23.1045 C   0  0  0  0  0  0  0  0  0  0  0  0
  -30.4455  -20.0893   21.1909 C   0  0  0  0  0  0  0  0  0  0  0  0
  -28.1487  -19.5272   21.6867 C   0  0  0  0  0  0  0  0  0  0  0  0
  -26.9773  -32.2075   23.6467 C   0  0  0  0  0  0  0  0  0  0  0  0
  -29.4085  -16.3914   21.7883 C   0  0  0  0  0  0  0  0  0  0  0  0
  -28.8852  -15.1801   22.2406 C   0  0  0  0  0  0  0  0  0  0  0  0
  -27.2826  -30.1735   22.3862 C   0  0  0  0  0  0  0  0  0  0  0  0
  -28.7510  -28.7058   28.2023 C   0  0  0  0  0  0  0  0  0  0  0  0
  -27.3490  -15.1476   20.3762 C   0  0  0  0  0  0  0  0  0  0  0  0
  -27.4412  -28.8735   26.3785 C   0  0  0  0  0  0  0  0  0  0  0  0
  -29.1686  -21.4602   22.7164 C   0  0  0  0  0  0  0  0  0  0  0  0
  -28.6860  -23.9059   23.2581 C   0  0  0  0  0  0  0  0  0  0  0  0
  -18.1968  -28.0051   22.7890 C   0  0  0  0  0  0  0  0  0  0  0  0
  -25.2002  -31.3946   22.2058 C   0  0  0  0  0  0  0  0  0  0  0  0
  -19.2733  -28.7419   23.3188 C   0  0  0  0  0  0  0  0  0  0  0  0
  -26.0002  -30.3054   21.8320 C   0  0  0  0  0  0  0  0  0  0  0  0
  -28.7496  -28.9361   26.8044 C   0  0  0  0  0  0  0  0  0  0  0  0
  -29.3400  -19.2576   21.0129 C   0  0  0  0  0  0  0  0  0  0  0  0
  -27.7674  -31.1186   23.2898 C   0  0  0  0  0  0  0  0  0  0  0  0
  -28.9020  -16.9808   20.6300 C   0  0  0  0  0  0  0  0  0  0  0  0
  -27.8555  -14.5582   21.5345 C   0  0  0  0  0  0  0  0  0  0  0  0
  -27.8723  -16.3589   19.9239 C   0  0  0  0  0  0  0  0  0  0  0  0
  -29.0796  -22.5974   23.5967 C   0  0  0  0  0  0  0  0  0  0  0  0
  -27.4433  -28.5093   28.5881 C   0  0  0  0  0  0  0  0  0  0  0  0
  -28.7686  -24.6053   24.4372 C   0  0  0  0  0  0  0  0  0  0  0  0
  -28.2818  -24.4413   21.9909 C   0  0  0  0  0  0  0  0  0  0  0  0
  -22.7390  -29.3832   22.2095 C   0  0  0  0  0  0  0  0  0  0  0  0
  -23.7005  -28.8146   19.1641 C   0  0  0  0  0  0  0  0  0  0  0  0
  -26.2230  -28.8609   16.8659 C   0  0  0  0  0  0  0  0  0  0  0  0
  -27.8474  -25.0173   29.9261 C   0  0  0  0  0  0  0  0  0  0  0  0
  -18.4067  -26.6860   22.0886 C   0  0  0  0  0  0  0  0  0  0  0  0
  -23.8313  -31.5746   21.6092 C   0  0  0  0  0  0  0  0  0  0  0  0
  -25.5174  -29.2651   20.8556 C   0  0  0  0  0  0  0  0  0  0  0  0
  -19.8460  -26.4610   21.6324 C   0  0  0  0  0  0  0  0  0  0  0  0
  -30.8039  -23.3267   28.8879 C   0  0  0  0  0  0  0  0  0  0  0  0
  -20.8217  -26.8116   22.7512 C   0  0  0  0  0  0  0  0  0  0  0  0
  -30.5835  -23.0889   27.3930 C   0  0  0  0  0  0  0  0  0  0  0  0
  -29.5043  -23.1924   29.6784 C   0  0  0  0  0  0  0  0  0  0  0  0
  -28.1717  -23.7902   27.6932 C   0  0  0  0  0  0  0  0  0  0  0  0
  -20.7066  -28.2905   23.1402 C   0  0  1  0  0  0  0  0  0  0  0  0
  -23.2256  -30.2707   21.0991 C   0  0  1  0  0  0  0  0  0  0  0  0
  -29.4438  -23.9699   26.8471 C   0  0  2  0  0  0  0  0  0  0  0  0
  -26.7151  -28.3016   14.4696 C   0  0  0  0  0  0  0  0  0  0  0  0
  -25.8457  -29.2864   30.4697 C   0  0  0  0  0  0  0  0  0  0  0  0
  -28.0116  -28.2051   31.0134 C   0  0  0  0  0  0  0  0  0  0  0  0
  -23.7759  -25.8482   19.8745 C   0  0  0  0  0  0  0  0  0  0  0  0
  -25.1481  -25.4616   17.8163 C   0  0  0  0  0  0  0  0  0  0  0  0
  -22.8281  -26.3565   17.6166 C   0  0  0  0  0  0  0  0  0  0  0  0
  -25.2167  -28.4734   27.4328 C   0  0  0  0  0  0  0  0  0  0  0  0
  -26.9228  -31.6662   16.2338 C   0  0  0  0  0  0  0  0  0  0  0  0
  -29.9569  -29.2013   25.9409 C   0  0  0  0  0  0  0  0  0  0  0  0
  -30.3104  -30.6848   25.8153 C   0  0  0  0  0  0  0  0  0  0  0  0
  -26.1584  -26.8335   30.0138 C   0  0  0  0  0  0  0  0  0  0  0  0
  -29.2276  -31.5072   25.1264 C   0  0  0  0  0  0  0  0  0  1  0  0
  -24.6610  -27.8522   18.5083 C   0  0  1  0  0  0  0  0  0  0  0  0
  -26.2795  -29.3861   15.4427 C   0  0  2  0  0  0  0  0  0  0  0  0
  -26.8811  -28.2319   29.9260 C   0  0  0  0  0  0  0  0  0  0  0  0
  -24.1119  -26.3980   18.4738 C   0  0  0  0  0  0  0  0  0  0  0  0
  -29.3894  -22.4705   24.8898 N   0  0  0  0  0  0  0  0  0  0  0  0
  -26.6559  -28.6132   27.4712 N   0  0  0  0  0  0  0  0  0  0  0  0
  -29.1905  -23.7083   25.3740 N   0  0  0  0  0  0  0  0  0  0  0  0
  -24.1695  -29.4819   20.3046 N   0  0  0  0  0  0  0  0  0  0  0  0
  -28.4650  -24.0546   29.1106 N   0  0  0  0  0  0  0  0  0  0  0  0
  -28.5208  -25.8940   24.7538 N   0  0  0  0  0  0  0  0  0  0  0  0
  -28.2529  -23.5844   20.8821 N   0  0  0  0  0  0  0  0  0  0  0  0
  -21.3825  -29.1228   22.1683 N   0  0  0  0  0  0  0  0  0  0  0  0
  -24.9623  -28.4085   17.1937 N   0  0  0  0  0  0  0  0  0  0  0  0
  -26.8777  -25.7969   29.3075 N   0  0  0  0  0  0  0  0  0  0  0  0
  -27.2432  -30.5187   15.3464 N   0  3  0  0  0  0  0  0  0  0  0  0
  -27.9717  -25.6477   21.8427 O   0  0  0  0  0  0  0  0  0  0  0  0
  -23.5355  -28.9643   23.0413 O   0  0  0  0  0  0  0  0  0  0  0  0
  -22.5779  -28.9740   18.6781 O   0  0  0  0  0  0  0  0  0  0  0  0
  -27.2003  -28.8495   17.6110 O   0  0  0  0  0  0  0  0  0  0  0  0
  -28.1425  -25.1742   31.1157 O   0  0  0  0  0  0  0  0  0  0  0  0
  -29.4231  -18.1830   20.1818 O   0  0  0  0  0  0  0  0  0  0  0  0
  -29.0137  -30.9789   23.8181 O   0  0  0  0  0  0  0  0  0  1  0  0
  -27.3541  -13.3942   21.9681 F   0  0  0  0  0  0  0  0  0  0  0  0
  -27.3824  -16.9198   18.8098 F   0  0  0  0  0  0  0  0  0  0  0  0
  1  2  1  0  0  0  0
  1  5  2  0  0  0  0
  2  6  2  0  0  0  0
  3  8  2  0  0  0  0
  3 17  1  0  0  0  0
  4  9  1  0  0  0  0
  4 17  2  0  0  0  0
  5 19  1  0  0  0  0
  6 21  1  0  0  0  0
  7 10  2  0  0  0  0
  7 20  1  0  0  0  0
  8 24  1  0  0  0  0
  9 24  2  0  0  0  0
 10 25  1  0  0  0  0
 11 12  2  0  0  0  0
 11 26  1  0  0  0  0
 12 27  1  0  0  0  0
 13 22  1  0  0  0  0
 13 25  2  0  0  0  0
 14 23  1  0  0  0  0
 14 30  2  0  0  0  0
 15 27  2  0  0  0  0
 15 28  1  0  0  0  0
 16 23  2  0  0  0  0
 16 66  1  0  0  0  0
 17 29  1  0  0  0  0
 18 29  1  0  0  0  0
 18 31  2  0  0  0  0
 18 32  1  0  0  0  0
 19 21  2  0  0  0  0
 19 37  1  0  0  0  0
 20 22  2  0  0  0  0
 20 38  1  0  0  0  0
 21 46  1  0  0  0  0
 22 39  1  0  0  0  0
 23 57  1  0  0  0  0
 24 81  1  0  0  0  0
 25 82  1  0  0  0  0
 26 28  2  0  0  0  0
 26 81  1  0  0  0  0
 27 83  1  0  0  0  0
 28 84  1  0  0  0  0
 29 65  2  0  0  0  0
 30 63  1  0  0  0  0
 30 66  1  0  0  0  0
 31 67  1  0  0  0  0
 31 70  1  0  0  0  0
 32 71  1  0  0  0  0
 32 76  2  0  0  0  0
 33 47  1  0  0  0  0
 33 72  1  0  0  0  0
 33 77  2  0  0  0  0
 34 61  1  0  0  0  0
 34 68  1  0  0  0  0
 34 78  2  0  0  0  0
 35 62  1  0  0  0  0
 35 73  1  0  0  0  0
 35 79  2  0  0  0  0
 36 69  1  0  0  0  0
 36 74  1  0  0  0  0
 36 80  2  0  0  0  0
 37 40  1  0  0  0  0
 38 47  1  0  0  0  0
 39 68  1  0  0  0  0
 40 42  1  0  0  0  0
 41 43  1  0  0  0  0
 41 44  1  0  0  0  0
 42 46  1  0  0  0  0
 43 48  1  0  0  0  0
 44 69  1  0  0  0  0
 45 48  1  0  0  0  0
 45 69  1  0  0  0  0
 46 72  1  0  0  0  0
 47 68  1  0  0  0  0
 48 67  1  0  0  0  0
 49 62  1  0  0  0  0
 50 63  1  0  0  0  0
 51 63  1  0  0  0  0
 52 64  1  0  0  0  0
 53 64  1  0  0  0  0
 54 64  1  0  0  0  0
 55 66  1  0  0  0  0
 56 75  1  0  0  0  0
 57 58  1  0  0  0  0
 58 60  1  0  0  0  0
 59 63  1  0  0  0  0
 59 74  1  0  0  0  0
 60 82  1  0  0  0  0
 61 64  1  0  0  0  0
 61 73  1  0  0  0  0
 62 75  1  0  0  0  0
 65 67  1  0  0  0  0
M  CHG  1  75   1
M  ISO  4  36 100  60 101  74 100  82 101
M  END
> <Batch ID>
0076

> <Smiles>
CNC(C)C(=O)NC(C(=O)N1Cc2cc([101O:1][101CH2:1]CCc3cc(C(C)(C)C[100NH:0][100C:0](=O)N4CCCC(n5nc(-c6ccc(Oc7ccc(F)cc7F)cc6)c(C(N)=O)c5N)C4)n(C)c3)ccc2CC1C(=O)NC1CCCc2ccccc21)C(C)(C)C

> <Shape>
0.210

> <Color>
0.098

> <Negative vol penalty>
0.000

$$$$

  -OEChem-04052318343D

 87 95  0     1  0  0  0  0  0999 V2000
  -16.5712  -29.2232   23.8082 C   0  0  0  0  0  0  0  0  0  0  0  0
  -16.8700  -28.3686   22.7519 C   0  0  0  0  0  0  0  0  0  0  0  0
  -25.1130  -13.7182   21.6513 C   0  0  0  0  0  0  0  0  0  0  0  0
  -26.4591  -13.4705   19.6604 C   0  0  0  0  0  0  0  0  0  0  0  0
  -17.5959  -29.9058   24.4624 C   0  0  0  0  0  0  0  0  0  0  0  0
  -18.1937  -28.1969   22.3484 C   0  0  0  0  0  0  0  0  0  0  0  0
  -22.6048  -23.2499   19.6308 C   0  0  0  0  0  0  0  0  0  0  0  0
  -24.2661  -12.7038   21.2049 C   0  0  0  0  0  0  0  0  0  0  0  0
  -25.6122  -12.4561   19.2140 C   0  0  0  0  0  0  0  0  0  0  0  0
  -23.5031  -23.0684   18.5801 C   0  0  0  0  0  0  0  0  0  0  0  0
  -24.2734   -9.3246   21.0865 C   0  0  0  0  0  0  0  0  0  0  0  0
  -23.8897   -8.3488   22.0064 C   0  0  0  0  0  0  0  0  0  0  0  0
  -25.1985  -24.2384   19.8354 C   0  0  0  0  0  0  0  0  0  0  0  0
  -21.5732   -8.9533   21.6812 C   0  0  0  0  0  0  0  0  0  0  0  0
  -30.7765  -26.0293   16.1361 C   0  0  0  0  0  0  0  0  0  0  0  0
  -26.2095  -14.1016   20.8790 C   0  0  0  0  0  0  0  0  0  0  0  0
  -28.2364  -15.0070   22.1358 C   0  0  0  0  0  0  0  0  0  0  0  0
  -18.9338  -29.7349   24.0730 C   0  0  0  0  0  0  0  0  0  0  0  0
  -22.9940  -23.9377   20.7892 C   0  0  0  0  0  0  0  0  0  0  0  0
  -19.2372  -28.8788   22.9972 C   0  0  0  0  0  0  0  0  0  0  0  0
  -24.3041  -24.4251   20.9004 C   0  0  0  0  0  0  0  0  0  0  0  0
  -24.5157  -12.0727   19.9862 C   0  0  0  0  0  0  0  0  0  0  0  0
  -24.7993  -23.5652   18.6811 C   0  0  0  0  0  0  0  0  0  0  0  0
  -23.3071  -10.1148   20.4640 C   0  0  0  0  0  0  0  0  0  0  0  0
  -22.5396   -8.1632   22.3037 C   0  0  0  0  0  0  0  0  0  0  0  0
  -21.9570   -9.9292   20.7614 C   0  0  0  0  0  0  0  0  0  0  0  0
  -27.0844  -15.1498   21.3394 C   0  0  0  0  0  0  0  0  0  0  0  0
  -32.0313  -25.9700   16.6738 C   0  0  0  0  0  0  0  0  0  0  0  0
  -28.7061  -16.2881   22.2930 C   0  0  0  0  0  0  0  0  0  0  0  0
  -30.5703  -25.8060   18.3288 C   0  0  0  0  0  0  0  0  0  0  0  0
  -28.8290  -13.8223   22.6844 C   0  0  0  0  0  0  0  0  0  0  0  0
  -22.0478  -26.6029   22.2400 C   0  0  0  0  0  0  0  0  0  0  0  0
  -24.1411  -25.6401   24.5233 C   0  0  0  0  0  0  0  0  0  0  0  0
  -26.9090  -23.8150   25.3321 C   0  0  0  0  0  0  0  0  0  0  0  0
  -30.0335  -21.1600   20.1837 C   0  0  0  0  0  0  0  0  0  0  0  0
  -20.0027  -30.5305   24.7796 C   0  0  0  0  0  0  0  0  0  0  0  0
  -22.0213  -24.1018   21.9246 C   0  0  0  0  0  0  0  0  0  0  0  0
  -24.7776  -25.1528   22.1311 C   0  0  0  0  0  0  0  0  0  0  0  0
  -21.4150  -30.0056   24.5342 C   0  0  0  0  0  0  0  0  0  0  0  0
  -26.5776  -20.7383   21.1719 C   0  0  0  0  0  0  0  0  0  0  0  0
  -21.6301  -29.7256   23.0502 C   0  0  0  0  0  0  0  0  0  0  0  0
  -26.5006  -19.2233   21.3697 C   0  0  0  0  0  0  0  0  0  0  0  0
  -27.4740  -21.0966   19.9902 C   0  0  0  0  0  0  0  0  0  0  0  0
  -28.7787  -19.0245   20.2694 C   0  0  0  0  0  0  0  0  0  0  0  0
  -20.6631  -28.6473   22.5464 C   0  0  1  0  0  0  0  0  0  0  0  0
  -22.3697  -25.2664   22.8464 C   0  0  1  0  0  0  0  0  0  0  0  0
  -27.9051  -18.5983   21.4633 C   0  0  2  0  0  0  0  0  0  0  0  0
  -33.3556  -26.0291   16.0498 C   0  0  0  0  0  0  0  0  0  0  0  0
  -30.9282  -27.9336   20.4977 C   0  0  0  0  0  0  0  0  0  0  0  0
  -28.4023  -23.2548   27.2695 C   0  0  0  0  0  0  0  0  0  0  0  0
  -30.3580  -24.6690   22.0809 C   0  0  0  0  0  0  0  0  0  0  0  0
  -25.8028  -24.5961   15.5857 C   0  0  0  0  0  0  0  0  0  0  0  0
  -25.4460  -28.3899   24.3095 C   0  0  0  0  0  0  0  0  0  0  0  0
  -27.4354  -27.4624   25.5137 C   0  0  0  0  0  0  0  0  0  0  0  0
  -25.2127  -27.5246   26.6443 C   0  0  0  0  0  0  0  0  0  0  0  0
  -26.2737  -20.9310   25.1377 C   0  0  0  0  0  0  0  0  0  0  0  0
  -29.6885  -27.0566   20.3456 C   0  0  0  0  0  0  0  0  0  0  0  0
  -27.7405  -24.5581   17.1975 C   0  0  0  0  0  0  0  0  0  0  0  0
  -28.3901  -25.9420   17.0535 C   0  0  0  0  0  0  0  0  0  0  0  0
  -31.1518  -23.3726   20.0794 C   0  0  0  0  0  0  0  0  0  0  0  0
  -30.0002  -25.6684   19.6923 C   0  0  2  0  0  0  0  0  0  0  0  0
  -25.6117  -25.8577   24.7857 C   0  0  1  0  0  0  0  0  0  0  0  0
  -27.1785  -22.8427   26.4664 C   0  0  2  0  0  0  0  0  0  0  0  0
  -30.9018  -24.7865   20.6484 C   0  0  1  0  0  0  0  0  0  0  0  0
  -26.2137  -24.5664   17.0523 C   0  0  2  0  0  0  0  0  0  1  0  0
  -25.9173  -27.2967   25.2892 C   0  0  0  0  0  0  0  0  0  0  0  0
  -26.8372  -16.4213   21.0135 N   0  0  0  0  0  0  0  0  0  0  0  0
  -29.8923  -25.9249   17.1827 N   0  0  0  0  0  0  0  0  0  0  0  0
  -27.8404  -17.0892   21.6081 N   0  0  0  0  0  0  0  0  0  0  0  0
  -31.8736  -25.8321   18.0318 N   0  3  0  0  0  0  0  0  0  0  0  0
  -23.7875  -25.2935   23.2116 N   0  0  0  0  0  0  0  0  0  0  0  0
  -28.8014  -20.4861   20.1499 N   0  0  0  0  0  0  0  0  0  0  0  0
  -29.7710  -16.7962   22.9489 N   0  0  0  0  0  0  0  0  0  0  0  0
  -28.2176  -12.5880   22.4255 N   0  0  0  0  0  0  0  0  0  0  0  0
  -21.1155  -27.3336   22.9515 N   0  0  0  0  0  0  0  0  0  0  0  0
  -26.0227  -24.8029   25.7059 N   0  0  0  0  0  0  0  0  0  0  0  0
  -29.9682  -22.5422   20.0572 N   0  0  0  0  0  0  0  0  0  0  0  0
  -27.4084  -21.4716   25.9297 N   0  3  0  0  0  0  0  0  0  0  0  0
  -29.8606  -13.8589   23.3971 O   0  0  0  0  0  0  0  0  0  0  0  0
  -22.6052  -26.9464   21.2041 O   0  0  0  0  0  0  0  0  0  0  0  0
  -23.3364  -25.7657   25.4498 O   0  0  0  0  0  0  0  0  0  0  0  0
  -27.4353  -23.7109   24.2263 O   0  0  0  0  0  0  0  0  0  0  0  0
  -31.1124  -20.5736   20.3219 O   0  0  0  0  0  0  0  0  0  0  0  0
  -23.6896  -11.0826   19.5504 O   0  0  0  0  0  0  0  0  0  0  0  0
  -25.6778  -23.3900   17.6567 O   0  0  0  0  0  0  0  0  0  1  0  0
  -22.1711   -7.2250   23.1859 F   0  0  0  0  0  0  0  0  0  0  0  0
  -21.0240  -10.6845   20.1657 F   0  0  0  0  0  0  0  0  0  0  0  0
  1  2  1  0  0  0  0
  1  5  2  0  0  0  0
  2  6  2  0  0  0  0
  3  8  2  0  0  0  0
  3 16  1  0  0  0  0
  4  9  1  0  0  0  0
  4 16  2  0  0  0  0
  5 18  1  0  0  0  0
  6 20  1  0  0  0  0
  7 10  2  0  0  0  0
  7 19  1  0  0  0  0
  8 22  1  0  0  0  0
  9 22  2  0  0  0  0
 10 23  1  0  0  0  0
 11 12  2  0  0  0  0
 11 24  1  0  0  0  0
 12 25  1  0  0  0  0
 13 21  1  0  0  0  0
 13 23  2  0  0  0  0
 14 25  2  0  0  0  0
 14 26  1  0  0  0  0
 15 28  2  0  0  0  0
 15 68  1  0  0  0  0
 16 27  1  0  0  0  0
 17 27  1  0  0  0  0
 17 29  2  0  0  0  0
 17 31  1  0  0  0  0
 18 20  2  0  0  0  0
 18 36  1  0  0  0  0
 19 21  2  0  0  0  0
 19 37  1  0  0  0  0
 20 45  1  0  0  0  0
 21 38  1  0  0  0  0
 22 84  1  0  0  0  0
 23 85  1  0  0  0  0
 24 26  2  0  0  0  0
 24 84  1  0  0  0  0
 25 86  1  0  0  0  0
 26 87  1  0  0  0  0
 27 67  2  0  0  0  0
 28 48  1  0  0  0  0
 28 70  1  0  0  0  0
 29 69  1  0  0  0  0
 29 73  1  0  0  0  0
 30 61  1  0  0  0  0
 30 68  1  0  0  0  0
 30 70  2  0  0  0  0
 31 74  1  0  0  0  0
 31 79  2  0  0  0  0
 32 46  1  0  0  0  0
 32 75  1  0  0  0  0
 32 80  2  0  0  0  0
 33 62  1  0  0  0  0
 33 71  1  0  0  0  0
 33 81  2  0  0  0  0
 34 63  1  0  0  0  0
 34 76  1  0  0  0  0
 34 82  2  0  0  0  0
 35 72  1  0  0  0  0
 35 77  1  0  0  0  0
 35 83  2  0  0  0  0
 36 39  1  0  0  0  0
 37 46  1  0  0  0  0
 38 71  1  0  0  0  0
 39 41  1  0  0  0  0
 40 42  1  0  0  0  0
 40 43  1  0  0  0  0
 41 45  1  0  0  0  0
 42 47  1  0  0  0  0
 43 72  1  0  0  0  0
 44 47  1  0  0  0  0
 44 72  1  0  0  0  0
 45 75  1  0  0  0  0
 46 71  1  0  0  0  0
 47 69  1  0  0  0  0
 49 57  1  0  0  0  0
 50 63  1  0  0  0  0
 51 64  1  0  0  0  0
 52 65  1  0  0  0  0
 53 66  1  0  0  0  0
 54 66  1  0  0  0  0
 55 66  1  0  0  0  0
 56 78  1  0  0  0  0
 57 61  1  0  0  0  0
 58 59  1  0  0  0  0
 58 65  1  0  0  0  0
 59 68  1  0  0  0  0
 60 64  1  0  0  0  0
 60 77  1  0  0  0  0
 61 64  1  0  0  0  0
 62 66  1  0  0  0  0
 62 76  1  0  0  0  0
 63 78  1  0  0  0  0
 65 85  1  0  0  0  0
 67 69  1  0  0  0  0
M  CHG  2  70   1  78   1
M  ISO  4  35 100  65 101  77 100  85 101
M  END
> <Batch ID>
0076

> <Smiles>
CCC(c1nc(C)cn1CC[101CH:1](C)[101O:1]c1ccc2c(c1)CN(C(=O)C(NC(=O)C(C)NC)C(C)(C)C)C(C(=O)NC1CCCc3ccccc31)C2)C(C)C[100NH:0][100C:0](=O)N1CCCC(n2nc(-c3ccc(Oc4ccc(F)cc4F)cc3)c(C(N)=O)c2N)C1

> <Shape>
0.231

> <Color>
0.048

> <Negative vol penalty>
0.000

$$$$

  -OEChem-04052318343D

 89 97  0     1  0  0  0  0  0999 V2000
  -24.0785  -30.8031   20.6320 C   0  0  0  0  0  0  0  0  0  0  0  0
  -23.6531  -29.5276   20.2749 C   0  0  0  0  0  0  0  0  0  0  0  0
  -28.9436  -23.8254   19.3342 C   0  0  0  0  0  0  0  0  0  0  0  0
  -30.7749  -22.8177   18.1227 C   0  0  0  0  0  0  0  0  0  0  0  0
  -25.2876  -30.9702   21.3058 C   0  0  0  0  0  0  0  0  0  0  0  0
  -24.4372  -28.4185   20.5904 C   0  0  0  0  0  0  0  0  0  0  0  0
  -22.4603  -22.8304   22.1303 C   0  0  0  0  0  0  0  0  0  0  0  0
  -29.5304  -25.0810   19.1770 C   0  0  0  0  0  0  0  0  0  0  0  0
  -31.3617  -24.0733   17.9654 C   0  0  0  0  0  0  0  0  0  0  0  0
  -22.3117  -21.6533   21.3982 C   0  0  0  0  0  0  0  0  0  0  0  0
  -30.7287  -28.5067   19.4055 C   0  0  0  0  0  0  0  0  0  0  0  0
  -30.7747  -29.3467   20.5181 C   0  0  0  0  0  0  0  0  0  0  0  0
  -24.4697  -20.9052   22.1742 C   0  0  0  0  0  0  0  0  0  0  0  0
  -32.0797  -27.6984   21.7085 C   0  0  0  0  0  0  0  0  0  0  0  0
  -29.5658  -22.6938   18.8071 C   0  0  0  0  0  0  0  0  0  0  0  0
  -28.0436  -20.7715   18.1033 C   0  0  0  0  0  0  0  0  0  0  0  0
  -26.0823  -29.8618   21.6383 C   0  0  0  0  0  0  0  0  0  0  0  0
  -23.6216  -23.0589   22.8825 C   0  0  0  0  0  0  0  0  0  0  0  0
  -25.6587  -28.5711   21.2681 C   0  0  0  0  0  0  0  0  0  0  0  0
  -24.6296  -22.0849   22.9171 C   0  0  0  0  0  0  0  0  0  0  0  0
  -30.7394  -25.2050   18.4926 C   0  0  0  0  0  0  0  0  0  0  0  0
  -23.3177  -20.6917   21.4178 C   0  0  0  0  0  0  0  0  0  0  0  0
  -31.3582  -27.2625   19.4444 C   0  0  0  0  0  0  0  0  0  0  0  0
  -31.4502  -28.9426   21.6696 C   0  0  0  0  0  0  0  0  0  0  0  0
  -32.0337  -26.8584   20.5959 C   0  0  0  0  0  0  0  0  0  0  0  0
  -28.9604  -21.3964   18.9697 C   0  0  0  0  0  0  0  0  0  0  0  0
  -27.7752  -19.5640   18.7003 C   0  0  0  0  0  0  0  0  0  0  0  0
  -25.8734  -12.9841   19.7518 C   0  0  0  0  0  0  0  0  0  0  0  0
  -24.3170  -12.5991   21.2141 C   0  0  0  0  0  0  0  0  0  0  0  0
  -27.4846  -21.2406   16.8691 C   0  0  0  0  0  0  0  0  0  0  0  0
  -25.9416  -25.2310   22.8228 C   0  0  0  0  0  0  0  0  0  0  0  0
  -26.8947  -23.7192   25.5299 C   0  0  0  0  0  0  0  0  0  0  0  0
  -26.8860  -20.8753   27.4164 C   0  0  0  0  0  0  0  0  0  0  0  0
  -29.4860  -14.9459   21.3255 C   0  0  0  0  0  0  0  0  0  0  0  0
  -27.4043  -30.0962   22.3253 C   0  0  0  0  0  0  0  0  0  0  0  0
  -23.7550  -24.3221   23.6881 C   0  0  0  0  0  0  0  0  0  0  0  0
  -25.8868  -22.2730   23.7248 C   0  0  0  0  0  0  0  0  0  0  0  0
  -27.9959  -28.8372   22.9538 C   0  0  0  0  0  0  0  0  0  0  0  0
  -28.9278  -17.8449   23.3157 C   0  0  0  0  0  0  0  0  0  0  0  0
  -27.9233  -27.6680   21.9767 C   0  0  0  0  0  0  0  0  0  0  0  0
  -28.8172  -18.9759   22.2917 C   0  0  0  0  0  0  0  0  0  0  0  0
  -29.9613  -16.8021   22.8955 C   0  0  0  0  0  0  0  0  0  0  0  0
  -29.6561  -17.3784   20.5188 C   0  0  0  0  0  0  0  0  0  0  0  0
  -26.4695  -27.3411   21.6147 C   0  0  1  0  0  0  0  0  0  0  0  0
  -25.2039  -24.6763   24.0084 C   0  0  1  0  0  0  0  0  0  0  0  0
  -28.5861  -18.4257   20.8714 C   0  0  2  0  0  0  0  0  0  0  0  0
  -27.7839  -19.9314   29.5611 C   0  0  0  0  0  0  0  0  0  0  0  0
  -20.7741  -11.6154   23.7378 C   0  0  0  0  0  0  0  0  0  0  0  0
  -19.5242  -11.0388   21.6530 C   0  0  0  0  0  0  0  0  0  0  0  0
  -20.0572  -13.4317   22.1796 C   0  0  0  0  0  0  0  0  0  0  0  0
  -29.6430  -23.4111   24.2408 C   0  0  0  0  0  0  0  0  0  0  0  0
  -30.1827  -21.6819   25.9690 C   0  0  0  0  0  0  0  0  0  0  0  0
  -29.6906  -24.0264   26.6643 C   0  0  0  0  0  0  0  0  0  0  0  0
  -24.1659  -20.4182   28.4893 C   0  0  0  0  0  0  0  0  0  0  0  0
  -26.6359  -13.6433   18.6767 C   0  0  0  0  0  0  0  0  0  0  0  0
  -23.0875  -12.7655   22.0094 C   0  0  0  0  0  0  0  0  0  0  0  0
  -28.0550  -13.0720   18.4341 C   0  0  0  0  0  0  0  0  0  0  0  0
  -21.9413  -11.8406   21.5328 C   0  0  0  0  0  0  0  0  0  0  0  0
  -24.2063  -15.9223   20.7685 C   0  0  0  0  0  0  0  0  0  0  0  0
  -23.5555  -17.2128   20.2681 C   0  0  0  0  0  0  0  0  0  0  0  0
  -23.9929  -14.7362   19.8213 C   0  0  0  0  0  0  0  0  0  0  0  0
  -28.9902  -13.1980   19.6348 C   0  0  0  0  0  0  0  0  0  0  0  0
  -23.8181  -18.3755   21.2157 C   0  0  0  0  0  0  0  0  0  1  0  0
  -27.8057  -22.5563   25.8407 C   0  0  1  0  0  0  0  0  0  0  0  0
  -26.6201  -20.6471   28.8934 C   0  0  2  0  0  0  0  0  0  0  0  0
  -20.5750  -11.9861   22.2548 C   0  0  0  0  0  0  0  0  0  0  0  0
  -29.3078  -22.9159   25.6618 C   0  0  0  0  0  0  0  0  0  0  0  0
  -29.2546  -20.6478   20.0361 N   0  0  0  0  0  0  0  0  0  0  0  0
  -26.1830  -11.8687   20.3734 N   0  0  0  0  0  0  0  0  0  0  0  0
  -25.1928  -11.6238   21.3038 N   0  0  0  0  0  0  0  0  0  0  0  0
  -28.5183  -19.5401   19.8436 N   0  0  0  0  0  0  0  0  0  0  0  0
  -24.7059  -13.4782   20.2494 N   0  0  0  0  0  0  0  0  0  0  0  0
  -25.9732  -23.5275   24.4907 N   0  0  0  0  0  0  0  0  0  0  0  0
  -29.6843  -16.3198   21.5403 N   0  0  0  0  0  0  0  0  0  0  0  0
  -26.9783  -18.5310   18.3535 N   0  0  0  0  0  0  0  0  0  0  0  0
  -27.8682  -22.5041   16.3994 N   0  0  0  0  0  0  0  0  0  0  0  0
  -25.8359  -26.6019   22.6855 N   0  0  0  0  0  0  0  0  0  0  0  0
  -27.4541  -22.1101   27.1845 N   0  0  0  0  0  0  0  0  0  0  0  0
  -29.2224  -14.5742   20.0128 N   0  0  0  0  0  0  0  0  0  0  0  0
  -25.3929  -19.8219   29.0774 N   0  3  0  0  0  0  0  0  0  0  0  0
  -26.6566  -20.5663   16.2109 O   0  0  0  0  0  0  0  0  0  0  0  0
  -26.5619  -24.4716   22.0878 O   0  0  0  0  0  0  0  0  0  0  0  0
  -26.9921  -24.7569   26.1897 O   0  0  0  0  0  0  0  0  0  0  0  0
  -26.6200  -20.0401   26.5549 O   0  0  0  0  0  0  0  0  0  0  0  0
  -29.5345  -14.1129   22.2369 O   0  0  0  0  0  0  0  0  0  0  0  0
  -31.3122  -26.4300   18.3387 O   0  0  0  0  0  0  0  0  0  0  0  0
  -23.1754  -19.5421   20.7035 O   0  0  0  0  0  0  0  0  0  1  0  0
  -31.4956  -29.7500   22.7374 F   0  0  0  0  0  0  0  0  0  0  0  0
  -32.6413  -25.6648   20.6388 F   0  0  0  0  0  0  0  0  0  0  0  0
  1  2  1  0  0  0  0
  1  5  2  0  0  0  0
  2  6  2  0  0  0  0
  3  8  2  0  0  0  0
  3 15  1  0  0  0  0
  4  9  1  0  0  0  0
  4 15  2  0  0  0  0
  5 17  1  0  0  0  0
  6 19  1  0  0  0  0
  7 10  2  0  0  0  0
  7 18  1  0  0  0  0
  8 21  1  0  0  0  0
  9 21  2  0  0  0  0
 10 22  1  0  0  0  0
 11 12  2  0  0  0  0
 11 23  1  0  0  0  0
 12 24  1  0  0  0  0
 13 20  1  0  0  0  0
 13 22  2  0  0  0  0
 14 24  2  0  0  0  0
 14 25  1  0  0  0  0
 15 26  1  0  0  0  0
 16 26  1  0  0  0  0
 16 27  2  0  0  0  0
 16 30  1  0  0  0  0
 17 19  2  0  0  0  0
 17 35  1  0  0  0  0
 18 20  2  0  0  0  0
 18 36  1  0  0  0  0
 19 44  1  0  0  0  0
 20 37  1  0  0  0  0
 21 86  1  0  0  0  0
 22 87  1  0  0  0  0
 23 25  2  0  0  0  0
 23 86  1  0  0  0  0
 24 88  1  0  0  0  0
 25 89  1  0  0  0  0
 26 68  2  0  0  0  0
 27 71  1  0  0  0  0
 27 75  1  0  0  0  0
 28 55  1  0  0  0  0
 28 69  2  0  0  0  0
 28 72  1  0  0  0  0
 29 56  1  0  0  0  0
 29 70  2  0  0  0  0
 29 72  1  0  0  0  0
 30 76  1  0  0  0  0
 30 81  2  0  0  0  0
 31 45  1  0  0  0  0
 31 77  1  0  0  0  0
 31 82  2  0  0  0  0
 32 64  1  0  0  0  0
 32 73  1  0  0  0  0
 32 83  2  0  0  0  0
 33 65  1  0  0  0  0
 33 78  1  0  0  0  0
 33 84  2  0  0  0  0
 34 74  1  0  0  0  0
 34 79  1  0  0  0  0
 34 85  2  0  0  0  0
 35 38  1  0  0  0  0
 36 45  1  0  0  0  0
 37 73  1  0  0  0  0
 38 40  1  0  0  0  0
 39 41  1  0  0  0  0
 39 42  1  0  0  0  0
 40 44  1  0  0  0  0
 41 46  1  0  0  0  0
 42 74  1  0  0  0  0
 43 46  1  0  0  0  0
 43 74  1  0  0  0  0
 44 77  1  0  0  0  0
 45 73  1  0  0  0  0
 46 71  1  0  0  0  0
 47 65  1  0  0  0  0
 48 66  1  0  0  0  0
 49 66  1  0  0  0  0
 50 66  1  0  0  0  0
 51 67  1  0  0  0  0
 52 67  1  0  0  0  0
 53 67  1  0  0  0  0
 54 80  1  0  0  0  0
 55 57  1  0  0  0  0
 56 58  1  0  0  0  0
 57 62  1  0  0  0  0
 58 66  1  0  0  0  0
 59 60  1  0  0  0  0
 59 61  1  0  0  0  0
 60 63  1  0  0  0  0
 61 72  1  0  0  0  0
 62 79  1  0  0  0  0
 63 87  1  0  0  0  0
 64 67  1  0  0  0  0
 64 78  1  0  0  0  0
 65 80  1  0  0  0  0
 68 71  1  0  0  0  0
 69 70  1  0  0  0  0
M  CHG  1  80   1
M  ISO  4  34 100  63 101  79 100  87 101
M  END
> <Batch ID>
0076

> <Smiles>
CNC(C)C(=O)NC(C(=O)N1Cc2cc([101O:1][101CH2:1]CCCn3c(CCC[100NH:0][100C:0](=O)N4CCCC(n5nc(-c6ccc(Oc7ccc(F)cc7F)cc6)c(C(N)=O)c5N)C4)nnc3CCC(C)(C)C)ccc2CC1C(=O)NC1CCCc2ccccc21)C(C)(C)C

> <Shape>
0.220

> <Color>
0.076

> <Negative vol penalty>
0.000

$$$$

  -OEChem-04052318343D

 83 91  0     1  0  0  0  0  0999 V2000
  -25.3399  -25.8644   11.7723 C   0  0  0  0  0  0  0  0  0  0  0  0
  -24.5063  -26.5624   12.6401 C   0  0  0  0  0  0  0  0  0  0  0  0
  -26.9788  -15.3052   21.8281 C   0  0  0  0  0  0  0  0  0  0  0  0
  -26.2484  -15.4858   19.5323 C   0  0  0  0  0  0  0  0  0  0  0  0
  -26.2695  -24.9573   12.2792 C   0  0  0  0  0  0  0  0  0  0  0  0
  -24.6009  -26.3529   14.0155 C   0  0  0  0  0  0  0  0  0  0  0  0
  -23.8880  -29.8064   20.2510 C   0  0  0  0  0  0  0  0  0  0  0  0
  -26.5750  -13.9703   21.8516 C   0  0  0  0  0  0  0  0  0  0  0  0
  -25.8446  -14.1509   19.5557 C   0  0  0  0  0  0  0  0  0  0  0  0
  -23.2294  -29.6950   21.4747 C   0  0  0  0  0  0  0  0  0  0  0  0
  -24.2912  -10.8937   19.1227 C   0  0  0  0  0  0  0  0  0  0  0  0
  -23.0473  -10.5829   18.5735 C   0  0  0  0  0  0  0  0  0  0  0  0
  -24.9267  -28.1620   22.2418 C   0  0  0  0  0  0  0  0  0  0  0  0
  -21.9771  -12.0495   20.1676 C   0  0  0  0  0  0  0  0  0  0  0  0
  -21.3782  -26.5999   22.4678 C   0  0  0  0  0  0  0  0  0  0  0  0
  -26.8155  -16.0630   20.6685 C   0  0  0  0  0  0  0  0  0  0  0  0
  -28.4968  -17.9418   20.2804 C   0  0  0  0  0  0  0  0  0  0  0  0
  -26.3822  -24.7437   13.6621 C   0  0  0  0  0  0  0  0  0  0  0  0
  -25.0670  -29.0868   20.0091 C   0  0  0  0  0  0  0  0  0  0  0  0
  -25.5320  -25.4411   14.5413 C   0  0  0  0  0  0  0  0  0  0  0  0
  -25.5998  -28.2680   21.0151 C   0  0  0  0  0  0  0  0  0  0  0  0
  -26.0079  -13.3931   20.7154 C   0  0  0  0  0  0  0  0  0  0  0  0
  -23.7472  -28.8705   22.4693 C   0  0  0  0  0  0  0  0  0  0  0  0
  -24.3782  -11.7823   20.1943 C   0  0  0  0  0  0  0  0  0  0  0  0
  -21.8902  -11.1608   19.0960 C   0  0  0  0  0  0  0  0  0  0  0  0
  -23.2211  -12.3602   20.7168 C   0  0  0  0  0  0  0  0  0  0  0  0
  -27.2319  -17.4422   20.6438 C   0  0  0  0  0  0  0  0  0  0  0  0
  -20.3796  -26.1617   21.5777 C   0  0  0  0  0  0  0  0  0  0  0  0
  -21.0300  -27.8952   22.7637 C   0  0  0  0  0  0  0  0  0  0  0  0
  -28.3822  -19.3031   20.4231 C   0  0  0  0  0  0  0  0  0  0  0  0
  -29.6705  -17.2384   19.8522 C   0  0  0  0  0  0  0  0  0  0  0  0
  -25.9378  -26.8386   17.9376 C   0  0  0  0  0  0  0  0  0  0  0  0
  -28.8603  -27.2914   19.2705 C   0  0  0  0  0  0  0  0  0  0  0  0
  -30.6895  -28.3308   21.9576 C   0  0  0  0  0  0  0  0  0  0  0  0
  -23.7141  -22.9073   20.1504 C   0  0  0  0  0  0  0  0  0  0  0  0
  -27.3696  -23.7181   14.1600 C   0  0  0  0  0  0  0  0  0  0  0  0
  -25.7799  -29.2386   18.6934 C   0  0  0  0  0  0  0  0  0  0  0  0
  -26.8735  -27.4901   20.8128 C   0  0  0  0  0  0  0  0  0  0  0  0
  -27.6636  -23.8307   15.6537 C   0  0  0  0  0  0  0  0  0  0  0  0
  -26.0117  -22.6190   22.9317 C   0  0  0  0  0  0  0  0  0  0  0  0
  -26.3671  -23.9812   16.4432 C   0  0  0  0  0  0  0  0  0  0  0  0
  -26.7071  -21.2936   22.6157 C   0  0  0  0  0  0  0  0  0  0  0  0
  -24.5325  -22.5695   22.5606 C   0  0  0  0  0  0  0  0  0  0  0  0
  -24.9592  -20.8731   20.8246 C   0  0  0  0  0  0  0  0  0  0  0  0
  -25.6216  -25.2595   16.0410 C   0  0  1  0  0  0  0  0  0  0  0  0
  -26.6955  -28.0617   18.3706 C   0  0  1  0  0  0  0  0  0  0  0  0
  -26.4625  -20.8666   21.1562 C   0  0  2  0  0  0  0  0  0  0  0  0
  -19.3759  -30.1798   20.7763 C   0  0  0  0  0  0  0  0  0  0  0  0
  -21.1854  -28.8379   25.0940 C   0  0  0  0  0  0  0  0  0  0  0  0
  -33.0555  -28.5445   22.7661 C   0  0  0  0  0  0  0  0  0  0  0  0
  -28.9548  -24.2847   19.7813 C   0  0  0  0  0  0  0  0  0  0  0  0
  -30.8297  -24.6876   21.3909 C   0  0  0  0  0  0  0  0  0  0  0  0
  -31.1077  -25.2754   18.9826 C   0  0  0  0  0  0  0  0  0  0  0  0
  -30.4546  -31.2687   22.2269 C   0  0  0  0  0  0  0  0  0  0  0  0
  -20.2640  -24.8397   20.9391 C   0  0  0  0  0  0  0  0  0  0  0  0
  -20.9806  -24.7057   19.5720 C   0  0  0  0  0  0  0  0  0  0  0  0
  -19.1317  -29.3745   22.0410 C   0  0  0  0  0  0  0  0  0  0  0  0
  -22.4794  -24.9944   19.6247 C   0  0  0  0  0  0  0  0  0  0  0  0
  -21.6881  -28.9206   23.6583 C   0  0  1  0  0  0  0  0  0  1  0  0
  -29.6062  -26.6948   20.4395 C   0  0  1  0  0  0  0  0  0  0  0  0
  -31.9013  -29.2393   22.0606 C   0  0  2  0  0  0  0  0  0  0  0  0
  -30.0995  -25.2486   20.1520 C   0  0  0  0  0  0  0  0  0  0  0  0
  -26.3766  -18.4074   20.9913 N   0  0  0  0  0  0  0  0  0  0  0  0
  -19.4654  -27.1021   21.3247 N   0  0  0  0  0  0  0  0  0  0  0  0
  -19.8883  -28.1442   22.0604 N   0  0  0  0  0  0  0  0  0  0  0  0
  -27.1054  -19.5272   20.8471 N   0  0  0  0  0  0  0  0  0  0  0  0
  -27.5303  -27.6669   19.5070 N   0  0  0  0  0  0  0  0  0  0  0  0
  -24.3697  -22.1751   21.1542 N   0  0  0  0  0  0  0  0  0  0  0  0
  -29.2500  -20.3182   20.2261 N   0  0  0  0  0  0  0  0  0  0  0  0
  -29.6157  -15.8410   19.7604 N   0  0  0  0  0  0  0  0  0  0  0  0
  -26.2352  -26.4171   16.6557 N   0  0  0  0  0  0  0  0  0  0  0  0
  -30.6720  -27.6357   20.7668 N   0  0  0  0  0  0  0  0  0  0  0  0
  -23.1777  -24.1263   20.5465 N   0  0  0  0  0  0  0  0  0  0  0  0
  -31.5598  -30.4740   22.8221 N   0  3  0  0  0  0  0  0  0  0  0  0
  -30.7412  -17.8303   19.5753 O   0  0  0  0  0  0  0  0  0  0  0  0
  -25.1434  -26.3151   18.7100 O   0  0  0  0  0  0  0  0  0  0  0  0
  -29.4387  -27.4261   18.1893 O   0  0  0  0  0  0  0  0  0  0  0  0
  -29.8451  -28.2434   22.8463 O   0  0  0  0  0  0  0  0  0  0  0  0
  -23.6185  -22.5067   18.9853 O   0  0  0  0  0  0  0  0  0  0  0  0
  -25.6140  -12.0905   20.7379 O   0  0  0  0  0  0  0  0  0  0  0  0
  -23.1060  -28.7594   23.6645 O   0  0  0  0  0  0  0  0  0  1  0  0
  -20.6959  -10.8634   18.5676 F   0  0  0  0  0  0  0  0  0  0  0  0
  -23.2985  -13.2156   21.7455 F   0  0  0  0  0  0  0  0  0  0  0  0
  1  2  1  0  0  0  0
  1  5  2  0  0  0  0
  2  6  2  0  0  0  0
  3  8  2  0  0  0  0
  3 16  1  0  0  0  0
  4  9  1  0  0  0  0
  4 16  2  0  0  0  0
  5 18  1  0  0  0  0
  6 20  1  0  0  0  0
  7 10  2  0  0  0  0
  7 19  1  0  0  0  0
  8 22  1  0  0  0  0
  9 22  2  0  0  0  0
 10 23  1  0  0  0  0
 11 12  2  0  0  0  0
 11 24  1  0  0  0  0
 12 25  1  0  0  0  0
 13 21  1  0  0  0  0
 13 23  2  0  0  0  0
 14 25  2  0  0  0  0
 14 26  1  0  0  0  0
 15 28  1  0  0  0  0
 15 29  2  0  0  0  0
 16 27  1  0  0  0  0
 17 27  1  0  0  0  0
 17 30  2  0  0  0  0
 17 31  1  0  0  0  0
 18 20  2  0  0  0  0
 18 36  1  0  0  0  0
 19 21  2  0  0  0  0
 19 37  1  0  0  0  0
 20 45  1  0  0  0  0
 21 38  1  0  0  0  0
 22 80  1  0  0  0  0
 23 81  1  0  0  0  0
 24 26  2  0  0  0  0
 24 80  1  0  0  0  0
 25 82  1  0  0  0  0
 26 83  1  0  0  0  0
 27 63  2  0  0  0  0
 28 55  1  0  0  0  0
 28 64  2  0  0  0  0
 29 59  1  0  0  0  0
 29 65  1  0  0  0  0
 30 66  1  0  0  0  0
 30 69  1  0  0  0  0
 31 70  1  0  0  0  0
 31 75  2  0  0  0  0
 32 46  1  0  0  0  0
 32 71  1  0  0  0  0
 32 76  2  0  0  0  0
 33 60  1  0  0  0  0
 33 67  1  0  0  0  0
 33 77  2  0  0  0  0
 34 61  1  0  0  0  0
 34 72  1  0  0  0  0
 34 78  2  0  0  0  0
 35 68  1  0  0  0  0
 35 73  1  0  0  0  0
 35 79  2  0  0  0  0
 36 39  1  0  0  0  0
 37 46  1  0  0  0  0
 38 67  1  0  0  0  0
 39 41  1  0  0  0  0
 40 42  1  0  0  0  0
 40 43  1  0  0  0  0
 41 45  1  0  0  0  0
 42 47  1  0  0  0  0
 43 68  1  0  0  0  0
 44 47  1  0  0  0  0
 44 68  1  0  0  0  0
 45 71  1  0  0  0  0
 46 67  1  0  0  0  0
 47 66  1  0  0  0  0
 48 57  1  0  0  0  0
 49 59  1  0  0  0  0
 50 61  1  0  0  0  0
 51 62  1  0  0  0  0
 52 62  1  0  0  0  0
 53 62  1  0  0  0  0
 54 74  1  0  0  0  0
 55 56  1  0  0  0  0
 56 58  1  0  0  0  0
 57 65  1  0  0  0  0
 58 73  1  0  0  0  0
 59 81  1  0  0  0  0
 60 62  1  0  0  0  0
 60 72  1  0  0  0  0
 61 74  1  0  0  0  0
 63 66  1  0  0  0  0
 64 65  1  0  0  0  0
M  CHG  1  74   1
M  ISO  4  35 100  59 101  73 100  81 101
M  END
> <Batch ID>
0076

> <Smiles>
CCn1nc(CCC[100NH:0][100C:0](=O)N2CCCC(n3nc(-c4ccc(Oc5ccc(F)cc5F)cc4)c(C(N)=O)c3N)C2)cc1[101CH:1](C)[101O:1]c1ccc2c(c1)CN(C(=O)C(NC(=O)C(C)NC)C(C)(C)C)C(C(=O)NC1CCCc3ccccc31)C2

> <Shape>
0.222

> <Color>
0.088

> <Negative vol penalty>
0.000

$$$$

  -OEChem-04052318343D

 84 92  0     1  0  0  0  0  0999 V2000
  -16.3496  -26.5694   26.1924 C   0  0  0  0  0  0  0  0  0  0  0  0
  -17.3273  -25.6770   25.7643 C   0  0  0  0  0  0  0  0  0  0  0  0
  -23.1323   -9.9801   21.6186 C   0  0  0  0  0  0  0  0  0  0  0  0
  -23.7779  -11.0786   23.6713 C   0  0  0  0  0  0  0  0  0  0  0  0
  -16.2880  -27.8498   25.6442 C   0  0  0  0  0  0  0  0  0  0  0  0
  -18.2433  -26.0642   24.7869 C   0  0  0  0  0  0  0  0  0  0  0  0
  -24.1184  -24.3849   24.3755 C   0  0  0  0  0  0  0  0  0  0  0  0
  -22.3986   -9.0456   22.3493 C   0  0  0  0  0  0  0  0  0  0  0  0
  -23.0443  -10.1441   24.4021 C   0  0  0  0  0  0  0  0  0  0  0  0
  -24.7645  -23.4111   23.6152 C   0  0  0  0  0  0  0  0  0  0  0  0
  -19.3978   -8.8964   23.9004 C   0  0  0  0  0  0  0  0  0  0  0  0
  -18.1175   -8.5792   23.4468 C   0  0  0  0  0  0  0  0  0  0  0  0
  -25.3136  -25.0771   21.9592 C   0  0  0  0  0  0  0  0  0  0  0  0
  -18.7779   -6.2685   23.1989 C   0  0  0  0  0  0  0  0  0  0  0  0
  -23.8220  -10.9966   22.2795 C   0  0  0  0  0  0  0  0  0  0  0  0
  -24.1221  -13.1901   21.0123 C   0  0  0  0  0  0  0  0  0  0  0  0
  -17.2098  -28.2562   24.6665 C   0  0  0  0  0  0  0  0  0  0  0  0
  -24.0554  -25.7121   23.9273 C   0  0  0  0  0  0  0  0  0  0  0  0
  -18.1931  -27.3509   24.2241 C   0  0  0  0  0  0  0  0  0  0  0  0
  -24.6682  -26.0663   22.7168 C   0  0  0  0  0  0  0  0  0  0  0  0
  -22.3546   -9.1276   23.7411 C   0  0  0  0  0  0  0  0  0  0  0  0
  -25.3598  -23.7566   22.4054 C   0  0  0  0  0  0  0  0  0  0  0  0
  -20.3682   -7.8997   24.0032 C   0  0  0  0  0  0  0  0  0  0  0  0
  -17.8075   -7.2653   23.0960 C   0  0  0  0  0  0  0  0  0  0  0  0
  -20.0582   -6.5857   23.6525 C   0  0  0  0  0  0  0  0  0  0  0  0
  -24.5805  -11.9619   21.5252 C   0  0  0  0  0  0  0  0  0  0  0  0
  -28.2039  -20.4051   19.4691 C   0  0  0  0  0  0  0  0  0  0  0  0
  -28.1265  -19.0323   19.5523 C   0  0  0  0  0  0  0  0  0  0  0  0
  -26.6876  -19.2206   21.3198 C   0  0  0  0  0  0  0  0  0  0  0  0
  -26.7657  -20.5934   21.2370 C   0  0  0  0  0  0  0  0  0  0  0  0
  -25.2167  -13.7285   20.3809 C   0  0  0  0  0  0  0  0  0  0  0  0
  -22.8232  -13.7908   21.0989 C   0  0  0  0  0  0  0  0  0  0  0  0
  -21.7075  -27.7046   23.1391 C   0  0  0  0  0  0  0  0  0  0  0  0
  -24.1307  -29.8483   22.9055 C   0  0  0  0  0  0  0  0  0  0  0  0
  -27.4612  -30.4149   22.4223 C   0  0  0  0  0  0  0  0  0  0  0  0
  -30.6645  -14.9340   20.2662 C   0  0  0  0  0  0  0  0  0  0  0  0
  -17.0741  -29.6344   24.0692 C   0  0  0  0  0  0  0  0  0  0  0  0
  -23.3777  -26.7560   24.7720 C   0  0  0  0  0  0  0  0  0  0  0  0
  -24.6463  -27.4812   22.2011 C   0  0  0  0  0  0  0  0  0  0  0  0
  -18.3152  -30.0932   23.3080 C   0  0  0  0  0  0  0  0  0  0  0  0
  -29.6906  -11.6725   19.2220 C   0  0  0  0  0  0  0  0  0  0  0  0
  -18.8145  -28.9866   22.3845 C   0  0  0  0  0  0  0  0  0  0  0  0
  -28.2393  -11.5563   19.6912 C   0  0  0  0  0  0  0  0  0  0  0  0
  -30.5432  -12.4604   20.2141 C   0  0  0  0  0  0  0  0  0  0  0  0
  -28.5621  -13.6750   21.0350 C   0  0  0  0  0  0  0  0  0  0  0  0
  -19.2200  -27.7422   23.1837 C   0  0  1  0  0  0  0  0  0  0  0  0
  -22.9295  -27.9743   23.9707 C   0  0  1  0  0  0  0  0  0  0  0  0
  -27.6506  -12.9365   20.0399 C   0  0  2  0  0  0  0  0  0  0  0  0
  -29.0479  -21.0754   18.4397 C   0  0  0  0  0  0  0  0  0  0  0  0
  -24.5367  -18.0134   21.7700 C   0  0  0  0  0  0  0  0  0  0  0  0
  -29.1381  -32.2735   22.2464 C   0  0  0  0  0  0  0  0  0  0  0  0
  -23.1416  -30.4706   20.0869 C   0  0  0  0  0  0  0  0  0  0  0  0
  -25.3420  -31.5758   19.6339 C   0  0  0  0  0  0  0  0  0  0  0  0
  -23.8407  -32.4725   21.4129 C   0  0  0  0  0  0  0  0  0  0  0  0
  -28.9744  -29.4276   24.7663 C   0  0  0  0  0  0  0  0  0  0  0  0
  -25.8433  -18.5507   22.3493 C   0  0  0  0  0  0  0  0  0  0  0  0
  -28.8837  -18.1532   18.6167 C   0  0  0  0  0  0  0  0  0  0  0  0
  -26.0045  -21.4786   22.1796 C   0  0  0  0  0  0  0  0  0  1  0  0
  -30.3749  -17.9797   18.9686 C   0  0  0  0  0  0  0  0  0  0  0  0
  -30.6292  -17.4136   20.3640 C   0  0  0  0  0  0  0  0  0  0  0  0
  -25.0618  -30.2935   21.8038 C   0  0  1  0  0  0  0  0  0  0  0  0
  -28.4552  -31.2812   23.1746 C   0  0  2  0  0  0  0  0  0  0  0  0
  -24.3454  -31.1760   20.7429 C   0  0  0  0  0  0  0  0  0  0  0  0
  -25.8660  -11.7331   21.2438 N   0  0  0  0  0  0  0  0  0  0  0  0
  -27.5249  -21.2104   20.3100 N   0  0  0  0  0  0  0  0  0  0  0  0
  -27.3669  -18.4154   20.4792 N   0  0  0  0  0  0  0  0  0  0  0  0
  -26.2247  -12.8249   20.5472 N   0  0  0  0  0  0  0  0  0  0  0  0
  -23.9661  -28.4645   23.0600 N   0  0  0  0  0  0  0  0  0  0  0  0
  -29.9305  -13.7597   20.5011 N   0  0  0  0  0  0  0  0  0  0  0  0
  -25.4056  -14.8818   19.7052 N   0  0  0  0  0  0  0  0  0  0  0  0
  -21.8130  -13.1022   21.7843 N   0  0  0  0  0  0  0  0  0  0  0  0
  -20.5156  -27.9366   23.7987 N   0  0  0  0  0  0  0  0  0  0  0  0
  -26.1893  -30.9458   22.4608 N   0  0  0  0  0  0  0  0  0  0  0  0
  -30.0074  -16.1228   20.5589 N   0  0  0  0  0  0  0  0  0  0  0  0
  -29.5036  -30.4339   23.8101 N   0  3  0  0  0  0  0  0  0  0  0  0
  -22.5614  -14.8976   20.5698 O   0  0  0  0  0  0  0  0  0  0  0  0
  -21.8364  -27.3162   21.9840 O   0  0  0  0  0  0  0  0  0  0  0  0
  -23.5756  -30.6970   23.6079 O   0  0  0  0  0  0  0  0  0  0  0  0
  -27.7818  -29.3734   21.8538 O   0  0  0  0  0  0  0  0  0  0  0  0
  -31.8180  -14.9240   19.8230 O   0  0  0  0  0  0  0  0  0  0  0  0
  -21.6386   -8.2160   24.4545 O   0  0  0  0  0  0  0  0  0  0  0  0
  -25.9906  -22.8079   21.6611 O   0  0  0  0  0  0  0  0  0  1  0  0
  -16.5776   -6.9605   22.6619 F   0  0  0  0  0  0  0  0  0  0  0  0
  -20.9859   -5.6236   23.7503 F   0  0  0  0  0  0  0  0  0  0  0  0
  1  2  1  0  0  0  0
  1  5  2  0  0  0  0
  2  6  2  0  0  0  0
  3  8  2  0  0  0  0
  3 15  1  0  0  0  0
  4  9  1  0  0  0  0
  4 15  2  0  0  0  0
  5 17  1  0  0  0  0
  6 19  1  0  0  0  0
  7 10  2  0  0  0  0
  7 18  1  0  0  0  0
  8 21  1  0  0  0  0
  9 21  2  0  0  0  0
 10 22  1  0  0  0  0
 11 12  2  0  0  0  0
 11 23  1  0  0  0  0
 12 24  1  0  0  0  0
 13 20  1  0  0  0  0
 13 22  2  0  0  0  0
 14 24  2  0  0  0  0
 14 25  1  0  0  0  0
 15 26  1  0  0  0  0
 16 26  1  0  0  0  0
 16 31  2  0  0  0  0
 16 32  1  0  0  0  0
 17 19  2  0  0  0  0
 17 37  1  0  0  0  0
 18 20  2  0  0  0  0
 18 38  1  0  0  0  0
 19 46  1  0  0  0  0
 20 39  1  0  0  0  0
 21 81  1  0  0  0  0
 22 82  1  0  0  0  0
 23 25  2  0  0  0  0
 23 81  1  0  0  0  0
 24 83  1  0  0  0  0
 25 84  1  0  0  0  0
 26 64  2  0  0  0  0
 27 28  1  0  0  0  0
 27 49  1  0  0  0  0
 27 65  2  0  0  0  0
 28 57  1  0  0  0  0
 28 66  2  0  0  0  0
 29 30  2  0  0  0  0
 29 56  1  0  0  0  0
 29 66  1  0  0  0  0
 30 58  1  0  0  0  0
 30 65  1  0  0  0  0
 31 67  1  0  0  0  0
 31 70  1  0  0  0  0
 32 71  1  0  0  0  0
 32 76  2  0  0  0  0
 33 47  1  0  0  0  0
 33 72  1  0  0  0  0
 33 77  2  0  0  0  0
 34 61  1  0  0  0  0
 34 68  1  0  0  0  0
 34 78  2  0  0  0  0
 35 62  1  0  0  0  0
 35 73  1  0  0  0  0
 35 79  2  0  0  0  0
 36 69  1  0  0  0  0
 36 74  1  0  0  0  0
 36 80  2  0  0  0  0
 37 40  1  0  0  0  0
 38 47  1  0  0  0  0
 39 68  1  0  0  0  0
 40 42  1  0  0  0  0
 41 43  1  0  0  0  0
 41 44  1  0  0  0  0
 42 46  1  0  0  0  0
 43 48  1  0  0  0  0
 44 69  1  0  0  0  0
 45 48  1  0  0  0  0
 45 69  1  0  0  0  0
 46 72  1  0  0  0  0
 47 68  1  0  0  0  0
 48 67  1  0  0  0  0
 50 56  1  0  0  0  0
 51 62  1  0  0  0  0
 52 63  1  0  0  0  0
 53 63  1  0  0  0  0
 54 63  1  0  0  0  0
 55 75  1  0  0  0  0
 57 59  1  0  0  0  0
 58 82  1  0  0  0  0
 59 60  1  0  0  0  0
 60 74  1  0  0  0  0
 61 63  1  0  0  0  0
 61 73  1  0  0  0  0
 62 75  1  0  0  0  0
 64 67  1  0  0  0  0
M  CHG  1  75   1
M  ISO  4  36 100  58 101  74 100  82 101
M  END
> <Batch ID>
0076

> <Smiles>
CCc1nc(CCC[100NH:0][100C:0](=O)N2CCCC(n3nc(-c4ccc(Oc5ccc(F)cc5F)cc4)c(C(N)=O)c3N)C2)c(C)nc1[101CH2:1][101O:1]c1ccc2c(c1)CN(C(=O)C(NC(=O)C(C)NC)C(C)(C)C)C(C(=O)NC1CCCc3ccccc31)C2

> <Shape>
0.273

> <Color>
0.134

> <Negative vol penalty>
0.000

$$$$

  -OEChem-04052318343D

 86 94  0     1  0  0  0  0  0999 V2000
  -26.3954  -29.4214   18.0368 C   0  0  0  0  0  0  0  0  0  0  0  0
  -26.2953  -28.0885   18.4225 C   0  0  0  0  0  0  0  0  0  0  0  0
  -30.6093  -23.1017   20.7864 C   0  0  0  0  0  0  0  0  0  0  0  0
  -29.5157  -23.0301   18.6333 C   0  0  0  0  0  0  0  0  0  0  0  0
  -25.8471  -30.4211   18.8392 C   0  0  0  0  0  0  0  0  0  0  0  0
  -25.6479  -27.7546   19.6115 C   0  0  0  0  0  0  0  0  0  0  0  0
  -22.5091  -23.8169   19.0749 C   0  0  0  0  0  0  0  0  0  0  0  0
  -31.2796  -24.2647   20.4074 C   0  0  0  0  0  0  0  0  0  0  0  0
  -30.1860  -24.1932   18.2542 C   0  0  0  0  0  0  0  0  0  0  0  0
  -23.0820  -22.5464   19.0385 C   0  0  0  0  0  0  0  0  0  0  0  0
  -30.5897  -27.5644   20.1454 C   0  0  0  0  0  0  0  0  0  0  0  0
  -30.6387  -28.6130   21.0639 C   0  0  0  0  0  0  0  0  0  0  0  0
  -22.4972  -22.2229   21.3564 C   0  0  0  0  0  0  0  0  0  0  0  0
  -33.0523  -28.5047   21.0588 C   0  0  0  0  0  0  0  0  0  0  0  0
  -29.7274  -22.4844   19.8994 C   0  0  0  0  0  0  0  0  0  0  0  0
  -27.7837  -21.1919   20.9286 C   0  0  0  0  0  0  0  0  0  0  0  0
  -25.1842  -30.0985   20.0338 C   0  0  0  0  0  0  0  0  0  0  0  0
  -21.9347  -24.3050   20.2574 C   0  0  0  0  0  0  0  0  0  0  0  0
  -25.0914  -28.7510   20.4313 C   0  0  0  0  0  0  0  0  0  0  0  0
  -21.9154  -23.4989   21.4045 C   0  0  0  0  0  0  0  0  0  0  0  0
  -31.0680  -24.8105   19.1413 C   0  0  0  0  0  0  0  0  0  0  0  0
  -23.0787  -21.7503   20.1801 C   0  0  0  0  0  0  0  0  0  0  0  0
  -31.7720  -26.9859   19.6836 C   0  0  0  0  0  0  0  0  0  0  0  0
  -31.8700  -29.0832   21.5205 C   0  0  0  0  0  0  0  0  0  0  0  0
  -33.0033  -27.4560   20.1403 C   0  0  0  0  0  0  0  0  0  0  0  0
  -29.0351  -21.2826   20.2902 C   0  0  0  0  0  0  0  0  0  0  0  0
  -27.5724  -19.8432   21.0798 C   0  0  0  0  0  0  0  0  0  0  0  0
  -25.7167  -12.4970   19.6569 C   0  0  0  0  0  0  0  0  0  0  0  0
  -24.8792  -12.4041   21.5666 C   0  0  0  0  0  0  0  0  0  0  0  0
  -26.8919  -22.2336   21.3473 C   0  0  0  0  0  0  0  0  0  0  0  0
  -22.5189  -26.7627   22.1868 C   0  0  0  0  0  0  0  0  0  0  0  0
  -27.5895  -14.7806   18.9238 C   0  0  0  0  0  0  0  0  0  0  0  0
  -19.7973  -25.7646   23.6425 C   0  0  0  0  0  0  0  0  0  0  0  0
  -17.6192  -23.2155   24.2785 C   0  0  0  0  0  0  0  0  0  0  0  0
  -24.6488  -31.2174   20.8919 C   0  0  0  0  0  0  0  0  0  0  0  0
  -21.2971  -25.6673   20.2728 C   0  0  0  0  0  0  0  0  0  0  0  0
  -21.2933  -23.9684   22.6933 C   0  0  0  0  0  0  0  0  0  0  0  0
  -23.6514  -30.7505   21.9490 C   0  0  0  0  0  0  0  0  0  0  0  0
  -30.6896  -15.9205   20.4460 C   0  0  0  0  0  0  0  0  0  0  0  0
  -24.1801  -29.5168   22.6738 C   0  0  0  0  0  0  0  0  0  0  0  0
  -30.4375  -17.4230   20.5645 C   0  0  0  0  0  0  0  0  0  0  0  0
  -30.0549  -15.3428   19.1837 C   0  0  0  0  0  0  0  0  0  0  0  0
  -28.3377  -17.1249   19.1806 C   0  0  0  0  0  0  0  0  0  0  0  0
  -24.3750  -28.3470   21.7017 C   0  0  1  0  0  0  0  0  0  0  0  0
  -21.1977  -26.2646   21.6731 C   0  0  1  0  0  0  0  0  0  0  0  0
  -28.9358  -17.7409   20.4564 C   0  0  2  0  0  0  0  0  0  0  0  0
  -24.5965  -12.2368   23.0034 C   0  0  0  0  0  0  0  0  0  0  0  0
  -15.5086  -22.6943   25.5320 C   0  0  0  0  0  0  0  0  0  0  0  0
  -27.2694  -10.9433   18.4464 C   0  0  0  0  0  0  0  0  0  0  0  0
  -26.1939  -12.7446   17.1249 C   0  0  0  0  0  0  0  0  0  0  0  0
  -21.3702  -25.6923   26.2560 C   0  0  0  0  0  0  0  0  0  0  0  0
  -19.5393  -24.2955   27.2382 C   0  0  0  0  0  0  0  0  0  0  0  0
  -19.0543  -26.6145   26.4574 C   0  0  0  0  0  0  0  0  0  0  0  0
  -16.1777  -22.5132   21.7909 C   0  0  0  0  0  0  0  0  0  0  0  0
  -27.9741  -13.3274   18.8060 C   0  0  0  0  0  0  0  0  0  0  0  0
  -22.9120  -15.6649   20.6381 C   0  0  0  0  0  0  0  0  0  0  0  0
  -22.6809  -17.0445   21.2583 C   0  0  0  0  0  0  0  0  0  0  0  0
  -22.2913  -14.5592   21.4977 C   0  0  0  0  0  0  0  0  0  0  0  0
  -23.2699  -18.1510   20.3859 C   0  0  0  0  0  0  0  0  0  0  0  0
  -22.4972  -13.1576   20.9120 C   0  0  0  0  0  0  0  0  0  0  0  0
  -23.0813  -19.5237   21.0158 C   0  0  0  0  0  0  0  0  0  1  0  0
  -19.4726  -24.7947   24.7528 C   0  0  1  0  0  0  0  0  0  0  0  0
  -16.1045  -23.1432   24.2068 C   0  0  2  0  0  0  0  0  0  0  0  0
  -26.7089  -12.4071   18.5792 C   0  0  0  0  0  0  0  0  0  0  0  0
  -19.8727  -25.3409   26.1525 C   0  0  0  0  0  0  0  0  0  0  0  0
  -29.5805  -20.0869   20.0523 N   0  0  0  0  0  0  0  0  0  0  0  0
  -26.0219  -12.1984   20.9539 N   0  0  0  0  0  0  0  0  0  0  0  0
  -24.4571  -12.8745   19.4285 N   0  0  0  0  0  0  0  0  0  0  0  0
  -28.6676  -19.2319   20.5440 N   0  0  0  0  0  0  0  0  0  0  0  0
  -23.9430  -12.8067   20.6659 N   0  0  0  0  0  0  0  0  0  0  0  0
  -20.6882  -25.3101   22.6598 N   0  0  0  0  0  0  0  0  0  0  0  0
  -28.6312  -15.6909   19.1043 N   0  0  0  0  0  0  0  0  0  0  0  0
  -26.5585  -19.1324   21.6175 N   0  0  0  0  0  0  0  0  0  0  0  0
  -27.2637  -23.5648   21.1151 N   0  0  0  0  0  0  0  0  0  0  0  0
  -23.1031  -27.7301   21.3917 N   0  0  0  0  0  0  0  0  0  0  0  0
  -18.0547  -24.4790   24.6175 N   0  0  0  0  0  0  0  0  0  0  0  0
  -15.6813  -22.1804   23.1510 N   0  3  0  0  0  0  0  0  0  0  0  0
  -25.8054  -21.9915   21.9256 O   0  0  0  0  0  0  0  0  0  0  0  0
  -22.9739  -26.3043   23.2282 O   0  0  0  0  0  0  0  0  0  0  0  0
  -26.3982  -15.0951   18.8598 O   0  0  0  0  0  0  0  0  0  0  0  0
  -19.2740  -26.8816   23.6429 O   0  0  0  0  0  0  0  0  0  0  0  0
  -18.3433  -22.2469   24.0595 O   0  0  0  0  0  0  0  0  0  0  0  0
  -31.7217  -25.9454   18.7711 O   0  0  0  0  0  0  0  0  0  0  0  0
  -23.6378  -20.5100   20.1475 O   0  0  0  0  0  0  0  0  0  1  0  0
  -31.9169  -30.0912   22.4014 F   0  0  0  0  0  0  0  0  0  0  0  0
  -34.1425  -26.9050   19.6994 F   0  0  0  0  0  0  0  0  0  0  0  0
  1  2  1  0  0  0  0
  1  5  2  0  0  0  0
  2  6  2  0  0  0  0
  3  8  2  0  0  0  0
  3 15  1  0  0  0  0
  4  9  1  0  0  0  0
  4 15  2  0  0  0  0
  5 17  1  0  0  0  0
  6 19  1  0  0  0  0
  7 10  2  0  0  0  0
  7 18  1  0  0  0  0
  8 21  1  0  0  0  0
  9 21  2  0  0  0  0
 10 22  1  0  0  0  0
 11 12  2  0  0  0  0
 11 23  1  0  0  0  0
 12 24  1  0  0  0  0
 13 20  1  0  0  0  0
 13 22  2  0  0  0  0
 14 24  2  0  0  0  0
 14 25  1  0  0  0  0
 15 26  1  0  0  0  0
 16 26  1  0  0  0  0
 16 27  2  0  0  0  0
 16 30  1  0  0  0  0
 17 19  2  0  0  0  0
 17 35  1  0  0  0  0
 18 20  2  0  0  0  0
 18 36  1  0  0  0  0
 19 44  1  0  0  0  0
 20 37  1  0  0  0  0
 21 83  1  0  0  0  0
 22 84  1  0  0  0  0
 23 25  2  0  0  0  0
 23 83  1  0  0  0  0
 24 85  1  0  0  0  0
 25 86  1  0  0  0  0
 26 66  2  0  0  0  0
 27 69  1  0  0  0  0
 27 73  1  0  0  0  0
 28 64  1  0  0  0  0
 28 67  1  0  0  0  0
 28 68  2  0  0  0  0
 29 47  1  0  0  0  0
 29 67  2  0  0  0  0
 29 70  1  0  0  0  0
 30 74  1  0  0  0  0
 30 78  2  0  0  0  0
 31 45  1  0  0  0  0
 31 75  1  0  0  0  0
 31 79  2  0  0  0  0
 32 55  1  0  0  0  0
 32 72  1  0  0  0  0
 32 80  2  0  0  0  0
 33 62  1  0  0  0  0
 33 71  1  0  0  0  0
 33 81  2  0  0  0  0
 34 63  1  0  0  0  0
 34 76  1  0  0  0  0
 34 82  2  0  0  0  0
 35 38  1  0  0  0  0
 36 45  1  0  0  0  0
 37 71  1  0  0  0  0
 38 40  1  0  0  0  0
 39 41  1  0  0  0  0
 39 42  1  0  0  0  0
 40 44  1  0  0  0  0
 41 46  1  0  0  0  0
 42 72  1  0  0  0  0
 43 46  1  0  0  0  0
 43 72  1  0  0  0  0
 44 75  1  0  0  0  0
 45 71  1  0  0  0  0
 46 69  1  0  0  0  0
 48 63  1  0  0  0  0
 49 64  1  0  0  0  0
 50 64  1  0  0  0  0
 51 65  1  0  0  0  0
 52 65  1  0  0  0  0
 53 65  1  0  0  0  0
 54 77  1  0  0  0  0
 55 64  1  0  0  0  0
 56 57  1  0  0  0  0
 56 58  1  0  0  0  0
 57 59  1  0  0  0  0
 58 60  1  0  0  0  0
 59 61  1  0  0  0  0
 60 70  1  0  0  0  0
 61 84  1  0  0  0  0
 62 65  1  0  0  0  0
 62 76  1  0  0  0  0
 63 77  1  0  0  0  0
 66 69  1  0  0  0  0
 68 70  1  0  0  0  0
M  CHG  1  77   1
M  ISO  4  32 100  55 100  61 101  84 101
M  END
> <Batch ID>
0076

> <Smiles>
CNC(C)C(=O)NC(C(=O)N1Cc2cc([101O:1][101CH2:1]CCCCCn3nc(C(C)(C)[100CH2:0][100C:0](=O)N4CCCC(n5nc(-c6ccc(Oc7ccc(F)cc7F)cc6)c(C(N)=O)c5N)C4)nc3C)ccc2CC1C(=O)NC1CCCc2ccccc21)C(C)(C)C

> <Shape>
0.221

> <Color>
0.067

> <Negative vol penalty>
0.000

$$$$

  -OEChem-04052318343D

 88 96  0     1  0  0  0  0  0999 V2000
  -29.4411  -20.9766   16.0047 C   0  0  0  0  0  0  0  0  0  0  0  0
  -29.0767  -21.0819   17.3432 C   0  0  0  0  0  0  0  0  0  0  0  0
  -24.1471  -12.2708   18.5205 C   0  0  0  0  0  0  0  0  0  0  0  0
  -23.4946  -12.4359   20.8409 C   0  0  0  0  0  0  0  0  0  0  0  0
  -29.7788  -22.1208   15.2832 C   0  0  0  0  0  0  0  0  0  0  0  0
  -29.0509  -22.3316   17.9613 C   0  0  0  0  0  0  0  0  0  0  0  0
  -24.8992  -23.0203   20.7781 C   0  0  0  0  0  0  0  0  0  0  0  0
  -23.5793  -10.9986   18.4514 C   0  0  0  0  0  0  0  0  0  0  0  0
  -22.9268  -11.1637   20.7717 C   0  0  0  0  0  0  0  0  0  0  0  0
  -24.8708  -22.4083   22.0304 C   0  0  0  0  0  0  0  0  0  0  0  0
  -23.9892   -7.9546   20.8333 C   0  0  0  0  0  0  0  0  0  0  0  0
  -24.2530   -7.0695   21.8785 C   0  0  0  0  0  0  0  0  0  0  0  0
  -25.4691  -24.5052   23.0620 C   0  0  0  0  0  0  0  0  0  0  0  0
  -21.8886   -6.9261   22.3538 C   0  0  0  0  0  0  0  0  0  0  0  0
  -28.2294  -20.7761   24.9515 C   0  0  0  0  0  0  0  0  0  0  0  0
  -24.1048  -12.9894   19.7153 C   0  0  0  0  0  0  0  0  0  0  0  0
  -24.0590  -15.5327   19.5224 C   0  0  0  0  0  0  0  0  0  0  0  0
  -29.7477  -23.3863   15.8901 C   0  0  0  0  0  0  0  0  0  0  0  0
  -25.2241  -24.3791   20.6571 C   0  0  0  0  0  0  0  0  0  0  0  0
  -29.3898  -23.4937   17.2476 C   0  0  0  0  0  0  0  0  0  0  0  0
  -25.4985  -25.1327   21.8072 C   0  0  0  0  0  0  0  0  0  0  0  0
  -22.9691  -10.4451   19.5770 C   0  0  0  0  0  0  0  0  0  0  0  0
  -25.1586  -23.1501   23.1724 C   0  0  0  0  0  0  0  0  0  0  0  0
  -22.6751   -8.3256   20.5483 C   0  0  0  0  0  0  0  0  0  0  0  0
  -23.2027   -6.5552   22.6388 C   0  0  0  0  0  0  0  0  0  0  0  0
  -21.6248   -7.8113   21.3086 C   0  0  0  0  0  0  0  0  0  0  0  0
  -24.6916  -14.3034   19.7875 C   0  0  0  0  0  0  0  0  0  0  0  0
  -29.0586  -19.8003   24.4748 C   0  0  0  0  0  0  0  0  0  0  0  0
  -25.0370  -16.4742   19.7312 C   0  0  0  0  0  0  0  0  0  0  0  0
  -27.5876  -18.8466   25.8265 C   0  0  0  0  0  0  0  0  0  0  0  0
  -22.7081  -15.7997   19.1230 C   0  0  0  0  0  0  0  0  0  0  0  0
  -27.5455  -26.0116   19.2255 C   0  0  0  0  0  0  0  0  0  0  0  0
  -25.7903  -28.5735   20.1627 C   0  0  0  0  0  0  0  0  0  0  0  0
  -23.4860  -29.8747   22.3176 C   0  0  0  0  0  0  0  0  0  0  0  0
  -29.7770  -16.6383   23.0648 C   0  0  0  0  0  0  0  0  0  0  0  0
  -30.1667  -24.5892   15.0826 C   0  0  0  0  0  0  0  0  0  0  0  0
  -25.2243  -25.0307   19.3014 C   0  0  0  0  0  0  0  0  0  0  0  0
  -25.8331  -26.5993   21.7332 C   0  0  0  0  0  0  0  0  0  0  0  0
  -29.7520  -25.9179   15.7092 C   0  0  0  0  0  0  0  0  0  0  0  0
  -29.7727  -17.0695   19.5597 C   0  0  0  0  0  0  0  0  0  0  0  0
  -30.0875  -25.9343   17.1971 C   0  0  0  0  0  0  0  0  0  0  0  0
  -28.3978  -16.5158   19.1883 C   0  0  0  0  0  0  0  0  0  0  0  0
  -30.4511  -16.2390   20.6508 C   0  0  0  0  0  0  0  0  0  0  0  0
  -28.2453  -15.4955   21.4900 C   0  0  0  0  0  0  0  0  0  0  0  0
  -29.3258  -24.8344   17.9465 C   0  0  1  0  0  0  0  0  0  0  0  0
  -26.0708  -26.2987   19.2481 C   0  0  1  0  0  0  0  0  0  0  0  0
  -27.5169  -16.3466   20.4384 C   0  0  2  0  0  0  0  0  0  0  0  0
  -26.8544  -17.8171   26.6045 C   0  0  0  0  0  0  0  0  0  0  0  0
  -22.2792  -32.0073   22.8591 C   0  0  0  0  0  0  0  0  0  0  0  0
  -30.4817  -21.3451   23.0497 C   0  0  0  0  0  0  0  0  0  0  0  0
  -29.9157  -19.1339   22.1664 C   0  0  0  0  0  0  0  0  0  0  0  0
  -28.3191  -29.6689   21.4725 C   0  0  0  0  0  0  0  0  0  0  0  0
  -26.8779  -31.2557   22.7661 C   0  0  0  0  0  0  0  0  0  0  0  0
  -26.9401  -31.3777   20.2753 C   0  0  0  0  0  0  0  0  0  0  0  0
  -32.7998  -19.3162   23.1760 C   0  0  0  0  0  0  0  0  0  0  0  0
  -32.0353  -20.0187   25.4371 C   0  0  0  0  0  0  0  0  0  0  0  0
  -32.2315  -16.0242   23.0124 C   0  0  0  0  0  0  0  0  0  0  0  0
  -20.8443  -28.6512   21.7850 C   0  0  0  0  0  0  0  0  0  0  0  0
  -24.8443  -20.6961   25.8853 C   0  0  0  0  0  0  0  0  0  0  0  0
  -26.2211  -20.8543   26.5342 C   0  0  0  0  0  0  0  0  0  0  0  0
  -31.3892  -17.7461   24.5654 C   0  0  0  0  0  0  0  0  0  0  0  0
  -24.8017  -21.1674   24.4364 C   0  0  0  0  0  0  0  0  0  1  0  0
  -25.7479  -29.4482   21.3924 C   0  0  1  0  0  0  0  0  0  0  0  0
  -22.2373  -30.7038   22.0769 C   0  0  2  0  0  0  0  0  0  0  0  0
  -30.1979  -19.8620   23.5556 C   0  0  0  0  0  0  0  0  0  0  0  0
  -26.9669  -30.4095   21.4781 C   0  0  0  0  0  0  0  0  0  0  0  0
  -31.6055  -19.2415   24.1650 C   0  0  0  0  0  0  0  0  0  0  0  0
  -25.9724  -14.4476   20.1379 N   0  0  0  0  0  0  0  0  0  0  0  0
  -27.3288  -20.1577   25.7849 N   0  0  0  0  0  0  0  0  0  0  0  0
  -26.1526  -15.7787   20.0943 N   0  0  0  0  0  0  0  0  0  0  0  0
  -28.6387  -18.6170   25.0328 N   0  3  0  0  0  0  0  0  0  0  0  0
  -25.8267  -27.1895   20.3844 N   0  0  0  0  0  0  0  0  0  0  0  0
  -29.5591  -16.0619   21.8048 N   0  0  0  0  0  0  0  0  0  0  0  0
  -25.0429  -17.8209   19.6378 N   0  0  0  0  0  0  0  0  0  0  0  0
  -21.8349  -14.7165   18.9538 N   0  0  0  0  0  0  0  0  0  0  0  0
  -27.9500  -25.2288   18.1610 N   0  0  0  0  0  0  0  0  0  0  0  0
  -24.4549  -30.1234   21.3686 N   0  0  0  0  0  0  0  0  0  0  0  0
  -31.1086  -16.8496   23.4528 N   0  0  0  0  0  0  0  0  0  0  0  0
  -21.0237  -29.9452   22.4924 N   0  3  0  0  0  0  0  0  0  0  0  0
  -22.2923  -16.9631   18.9063 O   0  0  0  0  0  0  0  0  0  0  0  0
  -28.2635  -26.4677   20.1076 O   0  0  0  0  0  0  0  0  0  0  0  0
  -25.7840  -29.0986   19.0466 O   0  0  0  0  0  0  0  0  0  0  0  0
  -23.5926  -29.0882   23.2559 O   0  0  0  0  0  0  0  0  0  0  0  0
  -28.8340  -16.9409   23.8074 O   0  0  0  0  0  0  0  0  0  0  0  0
  -22.4148   -9.2038   19.5098 O   0  0  0  0  0  0  0  0  0  0  0  0
  -25.1321  -22.5550   24.3960 O   0  0  0  0  0  0  0  0  0  1  0  0
  -23.4560   -5.7041   23.6415 F   0  0  0  0  0  0  0  0  0  0  0  0
  -20.3601   -8.1631   21.0388 F   0  0  0  0  0  0  0  0  0  0  0  0
  1  2  1  0  0  0  0
  1  5  2  0  0  0  0
  2  6  2  0  0  0  0
  3  8  2  0  0  0  0
  3 16  1  0  0  0  0
  4  9  1  0  0  0  0
  4 16  2  0  0  0  0
  5 18  1  0  0  0  0
  6 20  1  0  0  0  0
  7 10  2  0  0  0  0
  7 19  1  0  0  0  0
  8 22  1  0  0  0  0
  9 22  2  0  0  0  0
 10 23  1  0  0  0  0
 11 12  2  0  0  0  0
 11 24  1  0  0  0  0
 12 25  1  0  0  0  0
 13 21  1  0  0  0  0
 13 23  2  0  0  0  0
 14 25  2  0  0  0  0
 14 26  1  0  0  0  0
 15 28  2  0  0  0  0
 15 69  1  0  0  0  0
 16 27  1  0  0  0  0
 17 27  1  0  0  0  0
 17 29  2  0  0  0  0
 17 31  1  0  0  0  0
 18 20  2  0  0  0  0
 18 36  1  0  0  0  0
 19 21  2  0  0  0  0
 19 37  1  0  0  0  0
 20 45  1  0  0  0  0
 21 38  1  0  0  0  0
 22 85  1  0  0  0  0
 23 86  1  0  0  0  0
 24 26  2  0  0  0  0
 24 85  1  0  0  0  0
 25 87  1  0  0  0  0
 26 88  1  0  0  0  0
 27 68  2  0  0  0  0
 28 65  1  0  0  0  0
 28 71  1  0  0  0  0
 29 70  1  0  0  0  0
 29 74  1  0  0  0  0
 30 48  1  0  0  0  0
 30 69  1  0  0  0  0
 30 71  2  0  0  0  0
 31 75  1  0  0  0  0
 31 80  2  0  0  0  0
 32 46  1  0  0  0  0
 32 76  1  0  0  0  0
 32 81  2  0  0  0  0
 33 63  1  0  0  0  0
 33 72  1  0  0  0  0
 33 82  2  0  0  0  0
 34 64  1  0  0  0  0
 34 77  1  0  0  0  0
 34 83  2  0  0  0  0
 35 73  1  0  0  0  0
 35 78  1  0  0  0  0
 35 84  2  0  0  0  0
 36 39  1  0  0  0  0
 37 46  1  0  0  0  0
 38 72  1  0  0  0  0
 39 41  1  0  0  0  0
 40 42  1  0  0  0  0
 40 43  1  0  0  0  0
 41 45  1  0  0  0  0
 42 47  1  0  0  0  0
 43 73  1  0  0  0  0
 44 47  1  0  0  0  0
 44 73  1  0  0  0  0
 45 76  1  0  0  0  0
 46 72  1  0  0  0  0
 47 70  1  0  0  0  0
 49 64  1  0  0  0  0
 50 65  1  0  0  0  0
 51 65  1  0  0  0  0
 52 66  1  0  0  0  0
 53 66  1  0  0  0  0
 54 66  1  0  0  0  0
 55 67  1  0  0  0  0
 56 67  1  0  0  0  0
 57 78  1  0  0  0  0
 58 79  1  0  0  0  0
 59 60  1  0  0  0  0
 59 62  1  0  0  0  0
 60 69  1  0  0  0  0
 61 67  1  0  0  0  0
 61 78  1  0  0  0  0
 62 86  1  0  0  0  0
 63 66  1  0  0  0  0
 63 77  1  0  0  0  0
 64 79  1  0  0  0  0
 65 67  1  0  0  0  0
 68 70  1  0  0  0  0
M  CHG  2  71   1  79   1
M  ISO  4  35 100  62 101  78 100  86 101
M  END
> <Batch ID>
0076

> <Smiles>
CNC(C)C(=O)NC(C(=O)N1Cc2cc([101O:1][101CH2:1]CCn3cc(C(C)(C)C(C)(C)C[100N:0](C)[100C:0](=O)N4CCCC(n5nc(-c6ccc(Oc7ccc(F)cc7F)cc6)c(C(N)=O)c5N)C4)nc3C)ccc2CC1C(=O)NC1CCCc2ccccc21)C(C)(C)C

> <Shape>
0.216

> <Color>
0.052

> <Negative vol penalty>
0.000

$$$$

  -OEChem-04052318343D

 88 96  0     1  0  0  0  0  0999 V2000
  -19.7285  -23.7468   21.7103 C   0  0  0  0  0  0  0  0  0  0  0  0
  -20.9035  -24.1894   21.1114 C   0  0  0  0  0  0  0  0  0  0  0  0
  -24.5600  -14.5853   21.3461 C   0  0  0  0  0  0  0  0  0  0  0  0
  -25.9835  -14.3368   19.4099 C   0  0  0  0  0  0  0  0  0  0  0  0
  -18.8305  -24.6688   22.2465 C   0  0  0  0  0  0  0  0  0  0  0  0
  -21.1808  -25.5545   21.0473 C   0  0  0  0  0  0  0  0  0  0  0  0
  -25.9709  -26.6246   22.2942 C   0  0  0  0  0  0  0  0  0  0  0  0
  -23.8885  -13.4119   21.0030 C   0  0  0  0  0  0  0  0  0  0  0  0
  -25.3120  -13.1633   19.0668 C   0  0  0  0  0  0  0  0  0  0  0  0
  -26.9483  -26.3881   21.3284 C   0  0  0  0  0  0  0  0  0  0  0  0
  -22.0361  -10.2884   20.8359 C   0  0  0  0  0  0  0  0  0  0  0  0
  -21.7747   -9.3700   21.8526 C   0  0  0  0  0  0  0  0  0  0  0  0
  -26.9581  -28.7354   20.7723 C   0  0  0  0  0  0  0  0  0  0  0  0
  -30.2911  -21.8223   18.5243 C   0  0  0  0  0  0  0  0  0  0  0  0
  -24.1447   -9.1607   22.2729 C   0  0  0  0  0  0  0  0  0  0  0  0
  -30.5315  -23.7729   17.4256 C   0  0  0  0  0  0  0  0  0  0  0  0
  -25.6075  -15.0478   20.5495 C   0  0  0  0  0  0  0  0  0  0  0  0
  -27.4386  -16.3804   21.7236 C   0  0  0  0  0  0  0  0  0  0  0  0
  -19.1015  -26.0453   22.1976 C   0  0  0  0  0  0  0  0  0  0  0  0
  -25.4712  -27.9187   22.4991 C   0  0  0  0  0  0  0  0  0  0  0  0
  -20.2850  -26.4959   21.5822 C   0  0  0  0  0  0  0  0  0  0  0  0
  -25.9763  -28.9861   21.7431 C   0  0  0  0  0  0  0  0  0  0  0  0
  -30.0817  -22.4785   17.2863 C   0  0  0  0  0  0  0  0  0  0  0  0
  -24.2645  -12.7008   19.8634 C   0  0  0  0  0  0  0  0  0  0  0  0
  -27.4400  -27.4431   20.5653 C   0  0  0  0  0  0  0  0  0  0  0  0
  -23.3518  -10.6430   20.5376 C   0  0  0  0  0  0  0  0  0  0  0  0
  -22.8290   -8.8061   22.5711 C   0  0  0  0  0  0  0  0  0  0  0  0
  -24.4061  -10.0792   21.2562 C   0  0  0  0  0  0  0  0  0  0  0  0
  -26.3011  -16.2603   20.9030 C   0  0  0  0  0  0  0  0  0  0  0  0
  -30.8623  -22.7359   19.3826 C   0  0  0  0  0  0  0  0  0  0  0  0
  -27.7053  -17.7276   21.7457 C   0  0  0  0  0  0  0  0  0  0  0  0
  -28.1873  -15.3651   22.4049 C   0  0  0  0  0  0  0  0  0  0  0  0
  -22.6153  -29.2886   22.2329 C   0  0  0  0  0  0  0  0  0  0  0  0
  -24.1513  -31.8398   23.5189 C   0  0  0  0  0  0  0  0  0  0  0  0
  -27.0960  -33.4777   24.0603 C   0  0  0  0  0  0  0  0  0  0  0  0
  -26.4661  -22.1921   17.9531 C   0  0  0  0  0  0  0  0  0  0  0  0
  -18.0783  -27.0066   22.7485 C   0  0  0  0  0  0  0  0  0  0  0  0
  -24.4362  -28.1615   23.5632 C   0  0  0  0  0  0  0  0  0  0  0  0
  -25.4876  -30.3973   21.9382 C   0  0  0  0  0  0  0  0  0  0  0  0
  -18.6242  -28.4143   22.9736 C   0  0  0  0  0  0  0  0  0  0  0  0
  -25.5413  -21.9794   21.3847 C   0  0  0  0  0  0  0  0  0  0  0  0
  -19.4232  -28.8774   21.7595 C   0  0  0  0  0  0  0  0  0  0  0  0
  -25.7338  -20.5004   21.7244 C   0  0  0  0  0  0  0  0  0  0  0  0
  -25.0178  -22.1684   19.9627 C   0  0  0  0  0  0  0  0  0  0  0  0
  -26.0093  -20.0259   19.2551 C   0  0  0  0  0  0  0  0  0  0  0  0
  -20.6329  -27.9671   21.5153 C   0  0  1  0  0  0  0  0  0  0  0  0
  -23.6291  -29.4353   23.3321 C   0  0  1  0  0  0  0  0  0  0  0  0
  -26.5889  -19.7872   20.6598 C   0  0  2  0  0  0  0  0  0  0  0  0
  -31.7366  -27.6777   21.1356 C   0  0  0  0  0  0  0  0  0  0  0  0
  -29.8321  -20.3823   15.9198 C   0  0  0  0  0  0  0  0  0  0  0  0
  -28.0292  -35.5577   25.1091 C   0  0  0  0  0  0  0  0  0  0  0  0
  -31.0105  -21.1319   21.3194 C   0  0  0  0  0  0  0  0  0  0  0  0
  -30.5217  -23.5656   21.7368 C   0  0  0  0  0  0  0  0  0  0  0  0
  -32.8061  -22.8352   21.0817 C   0  0  0  0  0  0  0  0  0  0  0  0
  -23.1346  -33.4836   21.1579 C   0  0  0  0  0  0  0  0  0  0  0  0
  -24.8323  -35.2314   21.7334 C   0  0  0  0  0  0  0  0  0  0  0  0
  -23.0352  -34.6557   23.3649 C   0  0  0  0  0  0  0  0  0  0  0  0
  -28.7515  -31.9192   25.9547 C   0  0  0  0  0  0  0  0  0  0  0  0
  -31.3269  -27.6970   19.6692 C   0  0  0  0  0  0  0  0  0  0  0  0
  -31.5873  -25.1943   19.2619 C   0  0  0  0  0  0  0  0  0  0  0  0
  -27.9499  -22.0584   15.9682 C   0  0  0  0  0  0  0  0  0  0  0  0
  -29.2987  -26.1379   19.8600 C   0  0  0  0  0  0  0  0  0  1  0  0
  -29.4914  -21.8858   16.0711 C   0  0  1  0  0  0  0  0  0  0  0  0
  -24.9182  -33.0165   22.9654 C   0  0  1  0  0  0  0  0  0  0  0  0
  -27.6926  -34.0891   25.3151 C   0  0  2  0  0  0  0  0  0  0  0  0
  -30.6396  -26.4089   19.1591 C   0  0  1  0  0  0  0  0  0  0  0  0
  -31.2840  -22.5794   20.7900 C   0  0  0  0  0  0  0  0  0  0  0  0
  -23.9881  -34.0700   22.3001 C   0  0  0  0  0  0  0  0  0  0  0  0
  -25.8744  -17.4372   20.4376 N   0  0  0  0  0  0  0  0  0  0  0  0
  -31.0034  -23.9182   18.7040 N   0  0  0  0  0  0  0  0  0  0  0  0
  -26.7483  -18.3098   20.9676 N   0  0  0  0  0  0  0  0  0  0  0  0
  -24.4706  -30.5827   22.9864 N   0  0  0  0  0  0  0  0  0  0  0  0
  -25.8741  -21.4689   19.0017 N   0  0  0  0  0  0  0  0  0  0  0  0
  -28.6625  -18.4592   22.3547 N   0  0  0  0  0  0  0  0  0  0  0  0
  -27.7765  -14.0315   22.2750 N   0  0  0  0  0  0  0  0  0  0  0  0
  -21.6962  -28.2790   22.4463 N   0  0  0  0  0  0  0  0  0  0  0  0
  -25.7184  -33.5375   24.0683 N   0  0  0  0  0  0  0  0  0  0  0  0
  -27.2679  -21.4541   17.0910 N   0  0  0  0  0  0  0  0  0  0  0  0
  -28.9405  -33.3702   25.6986 N   0  3  0  0  0  0  0  0  0  0  0  0
  -29.1812  -15.6343   23.1214 O   0  0  0  0  0  0  0  0  0  0  0  0
  -22.6624  -30.0369   21.2636 O   0  0  0  0  0  0  0  0  0  0  0  0
  -23.3053  -32.0283   24.3967 O   0  0  0  0  0  0  0  0  0  0  0  0
  -27.7833  -32.9987   23.1610 O   0  0  0  0  0  0  0  0  0  0  0  0
  -26.2972  -23.4066   17.7998 O   0  0  0  0  0  0  0  0  0  0  0  0
  -23.6097  -11.5556   19.5285 O   0  0  0  0  0  0  0  0  0  0  0  0
  -28.3934  -27.2150   19.6216 O   0  0  0  0  0  0  0  0  0  1  0  0
  -22.5777   -7.9253   23.5484 F   0  0  0  0  0  0  0  0  0  0  0  0
  -25.6721  -10.4168   20.9750 F   0  0  0  0  0  0  0  0  0  0  0  0
  1  2  1  0  0  0  0
  1  5  2  0  0  0  0
  2  6  2  0  0  0  0
  3  8  2  0  0  0  0
  3 17  1  0  0  0  0
  4  9  1  0  0  0  0
  4 17  2  0  0  0  0
  5 19  1  0  0  0  0
  6 21  1  0  0  0  0
  7 10  2  0  0  0  0
  7 20  1  0  0  0  0
  8 24  1  0  0  0  0
  9 24  2  0  0  0  0
 10 25  1  0  0  0  0
 11 12  2  0  0  0  0
 11 26  1  0  0  0  0
 12 27  1  0  0  0  0
 13 22  1  0  0  0  0
 13 25  2  0  0  0  0
 14 23  1  0  0  0  0
 14 30  2  0  0  0  0
 15 27  2  0  0  0  0
 15 28  1  0  0  0  0
 16 23  2  0  0  0  0
 16 70  1  0  0  0  0
 17 29  1  0  0  0  0
 18 29  1  0  0  0  0
 18 31  2  0  0  0  0
 18 32  1  0  0  0  0
 19 21  2  0  0  0  0
 19 37  1  0  0  0  0
 20 22  2  0  0  0  0
 20 38  1  0  0  0  0
 21 46  1  0  0  0  0
 22 39  1  0  0  0  0
 23 63  1  0  0  0  0
 24 85  1  0  0  0  0
 25 86  1  0  0  0  0
 26 28  2  0  0  0  0
 26 85  1  0  0  0  0
 27 87  1  0  0  0  0
 28 88  1  0  0  0  0
 29 69  2  0  0  0  0
 30 67  1  0  0  0  0
 30 70  1  0  0  0  0
 31 71  1  0  0  0  0
 31 74  1  0  0  0  0
 32 75  1  0  0  0  0
 32 80  2  0  0  0  0
 33 47  1  0  0  0  0
 33 76  1  0  0  0  0
 33 81  2  0  0  0  0
 34 64  1  0  0  0  0
 34 72  1  0  0  0  0
 34 82  2  0  0  0  0
 35 65  1  0  0  0  0
 35 77  1  0  0  0  0
 35 83  2  0  0  0  0
 36 73  1  0  0  0  0
 36 78  1  0  0  0  0
 36 84  2  0  0  0  0
 37 40  1  0  0  0  0
 38 47  1  0  0  0  0
 39 72  1  0  0  0  0
 40 42  1  0  0  0  0
 41 43  1  0  0  0  0
 41 44  1  0  0  0  0
 42 46  1  0  0  0  0
 43 48  1  0  0  0  0
 44 73  1  0  0  0  0
 45 48  1  0  0  0  0
 45 73  1  0  0  0  0
 46 76  1  0  0  0  0
 47 72  1  0  0  0  0
 48 71  1  0  0  0  0
 49 59  1  0  0  0  0
 50 63  1  0  0  0  0
 51 65  1  0  0  0  0
 52 67  1  0  0  0  0
 53 67  1  0  0  0  0
 54 67  1  0  0  0  0
 55 68  1  0  0  0  0
 56 68  1  0  0  0  0
 57 68  1  0  0  0  0
 58 79  1  0  0  0  0
 59 66  1  0  0  0  0
 60 66  1  0  0  0  0
 60 70  1  0  0  0  0
 61 63  1  0  0  0  0
 61 78  1  0  0  0  0
 62 66  1  0  0  0  0
 62 86  1  0  0  0  0
 64 68  1  0  0  0  0
 64 77  1  0  0  0  0
 65 79  1  0  0  0  0
 69 71  1  0  0  0  0
M  CHG  1  79   1
M  ISO  4  36 100  62 101  78 100  86 101
M  END
> <Batch ID>
0076

> <Smiles>
CCC(Cn1cc(C(C)C[100NH:0][100C:0](=O)N2CCCC(n3nc(-c4ccc(Oc5ccc(F)cc5F)cc4)c(C(N)=O)c3N)C2)cc1C(C)(C)C)[101CH2:1][101O:1]c1ccc2c(c1)CN(C(=O)C(NC(=O)C(C)NC)C(C)(C)C)C(C(=O)NC1CCCc3ccccc31)C2

> <Shape>
0.291

> <Color>
0.080

> <Negative vol penalty>
0.000

$$$$

  -OEChem-04052318343D

 87 95  0     1  0  0  0  0  0999 V2000
  -16.9259  -24.7082   22.7825 C   0  0  0  0  0  0  0  0  0  0  0  0
  -17.7554  -24.3924   21.7112 C   0  0  0  0  0  0  0  0  0  0  0  0
  -26.0440  -14.4348   22.8575 C   0  0  0  0  0  0  0  0  0  0  0  0
  -25.6654  -14.2237   20.4807 C   0  0  0  0  0  0  0  0  0  0  0  0
  -17.1367  -25.8830   23.5032 C   0  0  0  0  0  0  0  0  0  0  0  0
  -18.7956  -25.2518   21.3593 C   0  0  0  0  0  0  0  0  0  0  0  0
  -23.1230  -22.7886   20.4370 C   0  0  0  0  0  0  0  0  0  0  0  0
  -25.0944  -13.4417   23.0970 C   0  0  0  0  0  0  0  0  0  0  0  0
  -24.7158  -13.2305   20.7202 C   0  0  0  0  0  0  0  0  0  0  0  0
  -23.2421  -22.1508   19.2029 C   0  0  0  0  0  0  0  0  0  0  0  0
  -22.4523  -10.3855   20.6865 C   0  0  0  0  0  0  0  0  0  0  0  0
  -22.4973   -9.2393   19.8930 C   0  0  0  0  0  0  0  0  0  0  0  0
  -24.5514  -24.0019   18.3794 C   0  0  0  0  0  0  0  0  0  0  0  0
  -24.7381   -8.7864   20.6744 C   0  0  0  0  0  0  0  0  0  0  0  0
  -30.5531  -17.7593   14.8312 C   0  0  0  0  0  0  0  0  0  0  0  0
  -26.3295  -14.8259   21.5493 C   0  0  0  0  0  0  0  0  0  0  0  0
  -28.6916  -15.6762   21.0966 C   0  0  0  0  0  0  0  0  0  0  0  0
  -18.1860  -26.7525   23.1660 C   0  0  0  0  0  0  0  0  0  0  0  0
  -23.7090  -24.0449   20.6484 C   0  0  0  0  0  0  0  0  0  0  0  0
  -19.0198  -26.4400   22.0753 C   0  0  0  0  0  0  0  0  0  0  0  0
  -24.4405  -24.6524   19.6178 C   0  0  0  0  0  0  0  0  0  0  0  0
  -24.4302  -12.8395   22.0284 C   0  0  0  0  0  0  0  0  0  0  0  0
  -23.9539  -22.7588   18.1730 C   0  0  0  0  0  0  0  0  0  0  0  0
  -23.5502  -10.7323   21.4739 C   0  0  0  0  0  0  0  0  0  0  0  0
  -23.6402   -8.4397   19.8870 C   0  0  0  0  0  0  0  0  0  0  0  0
  -24.6931   -9.9327   21.4679 C   0  0  0  0  0  0  0  0  0  0  0  0
  -27.3100  -15.8522   21.3013 C   0  0  0  0  0  0  0  0  0  0  0  0
  -31.6657  -18.5523   14.8449 C   0  0  0  0  0  0  0  0  0  0  0  0
  -29.1751  -16.9476   20.9058 C   0  0  0  0  0  0  0  0  0  0  0  0
  -29.9837  -19.7205   15.6856 C   0  0  0  0  0  0  0  0  0  0  0  0
  -29.4686  -14.4713   21.0804 C   0  0  0  0  0  0  0  0  0  0  0  0
  -22.6104  -26.9411   21.3617 C   0  0  0  0  0  0  0  0  0  0  0  0
  -25.7664  -27.6600   21.5735 C   0  0  0  0  0  0  0  0  0  0  0  0
  -28.7044  -21.9737   18.4962 C   0  0  0  0  0  0  0  0  0  0  0  0
  -28.9733  -26.9201   20.6706 C   0  0  0  0  0  0  0  0  0  0  0  0
  -18.3454  -28.0342   23.9447 C   0  0  0  0  0  0  0  0  0  0  0  0
  -23.5940  -24.7075   21.9938 C   0  0  0  0  0  0  0  0  0  0  0  0
  -25.1057  -25.9913   19.8003 C   0  0  0  0  0  0  0  0  0  0  0  0
  -19.7014  -28.7053   23.7422 C   0  0  0  0  0  0  0  0  0  0  0  0
  -26.9912  -21.4484   21.5992 C   0  0  0  0  0  0  0  0  0  0  0  0
  -20.0595  -28.7488   22.2601 C   0  0  0  0  0  0  0  0  0  0  0  0
  -27.0084  -19.9295   21.7662 C   0  0  0  0  0  0  0  0  0  0  0  0
  -26.8554  -21.8475   20.1332 C   0  0  0  0  0  0  0  0  0  0  0  0
  -27.9164  -19.7333   19.4078 C   0  0  0  0  0  0  0  0  0  0  0  0
  -20.1741  -27.3346   21.6785 C   0  0  1  0  0  0  0  0  0  0  0  0
  -23.7965  -26.2184   21.9350 C   0  0  1  0  0  0  0  0  0  0  0  0
  -28.0831  -19.2872   20.8712 C   0  0  2  0  0  0  0  0  0  0  0  0
  -33.0419  -18.2968   14.4120 C   0  0  0  0  0  0  0  0  0  0  0  0
  -29.1263  -22.0671   15.3510 C   0  0  0  0  0  0  0  0  0  0  0  0
  -31.3364  -27.7097   20.9708 C   0  0  0  0  0  0  0  0  0  0  0  0
  -25.6083  -16.6049   14.5043 C   0  0  0  0  0  0  0  0  0  0  0  0
  -25.2496  -29.9430   19.6162 C   0  0  0  0  0  0  0  0  0  0  0  0
  -27.7193  -30.0754   19.2268 C   0  0  0  0  0  0  0  0  0  0  0  0
  -26.7917  -30.5134   21.5007 C   0  0  0  0  0  0  0  0  0  0  0  0
  -29.7864  -24.3724   21.9385 C   0  0  0  0  0  0  0  0  0  0  0  0
  -24.9191  -20.2149   15.8096 C   0  0  0  0  0  0  0  0  0  0  0  0
  -24.9402  -18.6876   15.7426 C   0  0  0  0  0  0  0  0  0  0  0  0
  -27.1871  -18.5917   14.4466 C   0  0  0  0  0  0  0  0  0  0  0  0
  -28.1075  -18.0290   15.5355 C   0  0  0  0  0  0  0  0  0  0  0  0
  -24.0632  -20.7118   16.9673 C   0  0  0  0  0  0  0  0  0  1  0  0
  -29.2057  -20.8342   16.2834 C   0  0  2  0  0  0  0  0  0  0  0  0
  -26.8189  -28.1483   20.6076 C   0  0  1  0  0  0  0  0  0  0  0  0
  -29.7384  -21.2353   17.6840 C   0  0  1  0  0  0  0  0  0  0  0  0
  -30.2448  -26.7862   21.4891 C   0  0  2  0  0  0  0  0  0  0  0  0
  -25.7164  -18.1332   14.5317 C   0  0  1  0  0  0  0  0  0  0  0  0
  -26.6308  -29.6457   20.2334 C   0  0  0  0  0  0  0  0  0  0  0  0
  -26.9397  -17.1343   21.2458 N   0  0  0  0  0  0  0  0  0  0  0  0
  -29.5275  -18.5074   15.3573 N   0  0  0  0  0  0  0  0  0  0  0  0
  -28.0958  -17.7755   21.0043 N   0  0  0  0  0  0  0  0  0  0  0  0
  -31.2842  -19.7598   15.3783 N   0  3  0  0  0  0  0  0  0  0  0  0
  -24.9593  -26.6020   21.1318 N   0  0  0  0  0  0  0  0  0  0  0  0
  -27.8802  -21.1993   19.3129 N   0  0  0  0  0  0  0  0  0  0  0  0
  -30.4140  -17.4268   20.6652 N   0  0  0  0  0  0  0  0  0  0  0  0
  -28.8133  -13.2509   21.2940 N   0  0  0  0  0  0  0  0  0  0  0  0
  -21.4347  -26.7329   22.0572 N   0  0  0  0  0  0  0  0  0  0  0  0
  -28.1076  -27.8425   21.2191 N   0  0  0  0  0  0  0  0  0  0  0  0
  -30.7500  -25.3852   21.4359 N   0  3  0  0  0  0  0  0  0  0  0  0
  -30.7097  -14.4782   20.8987 O   0  0  0  0  0  0  0  0  0  0  0  0
  -22.7518  -27.6372   20.3631 O   0  0  0  0  0  0  0  0  0  0  0  0
  -25.6690  -28.1927   22.6818 O   0  0  0  0  0  0  0  0  0  0  0  0
  -28.6349  -23.2024   18.4084 O   0  0  0  0  0  0  0  0  0  0  0  0
  -28.7702  -26.2739   19.6451 O   0  0  0  0  0  0  0  0  0  0  0  0
  -23.5037  -11.8702   22.2618 O   0  0  0  0  0  0  0  0  0  0  0  0
  -24.0711  -22.1388   16.9673 O   0  0  0  0  0  0  0  0  0  1  0  0
  -23.6827   -7.3381   19.1261 F   0  0  0  0  0  0  0  0  0  0  0  0
  -25.7506  -10.2600   22.2232 F   0  0  0  0  0  0  0  0  0  0  0  0
  -30.8583  -21.9943   17.5462 F   0  0  0  0  0  0  0  0  0  0  0  0
  1  2  1  0  0  0  0
  1  5  2  0  0  0  0
  2  6  2  0  0  0  0
  3  8  2  0  0  0  0
  3 16  1  0  0  0  0
  4  9  1  0  0  0  0
  4 16  2  0  0  0  0
  5 18  1  0  0  0  0
  6 20  1  0  0  0  0
  7 10  2  0  0  0  0
  7 19  1  0  0  0  0
  8 22  1  0  0  0  0
  9 22  2  0  0  0  0
 10 23  1  0  0  0  0
 11 12  2  0  0  0  0
 11 24  1  0  0  0  0
 12 25  1  0  0  0  0
 13 21  1  0  0  0  0
 13 23  2  0  0  0  0
 14 25  2  0  0  0  0
 14 26  1  0  0  0  0
 15 28  2  0  0  0  0
 15 68  1  0  0  0  0
 16 27  1  0  0  0  0
 17 27  1  0  0  0  0
 17 29  2  0  0  0  0
 17 31  1  0  0  0  0
 18 20  2  0  0  0  0
 18 36  1  0  0  0  0
 19 21  2  0  0  0  0
 19 37  1  0  0  0  0
 20 45  1  0  0  0  0
 21 38  1  0  0  0  0
 22 83  1  0  0  0  0
 23 84  1  0  0  0  0
 24 26  2  0  0  0  0
 24 83  1  0  0  0  0
 25 85  1  0  0  0  0
 26 86  1  0  0  0  0
 27 67  2  0  0  0  0
 28 48  1  0  0  0  0
 28 70  1  0  0  0  0
 29 69  1  0  0  0  0
 29 73  1  0  0  0  0
 30 61  1  0  0  0  0
 30 68  1  0  0  0  0
 30 70  2  0  0  0  0
 31 74  1  0  0  0  0
 31 78  2  0  0  0  0
 32 46  1  0  0  0  0
 32 75  1  0  0  0  0
 32 79  2  0  0  0  0
 33 62  1  0  0  0  0
 33 71  1  0  0  0  0
 33 80  2  0  0  0  0
 34 63  1  0  0  0  0
 34 72  1  0  0  0  0
 34 81  2  0  0  0  0
 35 64  1  0  0  0  0
 35 76  1  0  0  0  0
 35 82  2  0  0  0  0
 36 39  1  0  0  0  0
 37 46  1  0  0  0  0
 38 71  1  0  0  0  0
 39 41  1  0  0  0  0
 40 42  1  0  0  0  0
 40 43  1  0  0  0  0
 41 45  1  0  0  0  0
 42 47  1  0  0  0  0
 43 72  1  0  0  0  0
 44 47  1  0  0  0  0
 44 72  1  0  0  0  0
 45 75  1  0  0  0  0
 46 71  1  0  0  0  0
 47 69  1  0  0  0  0
 49 61  1  0  0  0  0
 50 64  1  0  0  0  0
 51 65  1  0  0  0  0
 52 66  1  0  0  0  0
 53 66  1  0  0  0  0
 54 66  1  0  0  0  0
 55 77  1  0  0  0  0
 56 57  1  0  0  0  0
 56 60  1  0  0  0  0
 57 65  1  0  0  0  0
 58 59  1  0  0  0  0
 58 65  1  0  0  0  0
 59 68  1  0  0  0  0
 60 84  1  0  0  0  0
 61 63  1  0  0  0  0
 62 66  1  0  0  0  0
 62 76  1  0  0  0  0
 63 87  1  0  0  0  0
 64 77  1  0  0  0  0
 67 69  1  0  0  0  0
M  CHG  2  70   1  77   1
M  ISO  4  34 100  60 101  63 100  84 101
M  END
> <Batch ID>
0076

> <Smiles>
CNC(C)C(=O)NC(C(=O)N1Cc2cc([101O:1][101CH2:1]CCC(C)CCn3cc(C)nc3C(C)[100CH:0](F)[100C:0](=O)N3CCCC(n4nc(-c5ccc(Oc6ccc(F)cc6F)cc5)c(C(N)=O)c4N)C3)ccc2CC1C(=O)NC1CCCc2ccccc21)C(C)(C)C

> <Shape>
0.232

> <Color>
0.066

> <Negative vol penalty>
0.000

$$$$

  -OEChem-04052318343D

 87 95  0     1  0  0  0  0  0999 V2000
  -28.4350  -35.2785   23.7300 C   0  0  0  0  0  0  0  0  0  0  0  0
  -29.0879  -34.4366   22.8353 C   0  0  0  0  0  0  0  0  0  0  0  0
  -22.9028  -16.6754   21.0571 C   0  0  0  0  0  0  0  0  0  0  0  0
  -23.7778  -16.6057   23.3080 C   0  0  0  0  0  0  0  0  0  0  0  0
  -27.4941  -34.7566   24.6166 C   0  0  0  0  0  0  0  0  0  0  0  0
  -28.8009  -33.0720   22.8276 C   0  0  0  0  0  0  0  0  0  0  0  0
  -28.3731  -27.4824   18.3679 C   0  0  0  0  0  0  0  0  0  0  0  0
  -22.1085  -17.7695   21.3997 C   0  0  0  0  0  0  0  0  0  0  0  0
  -22.9835  -17.7000   23.6506 C   0  0  0  0  0  0  0  0  0  0  0  0
  -28.8467  -26.1787   18.2263 C   0  0  0  0  0  0  0  0  0  0  0  0
  -23.0590  -21.0543   23.2466 C   0  0  0  0  0  0  0  0  0  0  0  0
  -23.6525  -22.0781   23.9849 C   0  0  0  0  0  0  0  0  0  0  0  0
  -27.1451  -25.4016   19.7495 C   0  0  0  0  0  0  0  0  0  0  0  0
  -22.0516  -21.7263   25.7598 C   0  0  0  0  0  0  0  0  0  0  0  0
  -30.5003  -17.6538   19.5935 C   0  0  0  0  0  0  0  0  0  0  0  0
  -23.7374  -16.0934   22.0113 C   0  0  0  0  0  0  0  0  0  0  0  0
  -24.1213  -13.7098   21.1874 C   0  0  0  0  0  0  0  0  0  0  0  0
  -27.1884  -33.3865   24.6132 C   0  0  0  0  0  0  0  0  0  0  0  0
  -27.2870  -27.7574   19.2112 C   0  0  0  0  0  0  0  0  0  0  0  0
  -27.8560  -32.5311   23.7159 C   0  0  0  0  0  0  0  0  0  0  0  0
  -26.6581  -26.7092   19.8980 C   0  0  0  0  0  0  0  0  0  0  0  0
  -22.1488  -18.2819   22.6964 C   0  0  0  0  0  0  0  0  0  0  0  0
  -28.2345  -25.1385   18.9194 C   0  0  0  0  0  0  0  0  0  0  0  0
  -21.9617  -20.3665   23.7649 C   0  0  0  0  0  0  0  0  0  0  0  0
  -23.1489  -22.4141   25.2415 C   0  0  0  0  0  0  0  0  0  0  0  0
  -21.4580  -20.7025   25.0215 C   0  0  0  0  0  0  0  0  0  0  0  0
  -24.5577  -14.9627   21.6581 C   0  0  0  0  0  0  0  0  0  0  0  0
  -29.7453  -16.6345   19.0564 C   0  0  0  0  0  0  0  0  0  0  0  0
  -28.6512  -18.9983   19.6418 C   0  0  0  0  0  0  0  0  0  0  0  0
  -27.8962  -17.9793   19.1040 C   0  0  0  0  0  0  0  0  0  0  0  0
  -25.2771  -12.9917   21.0004 C   0  0  0  0  0  0  0  0  0  0  0  0
  -22.7902  -13.2374   20.9412 C   0  0  0  0  0  0  0  0  0  0  0  0
  -26.8669  -29.5131   21.8275 C   0  0  0  0  0  0  0  0  0  0  0  0
  -23.7568  -28.6929   21.4068 C   0  0  0  0  0  0  0  0  0  0  0  0
  -30.9465  -14.7061   19.9853 C   0  0  0  0  0  0  0  0  0  0  0  0
  -21.4896  -26.5014   20.1015 C   0  0  0  0  0  0  0  0  0  0  0  0
  -26.1985  -32.8610   25.6225 C   0  0  0  0  0  0  0  0  0  0  0  0
  -26.7713  -29.1652   19.3323 C   0  0  0  0  0  0  0  0  0  0  0  0
  -25.4759  -26.9487   20.8001 C   0  0  0  0  0  0  0  0  0  0  0  0
  -25.6785  -31.4636   25.2952 C   0  0  0  0  0  0  0  0  0  0  0  0
  -29.7524  -12.5952   22.6231 C   0  0  0  0  0  0  0  0  0  0  0  0
  -26.8316  -30.5407   24.9137 C   0  0  0  0  0  0  0  0  0  0  0  0
  -28.2495  -12.8705   22.6507 C   0  0  0  0  0  0  0  0  0  0  0  0
  -30.5436  -13.8507   22.2701 C   0  0  0  0  0  0  0  0  0  0  0  0
  -28.6206  -14.7698   21.0136 C   0  0  0  0  0  0  0  0  0  0  0  0
  -27.5538  -31.0493   23.6602 C   0  0  1  0  0  0  0  0  0  0  0  0
  -25.9837  -29.4046   20.6168 C   0  0  1  0  0  0  0  0  0  0  0  0
  -27.7823  -13.5201   21.3361 C   0  0  2  0  0  0  0  0  0  0  0  0
  -31.1899  -16.0413   16.3713 C   0  0  0  0  0  0  0  0  0  0  0  0
  -19.0209  -26.0751   19.9548 C   0  0  0  0  0  0  0  0  0  0  0  0
  -29.4018  -14.2143   18.2055 C   0  0  0  0  0  0  0  0  0  0  0  0
  -26.1926  -19.3120   17.8126 C   0  0  0  0  0  0  0  0  0  0  0  0
  -25.6530  -18.4911   20.1302 C   0  0  0  0  0  0  0  0  0  0  0  0
  -25.7204  -16.9047   18.2170 C   0  0  0  0  0  0  0  0  0  0  0  0
  -23.7608  -27.6926   24.2894 C   0  0  0  0  0  0  0  0  0  0  0  0
  -21.6463  -26.4495   23.7875 C   0  0  0  0  0  0  0  0  0  0  0  0
  -21.6979  -28.9379   23.6201 C   0  0  0  0  0  0  0  0  0  0  0  0
  -21.5115  -26.7095   17.1494 C   0  0  0  0  0  0  0  0  0  0  0  0
  -28.0420  -20.3366   19.9754 C   0  0  0  0  0  0  0  0  0  0  0  0
  -31.5642  -15.4428   17.7235 C   0  0  0  0  0  0  0  0  0  0  0  0
  -28.6977  -21.5110   19.2457 C   0  0  0  0  0  0  0  0  0  0  0  0
  -28.0207  -22.8482   19.5230 C   0  0  0  0  0  0  0  0  0  1  0  0
  -22.8803  -27.5530   21.8663 C   0  0  1  0  0  0  0  0  0  0  0  0
  -20.2256  -26.7235   19.2906 C   0  0  2  0  0  0  0  0  0  0  0  0
  -30.3683  -15.3212   18.7357 C   0  0  1  0  0  0  0  0  0  0  0  0
  -26.4419  -18.1526   18.8269 C   0  0  0  0  0  0  0  0  0  0  0  0
  -22.5198  -27.6537   23.3754 C   0  0  0  0  0  0  0  0  0  0  0  0
  -29.9669  -18.8540   19.8959 N   0  0  0  0  0  0  0  0  0  0  0  0
  -25.8870  -15.0393   21.7638 N   0  0  0  0  0  0  0  0  0  0  0  0
  -28.4296  -16.7790   18.8020 N   0  0  0  0  0  0  0  0  0  0  0  0
  -26.2958  -13.8255   21.3569 N   0  0  0  0  0  0  0  0  0  0  0  0
  -25.0126  -28.3433   20.8904 N   0  0  0  0  0  0  0  0  0  0  0  0
  -30.0548  -14.4503   21.0272 N   0  0  0  0  0  0  0  0  0  0  0  0
  -25.5112  -11.7346   20.5675 N   0  0  0  0  0  0  0  0  0  0  0  0
  -22.1016  -12.6055   21.9856 N   0  0  0  0  0  0  0  0  0  0  0  0
  -26.7894  -30.7325   22.4729 N   0  0  0  0  0  0  0  0  0  0  0  0
  -21.7250  -27.5416   20.9755 N   0  0  0  0  0  0  0  0  0  0  0  0
  -20.3776  -26.1450   17.9256 N   0  3  0  0  0  0  0  0  0  0  0  0
  -22.2342  -13.3569   19.8231 O   0  0  0  0  0  0  0  0  0  0  0  0
  -27.5658  -28.5606   22.1528 O   0  0  0  0  0  0  0  0  0  0  0  0
  -23.3398  -29.8504   21.4959 O   0  0  0  0  0  0  0  0  0  0  0  0
  -32.1543  -14.4585   20.0310 O   0  0  0  0  0  0  0  0  0  0  0  0
  -22.1953  -25.5032   19.9751 O   0  0  0  0  0  0  0  0  0  0  0  0
  -21.3741  -19.3497   23.0311 O   0  0  0  0  0  0  0  0  0  0  0  0
  -28.6952  -23.8653   18.7835 O   0  0  0  0  0  0  0  0  0  1  0  0
  -23.7199  -23.3963   25.9510 F   0  0  0  0  0  0  0  0  0  0  0  0
  -20.4049  -20.0445   25.5252 F   0  0  0  0  0  0  0  0  0  0  0  0
  1  2  1  0  0  0  0
  1  5  2  0  0  0  0
  2  6  2  0  0  0  0
  3  8  2  0  0  0  0
  3 16  1  0  0  0  0
  4  9  1  0  0  0  0
  4 16  2  0  0  0  0
  5 18  1  0  0  0  0
  6 20  1  0  0  0  0
  7 10  2  0  0  0  0
  7 19  1  0  0  0  0
  8 22  1  0  0  0  0
  9 22  2  0  0  0  0
 10 23  1  0  0  0  0
 11 12  2  0  0  0  0
 11 24  1  0  0  0  0
 12 25  1  0  0  0  0
 13 21  1  0  0  0  0
 13 23  2  0  0  0  0
 14 25  2  0  0  0  0
 14 26  1  0  0  0  0
 15 28  1  0  0  0  0
 15 68  2  0  0  0  0
 16 27  1  0  0  0  0
 17 27  1  0  0  0  0
 17 31  2  0  0  0  0
 17 32  1  0  0  0  0
 18 20  2  0  0  0  0
 18 37  1  0  0  0  0
 19 21  2  0  0  0  0
 19 38  1  0  0  0  0
 20 46  1  0  0  0  0
 21 39  1  0  0  0  0
 22 84  1  0  0  0  0
 23 85  1  0  0  0  0
 24 26  2  0  0  0  0
 24 84  1  0  0  0  0
 25 86  1  0  0  0  0
 26 87  1  0  0  0  0
 27 69  2  0  0  0  0
 28 65  1  0  0  0  0
 28 70  2  0  0  0  0
 29 30  2  0  0  0  0
 29 59  1  0  0  0  0
 29 68  1  0  0  0  0
 30 66  1  0  0  0  0
 30 70  1  0  0  0  0
 31 71  1  0  0  0  0
 31 74  1  0  0  0  0
 32 75  1  0  0  0  0
 32 79  2  0  0  0  0
 33 47  1  0  0  0  0
 33 76  1  0  0  0  0
 33 80  2  0  0  0  0
 34 63  1  0  0  0  0
 34 72  1  0  0  0  0
 34 81  2  0  0  0  0
 35 65  1  0  0  0  0
 35 73  1  0  0  0  0
 35 82  2  0  0  0  0
 36 64  1  0  0  0  0
 36 77  1  0  0  0  0
 36 83  2  0  0  0  0
 37 40  1  0  0  0  0
 38 47  1  0  0  0  0
 39 72  1  0  0  0  0
 40 42  1  0  0  0  0
 41 43  1  0  0  0  0
 41 44  1  0  0  0  0
 42 46  1  0  0  0  0
 43 48  1  0  0  0  0
 44 73  1  0  0  0  0
 45 48  1  0  0  0  0
 45 73  1  0  0  0  0
 46 76  1  0  0  0  0
 47 72  1  0  0  0  0
 48 71  1  0  0  0  0
 49 60  1  0  0  0  0
 50 64  1  0  0  0  0
 51 65  1  0  0  0  0
 52 66  1  0  0  0  0
 53 66  1  0  0  0  0
 54 66  1  0  0  0  0
 55 67  1  0  0  0  0
 56 67  1  0  0  0  0
 57 67  1  0  0  0  0
 58 78  1  0  0  0  0
 59 61  1  0  0  0  0
 60 65  1  0  0  0  0
 61 62  1  0  0  0  0
 62 85  1  0  0  0  0
 63 67  1  0  0  0  0
 63 77  1  0  0  0  0
 64 78  1  0  0  0  0
 69 71  1  0  0  0  0
M  CHG  1  78   1
M  ISO  4  35 100  62 101  65 100  85 101
M  END
> <Batch ID>
0076

> <Smiles>
CC[100C:0](C)(c1cnc(CC[101CH2:1][101O:1]c2ccc3c(c2)CN(C(=O)C(NC(=O)C(C)NC)C(C)(C)C)C(C(=O)NC2CCCc4ccccc42)C3)c(C(C)(C)C)n1)[100C:0](=O)N1CCCC(n2nc(-c3ccc(Oc4ccc(F)cc4F)cc3)c(C(N)=O)c2N)C1

> <Shape>
0.251

> <Color>
0.087

> <Negative vol penalty>
0.000

$$$$

  -OEChem-04052318343D

 83 91  0     1  0  0  0  0  0999 V2000
  -30.0773  -12.0082   19.6299 C   0  0  0  0  0  0  0  0  0  0  0  0
  -29.9431  -12.9278   20.6651 C   0  0  0  0  0  0  0  0  0  0  0  0
  -26.3423  -28.1692   18.9043 C   0  0  0  0  0  0  0  0  0  0  0  0
  -26.3838  -27.5535   21.2401 C   0  0  0  0  0  0  0  0  0  0  0  0
  -29.2026  -12.0489   18.5450 C   0  0  0  0  0  0  0  0  0  0  0  0
  -28.9345  -13.8895   20.6155 C   0  0  0  0  0  0  0  0  0  0  0  0
  -25.7859  -16.1698   25.3475 C   0  0  0  0  0  0  0  0  0  0  0  0
  -25.2475  -29.0000   19.1427 C   0  0  0  0  0  0  0  0  0  0  0  0
  -25.2891  -28.3843   21.4786 C   0  0  0  0  0  0  0  0  0  0  0  0
  -25.9208  -17.3455   26.0846 C   0  0  0  0  0  0  0  0  0  0  0  0
  -24.7164  -31.6883   21.8987 C   0  0  0  0  0  0  0  0  0  0  0  0
  -24.7657  -32.5171   23.0195 C   0  0  0  0  0  0  0  0  0  0  0  0
  -24.2497  -18.3984   24.6997 C   0  0  0  0  0  0  0  0  0  0  0  0
  -22.7821  -31.4511   23.8950 C   0  0  0  0  0  0  0  0  0  0  0  0
  -30.5028  -22.7195   22.9372 C   0  0  0  0  0  0  0  0  0  0  0  0
  -26.9104  -27.4459   19.9530 C   0  0  0  0  0  0  0  0  0  0  0  0
  -29.4034  -26.9351   19.7749 C   0  0  0  0  0  0  0  0  0  0  0  0
  -28.1768  -13.0055   18.4867 C   0  0  0  0  0  0  0  0  0  0  0  0
  -24.8883  -16.1029   24.2723 C   0  0  0  0  0  0  0  0  0  0  0  0
  -28.0460  -13.9439   19.5281 C   0  0  0  0  0  0  0  0  0  0  0  0
  -24.1034  -17.2199   23.9522 C   0  0  0  0  0  0  0  0  0  0  0  0
  -24.7209  -29.1076   20.4299 C   0  0  0  0  0  0  0  0  0  0  0  0
  -25.1547  -18.4609   25.7590 C   0  0  0  0  0  0  0  0  0  0  0  0
  -23.6999  -30.7409   21.7759 C   0  0  0  0  0  0  0  0  0  0  0  0
  -23.7986  -32.3985   24.0177 C   0  0  0  0  0  0  0  0  0  0  0  0
  -22.7328  -30.6224   22.7741 C   0  0  0  0  0  0  0  0  0  0  0  0
  -28.0410  -26.5871   19.7072 C   0  0  0  0  0  0  0  0  0  0  0  0
  -30.0698  -25.7765   19.4585 C   0  0  0  0  0  0  0  0  0  0  0  0
  -29.4640  -21.1834   21.8100 C   0  0  0  0  0  0  0  0  0  0  0  0
  -30.0122  -28.1930   20.0952 C   0  0  0  0  0  0  0  0  0  0  0  0
  -25.1664  -15.6002   21.1460 C   0  0  0  0  0  0  0  0  0  0  0  0
  -28.4837  -19.9949   19.8706 C   0  0  0  0  0  0  0  0  0  0  0  0
  -21.9243  -15.6143   21.2500 C   0  0  0  0  0  0  0  0  0  0  0  0
  -19.0814  -16.6074   22.8558 C   0  0  0  0  0  0  0  0  0  0  0  0
  -27.2849  -13.0403   17.2709 C   0  0  0  0  0  0  0  0  0  0  0  0
  -24.7352  -14.8190   23.5039 C   0  0  0  0  0  0  0  0  0  0  0  0
  -23.1106  -17.1934   22.8199 C   0  0  0  0  0  0  0  0  0  0  0  0
  -26.0092  -13.8535   17.4744 C   0  0  0  0  0  0  0  0  0  0  0  0
  -29.5954  -21.7415   16.9460 C   0  0  0  0  0  0  0  0  0  0  0  0
  -26.3282  -15.1908   18.1352 C   0  0  0  0  0  0  0  0  0  0  0  0
  -29.4198  -23.2132   17.3183 C   0  0  0  0  0  0  0  0  0  0  0  0
  -28.4999  -20.8756   17.5601 C   0  0  0  0  0  0  0  0  0  0  0  0
  -28.2023  -22.4823   19.4180 C   0  0  0  0  0  0  0  0  0  0  0  0
  -26.9491  -14.9865   19.5224 C   0  0  1  0  0  0  0  0  0  0  0  0
  -24.1629  -15.0245   22.1047 C   0  0  1  0  0  0  0  0  0  0  0  0
  -29.3059  -23.3878   18.8431 C   0  0  2  0  0  0  0  0  0  0  0  0
  -28.3108  -18.9531   22.1068 C   0  0  0  0  0  0  0  0  0  0  0  0
  -16.5804  -16.4999   22.6810 C   0  0  0  0  0  0  0  0  0  0  0  0
  -25.7138  -21.9966   28.0717 C   0  0  0  0  0  0  0  0  0  0  0  0
  -21.9881  -17.7415   19.0636 C   0  0  0  0  0  0  0  0  0  0  0  0
  -19.5996  -18.2657   19.6007 C   0  0  0  0  0  0  0  0  0  0  0  0
  -20.2204  -15.9968   18.7704 C   0  0  0  0  0  0  0  0  0  0  0  0
  -18.8482  -15.1569   25.4249 C   0  0  0  0  0  0  0  0  0  0  0  0
  -28.1073  -21.7774   24.9932 C   0  0  0  0  0  0  0  0  0  0  0  0
  -26.8126  -22.0411   25.7690 C   0  0  0  0  0  0  0  0  0  0  0  0
  -28.0459  -22.3913   23.5916 C   0  0  0  0  0  0  0  0  0  0  0  0
  -26.5627  -19.8735   27.0545 C   0  0  0  0  0  0  0  0  0  1  0  0
  -28.3859  -20.2921   21.3458 C   0  0  1  0  0  0  0  0  0  0  0  0
  -20.8552  -16.6724   21.1226 C   0  0  1  0  0  0  0  0  0  0  0  0
  -17.8293  -15.8456   23.2510 C   0  0  2  0  0  0  0  0  0  0  0  0
  -26.7874  -21.3881   27.1679 C   0  0  2  0  0  0  0  0  0  0  0  0
  -20.6858  -17.1705   19.6595 C   0  0  0  0  0  0  0  0  0  0  0  0
  -31.3597  -22.2107   22.0809 N   0  0  0  0  0  0  0  0  0  0  0  0
  -27.8515  -25.3077   19.3738 N   0  0  0  0  0  0  0  0  0  0  0  0
  -30.6988  -21.2334   21.3638 N   0  0  0  0  0  0  0  0  0  0  0  0
  -29.2965  -22.1021   22.8014 N   0  0  0  0  0  0  0  0  0  0  0  0
  -29.1036  -24.8415   19.2291 N   0  0  0  0  0  0  0  0  0  0  0  0
  -23.0019  -15.9169   22.0944 N   0  0  0  0  0  0  0  0  0  0  0  0
  -28.4087  -21.0870   19.0059 N   0  0  0  0  0  0  0  0  0  0  0  0
  -31.3820  -25.4765   19.3568 N   0  0  0  0  0  0  0  0  0  0  0  0
  -29.1806  -29.2804   20.3958 N   0  0  0  0  0  0  0  0  0  0  0  0
  -25.9262  -14.6508   20.4895 N   0  0  0  0  0  0  0  0  0  0  0  0
  -19.6446  -16.1016   21.7033 N   0  0  0  0  0  0  0  0  0  0  0  0
  -17.6990  -15.7972   24.7348 N   0  3  0  0  0  0  0  0  0  0  0  0
  -31.2564  -28.3525   20.0982 O   0  0  0  0  0  0  0  0  0  0  0  0
  -25.2446  -16.8156   21.0106 O   0  0  0  0  0  0  0  0  0  0  0  0
  -28.6256  -18.8267   19.5000 O   0  0  0  0  0  0  0  0  0  0  0  0
  -21.8041  -14.5552   20.6290 O   0  0  0  0  0  0  0  0  0  0  0  0
  -19.5143  -17.5586   23.5026 O   0  0  0  0  0  0  0  0  0  0  0  0
  -23.6528  -29.9183   20.6629 O   0  0  0  0  0  0  0  0  0  0  0  0
  -25.2849  -19.6099   26.4765 O   0  0  0  0  0  0  0  0  0  1  0  0
  -23.8470  -33.1934   25.0947 F   0  0  0  0  0  0  0  0  0  0  0  0
  -21.7545  -29.7133   22.6623 F   0  0  0  0  0  0  0  0  0  0  0  0
  1  2  1  0  0  0  0
  1  5  2  0  0  0  0
  2  6  2  0  0  0  0
  3  8  2  0  0  0  0
  3 16  1  0  0  0  0
  4  9  1  0  0  0  0
  4 16  2  0  0  0  0
  5 18  1  0  0  0  0
  6 20  1  0  0  0  0
  7 10  2  0  0  0  0
  7 19  1  0  0  0  0
  8 22  1  0  0  0  0
  9 22  2  0  0  0  0
 10 23  1  0  0  0  0
 11 12  2  0  0  0  0
 11 24  1  0  0  0  0
 12 25  1  0  0  0  0
 13 21  1  0  0  0  0
 13 23  2  0  0  0  0
 14 25  2  0  0  0  0
 14 26  1  0  0  0  0
 15 63  2  0  0  0  0
 15 66  1  0  0  0  0
 16 27  1  0  0  0  0
 17 27  1  0  0  0  0
 17 28  2  0  0  0  0
 17 30  1  0  0  0  0
 18 20  2  0  0  0  0
 18 35  1  0  0  0  0
 19 21  2  0  0  0  0
 19 36  1  0  0  0  0
 20 44  1  0  0  0  0
 21 37  1  0  0  0  0
 22 80  1  0  0  0  0
 23 81  1  0  0  0  0
 24 26  2  0  0  0  0
 24 80  1  0  0  0  0
 25 82  1  0  0  0  0
 26 83  1  0  0  0  0
 27 64  2  0  0  0  0
 28 67  1  0  0  0  0
 28 70  1  0  0  0  0
 29 58  1  0  0  0  0
 29 65  2  0  0  0  0
 29 66  1  0  0  0  0
 30 71  1  0  0  0  0
 30 75  2  0  0  0  0
 31 45  1  0  0  0  0
 31 72  1  0  0  0  0
 31 76  2  0  0  0  0
 32 58  1  0  0  0  0
 32 69  1  0  0  0  0
 32 77  2  0  0  0  0
 33 59  1  0  0  0  0
 33 68  1  0  0  0  0
 33 78  2  0  0  0  0
 34 60  1  0  0  0  0
 34 73  1  0  0  0  0
 34 79  2  0  0  0  0
 35 38  1  0  0  0  0
 36 45  1  0  0  0  0
 37 68  1  0  0  0  0
 38 40  1  0  0  0  0
 39 41  1  0  0  0  0
 39 42  1  0  0  0  0
 40 44  1  0  0  0  0
 41 46  1  0  0  0  0
 42 69  1  0  0  0  0
 43 46  1  0  0  0  0
 43 69  1  0  0  0  0
 44 72  1  0  0  0  0
 45 68  1  0  0  0  0
 46 67  1  0  0  0  0
 47 58  1  0  0  0  0
 48 60  1  0  0  0  0
 49 61  1  0  0  0  0
 50 62  1  0  0  0  0
 51 62  1  0  0  0  0
 52 62  1  0  0  0  0
 53 74  1  0  0  0  0
 54 55  1  0  0  0  0
 54 56  1  0  0  0  0
 55 61  1  0  0  0  0
 56 66  1  0  0  0  0
 57 61  1  0  0  0  0
 57 81  1  0  0  0  0
 59 62  1  0  0  0  0
 59 73  1  0  0  0  0
 60 74  1  0  0  0  0
 63 65  1  0  0  0  0
 64 67  1  0  0  0  0
M  CHG  1  74   1
M  ISO  4  32 100  57 101  58 100  81 101
M  END
> <Batch ID>
0076

> <Smiles>
CNC(C)C(=O)NC(C(=O)N1Cc2cc([101O:1][101CH2:1]C(C)CCCn3cnnc3[100CH:0](C)[100C:0](=O)N3CCCC(n4nc(-c5ccc(Oc6ccc(F)cc6F)cc5)c(C(N)=O)c4N)C3)ccc2CC1C(=O)NC1CCCc2ccccc21)C(C)(C)C

> <Shape>
0.226

> <Color>
0.076

> <Negative vol penalty>
0.000

$$$$

  -OEChem-04052318343D

 86 94  0     1  0  0  0  0  0999 V2000
  -31.7114  -25.8344   14.7652 C   0  0  0  0  0  0  0  0  0  0  0  0
  -30.6206  -25.2487   15.3997 C   0  0  0  0  0  0  0  0  0  0  0  0
  -31.1880  -18.7702   21.1545 C   0  0  0  0  0  0  0  0  0  0  0  0
  -29.0446  -17.7804   20.6414 C   0  0  0  0  0  0  0  0  0  0  0  0
  -32.5086  -26.7482   15.4532 C   0  0  0  0  0  0  0  0  0  0  0  0
  -30.3271  -25.5757   16.7231 C   0  0  0  0  0  0  0  0  0  0  0  0
  -25.3907  -26.4282   17.4646 C   0  0  0  0  0  0  0  0  0  0  0  0
  -22.6870  -20.0563   21.6259 C   0  0  0  0  0  0  0  0  0  0  0  0
  -31.8278  -17.6078   20.7244 C   0  0  0  0  0  0  0  0  0  0  0  0
  -29.6844  -16.6179   20.2112 C   0  0  0  0  0  0  0  0  0  0  0  0
  -24.5597  -25.3130   17.5634 C   0  0  0  0  0  0  0  0  0  0  0  0
  -30.7330  -13.2553   19.3151 C   0  0  0  0  0  0  0  0  0  0  0  0
  -30.2103  -12.0332   19.7379 C   0  0  0  0  0  0  0  0  0  0  0  0
  -22.7175  -19.4098   22.8564 C   0  0  0  0  0  0  0  0  0  0  0  0
  -24.5784  -25.5196   19.9668 C   0  0  0  0  0  0  0  0  0  0  0  0
  -30.5853  -12.6687   22.0385 C   0  0  0  0  0  0  0  0  0  0  0  0
  -29.7964  -18.8565   21.1130 C   0  0  0  0  0  0  0  0  0  0  0  0
  -28.8014  -21.1817   20.7798 C   0  0  0  0  0  0  0  0  0  0  0  0
  -32.2190  -27.0938   16.7826 C   0  0  0  0  0  0  0  0  0  0  0  0
  -25.8313  -27.0920   18.6185 C   0  0  0  0  0  0  0  0  0  0  0  0
  -31.1220  -26.4939   17.4300 C   0  0  0  0  0  0  0  0  0  0  0  0
  -25.4128  -26.6445   19.8798 C   0  0  0  0  0  0  0  0  0  0  0  0
  -22.1579  -21.3389   21.5336 C   0  0  0  0  0  0  0  0  0  0  0  0
  -31.0760  -16.5317   20.2527 C   0  0  0  0  0  0  0  0  0  0  0  0
  -24.1558  -24.8568   18.8147 C   0  0  0  0  0  0  0  0  0  0  0  0
  -31.1820  -14.1841   20.2540 C   0  0  0  0  0  0  0  0  0  0  0  0
  -30.1364  -11.7399   21.0996 C   0  0  0  0  0  0  0  0  0  0  0  0
  -31.1081  -13.8908   21.6157 C   0  0  0  0  0  0  0  0  0  0  0  0
  -29.1349  -20.0568   21.5577 C   0  0  0  0  0  0  0  0  0  0  0  0
  -22.2105  -20.0836   23.9559 C   0  0  0  0  0  0  0  0  0  0  0  0
  -21.6758  -21.9263   22.6922 C   0  0  0  0  0  0  0  0  0  0  0  0
  -28.1926  -22.0408   21.6617 C   0  0  0  0  0  0  0  0  0  0  0  0
  -29.0221  -21.4280   19.3847 C   0  0  0  0  0  0  0  0  0  0  0  0
  -28.6683  -27.6577   19.9356 C   0  0  0  0  0  0  0  0  0  0  0  0
  -26.9192  -29.4520   21.9955 C   0  0  0  0  0  0  0  0  0  0  0  0
  -23.8955  -30.0695   23.4525 C   0  0  0  0  0  0  0  0  0  0  0  0
  -25.2644  -21.1942   26.8153 C   0  0  0  0  0  0  0  0  0  0  0  0
  -33.1374  -28.0509   17.5004 C   0  0  0  0  0  0  0  0  0  0  0  0
  -26.7057  -28.3095   18.4938 C   0  0  0  0  0  0  0  0  0  0  0  0
  -25.8415  -27.3340   21.1483 C   0  0  0  0  0  0  0  0  0  0  0  0
  -32.5374  -28.6263   18.7807 C   0  0  0  0  0  0  0  0  0  0  0  0
  -28.1375  -23.2317   26.2952 C   0  0  0  0  0  0  0  0  0  0  0  0
  -31.9028  -27.5198   19.6171 C   0  0  0  0  0  0  0  0  0  0  0  0
  -28.6888  -22.7505   24.9519 C   0  0  0  0  0  0  0  0  0  0  0  0
  -27.5588  -22.0792   27.1131 C   0  0  0  0  0  0  0  0  0  0  0  0
  -27.1003  -20.7853   25.0664 C   0  0  0  0  0  0  0  0  0  0  0  0
  -30.7567  -26.8418   18.8568 C   0  0  1  0  0  0  0  0  0  0  0  0
  -27.5108  -28.5988   19.7569 C   0  0  1  0  0  0  0  0  0  0  0  0
  -27.6442  -21.9203   24.1820 C   0  0  2  0  0  0  0  0  0  0  0  0
  -21.0990  -23.3035   22.6538 C   0  0  0  0  0  0  0  0  0  0  0  0
  -22.7854  -31.5763   25.1243 C   0  0  0  0  0  0  0  0  0  0  0  0
  -20.6924  -22.4396   19.7116 C   0  0  0  0  0  0  0  0  0  0  0  0
  -22.7095  -21.1270   19.0902 C   0  0  0  0  0  0  0  0  0  0  0  0
  -22.8418  -17.9767   25.3194 C   0  0  0  0  0  0  0  0  0  0  0  0
  -20.7728  -19.2456   25.8343 C   0  0  0  0  0  0  0  0  0  0  0  0
  -28.2160  -27.8821   24.2679 C   0  0  0  0  0  0  0  0  0  0  0  0
  -26.4204  -28.7360   25.7894 C   0  0  0  0  0  0  0  0  0  0  0  0
  -27.9885  -30.3362   24.6924 C   0  0  0  0  0  0  0  0  0  0  0  0
  -22.0282  -31.1401   21.4213 C   0  0  0  0  0  0  0  0  0  0  0  0
  -23.0109  -20.2554   26.3687 C   0  0  0  0  0  0  0  0  0  0  0  0
  -22.9702  -23.3554   20.2275 C   0  0  0  0  0  0  0  0  0  1  0  0
  -26.2117  -29.1932   23.3037 C   0  0  1  0  0  0  0  0  0  0  0  0
  -23.1204  -31.3586   23.6569 C   0  0  2  0  0  0  0  0  0  0  0  0
  -22.1200  -22.0599   20.1731 C   0  0  0  0  0  0  0  0  0  0  0  0
  -22.2291  -19.4201   25.2925 C   0  0  0  0  0  0  0  0  0  0  0  0
  -27.2024  -29.0225   24.4897 C   0  0  0  0  0  0  0  0  0  0  0  0
  -28.7685  -20.1866   22.8356 N   0  0  0  0  0  0  0  0  0  0  0  0
  -21.6886  -21.3296   23.9053 N   0  0  0  0  0  0  0  0  0  0  0  0
  -28.1985  -21.4033   22.8674 N   0  0  0  0  0  0  0  0  0  0  0  0
  -26.7014  -28.5163   20.9744 N   0  0  0  0  0  0  0  0  0  0  0  0
  -26.5738  -21.3332   26.3263 N   0  0  0  0  0  0  0  0  0  0  0  0
  -27.6582  -23.2719   21.5157 N   0  0  0  0  0  0  0  0  0  0  0  0
  -29.6616  -20.4391   18.6246 N   0  0  0  0  0  0  0  0  0  0  0  0
  -29.5698  -27.6693   18.8885 N   0  0  0  0  0  0  0  0  0  0  0  0
  -25.2575  -30.2836   23.4744 N   0  0  0  0  0  0  0  0  0  0  0  0
  -24.3924  -20.4780   26.0045 N   0  0  0  0  0  0  0  0  0  0  0  0
  -21.8466  -31.3252   22.8840 N   0  3  0  0  0  0  0  0  0  0  0  0
  -28.6777  -22.5001   18.8321 O   0  0  0  0  0  0  0  0  0  0  0  0
  -28.7392  -26.9727   20.9493 O   0  0  0  0  0  0  0  0  0  0  0  0
  -27.6331  -30.4516   21.8815 O   0  0  0  0  0  0  0  0  0  0  0  0
  -23.3477  -28.9809   23.2934 O   0  0  0  0  0  0  0  0  0  0  0  0
  -24.8981  -21.6773   27.8920 O   0  0  0  0  0  0  0  0  0  0  0  0
  -31.7000  -15.3973   19.8327 O   0  0  0  0  0  0  0  0  0  0  0  0
  -23.3453  -23.7682   18.9140 O   0  0  0  0  0  0  0  0  0  1  0  0
  -29.6329  -10.5669   21.5055 F   0  0  0  0  0  0  0  0  0  0  0  0
  -31.5368  -14.7796   22.5224 F   0  0  0  0  0  0  0  0  0  0  0  0
  1  2  1  0  0  0  0
  1  5  2  0  0  0  0
  2  6  2  0  0  0  0
  3  9  2  0  0  0  0
  3 17  1  0  0  0  0
  4 10  1  0  0  0  0
  4 17  2  0  0  0  0
  5 19  1  0  0  0  0
  6 21  1  0  0  0  0
  7 11  2  0  0  0  0
  7 20  1  0  0  0  0
  8 14  2  0  0  0  0
  8 23  1  0  0  0  0
  9 24  1  0  0  0  0
 10 24  2  0  0  0  0
 11 25  1  0  0  0  0
 12 13  2  0  0  0  0
 12 26  1  0  0  0  0
 13 27  1  0  0  0  0
 14 30  1  0  0  0  0
 15 22  1  0  0  0  0
 15 25  2  0  0  0  0
 16 27  2  0  0  0  0
 16 28  1  0  0  0  0
 17 29  1  0  0  0  0
 18 29  1  0  0  0  0
 18 32  2  0  0  0  0
 18 33  1  0  0  0  0
 19 21  2  0  0  0  0
 19 38  1  0  0  0  0
 20 22  2  0  0  0  0
 20 39  1  0  0  0  0
 21 47  1  0  0  0  0
 22 40  1  0  0  0  0
 23 31  2  0  0  0  0
 23 64  1  0  0  0  0
 24 83  1  0  0  0  0
 25 84  1  0  0  0  0
 26 28  2  0  0  0  0
 26 83  1  0  0  0  0
 27 85  1  0  0  0  0
 28 86  1  0  0  0  0
 29 67  2  0  0  0  0
 30 65  1  0  0  0  0
 30 68  2  0  0  0  0
 31 50  1  0  0  0  0
 31 68  1  0  0  0  0
 32 69  1  0  0  0  0
 32 72  1  0  0  0  0
 33 73  1  0  0  0  0
 33 78  2  0  0  0  0
 34 48  1  0  0  0  0
 34 74  1  0  0  0  0
 34 79  2  0  0  0  0
 35 62  1  0  0  0  0
 35 70  1  0  0  0  0
 35 80  2  0  0  0  0
 36 63  1  0  0  0  0
 36 75  1  0  0  0  0
 36 81  2  0  0  0  0
 37 71  1  0  0  0  0
 37 76  1  0  0  0  0
 37 82  2  0  0  0  0
 38 41  1  0  0  0  0
 39 48  1  0  0  0  0
 40 70  1  0  0  0  0
 41 43  1  0  0  0  0
 42 44  1  0  0  0  0
 42 45  1  0  0  0  0
 43 47  1  0  0  0  0
 44 49  1  0  0  0  0
 45 71  1  0  0  0  0
 46 49  1  0  0  0  0
 46 71  1  0  0  0  0
 47 74  1  0  0  0  0
 48 70  1  0  0  0  0
 49 69  1  0  0  0  0
 51 63  1  0  0  0  0
 52 64  1  0  0  0  0
 53 64  1  0  0  0  0
 54 65  1  0  0  0  0
 55 65  1  0  0  0  0
 56 66  1  0  0  0  0
 57 66  1  0  0  0  0
 58 66  1  0  0  0  0
 59 77  1  0  0  0  0
 60 65  1  0  0  0  0
 60 76  1  0  0  0  0
 61 64  1  0  0  0  0
 61 84  1  0  0  0  0
 62 66  1  0  0  0  0
 62 75  1  0  0  0  0
 63 77  1  0  0  0  0
 67 69  1  0  0  0  0
M  CHG  1  77   1
M  ISO  4  37 100  61 101  76 100  84 101
M  END
> <Batch ID>
0076

> <Smiles>
CNC(C)C(=O)NC(C(=O)N1Cc2cc([101O:1][101CH2:1]C(C)(C)c3ccc(C(C)(C)C[100NH:0][100C:0](=O)N4CCCC(n5nc(-c6ccc(Oc7ccc(F)cc7F)cc6)c(C(N)=O)c5N)C4)nc3C)ccc2CC1C(=O)NC1CCCc2ccccc21)C(C)(C)C

> <Shape>
0.186

> <Color>
0.061

> <Negative vol penalty>
0.000

$$$$

  -OEChem-04052318343D

 85 93  0     1  0  0  0  0  0999 V2000
  -28.2669  -25.2041   16.0342 C   0  0  0  0  0  0  0  0  0  0  0  0
  -27.1242  -25.8888   16.4324 C   0  0  0  0  0  0  0  0  0  0  0  0
  -23.4010  -18.1043   19.8538 C   0  0  0  0  0  0  0  0  0  0  0  0
  -25.3884  -16.8585   20.4328 C   0  0  0  0  0  0  0  0  0  0  0  0
  -29.3689  -25.1414   16.8844 C   0  0  0  0  0  0  0  0  0  0  0  0
  -27.0876  -26.5211   17.6757 C   0  0  0  0  0  0  0  0  0  0  0  0
  -23.1556  -29.3135   18.6480 C   0  0  0  0  0  0  0  0  0  0  0  0
  -22.6214  -16.9735   20.0968 C   0  0  0  0  0  0  0  0  0  0  0  0
  -24.6088  -15.7277   20.6759 C   0  0  0  0  0  0  0  0  0  0  0  0
  -21.8952  -28.7766   18.9067 C   0  0  0  0  0  0  0  0  0  0  0  0
  -23.0825  -13.3170   18.8620 C   0  0  0  0  0  0  0  0  0  0  0  0
  -23.5291  -12.0994   18.3487 C   0  0  0  0  0  0  0  0  0  0  0  0
  -22.2010  -29.2085   21.2602 C   0  0  0  0  0  0  0  0  0  0  0  0
  -21.9069  -25.0768   21.3773 C   0  0  0  0  0  0  0  0  0  0  0  0
  -23.6281  -11.1925   20.5859 C   0  0  0  0  0  0  0  0  0  0  0  0
  -24.7846  -18.0468   20.0218 C   0  0  0  0  0  0  0  0  0  0  0  0
  -25.7062  -19.9228   18.5593 C   0  0  0  0  0  0  0  0  0  0  0  0
  -29.3404  -25.7629   18.1437 C   0  0  0  0  0  0  0  0  0  0  0  0
  -23.9540  -29.7928   19.6964 C   0  0  0  0  0  0  0  0  0  0  0  0
  -28.1984  -26.4895   18.5380 C   0  0  0  0  0  0  0  0  0  0  0  0
  -23.4701  -29.7533   21.0119 C   0  0  0  0  0  0  0  0  0  0  0  0
  -20.5979  -24.6665   21.1954 C   0  0  0  0  0  0  0  0  0  0  0  0
  -23.2252  -15.7853   20.5079 C   0  0  0  0  0  0  0  0  0  0  0  0
  -21.4189  -28.7213   20.2133 C   0  0  0  0  0  0  0  0  0  0  0  0
  -22.9088  -13.4725   20.2373 C   0  0  0  0  0  0  0  0  0  0  0  0
  -23.8018  -11.0371   19.2106 C   0  0  0  0  0  0  0  0  0  0  0  0
  -23.1816  -12.4102   21.0992 C   0  0  0  0  0  0  0  0  0  0  0  0
  -25.5906  -19.2144   19.7703 C   0  0  0  0  0  0  0  0  0  0  0  0
  -22.9135  -24.2008   21.0240 C   0  0  0  0  0  0  0  0  0  0  0  0
  -20.3822  -23.4075   20.6719 C   0  0  0  0  0  0  0  0  0  0  0  0
  -26.5848  -20.9407   18.8395 C   0  0  0  0  0  0  0  0  0  0  0  0
  -25.0756  -19.6824   17.2943 C   0  0  0  0  0  0  0  0  0  0  0  0
  -26.7970  -29.0157   20.8869 C   0  0  0  0  0  0  0  0  0  0  0  0
  -26.3203  -31.6549   22.7116 C   0  0  0  0  0  0  0  0  0  0  0  0
  -24.1128  -33.8474   24.1140 C   0  0  0  0  0  0  0  0  0  0  0  0
  -27.9917  -23.3641   24.2880 C   0  0  0  0  0  0  0  0  0  0  0  0
  -30.5641  -25.6702   19.0206 C   0  0  0  0  0  0  0  0  0  0  0  0
  -25.3002  -30.3934   19.3977 C   0  0  0  0  0  0  0  0  0  0  0  0
  -24.2797  -30.2733   22.1706 C   0  0  0  0  0  0  0  0  0  0  0  0
  -30.2725  -25.9872   20.4837 C   0  0  0  0  0  0  0  0  0  0  0  0
  -30.2649  -22.0513   21.6783 C   0  0  0  0  0  0  0  0  0  0  0  0
  -29.4889  -27.2871   20.5877 C   0  0  0  0  0  0  0  0  0  0  0  0
  -29.3363  -21.1779   20.8363 C   0  0  0  0  0  0  0  0  0  0  0  0
  -29.7964  -22.1446   23.1272 C   0  0  0  0  0  0  0  0  0  0  0  0
  -27.4595  -21.7285   22.4348 C   0  0  0  0  0  0  0  0  0  0  0  0
  -28.1245  -27.1589   19.8984 C   0  0  1  0  0  0  0  0  0  0  0  0
  -26.2399  -30.3812   20.5995 C   0  0  1  0  0  0  0  0  0  0  0  0
  -27.8775  -21.6514   20.9587 C   0  0  2  0  0  0  0  0  0  0  0  0
  -18.9987  -22.8971   20.4488 C   0  0  0  0  0  0  0  0  0  0  0  0
  -24.0192  -35.8792   25.5839 C   0  0  0  0  0  0  0  0  0  0  0  0
  -26.8538  -29.9082   25.1558 C   0  0  0  0  0  0  0  0  0  0  0  0
  -25.8333  -31.7017   26.5736 C   0  0  0  0  0  0  0  0  0  0  0  0
  -27.8932  -32.1809   25.2508 C   0  0  0  0  0  0  0  0  0  0  0  0
  -26.4866  -25.1231   25.1366 C   0  0  0  0  0  0  0  0  0  0  0  0
  -22.8581  -35.4738   21.9834 C   0  0  0  0  0  0  0  0  0  0  0  0
  -19.4604  -25.5849   21.5644 C   0  0  0  0  0  0  0  0  0  0  0  0
  -24.3402  -24.5939   21.2005 C   0  0  0  0  0  0  0  0  0  0  0  0
  -18.7908  -26.2507   20.3603 C   0  0  0  0  0  0  0  0  0  0  0  0
  -24.9396  -24.2256   22.5726 C   0  0  0  0  0  0  0  0  0  0  0  0
  -26.4155  -24.5853   22.7301 C   0  0  0  0  0  0  0  0  0  0  0  0
  -19.7224  -27.1769   19.5871 C   0  0  0  0  0  0  0  0  0  1  0  0
  -25.6817  -31.9267   24.0522 C   0  0  1  0  0  0  0  0  0  0  0  0
  -24.0883  -35.3647   24.1545 C   0  0  2  0  0  0  0  0  0  0  0  0
  -26.5508  -31.4177   25.2367 C   0  0  0  0  0  0  0  0  0  0  0  0
  -26.3363  -19.7377   20.7471 N   0  0  0  0  0  0  0  0  0  0  0  0
  -22.6733  -22.9744   20.5139 N   0  0  0  0  0  0  0  0  0  0  0  0
  -21.3867  -22.5713   20.3347 N   0  0  0  0  0  0  0  0  0  0  0  0
  -26.9289  -20.7858   20.1501 N   0  0  0  0  0  0  0  0  0  0  0  0
  -25.5923  -30.8454   21.8281 N   0  0  0  0  0  0  0  0  0  0  0  0
  -28.3945  -22.5548   23.2129 N   0  0  0  0  0  0  0  0  0  0  0  0
  -27.0889  -21.9440   18.0901 N   0  0  0  0  0  0  0  0  0  0  0  0
  -25.7235  -18.8488   16.3725 N   0  0  0  0  0  0  0  0  0  0  0  0
  -27.5032  -28.4634   19.8353 N   0  0  0  0  0  0  0  0  0  0  0  0
  -25.4016  -33.3580   24.0883 N   0  0  0  0  0  0  0  0  0  0  0  0
  -26.9327  -24.2549   24.0563 N   0  0  0  0  0  0  0  0  0  0  0  0
  -22.9058  -35.8837   23.4106 N   0  3  0  0  0  0  0  0  0  0  0  0
  -23.9782  -20.2049   16.9839 O   0  0  0  0  0  0  0  0  0  0  0  0
  -26.6020  -28.5018   21.9821 O   0  0  0  0  0  0  0  0  0  0  0  0
  -27.4211  -32.1488   22.4549 O   0  0  0  0  0  0  0  0  0  0  0  0
  -23.0910  -33.1646   24.1097 O   0  0  0  0  0  0  0  0  0  0  0  0
  -28.5533  -23.3012   25.3891 O   0  0  0  0  0  0  0  0  0  0  0  0
  -22.4647  -14.6817   20.7454 O   0  0  0  0  0  0  0  0  0  0  0  0
  -20.1893  -28.1972   20.4687 O   0  0  0  0  0  0  0  0  0  1  0  0
  -24.2291   -9.8674   18.7173 F   0  0  0  0  0  0  0  0  0  0  0  0
  -23.0155  -12.5532   22.4213 F   0  0  0  0  0  0  0  0  0  0  0  0
  1  2  1  0  0  0  0
  1  5  2  0  0  0  0
  2  6  2  0  0  0  0
  3  8  2  0  0  0  0
  3 16  1  0  0  0  0
  4  9  1  0  0  0  0
  4 16  2  0  0  0  0
  5 18  1  0  0  0  0
  6 20  1  0  0  0  0
  7 10  2  0  0  0  0
  7 19  1  0  0  0  0
  8 23  1  0  0  0  0
  9 23  2  0  0  0  0
 10 24  1  0  0  0  0
 11 12  2  0  0  0  0
 11 25  1  0  0  0  0
 12 26  1  0  0  0  0
 13 21  1  0  0  0  0
 13 24  2  0  0  0  0
 14 22  1  0  0  0  0
 14 29  2  0  0  0  0
 15 26  2  0  0  0  0
 15 27  1  0  0  0  0
 16 28  1  0  0  0  0
 17 28  1  0  0  0  0
 17 31  2  0  0  0  0
 17 32  1  0  0  0  0
 18 20  2  0  0  0  0
 18 37  1  0  0  0  0
 19 21  2  0  0  0  0
 19 38  1  0  0  0  0
 20 46  1  0  0  0  0
 21 39  1  0  0  0  0
 22 30  2  0  0  0  0
 22 56  1  0  0  0  0
 23 82  1  0  0  0  0
 24 83  1  0  0  0  0
 25 27  2  0  0  0  0
 25 82  1  0  0  0  0
 26 84  1  0  0  0  0
 27 85  1  0  0  0  0
 28 65  2  0  0  0  0
 29 57  1  0  0  0  0
 29 66  1  0  0  0  0
 30 49  1  0  0  0  0
 30 67  1  0  0  0  0
 31 68  1  0  0  0  0
 31 71  1  0  0  0  0
 32 72  1  0  0  0  0
 32 77  2  0  0  0  0
 33 47  1  0  0  0  0
 33 73  1  0  0  0  0
 33 78  2  0  0  0  0
 34 62  1  0  0  0  0
 34 69  1  0  0  0  0
 34 79  2  0  0  0  0
 35 63  1  0  0  0  0
 35 74  1  0  0  0  0
 35 80  2  0  0  0  0
 36 70  1  0  0  0  0
 36 75  1  0  0  0  0
 36 81  2  0  0  0  0
 37 40  1  0  0  0  0
 38 47  1  0  0  0  0
 39 69  1  0  0  0  0
 40 42  1  0  0  0  0
 41 43  1  0  0  0  0
 41 44  1  0  0  0  0
 42 46  1  0  0  0  0
 43 48  1  0  0  0  0
 44 70  1  0  0  0  0
 45 48  1  0  0  0  0
 45 70  1  0  0  0  0
 46 73  1  0  0  0  0
 47 69  1  0  0  0  0
 48 68  1  0  0  0  0
 50 63  1  0  0  0  0
 51 64  1  0  0  0  0
 52 64  1  0  0  0  0
 53 64  1  0  0  0  0
 54 75  1  0  0  0  0
 55 76  1  0  0  0  0
 56 58  1  0  0  0  0
 57 59  1  0  0  0  0
 58 61  1  0  0  0  0
 59 60  1  0  0  0  0
 60 75  1  0  0  0  0
 61 83  1  0  0  0  0
 62 64  1  0  0  0  0
 62 74  1  0  0  0  0
 63 76  1  0  0  0  0
 65 68  1  0  0  0  0
 66 67  2  0  0  0  0
M  CHG  1  76   1
M  ISO  4  36 100  61 101  75 100  83 101
M  END
> <Batch ID>
0076

> <Smiles>
CNC(C)C(=O)NC(C(=O)N1Cc2cc([101O:1][101CH2:1]CCc3cc(CCC[100N:0](C)[100C:0](=O)N4CCCC(n5nc(-c6ccc(Oc7ccc(F)cc7F)cc6)c(C(N)=O)c5N)C4)nnc3C)ccc2CC1C(=O)NC1CCCc2ccccc21)C(C)(C)C

> <Shape>
0.242

> <Color>
0.075

> <Negative vol penalty>
0.000

$$$$

  -OEChem-04052318343D

 88 96  0     1  0  0  0  0  0999 V2000
  -22.2949   -8.3053   20.7501 C   0  0  0  0  0  0  0  0  0  0  0  0
  -21.8160   -9.6078   20.8474 C   0  0  0  0  0  0  0  0  0  0  0  0
  -28.5955  -26.3093   21.0392 C   0  0  0  0  0  0  0  0  0  0  0  0
  -26.3571  -25.5645   20.5179 C   0  0  0  0  0  0  0  0  0  0  0  0
  -23.6110   -8.0189   21.1104 C   0  0  0  0  0  0  0  0  0  0  0  0
  -22.6527  -10.6246   21.3061 C   0  0  0  0  0  0  0  0  0  0  0  0
  -22.6874  -16.4694   19.4776 C   0  0  0  0  0  0  0  0  0  0  0  0
  -29.1204  -25.2459   20.3049 C   0  0  0  0  0  0  0  0  0  0  0  0
  -26.8819  -24.5011   19.7836 C   0  0  0  0  0  0  0  0  0  0  0  0
  -22.1293  -17.6256   20.0212 C   0  0  0  0  0  0  0  0  0  0  0  0
  -29.6475  -24.4843   17.0529 C   0  0  0  0  0  0  0  0  0  0  0  0
  -30.7010  -24.7566   16.1803 C   0  0  0  0  0  0  0  0  0  0  0  0
  -24.2344  -18.1352   21.0834 C   0  0  0  0  0  0  0  0  0  0  0  0
  -32.1049  -23.2080   17.3921 C   0  0  0  0  0  0  0  0  0  0  0  0
  -27.2139  -26.4686   21.1457 C   0  0  0  0  0  0  0  0  0  0  0  0
  -26.3533  -28.8532   21.4298 C   0  0  0  0  0  0  0  0  0  0  0  0
  -24.4672   -9.0345   21.5645 C   0  0  0  0  0  0  0  0  0  0  0  0
  -24.0224  -16.1312   19.7422 C   0  0  0  0  0  0  0  0  0  0  0  0
  -23.9811  -10.3514   21.6740 C   0  0  0  0  0  0  0  0  0  0  0  0
  -24.8078  -16.9755   20.5399 C   0  0  0  0  0  0  0  0  0  0  0  0
  -28.2636  -24.3418   19.6770 C   0  0  0  0  0  0  0  0  0  0  0  0
  -22.9019  -18.4572   20.8266 C   0  0  0  0  0  0  0  0  0  0  0  0
  -29.8226  -23.5739   18.0952 C   0  0  0  0  0  0  0  0  0  0  0  0
  -31.9297  -24.1184   16.3499 C   0  0  0  0  0  0  0  0  0  0  0  0
  -31.0513  -22.9358   18.2648 C   0  0  0  0  0  0  0  0  0  0  0  0
  -26.6711  -27.5666   21.9046 C   0  0  0  0  0  0  0  0  0  0  0  0
  -25.8746  -29.5176   22.5325 C   0  0  0  0  0  0  0  0  0  0  0  0
  -18.9814  -26.7608   21.8589 C   0  0  0  0  0  0  0  0  0  0  0  0
  -21.0087  -26.6208   22.6204 C   0  0  0  0  0  0  0  0  0  0  0  0
  -26.4795  -29.3990   20.1100 C   0  0  0  0  0  0  0  0  0  0  0  0
  -25.4779  -13.6915   21.1681 C   0  0  0  0  0  0  0  0  0  0  0  0
  -28.1598  -15.1829   20.1166 C   0  0  0  0  0  0  0  0  0  0  0  0
  -29.6607  -18.0799   19.1159 C   0  0  0  0  0  0  0  0  0  0  0  0
  -23.5043  -27.1595   27.6666 C   0  0  0  0  0  0  0  0  0  0  0  0
  -25.8678   -8.6681   21.9873 C   0  0  0  0  0  0  0  0  0  0  0  0
  -24.6172  -14.8945   19.1265 C   0  0  0  0  0  0  0  0  0  0  0  0
  -26.2518  -16.6678   20.8377 C   0  0  0  0  0  0  0  0  0  0  0  0
  -26.8014   -9.8697   22.1083 C   0  0  0  0  0  0  0  0  0  0  0  0
  -26.2320  -29.6341   27.2963 C   0  0  0  0  0  0  0  0  0  0  0  0
  -26.1215  -10.9989   22.8762 C   0  0  0  0  0  0  0  0  0  0  0  0
  -26.6681  -29.4346   25.8457 C   0  0  0  0  0  0  0  0  0  0  0  0
  -25.6504  -28.3568   27.8945 C   0  0  0  0  0  0  0  0  0  0  0  0
  -24.9717  -27.5733   25.6496 C   0  0  0  0  0  0  0  0  0  0  0  0
  -24.8655  -11.4860   22.1436 C   0  0  1  0  0  0  0  0  0  0  0  0
  -25.8385  -14.3792   19.8817 C   0  0  1  0  0  0  0  0  0  0  0  0
  -25.5194  -28.8543   25.0025 C   0  0  2  0  0  0  0  0  0  0  0  0
  -17.6904  -26.3674   21.2673 C   0  0  0  0  0  0  0  0  0  0  0  0
  -31.8708  -18.9924   18.3543 C   0  0  0  0  0  0  0  0  0  0  0  0
  -29.1812  -15.1013   22.9907 C   0  0  0  0  0  0  0  0  0  0  0  0
  -30.8890  -16.8197   22.3589 C   0  0  0  0  0  0  0  0  0  0  0  0
  -30.9058  -14.5825   21.2555 C   0  0  0  0  0  0  0  0  0  0  0  0
  -19.1185  -24.5382   19.3549 C   0  0  0  0  0  0  0  0  0  0  0  0
  -21.5892  -24.5932   19.7273 C   0  0  0  0  0  0  0  0  0  0  0  0
  -21.3502  -25.9858   27.4177 C   0  0  0  0  0  0  0  0  0  0  0  0
  -28.5489  -18.9083   16.5012 C   0  0  0  0  0  0  0  0  0  0  0  0
  -22.3117  -26.0480   23.0020 C   0  0  0  0  0  0  0  0  0  0  0  0
  -22.4785  -25.7464   24.5121 C   0  0  0  0  0  0  0  0  0  0  0  0
  -21.3733  -21.7221   20.8783 C   0  0  0  0  0  0  0  0  0  0  0  0
  -20.2688  -22.4598   20.1152 C   0  0  0  0  0  0  0  0  0  0  0  0
  -20.0244  -24.4096   21.7409 C   0  0  0  0  0  0  0  0  0  0  0  0
  -22.3787  -26.9794   25.4076 C   0  0  0  0  0  0  0  0  0  0  0  0
  -21.3218  -20.2218   20.6136 C   0  0  0  0  0  0  0  0  0  1  0  0
  -29.0851  -16.2374   20.6742 C   0  0  1  0  0  0  0  0  0  0  0  0
  -30.5401  -18.3979   17.9201 C   0  0  2  0  0  0  0  0  0  0  0  0
  -29.9875  -15.6903   21.8160 C   0  0  0  0  0  0  0  0  0  0  0  0
  -20.2615  -24.0147   20.2523 C   0  0  0  0  0  0  0  0  0  0  0  0
  -26.4159  -27.4202   23.2075 N   0  0  0  0  0  0  0  0  0  0  0  0
  -19.3342  -27.9596   22.2650 N   0  0  0  0  0  0  0  0  0  0  0  0
  -20.6239  -27.8705   22.7495 N   0  0  0  0  0  0  0  0  0  0  0  0
  -25.9327  -28.6235   23.5608 N   0  0  0  0  0  0  0  0  0  0  0  0
  -20.0056  -25.8868   22.0639 N   0  0  0  0  0  0  0  0  0  0  0  0
  -26.7860  -15.4439   20.2178 N   0  0  0  0  0  0  0  0  0  0  0  0
  -24.5905  -27.8030   27.0512 N   0  0  0  0  0  0  0  0  0  0  0  0
  -25.4138  -30.7736   22.7132 N   0  0  0  0  0  0  0  0  0  0  0  0
  -26.9896  -28.5793   19.0940 N   0  0  0  0  0  0  0  0  0  0  0  0
  -25.2277  -12.3394   21.0322 N   0  0  0  0  0  0  0  0  0  0  0  0
  -29.8220  -16.7767   19.5365 N   0  0  0  0  0  0  0  0  0  0  0  0
  -22.5022  -26.6513   26.8262 N   0  0  0  0  0  0  0  0  0  0  0  0
  -29.8602  -19.3735   17.0219 N   0  3  0  0  0  0  0  0  0  0  0  0
  -26.1651  -30.5837   19.8433 O   0  0  0  0  0  0  0  0  0  0  0  0
  -25.4317  -14.3394   22.2072 O   0  0  0  0  0  0  0  0  0  0  0  0
  -28.6385  -14.1684   19.6036 O   0  0  0  0  0  0  0  0  0  0  0  0
  -28.9088  -18.9062   19.6282 O   0  0  0  0  0  0  0  0  0  0  0  0
  -23.4295  -27.0540   28.8976 O   0  0  0  0  0  0  0  0  0  0  0  0
  -28.7754  -23.3041   18.9602 O   0  0  0  0  0  0  0  0  0  0  0  0
  -22.3594  -19.5860   21.3589 O   0  0  0  0  0  0  0  0  0  1  0  0
  -32.9409  -24.3788   15.5109 F   0  0  0  0  0  0  0  0  0  0  0  0
  -31.2252  -22.0594   19.2635 F   0  0  0  0  0  0  0  0  0  0  0  0
  1  2  1  0  0  0  0
  1  5  2  0  0  0  0
  2  6  2  0  0  0  0
  3  8  2  0  0  0  0
  3 15  1  0  0  0  0
  4  9  1  0  0  0  0
  4 15  2  0  0  0  0
  5 17  1  0  0  0  0
  6 19  1  0  0  0  0
  7 10  2  0  0  0  0
  7 18  1  0  0  0  0
  8 21  1  0  0  0  0
  9 21  2  0  0  0  0
 10 22  1  0  0  0  0
 11 12  2  0  0  0  0
 11 23  1  0  0  0  0
 12 24  1  0  0  0  0
 13 20  1  0  0  0  0
 13 22  2  0  0  0  0
 14 24  2  0  0  0  0
 14 25  1  0  0  0  0
 15 26  1  0  0  0  0
 16 26  1  0  0  0  0
 16 27  2  0  0  0  0
 16 30  1  0  0  0  0
 17 19  2  0  0  0  0
 17 35  1  0  0  0  0
 18 20  2  0  0  0  0
 18 36  1  0  0  0  0
 19 44  1  0  0  0  0
 20 37  1  0  0  0  0
 21 85  1  0  0  0  0
 22 86  1  0  0  0  0
 23 25  2  0  0  0  0
 23 85  1  0  0  0  0
 24 87  1  0  0  0  0
 25 88  1  0  0  0  0
 26 67  2  0  0  0  0
 27 70  1  0  0  0  0
 27 74  1  0  0  0  0
 28 47  1  0  0  0  0
 28 68  2  0  0  0  0
 28 71  1  0  0  0  0
 29 56  1  0  0  0  0
 29 69  2  0  0  0  0
 29 71  1  0  0  0  0
 30 75  1  0  0  0  0
 30 80  2  0  0  0  0
 31 45  1  0  0  0  0
 31 76  1  0  0  0  0
 31 81  2  0  0  0  0
 32 63  1  0  0  0  0
 32 72  1  0  0  0  0
 32 82  2  0  0  0  0
 33 64  1  0  0  0  0
 33 77  1  0  0  0  0
 33 83  2  0  0  0  0
 34 73  1  0  0  0  0
 34 78  1  0  0  0  0
 34 84  2  0  0  0  0
 35 38  1  0  0  0  0
 36 45  1  0  0  0  0
 37 72  1  0  0  0  0
 38 40  1  0  0  0  0
 39 41  1  0  0  0  0
 39 42  1  0  0  0  0
 40 44  1  0  0  0  0
 41 46  1  0  0  0  0
 42 73  1  0  0  0  0
 43 46  1  0  0  0  0
 43 73  1  0  0  0  0
 44 76  1  0  0  0  0
 45 72  1  0  0  0  0
 46 70  1  0  0  0  0
 48 64  1  0  0  0  0
 49 65  1  0  0  0  0
 50 65  1  0  0  0  0
 51 65  1  0  0  0  0
 52 66  1  0  0  0  0
 53 66  1  0  0  0  0
 54 78  1  0  0  0  0
 55 79  1  0  0  0  0
 56 57  1  0  0  0  0
 57 61  1  0  0  0  0
 58 59  1  0  0  0  0
 58 62  1  0  0  0  0
 59 66  1  0  0  0  0
 60 66  1  0  0  0  0
 60 71  1  0  0  0  0
 61 78  1  0  0  0  0
 62 86  1  0  0  0  0
 63 65  1  0  0  0  0
 63 77  1  0  0  0  0
 64 79  1  0  0  0  0
 67 70  1  0  0  0  0
 68 69  1  0  0  0  0
M  CHG  1  79   1
M  ISO  4  34 100  62 101  78 100  86 101
M  END
> <Batch ID>
0076

> <Smiles>
CNC(C)C(=O)NC(C(=O)N1Cc2cc([101O:1][101CH2:1]CCC(C)(C)Cn3c(C)nnc3CCC[100N:0](C)[100C:0](=O)N3CCCC(n4nc(-c5ccc(Oc6ccc(F)cc6F)cc5)c(C(N)=O)c4N)C3)ccc2CC1C(=O)NC1CCCc2ccccc21)C(C)(C)C

> <Shape>
0.247

> <Color>
0.045

> <Negative vol penalty>
0.000

$$$$

  -OEChem-04052318343D

 88 96  0     1  0  0  0  0  0999 V2000
  -16.5825  -29.2082   23.8217 C   0  0  0  0  0  0  0  0  0  0  0  0
  -17.1551  -28.5052   22.7665 C   0  0  0  0  0  0  0  0  0  0  0  0
  -26.3783  -12.5132   21.5377 C   0  0  0  0  0  0  0  0  0  0  0  0
  -25.9799  -13.1830   19.2509 C   0  0  0  0  0  0  0  0  0  0  0  0
  -17.2325  -30.3233   24.3490 C   0  0  0  0  0  0  0  0  0  0  0  0
  -18.3775  -28.9177   22.2372 C   0  0  0  0  0  0  0  0  0  0  0  0
  -22.8149  -25.3397   19.9981 C   0  0  0  0  0  0  0  0  0  0  0  0
  -25.1835  -11.7935   21.5351 C   0  0  0  0  0  0  0  0  0  0  0  0
  -24.7851  -12.4632   19.2482 C   0  0  0  0  0  0  0  0  0  0  0  0
  -23.1585  -24.9745   18.6972 C   0  0  0  0  0  0  0  0  0  0  0  0
  -24.0721   -8.8151   20.3831 C   0  0  0  0  0  0  0  0  0  0  0  0
  -24.0883   -7.5299   20.9249 C   0  0  0  0  0  0  0  0  0  0  0  0
  -24.8033  -26.7383   18.6431 C   0  0  0  0  0  0  0  0  0  0  0  0
  -22.4333   -8.1959   22.5542 C   0  0  0  0  0  0  0  0  0  0  0  0
  -29.9999  -18.0189   16.7140 C   0  0  0  0  0  0  0  0  0  0  0  0
  -26.7765  -13.2080   20.3956 C   0  0  0  0  0  0  0  0  0  0  0  0
  -29.2873  -13.4818   20.0375 C   0  0  0  0  0  0  0  0  0  0  0  0
  -18.4681  -30.7439   23.8323 C   0  0  0  0  0  0  0  0  0  0  0  0
  -23.4564  -26.4157   20.6284 C   0  0  0  0  0  0  0  0  0  0  0  0
  -19.0439  -30.0403   22.7572 C   0  0  0  0  0  0  0  0  0  0  0  0
  -24.4678  -27.1135   19.9529 C   0  0  0  0  0  0  0  0  0  0  0  0
  -24.3869  -11.7685   20.3904 C   0  0  0  0  0  0  0  0  0  0  0  0
  -24.1509  -25.6757   18.0184 C   0  0  0  0  0  0  0  0  0  0  0  0
  -23.2366   -9.7908   20.9269 C   0  0  0  0  0  0  0  0  0  0  0  0
  -23.2689   -7.2203   22.0104 C   0  0  0  0  0  0  0  0  0  0  0  0
  -22.4172   -9.4812   22.0124 C   0  0  0  0  0  0  0  0  0  0  0  0
  -28.0103  -13.9521   20.3979 C   0  0  0  0  0  0  0  0  0  0  0  0
  -28.6911  -18.1468   16.2116 C   0  0  0  0  0  0  0  0  0  0  0  0
  -30.2407  -19.2109   17.3525 C   0  0  0  0  0  0  0  0  0  0  0  0
  -30.1136  -14.5654   20.2100 C   0  0  0  0  0  0  0  0  0  0  0  0
  -29.6906  -12.1818   19.5869 C   0  0  0  0  0  0  0  0  0  0  0  0
  -22.5143  -29.2209   21.7890 C   0  0  0  0  0  0  0  0  0  0  0  0
  -25.5860  -29.3865   22.8185 C   0  0  0  0  0  0  0  0  0  0  0  0
  -31.1130  -20.0252   19.5168 C   0  0  0  0  0  0  0  0  0  0  0  0
  -28.8253  -28.3797   22.4442 C   0  0  0  0  0  0  0  0  0  0  0  0
  -19.1100  -31.9832   24.4039 C   0  0  0  0  0  0  0  0  0  0  0  0
  -23.0927  -26.7801   22.0417 C   0  0  0  0  0  0  0  0  0  0  0  0
  -25.2009  -28.2633   20.5924 C   0  0  0  0  0  0  0  0  0  0  0  0
  -20.5833  -32.1323   24.0333 C   0  0  0  0  0  0  0  0  0  0  0  0
  -29.2892  -19.0242   22.4342 C   0  0  0  0  0  0  0  0  0  0  0  0
  -20.7882  -31.8727   22.5442 C   0  0  0  0  0  0  0  0  0  0  0  0
  -28.8731  -17.5873   22.1220 C   0  0  0  0  0  0  0  0  0  0  0  0
  -29.2874  -19.8913   21.1792 C   0  0  0  0  0  0  0  0  0  0  0  0
  -29.7124  -17.9148   19.7528 C   0  0  0  0  0  0  0  0  0  0  0  0
  -20.3806  -30.4419   22.1724 C   0  0  1  0  0  0  0  0  0  0  0  0
  -23.4529  -28.2187   22.3993 C   0  0  1  0  0  0  0  0  0  0  0  0
  -29.7306  -16.9975   20.9883 C   0  0  2  0  0  0  0  0  0  0  0  0
  -27.9267  -17.1554   15.4362 C   0  0  0  0  0  0  0  0  0  0  0  0
  -31.1167  -28.7153   23.4108 C   0  0  0  0  0  0  0  0  0  0  0  0
  -29.8464  -24.2584   18.1041 C   0  0  0  0  0  0  0  0  0  0  0  0
  -27.8170  -25.7422   13.7741 C   0  0  0  0  0  0  0  0  0  0  0  0
  -31.9974  -20.9995   17.4375 C   0  0  0  0  0  0  0  0  0  0  0  0
  -32.6324  -18.7073   18.1967 C   0  0  0  0  0  0  0  0  0  0  0  0
  -25.7774  -32.0914   21.4196 C   0  0  0  0  0  0  0  0  0  0  0  0
  -28.2695  -31.9268   21.5937 C   0  0  0  0  0  0  0  0  0  0  0  0
  -26.8784  -31.9970   23.6631 C   0  0  0  0  0  0  0  0  0  0  0  0
  -29.0571  -25.5241   23.1863 C   0  0  0  0  0  0  0  0  0  0  0  0
  -28.9759  -22.3920   16.6061 C   0  0  0  0  0  0  0  0  0  0  0  0
  -26.2713  -24.4909   15.3460 C   0  0  0  0  0  0  0  0  0  0  0  0
  -28.7742  -24.8488   15.9200 C   0  0  0  0  0  0  0  0  0  0  0  0
  -28.8557  -21.3452   17.7202 C   0  0  0  0  0  0  0  0  0  0  0  0
  -25.8360  -25.5592   16.3444 C   0  0  0  0  0  0  0  0  0  1  0  0
  -26.8804  -29.9064   22.2413 C   0  0  1  0  0  0  0  0  0  0  0  0
  -29.8471  -27.8790   23.4491 C   0  0  2  0  0  0  0  0  0  0  0  0
  -28.7698  -23.8412   17.0937 C   0  0  2  0  0  0  0  0  0  0  0  0
  -27.7126  -24.6264   14.8213 C   0  0  2  0  0  0  0  0  0  0  0  0
  -31.4277  -19.6980   18.0788 C   0  0  0  0  0  0  0  0  0  0  0  0
  -26.9365  -31.4600   22.2164 C   0  0  0  0  0  0  0  0  0  0  0  0
  -28.0196  -15.2345   20.7713 N   0  0  0  0  0  0  0  0  0  0  0  0
  -28.1389  -19.3269   16.5058 N   0  0  0  0  0  0  0  0  0  0  0  0
  -29.1055  -19.9513   17.2000 N   0  0  0  0  0  0  0  0  0  0  0  0
  -29.3125  -15.5792   20.6466 N   0  0  0  0  0  0  0  0  0  0  0  0
  -24.8050  -28.5855   21.9733 N   0  0  0  0  0  0  0  0  0  0  0  0
  -30.0946  -19.2858   20.1185 N   0  0  0  0  0  0  0  0  0  0  0  0
  -31.4399  -14.7403   20.0294 N   0  0  0  0  0  0  0  0  0  0  0  0
  -28.7139  -11.1840   19.4656 N   0  0  0  0  0  0  0  0  0  0  0  0
  -21.4092  -29.5042   22.5687 N   0  0  0  0  0  0  0  0  0  0  0  0
  -27.9507  -29.2821   23.0116 N   0  0  0  0  0  0  0  0  0  0  0  0
  -30.2083  -26.4627   23.1586 N   0  3  0  0  0  0  0  0  0  0  0  0
  -30.8845  -11.9084   19.3161 O   0  0  0  0  0  0  0  0  0  0  0  0
  -22.7743  -29.7026   20.6926 O   0  0  0  0  0  0  0  0  0  0  0  0
  -25.2825  -29.6744   23.9789 O   0  0  0  0  0  0  0  0  0  0  0  0
  -31.7563  -20.9099   20.0875 O   0  0  0  0  0  0  0  0  0  0  0  0
  -28.8074  -28.0103   21.2721 O   0  0  0  0  0  0  0  0  0  0  0  0
  -23.2210  -11.0661   20.3874 O   0  0  0  0  0  0  0  0  0  0  0  0
  -24.4900  -25.3194   16.7401 O   0  0  0  0  0  0  0  0  0  1  0  0
  -23.2835   -5.9856   22.5296 F   0  0  0  0  0  0  0  0  0  0  0  0
  -21.6115  -10.4139   22.5384 F   0  0  0  0  0  0  0  0  0  0  0  0
  1  2  1  0  0  0  0
  1  5  2  0  0  0  0
  2  6  2  0  0  0  0
  3  8  2  0  0  0  0
  3 16  1  0  0  0  0
  4  9  1  0  0  0  0
  4 16  2  0  0  0  0
  5 18  1  0  0  0  0
  6 20  1  0  0  0  0
  7 10  2  0  0  0  0
  7 19  1  0  0  0  0
  8 22  1  0  0  0  0
  9 22  2  0  0  0  0
 10 23  1  0  0  0  0
 11 12  2  0  0  0  0
 11 24  1  0  0  0  0
 12 25  1  0  0  0  0
 13 21  1  0  0  0  0
 13 23  2  0  0  0  0
 14 25  2  0  0  0  0
 14 26  1  0  0  0  0
 15 28  1  0  0  0  0
 15 29  2  0  0  0  0
 16 27  1  0  0  0  0
 17 27  1  0  0  0  0
 17 30  2  0  0  0  0
 17 31  1  0  0  0  0
 18 20  2  0  0  0  0
 18 36  1  0  0  0  0
 19 21  2  0  0  0  0
 19 37  1  0  0  0  0
 20 45  1  0  0  0  0
 21 38  1  0  0  0  0
 22 85  1  0  0  0  0
 23 86  1  0  0  0  0
 24 26  2  0  0  0  0
 24 85  1  0  0  0  0
 25 87  1  0  0  0  0
 26 88  1  0  0  0  0
 27 69  2  0  0  0  0
 28 48  1  0  0  0  0
 28 70  2  0  0  0  0
 29 67  1  0  0  0  0
 29 71  1  0  0  0  0
 30 72  1  0  0  0  0
 30 75  1  0  0  0  0
 31 76  1  0  0  0  0
 31 80  2  0  0  0  0
 32 46  1  0  0  0  0
 32 77  1  0  0  0  0
 32 81  2  0  0  0  0
 33 63  1  0  0  0  0
 33 73  1  0  0  0  0
 33 82  2  0  0  0  0
 34 67  1  0  0  0  0
 34 74  1  0  0  0  0
 34 83  2  0  0  0  0
 35 64  1  0  0  0  0
 35 78  1  0  0  0  0
 35 84  2  0  0  0  0
 36 39  1  0  0  0  0
 37 46  1  0  0  0  0
 38 73  1  0  0  0  0
 39 41  1  0  0  0  0
 40 42  1  0  0  0  0
 40 43  1  0  0  0  0
 41 45  1  0  0  0  0
 42 47  1  0  0  0  0
 43 74  1  0  0  0  0
 44 47  1  0  0  0  0
 44 74  1  0  0  0  0
 45 77  1  0  0  0  0
 46 73  1  0  0  0  0
 47 72  1  0  0  0  0
 49 64  1  0  0  0  0
 50 65  1  0  0  0  0
 51 66  1  0  0  0  0
 52 67  1  0  0  0  0
 53 67  1  0  0  0  0
 54 68  1  0  0  0  0
 55 68  1  0  0  0  0
 56 68  1  0  0  0  0
 57 79  1  0  0  0  0
 58 61  1  0  0  0  0
 58 65  1  0  0  0  0
 59 62  1  0  0  0  0
 59 66  1  0  0  0  0
 60 65  1  0  0  0  0
 60 66  1  0  0  0  0
 61 71  1  0  0  0  0
 62 86  1  0  0  0  0
 63 68  1  0  0  0  0
 63 78  1  0  0  0  0
 64 79  1  0  0  0  0
 69 72  1  0  0  0  0
 70 71  1  0  0  0  0
M  CHG  1  79   1
M  ISO  4  34 100  62 101  67 100  86 101
M  END
> <Batch ID>
0076

> <Smiles>
CNC(C)C(=O)NC(C(=O)N1Cc2cc([101O:1][101CH2:1]CC(C)CC(C)CCn3nc(C)cc3[100C:0](C)(C)[100C:0](=O)N3CCCC(n4nc(-c5ccc(Oc6ccc(F)cc6F)cc5)c(C(N)=O)c4N)C3)ccc2CC1C(=O)NC1CCCc2ccccc21)C(C)(C)C

> <Shape>
0.281

> <Color>
0.078

> <Negative vol penalty>
0.000

$$$$

  -OEChem-04052318343D

 87 95  0     1  0  0  0  0  0999 V2000
  -16.6571  -30.0408   23.4337 C   0  0  0  0  0  0  0  0  0  0  0  0
  -17.7945  -30.7700   23.1023 C   0  0  0  0  0  0  0  0  0  0  0  0
  -29.2152  -17.5897   18.6356 C   0  0  0  0  0  0  0  0  0  0  0  0
  -27.0232  -18.1279   19.4975 C   0  0  0  0  0  0  0  0  0  0  0  0
  -16.7598  -28.6779   23.7089 C   0  0  0  0  0  0  0  0  0  0  0  0
  -19.0357  -30.1369   23.0471 C   0  0  0  0  0  0  0  0  0  0  0  0
  -25.2638  -30.3586   19.5147 C   0  0  0  0  0  0  0  0  0  0  0  0
  -28.8222  -16.2623   18.4650 C   0  0  0  0  0  0  0  0  0  0  0  0
  -26.6302  -16.8005   19.3269 C   0  0  0  0  0  0  0  0  0  0  0  0
  -26.6355  -30.4301   19.7535 C   0  0  0  0  0  0  0  0  0  0  0  0
  -28.5082  -12.6541   18.1392 C   0  0  0  0  0  0  0  0  0  0  0  0
  -29.3897  -11.6566   18.5556 C   0  0  0  0  0  0  0  0  0  0  0  0
  -26.6806  -28.0546   20.1711 C   0  0  0  0  0  0  0  0  0  0  0  0
  -29.0100  -27.2044   25.9941 C   0  0  0  0  0  0  0  0  0  0  0  0
  -29.2979  -12.5170   20.8113 C   0  0  0  0  0  0  0  0  0  0  0  0
  -28.9740  -26.5705   23.8339 C   0  0  0  0  0  0  0  0  0  0  0  0
  -28.3157  -18.5225   19.1519 C   0  0  0  0  0  0  0  0  0  0  0  0
  -28.6104  -20.9405   18.3941 C   0  0  0  0  0  0  0  0  0  0  0  0
  -18.0014  -28.0257   23.6476 C   0  0  0  0  0  0  0  0  0  0  0  0
  -24.5871  -29.1343   19.6132 C   0  0  0  0  0  0  0  0  0  0  0  0
  -19.1554  -28.7642   23.3231 C   0  0  0  0  0  0  0  0  0  0  0  0
  -25.3007  -27.9698   19.9305 C   0  0  0  0  0  0  0  0  0  0  0  0
  -28.3285  -26.4093   25.0399 C   0  0  0  0  0  0  0  0  0  0  0  0
  -27.5297  -15.8677   18.8106 C   0  0  0  0  0  0  0  0  0  0  0  0
  -27.3436  -29.2785   20.0846 C   0  0  0  0  0  0  0  0  0  0  0  0
  -28.0215  -13.5832   19.0589 C   0  0  0  0  0  0  0  0  0  0  0  0
  -29.7845  -11.5880   19.8916 C   0  0  0  0  0  0  0  0  0  0  0  0
  -28.4164  -13.5146   20.3949 C   0  0  0  0  0  0  0  0  0  0  0  0
  -28.7212  -19.8938   19.3289 C   0  0  0  0  0  0  0  0  0  0  0  0
  -30.0512  -27.8274   25.3421 C   0  0  0  0  0  0  0  0  0  0  0  0
  -29.1322  -22.0345   19.0401 C   0  0  0  0  0  0  0  0  0  0  0  0
  -28.0829  -20.9252   17.0609 C   0  0  0  0  0  0  0  0  0  0  0  0
  -22.2440  -28.0072   21.4416 C   0  0  0  0  0  0  0  0  0  0  0  0
  -22.4698  -25.4390   19.4729 C   0  0  0  0  0  0  0  0  0  0  0  0
  -24.3745  -23.5936   17.3250 C   0  0  0  0  0  0  0  0  0  0  0  0
  -29.7177  -23.4573   24.8266 C   0  0  0  0  0  0  0  0  0  0  0  0
  -18.0700  -26.5607   23.9996 C   0  0  0  0  0  0  0  0  0  0  0  0
  -23.1120  -29.0694   19.3263 C   0  0  0  0  0  0  0  0  0  0  0  0
  -24.6247  -26.6275   20.0291 C   0  0  0  0  0  0  0  0  0  0  0  0
  -19.3651  -25.8871   23.5532 C   0  0  0  0  0  0  0  0  0  0  0  0
  -32.3171  -23.2300   22.4043 C   0  0  0  0  0  0  0  0  0  0  0  0
  -20.5696  -26.7445   23.9284 C   0  0  0  0  0  0  0  0  0  0  0  0
  -31.6803  -22.4436   21.2571 C   0  0  0  0  0  0  0  0  0  0  0  0
  -31.8353  -22.7324   23.7653 C   0  0  0  0  0  0  0  0  0  0  0  0
  -29.7331  -21.9062   22.7796 C   0  0  0  0  0  0  0  0  0  0  0  0
  -20.5157  -28.1079   23.2287 C   0  0  1  0  0  0  0  0  0  0  0  0
  -22.4331  -27.8582   19.9585 C   0  0  1  0  0  0  0  0  0  0  0  0
  -30.1455  -22.4085   21.3854 C   0  0  2  0  0  0  0  0  0  0  0  0
  -31.0711  -28.7621   25.8611 C   0  0  0  0  0  0  0  0  0  0  0  0
  -32.1267  -28.2533   20.0509 C   0  0  0  0  0  0  0  0  0  0  0  0
  -24.2980  -21.5282   15.9017 C   0  0  0  0  0  0  0  0  0  0  0  0
  -26.1602  -25.3776   24.0753 C   0  0  0  0  0  0  0  0  0  0  0  0
  -26.2475  -26.1758   26.4229 C   0  0  0  0  0  0  0  0  0  0  0  0
  -22.7800  -23.7108   21.9683 C   0  0  0  0  0  0  0  0  0  0  0  0
  -23.6343  -21.8698   20.5022 C   0  0  0  0  0  0  0  0  0  0  0  0
  -21.3130  -22.7303   20.1960 C   0  0  0  0  0  0  0  0  0  0  0  0
  -30.0671  -30.2487   22.7125 C   0  0  0  0  0  0  0  0  0  0  0  0
  -24.8396  -25.1436   14.8471 C   0  0  0  0  0  0  0  0  0  0  0  0
  -31.5737  -29.3810   20.9146 C   0  0  0  0  0  0  0  0  0  0  0  0
  -30.9811  -27.8762   22.9493 C   0  0  0  0  0  0  0  0  0  0  0  0
  -27.5160  -24.1073   25.7696 C   0  0  0  0  0  0  0  0  0  0  0  0
  -29.2289  -28.4020   21.2393 C   0  0  0  0  0  0  0  0  0  1  0  0
  -23.2698  -24.1588   19.4732 C   0  0  1  0  0  0  0  0  0  0  0  0
  -24.0802  -23.0327   15.9454 C   0  0  2  0  0  0  0  0  0  0  0  0
  -27.1457  -25.5638   25.2905 C   0  0  0  0  0  0  0  0  0  0  0  0
  -22.7620  -23.1429   20.5350 C   0  0  0  0  0  0  0  0  0  0  0  0
  -30.4870  -28.9698   21.9502 C   0  0  1  0  0  0  0  0  0  0  0  0
  -29.2704  -20.2875   20.4811 N   0  0  0  0  0  0  0  0  0  0  0  0
  -30.0194  -27.4349   24.0294 N   0  0  0  0  0  0  0  0  0  0  0  0
  -29.5094  -21.5937   20.2744 N   0  0  0  0  0  0  0  0  0  0  0  0
  -23.1800  -26.6167   19.7459 N   0  0  0  0  0  0  0  0  0  0  0  0
  -30.3716  -22.7250   23.8220 N   0  0  0  0  0  0  0  0  0  0  0  0
  -29.3005  -23.3209   18.6670 N   0  0  0  0  0  0  0  0  0  0  0  0
  -27.5871  -19.7170   16.5524 N   0  0  0  0  0  0  0  0  0  0  0  0
  -20.9228  -27.9826   21.8456 N   0  0  0  0  0  0  0  0  0  0  0  0
  -23.2382  -23.6574   18.1035 N   0  0  0  0  0  0  0  0  0  0  0  0
  -28.3294  -23.4015   24.8048 N   0  0  0  0  0  0  0  0  0  0  0  0
  -24.9672  -23.6657   14.9289 N   0  3  0  0  0  0  0  0  0  0  0  0
  -28.0672  -21.9489   16.3361 O   0  0  0  0  0  0  0  0  0  0  0  0
  -23.2243  -28.1335   22.1660 O   0  0  0  0  0  0  0  0  0  0  0  0
  -21.2608  -25.3965   19.2320 O   0  0  0  0  0  0  0  0  0  0  0  0
  -25.5005  -23.9370   17.6781 O   0  0  0  0  0  0  0  0  0  0  0  0
  -30.3258  -24.1165   25.6766 O   0  0  0  0  0  0  0  0  0  0  0  0
  -27.1458  -14.5725   18.6441 O   0  0  0  0  0  0  0  0  0  0  0  0
  -28.6825  -29.3457   20.3188 O   0  0  0  0  0  0  0  0  0  1  0  0
  -30.6299  -10.6291   20.2917 F   0  0  0  0  0  0  0  0  0  0  0  0
  -27.9513  -14.4036   21.2833 F   0  0  0  0  0  0  0  0  0  0  0  0
  1  2  1  0  0  0  0
  1  5  2  0  0  0  0
  2  6  2  0  0  0  0
  3  8  2  0  0  0  0
  3 17  1  0  0  0  0
  4  9  1  0  0  0  0
  4 17  2  0  0  0  0
  5 19  1  0  0  0  0
  6 21  1  0  0  0  0
  7 10  2  0  0  0  0
  7 20  1  0  0  0  0
  8 24  1  0  0  0  0
  9 24  2  0  0  0  0
 10 25  1  0  0  0  0
 11 12  2  0  0  0  0
 11 26  1  0  0  0  0
 12 27  1  0  0  0  0
 13 22  1  0  0  0  0
 13 25  2  0  0  0  0
 14 23  1  0  0  0  0
 14 30  2  0  0  0  0
 15 27  2  0  0  0  0
 15 28  1  0  0  0  0
 16 23  2  0  0  0  0
 16 69  1  0  0  0  0
 17 29  1  0  0  0  0
 18 29  1  0  0  0  0
 18 31  2  0  0  0  0
 18 32  1  0  0  0  0
 19 21  2  0  0  0  0
 19 37  1  0  0  0  0
 20 22  2  0  0  0  0
 20 38  1  0  0  0  0
 21 46  1  0  0  0  0
 22 39  1  0  0  0  0
 23 65  1  0  0  0  0
 24 84  1  0  0  0  0
 25 85  1  0  0  0  0
 26 28  2  0  0  0  0
 26 84  1  0  0  0  0
 27 86  1  0  0  0  0
 28 87  1  0  0  0  0
 29 68  2  0  0  0  0
 30 49  1  0  0  0  0
 30 69  1  0  0  0  0
 31 70  1  0  0  0  0
 31 73  1  0  0  0  0
 32 74  1  0  0  0  0
 32 79  2  0  0  0  0
 33 47  1  0  0  0  0
 33 75  1  0  0  0  0
 33 80  2  0  0  0  0
 34 63  1  0  0  0  0
 34 71  1  0  0  0  0
 34 81  2  0  0  0  0
 35 64  1  0  0  0  0
 35 76  1  0  0  0  0
 35 82  2  0  0  0  0
 36 72  1  0  0  0  0
 36 77  1  0  0  0  0
 36 83  2  0  0  0  0
 37 40  1  0  0  0  0
 38 47  1  0  0  0  0
 39 71  1  0  0  0  0
 40 42  1  0  0  0  0
 41 43  1  0  0  0  0
 41 44  1  0  0  0  0
 42 46  1  0  0  0  0
 43 48  1  0  0  0  0
 44 72  1  0  0  0  0
 45 48  1  0  0  0  0
 45 72  1  0  0  0  0
 46 75  1  0  0  0  0
 47 71  1  0  0  0  0
 48 70  1  0  0  0  0
 50 59  1  0  0  0  0
 51 64  1  0  0  0  0
 52 65  1  0  0  0  0
 53 65  1  0  0  0  0
 54 66  1  0  0  0  0
 55 66  1  0  0  0  0
 56 66  1  0  0  0  0
 57 67  1  0  0  0  0
 58 78  1  0  0  0  0
 59 67  1  0  0  0  0
 60 67  1  0  0  0  0
 60 69  1  0  0  0  0
 61 65  1  0  0  0  0
 61 77  1  0  0  0  0
 62 67  1  0  0  0  0
 62 85  1  0  0  0  0
 63 66  1  0  0  0  0
 63 76  1  0  0  0  0
 64 78  1  0  0  0  0
 68 70  1  0  0  0  0
M  CHG  1  78   1
M  ISO  4  36 100  62 101  77 100  85 101
M  END
> <Batch ID>
0076

> <Smiles>
CCC(C)(Cn1cc(C(C)(C)C[100NH:0][100C:0](=O)N2CCCC(n3nc(-c4ccc(Oc5ccc(F)cc5F)cc4)c(C(N)=O)c3N)C2)cc1C)[101CH2:1][101O:1]c1ccc2c(c1)CN(C(=O)C(NC(=O)C(C)NC)C(C)(C)C)C(C(=O)NC1CCCc3ccccc31)C2

> <Shape>
0.212

> <Color>
0.084

> <Negative vol penalty>
0.000

$$$$

  -OEChem-04052318343D

 83 91  0     1  0  0  0  0  0999 V2000
  -29.1638  -23.5735   18.6401 C   0  0  0  0  0  0  0  0  0  0  0  0
  -27.8783  -23.8681   19.0828 C   0  0  0  0  0  0  0  0  0  0  0  0
  -28.0594  -14.9012   21.1592 C   0  0  0  0  0  0  0  0  0  0  0  0
  -26.0963  -15.5482   19.9083 C   0  0  0  0  0  0  0  0  0  0  0  0
  -30.2655  -24.1587   19.2627 C   0  0  0  0  0  0  0  0  0  0  0  0
  -27.6937  -24.7474   20.1491 C   0  0  0  0  0  0  0  0  0  0  0  0
  -23.9987  -28.1008   19.2849 C   0  0  0  0  0  0  0  0  0  0  0  0
  -27.5789  -13.5941   21.2373 C   0  0  0  0  0  0  0  0  0  0  0  0
  -25.6158  -14.2410   19.9864 C   0  0  0  0  0  0  0  0  0  0  0  0
  -22.6863  -27.6549   19.4348 C   0  0  0  0  0  0  0  0  0  0  0  0
  -24.0669  -12.2884   22.2710 C   0  0  0  0  0  0  0  0  0  0  0  0
  -22.7238  -12.1104   22.6023 C   0  0  0  0  0  0  0  0  0  0  0  0
  -20.2131  -22.8707   24.2265 C   0  0  0  0  0  0  0  0  0  0  0  0
  -22.5959  -28.6746   21.6192 C   0  0  0  0  0  0  0  0  0  0  0  0
  -22.3550  -10.9789   20.4998 C   0  0  0  0  0  0  0  0  0  0  0  0
  -21.0096  -21.8537   23.7410 C   0  0  0  0  0  0  0  0  0  0  0  0
  -27.3181  -15.8783   20.4947 C   0  0  0  0  0  0  0  0  0  0  0  0
  -28.6340  -17.7748   19.4088 C   0  0  0  0  0  0  0  0  0  0  0  0
  -30.0939  -25.0532   20.3310 C   0  0  0  0  0  0  0  0  0  0  0  0
  -24.6243  -28.8288   20.3071 C   0  0  0  0  0  0  0  0  0  0  0  0
  -28.7942  -25.3442   20.7875 C   0  0  0  0  0  0  0  0  0  0  0  0
  -23.9154  -29.1308   21.4786 C   0  0  0  0  0  0  0  0  0  0  0  0
  -26.3572  -13.2640   20.6509 C   0  0  0  0  0  0  0  0  0  0  0  0
  -21.9857  -27.9392   20.6033 C   0  0  0  0  0  0  0  0  0  0  0  0
  -24.5542  -11.8117   21.0539 C   0  0  0  0  0  0  0  0  0  0  0  0
  -21.8678  -11.4556   21.7168 C   0  0  0  0  0  0  0  0  0  0  0  0
  -23.6982  -11.1569   20.1684 C   0  0  0  0  0  0  0  0  0  0  0  0
  -27.8137  -17.2289   20.4142 C   0  0  0  0  0  0  0  0  0  0  0  0
  -20.6166  -24.1505   23.9046 C   0  0  0  0  0  0  0  0  0  0  0  0
  -28.8207  -19.0812   19.7898 C   0  0  0  0  0  0  0  0  0  0  0  0
  -22.4048  -23.3508   22.7514 C   0  0  0  0  0  0  0  0  0  0  0  0
  -29.1784  -17.1565   18.2354 C   0  0  0  0  0  0  0  0  0  0  0  0
  -27.1696  -28.3682   22.1545 C   0  0  0  0  0  0  0  0  0  0  0  0
  -26.5176  -31.3898   23.1382 C   0  0  0  0  0  0  0  0  0  0  0  0
  -24.2151  -33.8803   23.5158 C   0  0  0  0  0  0  0  0  0  0  0  0
  -25.6200  -22.8365   23.1816 C   0  0  0  0  0  0  0  0  0  0  0  0
  -31.3173  -25.6244   21.0031 C   0  0  0  0  0  0  0  0  0  0  0  0
  -26.0315  -29.3256   20.1188 C   0  0  0  0  0  0  0  0  0  0  0  0
  -24.5348  -29.9264   22.5975 C   0  0  0  0  0  0  0  0  0  0  0  0
  -31.0191  -26.8354   21.8834 C   0  0  0  0  0  0  0  0  0  0  0  0
  -29.0060  -21.8563   23.6827 C   0  0  0  0  0  0  0  0  0  0  0  0
  -29.8070  -26.5659   22.7693 C   0  0  0  0  0  0  0  0  0  0  0  0
  -29.1584  -20.6085   22.8112 C   0  0  0  0  0  0  0  0  0  0  0  0
  -27.6224  -21.9308   24.3247 C   0  0  0  0  0  0  0  0  0  0  0  0
  -26.6472  -20.5809   22.5079 C   0  0  0  0  0  0  0  0  0  0  0  0
  -28.5521  -26.3123   21.9252 C   0  0  1  0  0  0  0  0  0  0  0  0
  -26.7435  -29.6173   21.4362 C   0  0  1  0  0  0  0  0  0  0  0  0
  -28.0070  -20.4906   21.7944 C   0  0  2  0  0  0  0  0  0  0  0  0
  -23.3267  -23.6851   20.4276 C   0  0  0  0  0  0  0  0  0  0  0  0
  -23.9705  -36.2217   24.3851 C   0  0  0  0  0  0  0  0  0  0  0  0
  -26.5218  -30.3259   25.9979 C   0  0  0  0  0  0  0  0  0  0  0  0
  -25.3627  -32.4284   26.7078 C   0  0  0  0  0  0  0  0  0  0  0  0
  -27.6451  -32.5413   25.7074 C   0  0  0  0  0  0  0  0  0  0  0  0
  -23.4405  -34.9122   20.8523 C   0  0  0  0  0  0  0  0  0  0  0  0
  -19.8100  -25.3281   24.3907 C   0  0  0  0  0  0  0  0  0  0  0  0
  -18.7039  -25.7629   23.4228 C   0  0  0  0  0  0  0  0  0  0  0  0
  -19.2295  -26.1063   22.0283 C   0  0  0  0  0  0  0  0  0  0  0  0
  -20.2658  -27.2208   22.0803 C   0  0  0  0  0  0  0  0  0  1  0  0
  -23.6224  -23.6175   21.9331 C   0  0  2  0  0  0  0  0  0  0  0  0
  -25.6684  -31.9998   24.2271 C   0  0  1  0  0  0  0  0  0  0  0  0
  -24.2628  -35.3573   23.1684 C   0  0  2  0  0  0  0  0  0  0  0  0
  -26.2882  -31.8072   25.6399 C   0  0  0  0  0  0  0  0  0  0  0  0
  -22.1167  -22.0586   22.9975 N   0  0  0  0  0  0  0  0  0  0  0  0
  -27.5010  -18.1158   21.3627 N   0  0  0  0  0  0  0  0  0  0  0  0
  -21.7113  -24.4280   23.1664 N   0  0  0  0  0  0  0  0  0  0  0  0
  -28.1281  -19.2322   20.9550 N   0  0  0  0  0  0  0  0  0  0  0  0
  -25.9151  -30.3845   22.3686 N   0  0  0  0  0  0  0  0  0  0  0  0
  -26.5756  -21.8146   23.3066 N   0  0  0  0  0  0  0  0  0  0  0  0
  -29.5081  -20.1038   19.2384 N   0  0  0  0  0  0  0  0  0  0  0  0
  -28.8875  -15.8066   17.9953 N   0  0  0  0  0  0  0  0  0  0  0  0
  -28.0199  -27.5610   21.4232 N   0  0  0  0  0  0  0  0  0  0  0  0
  -25.4612  -33.3939   23.8504 N   0  0  0  0  0  0  0  0  0  0  0  0
  -24.6670  -22.6506   22.1877 N   0  0  0  0  0  0  0  0  0  0  0  0
  -23.2580  -35.6742   22.1144 N   0  3  0  0  0  0  0  0  0  0  0  0
  -29.9150  -17.7780   17.4324 O   0  0  0  0  0  0  0  0  0  0  0  0
  -26.7588  -28.1536   23.2889 O   0  0  0  0  0  0  0  0  0  0  0  0
  -27.6706  -31.7954   22.9717 O   0  0  0  0  0  0  0  0  0  0  0  0
  -23.1758  -33.2246   23.4961 O   0  0  0  0  0  0  0  0  0  0  0  0
  -25.6197  -23.8428   23.8988 O   0  0  0  0  0  0  0  0  0  0  0  0
  -25.8881  -11.9885   20.7267 O   0  0  0  0  0  0  0  0  0  0  0  0
  -20.7048  -27.5046   20.7525 O   0  0  0  0  0  0  0  0  0  1  0  0
  -20.5784  -11.2834   22.0358 F   0  0  0  0  0  0  0  0  0  0  0  0
  -24.1607  -10.6957   18.9983 F   0  0  0  0  0  0  0  0  0  0  0  0
  1  2  1  0  0  0  0
  1  5  2  0  0  0  0
  2  6  2  0  0  0  0
  3  8  2  0  0  0  0
  3 17  1  0  0  0  0
  4  9  1  0  0  0  0
  4 17  2  0  0  0  0
  5 19  1  0  0  0  0
  6 21  1  0  0  0  0
  7 10  2  0  0  0  0
  7 20  1  0  0  0  0
  8 23  1  0  0  0  0
  9 23  2  0  0  0  0
 10 24  1  0  0  0  0
 11 12  2  0  0  0  0
 11 25  1  0  0  0  0
 12 26  1  0  0  0  0
 13 16  2  0  0  0  0
 13 29  1  0  0  0  0
 14 22  1  0  0  0  0
 14 24  2  0  0  0  0
 15 26  2  0  0  0  0
 15 27  1  0  0  0  0
 16 63  1  0  0  0  0
 17 28  1  0  0  0  0
 18 28  1  0  0  0  0
 18 30  2  0  0  0  0
 18 32  1  0  0  0  0
 19 21  2  0  0  0  0
 19 37  1  0  0  0  0
 20 22  2  0  0  0  0
 20 38  1  0  0  0  0
 21 46  1  0  0  0  0
 22 39  1  0  0  0  0
 23 80  1  0  0  0  0
 24 81  1  0  0  0  0
 25 27  2  0  0  0  0
 25 80  1  0  0  0  0
 26 82  1  0  0  0  0
 27 83  1  0  0  0  0
 28 64  2  0  0  0  0
 29 55  1  0  0  0  0
 29 65  2  0  0  0  0
 30 66  1  0  0  0  0
 30 69  1  0  0  0  0
 31 59  1  0  0  0  0
 31 63  2  0  0  0  0
 31 65  1  0  0  0  0
 32 70  1  0  0  0  0
 32 75  2  0  0  0  0
 33 47  1  0  0  0  0
 33 71  1  0  0  0  0
 33 76  2  0  0  0  0
 34 60  1  0  0  0  0
 34 67  1  0  0  0  0
 34 77  2  0  0  0  0
 35 61  1  0  0  0  0
 35 72  1  0  0  0  0
 35 78  2  0  0  0  0
 36 68  1  0  0  0  0
 36 73  1  0  0  0  0
 36 79  2  0  0  0  0
 37 40  1  0  0  0  0
 38 47  1  0  0  0  0
 39 67  1  0  0  0  0
 40 42  1  0  0  0  0
 41 43  1  0  0  0  0
 41 44  1  0  0  0  0
 42 46  1  0  0  0  0
 43 48  1  0  0  0  0
 44 68  1  0  0  0  0
 45 48  1  0  0  0  0
 45 68  1  0  0  0  0
 46 71  1  0  0  0  0
 47 67  1  0  0  0  0
 48 66  1  0  0  0  0
 49 59  1  0  0  0  0
 50 61  1  0  0  0  0
 51 62  1  0  0  0  0
 52 62  1  0  0  0  0
 53 62  1  0  0  0  0
 54 74  1  0  0  0  0
 55 56  1  0  0  0  0
 56 57  1  0  0  0  0
 57 58  1  0  0  0  0
 58 81  1  0  0  0  0
 59 73  1  0  0  0  0
 60 62  1  0  0  0  0
 60 72  1  0  0  0  0
 61 74  1  0  0  0  0
 64 66  1  0  0  0  0
M  CHG  1  74   1
M  ISO  4  36 100  58 101  73 100  81 101
M  END
> <Batch ID>
0076

> <Smiles>
CNC(C)C(=O)NC(C(=O)N1Cc2cc([101O:1][101CH2:1]CCCc3ccnc(C(C)[100NH:0][100C:0](=O)N4CCCC(n5nc(-c6ccc(Oc7ccc(F)cc7F)cc6)c(C(N)=O)c5N)C4)n3)ccc2CC1C(=O)NC1CCCc2ccccc21)C(C)(C)C

> <Shape>
0.288

> <Color>
0.065

> <Negative vol penalty>
0.000

$$$$

  -OEChem-04052318343D

 83 91  0     1  0  0  0  0  0999 V2000
  -22.7909   -7.7724   21.8396 C   0  0  0  0  0  0  0  0  0  0  0  0
  -23.9299   -8.5289   22.0963 C   0  0  0  0  0  0  0  0  0  0  0  0
  -22.8627  -28.1369   23.2921 C   0  0  0  0  0  0  0  0  0  0  0  0
  -22.7092  -26.6433   21.3993 C   0  0  0  0  0  0  0  0  0  0  0  0
  -21.7498   -8.3153   21.0878 C   0  0  0  0  0  0  0  0  0  0  0  0
  -24.0289   -9.8283   21.6002 C   0  0  0  0  0  0  0  0  0  0  0  0
  -26.7991  -16.2303   23.2302 C   0  0  0  0  0  0  0  0  0  0  0  0
  -21.6536  -28.7271   22.9244 C   0  0  0  0  0  0  0  0  0  0  0  0
  -21.5000  -27.2335   21.0316 C   0  0  0  0  0  0  0  0  0  0  0  0
  -27.6083  -17.2248   22.6825 C   0  0  0  0  0  0  0  0  0  0  0  0
  -18.4272  -30.3856   22.6894 C   0  0  0  0  0  0  0  0  0  0  0  0
  -17.4894  -30.6229   23.6942 C   0  0  0  0  0  0  0  0  0  0  0  0
  -25.7136  -18.0864   21.4631 C   0  0  0  0  0  0  0  0  0  0  0  0
  -17.4181  -28.2585   24.1859 C   0  0  0  0  0  0  0  0  0  0  0  0
  -23.3906  -27.0950   22.5295 C   0  0  0  0  0  0  0  0  0  0  0  0
  -24.8225  -25.3822   23.7639 C   0  0  0  0  0  0  0  0  0  0  0  0
  -21.8319   -9.6255   20.5904 C   0  0  0  0  0  0  0  0  0  0  0  0
  -25.4413  -16.1496   22.8895 C   0  0  0  0  0  0  0  0  0  0  0  0
  -22.9884  -10.3888   20.8399 C   0  0  0  0  0  0  0  0  0  0  0  0
  -24.8888  -17.0915   22.0098 C   0  0  0  0  0  0  0  0  0  0  0  0
  -20.9722  -28.2754   21.7942 C   0  0  0  0  0  0  0  0  0  0  0  0
  -27.0662  -18.1513   21.7966 C   0  0  0  0  0  0  0  0  0  0  0  0
  -18.8605  -29.0848   22.4327 C   0  0  0  0  0  0  0  0  0  0  0  0
  -16.9849  -29.5594   24.4425 C   0  0  0  0  0  0  0  0  0  0  0  0
  -18.3559  -28.0212   23.1810 C   0  0  0  0  0  0  0  0  0  0  0  0
  -24.6399  -26.4853   22.9084 C   0  0  0  0  0  0  0  0  0  0  0  0
  -27.9032  -22.1734   19.2201 C   0  0  0  0  0  0  0  0  0  0  0  0
  -30.4705  -21.5512   19.6061 C   0  0  0  0  0  0  0  0  0  0  0  0
  -30.1099  -22.7176   18.9682 C   0  0  0  0  0  0  0  0  0  0  0  0
  -28.2636  -21.0066   19.8574 C   0  0  0  0  0  0  0  0  0  0  0  0
  -26.1830  -25.1965   23.7990 C   0  0  0  0  0  0  0  0  0  0  0  0
  -23.8494  -24.5957   24.4640 C   0  0  0  0  0  0  0  0  0  0  0  0
  -23.6123  -13.9773   21.4613 C   0  0  0  0  0  0  0  0  0  0  0  0
  -21.2268  -16.0197   22.2738 C   0  0  0  0  0  0  0  0  0  0  0  0
  -20.2808  -19.2025   23.0624 C   0  0  0  0  0  0  0  0  0  0  0  0
  -30.5872  -26.5823   19.9867 C   0  0  0  0  0  0  0  0  0  0  0  0
  -20.7012  -10.1524   19.7428 C   0  0  0  0  0  0  0  0  0  0  0  0
  -24.5758  -15.0871   23.5096 C   0  0  0  0  0  0  0  0  0  0  0  0
  -23.4323  -17.0605   21.6274 C   0  0  0  0  0  0  0  0  0  0  0  0
  -20.7247  -11.6690   19.5704 C   0  0  0  0  0  0  0  0  0  0  0  0
  -30.3015  -27.5963   23.3877 C   0  0  0  0  0  0  0  0  0  0  0  0
  -22.1308  -12.1445   19.2189 C   0  0  0  0  0  0  0  0  0  0  0  0
  -28.8346  -27.3270   23.7277 C   0  0  0  0  0  0  0  0  0  0  0  0
  -30.4670  -28.0868   21.9510 C   0  0  0  0  0  0  0  0  0  0  0  0
  -28.3907  -26.9494   21.2662 C   0  0  0  0  0  0  0  0  0  0  0  0
  -23.1224  -11.8108   20.3400 C   0  0  1  0  0  0  0  0  0  0  0  0
  -23.3223  -14.7861   22.6939 C   0  0  1  0  0  0  0  0  0  0  0  0
  -28.1790  -26.3994   22.6871 C   0  0  2  0  0  0  0  0  0  0  0  0
  -26.4727  -22.5292   18.9998 C   0  0  0  0  0  0  0  0  0  0  0  0
  -32.3464  -21.4422   21.2661 C   0  0  0  0  0  0  0  0  0  0  0  0
  -18.2576  -20.5704   23.6393 C   0  0  0  0  0  0  0  0  0  0  0  0
  -20.3792  -15.9978   19.3427 C   0  0  0  0  0  0  0  0  0  0  0  0
  -19.0164  -18.0490   19.7937 C   0  0  0  0  0  0  0  0  0  0  0  0
  -18.4874  -15.9173   20.9763 C   0  0  0  0  0  0  0  0  0  0  0  0
  -21.3814  -19.9246   25.7130 C   0  0  0  0  0  0  0  0  0  0  0  0
  -31.9011  -21.1959   19.8265 C   0  0  0  0  0  0  0  0  0  0  0  0
  -31.1339  -23.6786   18.4683 C   0  0  0  0  0  0  0  0  0  0  0  0
  -27.2328  -20.0387   20.3593 C   0  0  0  0  0  0  0  0  0  1  0  0
  -30.5520  -25.0338   18.0475 C   0  0  0  0  0  0  0  0  0  0  0  0
  -20.5656  -17.2070   21.6163 C   0  0  1  0  0  0  0  0  0  0  0  0
  -19.4146  -19.7472   24.1837 C   0  0  2  0  0  0  0  0  0  0  0  0
  -19.6401  -16.7924   20.4377 C   0  0  0  0  0  0  0  0  0  0  0  0
  -25.7922  -26.9666   22.4345 N   0  0  0  0  0  0  0  0  0  0  0  0
  -28.8199  -23.0499   18.7640 N   0  0  0  0  0  0  0  0  0  0  0  0
  -29.5538  -20.6745   20.0618 N   0  0  0  0  0  0  0  0  0  0  0  0
  -26.7119  -26.1623   22.9941 N   0  0  0  0  0  0  0  0  0  0  0  0
  -22.6286  -15.9988   22.2554 N   0  0  0  0  0  0  0  0  0  0  0  0
  -29.8246  -27.1619   21.0141 N   0  0  0  0  0  0  0  0  0  0  0  0
  -26.9664  -24.3031   24.4396 N   0  0  0  0  0  0  0  0  0  0  0  0
  -22.4946  -24.9229   24.3167 N   0  0  0  0  0  0  0  0  0  0  0  0
  -22.9823  -12.7477   21.4341 N   0  0  0  0  0  0  0  0  0  0  0  0
  -19.8865  -17.9374   22.6810 N   0  0  0  0  0  0  0  0  0  0  0  0
  -29.9025  -25.7125   19.1468 N   0  0  0  0  0  0  0  0  0  0  0  0
  -20.2226  -20.6130   25.0885 N   0  3  0  0  0  0  0  0  0  0  0  0
  -24.1729  -23.6417   25.2115 O   0  0  0  0  0  0  0  0  0  0  0  0
  -24.3516  -14.4355   20.5981 O   0  0  0  0  0  0  0  0  0  0  0  0
  -20.5255  -15.1467   22.7910 O   0  0  0  0  0  0  0  0  0  0  0  0
  -21.2115  -19.8373   22.5712 O   0  0  0  0  0  0  0  0  0  0  0  0
  -31.7904  -26.8180   19.8328 O   0  0  0  0  0  0  0  0  0  0  0  0
  -19.7922  -28.8509   21.4353 O   0  0  0  0  0  0  0  0  0  0  0  0
  -27.8539  -19.1226   21.2600 O   0  0  0  0  0  0  0  0  0  1  0  0
  -16.0854  -29.7875   25.4085 F   0  0  0  0  0  0  0  0  0  0  0  0
  -18.7692  -26.7695   22.9399 F   0  0  0  0  0  0  0  0  0  0  0  0
  1  2  1  0  0  0  0
  1  5  2  0  0  0  0
  2  6  2  0  0  0  0
  3  8  2  0  0  0  0
  3 15  1  0  0  0  0
  4  9  1  0  0  0  0
  4 15  2  0  0  0  0
  5 17  1  0  0  0  0
  6 19  1  0  0  0  0
  7 10  2  0  0  0  0
  7 18  1  0  0  0  0
  8 21  1  0  0  0  0
  9 21  2  0  0  0  0
 10 22  1  0  0  0  0
 11 12  2  0  0  0  0
 11 23  1  0  0  0  0
 12 24  1  0  0  0  0
 13 20  1  0  0  0  0
 13 22  2  0  0  0  0
 14 24  2  0  0  0  0
 14 25  1  0  0  0  0
 15 26  1  0  0  0  0
 16 26  1  0  0  0  0
 16 31  2  0  0  0  0
 16 32  1  0  0  0  0
 17 19  2  0  0  0  0
 17 37  1  0  0  0  0
 18 20  2  0  0  0  0
 18 38  1  0  0  0  0
 19 46  1  0  0  0  0
 20 39  1  0  0  0  0
 21 80  1  0  0  0  0
 22 81  1  0  0  0  0
 23 25  2  0  0  0  0
 23 80  1  0  0  0  0
 24 82  1  0  0  0  0
 25 83  1  0  0  0  0
 26 63  2  0  0  0  0
 27 30  1  0  0  0  0
 27 49  1  0  0  0  0
 27 64  2  0  0  0  0
 28 29  2  0  0  0  0
 28 56  1  0  0  0  0
 28 65  1  0  0  0  0
 29 57  1  0  0  0  0
 29 64  1  0  0  0  0
 30 58  1  0  0  0  0
 30 65  2  0  0  0  0
 31 66  1  0  0  0  0
 31 69  1  0  0  0  0
 32 70  1  0  0  0  0
 32 75  2  0  0  0  0
 33 47  1  0  0  0  0
 33 71  1  0  0  0  0
 33 76  2  0  0  0  0
 34 60  1  0  0  0  0
 34 67  1  0  0  0  0
 34 77  2  0  0  0  0
 35 61  1  0  0  0  0
 35 72  1  0  0  0  0
 35 78  2  0  0  0  0
 36 68  1  0  0  0  0
 36 73  1  0  0  0  0
 36 79  2  0  0  0  0
 37 40  1  0  0  0  0
 38 47  1  0  0  0  0
 39 67  1  0  0  0  0
 40 42  1  0  0  0  0
 41 43  1  0  0  0  0
 41 44  1  0  0  0  0
 42 46  1  0  0  0  0
 43 48  1  0  0  0  0
 44 68  1  0  0  0  0
 45 48  1  0  0  0  0
 45 68  1  0  0  0  0
 46 71  1  0  0  0  0
 47 67  1  0  0  0  0
 48 66  1  0  0  0  0
 50 56  1  0  0  0  0
 51 61  1  0  0  0  0
 52 62  1  0  0  0  0
 53 62  1  0  0  0  0
 54 62  1  0  0  0  0
 55 74  1  0  0  0  0
 57 59  1  0  0  0  0
 58 81  1  0  0  0  0
 59 73  1  0  0  0  0
 60 62  1  0  0  0  0
 60 72  1  0  0  0  0
 61 74  1  0  0  0  0
 63 66  1  0  0  0  0
M  CHG  1  74   1
M  ISO  4  36 100  58 101  73 100  81 101
M  END
> <Batch ID>
0076

> <Smiles>
CCc1nc([101CH2:1][101O:1]c2ccc3c(c2)CN(C(=O)C(NC(=O)C(C)NC)C(C)(C)C)C(C(=O)NC2CCCc4ccccc42)C3)c(C)nc1CC[100NH:0][100C:0](=O)N1CCCC(n2nc(-c3ccc(Oc4ccc(F)cc4F)cc3)c(C(N)=O)c2N)C1

> <Shape>
0.201

> <Color>
0.081

> <Negative vol penalty>
0.000

$$$$

  -OEChem-04052318343D

 85 93  0     1  0  0  0  0  0999 V2000
  -30.4567  -12.2891   19.9627 C   0  0  0  0  0  0  0  0  0  0  0  0
  -30.1699  -13.6345   20.1703 C   0  0  0  0  0  0  0  0  0  0  0  0
  -28.1637  -25.6624   18.7437 C   0  0  0  0  0  0  0  0  0  0  0  0
  -26.0410  -24.5426   19.0219 C   0  0  0  0  0  0  0  0  0  0  0  0
  -29.5186  -11.4651   19.3424 C   0  0  0  0  0  0  0  0  0  0  0  0
  -28.9450  -14.1570   19.7565 C   0  0  0  0  0  0  0  0  0  0  0  0
  -25.6956  -18.5522   22.5186 C   0  0  0  0  0  0  0  0  0  0  0  0
  -28.8286  -24.4548   18.9561 C   0  0  0  0  0  0  0  0  0  0  0  0
  -26.7060  -23.3350   19.2342 C   0  0  0  0  0  0  0  0  0  0  0  0
  -25.5775  -19.9210   22.2813 C   0  0  0  0  0  0  0  0  0  0  0  0
  -27.8336  -19.8882   19.4921 C   0  0  0  0  0  0  0  0  0  0  0  0
  -27.3500  -18.7566   18.8355 C   0  0  0  0  0  0  0  0  0  0  0  0
  -23.5858  -19.5177   20.9815 C   0  0  0  0  0  0  0  0  0  0  0  0
  -21.6205  -25.5838   23.8371 C   0  0  0  0  0  0  0  0  0  0  0  0
  -27.7349  -19.8285   16.7047 C   0  0  0  0  0  0  0  0  0  0  0  0
  -26.7699  -25.7064   18.7766 C   0  0  0  0  0  0  0  0  0  0  0  0
  -25.6442  -27.4783   17.3273 C   0  0  0  0  0  0  0  0  0  0  0  0
  -28.2778  -11.9756   18.9295 C   0  0  0  0  0  0  0  0  0  0  0  0
  -24.7642  -17.6533   21.9791 C   0  0  0  0  0  0  0  0  0  0  0  0
  -27.9899  -13.3394   19.1288 C   0  0  0  0  0  0  0  0  0  0  0  0
  -23.6928  -18.1382   21.2156 C   0  0  0  0  0  0  0  0  0  0  0  0
  -20.8628  -26.7416   23.8515 C   0  0  0  0  0  0  0  0  0  0  0  0
  -28.0998  -23.2911   19.2013 C   0  0  0  0  0  0  0  0  0  0  0  0
  -24.5241  -20.4036   21.5103 C   0  0  0  0  0  0  0  0  0  0  0  0
  -28.2677  -20.9900   18.7550 C   0  0  0  0  0  0  0  0  0  0  0  0
  -27.3007  -18.7267   17.4418 C   0  0  0  0  0  0  0  0  0  0  0  0
  -28.2184  -20.9601   17.3614 C   0  0  0  0  0  0  0  0  0  0  0  0
  -26.0824  -26.9536   18.5579 C   0  0  0  0  0  0  0  0  0  0  0  0
  -21.7736  -24.9268   22.6328 C   0  0  0  0  0  0  0  0  0  0  0  0
  -20.3086  -27.1659   22.6606 C   0  0  0  0  0  0  0  0  0  0  0  0
  -25.0548  -28.6750   17.6546 C   0  0  0  0  0  0  0  0  0  0  0  0
  -25.7594  -26.9327   16.0064 C   0  0  0  0  0  0  0  0  0  0  0  0
  -24.9156  -15.2240   19.9349 C   0  0  0  0  0  0  0  0  0  0  0  0
  -21.8004  -14.8463   20.7568 C   0  0  0  0  0  0  0  0  0  0  0  0
  -18.9332  -16.2464   21.9673 C   0  0  0  0  0  0  0  0  0  0  0  0
  -22.5204  -30.7340   22.6734 C   0  0  0  0  0  0  0  0  0  0  0  0
  -27.3144  -11.0569   18.2206 C   0  0  0  0  0  0  0  0  0  0  0  0
  -24.8905  -16.1823   22.2666 C   0  0  0  0  0  0  0  0  0  0  0  0
  -22.6549  -17.2168   20.6306 C   0  0  0  0  0  0  0  0  0  0  0  0
  -25.8911  -11.6041   18.1497 C   0  0  0  0  0  0  0  0  0  0  0  0
  -25.2511  -32.1804   20.9048 C   0  0  0  0  0  0  0  0  0  0  0  0
  -25.9021  -13.0649   17.7106 C   0  0  0  0  0  0  0  0  0  0  0  0
  -25.7343  -31.0522   19.9918 C   0  0  0  0  0  0  0  0  0  0  0  0
  -24.7843  -31.6500   22.2586 C   0  0  0  0  0  0  0  0  0  0  0  0
  -24.2533  -29.4532   21.2758 C   0  0  0  0  0  0  0  0  0  0  0  0
  -26.6625  -13.9376   18.7164 C   0  0  1  0  0  0  0  0  0  0  0  0
  -24.1757  -15.3093   21.2398 C   0  0  1  0  0  0  0  0  0  0  0  0
  -24.6819  -29.9329   19.8785 C   0  0  2  0  0  0  0  0  0  0  0  0
  -20.6669  -27.4891   25.1250 C   0  0  0  0  0  0  0  0  0  0  0  0
  -16.5408  -15.6975   22.4890 C   0  0  0  0  0  0  0  0  0  0  0  0
  -18.1942  -28.4002   23.4988 C   0  0  0  0  0  0  0  0  0  0  0  0
  -18.9482  -28.6340   21.1467 C   0  0  0  0  0  0  0  0  0  0  0  0
  -21.1349  -14.9288   17.7801 C   0  0  0  0  0  0  0  0  0  0  0  0
  -18.7425  -15.3335   18.3974 C   0  0  0  0  0  0  0  0  0  0  0  0
  -19.8652  -13.2150   19.0859 C   0  0  0  0  0  0  0  0  0  0  0  0
  -19.2898  -16.8888   24.8342 C   0  0  0  0  0  0  0  0  0  0  0  0
  -22.5891  -23.6605   22.5624 C   0  0  0  0  0  0  0  0  0  0  0  0
  -24.0717  -23.8982   22.2677 C   0  0  0  0  0  0  0  0  0  0  0  0
  -20.2899  -29.6926   22.9889 C   0  0  0  0  0  0  0  0  0  0  0  0
  -24.9029  -22.6206   22.2832 C   0  0  0  0  0  0  0  0  0  1  0  0
  -20.4860  -15.3779   20.2385 C   0  0  1  0  0  0  0  0  0  0  0  0
  -17.9580  -15.7822   23.0340 C   0  0  2  0  0  0  0  0  0  0  0  0
  -19.4795  -28.4042   22.5995 C   0  0  0  0  0  0  0  0  0  0  0  0
  -20.0776  -14.7312   18.8847 C   0  0  0  0  0  0  0  0  0  0  0  0
  -25.7961  -27.7517   19.5900 N   0  0  0  0  0  0  0  0  0  0  0  0
  -21.2196  -25.3650   21.4825 N   0  0  0  0  0  0  0  0  0  0  0  0
  -20.4752  -26.5031   21.4966 N   0  0  0  0  0  0  0  0  0  0  0  0
  -25.1717  -28.7900   19.0086 N   0  0  0  0  0  0  0  0  0  0  0  0
  -22.8253  -15.7864   20.9346 N   0  0  0  0  0  0  0  0  0  0  0  0
  -23.7862  -30.5927   22.0809 N   0  0  0  0  0  0  0  0  0  0  0  0
  -24.4533  -29.6295   16.9134 N   0  0  0  0  0  0  0  0  0  0  0  0
  -26.3937  -25.6929   15.8486 N   0  0  0  0  0  0  0  0  0  0  0  0
  -25.8420  -14.2002   19.8793 N   0  0  0  0  0  0  0  0  0  0  0  0
  -19.5158  -15.1832   21.3104 N   0  0  0  0  0  0  0  0  0  0  0  0
  -21.6318  -29.6893   22.4502 N   0  0  0  0  0  0  0  0  0  0  0  0
  -17.9626  -16.7271   24.1865 N   0  3  0  0  0  0  0  0  0  0  0  0
  -25.3278  -27.5347   14.9941 O   0  0  0  0  0  0  0  0  0  0  0  0
  -24.6636  -16.0265   19.0438 O   0  0  0  0  0  0  0  0  0  0  0  0
  -21.9115  -13.6424   21.0018 O   0  0  0  0  0  0  0  0  0  0  0  0
  -19.1532  -17.4335   21.7370 O   0  0  0  0  0  0  0  0  0  0  0  0
  -22.2038  -31.7207   23.3465 O   0  0  0  0  0  0  0  0  0  0  0  0
  -28.7483  -22.1125   19.4084 O   0  0  0  0  0  0  0  0  0  0  0  0
  -24.4069  -21.7391   21.2766 O   0  0  0  0  0  0  0  0  0  1  0  0
  -26.8377  -17.6393   16.8113 F   0  0  0  0  0  0  0  0  0  0  0  0
  -28.6352  -22.0151   16.6479 F   0  0  0  0  0  0  0  0  0  0  0  0
  1  2  1  0  0  0  0
  1  5  2  0  0  0  0
  2  6  2  0  0  0  0
  3  8  2  0  0  0  0
  3 16  1  0  0  0  0
  4  9  1  0  0  0  0
  4 16  2  0  0  0  0
  5 18  1  0  0  0  0
  6 20  1  0  0  0  0
  7 10  2  0  0  0  0
  7 19  1  0  0  0  0
  8 23  1  0  0  0  0
  9 23  2  0  0  0  0
 10 24  1  0  0  0  0
 11 12  2  0  0  0  0
 11 25  1  0  0  0  0
 12 26  1  0  0  0  0
 13 21  1  0  0  0  0
 13 24  2  0  0  0  0
 14 22  2  0  0  0  0
 14 29  1  0  0  0  0
 15 26  2  0  0  0  0
 15 27  1  0  0  0  0
 16 28  1  0  0  0  0
 17 28  1  0  0  0  0
 17 31  2  0  0  0  0
 17 32  1  0  0  0  0
 18 20  2  0  0  0  0
 18 37  1  0  0  0  0
 19 21  2  0  0  0  0
 19 38  1  0  0  0  0
 20 46  1  0  0  0  0
 21 39  1  0  0  0  0
 22 30  1  0  0  0  0
 22 49  1  0  0  0  0
 23 82  1  0  0  0  0
 24 83  1  0  0  0  0
 25 27  2  0  0  0  0
 25 82  1  0  0  0  0
 26 84  1  0  0  0  0
 27 85  1  0  0  0  0
 28 65  2  0  0  0  0
 29 57  1  0  0  0  0
 29 66  2  0  0  0  0
 30 63  1  0  0  0  0
 30 67  2  0  0  0  0
 31 68  1  0  0  0  0
 31 71  1  0  0  0  0
 32 72  1  0  0  0  0
 32 77  2  0  0  0  0
 33 47  1  0  0  0  0
 33 73  1  0  0  0  0
 33 78  2  0  0  0  0
 34 61  1  0  0  0  0
 34 69  1  0  0  0  0
 34 79  2  0  0  0  0
 35 62  1  0  0  0  0
 35 74  1  0  0  0  0
 35 80  2  0  0  0  0
 36 70  1  0  0  0  0
 36 75  1  0  0  0  0
 36 81  2  0  0  0  0
 37 40  1  0  0  0  0
 38 47  1  0  0  0  0
 39 69  1  0  0  0  0
 40 42  1  0  0  0  0
 41 43  1  0  0  0  0
 41 44  1  0  0  0  0
 42 46  1  0  0  0  0
 43 48  1  0  0  0  0
 44 70  1  0  0  0  0
 45 48  1  0  0  0  0
 45 70  1  0  0  0  0
 46 73  1  0  0  0  0
 47 69  1  0  0  0  0
 48 68  1  0  0  0  0
 50 62  1  0  0  0  0
 51 63  1  0  0  0  0
 52 63  1  0  0  0  0
 53 64  1  0  0  0  0
 54 64  1  0  0  0  0
 55 64  1  0  0  0  0
 56 76  1  0  0  0  0
 57 58  1  0  0  0  0
 58 60  1  0  0  0  0
 59 63  1  0  0  0  0
 59 75  1  0  0  0  0
 60 83  1  0  0  0  0
 61 64  1  0  0  0  0
 61 74  1  0  0  0  0
 62 76  1  0  0  0  0
 65 68  1  0  0  0  0
 66 67  1  0  0  0  0
M  CHG  1  76   1
M  ISO  4  36 100  60 101  75 100  83 101
M  END
> <Batch ID>
0076

> <Smiles>
CNC(C)C(=O)NC(C(=O)N1Cc2cc([101O:1][101CH2:1]CCc3cc(C)c(C(C)(C)C[100NH:0][100C:0](=O)N4CCCC(n5nc(-c6ccc(Oc7ccc(F)cc7F)cc6)c(C(N)=O)c5N)C4)nn3)ccc2CC1C(=O)NC1CCCc2ccccc21)C(C)(C)C

> <Shape>
0.208

> <Color>
0.066

> <Negative vol penalty>
0.000

$$$$

  -OEChem-04052318343D

 84 92  0     1  0  0  0  0  0999 V2000
  -22.2752  -11.2087   21.3253 C   0  0  0  0  0  0  0  0  0  0  0  0
  -21.9809  -12.5118   21.7138 C   0  0  0  0  0  0  0  0  0  0  0  0
  -27.6334  -29.1699   18.6803 C   0  0  0  0  0  0  0  0  0  0  0  0
  -28.6135  -29.3938   20.8772 C   0  0  0  0  0  0  0  0  0  0  0  0
  -23.5670  -10.8791   20.9174 C   0  0  0  0  0  0  0  0  0  0  0  0
  -22.9786  -13.4857   21.6956 C   0  0  0  0  0  0  0  0  0  0  0  0
  -21.4002  -17.8461   19.6606 C   0  0  0  0  0  0  0  0  0  0  0  0
  -28.9031  -29.2379   18.1069 C   0  0  0  0  0  0  0  0  0  0  0  0
  -29.8833  -29.4616   20.3038 C   0  0  0  0  0  0  0  0  0  0  0  0
  -20.6156  -18.6751   20.4611 C   0  0  0  0  0  0  0  0  0  0  0  0
  -31.9162  -28.9898   16.0882 C   0  0  0  0  0  0  0  0  0  0  0  0
  -32.2236  -28.0731   15.0829 C   0  0  0  0  0  0  0  0  0  0  0  0
  -22.5518  -20.0299   20.9454 C   0  0  0  0  0  0  0  0  0  0  0  0
  -31.8445  -26.2534   16.6263 C   0  0  0  0  0  0  0  0  0  0  0  0
  -19.1497  -27.4487   23.7410 C   0  0  0  0  0  0  0  0  0  0  0  0
  -27.4886  -29.2479   20.0655 C   0  0  0  0  0  0  0  0  0  0  0  0
  -25.4954  -28.0214   21.0806 C   0  0  0  0  0  0  0  0  0  0  0  0
  -24.5788  -11.8517   20.8850 C   0  0  0  0  0  0  0  0  0  0  0  0
  -22.7711  -18.0968   19.5050 C   0  0  0  0  0  0  0  0  0  0  0  0
  -24.2855  -13.1685   21.2881 C   0  0  0  0  0  0  0  0  0  0  0  0
  -23.3511  -19.2041   20.1403 C   0  0  0  0  0  0  0  0  0  0  0  0
  -19.0212  -26.6409   22.6376 C   0  0  0  0  0  0  0  0  0  0  0  0
  -30.0280  -29.3837   18.9186 C   0  0  0  0  0  0  0  0  0  0  0  0
  -21.1919  -19.7655   21.1060 C   0  0  0  0  0  0  0  0  0  0  0  0
  -31.5729  -28.5384   17.3626 C   0  0  0  0  0  0  0  0  0  0  0  0
  -32.1878  -26.7049   15.3519 C   0  0  0  0  0  0  0  0  0  0  0  0
  -31.5371  -27.1702   17.6317 C   0  0  0  0  0  0  0  0  0  0  0  0
  -26.1772  -29.1784   20.6583 C   0  0  0  0  0  0  0  0  0  0  0  0
  -19.2430  -27.5000   21.5447 C   0  0  0  0  0  0  0  0  0  0  0  0
  -24.2986  -28.4868   21.5681 C   0  0  0  0  0  0  0  0  0  0  0  0
  -25.9072  -26.6488   21.0363 C   0  0  0  0  0  0  0  0  0  0  0  0
  -25.4350  -16.5054   20.1940 C   0  0  0  0  0  0  0  0  0  0  0  0
  -26.8470  -18.9578   18.6083 C   0  0  0  0  0  0  0  0  0  0  0  0
  -26.6877  -22.1994   17.5533 C   0  0  0  0  0  0  0  0  0  0  0  0
  -21.7793  -32.3562   24.8843 C   0  0  0  0  0  0  0  0  0  0  0  0
  -25.9717  -11.4371   20.4817 C   0  0  0  0  0  0  0  0  0  0  0  0
  -23.5983  -17.2086   18.6166 C   0  0  0  0  0  0  0  0  0  0  0  0
  -24.8142  -19.5285   19.9895 C   0  0  0  0  0  0  0  0  0  0  0  0
  -26.8805  -12.6132   20.1337 C   0  0  0  0  0  0  0  0  0  0  0  0
  -22.1498  -33.0460   21.2665 C   0  0  0  0  0  0  0  0  0  0  0  0
  -26.7644  -13.7082   21.1893 C   0  0  0  0  0  0  0  0  0  0  0  0
  -23.2283  -32.0489   20.8461 C   0  0  0  0  0  0  0  0  0  0  0  0
  -22.2902  -33.4492   22.7313 C   0  0  0  0  0  0  0  0  0  0  0  0
  -23.3966  -31.3002   23.2527 C   0  0  0  0  0  0  0  0  0  0  0  0
  -25.3348  -14.2586   21.2584 C   0  0  1  0  0  0  0  0  0  0  0  0
  -25.0880  -17.2593   18.9414 C   0  0  1  0  0  0  0  0  0  0  0  0
  -23.2555  -30.8378   21.7946 C   0  0  2  0  0  0  0  0  0  0  0  0
  -19.2254  -27.1606   20.1110 C   0  0  0  0  0  0  0  0  0  0  0  0
  -28.0095  -23.9342   16.3119 C   0  0  0  0  0  0  0  0  0  0  0  0
  -28.6218  -19.3550   21.0582 C   0  0  0  0  0  0  0  0  0  0  0  0
  -29.2242  -21.6165   20.1687 C   0  0  0  0  0  0  0  0  0  0  0  0
  -29.8061  -19.5702   18.8661 C   0  0  0  0  0  0  0  0  0  0  0  0
  -20.6452  -31.2009   26.7441 C   0  0  0  0  0  0  0  0  0  0  0  0
  -24.6127  -22.4482   15.4578 C   0  0  0  0  0  0  0  0  0  0  0  0
  -18.7112  -25.1653   22.6158 C   0  0  0  0  0  0  0  0  0  0  0  0
  -19.9289  -24.2810   22.3252 C   0  0  0  0  0  0  0  0  0  0  0  0
  -19.5807  -22.7948   22.2308 C   0  0  0  0  0  0  0  0  0  0  0  0
  -19.6502  -29.8851   24.0455 C   0  0  0  0  0  0  0  0  0  0  0  0
  -21.0465  -29.9447   24.6593 C   0  0  0  0  0  0  0  0  0  0  0  0
  -20.8194  -21.9452   21.9813 C   0  0  0  0  0  0  0  0  0  1  0  0
  -27.3923  -20.3103   18.9987 C   0  0  1  0  0  0  0  0  0  0  0  0
  -26.9654  -22.8338   16.2024 C   0  0  2  0  0  0  0  0  0  0  0  0
  -28.7339  -20.2060   19.7775 C   0  0  0  0  0  0  0  0  0  0  0  0
  -25.4721  -30.2948   20.8597 N   0  0  0  0  0  0  0  0  0  0  0  0
  -19.4933  -28.7573   21.9197 N   0  0  0  0  0  0  0  0  0  0  0  0
  -19.4295  -28.6941   23.2606 N   0  0  0  0  0  0  0  0  0  0  0  0
  -24.3348  -29.8414   21.4138 N   0  0  0  0  0  0  0  0  0  0  0  0
  -25.5824  -18.6266   19.1154 N   0  0  0  0  0  0  0  0  0  0  0  0
  -22.3571  -32.2784   23.6065 N   0  0  0  0  0  0  0  0  0  0  0  0
  -23.2294  -27.8652   22.1092 N   0  0  0  0  0  0  0  0  0  0  0  0
  -27.1678  -26.3462   20.5038 N   0  0  0  0  0  0  0  0  0  0  0  0
  -25.0896  -15.1678   20.1594 N   0  0  0  0  0  0  0  0  0  0  0  0
  -27.4752  -21.0879   17.7671 N   0  0  0  0  0  0  0  0  0  0  0  0
  -21.2645  -31.1690   25.4268 N   0  0  0  0  0  0  0  0  0  0  0  0
  -25.7175  -23.4242   15.6411 N   0  3  0  0  0  0  0  0  0  0  0  0
  -25.1720  -25.7165   21.4413 O   0  0  0  0  0  0  0  0  0  0  0  0
  -25.9772  -17.0932   21.1224 O   0  0  0  0  0  0  0  0  0  0  0  0
  -27.5152  -18.2251   17.8746 O   0  0  0  0  0  0  0  0  0  0  0  0
  -25.8581  -22.6474   18.3417 O   0  0  0  0  0  0  0  0  0  0  0  0
  -21.7180  -33.4276   25.5009 O   0  0  0  0  0  0  0  0  0  0  0  0
  -31.2672  -29.4498   18.3594 O   0  0  0  0  0  0  0  0  0  0  0  0
  -20.4284  -20.5760   21.8884 O   0  0  0  0  0  0  0  0  0  1  0  0
  -32.4815  -25.8246   14.3860 F   0  0  0  0  0  0  0  0  0  0  0  0
  -31.2069  -26.7304   18.8537 F   0  0  0  0  0  0  0  0  0  0  0  0
  1  2  1  0  0  0  0
  1  5  2  0  0  0  0
  2  6  2  0  0  0  0
  3  8  2  0  0  0  0
  3 16  1  0  0  0  0
  4  9  1  0  0  0  0
  4 16  2  0  0  0  0
  5 18  1  0  0  0  0
  6 20  1  0  0  0  0
  7 10  2  0  0  0  0
  7 19  1  0  0  0  0
  8 23  1  0  0  0  0
  9 23  2  0  0  0  0
 10 24  1  0  0  0  0
 11 12  2  0  0  0  0
 11 25  1  0  0  0  0
 12 26  1  0  0  0  0
 13 21  1  0  0  0  0
 13 24  2  0  0  0  0
 14 26  2  0  0  0  0
 14 27  1  0  0  0  0
 15 22  2  0  0  0  0
 15 66  1  0  0  0  0
 16 28  1  0  0  0  0
 17 28  1  0  0  0  0
 17 30  2  0  0  0  0
 17 31  1  0  0  0  0
 18 20  2  0  0  0  0
 18 36  1  0  0  0  0
 19 21  2  0  0  0  0
 19 37  1  0  0  0  0
 20 45  1  0  0  0  0
 21 38  1  0  0  0  0
 22 29  1  0  0  0  0
 22 55  1  0  0  0  0
 23 81  1  0  0  0  0
 24 82  1  0  0  0  0
 25 27  2  0  0  0  0
 25 81  1  0  0  0  0
 26 83  1  0  0  0  0
 27 84  1  0  0  0  0
 28 64  2  0  0  0  0
 29 48  1  0  0  0  0
 29 65  2  0  0  0  0
 30 67  1  0  0  0  0
 30 70  1  0  0  0  0
 31 71  1  0  0  0  0
 31 76  2  0  0  0  0
 32 46  1  0  0  0  0
 32 72  1  0  0  0  0
 32 77  2  0  0  0  0
 33 61  1  0  0  0  0
 33 68  1  0  0  0  0
 33 78  2  0  0  0  0
 34 62  1  0  0  0  0
 34 73  1  0  0  0  0
 34 79  2  0  0  0  0
 35 69  1  0  0  0  0
 35 74  1  0  0  0  0
 35 80  2  0  0  0  0
 36 39  1  0  0  0  0
 37 46  1  0  0  0  0
 38 68  1  0  0  0  0
 39 41  1  0  0  0  0
 40 42  1  0  0  0  0
 40 43  1  0  0  0  0
 41 45  1  0  0  0  0
 42 47  1  0  0  0  0
 43 69  1  0  0  0  0
 44 47  1  0  0  0  0
 44 69  1  0  0  0  0
 45 72  1  0  0  0  0
 46 68  1  0  0  0  0
 47 67  1  0  0  0  0
 49 62  1  0  0  0  0
 50 63  1  0  0  0  0
 51 63  1  0  0  0  0
 52 63  1  0  0  0  0
 53 74  1  0  0  0  0
 54 75  1  0  0  0  0
 55 56  1  0  0  0  0
 56 57  1  0  0  0  0
 57 60  1  0  0  0  0
 58 59  1  0  0  0  0
 58 66  1  0  0  0  0
 59 74  1  0  0  0  0
 60 82  1  0  0  0  0
 61 63  1  0  0  0  0
 61 73  1  0  0  0  0
 62 75  1  0  0  0  0
 64 67  1  0  0  0  0
 65 66  1  0  0  0  0
M  CHG  1  75   1
M  ISO  4  35 100  60 101  74 100  82 101
M  END
> <Batch ID>
0076

> <Smiles>
CNC(C)C(=O)NC(C(=O)N1Cc2cc([101O:1][101CH2:1]CCCc3cn(CC[100N:0](C)[100C:0](=O)N4CCCC(n5nc(-c6ccc(Oc7ccc(F)cc7F)cc6)c(C(N)=O)c5N)C4)nc3C)ccc2CC1C(=O)NC1CCCc2ccccc21)C(C)(C)C

> <Shape>
0.206

> <Color>
0.062

> <Negative vol penalty>
0.000

$$$$

  -OEChem-04052318343D

 84 92  0     1  0  0  0  0  0999 V2000
  -18.8699  -23.6783   22.8499 C   0  0  0  0  0  0  0  0  0  0  0  0
  -20.2226  -23.7271   22.5284 C   0  0  0  0  0  0  0  0  0  0  0  0
  -23.3295  -14.3814   24.5247 C   0  0  0  0  0  0  0  0  0  0  0  0
  -23.1181  -15.8773   22.6394 C   0  0  0  0  0  0  0  0  0  0  0  0
  -18.1743  -24.8574   23.1139 C   0  0  0  0  0  0  0  0  0  0  0  0
  -20.8802  -24.9553   22.4698 C   0  0  0  0  0  0  0  0  0  0  0  0
  -25.3900  -24.8561   24.7713 C   0  0  0  0  0  0  0  0  0  0  0  0
  -22.4443  -15.1752   25.2539 C   0  0  0  0  0  0  0  0  0  0  0  0
  -22.2328  -16.6712   23.3686 C   0  0  0  0  0  0  0  0  0  0  0  0
  -26.4458  -24.2659   24.0780 C   0  0  0  0  0  0  0  0  0  0  0  0
  -22.4119  -19.0249   25.7891 C   0  0  0  0  0  0  0  0  0  0  0  0
  -22.5958  -20.4069   25.7474 C   0  0  0  0  0  0  0  0  0  0  0  0
  -27.2366  -26.4518   23.4333 C   0  0  0  0  0  0  0  0  0  0  0  0
  -20.3824  -20.6734   24.8164 C   0  0  0  0  0  0  0  0  0  0  0  0
  -30.1944  -19.0132   18.7271 C   0  0  0  0  0  0  0  0  0  0  0  0
  -23.6665  -14.7324   23.2175 C   0  0  0  0  0  0  0  0  0  0  0  0
  -24.2598  -12.8223   21.6341 C   0  0  0  0  0  0  0  0  0  0  0  0
  -18.8260  -26.0999   23.0679 C   0  0  0  0  0  0  0  0  0  0  0  0
  -25.2431  -26.2506   24.7917 C   0  0  0  0  0  0  0  0  0  0  0  0
  -20.1924  -26.1523   22.7321 C   0  0  0  0  0  0  0  0  0  0  0  0
  -26.1796  -27.0574   24.1297 C   0  0  0  0  0  0  0  0  0  0  0  0
  -21.8959  -16.3201   24.6759 C   0  0  0  0  0  0  0  0  0  0  0  0
  -27.3677  -25.0636   23.4065 C   0  0  0  0  0  0  0  0  0  0  0  0
  -21.2133  -18.4671   25.3443 C   0  0  0  0  0  0  0  0  0  0  0  0
  -21.5811  -21.2312   25.2611 C   0  0  0  0  0  0  0  0  0  0  0  0
  -20.1985  -19.2913   24.8580 C   0  0  0  0  0  0  0  0  0  0  0  0
  -24.5813  -13.9131   22.4639 C   0  0  0  0  0  0  0  0  0  0  0  0
  -29.4725  -20.1282   18.3528 C   0  0  0  0  0  0  0  0  0  0  0  0
  -29.9071  -17.8554   18.0334 C   0  0  0  0  0  0  0  0  0  0  0  0
  -25.4707  -12.3882   21.1529 C   0  0  0  0  0  0  0  0  0  0  0  0
  -28.3513  -18.9350   16.7760 C   0  0  0  0  0  0  0  0  0  0  0  0
  -22.9808  -12.2523   21.3259 C   0  0  0  0  0  0  0  0  0  0  0  0
  -23.0169  -28.2865   23.7904 C   0  0  0  0  0  0  0  0  0  0  0  0
  -24.8936  -30.4684   25.2870 C   0  0  0  0  0  0  0  0  0  0  0  0
  -27.9907  -31.3220   26.4385 C   0  0  0  0  0  0  0  0  0  0  0  0
  -30.7463  -15.1020   20.3436 C   0  0  0  0  0  0  0  0  0  0  0  0
  -18.0212  -27.3514   23.3147 C   0  0  0  0  0  0  0  0  0  0  0  0
  -24.1140  -26.8729   25.5664 C   0  0  0  0  0  0  0  0  0  0  0  0
  -26.0781  -28.5601   24.1379 C   0  0  0  0  0  0  0  0  0  0  0  0
  -18.8795  -28.5814   23.5985 C   0  0  0  0  0  0  0  0  0  0  0  0
  -30.1099  -12.2016   22.3081 C   0  0  0  0  0  0  0  0  0  0  0  0
  -20.0195  -28.6813   22.5898 C   0  0  0  0  0  0  0  0  0  0  0  0
  -28.5918  -12.2130   22.4959 C   0  0  0  0  0  0  0  0  0  0  0  0
  -30.6909  -13.6138   22.3231 C   0  0  0  0  0  0  0  0  0  0  0  0
  -28.5486  -14.5618   21.5580 C   0  0  0  0  0  0  0  0  0  0  0  0
  -20.9466  -27.4634   22.6827 C   0  0  1  0  0  0  0  0  0  0  0  0
  -23.7683  -28.2809   25.0916 C   0  0  1  0  0  0  0  0  0  0  0  0
  -27.9099  -13.1638   21.4939 C   0  0  2  0  0  0  0  0  0  0  0  0
  -27.3304  -18.8917   15.6898 C   0  0  0  0  0  0  0  0  0  0  0  0
  -30.8039  -15.6669   17.1573 C   0  0  0  0  0  0  0  0  0  0  0  0
  -29.2224  -33.1849   27.5830 C   0  0  0  0  0  0  0  0  0  0  0  0
  -24.9168  -32.0520   22.6790 C   0  0  0  0  0  0  0  0  0  0  0  0
  -26.8718  -33.3432   23.5616 C   0  0  0  0  0  0  0  0  0  0  0  0
  -24.6769  -33.4442   24.7427 C   0  0  0  0  0  0  0  0  0  0  0  0
  -28.6896  -29.6004   28.7421 C   0  0  0  0  0  0  0  0  0  0  0  0
  -29.7166  -21.4411   19.0532 C   0  0  0  0  0  0  0  0  0  0  0  0
  -28.8310  -21.6598   20.2849 C   0  0  0  0  0  0  0  0  0  0  0  0
  -29.0384  -23.0279   20.9361 C   0  0  0  0  0  0  0  0  0  0  0  0
  -28.1723  -23.1932   22.1775 C   0  0  0  0  0  0  0  0  0  1  0  0
  -30.6385  -16.5983   18.3665 C   0  0  2  0  0  0  0  0  0  0  0  0
  -26.0617  -31.3332   24.8787 C   0  0  1  0  0  0  0  0  0  0  0  0
  -28.4495  -31.8887   27.7700 C   0  0  2  0  0  0  0  0  0  0  0  0
  -25.6329  -32.5148   23.9636 C   0  0  0  0  0  0  0  0  0  0  0  0
  -25.8937  -14.1569   22.5095 N   0  0  0  0  0  0  0  0  0  0  0  0
  -28.5399  -20.1248   17.3778 N   0  0  0  0  0  0  0  0  0  0  0  0
  -28.9881  -17.7801   17.0484 N   0  0  0  0  0  0  0  0  0  0  0  0
  -26.4076  -13.2131   21.7025 N   0  0  0  0  0  0  0  0  0  0  0  0
  -24.9530  -29.1210   24.9041 N   0  0  0  0  0  0  0  0  0  0  0  0
  -30.0018  -14.4644   21.3497 N   0  0  0  0  0  0  0  0  0  0  0  0
  -25.8150  -11.3852   20.3175 N   0  0  0  0  0  0  0  0  0  0  0  0
  -21.8386  -12.8208   21.9061 N   0  0  0  0  0  0  0  0  0  0  0  0
  -21.8272  -27.5845   23.8248 N   0  0  0  0  0  0  0  0  0  0  0  0
  -26.7181  -31.7431   26.1155 N   0  0  0  0  0  0  0  0  0  0  0  0
  -30.0149  -15.8846   19.4585 N   0  0  0  0  0  0  0  0  0  0  0  0
  -29.3306  -30.9132   28.4722 N   0  3  0  0  0  0  0  0  0  0  0  0
  -22.8559  -11.2578   20.5717 O   0  0  0  0  0  0  0  0  0  0  0  0
  -23.4814  -28.8848   22.8271 O   0  0  0  0  0  0  0  0  0  0  0  0
  -23.9661  -30.9684   25.9285 O   0  0  0  0  0  0  0  0  0  0  0  0
  -28.6927  -30.5829   25.7518 O   0  0  0  0  0  0  0  0  0  0  0  0
  -31.9713  -14.9785   20.2385 O   0  0  0  0  0  0  0  0  0  0  0  0
  -21.0319  -17.0949   25.3871 O   0  0  0  0  0  0  0  0  0  0  0  0
  -28.3988  -24.4900   22.7285 O   0  0  0  0  0  0  0  0  0  1  0  0
  -21.7573  -22.5585   25.2226 F   0  0  0  0  0  0  0  0  0  0  0  0
  -19.0444  -18.7613   24.4304 F   0  0  0  0  0  0  0  0  0  0  0  0
  1  2  1  0  0  0  0
  1  5  2  0  0  0  0
  2  6  2  0  0  0  0
  3  8  2  0  0  0  0
  3 16  1  0  0  0  0
  4  9  1  0  0  0  0
  4 16  2  0  0  0  0
  5 18  1  0  0  0  0
  6 20  1  0  0  0  0
  7 10  2  0  0  0  0
  7 19  1  0  0  0  0
  8 22  1  0  0  0  0
  9 22  2  0  0  0  0
 10 23  1  0  0  0  0
 11 12  2  0  0  0  0
 11 24  1  0  0  0  0
 12 25  1  0  0  0  0
 13 21  1  0  0  0  0
 13 23  2  0  0  0  0
 14 25  2  0  0  0  0
 14 26  1  0  0  0  0
 15 28  1  0  0  0  0
 15 29  2  0  0  0  0
 16 27  1  0  0  0  0
 17 27  1  0  0  0  0
 17 30  2  0  0  0  0
 17 32  1  0  0  0  0
 18 20  2  0  0  0  0
 18 37  1  0  0  0  0
 19 21  2  0  0  0  0
 19 38  1  0  0  0  0
 20 46  1  0  0  0  0
 21 39  1  0  0  0  0
 22 81  1  0  0  0  0
 23 82  1  0  0  0  0
 24 26  2  0  0  0  0
 24 81  1  0  0  0  0
 25 83  1  0  0  0  0
 26 84  1  0  0  0  0
 27 64  2  0  0  0  0
 28 56  1  0  0  0  0
 28 65  2  0  0  0  0
 29 60  1  0  0  0  0
 29 66  1  0  0  0  0
 30 67  1  0  0  0  0
 30 70  1  0  0  0  0
 31 49  1  0  0  0  0
 31 65  1  0  0  0  0
 31 66  2  0  0  0  0
 32 71  1  0  0  0  0
 32 76  2  0  0  0  0
 33 47  1  0  0  0  0
 33 72  1  0  0  0  0
 33 77  2  0  0  0  0
 34 61  1  0  0  0  0
 34 68  1  0  0  0  0
 34 78  2  0  0  0  0
 35 62  1  0  0  0  0
 35 73  1  0  0  0  0
 35 79  2  0  0  0  0
 36 69  1  0  0  0  0
 36 74  1  0  0  0  0
 36 80  2  0  0  0  0
 37 40  1  0  0  0  0
 38 47  1  0  0  0  0
 39 68  1  0  0  0  0
 40 42  1  0  0  0  0
 41 43  1  0  0  0  0
 41 44  1  0  0  0  0
 42 46  1  0  0  0  0
 43 48  1  0  0  0  0
 44 69  1  0  0  0  0
 45 48  1  0  0  0  0
 45 69  1  0  0  0  0
 46 72  1  0  0  0  0
 47 68  1  0  0  0  0
 48 67  1  0  0  0  0
 50 60  1  0  0  0  0
 51 62  1  0  0  0  0
 52 63  1  0  0  0  0
 53 63  1  0  0  0  0
 54 63  1  0  0  0  0
 55 75  1  0  0  0  0
 56 57  1  0  0  0  0
 57 58  1  0  0  0  0
 58 59  1  0  0  0  0
 59 82  1  0  0  0  0
 60 74  1  0  0  0  0
 61 63  1  0  0  0  0
 61 73  1  0  0  0  0
 62 75  1  0  0  0  0
 64 67  1  0  0  0  0
M  CHG  1  75   1
M  ISO  4  36 100  59 101  74 100  82 101
M  END
> <Batch ID>
0076

> <Smiles>
CNC(C)C(=O)NC(C(=O)N1Cc2cc([101O:1][101CH2:1]CCCc3cc(C(C)[100NH:0][100C:0](=O)N4CCCC(n5nc(-c6ccc(Oc7ccc(F)cc7F)cc6)c(C(N)=O)c5N)C4)nc(C)n3)ccc2CC1C(=O)NC1CCCc2ccccc21)C(C)(C)C

> <Shape>
0.211

> <Color>
0.085

> <Negative vol penalty>
0.000

$$$$

  -OEChem-04052318343D

 85 93  0     1  0  0  0  0  0999 V2000
  -27.0204  -10.0995   12.0557 C   0  0  0  0  0  0  0  0  0  0  0  0
  -27.9505  -10.8906   12.7226 C   0  0  0  0  0  0  0  0  0  0  0  0
  -23.7626   -9.6928   21.4407 C   0  0  0  0  0  0  0  0  0  0  0  0
  -24.4105  -10.7298   23.5244 C   0  0  0  0  0  0  0  0  0  0  0  0
  -26.5735   -8.9127   12.6350 C   0  0  0  0  0  0  0  0  0  0  0  0
  -28.4334  -10.4957   13.9697 C   0  0  0  0  0  0  0  0  0  0  0  0
  -33.4537  -11.0287   14.3667 C   0  0  0  0  0  0  0  0  0  0  0  0
  -23.2575   -8.5983   22.1424 C   0  0  0  0  0  0  0  0  0  0  0  0
  -23.9054   -9.6352   24.2261 C   0  0  0  0  0  0  0  0  0  0  0  0
  -33.9415  -12.3150   14.5932 C   0  0  0  0  0  0  0  0  0  0  0  0
  -20.4741   -7.8386   23.9054 C   0  0  0  0  0  0  0  0  0  0  0  0
  -19.2246   -7.3469   23.5277 C   0  0  0  0  0  0  0  0  0  0  0  0
  -34.1818  -11.8044   16.9386 C   0  0  0  0  0  0  0  0  0  0  0  0
  -20.2194   -5.2027   23.0278 C   0  0  0  0  0  0  0  0  0  0  0  0
  -24.3391  -10.7586   22.1317 C   0  0  0  0  0  0  0  0  0  0  0  0
  -24.1681  -13.0585   21.0413 C   0  0  0  0  0  0  0  0  0  0  0  0
  -27.0585   -8.4982   13.8855 C   0  0  0  0  0  0  0  0  0  0  0  0
  -33.3158  -10.1227   15.4281 C   0  0  0  0  0  0  0  0  0  0  0  0
  -27.9916   -9.3028   14.5668 C   0  0  0  0  0  0  0  0  0  0  0  0
  -33.6945  -10.5064   16.7225 C   0  0  0  0  0  0  0  0  0  0  0  0
  -23.3289   -8.5695   23.5351 C   0  0  0  0  0  0  0  0  0  0  0  0
  -34.3029  -12.7040   15.8797 C   0  0  0  0  0  0  0  0  0  0  0  0
  -21.5963   -7.0123   23.8442 C   0  0  0  0  0  0  0  0  0  0  0  0
  -19.0972   -6.0290   23.0890 C   0  0  0  0  0  0  0  0  0  0  0  0
  -21.4689   -5.6944   23.4054 C   0  0  0  0  0  0  0  0  0  0  0  0
  -24.8615  -11.8893   21.4073 C   0  0  0  0  0  0  0  0  0  0  0  0
  -25.1002  -13.8162   20.3753 C   0  0  0  0  0  0  0  0  0  0  0  0
  -31.7233  -17.1761   21.1056 C   0  0  0  0  0  0  0  0  0  0  0  0
  -31.1974  -18.0777   19.2979 C   0  0  0  0  0  0  0  0  0  0  0  0
  -22.8035  -13.4267   21.2818 C   0  0  0  0  0  0  0  0  0  0  0  0
  -30.8734   -8.5912   16.7671 C   0  0  0  0  0  0  0  0  0  0  0  0
  -33.2228   -7.1340   18.4641 C   0  0  0  0  0  0  0  0  0  0  0  0
  -36.4081   -7.2411   19.6842 C   0  0  0  0  0  0  0  0  0  0  0  0
  -31.0816  -14.0137   20.5624 C   0  0  0  0  0  0  0  0  0  0  0  0
  -26.5104   -7.2312   14.4930 C   0  0  0  0  0  0  0  0  0  0  0  0
  -32.8132   -8.7300   15.1628 C   0  0  0  0  0  0  0  0  0  0  0  0
  -33.5848   -9.5647   17.8928 C   0  0  0  0  0  0  0  0  0  0  0  0
  -27.3527   -6.6955   15.6478 C   0  0  0  0  0  0  0  0  0  0  0  0
  -29.0482  -13.4001   17.7049 C   0  0  0  0  0  0  0  0  0  0  0  0
  -27.7167   -7.8215   16.6104 C   0  0  0  0  0  0  0  0  0  0  0  0
  -27.6821  -13.0488   18.2967 C   0  0  0  0  0  0  0  0  0  0  0  0
  -30.1905  -12.8576   18.5610 C   0  0  0  0  0  0  0  0  0  0  0  0
  -28.7704  -12.8936   20.5749 C   0  0  0  0  0  0  0  0  0  0  0  0
  -28.5575   -8.8958   15.9100 C   0  0  1  0  0  0  0  0  0  0  0  0
  -32.2304   -8.0588   16.4027 C   0  0  1  0  0  0  0  0  0  0  0  0
  -27.5875  -13.4674   19.7763 C   0  0  2  0  0  0  0  0  0  0  0  0
  -30.5376  -18.7797   18.1825 C   0  0  0  0  0  0  0  0  0  0  0  0
  -38.0333   -5.9206   21.0672 C   0  0  0  0  0  0  0  0  0  0  0  0
  -30.2783  -17.0278   23.2472 C   0  0  0  0  0  0  0  0  0  0  0  0
  -32.7317  -17.3659   23.3958 C   0  0  0  0  0  0  0  0  0  0  0  0
  -31.7295   -7.9525   20.9959 C   0  0  0  0  0  0  0  0  0  0  0  0
  -33.8132   -7.4697   22.2973 C   0  0  0  0  0  0  0  0  0  0  0  0
  -32.6746   -5.6376   21.0445 C   0  0  0  0  0  0  0  0  0  0  0  0
  -38.3258   -7.0311   17.4399 C   0  0  0  0  0  0  0  0  0  0  0  0
  -33.4314  -16.2462   17.2542 C   0  0  0  0  0  0  0  0  0  0  0  0
  -34.3173  -16.3125   16.0091 C   0  0  0  0  0  0  0  0  0  0  0  0
  -33.3897  -17.5666   18.0318 C   0  0  0  0  0  0  0  0  0  0  0  0
  -31.8306  -15.1451   22.6404 C   0  0  0  0  0  0  0  0  0  0  0  0
  -34.3062  -14.9958   15.2443 C   0  0  0  0  0  0  0  0  0  1  0  0
  -33.9349   -7.4170   19.7648 C   0  0  1  0  0  0  0  0  0  0  0  0
  -37.5297   -6.2183   19.6635 C   0  0  2  0  0  0  0  0  0  0  0  0
  -31.6272  -16.7054   22.4924 C   0  0  0  0  0  0  0  0  0  0  0  0
  -33.0384   -7.1378   21.0041 C   0  0  0  0  0  0  0  0  0  0  0  0
  -26.1358  -11.8988   21.0069 N   0  0  0  0  0  0  0  0  0  0  0  0
  -30.7078  -17.8552   20.4955 N   0  0  0  0  0  0  0  0  0  0  0  0
  -32.8105  -16.9644   20.3609 N   0  0  0  0  0  0  0  0  0  0  0  0
  -26.2504  -13.0833   20.3824 N   0  0  0  0  0  0  0  0  0  0  0  0
  -32.4482  -17.5508   19.2097 N   0  0  0  0  0  0  0  0  0  0  0  0
  -33.0820   -8.2159   17.5835 N   0  0  0  0  0  0  0  0  0  0  0  0
  -30.0425  -13.2921   19.9521 N   0  0  0  0  0  0  0  0  0  0  0  0
  -25.0399  -15.0313   19.7902 N   0  0  0  0  0  0  0  0  0  0  0  0
  -21.9832  -12.5313   21.9816 N   0  0  0  0  0  0  0  0  0  0  0  0
  -29.9280   -8.4525   15.7690 N   0  0  0  0  0  0  0  0  0  0  0  0
  -35.1686   -6.6390   19.7323 N   0  0  0  0  0  0  0  0  0  0  0  0
  -30.8576  -14.3926   21.8804 N   0  0  0  0  0  0  0  0  0  0  0  0
  -38.6734   -6.7201   18.8504 N   0  3  0  0  0  0  0  0  0  0  0  0
  -22.3212  -14.5103   20.8736 O   0  0  0  0  0  0  0  0  0  0  0  0
  -30.6968   -9.0894   17.8727 O   0  0  0  0  0  0  0  0  0  0  0  0
  -32.8130   -5.9934   18.2347 O   0  0  0  0  0  0  0  0  0  0  0  0
  -36.6114   -8.4531   19.6639 O   0  0  0  0  0  0  0  0  0  0  0  0
  -32.1290  -14.3038   19.9745 O   0  0  0  0  0  0  0  0  0  0  0  0
  -22.8360   -7.5016   24.2202 O   0  0  0  0  0  0  0  0  0  0  0  0
  -34.7787  -13.9591   16.1036 O   0  0  0  0  0  0  0  0  0  1  0  0
  -17.8970   -5.5566   22.7278 F   0  0  0  0  0  0  0  0  0  0  0  0
  -22.5431   -4.8955   23.3456 F   0  0  0  0  0  0  0  0  0  0  0  0
  1  2  1  0  0  0  0
  1  5  2  0  0  0  0
  2  6  2  0  0  0  0
  3  8  2  0  0  0  0
  3 15  1  0  0  0  0
  4  9  1  0  0  0  0
  4 15  2  0  0  0  0
  5 17  1  0  0  0  0
  6 19  1  0  0  0  0
  7 10  2  0  0  0  0
  7 18  1  0  0  0  0
  8 21  1  0  0  0  0
  9 21  2  0  0  0  0
 10 22  1  0  0  0  0
 11 12  2  0  0  0  0
 11 23  1  0  0  0  0
 12 24  1  0  0  0  0
 13 20  1  0  0  0  0
 13 22  2  0  0  0  0
 14 24  2  0  0  0  0
 14 25  1  0  0  0  0
 15 26  1  0  0  0  0
 16 26  1  0  0  0  0
 16 27  2  0  0  0  0
 16 30  1  0  0  0  0
 17 19  2  0  0  0  0
 17 35  1  0  0  0  0
 18 20  2  0  0  0  0
 18 36  1  0  0  0  0
 19 44  1  0  0  0  0
 20 37  1  0  0  0  0
 21 82  1  0  0  0  0
 22 83  1  0  0  0  0
 23 25  2  0  0  0  0
 23 82  1  0  0  0  0
 24 84  1  0  0  0  0
 25 85  1  0  0  0  0
 26 64  2  0  0  0  0
 27 67  1  0  0  0  0
 27 71  1  0  0  0  0
 28 62  1  0  0  0  0
 28 65  1  0  0  0  0
 28 66  2  0  0  0  0
 29 47  1  0  0  0  0
 29 65  2  0  0  0  0
 29 68  1  0  0  0  0
 30 72  1  0  0  0  0
 30 77  2  0  0  0  0
 31 45  1  0  0  0  0
 31 73  1  0  0  0  0
 31 78  2  0  0  0  0
 32 60  1  0  0  0  0
 32 69  1  0  0  0  0
 32 79  2  0  0  0  0
 33 61  1  0  0  0  0
 33 74  1  0  0  0  0
 33 80  2  0  0  0  0
 34 70  1  0  0  0  0
 34 75  1  0  0  0  0
 34 81  2  0  0  0  0
 35 38  1  0  0  0  0
 36 45  1  0  0  0  0
 37 69  1  0  0  0  0
 38 40  1  0  0  0  0
 39 41  1  0  0  0  0
 39 42  1  0  0  0  0
 40 44  1  0  0  0  0
 41 46  1  0  0  0  0
 42 70  1  0  0  0  0
 43 46  1  0  0  0  0
 43 70  1  0  0  0  0
 44 73  1  0  0  0  0
 45 69  1  0  0  0  0
 46 67  1  0  0  0  0
 48 61  1  0  0  0  0
 49 62  1  0  0  0  0
 50 62  1  0  0  0  0
 51 63  1  0  0  0  0
 52 63  1  0  0  0  0
 53 63  1  0  0  0  0
 54 76  1  0  0  0  0
 55 56  1  0  0  0  0
 55 57  1  0  0  0  0
 56 59  1  0  0  0  0
 57 68  1  0  0  0  0
 58 62  1  0  0  0  0
 58 75  1  0  0  0  0
 59 83  1  0  0  0  0
 60 63  1  0  0  0  0
 60 74  1  0  0  0  0
 61 76  1  0  0  0  0
 64 67  1  0  0  0  0
 66 68  1  0  0  0  0
M  CHG  1  76   1
M  ISO  4  34 100  59 101  75 100  83 101
M  END
> <Batch ID>
0076

> <Smiles>
CNC(C)C(=O)NC(C(=O)N1Cc2cc([101O:1][101CH2:1]CCCn3nc(C(C)(C)C[100NH:0][100C:0](=O)N4CCCC(n5nc(-c6ccc(Oc7ccc(F)cc7F)cc6)c(C(N)=O)c5N)C4)nc3C)ccc2CC1C(=O)NC1CCCc2ccccc21)C(C)(C)C

> <Shape>
0.158

> <Color>
0.138

> <Negative vol penalty>
0.000

$$$$

  -OEChem-04052318343D

 87 95  0     1  0  0  0  0  0999 V2000
  -21.9540  -11.1797   21.3797 C   0  0  0  0  0  0  0  0  0  0  0  0
  -21.8734  -12.4871   21.8482 C   0  0  0  0  0  0  0  0  0  0  0  0
  -29.7082  -26.4125   20.1584 C   0  0  0  0  0  0  0  0  0  0  0  0
  -29.1646  -26.2125   22.5039 C   0  0  0  0  0  0  0  0  0  0  0  0
  -23.1545  -10.7006   20.8569 C   0  0  0  0  0  0  0  0  0  0  0  0
  -22.9935  -13.3159   21.7952 C   0  0  0  0  0  0  0  0  0  0  0  0
  -21.8978  -17.9562   20.0886 C   0  0  0  0  0  0  0  0  0  0  0  0
  -31.0350  -26.0854   20.4379 C   0  0  0  0  0  0  0  0  0  0  0  0
  -30.4914  -25.8853   22.7835 C   0  0  0  0  0  0  0  0  0  0  0  0
  -21.2963  -18.8386   20.9848 C   0  0  0  0  0  0  0  0  0  0  0  0
  -32.4862  -23.1671   22.5549 C   0  0  0  0  0  0  0  0  0  0  0  0
  -32.7202  -22.0960   23.4172 C   0  0  0  0  0  0  0  0  0  0  0  0
  -23.4326  -19.8888   21.3753 C   0  0  0  0  0  0  0  0  0  0  0  0
  -33.8913  -23.5706   24.9309 C   0  0  0  0  0  0  0  0  0  0  0  0
  -28.7730  -26.4761   21.1914 C   0  0  0  0  0  0  0  0  0  0  0  0
  -26.3565  -25.9274   20.5854 C   0  0  0  0  0  0  0  0  0  0  0  0
  -24.2872  -11.5269   20.7885 C   0  0  0  0  0  0  0  0  0  0  0  0
  -23.2756  -18.0265   19.8368 C   0  0  0  0  0  0  0  0  0  0  0  0
  -24.2106  -12.8470   21.2722 C   0  0  0  0  0  0  0  0  0  0  0  0
  -24.0488  -19.0077   20.4735 C   0  0  0  0  0  0  0  0  0  0  0  0
  -20.4325  -24.8889   22.5011 C   0  0  0  0  0  0  0  0  0  0  0  0
  -31.4266  -25.8218   21.7505 C   0  0  0  0  0  0  0  0  0  0  0  0
  -22.0642  -19.8032   21.6305 C   0  0  0  0  0  0  0  0  0  0  0  0
  -32.9549  -24.4399   22.8805 C   0  0  0  0  0  0  0  0  0  0  0  0
  -33.4227  -22.2977   24.6053 C   0  0  0  0  0  0  0  0  0  0  0  0
  -33.6574  -24.6416   24.0685 C   0  0  0  0  0  0  0  0  0  0  0  0
  -27.4023  -26.8145   20.9033 C   0  0  0  0  0  0  0  0  0  0  0  0
  -19.3160  -25.5723   22.0644 C   0  0  0  0  0  0  0  0  0  0  0  0
  -21.2595  -25.5835   23.3601 C   0  0  0  0  0  0  0  0  0  0  0  0
  -25.2628  -26.7377   20.4020 C   0  0  0  0  0  0  0  0  0  0  0  0
  -19.9035  -27.4058   23.2728 C   0  0  0  0  0  0  0  0  0  0  0  0
  -26.3722  -24.4986   20.4667 C   0  0  0  0  0  0  0  0  0  0  0  0
  -25.7334  -16.0520   20.2417 C   0  0  0  0  0  0  0  0  0  0  0  0
  -27.3567  -18.3736   18.6614 C   0  0  0  0  0  0  0  0  0  0  0  0
  -27.1972  -21.2867   17.4789 C   0  0  0  0  0  0  0  0  0  0  0  0
  -22.0603  -31.0238   21.9891 C   0  0  0  0  0  0  0  0  0  0  0  0
  -25.5759  -10.9498   20.2586 C   0  0  0  0  0  0  0  0  0  0  0  0
  -23.9046  -17.0845   18.8471 C   0  0  0  0  0  0  0  0  0  0  0  0
  -25.5281  -19.1380   20.2226 C   0  0  0  0  0  0  0  0  0  0  0  0
  -26.6128  -12.0088   19.8932 C   0  0  0  0  0  0  0  0  0  0  0  0
  -24.9223  -31.7691   20.0067 C   0  0  0  0  0  0  0  0  0  0  0  0
  -26.7270  -13.0493   21.0028 C   0  0  0  0  0  0  0  0  0  0  0  0
  -25.7388  -30.4760   20.0423 C   0  0  0  0  0  0  0  0  0  0  0  0
  -24.2269  -32.0343   21.3401 C   0  0  0  0  0  0  0  0  0  0  0  0
  -24.2134  -29.6283   21.8735 C   0  0  0  0  0  0  0  0  0  0  0  0
  -25.3970  -13.7843   21.2088 C   0  0  1  0  0  0  0  0  0  0  0  0
  -25.4062  -16.9142   19.0555 C   0  0  1  0  0  0  0  0  0  0  0  0
  -24.8882  -29.2891   20.5334 C   0  0  2  0  0  0  0  0  0  0  0  0
  -18.3480  -24.9214   21.1318 C   0  0  0  0  0  0  0  0  0  0  0  0
  -24.3393  -25.0783   25.6328 C   0  0  0  0  0  0  0  0  0  0  0  0
  -28.1780  -23.3868   16.5170 C   0  0  0  0  0  0  0  0  0  0  0  0
  -19.1908  -29.6390   21.3468 C   0  0  0  0  0  0  0  0  0  0  0  0
  -29.3410  -18.3898   20.9792 C   0  0  0  0  0  0  0  0  0  0  0  0
  -30.1880  -20.5940   20.1473 C   0  0  0  0  0  0  0  0  0  0  0  0
  -30.3832  -18.5628   18.7124 C   0  0  0  0  0  0  0  0  0  0  0  0
  -25.6158  -21.0239   14.9911 C   0  0  0  0  0  0  0  0  0  0  0  0
  -20.7282  -23.4749   22.0690 C   0  0  0  0  0  0  0  0  0  0  0  0
  -22.4988  -24.9469   23.8977 C   0  0  0  0  0  0  0  0  0  0  0  0
  -19.6083  -28.8025   23.7035 C   0  0  0  0  0  0  0  0  0  0  0  0
  -23.0968  -25.7457   25.0648 C   0  0  0  0  0  0  0  0  0  0  0  0
  -19.8686  -22.4231   22.7735 C   0  0  0  0  0  0  0  0  0  0  0  0
  -20.1143  -21.0059   22.2689 C   0  0  0  0  0  0  0  0  0  1  0  0
  -28.1123  -19.6157   19.0678 C   0  0  1  0  0  0  0  0  0  0  0  0
  -27.5476  -22.0380   16.2071 C   0  0  2  0  0  0  0  0  0  0  0  0
  -19.9644  -29.8661   22.6418 C   0  0  1  0  0  0  0  0  0  0  0  0
  -29.4786  -19.2871   19.7331 C   0  0  0  0  0  0  0  0  0  0  0  0
  -27.0085  -28.0906   20.9214 N   0  0  0  0  0  0  0  0  0  0  0  0
  -19.0196  -26.8363   22.4315 N   0  0  0  0  0  0  0  0  0  0  0  0
  -21.0247  -26.8479   23.7681 N   0  0  0  0  0  0  0  0  0  0  0  0
  -25.7030  -28.0113   20.6125 N   0  0  0  0  0  0  0  0  0  0  0  0
  -26.0980  -18.1899   19.2511 N   0  0  0  0  0  0  0  0  0  0  0  0
  -23.4358  -30.8711   21.7485 N   0  0  0  0  0  0  0  0  0  0  0  0
  -23.9771  -26.4779   20.0826 N   0  0  0  0  0  0  0  0  0  0  0  0
  -27.5800  -23.8230   20.6883 N   0  0  0  0  0  0  0  0  0  0  0  0
  -25.2030  -14.7778   20.1745 N   0  0  0  0  0  0  0  0  0  0  0  0
  -28.2144  -20.4418   17.8696 N   0  0  0  0  0  0  0  0  0  0  0  0
  -21.3838  -29.8701   22.3659 N   0  0  0  0  0  0  0  0  0  0  0  0
  -26.3243  -22.2680   15.3877 N   0  3  0  0  0  0  0  0  0  0  0  0
  -25.3493  -23.8420   20.1569 O   0  0  0  0  0  0  0  0  0  0  0  0
  -26.4178  -16.5084   21.1500 O   0  0  0  0  0  0  0  0  0  0  0  0
  -27.8615  -17.5986   17.8451 O   0  0  0  0  0  0  0  0  0  0  0  0
  -26.1296  -21.4374   18.0689 O   0  0  0  0  0  0  0  0  0  0  0  0
  -21.4773  -32.1070   21.8714 O   0  0  0  0  0  0  0  0  0  0  0  0
  -32.7212  -25.5024   22.0236 O   0  0  0  0  0  0  0  0  0  0  0  0
  -21.4797  -20.6654   22.5062 O   0  0  0  0  0  0  0  0  0  1  0  0
  -33.6459  -21.2694   25.4340 F   0  0  0  0  0  0  0  0  0  0  0  0
  -34.1091  -25.8623   24.3873 F   0  0  0  0  0  0  0  0  0  0  0  0
  1  2  1  0  0  0  0
  1  5  2  0  0  0  0
  2  6  2  0  0  0  0
  3  8  2  0  0  0  0
  3 15  1  0  0  0  0
  4  9  1  0  0  0  0
  4 15  2  0  0  0  0
  5 17  1  0  0  0  0
  6 19  1  0  0  0  0
  7 10  2  0  0  0  0
  7 18  1  0  0  0  0
  8 22  1  0  0  0  0
  9 22  2  0  0  0  0
 10 23  1  0  0  0  0
 11 12  2  0  0  0  0
 11 24  1  0  0  0  0
 12 25  1  0  0  0  0
 13 20  1  0  0  0  0
 13 23  2  0  0  0  0
 14 25  2  0  0  0  0
 14 26  1  0  0  0  0
 15 27  1  0  0  0  0
 16 27  1  0  0  0  0
 16 30  2  0  0  0  0
 16 32  1  0  0  0  0
 17 19  2  0  0  0  0
 17 37  1  0  0  0  0
 18 20  2  0  0  0  0
 18 38  1  0  0  0  0
 19 46  1  0  0  0  0
 20 39  1  0  0  0  0
 21 28  1  0  0  0  0
 21 29  2  0  0  0  0
 21 57  1  0  0  0  0
 22 84  1  0  0  0  0
 23 85  1  0  0  0  0
 24 26  2  0  0  0  0
 24 84  1  0  0  0  0
 25 86  1  0  0  0  0
 26 87  1  0  0  0  0
 27 67  2  0  0  0  0
 28 49  1  0  0  0  0
 28 68  2  0  0  0  0
 29 58  1  0  0  0  0
 29 69  1  0  0  0  0
 30 70  1  0  0  0  0
 30 73  1  0  0  0  0
 31 59  1  0  0  0  0
 31 68  1  0  0  0  0
 31 69  2  0  0  0  0
 32 74  1  0  0  0  0
 32 79  2  0  0  0  0
 33 47  1  0  0  0  0
 33 75  1  0  0  0  0
 33 80  2  0  0  0  0
 34 63  1  0  0  0  0
 34 71  1  0  0  0  0
 34 81  2  0  0  0  0
 35 64  1  0  0  0  0
 35 76  1  0  0  0  0
 35 82  2  0  0  0  0
 36 72  1  0  0  0  0
 36 77  1  0  0  0  0
 36 83  2  0  0  0  0
 37 40  1  0  0  0  0
 38 47  1  0  0  0  0
 39 71  1  0  0  0  0
 40 42  1  0  0  0  0
 41 43  1  0  0  0  0
 41 44  1  0  0  0  0
 42 46  1  0  0  0  0
 43 48  1  0  0  0  0
 44 72  1  0  0  0  0
 45 48  1  0  0  0  0
 45 72  1  0  0  0  0
 46 75  1  0  0  0  0
 47 71  1  0  0  0  0
 48 70  1  0  0  0  0
 50 60  1  0  0  0  0
 51 64  1  0  0  0  0
 52 65  1  0  0  0  0
 53 66  1  0  0  0  0
 54 66  1  0  0  0  0
 55 66  1  0  0  0  0
 56 78  1  0  0  0  0
 57 61  1  0  0  0  0
 58 60  1  0  0  0  0
 59 65  1  0  0  0  0
 61 62  1  0  0  0  0
 62 85  1  0  0  0  0
 63 66  1  0  0  0  0
 63 76  1  0  0  0  0
 64 78  1  0  0  0  0
 65 77  1  0  0  0  0
 67 70  1  0  0  0  0
M  CHG  1  78   1
M  ISO  4  36 100  62 101  77 100  85 101
M  END
> <Batch ID>
0076

> <Smiles>
CCCc1nc(CC(C)[100NH:0][100C:0](=O)N2CCCC(n3nc(-c4ccc(Oc5ccc(F)cc5F)cc4)c(C(N)=O)c3N)C2)nc(C)c1CC[101CH2:1][101O:1]c1ccc2c(c1)CN(C(=O)C(NC(=O)C(C)NC)C(C)(C)C)C(C(=O)NC1CCCc3ccccc31)C2

> <Shape>
0.225

> <Color>
0.064

> <Negative vol penalty>
0.000

$$$$

  -OEChem-04052318343D

 85 93  0     1  0  0  0  0  0999 V2000
  -42.1102  -15.8411   15.2056 C   0  0  0  0  0  0  0  0  0  0  0  0
  -40.8837  -16.4369   15.4816 C   0  0  0  0  0  0  0  0  0  0  0  0
  -23.2869   -9.7970   19.9147 C   0  0  0  0  0  0  0  0  0  0  0  0
  -23.7406   -9.9390   22.2834 C   0  0  0  0  0  0  0  0  0  0  0  0
  -42.4050  -14.5818   15.7264 C   0  0  0  0  0  0  0  0  0  0  0  0
  -39.9509  -15.7732   16.2777 C   0  0  0  0  0  0  0  0  0  0  0  0
  -36.0233  -18.3062   20.2355 C   0  0  0  0  0  0  0  0  0  0  0  0
  -22.5620   -8.6239   20.1238 C   0  0  0  0  0  0  0  0  0  0  0  0
  -23.0156   -8.7659   22.4926 C   0  0  0  0  0  0  0  0  0  0  0  0
  -34.6732  -18.6389   20.1342 C   0  0  0  0  0  0  0  0  0  0  0  0
  -19.7697   -7.8516   22.7144 C   0  0  0  0  0  0  0  0  0  0  0  0
  -18.8688   -7.8295   23.7790 C   0  0  0  0  0  0  0  0  0  0  0  0
  -34.0849  -16.5424   21.1724 C   0  0  0  0  0  0  0  0  0  0  0  0
  -20.0776   -5.9839   24.7637 C   0  0  0  0  0  0  0  0  0  0  0  0
  -23.8763  -10.4546   20.9945 C   0  0  0  0  0  0  0  0  0  0  0  0
  -24.1329  -12.9848   20.7946 C   0  0  0  0  0  0  0  0  0  0  0  0
  -41.4792  -13.9066   16.5373 C   0  0  0  0  0  0  0  0  0  0  0  0
  -36.4146  -17.0823   20.7971 C   0  0  0  0  0  0  0  0  0  0  0  0
  -40.2331  -14.5032   16.8088 C   0  0  0  0  0  0  0  0  0  0  0  0
  -35.4407  -16.1977   21.2820 C   0  0  0  0  0  0  0  0  0  0  0  0
  -22.4263   -8.1083   21.4128 C   0  0  0  0  0  0  0  0  0  0  0  0
  -33.7036  -17.7557   20.6001 C   0  0  0  0  0  0  0  0  0  0  0  0
  -20.8247   -6.9399   22.6744 C   0  0  0  0  0  0  0  0  0  0  0  0
  -19.0227   -6.8956   24.8036 C   0  0  0  0  0  0  0  0  0  0  0  0
  -20.9786   -6.0060   23.6991 C   0  0  0  0  0  0  0  0  0  0  0  0
  -24.6257  -11.6662   20.7790 C   0  0  0  0  0  0  0  0  0  0  0  0
  -25.2332  -13.7657   20.5379 C   0  0  0  0  0  0  0  0  0  0  0  0
  -29.6201  -18.6320   25.2468 C   0  0  0  0  0  0  0  0  0  0  0  0
  -30.6250  -16.7902   24.6927 C   0  0  0  0  0  0  0  0  0  0  0  0
  -22.7996  -13.4612   21.0209 C   0  0  0  0  0  0  0  0  0  0  0  0
  -37.9813  -14.5273   19.7382 C   0  0  0  0  0  0  0  0  0  0  0  0
  -37.7746  -13.5984   22.8393 C   0  0  0  0  0  0  0  0  0  0  0  0
  -36.1500  -13.8319   25.8315 C   0  0  0  0  0  0  0  0  0  0  0  0
  -31.1061  -12.9289   21.3504 C   0  0  0  0  0  0  0  0  0  0  0  0
  -41.8241  -12.5266   17.0386 C   0  0  0  0  0  0  0  0  0  0  0  0
  -37.8761  -16.7500   20.9234 C   0  0  0  0  0  0  0  0  0  0  0  0
  -35.8093  -14.8801   21.9118 C   0  0  0  0  0  0  0  0  0  0  0  0
  -40.9297  -12.0525   18.1813 C   0  0  0  0  0  0  0  0  0  0  0  0
  -29.4526  -13.6654   18.2844 C   0  0  0  0  0  0  0  0  0  0  0  0
  -39.4636  -12.3238   17.8595 C   0  0  0  0  0  0  0  0  0  0  0  0
  -27.9835  -13.3556   18.5775 C   0  0  0  0  0  0  0  0  0  0  0  0
  -30.3877  -12.6872   18.9920 C   0  0  0  0  0  0  0  0  0  0  0  0
  -28.7037  -12.2569   20.7392 C   0  0  0  0  0  0  0  0  0  0  0  0
  -39.2050  -13.8256   17.6886 C   0  0  1  0  0  0  0  0  0  0  0  0
  -38.1400  -15.2523   21.0447 C   0  0  1  0  0  0  0  0  0  0  0  0
  -27.7240  -13.2508   20.0924 C   0  0  2  0  0  0  0  0  0  0  0  0
  -28.8043  -19.8547   25.1405 C   0  0  0  0  0  0  0  0  0  0  0  0
  -36.1897  -12.9241   28.1707 C   0  0  0  0  0  0  0  0  0  0  0  0
  -36.5415  -10.9904   21.8455 C   0  0  0  0  0  0  0  0  0  0  0  0
  -35.7483  -10.5569   24.1803 C   0  0  0  0  0  0  0  0  0  0  0  0
  -38.1917  -10.7219   23.7054 C   0  0  0  0  0  0  0  0  0  0  0  0
  -29.5168  -18.6113   20.3978 C   0  0  0  0  0  0  0  0  0  0  0  0
  -30.8161  -19.8770   22.1109 C   0  0  0  0  0  0  0  0  0  0  0  0
  -36.6084  -16.5166   26.9897 C   0  0  0  0  0  0  0  0  0  0  0  0
  -31.0955  -15.6568   23.8767 C   0  0  0  0  0  0  0  0  0  0  0  0
  -31.2210  -14.3113   24.6336 C   0  0  0  0  0  0  0  0  0  0  0  0
  -29.3096  -17.9233   22.7918 C   0  0  0  0  0  0  0  0  0  0  0  0
  -31.6708  -13.1441   23.7574 C   0  0  0  0  0  0  0  0  0  0  0  0
  -31.5114  -17.5491   21.4986 C   0  0  0  0  0  0  0  0  0  1  0  0
  -36.7753  -12.8156   23.6565 C   0  0  1  0  0  0  0  0  0  0  0  0
  -36.6662  -14.0326   27.2449 C   0  0  2  0  0  0  0  0  0  0  0  0
  -36.8068  -11.2951   23.3334 C   0  0  0  0  0  0  0  0  0  0  0  0
  -30.2990  -18.4792   21.7243 C   0  0  0  0  0  0  0  0  0  0  0  0
  -25.9371  -11.6088   20.5318 N   0  0  0  0  0  0  0  0  0  0  0  0
  -30.2393  -18.1833   26.3153 N   0  0  0  0  0  0  0  0  0  0  0  0
  -30.8786  -17.0115   25.9628 N   0  0  0  0  0  0  0  0  0  0  0  0
  -26.2775  -12.9010   20.3896 N   0  0  0  0  0  0  0  0  0  0  0  0
  -29.8360  -17.7858   24.2018 N   0  0  0  0  0  0  0  0  0  0  0  0
  -37.2511  -14.5979   22.0069 N   0  0  0  0  0  0  0  0  0  0  0  0
  -30.0903  -12.6361   20.4255 N   0  0  0  0  0  0  0  0  0  0  0  0
  -25.3997  -15.1007   20.4267 N   0  0  0  0  0  0  0  0  0  0  0  0
  -21.7883  -12.5233   21.2700 N   0  0  0  0  0  0  0  0  0  0  0  0
  -39.1349  -14.4765   18.9793 N   0  0  0  0  0  0  0  0  0  0  0  0
  -37.0502  -13.1355   25.0531 N   0  0  0  0  0  0  0  0  0  0  0  0
  -30.7382  -12.8635   22.6887 N   0  0  0  0  0  0  0  0  0  0  0  0
  -36.1916  -15.3361   27.7895 N   0  3  0  0  0  0  0  0  0  0  0  0
  -22.5105  -14.6813   20.9864 O   0  0  0  0  0  0  0  0  0  0  0  0
  -36.8932  -14.0481   19.4414 O   0  0  0  0  0  0  0  0  0  0  0  0
  -38.9759  -13.3376   22.9413 O   0  0  0  0  0  0  0  0  0  0  0  0
  -35.0560  -14.2479   25.4566 O   0  0  0  0  0  0  0  0  0  0  0  0
  -32.2544  -13.2317   21.0086 O   0  0  0  0  0  0  0  0  0  0  0  0
  -21.7188   -6.9637   21.6172 O   0  0  0  0  0  0  0  0  0  0  0  0
  -32.3851  -18.0777   20.5018 O   0  0  0  0  0  0  0  0  0  1  0  0
  -18.1583   -6.8755   25.8267 F   0  0  0  0  0  0  0  0  0  0  0  0
  -21.9908   -5.1284   23.6667 F   0  0  0  0  0  0  0  0  0  0  0  0
  1  2  1  0  0  0  0
  1  5  2  0  0  0  0
  2  6  2  0  0  0  0
  3  8  2  0  0  0  0
  3 15  1  0  0  0  0
  4  9  1  0  0  0  0
  4 15  2  0  0  0  0
  5 17  1  0  0  0  0
  6 19  1  0  0  0  0
  7 10  2  0  0  0  0
  7 18  1  0  0  0  0
  8 21  1  0  0  0  0
  9 21  2  0  0  0  0
 10 22  1  0  0  0  0
 11 12  2  0  0  0  0
 11 23  1  0  0  0  0
 12 24  1  0  0  0  0
 13 20  1  0  0  0  0
 13 22  2  0  0  0  0
 14 24  2  0  0  0  0
 14 25  1  0  0  0  0
 15 26  1  0  0  0  0
 16 26  1  0  0  0  0
 16 27  2  0  0  0  0
 16 30  1  0  0  0  0
 17 19  2  0  0  0  0
 17 35  1  0  0  0  0
 18 20  2  0  0  0  0
 18 36  1  0  0  0  0
 19 44  1  0  0  0  0
 20 37  1  0  0  0  0
 21 82  1  0  0  0  0
 22 83  1  0  0  0  0
 23 25  2  0  0  0  0
 23 82  1  0  0  0  0
 24 84  1  0  0  0  0
 25 85  1  0  0  0  0
 26 64  2  0  0  0  0
 27 67  1  0  0  0  0
 27 71  1  0  0  0  0
 28 47  1  0  0  0  0
 28 65  2  0  0  0  0
 28 68  1  0  0  0  0
 29 55  1  0  0  0  0
 29 66  2  0  0  0  0
 29 68  1  0  0  0  0
 30 72  1  0  0  0  0
 30 77  2  0  0  0  0
 31 45  1  0  0  0  0
 31 73  1  0  0  0  0
 31 78  2  0  0  0  0
 32 60  1  0  0  0  0
 32 69  1  0  0  0  0
 32 79  2  0  0  0  0
 33 61  1  0  0  0  0
 33 74  1  0  0  0  0
 33 80  2  0  0  0  0
 34 70  1  0  0  0  0
 34 75  1  0  0  0  0
 34 81  2  0  0  0  0
 35 38  1  0  0  0  0
 36 45  1  0  0  0  0
 37 69  1  0  0  0  0
 38 40  1  0  0  0  0
 39 41  1  0  0  0  0
 39 42  1  0  0  0  0
 40 44  1  0  0  0  0
 41 46  1  0  0  0  0
 42 70  1  0  0  0  0
 43 46  1  0  0  0  0
 43 70  1  0  0  0  0
 44 73  1  0  0  0  0
 45 69  1  0  0  0  0
 46 67  1  0  0  0  0
 48 61  1  0  0  0  0
 49 62  1  0  0  0  0
 50 62  1  0  0  0  0
 51 62  1  0  0  0  0
 52 63  1  0  0  0  0
 53 63  1  0  0  0  0
 54 76  1  0  0  0  0
 55 56  1  0  0  0  0
 56 58  1  0  0  0  0
 57 63  1  0  0  0  0
 57 68  1  0  0  0  0
 58 75  1  0  0  0  0
 59 63  1  0  0  0  0
 59 83  1  0  0  0  0
 60 62  1  0  0  0  0
 60 74  1  0  0  0  0
 61 76  1  0  0  0  0
 64 67  1  0  0  0  0
 65 66  1  0  0  0  0
M  CHG  1  76   1
M  ISO  4  34 100  59 101  75 100  83 101
M  END
> <Batch ID>
0076

> <Smiles>
CNC(C)C(=O)NC(C(=O)N1Cc2cc([101O:1][101CH2:1]C(C)(C)Cn3c(C)nnc3CCC[100NH:0][100C:0](=O)N3CCCC(n4nc(-c5ccc(Oc6ccc(F)cc6F)cc5)c(C(N)=O)c4N)C3)ccc2CC1C(=O)NC1CCCc2ccccc21)C(C)(C)C

> <Shape>
0.159

> <Color>
0.170

> <Negative vol penalty>
0.000

$$$$

  -OEChem-04052318343D

 86 94  0     1  0  0  0  0  0999 V2000
  -27.1584  -17.7774   15.5309 C   0  0  0  0  0  0  0  0  0  0  0  0
  -26.8924  -18.1487   16.8449 C   0  0  0  0  0  0  0  0  0  0  0  0
  -23.0765   -9.8602   19.9461 C   0  0  0  0  0  0  0  0  0  0  0  0
  -23.8360   -9.8782   22.2395 C   0  0  0  0  0  0  0  0  0  0  0  0
  -28.4752  -17.7242   15.0756 C   0  0  0  0  0  0  0  0  0  0  0  0
  -27.9432  -18.4661   17.7049 C   0  0  0  0  0  0  0  0  0  0  0  0
  -29.5424  -22.7425   23.2250 C   0  0  0  0  0  0  0  0  0  0  0  0
  -22.3365   -8.7055   20.2002 C   0  0  0  0  0  0  0  0  0  0  0  0
  -23.0960   -8.7235   22.4937 C   0  0  0  0  0  0  0  0  0  0  0  0
  -30.0689  -22.6851   24.5147 C   0  0  0  0  0  0  0  0  0  0  0  0
  -19.9606   -5.9576   20.3384 C   0  0  0  0  0  0  0  0  0  0  0  0
  -18.6551   -5.9034   19.8501 C   0  0  0  0  0  0  0  0  0  0  0  0
  -32.2987  -22.6351   23.5956 C   0  0  0  0  0  0  0  0  0  0  0  0
  -18.0832   -7.8492   21.1631 C   0  0  0  0  0  0  0  0  0  0  0  0
  -33.5288  -19.8767   25.8060 C   0  0  0  0  0  0  0  0  0  0  0  0
  -23.8263  -10.4466   20.9657 C   0  0  0  0  0  0  0  0  0  0  0  0
  -24.1597  -12.9724   20.8365 C   0  0  0  0  0  0  0  0  0  0  0  0
  -29.5421  -18.0505   15.9276 C   0  0  0  0  0  0  0  0  0  0  0  0
  -30.3911  -22.7356   22.1087 C   0  0  0  0  0  0  0  0  0  0  0  0
  -29.2756  -18.4160   17.2610 C   0  0  0  0  0  0  0  0  0  0  0  0
  -31.7806  -22.6951   22.2929 C   0  0  0  0  0  0  0  0  0  0  0  0
  -22.3462   -8.1371   21.4740 C   0  0  0  0  0  0  0  0  0  0  0  0
  -31.4471  -22.6284   24.7001 C   0  0  0  0  0  0  0  0  0  0  0  0
  -20.3274   -6.9576   21.2391 C   0  0  0  0  0  0  0  0  0  0  0  0
  -17.7164   -6.8492   20.2624 C   0  0  0  0  0  0  0  0  0  0  0  0
  -19.3887   -7.9034   21.6514 C   0  0  0  0  0  0  0  0  0  0  0  0
  -24.5914  -11.6391   20.7037 C   0  0  0  0  0  0  0  0  0  0  0  0
  -33.7924  -18.9112   24.8559 C   0  0  0  0  0  0  0  0  0  0  0  0
  -32.3295  -19.7438   26.4756 C   0  0  0  0  0  0  0  0  0  0  0  0
  -25.2493  -13.7242   20.4706 C   0  0  0  0  0  0  0  0  0  0  0  0
  -31.8197  -17.8700   25.2939 C   0  0  0  0  0  0  0  0  0  0  0  0
  -22.8874  -13.4855   21.2533 C   0  0  0  0  0  0  0  0  0  0  0  0
  -30.8219  -20.7926   19.6303 C   0  0  0  0  0  0  0  0  0  0  0  0
  -32.8396  -23.1332   18.6440 C   0  0  0  0  0  0  0  0  0  0  0  0
  -34.8414  -25.7709   19.4700 C   0  0  0  0  0  0  0  0  0  0  0  0
  -30.7296  -14.7624   20.6559 C   0  0  0  0  0  0  0  0  0  0  0  0
  -30.9515  -17.9328   15.4039 C   0  0  0  0  0  0  0  0  0  0  0  0
  -29.8085  -22.8250   20.7249 C   0  0  0  0  0  0  0  0  0  0  0  0
  -32.7355  -22.7058   21.1283 C   0  0  0  0  0  0  0  0  0  0  0  0
  -31.9852  -18.6467   16.2712 C   0  0  0  0  0  0  0  0  0  0  0  0
  -29.6004  -12.3653   18.2778 C   0  0  0  0  0  0  0  0  0  0  0  0
  -31.7660  -18.3161   17.7441 C   0  0  0  0  0  0  0  0  0  0  0  0
  -28.1639  -12.0684   18.7116 C   0  0  0  0  0  0  0  0  0  0  0  0
  -30.5166  -12.5937   19.4780 C   0  0  0  0  0  0  0  0  0  0  0  0
  -28.6122  -13.3234   20.8616 C   0  0  0  0  0  0  0  0  0  0  0  0
  -30.3870  -18.7916   18.2170 C   0  0  1  0  0  0  0  0  0  0  0  0
  -30.7468  -22.2932   19.6460 C   0  0  1  0  0  0  0  0  0  0  0  0
  -27.6388  -13.1412   19.6845 C   0  0  2  0  0  0  0  0  0  0  0  0
  -35.0656  -18.9711   24.0804 C   0  0  0  0  0  0  0  0  0  0  0  0
  -36.3921  -27.4613   18.4527 C   0  0  0  0  0  0  0  0  0  0  0  0
  -28.6322  -18.2108   22.1328 C   0  0  0  0  0  0  0  0  0  0  0  0
  -30.8464  -22.9570   28.0407 C   0  0  0  0  0  0  0  0  0  0  0  0
  -34.9917  -20.9882   18.3660 C   0  0  0  0  0  0  0  0  0  0  0  0
  -36.7027  -22.8141   18.2839 C   0  0  0  0  0  0  0  0  0  0  0  0
  -34.9495  -22.6696   16.5152 C   0  0  0  0  0  0  0  0  0  0  0  0
  -33.1606  -28.0311   20.3786 C   0  0  0  0  0  0  0  0  0  0  0  0
  -31.9535  -20.7519   27.5357 C   0  0  0  0  0  0  0  0  0  0  0  0
  -30.8718  -16.7538   25.0125 C   0  0  0  0  0  0  0  0  0  0  0  0
  -29.6349  -17.1560   24.1844 C   0  0  0  0  0  0  0  0  0  0  0  0
  -30.7880  -16.9177   21.8849 C   0  0  0  0  0  0  0  0  0  0  0  0
  -34.3065  -23.4322   18.8383 C   0  0  1  0  0  0  0  0  0  0  0  0
  -34.9637  -27.1653   18.8826 C   0  0  2  0  0  0  0  0  0  0  0  0
  -29.9433  -17.8014   22.8155 C   0  0  1  0  0  0  0  0  0  0  0  0
  -31.1694  -21.9351   26.9580 C   0  0  2  0  0  0  0  0  0  1  0  0
  -35.2198  -22.4738   18.0230 C   0  0  0  0  0  0  0  0  0  0  0  0
  -25.8567  -11.5460   20.2860 N   0  0  0  0  0  0  0  0  0  0  0  0
  -32.9571  -17.8901   24.5731 N   0  0  0  0  0  0  0  0  0  0  0  0
  -31.4478  -18.7491   26.2439 N   0  0  0  0  0  0  0  0  0  0  0  0
  -26.2293  -12.8303   20.1530 N   0  0  0  0  0  0  0  0  0  0  0  0
  -32.1170  -22.7878   19.7948 N   0  0  0  0  0  0  0  0  0  0  0  0
  -29.9624  -13.6236   20.3601 N   0  0  0  0  0  0  0  0  0  0  0  0
  -25.4553  -15.0561   20.3927 N   0  0  0  0  0  0  0  0  0  0  0  0
  -21.8785  -12.5741   21.5938 N   0  0  0  0  0  0  0  0  0  0  0  0
  -30.3963  -20.2204   18.4467 N   0  0  0  0  0  0  0  0  0  0  0  0
  -34.4817  -24.8439   18.5147 N   0  0  0  0  0  0  0  0  0  0  0  0
  -30.1272  -15.6923   21.4944 N   0  0  0  0  0  0  0  0  0  0  0  0
  -34.5534  -28.1879   19.8860 N   0  3  0  0  0  0  0  0  0  0  0  0
  -22.6470  -14.7155   21.3061 O   0  0  0  0  0  0  0  0  0  0  0  0
  -31.2367  -20.1980   20.6182 O   0  0  0  0  0  0  0  0  0  0  0  0
  -32.3512  -23.2105   17.5139 O   0  0  0  0  0  0  0  0  0  0  0  0
  -35.0481  -25.5276   20.6569 O   0  0  0  0  0  0  0  0  0  0  0  0
  -31.8650  -14.9401   20.2018 O   0  0  0  0  0  0  0  0  0  0  0  0
  -21.6240   -7.0105   21.7224 O   0  0  0  0  0  0  0  0  0  0  0  0
  -31.9636  -22.5717   25.9578 O   0  0  0  0  0  0  0  0  0  1  0  0
  -16.4633   -6.7980   19.7922 F   0  0  0  0  0  0  0  0  0  0  0  0
  -19.7355   -8.8671   22.5156 F   0  0  0  0  0  0  0  0  0  0  0  0
  1  2  1  0  0  0  0
  1  5  2  0  0  0  0
  2  6  2  0  0  0  0
  3  8  2  0  0  0  0
  3 16  1  0  0  0  0
  4  9  1  0  0  0  0
  4 16  2  0  0  0  0
  5 18  1  0  0  0  0
  6 20  1  0  0  0  0
  7 10  2  0  0  0  0
  7 19  1  0  0  0  0
  8 22  1  0  0  0  0
  9 22  2  0  0  0  0
 10 23  1  0  0  0  0
 11 12  2  0  0  0  0
 11 24  1  0  0  0  0
 12 25  1  0  0  0  0
 13 21  1  0  0  0  0
 13 23  2  0  0  0  0
 14 25  2  0  0  0  0
 14 26  1  0  0  0  0
 15 28  2  0  0  0  0
 15 29  1  0  0  0  0
 16 27  1  0  0  0  0
 17 27  1  0  0  0  0
 17 30  2  0  0  0  0
 17 32  1  0  0  0  0
 18 20  2  0  0  0  0
 18 37  1  0  0  0  0
 19 21  2  0  0  0  0
 19 38  1  0  0  0  0
 20 46  1  0  0  0  0
 21 39  1  0  0  0  0
 22 83  1  0  0  0  0
 23 84  1  0  0  0  0
 24 26  2  0  0  0  0
 24 83  1  0  0  0  0
 25 85  1  0  0  0  0
 26 86  1  0  0  0  0
 27 66  2  0  0  0  0
 28 49  1  0  0  0  0
 28 67  1  0  0  0  0
 29 57  1  0  0  0  0
 29 68  2  0  0  0  0
 30 69  1  0  0  0  0
 30 72  1  0  0  0  0
 31 58  1  0  0  0  0
 31 67  2  0  0  0  0
 31 68  1  0  0  0  0
 32 73  1  0  0  0  0
 32 78  2  0  0  0  0
 33 47  1  0  0  0  0
 33 74  1  0  0  0  0
 33 79  2  0  0  0  0
 34 61  1  0  0  0  0
 34 70  1  0  0  0  0
 34 80  2  0  0  0  0
 35 62  1  0  0  0  0
 35 75  1  0  0  0  0
 35 81  2  0  0  0  0
 36 71  1  0  0  0  0
 36 76  1  0  0  0  0
 36 82  2  0  0  0  0
 37 40  1  0  0  0  0
 38 47  1  0  0  0  0
 39 70  1  0  0  0  0
 40 42  1  0  0  0  0
 41 43  1  0  0  0  0
 41 44  1  0  0  0  0
 42 46  1  0  0  0  0
 43 48  1  0  0  0  0
 44 71  1  0  0  0  0
 45 48  1  0  0  0  0
 45 71  1  0  0  0  0
 46 74  1  0  0  0  0
 47 70  1  0  0  0  0
 48 69  1  0  0  0  0
 50 62  1  0  0  0  0
 51 63  1  0  0  0  0
 52 64  1  0  0  0  0
 53 65  1  0  0  0  0
 54 65  1  0  0  0  0
 55 65  1  0  0  0  0
 56 77  1  0  0  0  0
 57 64  1  0  0  0  0
 58 59  1  0  0  0  0
 59 63  1  0  0  0  0
 60 63  1  0  0  0  0
 60 76  1  0  0  0  0
 61 65  1  0  0  0  0
 61 75  1  0  0  0  0
 62 77  1  0  0  0  0
 64 84  1  0  0  0  0
 66 69  1  0  0  0  0
M  CHG  1  77   1
M  ISO  4  36 100  64 101  76 100  84 101
M  END
> <Batch ID>
0076

> <Smiles>
CNC(C)C(=O)NC(C(=O)N1Cc2cc([101O:1][101CH:1](C)Cc3cc(C)nc(CCC(C)C[100NH:0][100C:0](=O)N4CCCC(n5nc(-c6ccc(Oc7ccc(F)cc7F)cc6)c(C(N)=O)c5N)C4)n3)ccc2CC1C(=O)NC1CCCc2ccccc21)C(C)(C)C

> <Shape>
0.178

> <Color>
0.188

> <Negative vol penalty>
0.000

$$$$

  -OEChem-04052318343D

 85 93  0     1  0  0  0  0  0999 V2000
  -29.8390  -35.5874   20.4320 C   0  0  0  0  0  0  0  0  0  0  0  0
  -30.0451  -34.4264   19.6937 C   0  0  0  0  0  0  0  0  0  0  0  0
  -27.0958  -11.6388   20.4731 C   0  0  0  0  0  0  0  0  0  0  0  0
  -26.2300  -13.8498   20.0270 C   0  0  0  0  0  0  0  0  0  0  0  0
  -29.2138  -35.5190   21.6764 C   0  0  0  0  0  0  0  0  0  0  0  0
  -29.6271  -33.1962   20.1998 C   0  0  0  0  0  0  0  0  0  0  0  0
  -27.0735  -26.8551   18.0585 C   0  0  0  0  0  0  0  0  0  0  0  0
  -25.8376  -11.0942   20.2164 C   0  0  0  0  0  0  0  0  0  0  0  0
  -24.9717  -13.3052   19.7702 C   0  0  0  0  0  0  0  0  0  0  0  0
  -27.3240  -25.4906   18.1971 C   0  0  0  0  0  0  0  0  0  0  0  0
  -22.8920  -10.7561   21.8391 C   0  0  0  0  0  0  0  0  0  0  0  0
  -22.4106   -9.7925   22.7253 C   0  0  0  0  0  0  0  0  0  0  0  0
  -26.1837  -25.5034   20.3229 C   0  0  0  0  0  0  0  0  0  0  0  0
  -28.2062  -18.7192   19.2850 C   0  0  0  0  0  0  0  0  0  0  0  0
  -28.8990  -20.9854   19.6958 C   0  0  0  0  0  0  0  0  0  0  0  0
  -22.2833   -8.1941   20.9180 C   0  0  0  0  0  0  0  0  0  0  0  0
  -27.2920  -13.0166   20.3785 C   0  0  0  0  0  0  0  0  0  0  0  0
  -29.6284  -13.7992   19.7178 C   0  0  0  0  0  0  0  0  0  0  0  0
  -28.7793  -34.2885   22.1937 C   0  0  0  0  0  0  0  0  0  0  0  0
  -26.3845  -27.5574   19.0577 C   0  0  0  0  0  0  0  0  0  0  0  0
  -28.9967  -33.1111   21.4529 C   0  0  0  0  0  0  0  0  0  0  0  0
  -25.9234  -26.8762   20.1933 C   0  0  0  0  0  0  0  0  0  0  0  0
  -29.0072  -19.6265   19.9696 C   0  0  0  0  0  0  0  0  0  0  0  0
  -24.7756  -11.9274   19.8649 C   0  0  0  0  0  0  0  0  0  0  0  0
  -26.8816  -24.8151   19.3308 C   0  0  0  0  0  0  0  0  0  0  0  0
  -23.0690  -10.4388   20.4924 C   0  0  0  0  0  0  0  0  0  0  0  0
  -22.1062   -8.5115   22.2647 C   0  0  0  0  0  0  0  0  0  0  0  0
  -22.7646   -9.1578   20.0318 C   0  0  0  0  0  0  0  0  0  0  0  0
  -28.5914  -13.5798   20.6442 C   0  0  0  0  0  0  0  0  0  0  0  0
  -27.3201  -19.2178   18.3438 C   0  0  0  0  0  0  0  0  0  0  0  0
  -27.9819  -21.3825   18.7361 C   0  0  0  0  0  0  0  0  0  0  0  0
  -30.6436  -14.3480   20.4625 C   0  0  0  0  0  0  0  0  0  0  0  0
  -29.6701  -13.5310   18.3099 C   0  0  0  0  0  0  0  0  0  0  0  0
  -27.0922  -29.9785   20.9919 C   0  0  0  0  0  0  0  0  0  0  0  0
  -23.9602  -29.7378   21.8012 C   0  0  0  0  0  0  0  0  0  0  0  0
  -30.6253  -17.4008   25.6385 C   0  0  0  0  0  0  0  0  0  0  0  0
  -21.1573  -27.8001   21.9899 C   0  0  0  0  0  0  0  0  0  0  0  0
  -28.1508  -34.2586   23.5644 C   0  0  0  0  0  0  0  0  0  0  0  0
  -26.0989  -29.0235   18.8807 C   0  0  0  0  0  0  0  0  0  0  0  0
  -25.1616  -27.5800   21.2854 C   0  0  0  0  0  0  0  0  0  0  0  0
  -27.4011  -32.9627   23.8626 C   0  0  0  0  0  0  0  0  0  0  0  0
  -32.4432  -14.4058   24.8870 C   0  0  0  0  0  0  0  0  0  0  0  0
  -28.2425  -31.7550   23.4623 C   0  0  0  0  0  0  0  0  0  0  0  0
  -31.7378  -13.8594   23.6464 C   0  0  0  0  0  0  0  0  0  0  0  0
  -31.4591  -15.0814   25.8368 C   0  0  0  0  0  0  0  0  0  0  0  0
  -29.9384  -15.6170   23.9600 C   0  0  0  0  0  0  0  0  0  0  0  0
  -28.5352  -31.7610   21.9571 C   0  0  1  0  0  0  0  0  0  0  0  0
  -25.8373  -29.7448   20.1993 C   0  0  1  0  0  0  0  0  0  0  0  0
  -30.9012  -14.9533   22.9594 C   0  0  2  0  0  0  0  0  0  0  0  0
  -25.1129  -18.0292   18.2974 C   0  0  0  0  0  0  0  0  0  0  0  0
  -18.7606  -27.8697   22.7306 C   0  0  0  0  0  0  0  0  0  0  0  0
  -29.9073  -19.7364   25.6001 C   0  0  0  0  0  0  0  0  0  0  0  0
  -28.3322  -17.9300   24.8733 C   0  0  0  0  0  0  0  0  0  0  0  0
  -24.8564  -29.5401   24.7111 C   0  0  0  0  0  0  0  0  0  0  0  0
  -22.5776  -28.6738   25.2812 C   0  0  0  0  0  0  0  0  0  0  0  0
  -22.8375  -30.9677   24.3360 C   0  0  0  0  0  0  0  0  0  0  0  0
  -20.1751  -27.2271   19.2575 C   0  0  0  0  0  0  0  0  0  0  0  0
  -29.9775  -19.1441   20.9939 C   0  0  0  0  0  0  0  0  0  0  0  0
  -26.4435  -18.2735   17.5910 C   0  0  0  0  0  0  0  0  0  0  0  0
  -27.8400  -22.8411   18.4139 C   0  0  0  0  0  0  0  0  0  1  0  0
  -29.3561  -19.0787   22.3992 C   0  0  0  0  0  0  0  0  0  0  0  0
  -30.3559  -18.5453   23.4346 C   0  0  0  0  0  0  0  0  0  0  0  0
  -23.1796  -28.9623   22.8347 C   0  0  1  0  0  0  0  0  0  0  0  0
  -19.7224  -28.0605   21.5682 C   0  0  2  0  0  0  0  0  0  0  0  0
  -29.7927  -18.3928   24.8660 C   0  0  0  0  0  0  0  0  0  0  0  0
  -23.3788  -29.5228   24.2713 C   0  0  0  0  0  0  0  0  0  0  0  0
  -28.9179  -13.9581   21.8828 N   0  0  0  0  0  0  0  0  0  0  0  0
  -27.1868  -20.5307   18.0506 N   0  0  0  0  0  0  0  0  0  0  0  0
  -30.1716  -14.4207   21.7400 N   0  0  0  0  0  0  0  0  0  0  0  0
  -24.9127  -29.0148   21.0691 N   0  0  0  0  0  0  0  0  0  0  0  0
  -30.6681  -16.0982   25.1413 N   0  0  0  0  0  0  0  0  0  0  0  0
  -31.8853  -14.7704   20.1426 N   0  0  0  0  0  0  0  0  0  0  0  0
  -28.5402  -12.9653   17.7037 N   0  0  0  0  0  0  0  0  0  0  0  0
  -27.3765  -31.3122   21.2151 N   0  0  0  0  0  0  0  0  0  0  0  0
  -21.7929  -28.9594   22.3815 N   0  0  0  0  0  0  0  0  0  0  0  0
  -19.3272  -27.1297   20.4735 N   0  3  0  0  0  0  0  0  0  0  0  0
  -30.6855  -13.7703   17.6133 O   0  0  0  0  0  0  0  0  0  0  0  0
  -27.7529  -29.0197   21.3740 O   0  0  0  0  0  0  0  0  0  0  0  0
  -23.7283  -30.9391   21.6440 O   0  0  0  0  0  0  0  0  0  0  0  0
  -31.2215  -17.7752   26.6517 O   0  0  0  0  0  0  0  0  0  0  0  0
  -21.6624  -26.6798   21.9771 O   0  0  0  0  0  0  0  0  0  0  0  0
  -23.5477  -11.3963   19.6140 O   0  0  0  0  0  0  0  0  0  0  0  0
  -27.1254  -23.4835   19.4689 O   0  0  0  0  0  0  0  0  0  1  0  0
  -21.6454   -7.5858   23.1161 F   0  0  0  0  0  0  0  0  0  0  0  0
  -22.9337   -8.8467   18.7394 F   0  0  0  0  0  0  0  0  0  0  0  0
  1  2  1  0  0  0  0
  1  5  2  0  0  0  0
  2  6  2  0  0  0  0
  3  8  2  0  0  0  0
  3 17  1  0  0  0  0
  4  9  1  0  0  0  0
  4 17  2  0  0  0  0
  5 19  1  0  0  0  0
  6 21  1  0  0  0  0
  7 10  2  0  0  0  0
  7 20  1  0  0  0  0
  8 24  1  0  0  0  0
  9 24  2  0  0  0  0
 10 25  1  0  0  0  0
 11 12  2  0  0  0  0
 11 26  1  0  0  0  0
 12 27  1  0  0  0  0
 13 22  1  0  0  0  0
 13 25  2  0  0  0  0
 14 23  2  0  0  0  0
 14 30  1  0  0  0  0
 15 23  1  0  0  0  0
 15 31  2  0  0  0  0
 16 27  2  0  0  0  0
 16 28  1  0  0  0  0
 17 29  1  0  0  0  0
 18 29  1  0  0  0  0
 18 32  2  0  0  0  0
 18 33  1  0  0  0  0
 19 21  2  0  0  0  0
 19 38  1  0  0  0  0
 20 22  2  0  0  0  0
 20 39  1  0  0  0  0
 21 47  1  0  0  0  0
 22 40  1  0  0  0  0
 23 58  1  0  0  0  0
 24 82  1  0  0  0  0
 25 83  1  0  0  0  0
 26 28  2  0  0  0  0
 26 82  1  0  0  0  0
 27 84  1  0  0  0  0
 28 85  1  0  0  0  0
 29 67  2  0  0  0  0
 30 59  1  0  0  0  0
 30 68  2  0  0  0  0
 31 60  1  0  0  0  0
 31 68  1  0  0  0  0
 32 69  1  0  0  0  0
 32 72  1  0  0  0  0
 33 73  1  0  0  0  0
 33 77  2  0  0  0  0
 34 48  1  0  0  0  0
 34 74  1  0  0  0  0
 34 78  2  0  0  0  0
 35 63  1  0  0  0  0
 35 70  1  0  0  0  0
 35 79  2  0  0  0  0
 36 65  1  0  0  0  0
 36 71  1  0  0  0  0
 36 80  2  0  0  0  0
 37 64  1  0  0  0  0
 37 75  1  0  0  0  0
 37 81  2  0  0  0  0
 38 41  1  0  0  0  0
 39 48  1  0  0  0  0
 40 70  1  0  0  0  0
 41 43  1  0  0  0  0
 42 44  1  0  0  0  0
 42 45  1  0  0  0  0
 43 47  1  0  0  0  0
 44 49  1  0  0  0  0
 45 71  1  0  0  0  0
 46 49  1  0  0  0  0
 46 71  1  0  0  0  0
 47 74  1  0  0  0  0
 48 70  1  0  0  0  0
 49 69  1  0  0  0  0
 50 59  1  0  0  0  0
 51 64  1  0  0  0  0
 52 65  1  0  0  0  0
 53 65  1  0  0  0  0
 54 66  1  0  0  0  0
 55 66  1  0  0  0  0
 56 66  1  0  0  0  0
 57 76  1  0  0  0  0
 58 61  1  0  0  0  0
 60 83  1  0  0  0  0
 61 62  1  0  0  0  0
 62 65  1  0  0  0  0
 63 66  1  0  0  0  0
 63 75  1  0  0  0  0
 64 76  1  0  0  0  0
 67 69  1  0  0  0  0
M  CHG  1  76   1
M  ISO  4  36 100  60 101  65 100  83 101
M  END
> <Batch ID>
0076

> <Smiles>
CCc1cc(CCC[100C:0](C)(C)[100C:0](=O)N2CCCC(n3nc(-c4ccc(Oc5ccc(F)cc5F)cc4)c(C(N)=O)c3N)C2)cc([101CH2:1][101O:1]c2ccc3c(c2)CN(C(=O)C(NC(=O)C(C)NC)C(C)(C)C)C(C(=O)NC2CCCc4ccccc42)C3)n1

> <Shape>
0.275

> <Color>
0.070

> <Negative vol penalty>
0.000

$$$$

  -OEChem-04052318343D

 84 92  0     1  0  0  0  0  0999 V2000
  -18.8851  -30.2635   24.8186 C   0  0  0  0  0  0  0  0  0  0  0  0
  -20.2613  -30.1976   24.6262 C   0  0  0  0  0  0  0  0  0  0  0  0
  -26.7285  -13.8559   22.3812 C   0  0  0  0  0  0  0  0  0  0  0  0
  -26.7897  -12.8532   20.1840 C   0  0  0  0  0  0  0  0  0  0  0  0
  -18.0589  -29.2790   24.2781 C   0  0  0  0  0  0  0  0  0  0  0  0
  -20.8123  -29.1465   23.8940 C   0  0  0  0  0  0  0  0  0  0  0  0
  -25.6995  -29.3894   20.2113 C   0  0  0  0  0  0  0  0  0  0  0  0
  -26.0971  -12.7179   22.8830 C   0  0  0  0  0  0  0  0  0  0  0  0
  -26.1583  -11.7151   20.6858 C   0  0  0  0  0  0  0  0  0  0  0  0
  -27.0368  -29.0451   20.4035 C   0  0  0  0  0  0  0  0  0  0  0  0
  -24.2392   -8.6924   21.3106 C   0  0  0  0  0  0  0  0  0  0  0  0
  -23.1908   -8.1514   20.5665 C   0  0  0  0  0  0  0  0  0  0  0  0
  -26.6189  -26.8891   19.4055 C   0  0  0  0  0  0  0  0  0  0  0  0
  -21.9720  -10.2271   20.7746 C   0  0  0  0  0  0  0  0  0  0  0  0
  -30.0145  -21.2266   20.0196 C   0  0  0  0  0  0  0  0  0  0  0  0
  -27.0748  -13.9236   21.0317 C   0  0  0  0  0  0  0  0  0  0  0  0
  -29.1114  -15.3414   20.4404 C   0  0  0  0  0  0  0  0  0  0  0  0
  -18.5991  -28.2205   23.5308 C   0  0  0  0  0  0  0  0  0  0  0  0
  -24.8079  -28.4804   19.6238 C   0  0  0  0  0  0  0  0  0  0  0  0
  -19.9927  -28.1462   23.3442 C   0  0  0  0  0  0  0  0  0  0  0  0
  -25.2714  -27.2251   19.2047 C   0  0  0  0  0  0  0  0  0  0  0  0
  -25.8120  -11.6475   22.0353 C   0  0  0  0  0  0  0  0  0  0  0  0
  -27.4960  -27.7938   20.0032 C   0  0  0  0  0  0  0  0  0  0  0  0
  -24.1541  -10.0008   21.7868 C   0  0  0  0  0  0  0  0  0  0  0  0
  -22.0572   -8.9187   20.2985 C   0  0  0  0  0  0  0  0  0  0  0  0
  -23.0205  -10.7681   21.5188 C   0  0  0  0  0  0  0  0  0  0  0  0
  -27.7265  -15.0992   20.5126 C   0  0  0  0  0  0  0  0  0  0  0  0
  -28.8368  -21.9485   20.2914 C   0  0  0  0  0  0  0  0  0  0  0  0
  -30.8963  -21.6295   20.9925 C   0  0  0  0  0  0  0  0  0  0  0  0
  -29.2127  -16.5883   19.8733 C   0  0  0  0  0  0  0  0  0  0  0  0
  -30.2082  -14.5134   20.8494 C   0  0  0  0  0  0  0  0  0  0  0  0
  -27.5683  -21.8989   19.5529 C   0  0  0  0  0  0  0  0  0  0  0  0
  -22.1554  -27.0082   20.5728 C   0  0  0  0  0  0  0  0  0  0  0  0
  -22.0802  -25.9959   17.4919 C   0  0  0  0  0  0  0  0  0  0  0  0
  -23.7955  -25.3376   14.6159 C   0  0  0  0  0  0  0  0  0  0  0  0
  -17.6705  -27.1541   23.0063 C   0  0  0  0  0  0  0  0  0  0  0  0
  -23.3745  -28.8770   19.3992 C   0  0  0  0  0  0  0  0  0  0  0  0
  -24.3592  -26.2209   18.5506 C   0  0  0  0  0  0  0  0  0  0  0  0
  -18.2984  -26.2773   21.9260 C   0  0  0  0  0  0  0  0  0  0  0  0
  -25.7277  -19.5032   17.6517 C   0  0  0  0  0  0  0  0  0  0  0  0
  -19.6952  -25.8309   22.3459 C   0  0  0  0  0  0  0  0  0  0  0  0
  -26.1809  -18.1623   18.2320 C   0  0  0  0  0  0  0  0  0  0  0  0
  -25.6453  -20.5836   18.7271 C   0  0  0  0  0  0  0  0  0  0  0  0
  -27.3403  -19.4191   20.0966 C   0  0  0  0  0  0  0  0  0  0  0  0
  -20.6257  -27.0351   22.5350 C   0  0  1  0  0  0  0  0  0  0  0  0
  -22.4384  -27.6805   19.2592 C   0  0  1  0  0  0  0  0  0  0  0  0
  -27.4855  -18.3150   19.0365 C   0  0  1  0  0  0  0  0  0  0  0  0
  -32.2943  -21.2408   21.2539 C   0  0  0  0  0  0  0  0  0  0  0  0
  -23.4685  -24.4846   12.2787 C   0  0  0  0  0  0  0  0  0  0  0  0
  -28.9723  -25.7490   23.3086 C   0  0  0  0  0  0  0  0  0  0  0  0
  -21.8643  -23.1475   18.5643 C   0  0  0  0  0  0  0  0  0  0  0  0
  -22.4936  -22.3171   16.2878 C   0  0  0  0  0  0  0  0  0  0  0  0
  -20.3988  -23.6356   16.5975 C   0  0  0  0  0  0  0  0  0  0  0  0
  -31.2936  -27.7938   23.0304 C   0  0  0  0  0  0  0  0  0  0  0  0
  -31.6862  -26.9907   20.7185 C   0  0  0  0  0  0  0  0  0  0  0  0
  -24.7377  -27.8810   13.4317 C   0  0  0  0  0  0  0  0  0  0  0  0
  -31.1915  -24.7157   22.6642 C   0  0  0  0  0  0  0  0  0  0  0  0
  -30.7443  -23.2743   22.9621 C   0  0  0  0  0  0  0  0  0  0  0  0
  -29.4709  -28.0422   21.3048 C   0  0  0  0  0  0  0  0  0  1  0  0
  -22.6341  -24.8079   16.7431 C   0  0  1  0  0  0  0  0  0  0  0  0
  -23.5219  -25.7147   13.1712 C   0  0  2  0  0  0  0  0  0  0  0  0
  -30.0643  -25.6914   22.2253 C   0  0  2  0  0  0  0  0  0  0  0  0
  -21.8647  -23.4950   17.0623 C   0  0  0  0  0  0  0  0  0  0  0  0
  -30.6037  -27.1213   21.8180 C   0  0  0  0  0  0  0  0  0  0  0  0
  -27.0002  -16.1109   20.0301 N   0  0  0  0  0  0  0  0  0  0  0  0
  -28.9563  -22.7493   21.3535 N   0  0  0  0  0  0  0  0  0  0  0  0
  -30.2196  -22.5331   21.7580 N   0  0  0  0  0  0  0  0  0  0  0  0
  -27.9323  -17.0011   19.6494 N   0  0  0  0  0  0  0  0  0  0  0  0
  -26.9031  -20.6735   19.4677 N   0  0  0  0  0  0  0  0  0  0  0  0
  -22.9650  -26.6532   18.3585 N   0  0  0  0  0  0  0  0  0  0  0  0
  -30.2713  -17.3609   19.5495 N   0  0  0  0  0  0  0  0  0  0  0  0
  -29.9263  -13.2618   21.4135 N   0  0  0  0  0  0  0  0  0  0  0  0
  -21.0733  -27.5342   21.2524 N   0  0  0  0  0  0  0  0  0  0  0  0
  -22.6279  -25.1760   15.3315 N   0  0  0  0  0  0  0  0  0  0  0  0
  -24.5903  -26.6197   12.6608 N   0  3  0  0  0  0  0  0  0  0  0  0
  -31.4023  -14.8797   20.7334 O   0  0  0  0  0  0  0  0  0  0  0  0
  -27.1913  -22.9558   19.0488 O   0  0  0  0  0  0  0  0  0  0  0  0
  -22.8652  -26.0800   20.9418 O   0  0  0  0  0  0  0  0  0  0  0  0
  -20.9077  -26.3329   17.3092 O   0  0  0  0  0  0  0  0  0  0  0  0
  -24.9312  -25.1966   15.0640 O   0  0  0  0  0  0  0  0  0  0  0  0
  -25.1961  -10.5367   22.5247 O   0  0  0  0  0  0  0  0  0  0  0  0
  -28.8007  -27.4550   20.1902 O   0  0  0  0  0  0  0  0  0  1  0  0
  -21.0511   -8.3996   19.5827 F   0  0  0  0  0  0  0  0  0  0  0  0
  -22.9334  -12.0260   21.9725 F   0  0  0  0  0  0  0  0  0  0  0  0
  1  2  1  0  0  0  0
  1  5  2  0  0  0  0
  2  6  2  0  0  0  0
  3  8  2  0  0  0  0
  3 16  1  0  0  0  0
  4  9  1  0  0  0  0
  4 16  2  0  0  0  0
  5 18  1  0  0  0  0
  6 20  1  0  0  0  0
  7 10  2  0  0  0  0
  7 19  1  0  0  0  0
  8 22  1  0  0  0  0
  9 22  2  0  0  0  0
 10 23  1  0  0  0  0
 11 12  2  0  0  0  0
 11 24  1  0  0  0  0
 12 25  1  0  0  0  0
 13 21  1  0  0  0  0
 13 23  2  0  0  0  0
 14 25  2  0  0  0  0
 14 26  1  0  0  0  0
 15 28  1  0  0  0  0
 15 29  2  0  0  0  0
 16 27  1  0  0  0  0
 17 27  1  0  0  0  0
 17 30  2  0  0  0  0
 17 31  1  0  0  0  0
 18 20  2  0  0  0  0
 18 36  1  0  0  0  0
 19 21  2  0  0  0  0
 19 37  1  0  0  0  0
 20 45  1  0  0  0  0
 21 38  1  0  0  0  0
 22 81  1  0  0  0  0
 23 82  1  0  0  0  0
 24 26  2  0  0  0  0
 24 81  1  0  0  0  0
 25 83  1  0  0  0  0
 26 84  1  0  0  0  0
 27 65  2  0  0  0  0
 28 32  1  0  0  0  0
 28 66  2  0  0  0  0
 29 48  1  0  0  0  0
 29 67  1  0  0  0  0
 30 68  1  0  0  0  0
 30 71  1  0  0  0  0
 31 72  1  0  0  0  0
 31 76  2  0  0  0  0
 32 69  1  0  0  0  0
 32 77  2  0  0  0  0
 33 46  1  0  0  0  0
 33 73  1  0  0  0  0
 33 78  2  0  0  0  0
 34 60  1  0  0  0  0
 34 70  1  0  0  0  0
 34 79  2  0  0  0  0
 35 61  1  0  0  0  0
 35 74  1  0  0  0  0
 35 80  2  0  0  0  0
 36 39  1  0  0  0  0
 37 46  1  0  0  0  0
 38 70  1  0  0  0  0
 39 41  1  0  0  0  0
 40 42  1  0  0  0  0
 40 43  1  0  0  0  0
 41 45  1  0  0  0  0
 42 47  1  0  0  0  0
 43 69  1  0  0  0  0
 44 47  1  0  0  0  0
 44 69  1  0  0  0  0
 45 73  1  0  0  0  0
 46 70  1  0  0  0  0
 47 68  1  0  0  0  0
 49 61  1  0  0  0  0
 50 62  1  0  0  0  0
 51 63  1  0  0  0  0
 52 63  1  0  0  0  0
 53 63  1  0  0  0  0
 54 64  1  0  0  0  0
 55 64  1  0  0  0  0
 56 75  1  0  0  0  0
 57 58  1  0  0  0  0
 57 62  1  0  0  0  0
 58 67  1  0  0  0  0
 59 64  1  0  0  0  0
 59 82  1  0  0  0  0
 60 63  1  0  0  0  0
 60 74  1  0  0  0  0
 61 75  1  0  0  0  0
 62 64  1  0  0  0  0
 65 68  1  0  0  0  0
 66 67  1  0  0  0  0
M  CHG  1  75   1
M  ISO  4  28 100  32 100  59 101  82 101
M  END
> <Batch ID>
0076

> <Smiles>
CNC(C)C(=O)NC(C(=O)N1Cc2cc([101O:1][101CH2:1]C(C)(C)C(C)CCn3n[100c:0]([100C:0](=O)N4CCCC(n5nc(-c6ccc(Oc7ccc(F)cc7F)cc6)c(C(N)=O)c5N)C4)cc3C)ccc2CC1C(=O)NC1CCCc2ccccc21)C(C)(C)C

> <Shape>
0.266

> <Color>
0.088

> <Negative vol penalty>
0.000

$$$$

  -OEChem-04052318343D

 88 96  0     1  0  0  0  0  0999 V2000
  -23.9550  -18.9492   13.7521 C   0  0  0  0  0  0  0  0  0  0  0  0
  -23.7720  -20.2841   14.0982 C   0  0  0  0  0  0  0  0  0  0  0  0
  -29.7263  -17.4680   19.0359 C   0  0  0  0  0  0  0  0  0  0  0  0
  -28.2417  -18.2314   20.7824 C   0  0  0  0  0  0  0  0  0  0  0  0
  -23.5860  -17.9423   14.6431 C   0  0  0  0  0  0  0  0  0  0  0  0
  -23.2188  -20.6129   15.3353 C   0  0  0  0  0  0  0  0  0  0  0  0
  -24.6038  -25.4572   18.8168 C   0  0  0  0  0  0  0  0  0  0  0  0
  -29.7950  -16.2138   19.6424 C   0  0  0  0  0  0  0  0  0  0  0  0
  -28.3103  -16.9772   21.3889 C   0  0  0  0  0  0  0  0  0  0  0  0
  -23.9887  -26.6968   18.9866 C   0  0  0  0  0  0  0  0  0  0  0  0
  -30.0741  -12.7010   20.5351 C   0  0  0  0  0  0  0  0  0  0  0  0
  -29.9566  -11.5775   19.7167 C   0  0  0  0  0  0  0  0  0  0  0  0
  -22.8416  -25.8540   20.9342 C   0  0  0  0  0  0  0  0  0  0  0  0
  -26.9352  -29.1297   23.6560 C   0  0  0  0  0  0  0  0  0  0  0  0
  -25.2071  -30.7666   23.3118 C   0  0  0  0  0  0  0  0  0  0  0  0
  -27.7610  -12.3110   19.0252 C   0  0  0  0  0  0  0  0  0  0  0  0
  -28.9497  -18.4769   19.6059 C   0  0  0  0  0  0  0  0  0  0  0  0
  -27.9536  -20.1980   18.0080 C   0  0  0  0  0  0  0  0  0  0  0  0
  -23.0369  -18.2591   15.8956 C   0  0  0  0  0  0  0  0  0  0  0  0
  -24.3335  -24.4016   19.6995 C   0  0  0  0  0  0  0  0  0  0  0  0
  -22.8409  -19.6093   16.2433 C   0  0  0  0  0  0  0  0  0  0  0  0
  -23.4565  -24.6028   20.7749 C   0  0  0  0  0  0  0  0  0  0  0  0
  -26.2791  -30.2881   24.0569 C   0  0  0  0  0  0  0  0  0  0  0  0
  -29.0869  -15.9684   20.8189 C   0  0  0  0  0  0  0  0  0  0  0  0
  -23.1052  -26.8945   20.0438 C   0  0  0  0  0  0  0  0  0  0  0  0
  -29.0350  -13.6294   20.5986 C   0  0  0  0  0  0  0  0  0  0  0  0
  -28.8001  -11.3825   18.9618 C   0  0  0  0  0  0  0  0  0  0  0  0
  -27.8785  -13.4344   19.8436 C   0  0  0  0  0  0  0  0  0  0  0  0
  -28.8789  -19.7728   18.9801 C   0  0  0  0  0  0  0  0  0  0  0  0
  -26.4842  -28.4919   22.5117 C   0  0  0  0  0  0  0  0  0  0  0  0
  -24.8335  -30.0556   22.1828 C   0  0  0  0  0  0  0  0  0  0  0  0
  -28.3080  -21.4981   17.7422 C   0  0  0  0  0  0  0  0  0  0  0  0
  -26.8706  -19.4818   17.3998 C   0  0  0  0  0  0  0  0  0  0  0  0
  -23.0599  -21.5040   19.4080 C   0  0  0  0  0  0  0  0  0  0  0  0
  -23.9328  -21.2331   22.5204 C   0  0  0  0  0  0  0  0  0  0  0  0
  -24.6781  -22.7868   25.4661 C   0  0  0  0  0  0  0  0  0  0  0  0
  -30.3471  -26.2107   20.4156 C   0  0  0  0  0  0  0  0  0  0  0  0
  -22.6096  -17.1353   16.8062 C   0  0  0  0  0  0  0  0  0  0  0  0
  -25.0257  -23.0786   19.5182 C   0  0  0  0  0  0  0  0  0  0  0  0
  -23.1483  -23.5080   21.7623 C   0  0  0  0  0  0  0  0  0  0  0  0
  -22.3769  -17.5756   18.2492 C   0  0  0  0  0  0  0  0  0  0  0  0
  -32.4154  -24.1828   18.3453 C   0  0  0  0  0  0  0  0  0  0  0  0
  -21.5431  -18.8523   18.2899 C   0  0  0  0  0  0  0  0  0  0  0  0
  -31.6283  -22.8784   18.2076 C   0  0  0  0  0  0  0  0  0  0  0  0
  -32.2605  -24.7911   19.7374 C   0  0  0  0  0  0  0  0  0  0  0  0
  -30.0790  -23.6846   20.0374 C   0  0  0  0  0  0  0  0  0  0  0  0
  -22.2668  -20.0065   17.5860 C   0  0  1  0  0  0  0  0  0  0  0  0
  -24.2823  -21.9202   20.1762 C   0  0  1  0  0  0  0  0  0  0  0  0
  -30.1591  -23.0625   18.6328 C   0  0  2  0  0  0  0  0  0  0  0  0
  -25.6299  -31.0611   26.3666 C   0  0  0  0  0  0  0  0  0  0  0  0
  -27.2158  -32.4408   24.9750 C   0  0  0  0  0  0  0  0  0  0  0  0
  -25.3167  -22.2998   27.8436 C   0  0  0  0  0  0  0  0  0  0  0  0
  -27.8598  -28.2157   19.8171 C   0  0  0  0  0  0  0  0  0  0  0  0
  -21.0494  -20.4431   23.1304 C   0  0  0  0  0  0  0  0  0  0  0  0
  -21.5102  -20.8970   25.5491 C   0  0  0  0  0  0  0  0  0  0  0  0
  -22.7771  -19.1113   24.3536 C   0  0  0  0  0  0  0  0  0  0  0  0
  -21.8832  -30.3988   23.1692 C   0  0  0  0  0  0  0  0  0  0  0  0
  -21.2415  -30.6974   20.7803 C   0  0  0  0  0  0  0  0  0  0  0  0
  -27.2493  -24.2267   25.1926 C   0  0  0  0  0  0  0  0  0  0  0  0
  -27.1633  -27.2451   22.0523 C   0  0  0  0  0  0  0  0  0  0  0  0
  -23.6741  -30.5475   21.3481 C   0  0  0  0  0  0  0  0  0  0  0  0
  -22.1727  -28.4847   21.5463 C   0  0  0  0  0  0  0  0  0  1  0  0
  -26.7226  -31.0139   25.2818 C   0  0  0  0  0  0  0  0  0  0  0  0
  -23.2761  -21.5371   23.8453 C   0  0  1  0  0  0  0  0  0  0  0  0
  -25.8256  -22.5986   26.4421 C   0  0  2  0  0  0  0  0  0  0  0  0
  -28.3341  -27.5017   21.0790 C   0  0  1  0  0  0  0  0  0  0  0  0
  -22.1573  -20.5174   24.2000 C   0  0  0  0  0  0  0  0  0  0  0  0
  -22.2590  -30.0175   21.7242 C   0  0  0  0  0  0  0  0  0  0  0  0
  -29.7552  -20.7255   19.3094 N   0  0  0  0  0  0  0  0  0  0  0  0
  -25.4465  -28.9265   21.7620 N   0  0  0  0  0  0  0  0  0  0  0  0
  -29.3823  -21.7622   18.5398 N   0  0  0  0  0  0  0  0  0  0  0  0
  -23.8451  -22.2305   21.5389 N   0  0  0  0  0  0  0  0  0  0  0  0
  -30.8439  -24.9407   20.0791 N   0  0  0  0  0  0  0  0  0  0  0  0
  -27.8024  -22.4296   16.9062 N   0  0  0  0  0  0  0  0  0  0  0  0
  -26.6460  -18.1540   17.7882 N   0  0  0  0  0  0  0  0  0  0  0  0
  -23.3024  -20.5489   18.4392 N   0  0  0  0  0  0  0  0  0  0  0  0
  -24.3525  -21.6089   24.8274 N   0  0  0  0  0  0  0  0  0  0  0  0
  -28.9924  -26.2655   20.7200 N   0  0  0  0  0  0  0  0  0  0  0  0
  -26.6642  -23.8292   26.4990 N   0  3  0  0  0  0  0  0  0  0  0  0
  -26.1344  -19.9986   16.5255 O   0  0  0  0  0  0  0  0  0  0  0  0
  -21.9766  -22.0106   19.6755 O   0  0  0  0  0  0  0  0  0  0  0  0
  -24.5087  -20.1534   22.3646 O   0  0  0  0  0  0  0  0  0  0  0  0
  -24.1235  -23.8694   25.2909 O   0  0  0  0  0  0  0  0  0  0  0  0
  -31.0570  -27.2219   20.4376 O   0  0  0  0  0  0  0  0  0  0  0  0
  -29.1535  -14.7446   21.4109 O   0  0  0  0  0  0  0  0  0  0  0  0
  -22.5030  -28.1032   20.2115 O   0  0  0  0  0  0  0  0  0  1  0  0
  -28.6880  -10.3045   18.1748 F   0  0  0  0  0  0  0  0  0  0  0  0
  -26.8773  -14.3234   19.8995 F   0  0  0  0  0  0  0  0  0  0  0  0
  1  2  1  0  0  0  0
  1  5  2  0  0  0  0
  2  6  2  0  0  0  0
  3  8  2  0  0  0  0
  3 17  1  0  0  0  0
  4  9  1  0  0  0  0
  4 17  2  0  0  0  0
  5 19  1  0  0  0  0
  6 21  1  0  0  0  0
  7 10  2  0  0  0  0
  7 20  1  0  0  0  0
  8 24  1  0  0  0  0
  9 24  2  0  0  0  0
 10 25  1  0  0  0  0
 11 12  2  0  0  0  0
 11 26  1  0  0  0  0
 12 27  1  0  0  0  0
 13 22  1  0  0  0  0
 13 25  2  0  0  0  0
 14 23  1  0  0  0  0
 14 30  2  0  0  0  0
 15 23  2  0  0  0  0
 15 31  1  0  0  0  0
 16 27  2  0  0  0  0
 16 28  1  0  0  0  0
 17 29  1  0  0  0  0
 18 29  1  0  0  0  0
 18 32  2  0  0  0  0
 18 33  1  0  0  0  0
 19 21  2  0  0  0  0
 19 38  1  0  0  0  0
 20 22  2  0  0  0  0
 20 39  1  0  0  0  0
 21 47  1  0  0  0  0
 22 40  1  0  0  0  0
 23 63  1  0  0  0  0
 24 85  1  0  0  0  0
 25 86  1  0  0  0  0
 26 28  2  0  0  0  0
 26 85  1  0  0  0  0
 27 87  1  0  0  0  0
 28 88  1  0  0  0  0
 29 69  2  0  0  0  0
 30 60  1  0  0  0  0
 30 70  1  0  0  0  0
 31 61  1  0  0  0  0
 31 70  2  0  0  0  0
 32 71  1  0  0  0  0
 32 74  1  0  0  0  0
 33 75  1  0  0  0  0
 33 80  2  0  0  0  0
 34 48  1  0  0  0  0
 34 76  1  0  0  0  0
 34 81  2  0  0  0  0
 35 64  1  0  0  0  0
 35 72  1  0  0  0  0
 35 82  2  0  0  0  0
 36 65  1  0  0  0  0
 36 77  1  0  0  0  0
 36 83  2  0  0  0  0
 37 73  1  0  0  0  0
 37 78  1  0  0  0  0
 37 84  2  0  0  0  0
 38 41  1  0  0  0  0
 39 48  1  0  0  0  0
 40 72  1  0  0  0  0
 41 43  1  0  0  0  0
 42 44  1  0  0  0  0
 42 45  1  0  0  0  0
 43 47  1  0  0  0  0
 44 49  1  0  0  0  0
 45 73  1  0  0  0  0
 46 49  1  0  0  0  0
 46 73  1  0  0  0  0
 47 76  1  0  0  0  0
 48 72  1  0  0  0  0
 49 71  1  0  0  0  0
 50 63  1  0  0  0  0
 51 63  1  0  0  0  0
 52 65  1  0  0  0  0
 53 66  1  0  0  0  0
 54 67  1  0  0  0  0
 55 67  1  0  0  0  0
 56 67  1  0  0  0  0
 57 68  1  0  0  0  0
 58 68  1  0  0  0  0
 59 79  1  0  0  0  0
 60 66  1  0  0  0  0
 61 68  1  0  0  0  0
 62 68  1  0  0  0  0
 62 86  1  0  0  0  0
 64 67  1  0  0  0  0
 64 77  1  0  0  0  0
 65 79  1  0  0  0  0
 66 78  1  0  0  0  0
 69 71  1  0  0  0  0
M  CHG  1  79   1
M  ISO  4  37 100  62 101  78 100  86 101
M  END
> <Batch ID>
0076

> <Smiles>
CNC(C)C(=O)NC(C(=O)N1Cc2cc([101O:1][101CH2:1]C(C)(C)Cc3cc(C(C)C)cc(CC(C)[100NH:0][100C:0](=O)N4CCCC(n5nc(-c6ccc(Oc7ccc(F)cc7F)cc6)c(C(N)=O)c5N)C4)n3)ccc2CC1C(=O)NC1CCCc2ccccc21)C(C)(C)C

> <Shape>
0.219

> <Color>
0.044

> <Negative vol penalty>
0.000

$$$$

  -OEChem-04052318343D

 85 93  0     1  0  0  0  0  0999 V2000
  -30.3188  -35.5587   20.4135 C   0  0  0  0  0  0  0  0  0  0  0  0
  -30.2285  -34.1707   20.3877 C   0  0  0  0  0  0  0  0  0  0  0  0
  -27.0830  -12.2445   21.8574 C   0  0  0  0  0  0  0  0  0  0  0  0
  -26.7288  -13.7789   20.0252 C   0  0  0  0  0  0  0  0  0  0  0  0
  -29.5092  -36.2929   21.2791 C   0  0  0  0  0  0  0  0  0  0  0  0
  -29.3291  -33.5159   21.2285 C   0  0  0  0  0  0  0  0  0  0  0  0
  -26.7447  -29.8699   18.8470 C   0  0  0  0  0  0  0  0  0  0  0  0
  -25.7339  -11.8918   21.8229 C   0  0  0  0  0  0  0  0  0  0  0  0
  -25.3797  -13.4262   19.9906 C   0  0  0  0  0  0  0  0  0  0  0  0
  -27.4053  -28.6623   18.6250 C   0  0  0  0  0  0  0  0  0  0  0  0
  -23.7243   -9.9100   19.9609 C   0  0  0  0  0  0  0  0  0  0  0  0
  -23.4067   -8.5539   20.0362 C   0  0  0  0  0  0  0  0  0  0  0  0
  -26.2798  -27.7033   20.5311 C   0  0  0  0  0  0  0  0  0  0  0  0
  -22.1409   -8.9623   22.0532 C   0  0  0  0  0  0  0  0  0  0  0  0
  -27.5933  -22.5084   22.0085 C   0  0  0  0  0  0  0  0  0  0  0  0
  -27.5804  -13.1881   20.9586 C   0  0  0  0  0  0  0  0  0  0  0  0
  -30.0292  -12.9497   20.2845 C   0  0  0  0  0  0  0  0  0  0  0  0
  -28.5926  -35.6474   22.1241 C   0  0  0  0  0  0  0  0  0  0  0  0
  -25.8535  -30.0068   19.9209 C   0  0  0  0  0  0  0  0  0  0  0  0
  -28.5075  -34.2421   22.1073 C   0  0  0  0  0  0  0  0  0  0  0  0
  -25.6073  -28.9129   20.7629 C   0  0  0  0  0  0  0  0  0  0  0  0
  -28.8092  -22.5494   21.3571 C   0  0  0  0  0  0  0  0  0  0  0  0
  -24.8823  -12.4826   20.8894 C   0  0  0  0  0  0  0  0  0  0  0  0
  -27.1750  -27.5797   19.4689 C   0  0  0  0  0  0  0  0  0  0  0  0
  -23.2503  -10.7923   20.9318 C   0  0  0  0  0  0  0  0  0  0  0  0
  -22.6150   -8.0800   21.0823 C   0  0  0  0  0  0  0  0  0  0  0  0
  -22.4586  -10.3184   21.9779 C   0  0  0  0  0  0  0  0  0  0  0  0
  -28.9738  -13.5533   20.9942 C   0  0  0  0  0  0  0  0  0  0  0  0
  -29.1932  -21.3789   20.7354 C   0  0  0  0  0  0  0  0  0  0  0  0
  -31.1447  -13.6574   20.6605 C   0  0  0  0  0  0  0  0  0  0  0  0
  -27.2897  -20.3363   21.4111 C   0  0  0  0  0  0  0  0  0  0  0  0
  -30.0035  -11.8479   19.3674 C   0  0  0  0  0  0  0  0  0  0  0  0
  -25.7372  -31.8322   22.5206 C   0  0  0  0  0  0  0  0  0  0  0  0
  -22.8219  -30.4562   22.8816 C   0  0  0  0  0  0  0  0  0  0  0  0
  -20.7590  -27.8213   22.2122 C   0  0  0  0  0  0  0  0  0  0  0  0
  -31.9394  -19.2208   22.7263 C   0  0  0  0  0  0  0  0  0  0  0  0
  -27.7721  -36.4806   23.0766 C   0  0  0  0  0  0  0  0  0  0  0  0
  -25.1287  -31.3079   20.1308 C   0  0  0  0  0  0  0  0  0  0  0  0
  -24.6446  -29.0021   21.9178 C   0  0  0  0  0  0  0  0  0  0  0  0
  -26.5791  -35.7333   23.6669 C   0  0  0  0  0  0  0  0  0  0  0  0
  -32.9190  -16.1877   24.3129 C   0  0  0  0  0  0  0  0  0  0  0  0
  -27.0014  -34.3489   24.1484 C   0  0  0  0  0  0  0  0  0  0  0  0
  -32.1142  -15.1141   23.5782 C   0  0  0  0  0  0  0  0  0  0  0  0
  -32.1195  -17.4783   24.4778 C   0  0  0  0  0  0  0  0  0  0  0  0
  -30.7579  -16.9524   22.4921 C   0  0  0  0  0  0  0  0  0  0  0  0
  -27.5265  -33.4971   22.9865 C   0  0  1  0  0  0  0  0  0  0  0  0
  -24.6319  -31.4911   21.5615 C   0  0  1  0  0  0  0  0  0  0  0  0
  -31.5424  -15.6511   22.2524 C   0  0  2  0  0  0  0  0  0  0  0  0
  -26.4454  -19.1072   21.4403 C   0  0  0  0  0  0  0  0  0  0  0  0
  -18.4470  -26.9623   22.6752 C   0  0  0  0  0  0  0  0  0  0  0  0
  -30.5605  -25.6401   19.8890 C   0  0  0  0  0  0  0  0  0  0  0  0
  -32.9708  -20.7963   20.0770 C   0  0  0  0  0  0  0  0  0  0  0  0
  -23.6828  -29.6656   25.7000 C   0  0  0  0  0  0  0  0  0  0  0  0
  -21.7773  -28.0424   25.7516 C   0  0  0  0  0  0  0  0  0  0  0  0
  -21.3268  -30.4850   25.5201 C   0  0  0  0  0  0  0  0  0  0  0  0
  -20.0533  -27.8334   19.3380 C   0  0  0  0  0  0  0  0  0  0  0  0
  -29.6454  -23.8060   21.3415 C   0  0  0  0  0  0  0  0  0  0  0  0
  -30.4902  -21.3059   19.9992 C   0  0  0  0  0  0  0  0  0  0  0  0
  -28.0903  -25.5914   20.3989 C   0  0  0  0  0  0  0  0  0  1  0  0
  -22.3033  -29.2140   23.5649 C   0  0  1  0  0  0  0  0  0  0  0  0
  -19.3222  -27.7652   21.7254 C   0  0  2  0  0  0  0  0  0  0  0  0
  -29.3454  -24.7419   20.1536 C   0  0  1  0  0  0  0  0  0  0  0  0
  -31.6759  -20.8591   20.8808 C   0  0  1  0  0  0  0  0  0  0  0  0
  -22.2922  -29.3503   25.1136 C   0  0  0  0  0  0  0  0  0  0  0  0
  -26.8048  -21.4146   22.0557 N   0  0  0  0  0  0  0  0  0  0  0  0
  -29.3823  -14.5663   21.7630 N   0  0  0  0  0  0  0  0  0  0  0  0
  -28.4554  -20.2493   20.7425 N   0  0  0  0  0  0  0  0  0  0  0  0
  -30.7068  -14.6047   21.5385 N   0  0  0  0  0  0  0  0  0  0  0  0
  -23.9652  -30.2974   22.0855 N   0  0  0  0  0  0  0  0  0  0  0  0
  -31.6067  -17.9351   23.1838 N   0  0  0  0  0  0  0  0  0  0  0  0
  -32.4476  -13.5555   20.3223 N   0  0  0  0  0  0  0  0  0  0  0  0
  -28.7731  -11.2354   19.0932 N   0  0  0  0  0  0  0  0  0  0  0  0
  -26.4265  -32.9854   22.1975 N   0  0  0  0  0  0  0  0  0  0  0  0
  -20.9948  -28.9423   22.9796 N   0  0  0  0  0  0  0  0  0  0  0  0
  -31.4172  -19.5723   21.4876 N   0  0  0  0  0  0  0  0  0  0  0  0
  -19.2562  -27.1327   20.3775 N   0  3  0  0  0  0  0  0  0  0  0  0
  -31.0433  -11.4088   18.8202 O   0  0  0  0  0  0  0  0  0  0  0  0
  -25.9480  -31.1038   23.4833 O   0  0  0  0  0  0  0  0  0  0  0  0
  -22.2302  -31.5266   23.0423 O   0  0  0  0  0  0  0  0  0  0  0  0
  -21.5881  -26.9552   21.9420 O   0  0  0  0  0  0  0  0  0  0  0  0
  -32.6535  -19.9959   23.3714 O   0  0  0  0  0  0  0  0  0  0  0  0
  -23.5659  -12.1385   20.8553 O   0  0  0  0  0  0  0  0  0  0  0  0
  -27.8189  -26.4001   19.2549 O   0  0  0  0  0  0  0  0  0  1  0  0
  -22.3088   -6.7780   21.1536 F   0  0  0  0  0  0  0  0  0  0  0  0
  -21.9993  -11.1614   22.9129 F   0  0  0  0  0  0  0  0  0  0  0  0
  1  2  1  0  0  0  0
  1  5  2  0  0  0  0
  2  6  2  0  0  0  0
  3  8  2  0  0  0  0
  3 16  1  0  0  0  0
  4  9  1  0  0  0  0
  4 16  2  0  0  0  0
  5 18  1  0  0  0  0
  6 20  1  0  0  0  0
  7 10  2  0  0  0  0
  7 19  1  0  0  0  0
  8 23  1  0  0  0  0
  9 23  2  0  0  0  0
 10 24  1  0  0  0  0
 11 12  2  0  0  0  0
 11 25  1  0  0  0  0
 12 26  1  0  0  0  0
 13 21  1  0  0  0  0
 13 24  2  0  0  0  0
 14 26  2  0  0  0  0
 14 27  1  0  0  0  0
 15 22  1  0  0  0  0
 15 65  2  0  0  0  0
 16 28  1  0  0  0  0
 17 28  1  0  0  0  0
 17 30  2  0  0  0  0
 17 32  1  0  0  0  0
 18 20  2  0  0  0  0
 18 37  1  0  0  0  0
 19 21  2  0  0  0  0
 19 38  1  0  0  0  0
 20 46  1  0  0  0  0
 21 39  1  0  0  0  0
 22 29  2  0  0  0  0
 22 57  1  0  0  0  0
 23 82  1  0  0  0  0
 24 83  1  0  0  0  0
 25 27  2  0  0  0  0
 25 82  1  0  0  0  0
 26 84  1  0  0  0  0
 27 85  1  0  0  0  0
 28 66  2  0  0  0  0
 29 58  1  0  0  0  0
 29 67  1  0  0  0  0
 30 68  1  0  0  0  0
 30 71  1  0  0  0  0
 31 49  1  0  0  0  0
 31 65  1  0  0  0  0
 31 67  2  0  0  0  0
 32 72  1  0  0  0  0
 32 77  2  0  0  0  0
 33 47  1  0  0  0  0
 33 73  1  0  0  0  0
 33 78  2  0  0  0  0
 34 60  1  0  0  0  0
 34 69  1  0  0  0  0
 34 79  2  0  0  0  0
 35 61  1  0  0  0  0
 35 74  1  0  0  0  0
 35 80  2  0  0  0  0
 36 70  1  0  0  0  0
 36 75  1  0  0  0  0
 36 81  2  0  0  0  0
 37 40  1  0  0  0  0
 38 47  1  0  0  0  0
 39 69  1  0  0  0  0
 40 42  1  0  0  0  0
 41 43  1  0  0  0  0
 41 44  1  0  0  0  0
 42 46  1  0  0  0  0
 43 48  1  0  0  0  0
 44 70  1  0  0  0  0
 45 48  1  0  0  0  0
 45 70  1  0  0  0  0
 46 73  1  0  0  0  0
 47 69  1  0  0  0  0
 48 68  1  0  0  0  0
 50 61  1  0  0  0  0
 51 62  1  0  0  0  0
 52 63  1  0  0  0  0
 53 64  1  0  0  0  0
 54 64  1  0  0  0  0
 55 64  1  0  0  0  0
 56 76  1  0  0  0  0
 57 62  1  0  0  0  0
 58 63  1  0  0  0  0
 59 62  1  0  0  0  0
 59 83  1  0  0  0  0
 60 64  1  0  0  0  0
 60 74  1  0  0  0  0
 61 76  1  0  0  0  0
 63 75  1  0  0  0  0
 66 68  1  0  0  0  0
M  CHG  1  76   1
M  ISO  4  36 100  59 101  75 100  83 101
M  END
> <Batch ID>
0076

> <Smiles>
CNC(C)C(=O)NC(C(=O)N1Cc2cc([101O:1][101CH2:1]C(C)Cc3cnc(C)nc3CC(C)[100NH:0][100C:0](=O)N3CCCC(n4nc(-c5ccc(Oc6ccc(F)cc6F)cc5)c(C(N)=O)c4N)C3)ccc2CC1C(=O)NC1CCCc2ccccc21)C(C)(C)C

> <Shape>
0.321

> <Color>
0.076

> <Negative vol penalty>
0.000

$$$$

  -OEChem-04052318343D

 84 92  0     1  0  0  0  0  0999 V2000
  -26.8266  -20.2216   27.0604 C   0  0  0  0  0  0  0  0  0  0  0  0
  -27.0765  -20.8445   25.8418 C   0  0  0  0  0  0  0  0  0  0  0  0
  -26.7772  -13.8832   21.4158 C   0  0  0  0  0  0  0  0  0  0  0  0
  -26.7508  -13.7866   19.0019 C   0  0  0  0  0  0  0  0  0  0  0  0
  -25.5473  -20.2621   27.6133 C   0  0  0  0  0  0  0  0  0  0  0  0
  -26.0469  -21.5074   25.1749 C   0  0  0  0  0  0  0  0  0  0  0  0
  -27.4833  -26.0202   23.3814 C   0  0  0  0  0  0  0  0  0  0  0  0
  -25.9930  -12.7310   21.4706 C   0  0  0  0  0  0  0  0  0  0  0  0
  -25.9666  -12.6343   19.0566 C   0  0  0  0  0  0  0  0  0  0  0  0
  -28.2383  -26.0286   22.2093 C   0  0  0  0  0  0  0  0  0  0  0  0
  -22.7347  -11.9158   21.0919 C   0  0  0  0  0  0  0  0  0  0  0  0
  -21.6573  -11.9076   21.9777 C   0  0  0  0  0  0  0  0  0  0  0  0
  -26.2570  -26.5699   20.9442 C   0  0  0  0  0  0  0  0  0  0  0  0
  -29.4780  -22.7165   16.9192 C   0  0  0  0  0  0  0  0  0  0  0  0
  -22.6171  -10.0117   23.1274 C   0  0  0  0  0  0  0  0  0  0  0  0
  -28.8758  -25.3683   16.6932 C   0  0  0  0  0  0  0  0  0  0  0  0
  -27.1561  -14.4110   20.1815 C   0  0  0  0  0  0  0  0  0  0  0  0
  -29.3715  -15.6736   20.1058 C   0  0  0  0  0  0  0  0  0  0  0  0
  -24.5038  -20.9341   26.9574 C   0  0  0  0  0  0  0  0  0  0  0  0
  -26.1052  -26.2763   23.3422 C   0  0  0  0  0  0  0  0  0  0  0  0
  -24.7521  -21.5559   25.7188 C   0  0  0  0  0  0  0  0  0  0  0  0
  -25.4873  -26.5667   22.1175 C   0  0  0  0  0  0  0  0  0  0  0  0
  -30.0770  -23.6279   17.7817 C   0  0  0  0  0  0  0  0  0  0  0  0
  -29.7755  -24.9809   17.6732 C   0  0  0  0  0  0  0  0  0  0  0  0
  -25.5877  -12.1065   20.2910 C   0  0  0  0  0  0  0  0  0  0  0  0
  -27.6246  -26.3006   20.9901 C   0  0  0  0  0  0  0  0  0  0  0  0
  -23.7533  -10.9720   21.2238 C   0  0  0  0  0  0  0  0  0  0  0  0
  -21.5985  -10.9555   22.9955 C   0  0  0  0  0  0  0  0  0  0  0  0
  -23.6945  -10.0200   22.2416 C   0  0  0  0  0  0  0  0  0  0  0  0
  -27.9657  -15.6016   20.1243 C   0  0  0  0  0  0  0  0  0  0  0  0
  -28.5915  -23.2052   15.9731 C   0  0  0  0  0  0  0  0  0  0  0  0
  -29.6457  -17.0182   20.0482 C   0  0  0  0  0  0  0  0  0  0  0  0
  -30.3426  -14.6193   20.1378 C   0  0  0  0  0  0  0  0  0  0  0  0
  -23.4944  -24.6232   24.0872 C   0  0  0  0  0  0  0  0  0  0  0  0
  -22.0048  -27.4315   23.4414 C   0  0  0  0  0  0  0  0  0  0  0  0
  -22.0580  -30.4330   21.8182 C   0  0  0  0  0  0  0  0  0  0  0  0
  -26.5432  -21.7299   18.0418 C   0  0  0  0  0  0  0  0  0  0  0  0
  -23.1263  -20.9105   27.5712 C   0  0  0  0  0  0  0  0  0  0  0  0
  -25.3099  -26.2898   24.6188 C   0  0  0  0  0  0  0  0  0  0  0  0
  -24.0145  -26.8681   22.0241 C   0  0  0  0  0  0  0  0  0  0  0  0
  -22.1795  -21.9536   26.9830 C   0  0  0  0  0  0  0  0  0  0  0  0
  -27.8468  -21.2646   21.3221 C   0  0  0  0  0  0  0  0  0  0  0  0
  -22.2569  -21.9461   25.4596 C   0  0  0  0  0  0  0  0  0  0  0  0
  -28.1519  -19.7670   21.3854 C   0  0  0  0  0  0  0  0  0  0  0  0
  -26.5840  -21.5495   20.5120 C   0  0  0  0  0  0  0  0  0  0  0  0
  -26.8794  -19.4722   19.2192 C   0  0  0  0  0  0  0  0  0  0  0  0
  -23.6672  -22.3061   24.9771 C   0  0  1  0  0  0  0  0  0  0  0  0
  -23.8186  -26.0575   24.3962 C   0  0  1  0  0  0  0  0  0  0  0  0
  -28.1751  -19.1395   19.9787 C   0  0  2  0  0  0  0  0  0  0  0  0
  -31.0367  -23.1333   18.8126 C   0  0  0  0  0  0  0  0  0  0  0  0
  -20.6817  -32.4992   21.4522 C   0  0  0  0  0  0  0  0  0  0  0  0
  -28.7604  -20.9746   14.6723 C   0  0  0  0  0  0  0  0  0  0  0  0
  -27.6588  -22.9524   13.6572 C   0  0  0  0  0  0  0  0  0  0  0  0
  -20.2126  -25.8926   21.5100 C   0  0  0  0  0  0  0  0  0  0  0  0
  -19.5370  -28.0825   20.5018 C   0  0  0  0  0  0  0  0  0  0  0  0
  -19.0263  -27.6032   22.8960 C   0  0  0  0  0  0  0  0  0  0  0  0
  -24.1279  -32.1669   23.0300 C   0  0  0  0  0  0  0  0  0  0  0  0
  -30.3967  -26.0131   18.5825 C   0  0  0  0  0  0  0  0  0  0  0  0
  -26.5400  -21.7517   15.5601 C   0  0  0  0  0  0  0  0  0  0  0  0
  -29.7534  -26.0303   19.9649 C   0  0  0  0  0  0  0  0  0  1  0  0
  -21.4139  -28.0691   22.2072 C   0  0  1  0  0  0  0  0  0  0  0  0
  -21.7621  -31.8427   22.2975 C   0  0  2  0  0  0  0  0  0  0  0  0
  -27.9302  -22.2560   15.0305 C   0  0  0  0  0  0  0  0  0  0  0  0
  -20.0749  -27.4043   21.7799 C   0  0  0  0  0  0  0  0  0  0  0  0
  -28.2738  -24.5123   15.8374 N   0  0  0  0  0  0  0  0  0  0  0  0
  -27.3871  -16.8047   20.0820 N   0  0  0  0  0  0  0  0  0  0  0  0
  -28.4347  -17.6454   20.0364 N   0  0  0  0  0  0  0  0  0  0  0  0
  -23.2786  -26.8632   23.2992 N   0  0  0  0  0  0  0  0  0  0  0  0
  -26.6706  -20.9283   19.1882 N   0  0  0  0  0  0  0  0  0  0  0  0
  -30.8022  -17.7133   20.0069 N   0  0  0  0  0  0  0  0  0  0  0  0
  -29.8889  -13.2945   20.1966 N   0  0  0  0  0  0  0  0  0  0  0  0
  -23.8842  -23.7339   25.0704 N   0  0  0  0  0  0  0  0  0  0  0  0
  -21.3076  -29.4953   22.4955 N   0  0  0  0  0  0  0  0  0  0  0  0
  -26.6439  -21.0627   16.8271 N   0  0  0  0  0  0  0  0  0  0  0  0
  -22.9908  -32.6830   22.2253 N   0  3  0  0  0  0  0  0  0  0  0  0
  -31.5763  -14.8459   20.1316 O   0  0  0  0  0  0  0  0  0  0  0  0
  -22.9310  -24.3442   23.0353 O   0  0  0  0  0  0  0  0  0  0  0  0
  -21.3628  -27.4436   24.4947 O   0  0  0  0  0  0  0  0  0  0  0  0
  -22.8707  -30.1886   20.9292 O   0  0  0  0  0  0  0  0  0  0  0  0
  -26.3591  -22.9505   18.0966 O   0  0  0  0  0  0  0  0  0  0  0  0
  -24.8227  -10.9820   20.3440 O   0  0  0  0  0  0  0  0  0  0  0  0
  -28.3590  -26.3088   19.8445 O   0  0  0  0  0  0  0  0  0  1  0  0
  -20.5646  -10.9487   23.8470 F   0  0  0  0  0  0  0  0  0  0  0  0
  -24.6707   -9.1115   22.3740 F   0  0  0  0  0  0  0  0  0  0  0  0
  1  2  1  0  0  0  0
  1  5  2  0  0  0  0
  2  6  2  0  0  0  0
  3  8  2  0  0  0  0
  3 17  1  0  0  0  0
  4  9  1  0  0  0  0
  4 17  2  0  0  0  0
  5 19  1  0  0  0  0
  6 21  1  0  0  0  0
  7 10  2  0  0  0  0
  7 20  1  0  0  0  0
  8 25  1  0  0  0  0
  9 25  2  0  0  0  0
 10 26  1  0  0  0  0
 11 12  2  0  0  0  0
 11 27  1  0  0  0  0
 12 28  1  0  0  0  0
 13 22  1  0  0  0  0
 13 26  2  0  0  0  0
 14 23  1  0  0  0  0
 14 31  2  0  0  0  0
 15 28  2  0  0  0  0
 15 29  1  0  0  0  0
 16 24  1  0  0  0  0
 16 65  2  0  0  0  0
 17 30  1  0  0  0  0
 18 30  1  0  0  0  0
 18 32  2  0  0  0  0
 18 33  1  0  0  0  0
 19 21  2  0  0  0  0
 19 38  1  0  0  0  0
 20 22  2  0  0  0  0
 20 39  1  0  0  0  0
 21 47  1  0  0  0  0
 22 40  1  0  0  0  0
 23 24  2  0  0  0  0
 23 50  1  0  0  0  0
 24 58  1  0  0  0  0
 25 81  1  0  0  0  0
 26 82  1  0  0  0  0
 27 29  2  0  0  0  0
 27 81  1  0  0  0  0
 28 83  1  0  0  0  0
 29 84  1  0  0  0  0
 30 66  2  0  0  0  0
 31 63  1  0  0  0  0
 31 65  1  0  0  0  0
 32 67  1  0  0  0  0
 32 70  1  0  0  0  0
 33 71  1  0  0  0  0
 33 76  2  0  0  0  0
 34 48  1  0  0  0  0
 34 72  1  0  0  0  0
 34 77  2  0  0  0  0
 35 61  1  0  0  0  0
 35 68  1  0  0  0  0
 35 78  2  0  0  0  0
 36 62  1  0  0  0  0
 36 73  1  0  0  0  0
 36 79  2  0  0  0  0
 37 69  1  0  0  0  0
 37 74  1  0  0  0  0
 37 80  2  0  0  0  0
 38 41  1  0  0  0  0
 39 48  1  0  0  0  0
 40 68  1  0  0  0  0
 41 43  1  0  0  0  0
 42 44  1  0  0  0  0
 42 45  1  0  0  0  0
 43 47  1  0  0  0  0
 44 49  1  0  0  0  0
 45 69  1  0  0  0  0
 46 49  1  0  0  0  0
 46 69  1  0  0  0  0
 47 72  1  0  0  0  0
 48 68  1  0  0  0  0
 49 67  1  0  0  0  0
 51 62  1  0  0  0  0
 52 63  1  0  0  0  0
 53 63  1  0  0  0  0
 54 64  1  0  0  0  0
 55 64  1  0  0  0  0
 56 64  1  0  0  0  0
 57 75  1  0  0  0  0
 58 60  1  0  0  0  0
 59 63  1  0  0  0  0
 59 74  1  0  0  0  0
 60 82  1  0  0  0  0
 61 64  1  0  0  0  0
 61 73  1  0  0  0  0
 62 75  1  0  0  0  0
 66 67  1  0  0  0  0
M  CHG  1  75   1
M  ISO  4  37 100  60 101  74 100  82 101
M  END
> <Batch ID>
0076

> <Smiles>
CNC(C)C(=O)NC(C(=O)N1Cc2cc([101O:1][101CH2:1]Cc3cnc(C(C)(C)C[100NH:0][100C:0](=O)N4CCCC(n5nc(-c6ccc(Oc7ccc(F)cc7F)cc6)c(C(N)=O)c5N)C4)cc3C)ccc2CC1C(=O)NC1CCCc2ccccc21)C(C)(C)C

> <Shape>
0.229

> <Color>
0.074

> <Negative vol penalty>
0.000

$$$$

  -OEChem-04052318343D

 85 93  0     1  0  0  0  0  0999 V2000
  -18.7556  -28.7386   24.1260 C   0  0  0  0  0  0  0  0  0  0  0  0
  -19.0527  -27.3808   24.0657 C   0  0  0  0  0  0  0  0  0  0  0  0
  -29.8480  -23.5690   20.8206 C   0  0  0  0  0  0  0  0  0  0  0  0
  -27.5612  -23.2507   20.1093 C   0  0  0  0  0  0  0  0  0  0  0  0
  -18.3222  -29.4077   22.9822 C   0  0  0  0  0  0  0  0  0  0  0  0
  -18.9155  -26.6911   22.8615 C   0  0  0  0  0  0  0  0  0  0  0  0
  -22.8504  -23.6502   21.9053 C   0  0  0  0  0  0  0  0  0  0  0  0
  -29.7757  -24.9123   20.4519 C   0  0  0  0  0  0  0  0  0  0  0  0
  -27.4888  -24.5941   19.7407 C   0  0  0  0  0  0  0  0  0  0  0  0
  -22.8967  -22.4352   22.5876 C   0  0  0  0  0  0  0  0  0  0  0  0
  -26.5857  -28.0251   18.9468 C   0  0  0  0  0  0  0  0  0  0  0  0
  -25.4474  -28.7401   19.3189 C   0  0  0  0  0  0  0  0  0  0  0  0
  -22.0295  -21.3132   20.6362 C   0  0  0  0  0  0  0  0  0  0  0  0
  -25.9274  -28.2941   21.6444 C   0  0  0  0  0  0  0  0  0  0  0  0
  -28.7407  -22.7382   20.6492 C   0  0  0  0  0  0  0  0  0  0  0  0
  -28.5018  -20.7947   22.2842 C   0  0  0  0  0  0  0  0  0  0  0  0
  -18.1889  -28.7280   21.7612 C   0  0  0  0  0  0  0  0  0  0  0  0
  -22.3822  -23.7075   20.5847 C   0  0  0  0  0  0  0  0  0  0  0  0
  -18.4786  -27.3514   21.7006 C   0  0  0  0  0  0  0  0  0  0  0  0
  -21.9806  -22.5297   19.9384 C   0  0  0  0  0  0  0  0  0  0  0  0
  -23.0824  -16.4124   21.9812 C   0  0  0  0  0  0  0  0  0  0  0  0
  -24.3414  -15.8394   21.9433 C   0  0  0  0  0  0  0  0  0  0  0  0
  -28.5962  -25.4249   19.9120 C   0  0  0  0  0  0  0  0  0  0  0  0
  -22.4835  -21.2669   21.9540 C   0  0  0  0  0  0  0  0  0  0  0  0
  -27.3949  -27.4446   19.9234 C   0  0  0  0  0  0  0  0  0  0  0  0
  -25.1182  -28.8747   20.6677 C   0  0  0  0  0  0  0  0  0  0  0  0
  -27.0658  -27.5791   21.2722 C   0  0  0  0  0  0  0  0  0  0  0  0
  -28.8150  -21.3503   21.0292 C   0  0  0  0  0  0  0  0  0  0  0  0
  -22.0644  -15.7814   21.2949 C   0  0  0  0  0  0  0  0  0  0  0  0
  -24.4990  -14.6732   21.2218 C   0  0  0  0  0  0  0  0  0  0  0  0
  -28.7353  -19.4497   22.1322 C   0  0  0  0  0  0  0  0  0  0  0  0
  -28.0408  -21.4368   23.4804 C   0  0  0  0  0  0  0  0  0  0  0  0
  -19.9529  -25.1483   19.1265 C   0  0  0  0  0  0  0  0  0  0  0  0
  -21.3752  -23.9846   16.4535 C   0  0  0  0  0  0  0  0  0  0  0  0
  -23.4341  -21.6540   15.0478 C   0  0  0  0  0  0  0  0  0  0  0  0
  -28.2593  -15.2499   18.1763 C   0  0  0  0  0  0  0  0  0  0  0  0
  -17.6717  -29.4833   20.5625 C   0  0  0  0  0  0  0  0  0  0  0  0
  -22.3636  -25.0218   19.8536 C   0  0  0  0  0  0  0  0  0  0  0  0
  -21.4889  -22.5343   18.5148 C   0  0  0  0  0  0  0  0  0  0  0  0
  -17.9116  -28.7625   19.2384 C   0  0  0  0  0  0  0  0  0  0  0  0
  -31.4014  -16.7088   18.9982 C   0  0  0  0  0  0  0  0  0  0  0  0
  -17.5176  -27.2932   19.3514 C   0  0  0  0  0  0  0  0  0  0  0  0
  -31.0256  -18.0028   19.7223 C   0  0  0  0  0  0  0  0  0  0  0  0
  -30.4320  -16.3971   17.8601 C   0  0  0  0  0  0  0  0  0  0  0  0
  -28.6337  -17.6628   18.9728 C   0  0  0  0  0  0  0  0  0  0  0  0
  -18.3660  -26.5741   20.4071 C   0  0  1  0  0  0  0  0  0  0  0  0
  -21.3847  -25.0410   18.6836 C   0  0  1  0  0  0  0  0  0  0  0  0
  -29.5499  -17.9897   20.1644 C   0  0  2  0  0  0  0  0  0  0  0  0
  -20.6809  -16.3393   21.2888 C   0  0  0  0  0  0  0  0  0  0  0  0
  -25.8276  -15.7353   23.9599 C   0  0  0  0  0  0  0  0  0  0  0  0
  -24.3749  -20.9351   12.8352 C   0  0  0  0  0  0  0  0  0  0  0  0
  -18.6908  -22.7323   15.7217 C   0  0  0  0  0  0  0  0  0  0  0  0
  -19.8950  -21.2839   14.0723 C   0  0  0  0  0  0  0  0  0  0  0  0
  -19.9185  -23.7637   13.8025 C   0  0  0  0  0  0  0  0  0  0  0  0
  -26.2139  -22.1335   15.9429 C   0  0  0  0  0  0  0  0  0  0  0  0
  -25.4914  -16.4626   22.6608 C   0  0  0  0  0  0  0  0  0  0  0  0
  -22.8311  -17.6876   22.7487 C   0  0  0  0  0  0  0  0  0  0  0  0
  -25.8255  -13.9962   21.1359 C   0  0  0  0  0  0  0  0  0  0  0  0
  -26.1015  -13.3026   19.7874 C   0  0  0  0  0  0  0  0  0  0  0  0
  -26.0319  -14.2313   18.5771 C   0  0  0  0  0  0  0  0  0  0  0  0
  -22.7421  -18.9058   21.8358 C   0  0  0  0  0  0  0  0  0  1  0  0
  -21.2717  -22.7059   15.6578 C   0  0  1  0  0  0  0  0  0  0  0  0
  -24.5918  -21.7884   14.0752 C   0  0  2  0  0  0  0  0  0  0  0  0
  -19.9514  -22.6213   14.8410 C   0  0  0  0  0  0  0  0  0  0  0  0
  -29.2170  -20.4334   20.1452 N   0  0  0  0  0  0  0  0  0  0  0  0
  -22.2474  -14.6406   20.5968 N   0  0  0  0  0  0  0  0  0  0  0  0
  -23.4847  -14.0773   20.5598 N   0  0  0  0  0  0  0  0  0  0  0  0
  -29.1581  -19.2879   20.8456 N   0  0  0  0  0  0  0  0  0  0  0  0
  -21.4835  -23.8451   17.8444 N   0  0  0  0  0  0  0  0  0  0  0  0
  -29.0500  -16.3983   18.3462 N   0  0  0  0  0  0  0  0  0  0  0  0
  -28.6184  -18.4016   22.9749 N   0  0  0  0  0  0  0  0  0  0  0  0
  -27.8535  -22.8257   23.4635 N   0  0  0  0  0  0  0  0  0  0  0  0
  -19.6801  -26.2738   19.8805 N   0  0  0  0  0  0  0  0  0  0  0  0
  -22.4820  -22.6308   14.8466 N   0  0  0  0  0  0  0  0  0  0  0  0
  -26.9636  -15.3331   18.6713 N   0  0  0  0  0  0  0  0  0  0  0  0
  -25.8645  -21.3616   14.7227 N   0  3  0  0  0  0  0  0  0  0  0  0
  -27.8177  -20.8001   24.5379 O   0  0  0  0  0  0  0  0  0  0  0  0
  -19.1544  -24.2755   18.8066 O   0  0  0  0  0  0  0  0  0  0  0  0
  -21.3676  -25.0671   15.8621 O   0  0  0  0  0  0  0  0  0  0  0  0
  -23.3780  -20.7686   15.8983 O   0  0  0  0  0  0  0  0  0  0  0  0
  -28.6787  -14.2244   17.6291 O   0  0  0  0  0  0  0  0  0  0  0  0
  -28.5252  -26.7357   19.5524 O   0  0  0  0  0  0  0  0  0  0  0  0
  -22.5271  -20.0798   22.6179 O   0  0  0  0  0  0  0  0  0  1  0  0
  -24.0259  -29.5626   21.0250 F   0  0  0  0  0  0  0  0  0  0  0  0
  -27.8400  -27.0246   22.2151 F   0  0  0  0  0  0  0  0  0  0  0  0
  1  2  1  0  0  0  0
  1  5  2  0  0  0  0
  2  6  2  0  0  0  0
  3  8  2  0  0  0  0
  3 15  1  0  0  0  0
  4  9  1  0  0  0  0
  4 15  2  0  0  0  0
  5 17  1  0  0  0  0
  6 19  1  0  0  0  0
  7 10  2  0  0  0  0
  7 18  1  0  0  0  0
  8 23  1  0  0  0  0
  9 23  2  0  0  0  0
 10 24  1  0  0  0  0
 11 12  2  0  0  0  0
 11 25  1  0  0  0  0
 12 26  1  0  0  0  0
 13 20  1  0  0  0  0
 13 24  2  0  0  0  0
 14 26  2  0  0  0  0
 14 27  1  0  0  0  0
 15 28  1  0  0  0  0
 16 28  1  0  0  0  0
 16 31  2  0  0  0  0
 16 32  1  0  0  0  0
 17 19  2  0  0  0  0
 17 37  1  0  0  0  0
 18 20  2  0  0  0  0
 18 38  1  0  0  0  0
 19 46  1  0  0  0  0
 20 39  1  0  0  0  0
 21 22  2  0  0  0  0
 21 29  1  0  0  0  0
 21 57  1  0  0  0  0
 22 30  1  0  0  0  0
 22 56  1  0  0  0  0
 23 82  1  0  0  0  0
 24 83  1  0  0  0  0
 25 27  2  0  0  0  0
 25 82  1  0  0  0  0
 26 84  1  0  0  0  0
 27 85  1  0  0  0  0
 28 65  2  0  0  0  0
 29 49  1  0  0  0  0
 29 66  2  0  0  0  0
 30 58  1  0  0  0  0
 30 67  2  0  0  0  0
 31 68  1  0  0  0  0
 31 71  1  0  0  0  0
 32 72  1  0  0  0  0
 32 77  2  0  0  0  0
 33 47  1  0  0  0  0
 33 73  1  0  0  0  0
 33 78  2  0  0  0  0
 34 62  1  0  0  0  0
 34 69  1  0  0  0  0
 34 79  2  0  0  0  0
 35 63  1  0  0  0  0
 35 74  1  0  0  0  0
 35 80  2  0  0  0  0
 36 70  1  0  0  0  0
 36 75  1  0  0  0  0
 36 81  2  0  0  0  0
 37 40  1  0  0  0  0
 38 47  1  0  0  0  0
 39 69  1  0  0  0  0
 40 42  1  0  0  0  0
 41 43  1  0  0  0  0
 41 44  1  0  0  0  0
 42 46  1  0  0  0  0
 43 48  1  0  0  0  0
 44 70  1  0  0  0  0
 45 48  1  0  0  0  0
 45 70  1  0  0  0  0
 46 73  1  0  0  0  0
 47 69  1  0  0  0  0
 48 68  1  0  0  0  0
 50 56  1  0  0  0  0
 51 63  1  0  0  0  0
 52 64  1  0  0  0  0
 53 64  1  0  0  0  0
 54 64  1  0  0  0  0
 55 76  1  0  0  0  0
 57 61  1  0  0  0  0
 58 59  1  0  0  0  0
 59 60  1  0  0  0  0
 60 75  1  0  0  0  0
 61 83  1  0  0  0  0
 62 64  1  0  0  0  0
 62 74  1  0  0  0  0
 63 76  1  0  0  0  0
 65 68  1  0  0  0  0
 66 67  1  0  0  0  0
M  CHG  1  76   1
M  ISO  4  36 100  61 101  75 100  83 101
M  END
> <Batch ID>
0076

> <Smiles>
CCc1c(CCC[100NH:0][100C:0](=O)N2CCCC(n3nc(-c4ccc(Oc5ccc(F)cc5F)cc4)c(C(N)=O)c3N)C2)nnc(C)c1C[101CH2:1][101O:1]c1ccc2c(c1)CN(C(=O)C(NC(=O)C(C)NC)C(C)(C)C)C(C(=O)NC1CCCc3ccccc31)C2

> <Shape>
0.168

> <Color>
0.083

> <Negative vol penalty>
0.000

$$$$

  -OEChem-04052318343D

 87 95  0     1  0  0  0  0  0999 V2000
  -31.6266  -33.0267   14.7758 C   0  0  0  0  0  0  0  0  0  0  0  0
  -31.3934  -31.6553   14.7821 C   0  0  0  0  0  0  0  0  0  0  0  0
  -24.4287   -9.2206   21.4163 C   0  0  0  0  0  0  0  0  0  0  0  0
  -24.7776  -10.3141   23.5422 C   0  0  0  0  0  0  0  0  0  0  0  0
  -31.5526  -33.7508   15.9650 C   0  0  0  0  0  0  0  0  0  0  0  0
  -31.0870  -31.0068   15.9780 C   0  0  0  0  0  0  0  0  0  0  0  0
  -27.2308  -25.5377   18.5344 C   0  0  0  0  0  0  0  0  0  0  0  0
  -24.1676   -8.0201   22.0766 C   0  0  0  0  0  0  0  0  0  0  0  0
  -24.5165   -9.1135   24.2026 C   0  0  0  0  0  0  0  0  0  0  0  0
  -27.3699  -24.3997   19.3278 C   0  0  0  0  0  0  0  0  0  0  0  0
  -21.5875   -6.6014   23.7389 C   0  0  0  0  0  0  0  0  0  0  0  0
  -20.4902   -5.8528   23.3132 C   0  0  0  0  0  0  0  0  0  0  0  0
  -27.1915  -25.7658   21.3080 C   0  0  0  0  0  0  0  0  0  0  0  0
  -21.9545   -4.0032   22.7915 C   0  0  0  0  0  0  0  0  0  0  0  0
  -27.0860  -18.6435   24.3258 C   0  0  0  0  0  0  0  0  0  0  0  0
  -24.7337  -10.3677   22.1491 C   0  0  0  0  0  0  0  0  0  0  0  0
  -24.0733  -12.6016   21.1095 C   0  0  0  0  0  0  0  0  0  0  0  0
  -31.2357  -33.1125   17.1744 C   0  0  0  0  0  0  0  0  0  0  0  0
  -27.0817  -26.8018   19.1229 C   0  0  0  0  0  0  0  0  0  0  0  0
  -31.0101  -31.7228   17.1847 C   0  0  0  0  0  0  0  0  0  0  0  0
  -27.0482  -26.9180   20.5199 C   0  0  0  0  0  0  0  0  0  0  0  0
  -26.6151  -19.6305   25.1567 C   0  0  0  0  0  0  0  0  0  0  0  0
  -24.2115   -7.9665   23.4697 C   0  0  0  0  0  0  0  0  0  0  0  0
  -27.3532  -24.5140   20.7148 C   0  0  0  0  0  0  0  0  0  0  0  0
  -22.8683   -6.0509   23.6907 C   0  0  0  0  0  0  0  0  0  0  0  0
  -20.6737   -4.5537   22.8396 C   0  0  0  0  0  0  0  0  0  0  0  0
  -23.0518   -4.7518   23.2171 C   0  0  0  0  0  0  0  0  0  0  0  0
  -25.0041  -11.6080   21.4676 C   0  0  0  0  0  0  0  0  0  0  0  0
  -27.5042  -19.6255   26.2482 C   0  0  0  0  0  0  0  0  0  0  0  0
  -24.8255  -13.5692   20.4894 C   0  0  0  0  0  0  0  0  0  0  0  0
  -22.6556  -12.6461   21.3188 C   0  0  0  0  0  0  0  0  0  0  0  0
  -28.7612  -29.5004   19.0969 C   0  0  0  0  0  0  0  0  0  0  0  0
  -26.2148  -30.6437   20.7495 C   0  0  0  0  0  0  0  0  0  0  0  0
  -23.5377  -29.9909   22.7629 C   0  0  0  0  0  0  0  0  0  0  0  0
  -30.6020  -15.1015   20.8558 C   0  0  0  0  0  0  0  0  0  0  0  0
  -31.2137  -33.9292   18.4422 C   0  0  0  0  0  0  0  0  0  0  0  0
  -26.9061  -28.0163   18.2531 C   0  0  0  0  0  0  0  0  0  0  0  0
  -26.8704  -28.2496   21.2008 C   0  0  0  0  0  0  0  0  0  0  0  0
  -30.5152  -33.2296   19.6053 C   0  0  0  0  0  0  0  0  0  0  0  0
  -28.8260  -14.1319   17.9262 C   0  0  0  0  0  0  0  0  0  0  0  0
  -30.9908  -31.7850   19.7227 C   0  0  0  0  0  0  0  0  0  0  0  0
  -27.5611  -13.4647   18.4693 C   0  0  0  0  0  0  0  0  0  0  0  0
  -30.0412  -13.8349   18.8021 C   0  0  0  0  0  0  0  0  0  0  0  0
  -28.6036  -13.4903   20.7740 C   0  0  0  0  0  0  0  0  0  0  0  0
  -30.6507  -30.9877   18.4578 C   0  0  1  0  0  0  0  0  0  0  0  0
  -27.2762  -29.3164   18.9604 C   0  0  1  0  0  0  0  0  0  0  0  0
  -27.3405  -13.8069   19.9551 C   0  0  2  0  0  0  0  0  0  0  0  0
  -27.4725  -20.4874   27.4429 C   0  0  0  0  0  0  0  0  0  0  0  0
  -21.6650  -31.1328   23.9822 C   0  0  0  0  0  0  0  0  0  0  0  0
  -29.4693  -16.1599   25.6239 C   0  0  0  0  0  0  0  0  0  0  0  0
  -28.1814  -31.5837   22.8847 C   0  0  0  0  0  0  0  0  0  0  0  0
  -26.2480  -31.8359   24.4553 C   0  0  0  0  0  0  0  0  0  0  0  0
  -26.3463  -33.2032   22.3712 C   0  0  0  0  0  0  0  0  0  0  0  0
  -29.7041  -18.2972   22.2665 C   0  0  0  0  0  0  0  0  0  0  0  0
  -31.1578  -18.4640   24.2754 C   0  0  0  0  0  0  0  0  0  0  0  0
  -21.4828  -28.5247   21.2180 C   0  0  0  0  0  0  0  0  0  0  0  0
  -25.4132  -20.5143   24.9373 C   0  0  0  0  0  0  0  0  0  0  0  0
  -25.7649  -21.9405   24.4997 C   0  0  0  0  0  0  0  0  0  0  0  0
  -26.4764  -21.9934   23.1470 C   0  0  0  0  0  0  0  0  0  0  0  0
  -31.0282  -16.3098   22.9812 C   0  0  0  0  0  0  0  0  0  0  0  0
  -26.8449  -23.4204   22.7646 C   0  0  0  0  0  0  0  0  0  1  0  0
  -25.8397  -30.7316   22.2092 C   0  0  1  0  0  0  0  0  0  0  0  0
  -22.0910  -30.4457   22.6941 C   0  0  2  0  0  0  0  0  0  0  0  0
  -29.0236  -17.0598   24.4547 C   0  0  2  0  0  0  0  0  0  0  0  0
  -26.6591  -31.8136   22.9676 C   0  0  0  0  0  0  0  0  0  0  0  0
  -30.2021  -17.5190   23.5045 C   0  0  0  0  0  0  0  0  0  0  0  0
  -26.2521  -11.9159   21.1049 N   0  0  0  0  0  0  0  0  0  0  0  0
  -28.4669  -18.7080   26.1248 N   0  0  0  0  0  0  0  0  0  0  0  0
  -28.1855  -18.1272   24.9460 N   0  0  0  0  0  0  0  0  0  0  0  0
  -26.1109  -13.1139   20.5125 N   0  0  0  0  0  0  0  0  0  0  0  0
  -26.7089  -29.4084   20.3072 N   0  0  0  0  0  0  0  0  0  0  0  0
  -29.7669  -14.1832   20.1983 N   0  0  0  0  0  0  0  0  0  0  0  0
  -24.5061  -14.7565   19.9320 N   0  0  0  0  0  0  0  0  0  0  0  0
  -22.0427  -11.5686   21.9727 N   0  0  0  0  0  0  0  0  0  0  0  0
  -29.2508  -30.6206   18.4528 N   0  0  0  0  0  0  0  0  0  0  0  0
  -24.3961  -30.9391   22.2479 N   0  0  0  0  0  0  0  0  0  0  0  0
  -30.2679  -15.3807   22.1753 N   0  0  0  0  0  0  0  0  0  0  0  0
  -21.1919  -29.2796   22.4639 N   0  3  0  0  0  0  0  0  0  0  0  0
  -21.9508  -13.6051   20.9227 O   0  0  0  0  0  0  0  0  0  0  0  0
  -29.4142  -28.6872   19.7403 O   0  0  0  0  0  0  0  0  0  0  0  0
  -26.0679  -31.6325   20.0268 O   0  0  0  0  0  0  0  0  0  0  0  0
  -23.8730  -28.9049   23.2304 O   0  0  0  0  0  0  0  0  0  0  0  0
  -31.5703  -15.6372   20.3058 O   0  0  0  0  0  0  0  0  0  0  0  0
  -23.9565   -6.7951   24.1144 O   0  0  0  0  0  0  0  0  0  0  0  0
  -27.4894  -23.4049   21.4915 O   0  0  0  0  0  0  0  0  0  1  0  0
  -19.6197   -3.8343   22.4323 F   0  0  0  0  0  0  0  0  0  0  0  0
  -24.2797   -4.2172   23.1696 F   0  0  0  0  0  0  0  0  0  0  0  0
  1  2  1  0  0  0  0
  1  5  2  0  0  0  0
  2  6  2  0  0  0  0
  3  8  2  0  0  0  0
  3 16  1  0  0  0  0
  4  9  1  0  0  0  0
  4 16  2  0  0  0  0
  5 18  1  0  0  0  0
  6 20  1  0  0  0  0
  7 10  2  0  0  0  0
  7 19  1  0  0  0  0
  8 23  1  0  0  0  0
  9 23  2  0  0  0  0
 10 24  1  0  0  0  0
 11 12  2  0  0  0  0
 11 25  1  0  0  0  0
 12 26  1  0  0  0  0
 13 21  1  0  0  0  0
 13 24  2  0  0  0  0
 14 26  2  0  0  0  0
 14 27  1  0  0  0  0
 15 22  2  0  0  0  0
 15 69  1  0  0  0  0
 16 28  1  0  0  0  0
 17 28  1  0  0  0  0
 17 30  2  0  0  0  0
 17 31  1  0  0  0  0
 18 20  2  0  0  0  0
 18 36  1  0  0  0  0
 19 21  2  0  0  0  0
 19 37  1  0  0  0  0
 20 45  1  0  0  0  0
 21 38  1  0  0  0  0
 22 29  1  0  0  0  0
 22 57  1  0  0  0  0
 23 84  1  0  0  0  0
 24 85  1  0  0  0  0
 25 27  2  0  0  0  0
 25 84  1  0  0  0  0
 26 86  1  0  0  0  0
 27 87  1  0  0  0  0
 28 67  2  0  0  0  0
 29 48  1  0  0  0  0
 29 68  2  0  0  0  0
 30 70  1  0  0  0  0
 30 73  1  0  0  0  0
 31 74  1  0  0  0  0
 31 79  2  0  0  0  0
 32 46  1  0  0  0  0
 32 75  1  0  0  0  0
 32 80  2  0  0  0  0
 33 62  1  0  0  0  0
 33 71  1  0  0  0  0
 33 81  2  0  0  0  0
 34 63  1  0  0  0  0
 34 76  1  0  0  0  0
 34 82  2  0  0  0  0
 35 72  1  0  0  0  0
 35 77  1  0  0  0  0
 35 83  2  0  0  0  0
 36 39  1  0  0  0  0
 37 46  1  0  0  0  0
 38 71  1  0  0  0  0
 39 41  1  0  0  0  0
 40 42  1  0  0  0  0
 40 43  1  0  0  0  0
 41 45  1  0  0  0  0
 42 47  1  0  0  0  0
 43 72  1  0  0  0  0
 44 47  1  0  0  0  0
 44 72  1  0  0  0  0
 45 75  1  0  0  0  0
 46 71  1  0  0  0  0
 47 70  1  0  0  0  0
 49 63  1  0  0  0  0
 50 64  1  0  0  0  0
 51 65  1  0  0  0  0
 52 65  1  0  0  0  0
 53 65  1  0  0  0  0
 54 66  1  0  0  0  0
 55 66  1  0  0  0  0
 56 78  1  0  0  0  0
 57 58  1  0  0  0  0
 58 59  1  0  0  0  0
 59 61  1  0  0  0  0
 60 66  1  0  0  0  0
 60 77  1  0  0  0  0
 61 85  1  0  0  0  0
 62 65  1  0  0  0  0
 62 76  1  0  0  0  0
 63 78  1  0  0  0  0
 64 66  1  0  0  0  0
 64 69  1  0  0  0  0
 67 70  1  0  0  0  0
 68 69  1  0  0  0  0
M  CHG  1  78   1
M  ISO  4  35 100  61 101  77 100  85 101
M  END
> <Batch ID>
0076

> <Smiles>
CNC(C)C(=O)NC(C(=O)N1Cc2cc([101O:1][101CH2:1]CCCc3cn(C(C)C(C)(C)C[100NH:0][100C:0](=O)N4CCCC(n5nc(-c6ccc(Oc7ccc(F)cc7F)cc6)c(C(N)=O)c5N)C4)nc3C)ccc2CC1C(=O)NC1CCCc2ccccc21)C(C)(C)C

> <Shape>
0.252

> <Color>
0.127

> <Negative vol penalty>
0.000

$$$$

  -OEChem-04052318343D

 85 93  0     1  0  0  0  0  0999 V2000
  -18.6858  -32.8547   20.7140 C   0  0  0  0  0  0  0  0  0  0  0  0
  -19.9287  -32.4635   20.2265 C   0  0  0  0  0  0  0  0  0  0  0  0
  -24.0723  -11.3820   20.1906 C   0  0  0  0  0  0  0  0  0  0  0  0
  -23.9601  -10.6751   22.4981 C   0  0  0  0  0  0  0  0  0  0  0  0
  -18.2923  -32.4794   21.9978 C   0  0  0  0  0  0  0  0  0  0  0  0
  -20.7792  -31.6976   21.0230 C   0  0  0  0  0  0  0  0  0  0  0  0
  -24.6361  -27.3263   19.1464 C   0  0  0  0  0  0  0  0  0  0  0  0
  -27.6955  -22.2261   20.1440 C   0  0  0  0  0  0  0  0  0  0  0  0
  -23.6657  -10.1119   19.7817 C   0  0  0  0  0  0  0  0  0  0  0  0
  -23.5534   -9.4050   22.0893 C   0  0  0  0  0  0  0  0  0  0  0  0
  -26.0066  -27.3313   18.8904 C   0  0  0  0  0  0  0  0  0  0  0  0
  -22.1378   -6.0827   21.6692 C   0  0  0  0  0  0  0  0  0  0  0  0
  -21.0747   -5.4906   22.3509 C   0  0  0  0  0  0  0  0  0  0  0  0
  -27.6274  -21.0557   20.8915 C   0  0  0  0  0  0  0  0  0  0  0  0
  -26.4185  -26.4870   21.1123 C   0  0  0  0  0  0  0  0  0  0  0  0
  -19.6420   -7.3285   21.7132 C   0  0  0  0  0  0  0  0  0  0  0  0
  -24.2195  -11.6636   21.5488 C   0  0  0  0  0  0  0  0  0  0  0  0
  -23.8162  -14.0772   22.2695 C   0  0  0  0  0  0  0  0  0  0  0  0
  -19.1344  -31.7004   22.8069 C   0  0  0  0  0  0  0  0  0  0  0  0
  -24.1464  -26.9113   20.3931 C   0  0  0  0  0  0  0  0  0  0  0  0
  -20.3971  -31.3127   22.3194 C   0  0  0  0  0  0  0  0  0  0  0  0
  -25.0412  -26.4753   21.3807 C   0  0  0  0  0  0  0  0  0  0  0  0
  -28.7188  -22.3943   19.2178 C   0  0  0  0  0  0  0  0  0  0  0  0
  -23.4062   -9.1234   20.7310 C   0  0  0  0  0  0  0  0  0  0  0  0
  -26.8982  -26.9144   19.8745 C   0  0  0  0  0  0  0  0  0  0  0  0
  -21.9530   -7.2978   21.0095 C   0  0  0  0  0  0  0  0  0  0  0  0
  -19.8268   -6.1134   22.3729 C   0  0  0  0  0  0  0  0  0  0  0  0
  -20.7051   -7.9207   21.0315 C   0  0  0  0  0  0  0  0  0  0  0  0
  -24.6401  -12.9752   21.9717 C   0  0  0  0  0  0  0  0  0  0  0  0
  -29.6418  -21.3704   19.0780 C   0  0  0  0  0  0  0  0  0  0  0  0
  -28.5991  -20.0916   20.6767 C   0  0  0  0  0  0  0  0  0  0  0  0
  -24.6918  -15.0761   22.6189 C   0  0  0  0  0  0  0  0  0  0  0  0
  -22.3872  -14.1880   22.2334 C   0  0  0  0  0  0  0  0  0  0  0  0
  -22.4918  -28.2962   22.7272 C   0  0  0  0  0  0  0  0  0  0  0  0
  -22.4838  -25.3002   23.9705 C   0  0  0  0  0  0  0  0  0  0  0  0
  -23.9620  -22.2287   24.1374 C   0  0  0  0  0  0  0  0  0  0  0  0
  -29.4669  -17.8449   21.3048 C   0  0  0  0  0  0  0  0  0  0  0  0
  -18.6850  -31.3590   24.2055 C   0  0  0  0  0  0  0  0  0  0  0  0
  -22.6636  -26.8865   20.6442 C   0  0  0  0  0  0  0  0  0  0  0  0
  -24.5651  -26.0011   22.7286 C   0  0  0  0  0  0  0  0  0  0  0  0
  -19.4901  -30.2311   24.8457 C   0  0  0  0  0  0  0  0  0  0  0  0
  -29.6468  -14.9469   23.5806 C   0  0  0  0  0  0  0  0  0  0  0  0
  -20.9842  -30.4561   24.6361 C   0  0  0  0  0  0  0  0  0  0  0  0
  -28.3169  -14.2368   23.3334 C   0  0  0  0  0  0  0  0  0  0  0  0
  -30.1292  -15.6945   22.3410 C   0  0  0  0  0  0  0  0  0  0  0  0
  -27.7982  -15.9444   21.5444 C   0  0  0  0  0  0  0  0  0  0  0  0
  -21.3375  -30.4607   23.1439 C   0  0  1  0  0  0  0  0  0  0  0  0
  -22.3078  -26.9311   22.1270 C   0  0  1  0  0  0  0  0  0  0  0  0
  -27.2644  -15.2174   22.7880 C   0  0  1  0  0  0  0  0  0  0  0  0
  -30.7628  -21.4976   18.0989 C   0  0  0  0  0  0  0  0  0  0  0  0
  -23.7489  -19.9989   25.2687 C   0  0  0  0  0  0  0  0  0  0  0  0
  -23.6142  -26.4980   26.5390 C   0  0  0  0  0  0  0  0  0  0  0  0
  -24.2591  -24.1860   27.2510 C   0  0  0  0  0  0  0  0  0  0  0  0
  -21.8572  -24.7526   26.8870 C   0  0  0  0  0  0  0  0  0  0  0  0
  -30.4103  -25.7679   16.7438 C   0  0  0  0  0  0  0  0  0  0  0  0
  -31.0610  -26.8688   18.9006 C   0  0  0  0  0  0  0  0  0  0  0  0
  -27.5850  -18.8362   22.5876 C   0  0  0  0  0  0  0  0  0  0  0  0
  -23.5999  -20.8243   21.5576 C   0  0  0  0  0  0  0  0  0  0  0  0
  -28.7996  -23.6632   18.4037 C   0  0  0  0  0  0  0  0  0  0  0  0
  -29.8828  -24.6066   18.9452 C   0  0  0  0  0  0  0  0  0  0  0  0
  -28.6485  -26.7083   18.2776 C   0  0  0  0  0  0  0  0  0  1  0  0
  -23.3926  -24.5225   24.8916 C   0  0  1  0  0  0  0  0  0  0  0  0
  -23.3858  -20.8272   24.0461 C   0  0  2  0  0  0  0  0  0  0  0  0
  -23.2902  -25.0005   26.3675 C   0  0  0  0  0  0  0  0  0  0  0  0
  -30.0112  -25.9751   18.2168 C   0  0  0  0  0  0  0  0  0  0  0  0
  -25.9392  -13.2480   22.1190 N   0  0  0  0  0  0  0  0  0  0  0  0
  -29.6082  -20.2193   19.7861 N   0  0  0  0  0  0  0  0  0  0  0  0
  -25.9384  -14.5329   22.5130 N   0  0  0  0  0  0  0  0  0  0  0  0
  -23.1064  -26.0013   22.9281 N   0  0  0  0  0  0  0  0  0  0  0  0
  -29.0938  -16.5858   21.8163 N   0  0  0  0  0  0  0  0  0  0  0  0
  -24.5093  -16.3572   23.0032 N   0  0  0  0  0  0  0  0  0  0  0  0
  -21.6394  -13.0656   21.8525 N   0  0  0  0  0  0  0  0  0  0  0  0
  -21.3780  -29.1083   22.6301 N   0  0  0  0  0  0  0  0  0  0  0  0
  -23.0646  -23.1145   24.6954 N   0  0  0  0  0  0  0  0  0  0  0  0
  -28.5193  -18.8801   21.4580 N   0  0  0  0  0  0  0  0  0  0  0  0
  -23.9059  -20.1312   22.8354 N   0  3  0  0  0  0  0  0  0  0  0  0
  -21.7918  -15.2558   22.5145 O   0  0  0  0  0  0  0  0  0  0  0  0
  -23.5644  -28.5905   23.2417 O   0  0  0  0  0  0  0  0  0  0  0  0
  -21.2658  -25.2804   24.1644 O   0  0  0  0  0  0  0  0  0  0  0  0
  -25.0961  -22.5088   23.7556 O   0  0  0  0  0  0  0  0  0  0  0  0
  -30.5706  -18.0351   20.7802 O   0  0  0  0  0  0  0  0  0  0  0  0
  -23.0092   -7.8840   20.3325 O   0  0  0  0  0  0  0  0  0  0  0  0
  -28.2364  -26.9188   19.6275 O   0  0  0  0  0  0  0  0  0  1  0  0
  -18.8056   -5.5439   23.0264 F   0  0  0  0  0  0  0  0  0  0  0  0
  -20.5213   -9.0875   20.3986 F   0  0  0  0  0  0  0  0  0  0  0  0
  1  2  1  0  0  0  0
  1  5  2  0  0  0  0
  2  6  2  0  0  0  0
  3  9  2  0  0  0  0
  3 17  1  0  0  0  0
  4 10  1  0  0  0  0
  4 17  2  0  0  0  0
  5 19  1  0  0  0  0
  6 21  1  0  0  0  0
  7 11  2  0  0  0  0
  7 20  1  0  0  0  0
  8 14  2  0  0  0  0
  8 23  1  0  0  0  0
  9 24  1  0  0  0  0
 10 24  2  0  0  0  0
 11 25  1  0  0  0  0
 12 13  2  0  0  0  0
 12 26  1  0  0  0  0
 13 27  1  0  0  0  0
 14 31  1  0  0  0  0
 15 22  1  0  0  0  0
 15 25  2  0  0  0  0
 16 27  2  0  0  0  0
 16 28  1  0  0  0  0
 17 29  1  0  0  0  0
 18 29  1  0  0  0  0
 18 32  2  0  0  0  0
 18 33  1  0  0  0  0
 19 21  2  0  0  0  0
 19 38  1  0  0  0  0
 20 22  2  0  0  0  0
 20 39  1  0  0  0  0
 21 47  1  0  0  0  0
 22 40  1  0  0  0  0
 23 30  2  0  0  0  0
 23 59  1  0  0  0  0
 24 82  1  0  0  0  0
 25 83  1  0  0  0  0
 26 28  2  0  0  0  0
 26 82  1  0  0  0  0
 27 84  1  0  0  0  0
 28 85  1  0  0  0  0
 29 66  2  0  0  0  0
 30 50  1  0  0  0  0
 30 67  1  0  0  0  0
 31 67  2  0  0  0  0
 31 75  1  0  0  0  0
 32 68  1  0  0  0  0
 32 71  1  0  0  0  0
 33 72  1  0  0  0  0
 33 77  2  0  0  0  0
 34 48  1  0  0  0  0
 34 73  1  0  0  0  0
 34 78  2  0  0  0  0
 35 62  1  0  0  0  0
 35 69  1  0  0  0  0
 35 79  2  0  0  0  0
 36 63  1  0  0  0  0
 36 74  1  0  0  0  0
 36 80  2  0  0  0  0
 37 70  1  0  0  0  0
 37 75  1  0  0  0  0
 37 81  2  0  0  0  0
 38 41  1  0  0  0  0
 39 48  1  0  0  0  0
 40 69  1  0  0  0  0
 41 43  1  0  0  0  0
 42 44  1  0  0  0  0
 42 45  1  0  0  0  0
 43 47  1  0  0  0  0
 44 49  1  0  0  0  0
 45 70  1  0  0  0  0
 46 49  1  0  0  0  0
 46 70  1  0  0  0  0
 47 73  1  0  0  0  0
 48 69  1  0  0  0  0
 49 68  1  0  0  0  0
 51 63  1  0  0  0  0
 52 64  1  0  0  0  0
 53 64  1  0  0  0  0
 54 64  1  0  0  0  0
 55 65  1  0  0  0  0
 56 65  1  0  0  0  0
 57 75  1  0  0  0  0
 58 76  1  0  0  0  0
 59 60  1  0  0  0  0
 60 65  1  0  0  0  0
 61 65  1  0  0  0  0
 61 83  1  0  0  0  0
 62 64  1  0  0  0  0
 62 74  1  0  0  0  0
 63 76  1  0  0  0  0
 66 68  1  0  0  0  0
M  CHG  1  76   1
M  ISO  4  37 100  61 101  75 100  83 101
M  END
> <Batch ID>
0076

> <Smiles>
CNC(C)C(=O)NC(C(=O)N1Cc2cc([101O:1][101CH2:1]C(C)(C)CCc3ccc([100N:0](C)[100C:0](=O)N4CCCC(n5nc(-c6ccc(Oc7ccc(F)cc7F)cc6)c(C(N)=O)c5N)C4)nc3C)ccc2CC1C(=O)NC1CCCc2ccccc21)C(C)(C)C

> <Shape>
0.225

> <Color>
0.101

> <Negative vol penalty>
0.000

$$$$

  -OEChem-04052318343D

 81 89  0     1  0  0  0  0  0999 V2000
  -33.3437  -20.3961   21.9162 C   0  0  0  0  0  0  0  0  0  0  0  0
  -32.1931  -20.7168   22.6294 C   0  0  0  0  0  0  0  0  0  0  0  0
  -28.3433  -28.7576   20.9725 C   0  0  0  0  0  0  0  0  0  0  0  0
  -27.0969  -27.2976   19.5056 C   0  0  0  0  0  0  0  0  0  0  0  0
  -33.2407  -19.8661   20.6307 C   0  0  0  0  0  0  0  0  0  0  0  0
  -30.9387  -20.5086   22.0570 C   0  0  0  0  0  0  0  0  0  0  0  0
  -25.8096  -18.8172   24.9444 C   0  0  0  0  0  0  0  0  0  0  0  0
  -29.4955  -28.0063   20.7414 C   0  0  0  0  0  0  0  0  0  0  0  0
  -28.2491  -26.5462   19.2744 C   0  0  0  0  0  0  0  0  0  0  0  0
  -24.7131  -19.5414   25.4104 C   0  0  0  0  0  0  0  0  0  0  0  0
  -31.0440  -26.7908   17.3904 C   0  0  0  0  0  0  0  0  0  0  0  0
  -31.3261  -26.4282   16.0734 C   0  0  0  0  0  0  0  0  0  0  0  0
  -23.5200  -19.0319   23.3766 C   0  0  0  0  0  0  0  0  0  0  0  0
  -31.2267  -24.0955   16.6944 C   0  0  0  0  0  0  0  0  0  0  0  0
  -16.9805  -25.6901   22.0535 C   0  0  0  0  0  0  0  0  0  0  0  0
  -27.1440  -28.4033   20.3546 C   0  0  0  0  0  0  0  0  0  0  0  0
  -25.5051  -30.2953   19.8625 C   0  0  0  0  0  0  0  0  0  0  0  0
  -31.9842  -19.6423   20.0461 C   0  0  0  0  0  0  0  0  0  0  0  0
  -25.7734  -18.2030   23.6843 C   0  0  0  0  0  0  0  0  0  0  0  0
  -30.8188  -19.9763   20.7620 C   0  0  0  0  0  0  0  0  0  0  0  0
  -24.6163  -18.2983   22.8981 C   0  0  0  0  0  0  0  0  0  0  0  0
  -17.3284  -24.6920   22.9832 C   0  0  0  0  0  0  0  0  0  0  0  0
  -29.4485  -26.9006   19.8924 C   0  0  0  0  0  0  0  0  0  0  0  0
  -23.5692  -19.6512   24.6252 C   0  0  0  0  0  0  0  0  0  0  0  0
  -30.8534  -25.8057   18.3595 C   0  0  0  0  0  0  0  0  0  0  0  0
  -31.4174  -25.0806   15.7253 C   0  0  0  0  0  0  0  0  0  0  0  0
  -30.9447  -24.4581   18.0114 C   0  0  0  0  0  0  0  0  0  0  0  0
  -25.9532  -29.1787   20.5934 C   0  0  0  0  0  0  0  0  0  0  0  0
  -18.6322  -24.9702   23.3138 C   0  0  0  0  0  0  0  0  0  0  0  0
  -24.3377  -30.6663   20.4838 C   0  0  0  0  0  0  0  0  0  0  0  0
  -26.0917  -30.9394   18.7238 C   0  0  0  0  0  0  0  0  0  0  0  0
  -27.4366  -18.5065   20.9925 C   0  0  0  0  0  0  0  0  0  0  0  0
  -20.4234  -27.5817   23.8416 C   0  0  0  0  0  0  0  0  0  0  0  0
  -25.6686  -15.9480   20.0702 C   0  0  0  0  0  0  0  0  0  0  0  0
  -22.8187  -14.1085   20.4462 C   0  0  0  0  0  0  0  0  0  0  0  0
  -31.9240  -19.1115   18.6356 C   0  0  0  0  0  0  0  0  0  0  0  0
  -26.9546  -17.4030   23.2075 C   0  0  0  0  0  0  0  0  0  0  0  0
  -24.5194  -17.6406   21.5466 C   0  0  0  0  0  0  0  0  0  0  0  0
  -30.5502  -18.5718   18.2461 C   0  0  0  0  0  0  0  0  0  0  0  0
  -22.1597  -30.5864   24.7344 C   0  0  0  0  0  0  0  0  0  0  0  0
  -29.4550  -19.5481   18.6638 C   0  0  0  0  0  0  0  0  0  0  0  0
  -23.3053  -30.6523   23.7252 C   0  0  0  0  0  0  0  0  0  0  0  0
  -21.8430  -29.1465   25.1263 C   0  0  0  0  0  0  0  0  0  0  0  0
  -22.6920  -28.3164   22.9556 C   0  0  0  0  0  0  0  0  0  0  0  0
  -29.4396  -19.7419   20.1849 C   0  0  1  0  0  0  0  0  0  0  0  0
  -26.9992  -17.2497   21.6903 C   0  0  1  0  0  0  0  0  0  0  0  0
  -23.0237  -29.7515   22.5097 C   0  0  2  0  0  0  0  0  0  0  0  0
  -16.4806  -23.5978   23.4850 C   0  0  0  0  0  0  0  0  0  0  0  0
  -21.6379  -12.0950   19.5250 C   0  0  0  0  0  0  0  0  0  0  0  0
  -24.8615  -17.5528   17.6038 C   0  0  0  0  0  0  0  0  0  0  0  0
  -22.9986  -15.9208   17.2374 C   0  0  0  0  0  0  0  0  0  0  0  0
  -25.3679  -15.1440   17.1614 C   0  0  0  0  0  0  0  0  0  0  0  0
  -22.8787  -12.7310   23.0650 C   0  0  0  0  0  0  0  0  0  0  0  0
  -19.5887  -24.2825   24.2551 C   0  0  0  0  0  0  0  0  0  0  0  0
  -20.2467  -26.7557   22.5924 C   0  0  0  0  0  0  0  0  0  0  0  0
  -20.1753  -22.9801   23.6994 C   0  0  0  0  0  0  0  0  0  0  0  0
  -21.0821  -22.2582   24.6971 C   0  0  0  0  0  0  0  0  0  0  0  0
  -21.6770  -20.9915   24.0969 C   0  0  0  0  0  0  0  0  0  1  0  0
  -24.3362  -15.7599   19.3859 C   0  0  1  0  0  0  0  0  0  0  0  0
  -22.5960  -12.6134   20.5861 C   0  0  2  0  0  0  0  0  0  0  0  0
  -24.3933  -16.1085   17.8717 C   0  0  0  0  0  0  0  0  0  0  0  0
  -17.9822  -26.5391   21.8093 N   0  0  0  0  0  0  0  0  0  0  0  0
  -25.1371  -28.8612   21.6020 N   0  0  0  0  0  0  0  0  0  0  0  0
  -18.9725  -26.0752   22.5905 N   0  0  0  0  0  0  0  0  0  0  0  0
  -24.1645  -29.7840   21.5093 N   0  0  0  0  0  0  0  0  0  0  0  0
  -25.7028  -16.8748   21.1217 N   0  0  0  0  0  0  0  0  0  0  0  0
  -21.6038  -28.3182   23.9431 N   0  0  0  0  0  0  0  0  0  0  0  0
  -23.4528  -31.6580   20.2474 N   0  0  0  0  0  0  0  0  0  0  0  0
  -27.2927  -30.4291   18.2125 N   0  0  0  0  0  0  0  0  0  0  0  0
  -28.8048  -18.6136   20.8318 N   0  0  0  0  0  0  0  0  0  0  0  0
  -23.9219  -14.3899   19.6684 N   0  0  0  0  0  0  0  0  0  0  0  0
  -22.0277  -12.2976   21.9271 N   0  3  0  0  0  0  0  0  0  0  0  0
  -25.5748  -31.9480   18.1860 O   0  0  0  0  0  0  0  0  0  0  0  0
  -26.5949  -19.3181   20.6257 O   0  0  0  0  0  0  0  0  0  0  0  0
  -19.5363  -27.5736   24.6991 O   0  0  0  0  0  0  0  0  0  0  0  0
  -26.6414  -15.2913   19.6906 O   0  0  0  0  0  0  0  0  0  0  0  0
  -22.0852  -14.9432   20.9712 O   0  0  0  0  0  0  0  0  0  0  0  0
  -30.5727  -26.1673   19.6664 O   0  0  0  0  0  0  0  0  0  0  0  0
  -22.4978  -20.3580   25.0774 O   0  0  0  0  0  0  0  0  0  1  0  0
  -31.6867  -24.7325   14.4602 F   0  0  0  0  0  0  0  0  0  0  0  0
  -30.7614  -23.5072   18.9377 F   0  0  0  0  0  0  0  0  0  0  0  0
  1  2  1  0  0  0  0
  1  5  2  0  0  0  0
  2  6  2  0  0  0  0
  3  8  2  0  0  0  0
  3 16  1  0  0  0  0
  4  9  1  0  0  0  0
  4 16  2  0  0  0  0
  5 18  1  0  0  0  0
  6 20  1  0  0  0  0
  7 10  2  0  0  0  0
  7 19  1  0  0  0  0
  8 23  1  0  0  0  0
  9 23  2  0  0  0  0
 10 24  1  0  0  0  0
 11 12  2  0  0  0  0
 11 25  1  0  0  0  0
 12 26  1  0  0  0  0
 13 21  1  0  0  0  0
 13 24  2  0  0  0  0
 14 26  2  0  0  0  0
 14 27  1  0  0  0  0
 15 22  1  0  0  0  0
 15 62  2  0  0  0  0
 16 28  1  0  0  0  0
 17 28  1  0  0  0  0
 17 30  2  0  0  0  0
 17 31  1  0  0  0  0
 18 20  2  0  0  0  0
 18 36  1  0  0  0  0
 19 21  2  0  0  0  0
 19 37  1  0  0  0  0
 20 45  1  0  0  0  0
 21 38  1  0  0  0  0
 22 29  2  0  0  0  0
 22 48  1  0  0  0  0
 23 78  1  0  0  0  0
 24 79  1  0  0  0  0
 25 27  2  0  0  0  0
 25 78  1  0  0  0  0
 26 80  1  0  0  0  0
 27 81  1  0  0  0  0
 28 63  2  0  0  0  0
 29 54  1  0  0  0  0
 29 64  1  0  0  0  0
 30 65  1  0  0  0  0
 30 68  1  0  0  0  0
 31 69  1  0  0  0  0
 31 73  2  0  0  0  0
 32 46  1  0  0  0  0
 32 70  1  0  0  0  0
 32 74  2  0  0  0  0
 33 55  1  0  0  0  0
 33 67  1  0  0  0  0
 33 75  2  0  0  0  0
 34 59  1  0  0  0  0
 34 66  1  0  0  0  0
 34 76  2  0  0  0  0
 35 60  1  0  0  0  0
 35 71  1  0  0  0  0
 35 77  2  0  0  0  0
 36 39  1  0  0  0  0
 37 46  1  0  0  0  0
 38 66  1  0  0  0  0
 39 41  1  0  0  0  0
 40 42  1  0  0  0  0
 40 43  1  0  0  0  0
 41 45  1  0  0  0  0
 42 47  1  0  0  0  0
 43 67  1  0  0  0  0
 44 47  1  0  0  0  0
 44 67  1  0  0  0  0
 45 70  1  0  0  0  0
 46 66  1  0  0  0  0
 47 65  1  0  0  0  0
 49 60  1  0  0  0  0
 50 61  1  0  0  0  0
 51 61  1  0  0  0  0
 52 61  1  0  0  0  0
 53 72  1  0  0  0  0
 54 56  1  0  0  0  0
 55 64  1  0  0  0  0
 56 57  1  0  0  0  0
 57 58  1  0  0  0  0
 58 79  1  0  0  0  0
 59 61  1  0  0  0  0
 59 71  1  0  0  0  0
 60 72  1  0  0  0  0
 62 64  1  0  0  0  0
 63 65  1  0  0  0  0
M  CHG  1  72   1
M  ISO  4  33 100  55 100  58 101  79 101
M  END
> <Batch ID>
0076

> <Smiles>
CNC(C)C(=O)NC(C(=O)N1Cc2cc([101O:1][101CH2:1]CCCc3c(C)cnn3[100CH2:0][100C:0](=O)N3CCCC(n4nc(-c5ccc(Oc6ccc(F)cc6F)cc5)c(C(N)=O)c4N)C3)ccc2CC1C(=O)NC1CCCc2ccccc21)C(C)(C)C

> <Shape>
0.211

> <Color>
0.057

> <Negative vol penalty>
0.000

$$$$

  -OEChem-04052318343D

 85 93  0     1  0  0  0  0  0999 V2000
  -22.1603  -11.9536   19.2871 C   0  0  0  0  0  0  0  0  0  0  0  0
  -21.9587  -13.3237   19.4194 C   0  0  0  0  0  0  0  0  0  0  0  0
  -26.1361  -29.4068   21.4301 C   0  0  0  0  0  0  0  0  0  0  0  0
  -24.9823  -27.7656   20.0838 C   0  0  0  0  0  0  0  0  0  0  0  0
  -23.3421  -11.3762   19.7495 C   0  0  0  0  0  0  0  0  0  0  0  0
  -22.9384  -14.1171   20.0153 C   0  0  0  0  0  0  0  0  0  0  0  0
  -23.7946  -18.3996   17.4517 C   0  0  0  0  0  0  0  0  0  0  0  0
  -27.3157  -29.1510   20.7311 C   0  0  0  0  0  0  0  0  0  0  0  0
  -26.1620  -27.5098   19.3848 C   0  0  0  0  0  0  0  0  0  0  0  0
  -22.8717  -19.4323   17.6109 C   0  0  0  0  0  0  0  0  0  0  0  0
  -30.7179  -28.6710   19.5403 C   0  0  0  0  0  0  0  0  0  0  0  0
  -31.8925  -28.5255   20.2785 C   0  0  0  0  0  0  0  0  0  0  0  0
  -24.3562  -20.5093   19.1779 C   0  0  0  0  0  0  0  0  0  0  0  0
  -30.9205  -26.6533   21.4562 C   0  0  0  0  0  0  0  0  0  0  0  0
  -17.7487  -21.5498   22.3466 C   0  0  0  0  0  0  0  0  0  0  0  0
  -18.2059  -23.7006   22.3514 C   0  0  0  0  0  0  0  0  0  0  0  0
  -24.9694  -28.7140   21.1065 C   0  0  0  0  0  0  0  0  0  0  0  0
  -22.7640  -29.9304   21.5122 C   0  0  0  0  0  0  0  0  0  0  0  0
  -24.3409  -12.1643   20.3426 C   0  0  0  0  0  0  0  0  0  0  0  0
  -25.0026  -18.4084   18.1639 C   0  0  0  0  0  0  0  0  0  0  0  0
  -24.1341  -13.5495   20.4873 C   0  0  0  0  0  0  0  0  0  0  0  0
  -25.2939  -19.4768   19.0240 C   0  0  0  0  0  0  0  0  0  0  0  0
  -17.8412  -22.6782   21.5099 C   0  0  0  0  0  0  0  0  0  0  0  0
  -27.3286  -28.2025   19.7084 C   0  0  0  0  0  0  0  0  0  0  0  0
  -23.1511  -20.4859   18.4763 C   0  0  0  0  0  0  0  0  0  0  0  0
  -29.6446  -27.8076   19.7601 C   0  0  0  0  0  0  0  0  0  0  0  0
  -31.9938  -27.5167   21.2364 C   0  0  0  0  0  0  0  0  0  0  0  0
  -29.7459  -26.7988   20.7180 C   0  0  0  0  0  0  0  0  0  0  0  0
  -23.7507  -28.9774   21.8287 C   0  0  0  0  0  0  0  0  0  0  0  0
  -21.8183  -29.7857   22.4976 C   0  0  0  0  0  0  0  0  0  0  0  0
  -22.7075  -30.8630   20.4246 C   0  0  0  0  0  0  0  0  0  0  0  0
  -26.3442  -16.5064   20.3285 C   0  0  0  0  0  0  0  0  0  0  0  0
  -20.4023  -25.1508   26.0507 C   0  0  0  0  0  0  0  0  0  0  0  0
  -28.8761  -18.4961   19.9375 C   0  0  0  0  0  0  0  0  0  0  0  0
  -30.0272  -21.5728   19.0125 C   0  0  0  0  0  0  0  0  0  0  0  0
  -25.5816  -11.4881   20.8700 C   0  0  0  0  0  0  0  0  0  0  0  0
  -25.9993  -17.3004   17.9607 C   0  0  0  0  0  0  0  0  0  0  0  0
  -26.5852  -19.5436   19.7963 C   0  0  0  0  0  0  0  0  0  0  0  0
  -26.7294  -12.4545   21.1507 C   0  0  0  0  0  0  0  0  0  0  0  0
  -21.3262  -28.4623   27.0610 C   0  0  0  0  0  0  0  0  0  0  0  0
  -26.2264  -13.6718   21.9202 C   0  0  0  0  0  0  0  0  0  0  0  0
  -21.9885  -29.0464   25.8138 C   0  0  0  0  0  0  0  0  0  0  0  0
  -21.6171  -26.9714   27.2014 C   0  0  0  0  0  0  0  0  0  0  0  0
  -21.9011  -26.7456   24.7539 C   0  0  0  0  0  0  0  0  0  0  0  0
  -25.1839  -14.4471   21.1057 C   0  0  1  0  0  0  0  0  0  0  0  0
  -26.9728  -17.1514   19.1259 C   0  0  1  0  0  0  0  0  0  0  0  0
  -21.6069  -28.2433   24.5577 C   0  0  2  0  0  0  0  0  0  0  0  0
  -21.1845  -23.4272   24.5134 C   0  0  0  0  0  0  0  0  0  0  0  0
  -32.1406  -22.9146   18.8377 C   0  0  0  0  0  0  0  0  0  0  0  0
  -17.5893  -24.8751   25.1445 C   0  0  0  0  0  0  0  0  0  0  0  0
  -16.1319  -22.3149   19.7166 C   0  0  0  0  0  0  0  0  0  0  0  0
  -17.7385  -24.1757   19.4031 C   0  0  0  0  0  0  0  0  0  0  0  0
  -28.8707  -18.8943   22.9626 C   0  0  0  0  0  0  0  0  0  0  0  0
  -30.3197  -20.9087   22.6301 C   0  0  0  0  0  0  0  0  0  0  0  0
  -31.1431  -18.6556   21.9459 C   0  0  0  0  0  0  0  0  0  0  0  0
  -29.7161  -21.8978   16.0873 C   0  0  0  0  0  0  0  0  0  0  0  0
  -20.0370  -22.1013   19.3364 C   0  0  0  0  0  0  0  0  0  0  0  0
  -18.5413  -21.7860   19.2141 C   0  0  0  0  0  0  0  0  0  0  0  0
  -20.8726  -21.1674   18.4691 C   0  0  0  0  0  0  0  0  0  1  0  0
  -20.0799  -24.4586   24.7504 C   0  0  1  0  0  0  0  0  0  0  0  0
  -29.3356  -19.7812   20.5829 C   0  0  1  0  0  0  0  0  0  0  0  0
  -31.1760  -21.9896   18.1120 C   0  0  2  0  0  0  0  0  0  0  0  0
  -18.6656  -23.8285   24.8113 C   0  0  2  0  0  0  0  0  0  0  0  0
  -17.5928  -22.7519   19.9924 C   0  0  0  0  0  0  0  0  0  0  0  0
  -29.8920  -19.5580   22.0175 C   0  0  0  0  0  0  0  0  0  0  0  0
  -18.0320  -21.8287   23.6217 N   0  0  0  0  0  0  0  0  0  0  0  0
  -23.4588  -28.2791   22.9292 N   0  0  0  0  0  0  0  0  0  0  0  0
  -18.3062  -23.1441   23.5926 N   0  0  0  0  0  0  0  0  0  0  0  0
  -22.2781  -28.7937   23.3128 N   0  0  0  0  0  0  0  0  0  0  0  0
  -27.5249  -18.4334   19.5686 N   0  0  0  0  0  0  0  0  0  0  0  0
  -21.2619  -26.2472   25.9796 N   0  0  0  0  0  0  0  0  0  0  0  0
  -20.6465  -30.4115   22.7376 N   0  0  0  0  0  0  0  0  0  0  0  0
  -23.7628  -30.8787   19.5024 N   0  0  0  0  0  0  0  0  0  0  0  0
  -25.8306  -15.2464   20.0872 N   0  0  0  0  0  0  0  0  0  0  0  0
  -30.2903  -20.3835   19.6587 N   0  0  0  0  0  0  0  0  0  0  0  0
  -30.6592  -22.7002   16.9083 N   0  3  0  0  0  0  0  0  0  0  0  0
  -21.7575  -31.6700   20.2843 O   0  0  0  0  0  0  0  0  0  0  0  0
  -26.3278  -17.1066   21.3968 O   0  0  0  0  0  0  0  0  0  0  0  0
  -19.9018  -24.7301   27.0970 O   0  0  0  0  0  0  0  0  0  0  0  0
  -29.6878  -17.5843   19.7606 O   0  0  0  0  0  0  0  0  0  0  0  0
  -29.0007  -22.2379   19.1337 O   0  0  0  0  0  0  0  0  0  0  0  0
  -28.4795  -27.9528   19.0259 O   0  0  0  0  0  0  0  0  0  0  0  0
  -22.2517  -21.4949   18.6340 O   0  0  0  0  0  0  0  0  0  1  0  0
  -33.1223  -27.3762   21.9440 F   0  0  0  0  0  0  0  0  0  0  0  0
  -28.7186  -25.9655   20.9328 F   0  0  0  0  0  0  0  0  0  0  0  0
  1  2  1  0  0  0  0
  1  5  2  0  0  0  0
  2  6  2  0  0  0  0
  3  8  2  0  0  0  0
  3 17  1  0  0  0  0
  4  9  1  0  0  0  0
  4 17  2  0  0  0  0
  5 19  1  0  0  0  0
  6 21  1  0  0  0  0
  7 10  2  0  0  0  0
  7 20  1  0  0  0  0
  8 24  1  0  0  0  0
  9 24  2  0  0  0  0
 10 25  1  0  0  0  0
 11 12  2  0  0  0  0
 11 26  1  0  0  0  0
 12 27  1  0  0  0  0
 13 22  1  0  0  0  0
 13 25  2  0  0  0  0
 14 27  2  0  0  0  0
 14 28  1  0  0  0  0
 15 23  1  0  0  0  0
 15 66  2  0  0  0  0
 16 23  2  0  0  0  0
 16 68  1  0  0  0  0
 17 29  1  0  0  0  0
 18 29  1  0  0  0  0
 18 30  2  0  0  0  0
 18 31  1  0  0  0  0
 19 21  2  0  0  0  0
 19 36  1  0  0  0  0
 20 22  2  0  0  0  0
 20 37  1  0  0  0  0
 21 45  1  0  0  0  0
 22 38  1  0  0  0  0
 23 64  1  0  0  0  0
 24 82  1  0  0  0  0
 25 83  1  0  0  0  0
 26 28  2  0  0  0  0
 26 82  1  0  0  0  0
 27 84  1  0  0  0  0
 28 85  1  0  0  0  0
 29 67  2  0  0  0  0
 30 69  1  0  0  0  0
 30 72  1  0  0  0  0
 31 73  1  0  0  0  0
 31 77  2  0  0  0  0
 32 46  1  0  0  0  0
 32 74  1  0  0  0  0
 32 78  2  0  0  0  0
 33 60  1  0  0  0  0
 33 71  1  0  0  0  0
 33 79  2  0  0  0  0
 34 61  1  0  0  0  0
 34 70  1  0  0  0  0
 34 80  2  0  0  0  0
 35 62  1  0  0  0  0
 35 75  1  0  0  0  0
 35 81  2  0  0  0  0
 36 39  1  0  0  0  0
 37 46  1  0  0  0  0
 38 70  1  0  0  0  0
 39 41  1  0  0  0  0
 40 42  1  0  0  0  0
 40 43  1  0  0  0  0
 41 45  1  0  0  0  0
 42 47  1  0  0  0  0
 43 71  1  0  0  0  0
 44 47  1  0  0  0  0
 44 71  1  0  0  0  0
 45 74  1  0  0  0  0
 46 70  1  0  0  0  0
 47 69  1  0  0  0  0
 48 60  1  0  0  0  0
 49 62  1  0  0  0  0
 50 63  1  0  0  0  0
 51 64  1  0  0  0  0
 52 64  1  0  0  0  0
 53 65  1  0  0  0  0
 54 65  1  0  0  0  0
 55 65  1  0  0  0  0
 56 76  1  0  0  0  0
 57 58  1  0  0  0  0
 57 59  1  0  0  0  0
 58 64  1  0  0  0  0
 59 83  1  0  0  0  0
 60 63  1  0  0  0  0
 61 65  1  0  0  0  0
 61 75  1  0  0  0  0
 62 76  1  0  0  0  0
 63 68  1  0  0  0  0
 66 68  1  0  0  0  0
 67 69  1  0  0  0  0
M  CHG  1  76   1
M  ISO  4  33 100  59 101  60 100  83 101
M  END
> <Batch ID>
0076

> <Smiles>
CNC(C)C(=O)NC(C(=O)N1Cc2cc([101O:1][101CH2:1]CCC(C)(C)c3cnn(C(C)[100CH:0](C)[100C:0](=O)N4CCCC(n5nc(-c6ccc(Oc7ccc(F)cc7F)cc6)c(C(N)=O)c5N)C4)c3)ccc2CC1C(=O)NC1CCCc2ccccc21)C(C)(C)C

> <Shape>
0.201

> <Color>
0.087

> <Negative vol penalty>
0.000

$$$$

  -OEChem-04052318343D

 83 91  0     1  0  0  0  0  0999 V2000
  -17.3858  -30.1824   25.0441 C   0  0  0  0  0  0  0  0  0  0  0  0
  -18.3170  -29.1892   25.3303 C   0  0  0  0  0  0  0  0  0  0  0  0
  -23.8329  -10.0163   22.4012 C   0  0  0  0  0  0  0  0  0  0  0  0
  -24.3592  -11.7084   24.0434 C   0  0  0  0  0  0  0  0  0  0  0  0
  -17.1915  -30.5955   23.7267 C   0  0  0  0  0  0  0  0  0  0  0  0
  -19.0537  -28.6077   24.2990 C   0  0  0  0  0  0  0  0  0  0  0  0
  -25.4964  -25.7838   22.9448 C   0  0  0  0  0  0  0  0  0  0  0  0
  -23.3441   -9.1879   23.4113 C   0  0  0  0  0  0  0  0  0  0  0  0
  -23.8703  -10.8800   25.0536 C   0  0  0  0  0  0  0  0  0  0  0  0
  -26.0782  -24.6328   22.4152 C   0  0  0  0  0  0  0  0  0  0  0  0
  -20.5264   -8.9101   25.2596 C   0  0  0  0  0  0  0  0  0  0  0  0
  -19.3125   -8.2609   25.0349 C   0  0  0  0  0  0  0  0  0  0  0  0
  -25.7148  -25.4818   20.1867 C   0  0  0  0  0  0  0  0  0  0  0  0
  -20.4084   -6.1230   25.2907 C   0  0  0  0  0  0  0  0  0  0  0  0
  -29.1978  -21.0726   20.6225 C   0  0  0  0  0  0  0  0  0  0  0  0
  -24.3405  -11.2766   22.7172 C   0  0  0  0  0  0  0  0  0  0  0  0
  -24.1223  -13.0820   20.9282 C   0  0  0  0  0  0  0  0  0  0  0  0
  -17.9331  -30.0255   22.6799 C   0  0  0  0  0  0  0  0  0  0  0  0
  -25.0088  -26.7893   22.0977 C   0  0  0  0  0  0  0  0  0  0  0  0
  -18.8681  -29.0126   22.9662 C   0  0  0  0  0  0  0  0  0  0  0  0
  -25.1296  -26.6458   20.7081 C   0  0  0  0  0  0  0  0  0  0  0  0
  -27.8289  -21.2371   20.6822 C   0  0  0  0  0  0  0  0  0  0  0  0
  -23.3628   -9.6197   24.7375 C   0  0  0  0  0  0  0  0  0  0  0  0
  -26.1848  -24.4804   21.0359 C   0  0  0  0  0  0  0  0  0  0  0  0
  -21.6814   -8.1657   25.4998 C   0  0  0  0  0  0  0  0  0  0  0  0
  -19.2534   -6.8674   25.0505 C   0  0  0  0  0  0  0  0  0  0  0  0
  -21.6224   -6.7722   25.5154 C   0  0  0  0  0  0  0  0  0  0  0  0
  -24.8461  -12.1326   21.6743 C   0  0  0  0  0  0  0  0  0  0  0  0
  -27.0842  -20.2943   20.0035 C   0  0  0  0  0  0  0  0  0  0  0  0
  -25.0492  -13.6254   20.0726 C   0  0  0  0  0  0  0  0  0  0  0  0
  -28.9688  -19.2144   19.3335 C   0  0  0  0  0  0  0  0  0  0  0  0
  -22.7361  -13.4408   21.0022 C   0  0  0  0  0  0  0  0  0  0  0  0
  -22.1537  -28.0779   21.5575 C   0  0  0  0  0  0  0  0  0  0  0  0
  -23.8549  -30.1015   19.6778 C   0  0  0  0  0  0  0  0  0  0  0  0
  -26.6685  -30.6641   17.8302 C   0  0  0  0  0  0  0  0  0  0  0  0
  -30.1287  -15.7190   19.0925 C   0  0  0  0  0  0  0  0  0  0  0  0
  -17.6543  -30.4713   21.2663 C   0  0  0  0  0  0  0  0  0  0  0  0
  -24.4081  -28.0369   22.6852 C   0  0  0  0  0  0  0  0  0  0  0  0
  -24.6400  -27.7051   19.7559 C   0  0  0  0  0  0  0  0  0  0  0  0
  -18.7430  -30.0688   20.2748 C   0  0  0  0  0  0  0  0  0  0  0  0
  -29.7725  -12.1780   18.9854 C   0  0  0  0  0  0  0  0  0  0  0  0
  -19.1325  -28.6075   20.4738 C   0  0  0  0  0  0  0  0  0  0  0  0
  -28.4028  -11.9289   19.6193 C   0  0  0  0  0  0  0  0  0  0  0  0
  -30.5039  -13.3369   19.6594 C   0  0  0  0  0  0  0  0  0  0  0  0
  -28.3686  -14.3464   20.3630 C   0  0  0  0  0  0  0  0  0  0  0  0
  -19.7042  -28.3752   21.8777 C   0  0  1  0  0  0  0  0  0  0  0  0
  -23.4799  -28.7656   21.7185 C   0  0  1  0  0  0  0  0  0  0  0  0
  -27.5695  -13.2231   19.6804 C   0  0  2  0  0  0  0  0  0  0  0  0
  -23.4324  -19.1461   19.5023 C   0  0  0  0  0  0  0  0  0  0  0  0
  -29.2638  -18.1062   17.0870 C   0  0  0  0  0  0  0  0  0  0  0  0
  -27.7587  -32.3974   16.3795 C   0  0  0  0  0  0  0  0  0  0  0  0
  -21.9422  -29.3999   17.4064 C   0  0  0  0  0  0  0  0  0  0  0  0
  -23.5992  -30.3755   15.8030 C   0  0  0  0  0  0  0  0  0  0  0  0
  -22.5526  -31.8211   17.5459 C   0  0  0  0  0  0  0  0  0  0  0  0
  -29.0027  -30.8759   19.6373 C   0  0  0  0  0  0  0  0  0  0  0  0
  -27.2158  -22.3761   21.4425 C   0  0  0  0  0  0  0  0  0  1  0  0
  -25.5930  -20.3713   19.9986 C   0  0  0  0  0  0  0  0  0  0  0  0
  -24.9511  -19.0784   19.4748 C   0  0  0  0  0  0  0  0  0  0  0  0
  -29.6018  -18.0904   18.5849 C   0  0  2  0  0  0  0  0  0  0  0  0
  -24.2837  -30.1103   18.2304 C   0  0  1  0  0  0  0  0  0  0  0  0
  -27.6277  -31.8399   17.7883 C   0  0  2  0  0  0  0  0  0  0  0  0
  -23.1020  -30.4057   17.2641 C   0  0  0  0  0  0  0  0  0  0  0  0
  -29.8037  -20.0690   19.9548 N   0  0  0  0  0  0  0  0  0  0  0  0
  -26.1334  -12.0736   21.3233 N   0  0  0  0  0  0  0  0  0  0  0  0
  -27.6232  -19.2661   19.3161 N   0  0  0  0  0  0  0  0  0  0  0  0
  -26.2259  -12.9927   20.3472 N   0  0  0  0  0  0  0  0  0  0  0  0
  -24.0546  -28.9038   20.3788 N   0  0  0  0  0  0  0  0  0  0  0  0
  -29.6599  -14.5340   19.6833 N   0  0  0  0  0  0  0  0  0  0  0  0
  -24.9644  -14.5777   19.1196 N   0  0  0  0  0  0  0  0  0  0  0  0
  -21.9250  -12.7841   21.9376 N   0  0  0  0  0  0  0  0  0  0  0  0
  -21.0719  -28.8428   21.9501 N   0  0  0  0  0  0  0  0  0  0  0  0
  -25.3847  -31.0629   18.1366 N   0  0  0  0  0  0  0  0  0  0  0  0
  -29.2638  -16.8047   19.1536 N   0  0  0  0  0  0  0  0  0  0  0  0
  -28.9797  -31.4225   18.2561 N   0  3  0  0  0  0  0  0  0  0  0  0
  -22.2282  -14.3061   20.2494 O   0  0  0  0  0  0  0  0  0  0  0  0
  -22.1147  -26.9382   21.1088 O   0  0  0  0  0  0  0  0  0  0  0  0
  -23.3676  -31.1220   20.1704 O   0  0  0  0  0  0  0  0  0  0  0  0
  -27.0221  -29.5079   17.6092 O   0  0  0  0  0  0  0  0  0  0  0  0
  -31.2339  -15.8017   18.5460 O   0  0  0  0  0  0  0  0  0  0  0  0
  -22.8857   -8.8117   25.7234 O   0  0  0  0  0  0  0  0  0  0  0  0
  -26.7516  -23.3576   20.5164 O   0  0  0  0  0  0  0  0  0  1  0  0
  -18.0873   -6.2442   24.8363 F   0  0  0  0  0  0  0  0  0  0  0  0
  -22.7284   -6.0518   25.7467 F   0  0  0  0  0  0  0  0  0  0  0  0
  1  2  1  0  0  0  0
  1  5  2  0  0  0  0
  2  6  2  0  0  0  0
  3  8  2  0  0  0  0
  3 16  1  0  0  0  0
  4  9  1  0  0  0  0
  4 16  2  0  0  0  0
  5 18  1  0  0  0  0
  6 20  1  0  0  0  0
  7 10  2  0  0  0  0
  7 19  1  0  0  0  0
  8 23  1  0  0  0  0
  9 23  2  0  0  0  0
 10 24  1  0  0  0  0
 11 12  2  0  0  0  0
 11 25  1  0  0  0  0
 12 26  1  0  0  0  0
 13 21  1  0  0  0  0
 13 24  2  0  0  0  0
 14 26  2  0  0  0  0
 14 27  1  0  0  0  0
 15 22  1  0  0  0  0
 15 63  2  0  0  0  0
 16 28  1  0  0  0  0
 17 28  1  0  0  0  0
 17 30  2  0  0  0  0
 17 32  1  0  0  0  0
 18 20  2  0  0  0  0
 18 37  1  0  0  0  0
 19 21  2  0  0  0  0
 19 38  1  0  0  0  0
 20 46  1  0  0  0  0
 21 39  1  0  0  0  0
 22 29  2  0  0  0  0
 22 56  1  0  0  0  0
 23 80  1  0  0  0  0
 24 81  1  0  0  0  0
 25 27  2  0  0  0  0
 25 80  1  0  0  0  0
 26 82  1  0  0  0  0
 27 83  1  0  0  0  0
 28 64  2  0  0  0  0
 29 57  1  0  0  0  0
 29 65  1  0  0  0  0
 30 66  1  0  0  0  0
 30 69  1  0  0  0  0
 31 59  1  0  0  0  0
 31 63  1  0  0  0  0
 31 65  2  0  0  0  0
 32 70  1  0  0  0  0
 32 75  2  0  0  0  0
 33 47  1  0  0  0  0
 33 71  1  0  0  0  0
 33 76  2  0  0  0  0
 34 60  1  0  0  0  0
 34 67  1  0  0  0  0
 34 77  2  0  0  0  0
 35 61  1  0  0  0  0
 35 72  1  0  0  0  0
 35 78  2  0  0  0  0
 36 68  1  0  0  0  0
 36 73  1  0  0  0  0
 36 79  2  0  0  0  0
 37 40  1  0  0  0  0
 38 47  1  0  0  0  0
 39 67  1  0  0  0  0
 40 42  1  0  0  0  0
 41 43  1  0  0  0  0
 41 44  1  0  0  0  0
 42 46  1  0  0  0  0
 43 48  1  0  0  0  0
 44 68  1  0  0  0  0
 45 48  1  0  0  0  0
 45 68  1  0  0  0  0
 46 71  1  0  0  0  0
 47 67  1  0  0  0  0
 48 66  1  0  0  0  0
 49 58  1  0  0  0  0
 50 59  1  0  0  0  0
 51 61  1  0  0  0  0
 52 62  1  0  0  0  0
 53 62  1  0  0  0  0
 54 62  1  0  0  0  0
 55 74  1  0  0  0  0
 56 81  1  0  0  0  0
 57 58  1  0  0  0  0
 59 73  1  0  0  0  0
 60 62  1  0  0  0  0
 60 72  1  0  0  0  0
 61 74  1  0  0  0  0
 64 66  1  0  0  0  0
M  CHG  1  74   1
M  ISO  4  36 100  56 101  73 100  81 101
M  END
> <Batch ID>
0076

> <Smiles>
CCCc1nc(C(C)[100NH:0][100C:0](=O)N2CCCC(n3nc(-c4ccc(Oc5ccc(F)cc5F)cc4)c(C(N)=O)c3N)C2)ncc1[101CH2:1][101O:1]c1ccc2c(c1)CN(C(=O)C(NC(=O)C(C)NC)C(C)(C)C)C(C(=O)NC1CCCc3ccccc31)C2

> <Shape>
0.231

> <Color>
0.122

> <Negative vol penalty>
0.000

$$$$

  -OEChem-04052318343D

 82 90  0     1  0  0  0  0  0999 V2000
  -19.4911  -34.0705   22.6814 C   0  0  0  0  0  0  0  0  0  0  0  0
  -20.8053  -33.8086   22.3078 C   0  0  0  0  0  0  0  0  0  0  0  0
  -25.2788  -13.2700   22.2811 C   0  0  0  0  0  0  0  0  0  0  0  0
  -25.3156  -14.1387   20.0269 C   0  0  0  0  0  0  0  0  0  0  0  0
  -18.7662  -33.1151   23.3926 C   0  0  0  0  0  0  0  0  0  0  0  0
  -21.3958  -32.5915   22.6461 C   0  0  0  0  0  0  0  0  0  0  0  0
  -25.4719  -29.4329   19.3425 C   0  0  0  0  0  0  0  0  0  0  0  0
  -24.3349  -12.3170   21.8984 C   0  0  0  0  0  0  0  0  0  0  0  0
  -24.3717  -13.1857   19.6442 C   0  0  0  0  0  0  0  0  0  0  0  0
  -26.8614  -29.3382   19.4084 C   0  0  0  0  0  0  0  0  0  0  0  0
  -24.3066   -9.3512   20.2747 C   0  0  0  0  0  0  0  0  0  0  0  0
  -24.4986   -8.0389   20.7065 C   0  0  0  0  0  0  0  0  0  0  0  0
  -26.6558  -27.3341   20.7353 C   0  0  0  0  0  0  0  0  0  0  0  0
  -22.3775   -8.1085   21.8612 C   0  0  0  0  0  0  0  0  0  0  0  0
  -32.3742  -21.3095   18.3278 C   0  0  0  0  0  0  0  0  0  0  0  0
  -31.9527  -22.5427   17.8895 C   0  0  0  0  0  0  0  0  0  0  0  0
  -25.7691  -14.1809   21.3454 C   0  0  0  0  0  0  0  0  0  0  0  0
  -28.1450  -15.0342   21.7121 C   0  0  0  0  0  0  0  0  0  0  0  0
  -19.3450  -31.8819   23.7314 C   0  0  0  0  0  0  0  0  0  0  0  0
  -24.6627  -28.4833   19.9827 C   0  0  0  0  0  0  0  0  0  0  0  0
  -20.6784  -31.6193   23.3637 C   0  0  0  0  0  0  0  0  0  0  0  0
  -25.2564  -27.4175   20.6738 C   0  0  0  0  0  0  0  0  0  0  0  0
  -23.8814  -12.2748   20.5800 C   0  0  0  0  0  0  0  0  0  0  0  0
  -27.4535  -28.2904   20.1073 C   0  0  0  0  0  0  0  0  0  0  0  0
  -23.1500  -10.0423   20.6362 C   0  0  0  0  0  0  0  0  0  0  0  0
  -23.5341   -7.4175   21.4997 C   0  0  0  0  0  0  0  0  0  0  0  0
  -22.1855   -9.4209   21.4295 C   0  0  0  0  0  0  0  0  0  0  0  0
  -26.7437  -15.1660   21.7402 C   0  0  0  0  0  0  0  0  0  0  0  0
  -28.6125  -16.2371   22.1824 C   0  0  0  0  0  0  0  0  0  0  0  0
  -31.2927  -22.1527   19.9556 C   0  0  0  0  0  0  0  0  0  0  0  0
  -28.9520  -13.9239   21.2979 C   0  0  0  0  0  0  0  0  0  0  0  0
  -22.5018  -28.5826   22.3118 C   0  0  0  0  0  0  0  0  0  0  0  0
  -22.0793  -25.4647   21.5228 C   0  0  0  0  0  0  0  0  0  0  0  0
  -23.3685  -22.6281   20.1305 C   0  0  0  0  0  0  0  0  0  0  0  0
  -28.4558  -21.8147   22.2861 C   0  0  0  0  0  0  0  0  0  0  0  0
  -18.5374  -30.8993   24.5420 C   0  0  0  0  0  0  0  0  0  0  0  0
  -23.1655  -28.5845   19.8796 C   0  0  0  0  0  0  0  0  0  0  0  0
  -24.4322  -26.3608   21.3612 C   0  0  0  0  0  0  0  0  0  0  0  0
  -19.1136  -29.4857   24.5358 C   0  0  0  0  0  0  0  0  0  0  0  0
  -26.1765  -20.0767   24.3982 C   0  0  0  0  0  0  0  0  0  0  0  0
  -20.6170  -29.5209   24.7915 C   0  0  0  0  0  0  0  0  0  0  0  0
  -26.2320  -18.6355   23.8887 C   0  0  0  0  0  0  0  0  0  0  0  0
  -26.2970  -21.0839   23.2567 C   0  0  0  0  0  0  0  0  0  0  0  0
  -27.5284  -19.4548   21.8770 C   0  0  0  0  0  0  0  0  0  0  0  0
  -21.3458  -30.3010   23.6907 C   0  0  1  0  0  0  0  0  0  0  0  0
  -22.4383  -27.8498   21.0015 C   0  0  1  0  0  0  0  0  0  0  0  0
  -27.4670  -18.4028   22.9977 C   0  0  2  0  0  0  0  0  0  0  0  0
  -31.6196  -22.3751   22.4467 C   0  0  0  0  0  0  0  0  0  0  0  0
  -22.8006  -20.2284   19.6651 C   0  0  0  0  0  0  0  0  0  0  0  0
  -22.5398  -24.7881   24.4622 C   0  0  0  0  0  0  0  0  0  0  0  0
  -22.9064  -22.4060   23.7844 C   0  0  0  0  0  0  0  0  0  0  0  0
  -20.7001  -23.4935   23.3696 C   0  0  0  0  0  0  0  0  0  0  0  0
  -23.6461  -23.0082   17.2086 C   0  0  0  0  0  0  0  0  0  0  0  0
  -31.3921  -25.4969   19.7106 C   0  0  0  0  0  0  0  0  0  0  0  0
  -30.7450  -26.8810   19.6406 C   0  0  0  0  0  0  0  0  0  0  0  0
  -30.5921  -24.4221   18.9658 C   0  0  0  0  0  0  0  0  0  0  0  0
  -29.3647  -26.8861   20.2839 C   0  0  0  0  0  0  0  0  0  1  0  0
  -30.6388  -22.3946   21.2579 C   0  0  2  0  0  0  0  0  0  0  0  0
  -22.6933  -24.1578   21.9631 C   0  0  1  0  0  0  0  0  0  0  0  0
  -22.7931  -21.6493   19.1229 C   0  0  2  0  0  0  0  0  0  0  0  0
  -22.2257  -23.7322   23.3836 C   0  0  0  0  0  0  0  0  0  0  0  0
  -31.9598  -21.0726   19.6146 N   0  0  0  0  0  0  0  0  0  0  0  0
  -26.3469  -16.3584   22.1927 N   0  0  0  0  0  0  0  0  0  0  0  0
  -31.2609  -23.0707   18.9430 N   0  0  0  0  0  0  0  0  0  0  0  0
  -27.5058  -16.9868   22.4534 N   0  0  0  0  0  0  0  0  0  0  0  0
  -22.9725  -26.5069   21.2370 N   0  0  0  0  0  0  0  0  0  0  0  0
  -27.4893  -20.8089   22.4512 N   0  0  0  0  0  0  0  0  0  0  0  0
  -29.8580  -16.7159   22.3866 N   0  0  0  0  0  0  0  0  0  0  0  0
  -28.3099  -12.7647   20.8414 N   0  0  0  0  0  0  0  0  0  0  0  0
  -21.4769  -29.4903   22.4990 N   0  0  0  0  0  0  0  0  0  0  0  0
  -22.3846  -23.1888   20.9171 N   0  0  0  0  0  0  0  0  0  0  0  0
  -29.5576  -21.4691   21.5133 N   0  0  0  0  0  0  0  0  0  0  0  0
  -23.5883  -21.6756   17.8628 N   0  3  0  0  0  0  0  0  0  0  0  0
  -30.2051  -13.9527   21.3470 O   0  0  0  0  0  0  0  0  0  0  0  0
  -23.4124  -28.3412   23.0955 O   0  0  0  0  0  0  0  0  0  0  0  0
  -20.8527  -25.5552   21.4287 O   0  0  0  0  0  0  0  0  0  0  0  0
  -24.5709  -22.8683   20.2141 O   0  0  0  0  0  0  0  0  0  0  0  0
  -28.3475  -22.9358   22.7944 O   0  0  0  0  0  0  0  0  0  0  0  0
  -22.9605  -11.3449   20.2061 O   0  0  0  0  0  0  0  0  0  0  0  0
  -28.8094  -28.1960   20.1738 O   0  0  0  0  0  0  0  0  0  1  0  0
  -23.7179   -6.1567   21.9130 F   0  0  0  0  0  0  0  0  0  0  0  0
  -21.0719  -10.0793   21.7790 F   0  0  0  0  0  0  0  0  0  0  0  0
  1  2  1  0  0  0  0
  1  5  2  0  0  0  0
  2  6  2  0  0  0  0
  3  8  2  0  0  0  0
  3 17  1  0  0  0  0
  4  9  1  0  0  0  0
  4 17  2  0  0  0  0
  5 19  1  0  0  0  0
  6 21  1  0  0  0  0
  7 10  2  0  0  0  0
  7 20  1  0  0  0  0
  8 23  1  0  0  0  0
  9 23  2  0  0  0  0
 10 24  1  0  0  0  0
 11 12  2  0  0  0  0
 11 25  1  0  0  0  0
 12 26  1  0  0  0  0
 13 22  1  0  0  0  0
 13 24  2  0  0  0  0
 14 26  2  0  0  0  0
 14 27  1  0  0  0  0
 15 16  2  0  0  0  0
 15 62  1  0  0  0  0
 16 64  1  0  0  0  0
 17 28  1  0  0  0  0
 18 28  1  0  0  0  0
 18 29  2  0  0  0  0
 18 31  1  0  0  0  0
 19 21  2  0  0  0  0
 19 36  1  0  0  0  0
 20 22  2  0  0  0  0
 20 37  1  0  0  0  0
 21 45  1  0  0  0  0
 22 38  1  0  0  0  0
 23 79  1  0  0  0  0
 24 80  1  0  0  0  0
 25 27  2  0  0  0  0
 25 79  1  0  0  0  0
 26 81  1  0  0  0  0
 27 82  1  0  0  0  0
 28 63  2  0  0  0  0
 29 65  1  0  0  0  0
 29 68  1  0  0  0  0
 30 58  1  0  0  0  0
 30 62  2  0  0  0  0
 30 64  1  0  0  0  0
 31 69  1  0  0  0  0
 31 74  2  0  0  0  0
 32 46  1  0  0  0  0
 32 70  1  0  0  0  0
 32 75  2  0  0  0  0
 33 59  1  0  0  0  0
 33 66  1  0  0  0  0
 33 76  2  0  0  0  0
 34 60  1  0  0  0  0
 34 71  1  0  0  0  0
 34 77  2  0  0  0  0
 35 67  1  0  0  0  0
 35 72  1  0  0  0  0
 35 78  2  0  0  0  0
 36 39  1  0  0  0  0
 37 46  1  0  0  0  0
 38 66  1  0  0  0  0
 39 41  1  0  0  0  0
 40 42  1  0  0  0  0
 40 43  1  0  0  0  0
 41 45  1  0  0  0  0
 42 47  1  0  0  0  0
 43 67  1  0  0  0  0
 44 47  1  0  0  0  0
 44 67  1  0  0  0  0
 45 70  1  0  0  0  0
 46 66  1  0  0  0  0
 47 65  1  0  0  0  0
 48 58  1  0  0  0  0
 49 60  1  0  0  0  0
 50 61  1  0  0  0  0
 51 61  1  0  0  0  0
 52 61  1  0  0  0  0
 53 73  1  0  0  0  0
 54 55  1  0  0  0  0
 54 56  1  0  0  0  0
 55 57  1  0  0  0  0
 56 64  1  0  0  0  0
 57 80  1  0  0  0  0
 58 72  1  0  0  0  0
 59 61  1  0  0  0  0
 59 71  1  0  0  0  0
 60 73  1  0  0  0  0
 63 65  1  0  0  0  0
M  CHG  1  73   1
M  ISO  4  35 100  57 101  72 100  80 101
M  END
> <Batch ID>
0076

> <Smiles>
CNC(C)C(=O)NC(C(=O)N1Cc2cc([101O:1][101CH2:1]CCCn3ccnc3C(C)[100NH:0][100C:0](=O)N3CCCC(n4nc(-c5ccc(Oc6ccc(F)cc6F)cc5)c(C(N)=O)c4N)C3)ccc2CC1C(=O)NC1CCCc2ccccc21)C(C)(C)C

> <Shape>
0.218

> <Color>
0.079

> <Negative vol penalty>
0.000

$$$$

  -OEChem-04052318343D

 88 96  0     1  0  0  0  0  0999 V2000
  -17.2273  -30.0936   25.2072 C   0  0  0  0  0  0  0  0  0  0  0  0
  -17.6676  -28.7928   24.9848 C   0  0  0  0  0  0  0  0  0  0  0  0
  -23.3248  -10.1835   22.0125 C   0  0  0  0  0  0  0  0  0  0  0  0
  -23.9499  -11.6405   23.8355 C   0  0  0  0  0  0  0  0  0  0  0  0
  -17.6273  -31.1196   24.3520 C   0  0  0  0  0  0  0  0  0  0  0  0
  -18.5075  -28.5171   23.9063 C   0  0  0  0  0  0  0  0  0  0  0  0
  -23.0112  -24.3715   23.7134 C   0  0  0  0  0  0  0  0  0  0  0  0
  -22.6381   -9.3609   22.9054 C   0  0  0  0  0  0  0  0  0  0  0  0
  -23.2631  -10.8180   24.7285 C   0  0  0  0  0  0  0  0  0  0  0  0
  -23.0716  -23.0753   23.2037 C   0  0  0  0  0  0  0  0  0  0  0  0
  -23.3901   -6.9577   25.1602 C   0  0  0  0  0  0  0  0  0  0  0  0
  -23.5722   -5.5799   25.0421 C   0  0  0  0  0  0  0  0  0  0  0  0
  -24.0179  -23.9309   21.1563 C   0  0  0  0  0  0  0  0  0  0  0  0
  -21.2062   -5.3017   24.6400 C   0  0  0  0  0  0  0  0  0  0  0  0
  -27.5665  -17.3974   21.2907 C   0  0  0  0  0  0  0  0  0  0  0  0
  -23.9808  -11.3233   22.4776 C   0  0  0  0  0  0  0  0  0  0  0  0
  -24.1774  -13.2774   20.8495 C   0  0  0  0  0  0  0  0  0  0  0  0
  -18.4802  -30.8579   23.2682 C   0  0  0  0  0  0  0  0  0  0  0  0
  -23.4442  -25.4602   22.9429 C   0  0  0  0  0  0  0  0  0  0  0  0
  -18.9182  -29.5402   23.0350 C   0  0  0  0  0  0  0  0  0  0  0  0
  -23.9642  -25.2398   21.6595 C   0  0  0  0  0  0  0  0  0  0  0  0
  -22.6072   -9.6781   24.2634 C   0  0  0  0  0  0  0  0  0  0  0  0
  -23.5724  -22.8551   21.9239 C   0  0  0  0  0  0  0  0  0  0  0  0
  -22.1160   -7.5076   25.0182 C   0  0  0  0  0  0  0  0  0  0  0  0
  -22.4803   -4.7519   24.7820 C   0  0  0  0  0  0  0  0  0  0  0  0
  -21.0241   -6.6795   24.7581 C   0  0  0  0  0  0  0  0  0  0  0  0
  -24.6908  -12.1731   21.5558 C   0  0  0  0  0  0  0  0  0  0  0  0
  -28.9102  -17.4885   21.0605 C   0  0  0  0  0  0  0  0  0  0  0  0
  -25.2419  -13.7405   20.1154 C   0  0  0  0  0  0  0  0  0  0  0  0
  -28.2684  -19.3343   22.1006 C   0  0  0  0  0  0  0  0  0  0  0  0
  -22.8564  -13.8346   20.8564 C   0  0  0  0  0  0  0  0  0  0  0  0
  -22.0573  -28.0649   21.7614 C   0  0  0  0  0  0  0  0  0  0  0  0
  -30.9987  -14.3511   20.5987 C   0  0  0  0  0  0  0  0  0  0  0  0
  -25.0920  -28.8132   20.8936 C   0  0  0  0  0  0  0  0  0  0  0  0
  -28.2436  -27.7331   20.1537 C   0  0  0  0  0  0  0  0  0  0  0  0
  -18.8475  -31.9913   22.3434 C   0  0  0  0  0  0  0  0  0  0  0  0
  -23.3972  -26.8495   23.5174 C   0  0  0  0  0  0  0  0  0  0  0  0
  -24.4608  -26.3723   20.7998 C   0  0  0  0  0  0  0  0  0  0  0  0
  -20.0404  -31.6805   21.4429 C   0  0  0  0  0  0  0  0  0  0  0  0
  -29.5089  -11.8154   18.5515 C   0  0  0  0  0  0  0  0  0  0  0  0
  -19.8897  -30.2984   20.8153 C   0  0  0  0  0  0  0  0  0  0  0  0
  -28.0736  -11.7332   19.0695 C   0  0  0  0  0  0  0  0  0  0  0  0
  -30.4931  -12.1123   19.6786 C   0  0  0  0  0  0  0  0  0  0  0  0
  -28.7316  -13.2623   20.9810 C   0  0  0  0  0  0  0  0  0  0  0  0
  -19.8499  -29.2056   21.8904 C   0  0  1  0  0  0  0  0  0  0  0  0
  -23.3875  -27.9381   22.4486 C   0  0  1  0  0  0  0  0  0  0  0  0
  -27.7016  -12.9942   19.8695 C   0  0  2  0  0  0  0  0  0  0  0  0
  -31.6958  -16.1450   22.1320 C   0  0  0  0  0  0  0  0  0  0  0  0
  -30.4984  -28.5749   19.4432 C   0  0  0  0  0  0  0  0  0  0  0  0
  -27.8371  -20.5960   24.2379 C   0  0  0  0  0  0  0  0  0  0  0  0
  -27.3788  -21.6898   22.0176 C   0  0  0  0  0  0  0  0  0  0  0  0
  -29.7158  -21.3577   22.7984 C   0  0  0  0  0  0  0  0  0  0  0  0
  -24.0525  -29.1903   18.0498 C   0  0  0  0  0  0  0  0  0  0  0  0
  -26.4208  -29.0851   17.2446 C   0  0  0  0  0  0  0  0  0  0  0  0
  -25.7109  -30.9093   18.7908 C   0  0  0  0  0  0  0  0  0  0  0  0
  -22.5149  -19.1610   20.2617 C   0  0  0  0  0  0  0  0  0  0  0  0
  -22.7564  -18.0753   22.4980 C   0  0  0  0  0  0  0  0  0  0  0  0
  -29.5308  -26.7052   22.6125 C   0  0  0  0  0  0  0  0  0  0  0  0
  -29.8465  -16.5652   20.4144 C   0  0  0  0  0  0  0  0  0  0  0  0
  -24.8090  -18.8630   21.2112 C   0  0  0  0  0  0  0  0  0  0  0  0
  -25.7943  -18.8837   22.3873 C   0  0  0  0  0  0  0  0  0  0  0  0
  -23.1644  -20.5370   22.2646 C   0  0  0  0  0  0  0  0  0  1  0  0
  -30.5124  -15.5464   21.3789 C   0  0  1  0  0  0  0  0  0  0  0  0
  -25.9513  -28.5547   19.6796 C   0  0  1  0  0  0  0  0  0  0  0  0
  -29.6073  -28.2098   20.6203 C   0  0  2  0  0  0  0  0  0  0  0  0
  -28.3083  -20.6685   22.7495 C   0  0  0  0  0  0  0  0  0  0  0  0
  -25.5228  -29.4135   18.4564 C   0  0  0  0  0  0  0  0  0  0  0  0
  -23.3279  -19.1658   21.5744 C   0  0  0  0  0  0  0  0  0  0  0  0
  -25.9811  -11.9482   21.2938 N   0  0  0  0  0  0  0  0  0  0  0  0
  -27.1963  -18.5527   21.9359 N   0  0  0  0  0  0  0  0  0  0  0  0
  -26.2874  -12.9174   20.4147 N   0  0  0  0  0  0  0  0  0  0  0  0
  -29.3179  -18.6970   21.5717 N   0  3  0  0  0  0  0  0  0  0  0  0
  -24.3882  -27.7131   21.4036 N   0  0  0  0  0  0  0  0  0  0  0  0
  -30.0926  -13.3042   20.4284 N   0  0  0  0  0  0  0  0  0  0  0  0
  -25.3762  -14.7675   19.2495 N   0  0  0  0  0  0  0  0  0  0  0  0
  -21.8829  -13.2359   21.6677 N   0  0  0  0  0  0  0  0  0  0  0  0
  -21.1826  -28.9343   22.3849 N   0  0  0  0  0  0  0  0  0  0  0  0
  -27.3312  -28.7657   20.1038 N   0  0  0  0  0  0  0  0  0  0  0  0
  -30.2859  -27.1443   21.4109 N   0  3  0  0  0  0  0  0  0  0  0  0
  -22.5441  -14.8239   20.1512 O   0  0  0  0  0  0  0  0  0  0  0  0
  -21.8411  -27.4228   20.7403 O   0  0  0  0  0  0  0  0  0  0  0  0
  -32.1488  -14.3509   20.1521 O   0  0  0  0  0  0  0  0  0  0  0  0
  -25.0524  -29.9479   21.3759 O   0  0  0  0  0  0  0  0  0  0  0  0
  -28.0121  -26.5626   19.8591 O   0  0  0  0  0  0  0  0  0  0  0  0
  -21.9369   -8.8758   25.1349 O   0  0  0  0  0  0  0  0  0  0  0  0
  -23.6319  -21.5909   21.4237 O   0  0  0  0  0  0  0  0  0  1  0  0
  -22.6555   -3.4289   24.6671 F   0  0  0  0  0  0  0  0  0  0  0  0
  -19.7979   -7.2021   24.6195 F   0  0  0  0  0  0  0  0  0  0  0  0
  1  2  1  0  0  0  0
  1  5  2  0  0  0  0
  2  6  2  0  0  0  0
  3  8  2  0  0  0  0
  3 16  1  0  0  0  0
  4  9  1  0  0  0  0
  4 16  2  0  0  0  0
  5 18  1  0  0  0  0
  6 20  1  0  0  0  0
  7 10  2  0  0  0  0
  7 19  1  0  0  0  0
  8 22  1  0  0  0  0
  9 22  2  0  0  0  0
 10 23  1  0  0  0  0
 11 12  2  0  0  0  0
 11 24  1  0  0  0  0
 12 25  1  0  0  0  0
 13 21  1  0  0  0  0
 13 23  2  0  0  0  0
 14 25  2  0  0  0  0
 14 26  1  0  0  0  0
 15 28  2  0  0  0  0
 15 70  1  0  0  0  0
 16 27  1  0  0  0  0
 17 27  1  0  0  0  0
 17 29  2  0  0  0  0
 17 31  1  0  0  0  0
 18 20  2  0  0  0  0
 18 36  1  0  0  0  0
 19 21  2  0  0  0  0
 19 37  1  0  0  0  0
 20 45  1  0  0  0  0
 21 38  1  0  0  0  0
 22 85  1  0  0  0  0
 23 86  1  0  0  0  0
 24 26  2  0  0  0  0
 24 85  1  0  0  0  0
 25 87  1  0  0  0  0
 26 88  1  0  0  0  0
 27 69  2  0  0  0  0
 28 59  1  0  0  0  0
 28 72  1  0  0  0  0
 29 71  1  0  0  0  0
 29 75  1  0  0  0  0
 30 66  1  0  0  0  0
 30 70  1  0  0  0  0
 30 72  2  0  0  0  0
 31 76  1  0  0  0  0
 31 80  2  0  0  0  0
 32 46  1  0  0  0  0
 32 77  1  0  0  0  0
 32 81  2  0  0  0  0
 33 63  1  0  0  0  0
 33 74  1  0  0  0  0
 33 82  2  0  0  0  0
 34 64  1  0  0  0  0
 34 73  1  0  0  0  0
 34 83  2  0  0  0  0
 35 65  1  0  0  0  0
 35 78  1  0  0  0  0
 35 84  2  0  0  0  0
 36 39  1  0  0  0  0
 37 46  1  0  0  0  0
 38 73  1  0  0  0  0
 39 41  1  0  0  0  0
 40 42  1  0  0  0  0
 40 43  1  0  0  0  0
 41 45  1  0  0  0  0
 42 47  1  0  0  0  0
 43 74  1  0  0  0  0
 44 47  1  0  0  0  0
 44 74  1  0  0  0  0
 45 77  1  0  0  0  0
 46 73  1  0  0  0  0
 47 71  1  0  0  0  0
 48 63  1  0  0  0  0
 49 65  1  0  0  0  0
 50 66  1  0  0  0  0
 51 66  1  0  0  0  0
 52 66  1  0  0  0  0
 53 67  1  0  0  0  0
 54 67  1  0  0  0  0
 55 67  1  0  0  0  0
 56 68  1  0  0  0  0
 57 68  1  0  0  0  0
 58 79  1  0  0  0  0
 59 63  1  0  0  0  0
 60 61  1  0  0  0  0
 60 68  1  0  0  0  0
 61 70  1  0  0  0  0
 62 68  1  0  0  0  0
 62 86  1  0  0  0  0
 64 67  1  0  0  0  0
 64 78  1  0  0  0  0
 65 79  1  0  0  0  0
 69 71  1  0  0  0  0
M  CHG  2  72   1  79   1
M  ISO  4  33 100  62 101  63 100  86 101
M  END
> <Batch ID>
0076

> <Smiles>
CNC(C)C(=O)NC(C(=O)N1Cc2cc([101O:1][101CH2:1]C(C)(C)CCn3cc(C[100CH:0](C)[100C:0](=O)N4CCCC(n5nc(-c6ccc(Oc7ccc(F)cc7F)cc6)c(C(N)=O)c5N)C4)nc3C(C)(C)C)ccc2CC1C(=O)NC1CCCc2ccccc21)C(C)(C)C

> <Shape>
0.269

> <Color>
0.143

> <Negative vol penalty>
0.000

$$$$

  -OEChem-04052318343D

 85 93  0     1  0  0  0  0  0999 V2000
  -24.8339  -35.9632   26.5420 C   0  0  0  0  0  0  0  0  0  0  0  0
  -25.8022  -35.3857   25.7270 C   0  0  0  0  0  0  0  0  0  0  0  0
  -27.7684  -13.5936   18.6842 C   0  0  0  0  0  0  0  0  0  0  0  0
  -28.0473  -13.3198   21.0684 C   0  0  0  0  0  0  0  0  0  0  0  0
  -23.7548  -35.2011   26.9877 C   0  0  0  0  0  0  0  0  0  0  0  0
  -25.6926  -34.0454   25.3582 C   0  0  0  0  0  0  0  0  0  0  0  0
  -27.1714  -29.6095   19.9312 C   0  0  0  0  0  0  0  0  0  0  0  0
  -29.0457  -13.0737   18.4751 C   0  0  0  0  0  0  0  0  0  0  0  0
  -29.3246  -12.7998   20.8593 C   0  0  0  0  0  0  0  0  0  0  0  0
  -27.8170  -28.4010   19.6732 C   0  0  0  0  0  0  0  0  0  0  0  0
  -32.0925  -11.4828   17.2913 C   0  0  0  0  0  0  0  0  0  0  0  0
  -32.2498  -10.5369   16.2783 C   0  0  0  0  0  0  0  0  0  0  0  0
  -25.8679  -27.2033   20.4382 C   0  0  0  0  0  0  0  0  0  0  0  0
  -30.6736   -9.0829   17.3912 C   0  0  0  0  0  0  0  0  0  0  0  0
  -28.2158  -19.2572   22.2874 C   0  0  0  0  0  0  0  0  0  0  0  0
  -27.2692  -13.7168   19.9809 C   0  0  0  0  0  0  0  0  0  0  0  0
  -24.7395  -13.5383   20.2572 C   0  0  0  0  0  0  0  0  0  0  0  0
  -23.6268  -33.8534   26.6163 C   0  0  0  0  0  0  0  0  0  0  0  0
  -25.8710  -29.6239   20.4558 C   0  0  0  0  0  0  0  0  0  0  0  0
  -24.6115  -33.2642   25.8005 C   0  0  0  0  0  0  0  0  0  0  0  0
  -25.2070  -28.4132   20.6996 C   0  0  0  0  0  0  0  0  0  0  0  0
  -29.8238  -12.6767   19.5626 C   0  0  0  0  0  0  0  0  0  0  0  0
  -27.1664  -27.1977   19.9294 C   0  0  0  0  0  0  0  0  0  0  0  0
  -31.2258  -11.2287   18.3544 C   0  0  0  0  0  0  0  0  0  0  0  0
  -31.5403   -9.3370   16.3282 C   0  0  0  0  0  0  0  0  0  0  0  0
  -30.5163  -10.0288   18.4043 C   0  0  0  0  0  0  0  0  0  0  0  0
  -25.9501  -14.2543   20.1976 C   0  0  0  0  0  0  0  0  0  0  0  0
  -27.9884  -18.0349   22.9478 C   0  0  0  0  0  0  0  0  0  0  0  0
  -27.1282  -20.0305   22.6124 C   0  0  0  0  0  0  0  0  0  0  0  0
  -23.7832  -14.4986   20.4802 C   0  0  0  0  0  0  0  0  0  0  0  0
  -24.5008  -12.1309   20.1230 C   0  0  0  0  0  0  0  0  0  0  0  0
  -24.5441  -30.7085   23.1329 C   0  0  0  0  0  0  0  0  0  0  0  0
  -21.7889  -29.8357   21.6598 C   0  0  0  0  0  0  0  0  0  0  0  0
  -24.0903  -19.9719   22.9420 C   0  0  0  0  0  0  0  0  0  0  0  0
  -20.2436  -27.8793   19.3294 C   0  0  0  0  0  0  0  0  0  0  0  0
  -22.4678  -33.0571   27.1616 C   0  0  0  0  0  0  0  0  0  0  0  0
  -25.1784  -30.9359   20.7035 C   0  0  0  0  0  0  0  0  0  0  0  0
  -23.8031  -28.3744   21.2436 C   0  0  0  0  0  0  0  0  0  0  0  0
  -22.2273  -31.7451   26.4191 C   0  0  0  0  0  0  0  0  0  0  0  0
  -22.8470  -19.1160   19.6921 C   0  0  0  0  0  0  0  0  0  0  0  0
  -23.5419  -30.9991   26.2140 C   0  0  0  0  0  0  0  0  0  0  0  0
  -23.4153  -17.7188   19.4469 C   0  0  0  0  0  0  0  0  0  0  0  0
  -23.8203  -19.9835   20.4841 C   0  0  0  0  0  0  0  0  0  0  0  0
  -24.8250  -17.9826   21.5369 C   0  0  0  0  0  0  0  0  0  0  0  0
  -24.5145  -31.8201   25.3587 C   0  0  1  0  0  0  0  0  0  0  0  0
  -24.0461  -30.8312   21.7205 C   0  0  1  0  0  0  0  0  0  0  0  0
  -23.8605  -17.0637   20.7663 C   0  0  2  0  0  0  0  0  0  0  0  0
  -28.8459  -16.8377   22.9400 C   0  0  0  0  0  0  0  0  0  0  0  0
  -17.9786  -27.3621   18.3807 C   0  0  0  0  0  0  0  0  0  0  0  0
  -27.6856  -25.4748   17.3440 C   0  0  0  0  0  0  0  0  0  0  0  0
  -25.2823  -20.8544   24.9226 C   0  0  0  0  0  0  0  0  0  0  0  0
  -24.4243  -18.5126   24.8566 C   0  0  0  0  0  0  0  0  0  0  0  0
  -21.1210  -28.2042   24.1502 C   0  0  0  0  0  0  0  0  0  0  0  0
  -19.3885  -26.9941   22.8077 C   0  0  0  0  0  0  0  0  0  0  0  0
  -19.1880  -29.4537   23.1722 C   0  0  0  0  0  0  0  0  0  0  0  0
  -21.0494  -28.7582   16.6207 C   0  0  0  0  0  0  0  0  0  0  0  0
  -26.7658  -21.4425   22.2261 C   0  0  0  0  0  0  0  0  0  0  0  0
  -27.2981  -21.8645   20.8519 C   0  0  0  0  0  0  0  0  0  0  0  0
  -26.9854  -23.3253   20.5108 C   0  0  0  0  0  0  0  0  0  0  0  0
  -27.5027  -23.6903   19.1144 C   0  0  0  0  0  0  0  0  0  0  0  0
  -20.9618  -28.5743   21.5999 C   0  0  1  0  0  0  0  0  0  0  0  0
  -19.2334  -28.2108   18.2458 C   0  0  2  0  0  0  0  0  0  0  0  0
  -27.1763  -25.1387   18.7392 C   0  0  1  0  0  0  0  0  0  1  0  0
  -25.0864  -19.6237   24.0194 C   0  0  0  0  0  0  0  0  0  0  0  0
  -20.1920  -28.3070   22.9241 C   0  0  0  0  0  0  0  0  0  0  0  0
  -25.7810  -15.5682   20.3688 N   0  0  0  0  0  0  0  0  0  0  0  0
  -26.8462  -18.0275   23.6401 N   0  0  0  0  0  0  0  0  0  0  0  0
  -26.3461  -19.2548   23.4166 N   0  0  0  0  0  0  0  0  0  0  0  0
  -24.4529  -15.6853   20.5380 N   0  0  0  0  0  0  0  0  0  0  0  0
  -23.1705  -29.6834   21.4753 N   0  0  0  0  0  0  0  0  0  0  0  0
  -24.2366  -19.3167   21.7192 N   0  0  0  0  0  0  0  0  0  0  0  0
  -22.4431  -14.4352   20.6304 N   0  0  0  0  0  0  0  0  0  0  0  0
  -25.5960  -11.2860   19.8972 N   0  0  0  0  0  0  0  0  0  0  0  0
  -24.1483  -31.7416   23.9607 N   0  0  0  0  0  0  0  0  0  0  0  0
  -20.1050  -28.7033   20.4262 N   0  0  0  0  0  0  0  0  0  0  0  0
  -19.8215  -27.9693   16.8980 N   0  3  0  0  0  0  0  0  0  0  0  0
  -23.3485  -11.6391   20.1848 O   0  0  0  0  0  0  0  0  0  0  0  0
  -25.2350  -29.7468   23.4485 O   0  0  0  0  0  0  0  0  0  0  0  0
  -21.2290  -30.9173   21.8557 O   0  0  0  0  0  0  0  0  0  0  0  0
  -23.2075  -20.7994   23.1830 O   0  0  0  0  0  0  0  0  0  0  0  0
  -21.0703  -26.9770   19.2157 O   0  0  0  0  0  0  0  0  0  0  0  0
  -31.0701  -12.1691   19.3589 O   0  0  0  0  0  0  0  0  0  0  0  0
  -27.7945  -26.0167   19.6791 O   0  0  0  0  0  0  0  0  0  1  0  0
  -31.6903   -8.4295   15.3546 F   0  0  0  0  0  0  0  0  0  0  0  0
  -29.6813   -9.7796   19.4223 F   0  0  0  0  0  0  0  0  0  0  0  0
  1  2  1  0  0  0  0
  1  5  2  0  0  0  0
  2  6  2  0  0  0  0
  3  8  2  0  0  0  0
  3 16  1  0  0  0  0
  4  9  1  0  0  0  0
  4 16  2  0  0  0  0
  5 18  1  0  0  0  0
  6 20  1  0  0  0  0
  7 10  2  0  0  0  0
  7 19  1  0  0  0  0
  8 22  1  0  0  0  0
  9 22  2  0  0  0  0
 10 23  1  0  0  0  0
 11 12  2  0  0  0  0
 11 24  1  0  0  0  0
 12 25  1  0  0  0  0
 13 21  1  0  0  0  0
 13 23  2  0  0  0  0
 14 25  2  0  0  0  0
 14 26  1  0  0  0  0
 15 28  1  0  0  0  0
 15 29  2  0  0  0  0
 16 27  1  0  0  0  0
 17 27  1  0  0  0  0
 17 30  2  0  0  0  0
 17 31  1  0  0  0  0
 18 20  2  0  0  0  0
 18 36  1  0  0  0  0
 19 21  2  0  0  0  0
 19 37  1  0  0  0  0
 20 45  1  0  0  0  0
 21 38  1  0  0  0  0
 22 82  1  0  0  0  0
 23 83  1  0  0  0  0
 24 26  2  0  0  0  0
 24 82  1  0  0  0  0
 25 84  1  0  0  0  0
 26 85  1  0  0  0  0
 27 66  2  0  0  0  0
 28 48  1  0  0  0  0
 28 67  2  0  0  0  0
 29 57  1  0  0  0  0
 29 68  1  0  0  0  0
 30 69  1  0  0  0  0
 30 72  1  0  0  0  0
 31 73  1  0  0  0  0
 31 77  2  0  0  0  0
 32 46  1  0  0  0  0
 32 74  1  0  0  0  0
 32 78  2  0  0  0  0
 33 61  1  0  0  0  0
 33 70  1  0  0  0  0
 33 79  2  0  0  0  0
 34 64  1  0  0  0  0
 34 71  1  0  0  0  0
 34 80  2  0  0  0  0
 35 62  1  0  0  0  0
 35 75  1  0  0  0  0
 35 81  2  0  0  0  0
 36 39  1  0  0  0  0
 37 46  1  0  0  0  0
 38 70  1  0  0  0  0
 39 41  1  0  0  0  0
 40 42  1  0  0  0  0
 40 43  1  0  0  0  0
 41 45  1  0  0  0  0
 42 47  1  0  0  0  0
 43 71  1  0  0  0  0
 44 47  1  0  0  0  0
 44 71  1  0  0  0  0
 45 74  1  0  0  0  0
 46 70  1  0  0  0  0
 47 69  1  0  0  0  0
 49 62  1  0  0  0  0
 50 63  1  0  0  0  0
 51 64  1  0  0  0  0
 52 64  1  0  0  0  0
 53 65  1  0  0  0  0
 54 65  1  0  0  0  0
 55 65  1  0  0  0  0
 56 76  1  0  0  0  0
 57 58  1  0  0  0  0
 58 59  1  0  0  0  0
 59 60  1  0  0  0  0
 60 63  1  0  0  0  0
 61 65  1  0  0  0  0
 61 75  1  0  0  0  0
 62 76  1  0  0  0  0
 63 83  1  0  0  0  0
 64 68  1  0  0  0  0
 66 69  1  0  0  0  0
 67 68  1  0  0  0  0
M  CHG  1  76   1
M  ISO  4  34 100  63 101  64 100  83 101
M  END
> <Batch ID>
0076

> <Smiles>
CNC(C)C(=O)NC(C(=O)N1Cc2cc([101O:1][101CH:1](C)CCCCc3cc(C)nn3[100C:0](C)(C)[100C:0](=O)N3CCCC(n4nc(-c5ccc(Oc6ccc(F)cc6F)cc5)c(C(N)=O)c4N)C3)ccc2CC1C(=O)NC1CCCc2ccccc21)C(C)(C)C

> <Shape>
0.241

> <Color>
0.084

> <Negative vol penalty>
0.000

$$$$

  -OEChem-04052318343D

 83 91  0     1  0  0  0  0  0999 V2000
  -18.7248  -23.3947   24.4117 C   0  0  0  0  0  0  0  0  0  0  0  0
  -19.9852  -22.8160   24.3032 C   0  0  0  0  0  0  0  0  0  0  0  0
  -26.6511  -14.8644   21.5230 C   0  0  0  0  0  0  0  0  0  0  0  0
  -26.4781  -14.8350   19.1134 C   0  0  0  0  0  0  0  0  0  0  0  0
  -18.3966  -24.5000   23.6278 C   0  0  0  0  0  0  0  0  0  0  0  0
  -20.9180  -23.3417   23.4099 C   0  0  0  0  0  0  0  0  0  0  0  0
  -27.9729  -24.3103   22.6317 C   0  0  0  0  0  0  0  0  0  0  0  0
  -26.4978  -13.4783   21.5510 C   0  0  0  0  0  0  0  0  0  0  0  0
  -26.3248  -13.4488   19.1414 C   0  0  0  0  0  0  0  0  0  0  0  0
  -28.9994  -24.0673   21.7201 C   0  0  0  0  0  0  0  0  0  0  0  0
  -25.7917   -9.9867   22.2812 C   0  0  0  0  0  0  0  0  0  0  0  0
  -24.9184   -9.4482   23.2263 C   0  0  0  0  0  0  0  0  0  0  0  0
  -28.3489  -26.0279   20.4742 C   0  0  0  0  0  0  0  0  0  0  0  0
  -23.0963  -10.7058   22.2591 C   0  0  0  0  0  0  0  0  0  0  0  0
  -30.2351  -24.4691   16.0374 C   0  0  0  0  0  0  0  0  0  0  0  0
  -28.8866  -22.9412   16.8630 C   0  0  0  0  0  0  0  0  0  0  0  0
  -26.6412  -15.5428   20.3042 C   0  0  0  0  0  0  0  0  0  0  0  0
  -28.0045  -17.6953   20.1791 C   0  0  0  0  0  0  0  0  0  0  0  0
  -19.3291  -25.0455   22.7314 C   0  0  0  0  0  0  0  0  0  0  0  0
  -27.1185  -25.4097   22.4651 C   0  0  0  0  0  0  0  0  0  0  0  0
  -20.6015  -24.4546   22.6123 C   0  0  0  0  0  0  0  0  0  0  0  0
  -27.3139  -26.2841   21.3866 C   0  0  0  0  0  0  0  0  0  0  0  0
  -30.1282  -23.4977   17.0506 C   0  0  0  0  0  0  0  0  0  0  0  0
  -26.3347  -12.7705   20.3602 C   0  0  0  0  0  0  0  0  0  0  0  0
  -29.1857  -24.9245   20.6395 C   0  0  0  0  0  0  0  0  0  0  0  0
  -25.3172  -10.8848   21.3252 C   0  0  0  0  0  0  0  0  0  0  0  0
  -23.5707   -9.8077   23.2152 C   0  0  0  0  0  0  0  0  0  0  0  0
  -23.9696  -11.2443   21.3141 C   0  0  0  0  0  0  0  0  0  0  0  0
  -26.7989  -16.9747   20.2747 C   0  0  0  0  0  0  0  0  0  0  0  0
  -27.6184  -19.0134   20.1899 C   0  0  0  0  0  0  0  0  0  0  0  0
  -29.3528  -17.2161   20.0886 C   0  0  0  0  0  0  0  0  0  0  0  0
  -23.9967  -25.7723   21.9887 C   0  0  0  0  0  0  0  0  0  0  0  0
  -24.7062  -28.9196   22.3259 C   0  0  0  0  0  0  0  0  0  0  0  0
  -27.0441  -31.3987   22.1388 C   0  0  0  0  0  0  0  0  0  0  0  0
  -24.2398  -23.1091   18.4707 C   0  0  0  0  0  0  0  0  0  0  0  0
  -18.9124  -26.2118   21.8708 C   0  0  0  0  0  0  0  0  0  0  0  0
  -26.0327  -25.6731   23.4722 C   0  0  0  0  0  0  0  0  0  0  0  0
  -26.4367  -27.4898   21.1741 C   0  0  0  0  0  0  0  0  0  0  0  0
  -20.0864  -26.9387   21.2200 C   0  0  0  0  0  0  0  0  0  0  0  0
  -23.1358  -21.1227   21.2116 C   0  0  0  0  0  0  0  0  0  0  0  0
  -21.0582  -25.9378   20.6030 C   0  0  0  0  0  0  0  0  0  0  0  0
  -24.0855  -19.9236   21.2002 C   0  0  0  0  0  0  0  0  0  0  0  0
  -22.8006  -21.5905   19.7971 C   0  0  0  0  0  0  0  0  0  0  0  0
  -24.9202  -20.6762   18.9340 C   0  0  0  0  0  0  0  0  0  0  0  0
  -21.6490  -25.0113   21.6726 C   0  0  1  0  0  0  0  0  0  0  0  0
  -24.8999  -26.5320   22.9187 C   0  0  1  0  0  0  0  0  0  0  0  0
  -25.3317  -20.2034   20.3388 C   0  0  2  0  0  0  0  0  0  0  0  0
  -27.3170  -33.8755   22.4359 C   0  0  0  0  0  0  0  0  0  0  0  0
  -32.4691  -23.9709   18.0380 C   0  0  0  0  0  0  0  0  0  0  0  0
  -31.5741  -21.6534   17.9602 C   0  0  0  0  0  0  0  0  0  0  0  0
  -23.3166  -29.3910   19.6508 C   0  0  0  0  0  0  0  0  0  0  0  0
  -24.4279  -31.6322   19.5476 C   0  0  0  0  0  0  0  0  0  0  0  0
  -22.8336  -31.1164   21.3956 C   0  0  0  0  0  0  0  0  0  0  0  0
  -29.0322  -31.0375   24.3013 C   0  0  0  0  0  0  0  0  0  0  0  0
  -25.9818  -24.3711   15.6288 C   0  0  0  0  0  0  0  0  0  0  0  0
  -27.0464  -23.3476   15.2115 C   0  0  0  0  0  0  0  0  0  0  0  0
  -25.7938  -24.5117   17.1378 C   0  0  0  0  0  0  0  0  0  0  0  0
  -30.5672  -23.3293   19.5428 C   0  0  0  0  0  0  0  0  0  1  0  0
  -25.1163  -30.0295   21.3884 C   0  0  1  0  0  0  0  0  0  0  0  0
  -27.4109  -32.5122   23.1032 C   0  0  2  0  0  0  0  0  0  0  0  0
  -31.1689  -23.1361   18.1269 C   0  0  0  0  0  0  0  0  0  0  0  0
  -23.9391  -30.5185   20.4982 C   0  0  0  0  0  0  0  0  0  0  0  0
  -29.1482  -24.5287   15.2633 N   0  0  0  0  0  0  0  0  0  0  0  0
  -25.7272  -17.7691   20.3414 N   0  0  0  0  0  0  0  0  0  0  0  0
  -28.3465  -23.5877   15.7903 N   0  0  0  0  0  0  0  0  0  0  0  0
  -26.2581  -19.0025   20.2878 N   0  0  0  0  0  0  0  0  0  0  0  0
  -25.3849  -27.7011   22.1824 N   0  0  0  0  0  0  0  0  0  0  0  0
  -24.0256  -21.8401   19.0335 N   0  0  0  0  0  0  0  0  0  0  0  0
  -28.3132  -20.1690   20.1251 N   0  0  0  0  0  0  0  0  0  0  0  0
  -29.5714  -15.8317   20.0906 N   0  0  0  0  0  0  0  0  0  0  0  0
  -22.6852  -25.6946   22.4168 N   0  0  0  0  0  0  0  0  0  0  0  0
  -25.7075  -31.0705   22.2222 N   0  0  0  0  0  0  0  0  0  0  0  0
  -25.4288  -23.2627   17.7683 N   0  0  0  0  0  0  0  0  0  0  0  0
  -28.8032  -32.3279   23.6018 N   0  3  0  0  0  0  0  0  0  0  0  0
  -30.3358  -17.9928   20.0249 O   0  0  0  0  0  0  0  0  0  0  0  0
  -24.4555  -25.2934   20.9582 O   0  0  0  0  0  0  0  0  0  0  0  0
  -23.8214  -29.1282   23.1597 O   0  0  0  0  0  0  0  0  0  0  0  0
  -27.8608  -30.8751   21.3842 O   0  0  0  0  0  0  0  0  0  0  0  0
  -23.4337  -24.0381   18.5902 O   0  0  0  0  0  0  0  0  0  0  0  0
  -26.1853  -11.4179   20.3871 O   0  0  0  0  0  0  0  0  0  0  0  0
  -30.1864  -24.6892   19.7478 O   0  0  0  0  0  0  0  0  0  1  0  0
  -22.7320   -9.2894   24.1218 F   0  0  0  0  0  0  0  0  0  0  0  0
  -23.5077  -12.1057   20.3973 F   0  0  0  0  0  0  0  0  0  0  0  0
  1  2  1  0  0  0  0
  1  5  2  0  0  0  0
  2  6  2  0  0  0  0
  3  8  2  0  0  0  0
  3 17  1  0  0  0  0
  4  9  1  0  0  0  0
  4 17  2  0  0  0  0
  5 19  1  0  0  0  0
  6 21  1  0  0  0  0
  7 10  2  0  0  0  0
  7 20  1  0  0  0  0
  8 24  1  0  0  0  0
  9 24  2  0  0  0  0
 10 25  1  0  0  0  0
 11 12  2  0  0  0  0
 11 26  1  0  0  0  0
 12 27  1  0  0  0  0
 13 22  1  0  0  0  0
 13 25  2  0  0  0  0
 14 27  2  0  0  0  0
 14 28  1  0  0  0  0
 15 23  1  0  0  0  0
 15 63  2  0  0  0  0
 16 23  2  0  0  0  0
 16 65  1  0  0  0  0
 17 29  1  0  0  0  0
 18 29  1  0  0  0  0
 18 30  2  0  0  0  0
 18 31  1  0  0  0  0
 19 21  2  0  0  0  0
 19 36  1  0  0  0  0
 20 22  2  0  0  0  0
 20 37  1  0  0  0  0
 21 45  1  0  0  0  0
 22 38  1  0  0  0  0
 23 61  1  0  0  0  0
 24 80  1  0  0  0  0
 25 81  1  0  0  0  0
 26 28  2  0  0  0  0
 26 80  1  0  0  0  0
 27 82  1  0  0  0  0
 28 83  1  0  0  0  0
 29 64  2  0  0  0  0
 30 66  1  0  0  0  0
 30 69  1  0  0  0  0
 31 70  1  0  0  0  0
 31 75  2  0  0  0  0
 32 46  1  0  0  0  0
 32 71  1  0  0  0  0
 32 76  2  0  0  0  0
 33 59  1  0  0  0  0
 33 67  1  0  0  0  0
 33 77  2  0  0  0  0
 34 60  1  0  0  0  0
 34 72  1  0  0  0  0
 34 78  2  0  0  0  0
 35 68  1  0  0  0  0
 35 73  1  0  0  0  0
 35 79  2  0  0  0  0
 36 39  1  0  0  0  0
 37 46  1  0  0  0  0
 38 67  1  0  0  0  0
 39 41  1  0  0  0  0
 40 42  1  0  0  0  0
 40 43  1  0  0  0  0
 41 45  1  0  0  0  0
 42 47  1  0  0  0  0
 43 68  1  0  0  0  0
 44 47  1  0  0  0  0
 44 68  1  0  0  0  0
 45 71  1  0  0  0  0
 46 67  1  0  0  0  0
 47 66  1  0  0  0  0
 48 60  1  0  0  0  0
 49 61  1  0  0  0  0
 50 61  1  0  0  0  0
 51 62  1  0  0  0  0
 52 62  1  0  0  0  0
 53 62  1  0  0  0  0
 54 74  1  0  0  0  0
 55 56  1  0  0  0  0
 55 57  1  0  0  0  0
 56 65  1  0  0  0  0
 57 73  1  0  0  0  0
 58 61  1  0  0  0  0
 58 81  1  0  0  0  0
 59 62  1  0  0  0  0
 59 72  1  0  0  0  0
 60 74  1  0  0  0  0
 63 65  1  0  0  0  0
 64 66  1  0  0  0  0
M  CHG  1  74   1
M  ISO  4  35 100  58 101  73 100  81 101
M  END
> <Batch ID>
0076

> <Smiles>
CNC(C)C(=O)NC(C(=O)N1Cc2cc([101O:1][101CH2:1]C(C)(C)c3cnn(CCC[100NH:0][100C:0](=O)N4CCCC(n5nc(-c6ccc(Oc7ccc(F)cc7F)cc6)c(C(N)=O)c5N)C4)c3)ccc2CC1C(=O)NC1CCCc2ccccc21)C(C)(C)C

> <Shape>
0.212

> <Color>
0.063

> <Negative vol penalty>
0.000

$$$$

  -OEChem-04052318343D

 84 92  0     1  0  0  0  0  0999 V2000
  -21.4694  -12.7096   19.3664 C   0  0  0  0  0  0  0  0  0  0  0  0
  -21.5263  -13.9637   19.9659 C   0  0  0  0  0  0  0  0  0  0  0  0
  -29.6819  -26.8885   18.4806 C   0  0  0  0  0  0  0  0  0  0  0  0
  -29.7827  -26.0485   20.7437 C   0  0  0  0  0  0  0  0  0  0  0  0
  -22.5890  -11.8790   19.3828 C   0  0  0  0  0  0  0  0  0  0  0  0
  -22.7027  -14.3874   20.5832 C   0  0  0  0  0  0  0  0  0  0  0  0
  -24.8964  -20.1012   20.7969 C   0  0  0  0  0  0  0  0  0  0  0  0
  -31.0527  -26.6728   18.3395 C   0  0  0  0  0  0  0  0  0  0  0  0
  -31.1535  -25.8328   20.6025 C   0  0  0  0  0  0  0  0  0  0  0  0
  -24.8400  -21.0916   21.7766 C   0  0  0  0  0  0  0  0  0  0  0  0
  -34.7439  -25.3966   20.9615 C   0  0  0  0  0  0  0  0  0  0  0  0
  -35.5745  -25.7986   22.0074 C   0  0  0  0  0  0  0  0  0  0  0  0
  -27.0163  -20.4204   22.5719 C   0  0  0  0  0  0  0  0  0  0  0  0
  -34.8190  -28.0768   21.7319 C   0  0  0  0  0  0  0  0  0  0  0  0
  -23.8614  -27.1777   26.5103 C   0  0  0  0  0  0  0  0  0  0  0  0
  -22.5712  -26.2501   24.9834 C   0  0  0  0  0  0  0  0  0  0  0  0
  -29.0469  -26.5764   19.6828 C   0  0  0  0  0  0  0  0  0  0  0  0
  -26.5931  -25.8936   19.5396 C   0  0  0  0  0  0  0  0  0  0  0  0
  -23.7827  -12.2966   19.9921 C   0  0  0  0  0  0  0  0  0  0  0  0
  -26.0104  -19.2545   20.7042 C   0  0  0  0  0  0  0  0  0  0  0  0
  -23.8389  -13.5610   20.6089 C   0  0  0  0  0  0  0  0  0  0  0  0
  -27.0855  -19.4218   21.5885 C   0  0  0  0  0  0  0  0  0  0  0  0
  -31.7885  -26.1449   19.4004 C   0  0  0  0  0  0  0  0  0  0  0  0
  -25.8988  -21.2495   22.6661 C   0  0  0  0  0  0  0  0  0  0  0  0
  -33.9509  -26.3348   20.3007 C   0  0  0  0  0  0  0  0  0  0  0  0
  -35.6121  -27.1386   22.3927 C   0  0  0  0  0  0  0  0  0  0  0  0
  -33.9884  -27.6749   20.6859 C   0  0  0  0  0  0  0  0  0  0  0  0
  -27.6310  -26.7995   19.8294 C   0  0  0  0  0  0  0  0  0  0  0  0
  -23.0423  -28.1062   25.9125 C   0  0  0  0  0  0  0  0  0  0  0  0
  -25.4432  -26.5793   19.8462 C   0  0  0  0  0  0  0  0  0  0  0  0
  -26.6623  -24.5522   19.0381 C   0  0  0  0  0  0  0  0  0  0  0  0
  -26.4762  -16.1223   20.9801 C   0  0  0  0  0  0  0  0  0  0  0  0
  -29.4854  -16.8806   20.0356 C   0  0  0  0  0  0  0  0  0  0  0  0
  -31.9403  -19.2396   19.8008 C   0  0  0  0  0  0  0  0  0  0  0  0
  -24.2758  -31.1274   23.5614 C   0  0  0  0  0  0  0  0  0  0  0  0
  -24.9522  -11.3448   20.0259 C   0  0  0  0  0  0  0  0  0  0  0  0
  -26.0676  -18.2085   19.6248 C   0  0  0  0  0  0  0  0  0  0  0  0
  -28.3130  -18.5518   21.5181 C   0  0  0  0  0  0  0  0  0  0  0  0
  -26.2767  -12.0193   20.3736 C   0  0  0  0  0  0  0  0  0  0  0  0
  -23.6740  -31.0198   20.0539 C   0  0  0  0  0  0  0  0  0  0  0  0
  -26.1053  -12.9454   21.5735 C   0  0  0  0  0  0  0  0  0  0  0  0
  -24.5262  -29.8442   19.5724 C   0  0  0  0  0  0  0  0  0  0  0  0
  -24.3619  -31.7929   21.1769 C   0  0  0  0  0  0  0  0  0  0  0  0
  -25.6413  -29.7945   21.8424 C   0  0  0  0  0  0  0  0  0  0  0  0
  -25.1046  -14.0662   21.2669 C   0  0  1  0  0  0  0  0  0  0  0  0
  -27.0262  -17.0669   19.9492 C   0  0  1  0  0  0  0  0  0  0  0  0
  -24.9648  -28.9509   20.7484 C   0  0  2  0  0  0  0  0  0  0  0  0
  -22.4883  -29.8618   27.6257 C   0  0  0  0  0  0  0  0  0  0  0  0
  -34.3033  -19.5523   19.0159 C   0  0  0  0  0  0  0  0  0  0  0  0
  -27.1325  -24.8381   23.6727 C   0  0  0  0  0  0  0  0  0  0  0  0
  -30.4986  -15.4023   22.5049 C   0  0  0  0  0  0  0  0  0  0  0  0
  -32.7088  -16.5357   22.1908 C   0  0  0  0  0  0  0  0  0  0  0  0
  -31.8339  -15.0022   20.4285 C   0  0  0  0  0  0  0  0  0  0  0  0
  -31.1369  -21.2990   17.8329 C   0  0  0  0  0  0  0  0  0  0  0  0
  -25.5758  -24.4736   25.6042 C   0  0  0  0  0  0  0  0  0  0  0  0
  -24.1699  -24.6501   26.1944 C   0  0  0  0  0  0  0  0  0  0  0  0
  -24.2762  -30.3279   25.9109 C   0  0  0  0  0  0  0  0  0  0  0  0
  -25.1033  -23.3941   23.3168 C   0  0  0  0  0  0  0  0  0  1  0  0
  -22.9555  -29.5499   26.1802 C   0  0  1  0  0  0  0  0  0  0  0  0
  -30.7614  -17.2702   20.7420 C   0  0  1  0  0  0  0  0  0  0  0  0
  -32.8321  -19.6537   18.6443 C   0  0  2  0  0  0  0  0  0  0  0  0
  -25.6684  -24.6070   24.0682 C   0  0  2  0  0  0  0  0  0  0  0  0
  -31.4268  -16.0679   21.4694 C   0  0  0  0  0  0  0  0  0  0  0  0
  -22.2413  -27.5224   24.9632 N   0  0  0  0  0  0  0  0  0  0  0  0
  -27.1802  -27.9714   20.2849 N   0  0  0  0  0  0  0  0  0  0  0  0
  -23.5479  -25.9934   25.9051 N   0  0  0  0  0  0  0  0  0  0  0  0
  -25.8465  -27.8066   20.2836 N   0  0  0  0  0  0  0  0  0  0  0  0
  -28.3189  -17.5393   20.4494 N   0  0  0  0  0  0  0  0  0  0  0  0
  -24.7509  -30.8883   22.2614 N   0  0  0  0  0  0  0  0  0  0  0  0
  -24.1366  -26.2462   19.7815 N   0  0  0  0  0  0  0  0  0  0  0  0
  -27.9241  -24.0009   18.7765 N   0  0  0  0  0  0  0  0  0  0  0  0
  -25.7253  -15.0891   20.4527 N   0  0  0  0  0  0  0  0  0  0  0  0
  -31.6079  -17.9030   19.7363 N   0  0  0  0  0  0  0  0  0  0  0  0
  -24.6871  -30.2187   24.5288 N   0  0  0  0  0  0  0  0  0  0  0  0
  -32.5439  -21.0605   18.2459 N   0  3  0  0  0  0  0  0  0  0  0  0
  -25.6350  -23.8686   18.8127 O   0  0  0  0  0  0  0  0  0  0  0  0
  -26.7165  -16.3156   22.1661 O   0  0  0  0  0  0  0  0  0  0  0  0
  -29.5234  -16.0286   19.1443 O   0  0  0  0  0  0  0  0  0  0  0  0
  -31.5781  -20.0226   20.6762 O   0  0  0  0  0  0  0  0  0  0  0  0
  -23.5352  -32.0770   23.8384 O   0  0  0  0  0  0  0  0  0  0  0  0
  -33.1261  -25.9341   19.2629 O   0  0  0  0  0  0  0  0  0  0  0  0
  -25.8460  -22.2149   23.6237 O   0  0  0  0  0  0  0  0  0  1  0  0
  -36.4087  -27.5242   23.3982 F   0  0  0  0  0  0  0  0  0  0  0  0
  -33.2279  -28.5805   20.0556 F   0  0  0  0  0  0  0  0  0  0  0  0
  1  2  1  0  0  0  0
  1  5  2  0  0  0  0
  2  6  2  0  0  0  0
  3  8  2  0  0  0  0
  3 17  1  0  0  0  0
  4  9  1  0  0  0  0
  4 17  2  0  0  0  0
  5 19  1  0  0  0  0
  6 21  1  0  0  0  0
  7 10  2  0  0  0  0
  7 20  1  0  0  0  0
  8 23  1  0  0  0  0
  9 23  2  0  0  0  0
 10 24  1  0  0  0  0
 11 12  2  0  0  0  0
 11 25  1  0  0  0  0
 12 26  1  0  0  0  0
 13 22  1  0  0  0  0
 13 24  2  0  0  0  0
 14 26  2  0  0  0  0
 14 27  1  0  0  0  0
 15 29  2  0  0  0  0
 15 66  1  0  0  0  0
 16 64  2  0  0  0  0
 16 66  1  0  0  0  0
 17 28  1  0  0  0  0
 18 28  1  0  0  0  0
 18 30  2  0  0  0  0
 18 31  1  0  0  0  0
 19 21  2  0  0  0  0
 19 36  1  0  0  0  0
 20 22  2  0  0  0  0
 20 37  1  0  0  0  0
 21 45  1  0  0  0  0
 22 38  1  0  0  0  0
 23 81  1  0  0  0  0
 24 82  1  0  0  0  0
 25 27  2  0  0  0  0
 25 81  1  0  0  0  0
 26 83  1  0  0  0  0
 27 84  1  0  0  0  0
 28 65  2  0  0  0  0
 29 59  1  0  0  0  0
 29 64  1  0  0  0  0
 30 67  1  0  0  0  0
 30 70  1  0  0  0  0
 31 71  1  0  0  0  0
 31 76  2  0  0  0  0
 32 46  1  0  0  0  0
 32 72  1  0  0  0  0
 32 77  2  0  0  0  0
 33 60  1  0  0  0  0
 33 68  1  0  0  0  0
 33 78  2  0  0  0  0
 34 61  1  0  0  0  0
 34 73  1  0  0  0  0
 34 79  2  0  0  0  0
 35 69  1  0  0  0  0
 35 74  1  0  0  0  0
 35 80  2  0  0  0  0
 36 39  1  0  0  0  0
 37 46  1  0  0  0  0
 38 68  1  0  0  0  0
 39 41  1  0  0  0  0
 40 42  1  0  0  0  0
 40 43  1  0  0  0  0
 41 45  1  0  0  0  0
 42 47  1  0  0  0  0
 43 69  1  0  0  0  0
 44 47  1  0  0  0  0
 44 69  1  0  0  0  0
 45 72  1  0  0  0  0
 46 68  1  0  0  0  0
 47 67  1  0  0  0  0
 48 59  1  0  0  0  0
 49 61  1  0  0  0  0
 50 62  1  0  0  0  0
 51 63  1  0  0  0  0
 52 63  1  0  0  0  0
 53 63  1  0  0  0  0
 54 75  1  0  0  0  0
 55 56  1  0  0  0  0
 55 62  1  0  0  0  0
 56 66  1  0  0  0  0
 57 59  1  0  0  0  0
 57 74  1  0  0  0  0
 58 62  1  0  0  0  0
 58 82  1  0  0  0  0
 60 63  1  0  0  0  0
 60 73  1  0  0  0  0
 61 75  1  0  0  0  0
 65 67  1  0  0  0  0
M  CHG  1  75   1
M  ISO  4  35 100  58 101  74 100  82 101
M  END
> <Batch ID>
0076

> <Smiles>
CNC(C)C(=O)NC(C(=O)N1Cc2cc([101O:1][101CH2:1]C(C)CCn3cnc(C(C)C[100NH:0][100C:0](=O)N4CCCC(n5nc(-c6ccc(Oc7ccc(F)cc7F)cc6)c(C(N)=O)c5N)C4)c3)ccc2CC1C(=O)NC1CCCc2ccccc21)C(C)(C)C

> <Shape>
0.198

> <Color>
0.074

> <Negative vol penalty>
0.000

$$$$

  -OEChem-04052318343D

 86 94  0     1  0  0  0  0  0999 V2000
  -21.8138  -11.9355   19.4580 C   0  0  0  0  0  0  0  0  0  0  0  0
  -21.6907  -13.2047   20.0143 C   0  0  0  0  0  0  0  0  0  0  0  0
  -26.1226  -29.1974   18.7507 C   0  0  0  0  0  0  0  0  0  0  0  0
  -25.5835  -27.7268   20.5902 C   0  0  0  0  0  0  0  0  0  0  0  0
  -23.0450  -11.2817   19.4817 C   0  0  0  0  0  0  0  0  0  0  0  0
  -22.7986  -13.8204   20.5957 C   0  0  0  0  0  0  0  0  0  0  0  0
  -23.2553  -18.6784   19.2406 C   0  0  0  0  0  0  0  0  0  0  0  0
  -26.6935  -30.1046   19.6432 C   0  0  0  0  0  0  0  0  0  0  0  0
  -26.1544  -28.6340   21.4828 C   0  0  0  0  0  0  0  0  0  0  0  0
  -22.4207  -19.5975   19.8750 C   0  0  0  0  0  0  0  0  0  0  0  0
  -27.1475  -30.7263   24.2839 C   0  0  0  0  0  0  0  0  0  0  0  0
  -26.4463  -31.0118   25.4554 C   0  0  0  0  0  0  0  0  0  0  0  0
  -24.2318  -20.2204   21.3417 C   0  0  0  0  0  0  0  0  0  0  0  0
  -19.3769  -23.0933   22.1401 C   0  0  0  0  0  0  0  0  0  0  0  0
  -24.5890  -31.8298   24.1444 C   0  0  0  0  0  0  0  0  0  0  0  0
  -25.5676  -28.0085   19.2242 C   0  0  0  0  0  0  0  0  0  0  0  0
  -25.6215  -26.0081   17.6420 C   0  0  0  0  0  0  0  0  0  0  0  0
  -24.1708  -11.8936   20.0550 C   0  0  0  0  0  0  0  0  0  0  0  0
  -24.5834  -18.5153   19.6598 C   0  0  0  0  0  0  0  0  0  0  0  0
  -24.0457  -13.1735   20.6282 C   0  0  0  0  0  0  0  0  0  0  0  0
  -25.0819  -19.3004   20.7093 C   0  0  0  0  0  0  0  0  0  0  0  0
  -18.8334  -24.2382   21.5681 C   0  0  0  0  0  0  0  0  0  0  0  0
  -20.4689  -23.2007   22.9940 C   0  0  0  0  0  0  0  0  0  0  0  0
  -26.7094  -29.8230   21.0093 C   0  0  0  0  0  0  0  0  0  0  0  0
  -22.9081  -20.3666   20.9276 C   0  0  0  0  0  0  0  0  0  0  0  0
  -26.5695  -30.9926   23.0426 C   0  0  0  0  0  0  0  0  0  0  0  0
  -25.1671  -31.5635   25.3857 C   0  0  0  0  0  0  0  0  0  0  0  0
  -25.2903  -31.5443   22.9729 C   0  0  0  0  0  0  0  0  0  0  0  0
  -24.9772  -27.0712   18.3028 C   0  0  0  0  0  0  0  0  0  0  0  0
  -19.4141  -25.4570   21.8795 C   0  0  0  0  0  0  0  0  0  0  0  0
  -20.9764  -24.4660   23.2415 C   0  0  0  0  0  0  0  0  0  0  0  0
  -24.6339  -25.4242   16.8869 C   0  0  0  0  0  0  0  0  0  0  0  0
  -26.9903  -25.5861   17.7052 C   0  0  0  0  0  0  0  0  0  0  0  0
  -26.2758  -16.1101   20.8658 C   0  0  0  0  0  0  0  0  0  0  0  0
  -28.7397  -18.1952   20.5436 C   0  0  0  0  0  0  0  0  0  0  0  0
  -29.7805  -21.4375   20.3173 C   0  0  0  0  0  0  0  0  0  0  0  0
  -18.6729  -25.2314   17.4158 C   0  0  0  0  0  0  0  0  0  0  0  0
  -25.4695  -11.1281   20.0992 C   0  0  0  0  0  0  0  0  0  0  0  0
  -25.4786  -17.5386   18.9476 C   0  0  0  0  0  0  0  0  0  0  0  0
  -26.5060  -19.1780   21.1841 C   0  0  0  0  0  0  0  0  0  0  0  0
  -26.6830  -12.0041   20.4001 C   0  0  0  0  0  0  0  0  0  0  0  0
  -20.5374  -26.4520   14.6391 C   0  0  0  0  0  0  0  0  0  0  0  0
  -26.3909  -12.9366   21.5714 C   0  0  0  0  0  0  0  0  0  0  0  0
  -21.9448  -26.6532   15.2035 C   0  0  0  0  0  0  0  0  0  0  0  0
  -19.4623  -26.7981   15.6669 C   0  0  0  0  0  0  0  0  0  0  0  0
  -21.0037  -26.3046   17.5255 C   0  0  0  0  0  0  0  0  0  0  0  0
  -25.2303  -13.8844   21.2458 C   0  0  1  0  0  0  0  0  0  0  0  0
  -26.6652  -17.0886   19.7942 C   0  0  1  0  0  0  0  0  0  0  0  0
  -22.1222  -25.9149   16.5440 C   0  0  2  0  0  0  0  0  0  0  0  0
  -19.8197  -27.9009   21.4926 C   0  0  0  0  0  0  0  0  0  0  0  0
  -21.8050  -25.4849   25.3930 C   0  0  0  0  0  0  0  0  0  0  0  0
  -23.3674  -25.2420   23.4296 C   0  0  0  0  0  0  0  0  0  0  0  0
  -31.3619  -23.3576   19.9862 C   0  0  0  0  0  0  0  0  0  0  0  0
  -29.3703  -17.7113   23.4895 C   0  0  0  0  0  0  0  0  0  0  0  0
  -30.7880  -19.7745   23.4531 C   0  0  0  0  0  0  0  0  0  0  0  0
  -31.3754  -17.8339   21.9999 C   0  0  0  0  0  0  0  0  0  0  0  0
  -29.3625  -21.4277   17.3874 C   0  0  0  0  0  0  0  0  0  0  0  0
  -17.6634  -24.1298   20.6525 C   0  0  0  0  0  0  0  0  0  0  0  0
  -21.0638  -21.9618   23.6181 C   0  0  0  0  0  0  0  0  0  0  0  0
  -18.8737  -26.7204   21.2940 C   0  0  0  0  0  0  0  0  0  0  0  0
  -18.0306  -23.6708   19.2354 C   0  0  0  0  0  0  0  0  0  0  0  0
  -22.3519  -21.5263   22.9280 C   0  0  0  0  0  0  0  0  0  1  0  0
  -22.1478  -24.6410   24.1518 C   0  0  0  0  0  0  0  0  0  0  0  0
  -29.3658  -19.2538   21.4191 C   0  0  1  0  0  0  0  0  0  0  0  0
  -30.7331  -22.1248   19.3557 C   0  0  2  0  0  0  0  0  0  0  0  0
  -30.1974  -18.6446   22.5829 C   0  0  0  0  0  0  0  0  0  0  0  0
  -23.6807  -27.1599   17.9944 N   0  0  0  0  0  0  0  0  0  0  0  0
  -20.4754  -25.6010   22.7045 N   0  0  0  0  0  0  0  0  0  0  0  0
  -23.5023  -26.1451   17.1315 N   0  0  0  0  0  0  0  0  0  0  0  0
  -27.3401  -18.2047   20.4599 N   0  0  0  0  0  0  0  0  0  0  0  0
  -19.6872  -26.0637   16.9143 N   0  0  0  0  0  0  0  0  0  0  0  0
  -24.6318  -24.3696   16.0442 N   0  0  0  0  0  0  0  0  0  0  0  0
  -27.8713  -26.2975   18.5311 N   0  0  0  0  0  0  0  0  0  0  0  0
  -25.6807  -14.9586   20.3869 N   0  0  0  0  0  0  0  0  0  0  0  0
  -30.1300  -20.1205   20.5284 N   0  0  0  0  0  0  0  0  0  0  0  0
  -18.9703  -24.5670   18.5994 N   0  0  0  0  0  0  0  0  0  0  0  0
  -30.0102  -22.5447   18.1220 N   0  3  0  0  0  0  0  0  0  0  0  0
  -27.4231  -24.6173   17.0362 O   0  0  0  0  0  0  0  0  0  0  0  0
  -26.5001  -16.3791   22.0401 O   0  0  0  0  0  0  0  0  0  0  0  0
  -29.4660  -17.3941   19.9501 O   0  0  0  0  0  0  0  0  0  0  0  0
  -28.8243  -22.0125   20.8326 O   0  0  0  0  0  0  0  0  0  0  0  0
  -17.5850  -25.0868   16.8479 O   0  0  0  0  0  0  0  0  0  0  0  0
  -27.2666  -30.7079   21.8805 O   0  0  0  0  0  0  0  0  0  0  0  0
  -22.0954  -21.2641   21.5490 O   0  0  0  0  0  0  0  0  0  1  0  0
  -24.4932  -31.8361   26.5108 F   0  0  0  0  0  0  0  0  0  0  0  0
  -24.7293  -31.8012   21.7833 F   0  0  0  0  0  0  0  0  0  0  0  0
  1  2  1  0  0  0  0
  1  5  2  0  0  0  0
  2  6  2  0  0  0  0
  3  8  2  0  0  0  0
  3 16  1  0  0  0  0
  4  9  1  0  0  0  0
  4 16  2  0  0  0  0
  5 18  1  0  0  0  0
  6 20  1  0  0  0  0
  7 10  2  0  0  0  0
  7 19  1  0  0  0  0
  8 24  1  0  0  0  0
  9 24  2  0  0  0  0
 10 25  1  0  0  0  0
 11 12  2  0  0  0  0
 11 26  1  0  0  0  0
 12 27  1  0  0  0  0
 13 21  1  0  0  0  0
 13 25  2  0  0  0  0
 14 22  1  0  0  0  0
 14 23  2  0  0  0  0
 15 27  2  0  0  0  0
 15 28  1  0  0  0  0
 16 29  1  0  0  0  0
 17 29  1  0  0  0  0
 17 32  2  0  0  0  0
 17 33  1  0  0  0  0
 18 20  2  0  0  0  0
 18 38  1  0  0  0  0
 19 21  2  0  0  0  0
 19 39  1  0  0  0  0
 20 47  1  0  0  0  0
 21 40  1  0  0  0  0
 22 30  2  0  0  0  0
 22 58  1  0  0  0  0
 23 31  1  0  0  0  0
 23 59  1  0  0  0  0
 24 83  1  0  0  0  0
 25 84  1  0  0  0  0
 26 28  2  0  0  0  0
 26 83  1  0  0  0  0
 27 85  1  0  0  0  0
 28 86  1  0  0  0  0
 29 67  2  0  0  0  0
 30 60  1  0  0  0  0
 30 68  1  0  0  0  0
 31 63  1  0  0  0  0
 31 68  2  0  0  0  0
 32 69  1  0  0  0  0
 32 72  1  0  0  0  0
 33 73  1  0  0  0  0
 33 78  2  0  0  0  0
 34 48  1  0  0  0  0
 34 74  1  0  0  0  0
 34 79  2  0  0  0  0
 35 64  1  0  0  0  0
 35 70  1  0  0  0  0
 35 80  2  0  0  0  0
 36 65  1  0  0  0  0
 36 75  1  0  0  0  0
 36 81  2  0  0  0  0
 37 71  1  0  0  0  0
 37 76  1  0  0  0  0
 37 82  2  0  0  0  0
 38 41  1  0  0  0  0
 39 48  1  0  0  0  0
 40 70  1  0  0  0  0
 41 43  1  0  0  0  0
 42 44  1  0  0  0  0
 42 45  1  0  0  0  0
 43 47  1  0  0  0  0
 44 49  1  0  0  0  0
 45 71  1  0  0  0  0
 46 49  1  0  0  0  0
 46 71  1  0  0  0  0
 47 74  1  0  0  0  0
 48 70  1  0  0  0  0
 49 69  1  0  0  0  0
 50 60  1  0  0  0  0
 51 63  1  0  0  0  0
 52 63  1  0  0  0  0
 53 65  1  0  0  0  0
 54 66  1  0  0  0  0
 55 66  1  0  0  0  0
 56 66  1  0  0  0  0
 57 77  1  0  0  0  0
 58 61  1  0  0  0  0
 59 62  1  0  0  0  0
 61 76  1  0  0  0  0
 62 84  1  0  0  0  0
 64 66  1  0  0  0  0
 64 75  1  0  0  0  0
 65 77  1  0  0  0  0
 67 69  1  0  0  0  0
M  CHG  1  77   1
M  ISO  4  37 100  62 101  76 100  84 101
M  END
> <Batch ID>
0076

> <Smiles>
CCc1nc(C(C)C)c(C[101CH2:1][101O:1]c2ccc3c(c2)CN(C(=O)C(NC(=O)C(C)NC)C(C)(C)C)C(C(=O)NC2CCCc4ccccc42)C3)cc1CC[100NH:0][100C:0](=O)N1CCCC(n2nc(-c3ccc(Oc4ccc(F)cc4F)cc3)c(C(N)=O)c2N)C1

> <Shape>
0.219

> <Color>
0.055

> <Negative vol penalty>
0.000

$$$$

  -OEChem-04052318343D

 85 93  0     1  0  0  0  0  0999 V2000
  -25.3127  -35.2028   23.8938 C   0  0  0  0  0  0  0  0  0  0  0  0
  -25.9802  -34.0252   23.5726 C   0  0  0  0  0  0  0  0  0  0  0  0
  -27.8184  -11.9071   22.5601 C   0  0  0  0  0  0  0  0  0  0  0  0
  -27.0745  -11.6794   20.2727 C   0  0  0  0  0  0  0  0  0  0  0  0
  -23.9909  -35.1555   24.3348 C   0  0  0  0  0  0  0  0  0  0  0  0
  -25.3265  -32.7994   23.6931 C   0  0  0  0  0  0  0  0  0  0  0  0
  -26.1049  -29.7816   19.7017 C   0  0  0  0  0  0  0  0  0  0  0  0
  -27.0727  -10.7829   22.9145 C   0  0  0  0  0  0  0  0  0  0  0  0
  -26.3288  -10.5552   20.6272 C   0  0  0  0  0  0  0  0  0  0  0  0
  -27.3276  -29.1149   19.6364 C   0  0  0  0  0  0  0  0  0  0  0  0
  -23.3705   -9.8994   22.1269 C   0  0  0  0  0  0  0  0  0  0  0  0
  -22.0671   -9.8060   21.6388 C   0  0  0  0  0  0  0  0  0  0  0  0
  -26.2744  -27.1138   20.4765 C   0  0  0  0  0  0  0  0  0  0  0  0
  -22.6366   -7.7459   20.5124 C   0  0  0  0  0  0  0  0  0  0  0  0
  -27.9519  -22.4498   20.2195 C   0  0  0  0  0  0  0  0  0  0  0  0
  -27.8193  -12.3554   21.2392 C   0  0  0  0  0  0  0  0  0  0  0  0
  -29.9265  -13.5469   20.4344 C   0  0  0  0  0  0  0  0  0  0  0  0
  -23.3175  -33.9293   24.4516 C   0  0  0  0  0  0  0  0  0  0  0  0
  -24.9581  -29.1215   20.1660 C   0  0  0  0  0  0  0  0  0  0  0  0
  -23.9948  -32.7356   24.1374 C   0  0  0  0  0  0  0  0  0  0  0  0
  -25.0379  -27.7737   20.5443 C   0  0  0  0  0  0  0  0  0  0  0  0
  -26.3279  -10.1070   21.9481 C   0  0  0  0  0  0  0  0  0  0  0  0
  -27.4131  -27.7817   20.0266 C   0  0  0  0  0  0  0  0  0  0  0  0
  -24.3069   -8.9161   21.8076 C   0  0  0  0  0  0  0  0  0  0  0  0
  -21.7002   -8.7292   20.8316 C   0  0  0  0  0  0  0  0  0  0  0  0
  -23.9400   -7.8393   21.0004 C   0  0  0  0  0  0  0  0  0  0  0  0
  -28.5890  -13.5170   20.8725 C   0  0  0  0  0  0  0  0  0  0  0  0
  -29.2640  -22.8340   19.8841 C   0  0  0  0  0  0  0  0  0  0  0  0
  -27.5696  -21.6095   19.2026 C   0  0  0  0  0  0  0  0  0  0  0  0
  -30.1868  -14.8777   20.2164 C   0  0  0  0  0  0  0  0  0  0  0  0
  -30.8510  -12.4681   20.2416 C   0  0  0  0  0  0  0  0  0  0  0  0
  -22.9729  -29.5276   22.6150 C   0  0  0  0  0  0  0  0  0  0  0  0
  -21.3158  -27.1470   21.1626 C   0  0  0  0  0  0  0  0  0  0  0  0
  -26.5538  -19.3925   18.9148 C   0  0  0  0  0  0  0  0  0  0  0  0
  -21.3482  -24.4609   19.0577 C   0  0  0  0  0  0  0  0  0  0  0  0
  -21.9041  -33.9246   24.9776 C   0  0  0  0  0  0  0  0  0  0  0  0
  -23.6411  -29.8470   20.2051 C   0  0  0  0  0  0  0  0  0  0  0  0
  -23.8318  -27.0139   21.0308 C   0  0  0  0  0  0  0  0  0  0  0  0
  -21.1627  -32.6152   24.7202 C   0  0  0  0  0  0  0  0  0  0  0  0
  -28.9074  -19.2407   21.6833 C   0  0  0  0  0  0  0  0  0  0  0  0
  -22.0406  -31.4234   25.0886 C   0  0  0  0  0  0  0  0  0  0  0  0
  -29.1903  -17.7411   21.7620 C   0  0  0  0  0  0  0  0  0  0  0  0
  -27.4598  -19.5187   21.2865 C   0  0  0  0  0  0  0  0  0  0  0  0
  -27.3288  -17.3571   20.0886 C   0  0  0  0  0  0  0  0  0  0  0  0
  -23.3116  -31.3885   24.2315 C   0  0  1  0  0  0  0  0  0  0  0  0
  -22.6455  -29.2258   21.1799 C   0  0  1  0  0  0  0  0  0  0  0  0
  -28.7866  -17.0340   20.4564 C   0  0  2  0  0  0  0  0  0  0  0  0
  -19.8484  -22.6935   18.0963 C   0  0  0  0  0  0  0  0  0  0  0  0
  -29.8092  -19.7083   17.1989 C   0  0  0  0  0  0  0  0  0  0  0  0
  -28.9000  -21.6849   15.9057 C   0  0  0  0  0  0  0  0  0  0  0  0
  -25.2170  -20.9910   20.0914 C   0  0  0  0  0  0  0  0  0  0  0  0
  -21.3769  -25.6520   23.8218 C   0  0  0  0  0  0  0  0  0  0  0  0
  -20.7400  -23.5698   22.5861 C   0  0  0  0  0  0  0  0  0  0  0  0
  -19.1953  -25.5285   22.6054 C   0  0  0  0  0  0  0  0  0  0  0  0
  -21.8350  -25.3893   16.2900 C   0  0  0  0  0  0  0  0  0  0  0  0
  -30.1754  -23.7581   20.6517 C   0  0  0  0  0  0  0  0  0  0  0  0
  -30.0421  -25.2285   20.2497 C   0  0  0  0  0  0  0  0  0  0  0  0
  -25.6264  -21.2362   17.6045 C   0  0  0  0  0  0  0  0  0  0  0  0
  -28.6208  -25.7636   20.3798 C   0  0  0  0  0  0  0  0  0  1  0  0
  -21.3206  -25.6394   21.2406 C   0  0  1  0  0  0  0  0  0  0  0  0
  -20.4452  -24.0783   17.8989 C   0  0  2  0  0  0  0  0  0  0  0  0
  -28.7225  -20.7829   17.1284 C   0  0  0  0  0  0  0  0  0  0  0  0
  -26.3097  -20.8795   18.9714 C   0  0  1  0  0  0  0  0  0  0  0  0
  -20.6815  -25.1120   22.5562 C   0  0  0  0  0  0  0  0  0  0  0  0
  -28.0380  -14.7323   20.9302 N   0  0  0  0  0  0  0  0  0  0  0  0
  -29.6870  -22.2829   18.7434 N   0  0  0  0  0  0  0  0  0  0  0  0
  -28.6347  -21.5437   18.3532 N   0  0  0  0  0  0  0  0  0  0  0  0
  -29.0343  -15.5384   20.5255 N   0  0  0  0  0  0  0  0  0  0  0  0
  -22.5681  -27.7687   21.0570 N   0  0  0  0  0  0  0  0  0  0  0  0
  -27.1064  -18.8054   20.0533 N   0  0  0  0  0  0  0  0  0  0  0  0
  -31.2867  -15.5356   19.7924 N   0  0  0  0  0  0  0  0  0  0  0  0
  -30.4200  -11.1623   20.5125 N   0  0  0  0  0  0  0  0  0  0  0  0
  -23.0164  -30.8768   22.9103 N   0  0  0  0  0  0  0  0  0  0  0  0
  -20.6652  -25.1658   20.0262 N   0  0  0  0  0  0  0  0  0  0  0  0
  -25.2911  -22.6817   17.5401 N   0  3  0  0  0  0  0  0  0  0  0  0
  -21.2125  -24.0817   16.6214 N   0  3  0  0  0  0  0  0  0  0  0  0
  -32.0297  -12.6580   19.8566 O   0  0  0  0  0  0  0  0  0  0  0  0
  -23.1699  -28.6047   23.3967 O   0  0  0  0  0  0  0  0  0  0  0  0
  -20.2402  -27.7505   21.1871 O   0  0  0  0  0  0  0  0  0  0  0  0
  -26.2639  -18.7735   17.8876 O   0  0  0  0  0  0  0  0  0  0  0  0
  -22.5393  -24.1610   19.1013 O   0  0  0  0  0  0  0  0  0  0  0  0
  -25.6002   -9.0098   22.2936 O   0  0  0  0  0  0  0  0  0  0  0  0
  -28.6055  -27.1287   19.9644 O   0  0  0  0  0  0  0  0  0  1  0  0
  -20.4481   -8.6389   20.3643 F   0  0  0  0  0  0  0  0  0  0  0  0
  -24.8349   -6.8909   20.6913 F   0  0  0  0  0  0  0  0  0  0  0  0
  1  2  1  0  0  0  0
  1  5  2  0  0  0  0
  2  6  2  0  0  0  0
  3  8  2  0  0  0  0
  3 16  1  0  0  0  0
  4  9  1  0  0  0  0
  4 16  2  0  0  0  0
  5 18  1  0  0  0  0
  6 20  1  0  0  0  0
  7 10  2  0  0  0  0
  7 19  1  0  0  0  0
  8 22  1  0  0  0  0
  9 22  2  0  0  0  0
 10 23  1  0  0  0  0
 11 12  2  0  0  0  0
 11 24  1  0  0  0  0
 12 25  1  0  0  0  0
 13 21  1  0  0  0  0
 13 23  2  0  0  0  0
 14 25  2  0  0  0  0
 14 26  1  0  0  0  0
 15 28  1  0  0  0  0
 15 29  2  0  0  0  0
 16 27  1  0  0  0  0
 17 27  1  0  0  0  0
 17 30  2  0  0  0  0
 17 31  1  0  0  0  0
 18 20  2  0  0  0  0
 18 36  1  0  0  0  0
 19 21  2  0  0  0  0
 19 37  1  0  0  0  0
 20 45  1  0  0  0  0
 21 38  1  0  0  0  0
 22 82  1  0  0  0  0
 23 83  1  0  0  0  0
 24 26  2  0  0  0  0
 24 82  1  0  0  0  0
 25 84  1  0  0  0  0
 26 85  1  0  0  0  0
 27 65  2  0  0  0  0
 28 56  1  0  0  0  0
 28 66  2  0  0  0  0
 29 63  1  0  0  0  0
 29 67  1  0  0  0  0
 30 68  1  0  0  0  0
 30 71  1  0  0  0  0
 31 72  1  0  0  0  0
 31 77  2  0  0  0  0
 32 46  1  0  0  0  0
 32 73  1  0  0  0  0
 32 78  2  0  0  0  0
 33 60  1  0  0  0  0
 33 69  1  0  0  0  0
 33 79  2  0  0  0  0
 34 63  1  0  0  0  0
 34 70  1  0  0  0  0
 34 80  2  0  0  0  0
 35 61  1  0  0  0  0
 35 74  1  0  0  0  0
 35 81  2  0  0  0  0
 36 39  1  0  0  0  0
 37 46  1  0  0  0  0
 38 69  1  0  0  0  0
 39 41  1  0  0  0  0
 40 42  1  0  0  0  0
 40 43  1  0  0  0  0
 41 45  1  0  0  0  0
 42 47  1  0  0  0  0
 43 70  1  0  0  0  0
 44 47  1  0  0  0  0
 44 70  1  0  0  0  0
 45 73  1  0  0  0  0
 46 69  1  0  0  0  0
 47 68  1  0  0  0  0
 48 61  1  0  0  0  0
 49 62  1  0  0  0  0
 50 62  1  0  0  0  0
 51 63  1  0  0  0  0
 52 64  1  0  0  0  0
 53 64  1  0  0  0  0
 54 64  1  0  0  0  0
 55 76  1  0  0  0  0
 56 57  1  0  0  0  0
 57 59  1  0  0  0  0
 58 63  1  0  0  0  0
 58 75  1  0  0  0  0
 59 83  1  0  0  0  0
 60 64  1  0  0  0  0
 60 74  1  0  0  0  0
 61 76  1  0  0  0  0
 62 67  1  0  0  0  0
 65 68  1  0  0  0  0
 66 67  1  0  0  0  0
M  CHG  2  75   1  76   1
M  ISO  4  34 100  59 101  63 100  83 101
M  END
> <Batch ID>
0076

> <Smiles>
CNC(C)C(=O)NC(C(=O)N1Cc2cc([101O:1][101CH2:1]CCc3cc([100C:0](C)(CN)[100C:0](=O)N4CCCC(n5nc(-c6ccc(Oc7ccc(F)cc7F)cc6)c(C(N)=O)c5N)C4)n(C(C)C)n3)ccc2CC1C(=O)NC1CCCc2ccccc21)C(C)(C)C

> <Shape>
0.278

> <Color>
0.079

> <Negative vol penalty>
0.000

$$$$
