
  -OEChem-04052318373D

 84 92  0     1  0  0  0  0  0999 V2000
  -29.1071  -27.2474   21.4632 C   0  0  0  0  0  0  0  0  0  0  0  0
  -28.2279  -26.2458   21.8589 C   0  0  0  0  0  0  0  0  0  0  0  0
  -24.8809  -30.0053   20.0311 C   0  0  0  0  0  0  0  0  0  0  0  0
  -25.6190  -28.8323   22.0101 C   0  0  0  0  0  0  0  0  0  0  0  0
  -29.9439  -27.0425   20.3683 C   0  0  0  0  0  0  0  0  0  0  0  0
  -28.1937  -25.0344   21.1674 C   0  0  0  0  0  0  0  0  0  0  0  0
  -25.3938  -21.4589   23.0595 C   0  0  0  0  0  0  0  0  0  0  0  0
  -25.9410  -30.9016   20.1669 C   0  0  0  0  0  0  0  0  0  0  0  0
  -26.6792  -29.7286   22.1459 C   0  0  0  0  0  0  0  0  0  0  0  0
  -24.0005  -21.4946   23.0249 C   0  0  0  0  0  0  0  0  0  0  0  0
  -27.1503  -32.8752   23.2894 C   0  0  0  0  0  0  0  0  0  0  0  0
  -27.4076  -33.3867   24.5613 C   0  0  0  0  0  0  0  0  0  0  0  0
  -24.0103  -19.8918   21.2220 C   0  0  0  0  0  0  0  0  0  0  0  0
  -29.6276  -32.4357   24.4945 C   0  0  0  0  0  0  0  0  0  0  0  0
  -24.7199  -28.9707   20.9527 C   0  0  0  0  0  0  0  0  0  0  0  0
  -23.6217  -26.8333   20.0965 C   0  0  0  0  0  0  0  0  0  0  0  0
  -29.9105  -25.8324   19.6558 C   0  0  0  0  0  0  0  0  0  0  0  0
  -26.1074  -20.6463   22.1668 C   0  0  0  0  0  0  0  0  0  0  0  0
  -29.0474  -24.7993   20.0744 C   0  0  0  0  0  0  0  0  0  0  0  0
  -25.4125  -19.8457   21.2491 C   0  0  0  0  0  0  0  0  0  0  0  0
  -26.8401  -30.7632   21.2243 C   0  0  0  0  0  0  0  0  0  0  0  0
  -23.3086  -20.7132   22.1041 C   0  0  0  0  0  0  0  0  0  0  0  0
  -28.1316  -32.1439   22.6200 C   0  0  0  0  0  0  0  0  0  0  0  0
  -28.6463  -33.1669   25.1639 C   0  0  0  0  0  0  0  0  0  0  0  0
  -29.3703  -31.9242   23.2226 C   0  0  0  0  0  0  0  0  0  0  0  0
  -23.6246  -28.0449   20.8133 C   0  0  0  0  0  0  0  0  0  0  0  0
  -22.3549  -26.3328   20.2733 C   0  0  0  0  0  0  0  0  0  0  0  0
  -16.8396  -21.4253   20.3969 C   0  0  0  0  0  0  0  0  0  0  0  0
  -17.2466  -22.2485   22.3631 C   0  0  0  0  0  0  0  0  0  0  0  0
  -24.6703  -26.2155   19.3386 C   0  0  0  0  0  0  0  0  0  0  0  0
  -28.2295  -21.1733   19.8597 C   0  0  0  0  0  0  0  0  0  0  0  0
  -28.3948  -17.9342   19.8067 C   0  0  0  0  0  0  0  0  0  0  0  0
  -26.8894  -14.9450   20.4743 C   0  0  0  0  0  0  0  0  0  0  0  0
  -17.9867  -25.1924   23.5541 C   0  0  0  0  0  0  0  0  0  0  0  0
  -30.8436  -25.6609   18.4832 C   0  0  0  0  0  0  0  0  0  0  0  0
  -27.6093  -20.5989   22.2348 C   0  0  0  0  0  0  0  0  0  0  0  0
  -26.1310  -18.9409   20.2827 C   0  0  0  0  0  0  0  0  0  0  0  0
  -30.4244  -24.5293   17.5504 C   0  0  0  0  0  0  0  0  0  0  0  0
  -18.2064  -28.4825   22.2111 C   0  0  0  0  0  0  0  0  0  0  0  0
  -30.1449  -23.2689   18.3552 C   0  0  0  0  0  0  0  0  0  0  0  0
  -19.6367  -28.5638   21.6746 C   0  0  0  0  0  0  0  0  0  0  0  0
  -18.1323  -27.6647   23.4986 C   0  0  0  0  0  0  0  0  0  0  0  0
  -20.1508  -26.3965   22.8733 C   0  0  0  0  0  0  0  0  0  0  0  0
  -28.9710  -23.4851   19.3186 C   0  0  1  0  0  0  0  0  0  0  0  0
  -28.2516  -20.1241   20.9350 C   0  0  1  0  0  0  0  0  0  0  0  0
  -20.2675  -27.1643   21.5455 C   0  0  2  0  0  0  0  0  0  0  0  0
  -16.5796  -23.8971   16.6969 C   0  0  0  0  0  0  0  0  0  0  0  0
  -27.2560  -12.4696   20.2872 C   0  0  0  0  0  0  0  0  0  0  0  0
  -27.8285  -18.0790   16.8120 C   0  0  0  0  0  0  0  0  0  0  0  0
  -27.2694  -15.6393   16.8705 C   0  0  0  0  0  0  0  0  0  0  0  0
  -29.5679  -16.4049   17.4650 C   0  0  0  0  0  0  0  0  0  0  0  0
  -26.6945  -14.5776   23.4044 C   0  0  0  0  0  0  0  0  0  0  0  0
  -17.0637  -20.8335   19.0660 C   0  0  0  0  0  0  0  0  0  0  0  0
  -17.9919  -22.7107   23.5475 C   0  0  0  0  0  0  0  0  0  0  0  0
  -17.1356  -23.0797   17.8519 C   0  0  0  0  0  0  0  0  0  0  0  0
  -16.4857  -21.6979   17.9245 C   0  0  0  0  0  0  0  0  0  0  0  0
  -19.7959  -20.0912   21.2357 C   0  0  0  0  0  0  0  0  0  0  0  0
  -19.3282  -21.5341   21.0334 C   0  0  0  0  0  0  0  0  0  0  0  0
  -21.3044  -19.9204   21.0990 C   0  0  0  0  0  0  0  0  0  1  0  0
  -27.6632  -16.8382   19.0702 C   0  0  1  0  0  0  0  0  0  0  0  0
  -27.3951  -13.6967   21.1746 C   0  0  2  0  0  0  0  0  0  0  0  0
  -28.0685  -16.7588   17.5712 C   0  0  0  0  0  0  0  0  0  0  0  0
  -22.4527  -28.2988   21.4015 N   0  0  0  0  0  0  0  0  0  0  0  0
  -15.6851  -21.7378   20.9407 N   0  0  0  0  0  0  0  0  0  0  0  0
  -15.9440  -22.2615   22.1917 N   0  0  0  0  0  0  0  0  0  0  0  0
  -21.7015  -27.2399   21.0545 N   0  0  0  0  0  0  0  0  0  0  0  0
  -17.8501  -21.7300   21.2577 N   0  0  0  0  0  0  0  0  0  0  0  0
  -27.5997  -18.9343   20.3841 N   0  0  0  0  0  0  0  0  0  0  0  0
  -18.7461  -26.3483   23.3084 N   0  0  0  0  0  0  0  0  0  0  0  0
  -21.7474  -25.2097   19.8351 N   0  0  0  0  0  0  0  0  0  0  0  0
  -25.9099  -26.8649   19.2603 N   0  0  0  0  0  0  0  0  0  0  0  0
  -28.8722  -22.3468   20.2053 N   0  0  0  0  0  0  0  0  0  0  0  0
  -27.9047  -15.6105   19.8203 N   0  0  0  0  0  0  0  0  0  0  0  0
  -18.6426  -23.9857   23.3433 N   0  0  0  0  0  0  0  0  0  0  0  0
  -26.6263  -13.4592   22.4290 N   0  3  0  0  0  0  0  0  0  0  0  0
  -24.5077  -25.1280   18.7348 O   0  0  0  0  0  0  0  0  0  0  0  0
  -27.6720  -20.9353   18.7947 O   0  0  0  0  0  0  0  0  0  0  0  0
  -29.6261  -17.9002   19.8737 O   0  0  0  0  0  0  0  0  0  0  0  0
  -25.7109  -15.2929   20.5013 O   0  0  0  0  0  0  0  0  0  0  0  0
  -16.8097  -25.2328   23.9282 O   0  0  0  0  0  0  0  0  0  0  0  0
  -27.8749  -31.6375   21.3570 O   0  0  0  0  0  0  0  0  0  0  0  0
  -21.9487  -20.7466   22.0678 O   0  0  0  0  0  0  0  0  0  1  0  0
  -28.8938  -33.6595   26.3846 F   0  0  0  0  0  0  0  0  0  0  0  0
  -30.3173  -31.2234   22.5840 F   0  0  0  0  0  0  0  0  0  0  0  0
  1  2  1  0  0  0  0
  1  5  2  0  0  0  0
  2  6  2  0  0  0  0
  3  8  2  0  0  0  0
  3 15  1  0  0  0  0
  4  9  1  0  0  0  0
  4 15  2  0  0  0  0
  5 17  1  0  0  0  0
  6 19  1  0  0  0  0
  7 10  2  0  0  0  0
  7 18  1  0  0  0  0
  8 21  1  0  0  0  0
  9 21  2  0  0  0  0
 10 22  1  0  0  0  0
 11 12  2  0  0  0  0
 11 23  1  0  0  0  0
 12 24  1  0  0  0  0
 13 20  1  0  0  0  0
 13 22  2  0  0  0  0
 14 24  2  0  0  0  0
 14 25  1  0  0  0  0
 15 26  1  0  0  0  0
 16 26  1  0  0  0  0
 16 27  2  0  0  0  0
 16 30  1  0  0  0  0
 17 19  2  0  0  0  0
 17 35  1  0  0  0  0
 18 20  2  0  0  0  0
 18 36  1  0  0  0  0
 19 44  1  0  0  0  0
 20 37  1  0  0  0  0
 21 81  1  0  0  0  0
 22 82  1  0  0  0  0
 23 25  2  0  0  0  0
 23 81  1  0  0  0  0
 24 83  1  0  0  0  0
 25 84  1  0  0  0  0
 26 63  2  0  0  0  0
 27 66  1  0  0  0  0
 27 70  1  0  0  0  0
 28 53  1  0  0  0  0
 28 64  2  0  0  0  0
 28 67  1  0  0  0  0
 29 54  1  0  0  0  0
 29 65  2  0  0  0  0
 29 67  1  0  0  0  0
 30 71  1  0  0  0  0
 30 76  2  0  0  0  0
 31 45  1  0  0  0  0
 31 72  1  0  0  0  0
 31 77  2  0  0  0  0
 32 60  1  0  0  0  0
 32 68  1  0  0  0  0
 32 78  2  0  0  0  0
 33 61  1  0  0  0  0
 33 73  1  0  0  0  0
 33 79  2  0  0  0  0
 34 69  1  0  0  0  0
 34 74  1  0  0  0  0
 34 80  2  0  0  0  0
 35 38  1  0  0  0  0
 36 45  1  0  0  0  0
 37 68  1  0  0  0  0
 38 40  1  0  0  0  0
 39 41  1  0  0  0  0
 39 42  1  0  0  0  0
 40 44  1  0  0  0  0
 41 46  1  0  0  0  0
 42 69  1  0  0  0  0
 43 46  1  0  0  0  0
 43 69  1  0  0  0  0
 44 72  1  0  0  0  0
 45 68  1  0  0  0  0
 46 66  1  0  0  0  0
 47 55  1  0  0  0  0
 48 61  1  0  0  0  0
 49 62  1  0  0  0  0
 50 62  1  0  0  0  0
 51 62  1  0  0  0  0
 52 75  1  0  0  0  0
 53 56  1  0  0  0  0
 54 74  1  0  0  0  0
 55 56  1  0  0  0  0
 57 58  1  0  0  0  0
 57 59  1  0  0  0  0
 58 67  1  0  0  0  0
 59 82  1  0  0  0  0
 60 62  1  0  0  0  0
 60 73  1  0  0  0  0
 61 75  1  0  0  0  0
 63 66  1  0  0  0  0
 64 65  1  0  0  0  0
M  CHG  1  75   1
M  ISO  4  34 100  59 101  74 100  82 101
M  END
> <Batch ID>
0077

> <Smiles>
CCCCc1nnc(C[100NH:0][100C:0](=O)N2CCCC(n3nc(-c4ccc(Oc5ccc(F)cc5F)cc4)c(C(N)=O)c3N)C2)n1CC[101CH2:1][101O:1]c1ccc2c(c1)CN(C(=O)C(NC(=O)C(C)NC)C(C)(C)C)C(C(=O)NC1CCCc3ccccc31)C2

> <Shape>
0.227

> <Color>
0.050

> <Negative vol penalty>
0.000

$$$$

  -OEChem-04052318373D

 90 98  0     1  0  0  0  0  0999 V2000
  -14.9709  -26.3809   22.9998 C   0  0  0  0  0  0  0  0  0  0  0  0
  -15.6846  -26.2819   21.8098 C   0  0  0  0  0  0  0  0  0  0  0  0
  -26.4612  -12.7388   21.7165 C   0  0  0  0  0  0  0  0  0  0  0  0
  -25.9551  -13.9233   19.6726 C   0  0  0  0  0  0  0  0  0  0  0  0
  -15.3744  -27.2866   23.9801 C   0  0  0  0  0  0  0  0  0  0  0  0
  -16.8018  -27.0894   21.5989 C   0  0  0  0  0  0  0  0  0  0  0  0
  -20.7136  -24.5251   19.6580 C   0  0  0  0  0  0  0  0  0  0  0  0
  -25.1974  -12.1494   21.6879 C   0  0  0  0  0  0  0  0  0  0  0  0
  -24.6912  -13.3339   19.6439 C   0  0  0  0  0  0  0  0  0  0  0  0
  -20.6729  -24.2376   18.2944 C   0  0  0  0  0  0  0  0  0  0  0  0
  -22.2384  -10.0550   21.9590 C   0  0  0  0  0  0  0  0  0  0  0  0
  -22.1545   -8.6876   22.2207 C   0  0  0  0  0  0  0  0  0  0  0  0
  -22.1533  -26.0933   17.8652 C   0  0  0  0  0  0  0  0  0  0  0  0
  -27.2845  -19.6846   19.2808 C   0  0  0  0  0  0  0  0  0  0  0  0
  -23.5863   -8.2373   20.3274 C   0  0  0  0  0  0  0  0  0  0  0  0
  -26.8401  -13.6258   20.7089 C   0  0  0  0  0  0  0  0  0  0  0  0
  -29.3283  -13.7398   20.1578 C   0  0  0  0  0  0  0  0  0  0  0  0
  -16.5028  -28.0987   23.7850 C   0  0  0  0  0  0  0  0  0  0  0  0
  -21.4671  -25.6073   20.1351 C   0  0  0  0  0  0  0  0  0  0  0  0
  -17.2200  -28.0077   22.5769 C   0  0  0  0  0  0  0  0  0  0  0  0
  -22.2040  -26.3908   19.2356 C   0  0  0  0  0  0  0  0  0  0  0  0
  -25.9377  -19.3433   19.3325 C   0  0  0  0  0  0  0  0  0  0  0  0
  -25.2099  -19.5815   20.4930 C   0  0  0  0  0  0  0  0  0  0  0  0
  -24.3124  -12.4469   20.6517 C   0  0  0  0  0  0  0  0  0  0  0  0
  -21.3905  -25.0235   17.3974 C   0  0  0  0  0  0  0  0  0  0  0  0
  -22.9962  -10.5137   20.8814 C   0  0  0  0  0  0  0  0  0  0  0  0
  -22.8284   -7.7787   21.4050 C   0  0  0  0  0  0  0  0  0  0  0  0
  -23.6701   -9.6049   20.0656 C   0  0  0  0  0  0  0  0  0  0  0  0
  -28.1453  -14.2354   20.7382 C   0  0  0  0  0  0  0  0  0  0  0  0
  -27.8522  -20.2571   20.4076 C   0  0  0  0  0  0  0  0  0  0  0  0
  -25.8705  -20.1584   21.5657 C   0  0  0  0  0  0  0  0  0  0  0  0
  -30.2815  -14.6796   20.4654 C   0  0  0  0  0  0  0  0  0  0  0  0
  -29.5460  -12.5375   19.4076 C   0  0  0  0  0  0  0  0  0  0  0  0
  -20.7934  -28.3003   21.6835 C   0  0  0  0  0  0  0  0  0  0  0  0
  -24.0223  -28.5960   21.7770 C   0  0  0  0  0  0  0  0  0  0  0  0
  -29.8723  -20.5298   21.7767 C   0  0  0  0  0  0  0  0  0  0  0  0
  -27.0459  -27.7937   20.4128 C   0  0  0  0  0  0  0  0  0  0  0  0
  -16.8727  -29.0963   24.8540 C   0  0  0  0  0  0  0  0  0  0  0  0
  -21.5220  -25.8879   21.6118 C   0  0  0  0  0  0  0  0  0  0  0  0
  -23.0445  -27.5515   19.6990 C   0  0  0  0  0  0  0  0  0  0  0  0
  -18.2878  -29.6495   24.7073 C   0  0  0  0  0  0  0  0  0  0  0  0
  -31.3931  -17.9589   23.7561 C   0  0  0  0  0  0  0  0  0  0  0  0
  -18.5550  -30.0558   23.2615 C   0  0  0  0  0  0  0  0  0  0  0  0
  -30.8181  -16.6690   23.1723 C   0  0  0  0  0  0  0  0  0  0  0  0
  -30.3705  -19.0905   23.7246 C   0  0  0  0  0  0  0  0  0  0  0  0
  -29.2262  -18.0693   21.7831 C   0  0  0  0  0  0  0  0  0  0  0  0
  -18.4517  -28.8488   22.3212 C   0  0  1  0  0  0  0  0  0  0  0  0
  -21.9113  -27.3277   21.9324 C   0  0  1  0  0  0  0  0  0  0  0  0
  -30.2369  -16.9089   21.7676 C   0  0  2  0  0  0  0  0  0  0  0  0
  -23.7630  -19.2280   20.5766 C   0  0  0  0  0  0  0  0  0  0  0  0
  -25.1414  -20.4400   22.8388 C   0  0  0  0  0  0  0  0  0  0  0  0
  -29.0126  -22.4487   18.5379 C   0  0  0  0  0  0  0  0  0  0  0  0
  -29.5427  -27.6767   20.1906 C   0  0  0  0  0  0  0  0  0  0  0  0
  -30.2302  -19.7240   19.5356 C   0  0  0  0  0  0  0  0  0  0  0  0
  -23.6791  -31.3662   20.5449 C   0  0  0  0  0  0  0  0  0  0  0  0
  -26.1162  -31.3370   19.9722 C   0  0  0  0  0  0  0  0  0  0  0  0
  -25.3963  -31.2366   22.3585 C   0  0  0  0  0  0  0  0  0  0  0  0
  -23.5612  -24.6579   15.1309 C   0  0  0  0  0  0  0  0  0  0  0  0
  -21.7389  -23.1216   14.3510 C   0  0  0  0  0  0  0  0  0  0  0  0
  -27.1915  -25.3273   22.0422 C   0  0  0  0  0  0  0  0  0  0  0  0
  -25.2934  -18.7159   18.1219 C   0  0  0  0  0  0  0  0  0  0  0  0
  -29.5254  -22.1239   19.9372 C   0  0  0  0  0  0  0  0  0  0  0  0
  -24.9861  -19.7117   16.9978 C   0  0  0  0  0  0  0  0  0  0  0  0
  -23.9705  -20.7830   17.4073 C   0  0  0  0  0  0  0  0  0  0  0  0
  -23.7172  -21.7725   16.2657 C   0  0  0  0  0  0  0  0  0  0  0  0
  -22.6697  -22.8205   16.6647 C   0  0  0  0  0  0  0  0  0  0  0  0
  -25.0658  -29.2140   20.8780 C   0  0  1  0  0  0  0  0  0  0  0  0
  -28.3387  -27.3086   21.0435 C   0  0  2  0  0  0  0  0  0  0  0  0
  -29.2951  -20.6375   20.3878 C   0  0  1  0  0  0  0  0  0  0  0  0
  -25.0471  -30.7678   20.9292 C   0  0  0  0  0  0  0  0  0  0  0  0
  -22.3379  -23.8455   15.5615 C   0  0  0  0  0  0  0  0  0  1  0  0
  -28.3279  -15.3996   21.3670 N   0  0  0  0  0  0  0  0  0  0  0  0
  -27.1775  -20.5037   21.5528 N   0  0  0  0  0  0  0  0  0  0  0  0
  -29.6368  -15.6433   21.1836 N   0  0  0  0  0  0  0  0  0  0  0  0
  -23.0608  -27.7895   21.1518 N   0  0  0  0  0  0  0  0  0  0  0  0
  -29.8256  -19.2719   22.3780 N   0  0  0  0  0  0  0  0  0  0  0  0
  -31.5999  -14.7674   20.1889 N   0  0  0  0  0  0  0  0  0  0  0  0
  -28.4574  -11.6837   19.1832 N   0  0  0  0  0  0  0  0  0  0  0  0
  -19.6466  -28.0369   22.4080 N   0  0  0  0  0  0  0  0  0  0  0  0
  -26.3408  -28.6188   21.2633 N   0  0  0  0  0  0  0  0  0  0  0  0
  -28.3123  -25.8273   21.2051 N   0  3  0  0  0  0  0  0  0  0  0  0
  -30.6759  -12.2214   18.9639 O   0  0  0  0  0  0  0  0  0  0  0  0
  -20.9595  -29.2225   20.8937 O   0  0  0  0  0  0  0  0  0  0  0  0
  -24.0632  -28.8149   22.9903 O   0  0  0  0  0  0  0  0  0  0  0  0
  -30.3526  -21.5341   22.3086 O   0  0  0  0  0  0  0  0  0  0  0  0
  -26.6982  -27.4756   19.2777 O   0  0  0  0  0  0  0  0  0  0  0  0
  -23.0791  -11.8717   20.6233 O   0  0  0  0  0  0  0  0  0  0  0  0
  -21.3520  -24.7455   16.0659 O   0  0  0  0  0  0  0  0  0  1  0  0
  -22.7490   -6.4656   21.6574 F   0  0  0  0  0  0  0  0  0  0  0  0
  -24.4006  -10.0396   19.0297 F   0  0  0  0  0  0  0  0  0  0  0  0
  1  2  1  0  0  0  0
  1  5  2  0  0  0  0
  2  6  2  0  0  0  0
  3  8  2  0  0  0  0
  3 16  1  0  0  0  0
  4  9  1  0  0  0  0
  4 16  2  0  0  0  0
  5 18  1  0  0  0  0
  6 20  1  0  0  0  0
  7 10  2  0  0  0  0
  7 19  1  0  0  0  0
  8 24  1  0  0  0  0
  9 24  2  0  0  0  0
 10 25  1  0  0  0  0
 11 12  2  0  0  0  0
 11 26  1  0  0  0  0
 12 27  1  0  0  0  0
 13 21  1  0  0  0  0
 13 25  2  0  0  0  0
 14 22  2  0  0  0  0
 14 30  1  0  0  0  0
 15 27  2  0  0  0  0
 15 28  1  0  0  0  0
 16 29  1  0  0  0  0
 17 29  1  0  0  0  0
 17 32  2  0  0  0  0
 17 33  1  0  0  0  0
 18 20  2  0  0  0  0
 18 38  1  0  0  0  0
 19 21  2  0  0  0  0
 19 39  1  0  0  0  0
 20 47  1  0  0  0  0
 21 40  1  0  0  0  0
 22 23  1  0  0  0  0
 22 61  1  0  0  0  0
 23 31  2  0  0  0  0
 23 50  1  0  0  0  0
 24 87  1  0  0  0  0
 25 88  1  0  0  0  0
 26 28  2  0  0  0  0
 26 87  1  0  0  0  0
 27 89  1  0  0  0  0
 28 90  1  0  0  0  0
 29 72  2  0  0  0  0
 30 69  1  0  0  0  0
 30 73  2  0  0  0  0
 31 51  1  0  0  0  0
 31 73  1  0  0  0  0
 32 74  1  0  0  0  0
 32 77  1  0  0  0  0
 33 78  1  0  0  0  0
 33 82  2  0  0  0  0
 34 48  1  0  0  0  0
 34 79  1  0  0  0  0
 34 83  2  0  0  0  0
 35 67  1  0  0  0  0
 35 75  1  0  0  0  0
 35 84  2  0  0  0  0
 36 69  1  0  0  0  0
 36 76  1  0  0  0  0
 36 85  2  0  0  0  0
 37 68  1  0  0  0  0
 37 80  1  0  0  0  0
 37 86  2  0  0  0  0
 38 41  1  0  0  0  0
 39 48  1  0  0  0  0
 40 75  1  0  0  0  0
 41 43  1  0  0  0  0
 42 44  1  0  0  0  0
 42 45  1  0  0  0  0
 43 47  1  0  0  0  0
 44 49  1  0  0  0  0
 45 76  1  0  0  0  0
 46 49  1  0  0  0  0
 46 76  1  0  0  0  0
 47 79  1  0  0  0  0
 48 75  1  0  0  0  0
 49 74  1  0  0  0  0
 52 62  1  0  0  0  0
 53 68  1  0  0  0  0
 54 69  1  0  0  0  0
 55 70  1  0  0  0  0
 56 70  1  0  0  0  0
 57 70  1  0  0  0  0
 58 71  1  0  0  0  0
 59 71  1  0  0  0  0
 60 81  1  0  0  0  0
 61 63  1  0  0  0  0
 62 69  1  0  0  0  0
 63 64  1  0  0  0  0
 64 65  1  0  0  0  0
 65 66  1  0  0  0  0
 66 71  1  0  0  0  0
 67 70  1  0  0  0  0
 67 80  1  0  0  0  0
 68 81  1  0  0  0  0
 71 88  1  0  0  0  0
 72 74  1  0  0  0  0
M  CHG  1  81   1
M  ISO  4  36 100  69 100  71 101  88 101
M  END
> <Batch ID>
0077

> <Smiles>
CC[100C:0](C)(c1cc(CCCCC[101C:1](C)(C)[101O:1]c2ccc3c(c2)CN(C(=O)C(NC(=O)C(C)NC)C(C)(C)C)C(C(=O)NC2CCCc4ccccc42)C3)c(C)c(C)n1)[100C:0](=O)N1CCCC(n2nc(-c3ccc(Oc4ccc(F)cc4F)cc3)c(C(N)=O)c2N)C1

> <Shape>
0.304

> <Color>
0.075

> <Negative vol penalty>
0.000

$$$$

  -OEChem-04052318373D

 85 93  0     1  0  0  0  0  0999 V2000
  -25.9645  -18.1246   23.2380 C   0  0  0  0  0  0  0  0  0  0  0  0
  -26.4230  -19.4232   23.0474 C   0  0  0  0  0  0  0  0  0  0  0  0
  -26.3037  -13.1398   21.0764 C   0  0  0  0  0  0  0  0  0  0  0  0
  -26.5576  -13.1166   18.6739 C   0  0  0  0  0  0  0  0  0  0  0  0
  -24.6146  -17.8322   23.0551 C   0  0  0  0  0  0  0  0  0  0  0  0
  -25.5298  -20.4322   22.6855 C   0  0  0  0  0  0  0  0  0  0  0  0
  -27.2756  -25.0305   22.5804 C   0  0  0  0  0  0  0  0  0  0  0  0
  -25.0844  -12.4737   20.9540 C   0  0  0  0  0  0  0  0  0  0  0  0
  -25.3382  -12.4505   18.5515 C   0  0  0  0  0  0  0  0  0  0  0  0
  -28.1525  -25.4814   21.5948 C   0  0  0  0  0  0  0  0  0  0  0  0
  -24.0167   -9.3100   20.4213 C   0  0  0  0  0  0  0  0  0  0  0  0
  -23.7731   -8.2403   21.2826 C   0  0  0  0  0  0  0  0  0  0  0  0
  -26.3345  -26.6455   20.5183 C   0  0  0  0  0  0  0  0  0  0  0  0
  -21.8344   -9.3861   22.1575 C   0  0  0  0  0  0  0  0  0  0  0  0
  -29.0772  -23.4564   16.0039 C   0  0  0  0  0  0  0  0  0  0  0  0
  -27.0403  -13.4613   19.9363 C   0  0  0  0  0  0  0  0  0  0  0  0
  -29.5751  -13.5706   20.2022 C   0  0  0  0  0  0  0  0  0  0  0  0
  -23.7072  -18.8362   22.6787 C   0  0  0  0  0  0  0  0  0  0  0  0
  -25.9171  -25.3753   22.5363 C   0  0  0  0  0  0  0  0  0  0  0  0
  -24.1594  -20.1619   22.5195 C   0  0  0  0  0  0  0  0  0  0  0  0
  -25.4429  -26.1998   21.5060 C   0  0  0  0  0  0  0  0  0  0  0  0
  -24.6016  -12.1290   19.6916 C   0  0  0  0  0  0  0  0  0  0  0  0
  -27.6815  -26.2867   20.5620 C   0  0  0  0  0  0  0  0  0  0  0  0
  -23.1692  -10.4179   20.4281 C   0  0  0  0  0  0  0  0  0  0  0  0
  -22.6820   -8.2783   22.1507 C   0  0  0  0  0  0  0  0  0  0  0  0
  -22.0780  -10.4559   21.2962 C   0  0  0  0  0  0  0  0  0  0  0  0
  -28.2997  -14.1499   20.0620 C   0  0  0  0  0  0  0  0  0  0  0  0
  -28.4658  -24.3516   16.8578 C   0  0  0  0  0  0  0  0  0  0  0  0
  -28.6242  -22.1551   16.0791 C   0  0  0  0  0  0  0  0  0  0  0  0
  -30.4318  -14.6413   20.2815 C   0  0  0  0  0  0  0  0  0  0  0  0
  -27.1328  -22.7146   17.7008 C   0  0  0  0  0  0  0  0  0  0  0  0
  -29.9517  -12.1882   20.2558 C   0  0  0  0  0  0  0  0  0  0  0  0
  -23.1978  -23.7505   22.2732 C   0  0  0  0  0  0  0  0  0  0  0  0
  -21.8623  -26.6650   22.7675 C   0  0  0  0  0  0  0  0  0  0  0  0
  -22.1709  -30.0596   22.5985 C   0  0  0  0  0  0  0  0  0  0  0  0
  -30.0881  -20.2915   18.3300 C   0  0  0  0  0  0  0  0  0  0  0  0
  -22.2557  -18.4659   22.5020 C   0  0  0  0  0  0  0  0  0  0  0  0
  -24.9893  -24.9028   23.6218 C   0  0  0  0  0  0  0  0  0  0  0  0
  -23.9975  -26.6152   21.4244 C   0  0  0  0  0  0  0  0  0  0  0  0
  -21.4738  -19.4956   21.6929 C   0  0  0  0  0  0  0  0  0  0  0  0
  -30.5923  -19.2123   21.6853 C   0  0  0  0  0  0  0  0  0  0  0  0
  -21.7319  -20.8915   22.2401 C   0  0  0  0  0  0  0  0  0  0  0  0
  -30.1770  -17.7402   21.6624 C   0  0  0  0  0  0  0  0  0  0  0  0
  -29.7144  -20.0607   20.7680 C   0  0  0  0  0  0  0  0  0  0  0  0
  -29.2090  -18.1063   19.3542 C   0  0  0  0  0  0  0  0  0  0  0  0
  -23.2116  -21.2695   22.0960 C   0  0  1  0  0  0  0  0  0  0  0  0
  -23.5251  -24.8921   23.1937 C   0  0  1  0  0  0  0  0  0  0  0  0
  -30.1011  -17.2014   20.2212 C   0  0  2  0  0  0  0  0  0  0  0  0
  -26.0505  -22.3027   18.6403 C   0  0  0  0  0  0  0  0  0  0  0  0
  -20.8980  -32.1775   23.0362 C   0  0  0  0  0  0  0  0  0  0  0  0
  -29.7503  -21.6325   13.8086 C   0  0  0  0  0  0  0  0  0  0  0  0
  -28.1618  -20.0259   14.8339 C   0  0  0  0  0  0  0  0  0  0  0  0
  -20.2484  -26.2194   20.2167 C   0  0  0  0  0  0  0  0  0  0  0  0
  -19.7445  -28.6717   20.1902 C   0  0  0  0  0  0  0  0  0  0  0  0
  -18.9658  -27.2607   22.0942 C   0  0  0  0  0  0  0  0  0  0  0  0
  -24.1437  -30.9666   24.6095 C   0  0  0  0  0  0  0  0  0  0  0  0
  -28.8928  -25.7977   16.8482 C   0  0  0  0  0  0  0  0  0  0  0  0
  -30.0286  -26.1110   17.8246 C   0  0  0  0  0  0  0  0  0  0  0  0
  -30.4249  -20.3643   15.8723 C   0  0  0  0  0  0  0  0  0  0  0  0
  -29.6479  -25.8913   19.2842 C   0  0  0  0  0  0  0  0  0  1  0  0
  -21.4254  -27.8052   21.8799 C   0  0  1  0  0  0  0  0  0  0  0  0
  -21.8629  -31.1505   23.6082 C   0  0  2  0  0  0  0  0  0  0  0  0
  -29.2243  -21.1156   15.1927 C   0  0  0  0  0  0  0  0  0  0  0  0
  -20.1229  -27.4800   21.0954 C   0  0  0  0  0  0  0  0  0  0  0  0
  -28.3381  -15.4850   20.0527 N   0  0  0  0  0  0  0  0  0  0  0  0
  -27.4867  -24.0138   17.7224 N   0  0  0  0  0  0  0  0  0  0  0  0
  -27.6502  -21.7477   16.9192 N   0  0  0  0  0  0  0  0  0  0  0  0
  -29.6479  -15.7535   20.1880 N   0  0  0  0  0  0  0  0  0  0  0  0
  -23.1284  -26.1224   22.5058 N   0  0  0  0  0  0  0  0  0  0  0  0
  -29.6863  -19.4967   19.4163 N   0  0  0  0  0  0  0  0  0  0  0  0
  -31.7715  -14.7304   20.4215 N   0  0  0  0  0  0  0  0  0  0  0  0
  -28.9455  -11.2174   20.1596 N   0  0  0  0  0  0  0  0  0  0  0  0
  -23.4553  -22.5035   22.8100 N   0  0  0  0  0  0  0  0  0  0  0  0
  -21.3269  -28.9786   22.7412 N   0  0  0  0  0  0  0  0  0  0  0  0
  -30.0371  -19.6778   17.0844 N   0  0  0  0  0  0  0  0  0  0  0  0
  -23.1143  -31.8536   24.0091 N   0  3  0  0  0  0  0  0  0  0  0  0
  -31.1435  -11.8249   20.4016 O   0  0  0  0  0  0  0  0  0  0  0  0
  -22.7439  -23.9837   21.1591 O   0  0  0  0  0  0  0  0  0  0  0  0
  -21.1111  -26.2750   23.6649 O   0  0  0  0  0  0  0  0  0  0  0  0
  -23.0678  -30.1582   21.7641 O   0  0  0  0  0  0  0  0  0  0  0  0
  -30.4694  -21.4595   18.4612 O   0  0  0  0  0  0  0  0  0  0  0  0
  -23.4119  -11.4788   19.5718 O   0  0  0  0  0  0  0  0  0  0  0  0
  -28.5352  -26.7276   19.5983 O   0  0  0  0  0  0  0  0  0  1  0  0
  -22.4473   -7.2502   22.9766 F   0  0  0  0  0  0  0  0  0  0  0  0
  -21.2596  -11.5170   21.3064 F   0  0  0  0  0  0  0  0  0  0  0  0
  1  2  1  0  0  0  0
  1  5  2  0  0  0  0
  2  6  2  0  0  0  0
  3  8  2  0  0  0  0
  3 16  1  0  0  0  0
  4  9  1  0  0  0  0
  4 16  2  0  0  0  0
  5 18  1  0  0  0  0
  6 20  1  0  0  0  0
  7 10  2  0  0  0  0
  7 19  1  0  0  0  0
  8 22  1  0  0  0  0
  9 22  2  0  0  0  0
 10 23  1  0  0  0  0
 11 12  2  0  0  0  0
 11 24  1  0  0  0  0
 12 25  1  0  0  0  0
 13 21  1  0  0  0  0
 13 23  2  0  0  0  0
 14 25  2  0  0  0  0
 14 26  1  0  0  0  0
 15 28  1  0  0  0  0
 15 29  2  0  0  0  0
 16 27  1  0  0  0  0
 17 27  1  0  0  0  0
 17 30  2  0  0  0  0
 17 32  1  0  0  0  0
 18 20  2  0  0  0  0
 18 37  1  0  0  0  0
 19 21  2  0  0  0  0
 19 38  1  0  0  0  0
 20 46  1  0  0  0  0
 21 39  1  0  0  0  0
 22 82  1  0  0  0  0
 23 83  1  0  0  0  0
 24 26  2  0  0  0  0
 24 82  1  0  0  0  0
 25 84  1  0  0  0  0
 26 85  1  0  0  0  0
 27 65  2  0  0  0  0
 28 57  1  0  0  0  0
 28 66  2  0  0  0  0
 29 63  1  0  0  0  0
 29 67  1  0  0  0  0
 30 68  1  0  0  0  0
 30 71  1  0  0  0  0
 31 49  1  0  0  0  0
 31 66  1  0  0  0  0
 31 67  2  0  0  0  0
 32 72  1  0  0  0  0
 32 77  2  0  0  0  0
 33 47  1  0  0  0  0
 33 73  1  0  0  0  0
 33 78  2  0  0  0  0
 34 61  1  0  0  0  0
 34 69  1  0  0  0  0
 34 79  2  0  0  0  0
 35 62  1  0  0  0  0
 35 74  1  0  0  0  0
 35 80  2  0  0  0  0
 36 70  1  0  0  0  0
 36 75  1  0  0  0  0
 36 81  2  0  0  0  0
 37 40  1  0  0  0  0
 38 47  1  0  0  0  0
 39 69  1  0  0  0  0
 40 42  1  0  0  0  0
 41 43  1  0  0  0  0
 41 44  1  0  0  0  0
 42 46  1  0  0  0  0
 43 48  1  0  0  0  0
 44 70  1  0  0  0  0
 45 48  1  0  0  0  0
 45 70  1  0  0  0  0
 46 73  1  0  0  0  0
 47 69  1  0  0  0  0
 48 68  1  0  0  0  0
 50 62  1  0  0  0  0
 51 63  1  0  0  0  0
 52 63  1  0  0  0  0
 53 64  1  0  0  0  0
 54 64  1  0  0  0  0
 55 64  1  0  0  0  0
 56 76  1  0  0  0  0
 57 58  1  0  0  0  0
 58 60  1  0  0  0  0
 59 63  1  0  0  0  0
 59 75  1  0  0  0  0
 60 83  1  0  0  0  0
 61 64  1  0  0  0  0
 61 74  1  0  0  0  0
 62 76  1  0  0  0  0
 65 68  1  0  0  0  0
M  CHG  1  76   1
M  ISO  4  36 100  60 101  75 100  83 101
M  END
> <Batch ID>
0077

> <Smiles>
CNC(C)C(=O)NC(C(=O)N1Cc2cc([101O:1][101CH2:1]CCc3cc(C(C)(C)C[100NH:0][100C:0](=O)N4CCCC(n5nc(-c6ccc(Oc7ccc(F)cc7F)cc6)c(C(N)=O)c5N)C4)nc(C)n3)ccc2CC1C(=O)NC1CCCc2ccccc21)C(C)(C)C

> <Shape>
0.234

> <Color>
0.071

> <Negative vol penalty>
0.000

$$$$

  -OEChem-04052318373D

 82 90  0     1  0  0  0  0  0999 V2000
  -18.6586  -26.2421   22.2212 C   0  0  0  0  0  0  0  0  0  0  0  0
  -18.3163  -24.9462   21.8485 C   0  0  0  0  0  0  0  0  0  0  0  0
  -27.5656  -26.2997   18.7788 C   0  0  0  0  0  0  0  0  0  0  0  0
  -29.0838  -26.0068   20.6352 C   0  0  0  0  0  0  0  0  0  0  0  0
  -19.9998  -26.5912   22.3731 C   0  0  0  0  0  0  0  0  0  0  0  0
  -19.3152  -23.9989   21.6264 C   0  0  0  0  0  0  0  0  0  0  0  0
  -20.5963  -16.9804   22.2711 C   0  0  0  0  0  0  0  0  0  0  0  0
  -27.2477  -27.5770   19.2403 C   0  0  0  0  0  0  0  0  0  0  0  0
  -28.7659  -27.2841   21.0967 C   0  0  0  0  0  0  0  0  0  0  0  0
  -21.0455  -15.8942   21.5213 C   0  0  0  0  0  0  0  0  0  0  0  0
  -25.2938  -28.9449   21.6352 C   0  0  0  0  0  0  0  0  0  0  0  0
  -23.9474  -29.3085   21.6576 C   0  0  0  0  0  0  0  0  0  0  0  0
  -23.3256  -16.5896   21.8910 C   0  0  0  0  0  0  0  0  0  0  0  0
  -27.3981  -13.4939   20.6430 C   0  0  0  0  0  0  0  0  0  0  0  0
  -24.4169  -31.1394   20.1527 C   0  0  0  0  0  0  0  0  0  0  0  0
  -26.9936  -11.8829   18.9550 C   0  0  0  0  0  0  0  0  0  0  0  0
  -28.4836  -25.5146   19.4762 C   0  0  0  0  0  0  0  0  0  0  0  0
  -29.8404  -23.8456   18.1045 C   0  0  0  0  0  0  0  0  0  0  0  0
  -21.0153  -25.6452   22.1622 C   0  0  0  0  0  0  0  0  0  0  0  0
  -21.5096  -17.8870   22.8282 C   0  0  0  0  0  0  0  0  0  0  0  0
  -20.6714  -24.3361   21.7743 C   0  0  0  0  0  0  0  0  0  0  0  0
  -22.8856  -17.6850   22.6496 C   0  0  0  0  0  0  0  0  0  0  0  0
  -26.6369  -12.4414   20.1659 C   0  0  0  0  0  0  0  0  0  0  0  0
  -27.8478  -28.0692   20.3992 C   0  0  0  0  0  0  0  0  0  0  0  0
  -22.4102  -15.7003   21.3287 C   0  0  0  0  0  0  0  0  0  0  0  0
  -26.2018  -29.6785   20.8716 C   0  0  0  0  0  0  0  0  0  0  0  0
  -23.5089  -30.4058   20.9163 C   0  0  0  0  0  0  0  0  0  0  0  0
  -25.7633  -30.7757   20.1303 C   0  0  0  0  0  0  0  0  0  0  0  0
  -28.8120  -24.1948   19.0003 C   0  0  0  0  0  0  0  0  0  0  0  0
  -28.4659  -13.9181   19.8778 C   0  0  0  0  0  0  0  0  0  0  0  0
  -29.7356  -22.4822   17.9761 C   0  0  0  0  0  0  0  0  0  0  0  0
  -30.8042  -24.6792   17.4473 C   0  0  0  0  0  0  0  0  0  0  0  0
  -22.0811  -20.9945   22.4807 C   0  0  0  0  0  0  0  0  0  0  0  0
  -24.1598  -20.4877   24.9188 C   0  0  0  0  0  0  0  0  0  0  0  0
  -26.1161  -18.2908   26.6489 C   0  0  0  0  0  0  0  0  0  0  0  0
  -29.1828  -17.5217   20.2200 C   0  0  0  0  0  0  0  0  0  0  0  0
  -22.4529  -26.0821   22.2926 C   0  0  0  0  0  0  0  0  0  0  0  0
  -21.0100  -19.0386   23.6569 C   0  0  0  0  0  0  0  0  0  0  0  0
  -23.9078  -18.6181   23.2437 C   0  0  0  0  0  0  0  0  0  0  0  0
  -23.4354  -24.9190   22.4032 C   0  0  0  0  0  0  0  0  0  0  0  0
  -26.1127  -19.2981   19.5017 C   0  0  0  0  0  0  0  0  0  0  0  0
  -23.1286  -23.8591   21.3499 C   0  0  0  0  0  0  0  0  0  0  0  0
  -26.6345  -20.7105   19.2319 C   0  0  0  0  0  0  0  0  0  0  0  0
  -26.8985  -18.6230   20.6219 C   0  0  0  0  0  0  0  0  0  0  0  0
  -28.8943  -19.9815   20.1272 C   0  0  0  0  0  0  0  0  0  0  0  0
  -21.7252  -23.2738   21.5486 C   0  0  1  0  0  0  0  0  0  0  0  0
  -22.0092  -20.1880   23.7464 C   0  0  1  0  0  0  0  0  0  0  0  0
  -28.1555  -20.7091   18.9893 C   0  0  2  0  0  0  0  0  0  0  0  0
  -30.0015  -14.7615   21.6922 C   0  0  0  0  0  0  0  0  0  0  0  0
  -27.7288  -18.1783   28.5683 C   0  0  0  0  0  0  0  0  0  0  0  0
  -26.3189  -21.7570   23.1760 C   0  0  0  0  0  0  0  0  0  0  0  0
  -28.0365  -20.7735   24.7093 C   0  0  0  0  0  0  0  0  0  0  0  0
  -26.3907  -22.4320   25.5830 C   0  0  0  0  0  0  0  0  0  0  0  0
  -24.3905  -16.4040   28.1392 C   0  0  0  0  0  0  0  0  0  0  0  0
  -25.4548  -11.9210   20.9439 C   0  0  0  0  0  0  0  0  0  0  0  0
  -24.1356  -12.6147   20.5973 C   0  0  0  0  0  0  0  0  0  0  0  0
  -24.1259  -14.0998   20.9407 C   0  0  0  0  0  0  0  0  0  1  0  0
  -29.3178  -15.0473   20.3467 C   0  0  2  0  0  0  0  0  0  0  0  0
  -25.6134  -20.0931   25.0199 C   0  0  1  0  0  0  0  0  0  0  0  0
  -26.2767  -18.0414   28.1376 C   0  0  2  0  0  0  0  0  0  0  0  0
  -26.5708  -21.2472   24.6091 C   0  0  0  0  0  0  0  0  0  0  0  0
  -28.0439  -12.3183   18.2272 N   0  0  0  0  0  0  0  0  0  0  0  0
  -28.1058  -23.1384   19.4118 N   0  0  0  0  0  0  0  0  0  0  0  0
  -28.7922  -13.3525   18.6964 N   0  0  0  0  0  0  0  0  0  0  0  0
  -28.6913  -22.1120   18.7716 N   0  0  0  0  0  0  0  0  0  0  0  0
  -23.3695  -19.7328   24.0406 N   0  0  0  0  0  0  0  0  0  0  0  0
  -28.3369  -18.6387   20.3207 N   0  0  0  0  0  0  0  0  0  0  0  0
  -30.4357  -21.5758   17.2615 N   0  0  0  0  0  0  0  0  0  0  0  0
  -30.7710  -26.0590   17.6912 N   0  0  0  0  0  0  0  0  0  0  0  0
  -21.7248  -22.3204   22.6373 N   0  0  0  0  0  0  0  0  0  0  0  0
  -25.8111  -19.6087   26.3818 N   0  0  0  0  0  0  0  0  0  0  0  0
  -28.5781  -16.2874   20.4237 N   0  0  0  0  0  0  0  0  0  0  0  0
  -25.8104  -16.6696   28.4863 N   0  3  0  0  0  0  0  0  0  0  0  0
  -31.6587  -24.2163   16.6542 O   0  0  0  0  0  0  0  0  0  0  0  0
  -22.4351  -20.4542   21.4393 O   0  0  0  0  0  0  0  0  0  0  0  0
  -23.7393  -21.4266   25.5996 O   0  0  0  0  0  0  0  0  0  0  0  0
  -26.2517  -17.4059   25.8068 O   0  0  0  0  0  0  0  0  0  0  0  0
  -30.3876  -17.6168   19.9621 O   0  0  0  0  0  0  0  0  0  0  0  0
  -27.5380  -29.3157   20.8498 O   0  0  0  0  0  0  0  0  0  0  0  0
  -22.8512  -14.6412   20.5967 O   0  0  0  0  0  0  0  0  0  1  0  0
  -22.2156  -30.7540   20.9367 F   0  0  0  0  0  0  0  0  0  0  0  0
  -26.6307  -31.4836   19.3939 F   0  0  0  0  0  0  0  0  0  0  0  0
  1  2  1  0  0  0  0
  1  5  2  0  0  0  0
  2  6  2  0  0  0  0
  3  8  2  0  0  0  0
  3 17  1  0  0  0  0
  4  9  1  0  0  0  0
  4 17  2  0  0  0  0
  5 19  1  0  0  0  0
  6 21  1  0  0  0  0
  7 10  2  0  0  0  0
  7 20  1  0  0  0  0
  8 24  1  0  0  0  0
  9 24  2  0  0  0  0
 10 25  1  0  0  0  0
 11 12  2  0  0  0  0
 11 26  1  0  0  0  0
 12 27  1  0  0  0  0
 13 22  1  0  0  0  0
 13 25  2  0  0  0  0
 14 23  2  0  0  0  0
 14 30  1  0  0  0  0
 15 27  2  0  0  0  0
 15 28  1  0  0  0  0
 16 23  1  0  0  0  0
 16 62  2  0  0  0  0
 17 29  1  0  0  0  0
 18 29  1  0  0  0  0
 18 31  2  0  0  0  0
 18 32  1  0  0  0  0
 19 21  2  0  0  0  0
 19 37  1  0  0  0  0
 20 22  2  0  0  0  0
 20 38  1  0  0  0  0
 21 46  1  0  0  0  0
 22 39  1  0  0  0  0
 23 55  1  0  0  0  0
 24 79  1  0  0  0  0
 25 80  1  0  0  0  0
 26 28  2  0  0  0  0
 26 79  1  0  0  0  0
 27 81  1  0  0  0  0
 28 82  1  0  0  0  0
 29 63  2  0  0  0  0
 30 58  1  0  0  0  0
 30 64  2  0  0  0  0
 31 65  1  0  0  0  0
 31 68  1  0  0  0  0
 32 69  1  0  0  0  0
 32 74  2  0  0  0  0
 33 47  1  0  0  0  0
 33 70  1  0  0  0  0
 33 75  2  0  0  0  0
 34 59  1  0  0  0  0
 34 66  1  0  0  0  0
 34 76  2  0  0  0  0
 35 60  1  0  0  0  0
 35 71  1  0  0  0  0
 35 77  2  0  0  0  0
 36 67  1  0  0  0  0
 36 72  1  0  0  0  0
 36 78  2  0  0  0  0
 37 40  1  0  0  0  0
 38 47  1  0  0  0  0
 39 66  1  0  0  0  0
 40 42  1  0  0  0  0
 41 43  1  0  0  0  0
 41 44  1  0  0  0  0
 42 46  1  0  0  0  0
 43 48  1  0  0  0  0
 44 67  1  0  0  0  0
 45 48  1  0  0  0  0
 45 67  1  0  0  0  0
 46 70  1  0  0  0  0
 47 66  1  0  0  0  0
 48 65  1  0  0  0  0
 49 58  1  0  0  0  0
 50 60  1  0  0  0  0
 51 61  1  0  0  0  0
 52 61  1  0  0  0  0
 53 61  1  0  0  0  0
 54 73  1  0  0  0  0
 55 56  1  0  0  0  0
 56 57  1  0  0  0  0
 57 80  1  0  0  0  0
 58 72  1  0  0  0  0
 59 61  1  0  0  0  0
 59 71  1  0  0  0  0
 60 73  1  0  0  0  0
 62 64  1  0  0  0  0
 63 65  1  0  0  0  0
M  CHG  1  73   1
M  ISO  4  36 100  57 101  72 100  80 101
M  END
> <Batch ID>
0077

> <Smiles>
CNC(C)C(=O)NC(C(=O)N1Cc2cc([101O:1][101CH2:1]CCc3cnnc(C(C)[100NH:0][100C:0](=O)N4CCCC(n5nc(-c6ccc(Oc7ccc(F)cc7F)cc6)c(C(N)=O)c5N)C4)c3)ccc2CC1C(=O)NC1CCCc2ccccc21)C(C)(C)C

> <Shape>
0.235

> <Color>
0.062

> <Negative vol penalty>
0.000

$$$$

  -OEChem-04052318373D

 84 92  0     1  0  0  0  0  0999 V2000
  -24.7239  -27.2028   28.6258 C   0  0  0  0  0  0  0  0  0  0  0  0
  -25.3817  -26.3067   27.7894 C   0  0  0  0  0  0  0  0  0  0  0  0
  -23.1469   -9.7449   20.1144 C   0  0  0  0  0  0  0  0  0  0  0  0
  -23.8799   -9.9869   22.4038 C   0  0  0  0  0  0  0  0  0  0  0  0
  -23.8662  -28.1593   28.0841 C   0  0  0  0  0  0  0  0  0  0  0  0
  -25.1813  -26.3658   26.4107 C   0  0  0  0  0  0  0  0  0  0  0  0
  -29.3064  -25.1974   22.0376 C   0  0  0  0  0  0  0  0  0  0  0  0
  -22.4430   -8.5918   20.4617 C   0  0  0  0  0  0  0  0  0  0  0  0
  -23.1760   -8.8338   22.7511 C   0  0  0  0  0  0  0  0  0  0  0  0
  -29.5530  -24.0678   21.2584 C   0  0  0  0  0  0  0  0  0  0  0  0
  -19.9726   -7.9730   23.3975 C   0  0  0  0  0  0  0  0  0  0  0  0
  -19.2044   -8.0103   24.5611 C   0  0  0  0  0  0  0  0  0  0  0  0
  -28.2092  -25.0037   19.4871 C   0  0  0  0  0  0  0  0  0  0  0  0
  -20.5076   -6.1950   25.4796 C   0  0  0  0  0  0  0  0  0  0  0  0
  -27.0013  -19.0460   21.0496 C   0  0  0  0  0  0  0  0  0  0  0  0
  -23.8654  -10.4424   21.0855 C   0  0  0  0  0  0  0  0  0  0  0  0
  -24.1158  -12.9575   20.7403 C   0  0  0  0  0  0  0  0  0  0  0  0
  -23.6627  -28.2364   26.6973 C   0  0  0  0  0  0  0  0  0  0  0  0
  -28.4990  -26.2354   21.5507 C   0  0  0  0  0  0  0  0  0  0  0  0
  -24.3191  -27.3234   25.8500 C   0  0  0  0  0  0  0  0  0  0  0  0
  -27.9560  -26.1465   20.2611 C   0  0  0  0  0  0  0  0  0  0  0  0
  -22.4575   -8.1363   21.7800 C   0  0  0  0  0  0  0  0  0  0  0  0
  -29.0020  -23.9695   19.9841 C   0  0  0  0  0  0  0  0  0  0  0  0
  -21.0083   -7.0466   23.2748 C   0  0  0  0  0  0  0  0  0  0  0  0
  -19.4719   -7.1213   25.6022 C   0  0  0  0  0  0  0  0  0  0  0  0
  -21.2758   -6.1577   24.3159 C   0  0  0  0  0  0  0  0  0  0  0  0
  -24.5932  -11.6332   20.7273 C   0  0  0  0  0  0  0  0  0  0  0  0
  -26.6873  -18.7776   22.3520 C   0  0  0  0  0  0  0  0  0  0  0  0
  -25.1838  -13.7117   20.3195 C   0  0  0  0  0  0  0  0  0  0  0  0
  -28.8788  -18.5672   22.1202 C   0  0  0  0  0  0  0  0  0  0  0  0
  -22.8226  -13.4609   21.1008 C   0  0  0  0  0  0  0  0  0  0  0  0
  -25.7455  -27.5451   22.4487 C   0  0  0  0  0  0  0  0  0  0  0  0
  -30.6462  -14.8920   20.5615 C   0  0  0  0  0  0  0  0  0  0  0  0
  -26.4125  -29.6404   20.0639 C   0  0  0  0  0  0  0  0  0  0  0  0
  -28.0515  -30.2741   17.1383 C   0  0  0  0  0  0  0  0  0  0  0  0
  -22.6896  -29.2568   26.1621 C   0  0  0  0  0  0  0  0  0  0  0  0
  -28.2645  -27.4592   22.3933 C   0  0  0  0  0  0  0  0  0  0  0  0
  -27.0990  -27.2425   19.6841 C   0  0  0  0  0  0  0  0  0  0  0  0
  -22.8213  -29.4949   24.6600 C   0  0  0  0  0  0  0  0  0  0  0  0
  -29.5946  -12.3383   18.2784 C   0  0  0  0  0  0  0  0  0  0  0  0
  -22.9088  -28.1668   23.9147 C   0  0  0  0  0  0  0  0  0  0  0  0
  -28.1717  -12.0148   18.7321 C   0  0  0  0  0  0  0  0  0  0  0  0
  -30.4934  -12.6825   19.4619 C   0  0  0  0  0  0  0  0  0  0  0  0
  -28.5487  -13.4684   20.7742 C   0  0  0  0  0  0  0  0  0  0  0  0
  -24.1467  -27.3719   24.3474 C   0  0  1  0  0  0  0  0  0  0  0  0
  -27.0065  -28.2256   21.9966 C   0  0  1  0  0  0  0  0  0  0  0  0
  -27.6000  -13.1449   19.6064 C   0  0  2  0  0  0  0  0  0  0  0  0
  -25.4022  -18.7675   23.0556 C   0  0  0  0  0  0  0  0  0  0  0  0
  -28.3723  -32.0627   15.4076 C   0  0  0  0  0  0  0  0  0  0  0  0
  -30.4750  -17.9440   23.9463 C   0  0  0  0  0  0  0  0  0  0  0  0
  -31.2708  -19.5453   22.2297 C   0  0  0  0  0  0  0  0  0  0  0  0
  -23.6493  -29.0290   18.9234 C   0  0  0  0  0  0  0  0  0  0  0  0
  -24.3864  -30.0663   16.7672 C   0  0  0  0  0  0  0  0  0  0  0  0
  -24.2992  -31.4427   18.8458 C   0  0  0  0  0  0  0  0  0  0  0  0
  -30.9622  -30.4142   17.6550 C   0  0  0  0  0  0  0  0  0  0  0  0
  -29.9715  -15.9428   21.4068 C   0  0  0  0  0  0  0  0  0  0  0  0
  -30.9272  -17.1205   21.6109 C   0  0  0  0  0  0  0  0  0  0  0  0
  -28.9542  -20.4932   19.0336 C   0  0  0  0  0  0  0  0  0  0  0  0
  -29.1517  -19.1135   19.6655 C   0  0  0  0  0  0  0  0  0  0  0  0
  -29.4543  -21.6359   19.9096 C   0  0  0  0  0  0  0  0  0  1  0  0
  -26.1178  -29.7058   18.5848 C   0  0  1  0  0  0  0  0  0  0  0  0
  -28.9024  -31.4504   16.6948 C   0  0  2  0  0  0  0  0  0  0  0  0
  -30.3084  -18.3207   22.4338 C   0  0  0  0  0  0  0  0  0  0  0  0
  -24.6277  -30.0393   18.2916 C   0  0  0  0  0  0  0  0  0  0  0  0
  -25.8654  -11.5477   20.3295 N   0  0  0  0  0  0  0  0  0  0  0  0
  -28.3637  -18.9088   20.9346 N   0  0  0  0  0  0  0  0  0  0  0  0
  -26.1964  -12.8277   20.0886 N   0  0  0  0  0  0  0  0  0  0  0  0
  -27.8678  -18.4842   22.9911 N   0  3  0  0  0  0  0  0  0  0  0  0
  -26.8935  -28.4160   20.5491 N   0  0  0  0  0  0  0  0  0  0  0  0
  -29.9048  -13.7443   20.2801 N   0  0  0  0  0  0  0  0  0  0  0  0
  -25.3461  -15.0381   20.1281 N   0  0  0  0  0  0  0  0  0  0  0  0
  -21.8409  -12.5485   21.5108 N   0  0  0  0  0  0  0  0  0  0  0  0
  -25.3356  -27.9058   23.7181 N   0  0  0  0  0  0  0  0  0  0  0  0
  -27.0658  -30.6610   18.0215 N   0  0  0  0  0  0  0  0  0  0  0  0
  -30.3086  -31.0145   16.4636 N   0  3  0  0  0  0  0  0  0  0  0  0
  -22.5407  -14.6820   21.0447 O   0  0  0  0  0  0  0  0  0  0  0  0
  -25.1850  -26.7527   21.7007 O   0  0  0  0  0  0  0  0  0  0  0  0
  -31.7967  -15.0885   20.1617 O   0  0  0  0  0  0  0  0  0  0  0  0
  -26.2297  -30.6410   20.7618 O   0  0  0  0  0  0  0  0  0  0  0  0
  -28.2399  -29.1274   16.7382 O   0  0  0  0  0  0  0  0  0  0  0  0
  -21.7706   -7.0113   22.1193 O   0  0  0  0  0  0  0  0  0  0  0  0
  -29.2406  -22.8678   19.2218 O   0  0  0  0  0  0  0  0  0  1  0  0
  -18.7351   -7.1583   26.7202 F   0  0  0  0  0  0  0  0  0  0  0  0
  -22.2702   -5.2663   24.2044 F   0  0  0  0  0  0  0  0  0  0  0  0
  1  2  1  0  0  0  0
  1  5  2  0  0  0  0
  2  6  2  0  0  0  0
  3  8  2  0  0  0  0
  3 16  1  0  0  0  0
  4  9  1  0  0  0  0
  4 16  2  0  0  0  0
  5 18  1  0  0  0  0
  6 20  1  0  0  0  0
  7 10  2  0  0  0  0
  7 19  1  0  0  0  0
  8 22  1  0  0  0  0
  9 22  2  0  0  0  0
 10 23  1  0  0  0  0
 11 12  2  0  0  0  0
 11 24  1  0  0  0  0
 12 25  1  0  0  0  0
 13 21  1  0  0  0  0
 13 23  2  0  0  0  0
 14 25  2  0  0  0  0
 14 26  1  0  0  0  0
 15 28  2  0  0  0  0
 15 66  1  0  0  0  0
 16 27  1  0  0  0  0
 17 27  1  0  0  0  0
 17 29  2  0  0  0  0
 17 31  1  0  0  0  0
 18 20  2  0  0  0  0
 18 36  1  0  0  0  0
 19 21  2  0  0  0  0
 19 37  1  0  0  0  0
 20 45  1  0  0  0  0
 21 38  1  0  0  0  0
 22 81  1  0  0  0  0
 23 82  1  0  0  0  0
 24 26  2  0  0  0  0
 24 81  1  0  0  0  0
 25 83  1  0  0  0  0
 26 84  1  0  0  0  0
 27 65  2  0  0  0  0
 28 48  1  0  0  0  0
 28 68  1  0  0  0  0
 29 67  1  0  0  0  0
 29 71  1  0  0  0  0
 30 63  1  0  0  0  0
 30 66  1  0  0  0  0
 30 68  2  0  0  0  0
 31 72  1  0  0  0  0
 31 76  2  0  0  0  0
 32 46  1  0  0  0  0
 32 73  1  0  0  0  0
 32 77  2  0  0  0  0
 33 56  1  0  0  0  0
 33 70  1  0  0  0  0
 33 78  2  0  0  0  0
 34 61  1  0  0  0  0
 34 69  1  0  0  0  0
 34 79  2  0  0  0  0
 35 62  1  0  0  0  0
 35 74  1  0  0  0  0
 35 80  2  0  0  0  0
 36 39  1  0  0  0  0
 37 46  1  0  0  0  0
 38 69  1  0  0  0  0
 39 41  1  0  0  0  0
 40 42  1  0  0  0  0
 40 43  1  0  0  0  0
 41 45  1  0  0  0  0
 42 47  1  0  0  0  0
 43 70  1  0  0  0  0
 44 47  1  0  0  0  0
 44 70  1  0  0  0  0
 45 73  1  0  0  0  0
 46 69  1  0  0  0  0
 47 67  1  0  0  0  0
 49 62  1  0  0  0  0
 50 63  1  0  0  0  0
 51 63  1  0  0  0  0
 52 64  1  0  0  0  0
 53 64  1  0  0  0  0
 54 64  1  0  0  0  0
 55 75  1  0  0  0  0
 56 57  1  0  0  0  0
 57 63  1  0  0  0  0
 58 59  1  0  0  0  0
 58 60  1  0  0  0  0
 59 66  1  0  0  0  0
 60 82  1  0  0  0  0
 61 64  1  0  0  0  0
 61 74  1  0  0  0  0
 62 75  1  0  0  0  0
 65 67  1  0  0  0  0
M  CHG  2  68   1  75   1
M  ISO  4  33 100  56 100  60 101  82 101
M  END
> <Batch ID>
0077

> <Smiles>
CNC(C)C(=O)NC(C(=O)N1Cc2cc([101O:1][101CH2:1]CCn3cc(C)nc3C(C)(C)C[100CH2:0][100C:0](=O)N3CCCC(n4nc(-c5ccc(Oc6ccc(F)cc6F)cc5)c(C(N)=O)c4N)C3)ccc2CC1C(=O)NC1CCCc2ccccc21)C(C)(C)C

> <Shape>
0.279

> <Color>
0.201

> <Negative vol penalty>
0.000

$$$$

  -OEChem-04052318373D

 88 96  0     1  0  0  0  0  0999 V2000
  -27.0425  -35.0303   24.3827 C   0  0  0  0  0  0  0  0  0  0  0  0
  -27.3852  -33.7315   24.0205 C   0  0  0  0  0  0  0  0  0  0  0  0
  -27.5539  -11.9331   18.7812 C   0  0  0  0  0  0  0  0  0  0  0  0
  -28.6930  -12.9283   20.6650 C   0  0  0  0  0  0  0  0  0  0  0  0
  -25.7307  -35.3273   24.7500 C   0  0  0  0  0  0  0  0  0  0  0  0
  -26.4163  -32.7287   24.0264 C   0  0  0  0  0  0  0  0  0  0  0  0
  -26.6157  -29.8107   19.8923 C   0  0  0  0  0  0  0  0  0  0  0  0
  -28.7621  -11.4004   18.3319 C   0  0  0  0  0  0  0  0  0  0  0  0
  -29.9013  -12.3955   20.2158 C   0  0  0  0  0  0  0  0  0  0  0  0
  -27.6127  -28.8372   19.8475 C   0  0  0  0  0  0  0  0  0  0  0  0
  -32.2188  -13.1142   17.8613 C   0  0  0  0  0  0  0  0  0  0  0  0
  -33.3359  -13.9495   17.8631 C   0  0  0  0  0  0  0  0  0  0  0  0
  -26.0007  -27.1649   20.4988 C   0  0  0  0  0  0  0  0  0  0  0  0
  -34.4646  -12.4369   19.3714 C   0  0  0  0  0  0  0  0  0  0  0  0
  -28.8704  -22.1892   21.1070 C   0  0  0  0  0  0  0  0  0  0  0  0
  -27.5193  -12.6971   19.9477 C   0  0  0  0  0  0  0  0  0  0  0  0
  -25.3496  -12.6451   21.2884 C   0  0  0  0  0  0  0  0  0  0  0  0
  -24.7431  -34.3296   24.7510 C   0  0  0  0  0  0  0  0  0  0  0  0
  -25.3038  -29.4699   20.2518 C   0  0  0  0  0  0  0  0  0  0  0  0
  -25.0903  -33.0123   24.3952 C   0  0  0  0  0  0  0  0  0  0  0  0
  -24.9883  -28.1355   20.5449 C   0  0  0  0  0  0  0  0  0  0  0  0
  -29.9359  -11.6315   19.0492 C   0  0  0  0  0  0  0  0  0  0  0  0
  -27.3060  -27.5146   20.1537 C   0  0  0  0  0  0  0  0  0  0  0  0
  -32.2246  -11.9403   18.6147 C   0  0  0  0  0  0  0  0  0  0  0  0
  -34.4588  -13.6109   18.6181 C   0  0  0  0  0  0  0  0  0  0  0  0
  -33.3475  -11.6016   19.3697 C   0  0  0  0  0  0  0  0  0  0  0  0
  -26.2716  -13.2482   20.4120 C   0  0  0  0  0  0  0  0  0  0  0  0
  -28.4058  -22.1744   19.8222 C   0  0  0  0  0  0  0  0  0  0  0  0
  -24.3398  -13.5678   21.4126 C   0  0  0  0  0  0  0  0  0  0  0  0
  -27.4855  -20.4746   20.9011 C   0  0  0  0  0  0  0  0  0  0  0  0
  -25.4014  -11.3652   21.9326 C   0  0  0  0  0  0  0  0  0  0  0  0
  -23.3415  -30.2874   22.6150 C   0  0  0  0  0  0  0  0  0  0  0  0
  -21.2029  -28.5283   20.9255 C   0  0  0  0  0  0  0  0  0  0  0  0
  -24.2427  -19.5322   20.6862 C   0  0  0  0  0  0  0  0  0  0  0  0
  -20.6476  -26.0425   18.6540 C   0  0  0  0  0  0  0  0  0  0  0  0
  -23.3491  -34.6885   25.2010 C   0  0  0  0  0  0  0  0  0  0  0  0
  -24.2340  -30.5271   20.2694 C   0  0  0  0  0  0  0  0  0  0  0  0
  -23.5910  -27.7143   20.9170 C   0  0  0  0  0  0  0  0  0  0  0  0
  -22.2992  -33.6479   24.8201 C   0  0  0  0  0  0  0  0  0  0  0  0
  -22.1790  -17.1076   19.0423 C   0  0  0  0  0  0  0  0  0  0  0  0
  -22.7930  -32.2441   25.1552 C   0  0  0  0  0  0  0  0  0  0  0  0
  -22.9254  -15.7925   19.2625 C   0  0  0  0  0  0  0  0  0  0  0  0
  -23.1449  -18.2745   18.8621 C   0  0  0  0  0  0  0  0  0  0  0  0
  -24.8729  -17.1158   20.2012 C   0  0  0  0  0  0  0  0  0  0  0  0
  -24.0621  -31.9024   24.3652 C   0  0  1  0  0  0  0  0  0  0  0  0
  -23.0430  -30.1574   21.1482 C   0  0  1  0  0  0  0  0  0  0  0  0
  -23.9339  -15.9161   20.4184 C   0  0  2  0  0  0  0  0  0  0  0  0
  -29.7068  -16.6775   17.4283 C   0  0  0  0  0  0  0  0  0  0  0  0
  -18.7932  -24.8050   17.5020 C   0  0  0  0  0  0  0  0  0  0  0  0
  -24.8038  -18.4455   22.8131 C   0  0  0  0  0  0  0  0  0  0  0  0
  -25.1382  -20.9106   22.4707 C   0  0  0  0  0  0  0  0  0  0  0  0
  -20.6740  -26.9469   23.4808 C   0  0  0  0  0  0  0  0  0  0  0  0
  -19.5810  -25.1829   22.0800 C   0  0  0  0  0  0  0  0  0  0  0  0
  -18.6291  -27.4877   22.1465 C   0  0  0  0  0  0  0  0  0  0  0  0
  -21.5560  -26.9343   15.9822 C   0  0  0  0  0  0  0  0  0  0  0  0
  -28.7017  -23.0946   18.6650 C   0  0  0  0  0  0  0  0  0  0  0  0
  -29.1110  -17.9809   16.9204 C   0  0  0  0  0  0  0  0  0  0  0  0
  -29.0311  -24.5283   19.0867 C   0  0  0  0  0  0  0  0  0  0  0  0
  -28.3221  -18.7000   18.0152 C   0  0  0  0  0  0  0  0  0  0  0  0
  -27.6938  -19.9929   17.4877 C   0  0  0  0  0  0  0  0  0  0  0  0
  -26.8279  -20.7070   18.5289 C   0  0  0  0  0  0  0  0  0  0  0  0
  -27.8719  -25.2352   19.7795 C   0  0  0  0  0  0  0  0  0  1  0  0
  -26.6795  -19.2717   21.2263 C   0  0  2  0  0  0  0  0  0  0  0  0
  -20.7925  -27.0756   20.9048 C   0  0  1  0  0  0  0  0  0  0  0  0
  -19.7559  -25.9799   17.4271 C   0  0  2  0  0  0  0  0  0  0  0  0
  -25.2434  -19.5258   21.8143 C   0  0  0  0  0  0  0  0  0  0  0  0
  -19.9460  -26.6812   22.1479 C   0  0  0  0  0  0  0  0  0  0  0  0
  -25.8819  -14.4602   20.0080 N   0  0  0  0  0  0  0  0  0  0  0  0
  -27.5513  -21.1029   19.7228 N   0  0  0  0  0  0  0  0  0  0  0  0
  -24.7040  -14.6261   20.6332 N   0  0  0  0  0  0  0  0  0  0  0  0
  -28.2844  -21.1267   21.7518 N   0  3  0  0  0  0  0  0  0  0  0  0
  -22.5812  -28.7856   20.9263 N   0  0  0  0  0  0  0  0  0  0  0  0
  -24.1004  -18.3442   19.9691 N   0  0  0  0  0  0  0  0  0  0  0  0
  -23.1848  -13.5689   22.1114 N   0  0  0  0  0  0  0  0  0  0  0  0
  -26.5108  -10.5423   21.6955 N   0  0  0  0  0  0  0  0  0  0  0  0
  -23.7297  -31.5565   22.9998 N   0  0  0  0  0  0  0  0  0  0  0  0
  -20.1175  -26.8603   19.6295 N   0  0  0  0  0  0  0  0  0  0  0  0
  -20.5805  -25.8341   16.1944 N   0  3  0  0  0  0  0  0  0  0  0  0
  -24.4830  -10.9565   22.6829 O   0  0  0  0  0  0  0  0  0  0  0  0
  -23.2265  -29.3091   23.3440 O   0  0  0  0  0  0  0  0  0  0  0  0
  -20.3327  -29.4025   20.9331 O   0  0  0  0  0  0  0  0  0  0  0  0
  -23.6053  -20.5625   20.4528 O   0  0  0  0  0  0  0  0  0  0  0  0
  -21.7065  -25.4246   18.7401 O   0  0  0  0  0  0  0  0  0  0  0  0
  -27.4235  -18.4313   22.1330 O   0  0  0  0  0  0  0  0  0  0  0  0
  -31.1150  -11.1117   18.6113 O   0  0  0  0  0  0  0  0  0  0  0  0
  -28.2774  -26.5625   20.1114 O   0  0  0  0  0  0  0  0  0  1  0  0
  -35.5320  -14.4123   18.6184 F   0  0  0  0  0  0  0  0  0  0  0  0
  -33.3593  -10.4745   20.0945 F   0  0  0  0  0  0  0  0  0  0  0  0
  1  2  1  0  0  0  0
  1  5  2  0  0  0  0
  2  6  2  0  0  0  0
  3  8  2  0  0  0  0
  3 16  1  0  0  0  0
  4  9  1  0  0  0  0
  4 16  2  0  0  0  0
  5 18  1  0  0  0  0
  6 20  1  0  0  0  0
  7 10  2  0  0  0  0
  7 19  1  0  0  0  0
  8 22  1  0  0  0  0
  9 22  2  0  0  0  0
 10 23  1  0  0  0  0
 11 12  2  0  0  0  0
 11 24  1  0  0  0  0
 12 25  1  0  0  0  0
 13 21  1  0  0  0  0
 13 23  2  0  0  0  0
 14 25  2  0  0  0  0
 14 26  1  0  0  0  0
 15 28  2  0  0  0  0
 15 71  1  0  0  0  0
 16 27  1  0  0  0  0
 17 27  1  0  0  0  0
 17 29  2  0  0  0  0
 17 31  1  0  0  0  0
 18 20  2  0  0  0  0
 18 36  1  0  0  0  0
 19 21  2  0  0  0  0
 19 37  1  0  0  0  0
 20 45  1  0  0  0  0
 21 38  1  0  0  0  0
 22 85  1  0  0  0  0
 23 86  1  0  0  0  0
 24 26  2  0  0  0  0
 24 85  1  0  0  0  0
 25 87  1  0  0  0  0
 26 88  1  0  0  0  0
 27 68  2  0  0  0  0
 28 56  1  0  0  0  0
 28 69  1  0  0  0  0
 29 70  1  0  0  0  0
 29 74  1  0  0  0  0
 30 63  1  0  0  0  0
 30 69  1  0  0  0  0
 30 71  2  0  0  0  0
 31 75  1  0  0  0  0
 31 79  2  0  0  0  0
 32 46  1  0  0  0  0
 32 76  1  0  0  0  0
 32 80  2  0  0  0  0
 33 64  1  0  0  0  0
 33 72  1  0  0  0  0
 33 81  2  0  0  0  0
 34 66  1  0  0  0  0
 34 73  1  0  0  0  0
 34 82  2  0  0  0  0
 35 65  1  0  0  0  0
 35 77  1  0  0  0  0
 35 83  2  0  0  0  0
 36 39  1  0  0  0  0
 37 46  1  0  0  0  0
 38 72  1  0  0  0  0
 39 41  1  0  0  0  0
 40 42  1  0  0  0  0
 40 43  1  0  0  0  0
 41 45  1  0  0  0  0
 42 47  1  0  0  0  0
 43 73  1  0  0  0  0
 44 47  1  0  0  0  0
 44 73  1  0  0  0  0
 45 76  1  0  0  0  0
 46 72  1  0  0  0  0
 47 70  1  0  0  0  0
 48 57  1  0  0  0  0
 49 65  1  0  0  0  0
 50 66  1  0  0  0  0
 51 66  1  0  0  0  0
 52 67  1  0  0  0  0
 53 67  1  0  0  0  0
 54 67  1  0  0  0  0
 55 78  1  0  0  0  0
 56 58  1  0  0  0  0
 57 59  1  0  0  0  0
 58 62  1  0  0  0  0
 59 60  1  0  0  0  0
 60 61  1  0  0  0  0
 61 69  1  0  0  0  0
 62 86  1  0  0  0  0
 63 66  1  0  0  0  0
 63 84  1  0  0  0  0
 64 67  1  0  0  0  0
 64 77  1  0  0  0  0
 65 78  1  0  0  0  0
 68 70  1  0  0  0  0
M  CHG  2  71   1  78   1
M  ISO  4  34 100  62 101  66 100  86 101
M  END
> <Batch ID>
0077

> <Smiles>
CCCCCn1c(CC[101CH2:1][101O:1]c2ccc3c(c2)CN(C(=O)C(NC(=O)C(C)NC)C(C)(C)C)C(C(=O)NC2CCCc4ccccc42)C3)cnc1C(O)[100C:0](C)(C)[100C:0](=O)N1CCCC(n2nc(-c3ccc(Oc4ccc(F)cc4F)cc3)c(C(N)=O)c2N)C1

> <Shape>
0.290

> <Color>
0.079

> <Negative vol penalty>
0.000

$$$$

  -OEChem-04052318373D

 87 95  0     1  0  0  0  0  0999 V2000
  -23.3356  -34.2139   28.0698 C   0  0  0  0  0  0  0  0  0  0  0  0
  -23.0379  -32.8584   28.1667 C   0  0  0  0  0  0  0  0  0  0  0  0
  -24.1619   -9.4641   20.3430 C   0  0  0  0  0  0  0  0  0  0  0  0
  -24.6160  -10.0160   22.6508 C   0  0  0  0  0  0  0  0  0  0  0  0
  -23.6222  -34.7764   26.8266 C   0  0  0  0  0  0  0  0  0  0  0  0
  -23.0255  -32.0647   27.0203 C   0  0  0  0  0  0  0  0  0  0  0  0
  -24.4357  -25.3897   24.8358 C   0  0  0  0  0  0  0  0  0  0  0  0
  -23.8042   -8.1705   20.7227 C   0  0  0  0  0  0  0  0  0  0  0  0
  -24.2581   -8.7224   23.0306 C   0  0  0  0  0  0  0  0  0  0  0  0
  -23.8455  -24.3381   24.1362 C   0  0  0  0  0  0  0  0  0  0  0  0
  -21.1236   -6.6268   22.0882 C   0  0  0  0  0  0  0  0  0  0  0  0
  -19.9641   -6.0856   21.5331 C   0  0  0  0  0  0  0  0  0  0  0  0
  -24.4338  -25.4021   22.0526 C   0  0  0  0  0  0  0  0  0  0  0  0
  -21.2627   -4.2894   20.5717 C   0  0  0  0  0  0  0  0  0  0  0  0
  -25.3906  -20.9269   21.7436 C   0  0  0  0  0  0  0  0  0  0  0  0
  -24.5679  -10.3869   21.3070 C   0  0  0  0  0  0  0  0  0  0  0  0
  -24.0928  -12.8442   20.8137 C   0  0  0  0  0  0  0  0  0  0  0  0
  -23.6228  -33.9872   25.6656 C   0  0  0  0  0  0  0  0  0  0  0  0
  -25.0208  -26.4626   24.1480 C   0  0  0  0  0  0  0  0  0  0  0  0
  -23.3110  -32.6174   25.7602 C   0  0  0  0  0  0  0  0  0  0  0  0
  -25.0330  -26.4648   22.7459 C   0  0  0  0  0  0  0  0  0  0  0  0
  -23.8522   -7.7997   22.0665 C   0  0  0  0  0  0  0  0  0  0  0  0
  -23.8419  -24.3456   22.7444 C   0  0  0  0  0  0  0  0  0  0  0  0
  -22.3528   -5.9994   21.8850 C   0  0  0  0  0  0  0  0  0  0  0  0
  -20.0336   -4.9169   20.7749 C   0  0  0  0  0  0  0  0  0  0  0  0
  -22.4223   -4.8307   21.1267 C   0  0  0  0  0  0  0  0  0  0  0  0
  -24.9382  -11.7231   20.9153 C   0  0  0  0  0  0  0  0  0  0  0  0
  -26.0223  -19.7821   21.3469 C   0  0  0  0  0  0  0  0  0  0  0  0
  -24.9204  -13.8626   20.4083 C   0  0  0  0  0  0  0  0  0  0  0  0
  -24.8315  -19.3145   23.1535 C   0  0  0  0  0  0  0  0  0  0  0  0
  -22.6854  -12.9551   21.0636 C   0  0  0  0  0  0  0  0  0  0  0  0
  -24.4767  -29.5904   23.9907 C   0  0  0  0  0  0  0  0  0  0  0  0
  -27.1895  -29.5783   22.2122 C   0  0  0  0  0  0  0  0  0  0  0  0
  -29.3348  -27.8335   20.2122 C   0  0  0  0  0  0  0  0  0  0  0  0
  -29.7293  -16.6691   20.7869 C   0  0  0  0  0  0  0  0  0  0  0  0
  -23.8923  -34.6496   24.3378 C   0  0  0  0  0  0  0  0  0  0  0  0
  -25.6770  -27.5762   24.9173 C   0  0  0  0  0  0  0  0  0  0  0  0
  -25.6659  -27.5831   21.9601 C   0  0  0  0  0  0  0  0  0  0  0  0
  -24.2255  -33.6631   23.2215 C   0  0  0  0  0  0  0  0  0  0  0  0
  -29.6933  -13.7586   18.7364 C   0  0  0  0  0  0  0  0  0  0  0  0
  -23.2390  -32.4997   23.2251 C   0  0  0  0  0  0  0  0  0  0  0  0
  -28.3869  -13.0594   19.1167 C   0  0  0  0  0  0  0  0  0  0  0  0
  -30.3497  -14.4238   19.9442 C   0  0  0  0  0  0  0  0  0  0  0  0
  -28.1705  -14.6481   21.0732 C   0  0  0  0  0  0  0  0  0  0  0  0
  -23.3119  -31.7186   24.5428 C   0  0  1  0  0  0  0  0  0  0  0  0
  -25.7893  -28.8700   24.1168 C   0  0  1  0  0  0  0  0  0  0  0  0
  -27.4430  -14.0100   19.8774 C   0  0  2  0  0  0  0  0  0  0  0  0
  -31.4424  -28.1025   18.8769 C   0  0  0  0  0  0  0  0  0  0  0  0
  -22.6624  -18.5877   24.2083 C   0  0  0  0  0  0  0  0  0  0  0  0
  -24.6322  -19.1755   25.6610 C   0  0  0  0  0  0  0  0  0  0  0  0
  -24.6078  -17.0483   24.3742 C   0  0  0  0  0  0  0  0  0  0  0  0
  -25.6246  -31.0462   20.0428 C   0  0  0  0  0  0  0  0  0  0  0  0
  -27.4397  -30.4470   18.4258 C   0  0  0  0  0  0  0  0  0  0  0  0
  -27.9535  -31.8854   20.3980 C   0  0  0  0  0  0  0  0  0  0  0  0
  -21.5804  -22.8618   23.7109 C   0  0  0  0  0  0  0  0  0  0  0  0
  -22.0753  -21.2630   21.8457 C   0  0  0  0  0  0  0  0  0  0  0  0
  -30.7581  -25.8071   21.8330 C   0  0  0  0  0  0  0  0  0  0  0  0
  -26.9268  -19.5143   20.2258 C   0  0  0  0  0  0  0  0  0  0  0  0
  -28.4361  -19.7193   20.5263 C   0  0  0  0  0  0  0  0  0  0  0  0
  -23.7982  -21.5749   23.6427 C   0  0  0  0  0  0  0  0  0  0  0  0
  -28.9620  -18.8571   21.6719 C   0  0  0  0  0  0  0  0  0  0  0  0
  -27.5047  -29.4215   20.7442 C   0  0  1  0  0  0  0  0  0  0  0  0
  -30.8481  -27.7133   20.2215 C   0  0  2  0  0  0  0  0  0  0  0  0
  -24.2233  -18.5656   24.2814 C   0  0  0  0  0  0  0  0  0  0  0  0
  -27.1169  -30.6798   19.9172 C   0  0  0  0  0  0  0  0  0  0  0  0
  -22.6837  -22.2702   22.8296 C   0  0  0  0  0  0  0  0  0  1  0  0
  -26.2055  -12.0027   20.5997 N   0  0  0  0  0  0  0  0  0  0  0  0
  -24.6605  -20.6083   22.8632 N   0  0  0  0  0  0  0  0  0  0  0  0
  -26.1627  -13.3110   20.2957 N   0  0  0  0  0  0  0  0  0  0  0  0
  -25.6586  -18.8008   22.2373 N   0  3  0  0  0  0  0  0  0  0  0  0
  -26.2891  -28.6522   22.7577 N   0  0  0  0  0  0  0  0  0  0  0  0
  -29.4022  -15.3133   20.6201 N   0  0  0  0  0  0  0  0  0  0  0  0
  -24.6994  -15.1672   20.1405 N   0  0  0  0  0  0  0  0  0  0  0  0
  -21.9874  -11.8110   21.4738 N   0  0  0  0  0  0  0  0  0  0  0  0
  -24.4713  -30.8525   24.5534 N   0  0  0  0  0  0  0  0  0  0  0  0
  -28.9177  -29.0670   20.6657 N   0  0  0  0  0  0  0  0  0  0  0  0
  -28.7730  -17.4437   21.4320 N   0  0  0  0  0  0  0  0  0  0  0  0
  -31.2546  -26.3125   20.5272 N   0  3  0  0  0  0  0  0  0  0  0  0
  -22.0619  -14.0329   20.9114 O   0  0  0  0  0  0  0  0  0  0  0  0
  -23.5388  -29.0423   23.4237 O   0  0  0  0  0  0  0  0  0  0  0  0
  -27.7279  -30.4844   22.8530 O   0  0  0  0  0  0  0  0  0  0  0  0
  -28.5968  -26.9254   19.8365 O   0  0  0  0  0  0  0  0  0  0  0  0
  -30.7924  -17.1545   20.3854 O   0  0  0  0  0  0  0  0  0  0  0  0
  -23.5029   -6.5375   22.4374 O   0  0  0  0  0  0  0  0  0  0  0  0
  -23.2659  -23.3207   22.0590 O   0  0  0  0  0  0  0  0  0  1  0  0
  -18.9198   -4.3964   20.2432 F   0  0  0  0  0  0  0  0  0  0  0  0
  -23.6001   -4.2228   20.9290 F   0  0  0  0  0  0  0  0  0  0  0  0
  1  2  1  0  0  0  0
  1  5  2  0  0  0  0
  2  6  2  0  0  0  0
  3  8  2  0  0  0  0
  3 16  1  0  0  0  0
  4  9  1  0  0  0  0
  4 16  2  0  0  0  0
  5 18  1  0  0  0  0
  6 20  1  0  0  0  0
  7 10  2  0  0  0  0
  7 19  1  0  0  0  0
  8 22  1  0  0  0  0
  9 22  2  0  0  0  0
 10 23  1  0  0  0  0
 11 12  2  0  0  0  0
 11 24  1  0  0  0  0
 12 25  1  0  0  0  0
 13 21  1  0  0  0  0
 13 23  2  0  0  0  0
 14 25  2  0  0  0  0
 14 26  1  0  0  0  0
 15 28  2  0  0  0  0
 15 68  1  0  0  0  0
 16 27  1  0  0  0  0
 17 27  1  0  0  0  0
 17 29  2  0  0  0  0
 17 31  1  0  0  0  0
 18 20  2  0  0  0  0
 18 36  1  0  0  0  0
 19 21  2  0  0  0  0
 19 37  1  0  0  0  0
 20 45  1  0  0  0  0
 21 38  1  0  0  0  0
 22 84  1  0  0  0  0
 23 85  1  0  0  0  0
 24 26  2  0  0  0  0
 24 84  1  0  0  0  0
 25 86  1  0  0  0  0
 26 87  1  0  0  0  0
 27 67  2  0  0  0  0
 28 58  1  0  0  0  0
 28 70  1  0  0  0  0
 29 69  1  0  0  0  0
 29 73  1  0  0  0  0
 30 64  1  0  0  0  0
 30 68  1  0  0  0  0
 30 70  2  0  0  0  0
 31 74  1  0  0  0  0
 31 79  2  0  0  0  0
 32 46  1  0  0  0  0
 32 75  1  0  0  0  0
 32 80  2  0  0  0  0
 33 62  1  0  0  0  0
 33 71  1  0  0  0  0
 33 81  2  0  0  0  0
 34 63  1  0  0  0  0
 34 76  1  0  0  0  0
 34 82  2  0  0  0  0
 35 72  1  0  0  0  0
 35 77  1  0  0  0  0
 35 83  2  0  0  0  0
 36 39  1  0  0  0  0
 37 46  1  0  0  0  0
 38 71  1  0  0  0  0
 39 41  1  0  0  0  0
 40 42  1  0  0  0  0
 40 43  1  0  0  0  0
 41 45  1  0  0  0  0
 42 47  1  0  0  0  0
 43 72  1  0  0  0  0
 44 47  1  0  0  0  0
 44 72  1  0  0  0  0
 45 75  1  0  0  0  0
 46 71  1  0  0  0  0
 47 69  1  0  0  0  0
 48 63  1  0  0  0  0
 49 64  1  0  0  0  0
 50 64  1  0  0  0  0
 51 64  1  0  0  0  0
 52 65  1  0  0  0  0
 53 65  1  0  0  0  0
 54 65  1  0  0  0  0
 55 66  1  0  0  0  0
 56 66  1  0  0  0  0
 57 78  1  0  0  0  0
 58 59  1  0  0  0  0
 59 61  1  0  0  0  0
 60 66  1  0  0  0  0
 60 68  1  0  0  0  0
 61 77  1  0  0  0  0
 62 65  1  0  0  0  0
 62 76  1  0  0  0  0
 63 78  1  0  0  0  0
 66 85  1  0  0  0  0
 67 69  1  0  0  0  0
M  CHG  2  70   1  78   1
M  ISO  4  35 100  66 101  77 100  85 101
M  END
> <Batch ID>
0077

> <Smiles>
CNC(C)C(=O)NC(C(=O)N1Cc2cc([101O:1][101C:1](C)(C)Cn3cc(CCC[100NH:0][100C:0](=O)N4CCCC(n5nc(-c6ccc(Oc7ccc(F)cc7F)cc6)c(C(N)=O)c5N)C4)nc3C(C)(C)C)ccc2CC1C(=O)NC1CCCc2ccccc21)C(C)(C)C

> <Shape>
0.235

> <Color>
0.128

> <Negative vol penalty>
0.000

$$$$

  -OEChem-04052318373D

 84 92  0     1  0  0  0  0  0999 V2000
  -17.8932  -25.7753   22.4983 C   0  0  0  0  0  0  0  0  0  0  0  0
  -19.2190  -25.3557   22.5379 C   0  0  0  0  0  0  0  0  0  0  0  0
  -27.7727  -15.0680   21.5208 C   0  0  0  0  0  0  0  0  0  0  0  0
  -25.9489  -15.5780   20.0206 C   0  0  0  0  0  0  0  0  0  0  0  0
  -17.5832  -27.0621   22.0601 C   0  0  0  0  0  0  0  0  0  0  0  0
  -20.2356  -26.2224   22.1382 C   0  0  0  0  0  0  0  0  0  0  0  0
  -25.8815  -26.6029   24.4803 C   0  0  0  0  0  0  0  0  0  0  0  0
  -27.4496  -13.7128   21.4529 C   0  0  0  0  0  0  0  0  0  0  0  0
  -25.6258  -14.2228   19.9527 C   0  0  0  0  0  0  0  0  0  0  0  0
  -27.1060  -26.0807   24.0659 C   0  0  0  0  0  0  0  0  0  0  0  0
  -24.0968  -10.9378   19.6679 C   0  0  0  0  0  0  0  0  0  0  0  0
  -22.7514  -10.5859   19.7753 C   0  0  0  0  0  0  0  0  0  0  0  0
  -27.6173  -28.1670   22.9681 C   0  0  0  0  0  0  0  0  0  0  0  0
  -22.6625  -11.5955   21.9685 C   0  0  0  0  0  0  0  0  0  0  0  0
  -26.3917  -25.8380   19.8592 C   0  0  0  0  0  0  0  0  0  0  0  0
  -27.5269  -24.4958   18.5301 C   0  0  0  0  0  0  0  0  0  0  0  0
  -27.0223  -16.0006   20.8046 C   0  0  0  0  0  0  0  0  0  0  0  0
  -28.2404  -18.1070   20.0384 C   0  0  0  0  0  0  0  0  0  0  0  0
  -18.5973  -27.9482   21.6639 C   0  0  0  0  0  0  0  0  0  0  0  0
  -25.5104  -27.9095   24.1318 C   0  0  0  0  0  0  0  0  0  0  0  0
  -19.9388  -27.5218   21.6930 C   0  0  0  0  0  0  0  0  0  0  0  0
  -26.3886  -28.7042   23.3814 C   0  0  0  0  0  0  0  0  0  0  0  0
  -26.3762  -13.2902   20.6689 C   0  0  0  0  0  0  0  0  0  0  0  0
  -27.9729  -26.8618   23.3073 C   0  0  0  0  0  0  0  0  0  0  0  0
  -24.7251  -11.6185   20.7108 C   0  0  0  0  0  0  0  0  0  0  0  0
  -22.0342  -10.9148   20.9256 C   0  0  0  0  0  0  0  0  0  0  0  0
  -24.0080  -11.9473   21.8611 C   0  0  0  0  0  0  0  0  0  0  0  0
  -27.3552  -17.4008   20.8748 C   0  0  0  0  0  0  0  0  0  0  0  0
  -25.5687  -24.9223   19.2472 C   0  0  0  0  0  0  0  0  0  0  0  0
  -28.2082  -19.3951   20.5141 C   0  0  0  0  0  0  0  0  0  0  0  0
  -29.0218  -17.6405   18.9305 C   0  0  0  0  0  0  0  0  0  0  0  0
  -23.1495  -29.1936   22.4343 C   0  0  0  0  0  0  0  0  0  0  0  0
  -24.4189  -31.9804   23.5041 C   0  0  0  0  0  0  0  0  0  0  0  0
  -27.1433  -33.6535   24.6980 C   0  0  0  0  0  0  0  0  0  0  0  0
  -24.5188  -23.2215   22.8079 C   0  0  0  0  0  0  0  0  0  0  0  0
  -18.2098  -29.3133   21.1528 C   0  0  0  0  0  0  0  0  0  0  0  0
  -24.1975  -28.4671   24.6092 C   0  0  0  0  0  0  0  0  0  0  0  0
  -26.0461  -30.1200   22.9981 C   0  0  0  0  0  0  0  0  0  0  0  0
  -19.3751  -30.2980   21.1017 C   0  0  0  0  0  0  0  0  0  0  0  0
  -26.9140  -21.4958   24.7983 C   0  0  0  0  0  0  0  0  0  0  0  0
  -20.5986  -29.6447   20.4668 C   0  0  0  0  0  0  0  0  0  0  0  0
  -27.3542  -20.3296   23.9117 C   0  0  0  0  0  0  0  0  0  0  0  0
  -25.4287  -21.8063   24.6261 C   0  0  0  0  0  0  0  0  0  0  0  0
  -25.4417  -20.8695   22.3466 C   0  0  0  0  0  0  0  0  0  0  0  0
  -21.0716  -28.4412   21.2911 C   0  0  1  0  0  0  0  0  0  0  0  0
  -23.7002  -29.6338   23.7612 C   0  0  1  0  0  0  0  0  0  0  0  0
  -26.9444  -20.5552   22.4439 C   0  0  2  0  0  0  0  0  0  0  0  0
  -27.8840  -35.9312   25.4469 C   0  0  0  0  0  0  0  0  0  0  0  0
  -29.8466  -24.0546   22.7972 C   0  0  0  0  0  0  0  0  0  0  0  0
  -23.4501  -23.6121   18.5461 C   0  0  0  0  0  0  0  0  0  0  0  0
  -23.3583  -26.0636   18.9167 C   0  0  0  0  0  0  0  0  0  0  0  0
  -24.5555  -32.8899   20.5948 C   0  0  0  0  0  0  0  0  0  0  0  0
  -26.1319  -34.6997   21.3074 C   0  0  0  0  0  0  0  0  0  0  0  0
  -23.8046  -34.6508   22.2041 C   0  0  0  0  0  0  0  0  0  0  0  0
  -27.7773  -32.6797   27.4199 C   0  0  0  0  0  0  0  0  0  0  0  0
  -29.8087  -25.5028   20.7342 C   0  0  0  0  0  0  0  0  0  0  0  0
  -28.9176  -26.2733   19.7494 C   0  0  0  0  0  0  0  0  0  0  0  0
  -23.6541  -24.5240   20.8805 C   0  0  0  0  0  0  0  0  0  0  0  0
  -25.4781  -32.9336   23.0058 C   0  0  1  0  0  0  0  0  0  0  0  0
  -27.3115  -34.5906   25.8803 C   0  0  2  0  0  0  0  0  0  0  0  0
  -29.1334  -25.1909   22.0754 C   0  0  2  0  0  0  0  0  0  1  0  0
  -24.1129  -24.7691   19.3894 C   0  0  0  0  0  0  0  0  0  0  0  0
  -24.9984  -33.7662   21.7834 C   0  0  0  0  0  0  0  0  0  0  0  0
  -26.2815  -24.0895   18.4214 N   0  0  0  0  0  0  0  0  0  0  0  0
  -26.8013  -18.1759   21.8109 N   0  0  0  0  0  0  0  0  0  0  0  0
  -27.6430  -25.5521   19.3904 N   0  0  0  0  0  0  0  0  0  0  0  0
  -27.3398  -19.3825   21.5657 N   0  0  0  0  0  0  0  0  0  0  0  0
  -24.7484  -30.6178   23.4833 N   0  0  0  0  0  0  0  0  0  0  0  0
  -25.1063  -22.0112   23.2119 N   0  0  0  0  0  0  0  0  0  0  0  0
  -28.8383  -20.5259   20.1313 N   0  0  0  0  0  0  0  0  0  0  0  0
  -28.9364  -16.2873   18.5755 N   0  0  0  0  0  0  0  0  0  0  0  0
  -21.8029  -28.8844   22.4586 N   0  0  0  0  0  0  0  0  0  0  0  0
  -25.8782  -33.7370   24.1560 N   0  0  0  0  0  0  0  0  0  0  0  0
  -24.2514  -23.3363   21.4492 N   0  0  0  0  0  0  0  0  0  0  0  0
  -28.2299  -33.9916   26.8895 N   0  3  0  0  0  0  0  0  0  0  0  0
  -29.7859  -18.3975   18.2851 O   0  0  0  0  0  0  0  0  0  0  0  0
  -23.8911  -29.1399   21.4602 O   0  0  0  0  0  0  0  0  0  0  0  0
  -23.3416  -32.4289   23.9040 O   0  0  0  0  0  0  0  0  0  0  0  0
  -28.0453  -32.9234   24.2931 O   0  0  0  0  0  0  0  0  0  0  0  0
  -24.2572  -24.1343   23.5986 O   0  0  0  0  0  0  0  0  0  0  0  0
  -26.0607  -11.9678   20.6022 O   0  0  0  0  0  0  0  0  0  0  0  0
  -29.1684  -26.3544   22.9010 O   0  0  0  0  0  0  0  0  0  1  0  0
  -20.7418  -10.5781   21.0280 F   0  0  0  0  0  0  0  0  0  0  0  0
  -24.6059  -12.6022   22.8658 F   0  0  0  0  0  0  0  0  0  0  0  0
  1  2  1  0  0  0  0
  1  5  2  0  0  0  0
  2  6  2  0  0  0  0
  3  8  2  0  0  0  0
  3 17  1  0  0  0  0
  4  9  1  0  0  0  0
  4 17  2  0  0  0  0
  5 19  1  0  0  0  0
  6 21  1  0  0  0  0
  7 10  2  0  0  0  0
  7 20  1  0  0  0  0
  8 23  1  0  0  0  0
  9 23  2  0  0  0  0
 10 24  1  0  0  0  0
 11 12  2  0  0  0  0
 11 25  1  0  0  0  0
 12 26  1  0  0  0  0
 13 22  1  0  0  0  0
 13 24  2  0  0  0  0
 14 26  2  0  0  0  0
 14 27  1  0  0  0  0
 15 29  2  0  0  0  0
 15 66  1  0  0  0  0
 16 64  2  0  0  0  0
 16 66  1  0  0  0  0
 17 28  1  0  0  0  0
 18 28  1  0  0  0  0
 18 30  2  0  0  0  0
 18 31  1  0  0  0  0
 19 21  2  0  0  0  0
 19 36  1  0  0  0  0
 20 22  2  0  0  0  0
 20 37  1  0  0  0  0
 21 45  1  0  0  0  0
 22 38  1  0  0  0  0
 23 81  1  0  0  0  0
 24 82  1  0  0  0  0
 25 27  2  0  0  0  0
 25 81  1  0  0  0  0
 26 83  1  0  0  0  0
 27 84  1  0  0  0  0
 28 65  2  0  0  0  0
 29 62  1  0  0  0  0
 29 64  1  0  0  0  0
 30 67  1  0  0  0  0
 30 70  1  0  0  0  0
 31 71  1  0  0  0  0
 31 76  2  0  0  0  0
 32 46  1  0  0  0  0
 32 72  1  0  0  0  0
 32 77  2  0  0  0  0
 33 59  1  0  0  0  0
 33 68  1  0  0  0  0
 33 78  2  0  0  0  0
 34 60  1  0  0  0  0
 34 73  1  0  0  0  0
 34 79  2  0  0  0  0
 35 69  1  0  0  0  0
 35 74  1  0  0  0  0
 35 80  2  0  0  0  0
 36 39  1  0  0  0  0
 37 46  1  0  0  0  0
 38 68  1  0  0  0  0
 39 41  1  0  0  0  0
 40 42  1  0  0  0  0
 40 43  1  0  0  0  0
 41 45  1  0  0  0  0
 42 47  1  0  0  0  0
 43 69  1  0  0  0  0
 44 47  1  0  0  0  0
 44 69  1  0  0  0  0
 45 72  1  0  0  0  0
 46 68  1  0  0  0  0
 47 67  1  0  0  0  0
 48 60  1  0  0  0  0
 49 61  1  0  0  0  0
 50 62  1  0  0  0  0
 51 62  1  0  0  0  0
 52 63  1  0  0  0  0
 53 63  1  0  0  0  0
 54 63  1  0  0  0  0
 55 75  1  0  0  0  0
 56 57  1  0  0  0  0
 56 61  1  0  0  0  0
 57 66  1  0  0  0  0
 58 62  1  0  0  0  0
 58 74  1  0  0  0  0
 59 63  1  0  0  0  0
 59 73  1  0  0  0  0
 60 75  1  0  0  0  0
 61 82  1  0  0  0  0
 65 67  1  0  0  0  0
M  CHG  1  75   1
M  ISO  4  35 100  61 101  74 100  82 101
M  END
> <Batch ID>
0077

> <Smiles>
CNC(C)C(=O)NC(C(=O)N1Cc2cc([101O:1][101CH:1](C)CCn3cnc(C(C)(C)C[100NH:0][100C:0](=O)N4CCCC(n5nc(-c6ccc(Oc7ccc(F)cc7F)cc6)c(C(N)=O)c5N)C4)c3)ccc2CC1C(=O)NC1CCCc2ccccc21)C(C)(C)C

> <Shape>
0.244

> <Color>
0.084

> <Negative vol penalty>
0.000

$$$$

  -OEChem-04052318373D

 85 93  0     1  0  0  0  0  0999 V2000
  -19.3882  -28.6947   21.8494 C   0  0  0  0  0  0  0  0  0  0  0  0
  -20.5993  -28.1554   22.2711 C   0  0  0  0  0  0  0  0  0  0  0  0
  -26.5868  -29.0373   19.4704 C   0  0  0  0  0  0  0  0  0  0  0  0
  -26.5117  -28.0003   21.6513 C   0  0  0  0  0  0  0  0  0  0  0  0
  -18.2031  -27.9896   22.0551 C   0  0  0  0  0  0  0  0  0  0  0  0
  -20.6259  -26.9110   22.8998 C   0  0  0  0  0  0  0  0  0  0  0  0
  -25.0101  -22.6576   22.4611 C   0  0  0  0  0  0  0  0  0  0  0  0
  -25.6727  -30.0006   19.8970 C   0  0  0  0  0  0  0  0  0  0  0  0
  -25.5976  -28.9637   22.0779 C   0  0  0  0  0  0  0  0  0  0  0  0
  -26.0835  -22.3282   23.2875 C   0  0  0  0  0  0  0  0  0  0  0  0
  -25.6722  -32.1789   23.1156 C   0  0  0  0  0  0  0  0  0  0  0  0
  -25.8814  -32.7597   24.3664 C   0  0  0  0  0  0  0  0  0  0  0  0
  -24.7557  -20.5933   24.3105 C   0  0  0  0  0  0  0  0  0  0  0  0
  -29.6657  -17.3020   23.1677 C   0  0  0  0  0  0  0  0  0  0  0  0
  -28.1184  -18.9490   22.3444 C   0  0  0  0  0  0  0  0  0  0  0  0
  -23.7307  -31.9436   25.1051 C   0  0  0  0  0  0  0  0  0  0  0  0
  -27.0062  -28.0370   20.3476 C   0  0  0  0  0  0  0  0  0  0  0  0
  -29.3540  -27.1067   19.9870 C   0  0  0  0  0  0  0  0  0  0  0  0
  -18.2163  -26.7316   22.6780 C   0  0  0  0  0  0  0  0  0  0  0  0
  -23.7958  -21.9633   22.5608 C   0  0  0  0  0  0  0  0  0  0  0  0
  -19.4397  -26.1890   23.1153 C   0  0  0  0  0  0  0  0  0  0  0  0
  -23.6693  -20.9141   23.4824 C   0  0  0  0  0  0  0  0  0  0  0  0
  -29.0640  -18.5502   23.2826 C   0  0  0  0  0  0  0  0  0  0  0  0
  -25.1781  -29.9638   21.2007 C   0  0  0  0  0  0  0  0  0  0  0  0
  -25.9555  -21.2979   24.2145 C   0  0  0  0  0  0  0  0  0  0  0  0
  -24.4922  -31.4806   22.8595 C   0  0  0  0  0  0  0  0  0  0  0  0
  -24.9107  -32.6420   25.3611 C   0  0  0  0  0  0  0  0  0  0  0  0
  -23.5215  -31.3629   23.8542 C   0  0  0  0  0  0  0  0  0  0  0  0
  -27.9500  -27.0413   19.9073 C   0  0  0  0  0  0  0  0  0  0  0  0
  -29.2900  -16.4964   22.1048 C   0  0  0  0  0  0  0  0  0  0  0  0
  -27.8122  -18.0697   21.3183 C   0  0  0  0  0  0  0  0  0  0  0  0
  -29.7845  -25.9227   19.4398 C   0  0  0  0  0  0  0  0  0  0  0  0
  -30.1939  -28.1448   20.5090 C   0  0  0  0  0  0  0  0  0  0  0  0
  -20.8093  -22.7622   23.3000 C   0  0  0  0  0  0  0  0  0  0  0  0
  -28.2162  -20.4144   19.3175 C   0  0  0  0  0  0  0  0  0  0  0  0
  -20.1929  -19.6903   22.4600 C   0  0  0  0  0  0  0  0  0  0  0  0
  -21.3556  -16.5064   22.0622 C   0  0  0  0  0  0  0  0  0  0  0  0
  -16.9045  -26.0282   22.9211 C   0  0  0  0  0  0  0  0  0  0  0  0
  -22.6561  -22.3131   21.6436 C   0  0  0  0  0  0  0  0  0  0  0  0
  -22.3935  -20.1245   23.6150 C   0  0  0  0  0  0  0  0  0  0  0  0
  -17.0606  -24.5476   23.2583 C   0  0  0  0  0  0  0  0  0  0  0  0
  -27.8248  -22.5585   16.4061 C   0  0  0  0  0  0  0  0  0  0  0  0
  -18.1538  -24.3506   24.3037 C   0  0  0  0  0  0  0  0  0  0  0  0
  -27.9237  -23.9480   17.0343 C   0  0  0  0  0  0  0  0  0  0  0  0
  -27.1234  -21.5711   17.3352 C   0  0  0  0  0  0  0  0  0  0  0  0
  -27.8460  -22.8607   19.3200 C   0  0  0  0  0  0  0  0  0  0  0  0
  -19.5122  -24.8308   23.7787 C   0  0  1  0  0  0  0  0  0  0  0  0
  -21.2978  -21.8797   22.1863 C   0  0  1  0  0  0  0  0  0  0  0  0
  -28.5744  -23.8789   18.4270 C   0  0  2  0  0  0  0  0  0  0  0  0
  -29.9137  -15.1495   21.9507 C   0  0  0  0  0  0  0  0  0  0  0  0
  -28.4753  -18.1957   18.3014 C   0  0  0  0  0  0  0  0  0  0  0  0
  -21.3305  -14.0825   21.4132 C   0  0  0  0  0  0  0  0  0  0  0  0
  -25.6835  -19.4398   20.8135 C   0  0  0  0  0  0  0  0  0  0  0  0
  -26.0125  -17.1966   19.8117 C   0  0  0  0  0  0  0  0  0  0  0  0
  -18.8371  -19.3523   25.1726 C   0  0  0  0  0  0  0  0  0  0  0  0
  -18.9672  -16.8728   24.8506 C   0  0  0  0  0  0  0  0  0  0  0  0
  -17.6386  -18.2667   23.2648 C   0  0  0  0  0  0  0  0  0  0  0  0
  -22.2487  -17.1152   19.3071 C   0  0  0  0  0  0  0  0  0  0  0  0
  -29.4347  -19.4673   24.4207 C   0  0  0  0  0  0  0  0  0  0  0  0
  -28.5708  -19.2792   25.6696 C   0  0  0  0  0  0  0  0  0  0  0  0
  -27.1013  -19.6149   25.4435 C   0  0  0  0  0  0  0  0  0  1  0  0
  -27.4933  -19.1247   19.0207 C   0  0  1  0  0  0  0  0  0  0  0  0
  -20.1637  -18.3681   23.1882 C   0  0  1  0  0  0  0  0  0  0  0  0
  -21.2102  -15.5163   20.9207 C   0  0  2  0  0  0  0  0  0  0  0  0
  -26.8032  -18.4658   20.2928 C   0  0  0  0  0  0  0  0  0  0  0  0
  -18.9252  -18.2310   24.1181 C   0  0  0  0  0  0  0  0  0  0  0  0
  -27.5174  -25.9057   19.3530 N   0  0  0  0  0  0  0  0  0  0  0  0
  -28.3755  -16.8493   21.1739 N   0  0  0  0  0  0  0  0  0  0  0  0
  -28.6561  -25.2466   19.0793 N   0  0  0  0  0  0  0  0  0  0  0  0
  -21.3057  -20.5086   22.7002 N   0  0  0  0  0  0  0  0  0  0  0  0
  -27.7559  -21.5552   18.6596 N   0  0  0  0  0  0  0  0  0  0  0  0
  -31.0143  -25.4045   19.2365 N   0  0  0  0  0  0  0  0  0  0  0  0
  -29.5876  -29.2942   21.0339 N   0  0  0  0  0  0  0  0  0  0  0  0
  -20.0780  -23.8541   22.8730 N   0  0  0  0  0  0  0  0  0  0  0  0
  -20.2580  -17.3350   22.1624 N   0  0  0  0  0  0  0  0  0  0  0  0
  -22.2649  -15.7507   19.8942 N   0  3  0  0  0  0  0  0  0  0  0  0
  -31.4456  -28.0628   20.4951 O   0  0  0  0  0  0  0  0  0  0  0  0
  -21.0749  -22.4730   24.4608 O   0  0  0  0  0  0  0  0  0  0  0  0
  -29.1630  -20.4055   20.1084 O   0  0  0  0  0  0  0  0  0  0  0  0
  -19.2660  -19.9829   21.7005 O   0  0  0  0  0  0  0  0  0  0  0  0
  -22.3423  -16.5389   22.7942 O   0  0  0  0  0  0  0  0  0  0  0  0
  -24.2863  -30.9039   21.6174 O   0  0  0  0  0  0  0  0  0  0  0  0
  -27.0015  -20.9748   25.0228 O   0  0  0  0  0  0  0  0  0  1  0  0
  -25.1124  -33.1984   26.5628 F   0  0  0  0  0  0  0  0  0  0  0  0
  -22.3864  -30.6921   23.6144 F   0  0  0  0  0  0  0  0  0  0  0  0
  1  2  1  0  0  0  0
  1  5  2  0  0  0  0
  2  6  2  0  0  0  0
  3  8  2  0  0  0  0
  3 17  1  0  0  0  0
  4  9  1  0  0  0  0
  4 17  2  0  0  0  0
  5 19  1  0  0  0  0
  6 21  1  0  0  0  0
  7 10  2  0  0  0  0
  7 20  1  0  0  0  0
  8 24  1  0  0  0  0
  9 24  2  0  0  0  0
 10 25  1  0  0  0  0
 11 12  2  0  0  0  0
 11 26  1  0  0  0  0
 12 27  1  0  0  0  0
 13 22  1  0  0  0  0
 13 25  2  0  0  0  0
 14 23  1  0  0  0  0
 14 30  2  0  0  0  0
 15 23  2  0  0  0  0
 15 31  1  0  0  0  0
 16 27  2  0  0  0  0
 16 28  1  0  0  0  0
 17 29  1  0  0  0  0
 18 29  1  0  0  0  0
 18 32  2  0  0  0  0
 18 33  1  0  0  0  0
 19 21  2  0  0  0  0
 19 38  1  0  0  0  0
 20 22  2  0  0  0  0
 20 39  1  0  0  0  0
 21 47  1  0  0  0  0
 22 40  1  0  0  0  0
 23 59  1  0  0  0  0
 24 82  1  0  0  0  0
 25 83  1  0  0  0  0
 26 28  2  0  0  0  0
 26 82  1  0  0  0  0
 27 84  1  0  0  0  0
 28 85  1  0  0  0  0
 29 67  2  0  0  0  0
 30 50  1  0  0  0  0
 30 68  1  0  0  0  0
 31 65  1  0  0  0  0
 31 68  2  0  0  0  0
 32 69  1  0  0  0  0
 32 72  1  0  0  0  0
 33 73  1  0  0  0  0
 33 77  2  0  0  0  0
 34 48  1  0  0  0  0
 34 74  1  0  0  0  0
 34 78  2  0  0  0  0
 35 62  1  0  0  0  0
 35 71  1  0  0  0  0
 35 79  2  0  0  0  0
 36 63  1  0  0  0  0
 36 70  1  0  0  0  0
 36 80  2  0  0  0  0
 37 64  1  0  0  0  0
 37 75  1  0  0  0  0
 37 81  2  0  0  0  0
 38 41  1  0  0  0  0
 39 48  1  0  0  0  0
 40 70  1  0  0  0  0
 41 43  1  0  0  0  0
 42 44  1  0  0  0  0
 42 45  1  0  0  0  0
 43 47  1  0  0  0  0
 44 49  1  0  0  0  0
 45 71  1  0  0  0  0
 46 49  1  0  0  0  0
 46 71  1  0  0  0  0
 47 74  1  0  0  0  0
 48 70  1  0  0  0  0
 49 69  1  0  0  0  0
 51 62  1  0  0  0  0
 52 64  1  0  0  0  0
 53 65  1  0  0  0  0
 54 65  1  0  0  0  0
 55 66  1  0  0  0  0
 56 66  1  0  0  0  0
 57 66  1  0  0  0  0
 58 76  1  0  0  0  0
 59 60  1  0  0  0  0
 60 61  1  0  0  0  0
 61 83  1  0  0  0  0
 62 65  1  0  0  0  0
 63 66  1  0  0  0  0
 63 75  1  0  0  0  0
 64 76  1  0  0  0  0
 67 69  1  0  0  0  0
M  CHG  1  76   1
M  ISO  4  35 100  61 101  62 100  83 101
M  END
> <Batch ID>
0077

> <Smiles>
CNC(C)C(=O)NC(C(=O)N1Cc2cc([101O:1][101CH2:1]CCc3cc(C)nc(C(C)(C)[100CH:0](C)[100C:0](=O)N4CCCC(n5nc(-c6ccc(Oc7ccc(F)cc7F)cc6)c(C(N)=O)c5N)C4)c3)ccc2CC1C(=O)NC1CCCc2ccccc21)C(C)(C)C

> <Shape>
0.208

> <Color>
0.064

> <Negative vol penalty>
0.000

$$$$

  -OEChem-04052318373D

 84 92  0     1  0  0  0  0  0999 V2000
  -29.6052  -25.3421   16.4507 C   0  0  0  0  0  0  0  0  0  0  0  0
  -28.4316  -25.2442   17.1914 C   0  0  0  0  0  0  0  0  0  0  0  0
  -27.1625  -17.6073   19.6462 C   0  0  0  0  0  0  0  0  0  0  0  0
  -24.9014  -17.0131   20.2558 C   0  0  0  0  0  0  0  0  0  0  0  0
  -30.6648  -26.1145   16.9245 C   0  0  0  0  0  0  0  0  0  0  0  0
  -28.3175  -25.9178   18.4070 C   0  0  0  0  0  0  0  0  0  0  0  0
  -23.8701  -28.2880   18.9045 C   0  0  0  0  0  0  0  0  0  0  0  0
  -27.3838  -16.3051   19.1979 C   0  0  0  0  0  0  0  0  0  0  0  0
  -25.1227  -15.7109   19.8074 C   0  0  0  0  0  0  0  0  0  0  0  0
  -22.7662  -27.5063   19.2423 C   0  0  0  0  0  0  0  0  0  0  0  0
  -28.0660  -13.2859   20.5556 C   0  0  0  0  0  0  0  0  0  0  0  0
  -29.2607  -12.6683   20.9253 C   0  0  0  0  0  0  0  0  0  0  0  0
  -22.9787  -28.2098   21.5399 C   0  0  0  0  0  0  0  0  0  0  0  0
  -29.8548  -12.4233   18.5964 C   0  0  0  0  0  0  0  0  0  0  0  0
  -22.0796  -21.6440   24.5863 C   0  0  0  0  0  0  0  0  0  0  0  0
  -25.9213  -17.9613   20.1752 C   0  0  0  0  0  0  0  0  0  0  0  0
  -25.2042  -20.3926   19.8887 C   0  0  0  0  0  0  0  0  0  0  0  0
  -30.5600  -26.8057   18.1419 C   0  0  0  0  0  0  0  0  0  0  0  0
  -24.5443  -29.0293   19.8855 C   0  0  0  0  0  0  0  0  0  0  0  0
  -29.3772  -26.6990   18.8982 C   0  0  0  0  0  0  0  0  0  0  0  0
  -24.0892  -29.0022   21.2115 C   0  0  0  0  0  0  0  0  0  0  0  0
  -21.2928  -22.7443   24.3479 C   0  0  0  0  0  0  0  0  0  0  0  0
  -26.3639  -15.3570   19.2784 C   0  0  0  0  0  0  0  0  0  0  0  0
  -22.3221  -27.4648   20.5606 C   0  0  0  0  0  0  0  0  0  0  0  0
  -27.7656  -13.4722   19.2062 C   0  0  0  0  0  0  0  0  0  0  0  0
  -30.1552  -12.2370   19.9458 C   0  0  0  0  0  0  0  0  0  0  0  0
  -28.6601  -13.0409   18.2266 C   0  0  0  0  0  0  0  0  0  0  0  0
  -25.6922  -19.3061   20.6391 C   0  0  0  0  0  0  0  0  0  0  0  0
  -21.3805  -23.5027   25.5306 C   0  0  0  0  0  0  0  0  0  0  0  0
  -25.1691  -21.4371   20.7798 C   0  0  0  0  0  0  0  0  0  0  0  0
  -24.8172  -20.4523   18.5094 C   0  0  0  0  0  0  0  0  0  0  0  0
  -27.4960  -29.0269   21.0650 C   0  0  0  0  0  0  0  0  0  0  0  0
  -24.7750  -21.5858   26.7744 C   0  0  0  0  0  0  0  0  0  0  0  0
  -26.4417  -31.6460   22.6623 C   0  0  0  0  0  0  0  0  0  0  0  0
  -23.8013  -33.4021   23.9236 C   0  0  0  0  0  0  0  0  0  0  0  0
  -31.7496  -27.5900   18.6360 C   0  0  0  0  0  0  0  0  0  0  0  0
  -25.7171  -29.8886   19.5000 C   0  0  0  0  0  0  0  0  0  0  0  0
  -24.7658  -29.7955   22.2984 C   0  0  0  0  0  0  0  0  0  0  0  0
  -31.4093  -28.5742   19.7522 C   0  0  0  0  0  0  0  0  0  0  0  0
  -27.3067  -23.0779   24.7240 C   0  0  0  0  0  0  0  0  0  0  0  0
  -30.5378  -27.9026   20.8088 C   0  0  0  0  0  0  0  0  0  0  0  0
  -27.1540  -22.3585   23.3845 C   0  0  0  0  0  0  0  0  0  0  0  0
  -27.0177  -22.1444   25.8954 C   0  0  0  0  0  0  0  0  0  0  0  0
  -25.5260  -20.7598   24.4885 C   0  0  0  0  0  0  0  0  0  0  0  0
  -29.2061  -27.4349   20.2095 C   0  0  1  0  0  0  0  0  0  0  0  0
  -26.6415  -30.1991   20.6733 C   0  0  1  0  0  0  0  0  0  0  0  0
  -25.7792  -21.6752   23.2776 C   0  0  2  0  0  0  0  0  0  0  0  0
  -20.7292  -24.7904   25.8281 C   0  0  0  0  0  0  0  0  0  0  0  0
  -23.2563  -35.4861   25.2110 C   0  0  0  0  0  0  0  0  0  0  0  0
  -21.5263  -19.6522   27.6725 C   0  0  0  0  0  0  0  0  0  0  0  0
  -23.8441  -19.3641   28.5418 C   0  0  0  0  0  0  0  0  0  0  0  0
  -27.3717  -30.2964   25.2359 C   0  0  0  0  0  0  0  0  0  0  0  0
  -25.9779  -31.9351   26.5166 C   0  0  0  0  0  0  0  0  0  0  0  0
  -27.8677  -32.7440   25.1034 C   0  0  0  0  0  0  0  0  0  0  0  0
  -22.1980  -34.5008   21.6917 C   0  0  0  0  0  0  0  0  0  0  0  0
  -20.5142  -23.0574   23.0950 C   0  0  0  0  0  0  0  0  0  0  0  0
  -21.1643  -24.1297   22.2138 C   0  0  0  0  0  0  0  0  0  0  0  0
  -20.3227  -24.4887   20.9884 C   0  0  0  0  0  0  0  0  0  0  0  0
  -21.0177  -25.5263   20.1172 C   0  0  0  0  0  0  0  0  0  1  0  0
  -23.4528  -20.8980   26.5452 C   0  0  1  0  0  0  0  0  0  0  0  0
  -25.7654  -31.8881   23.9900 C   0  0  1  0  0  0  0  0  0  0  0  0
  -23.4327  -34.8718   23.8311 C   0  0  2  0  0  0  0  0  0  0  0  0
  -22.8752  -20.3543   27.8790 C   0  0  0  0  0  0  0  0  0  0  0  0
  -26.7339  -31.6993   25.1916 C   0  0  0  0  0  0  0  0  0  0  0  0
  -25.9489  -19.6304   21.9091 N   0  0  0  0  0  0  0  0  0  0  0  0
  -22.1613  -22.9324   26.4521 N   0  0  0  0  0  0  0  0  0  0  0  0
  -22.5713  -21.8039   25.8484 N   0  0  0  0  0  0  0  0  0  0  0  0
  -25.6209  -20.9325   21.9636 N   0  0  0  0  0  0  0  0  0  0  0  0
  -25.9120  -30.6155   21.8727 N   0  0  0  0  0  0  0  0  0  0  0  0
  -25.7127  -21.4980   25.7453 N   0  0  0  0  0  0  0  0  0  0  0  0
  -24.7962  -22.7289   20.6585 N   0  0  0  0  0  0  0  0  0  0  0  0
  -24.9159  -19.2871   17.7368 N   0  0  0  0  0  0  0  0  0  0  0  0
  -28.3035  -28.5546   20.0480 N   0  0  0  0  0  0  0  0  0  0  0  0
  -25.1675  -33.2162   23.9074 N   0  0  0  0  0  0  0  0  0  0  0  0
  -22.1591  -35.0398   23.0756 N   0  3  0  0  0  0  0  0  0  0  0  0
  -24.4119  -21.5117   17.9738 O   0  0  0  0  0  0  0  0  0  0  0  0
  -27.4289  -28.5848   22.2059 O   0  0  0  0  0  0  0  0  0  0  0  0
  -24.9658  -22.1852   27.8358 O   0  0  0  0  0  0  0  0  0  0  0  0
  -27.4000  -32.3501   22.3345 O   0  0  0  0  0  0  0  0  0  0  0  0
  -22.9614  -32.5086   24.0061 O   0  0  0  0  0  0  0  0  0  0  0  0
  -26.5795  -14.0863   18.8408 O   0  0  0  0  0  0  0  0  0  0  0  0
  -21.2453  -26.7021   20.8932 O   0  0  0  0  0  0  0  0  0  1  0  0
  -31.3031  -11.6452   20.3010 F   0  0  0  0  0  0  0  0  0  0  0  0
  -28.3775  -13.2182   16.9287 F   0  0  0  0  0  0  0  0  0  0  0  0
  1  2  1  0  0  0  0
  1  5  2  0  0  0  0
  2  6  2  0  0  0  0
  3  8  2  0  0  0  0
  3 16  1  0  0  0  0
  4  9  1  0  0  0  0
  4 16  2  0  0  0  0
  5 18  1  0  0  0  0
  6 20  1  0  0  0  0
  7 10  2  0  0  0  0
  7 19  1  0  0  0  0
  8 23  1  0  0  0  0
  9 23  2  0  0  0  0
 10 24  1  0  0  0  0
 11 12  2  0  0  0  0
 11 25  1  0  0  0  0
 12 26  1  0  0  0  0
 13 21  1  0  0  0  0
 13 24  2  0  0  0  0
 14 26  2  0  0  0  0
 14 27  1  0  0  0  0
 15 22  2  0  0  0  0
 15 67  1  0  0  0  0
 16 28  1  0  0  0  0
 17 28  1  0  0  0  0
 17 30  2  0  0  0  0
 17 31  1  0  0  0  0
 18 20  2  0  0  0  0
 18 36  1  0  0  0  0
 19 21  2  0  0  0  0
 19 37  1  0  0  0  0
 20 45  1  0  0  0  0
 21 38  1  0  0  0  0
 22 29  1  0  0  0  0
 22 56  1  0  0  0  0
 23 81  1  0  0  0  0
 24 82  1  0  0  0  0
 25 27  2  0  0  0  0
 25 81  1  0  0  0  0
 26 83  1  0  0  0  0
 27 84  1  0  0  0  0
 28 65  2  0  0  0  0
 29 48  1  0  0  0  0
 29 66  2  0  0  0  0
 30 68  1  0  0  0  0
 30 71  1  0  0  0  0
 31 72  1  0  0  0  0
 31 76  2  0  0  0  0
 32 46  1  0  0  0  0
 32 73  1  0  0  0  0
 32 77  2  0  0  0  0
 33 60  1  0  0  0  0
 33 70  1  0  0  0  0
 33 78  2  0  0  0  0
 34 61  1  0  0  0  0
 34 69  1  0  0  0  0
 34 79  2  0  0  0  0
 35 62  1  0  0  0  0
 35 74  1  0  0  0  0
 35 80  2  0  0  0  0
 36 39  1  0  0  0  0
 37 46  1  0  0  0  0
 38 69  1  0  0  0  0
 39 41  1  0  0  0  0
 40 42  1  0  0  0  0
 40 43  1  0  0  0  0
 41 45  1  0  0  0  0
 42 47  1  0  0  0  0
 43 70  1  0  0  0  0
 44 47  1  0  0  0  0
 44 70  1  0  0  0  0
 45 73  1  0  0  0  0
 46 69  1  0  0  0  0
 47 68  1  0  0  0  0
 49 62  1  0  0  0  0
 50 63  1  0  0  0  0
 51 63  1  0  0  0  0
 52 64  1  0  0  0  0
 53 64  1  0  0  0  0
 54 64  1  0  0  0  0
 55 75  1  0  0  0  0
 56 57  1  0  0  0  0
 57 58  1  0  0  0  0
 58 59  1  0  0  0  0
 59 82  1  0  0  0  0
 60 63  1  0  0  0  0
 60 67  1  0  0  0  0
 61 64  1  0  0  0  0
 61 74  1  0  0  0  0
 62 75  1  0  0  0  0
 65 68  1  0  0  0  0
 66 67  1  0  0  0  0
M  CHG  1  75   1
M  ISO  4  33 100  59 101  60 100  82 101
M  END
> <Batch ID>
0077

> <Smiles>
CNC(C)C(=O)NC(C(=O)N1Cc2cc([101O:1][101CH2:1]CCCc3cn([100CH:0](C(C)C)[100C:0](=O)N4CCCC(n5nc(-c6ccc(Oc7ccc(F)cc7F)cc6)c(C(N)=O)c5N)C4)nc3C)ccc2CC1C(=O)NC1CCCc2ccccc21)C(C)(C)C

> <Shape>
0.217

> <Color>
0.069

> <Negative vol penalty>
0.000

$$$$

  -OEChem-04052318373D

 84 92  0     1  0  0  0  0  0999 V2000
  -37.6403  -28.9990   16.4117 C   0  0  0  0  0  0  0  0  0  0  0  0
  -37.2017  -28.2344   17.4880 C   0  0  0  0  0  0  0  0  0  0  0  0
  -23.0686   -9.8880   19.9192 C   0  0  0  0  0  0  0  0  0  0  0  0
  -23.8414   -9.8527   22.2080 C   0  0  0  0  0  0  0  0  0  0  0  0
  -36.7662  -29.2954   15.3666 C   0  0  0  0  0  0  0  0  0  0  0  0
  -35.8885  -27.7666   17.5204 C   0  0  0  0  0  0  0  0  0  0  0  0
  -35.5902  -22.9104   18.9249 C   0  0  0  0  0  0  0  0  0  0  0  0
  -22.3270   -8.7298   20.1517 C   0  0  0  0  0  0  0  0  0  0  0  0
  -23.0998   -8.6944   22.4405 C   0  0  0  0  0  0  0  0  0  0  0  0
  -35.7152  -22.6321   20.2853 C   0  0  0  0  0  0  0  0  0  0  0  0
  -20.5149   -5.5789   20.0444 C   0  0  0  0  0  0  0  0  0  0  0  0
  -20.5736   -4.5663   19.0870 C   0  0  0  0  0  0  0  0  0  0  0  0
  -33.3166  -22.4463   20.4615 C   0  0  0  0  0  0  0  0  0  0  0  0
  -22.9604   -4.3917   19.4182 C   0  0  0  0  0  0  0  0  0  0  0  0
  -23.8259  -10.4495   20.9474 C   0  0  0  0  0  0  0  0  0  0  0  0
  -24.1652  -12.9767   20.8728 C   0  0  0  0  0  0  0  0  0  0  0  0
  -35.4445  -28.8229   15.3816 C   0  0  0  0  0  0  0  0  0  0  0  0
  -34.3247  -22.9695   18.3238 C   0  0  0  0  0  0  0  0  0  0  0  0
  -34.9956  -28.0581   16.4752 C   0  0  0  0  0  0  0  0  0  0  0  0
  -33.1784  -22.7229   19.0928 C   0  0  0  0  0  0  0  0  0  0  0  0
  -32.6794  -17.7172   23.4754 C   0  0  0  0  0  0  0  0  0  0  0  0
  -22.3426   -8.1330   21.4123 C   0  0  0  0  0  0  0  0  0  0  0  0
  -34.5782  -22.4029   21.0545 C   0  0  0  0  0  0  0  0  0  0  0  0
  -21.6789   -5.9980   20.6887 C   0  0  0  0  0  0  0  0  0  0  0  0
  -21.7964   -3.9726   18.7739 C   0  0  0  0  0  0  0  0  0  0  0  0
  -22.9017   -5.4044   20.3756 C   0  0  0  0  0  0  0  0  0  0  0  0
  -24.5927  -11.6456   20.7077 C   0  0  0  0  0  0  0  0  0  0  0  0
  -34.0251  -17.4163   23.5319 C   0  0  0  0  0  0  0  0  0  0  0  0
  -32.3588  -19.0505   23.6292 C   0  0  0  0  0  0  0  0  0  0  0  0
  -25.2548  -13.7338   20.5175 C   0  0  0  0  0  0  0  0  0  0  0  0
  -34.5517  -19.6033   23.8593 C   0  0  0  0  0  0  0  0  0  0  0  0
  -22.8968  -13.4835   21.3084 C   0  0  0  0  0  0  0  0  0  0  0  0
  -32.6501  -25.2262   16.8383 C   0  0  0  0  0  0  0  0  0  0  0  0
  -30.5933  -22.7820   16.2746 C   0  0  0  0  0  0  0  0  0  0  0  0
  -29.4094  -19.7189   17.2035 C   0  0  0  0  0  0  0  0  0  0  0  0
  -30.7388  -14.7536   20.6942 C   0  0  0  0  0  0  0  0  0  0  0  0
  -34.5228  -29.2088   14.2519 C   0  0  0  0  0  0  0  0  0  0  0  0
  -34.2084  -23.2444   16.8496 C   0  0  0  0  0  0  0  0  0  0  0  0
  -31.7979  -22.7547   18.4912 C   0  0  0  0  0  0  0  0  0  0  0  0
  -33.2558  -28.3601   14.1825 C   0  0  0  0  0  0  0  0  0  0  0  0
  -29.5895  -12.4133   18.2695 C   0  0  0  0  0  0  0  0  0  0  0  0
  -32.6304  -28.2203   15.5668 C   0  0  0  0  0  0  0  0  0  0  0  0
  -28.1547  -12.1104   18.7049 C   0  0  0  0  0  0  0  0  0  0  0  0
  -30.5132  -12.6124   19.4692 C   0  0  0  0  0  0  0  0  0  0  0  0
  -28.6187  -13.3158   20.8799 C   0  0  0  0  0  0  0  0  0  0  0  0
  -33.5856  -27.5117   16.5347 C   0  0  1  0  0  0  0  0  0  0  0  0
  -32.8401  -23.7874   16.4492 C   0  0  1  0  0  0  0  0  0  0  0  0
  -27.6381  -13.1625   19.7047 C   0  0  2  0  0  0  0  0  0  0  0  0
  -34.4916  -16.0060   23.3780 C   0  0  0  0  0  0  0  0  0  0  0  0
  -30.9342  -19.4961   23.5873 C   0  0  0  0  0  0  0  0  0  0  0  0
  -30.6854  -16.5487   24.4665 C   0  0  0  0  0  0  0  0  0  0  0  0
  -27.7006  -17.9931   16.5720 C   0  0  0  0  0  0  0  0  0  0  0  0
  -28.3965  -24.5155   17.4909 C   0  0  0  0  0  0  0  0  0  0  0  0
  -26.9880  -22.4570   17.7067 C   0  0  0  0  0  0  0  0  0  0  0  0
  -27.7105  -23.2410   15.4515 C   0  0  0  0  0  0  0  0  0  0  0  0
  -31.4893  -17.6723   16.7092 C   0  0  0  0  0  0  0  0  0  0  0  0
  -35.6043  -20.6639   24.0723 C   0  0  0  0  0  0  0  0  0  0  0  0
  -30.8100  -16.8807   21.9708 C   0  0  0  0  0  0  0  0  0  0  0  0
  -35.8857  -21.4642   22.8052 C   0  0  0  0  0  0  0  0  0  1  0  0
  -31.6427  -16.6722   23.2609 C   0  0  1  0  0  0  0  0  0  0  0  0
  -29.4095  -22.1915   17.0020 C   0  0  1  0  0  0  0  0  0  0  0  0
  -29.1385  -18.4584   16.4022 C   0  0  2  0  0  0  0  0  0  0  0  0
  -28.1519  -23.1025   16.9248 C   0  0  0  0  0  0  0  0  0  0  0  0
  -25.8552  -11.5587   20.2806 N   0  0  0  0  0  0  0  0  0  0  0  0
  -34.9918  -18.3378   23.7232 N   0  0  0  0  0  0  0  0  0  0  0  0
  -33.2728  -20.0237   23.8237 N   0  0  0  0  0  0  0  0  0  0  0  0
  -26.2305  -12.8447   20.1742 N   0  0  0  0  0  0  0  0  0  0  0  0
  -31.7359  -23.0340   17.0470 N   0  0  0  0  0  0  0  0  0  0  0  0
  -29.9669  -13.6237   20.3774 N   0  0  0  0  0  0  0  0  0  0  0  0
  -25.4638  -15.0665   20.4683 N   0  0  0  0  0  0  0  0  0  0  0  0
  -21.8874  -12.5674   21.6342 N   0  0  0  0  0  0  0  0  0  0  0  0
  -33.5846  -26.0850   16.2918 N   0  0  0  0  0  0  0  0  0  0  0  0
  -29.2148  -20.8560   16.4482 N   0  0  0  0  0  0  0  0  0  0  0  0
  -30.1437  -15.6660   21.5568 N   0  0  0  0  0  0  0  0  0  0  0  0
  -30.0433  -17.3595   16.8436 N   0  3  0  0  0  0  0  0  0  0  0  0
  -22.6599  -14.7127   21.3901 O   0  0  0  0  0  0  0  0  0  0  0  0
  -31.7233  -25.5346   17.5784 O   0  0  0  0  0  0  0  0  0  0  0  0
  -30.5096  -23.0047   15.0642 O   0  0  0  0  0  0  0  0  0  0  0  0
  -29.7552  -19.6972   18.3827 O   0  0  0  0  0  0  0  0  0  0  0  0
  -31.8720  -14.9385   20.2375 O   0  0  0  0  0  0  0  0  0  0  0  0
  -21.6188   -7.0029   21.6396 O   0  0  0  0  0  0  0  0  0  0  0  0
  -34.6973  -22.1318   22.3827 O   0  0  0  0  0  0  0  0  0  1  0  0
  -21.8524   -2.9992   17.8555 F   0  0  0  0  0  0  0  0  0  0  0  0
  -24.0232   -5.8019   20.9921 F   0  0  0  0  0  0  0  0  0  0  0  0
  1  2  1  0  0  0  0
  1  5  2  0  0  0  0
  2  6  2  0  0  0  0
  3  8  2  0  0  0  0
  3 15  1  0  0  0  0
  4  9  1  0  0  0  0
  4 15  2  0  0  0  0
  5 17  1  0  0  0  0
  6 19  1  0  0  0  0
  7 10  2  0  0  0  0
  7 18  1  0  0  0  0
  8 22  1  0  0  0  0
  9 22  2  0  0  0  0
 10 23  1  0  0  0  0
 11 12  2  0  0  0  0
 11 24  1  0  0  0  0
 12 25  1  0  0  0  0
 13 20  1  0  0  0  0
 13 23  2  0  0  0  0
 14 25  2  0  0  0  0
 14 26  1  0  0  0  0
 15 27  1  0  0  0  0
 16 27  1  0  0  0  0
 16 30  2  0  0  0  0
 16 32  1  0  0  0  0
 17 19  2  0  0  0  0
 17 37  1  0  0  0  0
 18 20  2  0  0  0  0
 18 38  1  0  0  0  0
 19 46  1  0  0  0  0
 20 39  1  0  0  0  0
 21 28  1  0  0  0  0
 21 29  2  0  0  0  0
 21 60  1  0  0  0  0
 22 81  1  0  0  0  0
 23 82  1  0  0  0  0
 24 26  2  0  0  0  0
 24 81  1  0  0  0  0
 25 83  1  0  0  0  0
 26 84  1  0  0  0  0
 27 64  2  0  0  0  0
 28 49  1  0  0  0  0
 28 65  2  0  0  0  0
 29 50  1  0  0  0  0
 29 66  1  0  0  0  0
 30 67  1  0  0  0  0
 30 70  1  0  0  0  0
 31 57  1  0  0  0  0
 31 65  1  0  0  0  0
 31 66  2  0  0  0  0
 32 71  1  0  0  0  0
 32 76  2  0  0  0  0
 33 47  1  0  0  0  0
 33 72  1  0  0  0  0
 33 77  2  0  0  0  0
 34 61  1  0  0  0  0
 34 68  1  0  0  0  0
 34 78  2  0  0  0  0
 35 62  1  0  0  0  0
 35 73  1  0  0  0  0
 35 79  2  0  0  0  0
 36 69  1  0  0  0  0
 36 74  1  0  0  0  0
 36 80  2  0  0  0  0
 37 40  1  0  0  0  0
 38 47  1  0  0  0  0
 39 68  1  0  0  0  0
 40 42  1  0  0  0  0
 41 43  1  0  0  0  0
 41 44  1  0  0  0  0
 42 46  1  0  0  0  0
 43 48  1  0  0  0  0
 44 69  1  0  0  0  0
 45 48  1  0  0  0  0
 45 69  1  0  0  0  0
 46 72  1  0  0  0  0
 47 68  1  0  0  0  0
 48 67  1  0  0  0  0
 51 60  1  0  0  0  0
 52 62  1  0  0  0  0
 53 63  1  0  0  0  0
 54 63  1  0  0  0  0
 55 63  1  0  0  0  0
 56 75  1  0  0  0  0
 57 59  1  0  0  0  0
 58 60  1  0  0  0  0
 58 74  1  0  0  0  0
 59 82  1  0  0  0  0
 61 63  1  0  0  0  0
 61 73  1  0  0  0  0
 62 75  1  0  0  0  0
 64 67  1  0  0  0  0
M  CHG  1  75   1
M  ISO  4  36 100  59 101  74 100  82 101
M  END
> <Batch ID>
0077

> <Smiles>
CNC(C)C(=O)NC(C(=O)N1Cc2cc([101O:1][101CH2:1]Cc3nc(C)c(C(C)C[100NH:0][100C:0](=O)N4CCCC(n5nc(-c6ccc(Oc7ccc(F)cc7F)cc6)c(C(N)=O)c5N)C4)c(C)n3)ccc2CC1C(=O)NC1CCCc2ccccc21)C(C)(C)C

> <Shape>
0.174

> <Color>
0.188

> <Negative vol penalty>
0.000

$$$$

  -OEChem-04052318373D

 85 93  0     1  0  0  0  0  0999 V2000
  -27.4095  -31.7440   26.8227 C   0  0  0  0  0  0  0  0  0  0  0  0
  -27.0395  -30.4754   27.2577 C   0  0  0  0  0  0  0  0  0  0  0  0
  -23.1952   -9.8821   21.4216 C   0  0  0  0  0  0  0  0  0  0  0  0
  -23.9543  -10.7569   23.5419 C   0  0  0  0  0  0  0  0  0  0  0  0
  -26.9193  -32.2356   25.6136 C   0  0  0  0  0  0  0  0  0  0  0  0
  -26.1780  -29.6981   26.4844 C   0  0  0  0  0  0  0  0  0  0  0  0
  -26.2768  -23.6068   25.8588 C   0  0  0  0  0  0  0  0  0  0  0  0
  -22.5085   -8.8663   22.0866 C   0  0  0  0  0  0  0  0  0  0  0  0
  -23.2675   -9.7411   24.2069 C   0  0  0  0  0  0  0  0  0  0  0  0
  -25.5396  -22.5897   26.4636 C   0  0  0  0  0  0  0  0  0  0  0  0
  -20.8499   -5.8310   23.2089 C   0  0  0  0  0  0  0  0  0  0  0  0
  -20.9631   -4.5341   22.7082 C   0  0  0  0  0  0  0  0  0  0  0  0
  -24.0277  -22.5761   24.5839 C   0  0  0  0  0  0  0  0  0  0  0  0
  -23.3534   -4.6103   23.0513 C   0  0  0  0  0  0  0  0  0  0  0  0
  -26.9246  -18.4633   24.1218 C   0  0  0  0  0  0  0  0  0  0  0  0
  -23.9182  -10.8274   22.1493 C   0  0  0  0  0  0  0  0  0  0  0  0
  -24.1367  -13.1487   21.1144 C   0  0  0  0  0  0  0  0  0  0  0  0
  -26.0590  -31.4601   24.8204 C   0  0  0  0  0  0  0  0  0  0  0  0
  -25.8881  -24.1246   24.6149 C   0  0  0  0  0  0  0  0  0  0  0  0
  -25.6747  -30.1803   25.2642 C   0  0  0  0  0  0  0  0  0  0  0  0
  -24.7632  -23.5979   23.9643 C   0  0  0  0  0  0  0  0  0  0  0  0
  -22.5446   -8.7958   23.4792 C   0  0  0  0  0  0  0  0  0  0  0  0
  -24.4132  -22.0761   25.8275 C   0  0  0  0  0  0  0  0  0  0  0  0
  -21.9885   -6.5177   23.6308 C   0  0  0  0  0  0  0  0  0  0  0  0
  -22.2149   -3.9237   22.6295 C   0  0  0  0  0  0  0  0  0  0  0  0
  -23.2402   -5.9073   23.5520 C   0  0  0  0  0  0  0  0  0  0  0  0
  -24.6284  -11.8765   21.4630 C   0  0  0  0  0  0  0  0  0  0  0  0
  -26.6940  -17.3535   23.3391 C   0  0  0  0  0  0  0  0  0  0  0  0
  -24.9097  -16.7953   24.6562 C   0  0  0  0  0  0  0  0  0  0  0  0
  -25.1409  -17.9048   25.4393 C   0  0  0  0  0  0  0  0  0  0  0  0
  -25.1909  -13.7635   20.4843 C   0  0  0  0  0  0  0  0  0  0  0  0
  -22.8426  -13.7234   21.3400 C   0  0  0  0  0  0  0  0  0  0  0  0
  -24.9645  -26.9782   23.5627 C   0  0  0  0  0  0  0  0  0  0  0  0
  -25.0764  -25.5152   20.6697 C   0  0  0  0  0  0  0  0  0  0  0  0
  -24.9559  -22.6077   18.8869 C   0  0  0  0  0  0  0  0  0  0  0  0
  -31.0794  -13.7472   21.1241 C   0  0  0  0  0  0  0  0  0  0  0  0
  -25.5172  -32.0529   23.5438 C   0  0  0  0  0  0  0  0  0  0  0  0
  -26.7094  -25.2032   23.9635 C   0  0  0  0  0  0  0  0  0  0  0  0
  -24.3155  -24.1053   22.6187 C   0  0  0  0  0  0  0  0  0  0  0  0
  -24.9065  -31.0176   22.6027 C   0  0  0  0  0  0  0  0  0  0  0  0
  -29.3136  -12.2236   18.2498 C   0  0  0  0  0  0  0  0  0  0  0  0
  -23.9862  -30.0747   23.3712 C   0  0  0  0  0  0  0  0  0  0  0  0
  -27.8972  -12.0355   18.7906 C   0  0  0  0  0  0  0  0  0  0  0  0
  -30.3564  -12.1771   19.3624 C   0  0  0  0  0  0  0  0  0  0  0  0
  -28.6828  -12.9496   21.0105 C   0  0  0  0  0  0  0  0  0  0  0  0
  -24.7619  -29.2972   24.4413 C   0  0  1  0  0  0  0  0  0  0  0  0
  -25.9261  -26.0105   22.9329 C   0  0  1  0  0  0  0  0  0  0  0  0
  -27.6039  -13.0377   19.9206 C   0  0  2  0  0  0  0  0  0  0  0  0
  -23.7868  -15.8592   24.9469 C   0  0  0  0  0  0  0  0  0  0  0  0
  -25.0370  -21.7336   16.5359 C   0  0  0  0  0  0  0  0  0  0  0  0
  -22.2057  -26.4494   20.2261 C   0  0  0  0  0  0  0  0  0  0  0  0
  -22.0280  -24.7900   18.3597 C   0  0  0  0  0  0  0  0  0  0  0  0
  -23.6885  -26.6464   18.2218 C   0  0  0  0  0  0  0  0  0  0  0  0
  -31.8824  -15.7357   22.3410 C   0  0  0  0  0  0  0  0  0  0  0  0
  -27.3900  -21.0171   19.4387 C   0  0  0  0  0  0  0  0  0  0  0  0
  -27.5686  -17.0578   22.1714 C   0  0  0  0  0  0  0  0  0  0  0  0
  -24.2689  -18.2241   26.6273 C   0  0  0  0  0  0  0  0  0  0  0  0
  -28.7908  -16.1733   22.4938 C   0  0  0  0  0  0  0  0  0  0  0  0
  -22.9109  -18.8210   26.2517 C   0  0  0  0  0  0  0  0  0  0  0  0
  -29.6563  -15.8335   21.2824 C   0  0  0  0  0  0  0  0  0  0  0  0
  -23.0174  -20.1705   25.5511 C   0  0  0  0  0  0  0  0  0  1  0  0
  -24.0956  -24.7361   19.8270 C   0  0  1  0  0  0  0  0  0  0  0  0
  -25.8442  -22.0666   17.7811 C   0  0  2  0  0  0  0  0  0  0  0  0
  -23.0115  -25.6470   19.1849 C   0  0  0  0  0  0  0  0  0  0  0  0
  -26.1522  -18.7588   25.1860 N   0  0  0  0  0  0  0  0  0  0  0  0
  -25.8963  -11.6926   21.0855 N   0  0  0  0  0  0  0  0  0  0  0  0
  -25.6824  -16.4996   23.5922 N   0  0  0  0  0  0  0  0  0  0  0  0
  -26.2102  -12.8573   20.4931 N   0  0  0  0  0  0  0  0  0  0  0  0
  -25.1478  -25.1649   22.0254 N   0  0  0  0  0  0  0  0  0  0  0  0
  -30.0303  -13.1080   20.4433 N   0  0  0  0  0  0  0  0  0  0  0  0
  -25.3363  -14.9853   19.9290 N   0  0  0  0  0  0  0  0  0  0  0  0
  -21.8763  -12.9543   22.0025 N   0  0  0  0  0  0  0  0  0  0  0  0
  -25.5119  -28.2170   23.8371 N   0  0  0  0  0  0  0  0  0  0  0  0
  -24.8923  -23.9848   18.8631 N   0  0  0  0  0  0  0  0  0  0  0  0
  -30.8225  -15.0276   21.6372 N   0  0  0  0  0  0  0  0  0  0  0  0
  -26.5404  -20.8295   18.2345 N   0  3  0  0  0  0  0  0  0  0  0  0
  -22.5467  -14.8786   20.9508 O   0  0  0  0  0  0  0  0  0  0  0  0
  -23.8110  -26.6275   23.7820 O   0  0  0  0  0  0  0  0  0  0  0  0
  -25.7592  -26.3971   20.1429 O   0  0  0  0  0  0  0  0  0  0  0  0
  -24.3736  -21.8811   19.6891 O   0  0  0  0  0  0  0  0  0  0  0  0
  -32.1857  -13.2083   21.2570 O   0  0  0  0  0  0  0  0  0  0  0  0
  -21.8743   -7.8049   24.1284 O   0  0  0  0  0  0  0  0  0  0  0  0
  -23.6915  -21.0838   26.4159 O   0  0  0  0  0  0  0  0  0  1  0  0
  -22.3232   -2.6777   22.1501 F   0  0  0  0  0  0  0  0  0  0  0  0
  -24.3375   -6.5615   23.9569 F   0  0  0  0  0  0  0  0  0  0  0  0
  1  2  1  0  0  0  0
  1  5  2  0  0  0  0
  2  6  2  0  0  0  0
  3  8  2  0  0  0  0
  3 16  1  0  0  0  0
  4  9  1  0  0  0  0
  4 16  2  0  0  0  0
  5 18  1  0  0  0  0
  6 20  1  0  0  0  0
  7 10  2  0  0  0  0
  7 19  1  0  0  0  0
  8 22  1  0  0  0  0
  9 22  2  0  0  0  0
 10 23  1  0  0  0  0
 11 12  2  0  0  0  0
 11 24  1  0  0  0  0
 12 25  1  0  0  0  0
 13 21  1  0  0  0  0
 13 23  2  0  0  0  0
 14 25  2  0  0  0  0
 14 26  1  0  0  0  0
 15 28  1  0  0  0  0
 15 65  2  0  0  0  0
 16 27  1  0  0  0  0
 17 27  1  0  0  0  0
 17 31  2  0  0  0  0
 17 32  1  0  0  0  0
 18 20  2  0  0  0  0
 18 37  1  0  0  0  0
 19 21  2  0  0  0  0
 19 38  1  0  0  0  0
 20 46  1  0  0  0  0
 21 39  1  0  0  0  0
 22 82  1  0  0  0  0
 23 83  1  0  0  0  0
 24 26  2  0  0  0  0
 24 82  1  0  0  0  0
 25 84  1  0  0  0  0
 26 85  1  0  0  0  0
 27 66  2  0  0  0  0
 28 56  1  0  0  0  0
 28 67  2  0  0  0  0
 29 30  2  0  0  0  0
 29 49  1  0  0  0  0
 29 67  1  0  0  0  0
 30 57  1  0  0  0  0
 30 65  1  0  0  0  0
 31 68  1  0  0  0  0
 31 71  1  0  0  0  0
 32 72  1  0  0  0  0
 32 77  2  0  0  0  0
 33 47  1  0  0  0  0
 33 73  1  0  0  0  0
 33 78  2  0  0  0  0
 34 62  1  0  0  0  0
 34 69  1  0  0  0  0
 34 79  2  0  0  0  0
 35 63  1  0  0  0  0
 35 74  1  0  0  0  0
 35 80  2  0  0  0  0
 36 70  1  0  0  0  0
 36 75  1  0  0  0  0
 36 81  2  0  0  0  0
 37 40  1  0  0  0  0
 38 47  1  0  0  0  0
 39 69  1  0  0  0  0
 40 42  1  0  0  0  0
 41 43  1  0  0  0  0
 41 44  1  0  0  0  0
 42 46  1  0  0  0  0
 43 48  1  0  0  0  0
 44 70  1  0  0  0  0
 45 48  1  0  0  0  0
 45 70  1  0  0  0  0
 46 73  1  0  0  0  0
 47 69  1  0  0  0  0
 48 68  1  0  0  0  0
 50 63  1  0  0  0  0
 51 64  1  0  0  0  0
 52 64  1  0  0  0  0
 53 64  1  0  0  0  0
 54 75  1  0  0  0  0
 55 76  1  0  0  0  0
 56 58  1  0  0  0  0
 57 59  1  0  0  0  0
 58 60  1  0  0  0  0
 59 61  1  0  0  0  0
 60 75  1  0  0  0  0
 61 83  1  0  0  0  0
 62 64  1  0  0  0  0
 62 74  1  0  0  0  0
 63 76  1  0  0  0  0
 66 68  1  0  0  0  0
M  CHG  1  76   1
M  ISO  4  36 100  61 101  75 100  83 101
M  END
> <Batch ID>
0077

> <Smiles>
CNC(C)C(=O)NC(C(=O)N1Cc2cc([101O:1][101CH2:1]CCc3ncc(CCC[100N:0](C)[100C:0](=O)N4CCCC(n5nc(-c6ccc(Oc7ccc(F)cc7F)cc6)c(C(N)=O)c5N)C4)nc3C)ccc2CC1C(=O)NC1CCCc2ccccc21)C(C)(C)C

> <Shape>
0.221

> <Color>
0.138

> <Negative vol penalty>
0.000

$$$$

  -OEChem-04052318373D

 82 90  0     1  0  0  0  0  0999 V2000
  -24.3600  -30.5541   22.2132 C   0  0  0  0  0  0  0  0  0  0  0  0
  -23.6214  -29.4086   21.9344 C   0  0  0  0  0  0  0  0  0  0  0  0
  -24.3811  -12.2024   21.3541 C   0  0  0  0  0  0  0  0  0  0  0  0
  -25.1261  -14.3015   20.4183 C   0  0  0  0  0  0  0  0  0  0  0  0
  -25.5529  -30.7957   21.5332 C   0  0  0  0  0  0  0  0  0  0  0  0
  -24.0748  -28.5045   20.9744 C   0  0  0  0  0  0  0  0  0  0  0  0
  -23.7064  -23.6929   22.5099 C   0  0  0  0  0  0  0  0  0  0  0  0
  -25.6036  -11.6196   21.0202 C   0  0  0  0  0  0  0  0  0  0  0  0
  -26.3486  -13.7188   20.0844 C   0  0  0  0  0  0  0  0  0  0  0  0
  -22.4441  -23.1031   22.4587 C   0  0  0  0  0  0  0  0  0  0  0  0
  -29.2219  -12.8872   21.6572 C   0  0  0  0  0  0  0  0  0  0  0  0
  -30.3813  -13.6082   21.9428 C   0  0  0  0  0  0  0  0  0  0  0  0
  -23.0450  -22.0104   20.3937 C   0  0  0  0  0  0  0  0  0  0  0  0
  -30.9615  -13.6043   19.5975 C   0  0  0  0  0  0  0  0  0  0  0  0
  -24.1423  -13.5433   21.0531 C   0  0  0  0  0  0  0  0  0  0  0  0
  -22.5490  -14.7992   22.5995 C   0  0  0  0  0  0  0  0  0  0  0  0
  -26.0260  -29.8893   20.5713 C   0  0  0  0  0  0  0  0  0  0  0  0
  -24.6452  -23.4541   21.4960 C   0  0  0  0  0  0  0  0  0  0  0  0
  -25.2745  -28.7349   20.2799 C   0  0  0  0  0  0  0  0  0  0  0  0
  -24.3194  -22.5963   20.4357 C   0  0  0  0  0  0  0  0  0  0  0  0
  -26.5874  -12.3778   20.3854 C   0  0  0  0  0  0  0  0  0  0  0  0
  -22.1122  -22.2640   21.3991 C   0  0  0  0  0  0  0  0  0  0  0  0
  -28.9323  -12.5247   20.3417 C   0  0  0  0  0  0  0  0  0  0  0  0
  -31.2511  -13.9667   20.9130 C   0  0  0  0  0  0  0  0  0  0  0  0
  -29.8021  -12.8832   19.3119 C   0  0  0  0  0  0  0  0  0  0  0  0
  -22.8795  -14.1457   21.3973 C   0  0  0  0  0  0  0  0  0  0  0  0
  -16.4789  -21.3473   18.2493 C   0  0  0  0  0  0  0  0  0  0  0  0
  -17.0167  -20.3778   19.0626 C   0  0  0  0  0  0  0  0  0  0  0  0
  -21.2427  -15.1886   22.4308 C   0  0  0  0  0  0  0  0  0  0  0  0
  -17.5716  -20.0597   16.9537 C   0  0  0  0  0  0  0  0  0  0  0  0
  -23.3510  -15.0335   23.7647 C   0  0  0  0  0  0  0  0  0  0  0  0
  -26.1499  -25.2649   19.3604 C   0  0  0  0  0  0  0  0  0  0  0  0
  -17.7255  -17.1222   18.2311 C   0  0  0  0  0  0  0  0  0  0  0  0
  -27.7362  -22.5090   18.7192 C   0  0  0  0  0  0  0  0  0  0  0  0
  -27.7679  -19.0975   18.8036 C   0  0  0  0  0  0  0  0  0  0  0  0
  -27.2969  -30.2170   19.8283 C   0  0  0  0  0  0  0  0  0  0  0  0
  -26.0118  -24.0767   21.5797 C   0  0  0  0  0  0  0  0  0  0  0  0
  -25.2986  -22.2915   19.3327 C   0  0  0  0  0  0  0  0  0  0  0  0
  -27.8985  -29.0216   19.0936 C   0  0  0  0  0  0  0  0  0  0  0  0
  -17.5271  -13.7785   19.5040 C   0  0  0  0  0  0  0  0  0  0  0  0
  -26.8189  -28.2730   18.3185 C   0  0  0  0  0  0  0  0  0  0  0  0
  -18.8674  -13.5837   20.2116 C   0  0  0  0  0  0  0  0  0  0  0  0
  -17.6736  -14.6502   18.2607 C   0  0  0  0  0  0  0  0  0  0  0  0
  -19.6468  -15.7864   19.2290 C   0  0  0  0  0  0  0  0  0  0  0  0
  -25.7459  -27.7181   19.2631 C   0  0  1  0  0  0  0  0  0  0  0  0
  -26.7092  -24.1715   20.2261 C   0  0  1  0  0  0  0  0  0  0  0  0
  -19.5381  -14.9369   20.5075 C   0  0  2  0  0  0  0  0  0  0  0  0
  -15.6315  -22.4901   18.6252 C   0  0  0  0  0  0  0  0  0  0  0  0
  -18.2028  -19.4223   15.7796 C   0  0  0  0  0  0  0  0  0  0  0  0
  -29.1848  -17.1245   18.1736 C   0  0  0  0  0  0  0  0  0  0  0  0
  -26.9644  -22.8924   15.7923 C   0  0  0  0  0  0  0  0  0  0  0  0
  -27.5553  -20.4923   15.3944 C   0  0  0  0  0  0  0  0  0  0  0  0
  -29.3068  -22.0961   16.1578 C   0  0  0  0  0  0  0  0  0  0  0  0
  -27.9548  -18.1874   21.6136 C   0  0  0  0  0  0  0  0  0  0  0  0
  -16.9342  -20.1544   20.5516 C   0  0  0  0  0  0  0  0  0  0  0  0
  -18.4655  -18.3846   18.5955 C   0  0  0  0  0  0  0  0  0  0  0  0
  -18.2039  -20.5579   21.3096 C   0  0  0  0  0  0  0  0  0  0  0  0
  -18.5128  -22.0522   21.2074 C   0  0  0  0  0  0  0  0  0  0  0  0
  -19.8004  -22.4081   21.9380 C   0  0  0  0  0  0  0  0  0  1  0  0
  -27.5213  -21.3449   17.7825 C   0  0  1  0  0  0  0  0  0  0  0  0
  -28.8223  -18.1112   19.2726 C   0  0  2  0  0  0  0  0  0  0  0  0
  -27.8176  -21.7135   16.3013 C   0  0  0  0  0  0  0  0  0  0  0  0
  -21.8649  -14.1193   20.5290 N   0  0  0  0  0  0  0  0  0  0  0  0
  -16.8278  -21.1434   16.9377 N   0  0  0  0  0  0  0  0  0  0  0  0
  -17.7136  -19.5600   18.2184 N   0  0  0  0  0  0  0  0  0  0  0  0
  -20.8840  -14.7610   21.1863 N   0  0  0  0  0  0  0  0  0  0  0  0
  -26.6198  -22.9293   19.4560 N   0  0  0  0  0  0  0  0  0  0  0  0
  -18.3351  -15.9168   18.5794 N   0  0  0  0  0  0  0  0  0  0  0  0
  -20.3773  -15.8515   23.2271 N   0  0  0  0  0  0  0  0  0  0  0  0
  -24.6725  -14.5665   23.7710 N   0  0  0  0  0  0  0  0  0  0  0  0
  -26.2245  -26.5237   19.9255 N   0  0  0  0  0  0  0  0  0  0  0  0
  -28.3341  -20.2493   18.2997 N   0  0  0  0  0  0  0  0  0  0  0  0
  -28.3262  -17.3429   20.4492 N   0  3  0  0  0  0  0  0  0  0  0  0
  -22.9039  -15.6246   24.7767 O   0  0  0  0  0  0  0  0  0  0  0  0
  -25.6864  -24.9872   18.2605 O   0  0  0  0  0  0  0  0  0  0  0  0
  -16.6369  -17.2071   17.6567 O   0  0  0  0  0  0  0  0  0  0  0  0
  -28.8552  -23.0218   18.7997 O   0  0  0  0  0  0  0  0  0  0  0  0
  -26.5626  -18.8674   18.8737 O   0  0  0  0  0  0  0  0  0  0  0  0
  -27.7805  -11.8096   20.0596 O   0  0  0  0  0  0  0  0  0  0  0  0
  -20.8807  -21.6875   21.3463 O   0  0  0  0  0  0  0  0  0  1  0  0
  -32.3636  -14.6604   21.1873 F   0  0  0  0  0  0  0  0  0  0  0  0
  -29.5287  -12.5388   18.0460 F   0  0  0  0  0  0  0  0  0  0  0  0
  1  2  1  0  0  0  0
  1  5  2  0  0  0  0
  2  6  2  0  0  0  0
  3  8  2  0  0  0  0
  3 15  1  0  0  0  0
  4  9  1  0  0  0  0
  4 15  2  0  0  0  0
  5 17  1  0  0  0  0
  6 19  1  0  0  0  0
  7 10  2  0  0  0  0
  7 18  1  0  0  0  0
  8 21  1  0  0  0  0
  9 21  2  0  0  0  0
 10 22  1  0  0  0  0
 11 12  2  0  0  0  0
 11 23  1  0  0  0  0
 12 24  1  0  0  0  0
 13 20  1  0  0  0  0
 13 22  2  0  0  0  0
 14 24  2  0  0  0  0
 14 25  1  0  0  0  0
 15 26  1  0  0  0  0
 16 26  1  0  0  0  0
 16 29  2  0  0  0  0
 16 31  1  0  0  0  0
 17 19  2  0  0  0  0
 17 36  1  0  0  0  0
 18 20  2  0  0  0  0
 18 37  1  0  0  0  0
 19 45  1  0  0  0  0
 20 38  1  0  0  0  0
 21 79  1  0  0  0  0
 22 80  1  0  0  0  0
 23 25  2  0  0  0  0
 23 79  1  0  0  0  0
 24 81  1  0  0  0  0
 25 82  1  0  0  0  0
 26 63  2  0  0  0  0
 27 28  2  0  0  0  0
 27 48  1  0  0  0  0
 27 64  1  0  0  0  0
 28 55  1  0  0  0  0
 28 65  1  0  0  0  0
 29 66  1  0  0  0  0
 29 69  1  0  0  0  0
 30 49  1  0  0  0  0
 30 64  2  0  0  0  0
 30 65  1  0  0  0  0
 31 70  1  0  0  0  0
 31 74  2  0  0  0  0
 32 46  1  0  0  0  0
 32 71  1  0  0  0  0
 32 75  2  0  0  0  0
 33 56  1  0  0  0  0
 33 68  1  0  0  0  0
 33 76  2  0  0  0  0
 34 60  1  0  0  0  0
 34 67  1  0  0  0  0
 34 77  2  0  0  0  0
 35 61  1  0  0  0  0
 35 72  1  0  0  0  0
 35 78  2  0  0  0  0
 36 39  1  0  0  0  0
 37 46  1  0  0  0  0
 38 67  1  0  0  0  0
 39 41  1  0  0  0  0
 40 42  1  0  0  0  0
 40 43  1  0  0  0  0
 41 45  1  0  0  0  0
 42 47  1  0  0  0  0
 43 68  1  0  0  0  0
 44 47  1  0  0  0  0
 44 68  1  0  0  0  0
 45 71  1  0  0  0  0
 46 67  1  0  0  0  0
 47 66  1  0  0  0  0
 50 61  1  0  0  0  0
 51 62  1  0  0  0  0
 52 62  1  0  0  0  0
 53 62  1  0  0  0  0
 54 73  1  0  0  0  0
 55 57  1  0  0  0  0
 56 65  1  0  0  0  0
 57 58  1  0  0  0  0
 58 59  1  0  0  0  0
 59 80  1  0  0  0  0
 60 62  1  0  0  0  0
 60 72  1  0  0  0  0
 61 73  1  0  0  0  0
 63 66  1  0  0  0  0
M  CHG  1  73   1
M  ISO  4  33 100  56 100  59 101  80 101
M  END
> <Batch ID>
0077

> <Smiles>
CNC(C)C(=O)NC(C(=O)N1Cc2cc([101O:1][101CH2:1]CCCc3c(C)nc(C)n3[100CH2:0][100C:0](=O)N3CCCC(n4nc(-c5ccc(Oc6ccc(F)cc6F)cc5)c(C(N)=O)c4N)C3)ccc2CC1C(=O)NC1CCCc2ccccc21)C(C)(C)C

> <Shape>
0.177

> <Color>
0.072

> <Negative vol penalty>
0.000

$$$$

  -OEChem-04052318373D

 86 94  0     1  0  0  0  0  0999 V2000
  -38.2093  -23.6746   29.3572 C   0  0  0  0  0  0  0  0  0  0  0  0
  -36.9126  -23.2022   29.1819 C   0  0  0  0  0  0  0  0  0  0  0  0
  -23.0803   -9.8687   19.9355 C   0  0  0  0  0  0  0  0  0  0  0  0
  -23.8456   -9.8688   22.2271 C   0  0  0  0  0  0  0  0  0  0  0  0
  -38.6852  -24.7141   28.5592 C   0  0  0  0  0  0  0  0  0  0  0  0
  -36.0905  -23.7698   28.2090 C   0  0  0  0  0  0  0  0  0  0  0  0
  -31.8737  -20.8990   24.8204 C   0  0  0  0  0  0  0  0  0  0  0  0
  -22.3412   -8.7117   20.1823 C   0  0  0  0  0  0  0  0  0  0  0  0
  -23.1065   -8.7119   22.4740 C   0  0  0  0  0  0  0  0  0  0  0  0
  -30.4891  -20.7890   24.9414 C   0  0  0  0  0  0  0  0  0  0  0  0
  -21.1348   -5.9619   23.8037 C   0  0  0  0  0  0  0  0  0  0  0  0
  -20.3815   -5.9107   24.9765 C   0  0  0  0  0  0  0  0  0  0  0  0
  -30.2146  -22.6246   23.4005 C   0  0  0  0  0  0  0  0  0  0  0  0
  -19.1281   -7.8464   24.2560 C   0  0  0  0  0  0  0  0  0  0  0  0
  -23.8325  -10.4472   20.9578 C   0  0  0  0  0  0  0  0  0  0  0  0
  -24.1648  -12.9741   20.8476 C   0  0  0  0  0  0  0  0  0  0  0  0
  -37.8718  -25.2883   27.5695 C   0  0  0  0  0  0  0  0  0  0  0  0
  -32.4403  -21.8814   23.9956 C   0  0  0  0  0  0  0  0  0  0  0  0
  -36.5555  -24.8189   27.3978 C   0  0  0  0  0  0  0  0  0  0  0  0
  -31.6066  -22.7433   23.2688 C   0  0  0  0  0  0  0  0  0  0  0  0
  -22.3543   -8.1334   21.4516 C   0  0  0  0  0  0  0  0  0  0  0  0
  -29.6594  -21.6537   24.2336 C   0  0  0  0  0  0  0  0  0  0  0  0
  -20.8848   -6.9555   22.8571 C   0  0  0  0  0  0  0  0  0  0  0  0
  -19.3781   -6.8529   25.2027 C   0  0  0  0  0  0  0  0  0  0  0  0
  -19.8814   -7.8977   23.0832 C   0  0  0  0  0  0  0  0  0  0  0  0
  -24.5966  -11.6420   20.7033 C   0  0  0  0  0  0  0  0  0  0  0  0
  -26.4553  -19.0444   20.7079 C   0  0  0  0  0  0  0  0  0  0  0  0
  -27.1472  -19.1437   21.8949 C   0  0  0  0  0  0  0  0  0  0  0  0
  -28.3556  -18.3220   19.6606 C   0  0  0  0  0  0  0  0  0  0  0  0
  -29.0477  -18.4221   20.8474 C   0  0  0  0  0  0  0  0  0  0  0  0
  -25.2533  -13.7291   20.4849 C   0  0  0  0  0  0  0  0  0  0  0  0
  -22.8934  -13.4834   21.2717 C   0  0  0  0  0  0  0  0  0  0  0  0
  -34.3472  -24.3802   24.4680 C   0  0  0  0  0  0  0  0  0  0  0  0
  -34.3003  -24.5347   21.2283 C   0  0  0  0  0  0  0  0  0  0  0  0
  -32.6833  -23.7941   18.3155 C   0  0  0  0  0  0  0  0  0  0  0  0
  -30.7337  -14.7675   20.6647 C   0  0  0  0  0  0  0  0  0  0  0  0
  -38.4143  -26.4416   26.7631 C   0  0  0  0  0  0  0  0  0  0  0  0
  -33.9352  -21.9697   23.8552 C   0  0  0  0  0  0  0  0  0  0  0  0
  -32.1647  -23.8019   22.3541 C   0  0  0  0  0  0  0  0  0  0  0  0
  -37.6061  -26.7365   25.5021 C   0  0  0  0  0  0  0  0  0  0  0  0
  -29.5992  -12.3888   18.2706 C   0  0  0  0  0  0  0  0  0  0  0  0
  -36.1136  -26.7556   25.8168 C   0  0  0  0  0  0  0  0  0  0  0  0
  -28.1639  -12.0880   18.7057 C   0  0  0  0  0  0  0  0  0  0  0  0
  -30.5184  -12.6080   19.4702 C   0  0  0  0  0  0  0  0  0  0  0  0
  -28.6172  -13.3263   20.8643 C   0  0  0  0  0  0  0  0  0  0  0  0
  -35.6419  -25.3922   26.3364 C   0  0  1  0  0  0  0  0  0  0  0  0
  -34.4113  -23.3407   23.3850 C   0  0  1  0  0  0  0  0  0  0  0  0
  -27.6409  -13.1530   19.6883 C   0  0  2  0  0  0  0  0  0  0  0  0
  -25.0080  -19.3892   20.6203 C   0  0  0  0  0  0  0  0  0  0  0  0
  -29.8844  -18.9540   17.7766 C   0  0  0  0  0  0  0  0  0  0  0  0
  -31.3570  -19.2983   21.3199 C   0  0  0  0  0  0  0  0  0  0  0  0
  -32.3121  -23.6084   15.8407 C   0  0  0  0  0  0  0  0  0  0  0  0
  -33.4442  -27.4503   21.5044 C   0  0  0  0  0  0  0  0  0  0  0  0
  -32.7400  -27.3985   19.1024 C   0  0  0  0  0  0  0  0  0  0  0  0
  -35.1308  -27.0240   19.7078 C   0  0  0  0  0  0  0  0  0  0  0  0
  -33.9817  -21.1370   18.2030 C   0  0  0  0  0  0  0  0  0  0  0  0
  -29.0220  -17.8640   18.4085 C   0  0  0  0  0  0  0  0  0  0  0  0
  -26.4726  -19.6058   23.1618 C   0  0  0  0  0  0  0  0  0  0  0  0
  -26.2369  -21.1167   23.2183 C   0  0  0  0  0  0  0  0  0  0  0  0
  -30.7946  -16.9131   21.9104 C   0  0  0  0  0  0  0  0  0  0  0  0
  -27.5265  -21.9293   23.2185 C   0  0  0  0  0  0  0  0  0  1  0  0
  -30.4952  -18.0774   20.9345 C   0  0  1  0  0  0  0  0  0  0  0  0
  -33.4297  -25.2204   20.2031 C   0  0  1  0  0  0  0  0  0  0  0  0
  -33.1770  -23.1825   17.0168 C   0  0  2  0  0  0  0  0  0  0  0  0
  -33.6754  -26.7547   20.1481 C   0  0  0  0  0  0  0  0  0  0  0  0
  -25.8608  -11.5525   20.2816 N   0  0  0  0  0  0  0  0  0  0  0  0
  -27.0471  -18.6317   19.5695 N   0  0  0  0  0  0  0  0  0  0  0  0
  -28.4559  -18.8344   21.9859 N   0  0  0  0  0  0  0  0  0  0  0  0
  -26.2327  -12.8380   20.1578 N   0  0  0  0  0  0  0  0  0  0  0  0
  -33.6327  -23.8525   22.2553 N   0  0  0  0  0  0  0  0  0  0  0  0
  -29.9661  -13.6308   20.3618 N   0  0  0  0  0  0  0  0  0  0  0  0
  -25.4586  -15.0616   20.4170 N   0  0  0  0  0  0  0  0  0  0  0  0
  -21.8856  -12.5691   21.6075 N   0  0  0  0  0  0  0  0  0  0  0  0
  -35.4900  -24.4588   25.2408 N   0  0  0  0  0  0  0  0  0  0  0  0
  -33.6674  -24.5315   18.9393 N   0  0  0  0  0  0  0  0  0  0  0  0
  -30.1331  -15.6906   21.5120 N   0  0  0  0  0  0  0  0  0  0  0  0
  -33.1535  -21.6949   17.1030 N   0  3  0  0  0  0  0  0  0  0  0  0
  -22.6528  -14.7129   21.3347 O   0  0  0  0  0  0  0  0  0  0  0  0
  -33.3363  -25.0616   24.5924 O   0  0  0  0  0  0  0  0  0  0  0  0
  -35.5273  -24.5959   21.1177 O   0  0  0  0  0  0  0  0  0  0  0  0
  -31.5381  -23.6368   18.7330 O   0  0  0  0  0  0  0  0  0  0  0  0
  -31.8679  -14.9490   20.2091 O   0  0  0  0  0  0  0  0  0  0  0  0
  -21.6331   -7.0046   21.6929 O   0  0  0  0  0  0  0  0  0  0  0  0
  -28.3077  -21.5488   24.3504 O   0  0  0  0  0  0  0  0  0  1  0  0
  -18.6537   -6.8026   26.3282 F   0  0  0  0  0  0  0  0  0  0  0  0
  -19.6359   -8.8538   22.1769 F   0  0  0  0  0  0  0  0  0  0  0  0
  1  2  1  0  0  0  0
  1  5  2  0  0  0  0
  2  6  2  0  0  0  0
  3  8  2  0  0  0  0
  3 15  1  0  0  0  0
  4  9  1  0  0  0  0
  4 15  2  0  0  0  0
  5 17  1  0  0  0  0
  6 19  1  0  0  0  0
  7 10  2  0  0  0  0
  7 18  1  0  0  0  0
  8 21  1  0  0  0  0
  9 21  2  0  0  0  0
 10 22  1  0  0  0  0
 11 12  2  0  0  0  0
 11 23  1  0  0  0  0
 12 24  1  0  0  0  0
 13 20  1  0  0  0  0
 13 22  2  0  0  0  0
 14 24  2  0  0  0  0
 14 25  1  0  0  0  0
 15 26  1  0  0  0  0
 16 26  1  0  0  0  0
 16 31  2  0  0  0  0
 16 32  1  0  0  0  0
 17 19  2  0  0  0  0
 17 37  1  0  0  0  0
 18 20  2  0  0  0  0
 18 38  1  0  0  0  0
 19 46  1  0  0  0  0
 20 39  1  0  0  0  0
 21 83  1  0  0  0  0
 22 84  1  0  0  0  0
 23 25  2  0  0  0  0
 23 83  1  0  0  0  0
 24 85  1  0  0  0  0
 25 86  1  0  0  0  0
 26 66  2  0  0  0  0
 27 28  1  0  0  0  0
 27 49  1  0  0  0  0
 27 67  2  0  0  0  0
 28 58  1  0  0  0  0
 28 68  2  0  0  0  0
 29 30  2  0  0  0  0
 29 57  1  0  0  0  0
 29 67  1  0  0  0  0
 30 62  1  0  0  0  0
 30 68  1  0  0  0  0
 31 69  1  0  0  0  0
 31 72  1  0  0  0  0
 32 73  1  0  0  0  0
 32 78  2  0  0  0  0
 33 47  1  0  0  0  0
 33 74  1  0  0  0  0
 33 79  2  0  0  0  0
 34 63  1  0  0  0  0
 34 70  1  0  0  0  0
 34 80  2  0  0  0  0
 35 64  1  0  0  0  0
 35 75  1  0  0  0  0
 35 81  2  0  0  0  0
 36 71  1  0  0  0  0
 36 76  1  0  0  0  0
 36 82  2  0  0  0  0
 37 40  1  0  0  0  0
 38 47  1  0  0  0  0
 39 70  1  0  0  0  0
 40 42  1  0  0  0  0
 41 43  1  0  0  0  0
 41 44  1  0  0  0  0
 42 46  1  0  0  0  0
 43 48  1  0  0  0  0
 44 71  1  0  0  0  0
 45 48  1  0  0  0  0
 45 71  1  0  0  0  0
 46 74  1  0  0  0  0
 47 70  1  0  0  0  0
 48 69  1  0  0  0  0
 50 57  1  0  0  0  0
 51 62  1  0  0  0  0
 52 64  1  0  0  0  0
 53 65  1  0  0  0  0
 54 65  1  0  0  0  0
 55 65  1  0  0  0  0
 56 77  1  0  0  0  0
 58 59  1  0  0  0  0
 59 61  1  0  0  0  0
 60 62  1  0  0  0  0
 60 76  1  0  0  0  0
 61 84  1  0  0  0  0
 63 65  1  0  0  0  0
 63 75  1  0  0  0  0
 64 77  1  0  0  0  0
 66 69  1  0  0  0  0
M  CHG  1  77   1
M  ISO  4  36 100  61 101  76 100  84 101
M  END
> <Batch ID>
0077

> <Smiles>
CCc1nc(C)c(CC[101CH2:1][101O:1]c2ccc3c(c2)CN(C(=O)C(NC(=O)C(C)NC)C(C)(C)C)C(C(=O)NC2CCCc4ccccc42)C3)nc1C(C)C[100NH:0][100C:0](=O)N1CCCC(n2nc(-c3ccc(Oc4ccc(F)cc4F)cc3)c(C(N)=O)c2N)C1

> <Shape>
0.201

> <Color>
0.184

> <Negative vol penalty>
0.000

$$$$

  -OEChem-04052318373D

 86 94  0     1  0  0  0  0  0999 V2000
  -27.7681  -37.0004   24.1224 C   0  0  0  0  0  0  0  0  0  0  0  0
  -28.2878  -35.8301   23.5785 C   0  0  0  0  0  0  0  0  0  0  0  0
  -25.0088  -10.8471   22.5707 C   0  0  0  0  0  0  0  0  0  0  0  0
  -24.9290  -12.5866   24.2454 C   0  0  0  0  0  0  0  0  0  0  0  0
  -26.5694  -36.9649   24.8335 C   0  0  0  0  0  0  0  0  0  0  0  0
  -27.6094  -34.6234   23.7463 C   0  0  0  0  0  0  0  0  0  0  0  0
  -27.2808  -29.9975   19.7464 C   0  0  0  0  0  0  0  0  0  0  0  0
  -24.8772   -9.8808   23.5680 C   0  0  0  0  0  0  0  0  0  0  0  0
  -24.7974  -11.6204   25.2428 C   0  0  0  0  0  0  0  0  0  0  0  0
  -27.9803  -28.7959   19.6424 C   0  0  0  0  0  0  0  0  0  0  0  0
  -22.3965   -8.5716   25.4561 C   0  0  0  0  0  0  0  0  0  0  0  0
  -21.4936   -7.5315   25.2358 C   0  0  0  0  0  0  0  0  0  0  0  0
  -26.2023  -27.6661   20.8178 C   0  0  0  0  0  0  0  0  0  0  0  0
  -27.9907  -21.2372   20.9912 C   0  0  0  0  0  0  0  0  0  0  0  0
  -23.2935   -5.9303   25.4198 C   0  0  0  0  0  0  0  0  0  0  0  0
  -26.0325  -22.3299   21.1942 C   0  0  0  0  0  0  0  0  0  0  0  0
  -25.0347  -12.2000   22.9094 C   0  0  0  0  0  0  0  0  0  0  0  0
  -24.1353  -13.8348   21.1698 C   0  0  0  0  0  0  0  0  0  0  0  0
  -25.8711  -35.7588   25.0020 C   0  0  0  0  0  0  0  0  0  0  0  0
  -26.0398  -30.0445   20.3976 C   0  0  0  0  0  0  0  0  0  0  0  0
  -26.4009  -34.5715   24.4615 C   0  0  0  0  0  0  0  0  0  0  0  0
  -25.4879  -28.8690   20.9265 C   0  0  0  0  0  0  0  0  0  0  0  0
  -27.1308  -22.1807   20.3766 C   0  0  0  0  0  0  0  0  0  0  0  0
  -24.7715  -10.2675   24.9040 C   0  0  0  0  0  0  0  0  0  0  0  0
  -27.4424  -27.6306   20.1807 C   0  0  0  0  0  0  0  0  0  0  0  0
  -23.7479   -8.2912   25.6581 C   0  0  0  0  0  0  0  0  0  0  0  0
  -21.9421   -6.2108   25.2177 C   0  0  0  0  0  0  0  0  0  0  0  0
  -24.1963   -6.9705   25.6400 C   0  0  0  0  0  0  0  0  0  0  0  0
  -25.1712  -13.1986   21.8797 C   0  0  0  0  0  0  0  0  0  0  0  0
  -27.3914  -20.8385   22.1656 C   0  0  0  0  0  0  0  0  0  0  0  0
  -24.7821  -14.6910   20.3125 C   0  0  0  0  0  0  0  0  0  0  0  0
  -22.7154  -13.6669   21.2760 C   0  0  0  0  0  0  0  0  0  0  0  0
  -24.9078  -31.5422   22.9626 C   0  0  0  0  0  0  0  0  0  0  0  0
  -22.0894  -30.2730   21.9788 C   0  0  0  0  0  0  0  0  0  0  0  0
  -20.4636  -27.8410   20.2213 C   0  0  0  0  0  0  0  0  0  0  0  0
  -30.1460  -17.3464   20.4787 C   0  0  0  0  0  0  0  0  0  0  0  0
  -24.6033  -35.7620   25.8189 C   0  0  0  0  0  0  0  0  0  0  0  0
  -25.2855  -31.3434   20.4779 C   0  0  0  0  0  0  0  0  0  0  0  0
  -24.1496  -28.8623   21.6175 C   0  0  0  0  0  0  0  0  0  0  0  0
  -23.7548  -34.5070   25.6315 C   0  0  0  0  0  0  0  0  0  0  0  0
  -28.8980  -15.1999   17.9270 C   0  0  0  0  0  0  0  0  0  0  0  0
  -24.6253  -33.2570   25.7125 C   0  0  0  0  0  0  0  0  0  0  0  0
  -27.7079  -14.5010   18.5866 C   0  0  0  0  0  0  0  0  0  0  0  0
  -30.0387  -15.4268   18.9167 C   0  0  0  0  0  0  0  0  0  0  0  0
  -28.4643  -15.4342   20.8127 C   0  0  0  0  0  0  0  0  0  0  0  0
  -25.6817  -33.2474   24.6010 C   0  0  1  0  0  0  0  0  0  0  0  0
  -24.2675  -31.3739   21.6138 C   0  0  1  0  0  0  0  0  0  0  0  0
  -27.2670  -15.2338   19.8679 C   0  0  2  0  0  0  0  0  0  0  0  0
  -24.4335  -20.1105   23.2693 C   0  0  0  0  0  0  0  0  0  0  0  0
  -18.1583  -27.0431   19.6327 C   0  0  0  0  0  0  0  0  0  0  0  0
  -21.7813  -29.1040   24.7803 C   0  0  0  0  0  0  0  0  0  0  0  0
  -20.0142  -27.5793   23.8741 C   0  0  0  0  0  0  0  0  0  0  0  0
  -19.6806  -30.0506   23.8081 C   0  0  0  0  0  0  0  0  0  0  0  0
  -30.0451  -21.0427   23.8179 C   0  0  0  0  0  0  0  0  0  0  0  0
  -29.6435  -18.6975   24.5473 C   0  0  0  0  0  0  0  0  0  0  0  0
  -20.9393  -28.2378   17.3273 C   0  0  0  0  0  0  0  0  0  0  0  0
  -27.3725  -22.8914   19.0689 C   0  0  0  0  0  0  0  0  0  0  0  0
  -27.8541  -19.8760   23.1868 C   0  0  0  0  0  0  0  0  0  0  0  0
  -28.1206  -24.2180   19.2180 C   0  0  0  0  0  0  0  0  0  0  0  0
  -25.2576  -21.3828   23.3673 C   0  0  0  0  0  0  0  0  0  0  0  0
  -30.1230  -19.2078   22.1201 C   0  0  0  0  0  0  0  0  0  0  0  0
  -27.3487  -25.2597   20.0196 C   0  0  0  0  0  0  0  0  0  1  0  0
  -21.3496  -28.9828   22.2376 C   0  0  1  0  0  0  0  0  0  0  0  0
  -19.3323  -27.9133   19.2117 C   0  0  2  0  0  0  0  0  0  0  0  0
  -20.7326  -28.9293   23.6638 C   0  0  0  0  0  0  0  0  0  0  0  0
  -29.4049  -19.7037   23.3979 C   0  0  0  0  0  0  0  0  0  0  0  0
  -26.3840  -13.6149   21.5056 N   0  0  0  0  0  0  0  0  0  0  0  0
  -26.2015  -21.5090   22.2785 N   0  0  0  0  0  0  0  0  0  0  0  0
  -26.1142  -14.5219   20.5514 N   0  0  0  0  0  0  0  0  0  0  0  0
  -23.4536  -30.1583   21.6762 N   0  0  0  0  0  0  0  0  0  0  0  0
  -29.5544  -16.1275   20.1085 N   0  0  0  0  0  0  0  0  0  0  0  0
  -24.3355  -15.5645   19.3850 N   0  0  0  0  0  0  0  0  0  0  0  0
  -22.2194  -12.7454   22.2084 N   0  0  0  0  0  0  0  0  0  0  0  0
  -25.0857  -32.8594   23.3406 N   0  0  0  0  0  0  0  0  0  0  0  0
  -20.3758  -28.8473   21.1598 N   0  0  0  0  0  0  0  0  0  0  0  0
  -29.6232  -17.9476   21.6172 N   0  0  0  0  0  0  0  0  0  0  0  0
  -19.8017  -27.4541   17.8739 N   0  3  0  0  0  0  0  0  0  0  0  0
  -21.9108  -14.3028   20.5537 O   0  0  0  0  0  0  0  0  0  0  0  0
  -25.2162  -30.5504   23.6130 O   0  0  0  0  0  0  0  0  0  0  0  0
  -21.4777  -31.3427   22.0357 O   0  0  0  0  0  0  0  0  0  0  0  0
  -21.3358  -26.9758   20.1835 O   0  0  0  0  0  0  0  0  0  0  0  0
  -31.0681  -17.8636   19.8389 O   0  0  0  0  0  0  0  0  0  0  0  0
  -24.6428   -9.3249   25.8775 O   0  0  0  0  0  0  0  0  0  0  0  0
  -28.1233  -26.4566   20.0811 O   0  0  0  0  0  0  0  0  0  1  0  0
  -21.0748   -5.2119   25.0077 F   0  0  0  0  0  0  0  0  0  0  0  0
  -25.4932   -6.6947   25.8347 F   0  0  0  0  0  0  0  0  0  0  0  0
  1  2  1  0  0  0  0
  1  5  2  0  0  0  0
  2  6  2  0  0  0  0
  3  8  2  0  0  0  0
  3 17  1  0  0  0  0
  4  9  1  0  0  0  0
  4 17  2  0  0  0  0
  5 19  1  0  0  0  0
  6 21  1  0  0  0  0
  7 10  2  0  0  0  0
  7 20  1  0  0  0  0
  8 24  1  0  0  0  0
  9 24  2  0  0  0  0
 10 25  1  0  0  0  0
 11 12  2  0  0  0  0
 11 26  1  0  0  0  0
 12 27  1  0  0  0  0
 13 22  1  0  0  0  0
 13 25  2  0  0  0  0
 14 23  1  0  0  0  0
 14 30  2  0  0  0  0
 15 27  2  0  0  0  0
 15 28  1  0  0  0  0
 16 23  2  0  0  0  0
 16 68  1  0  0  0  0
 17 29  1  0  0  0  0
 18 29  1  0  0  0  0
 18 31  2  0  0  0  0
 18 32  1  0  0  0  0
 19 21  2  0  0  0  0
 19 37  1  0  0  0  0
 20 22  2  0  0  0  0
 20 38  1  0  0  0  0
 21 46  1  0  0  0  0
 22 39  1  0  0  0  0
 23 57  1  0  0  0  0
 24 83  1  0  0  0  0
 25 84  1  0  0  0  0
 26 28  2  0  0  0  0
 26 83  1  0  0  0  0
 27 85  1  0  0  0  0
 28 86  1  0  0  0  0
 29 67  2  0  0  0  0
 30 58  1  0  0  0  0
 30 68  1  0  0  0  0
 31 69  1  0  0  0  0
 31 72  1  0  0  0  0
 32 73  1  0  0  0  0
 32 78  2  0  0  0  0
 33 47  1  0  0  0  0
 33 74  1  0  0  0  0
 33 79  2  0  0  0  0
 34 63  1  0  0  0  0
 34 70  1  0  0  0  0
 34 80  2  0  0  0  0
 35 64  1  0  0  0  0
 35 75  1  0  0  0  0
 35 81  2  0  0  0  0
 36 71  1  0  0  0  0
 36 76  1  0  0  0  0
 36 82  2  0  0  0  0
 37 40  1  0  0  0  0
 38 47  1  0  0  0  0
 39 70  1  0  0  0  0
 40 42  1  0  0  0  0
 41 43  1  0  0  0  0
 41 44  1  0  0  0  0
 42 46  1  0  0  0  0
 43 48  1  0  0  0  0
 44 71  1  0  0  0  0
 45 48  1  0  0  0  0
 45 71  1  0  0  0  0
 46 74  1  0  0  0  0
 47 70  1  0  0  0  0
 48 69  1  0  0  0  0
 49 60  1  0  0  0  0
 50 64  1  0  0  0  0
 51 65  1  0  0  0  0
 52 65  1  0  0  0  0
 53 65  1  0  0  0  0
 54 66  1  0  0  0  0
 55 66  1  0  0  0  0
 56 77  1  0  0  0  0
 57 59  1  0  0  0  0
 58 66  1  0  0  0  0
 59 62  1  0  0  0  0
 60 68  1  0  0  0  0
 61 66  1  0  0  0  0
 61 76  1  0  0  0  0
 62 84  1  0  0  0  0
 63 65  1  0  0  0  0
 63 75  1  0  0  0  0
 64 77  1  0  0  0  0
 67 69  1  0  0  0  0
M  CHG  1  77   1
M  ISO  4  36 100  62 101  76 100  84 101
M  END
> <Batch ID>
0077

> <Smiles>
CCn1cc(CC[101CH2:1][101O:1]c2ccc3c(c2)CN(C(=O)C(NC(=O)C(C)NC)C(C)(C)C)C(C(=O)NC2CCCc4ccccc42)C3)cc1CC(C)(C)C[100NH:0][100C:0](=O)N1CCCC(n2nc(-c3ccc(Oc4ccc(F)cc4F)cc3)c(C(N)=O)c2N)C1

> <Shape>
0.276

> <Color>
0.101

> <Negative vol penalty>
0.000

$$$$

  -OEChem-04052318373D

 86 94  0     1  0  0  0  0  0999 V2000
  -24.1392   -8.1686   21.4072 C   0  0  0  0  0  0  0  0  0  0  0  0
  -24.5722   -9.3216   20.7603 C   0  0  0  0  0  0  0  0  0  0  0  0
  -22.1688  -26.6065   22.7989 C   0  0  0  0  0  0  0  0  0  0  0  0
  -22.5650  -27.3375   20.5305 C   0  0  0  0  0  0  0  0  0  0  0  0
  -22.8540   -8.1132   21.9448 C   0  0  0  0  0  0  0  0  0  0  0  0
  -23.7197  -10.4195   20.6496 C   0  0  0  0  0  0  0  0  0  0  0  0
  -26.0370  -14.7937   21.7181 C   0  0  0  0  0  0  0  0  0  0  0  0
  -21.3316  -27.7027   23.0059 C   0  0  0  0  0  0  0  0  0  0  0  0
  -21.7277  -28.4338   20.7375 C   0  0  0  0  0  0  0  0  0  0  0  0
  -26.8554  -15.3387   20.7297 C   0  0  0  0  0  0  0  0  0  0  0  0
  -18.8047  -30.1120   24.0186 C   0  0  0  0  0  0  0  0  0  0  0  0
  -17.5894  -29.8868   24.6650 C   0  0  0  0  0  0  0  0  0  0  0  0
  -25.0851  -16.8549   20.1082 C   0  0  0  0  0  0  0  0  0  0  0  0
  -16.9376  -28.3616   22.9083 C   0  0  0  0  0  0  0  0  0  0  0  0
  -31.4627  -17.4527   21.0874 C   0  0  0  0  0  0  0  0  0  0  0  0
  -22.7856  -26.4239   21.5611 C   0  0  0  0  0  0  0  0  0  0  0  0
  -23.2835  -24.0187   20.8721 C   0  0  0  0  0  0  0  0  0  0  0  0
  -21.9887   -9.2145   21.8492 C   0  0  0  0  0  0  0  0  0  0  0  0
  -24.7304  -15.2687   21.9021 C   0  0  0  0  0  0  0  0  0  0  0  0
  -22.4212  -10.3783   21.1853 C   0  0  0  0  0  0  0  0  0  0  0  0
  -24.2530  -16.3160   21.1014 C   0  0  0  0  0  0  0  0  0  0  0  0
  -21.1110  -28.6163   21.9753 C   0  0  0  0  0  0  0  0  0  0  0  0
  -26.3785  -16.3675   19.9227 C   0  0  0  0  0  0  0  0  0  0  0  0
  -19.0865  -29.4620   22.8170 C   0  0  0  0  0  0  0  0  0  0  0  0
  -16.6558  -29.0116   24.1099 C   0  0  0  0  0  0  0  0  0  0  0  0
  -18.1529  -28.5868   22.2619 C   0  0  0  0  0  0  0  0  0  0  0  0
  -23.6511  -25.2921   21.3468 C   0  0  0  0  0  0  0  0  0  0  0  0
  -31.8013  -18.2327   22.2094 C   0  0  0  0  0  0  0  0  0  0  0  0
  -31.1583  -18.3695   20.1111 C   0  0  0  0  0  0  0  0  0  0  0  0
  -24.4591  -23.3089   20.8477 C   0  0  0  0  0  0  0  0  0  0  0  0
  -21.9947  -23.5221   20.4874 C   0  0  0  0  0  0  0  0  0  0  0  0
  -21.8280  -13.9909   21.6857 C   0  0  0  0  0  0  0  0  0  0  0  0
  -20.8982  -16.8713   22.8522 C   0  0  0  0  0  0  0  0  0  0  0  0
  -21.5808  -20.1906   23.2567 C   0  0  0  0  0  0  0  0  0  0  0  0
  -29.9001  -23.8615   19.6955 C   0  0  0  0  0  0  0  0  0  0  0  0
  -20.5919   -9.0905   22.4043 C   0  0  0  0  0  0  0  0  0  0  0  0
  -23.8695  -14.6883   22.9903 C   0  0  0  0  0  0  0  0  0  0  0  0
  -22.8649  -16.8753   21.2719 C   0  0  0  0  0  0  0  0  0  0  0  0
  -19.8823  -10.4316   22.5730 C   0  0  0  0  0  0  0  0  0  0  0  0
  -28.8470  -23.7345   23.0640 C   0  0  0  0  0  0  0  0  0  0  0  0
  -20.0549  -11.2879   21.3225 C   0  0  0  0  0  0  0  0  0  0  0  0
  -27.3503  -24.0084   22.9236 C   0  0  0  0  0  0  0  0  0  0  0  0
  -29.6805  -24.5972   22.1146 C   0  0  0  0  0  0  0  0  0  0  0  0
  -27.7661  -24.7757   20.5572 C   0  0  0  0  0  0  0  0  0  0  0  0
  -21.5345  -11.5989   21.0667 C   0  0  1  0  0  0  0  0  0  0  0  0
  -22.3780  -14.8993   22.7487 C   0  0  1  0  0  0  0  0  0  0  0  0
  -26.9024  -23.8789   21.4574 C   0  0  2  0  0  0  0  0  0  0  0  0
  -32.2094  -17.7579   23.5422 C   0  0  0  0  0  0  0  0  0  0  0  0
  -20.6144  -22.2976   24.2178 C   0  0  0  0  0  0  0  0  0  0  0  0
  -18.9919  -17.0768   20.4786 C   0  0  0  0  0  0  0  0  0  0  0  0
  -18.7767  -19.5257   20.9526 C   0  0  0  0  0  0  0  0  0  0  0  0
  -18.0372  -17.8581   22.6540 C   0  0  0  0  0  0  0  0  0  0  0  0
  -33.2306  -20.8079   18.6054 C   0  0  0  0  0  0  0  0  0  0  0  0
  -33.2840  -21.8934   20.8443 C   0  0  0  0  0  0  0  0  0  0  0  0
  -32.0570  -24.9917   20.3852 C   0  0  0  0  0  0  0  0  0  0  0  0
  -23.8404  -20.5047   25.1421 C   0  0  0  0  0  0  0  0  0  0  0  0
  -30.7212  -18.1840   18.6799 C   0  0  0  0  0  0  0  0  0  0  0  0
  -29.2033  -18.1004   18.5055 C   0  0  0  0  0  0  0  0  0  0  0  0
  -31.1281  -20.8816   20.0589 C   0  0  0  0  0  0  0  0  0  0  0  0
  -32.0790  -23.0051   18.9227 C   0  0  0  0  0  0  0  0  0  0  0  0
  -28.5816  -16.8927   19.1972 C   0  0  0  0  0  0  0  0  0  1  0  0
  -20.5087  -18.1964   22.2426 C   0  0  1  0  0  0  0  0  0  0  0  0
  -21.5064  -21.0931   24.4750 C   0  0  2  0  0  0  0  0  0  0  0  0
  -19.1042  -18.1526   21.5772 C   0  0  0  0  0  0  0  0  0  0  0  0
  -32.4029  -21.6507   19.5972 C   0  0  0  0  0  0  0  0  0  0  0  0
  -24.9579  -25.3884   21.6056 N   0  0  0  0  0  0  0  0  0  0  0  0
  -31.7200  -19.5440   21.9692 N   0  0  0  0  0  0  0  0  0  0  0  0
  -31.3269  -19.5951   20.6851 N   0  0  0  0  0  0  0  0  0  0  0  0
  -25.4217  -24.1666   21.2924 N   0  0  0  0  0  0  0  0  0  0  0  0
  -22.0592  -16.2704   22.3454 N   0  0  0  0  0  0  0  0  0  0  0  0
  -29.1901  -24.4810   20.7345 N   0  0  0  0  0  0  0  0  0  0  0  0
  -24.7528  -22.0408   20.4896 N   0  0  0  0  0  0  0  0  0  0  0  0
  -20.8933  -24.3845   20.5738 N   0  0  0  0  0  0  0  0  0  0  0  0
  -21.9919  -12.6456   21.9554 N   0  0  0  0  0  0  0  0  0  0  0  0
  -20.6357  -19.1877   23.3054 N   0  0  0  0  0  0  0  0  0  0  0  0
  -31.3009  -23.9101   19.7569 N   0  0  0  0  0  0  0  0  0  0  0  0
  -22.8654  -21.5840   24.8398 N   0  3  0  0  0  0  0  0  0  0  0  0
  -21.8221  -22.3433   20.0948 O   0  0  0  0  0  0  0  0  0  0  0  0
  -21.2931  -14.4746   20.6950 O   0  0  0  0  0  0  0  0  0  0  0  0
  -20.2020  -16.3907   23.7500 O   0  0  0  0  0  0  0  0  0  0  0  0
  -22.3934  -20.3606   22.3504 O   0  0  0  0  0  0  0  0  0  0  0  0
  -29.3156  -23.3020   18.7588 O   0  0  0  0  0  0  0  0  0  0  0  0
  -20.2938  -29.6860   22.1769 O   0  0  0  0  0  0  0  0  0  0  0  0
  -27.1751  -16.9008   18.9568 O   0  0  0  0  0  0  0  0  0  1  0  0
  -15.4894  -28.7943   24.7316 F   0  0  0  0  0  0  0  0  0  0  0  0
  -18.4185  -27.9586   21.1083 F   0  0  0  0  0  0  0  0  0  0  0  0
  1  2  1  0  0  0  0
  1  5  2  0  0  0  0
  2  6  2  0  0  0  0
  3  8  2  0  0  0  0
  3 16  1  0  0  0  0
  4  9  1  0  0  0  0
  4 16  2  0  0  0  0
  5 18  1  0  0  0  0
  6 20  1  0  0  0  0
  7 10  2  0  0  0  0
  7 19  1  0  0  0  0
  8 22  1  0  0  0  0
  9 22  2  0  0  0  0
 10 23  1  0  0  0  0
 11 12  2  0  0  0  0
 11 24  1  0  0  0  0
 12 25  1  0  0  0  0
 13 21  1  0  0  0  0
 13 23  2  0  0  0  0
 14 25  2  0  0  0  0
 14 26  1  0  0  0  0
 15 28  1  0  0  0  0
 15 29  2  0  0  0  0
 16 27  1  0  0  0  0
 17 27  1  0  0  0  0
 17 30  2  0  0  0  0
 17 31  1  0  0  0  0
 18 20  2  0  0  0  0
 18 36  1  0  0  0  0
 19 21  2  0  0  0  0
 19 37  1  0  0  0  0
 20 45  1  0  0  0  0
 21 38  1  0  0  0  0
 22 83  1  0  0  0  0
 23 84  1  0  0  0  0
 24 26  2  0  0  0  0
 24 83  1  0  0  0  0
 25 85  1  0  0  0  0
 26 86  1  0  0  0  0
 27 66  2  0  0  0  0
 28 48  1  0  0  0  0
 28 67  2  0  0  0  0
 29 57  1  0  0  0  0
 29 68  1  0  0  0  0
 30 69  1  0  0  0  0
 30 72  1  0  0  0  0
 31 73  1  0  0  0  0
 31 78  2  0  0  0  0
 32 46  1  0  0  0  0
 32 74  1  0  0  0  0
 32 79  2  0  0  0  0
 33 62  1  0  0  0  0
 33 70  1  0  0  0  0
 33 80  2  0  0  0  0
 34 63  1  0  0  0  0
 34 75  1  0  0  0  0
 34 81  2  0  0  0  0
 35 71  1  0  0  0  0
 35 76  1  0  0  0  0
 35 82  2  0  0  0  0
 36 39  1  0  0  0  0
 37 46  1  0  0  0  0
 38 70  1  0  0  0  0
 39 41  1  0  0  0  0
 40 42  1  0  0  0  0
 40 43  1  0  0  0  0
 41 45  1  0  0  0  0
 42 47  1  0  0  0  0
 43 71  1  0  0  0  0
 44 47  1  0  0  0  0
 44 71  1  0  0  0  0
 45 74  1  0  0  0  0
 46 70  1  0  0  0  0
 47 69  1  0  0  0  0
 49 63  1  0  0  0  0
 50 64  1  0  0  0  0
 51 64  1  0  0  0  0
 52 64  1  0  0  0  0
 53 65  1  0  0  0  0
 54 65  1  0  0  0  0
 55 76  1  0  0  0  0
 56 77  1  0  0  0  0
 57 58  1  0  0  0  0
 58 61  1  0  0  0  0
 59 65  1  0  0  0  0
 59 68  1  0  0  0  0
 60 65  1  0  0  0  0
 60 76  1  0  0  0  0
 61 84  1  0  0  0  0
 62 64  1  0  0  0  0
 62 75  1  0  0  0  0
 63 77  1  0  0  0  0
 66 69  1  0  0  0  0
 67 68  1  0  0  0  0
M  CHG  1  77   1
M  ISO  4  35 100  61 101  76 100  84 101
M  END
> <Batch ID>
0077

> <Smiles>
CNC(C)C(=O)NC(C(=O)N1Cc2cc([101O:1][101CH2:1]CCc3cc(C)nn3CC(C)(C)C[100N:0](C)[100C:0](=O)N3CCCC(n4nc(-c5ccc(Oc6ccc(F)cc6F)cc5)c(C(N)=O)c4N)C3)ccc2CC1C(=O)NC1CCCc2ccccc21)C(C)(C)C

> <Shape>
0.171

> <Color>
0.079

> <Negative vol penalty>
0.000

$$$$

  -OEChem-04052318373D

 84 92  0     1  0  0  0  0  0999 V2000
  -22.2752  -11.2087   21.3253 C   0  0  0  0  0  0  0  0  0  0  0  0
  -21.9809  -12.5118   21.7138 C   0  0  0  0  0  0  0  0  0  0  0  0
  -27.6334  -29.1699   18.6803 C   0  0  0  0  0  0  0  0  0  0  0  0
  -28.6135  -29.3938   20.8772 C   0  0  0  0  0  0  0  0  0  0  0  0
  -23.5670  -10.8791   20.9174 C   0  0  0  0  0  0  0  0  0  0  0  0
  -22.9786  -13.4857   21.6956 C   0  0  0  0  0  0  0  0  0  0  0  0
  -21.4002  -17.8461   19.6606 C   0  0  0  0  0  0  0  0  0  0  0  0
  -28.9031  -29.2379   18.1069 C   0  0  0  0  0  0  0  0  0  0  0  0
  -29.8833  -29.4616   20.3038 C   0  0  0  0  0  0  0  0  0  0  0  0
  -20.6156  -18.6751   20.4611 C   0  0  0  0  0  0  0  0  0  0  0  0
  -31.9162  -28.9898   16.0882 C   0  0  0  0  0  0  0  0  0  0  0  0
  -32.2236  -28.0731   15.0829 C   0  0  0  0  0  0  0  0  0  0  0  0
  -22.5518  -20.0299   20.9454 C   0  0  0  0  0  0  0  0  0  0  0  0
  -31.8445  -26.2534   16.6263 C   0  0  0  0  0  0  0  0  0  0  0  0
  -19.1497  -27.4487   23.7410 C   0  0  0  0  0  0  0  0  0  0  0  0
  -27.4886  -29.2479   20.0655 C   0  0  0  0  0  0  0  0  0  0  0  0
  -25.4954  -28.0214   21.0806 C   0  0  0  0  0  0  0  0  0  0  0  0
  -24.5788  -11.8517   20.8850 C   0  0  0  0  0  0  0  0  0  0  0  0
  -22.7711  -18.0968   19.5050 C   0  0  0  0  0  0  0  0  0  0  0  0
  -24.2855  -13.1685   21.2881 C   0  0  0  0  0  0  0  0  0  0  0  0
  -23.3511  -19.2041   20.1403 C   0  0  0  0  0  0  0  0  0  0  0  0
  -19.0212  -26.6409   22.6376 C   0  0  0  0  0  0  0  0  0  0  0  0
  -30.0280  -29.3837   18.9186 C   0  0  0  0  0  0  0  0  0  0  0  0
  -21.1919  -19.7655   21.1060 C   0  0  0  0  0  0  0  0  0  0  0  0
  -31.5729  -28.5384   17.3626 C   0  0  0  0  0  0  0  0  0  0  0  0
  -32.1878  -26.7049   15.3519 C   0  0  0  0  0  0  0  0  0  0  0  0
  -31.5371  -27.1702   17.6317 C   0  0  0  0  0  0  0  0  0  0  0  0
  -26.1772  -29.1784   20.6583 C   0  0  0  0  0  0  0  0  0  0  0  0
  -19.2430  -27.5000   21.5447 C   0  0  0  0  0  0  0  0  0  0  0  0
  -24.2986  -28.4868   21.5681 C   0  0  0  0  0  0  0  0  0  0  0  0
  -25.9072  -26.6488   21.0363 C   0  0  0  0  0  0  0  0  0  0  0  0
  -25.4350  -16.5054   20.1940 C   0  0  0  0  0  0  0  0  0  0  0  0
  -26.8470  -18.9578   18.6083 C   0  0  0  0  0  0  0  0  0  0  0  0
  -26.6877  -22.1994   17.5533 C   0  0  0  0  0  0  0  0  0  0  0  0
  -21.7793  -32.3562   24.8843 C   0  0  0  0  0  0  0  0  0  0  0  0
  -25.9717  -11.4371   20.4817 C   0  0  0  0  0  0  0  0  0  0  0  0
  -23.5983  -17.2086   18.6166 C   0  0  0  0  0  0  0  0  0  0  0  0
  -24.8142  -19.5285   19.9895 C   0  0  0  0  0  0  0  0  0  0  0  0
  -26.8805  -12.6132   20.1337 C   0  0  0  0  0  0  0  0  0  0  0  0
  -22.1498  -33.0460   21.2665 C   0  0  0  0  0  0  0  0  0  0  0  0
  -26.7644  -13.7082   21.1893 C   0  0  0  0  0  0  0  0  0  0  0  0
  -23.2283  -32.0489   20.8461 C   0  0  0  0  0  0  0  0  0  0  0  0
  -22.2902  -33.4492   22.7313 C   0  0  0  0  0  0  0  0  0  0  0  0
  -23.3966  -31.3002   23.2527 C   0  0  0  0  0  0  0  0  0  0  0  0
  -25.3348  -14.2586   21.2584 C   0  0  1  0  0  0  0  0  0  0  0  0
  -25.0880  -17.2593   18.9414 C   0  0  1  0  0  0  0  0  0  0  0  0
  -23.2555  -30.8378   21.7946 C   0  0  2  0  0  0  0  0  0  0  0  0
  -19.2254  -27.1606   20.1110 C   0  0  0  0  0  0  0  0  0  0  0  0
  -28.0095  -23.9342   16.3119 C   0  0  0  0  0  0  0  0  0  0  0  0
  -28.6218  -19.3550   21.0582 C   0  0  0  0  0  0  0  0  0  0  0  0
  -29.2242  -21.6165   20.1687 C   0  0  0  0  0  0  0  0  0  0  0  0
  -29.8061  -19.5702   18.8661 C   0  0  0  0  0  0  0  0  0  0  0  0
  -20.6452  -31.2009   26.7441 C   0  0  0  0  0  0  0  0  0  0  0  0
  -24.6127  -22.4482   15.4578 C   0  0  0  0  0  0  0  0  0  0  0  0
  -18.7112  -25.1653   22.6158 C   0  0  0  0  0  0  0  0  0  0  0  0
  -19.9289  -24.2810   22.3252 C   0  0  0  0  0  0  0  0  0  0  0  0
  -19.5807  -22.7948   22.2308 C   0  0  0  0  0  0  0  0  0  0  0  0
  -19.6502  -29.8851   24.0455 C   0  0  0  0  0  0  0  0  0  0  0  0
  -21.0465  -29.9447   24.6593 C   0  0  0  0  0  0  0  0  0  0  0  0
  -20.8194  -21.9452   21.9813 C   0  0  0  0  0  0  0  0  0  1  0  0
  -27.3923  -20.3103   18.9987 C   0  0  1  0  0  0  0  0  0  0  0  0
  -26.9654  -22.8338   16.2024 C   0  0  2  0  0  0  0  0  0  0  0  0
  -28.7339  -20.2060   19.7775 C   0  0  0  0  0  0  0  0  0  0  0  0
  -25.4721  -30.2948   20.8597 N   0  0  0  0  0  0  0  0  0  0  0  0
  -19.4933  -28.7573   21.9197 N   0  0  0  0  0  0  0  0  0  0  0  0
  -19.4295  -28.6941   23.2606 N   0  0  0  0  0  0  0  0  0  0  0  0
  -24.3348  -29.8414   21.4138 N   0  0  0  0  0  0  0  0  0  0  0  0
  -25.5824  -18.6266   19.1154 N   0  0  0  0  0  0  0  0  0  0  0  0
  -22.3571  -32.2784   23.6065 N   0  0  0  0  0  0  0  0  0  0  0  0
  -23.2294  -27.8652   22.1092 N   0  0  0  0  0  0  0  0  0  0  0  0
  -27.1678  -26.3462   20.5038 N   0  0  0  0  0  0  0  0  0  0  0  0
  -25.0896  -15.1678   20.1594 N   0  0  0  0  0  0  0  0  0  0  0  0
  -27.4752  -21.0879   17.7671 N   0  0  0  0  0  0  0  0  0  0  0  0
  -21.2645  -31.1690   25.4268 N   0  0  0  0  0  0  0  0  0  0  0  0
  -25.7175  -23.4242   15.6411 N   0  3  0  0  0  0  0  0  0  0  0  0
  -25.1720  -25.7165   21.4413 O   0  0  0  0  0  0  0  0  0  0  0  0
  -25.9772  -17.0932   21.1224 O   0  0  0  0  0  0  0  0  0  0  0  0
  -27.5152  -18.2251   17.8746 O   0  0  0  0  0  0  0  0  0  0  0  0
  -25.8581  -22.6474   18.3417 O   0  0  0  0  0  0  0  0  0  0  0  0
  -21.7180  -33.4276   25.5009 O   0  0  0  0  0  0  0  0  0  0  0  0
  -31.2672  -29.4498   18.3594 O   0  0  0  0  0  0  0  0  0  0  0  0
  -20.4284  -20.5760   21.8884 O   0  0  0  0  0  0  0  0  0  1  0  0
  -32.4815  -25.8246   14.3860 F   0  0  0  0  0  0  0  0  0  0  0  0
  -31.2069  -26.7304   18.8537 F   0  0  0  0  0  0  0  0  0  0  0  0
  1  2  1  0  0  0  0
  1  5  2  0  0  0  0
  2  6  2  0  0  0  0
  3  8  2  0  0  0  0
  3 16  1  0  0  0  0
  4  9  1  0  0  0  0
  4 16  2  0  0  0  0
  5 18  1  0  0  0  0
  6 20  1  0  0  0  0
  7 10  2  0  0  0  0
  7 19  1  0  0  0  0
  8 23  1  0  0  0  0
  9 23  2  0  0  0  0
 10 24  1  0  0  0  0
 11 12  2  0  0  0  0
 11 25  1  0  0  0  0
 12 26  1  0  0  0  0
 13 21  1  0  0  0  0
 13 24  2  0  0  0  0
 14 26  2  0  0  0  0
 14 27  1  0  0  0  0
 15 22  2  0  0  0  0
 15 66  1  0  0  0  0
 16 28  1  0  0  0  0
 17 28  1  0  0  0  0
 17 30  2  0  0  0  0
 17 31  1  0  0  0  0
 18 20  2  0  0  0  0
 18 36  1  0  0  0  0
 19 21  2  0  0  0  0
 19 37  1  0  0  0  0
 20 45  1  0  0  0  0
 21 38  1  0  0  0  0
 22 29  1  0  0  0  0
 22 55  1  0  0  0  0
 23 81  1  0  0  0  0
 24 82  1  0  0  0  0
 25 27  2  0  0  0  0
 25 81  1  0  0  0  0
 26 83  1  0  0  0  0
 27 84  1  0  0  0  0
 28 64  2  0  0  0  0
 29 48  1  0  0  0  0
 29 65  2  0  0  0  0
 30 67  1  0  0  0  0
 30 70  1  0  0  0  0
 31 71  1  0  0  0  0
 31 76  2  0  0  0  0
 32 46  1  0  0  0  0
 32 72  1  0  0  0  0
 32 77  2  0  0  0  0
 33 61  1  0  0  0  0
 33 68  1  0  0  0  0
 33 78  2  0  0  0  0
 34 62  1  0  0  0  0
 34 73  1  0  0  0  0
 34 79  2  0  0  0  0
 35 69  1  0  0  0  0
 35 74  1  0  0  0  0
 35 80  2  0  0  0  0
 36 39  1  0  0  0  0
 37 46  1  0  0  0  0
 38 68  1  0  0  0  0
 39 41  1  0  0  0  0
 40 42  1  0  0  0  0
 40 43  1  0  0  0  0
 41 45  1  0  0  0  0
 42 47  1  0  0  0  0
 43 69  1  0  0  0  0
 44 47  1  0  0  0  0
 44 69  1  0  0  0  0
 45 72  1  0  0  0  0
 46 68  1  0  0  0  0
 47 67  1  0  0  0  0
 49 62  1  0  0  0  0
 50 63  1  0  0  0  0
 51 63  1  0  0  0  0
 52 63  1  0  0  0  0
 53 74  1  0  0  0  0
 54 75  1  0  0  0  0
 55 56  1  0  0  0  0
 56 57  1  0  0  0  0
 57 60  1  0  0  0  0
 58 59  1  0  0  0  0
 58 66  1  0  0  0  0
 59 74  1  0  0  0  0
 60 82  1  0  0  0  0
 61 63  1  0  0  0  0
 61 73  1  0  0  0  0
 62 75  1  0  0  0  0
 64 67  1  0  0  0  0
 65 66  1  0  0  0  0
M  CHG  1  75   1
M  ISO  4  35 100  60 101  74 100  82 101
M  END
> <Batch ID>
0077

> <Smiles>
CNC(C)C(=O)NC(C(=O)N1Cc2cc([101O:1][101CH2:1]CCCc3cn(CC[100N:0](C)[100C:0](=O)N4CCCC(n5nc(-c6ccc(Oc7ccc(F)cc7F)cc6)c(C(N)=O)c5N)C4)nc3C)ccc2CC1C(=O)NC1CCCc2ccccc21)C(C)(C)C

> <Shape>
0.206

> <Color>
0.062

> <Negative vol penalty>
0.000

$$$$

  -OEChem-04052318373D

 83 91  0     1  0  0  0  0  0999 V2000
  -20.6078   -8.9773   18.5482 C   0  0  0  0  0  0  0  0  0  0  0  0
  -20.6435  -10.3559   18.7315 C   0  0  0  0  0  0  0  0  0  0  0  0
  -25.6455  -28.6466   19.4437 C   0  0  0  0  0  0  0  0  0  0  0  0
  -27.0736  -29.5638   21.1631 C   0  0  0  0  0  0  0  0  0  0  0  0
  -21.4494   -8.1539   19.2949 C   0  0  0  0  0  0  0  0  0  0  0  0
  -21.5202  -10.9118   19.6625 C   0  0  0  0  0  0  0  0  0  0  0  0
  -23.9490  -14.9734   17.8598 C   0  0  0  0  0  0  0  0  0  0  0  0
  -24.5827  -29.4169   19.9156 C   0  0  0  0  0  0  0  0  0  0  0  0
  -26.0108  -30.3342   21.6349 C   0  0  0  0  0  0  0  0  0  0  0  0
  -23.2406  -16.1736   17.8210 C   0  0  0  0  0  0  0  0  0  0  0  0
  -21.3970  -30.8732   20.8923 C   0  0  0  0  0  0  0  0  0  0  0  0
  -20.1547  -30.2535   21.0274 C   0  0  0  0  0  0  0  0  0  0  0  0
  -24.3361  -16.8789   19.8511 C   0  0  0  0  0  0  0  0  0  0  0  0
  -21.1104  -28.6788   22.5909 C   0  0  0  0  0  0  0  0  0  0  0  0
  -26.6989  -20.8320   18.5696 C   0  0  0  0  0  0  0  0  0  0  0  0
  -26.8910  -28.7200   20.0675 C   0  0  0  0  0  0  0  0  0  0  0  0
  -28.9341  -28.2872   18.6026 C   0  0  0  0  0  0  0  0  0  0  0  0
  -22.3438   -8.7007   20.2286 C   0  0  0  0  0  0  0  0  0  0  0  0
  -24.8497  -14.7119   18.9024 C   0  0  0  0  0  0  0  0  0  0  0  0
  -22.3737  -10.0948   20.4234 C   0  0  0  0  0  0  0  0  0  0  0  0
  -25.0566  -15.6757   19.8996 C   0  0  0  0  0  0  0  0  0  0  0  0
  -24.7653  -30.2607   21.0111 C   0  0  0  0  0  0  0  0  0  0  0  0
  -23.4320  -17.1254   18.8183 C   0  0  0  0  0  0  0  0  0  0  0  0
  -22.4960  -30.3958   21.6063 C   0  0  0  0  0  0  0  0  0  0  0  0
  -20.0114  -29.1563   21.8767 C   0  0  0  0  0  0  0  0  0  0  0  0
  -22.3527  -29.2986   22.4557 C   0  0  0  0  0  0  0  0  0  0  0  0
  -27.9891  -27.9242   19.5809 C   0  0  0  0  0  0  0  0  0  0  0  0
  -27.9124  -21.4584   18.6114 C   0  0  0  0  0  0  0  0  0  0  0  0
  -29.7599  -27.1944   18.5008 C   0  0  0  0  0  0  0  0  0  0  0  0
  -26.9198  -22.0181   16.7136 C   0  0  0  0  0  0  0  0  0  0  0  0
  -29.0547  -29.5034   17.8530 C   0  0  0  0  0  0  0  0  0  0  0  0
  -28.9218  -21.3879   19.6759 C   0  0  0  0  0  0  0  0  0  0  0  0
  -25.0491  -12.5227   21.1983 C   0  0  0  0  0  0  0  0  0  0  0  0
  -27.9097  -13.9427   21.7663 C   0  0  0  0  0  0  0  0  0  0  0  0
  -29.8647  -16.7277   21.5036 C   0  0  0  0  0  0  0  0  0  0  0  0
  -23.2006   -7.7669   21.0463 C   0  0  0  0  0  0  0  0  0  0  0  0
  -25.6259  -13.4236   18.9154 C   0  0  0  0  0  0  0  0  0  0  0  0
  -26.0271  -15.4521   21.0294 C   0  0  0  0  0  0  0  0  0  0  0  0
  -24.3660   -8.4635   21.7440 C   0  0  0  0  0  0  0  0  0  0  0  0
  -31.4417  -23.5095   21.0507 C   0  0  0  0  0  0  0  0  0  0  0  0
  -23.8918   -9.7421   22.4275 C   0  0  0  0  0  0  0  0  0  0  0  0
  -30.9227  -24.9180   20.7560 C   0  0  0  0  0  0  0  0  0  0  0  0
  -30.3026  -22.5442   21.3688 C   0  0  0  0  0  0  0  0  0  0  0  0
  -28.7174  -23.9015   20.0461 C   0  0  0  0  0  0  0  0  0  0  0  0
  -23.3285  -10.7374   21.4060 C   0  0  1  0  0  0  0  0  0  0  0  0
  -26.1359  -13.0473   20.3030 C   0  0  1  0  0  0  0  0  0  0  0  0
  -29.8300  -24.8941   19.6707 C   0  0  1  0  0  0  0  0  0  0  0  0
  -26.6639  -22.6411   15.3914 C   0  0  0  0  0  0  0  0  0  0  0  0
  -32.1433  -17.5978   22.0939 C   0  0  0  0  0  0  0  0  0  0  0  0
  -23.4542  -22.5812   18.0631 C   0  0  0  0  0  0  0  0  0  0  0  0
  -27.0311  -14.2663   24.6703 C   0  0  0  0  0  0  0  0  0  0  0  0
  -28.8717  -15.9372   24.9681 C   0  0  0  0  0  0  0  0  0  0  0  0
  -29.4166  -13.5768   24.3728 C   0  0  0  0  0  0  0  0  0  0  0  0
  -21.1451  -20.6846   18.5736 C   0  0  0  0  0  0  0  0  0  0  0  0
  -21.7138  -20.7902   16.1420 C   0  0  0  0  0  0  0  0  0  0  0  0
  -30.5575  -17.1753   18.6613 C   0  0  0  0  0  0  0  0  0  0  0  0
  -24.7436  -20.7371   16.9155 C   0  0  0  0  0  0  0  0  0  0  0  0
  -22.3799  -18.7999   17.4973 C   0  0  0  0  0  0  0  0  0  1  0  0
  -28.3823  -15.0877   22.6293 C   0  0  1  0  0  0  0  0  0  0  0  0
  -31.2960  -16.9129   21.0329 C   0  0  2  0  0  0  0  0  0  0  0  0
  -23.5917  -21.0535   17.9082 C   0  0  2  0  0  0  0  0  0  0  0  0
  -28.4056  -14.7207   24.1400 C   0  0  0  0  0  0  0  0  0  0  0  0
  -22.2312  -20.3451   17.5240 C   0  0  0  0  0  0  0  0  0  0  0  0
  -28.1945  -26.6967   20.0658 N   0  0  0  0  0  0  0  0  0  0  0  0
  -26.1063  -21.1961   17.3845 N   0  0  0  0  0  0  0  0  0  0  0  0
  -29.2780  -26.2789   19.3894 N   0  0  0  0  0  0  0  0  0  0  0  0
  -28.0227  -22.1854   17.4506 N   0  3  0  0  0  0  0  0  0  0  0  0
  -29.2892  -22.5745   20.3149 N   0  0  0  0  0  0  0  0  0  0  0  0
  -26.7576  -14.1742   21.0015 N   0  0  0  0  0  0  0  0  0  0  0  0
  -30.8441  -26.9370   17.7387 N   0  0  0  0  0  0  0  0  0  0  0  0
  -28.1222  -30.5244   18.0817 N   0  0  0  0  0  0  0  0  0  0  0  0
  -24.4041  -11.4049   20.7045 N   0  0  0  0  0  0  0  0  0  0  0  0
  -29.6764  -15.4956   22.0935 N   0  0  0  0  0  0  0  0  0  0  0  0
  -31.3311  -17.7427   19.7956 N   0  3  0  0  0  0  0  0  0  0  0  0
  -29.9526  -29.6732   16.9936 O   0  0  0  0  0  0  0  0  0  0  0  0
  -29.3806  -20.2723   19.9167 O   0  0  0  0  0  0  0  0  0  0  0  0
  -24.8142  -13.0893   22.2592 O   0  0  0  0  0  0  0  0  0  0  0  0
  -28.5437  -12.8846   21.7652 O   0  0  0  0  0  0  0  0  0  0  0  0
  -29.0011  -17.5911   21.3654 O   0  0  0  0  0  0  0  0  0  0  0  0
  -23.7285  -31.0126   21.4717 O   0  0  0  0  0  0  0  0  0  0  0  0
  -22.7414  -18.2974   18.7831 O   0  0  0  0  0  0  0  0  0  1  0  0
  -18.8180  -28.5622   22.0076 F   0  0  0  0  0  0  0  0  0  0  0  0
  -23.4046  -28.8361   23.1452 F   0  0  0  0  0  0  0  0  0  0  0  0
  1  2  1  0  0  0  0
  1  5  2  0  0  0  0
  2  6  2  0  0  0  0
  3  8  2  0  0  0  0
  3 16  1  0  0  0  0
  4  9  1  0  0  0  0
  4 16  2  0  0  0  0
  5 18  1  0  0  0  0
  6 20  1  0  0  0  0
  7 10  2  0  0  0  0
  7 19  1  0  0  0  0
  8 22  1  0  0  0  0
  9 22  2  0  0  0  0
 10 23  1  0  0  0  0
 11 12  2  0  0  0  0
 11 24  1  0  0  0  0
 12 25  1  0  0  0  0
 13 21  1  0  0  0  0
 13 23  2  0  0  0  0
 14 25  2  0  0  0  0
 14 26  1  0  0  0  0
 15 28  2  0  0  0  0
 15 65  1  0  0  0  0
 16 27  1  0  0  0  0
 17 27  1  0  0  0  0
 17 29  2  0  0  0  0
 17 31  1  0  0  0  0
 18 20  2  0  0  0  0
 18 36  1  0  0  0  0
 19 21  2  0  0  0  0
 19 37  1  0  0  0  0
 20 45  1  0  0  0  0
 21 38  1  0  0  0  0
 22 80  1  0  0  0  0
 23 81  1  0  0  0  0
 24 26  2  0  0  0  0
 24 80  1  0  0  0  0
 25 82  1  0  0  0  0
 26 83  1  0  0  0  0
 27 64  2  0  0  0  0
 28 32  1  0  0  0  0
 28 67  1  0  0  0  0
 29 66  1  0  0  0  0
 29 70  1  0  0  0  0
 30 48  1  0  0  0  0
 30 65  1  0  0  0  0
 30 67  2  0  0  0  0
 31 71  1  0  0  0  0
 31 75  2  0  0  0  0
 32 68  1  0  0  0  0
 32 76  2  0  0  0  0
 33 46  1  0  0  0  0
 33 72  1  0  0  0  0
 33 77  2  0  0  0  0
 34 59  1  0  0  0  0
 34 69  1  0  0  0  0
 34 78  2  0  0  0  0
 35 60  1  0  0  0  0
 35 73  1  0  0  0  0
 35 79  2  0  0  0  0
 36 39  1  0  0  0  0
 37 46  1  0  0  0  0
 38 69  1  0  0  0  0
 39 41  1  0  0  0  0
 40 42  1  0  0  0  0
 40 43  1  0  0  0  0
 41 45  1  0  0  0  0
 42 47  1  0  0  0  0
 43 68  1  0  0  0  0
 44 47  1  0  0  0  0
 44 68  1  0  0  0  0
 45 72  1  0  0  0  0
 46 69  1  0  0  0  0
 47 66  1  0  0  0  0
 49 60  1  0  0  0  0
 50 61  1  0  0  0  0
 51 62  1  0  0  0  0
 52 62  1  0  0  0  0
 53 62  1  0  0  0  0
 54 63  1  0  0  0  0
 55 63  1  0  0  0  0
 56 74  1  0  0  0  0
 57 61  1  0  0  0  0
 57 65  1  0  0  0  0
 58 63  1  0  0  0  0
 58 81  1  0  0  0  0
 59 62  1  0  0  0  0
 59 73  1  0  0  0  0
 60 74  1  0  0  0  0
 61 63  1  0  0  0  0
 64 66  1  0  0  0  0
M  CHG  2  67   1  74   1
M  ISO  4  28 100  32 100  58 101  81 101
M  END
> <Batch ID>
0077

> <Smiles>
CNC(C)C(=O)NC(C(=O)N1Cc2cc([101O:1][101CH2:1]C(C)(C)C(C)Cn3c[100c:0]([100C:0](=O)N4CCCC(n5nc(-c6ccc(Oc7ccc(F)cc7F)cc6)c(C(N)=O)c5N)C4)nc3C)ccc2CC1C(=O)NC1CCCc2ccccc21)C(C)(C)C

> <Shape>
0.267

> <Color>
0.062

> <Negative vol penalty>
0.000

$$$$

  -OEChem-04052318373D

 81 89  0     1  0  0  0  0  0999 V2000
  -28.9733  -23.9189   15.1925 C   0  0  0  0  0  0  0  0  0  0  0  0
  -28.1812  -23.3493   16.1843 C   0  0  0  0  0  0  0  0  0  0  0  0
  -26.4972  -12.6252   20.9483 C   0  0  0  0  0  0  0  0  0  0  0  0
  -24.9454  -14.2382   20.0388 C   0  0  0  0  0  0  0  0  0  0  0  0
  -29.3913  -25.2437   15.3108 C   0  0  0  0  0  0  0  0  0  0  0  0
  -27.8076  -24.1041   17.2957 C   0  0  0  0  0  0  0  0  0  0  0  0
  -22.9122  -23.5468   18.4660 C   0  0  0  0  0  0  0  0  0  0  0  0
  -25.4281  -11.8500   21.3975 C   0  0  0  0  0  0  0  0  0  0  0  0
  -23.8763  -13.4630   20.4879 C   0  0  0  0  0  0  0  0  0  0  0  0
  -22.5477  -22.3835   19.1424 C   0  0  0  0  0  0  0  0  0  0  0  0
  -23.1057   -9.2658   22.4669 C   0  0  0  0  0  0  0  0  0  0  0  0
  -23.1652   -7.8897   22.2473 C   0  0  0  0  0  0  0  0  0  0  0  0
  -22.5243  -23.6070   21.2213 C   0  0  0  0  0  0  0  0  0  0  0  0
  -23.2788   -8.2748   19.8649 C   0  0  0  0  0  0  0  0  0  0  0  0
  -25.8194  -20.0020   21.0969 C   0  0  0  0  0  0  0  0  0  0  0  0
  -25.7573  -19.5742   23.2579 C   0  0  0  0  0  0  0  0  0  0  0  0
  -26.2558  -13.8194   20.2690 C   0  0  0  0  0  0  0  0  0  0  0  0
  -28.0051  -14.5381   18.5569 C   0  0  0  0  0  0  0  0  0  0  0  0
  -29.0147  -26.0180   16.4195 C   0  0  0  0  0  0  0  0  0  0  0  0
  -23.0964  -24.7485   19.1648 C   0  0  0  0  0  0  0  0  0  0  0  0
  -28.2221  -25.4401   17.4297 C   0  0  0  0  0  0  0  0  0  0  0  0
  -22.8886  -24.7847   20.5510 C   0  0  0  0  0  0  0  0  0  0  0  0
  -24.1177  -12.2688   21.1672 C   0  0  0  0  0  0  0  0  0  0  0  0
  -22.3565  -22.4128   20.5207 C   0  0  0  0  0  0  0  0  0  0  0  0
  -23.1327  -10.1465   21.3855 C   0  0  0  0  0  0  0  0  0  0  0  0
  -23.2518   -7.3941   20.9463 C   0  0  0  0  0  0  0  0  0  0  0  0
  -23.2193   -9.6510   20.0845 C   0  0  0  0  0  0  0  0  0  0  0  0
  -27.3597  -14.6209   19.8053 C   0  0  0  0  0  0  0  0  0  0  0  0
  -26.9960  -20.3563   21.7137 C   0  0  0  0  0  0  0  0  0  0  0  0
  -28.9788  -15.5054   18.6088 C   0  0  0  0  0  0  0  0  0  0  0  0
  -27.7473  -13.6649   17.4493 C   0  0  0  0  0  0  0  0  0  0  0  0
  -25.5494  -26.7134   19.6405 C   0  0  0  0  0  0  0  0  0  0  0  0
  -23.2955  -28.5511   21.0776 C   0  0  0  0  0  0  0  0  0  0  0  0
  -29.4556  -20.5493   21.8404 C   0  0  0  0  0  0  0  0  0  0  0  0
  -20.2766  -28.7254   22.6596 C   0  0  0  0  0  0  0  0  0  0  0  0
  -29.5302  -27.4313   16.5268 C   0  0  0  0  0  0  0  0  0  0  0  0
  -23.4636  -26.0007   18.4167 C   0  0  0  0  0  0  0  0  0  0  0  0
  -23.0540  -26.0540   21.3448 C   0  0  0  0  0  0  0  0  0  0  0  0
  -28.7799  -28.2771   17.5524 C   0  0  0  0  0  0  0  0  0  0  0  0
  -31.7916  -17.8365   21.6865 C   0  0  0  0  0  0  0  0  0  0  0  0
  -28.6056  -27.5049   18.8563 C   0  0  0  0  0  0  0  0  0  0  0  0
  -30.9708  -16.6888   21.0997 C   0  0  0  0  0  0  0  0  0  0  0  0
  -30.9434  -18.7232   22.5928 C   0  0  0  0  0  0  0  0  0  0  0  0
  -28.8921  -18.1178   21.3489 C   0  0  0  0  0  0  0  0  0  0  0  0
  -27.7756  -26.2340   18.6381 C   0  0  1  0  0  0  0  0  0  0  0  0
  -24.1255  -27.0528   19.3012 C   0  0  1  0  0  0  0  0  0  0  0  0
  -29.7037  -17.2153   20.4028 C   0  0  2  0  0  0  0  0  0  0  0  0
  -18.7169  -30.3593   23.7529 C   0  0  0  0  0  0  0  0  0  0  0  0
  -28.1474  -22.5068   21.1290 C   0  0  0  0  0  0  0  0  0  0  0  0
  -28.5130  -20.5453   19.6281 C   0  0  0  0  0  0  0  0  0  0  0  0
  -25.1088  -28.6372   23.5300 C   0  0  0  0  0  0  0  0  0  0  0  0
  -23.1474  -29.4354   24.8658 C   0  0  0  0  0  0  0  0  0  0  0  0
  -24.0065  -30.8113   22.9707 C   0  0  0  0  0  0  0  0  0  0  0  0
  -18.1181  -28.1396   20.7213 C   0  0  0  0  0  0  0  0  0  0  0  0
  -22.6143  -19.6748   22.8594 C   0  0  0  0  0  0  0  0  0  0  0  0
  -23.6307  -18.9747   21.9546 C   0  0  0  0  0  0  0  0  0  0  0  0
  -22.4365  -21.1539   22.5368 C   0  0  0  0  0  0  0  0  0  1  0  0
  -22.7503  -28.6728   22.4801 C   0  0  1  0  0  0  0  0  0  0  0  0
  -19.0870  -29.6474   22.4610 C   0  0  2  0  0  0  0  0  0  0  0  0
  -28.1989  -20.9478   21.1084 C   0  0  0  0  0  0  0  0  0  0  0  0
  -23.7519  -29.3647   23.4473 C   0  0  0  0  0  0  0  0  0  0  0  0
  -26.9511  -20.0872   23.0588 N   0  0  0  0  0  0  0  0  0  0  0  0
  -27.8798  -15.5661   20.5928 N   0  0  0  0  0  0  0  0  0  0  0  0
  -25.0359  -19.5021   22.0986 N   0  0  0  0  0  0  0  0  0  0  0  0
  -28.8623  -16.0859   19.8375 N   0  0  0  0  0  0  0  0  0  0  0  0
  -23.4199  -27.2505   20.5690 N   0  0  0  0  0  0  0  0  0  0  0  0
  -29.7383  -19.1846   21.9015 N   0  0  0  0  0  0  0  0  0  0  0  0
  -29.9148  -15.9074   17.7230 N   0  0  0  0  0  0  0  0  0  0  0  0
  -26.7096  -12.7297   17.5631 N   0  0  0  0  0  0  0  0  0  0  0  0
  -26.3691  -26.5599   18.5387 N   0  0  0  0  0  0  0  0  0  0  0  0
  -21.4663  -29.3552   22.3611 N   0  0  0  0  0  0  0  0  0  0  0  0
  -17.9025  -28.8718   21.9958 N   0  3  0  0  0  0  0  0  0  0  0  0
  -28.4280  -13.7015   16.3963 O   0  0  0  0  0  0  0  0  0  0  0  0
  -25.8801  -26.6006   20.8151 O   0  0  0  0  0  0  0  0  0  0  0  0
  -23.5930  -29.5727   20.4536 O   0  0  0  0  0  0  0  0  0  0  0  0
  -30.1652  -21.4264   22.3399 O   0  0  0  0  0  0  0  0  0  0  0  0
  -20.1621  -27.5639   23.0447 O   0  0  0  0  0  0  0  0  0  0  0  0
  -23.0743  -11.5125   21.6052 O   0  0  0  0  0  0  0  0  0  0  0  0
  -22.0013  -21.2786   21.1835 O   0  0  0  0  0  0  0  0  0  1  0  0
  -23.3105   -6.0726   20.7356 F   0  0  0  0  0  0  0  0  0  0  0  0
  -23.2467  -10.4921   19.0416 F   0  0  0  0  0  0  0  0  0  0  0  0
  1  2  1  0  0  0  0
  1  5  2  0  0  0  0
  2  6  2  0  0  0  0
  3  8  2  0  0  0  0
  3 17  1  0  0  0  0
  4  9  1  0  0  0  0
  4 17  2  0  0  0  0
  5 19  1  0  0  0  0
  6 21  1  0  0  0  0
  7 10  2  0  0  0  0
  7 20  1  0  0  0  0
  8 23  1  0  0  0  0
  9 23  2  0  0  0  0
 10 24  1  0  0  0  0
 11 12  2  0  0  0  0
 11 25  1  0  0  0  0
 12 26  1  0  0  0  0
 13 22  1  0  0  0  0
 13 24  2  0  0  0  0
 14 26  2  0  0  0  0
 14 27  1  0  0  0  0
 15 29  2  0  0  0  0
 15 64  1  0  0  0  0
 16 62  2  0  0  0  0
 16 64  1  0  0  0  0
 17 28  1  0  0  0  0
 18 28  1  0  0  0  0
 18 30  2  0  0  0  0
 18 31  1  0  0  0  0
 19 21  2  0  0  0  0
 19 36  1  0  0  0  0
 20 22  2  0  0  0  0
 20 37  1  0  0  0  0
 21 45  1  0  0  0  0
 22 38  1  0  0  0  0
 23 78  1  0  0  0  0
 24 79  1  0  0  0  0
 25 27  2  0  0  0  0
 25 78  1  0  0  0  0
 26 80  1  0  0  0  0
 27 81  1  0  0  0  0
 28 63  2  0  0  0  0
 29 60  1  0  0  0  0
 29 62  1  0  0  0  0
 30 65  1  0  0  0  0
 30 68  1  0  0  0  0
 31 69  1  0  0  0  0
 31 73  2  0  0  0  0
 32 46  1  0  0  0  0
 32 70  1  0  0  0  0
 32 74  2  0  0  0  0
 33 58  1  0  0  0  0
 33 66  1  0  0  0  0
 33 75  2  0  0  0  0
 34 60  1  0  0  0  0
 34 67  1  0  0  0  0
 34 76  2  0  0  0  0
 35 59  1  0  0  0  0
 35 71  1  0  0  0  0
 35 77  2  0  0  0  0
 36 39  1  0  0  0  0
 37 46  1  0  0  0  0
 38 66  1  0  0  0  0
 39 41  1  0  0  0  0
 40 42  1  0  0  0  0
 40 43  1  0  0  0  0
 41 45  1  0  0  0  0
 42 47  1  0  0  0  0
 43 67  1  0  0  0  0
 44 47  1  0  0  0  0
 44 67  1  0  0  0  0
 45 70  1  0  0  0  0
 46 66  1  0  0  0  0
 47 65  1  0  0  0  0
 48 59  1  0  0  0  0
 49 60  1  0  0  0  0
 50 60  1  0  0  0  0
 51 61  1  0  0  0  0
 52 61  1  0  0  0  0
 53 61  1  0  0  0  0
 54 72  1  0  0  0  0
 55 56  1  0  0  0  0
 55 57  1  0  0  0  0
 56 64  1  0  0  0  0
 57 79  1  0  0  0  0
 58 61  1  0  0  0  0
 58 71  1  0  0  0  0
 59 72  1  0  0  0  0
 63 65  1  0  0  0  0
M  CHG  1  72   1
M  ISO  4  34 100  57 101  60 100  79 101
M  END
> <Batch ID>
0077

> <Smiles>
CNC(C)C(=O)NC(C(=O)N1Cc2cc([101O:1][101CH2:1]CCn3cnc([100C:0](C)(C)[100C:0](=O)N4CCCC(n5nc(-c6ccc(Oc7ccc(F)cc7F)cc6)c(C(N)=O)c5N)C4)c3)ccc2CC1C(=O)NC1CCCc2ccccc21)C(C)(C)C

> <Shape>
0.236

> <Color>
0.050

> <Negative vol penalty>
0.000

$$$$

  -OEChem-04052318373D

 87 95  0     1  0  0  0  0  0999 V2000
  -33.3979  -26.3698   18.7004 C   0  0  0  0  0  0  0  0  0  0  0  0
  -32.0408  -26.1127   18.8671 C   0  0  0  0  0  0  0  0  0  0  0  0
  -24.4347  -12.5043   24.4090 C   0  0  0  0  0  0  0  0  0  0  0  0
  -23.7774  -14.8233   24.2441 C   0  0  0  0  0  0  0  0  0  0  0  0
  -34.0875  -27.1153   19.6556 C   0  0  0  0  0  0  0  0  0  0  0  0
  -31.3728  -26.6002   19.9898 C   0  0  0  0  0  0  0  0  0  0  0  0
  -26.8939  -28.6654   18.8411 C   0  0  0  0  0  0  0  0  0  0  0  0
  -23.9470  -12.4588   25.7149 C   0  0  0  0  0  0  0  0  0  0  0  0
  -23.2896  -14.7779   25.5501 C   0  0  0  0  0  0  0  0  0  0  0  0
  -25.8340  -27.7929   18.5982 C   0  0  0  0  0  0  0  0  0  0  0  0
  -22.5481  -11.6306   28.9665 C   0  0  0  0  0  0  0  0  0  0  0  0
  -21.7774  -10.5273   29.3328 C   0  0  0  0  0  0  0  0  0  0  0  0
  -25.0177  -28.1711   20.8365 C   0  0  0  0  0  0  0  0  0  0  0  0
  -20.1731  -11.0765   27.6118 C   0  0  0  0  0  0  0  0  0  0  0  0
  -27.1052  -20.3141   19.1407 C   0  0  0  0  0  0  0  0  0  0  0  0
  -24.3500  -13.6866   23.6735 C   0  0  0  0  0  0  0  0  0  0  0  0
  -24.1460  -13.4497   21.1418 C   0  0  0  0  0  0  0  0  0  0  0  0
  -33.4254  -27.6204   20.7858 C   0  0  0  0  0  0  0  0  0  0  0  0
  -27.0301  -29.2900   20.0892 C   0  0  0  0  0  0  0  0  0  0  0  0
  -32.0545  -27.3521   20.9618 C   0  0  0  0  0  0  0  0  0  0  0  0
  -26.0789  -29.0531   21.0918 C   0  0  0  0  0  0  0  0  0  0  0  0
  -23.3743  -13.5956   26.2855 C   0  0  0  0  0  0  0  0  0  0  0  0
  -24.8973  -27.5434   19.5970 C   0  0  0  0  0  0  0  0  0  0  0  0
  -22.1314  -12.4570   27.9228 C   0  0  0  0  0  0  0  0  0  0  0  0
  -20.5899  -10.2502   28.6555 C   0  0  0  0  0  0  0  0  0  0  0  0
  -20.9439  -12.1799   27.2455 C   0  0  0  0  0  0  0  0  0  0  0  0
  -24.8542  -13.7343   22.3246 C   0  0  0  0  0  0  0  0  0  0  0  0
  -26.6630  -21.5894   19.3528 C   0  0  0  0  0  0  0  0  0  0  0  0
  -25.0639  -13.6394   20.1379 C   0  0  0  0  0  0  0  0  0  0  0  0
  -28.8754  -21.6121   19.4268 C   0  0  0  0  0  0  0  0  0  0  0  0
  -22.7804  -13.0497   20.9662 C   0  0  0  0  0  0  0  0  0  0  0  0
  -29.2271  -29.2573   22.3861 C   0  0  0  0  0  0  0  0  0  0  0  0
  -30.0653  -16.9582   19.8484 C   0  0  0  0  0  0  0  0  0  0  0  0
  -27.3527  -31.5700   23.6746 C   0  0  0  0  0  0  0  0  0  0  0  0
  -24.2640  -33.0035   23.9022 C   0  0  0  0  0  0  0  0  0  0  0  0
  -34.2234  -28.3810   21.8150 C   0  0  0  0  0  0  0  0  0  0  0  0
  -28.1641  -30.2492   20.3264 C   0  0  0  0  0  0  0  0  0  0  0  0
  -26.1686  -29.7141   22.4422 C   0  0  0  0  0  0  0  0  0  0  0  0
  -33.3592  -29.1792   22.7877 C   0  0  0  0  0  0  0  0  0  0  0  0
  -29.7541  -13.4382   19.2548 C   0  0  0  0  0  0  0  0  0  0  0  0
  -32.2056  -28.3241   23.3023 C   0  0  0  0  0  0  0  0  0  0  0  0
  -28.4112  -13.0840   19.8923 C   0  0  0  0  0  0  0  0  0  0  0  0
  -30.4758  -14.5275   20.0419 C   0  0  0  0  0  0  0  0  0  0  0  0
  -28.3244  -15.4167   20.8801 C   0  0  0  0  0  0  0  0  0  0  0  0
  -31.2894  -27.8848   22.1538 C   0  0  1  0  0  0  0  0  0  0  0  0
  -28.4925  -30.4322   21.8050 C   0  0  1  0  0  0  0  0  0  0  0  0
  -27.5485  -14.3416   20.0988 C   0  0  2  0  0  0  0  0  0  0  0  0
  -30.2727  -22.0953   19.5564 C   0  0  0  0  0  0  0  0  0  0  0  0
  -29.3565  -18.5984   21.5078 C   0  0  0  0  0  0  0  0  0  0  0  0
  -23.0324  -34.8551   25.0651 C   0  0  0  0  0  0  0  0  0  0  0  0
  -29.2039  -18.6739   17.5846 C   0  0  0  0  0  0  0  0  0  0  0  0
  -27.2834  -29.9124   26.2354 C   0  0  0  0  0  0  0  0  0  0  0  0
  -25.3298  -31.2852   26.9884 C   0  0  0  0  0  0  0  0  0  0  0  0
  -27.5388  -32.3744   26.5929 C   0  0  0  0  0  0  0  0  0  0  0  0
  -23.0564  -23.5101   16.4681 C   0  0  0  0  0  0  0  0  0  0  0  0
  -22.3409  -22.0962   18.4002 C   0  0  0  0  0  0  0  0  0  0  0  0
  -23.6084  -34.3330   21.3406 C   0  0  0  0  0  0  0  0  0  0  0  0
  -25.2684  -22.1650   19.4107 C   0  0  0  0  0  0  0  0  0  0  0  0
  -24.7976  -22.6274   18.0250 C   0  0  0  0  0  0  0  0  0  0  0  0
  -23.2033  -24.4491   18.8263 C   0  0  0  0  0  0  0  0  0  0  0  0
  -24.0917  -25.6291   18.4383 C   0  0  0  0  0  0  0  0  0  1  0  0
  -29.1217  -18.1122   20.0766 C   0  0  1  0  0  0  0  0  0  0  0  0
  -26.1727  -31.5887   24.6160 C   0  0  1  0  0  0  0  0  0  0  0  0
  -23.8180  -34.4526   23.8266 C   0  0  2  0  0  0  0  0  0  0  0  0
  -29.3547  -19.2170   19.0154 C   0  0  2  0  0  0  0  0  0  0  0  0
  -26.5803  -31.2761   26.0835 C   0  0  0  0  0  0  0  0  0  0  0  0
  -23.3406  -23.1768   17.9482 C   0  0  0  0  0  0  0  0  0  0  0  0
  -26.1242  -14.0785   22.0951 N   0  0  0  0  0  0  0  0  0  0  0  0
  -28.4776  -20.3576   19.1912 N   0  0  0  0  0  0  0  0  0  0  0  0
  -26.2212  -14.0113   20.7563 N   0  0  0  0  0  0  0  0  0  0  0  0
  -27.7794  -22.3712   19.5270 N   0  3  0  0  0  0  0  0  0  0  0  0
  -27.2990  -30.6390   22.6277 N   0  0  0  0  0  0  0  0  0  0  0  0
  -29.6154  -15.6960   20.2361 N   0  0  0  0  0  0  0  0  0  0  0  0
  -24.9860  -13.5226   18.7952 N   0  0  0  0  0  0  0  0  0  0  0  0
  -21.9759  -12.9017   22.1043 N   0  0  0  0  0  0  0  0  0  0  0  0
  -30.4227  -28.9728   21.7544 N   0  0  0  0  0  0  0  0  0  0  0  0
  -25.5290  -32.8858   24.4380 N   0  0  0  0  0  0  0  0  0  0  0  0
  -22.9537  -34.6670   22.6316 N   0  3  0  0  0  0  0  0  0  0  0  0
  -22.2927  -12.8140   19.8348 O   0  0  0  0  0  0  0  0  0  0  0  0
  -28.7456  -28.6545   23.3382 O   0  0  0  0  0  0  0  0  0  0  0  0
  -31.1676  -17.1738   19.3379 O   0  0  0  0  0  0  0  0  0  0  0  0
  -28.2844  -32.3576   23.8571 O   0  0  0  0  0  0  0  0  0  0  0  0
  -23.5591  -32.0692   23.5271 O   0  0  0  0  0  0  0  0  0  0  0  0
  -22.8980  -13.5515   27.5598 O   0  0  0  0  0  0  0  0  0  0  0  0
  -23.8621  -26.6917   19.3628 O   0  0  0  0  0  0  0  0  0  1  0  0
  -19.8507   -9.1898   29.0064 F   0  0  0  0  0  0  0  0  0  0  0  0
  -20.5389  -12.9695   26.2413 F   0  0  0  0  0  0  0  0  0  0  0  0
  1  2  1  0  0  0  0
  1  5  2  0  0  0  0
  2  6  2  0  0  0  0
  3  8  2  0  0  0  0
  3 16  1  0  0  0  0
  4  9  1  0  0  0  0
  4 16  2  0  0  0  0
  5 18  1  0  0  0  0
  6 20  1  0  0  0  0
  7 10  2  0  0  0  0
  7 19  1  0  0  0  0
  8 22  1  0  0  0  0
  9 22  2  0  0  0  0
 10 23  1  0  0  0  0
 11 12  2  0  0  0  0
 11 24  1  0  0  0  0
 12 25  1  0  0  0  0
 13 21  1  0  0  0  0
 13 23  2  0  0  0  0
 14 25  2  0  0  0  0
 14 26  1  0  0  0  0
 15 28  2  0  0  0  0
 15 69  1  0  0  0  0
 16 27  1  0  0  0  0
 17 27  1  0  0  0  0
 17 29  2  0  0  0  0
 17 31  1  0  0  0  0
 18 20  2  0  0  0  0
 18 36  1  0  0  0  0
 19 21  2  0  0  0  0
 19 37  1  0  0  0  0
 20 45  1  0  0  0  0
 21 38  1  0  0  0  0
 22 84  1  0  0  0  0
 23 85  1  0  0  0  0
 24 26  2  0  0  0  0
 24 84  1  0  0  0  0
 25 86  1  0  0  0  0
 26 87  1  0  0  0  0
 27 68  2  0  0  0  0
 28 58  1  0  0  0  0
 28 71  1  0  0  0  0
 29 70  1  0  0  0  0
 29 74  1  0  0  0  0
 30 48  1  0  0  0  0
 30 69  1  0  0  0  0
 30 71  2  0  0  0  0
 31 75  1  0  0  0  0
 31 79  2  0  0  0  0
 32 46  1  0  0  0  0
 32 76  1  0  0  0  0
 32 80  2  0  0  0  0
 33 62  1  0  0  0  0
 33 73  1  0  0  0  0
 33 81  2  0  0  0  0
 34 63  1  0  0  0  0
 34 72  1  0  0  0  0
 34 82  2  0  0  0  0
 35 64  1  0  0  0  0
 35 77  1  0  0  0  0
 35 83  2  0  0  0  0
 36 39  1  0  0  0  0
 37 46  1  0  0  0  0
 38 72  1  0  0  0  0
 39 41  1  0  0  0  0
 40 42  1  0  0  0  0
 40 43  1  0  0  0  0
 41 45  1  0  0  0  0
 42 47  1  0  0  0  0
 43 73  1  0  0  0  0
 44 47  1  0  0  0  0
 44 73  1  0  0  0  0
 45 76  1  0  0  0  0
 46 72  1  0  0  0  0
 47 70  1  0  0  0  0
 49 62  1  0  0  0  0
 50 64  1  0  0  0  0
 51 65  1  0  0  0  0
 52 66  1  0  0  0  0
 53 66  1  0  0  0  0
 54 66  1  0  0  0  0
 55 67  1  0  0  0  0
 56 67  1  0  0  0  0
 57 78  1  0  0  0  0
 58 59  1  0  0  0  0
 59 67  1  0  0  0  0
 60 61  1  0  0  0  0
 60 67  1  0  0  0  0
 61 85  1  0  0  0  0
 62 65  1  0  0  0  0
 63 66  1  0  0  0  0
 63 77  1  0  0  0  0
 64 78  1  0  0  0  0
 65 69  1  0  0  0  0
 68 70  1  0  0  0  0
M  CHG  2  71   1  78   1
M  ISO  4  33 100  61 101  62 100  85 101
M  END
> <Batch ID>
0077

> <Smiles>
CNC(C)C(=O)NC(C(=O)N1Cc2cc([101O:1][101CH2:1]CC(C)(C)CCc3cn(C(C)[100CH:0](C)[100C:0](=O)N4CCCC(n5nc(-c6ccc(Oc7ccc(F)cc7F)cc6)c(C(N)=O)c5N)C4)c(C)n3)ccc2CC1C(=O)NC1CCCc2ccccc21)C(C)(C)C

> <Shape>
0.235

> <Color>
0.074

> <Negative vol penalty>
0.000

$$$$

  -OEChem-04052318373D

 81 89  0     1  0  0  0  0  0999 V2000
  -24.1086  -11.6890   20.2479 C   0  0  0  0  0  0  0  0  0  0  0  0
  -23.6834  -13.0121   20.3111 C   0  0  0  0  0  0  0  0  0  0  0  0
  -25.6535  -28.5444   21.2776 C   0  0  0  0  0  0  0  0  0  0  0  0
  -25.0522  -27.4415   19.2138 C   0  0  0  0  0  0  0  0  0  0  0  0
  -25.4024  -11.3541   20.6450 C   0  0  0  0  0  0  0  0  0  0  0  0
  -24.5516  -14.0010   20.7724 C   0  0  0  0  0  0  0  0  0  0  0  0
  -24.4695  -18.1601   17.8845 C   0  0  0  0  0  0  0  0  0  0  0  0
  -26.9506  -28.0436   21.1673 C   0  0  0  0  0  0  0  0  0  0  0  0
  -26.3494  -26.9407   19.1035 C   0  0  0  0  0  0  0  0  0  0  0  0
  -23.3959  -19.0329   18.0556 C   0  0  0  0  0  0  0  0  0  0  0  0
  -30.5188  -27.3522   21.2419 C   0  0  0  0  0  0  0  0  0  0  0  0
  -31.5755  -28.2284   21.4894 C   0  0  0  0  0  0  0  0  0  0  0  0
  -24.7806  -20.4584   19.4230 C   0  0  0  0  0  0  0  0  0  0  0  0
  -30.8213  -29.6474   19.6852 C   0  0  0  0  0  0  0  0  0  0  0  0
  -19.6467  -23.6280   21.1217 C   0  0  0  0  0  0  0  0  0  0  0  0
  -24.7042  -28.2434   20.3009 C   0  0  0  0  0  0  0  0  0  0  0  0
  -22.8765  -29.9785   19.9051 C   0  0  0  0  0  0  0  0  0  0  0  0
  -26.2901  -12.3407   21.1024 C   0  0  0  0  0  0  0  0  0  0  0  0
  -25.7057  -18.4247   18.4913 C   0  0  0  0  0  0  0  0  0  0  0  0
  -25.8581  -13.6787   21.1773 C   0  0  0  0  0  0  0  0  0  0  0  0
  -25.8690  -19.5886   19.2559 C   0  0  0  0  0  0  0  0  0  0  0  0
  -27.2986  -27.2417   20.0803 C   0  0  0  0  0  0  0  0  0  0  0  0
  -23.5505  -20.1808   18.8273 C   0  0  0  0  0  0  0  0  0  0  0  0
  -29.6133  -27.6235   20.2161 C   0  0  0  0  0  0  0  0  0  0  0  0
  -31.7267  -29.3760   20.7111 C   0  0  0  0  0  0  0  0  0  0  0  0
  -29.7646  -28.7711   19.4378 C   0  0  0  0  0  0  0  0  0  0  0  0
  -23.3640  -28.7599   20.4145 C   0  0  0  0  0  0  0  0  0  0  0  0
  -19.1987  -24.3888   20.0643 C   0  0  0  0  0  0  0  0  0  0  0  0
  -21.0138  -23.7442   18.8315 C   0  0  0  0  0  0  0  0  0  0  0  0
  -21.4621  -22.9841   19.8892 C   0  0  0  0  0  0  0  0  0  0  0  0
  -21.5545  -30.0017   20.2769 C   0  0  0  0  0  0  0  0  0  0  0  0
  -23.5578  -30.9981   19.1623 C   0  0  0  0  0  0  0  0  0  0  0  0
  -27.5073  -16.9430   20.6506 C   0  0  0  0  0  0  0  0  0  0  0  0
  -29.6229  -19.2929   19.9262 C   0  0  0  0  0  0  0  0  0  0  0  0
  -17.6797  -25.6024   21.5974 C   0  0  0  0  0  0  0  0  0  0  0  0
  -30.1561  -22.4399   18.7184 C   0  0  0  0  0  0  0  0  0  0  0  0
  -27.6634  -11.9234   21.5654 C   0  0  0  0  0  0  0  0  0  0  0  0
  -26.8616  -17.4868   18.2750 C   0  0  0  0  0  0  0  0  0  0  0  0
  -27.1814  -19.9287   19.9120 C   0  0  0  0  0  0  0  0  0  0  0  0
  -28.6443  -13.0866   21.6885 C   0  0  0  0  0  0  0  0  0  0  0  0
  -18.5767  -28.3988   23.6506 C   0  0  0  0  0  0  0  0  0  0  0  0
  -27.9951  -14.2572   22.4200 C   0  0  0  0  0  0  0  0  0  0  0  0
  -19.8768  -28.9016   23.0243 C   0  0  0  0  0  0  0  0  0  0  0  0
  -18.4658  -26.8799   23.5633 C   0  0  0  0  0  0  0  0  0  0  0  0
  -19.9012  -26.8410   21.5484 C   0  0  0  0  0  0  0  0  0  0  0  0
  -26.7787  -14.7835   21.6487 C   0  0  1  0  0  0  0  0  0  0  0  0
  -27.9272  -17.5913   19.3618 C   0  0  1  0  0  0  0  0  0  0  0  0
  -20.0390  -28.3732   21.5880 C   0  0  2  0  0  0  0  0  0  0  0  0
  -21.7703  -23.8143   17.5491 C   0  0  0  0  0  0  0  0  0  0  0  0
  -31.9880  -24.0991   18.2844 C   0  0  0  0  0  0  0  0  0  0  0  0
  -16.7138  -24.3187   19.7281 C   0  0  0  0  0  0  0  0  0  0  0  0
  -17.8759  -26.4993   19.3693 C   0  0  0  0  0  0  0  0  0  0  0  0
  -29.7658  -19.9121   22.9105 C   0  0  0  0  0  0  0  0  0  0  0  0
  -30.8176  -22.1095   22.3332 C   0  0  0  0  0  0  0  0  0  0  0  0
  -31.9664  -19.9806   21.7244 C   0  0  0  0  0  0  0  0  0  0  0  0
  -29.5847  -22.4861   15.8149 C   0  0  0  0  0  0  0  0  0  0  0  0
  -22.7328  -22.1912   19.7998 C   0  0  0  0  0  0  0  0  0  1  0  0
  -29.8987  -20.6817   20.4496 C   0  0  1  0  0  0  0  0  0  0  0  0
  -31.1482  -22.9736   17.7008 C   0  0  2  0  0  0  0  0  0  0  0  0
  -17.9352  -25.1679   20.1762 C   0  0  0  0  0  0  0  0  0  0  0  0
  -30.5867  -20.6639   21.8438 C   0  0  0  0  0  0  0  0  0  0  0  0
  -20.7865  -22.9120   21.0531 N   0  0  0  0  0  0  0  0  0  0  0  0
  -22.4279  -28.0599   21.0608 N   0  0  0  0  0  0  0  0  0  0  0  0
  -19.8742  -24.4605   18.9002 N   0  0  0  0  0  0  0  0  0  0  0  0
  -21.3390  -28.8411   20.9601 N   0  0  0  0  0  0  0  0  0  0  0  0
  -28.2799  -18.9773   19.6761 N   0  0  0  0  0  0  0  0  0  0  0  0
  -18.6477  -26.4159   22.1867 N   0  0  0  0  0  0  0  0  0  0  0  0
  -20.5671  -30.9016   20.0829 N   0  0  0  0  0  0  0  0  0  0  0  0
  -24.9153  -30.8145   18.8657 N   0  0  0  0  0  0  0  0  0  0  0  0
  -27.2030  -15.6003   20.5320 N   0  0  0  0  0  0  0  0  0  0  0  0
  -30.6663  -21.3636   19.4132 N   0  0  0  0  0  0  0  0  0  0  0  0
  -30.4314  -23.4946   16.5026 N   0  3  0  0  0  0  0  0  0  0  0  0
  -22.9841  -32.0486   18.7871 O   0  0  0  0  0  0  0  0  0  0  0  0
  -27.4642  -17.6111   21.6770 O   0  0  0  0  0  0  0  0  0  0  0  0
  -30.5651  -18.5190   19.7392 O   0  0  0  0  0  0  0  0  0  0  0  0
  -16.6486  -25.2313   22.1643 O   0  0  0  0  0  0  0  0  0  0  0  0
  -29.0417  -22.9311   18.8833 O   0  0  0  0  0  0  0  0  0  0  0  0
  -28.5643  -26.7531   19.9722 O   0  0  0  0  0  0  0  0  0  0  0  0
  -22.5041  -21.0342   18.9965 O   0  0  0  0  0  0  0  0  0  1  0  0
  -32.7406  -30.2182   20.9498 F   0  0  0  0  0  0  0  0  0  0  0  0
  -28.8972  -29.0377   18.4517 F   0  0  0  0  0  0  0  0  0  0  0  0
  1  2  1  0  0  0  0
  1  5  2  0  0  0  0
  2  6  2  0  0  0  0
  3  8  2  0  0  0  0
  3 16  1  0  0  0  0
  4  9  1  0  0  0  0
  4 16  2  0  0  0  0
  5 18  1  0  0  0  0
  6 20  1  0  0  0  0
  7 10  2  0  0  0  0
  7 19  1  0  0  0  0
  8 22  1  0  0  0  0
  9 22  2  0  0  0  0
 10 23  1  0  0  0  0
 11 12  2  0  0  0  0
 11 24  1  0  0  0  0
 12 25  1  0  0  0  0
 13 21  1  0  0  0  0
 13 23  2  0  0  0  0
 14 25  2  0  0  0  0
 14 26  1  0  0  0  0
 15 28  1  0  0  0  0
 15 62  2  0  0  0  0
 16 27  1  0  0  0  0
 17 27  1  0  0  0  0
 17 31  2  0  0  0  0
 17 32  1  0  0  0  0
 18 20  2  0  0  0  0
 18 37  1  0  0  0  0
 19 21  2  0  0  0  0
 19 38  1  0  0  0  0
 20 46  1  0  0  0  0
 21 39  1  0  0  0  0
 22 78  1  0  0  0  0
 23 79  1  0  0  0  0
 24 26  2  0  0  0  0
 24 78  1  0  0  0  0
 25 80  1  0  0  0  0
 26 81  1  0  0  0  0
 27 63  2  0  0  0  0
 28 60  1  0  0  0  0
 28 64  2  0  0  0  0
 29 30  2  0  0  0  0
 29 49  1  0  0  0  0
 29 64  1  0  0  0  0
 30 57  1  0  0  0  0
 30 62  1  0  0  0  0
 31 65  1  0  0  0  0
 31 68  1  0  0  0  0
 32 69  1  0  0  0  0
 32 73  2  0  0  0  0
 33 47  1  0  0  0  0
 33 70  1  0  0  0  0
 33 74  2  0  0  0  0
 34 58  1  0  0  0  0
 34 66  1  0  0  0  0
 34 75  2  0  0  0  0
 35 60  1  0  0  0  0
 35 67  1  0  0  0  0
 35 76  2  0  0  0  0
 36 59  1  0  0  0  0
 36 71  1  0  0  0  0
 36 77  2  0  0  0  0
 37 40  1  0  0  0  0
 38 47  1  0  0  0  0
 39 66  1  0  0  0  0
 40 42  1  0  0  0  0
 41 43  1  0  0  0  0
 41 44  1  0  0  0  0
 42 46  1  0  0  0  0
 43 48  1  0  0  0  0
 44 67  1  0  0  0  0
 45 48  1  0  0  0  0
 45 67  1  0  0  0  0
 46 70  1  0  0  0  0
 47 66  1  0  0  0  0
 48 65  1  0  0  0  0
 50 59  1  0  0  0  0
 51 60  1  0  0  0  0
 52 60  1  0  0  0  0
 53 61  1  0  0  0  0
 54 61  1  0  0  0  0
 55 61  1  0  0  0  0
 56 72  1  0  0  0  0
 57 79  1  0  0  0  0
 58 61  1  0  0  0  0
 58 71  1  0  0  0  0
 59 72  1  0  0  0  0
 63 65  1  0  0  0  0
M  CHG  1  72   1
M  ISO  4  35 100  57 101  60 100  79 101
M  END
> <Batch ID>
0077

> <Smiles>
CNC(C)C(=O)NC(C(=O)N1Cc2cc([101O:1][101CH2:1]c3ncc([100C:0](C)(C)[100C:0](=O)N4CCCC(n5nc(-c6ccc(Oc7ccc(F)cc7F)cc6)c(C(N)=O)c5N)C4)nc3C)ccc2CC1C(=O)NC1CCCc2ccccc21)C(C)(C)C

> <Shape>
0.233

> <Color>
0.101

> <Negative vol penalty>
0.000

$$$$

  -OEChem-04052318373D

 89 97  0     1  0  0  0  0  0999 V2000
  -21.6292  -28.9442   22.5325 C   0  0  0  0  0  0  0  0  0  0  0  0
  -22.1731  -27.6742   22.6962 C   0  0  0  0  0  0  0  0  0  0  0  0
  -23.5877   -9.8162   21.1534 C   0  0  0  0  0  0  0  0  0  0  0  0
  -24.2465  -10.6502   23.3230 C   0  0  0  0  0  0  0  0  0  0  0  0
  -22.3416  -29.9224   21.8401 C   0  0  0  0  0  0  0  0  0  0  0  0
  -23.4293  -27.3814   22.1666 C   0  0  0  0  0  0  0  0  0  0  0  0
  -26.3644  -24.8405   25.4184 C   0  0  0  0  0  0  0  0  0  0  0  0
  -23.0010   -8.7049   21.7587 C   0  0  0  0  0  0  0  0  0  0  0  0
  -23.6597   -9.5389   23.9284 C   0  0  0  0  0  0  0  0  0  0  0  0
  -26.1173  -23.4765   25.5673 C   0  0  0  0  0  0  0  0  0  0  0  0
  -24.4294   -6.2877   24.4465 C   0  0  0  0  0  0  0  0  0  0  0  0
  -25.1514   -5.6386   25.4479 C   0  0  0  0  0  0  0  0  0  0  0  0
  -27.9629  -22.9873   24.0929 C   0  0  0  0  0  0  0  0  0  0  0  0
  -23.3751   -6.0911   27.0218 C   0  0  0  0  0  0  0  0  0  0  0  0
  -24.2105  -10.7888   21.9356 C   0  0  0  0  0  0  0  0  0  0  0  0
  -24.2044  -13.1709   21.0227 C   0  0  0  0  0  0  0  0  0  0  0  0
  -23.6114  -29.6443   21.3100 C   0  0  0  0  0  0  0  0  0  0  0  0
  -27.4076  -25.2892   24.5957 C   0  0  0  0  0  0  0  0  0  0  0  0
  -24.1588  -28.3564   21.4653 C   0  0  0  0  0  0  0  0  0  0  0  0
  -28.2228  -24.3575   23.9373 C   0  0  0  0  0  0  0  0  0  0  0  0
  -28.3020  -16.9077   23.9622 C   0  0  0  0  0  0  0  0  0  0  0  0
  -29.6072  -16.4299   23.9996 C   0  0  0  0  0  0  0  0  0  0  0  0
  -27.8661  -17.6376   22.8619 C   0  0  0  0  0  0  0  0  0  0  0  0
  -23.0370   -8.5662   23.1462 C   0  0  0  0  0  0  0  0  0  0  0  0
  -26.9147  -22.5498   24.9022 C   0  0  0  0  0  0  0  0  0  0  0  0
  -23.1803   -6.8386   24.7327 C   0  0  0  0  0  0  0  0  0  0  0  0
  -24.6243   -5.5402   26.7356 C   0  0  0  0  0  0  0  0  0  0  0  0
  -22.6531   -6.7403   26.0204 C   0  0  0  0  0  0  0  0  0  0  0  0
  -24.8172  -11.9367   21.3108 C   0  0  0  0  0  0  0  0  0  0  0  0
  -30.4304  -16.7069   22.9201 C   0  0  0  0  0  0  0  0  0  0  0  0
  -28.7673  -17.8607   21.8334 C   0  0  0  0  0  0  0  0  0  0  0  0
  -25.1961  -13.9179   20.4354 C   0  0  0  0  0  0  0  0  0  0  0  0
  -22.8590  -13.6035   21.2645 C   0  0  0  0  0  0  0  0  0  0  0  0
  -27.5846  -27.0654   21.9656 C   0  0  0  0  0  0  0  0  0  0  0  0
  -30.7780  -26.7937   22.4662 C   0  0  0  0  0  0  0  0  0  0  0  0
  -33.3542  -25.0353   23.8512 C   0  0  0  0  0  0  0  0  0  0  0  0
  -31.1723  -13.7305   20.7529 C   0  0  0  0  0  0  0  0  0  0  0  0
  -24.3232  -30.7199   20.5283 C   0  0  0  0  0  0  0  0  0  0  0  0
  -27.6780  -26.7632   24.4667 C   0  0  0  0  0  0  0  0  0  0  0  0
  -29.3681  -24.7870   23.0585 C   0  0  0  0  0  0  0  0  0  0  0  0
  -25.8096  -30.4402   20.3218 C   0  0  0  0  0  0  0  0  0  0  0  0
  -29.1750  -13.4621   17.8178 C   0  0  0  0  0  0  0  0  0  0  0  0
  -26.0237  -29.0000   19.8672 C   0  0  0  0  0  0  0  0  0  0  0  0
  -27.7764  -13.1521   18.3542 C   0  0  0  0  0  0  0  0  0  0  0  0
  -30.2617  -12.7867   18.6514 C   0  0  0  0  0  0  0  0  0  0  0  0
  -28.7983  -12.7576   20.6342 C   0  0  0  0  0  0  0  0  0  0  0  0
  -25.5294  -28.0078   20.9267 C   0  0  1  0  0  0  0  0  0  0  0  0
  -28.4439  -27.1214   23.1969 C   0  0  1  0  0  0  0  0  0  0  0  0
  -27.6716  -13.4624   19.8595 C   0  0  2  0  0  0  0  0  0  0  0  0
  -27.3711  -16.6400   25.1016 C   0  0  0  0  0  0  0  0  0  0  0  0
  -30.1037  -15.6428   25.1658 C   0  0  0  0  0  0  0  0  0  0  0  0
  -29.3629  -18.5092   19.4858 C   0  0  0  0  0  0  0  0  0  0  0  0
  -35.8551  -25.0392   24.0583 C   0  0  0  0  0  0  0  0  0  0  0  0
  -24.6242  -19.5572   23.8077 C   0  0  0  0  0  0  0  0  0  0  0  0
  -32.7466  -16.7386   24.0737 C   0  0  0  0  0  0  0  0  0  0  0  0
  -32.5645  -16.6929   21.5998 C   0  0  0  0  0  0  0  0  0  0  0  0
  -31.0147  -25.7795   19.5982 C   0  0  0  0  0  0  0  0  0  0  0  0
  -33.2977  -24.9216   20.1637 C   0  0  0  0  0  0  0  0  0  0  0  0
  -32.8177  -27.3660   20.2958 C   0  0  0  0  0  0  0  0  0  0  0  0
  -33.2257  -25.2652   26.7990 C   0  0  0  0  0  0  0  0  0  0  0  0
  -26.4554  -18.1700   22.7909 C   0  0  0  0  0  0  0  0  0  0  0  0
  -28.3582  -18.6400   20.6264 C   0  0  0  0  0  0  0  0  0  0  0  0
  -31.9378  -14.6527   22.9261 C   0  0  0  0  0  0  0  0  0  0  0  0
  -27.0066  -20.3761   23.9416 C   0  0  0  0  0  0  0  0  0  1  0  0
  -31.8473  -25.8162   22.0418 C   0  0  1  0  0  0  0  0  0  0  0  0
  -34.5417  -25.4782   24.6868 C   0  0  2  0  0  0  0  0  0  0  0  0
  -26.0952  -19.1406   23.9335 C   0  0  1  0  0  0  0  0  0  0  0  0
  -31.8424  -16.2198   22.9029 C   0  0  0  0  0  0  0  0  0  0  0  0
  -32.2216  -25.9625   20.5398 C   0  0  0  0  0  0  0  0  0  0  0  0
  -26.0990  -11.8978   20.9371 N   0  0  0  0  0  0  0  0  0  0  0  0
  -30.0428  -17.4125   21.8341 N   0  0  0  0  0  0  0  0  0  0  0  0
  -26.2996  -13.1168   20.4081 N   0  0  0  0  0  0  0  0  0  0  0  0
  -29.5883  -26.2393   22.9593 N   0  0  0  0  0  0  0  0  0  0  0  0
  -30.1067  -13.1228   20.0688 N   0  0  0  0  0  0  0  0  0  0  0  0
  -25.2232  -15.1752   19.9446 N   0  0  0  0  0  0  0  0  0  0  0  0
  -21.9698  -12.7100   21.8771 N   0  0  0  0  0  0  0  0  0  0  0  0
  -26.4867  -27.9035   22.0071 N   0  0  0  0  0  0  0  0  0  0  0  0
  -32.9657  -26.0113   22.9581 N   0  0  0  0  0  0  0  0  0  0  0  0
  -30.9399  -14.0215   22.0916 N   0  0  0  0  0  0  0  0  0  0  0  0
  -34.4578  -24.8956   26.0559 N   0  3  0  0  0  0  0  0  0  0  0  0
  -22.4527  -14.7427   20.9318 O   0  0  0  0  0  0  0  0  0  0  0  0
  -27.8955  -26.3184   21.0453 O   0  0  0  0  0  0  0  0  0  0  0  0
  -30.9932  -28.0045   22.3705 O   0  0  0  0  0  0  0  0  0  0  0  0
  -32.8265  -23.9323   23.9756 O   0  0  0  0  0  0  0  0  0  0  0  0
  -32.2492  -13.9990   20.2096 O   0  0  0  0  0  0  0  0  0  0  0  0
  -22.4644   -7.4821   23.7372 O   0  0  0  0  0  0  0  0  0  0  0  0
  -26.6752  -21.2178   25.0453 O   0  0  0  0  0  0  0  0  0  1  0  0
  -25.3171   -4.9155   27.6968 F   0  0  0  0  0  0  0  0  0  0  0  0
  -21.4531   -7.2665   26.3011 F   0  0  0  0  0  0  0  0  0  0  0  0
  1  2  1  0  0  0  0
  1  5  2  0  0  0  0
  2  6  2  0  0  0  0
  3  8  2  0  0  0  0
  3 15  1  0  0  0  0
  4  9  1  0  0  0  0
  4 15  2  0  0  0  0
  5 17  1  0  0  0  0
  6 19  1  0  0  0  0
  7 10  2  0  0  0  0
  7 18  1  0  0  0  0
  8 24  1  0  0  0  0
  9 24  2  0  0  0  0
 10 25  1  0  0  0  0
 11 12  2  0  0  0  0
 11 26  1  0  0  0  0
 12 27  1  0  0  0  0
 13 20  1  0  0  0  0
 13 25  2  0  0  0  0
 14 27  2  0  0  0  0
 14 28  1  0  0  0  0
 15 29  1  0  0  0  0
 16 29  1  0  0  0  0
 16 32  2  0  0  0  0
 16 33  1  0  0  0  0
 17 19  2  0  0  0  0
 17 38  1  0  0  0  0
 18 20  2  0  0  0  0
 18 39  1  0  0  0  0
 19 47  1  0  0  0  0
 20 40  1  0  0  0  0
 21 22  2  0  0  0  0
 21 23  1  0  0  0  0
 21 50  1  0  0  0  0
 22 30  1  0  0  0  0
 22 51  1  0  0  0  0
 23 31  2  0  0  0  0
 23 61  1  0  0  0  0
 24 86  1  0  0  0  0
 25 87  1  0  0  0  0
 26 28  2  0  0  0  0
 26 86  1  0  0  0  0
 27 88  1  0  0  0  0
 28 89  1  0  0  0  0
 29 70  2  0  0  0  0
 30 68  1  0  0  0  0
 30 71  2  0  0  0  0
 31 62  1  0  0  0  0
 31 71  1  0  0  0  0
 32 72  1  0  0  0  0
 32 75  1  0  0  0  0
 33 76  1  0  0  0  0
 33 81  2  0  0  0  0
 34 48  1  0  0  0  0
 34 77  1  0  0  0  0
 34 82  2  0  0  0  0
 35 65  1  0  0  0  0
 35 73  1  0  0  0  0
 35 83  2  0  0  0  0
 36 66  1  0  0  0  0
 36 78  1  0  0  0  0
 36 84  2  0  0  0  0
 37 74  1  0  0  0  0
 37 79  1  0  0  0  0
 37 85  2  0  0  0  0
 38 41  1  0  0  0  0
 39 48  1  0  0  0  0
 40 73  1  0  0  0  0
 41 43  1  0  0  0  0
 42 44  1  0  0  0  0
 42 45  1  0  0  0  0
 43 47  1  0  0  0  0
 44 49  1  0  0  0  0
 45 74  1  0  0  0  0
 46 49  1  0  0  0  0
 46 74  1  0  0  0  0
 47 77  1  0  0  0  0
 48 73  1  0  0  0  0
 49 72  1  0  0  0  0
 52 62  1  0  0  0  0
 53 66  1  0  0  0  0
 54 67  1  0  0  0  0
 55 68  1  0  0  0  0
 56 68  1  0  0  0  0
 57 69  1  0  0  0  0
 58 69  1  0  0  0  0
 59 69  1  0  0  0  0
 60 80  1  0  0  0  0
 61 67  1  0  0  0  0
 63 68  1  0  0  0  0
 63 79  1  0  0  0  0
 64 67  1  0  0  0  0
 64 87  1  0  0  0  0
 65 69  1  0  0  0  0
 65 78  1  0  0  0  0
 66 80  1  0  0  0  0
 70 72  1  0  0  0  0
M  CHG  1  80   1
M  ISO  4  37 100  64 101  79 100  87 101
M  END
> <Batch ID>
0077

> <Smiles>
CCc1nc(C(C)(C)C[100NH:0][100C:0](=O)N2CCCC(n3nc(-c4ccc(Oc5ccc(F)cc5F)cc4)c(C(N)=O)c3N)C2)c(C)c(C)c1CC(C)[101CH2:1][101O:1]c1ccc2c(c1)CN(C(=O)C(NC(=O)C(C)NC)C(C)(C)C)C(C(=O)NC1CCCc3ccccc31)C2

> <Shape>
0.234

> <Color>
0.145

> <Negative vol penalty>
0.000

$$$$

  -OEChem-04052318373D

 89 97  0     1  0  0  0  0  0999 V2000
  -43.8747  -24.3059   28.8226 C   0  0  0  0  0  0  0  0  0  0  0  0
  -42.6626  -24.7141   28.2752 C   0  0  0  0  0  0  0  0  0  0  0  0
  -23.2861   -9.8000   19.9137 C   0  0  0  0  0  0  0  0  0  0  0  0
  -23.7356   -9.9418   22.2833 C   0  0  0  0  0  0  0  0  0  0  0  0
  -44.4895  -23.1423   28.3623 C   0  0  0  0  0  0  0  0  0  0  0  0
  -42.0651  -23.9593   27.2663 C   0  0  0  0  0  0  0  0  0  0  0  0
  -35.6173  -22.0849   24.7707 C   0  0  0  0  0  0  0  0  0  0  0  0
  -22.5589   -8.6281   20.1218 C   0  0  0  0  0  0  0  0  0  0  0  0
  -23.0083   -8.7699   22.4914 C   0  0  0  0  0  0  0  0  0  0  0  0
  -34.8831  -22.0719   23.5855 C   0  0  0  0  0  0  0  0  0  0  0  0
  -19.4762   -7.7703   21.2147 C   0  0  0  0  0  0  0  0  0  0  0  0
  -18.2475   -7.6461   20.5663 C   0  0  0  0  0  0  0  0  0  0  0  0
  -35.9974  -20.0370   22.9246 C   0  0  0  0  0  0  0  0  0  0  0  0
  -19.0484   -5.6721   19.4266 C   0  0  0  0  0  0  0  0  0  0  0  0
  -23.8745  -10.4569   20.9945 C   0  0  0  0  0  0  0  0  0  0  0  0
  -24.1356  -12.9866   20.7945 C   0  0  0  0  0  0  0  0  0  0  0  0
  -43.8945  -22.3677   27.3540 C   0  0  0  0  0  0  0  0  0  0  0  0
  -36.5565  -21.0782   25.0372 C   0  0  0  0  0  0  0  0  0  0  0  0
  -42.6732  -22.7849   26.7912 C   0  0  0  0  0  0  0  0  0  0  0  0
  -36.7403  -20.0381   24.1150 C   0  0  0  0  0  0  0  0  0  0  0  0
  -22.4200   -8.1130   21.4106 C   0  0  0  0  0  0  0  0  0  0  0  0
  -35.0752  -21.0495   22.6609 C   0  0  0  0  0  0  0  0  0  0  0  0
  -20.4911   -6.8454   20.9690 C   0  0  0  0  0  0  0  0  0  0  0  0
  -18.0336   -6.5970   19.6723 C   0  0  0  0  0  0  0  0  0  0  0  0
  -20.2772   -5.7963   20.0749 C   0  0  0  0  0  0  0  0  0  0  0  0
  -24.6263  -11.6672   20.7802 C   0  0  0  0  0  0  0  0  0  0  0  0
  -30.5834  -18.1049   21.8500 C   0  0  0  0  0  0  0  0  0  0  0  0
  -31.2457  -19.2814   22.1233 C   0  0  0  0  0  0  0  0  0  0  0  0
  -31.3275  -18.7207   24.3389 C   0  0  0  0  0  0  0  0  0  0  0  0
  -30.6645  -17.5446   24.0656 C   0  0  0  0  0  0  0  0  0  0  0  0
  -25.2377  -13.7657   20.5397 C   0  0  0  0  0  0  0  0  0  0  0  0
  -22.8027  -13.4652   21.0182 C   0  0  0  0  0  0  0  0  0  0  0  0
  -39.7001  -21.0095   25.5022 C   0  0  0  0  0  0  0  0  0  0  0  0
  -39.1400  -17.8858   26.1735 C   0  0  0  0  0  0  0  0  0  0  0  0
  -37.1302  -15.1547   25.7879 C   0  0  0  0  0  0  0  0  0  0  0  0
  -31.1077  -12.9195   21.3632 C   0  0  0  0  0  0  0  0  0  0  0  0
  -44.6202  -21.1430   26.8559 C   0  0  0  0  0  0  0  0  0  0  0  0
  -37.3211  -21.0919   26.3324 C   0  0  0  0  0  0  0  0  0  0  0  0
  -37.7218  -18.9228   24.3629 C   0  0  0  0  0  0  0  0  0  0  0  0
  -43.7361  -20.1986   26.0456 C   0  0  0  0  0  0  0  0  0  0  0  0
  -29.4610  -13.6581   18.2940 C   0  0  0  0  0  0  0  0  0  0  0  0
  -42.9175  -20.9798   25.0226 C   0  0  0  0  0  0  0  0  0  0  0  0
  -27.9909  -13.3506   18.5844 C   0  0  0  0  0  0  0  0  0  0  0  0
  -30.3933  -12.6785   19.0035 C   0  0  0  0  0  0  0  0  0  0  0  0
  -28.7054  -12.2513   20.7477 C   0  0  0  0  0  0  0  0  0  0  0  0
  -41.9817  -21.9797   25.7125 C   0  0  1  0  0  0  0  0  0  0  0  0
  -38.6213  -20.2965   26.2672 C   0  0  1  0  0  0  0  0  0  0  0  0
  -27.7284  -13.2467   20.0989 C   0  0  2  0  0  0  0  0  0  0  0  0
  -30.1637  -17.7526   20.4640 C   0  0  0  0  0  0  0  0  0  0  0  0
  -31.0689  -20.3570   26.2387 C   0  0  0  0  0  0  0  0  0  0  0  0
  -33.2766  -19.1992   25.8640 C   0  0  0  0  0  0  0  0  0  0  0  0
  -28.9911  -16.9099   25.8214 C   0  0  0  0  0  0  0  0  0  0  0  0
  -36.9529  -12.7337   26.4242 C   0  0  0  0  0  0  0  0  0  0  0  0
  -41.2707  -17.1883   24.1038 C   0  0  0  0  0  0  0  0  0  0  0  0
  -40.3920  -14.8440   24.0915 C   0  0  0  0  0  0  0  0  0  0  0  0
  -41.3467  -15.8052   26.1860 C   0  0  0  0  0  0  0  0  0  0  0  0
  -34.5834  -15.5999   27.2282 C   0  0  0  0  0  0  0  0  0  0  0  0
  -31.5770  -20.2686   21.0327 C   0  0  0  0  0  0  0  0  0  0  0  0
  -32.7632  -19.8491   20.1617 C   0  0  0  0  0  0  0  0  0  0  0  0
  -31.6784  -14.6078   24.1684 C   0  0  0  0  0  0  0  0  0  0  0  0
  -30.3099  -15.0865   24.6742 C   0  0  0  0  0  0  0  0  0  0  0  0
  -31.6683  -13.1344   23.7712 C   0  0  0  0  0  0  0  0  0  0  0  0
  -34.0755  -19.7586   20.9318 C   0  0  0  0  0  0  0  0  0  1  0  0
  -31.7473  -19.0725   25.7250 C   0  0  0  0  0  0  0  0  0  0  0  0
  -30.3357  -16.5692   25.1438 C   0  0  1  0  0  0  0  0  0  0  0  0
  -39.0944  -16.6104   25.3670 C   0  0  1  0  0  0  0  0  0  0  0  0
  -36.5778  -14.1605   26.7934 C   0  0  2  0  0  0  0  0  0  0  0  0
  -40.5088  -16.1339   24.9312 C   0  0  0  0  0  0  0  0  0  0  0  0
  -25.9380  -11.6076   20.5354 N   0  0  0  0  0  0  0  0  0  0  0  0
  -30.2808  -17.2154   22.8163 N   0  0  0  0  0  0  0  0  0  0  0  0
  -31.6297  -19.6104   23.3726 N   0  0  0  0  0  0  0  0  0  0  0  0
  -26.2809  -12.8993   20.3935 N   0  0  0  0  0  0  0  0  0  0  0  0
  -38.4500  -18.9840   25.6409 N   0  0  0  0  0  0  0  0  0  0  0  0
  -30.0931  -12.6282   20.4364 N   0  0  0  0  0  0  0  0  0  0  0  0
  -25.4065  -15.1004   20.4285 N   0  0  0  0  0  0  0  0  0  0  0  0
  -21.7894  -12.5291   21.2657 N   0  0  0  0  0  0  0  0  0  0  0  0
  -40.8241  -21.2991   26.2521 N   0  0  0  0  0  0  0  0  0  0  0  0
  -38.3604  -15.6426   26.1750 N   0  0  0  0  0  0  0  0  0  0  0  0
  -30.7372  -12.8550   22.7008 N   0  0  0  0  0  0  0  0  0  0  0  0
  -35.0918  -14.2554   26.8529 N   0  3  0  0  0  0  0  0  0  0  0  0
  -22.5156  -14.6858   20.9830 O   0  0  0  0  0  0  0  0  0  0  0  0
  -39.5264  -21.2759   24.3187 O   0  0  0  0  0  0  0  0  0  0  0  0
  -39.7590  -17.9048   27.2404 O   0  0  0  0  0  0  0  0  0  0  0  0
  -36.5320  -15.4645   24.7600 O   0  0  0  0  0  0  0  0  0  0  0  0
  -32.2571  -13.2204   21.0235 O   0  0  0  0  0  0  0  0  0  0  0  0
  -21.7102   -6.9696   21.6140 O   0  0  0  0  0  0  0  0  0  0  0  0
  -34.3604  -21.0348   21.5030 O   0  0  0  0  0  0  0  0  0  1  0  0
  -16.8531   -6.4770   19.0509 F   0  0  0  0  0  0  0  0  0  0  0  0
  -21.2480   -4.9041   19.8357 F   0  0  0  0  0  0  0  0  0  0  0  0
  1  2  1  0  0  0  0
  1  5  2  0  0  0  0
  2  6  2  0  0  0  0
  3  8  2  0  0  0  0
  3 15  1  0  0  0  0
  4  9  1  0  0  0  0
  4 15  2  0  0  0  0
  5 17  1  0  0  0  0
  6 19  1  0  0  0  0
  7 10  2  0  0  0  0
  7 18  1  0  0  0  0
  8 21  1  0  0  0  0
  9 21  2  0  0  0  0
 10 22  1  0  0  0  0
 11 12  2  0  0  0  0
 11 23  1  0  0  0  0
 12 24  1  0  0  0  0
 13 20  1  0  0  0  0
 13 22  2  0  0  0  0
 14 24  2  0  0  0  0
 14 25  1  0  0  0  0
 15 26  1  0  0  0  0
 16 26  1  0  0  0  0
 16 31  2  0  0  0  0
 16 32  1  0  0  0  0
 17 19  2  0  0  0  0
 17 37  1  0  0  0  0
 18 20  2  0  0  0  0
 18 38  1  0  0  0  0
 19 46  1  0  0  0  0
 20 39  1  0  0  0  0
 21 86  1  0  0  0  0
 22 87  1  0  0  0  0
 23 25  2  0  0  0  0
 23 86  1  0  0  0  0
 24 88  1  0  0  0  0
 25 89  1  0  0  0  0
 26 69  2  0  0  0  0
 27 28  2  0  0  0  0
 27 49  1  0  0  0  0
 27 70  1  0  0  0  0
 28 58  1  0  0  0  0
 28 71  1  0  0  0  0
 29 30  1  0  0  0  0
 29 64  1  0  0  0  0
 29 71  2  0  0  0  0
 30 65  1  0  0  0  0
 30 70  2  0  0  0  0
 31 72  1  0  0  0  0
 31 75  1  0  0  0  0
 32 76  1  0  0  0  0
 32 81  2  0  0  0  0
 33 47  1  0  0  0  0
 33 77  1  0  0  0  0
 33 82  2  0  0  0  0
 34 66  1  0  0  0  0
 34 73  1  0  0  0  0
 34 83  2  0  0  0  0
 35 67  1  0  0  0  0
 35 78  1  0  0  0  0
 35 84  2  0  0  0  0
 36 74  1  0  0  0  0
 36 79  1  0  0  0  0
 36 85  2  0  0  0  0
 37 40  1  0  0  0  0
 38 47  1  0  0  0  0
 39 73  1  0  0  0  0
 40 42  1  0  0  0  0
 41 43  1  0  0  0  0
 41 44  1  0  0  0  0
 42 46  1  0  0  0  0
 43 48  1  0  0  0  0
 44 74  1  0  0  0  0
 45 48  1  0  0  0  0
 45 74  1  0  0  0  0
 46 77  1  0  0  0  0
 47 73  1  0  0  0  0
 48 72  1  0  0  0  0
 50 64  1  0  0  0  0
 51 64  1  0  0  0  0
 52 65  1  0  0  0  0
 53 67  1  0  0  0  0
 54 68  1  0  0  0  0
 55 68  1  0  0  0  0
 56 68  1  0  0  0  0
 57 80  1  0  0  0  0
 58 59  1  0  0  0  0
 59 63  1  0  0  0  0
 60 61  1  0  0  0  0
 60 62  1  0  0  0  0
 61 65  1  0  0  0  0
 62 79  1  0  0  0  0
 63 87  1  0  0  0  0
 66 68  1  0  0  0  0
 66 78  1  0  0  0  0
 67 80  1  0  0  0  0
 69 72  1  0  0  0  0
M  CHG  1  80   1
M  ISO  4  36 100  63 101  79 100  87 101
M  END
> <Batch ID>
0077

> <Smiles>
CNC(C)C(=O)NC(C(=O)N1Cc2cc([101O:1][101CH2:1]CCc3nc(C(C)C)c(C(C)CCC[100NH:0][100C:0](=O)N4CCCC(n5nc(-c6ccc(Oc7ccc(F)cc7F)cc6)c(C(N)=O)c5N)C4)nc3C)ccc2CC1C(=O)NC1CCCc2ccccc21)C(C)(C)C

> <Shape>
0.137

> <Color>
0.167

> <Negative vol penalty>
0.000

$$$$

  -OEChem-04052318373D

 86 94  0     1  0  0  0  0  0999 V2000
  -19.7701  -21.4098   26.5420 C   0  0  0  0  0  0  0  0  0  0  0  0
  -20.9199  -20.6273   26.5076 C   0  0  0  0  0  0  0  0  0  0  0  0
  -23.2826   -9.8062   19.9198 C   0  0  0  0  0  0  0  0  0  0  0  0
  -23.7603   -9.9433   22.2841 C   0  0  0  0  0  0  0  0  0  0  0  0
  -18.8003  -21.1790   27.5167 C   0  0  0  0  0  0  0  0  0  0  0  0
  -21.1010  -19.6143   27.4485 C   0  0  0  0  0  0  0  0  0  0  0  0
  -22.7653  -15.3068   25.3699 C   0  0  0  0  0  0  0  0  0  0  0  0
  -22.5606   -8.6322   20.1337 C   0  0  0  0  0  0  0  0  0  0  0  0
  -23.0382   -8.7692   22.4981 C   0  0  0  0  0  0  0  0  0  0  0  0
  -24.1195  -15.2379   25.0458 C   0  0  0  0  0  0  0  0  0  0  0  0
  -19.4932   -7.7648   21.2615 C   0  0  0  0  0  0  0  0  0  0  0  0
  -18.2570   -7.6395   20.6277 C   0  0  0  0  0  0  0  0  0  0  0  0
  -24.5337  -13.9891   27.0677 C   0  0  0  0  0  0  0  0  0  0  0  0
  -29.7194  -14.1358   23.4859 C   0  0  0  0  0  0  0  0  0  0  0  0
  -19.0485   -5.6701   19.4735 C   0  0  0  0  0  0  0  0  0  0  0  0
  -29.3490  -13.3732   25.5718 C   0  0  0  0  0  0  0  0  0  0  0  0
  -23.8826  -10.4618   20.9950 C   0  0  0  0  0  0  0  0  0  0  0  0
  -24.1357  -12.9925   20.7981 C   0  0  0  0  0  0  0  0  0  0  0  0
  -18.9650  -20.1563   28.4641 C   0  0  0  0  0  0  0  0  0  0  0  0
  -22.2861  -14.7258   26.5527 C   0  0  0  0  0  0  0  0  0  0  0  0
  -20.1330  -19.3705   28.4376 C   0  0  0  0  0  0  0  0  0  0  0  0
  -23.1725  -14.0498   27.4032 C   0  0  0  0  0  0  0  0  0  0  0  0
  -29.1321  -14.4471   24.7370 C   0  0  0  0  0  0  0  0  0  0  0  0
  -22.4383   -8.1137   21.4228 C   0  0  0  0  0  0  0  0  0  0  0  0
  -25.0044  -14.5815   25.8961 C   0  0  0  0  0  0  0  0  0  0  0  0
  -20.5071   -6.8428   21.0013 C   0  0  0  0  0  0  0  0  0  0  0  0
  -18.0347   -6.5921   19.7337 C   0  0  0  0  0  0  0  0  0  0  0  0
  -20.2847   -5.7955   20.1074 C   0  0  0  0  0  0  0  0  0  0  0  0
  -24.6291  -11.6743   20.7746 C   0  0  0  0  0  0  0  0  0  0  0  0
  -30.2771  -12.8810   23.5942 C   0  0  0  0  0  0  0  0  0  0  0  0
  -25.2329  -13.7747   20.5319 C   0  0  0  0  0  0  0  0  0  0  0  0
  -22.8045  -13.4676   21.0390 C   0  0  0  0  0  0  0  0  0  0  0  0
  -20.8584  -15.8227   29.1723 C   0  0  0  0  0  0  0  0  0  0  0  0
  -20.6154  -12.6685   29.8895 C   0  0  0  0  0  0  0  0  0  0  0  0
  -31.1182  -12.8203   21.2832 C   0  0  0  0  0  0  0  0  0  0  0  0
  -21.8033   -9.4988   29.4554 C   0  0  0  0  0  0  0  0  0  0  0  0
  -17.9112  -19.9754   29.5278 C   0  0  0  0  0  0  0  0  0  0  0  0
  -20.8180  -14.7858   26.8747 C   0  0  0  0  0  0  0  0  0  0  0  0
  -22.7051  -13.3920   28.6749 C   0  0  0  0  0  0  0  0  0  0  0  0
  -18.0054  -18.6379   30.2573 C   0  0  0  0  0  0  0  0  0  0  0  0
  -29.4282  -13.7015   18.2488 C   0  0  0  0  0  0  0  0  0  0  0  0
  -19.4484  -18.3494   30.6590 C   0  0  0  0  0  0  0  0  0  0  0  0
  -27.9651  -13.3746   18.5449 C   0  0  0  0  0  0  0  0  0  0  0  0
  -30.3699  -12.7127   18.9289 C   0  0  0  0  0  0  0  0  0  0  0  0
  -28.7034  -12.2691   20.7031 C   0  0  0  0  0  0  0  0  0  0  0  0
  -20.3541  -18.2460   29.4259 C   0  0  1  0  0  0  0  0  0  0  0  0
  -20.5242  -14.6033   28.3605 C   0  0  1  0  0  0  0  0  0  0  0  0
  -27.7194  -13.2623   20.0599 C   0  0  2  0  0  0  0  0  0  0  0  0
  -28.3018   -9.9765   24.7060 C   0  0  0  0  0  0  0  0  0  0  0  0
  -21.4243   -7.1334   30.2029 C   0  0  0  0  0  0  0  0  0  0  0  0
  -31.4690  -11.3309   26.5432 C   0  0  0  0  0  0  0  0  0  0  0  0
  -28.8949  -16.9873   24.3245 C   0  0  0  0  0  0  0  0  0  0  0  0
  -28.5894  -16.0421   26.6028 C   0  0  0  0  0  0  0  0  0  0  0  0
  -21.9496  -13.3011   32.5597 C   0  0  0  0  0  0  0  0  0  0  0  0
  -22.4005  -10.8538   32.8349 C   0  0  0  0  0  0  0  0  0  0  0  0
  -20.0506  -11.6799   32.7006 C   0  0  0  0  0  0  0  0  0  0  0  0
  -21.2137   -8.5993   26.6982 C   0  0  0  0  0  0  0  0  0  0  0  0
  -29.2867  -10.2554   25.8342 C   0  0  0  0  0  0  0  0  0  0  0  0
  -26.8706  -15.5918   24.8225 C   0  0  0  0  0  0  0  0  0  1  0  0
  -21.4811  -11.6676   30.6160 C   0  0  1  0  0  0  0  0  0  0  0  0
  -21.0948   -8.1893   29.1592 C   0  0  2  0  0  0  0  0  0  0  0  0
  -30.4649  -11.1495   25.3998 C   0  0  1  0  0  0  0  0  0  0  0  0
  -28.3885  -15.7466   25.0987 C   0  0  0  0  0  0  0  0  0  0  0  0
  -31.0098  -12.0795   22.5922 C   0  0  0  0  0  0  0  0  0  0  0  0
  -21.4799  -11.8896   32.1549 C   0  0  0  0  0  0  0  0  0  0  0  0
  -25.9379  -11.6182   20.5140 N   0  0  0  0  0  0  0  0  0  0  0  0
  -30.0456  -12.4270   24.8664 N   0  0  0  0  0  0  0  0  0  0  0  0
  -26.2761  -12.9110   20.3711 N   0  0  0  0  0  0  0  0  0  0  0  0
  -21.2615  -13.4833   28.9491 N   0  0  0  0  0  0  0  0  0  0  0  0
  -30.0897  -12.6180   20.3627 N   0  0  0  0  0  0  0  0  0  0  0  0
  -25.3974  -15.1100   20.4220 N   0  0  0  0  0  0  0  0  0  0  0  0
  -21.7963  -12.5286   21.2964 N   0  0  0  0  0  0  0  0  0  0  0  0
  -20.1832  -16.9625   28.7794 N   0  0  0  0  0  0  0  0  0  0  0  0
  -21.0150  -10.3485   30.2022 N   0  0  0  0  0  0  0  0  0  0  0  0
  -21.5012   -7.6714   27.8222 N   0  3  0  0  0  0  0  0  0  0  0  0
  -22.5143  -14.6877   21.0103 O   0  0  0  0  0  0  0  0  0  0  0  0
  -21.6677  -15.7356   30.0884 O   0  0  0  0  0  0  0  0  0  0  0  0
  -19.4091  -12.7205   30.1419 O   0  0  0  0  0  0  0  0  0  0  0  0
  -32.0872  -13.5585   21.0876 O   0  0  0  0  0  0  0  0  0  0  0  0
  -22.9436   -9.7420   29.0666 O   0  0  0  0  0  0  0  0  0  0  0  0
  -21.7335   -6.9682   21.6320 O   0  0  0  0  0  0  0  0  0  0  0  0
  -26.3269  -14.5133   25.5825 O   0  0  0  0  0  0  0  0  0  1  0  0
  -16.8470   -6.4710   19.1263 F   0  0  0  0  0  0  0  0  0  0  0  0
  -21.2545   -4.9059   19.8543 F   0  0  0  0  0  0  0  0  0  0  0  0
  -32.2838  -11.7420   22.9952 F   0  0  0  0  0  0  0  0  0  0  0  0
  -30.4224  -10.8584   22.3410 F   0  0  0  0  0  0  0  0  0  0  0  0
  1  2  1  0  0  0  0
  1  5  2  0  0  0  0
  2  6  2  0  0  0  0
  3  8  2  0  0  0  0
  3 17  1  0  0  0  0
  4  9  1  0  0  0  0
  4 17  2  0  0  0  0
  5 19  1  0  0  0  0
  6 21  1  0  0  0  0
  7 10  2  0  0  0  0
  7 20  1  0  0  0  0
  8 24  1  0  0  0  0
  9 24  2  0  0  0  0
 10 25  1  0  0  0  0
 11 12  2  0  0  0  0
 11 26  1  0  0  0  0
 12 27  1  0  0  0  0
 13 22  1  0  0  0  0
 13 25  2  0  0  0  0
 14 23  1  0  0  0  0
 14 30  2  0  0  0  0
 15 27  2  0  0  0  0
 15 28  1  0  0  0  0
 16 23  2  0  0  0  0
 16 67  1  0  0  0  0
 17 29  1  0  0  0  0
 18 29  1  0  0  0  0
 18 31  2  0  0  0  0
 18 32  1  0  0  0  0
 19 21  2  0  0  0  0
 19 37  1  0  0  0  0
 20 22  2  0  0  0  0
 20 38  1  0  0  0  0
 21 46  1  0  0  0  0
 22 39  1  0  0  0  0
 23 63  1  0  0  0  0
 24 81  1  0  0  0  0
 25 82  1  0  0  0  0
 26 28  2  0  0  0  0
 26 81  1  0  0  0  0
 27 83  1  0  0  0  0
 28 84  1  0  0  0  0
 29 66  2  0  0  0  0
 30 64  1  0  0  0  0
 30 67  1  0  0  0  0
 31 68  1  0  0  0  0
 31 71  1  0  0  0  0
 32 72  1  0  0  0  0
 32 76  2  0  0  0  0
 33 47  1  0  0  0  0
 33 73  1  0  0  0  0
 33 77  2  0  0  0  0
 34 60  1  0  0  0  0
 34 69  1  0  0  0  0
 34 78  2  0  0  0  0
 35 64  1  0  0  0  0
 35 70  1  0  0  0  0
 35 79  2  0  0  0  0
 36 61  1  0  0  0  0
 36 74  1  0  0  0  0
 36 80  2  0  0  0  0
 37 40  1  0  0  0  0
 38 47  1  0  0  0  0
 39 69  1  0  0  0  0
 40 42  1  0  0  0  0
 41 43  1  0  0  0  0
 41 44  1  0  0  0  0
 42 46  1  0  0  0  0
 43 48  1  0  0  0  0
 44 70  1  0  0  0  0
 45 48  1  0  0  0  0
 45 70  1  0  0  0  0
 46 73  1  0  0  0  0
 47 69  1  0  0  0  0
 48 68  1  0  0  0  0
 49 58  1  0  0  0  0
 50 61  1  0  0  0  0
 51 62  1  0  0  0  0
 52 63  1  0  0  0  0
 53 63  1  0  0  0  0
 54 65  1  0  0  0  0
 55 65  1  0  0  0  0
 56 65  1  0  0  0  0
 57 75  1  0  0  0  0
 58 62  1  0  0  0  0
 59 63  1  0  0  0  0
 59 82  1  0  0  0  0
 60 65  1  0  0  0  0
 60 74  1  0  0  0  0
 61 75  1  0  0  0  0
 62 67  1  0  0  0  0
 64 85  1  0  0  0  0
 64 86  1  0  0  0  0
 66 68  1  0  0  0  0
M  CHG  1  75   1
M  ISO  4  35 100  59 101  64 100  82 101
M  END
> <Batch ID>
0077

> <Smiles>
CCC(C)n1cc(C(C)(C)[101CH2:1][101O:1]c2ccc3c(c2)CN(C(=O)C(NC(=O)C(C)NC)C(C)(C)C)C(C(=O)NC2CCCc4ccccc42)C3)cc1[100C:0](F)(F)[100C:0](=O)N1CCCC(n2nc(-c3ccc(Oc4ccc(F)cc4F)cc3)c(C(N)=O)c2N)C1

> <Shape>
0.119

> <Color>
0.179

> <Negative vol penalty>
0.000

$$$$

  -OEChem-04052318373D

 84 92  0     1  0  0  0  0  0999 V2000
  -19.8949  -34.4619   21.6207 C   0  0  0  0  0  0  0  0  0  0  0  0
  -21.1541  -34.0001   21.2511 C   0  0  0  0  0  0  0  0  0  0  0  0
  -25.3373  -11.9877   19.7226 C   0  0  0  0  0  0  0  0  0  0  0  0
  -24.2238  -12.6443   21.7637 C   0  0  0  0  0  0  0  0  0  0  0  0
  -19.1565  -33.7745   22.5831 C   0  0  0  0  0  0  0  0  0  0  0  0
  -21.6761  -32.8512   21.8445 C   0  0  0  0  0  0  0  0  0  0  0  0
  -25.2451  -28.6370   19.1973 C   0  0  0  0  0  0  0  0  0  0  0  0
  -25.4429  -10.6815   20.2003 C   0  0  0  0  0  0  0  0  0  0  0  0
  -24.3293  -11.3380   22.2414 C   0  0  0  0  0  0  0  0  0  0  0  0
  -26.6246  -28.4354   19.2081 C   0  0  0  0  0  0  0  0  0  0  0  0
  -23.9833   -8.0955   23.8491 C   0  0  0  0  0  0  0  0  0  0  0  0
  -22.8586   -7.5315   24.4512 C   0  0  0  0  0  0  0  0  0  0  0  0
  -26.3707  -26.8348   20.9949 C   0  0  0  0  0  0  0  0  0  0  0  0
  -21.6149   -7.8224   22.4004 C   0  0  0  0  0  0  0  0  0  0  0  0
  -29.0966  -22.5884   20.2264 C   0  0  0  0  0  0  0  0  0  0  0  0
  -24.7278  -12.9691   20.5043 C   0  0  0  0  0  0  0  0  0  0  0  0
  -23.5626  -14.8665   19.2593 C   0  0  0  0  0  0  0  0  0  0  0  0
  -19.6655  -32.6112   23.1816 C   0  0  0  0  0  0  0  0  0  0  0  0
  -24.4178  -27.9459   20.0942 C   0  0  0  0  0  0  0  0  0  0  0  0
  -20.9442  -32.1484   22.8168 C   0  0  0  0  0  0  0  0  0  0  0  0
  -24.9807  -27.0274   20.9918 C   0  0  0  0  0  0  0  0  0  0  0  0
  -24.9389  -10.3566   21.4597 C   0  0  0  0  0  0  0  0  0  0  0  0
  -27.1879  -27.5364   20.1090 C   0  0  0  0  0  0  0  0  0  0  0  0
  -23.9238   -8.5231   22.5227 C   0  0  0  0  0  0  0  0  0  0  0  0
  -21.6744   -7.3950   23.7269 C   0  0  0  0  0  0  0  0  0  0  0  0
  -22.7396   -8.3865   21.7983 C   0  0  0  0  0  0  0  0  0  0  0  0
  -24.6189  -14.3188   20.0116 C   0  0  0  0  0  0  0  0  0  0  0  0
  -28.2391  -21.7922   20.9319 C   0  0  0  0  0  0  0  0  0  0  0  0
  -23.9348  -16.1709   19.0438 C   0  0  0  0  0  0  0  0  0  0  0  0
  -27.0999  -22.7286   19.2808 C   0  0  0  0  0  0  0  0  0  0  0  0
  -22.3530  -14.2512   18.7968 C   0  0  0  0  0  0  0  0  0  0  0  0
  -22.4518  -28.7958   22.4428 C   0  0  0  0  0  0  0  0  0  0  0  0
  -21.7398  -25.6312   22.4666 C   0  0  0  0  0  0  0  0  0  0  0  0
  -27.5275  -19.7546   22.1301 C   0  0  0  0  0  0  0  0  0  0  0  0
  -22.7055  -22.4388   21.7435 C   0  0  0  0  0  0  0  0  0  0  0  0
  -18.8503  -31.9288   24.2513 C   0  0  0  0  0  0  0  0  0  0  0  0
  -22.9288  -28.1547   20.0517 C   0  0  0  0  0  0  0  0  0  0  0  0
  -24.1341  -26.2454   21.9614 C   0  0  0  0  0  0  0  0  0  0  0  0
  -19.3174  -30.5087   24.5602 C   0  0  0  0  0  0  0  0  0  0  0  0
  -27.7981  -18.9453   18.5947 C   0  0  0  0  0  0  0  0  0  0  0  0
  -20.8342  -30.4678   24.7165 C   0  0  0  0  0  0  0  0  0  0  0  0
  -26.9309  -17.6906   18.5012 C   0  0  0  0  0  0  0  0  0  0  0  0
  -28.5471  -19.0122   19.9231 C   0  0  0  0  0  0  0  0  0  0  0  0
  -26.7908  -17.6648   21.0295 C   0  0  0  0  0  0  0  0  0  0  0  0
  -21.5341  -30.8920   23.4198 C   0  0  1  0  0  0  0  0  0  0  0  0
  -22.2353  -27.7793   21.3577 C   0  0  1  0  0  0  0  0  0  0  0  0
  -25.9948  -17.5748   19.7168 C   0  0  2  0  0  0  0  0  0  0  0  0
  -25.9830  -23.0969   18.3754 C   0  0  0  0  0  0  0  0  0  0  0  0
  -31.0431  -26.4536   21.2996 C   0  0  0  0  0  0  0  0  0  0  0  0
  -22.5141  -19.9498   21.4872 C   0  0  0  0  0  0  0  0  0  0  0  0
  -28.1926  -21.7258   23.4391 C   0  0  0  0  0  0  0  0  0  0  0  0
  -29.8662  -20.2903   22.2675 C   0  0  0  0  0  0  0  0  0  0  0  0
  -22.3685  -25.6398   25.4523 C   0  0  0  0  0  0  0  0  0  0  0  0
  -22.5045  -23.1416   25.3600 C   0  0  0  0  0  0  0  0  0  0  0  0
  -20.3604  -24.2933   24.8130 C   0  0  0  0  0  0  0  0  0  0  0  0
  -21.6622  -22.6865   18.9850 C   0  0  0  0  0  0  0  0  0  0  0  0
  -30.5285  -25.9798   19.9468 C   0  0  0  0  0  0  0  0  0  0  0  0
  -28.5100  -25.5579   18.4814 C   0  0  0  0  0  0  0  0  0  0  0  0
  -28.9098  -24.1093   18.1780 C   0  0  0  0  0  0  0  0  0  0  0  0
  -22.2860  -24.4178   23.1795 C   0  0  1  0  0  0  0  0  0  0  0  0
  -21.9845  -21.3033   21.0397 C   0  0  2  0  0  0  0  0  0  0  0  0
  -28.9983  -26.0140   19.8623 C   0  0  2  0  0  0  0  0  0  1  0  0
  -28.4506  -20.9469   22.1098 C   0  0  0  0  0  0  0  0  0  0  0  0
  -21.8963  -24.3891   24.6844 C   0  0  0  0  0  0  0  0  0  0  0  0
  -25.5895  -15.2028   20.2573 N   0  0  0  0  0  0  0  0  0  0  0  0
  -28.3652  -23.1550   19.2105 N   0  0  0  0  0  0  0  0  0  0  0  0
  -25.1446  -16.3193   19.6560 N   0  0  0  0  0  0  0  0  0  0  0  0
  -27.0109  -21.8983   20.3249 N   0  3  0  0  0  0  0  0  0  0  0  0
  -22.6842  -26.4892   21.8854 N   0  0  0  0  0  0  0  0  0  0  0  0
  -27.6237  -18.8706   21.0552 N   0  0  0  0  0  0  0  0  0  0  0  0
  -23.3421  -17.1939   18.3923 N   0  0  0  0  0  0  0  0  0  0  0  0
  -22.1282  -12.9031   19.1069 N   0  0  0  0  0  0  0  0  0  0  0  0
  -21.5144  -29.8110   22.4578 N   0  0  0  0  0  0  0  0  0  0  0  0
  -21.8281  -23.2584   22.4215 N   0  0  0  0  0  0  0  0  0  0  0  0
  -22.1618  -21.4128   19.5640 N   0  3  0  0  0  0  0  0  0  0  0  0
  -21.5045  -14.8739   18.1143 O   0  0  0  0  0  0  0  0  0  0  0  0
  -23.3982  -28.6677   23.2106 O   0  0  0  0  0  0  0  0  0  0  0  0
  -20.5197  -25.8073   22.4207 O   0  0  0  0  0  0  0  0  0  0  0  0
  -26.7433  -19.6164   23.0724 O   0  0  0  0  0  0  0  0  0  0  0  0
  -23.9253  -22.5820   21.6995 O   0  0  0  0  0  0  0  0  0  0  0  0
  -25.0415   -9.0821   21.9261 O   0  0  0  0  0  0  0  0  0  0  0  0
  -28.5342  -27.3382   20.1220 O   0  0  0  0  0  0  0  0  0  1  0  0
  -20.5948   -6.8519   24.3047 F   0  0  0  0  0  0  0  0  0  0  0  0
  -22.6767   -8.7943   20.5234 F   0  0  0  0  0  0  0  0  0  0  0  0
  1  2  1  0  0  0  0
  1  5  2  0  0  0  0
  2  6  2  0  0  0  0
  3  8  2  0  0  0  0
  3 16  1  0  0  0  0
  4  9  1  0  0  0  0
  4 16  2  0  0  0  0
  5 18  1  0  0  0  0
  6 20  1  0  0  0  0
  7 10  2  0  0  0  0
  7 19  1  0  0  0  0
  8 22  1  0  0  0  0
  9 22  2  0  0  0  0
 10 23  1  0  0  0  0
 11 12  2  0  0  0  0
 11 24  1  0  0  0  0
 12 25  1  0  0  0  0
 13 21  1  0  0  0  0
 13 23  2  0  0  0  0
 14 25  2  0  0  0  0
 14 26  1  0  0  0  0
 15 28  2  0  0  0  0
 15 66  1  0  0  0  0
 16 27  1  0  0  0  0
 17 27  1  0  0  0  0
 17 29  2  0  0  0  0
 17 31  1  0  0  0  0
 18 20  2  0  0  0  0
 18 36  1  0  0  0  0
 19 21  2  0  0  0  0
 19 37  1  0  0  0  0
 20 45  1  0  0  0  0
 21 38  1  0  0  0  0
 22 81  1  0  0  0  0
 23 82  1  0  0  0  0
 24 26  2  0  0  0  0
 24 81  1  0  0  0  0
 25 83  1  0  0  0  0
 26 84  1  0  0  0  0
 27 65  2  0  0  0  0
 28 63  1  0  0  0  0
 28 68  1  0  0  0  0
 29 67  1  0  0  0  0
 29 71  1  0  0  0  0
 30 48  1  0  0  0  0
 30 66  1  0  0  0  0
 30 68  2  0  0  0  0
 31 72  1  0  0  0  0
 31 76  2  0  0  0  0
 32 46  1  0  0  0  0
 32 73  1  0  0  0  0
 32 77  2  0  0  0  0
 33 60  1  0  0  0  0
 33 69  1  0  0  0  0
 33 78  2  0  0  0  0
 34 63  1  0  0  0  0
 34 70  1  0  0  0  0
 34 79  2  0  0  0  0
 35 61  1  0  0  0  0
 35 74  1  0  0  0  0
 35 80  2  0  0  0  0
 36 39  1  0  0  0  0
 37 46  1  0  0  0  0
 38 69  1  0  0  0  0
 39 41  1  0  0  0  0
 40 42  1  0  0  0  0
 40 43  1  0  0  0  0
 41 45  1  0  0  0  0
 42 47  1  0  0  0  0
 43 70  1  0  0  0  0
 44 47  1  0  0  0  0
 44 70  1  0  0  0  0
 45 73  1  0  0  0  0
 46 69  1  0  0  0  0
 47 67  1  0  0  0  0
 49 57  1  0  0  0  0
 50 61  1  0  0  0  0
 51 63  1  0  0  0  0
 52 63  1  0  0  0  0
 53 64  1  0  0  0  0
 54 64  1  0  0  0  0
 55 64  1  0  0  0  0
 56 75  1  0  0  0  0
 57 62  1  0  0  0  0
 58 59  1  0  0  0  0
 58 62  1  0  0  0  0
 59 66  1  0  0  0  0
 60 64  1  0  0  0  0
 60 74  1  0  0  0  0
 61 75  1  0  0  0  0
 62 82  1  0  0  0  0
 65 67  1  0  0  0  0
M  CHG  2  68   1  75   1
M  ISO  4  34 100  62 101  63 100  82 101
M  END
> <Batch ID>
0077

> <Smiles>
CC[101CH:1](CCn1cc([100C:0](C)(C)[100C:0](=O)N2CCCC(n3nc(-c4ccc(Oc5ccc(F)cc5F)cc4)c(C(N)=O)c3N)C2)nc1C)[101O:1]c1ccc2c(c1)CN(C(=O)C(NC(=O)C(C)NC)C(C)(C)C)C(C(=O)NC1CCCc3ccccc31)C2

> <Shape>
0.226

> <Color>
0.084

> <Negative vol penalty>
0.000

$$$$

  -OEChem-04052318373D

 86 94  0     1  0  0  0  0  0999 V2000
  -25.8580  -17.2819   26.8454 C   0  0  0  0  0  0  0  0  0  0  0  0
  -25.7675  -18.6648   26.9571 C   0  0  0  0  0  0  0  0  0  0  0  0
  -26.0024  -13.5449   21.6982 C   0  0  0  0  0  0  0  0  0  0  0  0
  -25.1624  -14.6164   19.7024 C   0  0  0  0  0  0  0  0  0  0  0  0
  -25.3681  -16.6449   25.7073 C   0  0  0  0  0  0  0  0  0  0  0  0
  -25.1765  -19.4098   25.9361 C   0  0  0  0  0  0  0  0  0  0  0  0
  -24.5763  -25.4365   25.2681 C   0  0  0  0  0  0  0  0  0  0  0  0
  -24.9049  -12.6842   21.6981 C   0  0  0  0  0  0  0  0  0  0  0  0
  -24.0648  -13.7556   19.7022 C   0  0  0  0  0  0  0  0  0  0  0  0
  -25.2857  -26.4823   24.6791 C   0  0  0  0  0  0  0  0  0  0  0  0
  -23.9322   -9.8883   20.0642 C   0  0  0  0  0  0  0  0  0  0  0  0
  -24.1712   -8.5330   20.2914 C   0  0  0  0  0  0  0  0  0  0  0  0
  -28.6495  -25.2194   17.7264 C   0  0  0  0  0  0  0  0  0  0  0  0
  -29.3206  -24.0199   17.8873 C   0  0  0  0  0  0  0  0  0  0  0  0
  -23.8986  -26.3082   22.7132 C   0  0  0  0  0  0  0  0  0  0  0  0
  -22.7500   -8.6095   22.2437 C   0  0  0  0  0  0  0  0  0  0  0  0
  -26.1312  -14.5111   20.7004 C   0  0  0  0  0  0  0  0  0  0  0  0
  -28.5056  -15.1968   20.0681 C   0  0  0  0  0  0  0  0  0  0  0  0
  -24.7822  -17.3844   24.6668 C   0  0  0  0  0  0  0  0  0  0  0  0
  -23.5280  -24.8104   24.5785 C   0  0  0  0  0  0  0  0  0  0  0  0
  -24.6546  -18.7830   24.7901 C   0  0  0  0  0  0  0  0  0  0  0  0
  -23.1758  -25.2563   23.2966 C   0  0  0  0  0  0  0  0  0  0  0  0
  -23.9361  -12.7895   20.7001 C   0  0  0  0  0  0  0  0  0  0  0  0
  -24.9488  -26.9164   23.4004 C   0  0  0  0  0  0  0  0  0  0  0  0
  -23.1021  -10.6042   20.9269 C   0  0  0  0  0  0  0  0  0  0  0  0
  -23.5802   -7.8936   21.3811 C   0  0  0  0  0  0  0  0  0  0  0  0
  -22.5110   -9.9648   22.0165 C   0  0  0  0  0  0  0  0  0  0  0  0
  -27.2645  -15.4010   20.7003 C   0  0  0  0  0  0  0  0  0  0  0  0
  -29.0803  -26.3045   18.4629 C   0  0  0  0  0  0  0  0  0  0  0  0
  -30.3782  -23.9851   18.7738 C   0  0  0  0  0  0  0  0  0  0  0  0
  -29.2322  -16.3235   20.3661 C   0  0  0  0  0  0  0  0  0  0  0  0
  -28.9609  -14.0878   19.2816 C   0  0  0  0  0  0  0  0  0  0  0  0
  -22.9788  -21.8601   23.5308 C   0  0  0  0  0  0  0  0  0  0  0  0
  -29.5316  -21.8922   20.8026 C   0  0  0  0  0  0  0  0  0  0  0  0
  -20.0691  -23.0849   22.7851 C   0  0  0  0  0  0  0  0  0  0  0  0
  -18.1837  -25.8341   22.0546 C   0  0  0  0  0  0  0  0  0  0  0  0
  -24.2614  -16.6431   23.4608 C   0  0  0  0  0  0  0  0  0  0  0  0
  -22.7552  -23.7014   25.2383 C   0  0  0  0  0  0  0  0  0  0  0  0
  -22.0454  -24.6310   22.5223 C   0  0  0  0  0  0  0  0  0  0  0  0
  -24.0591  -17.5470   22.2490 C   0  0  0  0  0  0  0  0  0  0  0  0
  -28.3315  -20.0623   23.6401 C   0  0  0  0  0  0  0  0  0  0  0  0
  -23.2691  -18.7840   22.6493 C   0  0  0  0  0  0  0  0  0  0  0  0
  -28.0204  -18.6791   23.0698 C   0  0  0  0  0  0  0  0  0  0  0  0
  -28.0314  -21.1638   22.6283 C   0  0  0  0  0  0  0  0  0  0  0  0
  -28.4159  -19.6067   20.7443 C   0  0  0  0  0  0  0  0  0  0  0  0
  -24.0434  -19.6169   23.6787 C   0  0  1  0  0  0  0  0  0  0  0  0
  -22.0409  -22.7952   24.2404 C   0  0  1  0  0  0  0  0  0  0  0  0
  -28.7340  -18.4629   21.7235 C   0  0  2  0  0  0  0  0  0  0  0  0
  -32.7508  -23.1309   16.9580 C   0  0  0  0  0  0  0  0  0  0  0  0
  -15.8446  -26.5154   21.4531 C   0  0  0  0  0  0  0  0  0  0  0  0
  -32.3192  -22.7967   20.0127 C   0  0  0  0  0  0  0  0  0  0  0  0
  -20.5008  -22.0521   19.9466 C   0  0  0  0  0  0  0  0  0  0  0  0
  -18.6409  -23.5495   19.1936 C   0  0  0  0  0  0  0  0  0  0  0  0
  -18.1855  -21.7266   20.8344 C   0  0  0  0  0  0  0  0  0  0  0  0
  -17.9285  -27.5196   24.4738 C   0  0  0  0  0  0  0  0  0  0  0  0
  -28.3824  -27.6344   18.3267 C   0  0  0  0  0  0  0  0  0  0  0  0
  -30.1986  -21.5566   19.4925 C   0  0  0  0  0  0  0  0  0  0  0  0
  -31.7666  -22.1780   17.6313 C   0  0  0  0  0  0  0  0  0  0  0  0
  -28.4184  -28.4861   19.6007 C   0  0  0  0  0  0  0  0  0  0  0  0
  -27.6841  -27.8357   20.7774 C   0  0  0  0  0  0  0  0  0  0  0  0
  -27.7715  -28.7034   22.0318 C   0  0  0  0  0  0  0  0  0  0  0  0
  -27.0093  -28.0862   23.1958 C   0  0  0  0  0  0  0  0  0  1  0  0
  -19.4750  -23.7701   21.5783 C   0  0  1  0  0  0  0  0  0  0  0  0
  -16.8402  -26.3035   22.5830 C   0  0  2  0  0  0  0  0  0  0  0  0
  -31.1359  -22.7184   18.9804 C   0  0  1  0  0  0  0  0  0  0  0  0
  -19.2232  -22.7853   20.4018 C   0  0  0  0  0  0  0  0  0  0  0  0
  -27.2027  -16.5658   21.3510 N   0  0  0  0  0  0  0  0  0  0  0  0
  -30.1184  -26.2417   19.3233 N   0  0  0  0  0  0  0  0  0  0  0  0
  -30.7782  -25.0629   19.4811 N   0  0  0  0  0  0  0  0  0  0  0  0
  -28.4142  -17.1036   21.1293 N   0  0  0  0  0  0  0  0  0  0  0  0
  -21.3240  -23.5460   23.2076 N   0  0  0  0  0  0  0  0  0  0  0  0
  -28.7094  -20.9103   21.3558 N   0  0  0  0  0  0  0  0  0  0  0  0
  -30.4848  -16.7132   20.0473 N   0  0  0  0  0  0  0  0  0  0  0  0
  -28.0863  -13.0126   19.0734 N   0  0  0  0  0  0  0  0  0  0  0  0
  -23.1805  -20.6606   24.1866 N   0  0  0  0  0  0  0  0  0  0  0  0
  -18.2775  -24.4584   22.0481 N   0  0  0  0  0  0  0  0  0  0  0  0
  -16.9943  -27.5891   23.3208 N   0  3  0  0  0  0  0  0  0  0  0  0
  -30.1150  -14.0440   18.7921 O   0  0  0  0  0  0  0  0  0  0  0  0
  -23.4811  -22.2009   22.4663 O   0  0  0  0  0  0  0  0  0  0  0  0
  -29.7386  -22.9934   21.3189 O   0  0  0  0  0  0  0  0  0  0  0  0
  -19.4397  -22.1789   23.3371 O   0  0  0  0  0  0  0  0  0  0  0  0
  -19.0606  -26.6100   21.6812 O   0  0  0  0  0  0  0  0  0  0  0  0
  -22.8651  -11.9495   20.6996 O   0  0  0  0  0  0  0  0  0  0  0  0
  -25.6400  -27.9365   22.8230 O   0  0  0  0  0  0  0  0  0  1  0  0
  -23.8086   -6.5917   21.5982 F   0  0  0  0  0  0  0  0  0  0  0  0
  -21.7117  -10.6471   22.8480 F   0  0  0  0  0  0  0  0  0  0  0  0
  1  2  1  0  0  0  0
  1  5  2  0  0  0  0
  2  6  2  0  0  0  0
  3  8  2  0  0  0  0
  3 17  1  0  0  0  0
  4  9  1  0  0  0  0
  4 17  2  0  0  0  0
  5 19  1  0  0  0  0
  6 21  1  0  0  0  0
  7 10  2  0  0  0  0
  7 20  1  0  0  0  0
  8 23  1  0  0  0  0
  9 23  2  0  0  0  0
 10 24  1  0  0  0  0
 11 12  2  0  0  0  0
 11 25  1  0  0  0  0
 12 26  1  0  0  0  0
 13 14  2  0  0  0  0
 13 29  1  0  0  0  0
 14 30  1  0  0  0  0
 15 22  1  0  0  0  0
 15 24  2  0  0  0  0
 16 26  2  0  0  0  0
 16 27  1  0  0  0  0
 17 28  1  0  0  0  0
 18 28  1  0  0  0  0
 18 31  2  0  0  0  0
 18 32  1  0  0  0  0
 19 21  2  0  0  0  0
 19 37  1  0  0  0  0
 20 22  2  0  0  0  0
 20 38  1  0  0  0  0
 21 46  1  0  0  0  0
 22 39  1  0  0  0  0
 23 83  1  0  0  0  0
 24 84  1  0  0  0  0
 25 27  2  0  0  0  0
 25 83  1  0  0  0  0
 26 85  1  0  0  0  0
 27 86  1  0  0  0  0
 28 67  2  0  0  0  0
 29 56  1  0  0  0  0
 29 68  2  0  0  0  0
 30 65  1  0  0  0  0
 30 69  2  0  0  0  0
 31 70  1  0  0  0  0
 31 73  1  0  0  0  0
 32 74  1  0  0  0  0
 32 78  2  0  0  0  0
 33 47  1  0  0  0  0
 33 75  1  0  0  0  0
 33 79  2  0  0  0  0
 34 57  1  0  0  0  0
 34 72  1  0  0  0  0
 34 80  2  0  0  0  0
 35 63  1  0  0  0  0
 35 71  1  0  0  0  0
 35 81  2  0  0  0  0
 36 64  1  0  0  0  0
 36 76  1  0  0  0  0
 36 82  2  0  0  0  0
 37 40  1  0  0  0  0
 38 47  1  0  0  0  0
 39 71  1  0  0  0  0
 40 42  1  0  0  0  0
 41 43  1  0  0  0  0
 41 44  1  0  0  0  0
 42 46  1  0  0  0  0
 43 48  1  0  0  0  0
 44 72  1  0  0  0  0
 45 48  1  0  0  0  0
 45 72  1  0  0  0  0
 46 75  1  0  0  0  0
 47 71  1  0  0  0  0
 48 70  1  0  0  0  0
 49 58  1  0  0  0  0
 50 64  1  0  0  0  0
 51 65  1  0  0  0  0
 52 66  1  0  0  0  0
 53 66  1  0  0  0  0
 54 66  1  0  0  0  0
 55 77  1  0  0  0  0
 56 59  1  0  0  0  0
 57 65  1  0  0  0  0
 58 65  1  0  0  0  0
 59 60  1  0  0  0  0
 60 61  1  0  0  0  0
 61 62  1  0  0  0  0
 62 84  1  0  0  0  0
 63 66  1  0  0  0  0
 63 76  1  0  0  0  0
 64 77  1  0  0  0  0
 67 70  1  0  0  0  0
 68 69  1  0  0  0  0
M  CHG  1  77   1
M  ISO  4  34 100  57 100  62 101  84 101
M  END
> <Batch ID>
0077

> <Smiles>
CCC(C)([100CH2:0][100C:0](=O)N1CCCC(n2nc(-c3ccc(Oc4ccc(F)cc4F)cc3)c(C(N)=O)c2N)C1)c1ccc(CCCC[101CH2:1][101O:1]c2ccc3c(c2)CN(C(=O)C(NC(=O)C(C)NC)C(C)(C)C)C(C(=O)NC2CCCc4ccccc42)C3)nn1

> <Shape>
0.203

> <Color>
0.053

> <Negative vol penalty>
0.000

$$$$

  -OEChem-04052318373D

 88 97  0     1  0  0  0  0  0999 V2000
  -26.3646  -34.2893   25.3985 C   0  0  0  0  0  0  0  0  0  0  0  0
  -26.8391  -33.1032   24.8477 C   0  0  0  0  0  0  0  0  0  0  0  0
  -29.6227  -20.2072   21.4650 C   0  0  0  0  0  0  0  0  0  0  0  0
  -27.1897  -12.7840   21.5069 C   0  0  0  0  0  0  0  0  0  0  0  0
  -26.6826  -13.9491   19.4520 C   0  0  0  0  0  0  0  0  0  0  0  0
  -25.0231  -34.4002   25.7617 C   0  0  0  0  0  0  0  0  0  0  0  0
  -25.9726  -32.0268   24.6608 C   0  0  0  0  0  0  0  0  0  0  0  0
  -26.5370  -29.8427   20.1269 C   0  0  0  0  0  0  0  0  0  0  0  0
  -31.0001  -20.3321   21.6859 C   0  0  0  0  0  0  0  0  0  0  0  0
  -26.3788  -11.7226   21.1052 C   0  0  0  0  0  0  0  0  0  0  0  0
  -25.8718  -12.8876   19.0503 C   0  0  0  0  0  0  0  0  0  0  0  0
  -27.6247  -28.9860   19.9638 C   0  0  0  0  0  0  0  0  0  0  0  0
  -24.1559   -8.8632   20.7793 C   0  0  0  0  0  0  0  0  0  0  0  0
  -23.2759   -8.3257   21.7186 C   0  0  0  0  0  0  0  0  0  0  0  0
  -26.1706  -27.0883   20.2854 C   0  0  0  0  0  0  0  0  0  0  0  0
  -31.1813  -22.0654   19.9856 C   0  0  0  0  0  0  0  0  0  0  0  0
  -22.1939  -10.4750   21.9348 C   0  0  0  0  0  0  0  0  0  0  0  0
  -29.0226  -21.0234   20.4916 C   0  0  0  0  0  0  0  0  0  0  0  0
  -27.3415  -13.8974   20.6803 C   0  0  0  0  0  0  0  0  0  0  0  0
  -29.5548  -15.1550   20.8461 C   0  0  0  0  0  0  0  0  0  0  0  0
  -24.1375  -33.3279   25.5703 C   0  0  0  0  0  0  0  0  0  0  0  0
  -25.2576  -29.3282   20.3817 C   0  0  0  0  0  0  0  0  0  0  0  0
  -24.6182  -32.1230   25.0231 C   0  0  0  0  0  0  0  0  0  0  0  0
  -25.0678  -27.9405   20.4488 C   0  0  0  0  0  0  0  0  0  0  0  0
  -31.7643  -21.2459   20.9578 C   0  0  0  0  0  0  0  0  0  0  0  0
  -29.8070  -21.9249   19.7808 C   0  0  0  0  0  0  0  0  0  0  0  0
  -25.7199  -11.7743   19.8769 C   0  0  0  0  0  0  0  0  0  0  0  0
  -27.4421  -27.6087   20.0460 C   0  0  0  0  0  0  0  0  0  0  0  0
  -24.0549  -10.2067   20.4177 C   0  0  0  0  0  0  0  0  0  0  0  0
  -22.2949   -9.1316   22.2964 C   0  0  0  0  0  0  0  0  0  0  0  0
  -23.0739  -11.0125   20.9955 C   0  0  0  0  0  0  0  0  0  0  0  0
  -28.1786  -14.9944   21.0950 C   0  0  0  0  0  0  0  0  0  0  0  0
  -27.7217  -21.2096   19.9765 C   0  0  0  0  0  0  0  0  0  0  0  0
  -29.8747  -16.3496   21.4436 C   0  0  0  0  0  0  0  0  0  0  0  0
  -30.4629  -14.3006   20.1382 C   0  0  0  0  0  0  0  0  0  0  0  0
  -23.1785  -29.5692   22.7740 C   0  0  0  0  0  0  0  0  0  0  0  0
  -21.2553  -27.9136   20.7535 C   0  0  0  0  0  0  0  0  0  0  0  0
  -26.5515  -21.1625   22.8237 C   0  0  0  0  0  0  0  0  0  0  0  0
  -20.9898  -25.7846   18.0994 C   0  0  0  0  0  0  0  0  0  0  0  0
  -22.7065  -33.4787   26.0221 C   0  0  0  0  0  0  0  0  0  0  0  0
  -24.0899  -30.2648   20.5287 C   0  0  0  0  0  0  0  0  0  0  0  0
  -23.7110  -27.3370   20.7003 C   0  0  0  0  0  0  0  0  0  0  0  0
  -21.7706  -32.4199   25.4448 C   0  0  0  0  0  0  0  0  0  0  0  0
  -28.5785  -19.2109   25.0424 C   0  0  0  0  0  0  0  0  0  0  0  0
  -22.3919  -31.0324   25.5708 C   0  0  0  0  0  0  0  0  0  0  0  0
  -28.8070  -17.9118   24.2707 C   0  0  0  0  0  0  0  0  0  0  0  0
  -27.1901  -19.7830   24.7739 C   0  0  0  0  0  0  0  0  0  0  0  0
  -27.1178  -18.6974   22.5518 C   0  0  0  0  0  0  0  0  0  0  0  0
  -23.7037  -30.9416   24.7818 C   0  0  1  0  0  0  0  0  0  0  0  0
  -22.9233  -29.6495   21.2955 C   0  0  1  0  0  0  0  0  0  0  0  0
  -28.5200  -18.1021   22.7708 C   0  0  2  0  0  0  0  0  0  0  0  0
  -33.2308  -21.3512   21.2209 C   0  0  0  0  0  0  0  0  0  0  0  0
  -25.5452  -20.2251   19.1596 C   0  0  0  0  0  0  0  0  0  0  0  0
  -19.2878  -24.5816   16.7018 C   0  0  0  0  0  0  0  0  0  0  0  0
  -24.3998  -20.3700   21.9441 C   0  0  0  0  0  0  0  0  0  0  0  0
  -25.3292  -22.6071   21.3119 C   0  0  0  0  0  0  0  0  0  0  0  0
  -20.8323  -25.8997   23.0063 C   0  0  0  0  0  0  0  0  0  0  0  0
  -19.9442  -24.2901   21.3067 C   0  0  0  0  0  0  0  0  0  0  0  0
  -18.7713  -26.4557   21.7034 C   0  0  0  0  0  0  0  0  0  0  0  0
  -21.8598  -27.1748   15.6358 C   0  0  0  0  0  0  0  0  0  0  0  0
  -29.4582  -25.0208   18.5528 C   0  0  0  0  0  0  0  0  0  0  0  0
  -29.2918  -23.6335   17.9290 C   0  0  0  0  0  0  0  0  0  0  0  0
  -28.2346  -25.4817   19.3362 C   0  0  0  0  0  0  0  0  0  1  0  0
  -26.4874  -20.5075   20.3708 C   0  0  2  0  0  0  0  0  0  0  0  0
  -20.9887  -26.4514   20.4890 C   0  0  1  0  0  0  0  0  0  0  0  0
  -20.1329  -25.8375   16.8475 C   0  0  2  0  0  0  0  0  0  0  0  0
  -25.6834  -21.1353   21.5909 C   0  0  0  0  0  0  0  0  0  0  0  0
  -20.1602  -25.7853   21.6235 C   0  0  0  0  0  0  0  0  0  0  0  0
  -27.6599  -16.0061   21.7960 N   0  0  0  0  0  0  0  0  0  0  0  0
  -27.6703  -22.1427   19.0233 N   0  0  0  0  0  0  0  0  0  0  0  0
  -28.9445  -22.5572   18.9263 N   0  0  0  0  0  0  0  0  0  0  0  0
  -28.7158  -16.8138   21.9929 N   0  0  0  0  0  0  0  0  0  0  0  0
  -22.6017  -28.2944   20.8434 N   0  0  0  0  0  0  0  0  0  0  0  0
  -26.9477  -19.9275   23.3374 N   0  0  0  0  0  0  0  0  0  0  0  0
  -31.0314  -17.0378   21.5475 N   0  0  0  0  0  0  0  0  0  0  0  0
  -29.9683  -13.1109   19.5865 N   0  0  0  0  0  0  0  0  0  0  0  0
  -23.4337  -30.7904   23.3681 N   0  0  0  0  0  0  0  0  0  0  0  0
  -20.3634  -26.3821   19.1727 N   0  0  0  0  0  0  0  0  0  0  0  0
  -20.9920  -25.9690   15.6369 N   0  3  0  0  0  0  0  0  0  0  0  0
  -31.6803  -14.5758   20.0130 O   0  0  0  0  0  0  0  0  0  0  0  0
  -23.1449  -28.4800   23.3346 O   0  0  0  0  0  0  0  0  0  0  0  0
  -20.3042  -28.6905   20.8687 O   0  0  0  0  0  0  0  0  0  0  0  0
  -26.8693  -22.2499   23.3123 O   0  0  0  0  0  0  0  0  0  0  0  0
  -22.1019  -25.2620   18.1238 O   0  0  0  0  0  0  0  0  0  0  0  0
  -24.9288  -10.7386   19.4845 O   0  0  0  0  0  0  0  0  0  0  0  0
  -28.5023  -26.7702   19.8878 O   0  0  0  0  0  0  0  0  0  1  0  0
  -21.4490   -8.6149   23.1972 F   0  0  0  0  0  0  0  0  0  0  0  0
  -22.9712  -12.3036   20.6513 F   0  0  0  0  0  0  0  0  0  0  0  0
  1  2  1  0  0  0  0
  1  6  2  0  0  0  0
  2  7  2  0  0  0  0
  3  9  2  0  0  0  0
  3 18  1  0  0  0  0
  4 10  2  0  0  0  0
  4 19  1  0  0  0  0
  5 11  1  0  0  0  0
  5 19  2  0  0  0  0
  6 21  1  0  0  0  0
  7 23  1  0  0  0  0
  8 12  2  0  0  0  0
  8 22  1  0  0  0  0
  9 25  1  0  0  0  0
 10 27  1  0  0  0  0
 11 27  2  0  0  0  0
 12 28  1  0  0  0  0
 13 14  2  0  0  0  0
 13 29  1  0  0  0  0
 14 30  1  0  0  0  0
 15 24  1  0  0  0  0
 15 28  2  0  0  0  0
 16 25  2  0  0  0  0
 16 26  1  0  0  0  0
 17 30  2  0  0  0  0
 17 31  1  0  0  0  0
 18 26  2  0  0  0  0
 18 33  1  0  0  0  0
 19 32  1  0  0  0  0
 20 32  1  0  0  0  0
 20 34  2  0  0  0  0
 20 35  1  0  0  0  0
 21 23  2  0  0  0  0
 21 40  1  0  0  0  0
 22 24  2  0  0  0  0
 22 41  1  0  0  0  0
 23 49  1  0  0  0  0
 24 42  1  0  0  0  0
 25 52  1  0  0  0  0
 26 71  1  0  0  0  0
 27 85  1  0  0  0  0
 28 86  1  0  0  0  0
 29 31  2  0  0  0  0
 29 85  1  0  0  0  0
 30 87  1  0  0  0  0
 31 88  1  0  0  0  0
 32 69  2  0  0  0  0
 33 64  1  0  0  0  0
 33 70  2  0  0  0  0
 34 72  1  0  0  0  0
 34 75  1  0  0  0  0
 35 76  1  0  0  0  0
 35 80  2  0  0  0  0
 36 50  1  0  0  0  0
 36 77  1  0  0  0  0
 36 81  2  0  0  0  0
 37 65  1  0  0  0  0
 37 73  1  0  0  0  0
 37 82  2  0  0  0  0
 38 67  1  0  0  0  0
 38 74  1  0  0  0  0
 38 83  2  0  0  0  0
 39 66  1  0  0  0  0
 39 78  1  0  0  0  0
 39 84  2  0  0  0  0
 40 43  1  0  0  0  0
 41 50  1  0  0  0  0
 42 73  1  0  0  0  0
 43 45  1  0  0  0  0
 44 46  1  0  0  0  0
 44 47  1  0  0  0  0
 45 49  1  0  0  0  0
 46 51  1  0  0  0  0
 47 74  1  0  0  0  0
 48 51  1  0  0  0  0
 48 74  1  0  0  0  0
 49 77  1  0  0  0  0
 50 73  1  0  0  0  0
 51 72  1  0  0  0  0
 53 64  1  0  0  0  0
 54 66  1  0  0  0  0
 55 67  1  0  0  0  0
 56 67  1  0  0  0  0
 57 68  1  0  0  0  0
 58 68  1  0  0  0  0
 59 68  1  0  0  0  0
 60 79  1  0  0  0  0
 61 62  1  0  0  0  0
 61 63  1  0  0  0  0
 62 71  1  0  0  0  0
 63 86  1  0  0  0  0
 64 67  1  0  0  0  0
 65 68  1  0  0  0  0
 65 78  1  0  0  0  0
 66 79  1  0  0  0  0
 69 72  1  0  0  0  0
 70 71  1  0  0  0  0
M  CHG  1  79   1
M  ISO  4  38 100  63 101  67 100  86 101
M  END
> <Batch ID>
0077

> <Smiles>
CNC(C)C(=O)NC(C(=O)N1Cc2cc([101O:1][101CH2:1]CCn3nc(C(C)[100C:0](C)(C)[100C:0](=O)N4CCCC(n5nc(-c6ccc(Oc7ccc(F)cc7F)cc6)c(C(N)=O)c5N)C4)c4ccc(C)cc43)ccc2CC1C(=O)NC1CCCc2ccccc21)C(C)(C)C

> <Shape>
0.293

> <Color>
0.093

> <Negative vol penalty>
0.000

$$$$

  -OEChem-04052318373D

 87 95  0     1  0  0  0  0  0999 V2000
  -27.2814  -37.7721   19.1749 C   0  0  0  0  0  0  0  0  0  0  0  0
  -27.6938  -36.5383   18.6819 C   0  0  0  0  0  0  0  0  0  0  0  0
  -24.9320  -15.6445   26.0878 C   0  0  0  0  0  0  0  0  0  0  0  0
  -25.6788  -17.8601   25.4791 C   0  0  0  0  0  0  0  0  0  0  0  0
  -26.7463  -37.8649   20.4590 C   0  0  0  0  0  0  0  0  0  0  0  0
  -27.5724  -35.3967   19.4733 C   0  0  0  0  0  0  0  0  0  0  0  0
  -26.3264  -28.3604   18.9683 C   0  0  0  0  0  0  0  0  0  0  0  0
  -24.6846  -16.0851   27.3879 C   0  0  0  0  0  0  0  0  0  0  0  0
  -25.4313  -18.3007   26.7792 C   0  0  0  0  0  0  0  0  0  0  0  0
  -26.8681  -27.1393   19.3673 C   0  0  0  0  0  0  0  0  0  0  0  0
  -22.2863  -17.8285   29.0132 C   0  0  0  0  0  0  0  0  0  0  0  0
  -21.0844  -17.4467   29.6093 C   0  0  0  0  0  0  0  0  0  0  0  0
  -25.8558  -27.4072   21.5404 C   0  0  0  0  0  0  0  0  0  0  0  0
  -22.3106  -16.3339   31.3687 C   0  0  0  0  0  0  0  0  0  0  0  0
  -28.2938  -18.4747   19.4585 C   0  0  0  0  0  0  0  0  0  0  0  0
  -25.4291  -16.5321   25.1334 C   0  0  0  0  0  0  0  0  0  0  0  0
  -24.7883  -16.0820   22.7056 C   0  0  0  0  0  0  0  0  0  0  0  0
  -26.6093  -36.7223   21.2629 C   0  0  0  0  0  0  0  0  0  0  0  0
  -25.5531  -29.1205   19.8574 C   0  0  0  0  0  0  0  0  0  0  0  0
  -27.0362  -35.4744   20.7699 C   0  0  0  0  0  0  0  0  0  0  0  0
  -25.3033  -28.6364   21.1494 C   0  0  0  0  0  0  0  0  0  0  0  0
  -24.9342  -17.4132   27.7336 C   0  0  0  0  0  0  0  0  0  0  0  0
  -26.6353  -26.6639   20.6544 C   0  0  0  0  0  0  0  0  0  0  0  0
  -23.5003  -17.4630   29.5948 C   0  0  0  0  0  0  0  0  0  0  0  0
  -21.0966  -16.6994   30.7871 C   0  0  0  0  0  0  0  0  0  0  0  0
  -23.5125  -16.7157   30.7725 C   0  0  0  0  0  0  0  0  0  0  0  0
  -25.6855  -16.0774   23.7904 C   0  0  0  0  0  0  0  0  0  0  0  0
  -28.3544  -17.4222   18.5894 C   0  0  0  0  0  0  0  0  0  0  0  0
  -25.5084  -15.5535   21.6622 C   0  0  0  0  0  0  0  0  0  0  0  0
  -30.0849  -17.2753   19.9621 C   0  0  0  0  0  0  0  0  0  0  0  0
  -23.4258  -16.5244   22.6463 C   0  0  0  0  0  0  0  0  0  0  0  0
  -25.8222  -32.0067   21.1618 C   0  0  0  0  0  0  0  0  0  0  0  0
  -31.4160  -15.2809   20.5956 C   0  0  0  0  0  0  0  0  0  0  0  0
  -22.8563  -31.3432   22.2957 C   0  0  0  0  0  0  0  0  0  0  0  0
  -20.5427  -28.9853   23.1526 C   0  0  0  0  0  0  0  0  0  0  0  0
  -26.0689  -36.8796   22.6621 C   0  0  0  0  0  0  0  0  0  0  0  0
  -24.9536  -30.4230   19.4029 C   0  0  0  0  0  0  0  0  0  0  0  0
  -24.4630  -29.4045   22.1355 C   0  0  0  0  0  0  0  0  0  0  0  0
  -25.6276  -35.5630   23.2963 C   0  0  0  0  0  0  0  0  0  0  0  0
  -29.1013  -12.5486   20.7245 C   0  0  0  0  0  0  0  0  0  0  0  0
  -26.6865  -34.4861   23.0821 C   0  0  0  0  0  0  0  0  0  0  0  0
  -27.8927  -13.1360   21.4520 C   0  0  0  0  0  0  0  0  0  0  0  0
  -30.4090  -13.1227   21.2607 C   0  0  0  0  0  0  0  0  0  0  0  0
  -29.2677  -15.2049   21.9559 C   0  0  0  0  0  0  0  0  0  0  0  0
  -26.8977  -34.2094   21.5887 C   0  0  1  0  0  0  0  0  0  0  0  0
  -24.6088  -31.3575   20.5585 C   0  0  1  0  0  0  0  0  0  0  0  0
  -27.9246  -14.6744   21.4239 C   0  0  2  0  0  0  0  0  0  0  0  0
  -27.4776  -17.0280   17.4837 C   0  0  0  0  0  0  0  0  0  0  0  0
  -32.6114  -17.3646   19.9951 C   0  0  0  0  0  0  0  0  0  0  0  0
  -18.2250  -28.7471   24.0849 C   0  0  0  0  0  0  0  0  0  0  0  0
  -23.9142  -31.9883   25.0839 C   0  0  0  0  0  0  0  0  0  0  0  0
  -21.9025  -30.8420   26.0365 C   0  0  0  0  0  0  0  0  0  0  0  0
  -21.6220  -32.8681   24.6085 C   0  0  0  0  0  0  0  0  0  0  0  0
  -31.7320  -23.6591   23.0172 C   0  0  0  0  0  0  0  0  0  0  0  0
  -32.7698  -22.6459   20.9935 C   0  0  0  0  0  0  0  0  0  0  0  0
  -19.5735  -27.6279   20.7077 C   0  0  0  0  0  0  0  0  0  0  0  0
  -30.3770  -20.6096   20.9523 C   0  0  0  0  0  0  0  0  0  0  0  0
  -29.1834  -24.1830   21.4016 C   0  0  0  0  0  0  0  0  0  0  0  0
  -30.7946  -21.5152   22.1210 C   0  0  0  0  0  0  0  0  0  0  0  0
  -30.5169  -23.7270   20.7899 C   0  0  0  0  0  0  0  0  0  0  0  0
  -29.7094  -19.3087   21.4199 C   0  0  0  0  0  0  0  0  0  0  0  0
  -28.3951  -25.0774   20.4493 C   0  0  0  0  0  0  0  0  0  1  0  0
  -31.3267  -16.7861   20.6114 C   0  0  1  0  0  0  0  0  0  0  0  0
  -22.3098  -30.6831   23.5385 C   0  0  1  0  0  0  0  0  0  0  0  0
  -19.0665  -28.8559   22.8228 C   0  0  2  0  0  0  0  0  0  0  0  0
  -22.4546  -31.5816   24.7992 C   0  0  0  0  0  0  0  0  0  0  0  0
  -31.4281  -22.8776   21.7209 C   0  0  0  0  0  0  0  0  0  0  0  0
  -26.8840  -15.5850   23.4662 N   0  0  0  0  0  0  0  0  0  0  0  0
  -29.3763  -18.3585   20.2967 N   0  0  0  0  0  0  0  0  0  0  0  0
  -26.7449  -15.2751   22.1659 N   0  0  0  0  0  0  0  0  0  0  0  0
  -29.4725  -16.6969   18.9239 N   0  3  0  0  0  0  0  0  0  0  0  0
  -23.9041  -30.6756   21.6459 N   0  0  0  0  0  0  0  0  0  0  0  0
  -30.3910  -14.5864   21.2383 N   0  0  0  0  0  0  0  0  0  0  0  0
  -25.1982  -15.3045   20.3722 N   0  0  0  0  0  0  0  0  0  0  0  0
  -22.8398  -17.0409   23.8100 N   0  0  0  0  0  0  0  0  0  0  0  0
  -25.8264  -33.3855   21.0709 N   0  0  0  0  0  0  0  0  0  0  0  0
  -20.9352  -30.3049   23.2290 N   0  0  0  0  0  0  0  0  0  0  0  0
  -18.8259  -27.6428   21.9914 N   0  3  0  0  0  0  0  0  0  0  0  0
  -22.7429  -16.4484   21.5968 O   0  0  0  0  0  0  0  0  0  0  0  0
  -26.6896  -31.3083   21.6734 O   0  0  0  0  0  0  0  0  0  0  0  0
  -32.3676  -14.7403   20.0260 O   0  0  0  0  0  0  0  0  0  0  0  0
  -22.3665  -32.4081   21.9113 O   0  0  0  0  0  0  0  0  0  0  0  0
  -21.2735  -28.0130   23.3287 O   0  0  0  0  0  0  0  0  0  0  0  0
  -24.6927  -17.8435   29.0021 O   0  0  0  0  0  0  0  0  0  0  0  0
  -27.1674  -25.4635   21.0497 O   0  0  0  0  0  0  0  0  0  1  0  0
  -19.9424  -16.3342   31.3603 F   0  0  0  0  0  0  0  0  0  0  0  0
  -24.6757  -16.3626   31.3365 F   0  0  0  0  0  0  0  0  0  0  0  0
  1  2  1  0  0  0  0
  1  5  2  0  0  0  0
  2  6  2  0  0  0  0
  3  8  2  0  0  0  0
  3 16  1  0  0  0  0
  4  9  1  0  0  0  0
  4 16  2  0  0  0  0
  5 18  1  0  0  0  0
  6 20  1  0  0  0  0
  7 10  2  0  0  0  0
  7 19  1  0  0  0  0
  8 22  1  0  0  0  0
  9 22  2  0  0  0  0
 10 23  1  0  0  0  0
 11 12  2  0  0  0  0
 11 24  1  0  0  0  0
 12 25  1  0  0  0  0
 13 21  1  0  0  0  0
 13 23  2  0  0  0  0
 14 25  2  0  0  0  0
 14 26  1  0  0  0  0
 15 28  2  0  0  0  0
 15 69  1  0  0  0  0
 16 27  1  0  0  0  0
 17 27  1  0  0  0  0
 17 29  2  0  0  0  0
 17 31  1  0  0  0  0
 18 20  2  0  0  0  0
 18 36  1  0  0  0  0
 19 21  2  0  0  0  0
 19 37  1  0  0  0  0
 20 45  1  0  0  0  0
 21 38  1  0  0  0  0
 22 84  1  0  0  0  0
 23 85  1  0  0  0  0
 24 26  2  0  0  0  0
 24 84  1  0  0  0  0
 25 86  1  0  0  0  0
 26 87  1  0  0  0  0
 27 68  2  0  0  0  0
 28 48  1  0  0  0  0
 28 71  1  0  0  0  0
 29 70  1  0  0  0  0
 29 74  1  0  0  0  0
 30 63  1  0  0  0  0
 30 69  1  0  0  0  0
 30 71  2  0  0  0  0
 31 75  1  0  0  0  0
 31 79  2  0  0  0  0
 32 46  1  0  0  0  0
 32 76  1  0  0  0  0
 32 80  2  0  0  0  0
 33 63  1  0  0  0  0
 33 73  1  0  0  0  0
 33 81  2  0  0  0  0
 34 64  1  0  0  0  0
 34 72  1  0  0  0  0
 34 82  2  0  0  0  0
 35 65  1  0  0  0  0
 35 77  1  0  0  0  0
 35 83  2  0  0  0  0
 36 39  1  0  0  0  0
 37 46  1  0  0  0  0
 38 72  1  0  0  0  0
 39 41  1  0  0  0  0
 40 42  1  0  0  0  0
 40 43  1  0  0  0  0
 41 45  1  0  0  0  0
 42 47  1  0  0  0  0
 43 73  1  0  0  0  0
 44 47  1  0  0  0  0
 44 73  1  0  0  0  0
 45 76  1  0  0  0  0
 46 72  1  0  0  0  0
 47 70  1  0  0  0  0
 49 63  1  0  0  0  0
 50 65  1  0  0  0  0
 51 66  1  0  0  0  0
 52 66  1  0  0  0  0
 53 66  1  0  0  0  0
 54 67  1  0  0  0  0
 55 67  1  0  0  0  0
 56 78  1  0  0  0  0
 57 59  1  0  0  0  0
 57 61  1  0  0  0  0
 58 60  1  0  0  0  0
 58 62  1  0  0  0  0
 59 67  1  0  0  0  0
 60 67  1  0  0  0  0
 61 69  1  0  0  0  0
 62 85  1  0  0  0  0
 64 66  1  0  0  0  0
 64 77  1  0  0  0  0
 65 78  1  0  0  0  0
 68 70  1  0  0  0  0
M  CHG  2  71   1  78   1
M  ISO  4  33 100  62 101  63 100  85 101
M  END
> <Batch ID>
0077

> <Smiles>
CNC(C)C(=O)NC(C(=O)N1Cc2cc([101O:1][101CH2:1]CCC(C)(C)CCCn3cc(C)nc3[100CH:0](C)[100C:0](=O)N3CCCC(n4nc(-c5ccc(Oc6ccc(F)cc6F)cc5)c(C(N)=O)c4N)C3)ccc2CC1C(=O)NC1CCCc2ccccc21)C(C)(C)C

> <Shape>
0.221

> <Color>
0.086

> <Negative vol penalty>
0.000

$$$$

  -OEChem-04052318373D

 84 92  0     1  0  0  0  0  0999 V2000
  -22.7604  -31.1009   26.4399 C   0  0  0  0  0  0  0  0  0  0  0  0
  -23.4544  -29.9288   26.1572 C   0  0  0  0  0  0  0  0  0  0  0  0
  -23.1100   -9.8449   19.9586 C   0  0  0  0  0  0  0  0  0  0  0  0
  -23.8250   -9.9247   22.2650 C   0  0  0  0  0  0  0  0  0  0  0  0
  -21.5446  -31.3594   25.8084 C   0  0  0  0  0  0  0  0  0  0  0  0
  -22.9324  -29.0140   25.2434 C   0  0  0  0  0  0  0  0  0  0  0  0
  -26.0858  -25.4908   21.3512 C   0  0  0  0  0  0  0  0  0  0  0  0
  -22.3795   -8.6869   20.2251 C   0  0  0  0  0  0  0  0  0  0  0  0
  -23.0945   -8.7667   22.5315 C   0  0  0  0  0  0  0  0  0  0  0  0
  -26.4879  -24.1571   21.4084 C   0  0  0  0  0  0  0  0  0  0  0  0
  -19.4165   -7.8813   21.6409 C   0  0  0  0  0  0  0  0  0  0  0  0
  -18.1202   -7.8011   21.1323 C   0  0  0  0  0  0  0  0  0  0  0  0
  -24.5466  -23.5230   20.1245 C   0  0  0  0  0  0  0  0  0  0  0  0
  -18.7359   -5.8331   19.8732 C   0  0  0  0  0  0  0  0  0  0  0  0
  -28.0568  -18.9634   21.6036 C   0  0  0  0  0  0  0  0  0  0  0  0
  -23.8327  -10.4638   20.9785 C   0  0  0  0  0  0  0  0  0  0  0  0
  -24.1372  -12.9902   20.7977 C   0  0  0  0  0  0  0  0  0  0  0  0
  -21.0121  -30.4518   24.8792 C   0  0  0  0  0  0  0  0  0  0  0  0
  -24.9033  -25.8499   20.6884 C   0  0  0  0  0  0  0  0  0  0  0  0
  -21.7076  -29.2599   24.5998 C   0  0  0  0  0  0  0  0  0  0  0  0
  -24.1330  -24.8623   20.0582 C   0  0  0  0  0  0  0  0  0  0  0  0
  -22.3718   -8.1478   21.5115 C   0  0  0  0  0  0  0  0  0  0  0  0
  -25.7168  -23.1726   20.7975 C   0  0  0  0  0  0  0  0  0  0  0  0
  -20.3726   -6.9374   21.2656 C   0  0  0  0  0  0  0  0  0  0  0  0
  -17.7798   -6.7770   20.2485 C   0  0  0  0  0  0  0  0  0  0  0  0
  -20.0322   -5.9133   20.3818 C   0  0  0  0  0  0  0  0  0  0  0  0
  -24.5879  -11.6598   20.7037 C   0  0  0  0  0  0  0  0  0  0  0  0
  -28.9736  -18.4963   20.7046 C   0  0  0  0  0  0  0  0  0  0  0  0
  -25.2243  -13.7474   20.4353 C   0  0  0  0  0  0  0  0  0  0  0  0
  -27.0367  -18.7140   19.6549 C   0  0  0  0  0  0  0  0  0  0  0  0
  -22.8509  -13.4962   21.1785 C   0  0  0  0  0  0  0  0  0  0  0  0
  -22.1641  -27.2044   21.5635 C   0  0  0  0  0  0  0  0  0  0  0  0
  -21.5672  -27.1458   18.3756 C   0  0  0  0  0  0  0  0  0  0  0  0
  -22.1998  -25.7307   15.3352 C   0  0  0  0  0  0  0  0  0  0  0  0
  -30.6868  -14.8596   20.7005 C   0  0  0  0  0  0  0  0  0  0  0  0
  -19.6714  -30.7524   24.2573 C   0  0  0  0  0  0  0  0  0  0  0  0
  -24.4973  -27.2962   20.6129 C   0  0  0  0  0  0  0  0  0  0  0  0
  -22.8657  -25.1980   19.3166 C   0  0  0  0  0  0  0  0  0  0  0  0
  -19.3703  -29.9083   23.0215 C   0  0  0  0  0  0  0  0  0  0  0  0
  -29.6332  -12.3949   18.3570 C   0  0  0  0  0  0  0  0  0  0  0  0
  -19.6963  -28.4415   23.2844 C   0  0  0  0  0  0  0  0  0  0  0  0
  -28.1924  -12.0895   18.7703 C   0  0  0  0  0  0  0  0  0  0  0  0
  -30.5233  -12.6621   19.5688 C   0  0  0  0  0  0  0  0  0  0  0  0
  -28.5838  -13.3987   20.8990 C   0  0  0  0  0  0  0  0  0  0  0  0
  -21.1861  -28.2547   23.5960 C   0  0  1  0  0  0  0  0  0  0  0  0
  -23.0062  -27.4854   20.3513 C   0  0  1  0  0  0  0  0  0  0  0  0
  -27.6355  -13.1773   19.7082 C   0  0  2  0  0  0  0  0  0  0  0  0
  -26.0074  -18.6966   18.5858 C   0  0  0  0  0  0  0  0  0  0  0  0
  -31.2585  -19.4101   21.2225 C   0  0  0  0  0  0  0  0  0  0  0  0
  -21.5320  -25.8701   12.9202 C   0  0  0  0  0  0  0  0  0  0  0  0
  -18.9519  -25.7115   19.0185 C   0  0  0  0  0  0  0  0  0  0  0  0
  -18.8053  -25.0466   16.6092 C   0  0  0  0  0  0  0  0  0  0  0  0
  -18.7728  -27.4600   17.2394 C   0  0  0  0  0  0  0  0  0  0  0  0
  -24.3979  -18.5519   21.4669 C   0  0  0  0  0  0  0  0  0  0  0  0
  -25.7726  -19.8979   23.0405 C   0  0  0  0  0  0  0  0  0  0  0  0
  -24.9548  -26.4075   14.4923 C   0  0  0  0  0  0  0  0  0  0  0  0
  -30.6949  -17.0429   21.8806 C   0  0  0  0  0  0  0  0  0  0  0  0
  -25.0768  -20.8824   20.8329 C   0  0  0  0  0  0  0  0  0  1  0  0
  -30.3953  -18.1738   20.8506 C   0  0  1  0  0  0  0  0  0  0  0  0
  -20.9331  -26.1596   17.4247 C   0  0  1  0  0  0  0  0  0  0  0  0
  -22.5104  -26.3461   13.9827 C   0  0  2  0  0  0  0  0  0  0  0  0
  -19.3886  -26.0876   17.5885 C   0  0  0  0  0  0  0  0  0  0  0  0
  -25.5464  -19.5866   21.5431 C   0  0  0  0  0  0  0  0  0  0  0  0
  -25.8620  -11.5734   20.3123 N   0  0  0  0  0  0  0  0  0  0  0  0
  -26.8676  -19.0892   20.9270 N   0  0  0  0  0  0  0  0  0  0  0  0
  -26.2212  -12.8591   20.1569 N   0  0  0  0  0  0  0  0  0  0  0  0
  -28.3149  -18.3509   19.5074 N   0  3  0  0  0  0  0  0  0  0  0  0
  -22.5075  -26.6254   19.2762 N   0  0  0  0  0  0  0  0  0  0  0  0
  -29.9396  -13.7046   20.4164 N   0  0  0  0  0  0  0  0  0  0  0  0
  -25.4152  -15.0797   20.3308 N   0  0  0  0  0  0  0  0  0  0  0  0
  -21.8470  -12.5800   21.5206 N   0  0  0  0  0  0  0  0  0  0  0  0
  -21.9670  -28.3028   22.3785 N   0  0  0  0  0  0  0  0  0  0  0  0
  -21.3750  -26.5401   16.0874 N   0  0  0  0  0  0  0  0  0  0  0  0
  -30.0569  -15.8005   21.5059 N   0  0  0  0  0  0  0  0  0  0  0  0
  -23.8886  -25.9790   13.5508 N   0  3  0  0  0  0  0  0  0  0  0  0
  -22.5943  -14.7239   21.1985 O   0  0  0  0  0  0  0  0  0  0  0  0
  -21.7244  -26.0751   21.7451 O   0  0  0  0  0  0  0  0  0  0  0  0
  -21.2456  -28.3352   18.3166 O   0  0  0  0  0  0  0  0  0  0  0  0
  -22.6414  -24.6392   15.6876 O   0  0  0  0  0  0  0  0  0  0  0  0
  -31.8284  -15.0414   20.2640 O   0  0  0  0  0  0  0  0  0  0  0  0
  -21.6590   -7.0179   21.7720 O   0  0  0  0  0  0  0  0  0  0  0  0
  -26.1067  -21.8700   20.8523 O   0  0  0  0  0  0  0  0  0  1  0  0
  -16.5345   -6.6993   19.7614 F   0  0  0  0  0  0  0  0  0  0  0  0
  -20.9461   -5.0030   20.0185 F   0  0  0  0  0  0  0  0  0  0  0  0
  1  2  1  0  0  0  0
  1  5  2  0  0  0  0
  2  6  2  0  0  0  0
  3  8  2  0  0  0  0
  3 16  1  0  0  0  0
  4  9  1  0  0  0  0
  4 16  2  0  0  0  0
  5 18  1  0  0  0  0
  6 20  1  0  0  0  0
  7 10  2  0  0  0  0
  7 19  1  0  0  0  0
  8 22  1  0  0  0  0
  9 22  2  0  0  0  0
 10 23  1  0  0  0  0
 11 12  2  0  0  0  0
 11 24  1  0  0  0  0
 12 25  1  0  0  0  0
 13 21  1  0  0  0  0
 13 23  2  0  0  0  0
 14 25  2  0  0  0  0
 14 26  1  0  0  0  0
 15 28  2  0  0  0  0
 15 65  1  0  0  0  0
 16 27  1  0  0  0  0
 17 27  1  0  0  0  0
 17 29  2  0  0  0  0
 17 31  1  0  0  0  0
 18 20  2  0  0  0  0
 18 36  1  0  0  0  0
 19 21  2  0  0  0  0
 19 37  1  0  0  0  0
 20 45  1  0  0  0  0
 21 38  1  0  0  0  0
 22 81  1  0  0  0  0
 23 82  1  0  0  0  0
 24 26  2  0  0  0  0
 24 81  1  0  0  0  0
 25 83  1  0  0  0  0
 26 84  1  0  0  0  0
 27 64  2  0  0  0  0
 28 59  1  0  0  0  0
 28 67  1  0  0  0  0
 29 66  1  0  0  0  0
 29 70  1  0  0  0  0
 30 48  1  0  0  0  0
 30 65  1  0  0  0  0
 30 67  2  0  0  0  0
 31 71  1  0  0  0  0
 31 76  2  0  0  0  0
 32 46  1  0  0  0  0
 32 72  1  0  0  0  0
 32 77  2  0  0  0  0
 33 60  1  0  0  0  0
 33 68  1  0  0  0  0
 33 78  2  0  0  0  0
 34 61  1  0  0  0  0
 34 73  1  0  0  0  0
 34 79  2  0  0  0  0
 35 69  1  0  0  0  0
 35 74  1  0  0  0  0
 35 80  2  0  0  0  0
 36 39  1  0  0  0  0
 37 46  1  0  0  0  0
 38 68  1  0  0  0  0
 39 41  1  0  0  0  0
 40 42  1  0  0  0  0
 40 43  1  0  0  0  0
 41 45  1  0  0  0  0
 42 47  1  0  0  0  0
 43 69  1  0  0  0  0
 44 47  1  0  0  0  0
 44 69  1  0  0  0  0
 45 72  1  0  0  0  0
 46 68  1  0  0  0  0
 47 66  1  0  0  0  0
 49 59  1  0  0  0  0
 50 61  1  0  0  0  0
 51 62  1  0  0  0  0
 52 62  1  0  0  0  0
 53 62  1  0  0  0  0
 54 63  1  0  0  0  0
 55 63  1  0  0  0  0
 56 75  1  0  0  0  0
 57 59  1  0  0  0  0
 57 74  1  0  0  0  0
 58 63  1  0  0  0  0
 58 82  1  0  0  0  0
 60 62  1  0  0  0  0
 60 73  1  0  0  0  0
 61 75  1  0  0  0  0
 63 65  1  0  0  0  0
 64 66  1  0  0  0  0
M  CHG  2  67   1  75   1
M  ISO  4  35 100  58 101  74 100  82 101
M  END
> <Batch ID>
0077

> <Smiles>
CNC(C)C(=O)NC(C(=O)N1Cc2cc([101O:1][101CH2:1]C(C)(C)n3cc(C(C)C[100NH:0][100C:0](=O)N4CCCC(n5nc(-c6ccc(Oc7ccc(F)cc7F)cc6)c(C(N)=O)c5N)C4)nc3C)ccc2CC1C(=O)NC1CCCc2ccccc21)C(C)(C)C

> <Shape>
0.229

> <Color>
0.188

> <Negative vol penalty>
0.000

$$$$

  -OEChem-04052318373D

 94103  0     1  0  0  0  0  0999 V2000
  -16.6279  -28.7765   23.9628 C   0  0  0  0  0  0  0  0  0  0  0  0
  -17.6091  -29.4897   24.6441 C   0  0  0  0  0  0  0  0  0  0  0  0
  -24.6392  -12.8794   20.0578 C   0  0  0  0  0  0  0  0  0  0  0  0
  -24.0150  -13.7505   22.2232 C   0  0  0  0  0  0  0  0  0  0  0  0
  -16.9923  -27.8506   22.9862 C   0  0  0  0  0  0  0  0  0  0  0  0
  -18.9554  -29.2765   24.3499 C   0  0  0  0  0  0  0  0  0  0  0  0
  -25.2219  -32.7351   24.0585 C   0  0  0  0  0  0  0  0  0  0  0  0
  -24.6030  -11.5822   20.5692 C   0  0  0  0  0  0  0  0  0  0  0  0
  -23.9788  -12.4533   22.7346 C   0  0  0  0  0  0  0  0  0  0  0  0
  -26.5302  -32.6351   24.5296 C   0  0  0  0  0  0  0  0  0  0  0  0
  -24.3229   -8.0155   21.2134 C   0  0  0  0  0  0  0  0  0  0  0  0
  -23.6898   -7.0348   20.4498 C   0  0  0  0  0  0  0  0  0  0  0  0
  -27.0386  -31.0680   22.7675 C   0  0  0  0  0  0  0  0  0  0  0  0
  -21.6245   -8.2839   20.5582 C   0  0  0  0  0  0  0  0  0  0  0  0
  -24.3453  -13.9636   20.8848 C   0  0  0  0  0  0  0  0  0  0  0  0
  -23.3218  -16.0148   19.7656 C   0  0  0  0  0  0  0  0  0  0  0  0
  -18.3433  -27.6330   22.6731 C   0  0  0  0  0  0  0  0  0  0  0  0
  -24.8084  -31.9928   22.9430 C   0  0  0  0  0  0  0  0  0  0  0  0
  -19.3382  -28.3458   23.3691 C   0  0  0  0  0  0  0  0  0  0  0  0
  -25.7251  -31.1624   22.2827 C   0  0  0  0  0  0  0  0  0  0  0  0
  -28.3830  -25.2210   25.6562 C   0  0  0  0  0  0  0  0  0  0  0  0
  -28.8820  -26.2226   24.7889 C   0  0  0  0  0  0  0  0  0  0  0  0
  -24.2728  -11.3691   21.9075 C   0  0  0  0  0  0  0  0  0  0  0  0
  -27.4380  -31.7993   23.8859 C   0  0  0  0  0  0  0  0  0  0  0  0
  -23.6069   -9.1303   21.6495 C   0  0  0  0  0  0  0  0  0  0  0  0
  -22.3406   -7.1690   20.1222 C   0  0  0  0  0  0  0  0  0  0  0  0
  -22.2577   -9.2645   21.3218 C   0  0  0  0  0  0  0  0  0  0  0  0
  -24.3831  -15.3039   20.3573 C   0  0  0  0  0  0  0  0  0  0  0  0
  -27.7027  -24.3073   24.8799 C   0  0  0  0  0  0  0  0  0  0  0  0
  -28.4939  -25.8948   23.5078 C   0  0  0  0  0  0  0  0  0  0  0  0
  -23.8662  -17.2315   19.4341 C   0  0  0  0  0  0  0  0  0  0  0  0
  -26.9934  -23.1045   25.1522 C   0  0  0  0  0  0  0  0  0  0  0  0
  -27.1850  -24.0230   22.5092 C   0  0  0  0  0  0  0  0  0  0  0  0
  -26.4147  -22.4069   24.1480 C   0  0  0  0  0  0  0  0  0  0  0  0
  -26.5098  -22.8821   22.7537 C   0  0  0  0  0  0  0  0  0  0  0  0
  -21.9652  -15.6116   19.5363 C   0  0  0  0  0  0  0  0  0  0  0  0
  -22.6340  -29.7306   22.4347 C   0  0  0  0  0  0  0  0  0  0  0  0
  -27.0293  -21.6346   20.8116 C   0  0  0  0  0  0  0  0  0  0  0  0
  -23.5162  -30.1240   19.3380 C   0  0  0  0  0  0  0  0  0  0  0  0
  -25.8994  -31.1235   17.1091 C   0  0  0  0  0  0  0  0  0  0  0  0
  -18.6904  -26.5875   21.6430 C   0  0  0  0  0  0  0  0  0  0  0  0
  -23.4009  -32.1322   22.4311 C   0  0  0  0  0  0  0  0  0  0  0  0
  -25.3367  -30.3598   21.0688 C   0  0  0  0  0  0  0  0  0  0  0  0
  -20.1235  -26.6923   21.1277 C   0  0  0  0  0  0  0  0  0  0  0  0
  -28.6692  -18.7921   19.3726 C   0  0  0  0  0  0  0  0  0  0  0  0
  -21.0969  -26.8673   22.2890 C   0  0  0  0  0  0  0  0  0  0  0  0
  -27.6241  -17.6824   19.4795 C   0  0  0  0  0  0  0  0  0  0  0  0
  -28.6002  -19.7410   20.5650 C   0  0  0  0  0  0  0  0  0  0  0  0
  -26.2020  -19.2304   20.8960 C   0  0  0  0  0  0  0  0  0  0  0  0
  -20.8082  -28.1605   23.0608 C   0  0  1  0  0  0  0  0  0  0  0  0
  -22.9474  -30.9380   21.5971 C   0  0  1  0  0  0  0  0  0  0  0  0
  -26.2171  -18.2672   19.6958 C   0  0  2  0  0  0  0  0  0  0  0  0
  -25.6647  -21.1365   24.4338 C   0  0  0  0  0  0  0  0  0  0  0  0
  -29.9568  -24.6929   27.5351 C   0  0  0  0  0  0  0  0  0  0  0  0
  -30.1074  -26.6605   20.0851 C   0  0  0  0  0  0  0  0  0  0  0  0
  -26.3463  -31.2895   14.6453 C   0  0  0  0  0  0  0  0  0  0  0  0
  -24.2704  -22.0700   19.6800 C   0  0  0  0  0  0  0  0  0  0  0  0
  -23.7152  -23.4702   21.6708 C   0  0  0  0  0  0  0  0  0  0  0  0
  -29.5853  -32.3203   26.4929 C   0  0  0  0  0  0  0  0  0  0  0  0
  -24.0122  -27.1153   19.2277 C   0  0  0  0  0  0  0  0  0  0  0  0
  -25.3241  -27.4790   17.1266 C   0  0  0  0  0  0  0  0  0  0  0  0
  -22.9003  -28.0644   17.1986 C   0  0  0  0  0  0  0  0  0  0  0  0
  -26.1959  -34.0651   17.2433 C   0  0  0  0  0  0  0  0  0  0  0  0
  -28.5599  -25.1663   27.1226 C   0  0  0  0  0  0  0  0  0  0  0  0
  -29.6906  -27.4303   25.1911 C   0  0  0  0  0  0  0  0  0  0  0  0
  -28.7558  -26.6116   22.2388 C   0  0  0  0  0  0  0  0  0  0  0  0
  -29.8653  -25.9444   21.4044 C   0  0  0  0  0  0  0  0  0  0  0  0
  -28.8746  -28.7267   25.2590 C   0  0  0  0  0  0  0  0  0  0  0  0
  -29.7180  -29.9447   25.6606 C   0  0  0  0  0  0  0  0  0  0  0  0
  -25.8644  -22.1019   21.6475 C   0  0  2  0  0  0  0  0  0  0  0  0
  -24.5622  -29.5112   18.4383 C   0  0  1  0  0  0  0  0  0  0  0  0
  -25.8193  -32.0079   15.8778 C   0  0  2  0  0  0  0  0  0  0  0  0
  -24.8610  -22.9208   20.8122 C   0  0  0  0  0  0  0  0  0  0  0  0
  -28.8912  -31.2343   25.6817 C   0  0  2  0  0  0  0  0  0  1  0  0
  -24.2068  -28.0560   18.0218 C   0  0  0  0  0  0  0  0  0  0  0  0
  -25.5161  -16.0100   20.4004 N   0  0  0  0  0  0  0  0  0  0  0  0
  -27.7722  -24.7237   23.5592 N   0  0  0  0  0  0  0  0  0  0  0  0
  -25.1698  -17.1773   19.8315 N   0  0  0  0  0  0  0  0  0  0  0  0
  -23.9475  -30.5253   20.6104 N   0  0  0  0  0  0  0  0  0  0  0  0
  -27.2429  -20.2574   20.7504 N   0  0  0  0  0  0  0  0  0  0  0  0
  -23.3523  -18.3316   18.8442 N   0  0  0  0  0  0  0  0  0  0  0  0
  -21.5727  -14.3277   19.9387 N   0  0  0  0  0  0  0  0  0  0  0  0
  -21.3227  -29.3050   22.3399 N   0  0  0  0  0  0  0  0  0  0  0  0
  -24.7256  -30.4306   17.3174 N   0  0  0  0  0  0  0  0  0  0  0  0
  -26.6212  -33.2480   16.0778 N   0  3  0  0  0  0  0  0  0  0  0  0
  -21.1302  -16.3613   18.9758 O   0  0  0  0  0  0  0  0  0  0  0  0
  -23.5169  -29.2218   23.1154 O   0  0  0  0  0  0  0  0  0  0  0  0
  -27.7255  -22.4699   20.2289 O   0  0  0  0  0  0  0  0  0  0  0  0
  -22.3608  -30.2487   18.9245 O   0  0  0  0  0  0  0  0  0  0  0  0
  -26.9040  -31.0516   17.8134 O   0  0  0  0  0  0  0  0  0  0  0  0
  -24.2371  -10.1034   22.4068 O   0  0  0  0  0  0  0  0  0  0  0  0
  -28.7155  -31.6993   24.3441 O   0  0  0  0  0  0  0  0  0  1  0  0
  -21.7331   -6.2280   19.3876 F   0  0  0  0  0  0  0  0  0  0  0  0
  -21.5649  -10.3339   21.7369 F   0  0  0  0  0  0  0  0  0  0  0  0
  1  2  1  0  0  0  0
  1  5  2  0  0  0  0
  2  6  2  0  0  0  0
  3  8  2  0  0  0  0
  3 15  1  0  0  0  0
  4  9  1  0  0  0  0
  4 15  2  0  0  0  0
  5 17  1  0  0  0  0
  6 19  1  0  0  0  0
  7 10  2  0  0  0  0
  7 18  1  0  0  0  0
  8 23  1  0  0  0  0
  9 23  2  0  0  0  0
 10 24  1  0  0  0  0
 11 12  2  0  0  0  0
 11 25  1  0  0  0  0
 12 26  1  0  0  0  0
 13 20  1  0  0  0  0
 13 24  2  0  0  0  0
 14 26  2  0  0  0  0
 14 27  1  0  0  0  0
 15 28  1  0  0  0  0
 16 28  1  0  0  0  0
 16 31  2  0  0  0  0
 16 36  1  0  0  0  0
 17 19  2  0  0  0  0
 17 41  1  0  0  0  0
 18 20  2  0  0  0  0
 18 42  1  0  0  0  0
 19 50  1  0  0  0  0
 20 43  1  0  0  0  0
 21 22  1  0  0  0  0
 21 29  2  0  0  0  0
 21 64  1  0  0  0  0
 22 30  2  0  0  0  0
 22 65  1  0  0  0  0
 23 91  1  0  0  0  0
 24 92  1  0  0  0  0
 25 27  2  0  0  0  0
 25 91  1  0  0  0  0
 26 93  1  0  0  0  0
 27 94  1  0  0  0  0
 28 76  2  0  0  0  0
 29 32  1  0  0  0  0
 29 77  1  0  0  0  0
 30 66  1  0  0  0  0
 30 77  1  0  0  0  0
 31 78  1  0  0  0  0
 31 81  1  0  0  0  0
 32 34  2  0  0  0  0
 33 35  2  0  0  0  0
 33 77  1  0  0  0  0
 34 35  1  0  0  0  0
 34 53  1  0  0  0  0
 35 70  1  0  0  0  0
 36 82  1  0  0  0  0
 36 86  2  0  0  0  0
 37 51  1  0  0  0  0
 37 83  1  0  0  0  0
 37 87  2  0  0  0  0
 38 70  1  0  0  0  0
 38 80  1  0  0  0  0
 38 88  2  0  0  0  0
 39 71  1  0  0  0  0
 39 79  1  0  0  0  0
 39 89  2  0  0  0  0
 40 72  1  0  0  0  0
 40 84  1  0  0  0  0
 40 90  2  0  0  0  0
 41 44  1  0  0  0  0
 42 51  1  0  0  0  0
 43 79  1  0  0  0  0
 44 46  1  0  0  0  0
 45 47  1  0  0  0  0
 45 48  1  0  0  0  0
 46 50  1  0  0  0  0
 47 52  1  0  0  0  0
 48 80  1  0  0  0  0
 49 52  1  0  0  0  0
 49 80  1  0  0  0  0
 50 83  1  0  0  0  0
 51 79  1  0  0  0  0
 52 78  1  0  0  0  0
 54 64  1  0  0  0  0
 55 67  1  0  0  0  0
 56 72  1  0  0  0  0
 57 73  1  0  0  0  0
 58 73  1  0  0  0  0
 59 74  1  0  0  0  0
 60 75  1  0  0  0  0
 61 75  1  0  0  0  0
 62 75  1  0  0  0  0
 63 85  1  0  0  0  0
 65 68  1  0  0  0  0
 66 67  1  0  0  0  0
 68 69  1  0  0  0  0
 69 74  1  0  0  0  0
 70 73  1  0  0  0  0
 71 75  1  0  0  0  0
 71 84  1  0  0  0  0
 72 85  1  0  0  0  0
 74 92  1  0  0  0  0
 76 78  1  0  0  0  0
M  CHG  1  85   1
M  ISO  4  38 100  70 100  74 101  92 101
M  END
> <Batch ID>
0077

> <Smiles>
CCCc1c(CCC[101CH:1](C)[101O:1]c2ccc3c(c2)CN(C(=O)C(NC(=O)C(C)NC)C(C)(C)C)C(C(=O)NC2CCCc4ccccc42)C3)c(CC)c2cc(C)c([100CH:0](C(C)C)[100C:0](=O)N3CCCC(n4nc(-c5ccc(Oc6ccc(F)cc6F)cc5)c(C(N)=O)c4N)C3)cn12

> <Shape>
0.272

> <Color>
0.081

> <Negative vol penalty>
0.000

$$$$

  -OEChem-04052318373D

 87 95  0     1  0  0  0  0  0999 V2000
  -29.1792  -23.0824   13.9701 C   0  0  0  0  0  0  0  0  0  0  0  0
  -28.4370  -22.2577   14.8094 C   0  0  0  0  0  0  0  0  0  0  0  0
  -24.5727  -10.9785   20.1155 C   0  0  0  0  0  0  0  0  0  0  0  0
  -25.3027  -11.4428   22.3713 C   0  0  0  0  0  0  0  0  0  0  0  0
  -29.7700  -24.2395   14.4760 C   0  0  0  0  0  0  0  0  0  0  0  0
  -28.2860  -22.5891   16.1554 C   0  0  0  0  0  0  0  0  0  0  0  0
  -23.5802  -22.0923   21.5335 C   0  0  0  0  0  0  0  0  0  0  0  0
  -24.4932   -9.6198   20.4208 C   0  0  0  0  0  0  0  0  0  0  0  0
  -25.2231  -10.0841   22.6767 C   0  0  0  0  0  0  0  0  0  0  0  0
  -23.4960  -21.6524   22.8538 C   0  0  0  0  0  0  0  0  0  0  0  0
  -23.7512   -6.0728   20.7095 C   0  0  0  0  0  0  0  0  0  0  0  0
  -22.6202   -5.3773   20.2822 C   0  0  0  0  0  0  0  0  0  0  0  0
  -24.4955  -23.7175   23.5992 C   0  0  0  0  0  0  0  0  0  0  0  0
  -27.3976  -21.0889   24.8867 C   0  0  0  0  0  0  0  0  0  0  0  0
  -21.2206   -6.8497   21.5900 C   0  0  0  0  0  0  0  0  0  0  0  0
  -24.9775  -11.8900   21.0908 C   0  0  0  0  0  0  0  0  0  0  0  0
  -24.0415  -14.2560   20.9077 C   0  0  0  0  0  0  0  0  0  0  0  0
  -29.6182  -24.5904   15.8267 C   0  0  0  0  0  0  0  0  0  0  0  0
  -24.1336  -23.3456   21.2348 C   0  0  0  0  0  0  0  0  0  0  0  0
  -28.8765  -23.7514   16.6801 C   0  0  0  0  0  0  0  0  0  0  0  0
  -24.5832  -24.1720   22.2745 C   0  0  0  0  0  0  0  0  0  0  0  0
  -26.9923  -20.3774   26.0104 C   0  0  0  0  0  0  0  0  0  0  0  0
  -27.5341  -19.1224   26.2646 C   0  0  0  0  0  0  0  0  0  0  0  0
  -24.8184   -9.1726   21.7014 C   0  0  0  0  0  0  0  0  0  0  0  0
  -23.9563  -22.4638   23.8867 C   0  0  0  0  0  0  0  0  0  0  0  0
  -23.6169   -7.1568   21.5771 C   0  0  0  0  0  0  0  0  0  0  0  0
  -21.3549   -5.7657   20.7224 C   0  0  0  0  0  0  0  0  0  0  0  0
  -22.3516   -7.5452   22.0173 C   0  0  0  0  0  0  0  0  0  0  0  0
  -25.0603  -13.2936   20.7758 C   0  0  0  0  0  0  0  0  0  0  0  0
  -28.3400  -20.5058   24.0550 C   0  0  0  0  0  0  0  0  0  0  0  0
  -28.4703  -18.6272   25.3711 C   0  0  0  0  0  0  0  0  0  0  0  0
  -24.6181  -15.4272   20.4809 C   0  0  0  0  0  0  0  0  0  0  0  0
  -22.6942  -14.1048   21.3743 C   0  0  0  0  0  0  0  0  0  0  0  0
  -26.6452  -24.3481   19.5642 C   0  0  0  0  0  0  0  0  0  0  0  0
  -25.4077  -27.2782   20.2009 C   0  0  0  0  0  0  0  0  0  0  0  0
  -23.4584  -29.2246   22.2155 C   0  0  0  0  0  0  0  0  0  0  0  0
  -28.9128  -18.9903   20.3998 C   0  0  0  0  0  0  0  0  0  0  0  0
  -30.3149  -25.8262   16.3385 C   0  0  0  0  0  0  0  0  0  0  0  0
  -24.1928  -23.8167   19.8075 C   0  0  0  0  0  0  0  0  0  0  0  0
  -25.1672  -25.5346   22.0084 C   0  0  0  0  0  0  0  0  0  0  0  0
  -29.7944  -26.3024   17.6922 C   0  0  0  0  0  0  0  0  0  0  0  0
  -29.0090  -16.2632   18.1128 C   0  0  0  0  0  0  0  0  0  0  0  0
  -29.6705  -25.1292   18.6592 C   0  0  0  0  0  0  0  0  0  0  0  0
  -27.9110  -15.3247   18.6163 C   0  0  0  0  0  0  0  0  0  0  0  0
  -29.7385  -16.9483   19.2662 C   0  0  0  0  0  0  0  0  0  0  0  0
  -27.7651  -16.7156   20.7241 C   0  0  0  0  0  0  0  0  0  0  0  0
  -28.6693  -24.0901   18.1404 C   0  0  1  0  0  0  0  0  0  0  0  0
  -25.2461  -24.8960   19.5777 C   0  0  1  0  0  0  0  0  0  0  0  0
  -26.9640  -16.0440   19.5956 C   0  0  2  0  0  0  0  0  0  0  0  0
  -27.1201  -18.3373   27.4636 C   0  0  0  0  0  0  0  0  0  0  0  0
  -22.6686  -31.5890   22.5039 C   0  0  0  0  0  0  0  0  0  0  0  0
  -28.0068  -16.1629   25.6114 C   0  0  0  0  0  0  0  0  0  0  0  0
  -29.8493  -17.2323   26.9520 C   0  0  0  0  0  0  0  0  0  0  0  0
  -30.1307  -16.8435   24.5126 C   0  0  0  0  0  0  0  0  0  0  0  0
  -28.1412  -28.0530   21.3133 C   0  0  0  0  0  0  0  0  0  0  0  0
  -27.0558  -30.0182   22.4215 C   0  0  0  0  0  0  0  0  0  0  0  0
  -27.0362  -29.8229   19.9347 C   0  0  0  0  0  0  0  0  0  0  0  0
  -20.6232  -28.4398   21.8921 C   0  0  0  0  0  0  0  0  0  0  0  0
  -25.9658  -20.9858   26.9323 C   0  0  0  0  0  0  0  0  0  0  0  0
  -28.7995  -21.2410   22.8404 C   0  0  0  0  0  0  0  0  0  0  0  0
  -24.5662  -20.3873   26.7761 C   0  0  0  0  0  0  0  0  0  0  0  0
  -27.9600  -20.9476   21.5916 C   0  0  0  0  0  0  0  0  0  0  0  0
  -23.9559  -20.6296   25.4005 C   0  0  0  0  0  0  0  0  0  1  0  0
  -25.5702  -28.2894   21.3100 C   0  0  1  0  0  0  0  0  0  0  0  0
  -22.3661  -30.2289   21.8947 C   0  0  2  0  0  0  0  0  0  0  0  0
  -29.0888  -17.2855   25.5917 C   0  0  0  0  0  0  0  0  0  0  0  0
  -26.9417  -29.0194   21.2501 C   0  0  0  0  0  0  0  0  0  0  0  0
  -26.1980  -13.8087   20.3022 N   0  0  0  0  0  0  0  0  0  0  0  0
  -28.8888  -19.2890   24.2690 N   0  0  0  0  0  0  0  0  0  0  0  0
  -25.8975  -15.1075   20.1326 N   0  0  0  0  0  0  0  0  0  0  0  0
  -25.2092  -25.9477   20.5960 N   0  0  0  0  0  0  0  0  0  0  0  0
  -28.7840  -17.6128   20.1568 N   0  0  0  0  0  0  0  0  0  0  0  0
  -24.1506  -16.6891   20.3733 N   0  0  0  0  0  0  0  0  0  0  0  0
  -22.2645  -12.8322   21.7744 N   0  0  0  0  0  0  0  0  0  0  0  0
  -27.3122  -24.5378   18.3690 N   0  0  0  0  0  0  0  0  0  0  0  0
  -24.4162  -29.1779   21.2247 N   0  0  0  0  0  0  0  0  0  0  0  0
  -27.9630  -19.5424   21.2506 N   0  0  0  0  0  0  0  0  0  0  0  0
  -21.0562  -29.7568   22.4259 N   0  3  0  0  0  0  0  0  0  0  0  0
  -21.8900  -15.0665   21.4191 O   0  0  0  0  0  0  0  0  0  0  0  0
  -27.0873  -23.7956   20.5647 O   0  0  0  0  0  0  0  0  0  0  0  0
  -25.4480  -27.6561   19.0273 O   0  0  0  0  0  0  0  0  0  0  0  0
  -23.4635  -28.5518   23.2440 O   0  0  0  0  0  0  0  0  0  0  0  0
  -29.8047  -19.6782   19.8916 O   0  0  0  0  0  0  0  0  0  0  0  0
  -24.7407   -7.8469   21.9998 O   0  0  0  0  0  0  0  0  0  0  0  0
  -23.8759  -22.0366   25.1762 O   0  0  0  0  0  0  0  0  0  1  0  0
  -20.2687   -5.0986   20.3108 F   0  0  0  0  0  0  0  0  0  0  0  0
  -22.2162   -8.5866   22.8498 F   0  0  0  0  0  0  0  0  0  0  0  0
  1  2  1  0  0  0  0
  1  5  2  0  0  0  0
  2  6  2  0  0  0  0
  3  8  2  0  0  0  0
  3 16  1  0  0  0  0
  4  9  1  0  0  0  0
  4 16  2  0  0  0  0
  5 18  1  0  0  0  0
  6 20  1  0  0  0  0
  7 10  2  0  0  0  0
  7 19  1  0  0  0  0
  8 24  1  0  0  0  0
  9 24  2  0  0  0  0
 10 25  1  0  0  0  0
 11 12  2  0  0  0  0
 11 26  1  0  0  0  0
 12 27  1  0  0  0  0
 13 21  1  0  0  0  0
 13 25  2  0  0  0  0
 14 22  1  0  0  0  0
 14 30  2  0  0  0  0
 15 27  2  0  0  0  0
 15 28  1  0  0  0  0
 16 29  1  0  0  0  0
 17 29  1  0  0  0  0
 17 32  2  0  0  0  0
 17 33  1  0  0  0  0
 18 20  2  0  0  0  0
 18 38  1  0  0  0  0
 19 21  2  0  0  0  0
 19 39  1  0  0  0  0
 20 47  1  0  0  0  0
 21 40  1  0  0  0  0
 22 23  2  0  0  0  0
 22 59  1  0  0  0  0
 23 31  1  0  0  0  0
 23 50  1  0  0  0  0
 24 84  1  0  0  0  0
 25 85  1  0  0  0  0
 26 28  2  0  0  0  0
 26 84  1  0  0  0  0
 27 86  1  0  0  0  0
 28 87  1  0  0  0  0
 29 68  2  0  0  0  0
 30 60  1  0  0  0  0
 30 69  1  0  0  0  0
 31 66  1  0  0  0  0
 31 69  2  0  0  0  0
 32 70  1  0  0  0  0
 32 73  1  0  0  0  0
 33 74  1  0  0  0  0
 33 79  2  0  0  0  0
 34 48  1  0  0  0  0
 34 75  1  0  0  0  0
 34 80  2  0  0  0  0
 35 64  1  0  0  0  0
 35 71  1  0  0  0  0
 35 81  2  0  0  0  0
 36 65  1  0  0  0  0
 36 76  1  0  0  0  0
 36 82  2  0  0  0  0
 37 72  1  0  0  0  0
 37 77  1  0  0  0  0
 37 83  2  0  0  0  0
 38 41  1  0  0  0  0
 39 48  1  0  0  0  0
 40 71  1  0  0  0  0
 41 43  1  0  0  0  0
 42 44  1  0  0  0  0
 42 45  1  0  0  0  0
 43 47  1  0  0  0  0
 44 49  1  0  0  0  0
 45 72  1  0  0  0  0
 46 49  1  0  0  0  0
 46 72  1  0  0  0  0
 47 75  1  0  0  0  0
 48 71  1  0  0  0  0
 49 70  1  0  0  0  0
 51 65  1  0  0  0  0
 52 66  1  0  0  0  0
 53 66  1  0  0  0  0
 54 66  1  0  0  0  0
 55 67  1  0  0  0  0
 56 67  1  0  0  0  0
 57 67  1  0  0  0  0
 58 78  1  0  0  0  0
 59 61  1  0  0  0  0
 60 62  1  0  0  0  0
 61 63  1  0  0  0  0
 62 77  1  0  0  0  0
 63 85  1  0  0  0  0
 64 67  1  0  0  0  0
 64 76  1  0  0  0  0
 65 78  1  0  0  0  0
 68 70  1  0  0  0  0
M  CHG  1  78   1
M  ISO  4  37 100  63 101  77 100  85 101
M  END
> <Batch ID>
0077

> <Smiles>
CNC(C)C(=O)NC(C(=O)N1Cc2cc([101O:1][101CH2:1]CCc3cc(CC[100NH:0][100C:0](=O)N4CCCC(n5nc(-c6ccc(Oc7ccc(F)cc7F)cc6)c(C(N)=O)c5N)C4)nc(C(C)(C)C)c3C)ccc2CC1C(=O)NC1CCCc2ccccc21)C(C)(C)C

> <Shape>
0.220

> <Color>
0.069

> <Negative vol penalty>
0.000

$$$$

  -OEChem-04052318373D

 85 93  0     1  0  0  0  0  0999 V2000
  -20.5730  -10.4740   19.8192 C   0  0  0  0  0  0  0  0  0  0  0  0
  -20.4773  -11.6673   19.1106 C   0  0  0  0  0  0  0  0  0  0  0  0
  -28.4457  -28.3463   20.9256 C   0  0  0  0  0  0  0  0  0  0  0  0
  -27.0809  -27.0495   19.4114 C   0  0  0  0  0  0  0  0  0  0  0  0
  -21.3846  -10.3994   20.9505 C   0  0  0  0  0  0  0  0  0  0  0  0
  -21.1923  -12.7873   19.5336 C   0  0  0  0  0  0  0  0  0  0  0  0
  -24.5306  -18.5791   16.9592 C   0  0  0  0  0  0  0  0  0  0  0  0
  -29.5365  -27.5225   20.6481 C   0  0  0  0  0  0  0  0  0  0  0  0
  -28.1717  -26.2257   19.1338 C   0  0  0  0  0  0  0  0  0  0  0  0
  -24.5656  -19.9633   17.1218 C   0  0  0  0  0  0  0  0  0  0  0  0
  -29.7823  -23.6437   20.6070 C   0  0  0  0  0  0  0  0  0  0  0  0
  -29.5661  -22.2658   20.5904 C   0  0  0  0  0  0  0  0  0  0  0  0
  -25.9978  -19.6952   19.0444 C   0  0  0  0  0  0  0  0  0  0  0  0
  -21.6063  -25.4206   21.0783 C   0  0  0  0  0  0  0  0  0  0  0  0
  -30.2834  -22.1812   18.2848 C   0  0  0  0  0  0  0  0  0  0  0  0
  -27.2178  -28.1098   20.3073 C   0  0  0  0  0  0  0  0  0  0  0  0
  -25.7207  -30.1382   19.9181 C   0  0  0  0  0  0  0  0  0  0  0  0
  -22.1174  -11.5163   21.3819 C   0  0  0  0  0  0  0  0  0  0  0  0
  -25.2212  -17.7406   17.8460 C   0  0  0  0  0  0  0  0  0  0  0  0
  -22.0134  -12.7280   20.6724 C   0  0  0  0  0  0  0  0  0  0  0  0
  -25.9720  -18.3008   18.8893 C   0  0  0  0  0  0  0  0  0  0  0  0
  -22.5451  -24.4129   20.9445 C   0  0  0  0  0  0  0  0  0  0  0  0
  -29.3995  -26.4622   19.7522 C   0  0  0  0  0  0  0  0  0  0  0  0
  -25.2969  -20.5215   18.1662 C   0  0  0  0  0  0  0  0  0  0  0  0
  -30.2489  -24.2904   19.4625 C   0  0  0  0  0  0  0  0  0  0  0  0
  -29.8167  -21.5345   19.4293 C   0  0  0  0  0  0  0  0  0  0  0  0
  -30.4995  -23.5591   18.3015 C   0  0  0  0  0  0  0  0  0  0  0  0
  -26.0905  -28.9601   20.5941 C   0  0  0  0  0  0  0  0  0  0  0  0
  -21.2440  -25.8008   22.3549 C   0  0  0  0  0  0  0  0  0  0  0  0
  -23.0598  -23.8522   22.0962 C   0  0  0  0  0  0  0  0  0  0  0  0
  -24.5897  -30.5669   20.5689 C   0  0  0  0  0  0  0  0  0  0  0  0
  -26.3437  -30.7871   18.8016 C   0  0  0  0  0  0  0  0  0  0  0  0
  -24.3785  -15.4571   19.8903 C   0  0  0  0  0  0  0  0  0  0  0  0
  -27.5866  -15.0909   20.2001 C   0  0  0  0  0  0  0  0  0  0  0  0
  -20.4854  -27.6352   23.8357 C   0  0  0  0  0  0  0  0  0  0  0  0
  -30.6988  -16.4653   19.9317 C   0  0  0  0  0  0  0  0  0  0  0  0
  -22.9445  -11.4009   22.6378 C   0  0  0  0  0  0  0  0  0  0  0  0
  -25.1952  -16.2507   17.6410 C   0  0  0  0  0  0  0  0  0  0  0  0
  -26.7475  -17.4453   19.8564 C   0  0  0  0  0  0  0  0  0  0  0  0
  -23.9614  -12.5273   22.8031 C   0  0  0  0  0  0  0  0  0  0  0  0
  -22.4490  -30.4601   24.8379 C   0  0  0  0  0  0  0  0  0  0  0  0
  -23.3106  -13.8789   22.5268 C   0  0  0  0  0  0  0  0  0  0  0  0
  -23.5875  -30.4856   23.8189 C   0  0  0  0  0  0  0  0  0  0  0  0
  -22.0291  -29.0317   25.1703 C   0  0  0  0  0  0  0  0  0  0  0  0
  -22.7947  -28.2382   22.9554 C   0  0  0  0  0  0  0  0  0  0  0  0
  -22.7929  -13.9576   21.0855 C   0  0  1  0  0  0  0  0  0  0  0  0
  -25.5171  -15.4673   18.9099 C   0  0  1  0  0  0  0  0  0  0  0  0
  -23.2288  -29.6631   22.5686 C   0  0  2  0  0  0  0  0  0  0  0  0
  -24.0745  -22.7612   22.0300 C   0  0  0  0  0  0  0  0  0  0  0  0
  -33.1248  -15.9336   20.2913 C   0  0  0  0  0  0  0  0  0  0  0  0
  -23.9607  -24.9832   16.6711 C   0  0  0  0  0  0  0  0  0  0  0  0
  -18.8006  -26.2952   22.6343 C   0  0  0  0  0  0  0  0  0  0  0  0
  -20.2069  -27.9978   21.4691 C   0  0  0  0  0  0  0  0  0  0  0  0
  -27.2044  -15.3954   23.2120 C   0  0  0  0  0  0  0  0  0  0  0  0
  -29.6657  -15.8082   23.4123 C   0  0  0  0  0  0  0  0  0  0  0  0
  -28.8361  -13.6227   22.5414 C   0  0  0  0  0  0  0  0  0  0  0  0
  -31.3368  -16.8983   17.0743 C   0  0  0  0  0  0  0  0  0  0  0  0
  -22.9766  -23.9599   19.5722 C   0  0  0  0  0  0  0  0  0  0  0  0
  -24.3186  -24.5477   19.1143 C   0  0  0  0  0  0  0  0  0  0  0  0
  -24.5969  -22.6578   17.3903 C   0  0  0  0  0  0  0  0  0  1  0  0
  -28.6493  -15.6859   21.0921 C   0  0  1  0  0  0  0  0  0  0  0  0
  -31.9763  -15.9492   19.2945 C   0  0  2  0  0  0  0  0  0  0  0  0
  -24.7583  -24.1549   17.6865 C   0  0  1  0  0  0  0  0  0  0  0  0
  -20.2366  -26.8810   22.5538 C   0  0  0  0  0  0  0  0  0  0  0  0
  -28.5728  -15.1444   22.5476 C   0  0  0  0  0  0  0  0  0  0  0  0
  -25.2618  -28.6596   21.5975 N   0  0  0  0  0  0  0  0  0  0  0  0
  -21.7641  -25.2345   23.4644 N   0  0  0  0  0  0  0  0  0  0  0  0
  -22.6871  -24.2444   23.3329 N   0  0  0  0  0  0  0  0  0  0  0  0
  -24.3600  -29.6552   21.5569 N   0  0  0  0  0  0  0  0  0  0  0  0
  -26.6856  -15.9938   19.6181 N   0  0  0  0  0  0  0  0  0  0  0  0
  -21.7183  -28.2768   23.9550 N   0  0  0  0  0  0  0  0  0  0  0  0
  -23.7793  -31.6311   20.3868 N   0  0  0  0  0  0  0  0  0  0  0  0
  -27.4987  -30.2122   18.2540 N   0  0  0  0  0  0  0  0  0  0  0  0
  -23.8865  -14.1960   20.1680 N   0  0  0  0  0  0  0  0  0  0  0  0
  -29.9248  -15.4381   20.4286 N   0  0  0  0  0  0  0  0  0  0  0  0
  -32.3655  -16.8110   18.1426 N   0  3  0  0  0  0  0  0  0  0  0  0
  -25.8990  -31.8541   18.3146 O   0  0  0  0  0  0  0  0  0  0  0  0
  -23.9770  -16.5148   20.3611 O   0  0  0  0  0  0  0  0  0  0  0  0
  -27.5614  -13.8708   20.0206 O   0  0  0  0  0  0  0  0  0  0  0  0
  -19.6078  -27.6549   24.7026 O   0  0  0  0  0  0  0  0  0  0  0  0
  -30.4175  -17.6605   19.9867 O   0  0  0  0  0  0  0  0  0  0  0  0
  -30.4638  -25.6583   19.4809 O   0  0  0  0  0  0  0  0  0  0  0  0
  -25.3323  -21.8722   18.3276 O   0  0  0  0  0  0  0  0  0  1  0  0
  -29.6105  -20.2111   19.4139 F   0  0  0  0  0  0  0  0  0  0  0  0
  -30.9490  -24.1746   17.1992 F   0  0  0  0  0  0  0  0  0  0  0  0
  1  2  1  0  0  0  0
  1  5  2  0  0  0  0
  2  6  2  0  0  0  0
  3  8  2  0  0  0  0
  3 16  1  0  0  0  0
  4  9  1  0  0  0  0
  4 16  2  0  0  0  0
  5 18  1  0  0  0  0
  6 20  1  0  0  0  0
  7 10  2  0  0  0  0
  7 19  1  0  0  0  0
  8 23  1  0  0  0  0
  9 23  2  0  0  0  0
 10 24  1  0  0  0  0
 11 12  2  0  0  0  0
 11 25  1  0  0  0  0
 12 26  1  0  0  0  0
 13 21  1  0  0  0  0
 13 24  2  0  0  0  0
 14 22  1  0  0  0  0
 14 29  2  0  0  0  0
 15 26  2  0  0  0  0
 15 27  1  0  0  0  0
 16 28  1  0  0  0  0
 17 28  1  0  0  0  0
 17 31  2  0  0  0  0
 17 32  1  0  0  0  0
 18 20  2  0  0  0  0
 18 37  1  0  0  0  0
 19 21  2  0  0  0  0
 19 38  1  0  0  0  0
 20 46  1  0  0  0  0
 21 39  1  0  0  0  0
 22 30  2  0  0  0  0
 22 58  1  0  0  0  0
 23 82  1  0  0  0  0
 24 83  1  0  0  0  0
 25 27  2  0  0  0  0
 25 82  1  0  0  0  0
 26 84  1  0  0  0  0
 27 85  1  0  0  0  0
 28 66  2  0  0  0  0
 29 64  1  0  0  0  0
 29 67  1  0  0  0  0
 30 49  1  0  0  0  0
 30 68  1  0  0  0  0
 31 69  1  0  0  0  0
 31 72  1  0  0  0  0
 32 73  1  0  0  0  0
 32 77  2  0  0  0  0
 33 47  1  0  0  0  0
 33 74  1  0  0  0  0
 33 78  2  0  0  0  0
 34 61  1  0  0  0  0
 34 70  1  0  0  0  0
 34 79  2  0  0  0  0
 35 64  1  0  0  0  0
 35 71  1  0  0  0  0
 35 80  2  0  0  0  0
 36 62  1  0  0  0  0
 36 75  1  0  0  0  0
 36 81  2  0  0  0  0
 37 40  1  0  0  0  0
 38 47  1  0  0  0  0
 39 70  1  0  0  0  0
 40 42  1  0  0  0  0
 41 43  1  0  0  0  0
 41 44  1  0  0  0  0
 42 46  1  0  0  0  0
 43 48  1  0  0  0  0
 44 71  1  0  0  0  0
 45 48  1  0  0  0  0
 45 71  1  0  0  0  0
 46 74  1  0  0  0  0
 47 70  1  0  0  0  0
 48 69  1  0  0  0  0
 50 62  1  0  0  0  0
 51 63  1  0  0  0  0
 52 64  1  0  0  0  0
 53 64  1  0  0  0  0
 54 65  1  0  0  0  0
 55 65  1  0  0  0  0
 56 65  1  0  0  0  0
 57 76  1  0  0  0  0
 58 59  1  0  0  0  0
 59 63  1  0  0  0  0
 60 63  1  0  0  0  0
 60 83  1  0  0  0  0
 61 65  1  0  0  0  0
 61 75  1  0  0  0  0
 62 76  1  0  0  0  0
 66 69  1  0  0  0  0
 67 68  2  0  0  0  0
M  CHG  1  76   1
M  ISO  4  35 100  60 101  64 100  83 101
M  END
> <Batch ID>
0077

> <Smiles>
CNC(C)C(=O)NC(C(=O)N1Cc2cc([101O:1][101CH2:1]C(C)CCc3cc([100C:0](C)(C)[100C:0](=O)N4CCCC(n5nc(-c6ccc(Oc7ccc(F)cc7F)cc6)c(C(N)=O)c5N)C4)nnc3C)ccc2CC1C(=O)NC1CCCc2ccccc21)C(C)(C)C

> <Shape>
0.246

> <Color>
0.046

> <Negative vol penalty>
0.000

$$$$

  -OEChem-04052318373D

 80 88  0     1  0  0  0  0  0999 V2000
  -21.5008  -23.6236   16.1739 C   0  0  0  0  0  0  0  0  0  0  0  0
  -21.7256  -24.7663   16.9332 C   0  0  0  0  0  0  0  0  0  0  0  0
  -27.2836  -14.7738   21.9959 C   0  0  0  0  0  0  0  0  0  0  0  0
  -26.1301  -15.2690   19.9316 C   0  0  0  0  0  0  0  0  0  0  0  0
  -22.4606  -22.6143   16.1396 C   0  0  0  0  0  0  0  0  0  0  0  0
  -22.9152  -24.9054   17.6490 C   0  0  0  0  0  0  0  0  0  0  0  0
  -23.7165  -29.2410   19.8317 C   0  0  0  0  0  0  0  0  0  0  0  0
  -26.9458  -13.4271   21.8615 C   0  0  0  0  0  0  0  0  0  0  0  0
  -25.7924  -13.9223   19.7972 C   0  0  0  0  0  0  0  0  0  0  0  0
  -23.0125  -29.6581   20.9605 C   0  0  0  0  0  0  0  0  0  0  0  0
  -23.5094  -11.7861   21.0837 C   0  0  0  0  0  0  0  0  0  0  0  0
  -22.1973  -11.4799   20.7226 C   0  0  0  0  0  0  0  0  0  0  0  0
  -24.9246  -29.1403   22.3369 C   0  0  0  0  0  0  0  0  0  0  0  0
  -23.0038  -10.3679   18.7351 C   0  0  0  0  0  0  0  0  0  0  0  0
  -22.2591  -26.4635   23.7441 C   0  0  0  0  0  0  0  0  0  0  0  0
  -20.2021  -26.3757   24.5300 C   0  0  0  0  0  0  0  0  0  0  0  0
  -26.8756  -15.6947   21.0309 C   0  0  0  0  0  0  0  0  0  0  0  0
  -28.3771  -17.7268   20.6784 C   0  0  0  0  0  0  0  0  0  0  0  0
  -23.6569  -22.7363   16.8655 C   0  0  0  0  0  0  0  0  0  0  0  0
  -25.0283  -28.7594   19.9487 C   0  0  0  0  0  0  0  0  0  0  0  0
  -23.9066  -23.9084   17.6080 C   0  0  0  0  0  0  0  0  0  0  0  0
  -25.6440  -28.7202   21.2078 C   0  0  0  0  0  0  0  0  0  0  0  0
  -26.2003  -13.0014   20.7622 C   0  0  0  0  0  0  0  0  0  0  0  0
  -23.6155  -29.6051   22.2137 C   0  0  0  0  0  0  0  0  0  0  0  0
  -24.5687  -11.3833   20.2704 C   0  0  0  0  0  0  0  0  0  0  0  0
  -21.9445  -10.7708   19.5483 C   0  0  0  0  0  0  0  0  0  0  0  0
  -24.3159  -10.6742   19.0961 C   0  0  0  0  0  0  0  0  0  0  0  0
  -27.2237  -17.0861   21.1694 C   0  0  0  0  0  0  0  0  0  0  0  0
  -21.5786  -25.3750   23.2516 C   0  0  0  0  0  0  0  0  0  0  0  0
  -28.2359  -19.0356   21.0703 C   0  0  0  0  0  0  0  0  0  0  0  0
  -29.4776  -17.1871   19.9346 C   0  0  0  0  0  0  0  0  0  0  0  0
  -26.4644  -25.9908   19.3354 C   0  0  0  0  0  0  0  0  0  0  0  0
  -29.1430  -27.6601   20.0844 C   0  0  0  0  0  0  0  0  0  0  0  0
  -30.5454  -30.3032   21.7258 C   0  0  0  0  0  0  0  0  0  0  0  0
  -23.4567  -22.2940   22.2521 C   0  0  0  0  0  0  0  0  0  0  0  0
  -24.6648  -21.6169   16.7865 C   0  0  0  0  0  0  0  0  0  0  0  0
  -25.7835  -28.3384   18.7179 C   0  0  0  0  0  0  0  0  0  0  0  0
  -27.0574  -28.2305   21.3845 C   0  0  0  0  0  0  0  0  0  0  0  0
  -25.6854  -21.6548   17.9193 C   0  0  0  0  0  0  0  0  0  0  0  0
  -26.2435  -21.7266   24.4903 C   0  0  0  0  0  0  0  0  0  0  0  0
  -26.2689  -23.0540   18.0466 C   0  0  0  0  0  0  0  0  0  0  0  0
  -26.9207  -20.5224   23.8335 C   0  0  0  0  0  0  0  0  0  0  0  0
  -24.7242  -21.6320   24.3846 C   0  0  0  0  0  0  0  0  0  0  0  0
  -24.8874  -20.2720   22.3358 C   0  0  0  0  0  0  0  0  0  0  0  0
  -25.1798  -24.0681   18.4190 C   0  0  1  0  0  0  0  0  0  0  0  0
  -26.9338  -27.3830   19.0204 C   0  0  1  0  0  0  0  0  0  0  0  0
  -26.4253  -20.3195   22.3893 C   0  0  2  0  0  0  0  0  0  0  0  0
  -32.7624  -31.3862   22.1833 C   0  0  0  0  0  0  0  0  0  0  0  0
  -29.7972  -25.4641   22.0993 C   0  0  0  0  0  0  0  0  0  0  0  0
  -31.4427  -27.0244   23.1604 C   0  0  0  0  0  0  0  0  0  0  0  0
  -31.7597  -26.3008   20.7942 C   0  0  0  0  0  0  0  0  0  0  0  0
  -29.7153  -32.8238   20.4158 C   0  0  0  0  0  0  0  0  0  0  0  0
  -22.0616  -24.3450   22.3194 C   0  0  0  0  0  0  0  0  0  0  0  0
  -21.0255  -29.6116   24.7203 C   0  0  0  0  0  0  0  0  0  0  0  0
  -21.6142  -28.3509   25.3575 C   0  0  0  0  0  0  0  0  0  0  0  0
  -21.5123  -29.8523   23.2961 C   0  0  0  0  0  0  0  0  0  1  0  0
  -29.9122  -27.9335   21.3543 C   0  0  1  0  0  0  0  0  0  0  0  0
  -31.5434  -31.3544   21.2747 C   0  0  2  0  0  0  0  0  0  0  0  0
  -30.7006  -26.6882   21.8493 C   0  0  0  0  0  0  0  0  0  0  0  0
  -20.2986  -25.3262   23.7444 N   0  0  0  0  0  0  0  0  0  0  0  0
  -26.4100  -17.9192   21.8234 N   0  0  0  0  0  0  0  0  0  0  0  0
  -21.3643  -27.0951   24.5611 N   0  0  0  0  0  0  0  0  0  0  0  0
  -27.0529  -19.0968   21.7462 N   0  0  0  0  0  0  0  0  0  0  0  0
  -27.7522  -27.8239   20.1518 N   0  0  0  0  0  0  0  0  0  0  0  0
  -24.3175  -21.4585   22.9830 N   0  0  0  0  0  0  0  0  0  0  0  0
  -29.0097  -20.1285   20.8993 N   0  0  0  0  0  0  0  0  0  0  0  0
  -29.4634  -15.8223   19.6159 N   0  0  0  0  0  0  0  0  0  0  0  0
  -25.7265  -25.4038   18.3253 N   0  0  0  0  0  0  0  0  0  0  0  0
  -30.7459  -29.0997   21.0834 N   0  0  0  0  0  0  0  0  0  0  0  0
  -22.9546  -23.3919   22.9401 N   0  0  0  0  0  0  0  0  0  0  0  0
  -30.9136  -32.7050   21.2858 N   0  3  0  0  0  0  0  0  0  0  0  0
  -30.4527  -17.8908   19.5776 O   0  0  0  0  0  0  0  0  0  0  0  0
  -26.7518  -25.4860   20.4144 O   0  0  0  0  0  0  0  0  0  0  0  0
  -29.7544  -27.3209   19.0682 O   0  0  0  0  0  0  0  0  0  0  0  0
  -29.6774  -30.5262   22.5668 O   0  0  0  0  0  0  0  0  0  0  0  0
  -23.1613  -22.0805   21.0713 O   0  0  0  0  0  0  0  0  0  0  0  0
  -25.8707  -11.6874   20.6307 O   0  0  0  0  0  0  0  0  0  0  0  0
  -22.9303  -30.0110   23.3172 O   0  0  0  0  0  0  0  0  0  1  0  0
  -20.6846  -10.4755   19.2025 F   0  0  0  0  0  0  0  0  0  0  0  0
  -25.3295  -10.2835   18.3114 F   0  0  0  0  0  0  0  0  0  0  0  0
  1  2  1  0  0  0  0
  1  5  2  0  0  0  0
  2  6  2  0  0  0  0
  3  8  2  0  0  0  0
  3 17  1  0  0  0  0
  4  9  1  0  0  0  0
  4 17  2  0  0  0  0
  5 19  1  0  0  0  0
  6 21  1  0  0  0  0
  7 10  2  0  0  0  0
  7 20  1  0  0  0  0
  8 23  1  0  0  0  0
  9 23  2  0  0  0  0
 10 24  1  0  0  0  0
 11 12  2  0  0  0  0
 11 25  1  0  0  0  0
 12 26  1  0  0  0  0
 13 22  1  0  0  0  0
 13 24  2  0  0  0  0
 14 26  2  0  0  0  0
 14 27  1  0  0  0  0
 15 29  2  0  0  0  0
 15 62  1  0  0  0  0
 16 60  2  0  0  0  0
 16 62  1  0  0  0  0
 17 28  1  0  0  0  0
 18 28  1  0  0  0  0
 18 30  2  0  0  0  0
 18 31  1  0  0  0  0
 19 21  2  0  0  0  0
 19 36  1  0  0  0  0
 20 22  2  0  0  0  0
 20 37  1  0  0  0  0
 21 45  1  0  0  0  0
 22 38  1  0  0  0  0
 23 77  1  0  0  0  0
 24 78  1  0  0  0  0
 25 27  2  0  0  0  0
 25 77  1  0  0  0  0
 26 79  1  0  0  0  0
 27 80  1  0  0  0  0
 28 61  2  0  0  0  0
 29 53  1  0  0  0  0
 29 60  1  0  0  0  0
 30 63  1  0  0  0  0
 30 66  1  0  0  0  0
 31 67  1  0  0  0  0
 31 72  2  0  0  0  0
 32 46  1  0  0  0  0
 32 68  1  0  0  0  0
 32 73  2  0  0  0  0
 33 57  1  0  0  0  0
 33 64  1  0  0  0  0
 33 74  2  0  0  0  0
 34 58  1  0  0  0  0
 34 69  1  0  0  0  0
 34 75  2  0  0  0  0
 35 65  1  0  0  0  0
 35 70  1  0  0  0  0
 35 76  2  0  0  0  0
 36 39  1  0  0  0  0
 37 46  1  0  0  0  0
 38 64  1  0  0  0  0
 39 41  1  0  0  0  0
 40 42  1  0  0  0  0
 40 43  1  0  0  0  0
 41 45  1  0  0  0  0
 42 47  1  0  0  0  0
 43 65  1  0  0  0  0
 44 47  1  0  0  0  0
 44 65  1  0  0  0  0
 45 68  1  0  0  0  0
 46 64  1  0  0  0  0
 47 63  1  0  0  0  0
 48 58  1  0  0  0  0
 49 59  1  0  0  0  0
 50 59  1  0  0  0  0
 51 59  1  0  0  0  0
 52 71  1  0  0  0  0
 53 70  1  0  0  0  0
 54 55  1  0  0  0  0
 54 56  1  0  0  0  0
 55 62  1  0  0  0  0
 56 78  1  0  0  0  0
 57 59  1  0  0  0  0
 57 69  1  0  0  0  0
 58 71  1  0  0  0  0
 61 63  1  0  0  0  0
M  CHG  1  71   1
M  ISO  4  35 100  56 101  70 100  78 101
M  END
> <Batch ID>
0077

> <Smiles>
CNC(C)C(=O)NC(C(=O)N1Cc2cc([101O:1][101CH2:1]CCn3cnc(C[100NH:0][100C:0](=O)N4CCCC(n5nc(-c6ccc(Oc7ccc(F)cc7F)cc6)c(C(N)=O)c5N)C4)c3)ccc2CC1C(=O)NC1CCCc2ccccc21)C(C)(C)C

> <Shape>
0.186

> <Color>
0.070

> <Negative vol penalty>
0.000

$$$$

  -OEChem-04052318373D

 88 96  0     1  0  0  0  0  0999 V2000
  -17.7863  -12.6630   23.9242 C   0  0  0  0  0  0  0  0  0  0  0  0
  -18.2519  -13.8219   23.3113 C   0  0  0  0  0  0  0  0  0  0  0  0
  -22.5730  -28.3156   20.5788 C   0  0  0  0  0  0  0  0  0  0  0  0
  -23.5617  -26.7745   22.1551 C   0  0  0  0  0  0  0  0  0  0  0  0
  -18.6906  -11.7533   24.4707 C   0  0  0  0  0  0  0  0  0  0  0  0
  -19.6221  -14.0722   23.2454 C   0  0  0  0  0  0  0  0  0  0  0  0
  -22.6413  -16.8588   18.7040 C   0  0  0  0  0  0  0  0  0  0  0  0
  -30.6089  -20.7535   19.7495 C   0  0  0  0  0  0  0  0  0  0  0  0
  -21.3005  -27.9003   20.9709 C   0  0  0  0  0  0  0  0  0  0  0  0
  -22.2892  -26.3591   22.5472 C   0  0  0  0  0  0  0  0  0  0  0  0
  -23.0936  -18.1677   18.5429 C   0  0  0  0  0  0  0  0  0  0  0  0
  -17.7864  -27.5047   21.8131 C   0  0  0  0  0  0  0  0  0  0  0  0
  -16.8239  -28.4887   22.0388 C   0  0  0  0  0  0  0  0  0  0  0  0
  -30.7033  -22.0346   20.2817 C   0  0  0  0  0  0  0  0  0  0  0  0
  -25.2719  -17.5069   19.3413 C   0  0  0  0  0  0  0  0  0  0  0  0
  -18.2127  -29.4511   23.7657 C   0  0  0  0  0  0  0  0  0  0  0  0
  -23.7037  -27.7527   21.1709 C   0  0  0  0  0  0  0  0  0  0  0  0
  -25.7777  -29.2308   21.3165 C   0  0  0  0  0  0  0  0  0  0  0  0
  -20.0730  -11.9879   24.4029 C   0  0  0  0  0  0  0  0  0  0  0  0
  -23.4993  -15.8648   19.1961 C   0  0  0  0  0  0  0  0  0  0  0  0
  -20.5457  -13.1654   23.7927 C   0  0  0  0  0  0  0  0  0  0  0  0
  -24.8288  -16.1856   19.5053 C   0  0  0  0  0  0  0  0  0  0  0  0
  -29.7149  -20.5006   18.7150 C   0  0  0  0  0  0  0  0  0  0  0  0
  -21.1585  -26.9220   21.9550 C   0  0  0  0  0  0  0  0  0  0  0  0
  -24.4082  -18.4926   18.8643 C   0  0  0  0  0  0  0  0  0  0  0  0
  -18.9620  -27.4938   22.5638 C   0  0  0  0  0  0  0  0  0  0  0  0
  -17.0370  -29.4619   23.0150 C   0  0  0  0  0  0  0  0  0  0  0  0
  -19.1752  -28.4670   23.5400 C   0  0  0  0  0  0  0  0  0  0  0  0
  -25.0185  -28.1809   20.7659 C   0  0  0  0  0  0  0  0  0  0  0  0
  -29.8882  -23.0201   19.7484 C   0  0  0  0  0  0  0  0  0  0  0  0
  -28.9440  -21.5547   18.2521 C   0  0  0  0  0  0  0  0  0  0  0  0
  -26.9421  -29.2313   20.5879 C   0  0  0  0  0  0  0  0  0  0  0  0
  -25.4590  -30.1255   22.3905 C   0  0  0  0  0  0  0  0  0  0  0  0
  -23.5209  -13.9896   21.7626 C   0  0  0  0  0  0  0  0  0  0  0  0
  -26.0857  -12.6591   20.2880 C   0  0  0  0  0  0  0  0  0  0  0  0
  -30.5513  -25.4583   18.0413 C   0  0  0  0  0  0  0  0  0  0  0  0
  -28.6471  -13.0033   18.0592 C   0  0  0  0  0  0  0  0  0  0  0  0
  -21.0098  -10.9985   25.0496 C   0  0  0  0  0  0  0  0  0  0  0  0
  -23.0037  -14.4518   19.3388 C   0  0  0  0  0  0  0  0  0  0  0  0
  -25.7956  -15.1508   20.0179 C   0  0  0  0  0  0  0  0  0  0  0  0
  -22.4622  -11.1557   24.6068 C   0  0  0  0  0  0  0  0  0  0  0  0
  -28.2953  -27.5134   16.1632 C   0  0  0  0  0  0  0  0  0  0  0  0
  -22.8755  -12.6235   24.6434 C   0  0  0  0  0  0  0  0  0  0  0  0
  -27.2755  -27.9717   17.2049 C   0  0  0  0  0  0  0  0  0  0  0  0
  -28.7766  -26.0926   16.4405 C   0  0  0  0  0  0  0  0  0  0  0  0
  -28.3146  -26.3544   18.8570 C   0  0  0  0  0  0  0  0  0  0  0  0
  -22.0257  -13.4602   23.6795 C   0  0  1  0  0  0  0  0  0  0  0  0
  -23.8178  -13.6308   20.3340 C   0  0  1  0  0  0  0  0  0  0  0  0
  -27.8254  -27.7959   18.6315 C   0  0  2  0  0  0  0  0  0  0  0  0
  -29.6084  -19.1299   18.1418 C   0  0  0  0  0  0  0  0  0  0  0  0
  -30.6002  -11.7570   17.0952 C   0  0  0  0  0  0  0  0  0  0  0  0
  -30.3679  -24.4343   21.8223 C   0  0  0  0  0  0  0  0  0  0  0  0
  -28.5433  -25.0984   20.3210 C   0  0  0  0  0  0  0  0  0  0  0  0
  -32.4243  -24.7831   19.4551 C   0  0  0  0  0  0  0  0  0  0  0  0
  -31.0876  -26.8077   19.9971 C   0  0  0  0  0  0  0  0  0  0  0  0
  -27.6503  -13.1217   22.8663 C   0  0  0  0  0  0  0  0  0  0  0  0
  -29.7606  -12.7601   21.5685 C   0  0  0  0  0  0  0  0  0  0  0  0
  -28.0866  -10.9207   21.7619 C   0  0  0  0  0  0  0  0  0  0  0  0
  -25.9446  -22.4486   18.2520 C   0  0  0  0  0  0  0  0  0  0  0  0
  -25.6460  -21.0431   16.2165 C   0  0  0  0  0  0  0  0  0  0  0  0
  -27.5460  -13.1662   15.3170 C   0  0  0  0  0  0  0  0  0  0  0  0
  -27.9578  -21.3400   17.1277 C   0  0  0  0  0  0  0  0  0  0  0  0
  -26.2356  -19.9440   18.4061 C   0  0  0  0  0  0  0  0  0  1  0  0
  -27.5736  -12.9142   20.2940 C   0  0  1  0  0  0  0  0  0  0  0  0
  -29.1293  -12.1072   16.9327 C   0  0  2  0  0  0  0  0  0  0  0  0
  -29.9647  -24.4068   20.2945 C   0  0  0  0  0  0  0  0  0  0  0  0
  -30.9908  -25.3561   19.4802 C   0  0  0  0  0  0  0  0  0  0  0  0
  -28.2493  -12.4493   21.6149 C   0  0  0  0  0  0  0  0  0  0  0  0
  -26.4587  -21.1923   17.5227 C   0  0  0  0  0  0  0  0  0  0  0  0
  -25.6475  -27.5597   19.7647 N   0  0  0  0  0  0  0  0  0  0  0  0
  -29.0078  -22.8124   18.7437 N   0  0  0  0  0  0  0  0  0  0  0  0
  -26.8143  -28.2212   19.6804 N   0  0  0  0  0  0  0  0  0  0  0  0
  -25.2618  -13.7848   20.1463 N   0  0  0  0  0  0  0  0  0  0  0  0
  -29.2704  -25.9612   17.8124 N   0  0  0  0  0  0  0  0  0  0  0  0
  -28.0524  -29.9972   20.6414 N   0  0  0  0  0  0  0  0  0  0  0  0
  -24.2200  -29.9865   23.0306 N   0  0  0  0  0  0  0  0  0  0  0  0
  -22.4764  -13.2746   22.3169 N   0  0  0  0  0  0  0  0  0  0  0  0
  -28.1024  -12.2736   19.0946 N   0  0  0  0  0  0  0  0  0  0  0  0
  -28.9502  -12.7861   15.6181 N   0  3  0  0  0  0  0  0  0  0  0  0
  -26.2428  -31.0323   22.7605 O   0  0  0  0  0  0  0  0  0  0  0  0
  -24.1909  -14.8504   22.3210 O   0  0  0  0  0  0  0  0  0  0  0  0
  -25.6699  -11.5030   20.3977 O   0  0  0  0  0  0  0  0  0  0  0  0
  -31.3258  -25.1041   17.1486 O   0  0  0  0  0  0  0  0  0  0  0  0
  -28.7473  -14.2277   18.0258 O   0  0  0  0  0  0  0  0  0  0  0  0
  -19.9170  -26.5167   22.3380 O   0  0  0  0  0  0  0  0  0  0  0  0
  -24.8520  -19.7696   18.7087 O   0  0  0  0  0  0  0  0  0  1  0  0
  -16.1133  -30.4077   23.2305 F   0  0  0  0  0  0  0  0  0  0  0  0
  -20.3031  -28.4624   24.2635 F   0  0  0  0  0  0  0  0  0  0  0  0
  1  2  1  0  0  0  0
  1  5  2  0  0  0  0
  2  6  2  0  0  0  0
  3  9  2  0  0  0  0
  3 17  1  0  0  0  0
  4 10  1  0  0  0  0
  4 17  2  0  0  0  0
  5 19  1  0  0  0  0
  6 21  1  0  0  0  0
  7 11  2  0  0  0  0
  7 20  1  0  0  0  0
  8 14  2  0  0  0  0
  8 23  1  0  0  0  0
  9 24  1  0  0  0  0
 10 24  2  0  0  0  0
 11 25  1  0  0  0  0
 12 13  2  0  0  0  0
 12 26  1  0  0  0  0
 13 27  1  0  0  0  0
 14 30  1  0  0  0  0
 15 22  1  0  0  0  0
 15 25  2  0  0  0  0
 16 27  2  0  0  0  0
 16 28  1  0  0  0  0
 17 29  1  0  0  0  0
 18 29  1  0  0  0  0
 18 32  2  0  0  0  0
 18 33  1  0  0  0  0
 19 21  2  0  0  0  0
 19 38  1  0  0  0  0
 20 22  2  0  0  0  0
 20 39  1  0  0  0  0
 21 47  1  0  0  0  0
 22 40  1  0  0  0  0
 23 31  2  0  0  0  0
 23 50  1  0  0  0  0
 24 85  1  0  0  0  0
 25 86  1  0  0  0  0
 26 28  2  0  0  0  0
 26 85  1  0  0  0  0
 27 87  1  0  0  0  0
 28 88  1  0  0  0  0
 29 70  2  0  0  0  0
 30 66  1  0  0  0  0
 30 71  2  0  0  0  0
 31 62  1  0  0  0  0
 31 71  1  0  0  0  0
 32 72  1  0  0  0  0
 32 75  1  0  0  0  0
 33 76  1  0  0  0  0
 33 80  2  0  0  0  0
 34 48  1  0  0  0  0
 34 77  1  0  0  0  0
 34 81  2  0  0  0  0
 35 64  1  0  0  0  0
 35 73  1  0  0  0  0
 35 82  2  0  0  0  0
 36 67  1  0  0  0  0
 36 74  1  0  0  0  0
 36 83  2  0  0  0  0
 37 65  1  0  0  0  0
 37 78  1  0  0  0  0
 37 84  2  0  0  0  0
 38 41  1  0  0  0  0
 39 48  1  0  0  0  0
 40 73  1  0  0  0  0
 41 43  1  0  0  0  0
 42 44  1  0  0  0  0
 42 45  1  0  0  0  0
 43 47  1  0  0  0  0
 44 49  1  0  0  0  0
 45 74  1  0  0  0  0
 46 49  1  0  0  0  0
 46 74  1  0  0  0  0
 47 77  1  0  0  0  0
 48 73  1  0  0  0  0
 49 72  1  0  0  0  0
 51 65  1  0  0  0  0
 52 66  1  0  0  0  0
 53 66  1  0  0  0  0
 54 67  1  0  0  0  0
 55 67  1  0  0  0  0
 56 68  1  0  0  0  0
 57 68  1  0  0  0  0
 58 68  1  0  0  0  0
 59 69  1  0  0  0  0
 60 69  1  0  0  0  0
 61 79  1  0  0  0  0
 62 69  1  0  0  0  0
 63 69  1  0  0  0  0
 63 86  1  0  0  0  0
 64 68  1  0  0  0  0
 64 78  1  0  0  0  0
 65 79  1  0  0  0  0
 66 67  1  0  0  0  0
 70 72  1  0  0  0  0
M  CHG  1  79   1
M  ISO  4  36 100  63 101  67 100  86 101
M  END
> <Batch ID>
0077

> <Smiles>
CNC(C)C(=O)NC(C(=O)N1Cc2cc([101O:1][101CH2:1]C(C)(C)Cc3nc(C(C)(C)[100C:0](C)(C)[100C:0](=O)N4CCCC(n5nc(-c6ccc(Oc7ccc(F)cc7F)cc6)c(C(N)=O)c5N)C4)ccc3C)ccc2CC1C(=O)NC1CCCc2ccccc21)C(C)(C)C

> <Shape>
0.281

> <Color>
0.069

> <Negative vol penalty>
0.000

$$$$

  -OEChem-04052318373D

 83 91  0     1  0  0  0  0  0999 V2000
  -28.8543  -11.3393   18.7473 C   0  0  0  0  0  0  0  0  0  0  0  0
  -28.8929  -12.7256   18.6365 C   0  0  0  0  0  0  0  0  0  0  0  0
  -20.4750  -25.8050   22.5976 C   0  0  0  0  0  0  0  0  0  0  0  0
  -20.8941  -26.3827   20.2895 C   0  0  0  0  0  0  0  0  0  0  0  0
  -27.7475  -10.7179   19.3241 C   0  0  0  0  0  0  0  0  0  0  0  0
  -27.8242  -13.4911   19.1016 C   0  0  0  0  0  0  0  0  0  0  0  0
  -29.3371  -17.5250   21.7632 C   0  0  0  0  0  0  0  0  0  0  0  0
  -19.3531  -26.6337   22.6014 C   0  0  0  0  0  0  0  0  0  0  0  0
  -19.7722  -27.2114   20.2932 C   0  0  0  0  0  0  0  0  0  0  0  0
  -29.8023  -18.6247   21.0435 C   0  0  0  0  0  0  0  0  0  0  0  0
  -18.7010  -29.9414   22.8434 C   0  0  0  0  0  0  0  0  0  0  0  0
  -18.5258  -30.7888   23.9374 C   0  0  0  0  0  0  0  0  0  0  0  0
  -27.6635  -19.7048   21.3232 C   0  0  0  0  0  0  0  0  0  0  0  0
  -28.8281  -23.0889   17.7786 C   0  0  0  0  0  0  0  0  0  0  0  0
  -16.4105  -29.7265   24.4214 C   0  0  0  0  0  0  0  0  0  0  0  0
  -21.2456  -25.6795   21.4417 C   0  0  0  0  0  0  0  0  0  0  0  0
  -22.4517  -23.4572   21.1036 C   0  0  0  0  0  0  0  0  0  0  0  0
  -26.6689  -11.4767   19.8052 C   0  0  0  0  0  0  0  0  0  0  0  0
  -28.0258  -17.5023   22.2598 C   0  0  0  0  0  0  0  0  0  0  0  0
  -26.7014  -12.8791   19.6841 C   0  0  0  0  0  0  0  0  0  0  0  0
  -27.1849  -18.6047   22.0510 C   0  0  0  0  0  0  0  0  0  0  0  0
  -29.4681  -24.0860   17.0510 C   0  0  0  0  0  0  0  0  0  0  0  0
  -30.4204  -24.8881   17.6700 C   0  0  0  0  0  0  0  0  0  0  0  0
  -19.0016  -27.3369   21.4491 C   0  0  0  0  0  0  0  0  0  0  0  0
  -28.9646  -19.7136   20.8209 C   0  0  0  0  0  0  0  0  0  0  0  0
  -17.7310  -28.9866   22.5383 C   0  0  0  0  0  0  0  0  0  0  0  0
  -17.3806  -30.6813   24.7264 C   0  0  0  0  0  0  0  0  0  0  0  0
  -16.5857  -28.8791   23.3273 C   0  0  0  0  0  0  0  0  0  0  0  0
  -22.4050  -24.8240   21.4374 C   0  0  0  0  0  0  0  0  0  0  0  0
  -29.1733  -22.9357   19.1117 C   0  0  0  0  0  0  0  0  0  0  0  0
  -30.6942  -24.6545   19.0080 C   0  0  0  0  0  0  0  0  0  0  0  0
  -23.7722  -23.1114   21.2559 C   0  0  0  0  0  0  0  0  0  0  0  0
  -21.3958  -22.5787   20.6924 C   0  0  0  0  0  0  0  0  0  0  0  0
  -25.4761  -15.6664   21.7776 C   0  0  0  0  0  0  0  0  0  0  0  0
  -24.2196  -17.4540   24.1750 C   0  0  0  0  0  0  0  0  0  0  0  0
  -24.2561  -20.3787   25.9334 C   0  0  0  0  0  0  0  0  0  0  0  0
  -28.7347  -26.2924   20.9227 C   0  0  0  0  0  0  0  0  0  0  0  0
  -25.4734  -10.7574   20.3779 C   0  0  0  0  0  0  0  0  0  0  0  0
  -27.5478  -16.3198   23.0571 C   0  0  0  0  0  0  0  0  0  0  0  0
  -25.7753  -18.6383   22.5804 C   0  0  0  0  0  0  0  0  0  0  0  0
  -24.5473  -11.6628   21.1859 C   0  0  0  0  0  0  0  0  0  0  0  0
  -27.6873  -24.2854   23.7462 C   0  0  0  0  0  0  0  0  0  0  0  0
  -24.2760  -12.9597   20.4302 C   0  0  0  0  0  0  0  0  0  0  0  0
  -26.2058  -24.0685   23.4323 C   0  0  0  0  0  0  0  0  0  0  0  0
  -28.1378  -25.6870   23.3455 C   0  0  0  0  0  0  0  0  0  0  0  0
  -26.3995  -25.8169   21.6034 C   0  0  0  0  0  0  0  0  0  0  0  0
  -25.5725  -13.7453   20.1993 C   0  0  1  0  0  0  0  0  0  0  0  0
  -26.0282  -16.1860   23.0748 C   0  0  1  0  0  0  0  0  0  0  0  0
  -25.8881  -24.4105   21.9646 C   0  0  2  0  0  0  0  0  0  0  0  0
  -29.1143  -24.2759   15.6130 C   0  0  0  0  0  0  0  0  0  0  0  0
  -31.1249  -25.9639   16.9139 C   0  0  0  0  0  0  0  0  0  0  0  0
  -23.0854  -21.5634   27.8105 C   0  0  0  0  0  0  0  0  0  0  0  0
  -32.1931  -27.5459   21.1142 C   0  0  0  0  0  0  0  0  0  0  0  0
  -21.8682  -18.0551   22.3259 C   0  0  0  0  0  0  0  0  0  0  0  0
  -21.2439  -19.9426   23.8477 C   0  0  0  0  0  0  0  0  0  0  0  0
  -21.2365  -17.5990   24.7023 C   0  0  0  0  0  0  0  0  0  0  0  0
  -26.7359  -20.5252   27.5421 C   0  0  0  0  0  0  0  0  0  0  0  0
  -31.7085  -25.4827   19.7270 C   0  0  0  0  0  0  0  0  0  0  0  0
  -28.5041  -21.8690   19.9276 C   0  0  0  0  0  0  0  0  0  1  0  0
  -23.4435  -18.7467   24.2510 C   0  0  1  0  0  0  0  0  0  0  0  0
  -24.2444  -20.6571   27.4257 C   0  0  2  0  0  0  0  0  0  0  0  0
  -31.1160  -26.7435   20.3910 C   0  0  1  0  0  0  0  0  0  0  0  0
  -21.9739  -18.5847   23.7699 C   0  0  0  0  0  0  0  0  0  0  0  0
  -23.6007  -25.3131   21.7764 N   0  0  0  0  0  0  0  0  0  0  0  0
  -30.0931  -23.6955   19.7474 N   0  0  0  0  0  0  0  0  0  0  0  0
  -24.4112  -24.2478   21.6565 N   0  0  0  0  0  0  0  0  0  0  0  0
  -25.3522  -17.4557   23.3485 N   0  0  0  0  0  0  0  0  0  0  0  0
  -27.8232  -25.9423   21.9327 N   0  0  0  0  0  0  0  0  0  0  0  0
  -24.4374  -21.9492   21.0851 N   0  0  0  0  0  0  0  0  0  0  0  0
  -20.0980  -23.0972   20.5873 N   0  0  0  0  0  0  0  0  0  0  0  0
  -25.9713  -14.4297   21.4105 N   0  0  0  0  0  0  0  0  0  0  0  0
  -23.5739  -19.2210   25.6245 N   0  0  0  0  0  0  0  0  0  0  0  0
  -30.0624  -26.3971   21.3188 N   0  0  0  0  0  0  0  0  0  0  0  0
  -25.5148  -21.3173   27.8394 N   0  3  0  0  0  0  0  0  0  0  0  0
  -21.5944  -21.3657   20.4419 O   0  0  0  0  0  0  0  0  0  0  0  0
  -24.6601  -16.3372   21.1564 O   0  0  0  0  0  0  0  0  0  0  0  0
  -23.8392  -16.4809   24.8307 O   0  0  0  0  0  0  0  0  0  0  0  0
  -24.8115  -21.1166   25.1225 O   0  0  0  0  0  0  0  0  0  0  0  0
  -28.3913  -26.4917   19.7524 O   0  0  0  0  0  0  0  0  0  0  0  0
  -17.9068  -28.1455   21.4523 O   0  0  0  0  0  0  0  0  0  0  0  0
  -29.4159  -20.7880   20.1182 O   0  0  0  0  0  0  0  0  0  1  0  0
  -17.2132  -31.4941   25.7779 F   0  0  0  0  0  0  0  0  0  0  0  0
  -15.6509  -27.9630   23.0399 F   0  0  0  0  0  0  0  0  0  0  0  0
  1  2  1  0  0  0  0
  1  5  2  0  0  0  0
  2  6  2  0  0  0  0
  3  8  2  0  0  0  0
  3 16  1  0  0  0  0
  4  9  1  0  0  0  0
  4 16  2  0  0  0  0
  5 18  1  0  0  0  0
  6 20  1  0  0  0  0
  7 10  2  0  0  0  0
  7 19  1  0  0  0  0
  8 24  1  0  0  0  0
  9 24  2  0  0  0  0
 10 25  1  0  0  0  0
 11 12  2  0  0  0  0
 11 26  1  0  0  0  0
 12 27  1  0  0  0  0
 13 21  1  0  0  0  0
 13 25  2  0  0  0  0
 14 22  2  0  0  0  0
 14 30  1  0  0  0  0
 15 27  2  0  0  0  0
 15 28  1  0  0  0  0
 16 29  1  0  0  0  0
 17 29  1  0  0  0  0
 17 32  2  0  0  0  0
 17 33  1  0  0  0  0
 18 20  2  0  0  0  0
 18 38  1  0  0  0  0
 19 21  2  0  0  0  0
 19 39  1  0  0  0  0
 20 47  1  0  0  0  0
 21 40  1  0  0  0  0
 22 23  1  0  0  0  0
 22 50  1  0  0  0  0
 23 31  2  0  0  0  0
 23 51  1  0  0  0  0
 24 80  1  0  0  0  0
 25 81  1  0  0  0  0
 26 28  2  0  0  0  0
 26 80  1  0  0  0  0
 27 82  1  0  0  0  0
 28 83  1  0  0  0  0
 29 64  2  0  0  0  0
 30 59  1  0  0  0  0
 30 65  2  0  0  0  0
 31 58  1  0  0  0  0
 31 65  1  0  0  0  0
 32 66  1  0  0  0  0
 32 69  1  0  0  0  0
 33 70  1  0  0  0  0
 33 75  2  0  0  0  0
 34 48  1  0  0  0  0
 34 71  1  0  0  0  0
 34 76  2  0  0  0  0
 35 60  1  0  0  0  0
 35 67  1  0  0  0  0
 35 77  2  0  0  0  0
 36 61  1  0  0  0  0
 36 72  1  0  0  0  0
 36 78  2  0  0  0  0
 37 68  1  0  0  0  0
 37 73  1  0  0  0  0
 37 79  2  0  0  0  0
 38 41  1  0  0  0  0
 39 48  1  0  0  0  0
 40 67  1  0  0  0  0
 41 43  1  0  0  0  0
 42 44  1  0  0  0  0
 42 45  1  0  0  0  0
 43 47  1  0  0  0  0
 44 49  1  0  0  0  0
 45 68  1  0  0  0  0
 46 49  1  0  0  0  0
 46 68  1  0  0  0  0
 47 71  1  0  0  0  0
 48 67  1  0  0  0  0
 49 66  1  0  0  0  0
 52 61  1  0  0  0  0
 53 62  1  0  0  0  0
 54 63  1  0  0  0  0
 55 63  1  0  0  0  0
 56 63  1  0  0  0  0
 57 74  1  0  0  0  0
 58 62  1  0  0  0  0
 59 81  1  0  0  0  0
 60 63  1  0  0  0  0
 60 72  1  0  0  0  0
 61 74  1  0  0  0  0
 62 73  1  0  0  0  0
 64 66  1  0  0  0  0
M  CHG  1  74   1
M  ISO  4  37 100  59 101  73 100  81 101
M  END
> <Batch ID>
0077

> <Smiles>
CNC(C)C(=O)NC(C(=O)N1Cc2cc([101O:1][101CH2:1]c3cc(C)c(C)c(CC(C)[100NH:0][100C:0](=O)N4CCCC(n5nc(-c6ccc(Oc7ccc(F)cc7F)cc6)c(C(N)=O)c5N)C4)n3)ccc2CC1C(=O)NC1CCCc2ccccc21)C(C)(C)C

> <Shape>
0.225

> <Color>
0.072

> <Negative vol penalty>
0.000

$$$$

  -OEChem-04052318373D

 82 90  0     1  0  0  0  0  0999 V2000
  -18.7567  -33.4492   23.7009 C   0  0  0  0  0  0  0  0  0  0  0  0
  -19.9704  -33.4541   23.0209 C   0  0  0  0  0  0  0  0  0  0  0  0
  -26.1241  -14.9577   22.7439 C   0  0  0  0  0  0  0  0  0  0  0  0
  -25.5378  -14.5958   20.4282 C   0  0  0  0  0  0  0  0  0  0  0  0
  -18.4032  -32.3525   24.4858 C   0  0  0  0  0  0  0  0  0  0  0  0
  -20.8318  -32.3627   23.1264 C   0  0  0  0  0  0  0  0  0  0  0  0
  -25.6539  -28.6691   19.3289 C   0  0  0  0  0  0  0  0  0  0  0  0
  -25.2303  -13.9575   23.1265 C   0  0  0  0  0  0  0  0  0  0  0  0
  -24.6440  -13.5956   20.8109 C   0  0  0  0  0  0  0  0  0  0  0  0
  -26.9666  -28.2069   19.4135 C   0  0  0  0  0  0  0  0  0  0  0  0
  -24.7900  -10.3514   21.7459 C   0  0  0  0  0  0  0  0  0  0  0  0
  -24.8007   -9.1616   21.0180 C   0  0  0  0  0  0  0  0  0  0  0  0
  -26.2156  -26.3338   20.7350 C   0  0  0  0  0  0  0  0  0  0  0  0
  -22.4857   -9.5069   20.4194 C   0  0  0  0  0  0  0  0  0  0  0  0
  -31.1728  -24.9911   17.9578 C   0  0  0  0  0  0  0  0  0  0  0  0
  -26.2778  -15.2768   21.3947 C   0  0  0  0  0  0  0  0  0  0  0  0
  -28.5625  -16.1565   20.6778 C   0  0  0  0  0  0  0  0  0  0  0  0
  -19.2564  -31.2429   24.5932 C   0  0  0  0  0  0  0  0  0  0  0  0
  -24.6120  -27.9717   19.9570 C   0  0  0  0  0  0  0  0  0  0  0  0
  -20.4900  -31.2507   23.9146 C   0  0  0  0  0  0  0  0  0  0  0  0
  -24.8902  -26.7878   20.6547 C   0  0  0  0  0  0  0  0  0  0  0  0
  -24.4903  -13.2765   22.1600 C   0  0  0  0  0  0  0  0  0  0  0  0
  -27.2480  -27.0407   20.1190 C   0  0  0  0  0  0  0  0  0  0  0  0
  -23.6270  -11.1189   21.8106 C   0  0  0  0  0  0  0  0  0  0  0  0
  -23.6486   -8.7393   20.3547 C   0  0  0  0  0  0  0  0  0  0  0  0
  -22.4749  -10.6967   21.1473 C   0  0  0  0  0  0  0  0  0  0  0  0
  -27.2005  -16.3103   20.9988 C   0  0  0  0  0  0  0  0  0  0  0  0
  -31.2212  -23.6266   17.9060 C   0  0  0  0  0  0  0  0  0  0  0  0
  -28.9884  -17.4256   20.3707 C   0  0  0  0  0  0  0  0  0  0  0  0
  -30.9608  -24.2212   20.0224 C   0  0  0  0  0  0  0  0  0  0  0  0
  -29.3705  -14.9722   20.6587 C   0  0  0  0  0  0  0  0  0  0  0  0
  -22.5254  -28.6502   22.2569 C   0  0  0  0  0  0  0  0  0  0  0  0
  -21.2959  -25.7566   21.4585 C   0  0  0  0  0  0  0  0  0  0  0  0
  -21.7991  -22.6753   20.0803 C   0  0  0  0  0  0  0  0  0  0  0  0
  -28.2344  -22.3250   17.8068 C   0  0  0  0  0  0  0  0  0  0  0  0
  -18.8523  -30.1007   25.4914 C   0  0  0  0  0  0  0  0  0  0  0  0
  -23.1978  -28.4689   19.8338 C   0  0  0  0  0  0  0  0  0  0  0  0
  -23.8047  -25.9913   21.3297 C   0  0  0  0  0  0  0  0  0  0  0  0
  -19.6538  -28.8239   25.2511 C   0  0  0  0  0  0  0  0  0  0  0  0
  -26.7192  -21.9023   21.0009 C   0  0  0  0  0  0  0  0  0  0  0  0
  -21.1438  -29.1378   25.1613 C   0  0  0  0  0  0  0  0  0  0  0  0
  -26.8162  -20.3970   21.2554 C   0  0  0  0  0  0  0  0  0  0  0  0
  -26.4569  -22.2099   19.5283 C   0  0  0  0  0  0  0  0  0  0  0  0
  -27.5085  -20.0894   18.8420 C   0  0  0  0  0  0  0  0  0  0  0  0
  -21.4402  -30.0749   23.9841 C   0  0  1  0  0  0  0  0  0  0  0  0
  -22.2859  -27.9579   20.9450 C   0  0  1  0  0  0  0  0  0  0  0  0
  -27.8281  -19.7314   20.3035 C   0  0  2  0  0  0  0  0  0  0  0  0
  -30.7949  -24.1405   21.4951 C   0  0  0  0  0  0  0  0  0  0  0  0
  -32.1627  -21.4192   17.1544 C   0  0  0  0  0  0  0  0  0  0  0  0
  -20.6171  -20.5134   19.6044 C   0  0  0  0  0  0  0  0  0  0  0  0
  -21.5199  -24.9887   24.4030 C   0  0  0  0  0  0  0  0  0  0  0  0
  -21.2459  -22.5936   23.7274 C   0  0  0  0  0  0  0  0  0  0  0  0
  -19.4159  -24.2299   23.2841 C   0  0  0  0  0  0  0  0  0  0  0  0
  -22.2070  -22.9603   17.1629 C   0  0  0  0  0  0  0  0  0  0  0  0
  -30.9053  -26.7421   19.8054 C   0  0  0  0  0  0  0  0  0  0  0  0
  -30.0391  -22.2800   16.1038 C   0  0  0  0  0  0  0  0  0  0  0  0
  -29.5343  -27.3570   19.5457 C   0  0  0  0  0  0  0  0  0  1  0  0
  -31.3787  -22.7057   16.7774 C   0  0  1  0  0  0  0  0  0  0  0  0
  -21.5326  -24.3342   21.9055 C   0  0  1  0  0  0  0  0  0  0  0  0
  -20.9966  -21.8832   19.0639 C   0  0  2  0  0  0  0  0  0  0  0  0
  -20.9495  -24.0524   23.3190 C   0  0  0  0  0  0  0  0  0  0  0  0
  -26.7885  -17.5773   20.9047 N   0  0  0  0  0  0  0  0  0  0  0  0
  -31.0107  -25.3314   19.2792 N   0  0  0  0  0  0  0  0  0  0  0  0
  -27.8981  -18.2312   20.5210 N   0  0  0  0  0  0  0  0  0  0  0  0
  -31.0879  -23.1768   19.1975 N   0  3  0  0  0  0  0  0  0  0  0  0
  -22.4388  -26.5217   21.1860 N   0  0  0  0  0  0  0  0  0  0  0  0
  -27.4522  -21.5506   18.6794 N   0  0  0  0  0  0  0  0  0  0  0  0
  -30.1853  -17.9200   19.9896 N   0  0  0  0  0  0  0  0  0  0  0  0
  -28.7742  -13.7510   21.0013 N   0  0  0  0  0  0  0  0  0  0  0  0
  -21.4286  -29.3397   22.7376 N   0  0  0  0  0  0  0  0  0  0  0  0
  -20.9903  -23.4803   20.8543 N   0  0  0  0  0  0  0  0  0  0  0  0
  -29.1579  -21.6222   17.0427 N   0  0  0  0  0  0  0  0  0  0  0  0
  -21.7867  -21.6932   17.8146 N   0  3  0  0  0  0  0  0  0  0  0  0
  -30.5893  -14.9987   20.3630 O   0  0  0  0  0  0  0  0  0  0  0  0
  -23.6235  -28.5640   22.7939 O   0  0  0  0  0  0  0  0  0  0  0  0
  -20.1394  -26.1712   21.3480 O   0  0  0  0  0  0  0  0  0  0  0  0
  -23.0207  -22.5858   20.1804 O   0  0  0  0  0  0  0  0  0  0  0  0
  -28.1222  -23.5525   17.7194 O   0  0  0  0  0  0  0  0  0  0  0  0
  -23.6182  -12.3003   22.5331 O   0  0  0  0  0  0  0  0  0  0  0  0
  -28.5284  -26.5878   20.2037 O   0  0  0  0  0  0  0  0  0  1  0  0
  -23.6596   -7.5975   19.6545 F   0  0  0  0  0  0  0  0  0  0  0  0
  -21.3550  -11.4304   21.2049 F   0  0  0  0  0  0  0  0  0  0  0  0
  1  2  1  0  0  0  0
  1  5  2  0  0  0  0
  2  6  2  0  0  0  0
  3  8  2  0  0  0  0
  3 16  1  0  0  0  0
  4  9  1  0  0  0  0
  4 16  2  0  0  0  0
  5 18  1  0  0  0  0
  6 20  1  0  0  0  0
  7 10  2  0  0  0  0
  7 19  1  0  0  0  0
  8 22  1  0  0  0  0
  9 22  2  0  0  0  0
 10 23  1  0  0  0  0
 11 12  2  0  0  0  0
 11 24  1  0  0  0  0
 12 25  1  0  0  0  0
 13 21  1  0  0  0  0
 13 23  2  0  0  0  0
 14 25  2  0  0  0  0
 14 26  1  0  0  0  0
 15 28  2  0  0  0  0
 15 63  1  0  0  0  0
 16 27  1  0  0  0  0
 17 27  1  0  0  0  0
 17 29  2  0  0  0  0
 17 31  1  0  0  0  0
 18 20  2  0  0  0  0
 18 36  1  0  0  0  0
 19 21  2  0  0  0  0
 19 37  1  0  0  0  0
 20 45  1  0  0  0  0
 21 38  1  0  0  0  0
 22 79  1  0  0  0  0
 23 80  1  0  0  0  0
 24 26  2  0  0  0  0
 24 79  1  0  0  0  0
 25 81  1  0  0  0  0
 26 82  1  0  0  0  0
 27 62  2  0  0  0  0
 28 58  1  0  0  0  0
 28 65  1  0  0  0  0
 29 64  1  0  0  0  0
 29 68  1  0  0  0  0
 30 48  1  0  0  0  0
 30 63  1  0  0  0  0
 30 65  2  0  0  0  0
 31 69  1  0  0  0  0
 31 74  2  0  0  0  0
 32 46  1  0  0  0  0
 32 70  1  0  0  0  0
 32 75  2  0  0  0  0
 33 59  1  0  0  0  0
 33 66  1  0  0  0  0
 33 76  2  0  0  0  0
 34 60  1  0  0  0  0
 34 71  1  0  0  0  0
 34 77  2  0  0  0  0
 35 67  1  0  0  0  0
 35 72  1  0  0  0  0
 35 78  2  0  0  0  0
 36 39  1  0  0  0  0
 37 46  1  0  0  0  0
 38 66  1  0  0  0  0
 39 41  1  0  0  0  0
 40 42  1  0  0  0  0
 40 43  1  0  0  0  0
 41 45  1  0  0  0  0
 42 47  1  0  0  0  0
 43 67  1  0  0  0  0
 44 47  1  0  0  0  0
 44 67  1  0  0  0  0
 45 70  1  0  0  0  0
 46 66  1  0  0  0  0
 47 64  1  0  0  0  0
 49 58  1  0  0  0  0
 50 60  1  0  0  0  0
 51 61  1  0  0  0  0
 52 61  1  0  0  0  0
 53 61  1  0  0  0  0
 54 73  1  0  0  0  0
 55 57  1  0  0  0  0
 55 63  1  0  0  0  0
 56 58  1  0  0  0  0
 56 72  1  0  0  0  0
 57 80  1  0  0  0  0
 59 61  1  0  0  0  0
 59 71  1  0  0  0  0
 60 73  1  0  0  0  0
 62 64  1  0  0  0  0
M  CHG  2  65   1  73   1
M  ISO  4  35 100  57 101  72 100  80 101
M  END
> <Batch ID>
0077

> <Smiles>
CNC(C)C(=O)NC(C(=O)N1Cc2cc([101O:1][101CH2:1]Cn3cc(C(C)C[100NH:0][100C:0](=O)N4CCCC(n5nc(-c6ccc(Oc7ccc(F)cc7F)cc6)c(C(N)=O)c5N)C4)nc3C)ccc2CC1C(=O)NC1CCCc2ccccc21)C(C)(C)C

> <Shape>
0.238

> <Color>
0.092

> <Negative vol penalty>
0.000

$$$$

  -OEChem-04052318373D

 84 92  0     1  0  0  0  0  0999 V2000
  -28.1284  -33.2955   25.3062 C   0  0  0  0  0  0  0  0  0  0  0  0
  -28.0788  -31.9119   25.4427 C   0  0  0  0  0  0  0  0  0  0  0  0
  -26.9109  -12.1292   21.0639 C   0  0  0  0  0  0  0  0  0  0  0  0
  -25.8963  -13.9285   19.8107 C   0  0  0  0  0  0  0  0  0  0  0  0
  -27.0354  -33.9825   24.7798 C   0  0  0  0  0  0  0  0  0  0  0  0
  -26.9356  -31.2146   25.0538 C   0  0  0  0  0  0  0  0  0  0  0  0
  -26.7006  -25.6171   22.5802 C   0  0  0  0  0  0  0  0  0  0  0  0
  -25.6468  -11.6909   21.4581 C   0  0  0  0  0  0  0  0  0  0  0  0
  -24.6322  -13.4901   20.2049 C   0  0  0  0  0  0  0  0  0  0  0  0
  -26.4435  -24.3604   23.1262 C   0  0  0  0  0  0  0  0  0  0  0  0
  -23.0946   -9.9217   20.1204 C   0  0  0  0  0  0  0  0  0  0  0  0
  -22.8317   -8.5537   20.0498 C   0  0  0  0  0  0  0  0  0  0  0  0
  -24.1319  -24.5520   22.4636 C   0  0  0  0  0  0  0  0  0  0  0  0
  -22.4056   -8.5129   22.4276 C   0  0  0  0  0  0  0  0  0  0  0  0
  -28.8253  -19.4626   22.4260 C   0  0  0  0  0  0  0  0  0  0  0  0
  -27.0357  -13.2480   20.2402 C   0  0  0  0  0  0  0  0  0  0  0  0
  -29.0588  -13.3086   18.6875 C   0  0  0  0  0  0  0  0  0  0  0  0
  -25.8818  -33.2923   24.3753 C   0  0  0  0  0  0  0  0  0  0  0  0
  -25.6712  -26.3567   21.9804 C   0  0  0  0  0  0  0  0  0  0  0  0
  -25.8255  -31.8932   24.5228 C   0  0  0  0  0  0  0  0  0  0  0  0
  -24.3791  -25.8169   21.9084 C   0  0  0  0  0  0  0  0  0  0  0  0
  -24.5074  -12.3713   21.0286 C   0  0  0  0  0  0  0  0  0  0  0  0
  -25.1584  -23.8289   23.0706 C   0  0  0  0  0  0  0  0  0  0  0  0
  -23.0131  -10.5854   21.3446 C   0  0  0  0  0  0  0  0  0  0  0  0
  -22.4872   -7.8493   21.2034 C   0  0  0  0  0  0  0  0  0  0  0  0
  -22.6686   -9.8810   22.4982 C   0  0  0  0  0  0  0  0  0  0  0  0
  -28.3413  -13.7016   19.8332 C   0  0  0  0  0  0  0  0  0  0  0  0
  -29.2286  -19.5596   21.0807 C   0  0  0  0  0  0  0  0  0  0  0  0
  -27.4665  -19.2723   22.3642 C   0  0  0  0  0  0  0  0  0  0  0  0
  -30.2321  -14.0194   18.7566 C   0  0  0  0  0  0  0  0  0  0  0  0
  -28.6971  -12.3838   17.6534 C   0  0  0  0  0  0  0  0  0  0  0  0
  -24.2954  -29.1634   22.5582 C   0  0  0  0  0  0  0  0  0  0  0  0
  -22.7546  -28.5418   19.7721 C   0  0  0  0  0  0  0  0  0  0  0  0
  -31.6382  -19.1873   21.4819 C   0  0  0  0  0  0  0  0  0  0  0  0
  -21.6620  -26.2214   17.5208 C   0  0  0  0  0  0  0  0  0  0  0  0
  -24.7073  -34.0831   23.8559 C   0  0  0  0  0  0  0  0  0  0  0  0
  -25.9707  -27.6994   21.3723 C   0  0  0  0  0  0  0  0  0  0  0  0
  -23.2435  -26.5618   21.2574 C   0  0  0  0  0  0  0  0  0  0  0  0
  -23.6770  -33.2308   23.1195 C   0  0  0  0  0  0  0  0  0  0  0  0
  -33.2362  -16.0066   21.8942 C   0  0  0  0  0  0  0  0  0  0  0  0
  -23.3616  -31.9683   23.9154 C   0  0  0  0  0  0  0  0  0  0  0  0
  -32.2154  -15.0168   21.3344 C   0  0  0  0  0  0  0  0  0  0  0  0
  -32.5531  -17.1773   22.5942 C   0  0  0  0  0  0  0  0  0  0  0  0
  -30.5399  -16.9126   21.1804 C   0  0  0  0  0  0  0  0  0  0  0  0
  -24.6126  -31.0988   24.0893 C   0  0  1  0  0  0  0  0  0  0  0  0
  -24.7357  -28.5856   21.2428 C   0  0  1  0  0  0  0  0  0  0  0  0
  -31.1876  -15.7302   20.4382 C   0  0  2  0  0  0  0  0  0  0  0  0
  -20.3997  -26.0132   15.3619 C   0  0  0  0  0  0  0  0  0  0  0  0
  -30.9227  -21.2872   20.4186 C   0  0  0  0  0  0  0  0  0  0  0  0
  -30.9300  -19.1168   19.1843 C   0  0  0  0  0  0  0  0  0  0  0  0
  -25.6560  -17.7470   23.4061 C   0  0  0  0  0  0  0  0  0  0  0  0
  -27.1512  -19.1052   24.8429 C   0  0  0  0  0  0  0  0  0  0  0  0
  -20.1336  -29.0111   21.2621 C   0  0  0  0  0  0  0  0  0  0  0  0
  -18.9384  -27.8853   19.3721 C   0  0  0  0  0  0  0  0  0  0  0  0
  -20.2153  -29.9886   18.9616 C   0  0  0  0  0  0  0  0  0  0  0  0
  -25.8385  -19.0977   20.4580 C   0  0  0  0  0  0  0  0  0  0  0  0
  -23.9892  -25.0211   16.1415 C   0  0  0  0  0  0  0  0  0  0  0  0
  -25.3829  -20.2555   23.4722 C   0  0  0  0  0  0  0  0  0  0  0  0
  -25.9746  -21.6586   23.5994 C   0  0  0  0  0  0  0  0  0  1  0  0
  -21.4738  -27.8386   19.3926 C   0  0  1  0  0  0  0  0  0  0  0  0
  -21.7689  -26.1575   16.0079 C   0  0  2  0  0  0  0  0  0  0  0  0
  -30.5920  -19.7703   20.5656 C   0  0  0  0  0  0  0  0  0  0  0  0
  -26.4191  -19.0914   23.4778 C   0  0  0  0  0  0  0  0  0  0  0  0
  -20.2110  -28.6674   19.7612 C   0  0  0  0  0  0  0  0  0  0  0  0
  -29.0035  -14.5928   20.5757 N   0  0  0  0  0  0  0  0  0  0  0  0
  -28.2086  -19.4406   20.2267 N   0  0  0  0  0  0  0  0  0  0  0  0
  -27.1509  -19.2667   21.0373 N   0  0  0  0  0  0  0  0  0  0  0  0
  -30.1494  -14.7656   19.8952 N   0  0  0  0  0  0  0  0  0  0  0  0
  -23.5852  -27.8736   20.6828 N   0  0  0  0  0  0  0  0  0  0  0  0
  -31.5684  -17.8142   21.7179 N   0  0  0  0  0  0  0  0  0  0  0  0
  -31.3162  -14.0726   17.9538 N   0  0  0  0  0  0  0  0  0  0  0  0
  -27.4548  -11.7404   17.7369 N   0  0  0  0  0  0  0  0  0  0  0  0
  -24.8939  -30.3687   22.8717 N   0  0  0  0  0  0  0  0  0  0  0  0
  -21.5873  -27.5219   17.9730 N   0  0  0  0  0  0  0  0  0  0  0  0
  -22.6074  -24.9962   15.5965 N   0  3  0  0  0  0  0  0  0  0  0  0
  -29.4602  -12.1229   16.6925 O   0  0  0  0  0  0  0  0  0  0  0  0
  -23.4725  -28.5609   23.2375 O   0  0  0  0  0  0  0  0  0  0  0  0
  -23.0121  -29.6403   19.2733 O   0  0  0  0  0  0  0  0  0  0  0  0
  -32.4930  -19.9311   21.9701 O   0  0  0  0  0  0  0  0  0  0  0  0
  -21.6426  -25.2180   18.2302 O   0  0  0  0  0  0  0  0  0  0  0  0
  -23.2737  -11.9437   21.4128 O   0  0  0  0  0  0  0  0  0  0  0  0
  -24.9046  -22.6027   23.6034 O   0  0  0  0  0  0  0  0  0  1  0  0
  -22.2332   -6.5359   21.1352 F   0  0  0  0  0  0  0  0  0  0  0  0
  -22.5875  -10.5133   23.6769 F   0  0  0  0  0  0  0  0  0  0  0  0
  1  2  1  0  0  0  0
  1  5  2  0  0  0  0
  2  6  2  0  0  0  0
  3  8  2  0  0  0  0
  3 16  1  0  0  0  0
  4  9  1  0  0  0  0
  4 16  2  0  0  0  0
  5 18  1  0  0  0  0
  6 20  1  0  0  0  0
  7 10  2  0  0  0  0
  7 19  1  0  0  0  0
  8 22  1  0  0  0  0
  9 22  2  0  0  0  0
 10 23  1  0  0  0  0
 11 12  2  0  0  0  0
 11 24  1  0  0  0  0
 12 25  1  0  0  0  0
 13 21  1  0  0  0  0
 13 23  2  0  0  0  0
 14 25  2  0  0  0  0
 14 26  1  0  0  0  0
 15 28  1  0  0  0  0
 15 29  2  0  0  0  0
 16 27  1  0  0  0  0
 17 27  1  0  0  0  0
 17 30  2  0  0  0  0
 17 31  1  0  0  0  0
 18 20  2  0  0  0  0
 18 36  1  0  0  0  0
 19 21  2  0  0  0  0
 19 37  1  0  0  0  0
 20 45  1  0  0  0  0
 21 38  1  0  0  0  0
 22 81  1  0  0  0  0
 23 82  1  0  0  0  0
 24 26  2  0  0  0  0
 24 81  1  0  0  0  0
 25 83  1  0  0  0  0
 26 84  1  0  0  0  0
 27 65  2  0  0  0  0
 28 62  1  0  0  0  0
 28 66  2  0  0  0  0
 29 63  1  0  0  0  0
 29 67  1  0  0  0  0
 30 68  1  0  0  0  0
 30 71  1  0  0  0  0
 31 72  1  0  0  0  0
 31 76  2  0  0  0  0
 32 46  1  0  0  0  0
 32 73  1  0  0  0  0
 32 77  2  0  0  0  0
 33 60  1  0  0  0  0
 33 69  1  0  0  0  0
 33 78  2  0  0  0  0
 34 62  1  0  0  0  0
 34 70  1  0  0  0  0
 34 79  2  0  0  0  0
 35 61  1  0  0  0  0
 35 74  1  0  0  0  0
 35 80  2  0  0  0  0
 36 39  1  0  0  0  0
 37 46  1  0  0  0  0
 38 69  1  0  0  0  0
 39 41  1  0  0  0  0
 40 42  1  0  0  0  0
 40 43  1  0  0  0  0
 41 45  1  0  0  0  0
 42 47  1  0  0  0  0
 43 70  1  0  0  0  0
 44 47  1  0  0  0  0
 44 70  1  0  0  0  0
 45 73  1  0  0  0  0
 46 69  1  0  0  0  0
 47 68  1  0  0  0  0
 48 61  1  0  0  0  0
 49 62  1  0  0  0  0
 50 62  1  0  0  0  0
 51 63  1  0  0  0  0
 52 63  1  0  0  0  0
 53 64  1  0  0  0  0
 54 64  1  0  0  0  0
 55 64  1  0  0  0  0
 56 67  1  0  0  0  0
 57 75  1  0  0  0  0
 58 59  1  0  0  0  0
 58 63  1  0  0  0  0
 59 82  1  0  0  0  0
 60 64  1  0  0  0  0
 60 74  1  0  0  0  0
 61 75  1  0  0  0  0
 65 68  1  0  0  0  0
 66 67  1  0  0  0  0
M  CHG  1  75   1
M  ISO  4  34 100  59 101  62 100  82 101
M  END
> <Batch ID>
0077

> <Smiles>
CNC(C)C(=O)NC(C(=O)N1Cc2cc([101O:1][101CH2:1]CC(C)(C)c3cc([100C:0](C)(C)[100C:0](=O)N4CCCC(n5nc(-c6ccc(Oc7ccc(F)cc7F)cc6)c(C(N)=O)c5N)C4)nn3C)ccc2CC1C(=O)NC1CCCc2ccccc21)C(C)(C)C

> <Shape>
0.247

> <Color>
0.052

> <Negative vol penalty>
0.000

$$$$

  -OEChem-04052318373D

 84 92  0     1  0  0  0  0  0999 V2000
  -29.0233  -23.2682   26.8812 C   0  0  0  0  0  0  0  0  0  0  0  0
  -28.0398  -23.2159   25.8986 C   0  0  0  0  0  0  0  0  0  0  0  0
  -29.1398  -27.3076   19.2859 C   0  0  0  0  0  0  0  0  0  0  0  0
  -27.2832  -25.8744   18.7062 C   0  0  0  0  0  0  0  0  0  0  0  0
  -30.0132  -22.2875   26.9278 C   0  0  0  0  0  0  0  0  0  0  0  0
  -28.0463  -22.1834   24.9614 C   0  0  0  0  0  0  0  0  0  0  0  0
  -23.4451  -20.2018   24.2219 C   0  0  0  0  0  0  0  0  0  0  0  0
  -30.0322  -26.3252   18.8568 C   0  0  0  0  0  0  0  0  0  0  0  0
  -28.1756  -24.8920   18.2771 C   0  0  0  0  0  0  0  0  0  0  0  0
  -22.5648  -20.9201   23.4138 C   0  0  0  0  0  0  0  0  0  0  0  0
  -30.1433  -22.5286   19.6820 C   0  0  0  0  0  0  0  0  0  0  0  0
  -29.8995  -21.2138   20.0787 C   0  0  0  0  0  0  0  0  0  0  0  0
  -23.0844  -19.4628   21.5630 C   0  0  0  0  0  0  0  0  0  0  0  0
  -29.7246  -20.5475   17.7629 C   0  0  0  0  0  0  0  0  0  0  0  0
  -21.3104  -28.0200   20.4911 C   0  0  0  0  0  0  0  0  0  0  0  0
  -27.7653  -27.0822   19.2106 C   0  0  0  0  0  0  0  0  0  0  0  0
  -26.2836  -29.1328   18.8828 C   0  0  0  0  0  0  0  0  0  0  0  0
  -30.0263  -21.2371   25.9966 C   0  0  0  0  0  0  0  0  0  0  0  0
  -24.1610  -19.1135   23.7028 C   0  0  0  0  0  0  0  0  0  0  0  0
  -29.0381  -21.1885   24.9948 C   0  0  0  0  0  0  0  0  0  0  0  0
  -23.9712  -18.7308   22.3673 C   0  0  0  0  0  0  0  0  0  0  0  0
  -29.5501  -25.1174   18.3524 C   0  0  0  0  0  0  0  0  0  0  0  0
  -22.3866  -20.5524   22.0833 C   0  0  0  0  0  0  0  0  0  0  0  0
  -30.1777  -22.8529   18.3257 C   0  0  0  0  0  0  0  0  0  0  0  0
  -29.6901  -20.2232   19.1192 C   0  0  0  0  0  0  0  0  0  0  0  0
  -29.9683  -21.8624   17.3662 C   0  0  0  0  0  0  0  0  0  0  0  0
  -26.8430  -28.0965   19.6541 C   0  0  0  0  0  0  0  0  0  0  0  0
  -21.1328  -29.2301   21.1002 C   0  0  0  0  0  0  0  0  0  0  0  0
  -25.4794  -29.8182   19.7603 C   0  0  0  0  0  0  0  0  0  0  0  0
  -21.7106  -27.7620   22.6530 C   0  0  0  0  0  0  0  0  0  0  0  0
  -26.4738  -29.4476   17.4970 C   0  0  0  0  0  0  0  0  0  0  0  0
  -27.2413  -18.4460   23.2910 C   0  0  0  0  0  0  0  0  0  0  0  0
  -22.7718  -28.1533   24.8602 C   0  0  0  0  0  0  0  0  0  0  0  0
  -26.0927  -15.5485   22.3925 C   0  0  0  0  0  0  0  0  0  0  0  0
  -23.4842  -13.7177   21.1714 C   0  0  0  0  0  0  0  0  0  0  0  0
  -31.1441  -20.2264   26.0580 C   0  0  0  0  0  0  0  0  0  0  0  0
  -25.0865  -18.3325   24.5948 C   0  0  0  0  0  0  0  0  0  0  0  0
  -24.7006  -17.5576   21.7672 C   0  0  0  0  0  0  0  0  0  0  0  0
  -30.8625  -18.9575   25.2574 C   0  0  0  0  0  0  0  0  0  0  0  0
  -25.0398  -30.8882   24.3949 C   0  0  0  0  0  0  0  0  0  0  0  0
  -30.3235  -19.3076   23.8741 C   0  0  0  0  0  0  0  0  0  0  0  0
  -25.7288  -30.5619   23.0706 C   0  0  0  0  0  0  0  0  0  0  0  0
  -24.7322  -29.6236   25.1908 C   0  0  0  0  0  0  0  0  0  0  0  0
  -24.6166  -28.2845   23.1135 C   0  0  0  0  0  0  0  0  0  0  0  0
  -28.9971  -20.0705   23.9757 C   0  0  1  0  0  0  0  0  0  0  0  0
  -26.1504  -17.5594   23.8216 C   0  0  1  0  0  0  0  0  0  0  0  0
  -24.9174  -29.5323   22.2643 C   0  0  2  0  0  0  0  0  0  0  0  0
  -20.7516  -30.5383   20.5615 C   0  0  0  0  0  0  0  0  0  0  0  0
  -20.8366  -26.6140   24.7291 C   0  0  0  0  0  0  0  0  0  0  0  0
  -22.8581  -11.3797   20.5087 C   0  0  0  0  0  0  0  0  0  0  0  0
  -27.6916  -15.8544   19.8118 C   0  0  0  0  0  0  0  0  0  0  0  0
  -26.3138  -14.0131   18.8220 C   0  0  0  0  0  0  0  0  0  0  0  0
  -27.7511  -13.5623   20.8104 C   0  0  0  0  0  0  0  0  0  0  0  0
  -19.6709  -22.8790   19.7356 C   0  0  0  0  0  0  0  0  0  0  0  0
  -22.0998  -23.2302   19.2712 C   0  0  0  0  0  0  0  0  0  0  0  0
  -21.3371  -13.5924   23.2044 C   0  0  0  0  0  0  0  0  0  0  0  0
  -20.7753  -24.9448   20.6112 C   0  0  0  0  0  0  0  0  0  0  0  0
  -21.9659  -25.6668   21.2560 C   0  0  0  0  0  0  0  0  0  0  0  0
  -21.3540  -22.6370   21.5892 C   0  0  0  0  0  0  0  0  0  1  0  0
  -22.0530  -27.1705   23.9704 C   0  0  1  0  0  0  0  0  0  0  0  0
  -25.6452  -14.9334   21.0885 C   0  0  1  0  0  0  0  0  0  0  0  0
  -22.8717  -12.4067   21.6303 C   0  0  2  0  0  0  0  0  0  0  0  0
  -26.8380  -14.6141   20.1437 C   0  0  0  0  0  0  0  0  0  0  0  0
  -20.9895  -23.4330   20.3176 C   0  0  0  0  0  0  0  0  0  0  0  0
  -26.4293  -28.1179   20.9240 N   0  0  0  0  0  0  0  0  0  0  0  0
  -21.6679  -27.1304   21.4754 N   0  0  0  0  0  0  0  0  0  0  0  0
  -25.6015  -29.1760   20.9573 N   0  0  0  0  0  0  0  0  0  0  0  0
  -21.3867  -29.0410   22.4372 N   0  3  0  0  0  0  0  0  0  0  0  0
  -25.5993  -16.8295   22.6780 N   0  0  0  0  0  0  0  0  0  0  0  0
  -23.9800  -28.6618   24.3830 N   0  0  0  0  0  0  0  0  0  0  0  0
  -24.6868  -30.9016   19.6170 N   0  0  0  0  0  0  0  0  0  0  0  0
  -27.3342  -28.6403   16.7405 N   0  0  0  0  0  0  0  0  0  0  0  0
  -27.9110  -19.1594   24.2667 N   0  0  0  0  0  0  0  0  0  0  0  0
  -24.8352  -13.7724   21.4416 N   0  0  0  0  0  0  0  0  0  0  0  0
  -21.4697  -12.6220   22.0874 N   0  3  0  0  0  0  0  0  0  0  0  0
  -25.9106  -30.4259   16.9500 O   0  0  0  0  0  0  0  0  0  0  0  0
  -27.4603  -18.4792   22.0857 O   0  0  0  0  0  0  0  0  0  0  0  0
  -22.2714  -28.4607   25.9452 O   0  0  0  0  0  0  0  0  0  0  0  0
  -26.8463  -14.9128   23.1339 O   0  0  0  0  0  0  0  0  0  0  0  0
  -22.8304  -14.6031   20.6244 O   0  0  0  0  0  0  0  0  0  0  0  0
  -30.4206  -24.1586   17.9335 O   0  0  0  0  0  0  0  0  0  0  0  0
  -21.5285  -21.2522   21.2922 O   0  0  0  0  0  0  0  0  0  1  0  0
  -29.4576  -18.9604   19.5002 F   0  0  0  0  0  0  0  0  0  0  0  0
  -30.0014  -22.1677   16.0618 F   0  0  0  0  0  0  0  0  0  0  0  0
  1  2  1  0  0  0  0
  1  5  2  0  0  0  0
  2  6  2  0  0  0  0
  3  8  2  0  0  0  0
  3 16  1  0  0  0  0
  4  9  1  0  0  0  0
  4 16  2  0  0  0  0
  5 18  1  0  0  0  0
  6 20  1  0  0  0  0
  7 10  2  0  0  0  0
  7 19  1  0  0  0  0
  8 22  1  0  0  0  0
  9 22  2  0  0  0  0
 10 23  1  0  0  0  0
 11 12  2  0  0  0  0
 11 24  1  0  0  0  0
 12 25  1  0  0  0  0
 13 21  1  0  0  0  0
 13 23  2  0  0  0  0
 14 25  2  0  0  0  0
 14 26  1  0  0  0  0
 15 28  2  0  0  0  0
 15 66  1  0  0  0  0
 16 27  1  0  0  0  0
 17 27  1  0  0  0  0
 17 29  2  0  0  0  0
 17 31  1  0  0  0  0
 18 20  2  0  0  0  0
 18 36  1  0  0  0  0
 19 21  2  0  0  0  0
 19 37  1  0  0  0  0
 20 45  1  0  0  0  0
 21 38  1  0  0  0  0
 22 81  1  0  0  0  0
 23 82  1  0  0  0  0
 24 26  2  0  0  0  0
 24 81  1  0  0  0  0
 25 83  1  0  0  0  0
 26 84  1  0  0  0  0
 27 65  2  0  0  0  0
 28 48  1  0  0  0  0
 28 68  1  0  0  0  0
 29 67  1  0  0  0  0
 29 71  1  0  0  0  0
 30 60  1  0  0  0  0
 30 66  1  0  0  0  0
 30 68  2  0  0  0  0
 31 72  1  0  0  0  0
 31 76  2  0  0  0  0
 32 46  1  0  0  0  0
 32 73  1  0  0  0  0
 32 77  2  0  0  0  0
 33 60  1  0  0  0  0
 33 70  1  0  0  0  0
 33 78  2  0  0  0  0
 34 61  1  0  0  0  0
 34 69  1  0  0  0  0
 34 79  2  0  0  0  0
 35 62  1  0  0  0  0
 35 74  1  0  0  0  0
 35 80  2  0  0  0  0
 36 39  1  0  0  0  0
 37 46  1  0  0  0  0
 38 69  1  0  0  0  0
 39 41  1  0  0  0  0
 40 42  1  0  0  0  0
 40 43  1  0  0  0  0
 41 45  1  0  0  0  0
 42 47  1  0  0  0  0
 43 70  1  0  0  0  0
 44 47  1  0  0  0  0
 44 70  1  0  0  0  0
 45 73  1  0  0  0  0
 46 69  1  0  0  0  0
 47 67  1  0  0  0  0
 49 60  1  0  0  0  0
 50 62  1  0  0  0  0
 51 63  1  0  0  0  0
 52 63  1  0  0  0  0
 53 63  1  0  0  0  0
 54 64  1  0  0  0  0
 55 64  1  0  0  0  0
 56 75  1  0  0  0  0
 57 58  1  0  0  0  0
 57 64  1  0  0  0  0
 58 66  1  0  0  0  0
 59 64  1  0  0  0  0
 59 82  1  0  0  0  0
 61 63  1  0  0  0  0
 61 74  1  0  0  0  0
 62 75  1  0  0  0  0
 65 67  1  0  0  0  0
M  CHG  2  68   1  75   1
M  ISO  4  33 100  59 101  60 100  82 101
M  END
> <Batch ID>
0077

> <Smiles>
CNC(C)C(=O)NC(C(=O)N1Cc2cc([101O:1][101CH2:1]C(C)(C)CCn3cc(C)nc3[100CH:0](C)[100C:0](=O)N3CCCC(n4nc(-c5ccc(Oc6ccc(F)cc6F)cc5)c(C(N)=O)c4N)C3)ccc2CC1C(=O)NC1CCCc2ccccc21)C(C)(C)C

> <Shape>
0.196

> <Color>
0.059

> <Negative vol penalty>
0.000

$$$$

  -OEChem-04052318373D

 85 93  0     1  0  0  0  0  0999 V2000
  -35.6178  -20.1085   26.8164 C   0  0  0  0  0  0  0  0  0  0  0  0
  -34.6347  -19.8745   25.8603 C   0  0  0  0  0  0  0  0  0  0  0  0
  -23.1193   -9.9161   19.9225 C   0  0  0  0  0  0  0  0  0  0  0  0
  -23.8151   -9.9053   22.2361 C   0  0  0  0  0  0  0  0  0  0  0  0
  -35.3940  -21.0372   27.8319 C   0  0  0  0  0  0  0  0  0  0  0  0
  -33.4266  -20.5684   25.9198 C   0  0  0  0  0  0  0  0  0  0  0  0
  -31.9632  -22.3124   21.3963 C   0  0  0  0  0  0  0  0  0  0  0  0
  -22.3885   -8.7475   20.1368 C   0  0  0  0  0  0  0  0  0  0  0  0
  -23.0843   -8.7367   22.4504 C   0  0  0  0  0  0  0  0  0  0  0  0
  -31.3858  -21.3970   20.5174 C   0  0  0  0  0  0  0  0  0  0  0  0
  -23.4470   -5.4277   21.8590 C   0  0  0  0  0  0  0  0  0  0  0  0
  -24.0597   -4.4034   22.5807 C   0  0  0  0  0  0  0  0  0  0  0  0
  -29.1954  -22.2046   21.1249 C   0  0  0  0  0  0  0  0  0  0  0  0
  -22.3090   -4.5260   24.2412 C   0  0  0  0  0  0  0  0  0  0  0  0
  -28.8175  -16.0646   21.6050 C   0  0  0  0  0  0  0  0  0  0  0  0
  -23.8327  -10.4950   20.9721 C   0  0  0  0  0  0  0  0  0  0  0  0
  -24.1347  -13.0268   20.8939 C   0  0  0  0  0  0  0  0  0  0  0  0
  -34.1864  -21.7500   27.8982 C   0  0  0  0  0  0  0  0  0  0  0  0
  -31.1592  -23.1747   22.1555 C   0  0  0  0  0  0  0  0  0  0  0  0
  -33.1860  -21.5066   26.9379 C   0  0  0  0  0  0  0  0  0  0  0  0
  -29.7651  -23.1317   22.0108 C   0  0  0  0  0  0  0  0  0  0  0  0
  -22.3710   -8.1578   21.4008 C   0  0  0  0  0  0  0  0  0  0  0  0
  -30.0016  -21.3410   20.3837 C   0  0  0  0  0  0  0  0  0  0  0  0
  -22.2653   -6.0013   22.3284 C   0  0  0  0  0  0  0  0  0  0  0  0
  -23.4907   -3.9525   23.7718 C   0  0  0  0  0  0  0  0  0  0  0  0
  -21.6963   -5.5504   23.5194 C   0  0  0  0  0  0  0  0  0  0  0  0
  -24.5882  -11.7018   20.7512 C   0  0  0  0  0  0  0  0  0  0  0  0
  -28.6924  -17.4208   21.3830 C   0  0  0  0  0  0  0  0  0  0  0  0
  -29.3741  -15.7067   22.8160 C   0  0  0  0  0  0  0  0  0  0  0  0
  -25.2236  -13.7991   20.5709 C   0  0  0  0  0  0  0  0  0  0  0  0
  -29.6053  -17.8882   23.4116 C   0  0  0  0  0  0  0  0  0  0  0  0
  -22.8445  -13.5158   21.2838 C   0  0  0  0  0  0  0  0  0  0  0  0
  -30.6645  -23.6254   25.2629 C   0  0  0  0  0  0  0  0  0  0  0  0
  -28.8829  -26.1273   24.2192 C   0  0  0  0  0  0  0  0  0  0  0  0
  -31.0032  -13.7352   21.1529 C   0  0  0  0  0  0  0  0  0  0  0  0
  -27.0735  -27.5423   21.6952 C   0  0  0  0  0  0  0  0  0  0  0  0
  -33.9717  -22.7094   29.0419 C   0  0  0  0  0  0  0  0  0  0  0  0
  -31.7986  -24.1747   23.0793 C   0  0  0  0  0  0  0  0  0  0  0  0
  -28.8585  -24.0497   22.7880 C   0  0  0  0  0  0  0  0  0  0  0  0
  -32.8116  -23.6757   28.8166 C   0  0  0  0  0  0  0  0  0  0  0  0
  -29.3882  -13.0749   18.0231 C   0  0  0  0  0  0  0  0  0  0  0  0
  -31.5853  -22.9273   28.3037 C   0  0  0  0  0  0  0  0  0  0  0  0
  -27.9493  -12.7509   18.4230 C   0  0  0  0  0  0  0  0  0  0  0  0
  -30.3838  -12.5690   19.0623 C   0  0  0  0  0  0  0  0  0  0  0  0
  -28.6816  -12.7405   20.8496 C   0  0  0  0  0  0  0  0  0  0  0  0
  -31.8722  -22.2576   26.9544 C   0  0  1  0  0  0  0  0  0  0  0  0
  -30.8611  -24.6525   24.1839 C   0  0  1  0  0  0  0  0  0  0  0  0
  -27.6416  -13.2613   19.8418 C   0  0  2  0  0  0  0  0  0  0  0  0
  -30.0396  -18.9004   24.4169 C   0  0  0  0  0  0  0  0  0  0  0  0
  -29.2762  -13.9728   24.6484 C   0  0  0  0  0  0  0  0  0  0  0  0
  -25.7051  -29.5745   21.1520 C   0  0  0  0  0  0  0  0  0  0  0  0
  -31.0353  -12.1176   23.0006 C   0  0  0  0  0  0  0  0  0  0  0  0
  -32.1202  -14.3644   23.2079 C   0  0  0  0  0  0  0  0  0  0  0  0
  -26.5749  -25.0127   25.8747 C   0  0  0  0  0  0  0  0  0  0  0  0
  -25.0229  -26.4858   24.5749 C   0  0  0  0  0  0  0  0  0  0  0  0
  -26.8235  -27.4993   25.9726 C   0  0  0  0  0  0  0  0  0  0  0  0
  -28.8979  -28.3269   19.5009 C   0  0  0  0  0  0  0  0  0  0  0  0
  -28.0946  -17.9097   20.0879 C   0  0  0  0  0  0  0  0  0  0  0  0
  -29.1254  -18.1329   18.9792 C   0  0  0  0  0  0  0  0  0  0  0  0
  -30.1369  -19.2252   19.3063 C   0  0  0  0  0  0  0  0  0  1  0  0
  -29.5481  -14.2622   23.1467 C   0  0  2  0  0  0  0  0  0  0  0  0
  -27.4390  -26.3198   23.8227 C   0  0  1  0  0  0  0  0  0  0  0  0
  -27.0875  -28.9421   21.1080 C   0  0  2  0  0  0  0  0  0  0  0  0
  -30.9008  -13.6071   22.6520 C   0  0  0  0  0  0  0  0  0  0  0  0
  -26.4818  -26.3107   25.0479 C   0  0  0  0  0  0  0  0  0  0  0  0
  -25.8656  -11.6326   20.3672 N   0  0  0  0  0  0  0  0  0  0  0  0
  -29.0773  -18.3639   22.2677 N   0  0  0  0  0  0  0  0  0  0  0  0
  -29.7807  -16.5955   23.7460 N   0  0  0  0  0  0  0  0  0  0  0  0
  -26.2240  -12.9238   20.2658 N   0  0  0  0  0  0  0  0  0  0  0  0
  -29.5312  -25.0056   23.6831 N   0  0  0  0  0  0  0  0  0  0  0  0
  -30.0442  -13.0575   20.3999 N   0  0  0  0  0  0  0  0  0  0  0  0
  -25.4132  -15.1348   20.5208 N   0  0  0  0  0  0  0  0  0  0  0  0
  -21.8392  -12.5855   21.5810 N   0  0  0  0  0  0  0  0  0  0  0  0
  -31.8336  -23.2342   25.8871 N   0  0  0  0  0  0  0  0  0  0  0  0
  -27.3919  -27.5480   23.0368 N   0  0  0  0  0  0  0  0  0  0  0  0
  -27.5420  -28.9042   19.6892 N   0  3  0  0  0  0  0  0  0  0  0  0
  -22.5858  -14.7415   21.3502 O   0  0  0  0  0  0  0  0  0  0  0  0
  -29.5354  -23.2191   25.5117 O   0  0  0  0  0  0  0  0  0  0  0  0
  -29.4179  -26.9459   24.9710 O   0  0  0  0  0  0  0  0  0  0  0  0
  -31.9075  -14.4200   20.6677 O   0  0  0  0  0  0  0  0  0  0  0  0
  -26.8032  -26.5441   21.0311 O   0  0  0  0  0  0  0  0  0  0  0  0
  -21.6578   -7.0176   21.6104 O   0  0  0  0  0  0  0  0  0  0  0  0
  -29.4353  -20.4481   19.5270 O   0  0  0  0  0  0  0  0  0  1  0  0
  -24.0784   -2.9677   24.4639 F   0  0  0  0  0  0  0  0  0  0  0  0
  -20.5605   -6.0967   23.9748 F   0  0  0  0  0  0  0  0  0  0  0  0
  1  2  1  0  0  0  0
  1  5  2  0  0  0  0
  2  6  2  0  0  0  0
  3  8  2  0  0  0  0
  3 16  1  0  0  0  0
  4  9  1  0  0  0  0
  4 16  2  0  0  0  0
  5 18  1  0  0  0  0
  6 20  1  0  0  0  0
  7 10  2  0  0  0  0
  7 19  1  0  0  0  0
  8 22  1  0  0  0  0
  9 22  2  0  0  0  0
 10 23  1  0  0  0  0
 11 12  2  0  0  0  0
 11 24  1  0  0  0  0
 12 25  1  0  0  0  0
 13 21  1  0  0  0  0
 13 23  2  0  0  0  0
 14 25  2  0  0  0  0
 14 26  1  0  0  0  0
 15 28  1  0  0  0  0
 15 29  2  0  0  0  0
 16 27  1  0  0  0  0
 17 27  1  0  0  0  0
 17 30  2  0  0  0  0
 17 32  1  0  0  0  0
 18 20  2  0  0  0  0
 18 37  1  0  0  0  0
 19 21  2  0  0  0  0
 19 38  1  0  0  0  0
 20 46  1  0  0  0  0
 21 39  1  0  0  0  0
 22 82  1  0  0  0  0
 23 83  1  0  0  0  0
 24 26  2  0  0  0  0
 24 82  1  0  0  0  0
 25 84  1  0  0  0  0
 26 85  1  0  0  0  0
 27 66  2  0  0  0  0
 28 58  1  0  0  0  0
 28 67  2  0  0  0  0
 29 61  1  0  0  0  0
 29 68  1  0  0  0  0
 30 69  1  0  0  0  0
 30 72  1  0  0  0  0
 31 49  1  0  0  0  0
 31 67  1  0  0  0  0
 31 68  2  0  0  0  0
 32 73  1  0  0  0  0
 32 77  2  0  0  0  0
 33 47  1  0  0  0  0
 33 74  1  0  0  0  0
 33 78  2  0  0  0  0
 34 62  1  0  0  0  0
 34 70  1  0  0  0  0
 34 79  2  0  0  0  0
 35 64  1  0  0  0  0
 35 71  1  0  0  0  0
 35 80  2  0  0  0  0
 36 63  1  0  0  0  0
 36 75  1  0  0  0  0
 36 81  2  0  0  0  0
 37 40  1  0  0  0  0
 38 47  1  0  0  0  0
 39 70  1  0  0  0  0
 40 42  1  0  0  0  0
 41 43  1  0  0  0  0
 41 44  1  0  0  0  0
 42 46  1  0  0  0  0
 43 48  1  0  0  0  0
 44 71  1  0  0  0  0
 45 48  1  0  0  0  0
 45 71  1  0  0  0  0
 46 74  1  0  0  0  0
 47 70  1  0  0  0  0
 48 69  1  0  0  0  0
 50 61  1  0  0  0  0
 51 63  1  0  0  0  0
 52 64  1  0  0  0  0
 53 64  1  0  0  0  0
 54 65  1  0  0  0  0
 55 65  1  0  0  0  0
 56 65  1  0  0  0  0
 57 76  1  0  0  0  0
 58 59  1  0  0  0  0
 59 60  1  0  0  0  0
 60 83  1  0  0  0  0
 61 64  1  0  0  0  0
 62 65  1  0  0  0  0
 62 75  1  0  0  0  0
 63 76  1  0  0  0  0
 66 69  1  0  0  0  0
M  CHG  1  76   1
M  ISO  4  35 100  60 101  64 100  83 101
M  END
> <Batch ID>
0077

> <Smiles>
CNC(C)C(=O)NC(C(=O)N1Cc2cc([101O:1][101CH2:1]CCc3cc(C(C)[100C:0](C)(C)[100C:0](=O)N4CCCC(n5nc(-c6ccc(Oc7ccc(F)cc7F)cc6)c(C(N)=O)c5N)C4)nc(C)n3)ccc2CC1C(=O)NC1CCCc2ccccc21)C(C)(C)C

> <Shape>
0.242

> <Color>
0.207

> <Negative vol penalty>
0.000

$$$$

  -OEChem-04052318373D

 85 93  0     1  0  0  0  0  0999 V2000
  -16.7832  -30.4643   23.1830 C   0  0  0  0  0  0  0  0  0  0  0  0
  -17.9497  -30.6883   22.4587 C   0  0  0  0  0  0  0  0  0  0  0  0
  -26.8090  -15.2614   21.4547 C   0  0  0  0  0  0  0  0  0  0  0  0
  -28.0454  -14.7222   19.4503 C   0  0  0  0  0  0  0  0  0  0  0  0
  -16.7357  -29.4385   24.1261 C   0  0  0  0  0  0  0  0  0  0  0  0
  -19.0698  -29.8872   22.6779 C   0  0  0  0  0  0  0  0  0  0  0  0
  -24.6835  -27.0752   19.2290 C   0  0  0  0  0  0  0  0  0  0  0  0
  -26.2714  -13.9744   21.4693 C   0  0  0  0  0  0  0  0  0  0  0  0
  -27.5079  -13.4351   19.4650 C   0  0  0  0  0  0  0  0  0  0  0  0
  -26.0720  -26.9897   19.3216 C   0  0  0  0  0  0  0  0  0  0  0  0
  -24.8535  -10.7165   22.2380 C   0  0  0  0  0  0  0  0  0  0  0  0
  -24.8258  -10.0391   23.4570 C   0  0  0  0  0  0  0  0  0  0  0  0
  -25.8488  -25.1963   20.9195 C   0  0  0  0  0  0  0  0  0  0  0  0
  -27.2328  -10.1931   23.5973 C   0  0  0  0  0  0  0  0  0  0  0  0
  -32.3828  -27.2394   20.3364 C   0  0  0  0  0  0  0  0  0  0  0  0
  -27.6959  -15.6353   20.4451 C   0  0  0  0  0  0  0  0  0  0  0  0
  -29.4403  -17.3970   21.0463 C   0  0  0  0  0  0  0  0  0  0  0  0
  -17.8527  -28.6182   24.3500 C   0  0  0  0  0  0  0  0  0  0  0  0
  -23.8658  -26.2279   19.9904 C   0  0  0  0  0  0  0  0  0  0  0  0
  -19.0376  -28.8502   23.6258 C   0  0  0  0  0  0  0  0  0  0  0  0
  -24.4503  -25.2714   20.8328 C   0  0  0  0  0  0  0  0  0  0  0  0
  -31.0586  -27.5917   20.1730 C   0  0  0  0  0  0  0  0  0  0  0  0
  -26.6209  -13.0612   20.4745 C   0  0  0  0  0  0  0  0  0  0  0  0
  -26.6548  -26.0521   20.1691 C   0  0  0  0  0  0  0  0  0  0  0  0
  -26.0709  -11.1321   21.6986 C   0  0  0  0  0  0  0  0  0  0  0  0
  -26.0154   -9.7774   24.1367 C   0  0  0  0  0  0  0  0  0  0  0  0
  -27.2605  -10.8704   22.3783 C   0  0  0  0  0  0  0  0  0  0  0  0
  -28.2511  -16.9648   20.4291 C   0  0  0  0  0  0  0  0  0  0  0  0
  -30.2336  -26.6009   19.6811 C   0  0  0  0  0  0  0  0  0  0  0  0
  -29.5222  -18.7325   20.7365 C   0  0  0  0  0  0  0  0  0  0  0  0
  -31.9704  -25.1383   19.5733 C   0  0  0  0  0  0  0  0  0  0  0  0
  -30.3864  -16.6572   21.8294 C   0  0  0  0  0  0  0  0  0  0  0  0
  -21.6827  -26.6616   22.2596 C   0  0  0  0  0  0  0  0  0  0  0  0
  -21.2604  -23.4633   21.9208 C   0  0  0  0  0  0  0  0  0  0  0  0
  -22.5563  -20.4553   20.9618 C   0  0  0  0  0  0  0  0  0  0  0  0
  -29.1077  -22.9098   17.0590 C   0  0  0  0  0  0  0  0  0  0  0  0
  -17.7689  -27.5521   25.4135 C   0  0  0  0  0  0  0  0  0  0  0  0
  -22.3699  -26.3147   19.8589 C   0  0  0  0  0  0  0  0  0  0  0  0
  -23.6169  -24.3247   21.6561 C   0  0  0  0  0  0  0  0  0  0  0  0
  -18.8789  -26.5085   25.3186 C   0  0  0  0  0  0  0  0  0  0  0  0
  -26.1151  -21.8476   18.6691 C   0  0  0  0  0  0  0  0  0  0  0  0
  -20.2322  -27.1848   25.1240 C   0  0  0  0  0  0  0  0  0  0  0  0
  -26.5004  -20.5160   19.3157 C   0  0  0  0  0  0  0  0  0  0  0  0
  -26.8031  -22.0396   17.3194 C   0  0  0  0  0  0  0  0  0  0  0  0
  -28.6556  -20.5601   17.9921 C   0  0  0  0  0  0  0  0  0  0  0  0
  -20.2655  -27.9867   23.8174 C   0  0  1  0  0  0  0  0  0  0  0  0
  -21.6301  -25.7489   21.0672 C   0  0  1  0  0  0  0  0  0  0  0  0
  -28.0302  -20.3463   19.3812 C   0  0  2  0  0  0  0  0  0  0  0  0
  -22.6084  -17.9993   20.4496 C   0  0  0  0  0  0  0  0  0  0  0  0
  -31.7397  -29.8552   21.0439 C   0  0  0  0  0  0  0  0  0  0  0  0
  -29.4762  -28.9158   21.6185 C   0  0  0  0  0  0  0  0  0  0  0  0
  -29.9425  -29.7634   19.3282 C   0  0  0  0  0  0  0  0  0  0  0  0
  -21.6907  -23.2140   24.9313 C   0  0  0  0  0  0  0  0  0  0  0  0
  -22.0582  -20.7590   24.6051 C   0  0  0  0  0  0  0  0  0  0  0  0
  -19.8586  -21.7781   24.0169 C   0  0  0  0  0  0  0  0  0  0  0  0
  -21.6760  -20.9005   18.1715 C   0  0  0  0  0  0  0  0  0  0  0  0
  -28.7736  -26.8691   19.4626 C   0  0  0  0  0  0  0  0  0  1  0  0
  -32.4765  -23.7755   19.2409 C   0  0  0  0  0  0  0  0  0  0  0  0
  -32.7226  -23.5351   17.7382 C   0  0  0  0  0  0  0  0  0  0  0  0
  -31.4704  -23.6455   16.8709 C   0  0  0  0  0  0  0  0  0  0  0  0
  -21.8670  -22.2323   22.5498 C   0  0  1  0  0  0  0  0  0  0  0  0
  -21.9884  -19.3429   20.0990 C   0  0  2  0  0  0  0  0  0  0  0  0
  -30.5783  -28.9556   20.5116 C   0  0  0  0  0  0  0  0  0  0  0  0
  -21.3846  -22.0148   24.0118 C   0  0  0  0  0  0  0  0  0  0  0  0
  -32.8748  -26.0173   20.0456 N   0  0  0  0  0  0  0  0  0  0  0  0
  -27.6226  -17.9464   19.7768 N   0  0  0  0  0  0  0  0  0  0  0  0
  -30.6576  -25.3586   19.3694 N   0  0  0  0  0  0  0  0  0  0  0  0
  -28.4198  -19.0085   19.9823 N   0  0  0  0  0  0  0  0  0  0  0  0
  -22.1588  -24.4530   21.4977 N   0  0  0  0  0  0  0  0  0  0  0  0
  -28.2518  -21.8673   17.4509 N   0  0  0  0  0  0  0  0  0  0  0  0
  -30.4289  -19.6861   21.0384 N   0  0  0  0  0  0  0  0  0  0  0  0
  -30.1494  -15.2937   22.0510 N   0  0  0  0  0  0  0  0  0  0  0  0
  -20.4443  -27.1022   22.6859 N   0  0  0  0  0  0  0  0  0  0  0  0
  -21.5661  -21.1238   21.6503 N   0  0  0  0  0  0  0  0  0  0  0  0
  -30.4660  -22.6667   17.2227 N   0  0  0  0  0  0  0  0  0  0  0  0
  -22.2504  -19.6198   18.6583 N   0  3  0  0  0  0  0  0  0  0  0  0
  -31.4031  -17.1932   22.3321 O   0  0  0  0  0  0  0  0  0  0  0  0
  -22.7664  -26.9439   22.7571 O   0  0  0  0  0  0  0  0  0  0  0  0
  -20.0350  -23.5406   21.8026 O   0  0  0  0  0  0  0  0  0  0  0  0
  -23.7584  -20.7039   21.0221 O   0  0  0  0  0  0  0  0  0  0  0  0
  -28.6920  -23.9801   16.6023 O   0  0  0  0  0  0  0  0  0  0  0  0
  -26.0967  -11.8052   20.4886 O   0  0  0  0  0  0  0  0  0  0  0  0
  -28.0098  -25.9669   20.2620 O   0  0  0  0  0  0  0  0  0  1  0  0
  -25.9884   -9.1283   25.3080 F   0  0  0  0  0  0  0  0  0  0  0  0
  -28.4330  -11.2683   21.8657 F   0  0  0  0  0  0  0  0  0  0  0  0
  1  2  1  0  0  0  0
  1  5  2  0  0  0  0
  2  6  2  0  0  0  0
  3  8  2  0  0  0  0
  3 16  1  0  0  0  0
  4  9  1  0  0  0  0
  4 16  2  0  0  0  0
  5 18  1  0  0  0  0
  6 20  1  0  0  0  0
  7 10  2  0  0  0  0
  7 19  1  0  0  0  0
  8 23  1  0  0  0  0
  9 23  2  0  0  0  0
 10 24  1  0  0  0  0
 11 12  2  0  0  0  0
 11 25  1  0  0  0  0
 12 26  1  0  0  0  0
 13 21  1  0  0  0  0
 13 24  2  0  0  0  0
 14 26  2  0  0  0  0
 14 27  1  0  0  0  0
 15 22  1  0  0  0  0
 15 65  2  0  0  0  0
 16 28  1  0  0  0  0
 17 28  1  0  0  0  0
 17 30  2  0  0  0  0
 17 32  1  0  0  0  0
 18 20  2  0  0  0  0
 18 37  1  0  0  0  0
 19 21  2  0  0  0  0
 19 38  1  0  0  0  0
 20 46  1  0  0  0  0
 21 39  1  0  0  0  0
 22 29  2  0  0  0  0
 22 63  1  0  0  0  0
 23 82  1  0  0  0  0
 24 83  1  0  0  0  0
 25 27  2  0  0  0  0
 25 82  1  0  0  0  0
 26 84  1  0  0  0  0
 27 85  1  0  0  0  0
 28 66  2  0  0  0  0
 29 57  1  0  0  0  0
 29 67  1  0  0  0  0
 30 68  1  0  0  0  0
 30 71  1  0  0  0  0
 31 58  1  0  0  0  0
 31 65  1  0  0  0  0
 31 67  2  0  0  0  0
 32 72  1  0  0  0  0
 32 77  2  0  0  0  0
 33 47  1  0  0  0  0
 33 73  1  0  0  0  0
 33 78  2  0  0  0  0
 34 61  1  0  0  0  0
 34 69  1  0  0  0  0
 34 79  2  0  0  0  0
 35 62  1  0  0  0  0
 35 74  1  0  0  0  0
 35 80  2  0  0  0  0
 36 70  1  0  0  0  0
 36 75  1  0  0  0  0
 36 81  2  0  0  0  0
 37 40  1  0  0  0  0
 38 47  1  0  0  0  0
 39 69  1  0  0  0  0
 40 42  1  0  0  0  0
 41 43  1  0  0  0  0
 41 44  1  0  0  0  0
 42 46  1  0  0  0  0
 43 48  1  0  0  0  0
 44 70  1  0  0  0  0
 45 48  1  0  0  0  0
 45 70  1  0  0  0  0
 46 73  1  0  0  0  0
 47 69  1  0  0  0  0
 48 68  1  0  0  0  0
 49 62  1  0  0  0  0
 50 63  1  0  0  0  0
 51 63  1  0  0  0  0
 52 63  1  0  0  0  0
 53 64  1  0  0  0  0
 54 64  1  0  0  0  0
 55 64  1  0  0  0  0
 56 76  1  0  0  0  0
 57 83  1  0  0  0  0
 58 59  1  0  0  0  0
 59 60  1  0  0  0  0
 60 75  1  0  0  0  0
 61 64  1  0  0  0  0
 61 74  1  0  0  0  0
 62 76  1  0  0  0  0
 66 68  1  0  0  0  0
M  CHG  1  76   1
M  ISO  4  36 100  57 101  75 100  83 101
M  END
> <Batch ID>
0077

> <Smiles>
CNC(C)C(=O)NC(C(=O)N1Cc2cc([101O:1][101CH2:1]c3nc(CCC[100NH:0][100C:0](=O)N4CCCC(n5nc(-c6ccc(Oc7ccc(F)cc7F)cc6)c(C(N)=O)c5N)C4)ncc3C(C)(C)C)ccc2CC1C(=O)NC1CCCc2ccccc21)C(C)(C)C

> <Shape>
0.216

> <Color>
0.064

> <Negative vol penalty>
0.000

$$$$

  -OEChem-04052318373D

 85 93  0     1  0  0  0  0  0999 V2000
  -18.0127  -24.8538   21.4440 C   0  0  0  0  0  0  0  0  0  0  0  0
  -19.3647  -24.7277   21.1411 C   0  0  0  0  0  0  0  0  0  0  0  0
  -22.6790  -14.2305   21.8992 C   0  0  0  0  0  0  0  0  0  0  0  0
  -23.4690  -16.5100   22.0283 C   0  0  0  0  0  0  0  0  0  0  0  0
  -17.5486  -25.9970   22.0933 C   0  0  0  0  0  0  0  0  0  0  0  0
  -20.2533  -25.7454   21.4866 C   0  0  0  0  0  0  0  0  0  0  0  0
  -24.5166  -23.9774   23.5707 C   0  0  0  0  0  0  0  0  0  0  0  0
  -21.8345  -14.4617   22.9850 C   0  0  0  0  0  0  0  0  0  0  0  0
  -22.6244  -16.7412   23.1140 C   0  0  0  0  0  0  0  0  0  0  0  0
  -25.4735  -23.4445   22.7082 C   0  0  0  0  0  0  0  0  0  0  0  0
  -18.8458  -15.9405   23.5454 C   0  0  0  0  0  0  0  0  0  0  0  0
  -17.5335  -15.4764   23.4562 C   0  0  0  0  0  0  0  0  0  0  0  0
  -26.7142  -25.5104   22.8179 C   0  0  0  0  0  0  0  0  0  0  0  0
  -17.8905  -14.0927   25.4043 C   0  0  0  0  0  0  0  0  0  0  0  0
  -28.8292  -20.6395   20.0794 C   0  0  0  0  0  0  0  0  0  0  0  0
  -23.4964  -15.2546   21.4209 C   0  0  0  0  0  0  0  0  0  0  0  0
  -24.0706  -15.1972   18.9360 C   0  0  0  0  0  0  0  0  0  0  0  0
  -18.4335  -27.0248   22.4555 C   0  0  0  0  0  0  0  0  0  0  0  0
  -24.6458  -25.2869   24.0555 C   0  0  0  0  0  0  0  0  0  0  0  0
  -19.8004  -26.9040   22.1402 C   0  0  0  0  0  0  0  0  0  0  0  0
  -25.7588  -26.0567   23.6885 C   0  0  0  0  0  0  0  0  0  0  0  0
  -21.8071  -15.7170   23.5924 C   0  0  0  0  0  0  0  0  0  0  0  0
  -26.5710  -24.2120   22.3294 C   0  0  0  0  0  0  0  0  0  0  0  0
  -19.6805  -15.4807   24.5640 C   0  0  0  0  0  0  0  0  0  0  0  0
  -17.0558  -14.5525   24.3856 C   0  0  0  0  0  0  0  0  0  0  0  0
  -19.2028  -14.5569   25.4935 C   0  0  0  0  0  0  0  0  0  0  0  0
  -24.3694  -15.0162   20.2998 C   0  0  0  0  0  0  0  0  0  0  0  0
  -28.4437  -21.9630   20.1425 C   0  0  0  0  0  0  0  0  0  0  0  0
  -29.8893  -20.3658   19.2394 C   0  0  0  0  0  0  0  0  0  0  0  0
  -25.2226  -14.8360   18.2812 C   0  0  0  0  0  0  0  0  0  0  0  0
  -30.0616  -22.5572   18.6606 C   0  0  0  0  0  0  0  0  0  0  0  0
  -22.8599  -15.6514   18.3166 C   0  0  0  0  0  0  0  0  0  0  0  0
  -22.9242  -27.9481   23.8147 C   0  0  0  0  0  0  0  0  0  0  0  0
  -25.1047  -29.0863   25.9295 C   0  0  0  0  0  0  0  0  0  0  0  0
  -28.2383  -28.8629   27.2628 C   0  0  0  0  0  0  0  0  0  0  0  0
  -30.9786  -14.7089   19.9252 C   0  0  0  0  0  0  0  0  0  0  0  0
  -17.8777  -28.2627   23.1139 C   0  0  0  0  0  0  0  0  0  0  0  0
  -23.6187  -25.8377   25.0064 C   0  0  0  0  0  0  0  0  0  0  0  0
  -25.9545  -27.4608   24.1972 C   0  0  0  0  0  0  0  0  0  0  0  0
  -18.9435  -29.1288   23.7805 C   0  0  0  0  0  0  0  0  0  0  0  0
  -29.0375  -11.9811   18.7137 C   0  0  0  0  0  0  0  0  0  0  0  0
  -20.1365  -29.3185   22.8491 C   0  0  0  0  0  0  0  0  0  0  0  0
  -27.5941  -12.4660   18.8598 C   0  0  0  0  0  0  0  0  0  0  0  0
  -29.9166  -12.4718   19.8619 C   0  0  0  0  0  0  0  0  0  0  0  0
  -28.4454  -14.4146   20.2298 C   0  0  0  0  0  0  0  0  0  0  0  0
  -20.7992  -27.9752   22.5208 C   0  0  1  0  0  0  0  0  0  0  0  0
  -23.5843  -27.3627   25.0310 C   0  0  1  0  0  0  0  0  0  0  0  0
  -27.5331  -13.9915   19.0658 C   0  0  2  0  0  0  0  0  0  0  0  0
  -30.7489  -23.6224   17.8751 C   0  0  0  0  0  0  0  0  0  0  0  0
  -30.8007  -18.6352   17.6479 C   0  0  0  0  0  0  0  0  0  0  0  0
  -29.7448  -29.9542   28.9470 C   0  0  0  0  0  0  0  0  0  0  0  0
  -25.5877  -31.3972   23.9966 C   0  0  0  0  0  0  0  0  0  0  0  0
  -27.7048  -31.8991   25.2353 C   0  0  0  0  0  0  0  0  0  0  0  0
  -25.5088  -32.0537   26.4085 C   0  0  0  0  0  0  0  0  0  0  0  0
  -32.7629  -19.3435   20.0844 C   0  0  0  0  0  0  0  0  0  0  0  0
  -30.9051  -18.6743   21.6078 C   0  0  0  0  0  0  0  0  0  0  0  0
  -28.4523  -26.3769   28.8543 C   0  0  0  0  0  0  0  0  0  0  0  0
  -27.3001  -22.3585   21.0297 C   0  0  0  0  0  0  0  0  0  1  0  0
  -31.8930  -17.0149   19.9994 C   0  0  0  0  0  0  0  0  0  0  0  0
  -30.3787  -18.9625   19.1068 C   0  0  1  0  0  0  0  0  0  0  0  0
  -26.4414  -29.7790   25.8184 C   0  0  1  0  0  0  0  0  0  0  0  0
  -28.7227  -28.8553   28.7014 C   0  0  2  0  0  0  0  0  0  0  0  0
  -26.3063  -31.2565   25.3534 C   0  0  0  0  0  0  0  0  0  0  0  0
  -31.4706  -18.5021   20.1771 C   0  0  0  0  0  0  0  0  0  0  0  0
  -25.6137  -14.5742   20.5007 N   0  0  0  0  0  0  0  0  0  0  0  0
  -29.0399  -22.9515   19.4442 N   0  0  0  0  0  0  0  0  0  0  0  0
  -30.5311  -21.3038   18.5123 N   0  0  0  0  0  0  0  0  0  0  0  0
  -26.1069  -14.4743   19.2545 N   0  0  0  0  0  0  0  0  0  0  0  0
  -24.9198  -27.9568   25.1196 N   0  0  0  0  0  0  0  0  0  0  0  0
  -29.8148  -13.9264   20.0029 N   0  0  0  0  0  0  0  0  0  0  0  0
  -25.5552  -14.7955   16.9735 N   0  0  0  0  0  0  0  0  0  0  0  0
  -21.7725  -15.9810   19.1371 N   0  0  0  0  0  0  0  0  0  0  0  0
  -21.6197  -27.5325   23.6277 N   0  0  0  0  0  0  0  0  0  0  0  0
  -27.0939  -29.6174   27.1132 N   0  0  0  0  0  0  0  0  0  0  0  0
  -30.7926  -16.0790   20.0628 N   0  0  0  0  0  0  0  0  0  0  0  0
  -29.3532  -27.5452   29.0287 N   0  3  0  0  0  0  0  0  0  0  0  0
  -22.7404  -15.7460   17.0715 O   0  0  0  0  0  0  0  0  0  0  0  0
  -23.5515  -28.7208   23.0998 O   0  0  0  0  0  0  0  0  0  0  0  0
  -24.2585  -29.5267   26.7116 O   0  0  0  0  0  0  0  0  0  0  0  0
  -28.8193  -28.2629   26.3611 O   0  0  0  0  0  0  0  0  0  0  0  0
  -32.0998  -14.2231   19.7411 O   0  0  0  0  0  0  0  0  0  0  0  0
  -20.9829  -15.9431   24.6517 O   0  0  0  0  0  0  0  0  0  0  0  0
  -27.5062  -23.6944   21.4871 O   0  0  0  0  0  0  0  0  0  1  0  0
  -15.7951  -14.1081   24.3008 F   0  0  0  0  0  0  0  0  0  0  0  0
  -19.9997  -14.1124   26.4750 F   0  0  0  0  0  0  0  0  0  0  0  0
  1  2  1  0  0  0  0
  1  5  2  0  0  0  0
  2  6  2  0  0  0  0
  3  8  2  0  0  0  0
  3 16  1  0  0  0  0
  4  9  1  0  0  0  0
  4 16  2  0  0  0  0
  5 18  1  0  0  0  0
  6 20  1  0  0  0  0
  7 10  2  0  0  0  0
  7 19  1  0  0  0  0
  8 22  1  0  0  0  0
  9 22  2  0  0  0  0
 10 23  1  0  0  0  0
 11 12  2  0  0  0  0
 11 24  1  0  0  0  0
 12 25  1  0  0  0  0
 13 21  1  0  0  0  0
 13 23  2  0  0  0  0
 14 25  2  0  0  0  0
 14 26  1  0  0  0  0
 15 28  1  0  0  0  0
 15 29  2  0  0  0  0
 16 27  1  0  0  0  0
 17 27  1  0  0  0  0
 17 30  2  0  0  0  0
 17 32  1  0  0  0  0
 18 20  2  0  0  0  0
 18 37  1  0  0  0  0
 19 21  2  0  0  0  0
 19 38  1  0  0  0  0
 20 46  1  0  0  0  0
 21 39  1  0  0  0  0
 22 82  1  0  0  0  0
 23 83  1  0  0  0  0
 24 26  2  0  0  0  0
 24 82  1  0  0  0  0
 25 84  1  0  0  0  0
 26 85  1  0  0  0  0
 27 65  2  0  0  0  0
 28 58  1  0  0  0  0
 28 66  2  0  0  0  0
 29 60  1  0  0  0  0
 29 67  1  0  0  0  0
 30 68  1  0  0  0  0
 30 71  1  0  0  0  0
 31 49  1  0  0  0  0
 31 66  1  0  0  0  0
 31 67  2  0  0  0  0
 32 72  1  0  0  0  0
 32 77  2  0  0  0  0
 33 47  1  0  0  0  0
 33 73  1  0  0  0  0
 33 78  2  0  0  0  0
 34 61  1  0  0  0  0
 34 69  1  0  0  0  0
 34 79  2  0  0  0  0
 35 62  1  0  0  0  0
 35 74  1  0  0  0  0
 35 80  2  0  0  0  0
 36 70  1  0  0  0  0
 36 75  1  0  0  0  0
 36 81  2  0  0  0  0
 37 40  1  0  0  0  0
 38 47  1  0  0  0  0
 39 69  1  0  0  0  0
 40 42  1  0  0  0  0
 41 43  1  0  0  0  0
 41 44  1  0  0  0  0
 42 46  1  0  0  0  0
 43 48  1  0  0  0  0
 44 70  1  0  0  0  0
 45 48  1  0  0  0  0
 45 70  1  0  0  0  0
 46 73  1  0  0  0  0
 47 69  1  0  0  0  0
 48 68  1  0  0  0  0
 50 60  1  0  0  0  0
 51 62  1  0  0  0  0
 52 63  1  0  0  0  0
 53 63  1  0  0  0  0
 54 63  1  0  0  0  0
 55 64  1  0  0  0  0
 56 64  1  0  0  0  0
 57 76  1  0  0  0  0
 58 83  1  0  0  0  0
 59 64  1  0  0  0  0
 59 75  1  0  0  0  0
 60 64  1  0  0  0  0
 61 63  1  0  0  0  0
 61 74  1  0  0  0  0
 62 76  1  0  0  0  0
 65 68  1  0  0  0  0
M  CHG  1  76   1
M  ISO  4  36 100  58 101  75 100  83 101
M  END
> <Batch ID>
0077

> <Smiles>
CNC(C)C(=O)NC(C(=O)N1Cc2cc([101O:1][101CH2:1]c3cc(C(C)C(C)(C)C[100NH:0][100C:0](=O)N4CCCC(n5nc(-c6ccc(Oc7ccc(F)cc7F)cc6)c(C(N)=O)c5N)C4)nc(C)n3)ccc2CC1C(=O)NC1CCCc2ccccc21)C(C)(C)C

> <Shape>
0.225

> <Color>
0.101

> <Negative vol penalty>
0.000

$$$$

  -OEChem-04052318373D

 85 93  0     1  0  0  0  0  0999 V2000
  -31.7545  -13.1045   21.9031 C   0  0  0  0  0  0  0  0  0  0  0  0
  -31.0972  -14.2512   22.3374 C   0  0  0  0  0  0  0  0  0  0  0  0
  -26.5509  -27.6251   21.3539 C   0  0  0  0  0  0  0  0  0  0  0  0
  -26.7984  -27.9339   18.9705 C   0  0  0  0  0  0  0  0  0  0  0  0
  -31.2124  -12.3406   20.8704 C   0  0  0  0  0  0  0  0  0  0  0  0
  -29.8979  -14.6351   21.7384 C   0  0  0  0  0  0  0  0  0  0  0  0
  -26.3910  -16.0142   25.1214 C   0  0  0  0  0  0  0  0  0  0  0  0
  -25.3788  -28.3809   21.3301 C   0  0  0  0  0  0  0  0  0  0  0  0
  -25.6263  -28.6897   18.9467 C   0  0  0  0  0  0  0  0  0  0  0  0
  -26.5107  -17.2859   25.6802 C   0  0  0  0  0  0  0  0  0  0  0  0
  -22.1379  -27.9253   20.4802 C   0  0  0  0  0  0  0  0  0  0  0  0
  -21.0382  -27.4383   21.1867 C   0  0  0  0  0  0  0  0  0  0  0  0
  -24.8311  -18.1072   24.1558 C   0  0  0  0  0  0  0  0  0  0  0  0
  -27.9873  -23.7130   24.0294 C   0  0  0  0  0  0  0  0  0  0  0  0
  -21.0250  -29.4371   22.5438 C   0  0  0  0  0  0  0  0  0  0  0  0
  -27.2608  -27.4017   20.1741 C   0  0  0  0  0  0  0  0  0  0  0  0
  -29.6463  -26.8970   20.9240 C   0  0  0  0  0  0  0  0  0  0  0  0
  -30.0010  -12.7101   20.2650 C   0  0  0  0  0  0  0  0  0  0  0  0
  -25.4968  -15.7816   24.0665 C   0  0  0  0  0  0  0  0  0  0  0  0
  -29.3399  -13.8761   20.6957 C   0  0  0  0  0  0  0  0  0  0  0  0
  -24.7001  -16.8311   23.5870 C   0  0  0  0  0  0  0  0  0  0  0  0
  -27.1035  -24.2099   24.9809 C   0  0  0  0  0  0  0  0  0  0  0  0
  -26.7081  -23.4038   26.0425 C   0  0  0  0  0  0  0  0  0  0  0  0
  -24.9165  -28.9132   20.1265 C   0  0  0  0  0  0  0  0  0  0  0  0
  -25.7328  -18.3333   25.1955 C   0  0  0  0  0  0  0  0  0  0  0  0
  -22.6813  -29.1681   20.8056 C   0  0  0  0  0  0  0  0  0  0  0  0
  -20.4817  -28.1943   22.2184 C   0  0  0  0  0  0  0  0  0  0  0  0
  -22.1248  -29.9240   21.8374 C   0  0  0  0  0  0  0  0  0  0  0  0
  -28.4719  -26.6215   20.1982 C   0  0  0  0  0  0  0  0  0  0  0  0
  -28.4430  -22.4136   24.1836 C   0  0  0  0  0  0  0  0  0  0  0  0
  -27.2209  -22.1182   26.1065 C   0  0  0  0  0  0  0  0  0  0  0  0
  -30.4946  -25.8636   20.6095 C   0  0  0  0  0  0  0  0  0  0  0  0
  -29.9436  -27.9893   21.8038 C   0  0  0  0  0  0  0  0  0  0  0  0
  -25.7884  -14.8337   21.0465 C   0  0  0  0  0  0  0  0  0  0  0  0
  -22.5461  -14.8251   21.1448 C   0  0  0  0  0  0  0  0  0  0  0  0
  -19.6881  -16.0077   22.5871 C   0  0  0  0  0  0  0  0  0  0  0  0
  -29.0833  -20.2835   18.5098 C   0  0  0  0  0  0  0  0  0  0  0  0
  -29.4783  -11.8787   19.1203 C   0  0  0  0  0  0  0  0  0  0  0  0
  -25.3602  -14.3980   23.4925 C   0  0  0  0  0  0  0  0  0  0  0  0
  -23.7105  -16.6290   22.4698 C   0  0  0  0  0  0  0  0  0  0  0  0
  -28.0120  -12.1480   18.7917 C   0  0  0  0  0  0  0  0  0  0  0  0
  -31.4827  -22.7411   17.1298 C   0  0  0  0  0  0  0  0  0  0  0  0
  -27.7449  -13.6487   18.7335 C   0  0  0  0  0  0  0  0  0  0  0  0
  -31.0274  -24.0492   17.7743 C   0  0  0  0  0  0  0  0  0  0  0  0
  -30.3287  -21.7560   16.9697 C   0  0  0  0  0  0  0  0  0  0  0  0
  -29.1405  -22.7842   18.8789 C   0  0  0  0  0  0  0  0  0  0  0  0
  -28.0243  -14.3117   20.0877 C   0  0  1  0  0  0  0  0  0  0  0  0
  -24.7891  -14.3917   22.0779 C   0  0  1  0  0  0  0  0  0  0  0  0
  -30.2886  -23.7811   19.0970 C   0  0  2  0  0  0  0  0  0  0  0  0
  -26.5937  -25.6060   24.8388 C   0  0  0  0  0  0  0  0  0  0  0  0
  -25.7631  -23.9108   27.0794 C   0  0  0  0  0  0  0  0  0  0  0  0
  -17.1889  -15.8469   22.4278 C   0  0  0  0  0  0  0  0  0  0  0  0
  -22.5911  -16.6131   18.6728 C   0  0  0  0  0  0  0  0  0  0  0  0
  -20.1955  -17.1820   19.1263 C   0  0  0  0  0  0  0  0  0  0  0  0
  -20.8441  -14.8240   18.6345 C   0  0  0  0  0  0  0  0  0  0  0  0
  -28.4766  -18.5895   20.1957 C   0  0  0  0  0  0  0  0  0  0  0  0
  -19.4651  -14.9428   25.3394 C   0  0  0  0  0  0  0  0  0  0  0  0
  -29.3936  -21.8474   23.1823 C   0  0  0  0  0  0  0  0  0  0  0  0
  -26.8302  -21.1962   27.2359 C   0  0  0  0  0  0  0  0  0  0  0  0
  -28.7182  -21.1350   21.9943 C   0  0  0  0  0  0  0  0  0  0  0  0
  -29.6915  -20.6014   20.9453 C   0  0  0  0  0  0  0  0  0  0  0  0
  -26.7858  -19.7349   26.8025 C   0  0  0  0  0  0  0  0  0  1  0  0
  -21.4653  -15.8411   20.8643 C   0  0  1  0  0  0  0  0  0  0  0  0
  -18.4437  -15.2968   23.0877 C   0  0  2  0  0  0  0  0  0  0  0  0
  -21.2939  -16.1196   19.3442 C   0  0  0  0  0  0  0  0  0  0  0  0
  -28.5625  -25.5010   19.4768 N   0  0  0  0  0  0  0  0  0  0  0  0
  -28.0813  -21.6005   25.2013 N   0  0  0  0  0  0  0  0  0  0  0  0
  -29.8039  -25.0633   19.7478 N   0  0  0  0  0  0  0  0  0  0  0  0
  -23.6181  -15.2595   21.9372 N   0  0  0  0  0  0  0  0  0  0  0  0
  -29.6173  -21.5525   18.2321 N   0  0  0  0  0  0  0  0  0  0  0  0
  -31.7566  -25.5705   20.9888 N   0  0  0  0  0  0  0  0  0  0  0  0
  -30.5188  -29.1466   21.2615 N   0  0  0  0  0  0  0  0  0  0  0  0
  -26.9344  -14.0626   21.0068 N   0  0  0  0  0  0  0  0  0  0  0  0
  -20.2599  -15.3466   21.5207 N   0  0  0  0  0  0  0  0  0  0  0  0
  -29.0120  -19.9007   19.8578 N   0  0  0  0  0  0  0  0  0  0  0  0
  -18.3104  -15.4627   24.5627 N   0  3  0  0  0  0  0  0  0  0  0  0
  -29.7215  -27.9342   23.0372 O   0  0  0  0  0  0  0  0  0  0  0  0
  -25.5376  -15.8017   20.3381 O   0  0  0  0  0  0  0  0  0  0  0  0
  -22.4395  -13.6858   20.6840 O   0  0  0  0  0  0  0  0  0  0  0  0
  -20.1086  -17.0477   23.0894 O   0  0  0  0  0  0  0  0  0  0  0  0
  -28.7014  -19.5315   17.6040 O   0  0  0  0  0  0  0  0  0  0  0  0
  -23.7726  -29.6505   20.1028 O   0  0  0  0  0  0  0  0  0  0  0  0
  -25.8481  -19.5757   25.7387 O   0  0  0  0  0  0  0  0  0  1  0  0
  -19.4246  -27.7272   22.8957 F   0  0  0  0  0  0  0  0  0  0  0  0
  -22.6417  -31.1192   22.1537 F   0  0  0  0  0  0  0  0  0  0  0  0
  1  2  1  0  0  0  0
  1  5  2  0  0  0  0
  2  6  2  0  0  0  0
  3  8  2  0  0  0  0
  3 16  1  0  0  0  0
  4  9  1  0  0  0  0
  4 16  2  0  0  0  0
  5 18  1  0  0  0  0
  6 20  1  0  0  0  0
  7 10  2  0  0  0  0
  7 19  1  0  0  0  0
  8 24  1  0  0  0  0
  9 24  2  0  0  0  0
 10 25  1  0  0  0  0
 11 12  2  0  0  0  0
 11 26  1  0  0  0  0
 12 27  1  0  0  0  0
 13 21  1  0  0  0  0
 13 25  2  0  0  0  0
 14 22  2  0  0  0  0
 14 30  1  0  0  0  0
 15 27  2  0  0  0  0
 15 28  1  0  0  0  0
 16 29  1  0  0  0  0
 17 29  1  0  0  0  0
 17 32  2  0  0  0  0
 17 33  1  0  0  0  0
 18 20  2  0  0  0  0
 18 38  1  0  0  0  0
 19 21  2  0  0  0  0
 19 39  1  0  0  0  0
 20 47  1  0  0  0  0
 21 40  1  0  0  0  0
 22 23  1  0  0  0  0
 22 50  1  0  0  0  0
 23 31  2  0  0  0  0
 23 51  1  0  0  0  0
 24 82  1  0  0  0  0
 25 83  1  0  0  0  0
 26 28  2  0  0  0  0
 26 82  1  0  0  0  0
 27 84  1  0  0  0  0
 28 85  1  0  0  0  0
 29 66  2  0  0  0  0
 30 58  1  0  0  0  0
 30 67  2  0  0  0  0
 31 59  1  0  0  0  0
 31 67  1  0  0  0  0
 32 68  1  0  0  0  0
 32 71  1  0  0  0  0
 33 72  1  0  0  0  0
 33 77  2  0  0  0  0
 34 48  1  0  0  0  0
 34 73  1  0  0  0  0
 34 78  2  0  0  0  0
 35 63  1  0  0  0  0
 35 69  1  0  0  0  0
 35 79  2  0  0  0  0
 36 64  1  0  0  0  0
 36 74  1  0  0  0  0
 36 80  2  0  0  0  0
 37 70  1  0  0  0  0
 37 75  1  0  0  0  0
 37 81  2  0  0  0  0
 38 41  1  0  0  0  0
 39 48  1  0  0  0  0
 40 69  1  0  0  0  0
 41 43  1  0  0  0  0
 42 44  1  0  0  0  0
 42 45  1  0  0  0  0
 43 47  1  0  0  0  0
 44 49  1  0  0  0  0
 45 70  1  0  0  0  0
 46 49  1  0  0  0  0
 46 70  1  0  0  0  0
 47 73  1  0  0  0  0
 48 69  1  0  0  0  0
 49 68  1  0  0  0  0
 52 64  1  0  0  0  0
 53 65  1  0  0  0  0
 54 65  1  0  0  0  0
 55 65  1  0  0  0  0
 56 75  1  0  0  0  0
 57 76  1  0  0  0  0
 58 60  1  0  0  0  0
 59 62  1  0  0  0  0
 60 61  1  0  0  0  0
 61 75  1  0  0  0  0
 62 83  1  0  0  0  0
 63 65  1  0  0  0  0
 63 74  1  0  0  0  0
 64 76  1  0  0  0  0
 66 68  1  0  0  0  0
M  CHG  1  76   1
M  ISO  4  37 100  62 101  75 100  83 101
M  END
> <Batch ID>
0077

> <Smiles>
CNC(C)C(=O)NC(C(=O)N1Cc2cc([101O:1][101CH2:1]Cc3nc(CCC[100N:0](C)[100C:0](=O)N4CCCC(n5nc(-c6ccc(Oc7ccc(F)cc7F)cc6)c(C(N)=O)c5N)C4)cc(C)c3C)ccc2CC1C(=O)NC1CCCc2ccccc21)C(C)(C)C

> <Shape>
0.235

> <Color>
0.062

> <Negative vol penalty>
0.000

$$$$

  -OEChem-04052318373D

 85 93  0     1  0  0  0  0  0999 V2000
  -21.9307  -11.9967   19.4091 C   0  0  0  0  0  0  0  0  0  0  0  0
  -21.6456  -13.2055   20.0359 C   0  0  0  0  0  0  0  0  0  0  0  0
  -27.4484  -30.3573   21.5091 C   0  0  0  0  0  0  0  0  0  0  0  0
  -26.3584  -29.0926   23.2554 C   0  0  0  0  0  0  0  0  0  0  0  0
  -23.2404  -11.5194   19.3804 C   0  0  0  0  0  0  0  0  0  0  0  0
  -22.6701  -13.9373   20.6354 C   0  0  0  0  0  0  0  0  0  0  0  0
  -23.1526  -20.0353   20.9302 C   0  0  0  0  0  0  0  0  0  0  0  0
  -19.8171  -28.6073   22.5104 C   0  0  0  0  0  0  0  0  0  0  0  0
  -27.9827  -31.2192   22.4667 C   0  0  0  0  0  0  0  0  0  0  0  0
  -26.8928  -29.9545   24.2131 C   0  0  0  0  0  0  0  0  0  0  0  0
  -22.8449  -20.9532   21.9335 C   0  0  0  0  0  0  0  0  0  0  0  0
  -29.3409  -33.9659   24.4249 C   0  0  0  0  0  0  0  0  0  0  0  0
  -29.2812  -35.3362   24.1717 C   0  0  0  0  0  0  0  0  0  0  0  0
  -19.4649  -27.8062   21.4299 C   0  0  0  0  0  0  0  0  0  0  0  0
  -25.1442  -20.9179   22.6625 C   0  0  0  0  0  0  0  0  0  0  0  0
  -26.8704  -35.2126   24.0713 C   0  0  0  0  0  0  0  0  0  0  0  0
  -26.6362  -29.2939   21.9034 C   0  0  0  0  0  0  0  0  0  0  0  0
  -26.6618  -27.2198   20.4185 C   0  0  0  0  0  0  0  0  0  0  0  0
  -24.2829  -12.2505   19.9714 C   0  0  0  0  0  0  0  0  0  0  0  0
  -24.4583  -19.5427   20.7922 C   0  0  0  0  0  0  0  0  0  0  0  0
  -23.9947  -13.4687   20.6158 C   0  0  0  0  0  0  0  0  0  0  0  0
  -25.4664  -19.9958   21.6551 C   0  0  0  0  0  0  0  0  0  0  0  0
  -20.8421  -28.2072   23.3605 C   0  0  0  0  0  0  0  0  0  0  0  0
  -27.7049  -31.0178   23.8187 C   0  0  0  0  0  0  0  0  0  0  0  0
  -23.8401  -21.3924   22.8017 C   0  0  0  0  0  0  0  0  0  0  0  0
  -28.1654  -33.2188   24.5013 C   0  0  0  0  0  0  0  0  0  0  0  0
  -28.0460  -35.9596   23.9949 C   0  0  0  0  0  0  0  0  0  0  0  0
  -26.9302  -33.8422   24.3245 C   0  0  0  0  0  0  0  0  0  0  0  0
  -26.0834  -28.4036   20.9145 C   0  0  0  0  0  0  0  0  0  0  0  0
  -20.1630  -26.6237   21.2445 C   0  0  0  0  0  0  0  0  0  0  0  0
  -21.4784  -27.0067   23.0888 C   0  0  0  0  0  0  0  0  0  0  0  0
  -25.7488  -26.7472   19.5076 C   0  0  0  0  0  0  0  0  0  0  0  0
  -27.9123  -26.6026   20.7513 C   0  0  0  0  0  0  0  0  0  0  0  0
  -25.8038  -16.6694   20.9849 C   0  0  0  0  0  0  0  0  0  0  0  0
  -28.4444  -18.2685   19.9888 C   0  0  0  0  0  0  0  0  0  0  0  0
  -19.9928  -26.4563   18.7789 C   0  0  0  0  0  0  0  0  0  0  0  0
  -30.1189  -21.2328   19.7518 C   0  0  0  0  0  0  0  0  0  0  0  0
  -25.6753  -11.6711   19.9562 C   0  0  0  0  0  0  0  0  0  0  0  0
  -24.7797  -18.5733   19.6879 C   0  0  0  0  0  0  0  0  0  0  0  0
  -26.8881  -19.5131   21.5362 C   0  0  0  0  0  0  0  0  0  0  0  0
  -26.7626  -12.6897   20.2886 C   0  0  0  0  0  0  0  0  0  0  0  0
  -22.0435  -28.7340   16.9224 C   0  0  0  0  0  0  0  0  0  0  0  0
  -26.3693  -13.5098   21.5133 C   0  0  0  0  0  0  0  0  0  0  0  0
  -23.3391  -28.7912   17.7307 C   0  0  0  0  0  0  0  0  0  0  0  0
  -20.8261  -28.5817   17.8288 C   0  0  0  0  0  0  0  0  0  0  0  0
  -22.1936  -27.4640   19.5615 C   0  0  0  0  0  0  0  0  0  0  0  0
  -25.0827  -14.3034   21.2558 C   0  0  1  0  0  0  0  0  0  0  0  0
  -26.0324  -17.7475   19.9636 C   0  0  1  0  0  0  0  0  0  0  0  0
  -23.4507  -27.5867   18.6821 C   0  0  2  0  0  0  0  0  0  0  0  0
  -21.2230  -29.0606   24.5204 C   0  0  0  0  0  0  0  0  0  0  0  0
  -32.2716  -22.2181   18.9199 C   0  0  0  0  0  0  0  0  0  0  0  0
  -18.3303  -25.2864   20.1744 C   0  0  0  0  0  0  0  0  0  0  0  0
  -20.6715  -24.4526   19.9352 C   0  0  0  0  0  0  0  0  0  0  0  0
  -29.9069  -17.1022   22.3992 C   0  0  0  0  0  0  0  0  0  0  0  0
  -31.6933  -18.8233   22.0603 C   0  0  0  0  0  0  0  0  0  0  0  0
  -31.2405  -17.1316   20.2838 C   0  0  0  0  0  0  0  0  0  0  0  0
  -28.7065  -23.0080   17.8511 C   0  0  0  0  0  0  0  0  0  0  0  0
  -22.6009  -26.5228   23.9758 C   0  0  0  0  0  0  0  0  0  0  0  0
  -23.9578  -24.4941   24.6324 C   0  0  0  0  0  0  0  0  0  0  0  0
  -24.5828  -23.1759   24.1886 C   0  0  0  0  0  0  0  0  0  1  0  0
  -29.5766  -18.9946   20.6743 C   0  0  1  0  0  0  0  0  0  0  0  0
  -30.8223  -21.9018   18.5848 C   0  0  2  0  0  0  0  0  0  0  0  0
  -23.1722  -25.1770   23.5079 C   0  0  2  0  0  0  0  0  0  0  0  0
  -19.8124  -25.7405   20.0938 C   0  0  0  0  0  0  0  0  0  0  0  0
  -30.5772  -18.0207   21.3582 C   0  0  0  0  0  0  0  0  0  0  0  0
  -24.8952  -28.6669   20.3643 N   0  0  0  0  0  0  0  0  0  0  0  0
  -21.1642  -26.2018   22.0490 N   0  0  0  0  0  0  0  0  0  0  0  0
  -24.7195  -27.6419   19.5130 N   0  0  0  0  0  0  0  0  0  0  0  0
  -27.1511  -18.5609   20.4446 N   0  0  0  0  0  0  0  0  0  0  0  0
  -20.9806  -27.4403   18.7324 N   0  0  0  0  0  0  0  0  0  0  0  0
  -25.7343  -25.6578   18.7105 N   0  0  0  0  0  0  0  0  0  0  0  0
  -28.7290  -27.2210   21.7079 N   0  0  0  0  0  0  0  0  0  0  0  0
  -25.3630  -15.4733   20.4513 N   0  0  0  0  0  0  0  0  0  0  0  0
  -30.1787  -19.8580   19.6642 N   0  0  0  0  0  0  0  0  0  0  0  0
  -30.1345  -23.1741   18.2258 N   0  3  0  0  0  0  0  0  0  0  0  0
  -28.3017  -25.5430   20.2044 O   0  0  0  0  0  0  0  0  0  0  0  0
  -26.0132  -16.9047   22.1691 O   0  0  0  0  0  0  0  0  0  0  0  0
  -28.6976  -17.4767   19.0775 O   0  0  0  0  0  0  0  0  0  0  0  0
  -19.2783  -26.1467   17.8219 O   0  0  0  0  0  0  0  0  0  0  0  0
  -29.5742  -21.8664   20.6532 O   0  0  0  0  0  0  0  0  0  0  0  0
  -24.0375  -25.3904   22.3929 O   0  0  0  0  0  0  0  0  0  0  0  0
  -28.2264  -31.8585   24.7535 O   0  0  0  0  0  0  0  0  0  0  0  0
  -23.5423  -22.2878   23.7822 O   0  0  0  0  0  0  0  0  0  1  0  0
  -27.9887  -37.2758   23.7532 F   0  0  0  0  0  0  0  0  0  0  0  0
  -25.7974  -33.1299   24.3979 F   0  0  0  0  0  0  0  0  0  0  0  0
  1  2  1  0  0  0  0
  1  5  2  0  0  0  0
  2  6  2  0  0  0  0
  3  9  2  0  0  0  0
  3 17  1  0  0  0  0
  4 10  1  0  0  0  0
  4 17  2  0  0  0  0
  5 19  1  0  0  0  0
  6 21  1  0  0  0  0
  7 11  2  0  0  0  0
  7 20  1  0  0  0  0
  8 14  2  0  0  0  0
  8 23  1  0  0  0  0
  9 24  1  0  0  0  0
 10 24  2  0  0  0  0
 11 25  1  0  0  0  0
 12 13  2  0  0  0  0
 12 26  1  0  0  0  0
 13 27  1  0  0  0  0
 14 30  1  0  0  0  0
 15 22  1  0  0  0  0
 15 25  2  0  0  0  0
 16 27  2  0  0  0  0
 16 28  1  0  0  0  0
 17 29  1  0  0  0  0
 18 29  1  0  0  0  0
 18 32  2  0  0  0  0
 18 33  1  0  0  0  0
 19 21  2  0  0  0  0
 19 38  1  0  0  0  0
 20 22  2  0  0  0  0
 20 39  1  0  0  0  0
 21 47  1  0  0  0  0
 22 40  1  0  0  0  0
 23 31  2  0  0  0  0
 23 50  1  0  0  0  0
 24 82  1  0  0  0  0
 25 83  1  0  0  0  0
 26 28  2  0  0  0  0
 26 82  1  0  0  0  0
 27 84  1  0  0  0  0
 28 85  1  0  0  0  0
 29 66  2  0  0  0  0
 30 64  1  0  0  0  0
 30 67  2  0  0  0  0
 31 58  1  0  0  0  0
 31 67  1  0  0  0  0
 32 68  1  0  0  0  0
 32 71  1  0  0  0  0
 33 72  1  0  0  0  0
 33 76  2  0  0  0  0
 34 48  1  0  0  0  0
 34 73  1  0  0  0  0
 34 77  2  0  0  0  0
 35 61  1  0  0  0  0
 35 69  1  0  0  0  0
 35 78  2  0  0  0  0
 36 64  1  0  0  0  0
 36 70  1  0  0  0  0
 36 79  2  0  0  0  0
 37 62  1  0  0  0  0
 37 74  1  0  0  0  0
 37 80  2  0  0  0  0
 38 41  1  0  0  0  0
 39 48  1  0  0  0  0
 40 69  1  0  0  0  0
 41 43  1  0  0  0  0
 42 44  1  0  0  0  0
 42 45  1  0  0  0  0
 43 47  1  0  0  0  0
 44 49  1  0  0  0  0
 45 70  1  0  0  0  0
 46 49  1  0  0  0  0
 46 70  1  0  0  0  0
 47 73  1  0  0  0  0
 48 69  1  0  0  0  0
 49 68  1  0  0  0  0
 51 62  1  0  0  0  0
 52 64  1  0  0  0  0
 53 64  1  0  0  0  0
 54 65  1  0  0  0  0
 55 65  1  0  0  0  0
 56 65  1  0  0  0  0
 57 75  1  0  0  0  0
 58 63  1  0  0  0  0
 59 60  1  0  0  0  0
 59 63  1  0  0  0  0
 60 83  1  0  0  0  0
 61 65  1  0  0  0  0
 61 74  1  0  0  0  0
 62 75  1  0  0  0  0
 63 81  1  0  0  0  0
 66 68  1  0  0  0  0
M  CHG  1  75   1
M  ISO  4  36 100  60 101  64 100  83 101
M  END
> <Batch ID>
0077

> <Smiles>
CNC(C)C(=O)NC(C(=O)N1Cc2cc([101O:1][101CH2:1]CC(O)Cc3nc([100C:0](C)(C)[100C:0](=O)N4CCCC(n5nc(-c6ccc(Oc7ccc(F)cc7F)cc6)c(C(N)=O)c5N)C4)ccc3C)ccc2CC1C(=O)NC1CCCc2ccccc21)C(C)(C)C

> <Shape>
0.276

> <Color>
0.056

> <Negative vol penalty>
0.000

$$$$

  -OEChem-04052318373D

 87 95  0     1  0  0  0  0  0999 V2000
  -35.3053  -21.7645   14.5092 C   0  0  0  0  0  0  0  0  0  0  0  0
  -34.4616  -21.7345   15.6149 C   0  0  0  0  0  0  0  0  0  0  0  0
  -23.0874   -9.8630   19.9448 C   0  0  0  0  0  0  0  0  0  0  0  0
  -23.7007   -9.9601   22.2796 C   0  0  0  0  0  0  0  0  0  0  0  0
  -36.3247  -22.7130   14.4371 C   0  0  0  0  0  0  0  0  0  0  0  0
  -34.6374  -22.6525   16.6497 C   0  0  0  0  0  0  0  0  0  0  0  0
  -30.2673  -24.6779   18.2133 C   0  0  0  0  0  0  0  0  0  0  0  0
  -22.3307   -8.7175   20.1911 C   0  0  0  0  0  0  0  0  0  0  0  0
  -22.9440   -8.8146   22.5260 C   0  0  0  0  0  0  0  0  0  0  0  0
  -29.4678  -23.8995   19.0492 C   0  0  0  0  0  0  0  0  0  0  0  0
  -23.2738   -5.4749   22.1157 C   0  0  0  0  0  0  0  0  0  0  0  0
  -23.8440   -4.4800   22.9097 C   0  0  0  0  0  0  0  0  0  0  0  0
  -30.2901  -25.1191   20.9612 C   0  0  0  0  0  0  0  0  0  0  0  0
  -22.0378   -4.7121   24.4975 C   0  0  0  0  0  0  0  0  0  0  0  0
  -30.8995  -19.1711   22.4852 C   0  0  0  0  0  0  0  0  0  0  0  0
  -23.7725  -10.4843   20.9890 C   0  0  0  0  0  0  0  0  0  0  0  0
  -24.1180  -13.0043   20.7943 C   0  0  0  0  0  0  0  0  0  0  0  0
  -36.5070  -23.6492   15.4670 C   0  0  0  0  0  0  0  0  0  0  0  0
  -31.0938  -25.6771   18.7470 C   0  0  0  0  0  0  0  0  0  0  0  0
  -35.6610  -23.6136   16.5919 C   0  0  0  0  0  0  0  0  0  0  0  0
  -31.0972  -25.9105   20.1296 C   0  0  0  0  0  0  0  0  0  0  0  0
  -22.2590   -8.1933   21.4818 C   0  0  0  0  0  0  0  0  0  0  0  0
  -29.4813  -24.1181   20.4237 C   0  0  0  0  0  0  0  0  0  0  0  0
  -22.0857   -6.0885   22.5125 C   0  0  0  0  0  0  0  0  0  0  0  0
  -23.2260   -4.0986   24.1006 C   0  0  0  0  0  0  0  0  0  0  0  0
  -21.4677   -5.7071   23.7034 C   0  0  0  0  0  0  0  0  0  0  0  0
  -24.5548  -11.6674   20.7350 C   0  0  0  0  0  0  0  0  0  0  0  0
  -30.6715  -20.5267   22.3642 C   0  0  0  0  0  0  0  0  0  0  0  0
  -32.0504  -18.7033   21.8847 C   0  0  0  0  0  0  0  0  0  0  0  0
  -25.2299  -13.7435   20.4723 C   0  0  0  0  0  0  0  0  0  0  0  0
  -32.5856  -20.7929   21.1674 C   0  0  0  0  0  0  0  0  0  0  0  0
  -22.8229  -13.5310   21.1121 C   0  0  0  0  0  0  0  0  0  0  0  0
  -34.2288  -26.1977   18.8110 C   0  0  0  0  0  0  0  0  0  0  0  0
  -30.5936  -14.7638   21.1564 C   0  0  0  0  0  0  0  0  0  0  0  0
  -33.3409  -29.0077   20.1666 C   0  0  0  0  0  0  0  0  0  0  0  0
  -31.0002  -30.7667   21.9199 C   0  0  0  0  0  0  0  0  0  0  0  0
  -37.6523  -24.6253   15.3665 C   0  0  0  0  0  0  0  0  0  0  0  0
  -31.9301  -26.5259   17.8291 C   0  0  0  0  0  0  0  0  0  0  0  0
  -31.9515  -26.9843   20.7504 C   0  0  0  0  0  0  0  0  0  0  0  0
  -37.5359  -25.8025   16.3313 C   0  0  0  0  0  0  0  0  0  0  0  0
  -29.7039  -12.3342   18.6006 C   0  0  0  0  0  0  0  0  0  0  0  0
  -37.1661  -25.3135   17.7280 C   0  0  0  0  0  0  0  0  0  0  0  0
  -28.2489  -12.0335   18.9579 C   0  0  0  0  0  0  0  0  0  0  0  0
  -30.5478  -12.5852   19.8475 C   0  0  0  0  0  0  0  0  0  0  0  0
  -28.5548  -13.3636   21.0911 C   0  0  0  0  0  0  0  0  0  0  0  0
  -35.8043  -24.6085   17.7231 C   0  0  1  0  0  0  0  0  0  0  0  0
  -33.1199  -27.1724   18.5319 C   0  0  1  0  0  0  0  0  0  0  0  0
  -27.6632  -13.1345   19.8592 C   0  0  2  0  0  0  0  0  0  0  0  0
  -33.5243  -21.6936   20.4384 C   0  0  0  0  0  0  0  0  0  0  0  0
  -33.6428  -17.0000   22.8396 C   0  0  0  0  0  0  0  0  0  0  0  0
  -32.8832  -14.1412   21.7395 C   0  0  0  0  0  0  0  0  0  0  0  0
  -30.5735  -33.0319   22.9119 C   0  0  0  0  0  0  0  0  0  0  0  0
  -35.2465  -28.3598   22.4597 C   0  0  0  0  0  0  0  0  0  0  0  0
  -34.0952  -30.1176   23.8208 C   0  0  0  0  0  0  0  0  0  0  0  0
  -35.2804  -30.7480   21.7183 C   0  0  0  0  0  0  0  0  0  0  0  0
  -31.4775  -17.1430   19.5660 C   0  0  0  0  0  0  0  0  0  0  0  0
  -33.8590  -16.5081   19.9618 C   0  0  0  0  0  0  0  0  0  0  0  0
  -28.6147  -31.1898   20.2201 C   0  0  0  0  0  0  0  0  0  0  0  0
  -29.4393  -21.1316   22.9882 C   0  0  0  0  0  0  0  0  0  0  0  0
  -28.2251  -21.1540   22.0572 C   0  0  0  0  0  0  0  0  0  0  0  0
  -28.4275  -22.0237   20.8218 C   0  0  0  0  0  0  0  0  0  1  0  0
  -32.3826  -17.2508   21.9638 C   0  0  2  0  0  0  0  0  0  0  0  0
  -32.0339  -14.9350   20.7440 C   0  0  2  0  0  0  0  0  0  0  0  0
  -33.0956  -29.4834   21.5781 C   0  0  1  0  0  0  0  0  0  0  0  0
  -30.3939  -32.1399   21.6934 C   0  0  2  0  0  0  0  0  0  0  0  0
  -34.4147  -29.6556   22.3831 C   0  0  0  0  0  0  0  0  0  0  0  0
  -32.4347  -16.4506   20.5702 C   0  0  0  0  0  0  0  0  0  0  0  0
  -25.8437  -11.5603   20.4014 N   0  0  0  0  0  0  0  0  0  0  0  0
  -31.4966  -21.3701   21.7099 N   0  0  0  0  0  0  0  0  0  0  0  0
  -32.9191  -19.4890   21.2150 N   0  0  0  0  0  0  0  0  0  0  0  0
  -26.2263  -12.8395   20.2481 N   0  0  0  0  0  0  0  0  0  0  0  0
  -32.7564  -27.7836   19.8119 N   0  0  0  0  0  0  0  0  0  0  0  0
  -29.9418  -13.6207   20.6930 N   0  0  0  0  0  0  0  0  0  0  0  0
  -25.4428  -15.0719   20.3619 N   0  0  0  0  0  0  0  0  0  0  0  0
  -21.7928  -12.6316   21.4193 N   0  0  0  0  0  0  0  0  0  0  0  0
  -34.7324  -25.5801   17.6821 N   0  0  0  0  0  0  0  0  0  0  0  0
  -32.3007  -30.7015   21.4661 N   0  0  0  0  0  0  0  0  0  0  0  0
  -28.9359  -32.0216   21.4083 N   0  3  0  0  0  0  0  0  0  0  0  0
  -22.5819  -14.7620   21.1073 O   0  0  0  0  0  0  0  0  0  0  0  0
  -34.6011  -26.0203   19.9649 O   0  0  0  0  0  0  0  0  0  0  0  0
  -30.0647  -15.6226   21.8669 O   0  0  0  0  0  0  0  0  0  0  0  0
  -34.0199  -29.7003   19.4044 O   0  0  0  0  0  0  0  0  0  0  0  0
  -30.3833  -29.8453   22.4499 O   0  0  0  0  0  0  0  0  0  0  0  0
  -21.5205   -7.0756   21.7226 O   0  0  0  0  0  0  0  0  0  0  0  0
  -28.7024  -23.3594   21.2419 O   0  0  0  0  0  0  0  0  0  1  0  0
  -23.7728   -3.1420   24.8623 F   0  0  0  0  0  0  0  0  0  0  0  0
  -20.3255   -6.2922   24.0893 F   0  0  0  0  0  0  0  0  0  0  0  0
  1  2  1  0  0  0  0
  1  5  2  0  0  0  0
  2  6  2  0  0  0  0
  3  8  2  0  0  0  0
  3 16  1  0  0  0  0
  4  9  1  0  0  0  0
  4 16  2  0  0  0  0
  5 18  1  0  0  0  0
  6 20  1  0  0  0  0
  7 10  2  0  0  0  0
  7 19  1  0  0  0  0
  8 22  1  0  0  0  0
  9 22  2  0  0  0  0
 10 23  1  0  0  0  0
 11 12  2  0  0  0  0
 11 24  1  0  0  0  0
 12 25  1  0  0  0  0
 13 21  1  0  0  0  0
 13 23  2  0  0  0  0
 14 25  2  0  0  0  0
 14 26  1  0  0  0  0
 15 28  1  0  0  0  0
 15 29  2  0  0  0  0
 16 27  1  0  0  0  0
 17 27  1  0  0  0  0
 17 30  2  0  0  0  0
 17 32  1  0  0  0  0
 18 20  2  0  0  0  0
 18 37  1  0  0  0  0
 19 21  2  0  0  0  0
 19 38  1  0  0  0  0
 20 46  1  0  0  0  0
 21 39  1  0  0  0  0
 22 84  1  0  0  0  0
 23 85  1  0  0  0  0
 24 26  2  0  0  0  0
 24 84  1  0  0  0  0
 25 86  1  0  0  0  0
 26 87  1  0  0  0  0
 27 68  2  0  0  0  0
 28 59  1  0  0  0  0
 28 69  2  0  0  0  0
 29 62  1  0  0  0  0
 29 70  1  0  0  0  0
 30 71  1  0  0  0  0
 30 74  1  0  0  0  0
 31 49  1  0  0  0  0
 31 69  1  0  0  0  0
 31 70  2  0  0  0  0
 32 75  1  0  0  0  0
 32 79  2  0  0  0  0
 33 47  1  0  0  0  0
 33 76  1  0  0  0  0
 33 80  2  0  0  0  0
 34 63  1  0  0  0  0
 34 73  1  0  0  0  0
 34 81  2  0  0  0  0
 35 64  1  0  0  0  0
 35 72  1  0  0  0  0
 35 82  2  0  0  0  0
 36 65  1  0  0  0  0
 36 77  1  0  0  0  0
 36 83  2  0  0  0  0
 37 40  1  0  0  0  0
 38 47  1  0  0  0  0
 39 72  1  0  0  0  0
 40 42  1  0  0  0  0
 41 43  1  0  0  0  0
 41 44  1  0  0  0  0
 42 46  1  0  0  0  0
 43 48  1  0  0  0  0
 44 73  1  0  0  0  0
 45 48  1  0  0  0  0
 45 73  1  0  0  0  0
 46 76  1  0  0  0  0
 47 72  1  0  0  0  0
 48 71  1  0  0  0  0
 50 62  1  0  0  0  0
 51 63  1  0  0  0  0
 52 65  1  0  0  0  0
 53 66  1  0  0  0  0
 54 66  1  0  0  0  0
 55 66  1  0  0  0  0
 56 67  1  0  0  0  0
 57 67  1  0  0  0  0
 58 78  1  0  0  0  0
 59 60  1  0  0  0  0
 60 61  1  0  0  0  0
 61 85  1  0  0  0  0
 62 67  1  0  0  0  0
 63 67  1  0  0  0  0
 64 66  1  0  0  0  0
 64 77  1  0  0  0  0
 65 78  1  0  0  0  0
 68 71  1  0  0  0  0
M  CHG  1  78   1
M  ISO  4  34 100  61 101  63 100  85 101
M  END
> <Batch ID>
0077

> <Smiles>
CNC(C)C(=O)NC(C(=O)N1Cc2cc([101O:1][101CH2:1]CCc3cc(C(C)C(C)(C)[100CH:0](C)[100C:0](=O)N4CCCC(n5nc(-c6ccc(Oc7ccc(F)cc7F)cc6)c(C(N)=O)c5N)C4)nc(C)n3)ccc2CC1C(=O)NC1CCCc2ccccc21)C(C)(C)C

> <Shape>
0.230

> <Color>
0.169

> <Negative vol penalty>
0.000

$$$$

  -OEChem-04052318373D

 86 94  0     1  0  0  0  0  0999 V2000
  -20.5851  -24.1563   20.6361 C   0  0  0  0  0  0  0  0  0  0  0  0
  -21.9218  -23.7828   20.7312 C   0  0  0  0  0  0  0  0  0  0  0  0
  -22.3710  -27.5927   21.9942 C   0  0  0  0  0  0  0  0  0  0  0  0
  -23.6728  -29.0791   23.3846 C   0  0  0  0  0  0  0  0  0  0  0  0
  -19.5875  -23.2940   21.0891 C   0  0  0  0  0  0  0  0  0  0  0  0
  -22.2618  -22.5470   21.2804 C   0  0  0  0  0  0  0  0  0  0  0  0
  -25.7826  -20.1187   18.5688 C   0  0  0  0  0  0  0  0  0  0  0  0
  -21.2447  -27.8472   22.7766 C   0  0  0  0  0  0  0  0  0  0  0  0
  -22.5465  -29.3336   24.1670 C   0  0  0  0  0  0  0  0  0  0  0  0
  -27.1033  -20.5399   18.7173 C   0  0  0  0  0  0  0  0  0  0  0  0
  -17.9393  -28.3850   24.1909 C   0  0  0  0  0  0  0  0  0  0  0  0
  -16.7352  -28.6344   23.5326 C   0  0  0  0  0  0  0  0  0  0  0  0
  -27.5164  -18.6961   20.2169 C   0  0  0  0  0  0  0  0  0  0  0  0
  -17.7293  -30.5450   22.4378 C   0  0  0  0  0  0  0  0  0  0  0  0
  -31.7064  -25.0684   17.4055 C   0  0  0  0  0  0  0  0  0  0  0  0
  -33.5041  -24.5132   18.7898 C   0  0  0  0  0  0  0  0  0  0  0  0
  -23.5851  -28.2086   22.2982 C   0  0  0  0  0  0  0  0  0  0  0  0
  -25.1667  -28.6510   20.3461 C   0  0  0  0  0  0  0  0  0  0  0  0
  -19.9150  -22.0429   21.6352 C   0  0  0  0  0  0  0  0  0  0  0  0
  -25.3151  -18.9873   19.2530 C   0  0  0  0  0  0  0  0  0  0  0  0
  -21.2678  -21.6676   21.7423 C   0  0  0  0  0  0  0  0  0  0  0  0
  -26.1901  -18.2611   20.0734 C   0  0  0  0  0  0  0  0  0  0  0  0
  -32.7176  -25.5035   18.2376 C   0  0  0  0  0  0  0  0  0  0  0  0
  -21.3324  -28.7177   23.8630 C   0  0  0  0  0  0  0  0  0  0  0  0
  -27.9697  -19.8303   19.5437 C   0  0  0  0  0  0  0  0  0  0  0  0
  -19.0385  -29.2157   23.9728 C   0  0  0  0  0  0  0  0  0  0  0  0
  -16.6302  -29.7143   22.6560 C   0  0  0  0  0  0  0  0  0  0  0  0
  -18.9335  -30.2957   23.0963 C   0  0  0  0  0  0  0  0  0  0  0  0
  -24.7491  -27.9457   21.4906 C   0  0  0  0  0  0  0  0  0  0  0  0
  -26.3175  -28.0139   19.9510 C   0  0  0  0  0  0  0  0  0  0  0  0
  -32.3073  -22.8997   17.7262 C   0  0  0  0  0  0  0  0  0  0  0  0
  -24.5678  -29.7810   19.6980 C   0  0  0  0  0  0  0  0  0  0  0  0
  -23.0737  -18.4579   21.4437 C   0  0  0  0  0  0  0  0  0  0  0  0
  -23.8608  -15.3524   20.9352 C   0  0  0  0  0  0  0  0  0  0  0  0
  -26.1906  -13.0876   19.8911 C   0  0  0  0  0  0  0  0  0  0  0  0
  -31.2439  -25.6799   21.1465 C   0  0  0  0  0  0  0  0  0  0  0  0
  -18.8045  -21.1645   22.1548 C   0  0  0  0  0  0  0  0  0  0  0  0
  -23.8949  -18.5305   19.0612 C   0  0  0  0  0  0  0  0  0  0  0  0
  -25.7430  -17.0281   20.8139 C   0  0  0  0  0  0  0  0  0  0  0  0
  -19.2288  -19.7155   22.3800 C   0  0  0  0  0  0  0  0  0  0  0  0
  -28.3461  -23.6371   21.4728 C   0  0  0  0  0  0  0  0  0  0  0  0
  -20.5596  -19.6583   23.1232 C   0  0  0  0  0  0  0  0  0  0  0  0
  -27.1875  -24.6345   21.4184 C   0  0  0  0  0  0  0  0  0  0  0  0
  -29.5532  -24.2140   22.2091 C   0  0  0  0  0  0  0  0  0  0  0  0
  -28.8663  -26.5129   21.6461 C   0  0  0  0  0  0  0  0  0  0  0  0
  -21.6752  -20.3249   22.3092 C   0  0  1  0  0  0  0  0  0  0  0  0
  -23.3866  -17.6623   20.2080 C   0  0  1  0  0  0  0  0  0  0  0  0
  -27.6460  -25.9969   20.8645 C   0  0  2  0  0  0  0  0  0  0  0  0
  -34.7409  -27.2381   16.6400 C   0  0  0  0  0  0  0  0  0  0  0  0
  -26.5587  -10.6193   19.6278 C   0  0  0  0  0  0  0  0  0  0  0  0
  -31.6919  -19.1817   18.4833 C   0  0  0  0  0  0  0  0  0  0  0  0
  -31.9536  -27.9428   17.8134 C   0  0  0  0  0  0  0  0  0  0  0  0
  -24.2837  -15.0967   23.9461 C   0  0  0  0  0  0  0  0  0  0  0  0
  -25.5327  -12.9692   23.5197 C   0  0  0  0  0  0  0  0  0  0  0  0
  -23.1267  -13.1493   22.8861 C   0  0  0  0  0  0  0  0  0  0  0  0
  -26.5588  -13.3371   16.9652 C   0  0  0  0  0  0  0  0  0  0  0  0
  -32.0752  -21.4356   17.4418 C   0  0  0  0  0  0  0  0  0  0  0  0
  -34.4021  -27.4128   18.1180 C   0  0  0  0  0  0  0  0  0  0  0  0
  -32.8212  -27.2619   20.0655 C   0  0  0  0  0  0  0  0  0  0  0  0
  -29.8578  -20.9112   18.5832 C   0  0  0  0  0  0  0  0  0  1  0  0
  -24.8618  -14.3919   21.5306 C   0  0  1  0  0  0  0  0  0  0  0  0
  -26.0898  -11.8987   18.9526 C   0  0  2  0  0  0  0  0  0  0  0  0
  -31.3755  -20.6791   18.5887 C   0  0  1  0  0  0  0  0  0  0  0  0
  -32.9424  -26.9416   18.5217 C   0  0  2  0  0  0  0  0  0  0  0  0
  -24.4594  -13.9261   22.9583 C   0  0  0  0  0  0  0  0  0  0  0  0
  -31.4718  -23.7693   17.1267 N   0  0  0  0  0  0  0  0  0  0  0  0
  -33.3263  -23.1965   18.5550 N   0  0  0  0  0  0  0  0  0  0  0  0
  -25.5680  -26.9376   21.8024 N   0  0  0  0  0  0  0  0  0  0  0  0
  -26.5116  -27.0048   20.8478 N   0  0  0  0  0  0  0  0  0  0  0  0
  -24.3434  -16.6251   20.5989 N   0  0  0  0  0  0  0  0  0  0  0  0
  -29.9382  -25.5051   21.6340 N   0  0  0  0  0  0  0  0  0  0  0  0
  -27.1723  -28.2239   18.9275 N   0  0  0  0  0  0  0  0  0  0  0  0
  -23.3870  -30.3112   20.2354 N   0  0  0  0  0  0  0  0  0  0  0  0
  -22.1251  -19.4444   21.2525 N   0  0  0  0  0  0  0  0  0  0  0  0
  -25.0088  -13.3063   20.5671 N   0  0  0  0  0  0  0  0  0  0  0  0
  -31.5240  -26.9316   20.6122 N   0  0  0  0  0  0  0  0  0  0  0  0
  -26.9261  -12.1238   17.7398 N   0  3  0  0  0  0  0  0  0  0  0  0
  -25.0562  -30.2949   18.6631 O   0  0  0  0  0  0  0  0  0  0  0  0
  -23.6491  -18.1951   22.4933 O   0  0  0  0  0  0  0  0  0  0  0  0
  -22.6954  -14.9845   20.7678 O   0  0  0  0  0  0  0  0  0  0  0  0
  -27.2162  -13.7533   20.0151 O   0  0  0  0  0  0  0  0  0  0  0  0
  -32.0952  -24.7849   21.1796 O   0  0  0  0  0  0  0  0  0  0  0  0
  -20.2335  -28.9664   24.6266 O   0  0  0  0  0  0  0  0  0  0  0  0
  -29.2591  -20.2396   19.6909 O   0  0  0  0  0  0  0  0  0  1  0  0
  -15.4742  -29.9527   22.0227 F   0  0  0  0  0  0  0  0  0  0  0  0
  -19.9863  -31.0965   22.8818 F   0  0  0  0  0  0  0  0  0  0  0  0
  1  2  1  0  0  0  0
  1  5  2  0  0  0  0
  2  6  2  0  0  0  0
  3  8  2  0  0  0  0
  3 17  1  0  0  0  0
  4  9  1  0  0  0  0
  4 17  2  0  0  0  0
  5 19  1  0  0  0  0
  6 21  1  0  0  0  0
  7 10  2  0  0  0  0
  7 20  1  0  0  0  0
  8 24  1  0  0  0  0
  9 24  2  0  0  0  0
 10 25  1  0  0  0  0
 11 12  2  0  0  0  0
 11 26  1  0  0  0  0
 12 27  1  0  0  0  0
 13 22  1  0  0  0  0
 13 25  2  0  0  0  0
 14 27  2  0  0  0  0
 14 28  1  0  0  0  0
 15 23  1  0  0  0  0
 15 66  2  0  0  0  0
 16 23  2  0  0  0  0
 16 67  1  0  0  0  0
 17 29  1  0  0  0  0
 18 29  1  0  0  0  0
 18 30  2  0  0  0  0
 18 32  1  0  0  0  0
 19 21  2  0  0  0  0
 19 37  1  0  0  0  0
 20 22  2  0  0  0  0
 20 38  1  0  0  0  0
 21 46  1  0  0  0  0
 22 39  1  0  0  0  0
 23 64  1  0  0  0  0
 24 83  1  0  0  0  0
 25 84  1  0  0  0  0
 26 28  2  0  0  0  0
 26 83  1  0  0  0  0
 27 85  1  0  0  0  0
 28 86  1  0  0  0  0
 29 68  2  0  0  0  0
 30 69  1  0  0  0  0
 30 72  1  0  0  0  0
 31 57  1  0  0  0  0
 31 66  1  0  0  0  0
 31 67  2  0  0  0  0
 32 73  1  0  0  0  0
 32 78  2  0  0  0  0
 33 47  1  0  0  0  0
 33 74  1  0  0  0  0
 33 79  2  0  0  0  0
 34 61  1  0  0  0  0
 34 70  1  0  0  0  0
 34 80  2  0  0  0  0
 35 62  1  0  0  0  0
 35 75  1  0  0  0  0
 35 81  2  0  0  0  0
 36 71  1  0  0  0  0
 36 76  1  0  0  0  0
 36 82  2  0  0  0  0
 37 40  1  0  0  0  0
 38 47  1  0  0  0  0
 39 70  1  0  0  0  0
 40 42  1  0  0  0  0
 41 43  1  0  0  0  0
 41 44  1  0  0  0  0
 42 46  1  0  0  0  0
 43 48  1  0  0  0  0
 44 71  1  0  0  0  0
 45 48  1  0  0  0  0
 45 71  1  0  0  0  0
 46 74  1  0  0  0  0
 47 70  1  0  0  0  0
 48 69  1  0  0  0  0
 49 58  1  0  0  0  0
 50 62  1  0  0  0  0
 51 63  1  0  0  0  0
 52 64  1  0  0  0  0
 53 65  1  0  0  0  0
 54 65  1  0  0  0  0
 55 65  1  0  0  0  0
 56 77  1  0  0  0  0
 57 63  1  0  0  0  0
 58 64  1  0  0  0  0
 59 64  1  0  0  0  0
 59 76  1  0  0  0  0
 60 63  1  0  0  0  0
 60 84  1  0  0  0  0
 61 65  1  0  0  0  0
 61 75  1  0  0  0  0
 62 77  1  0  0  0  0
 68 69  1  0  0  0  0
M  CHG  1  77   1
M  ISO  4  36 100  60 101  76 100  84 101
M  END
> <Batch ID>
0077

> <Smiles>
CCC(C)(C[100NH:0][100C:0](=O)N1CCCC(n2nc(-c3ccc(Oc4ccc(F)cc4F)cc3)c(C(N)=O)c2N)C1)c1cnc(CC(C)[101CH2:1][101O:1]c2ccc3c(c2)CN(C(=O)C(NC(=O)C(C)NC)C(C)(C)C)C(C(=O)NC2CCCc4ccccc42)C3)nc1

> <Shape>
0.191

> <Color>
0.054

> <Negative vol penalty>
0.000

$$$$

  -OEChem-04052318373D

 85 93  0     1  0  0  0  0  0999 V2000
  -15.3377  -26.9577   21.9271 C   0  0  0  0  0  0  0  0  0  0  0  0
  -16.3116  -26.8642   20.9381 C   0  0  0  0  0  0  0  0  0  0  0  0
  -24.7081  -13.8325   21.9586 C   0  0  0  0  0  0  0  0  0  0  0  0
  -26.7953  -13.5228   20.7819 C   0  0  0  0  0  0  0  0  0  0  0  0
  -15.5772  -27.7198   23.0698 C   0  0  0  0  0  0  0  0  0  0  0  0
  -17.5252  -27.5337   21.0906 C   0  0  0  0  0  0  0  0  0  0  0  0
  -23.0340  -25.6479   19.1925 C   0  0  0  0  0  0  0  0  0  0  0  0
  -24.1572  -12.7549   21.2653 C   0  0  0  0  0  0  0  0  0  0  0  0
  -26.2444  -12.4451   20.0885 C   0  0  0  0  0  0  0  0  0  0  0  0
  -23.7944  -25.9572   18.0656 C   0  0  0  0  0  0  0  0  0  0  0  0
  -24.2613   -9.3787   21.4188 C   0  0  0  0  0  0  0  0  0  0  0  0
  -23.5256   -8.4457   22.1494 C   0  0  0  0  0  0  0  0  0  0  0  0
  -25.0014  -27.6109   19.3414 C   0  0  0  0  0  0  0  0  0  0  0  0
  -21.5797   -8.9230   20.7994 C   0  0  0  0  0  0  0  0  0  0  0  0
  -28.0928  -23.6054   17.4441 C   0  0  0  0  0  0  0  0  0  0  0  0
  -29.7485  -23.5106   15.9928 C   0  0  0  0  0  0  0  0  0  0  0  0
  -26.0272  -14.2165   21.7169 C   0  0  0  0  0  0  0  0  0  0  0  0
  -27.2833  -15.2896   23.6607 C   0  0  0  0  0  0  0  0  0  0  0  0
  -16.7981  -28.3912   23.2409 C   0  0  0  0  0  0  0  0  0  0  0  0
  -23.2446  -26.3265   20.4015 C   0  0  0  0  0  0  0  0  0  0  0  0
  -17.7808  -28.3066   22.2361 C   0  0  0  0  0  0  0  0  0  0  0  0
  -24.2441  -27.3066   20.4829 C   0  0  0  0  0  0  0  0  0  0  0  0
  -24.9254  -12.0611   20.3302 C   0  0  0  0  0  0  0  0  0  0  0  0
  -24.7763  -26.9409   18.1392 C   0  0  0  0  0  0  0  0  0  0  0  0
  -23.6562  -10.0839   20.3785 C   0  0  0  0  0  0  0  0  0  0  0  0
  -22.1848   -8.2178   21.8397 C   0  0  0  0  0  0  0  0  0  0  0  0
  -22.3154   -9.8560   20.0688 C   0  0  0  0  0  0  0  0  0  0  0  0
  -26.5966  -15.3300   22.4324 C   0  0  0  0  0  0  0  0  0  0  0  0
  -29.3017  -23.4178   18.0718 C   0  0  0  0  0  0  0  0  0  0  0  0
  -27.6188  -16.5980   23.9097 C   0  0  0  0  0  0  0  0  0  0  0  0
  -27.5905  -14.1695   24.5013 C   0  0  0  0  0  0  0  0  0  0  0  0
  -21.4742  -28.2032   22.2583 C   0  0  0  0  0  0  0  0  0  0  0  0
  -24.0364  -28.0041   24.2377 C   0  0  0  0  0  0  0  0  0  0  0  0
  -27.3837  -27.4445   24.5965 C   0  0  0  0  0  0  0  0  0  0  0  0
  -28.5108  -21.1850   20.3015 C   0  0  0  0  0  0  0  0  0  0  0  0
  -16.9929  -29.2413   24.4713 C   0  0  0  0  0  0  0  0  0  0  0  0
  -22.4341  -25.9625   21.6152 C   0  0  0  0  0  0  0  0  0  0  0  0
  -24.5234  -28.0501   21.7626 C   0  0  0  0  0  0  0  0  0  0  0  0
  -18.4503  -29.6156   24.7286 C   0  0  0  0  0  0  0  0  0  0  0  0
  -26.1512  -21.0704   23.0431 C   0  0  0  0  0  0  0  0  0  0  0  0
  -19.1120  -30.1004   23.4426 C   0  0  0  0  0  0  0  0  0  0  0  0
  -26.0682  -19.5664   23.3103 C   0  0  0  0  0  0  0  0  0  0  0  0
  -26.2742  -21.3606   21.5502 C   0  0  0  0  0  0  0  0  0  0  0  0
  -27.3359  -19.1734   21.1474 C   0  0  0  0  0  0  0  0  0  0  0  0
  -19.1195  -28.9982   22.3765 C   0  0  1  0  0  0  0  0  0  0  0  0
  -22.3845  -27.0761   22.6566 C   0  0  1  0  0  0  0  0  0  0  0  0
  -27.2329  -18.8132   22.6406 C   0  0  2  0  0  0  0  0  0  0  0  0
  -29.1969  -27.3887   26.3305 C   0  0  0  0  0  0  0  0  0  0  0  0
  -31.0809  -25.3773   19.7415 C   0  0  0  0  0  0  0  0  0  0  0  0
  -28.6349  -25.5720   20.1876 C   0  0  0  0  0  0  0  0  0  0  0  0
  -27.0616  -27.7365   14.6063 C   0  0  0  0  0  0  0  0  0  0  0  0
  -24.0678  -31.0546   24.2995 C   0  0  0  0  0  0  0  0  0  0  0  0
  -26.3917  -30.9424   25.2244 C   0  0  0  0  0  0  0  0  0  0  0  0
  -24.4913  -29.9619   26.5089 C   0  0  0  0  0  0  0  0  0  0  0  0
  -27.9638  -24.5914   24.0654 C   0  0  0  0  0  0  0  0  0  0  0  0
  -27.4230  -25.2657   14.3806 C   0  0  0  0  0  0  0  0  0  0  0  0
  -27.4156  -23.8532   14.9816 C   0  0  0  0  0  0  0  0  0  0  0  0
  -25.7523  -26.1952   16.1027 C   0  0  0  0  0  0  0  0  0  1  0  0
  -29.5687  -23.2861   19.5121 C   0  0  1  0  0  0  0  0  0  0  0  0
  -25.3096  -28.7942   24.4211 C   0  0  1  0  0  0  0  0  0  0  0  0
  -28.1613  -26.5761   25.5690 C   0  0  2  0  0  0  0  0  0  0  0  0
  -29.8466  -24.6344   20.2728 C   0  0  0  0  0  0  0  0  0  0  0  0
  -27.0827  -26.4045   15.3670 C   0  0  2  0  0  0  0  0  0  0  0  0
  -25.0588  -30.1758   25.0887 C   0  0  0  0  0  0  0  0  0  0  0  0
  -30.3284  -23.3599   17.1628 N   0  0  0  0  0  0  0  0  0  0  0  0
  -26.5006  -16.5662   21.9358 N   0  0  0  0  0  0  0  0  0  0  0  0
  -28.3952  -23.6633   16.1127 N   0  0  0  0  0  0  0  0  0  0  0  0
  -27.1314  -17.3147   22.8566 N   0  0  0  0  0  0  0  0  0  0  0  0
  -23.7002  -27.6626   22.9201 N   0  0  0  0  0  0  0  0  0  0  0  0
  -27.4125  -20.6282   20.9775 N   0  0  0  0  0  0  0  0  0  0  0  0
  -28.2803  -17.1938   24.9245 N   0  0  0  0  0  0  0  0  0  0  0  0
  -27.1718  -12.8949   24.0957 N   0  0  0  0  0  0  0  0  0  0  0  0
  -20.1615  -28.0331   22.6547 N   0  0  0  0  0  0  0  0  0  0  0  0
  -26.2232  -27.9302   25.1609 N   0  0  0  0  0  0  0  0  0  0  0  0
  -28.5037  -22.5689   20.1772 N   0  0  0  0  0  0  0  0  0  0  0  0
  -28.8649  -25.4836   24.8393 N   0  3  0  0  0  0  0  0  0  0  0  0
  -28.2034  -14.2972   25.5883 O   0  0  0  0  0  0  0  0  0  0  0  0
  -21.9295  -29.1573   21.6385 O   0  0  0  0  0  0  0  0  0  0  0  0
  -23.3685  -27.6951   25.2277 O   0  0  0  0  0  0  0  0  0  0  0  0
  -27.7693  -27.6726   23.4520 O   0  0  0  0  0  0  0  0  0  0  0  0
  -29.4330  -20.4996   19.8465 O   0  0  0  0  0  0  0  0  0  0  0  0
  -24.3882  -11.0093   19.6536 O   0  0  0  0  0  0  0  0  0  0  0  0
  -25.5194  -27.2452   17.0405 O   0  0  0  0  0  0  0  0  0  1  0  0
  -21.4789   -7.3207   22.5404 F   0  0  0  0  0  0  0  0  0  0  0  0
  -21.7290  -10.5296   19.0697 F   0  0  0  0  0  0  0  0  0  0  0  0
  1  2  1  0  0  0  0
  1  5  2  0  0  0  0
  2  6  2  0  0  0  0
  3  8  2  0  0  0  0
  3 17  1  0  0  0  0
  4  9  1  0  0  0  0
  4 17  2  0  0  0  0
  5 19  1  0  0  0  0
  6 21  1  0  0  0  0
  7 10  2  0  0  0  0
  7 20  1  0  0  0  0
  8 23  1  0  0  0  0
  9 23  2  0  0  0  0
 10 24  1  0  0  0  0
 11 12  2  0  0  0  0
 11 25  1  0  0  0  0
 12 26  1  0  0  0  0
 13 22  1  0  0  0  0
 13 24  2  0  0  0  0
 14 26  2  0  0  0  0
 14 27  1  0  0  0  0
 15 29  2  0  0  0  0
 15 67  1  0  0  0  0
 16 65  2  0  0  0  0
 16 67  1  0  0  0  0
 17 28  1  0  0  0  0
 18 28  1  0  0  0  0
 18 30  2  0  0  0  0
 18 31  1  0  0  0  0
 19 21  2  0  0  0  0
 19 36  1  0  0  0  0
 20 22  2  0  0  0  0
 20 37  1  0  0  0  0
 21 45  1  0  0  0  0
 22 38  1  0  0  0  0
 23 82  1  0  0  0  0
 24 83  1  0  0  0  0
 25 27  2  0  0  0  0
 25 82  1  0  0  0  0
 26 84  1  0  0  0  0
 27 85  1  0  0  0  0
 28 66  2  0  0  0  0
 29 59  1  0  0  0  0
 29 65  1  0  0  0  0
 30 68  1  0  0  0  0
 30 71  1  0  0  0  0
 31 72  1  0  0  0  0
 31 77  2  0  0  0  0
 32 46  1  0  0  0  0
 32 73  1  0  0  0  0
 32 78  2  0  0  0  0
 33 60  1  0  0  0  0
 33 69  1  0  0  0  0
 33 79  2  0  0  0  0
 34 61  1  0  0  0  0
 34 74  1  0  0  0  0
 34 80  2  0  0  0  0
 35 70  1  0  0  0  0
 35 75  1  0  0  0  0
 35 81  2  0  0  0  0
 36 39  1  0  0  0  0
 37 46  1  0  0  0  0
 38 69  1  0  0  0  0
 39 41  1  0  0  0  0
 40 42  1  0  0  0  0
 40 43  1  0  0  0  0
 41 45  1  0  0  0  0
 42 47  1  0  0  0  0
 43 70  1  0  0  0  0
 44 47  1  0  0  0  0
 44 70  1  0  0  0  0
 45 73  1  0  0  0  0
 46 69  1  0  0  0  0
 47 68  1  0  0  0  0
 48 61  1  0  0  0  0
 49 62  1  0  0  0  0
 50 62  1  0  0  0  0
 51 63  1  0  0  0  0
 52 64  1  0  0  0  0
 53 64  1  0  0  0  0
 54 64  1  0  0  0  0
 55 76  1  0  0  0  0
 56 57  1  0  0  0  0
 56 63  1  0  0  0  0
 57 67  1  0  0  0  0
 58 63  1  0  0  0  0
 58 83  1  0  0  0  0
 59 62  1  0  0  0  0
 59 75  1  0  0  0  0
 60 64  1  0  0  0  0
 60 74  1  0  0  0  0
 61 76  1  0  0  0  0
 66 68  1  0  0  0  0
M  CHG  1  76   1
M  ISO  4  35 100  58 101  75 100  83 101
M  END
> <Batch ID>
0077

> <Smiles>
CNC(C)C(=O)NC(C(=O)N1Cc2cc([101O:1][101CH2:1]C(C)CCn3cnc(C([100NH:0][100C:0](=O)N4CCCC(n5nc(-c6ccc(Oc7ccc(F)cc7F)cc6)c(C(N)=O)c5N)C4)C(C)C)c3)ccc2CC1C(=O)NC1CCCc2ccccc21)C(C)(C)C

> <Shape>
0.240

> <Color>
0.065

> <Negative vol penalty>
0.000

$$$$

  -OEChem-04052318373D

 82 90  0     1  0  0  0  0  0999 V2000
  -20.9207  -13.6830   19.6213 C   0  0  0  0  0  0  0  0  0  0  0  0
  -21.3090  -14.9906   19.8949 C   0  0  0  0  0  0  0  0  0  0  0  0
  -19.1571  -23.4466   23.0068 C   0  0  0  0  0  0  0  0  0  0  0  0
  -21.3677  -23.8956   22.1416 C   0  0  0  0  0  0  0  0  0  0  0  0
  -21.7858  -12.6266   19.9036 C   0  0  0  0  0  0  0  0  0  0  0  0
  -22.5623  -15.2425   20.4519 C   0  0  0  0  0  0  0  0  0  0  0  0
  -24.9488  -19.1004   18.2012 C   0  0  0  0  0  0  0  0  0  0  0  0
  -19.4875  -22.0993   23.1520 C   0  0  0  0  0  0  0  0  0  0  0  0
  -21.6982  -22.5482   22.2868 C   0  0  0  0  0  0  0  0  0  0  0  0
  -24.5439  -20.3887   18.5476 C   0  0  0  0  0  0  0  0  0  0  0  0
  -19.7543  -19.3731   21.1718 C   0  0  0  0  0  0  0  0  0  0  0  0
  -18.8234  -18.4281   20.7405 C   0  0  0  0  0  0  0  0  0  0  0  0
  -26.4313  -20.5746   20.0384 C   0  0  0  0  0  0  0  0  0  0  0  0
  -18.6983  -17.5294   22.9796 C   0  0  0  0  0  0  0  0  0  0  0  0
  -25.2968  -30.4346   21.8861 C   0  0  0  0  0  0  0  0  0  0  0  0
  -20.0971  -24.3448   22.5015 C   0  0  0  0  0  0  0  0  0  0  0  0
  -18.7244  -26.2783   21.5609 C   0  0  0  0  0  0  0  0  0  0  0  0
  -23.0541  -12.8664   20.4554 C   0  0  0  0  0  0  0  0  0  0  0  0
  -26.0939  -18.5344   18.7800 C   0  0  0  0  0  0  0  0  0  0  0  0
  -23.4446  -14.1882   20.7431 C   0  0  0  0  0  0  0  0  0  0  0  0
  -26.8500  -19.2798   19.6958 C   0  0  0  0  0  0  0  0  0  0  0  0
  -20.7581  -21.6501   22.7920 C   0  0  0  0  0  0  0  0  0  0  0  0
  -25.2835  -21.1250   19.4685 C   0  0  0  0  0  0  0  0  0  0  0  0
  -20.1573  -19.3962   22.5070 C   0  0  0  0  0  0  0  0  0  0  0  0
  -18.2953  -17.5063   21.6444 C   0  0  0  0  0  0  0  0  0  0  0  0
  -19.6293  -18.4743   23.4109 C   0  0  0  0  0  0  0  0  0  0  0  0
  -19.7562  -25.7366   22.3508 C   0  0  0  0  0  0  0  0  0  0  0  0
  -23.9806  -30.7215   22.1143 C   0  0  0  0  0  0  0  0  0  0  0  0
  -18.8163  -27.6343   21.7591 C   0  0  0  0  0  0  0  0  0  0  0  0
  -24.1883  -30.1036   19.9988 C   0  0  0  0  0  0  0  0  0  0  0  0
  -17.7685  -25.6151   20.7231 C   0  0  0  0  0  0  0  0  0  0  0  0
  -23.3654  -31.1714   23.3697 C   0  0  0  0  0  0  0  0  0  0  0  0
  -26.6616  -16.0013   20.6143 C   0  0  0  0  0  0  0  0  0  0  0  0
  -29.7594  -16.8364   20.1359 C   0  0  0  0  0  0  0  0  0  0  0  0
  -32.0165  -19.2790   19.3705 C   0  0  0  0  0  0  0  0  0  0  0  0
  -23.9359  -11.6887   20.7872 C   0  0  0  0  0  0  0  0  0  0  0  0
  -26.5323  -17.1536   18.3757 C   0  0  0  0  0  0  0  0  0  0  0  0
  -28.0984  -18.7255   20.3304 C   0  0  0  0  0  0  0  0  0  0  0  0
  -25.3943  -12.0689   21.0296 C   0  0  0  0  0  0  0  0  0  0  0  0
  -20.2056  -30.8685   25.0024 C   0  0  0  0  0  0  0  0  0  0  0  0
  -25.4839  -13.2802   21.9525 C   0  0  0  0  0  0  0  0  0  0  0  0
  -19.6417  -29.5586   24.4491 C   0  0  0  0  0  0  0  0  0  0  0  0
  -21.7207  -30.8006   25.1772 C   0  0  0  0  0  0  0  0  0  0  0  0
  -21.8978  -29.0876   23.4055 C   0  0  0  0  0  0  0  0  0  0  0  0
  -24.8058  -14.5037   21.3243 C   0  0  1  0  0  0  0  0  0  0  0  0
  -27.4264  -16.4826   19.4138 C   0  0  1  0  0  0  0  0  0  0  0  0
  -20.3796  -29.1314   23.1663 C   0  0  1  0  0  0  0  0  0  0  0  0
  -23.8538  -29.7733   18.5914 C   0  0  0  0  0  0  0  0  0  0  0  0
  -34.4801  -19.6679   19.0931 C   0  0  0  0  0  0  0  0  0  0  0  0
  -30.1001  -16.8251   23.1681 C   0  0  0  0  0  0  0  0  0  0  0  0
  -32.2267  -18.1109   22.8640 C   0  0  0  0  0  0  0  0  0  0  0  0
  -32.0074  -15.8205   21.9002 C   0  0  0  0  0  0  0  0  0  0  0  0
  -31.6915  -20.0612   16.5347 C   0  0  0  0  0  0  0  0  0  0  0  0
  -26.0364  -27.1705   19.8597 C   0  0  0  0  0  0  0  0  0  0  0  0
  -26.5180  -25.7544   20.1822 C   0  0  0  0  0  0  0  0  0  0  0  0
  -27.1122  -28.2106   20.1880 C   0  0  0  0  0  0  0  0  0  0  0  0
  -25.4595  -24.7133   19.8244 C   0  0  0  0  0  0  0  0  0  0  0  0
  -26.6728  -29.6460   19.8781 C   0  0  0  0  0  0  0  0  0  0  0  0
  -25.9136  -23.3048   20.1806 C   0  0  0  0  0  0  0  0  0  1  0  0
  -30.7447  -17.7374   20.8404 C   0  0  1  0  0  0  0  0  0  0  0  0
  -33.1786  -19.3065   18.3942 C   0  0  2  0  0  0  0  0  0  0  0  0
  -31.2452  -17.1335   22.1829 C   0  0  0  0  0  0  0  0  0  0  0  0
  -20.4524  -26.6721   23.0020 N   0  0  0  0  0  0  0  0  0  0  0  0
  -25.3965  -30.0550   20.5693 N   0  0  0  0  0  0  0  0  0  0  0  0
  -19.8571  -27.8153   22.6217 N   0  0  0  0  0  0  0  0  0  0  0  0
  -23.3180  -30.5080   20.9296 N   0  3  0  0  0  0  0  0  0  0  0  0
  -22.3663  -30.3759   23.9357 N   0  0  0  0  0  0  0  0  0  0  0  0
  -28.4825  -17.3686   19.9075 N   0  0  0  0  0  0  0  0  0  0  0  0
  -18.1075  -28.6776   21.2778 N   0  0  0  0  0  0  0  0  0  0  0  0
  -18.0984  -25.3928   19.3792 N   0  0  0  0  0  0  0  0  0  0  0  0
  -25.6616  -15.0948   20.3180 N   0  0  0  0  0  0  0  0  0  0  0  0
  -31.8053  -18.0143   19.8775 N   0  0  0  0  0  0  0  0  0  0  0  0
  -32.9286  -20.3081   17.3193 N   0  3  0  0  0  0  0  0  0  0  0  0
  -16.6480  -25.2457   21.1494 O   0  0  0  0  0  0  0  0  0  0  0  0
  -23.7770  -32.2373   23.8252 O   0  0  0  0  0  0  0  0  0  0  0  0
  -26.9579  -16.4201   21.7272 O   0  0  0  0  0  0  0  0  0  0  0  0
  -30.1119  -15.7047   19.7944 O   0  0  0  0  0  0  0  0  0  0  0  0
  -31.3639  -20.2801   19.6576 O   0  0  0  0  0  0  0  0  0  0  0  0
  -21.0810  -20.3355   22.9338 O   0  0  0  0  0  0  0  0  0  0  0  0
  -24.8902  -22.3825   19.8088 O   0  0  0  0  0  0  0  0  0  1  0  0
  -17.4002  -16.5999   21.2304 F   0  0  0  0  0  0  0  0  0  0  0  0
  -20.0117  -18.4924   24.6951 F   0  0  0  0  0  0  0  0  0  0  0  0
  1  2  1  0  0  0  0
  1  5  2  0  0  0  0
  2  6  2  0  0  0  0
  3  8  2  0  0  0  0
  3 16  1  0  0  0  0
  4  9  1  0  0  0  0
  4 16  2  0  0  0  0
  5 18  1  0  0  0  0
  6 20  1  0  0  0  0
  7 10  2  0  0  0  0
  7 19  1  0  0  0  0
  8 22  1  0  0  0  0
  9 22  2  0  0  0  0
 10 23  1  0  0  0  0
 11 12  2  0  0  0  0
 11 24  1  0  0  0  0
 12 25  1  0  0  0  0
 13 21  1  0  0  0  0
 13 23  2  0  0  0  0
 14 25  2  0  0  0  0
 14 26  1  0  0  0  0
 15 28  2  0  0  0  0
 15 64  1  0  0  0  0
 16 27  1  0  0  0  0
 17 27  1  0  0  0  0
 17 29  2  0  0  0  0
 17 31  1  0  0  0  0
 18 20  2  0  0  0  0
 18 36  1  0  0  0  0
 19 21  2  0  0  0  0
 19 37  1  0  0  0  0
 20 45  1  0  0  0  0
 21 38  1  0  0  0  0
 22 79  1  0  0  0  0
 23 80  1  0  0  0  0
 24 26  2  0  0  0  0
 24 79  1  0  0  0  0
 25 81  1  0  0  0  0
 26 82  1  0  0  0  0
 27 63  2  0  0  0  0
 28 32  1  0  0  0  0
 28 66  1  0  0  0  0
 29 65  1  0  0  0  0
 29 69  1  0  0  0  0
 30 48  1  0  0  0  0
 30 64  1  0  0  0  0
 30 66  2  0  0  0  0
 31 70  1  0  0  0  0
 31 74  2  0  0  0  0
 32 67  1  0  0  0  0
 32 75  2  0  0  0  0
 33 46  1  0  0  0  0
 33 71  1  0  0  0  0
 33 76  2  0  0  0  0
 34 60  1  0  0  0  0
 34 68  1  0  0  0  0
 34 77  2  0  0  0  0
 35 61  1  0  0  0  0
 35 72  1  0  0  0  0
 35 78  2  0  0  0  0
 36 39  1  0  0  0  0
 37 46  1  0  0  0  0
 38 68  1  0  0  0  0
 39 41  1  0  0  0  0
 40 42  1  0  0  0  0
 40 43  1  0  0  0  0
 41 45  1  0  0  0  0
 42 47  1  0  0  0  0
 43 67  1  0  0  0  0
 44 47  1  0  0  0  0
 44 67  1  0  0  0  0
 45 71  1  0  0  0  0
 46 68  1  0  0  0  0
 47 65  1  0  0  0  0
 49 61  1  0  0  0  0
 50 62  1  0  0  0  0
 51 62  1  0  0  0  0
 52 62  1  0  0  0  0
 53 73  1  0  0  0  0
 54 55  1  0  0  0  0
 54 56  1  0  0  0  0
 55 57  1  0  0  0  0
 56 58  1  0  0  0  0
 57 59  1  0  0  0  0
 58 64  1  0  0  0  0
 59 80  1  0  0  0  0
 60 62  1  0  0  0  0
 60 72  1  0  0  0  0
 61 73  1  0  0  0  0
 63 65  1  0  0  0  0
M  CHG  2  66   1  73   1
M  ISO  4  28 100  32 100  59 101  80 101
M  END
> <Batch ID>
0077

> <Smiles>
CNC(C)C(=O)NC(C(=O)N1Cc2cc([101O:1][101CH2:1]CCCCCn3c[100c:0]([100C:0](=O)N4CCCC(n5nc(-c6ccc(Oc7ccc(F)cc7F)cc6)c(C(N)=O)c5N)C4)nc3C)ccc2CC1C(=O)NC1CCCc2ccccc21)C(C)(C)C

> <Shape>
0.214

> <Color>
0.067

> <Negative vol penalty>
0.000

$$$$

  -OEChem-04052318373D

 88 96  0     1  0  0  0  0  0999 V2000
  -22.6920   -8.2055   20.6377 C   0  0  0  0  0  0  0  0  0  0  0  0
  -22.1528   -9.4253   20.2417 C   0  0  0  0  0  0  0  0  0  0  0  0
  -26.5613  -28.8545   18.8483 C   0  0  0  0  0  0  0  0  0  0  0  0
  -26.3895  -28.7537   21.2561 C   0  0  0  0  0  0  0  0  0  0  0  0
  -23.7991   -8.1762   21.4847 C   0  0  0  0  0  0  0  0  0  0  0  0
  -22.7197  -10.6165   20.6934 C   0  0  0  0  0  0  0  0  0  0  0  0
  -23.9095  -17.3704   18.6232 C   0  0  0  0  0  0  0  0  0  0  0  0
  -25.3855  -29.6029   18.7957 C   0  0  0  0  0  0  0  0  0  0  0  0
  -25.2136  -29.5022   21.2035 C   0  0  0  0  0  0  0  0  0  0  0  0
  -23.7112  -18.6806   19.0567 C   0  0  0  0  0  0  0  0  0  0  0  0
  -21.9737  -31.0794   21.6780 C   0  0  0  0  0  0  0  0  0  0  0  0
  -20.9000  -30.6560   22.4613 C   0  0  0  0  0  0  0  0  0  0  0  0
  -25.6706  -18.5087   20.4532 C   0  0  0  0  0  0  0  0  0  0  0  0
  -20.8748  -28.5454   21.2859 C   0  0  0  0  0  0  0  0  0  0  0  0
  -23.4789  -21.0415   25.7109 C   0  0  0  0  0  0  0  0  0  0  0  0
  -27.0633  -28.4298   20.0785 C   0  0  0  0  0  0  0  0  0  0  0  0
  -29.5927  -28.1452   20.2481 C   0  0  0  0  0  0  0  0  0  0  0  0
  -24.3858   -9.3677   21.9393 C   0  0  0  0  0  0  0  0  0  0  0  0
  -24.9854  -16.6146   19.1106 C   0  0  0  0  0  0  0  0  0  0  0  0
  -23.8349  -10.6031   21.5483 C   0  0  0  0  0  0  0  0  0  0  0  0
  -25.8818  -17.1900   20.0224 C   0  0  0  0  0  0  0  0  0  0  0  0
  -24.7116  -29.9268   19.9732 C   0  0  0  0  0  0  0  0  0  0  0  0
  -24.5902  -19.2489   19.9740 C   0  0  0  0  0  0  0  0  0  0  0  0
  -22.4979  -30.2358   20.6986 C   0  0  0  0  0  0  0  0  0  0  0  0
  -20.3506  -29.3890   22.2653 C   0  0  0  0  0  0  0  0  0  0  0  0
  -21.9485  -28.9688   20.5025 C   0  0  0  0  0  0  0  0  0  0  0  0
  -28.2776  -27.6562   20.1335 C   0  0  0  0  0  0  0  0  0  0  0  0
  -24.4657  -21.3360   24.8129 C   0  0  0  0  0  0  0  0  0  0  0  0
  -30.3784  -27.0186   20.2578 C   0  0  0  0  0  0  0  0  0  0  0  0
  -25.1589  -19.6426   26.0588 C   0  0  0  0  0  0  0  0  0  0  0  0
  -30.0622  -29.4970   20.3377 C   0  0  0  0  0  0  0  0  0  0  0  0
  -25.2624  -13.9231   20.7789 C   0  0  0  0  0  0  0  0  0  0  0  0
  -28.4238  -14.3367   20.1813 C   0  0  0  0  0  0  0  0  0  0  0  0
  -30.9739  -16.4748   19.4249 C   0  0  0  0  0  0  0  0  0  0  0  0
  -29.3293  -21.3293   21.8013 C   0  0  0  0  0  0  0  0  0  0  0  0
  -25.5524   -9.2852   22.8916 C   0  0  0  0  0  0  0  0  0  0  0  0
  -25.2008  -15.2116   18.6128 C   0  0  0  0  0  0  0  0  0  0  0  0
  -27.0641  -16.4277   20.5607 C   0  0  0  0  0  0  0  0  0  0  0  0
  -26.3239  -10.5957   23.0247 C   0  0  0  0  0  0  0  0  0  0  0  0
  -30.4852  -22.5141   18.6490 C   0  0  0  0  0  0  0  0  0  0  0  0
  -25.3620  -11.7649   23.2108 C   0  0  0  0  0  0  0  0  0  0  0  0
  -30.1692  -24.0104   18.6824 C   0  0  0  0  0  0  0  0  0  0  0  0
  -29.4062  -21.6936   19.3523 C   0  0  0  0  0  0  0  0  0  0  0  0
  -28.7884  -23.6162   20.7649 C   0  0  0  0  0  0  0  0  0  0  0  0
  -24.4370  -11.9169   21.9972 C   0  0  1  0  0  0  0  0  0  0  0  0
  -26.0341  -14.3607   19.5662 C   0  0  1  0  0  0  0  0  0  0  0  0
  -29.8762  -24.4898   20.1168 C   0  0  2  0  0  0  0  0  0  0  0  0
  -24.3235  -15.3919   25.0636 C   0  0  0  0  0  0  0  0  0  0  0  0
  -33.4529  -16.5256   19.0381 C   0  0  0  0  0  0  0  0  0  0  0  0
  -28.8951  -14.0990   23.1865 C   0  0  0  0  0  0  0  0  0  0  0  0
  -31.1696  -15.0854   22.8373 C   0  0  0  0  0  0  0  0  0  0  0  0
  -30.5781  -12.9101   21.7694 C   0  0  0  0  0  0  0  0  0  0  0  0
  -22.5129  -21.5778   22.3792 C   0  0  0  0  0  0  0  0  0  0  0  0
  -24.1030  -23.2369   21.4163 C   0  0  0  0  0  0  0  0  0  0  0  0
  -30.6385  -17.4604   16.6545 C   0  0  0  0  0  0  0  0  0  0  0  0
  -24.5249  -22.3918   23.7338 C   0  0  0  0  0  0  0  0  0  0  0  0
  -25.9816  -18.5488   26.6327 C   0  0  0  0  0  0  0  0  0  0  0  0
  -24.9868  -16.7588   25.1205 C   0  0  0  0  0  0  0  0  0  0  0  0
  -25.2726  -17.1834   26.5610 C   0  0  0  0  0  0  0  0  0  0  0  0
  -27.9182  -21.0746   25.0645 C   0  0  0  0  0  0  0  0  0  0  0  0
  -26.7496  -20.4070   24.3270 C   0  0  0  0  0  0  0  0  0  0  0  0
  -29.2229  -21.1243   24.2723 C   0  0  0  0  0  0  0  0  0  0  0  0
  -24.8387  -20.8458   21.7188 C   0  0  0  0  0  0  0  0  0  1  0  0
  -29.5598  -15.0457   20.8783 C   0  0  1  0  0  0  0  0  0  0  0  0
  -32.0828  -16.3944   18.3912 C   0  0  2  0  0  0  0  0  0  0  0  0
  -30.0274  -14.2990   22.1594 C   0  0  0  0  0  0  0  0  0  0  0  0
  -23.9964  -21.9911   22.3249 C   0  0  0  0  0  0  0  0  0  0  0  0
  -28.2266  -26.3228   20.0746 N   0  0  0  0  0  0  0  0  0  0  0  0
  -25.4932  -20.4554   25.0513 N   0  0  0  0  0  0  0  0  0  0  0  0
  -29.5195  -25.9644   20.1523 N   0  0  0  0  0  0  0  0  0  0  0  0
  -23.9347  -19.9898   26.4687 N   0  3  0  0  0  0  0  0  0  0  0  0
  -27.2284  -15.0573   20.0484 N   0  0  0  0  0  0  0  0  0  0  0  0
  -29.1775  -22.1984   20.7083 N   0  0  0  0  0  0  0  0  0  0  0  0
  -31.7131  -26.8369   20.3462 N   0  0  0  0  0  0  0  0  0  0  0  0
  -29.1202  -30.5344   20.3131 N   0  0  0  0  0  0  0  0  0  0  0  0
  -25.1392  -12.5524   20.9030 N   0  0  0  0  0  0  0  0  0  0  0  0
  -30.6049  -15.2253   19.8763 N   0  0  0  0  0  0  0  0  0  0  0  0
  -29.1000  -21.8900   23.0519 N   0  0  0  0  0  0  0  0  0  0  0  0
  -31.9323  -17.4827   17.3843 N   0  3  0  0  0  0  0  0  0  0  0  0
  -31.2821  -29.7772   20.4201 O   0  0  0  0  0  0  0  0  0  0  0  0
  -24.8134  -14.7666   21.5461 O   0  0  0  0  0  0  0  0  0  0  0  0
  -28.5931  -13.1884   19.7635 O   0  0  0  0  0  0  0  0  0  0  0  0
  -30.4866  -17.5398   19.7975 O   0  0  0  0  0  0  0  0  0  0  0  0
  -29.6508  -20.1432   21.6727 O   0  0  0  0  0  0  0  0  0  0  0  0
  -23.5643  -30.6574   19.9223 O   0  0  0  0  0  0  0  0  0  0  0  0
  -24.3986  -20.5274   20.3993 O   0  0  0  0  0  0  0  0  0  1  0  0
  -19.3206  -28.9819   23.0186 F   0  0  0  0  0  0  0  0  0  0  0  0
  -22.4486  -28.1535   19.5640 F   0  0  0  0  0  0  0  0  0  0  0  0
  1  2  1  0  0  0  0
  1  5  2  0  0  0  0
  2  6  2  0  0  0  0
  3  8  2  0  0  0  0
  3 16  1  0  0  0  0
  4  9  1  0  0  0  0
  4 16  2  0  0  0  0
  5 18  1  0  0  0  0
  6 20  1  0  0  0  0
  7 10  2  0  0  0  0
  7 19  1  0  0  0  0
  8 22  1  0  0  0  0
  9 22  2  0  0  0  0
 10 23  1  0  0  0  0
 11 12  2  0  0  0  0
 11 24  1  0  0  0  0
 12 25  1  0  0  0  0
 13 21  1  0  0  0  0
 13 23  2  0  0  0  0
 14 25  2  0  0  0  0
 14 26  1  0  0  0  0
 15 28  2  0  0  0  0
 15 71  1  0  0  0  0
 16 27  1  0  0  0  0
 17 27  1  0  0  0  0
 17 29  2  0  0  0  0
 17 31  1  0  0  0  0
 18 20  2  0  0  0  0
 18 36  1  0  0  0  0
 19 21  2  0  0  0  0
 19 37  1  0  0  0  0
 20 45  1  0  0  0  0
 21 38  1  0  0  0  0
 22 85  1  0  0  0  0
 23 86  1  0  0  0  0
 24 26  2  0  0  0  0
 24 85  1  0  0  0  0
 25 87  1  0  0  0  0
 26 88  1  0  0  0  0
 27 68  2  0  0  0  0
 28 56  1  0  0  0  0
 28 69  1  0  0  0  0
 29 70  1  0  0  0  0
 29 74  1  0  0  0  0
 30 57  1  0  0  0  0
 30 69  1  0  0  0  0
 30 71  2  0  0  0  0
 31 75  1  0  0  0  0
 31 80  2  0  0  0  0
 32 46  1  0  0  0  0
 32 76  1  0  0  0  0
 32 81  2  0  0  0  0
 33 64  1  0  0  0  0
 33 72  1  0  0  0  0
 33 82  2  0  0  0  0
 34 65  1  0  0  0  0
 34 77  1  0  0  0  0
 34 83  2  0  0  0  0
 35 73  1  0  0  0  0
 35 78  1  0  0  0  0
 35 84  2  0  0  0  0
 36 39  1  0  0  0  0
 37 46  1  0  0  0  0
 38 72  1  0  0  0  0
 39 41  1  0  0  0  0
 40 42  1  0  0  0  0
 40 43  1  0  0  0  0
 41 45  1  0  0  0  0
 42 47  1  0  0  0  0
 43 73  1  0  0  0  0
 44 47  1  0  0  0  0
 44 73  1  0  0  0  0
 45 76  1  0  0  0  0
 46 72  1  0  0  0  0
 47 70  1  0  0  0  0
 48 58  1  0  0  0  0
 49 65  1  0  0  0  0
 50 66  1  0  0  0  0
 51 66  1  0  0  0  0
 52 66  1  0  0  0  0
 53 67  1  0  0  0  0
 54 67  1  0  0  0  0
 55 79  1  0  0  0  0
 56 67  1  0  0  0  0
 57 59  1  0  0  0  0
 58 59  1  0  0  0  0
 60 61  1  0  0  0  0
 60 62  1  0  0  0  0
 61 69  1  0  0  0  0
 62 78  1  0  0  0  0
 63 67  1  0  0  0  0
 63 86  1  0  0  0  0
 64 66  1  0  0  0  0
 64 77  1  0  0  0  0
 65 79  1  0  0  0  0
 68 70  1  0  0  0  0
M  CHG  2  71   1  79   1
M  ISO  4  35 100  63 101  78 100  86 101
M  END
> <Batch ID>
0077

> <Smiles>
CCCCc1ncc(CC(C)(C)[101CH2:1][101O:1]c2ccc3c(c2)CN(C(=O)C(NC(=O)C(C)NC)C(C)(C)C)C(C(=O)NC2CCCc4ccccc42)C3)n1CCC[100NH:0][100C:0](=O)N1CCCC(n2nc(-c3ccc(Oc4ccc(F)cc4F)cc3)c(C(N)=O)c2N)C1

> <Shape>
0.255

> <Color>
0.062

> <Negative vol penalty>
0.000

$$$$

  -OEChem-04052318373D

 87 95  0     1  0  0  0  0  0999 V2000
  -26.7462  -31.4740   22.4824 C   0  0  0  0  0  0  0  0  0  0  0  0
  -26.7099  -30.0892   22.3538 C   0  0  0  0  0  0  0  0  0  0  0  0
  -23.0788   -9.8566   19.9495 C   0  0  0  0  0  0  0  0  0  0  0  0
  -23.8370   -9.8794   22.2434 C   0  0  0  0  0  0  0  0  0  0  0  0
  -27.8883  -32.1784   22.1038 C   0  0  0  0  0  0  0  0  0  0  0  0
  -27.8154  -29.4081   21.8455 C   0  0  0  0  0  0  0  0  0  0  0  0
  -28.9440  -25.2622   24.5255 C   0  0  0  0  0  0  0  0  0  0  0  0
  -22.3379   -8.7030   20.2059 C   0  0  0  0  0  0  0  0  0  0  0  0
  -23.0960   -8.7258   22.4998 C   0  0  0  0  0  0  0  0  0  0  0  0
  -28.1575  -24.1313   24.3104 C   0  0  0  0  0  0  0  0  0  0  0  0
  -19.8696   -7.9228   23.1047 C   0  0  0  0  0  0  0  0  0  0  0  0
  -19.1119   -7.8878   24.2753 C   0  0  0  0  0  0  0  0  0  0  0  0
  -29.8700  -23.2204   22.8763 C   0  0  0  0  0  0  0  0  0  0  0  0
  -24.7632  -19.9049   22.7013 C   0  0  0  0  0  0  0  0  0  0  0  0
  -20.3581   -5.9582   25.0243 C   0  0  0  0  0  0  0  0  0  0  0  0
  -23.8284  -10.4448   20.9683 C   0  0  0  0  0  0  0  0  0  0  0  0
  -24.1634  -12.9702   20.8333 C   0  0  0  0  0  0  0  0  0  0  0  0
  -29.0119  -31.5047   21.5996 C   0  0  0  0  0  0  0  0  0  0  0  0
  -30.1969  -25.3858   23.9079 C   0  0  0  0  0  0  0  0  0  0  0  0
  -28.9731  -30.1043   21.4585 C   0  0  0  0  0  0  0  0  0  0  0  0
  -30.6716  -24.3527   23.0872 C   0  0  0  0  0  0  0  0  0  0  0  0
  -24.2057  -19.5188   21.4874 C   0  0  0  0  0  0  0  0  0  0  0  0
  -26.1169  -19.6922   22.9371 C   0  0  0  0  0  0  0  0  0  0  0  0
  -22.3465   -8.1376   21.4810 C   0  0  0  0  0  0  0  0  0  0  0  0
  -28.6192  -23.1115   23.4834 C   0  0  0  0  0  0  0  0  0  0  0  0
  -20.8715   -6.9754   22.8939 C   0  0  0  0  0  0  0  0  0  0  0  0
  -19.3561   -6.9056   25.2351 C   0  0  0  0  0  0  0  0  0  0  0  0
  -21.1157   -5.9932   23.8536 C   0  0  0  0  0  0  0  0  0  0  0  0
  -24.5944  -11.6362   20.7039 C   0  0  0  0  0  0  0  0  0  0  0  0
  -25.0380  -18.9289   20.5499 C   0  0  0  0  0  0  0  0  0  0  0  0
  -26.8636  -19.0943   21.9347 C   0  0  0  0  0  0  0  0  0  0  0  0
  -25.2538  -13.7204   20.4663 C   0  0  0  0  0  0  0  0  0  0  0  0
  -22.8912  -13.4850   21.2482 C   0  0  0  0  0  0  0  0  0  0  0  0
  -31.4811  -27.4159   21.8262 C   0  0  0  0  0  0  0  0  0  0  0  0
  -34.1816  -25.7257   22.4368 C   0  0  0  0  0  0  0  0  0  0  0  0
  -35.5944  -22.8028   23.4892 C   0  0  0  0  0  0  0  0  0  0  0  0
  -30.7346  -14.7555   20.6525 C   0  0  0  0  0  0  0  0  0  0  0  0
  -30.2063  -32.3136   21.1593 C   0  0  0  0  0  0  0  0  0  0  0  0
  -31.0447  -26.6000   24.1714 C   0  0  0  0  0  0  0  0  0  0  0  0
  -32.0182  -24.4277   22.4169 C   0  0  0  0  0  0  0  0  0  0  0  0
  -31.4733  -31.4811   20.9805 C   0  0  0  0  0  0  0  0  0  0  0  0
  -29.6053  -12.3536   18.2793 C   0  0  0  0  0  0  0  0  0  0  0  0
  -31.1706  -30.2111   20.1916 C   0  0  0  0  0  0  0  0  0  0  0  0
  -28.1683  -12.0586   18.7129 C   0  0  0  0  0  0  0  0  0  0  0  0
  -30.5209  -12.5842   19.4795 C   0  0  0  0  0  0  0  0  0  0  0  0
  -28.6161  -13.3184   20.8603 C   0  0  0  0  0  0  0  0  0  0  0  0
  -30.1614  -29.3275   20.9345 C   0  0  1  0  0  0  0  0  0  0  0  0
  -32.0827  -26.8517   23.0822 C   0  0  1  0  0  0  0  0  0  0  0  0
  -27.6433  -13.1341   19.6830 C   0  0  2  0  0  0  0  0  0  0  0  0
  -22.7561  -19.7440   21.2285 C   0  0  0  0  0  0  0  0  0  0  0  0
  -24.4947  -18.4927   19.2286 C   0  0  0  0  0  0  0  0  0  0  0  0
  -37.8247  -21.7084   23.8434 C   0  0  0  0  0  0  0  0  0  0  0  0
  -34.4552  -25.3143   19.4259 C   0  0  0  0  0  0  0  0  0  0  0  0
  -36.0903  -23.4774   19.8958 C   0  0  0  0  0  0  0  0  0  0  0  0
  -36.6009  -25.8124   20.6099 C   0  0  0  0  0  0  0  0  0  0  0  0
  -31.2929  -19.3513   21.4214 C   0  0  0  0  0  0  0  0  0  0  0  0
  -31.0967  -17.7376   19.5340 C   0  0  0  0  0  0  0  0  0  0  0  0
  -35.0960  -22.4597   26.3862 C   0  0  0  0  0  0  0  0  0  0  0  0
  -26.7283  -20.1087   24.2528 C   0  0  0  0  0  0  0  0  0  0  0  0
  -28.3226  -18.8428   22.1329 C   0  0  0  0  0  0  0  0  0  0  0  0
  -29.0249  -18.4663   20.8146 C   0  0  0  0  0  0  0  0  0  0  0  0
  -30.7937  -16.9137   21.8765 C   0  0  0  0  0  0  0  0  0  0  0  0
  -26.9778  -21.6111   24.3264 C   0  0  0  0  0  0  0  0  0  1  0  0
  -34.8305  -24.4973   21.8462 C   0  0  1  0  0  0  0  0  0  0  0  0
  -36.7094  -22.5226   24.4806 C   0  0  2  0  0  0  0  0  0  0  0  0
  -35.4680  -24.7745   20.4554 C   0  0  0  0  0  0  0  0  0  0  0  0
  -30.5330  -18.1030   20.9222 C   0  0  0  0  0  0  0  0  0  0  0  0
  -25.8598  -11.5414   20.2871 N   0  0  0  0  0  0  0  0  0  0  0  0
  -26.3573  -18.7059   20.7429 N   0  0  0  0  0  0  0  0  0  0  0  0
  -26.2333  -12.8252   20.1514 N   0  0  0  0  0  0  0  0  0  0  0  0
  -32.8074  -25.6378   22.7006 N   0  0  0  0  0  0  0  0  0  0  0  0
  -29.9669  -13.6165   20.3589 N   0  0  0  0  0  0  0  0  0  0  0  0
  -25.4606  -15.0520   20.3855 N   0  0  0  0  0  0  0  0  0  0  0  0
  -21.8815  -12.5751   21.5902 N   0  0  0  0  0  0  0  0  0  0  0  0
  -30.8126  -28.6112   22.0103 N   0  0  0  0  0  0  0  0  0  0  0  0
  -35.7721  -24.0110   22.8488 N   0  0  0  0  0  0  0  0  0  0  0  0
  -30.1323  -15.6878   21.4885 N   0  0  0  0  0  0  0  0  0  0  0  0
  -36.1836  -21.7644   25.6509 N   0  3  0  0  0  0  0  0  0  0  0  0
  -22.6516  -14.7153   21.2980 O   0  0  0  0  0  0  0  0  0  0  0  0
  -31.6147  -26.8122   20.7682 O   0  0  0  0  0  0  0  0  0  0  0  0
  -34.8701  -26.7240   22.6628 O   0  0  0  0  0  0  0  0  0  0  0  0
  -34.6613  -22.0259   23.2991 O   0  0  0  0  0  0  0  0  0  0  0  0
  -31.8704  -14.9314   20.1986 O   0  0  0  0  0  0  0  0  0  0  0  0
  -21.6234   -7.0120   21.7315 O   0  0  0  0  0  0  0  0  0  0  0  0
  -27.8532  -22.0069   23.2713 O   0  0  0  0  0  0  0  0  0  1  0  0
  -18.6295   -6.8731   26.3598 F   0  0  0  0  0  0  0  0  0  0  0  0
  -22.0777   -5.0811   23.6572 F   0  0  0  0  0  0  0  0  0  0  0  0
  1  2  1  0  0  0  0
  1  5  2  0  0  0  0
  2  6  2  0  0  0  0
  3  8  2  0  0  0  0
  3 16  1  0  0  0  0
  4  9  1  0  0  0  0
  4 16  2  0  0  0  0
  5 18  1  0  0  0  0
  6 20  1  0  0  0  0
  7 10  2  0  0  0  0
  7 19  1  0  0  0  0
  8 24  1  0  0  0  0
  9 24  2  0  0  0  0
 10 25  1  0  0  0  0
 11 12  2  0  0  0  0
 11 26  1  0  0  0  0
 12 27  1  0  0  0  0
 13 21  1  0  0  0  0
 13 25  2  0  0  0  0
 14 22  2  0  0  0  0
 14 23  1  0  0  0  0
 15 27  2  0  0  0  0
 15 28  1  0  0  0  0
 16 29  1  0  0  0  0
 17 29  1  0  0  0  0
 17 32  2  0  0  0  0
 17 33  1  0  0  0  0
 18 20  2  0  0  0  0
 18 38  1  0  0  0  0
 19 21  2  0  0  0  0
 19 39  1  0  0  0  0
 20 47  1  0  0  0  0
 21 40  1  0  0  0  0
 22 30  1  0  0  0  0
 22 50  1  0  0  0  0
 23 31  2  0  0  0  0
 23 59  1  0  0  0  0
 24 84  1  0  0  0  0
 25 85  1  0  0  0  0
 26 28  2  0  0  0  0
 26 84  1  0  0  0  0
 27 86  1  0  0  0  0
 28 87  1  0  0  0  0
 29 68  2  0  0  0  0
 30 51  1  0  0  0  0
 30 69  2  0  0  0  0
 31 60  1  0  0  0  0
 31 69  1  0  0  0  0
 32 70  1  0  0  0  0
 32 73  1  0  0  0  0
 33 74  1  0  0  0  0
 33 79  2  0  0  0  0
 34 48  1  0  0  0  0
 34 75  1  0  0  0  0
 34 80  2  0  0  0  0
 35 64  1  0  0  0  0
 35 71  1  0  0  0  0
 35 81  2  0  0  0  0
 36 65  1  0  0  0  0
 36 76  1  0  0  0  0
 36 82  2  0  0  0  0
 37 72  1  0  0  0  0
 37 77  1  0  0  0  0
 37 83  2  0  0  0  0
 38 41  1  0  0  0  0
 39 48  1  0  0  0  0
 40 71  1  0  0  0  0
 41 43  1  0  0  0  0
 42 44  1  0  0  0  0
 42 45  1  0  0  0  0
 43 47  1  0  0  0  0
 44 49  1  0  0  0  0
 45 72  1  0  0  0  0
 46 49  1  0  0  0  0
 46 72  1  0  0  0  0
 47 75  1  0  0  0  0
 48 71  1  0  0  0  0
 49 70  1  0  0  0  0
 52 65  1  0  0  0  0
 53 66  1  0  0  0  0
 54 66  1  0  0  0  0
 55 66  1  0  0  0  0
 56 67  1  0  0  0  0
 57 67  1  0  0  0  0
 58 78  1  0  0  0  0
 59 63  1  0  0  0  0
 60 61  1  0  0  0  0
 61 67  1  0  0  0  0
 62 67  1  0  0  0  0
 62 77  1  0  0  0  0
 63 85  1  0  0  0  0
 64 66  1  0  0  0  0
 64 76  1  0  0  0  0
 65 78  1  0  0  0  0
 68 70  1  0  0  0  0
M  CHG  1  78   1
M  ISO  4  37 100  63 101  77 100  85 101
M  END
> <Batch ID>
0077

> <Smiles>
CNC(C)C(=O)NC(C(=O)N1Cc2cc([101O:1][101CH2:1]Cc3cc(C)c(C)nc3CCC(C)(C)C[100NH:0][100C:0](=O)N3CCCC(n4nc(-c5ccc(Oc6ccc(F)cc6F)cc5)c(C(N)=O)c4N)C3)ccc2CC1C(=O)NC1CCCc2ccccc21)C(C)(C)C

> <Shape>
0.213

> <Color>
0.192

> <Negative vol penalty>
0.000

$$$$

  -OEChem-04052318373D

 83 91  0     1  0  0  0  0  0999 V2000
  -31.0117  -25.7323   14.1064 C   0  0  0  0  0  0  0  0  0  0  0  0
  -29.7173  -25.5416   14.5793 C   0  0  0  0  0  0  0  0  0  0  0  0
  -25.7925  -13.9201   21.4175 C   0  0  0  0  0  0  0  0  0  0  0  0
  -25.0432  -14.6512   19.2401 C   0  0  0  0  0  0  0  0  0  0  0  0
  -32.0412  -26.0312   14.9978 C   0  0  0  0  0  0  0  0  0  0  0  0
  -29.4519  -25.6486   15.9440 C   0  0  0  0  0  0  0  0  0  0  0  0
  -24.3501  -27.8213   18.5433 C   0  0  0  0  0  0  0  0  0  0  0  0
  -24.7471  -12.9981   21.4678 C   0  0  0  0  0  0  0  0  0  0  0  0
  -23.9978  -13.7291   19.2903 C   0  0  0  0  0  0  0  0  0  0  0  0
  -23.2269  -27.1903   19.0763 C   0  0  0  0  0  0  0  0  0  0  0  0
  -24.0525   -9.9475   20.1854 C   0  0  0  0  0  0  0  0  0  0  0  0
  -24.3487   -8.6545   20.6167 C   0  0  0  0  0  0  0  0  0  0  0  0
  -24.1962  -27.3401   21.2802 C   0  0  0  0  0  0  0  0  0  0  0  0
  -22.7861   -8.9055   22.4422 C   0  0  0  0  0  0  0  0  0  0  0  0
  -21.9297  -21.5755   18.1451 C   0  0  0  0  0  0  0  0  0  0  0  0
  -25.9406  -14.7467   20.3037 C   0  0  0  0  0  0  0  0  0  0  0  0
  -28.3135  -15.4917   19.7364 C   0  0  0  0  0  0  0  0  0  0  0  0
  -31.7866  -26.1514   16.3730 C   0  0  0  0  0  0  0  0  0  0  0  0
  -25.4113  -28.2074   19.3747 C   0  0  0  0  0  0  0  0  0  0  0  0
  -30.4793  -25.9480   16.8548 C   0  0  0  0  0  0  0  0  0  0  0  0
  -25.3305  -27.9782   20.7556 C   0  0  0  0  0  0  0  0  0  0  0  0
  -23.8497  -12.9025   20.4041 C   0  0  0  0  0  0  0  0  0  0  0  0
  -23.1511  -26.9470   20.4446 C   0  0  0  0  0  0  0  0  0  0  0  0
  -23.1232  -10.7196   20.8826 C   0  0  0  0  0  0  0  0  0  0  0  0
  -23.7155   -8.1335   21.7451 C   0  0  0  0  0  0  0  0  0  0  0  0
  -22.4900  -10.1985   22.0109 C   0  0  0  0  0  0  0  0  0  0  0  0
  -27.0200  -15.6997   20.2515 C   0  0  0  0  0  0  0  0  0  0  0  0
  -28.9530  -16.6935   19.9188 C   0  0  0  0  0  0  0  0  0  0  0  0
  -23.7969  -22.6762   18.0415 C   0  0  0  0  0  0  0  0  0  0  0  0
  -28.8857  -14.3173   19.1457 C   0  0  0  0  0  0  0  0  0  0  0  0
  -28.4884  -27.4393   19.5870 C   0  0  0  0  0  0  0  0  0  0  0  0
  -28.5233  -29.8007   21.8107 C   0  0  0  0  0  0  0  0  0  0  0  0
  -26.7861  -31.6807   24.0679 C   0  0  0  0  0  0  0  0  0  0  0  0
  -26.9828  -22.3240   20.4344 C   0  0  0  0  0  0  0  0  0  0  0  0
  -32.9406  -26.4293   17.3034 C   0  0  0  0  0  0  0  0  0  0  0  0
  -26.6040  -28.9111   18.7878 C   0  0  0  0  0  0  0  0  0  0  0  0
  -26.4339  -28.3914   21.6939 C   0  0  0  0  0  0  0  0  0  0  0  0
  -32.5061  -26.8946   18.6908 C   0  0  0  0  0  0  0  0  0  0  0  0
  -28.9719  -20.5288   22.7790 C   0  0  0  0  0  0  0  0  0  0  0  0
  -31.3866  -26.0069   19.2253 C   0  0  0  0  0  0  0  0  0  0  0  0
  -28.8139  -19.0688   22.3507 C   0  0  0  0  0  0  0  0  0  0  0  0
  -27.6775  -21.3162   22.5881 C   0  0  0  0  0  0  0  0  0  0  0  0
  -26.9442  -19.7826   20.8037 C   0  0  0  0  0  0  0  0  0  0  0  0
  -30.1472  -26.0801   18.3253 C   0  0  1  0  0  0  0  0  0  0  0  0
  -27.8521  -28.7986   19.6579 C   0  0  1  0  0  0  0  0  0  0  0  0
  -28.2394  -18.9617   20.9253 C   0  0  2  0  0  0  0  0  0  0  0  0
  -27.0935  -33.5049   25.7635 C   0  0  0  0  0  0  0  0  0  0  0  0
  -29.7684  -27.7928   23.7416 C   0  0  0  0  0  0  0  0  0  0  0  0
  -29.1773  -29.3384   25.6204 C   0  0  0  0  0  0  0  0  0  0  0  0
  -30.7575  -30.0876   23.8416 C   0  0  0  0  0  0  0  0  0  0  0  0
  -20.5087  -27.2248   19.3647 C   0  0  0  0  0  0  0  0  0  0  0  0
  -19.8940  -25.3106   20.8639 C   0  0  0  0  0  0  0  0  0  0  0  0
  -24.9436  -33.4919   22.6245 C   0  0  0  0  0  0  0  0  0  0  0  0
  -24.8227  -23.6984   18.3155 C   0  0  0  0  0  0  0  0  0  0  0  0
  -21.5991  -24.9364   19.0573 C   0  0  0  0  0  0  0  0  0  0  0  0
  -22.0545  -23.6160   19.6945 C   0  0  0  0  0  0  0  0  0  0  0  0
  -26.2709  -23.1823   18.2173 C   0  0  0  0  0  0  0  0  0  0  0  0
  -28.2973  -29.8685   23.3018 C   0  0  1  0  0  0  0  0  0  0  0  0
  -26.7523  -33.1776   24.3181 C   0  0  2  0  0  0  0  0  0  0  0  0
  -29.4800  -29.2622   24.1087 C   0  0  0  0  0  0  0  0  0  0  0  0
  -21.0225  -25.9601   20.0562 C   0  0  0  0  0  0  0  0  0  1  0  0
  -22.6968  -20.9696   17.2672 N   0  0  0  0  0  0  0  0  0  0  0  0
  -26.8465  -16.9362   20.7258 N   0  0  0  0  0  0  0  0  0  0  0  0
  -23.8848  -21.6699   17.2012 N   0  0  0  0  0  0  0  0  0  0  0  0
  -22.5825  -22.6553   18.6575 N   0  0  0  0  0  0  0  0  0  0  0  0
  -28.0395  -17.5160   20.5095 N   0  0  0  0  0  0  0  0  0  0  0  0
  -27.5821  -29.0705   21.0712 N   0  0  0  0  0  0  0  0  0  0  0  0
  -27.1863  -21.1743   21.2153 N   0  0  0  0  0  0  0  0  0  0  0  0
  -30.2022  -17.1162   19.6301 N   0  0  0  0  0  0  0  0  0  0  0  0
  -28.0894  -13.1693   19.0351 N   0  0  0  0  0  0  0  0  0  0  0  0
  -29.4155  -27.3043   18.5713 N   0  0  0  0  0  0  0  0  0  0  0  0
  -28.0190  -31.2672   23.6093 N   0  0  0  0  0  0  0  0  0  0  0  0
  -26.5220  -22.1001   19.1428 N   0  0  0  0  0  0  0  0  0  0  0  0
  -25.3974  -33.7221   24.0202 N   0  3  0  0  0  0  0  0  0  0  0  0
  -30.0732  -14.2818   18.7432 O   0  0  0  0  0  0  0  0  0  0  0  0
  -28.1634  -26.5772   20.3951 O   0  0  0  0  0  0  0  0  0  0  0  0
  -29.4950  -30.3804   21.3194 O   0  0  0  0  0  0  0  0  0  0  0  0
  -25.8170  -30.9506   24.2635 O   0  0  0  0  0  0  0  0  0  0  0  0
  -27.2009  -23.4652   20.8553 O   0  0  0  0  0  0  0  0  0  0  0  0
  -22.8296  -12.0028   20.4527 O   0  0  0  0  0  0  0  0  0  0  0  0
  -22.0563  -26.3306   20.9674 O   0  0  0  0  0  0  0  0  0  1  0  0
  -23.9988   -6.8912   22.1582 F   0  0  0  0  0  0  0  0  0  0  0  0
  -21.5954  -10.9350   22.6841 F   0  0  0  0  0  0  0  0  0  0  0  0
  1  2  1  0  0  0  0
  1  5  2  0  0  0  0
  2  6  2  0  0  0  0
  3  8  2  0  0  0  0
  3 16  1  0  0  0  0
  4  9  1  0  0  0  0
  4 16  2  0  0  0  0
  5 18  1  0  0  0  0
  6 20  1  0  0  0  0
  7 10  2  0  0  0  0
  7 19  1  0  0  0  0
  8 22  1  0  0  0  0
  9 22  2  0  0  0  0
 10 23  1  0  0  0  0
 11 12  2  0  0  0  0
 11 24  1  0  0  0  0
 12 25  1  0  0  0  0
 13 21  1  0  0  0  0
 13 23  2  0  0  0  0
 14 25  2  0  0  0  0
 14 26  1  0  0  0  0
 15 62  2  0  0  0  0
 15 65  1  0  0  0  0
 16 27  1  0  0  0  0
 17 27  1  0  0  0  0
 17 28  2  0  0  0  0
 17 30  1  0  0  0  0
 18 20  2  0  0  0  0
 18 35  1  0  0  0  0
 19 21  2  0  0  0  0
 19 36  1  0  0  0  0
 20 44  1  0  0  0  0
 21 37  1  0  0  0  0
 22 80  1  0  0  0  0
 23 81  1  0  0  0  0
 24 26  2  0  0  0  0
 24 80  1  0  0  0  0
 25 82  1  0  0  0  0
 26 83  1  0  0  0  0
 27 63  2  0  0  0  0
 28 66  1  0  0  0  0
 28 69  1  0  0  0  0
 29 54  1  0  0  0  0
 29 64  2  0  0  0  0
 29 65  1  0  0  0  0
 30 70  1  0  0  0  0
 30 75  2  0  0  0  0
 31 45  1  0  0  0  0
 31 71  1  0  0  0  0
 31 76  2  0  0  0  0
 32 58  1  0  0  0  0
 32 67  1  0  0  0  0
 32 77  2  0  0  0  0
 33 59  1  0  0  0  0
 33 72  1  0  0  0  0
 33 78  2  0  0  0  0
 34 68  1  0  0  0  0
 34 73  1  0  0  0  0
 34 79  2  0  0  0  0
 35 38  1  0  0  0  0
 36 45  1  0  0  0  0
 37 67  1  0  0  0  0
 38 40  1  0  0  0  0
 39 41  1  0  0  0  0
 39 42  1  0  0  0  0
 40 44  1  0  0  0  0
 41 46  1  0  0  0  0
 42 68  1  0  0  0  0
 43 46  1  0  0  0  0
 43 68  1  0  0  0  0
 44 71  1  0  0  0  0
 45 67  1  0  0  0  0
 46 66  1  0  0  0  0
 47 59  1  0  0  0  0
 48 60  1  0  0  0  0
 49 60  1  0  0  0  0
 50 60  1  0  0  0  0
 51 61  1  0  0  0  0
 52 61  1  0  0  0  0
 53 74  1  0  0  0  0
 54 57  1  0  0  0  0
 55 56  1  0  0  0  0
 55 61  1  0  0  0  0
 56 65  1  0  0  0  0
 57 73  1  0  0  0  0
 58 60  1  0  0  0  0
 58 72  1  0  0  0  0
 59 74  1  0  0  0  0
 61 81  1  0  0  0  0
 62 64  1  0  0  0  0
 63 66  1  0  0  0  0
M  CHG  1  74   1
M  ISO  4  34 100  61 101  73 100  81 101
M  END
> <Batch ID>
0077

> <Smiles>
CNC(C)C(=O)NC(C(=O)N1Cc2cc([101O:1][101C:1](C)(C)CCn3cnnc3CC[100NH:0][100C:0](=O)N3CCCC(n4nc(-c5ccc(Oc6ccc(F)cc6F)cc5)c(C(N)=O)c4N)C3)ccc2CC1C(=O)NC1CCCc2ccccc21)C(C)(C)C

> <Shape>
0.234

> <Color>
0.079

> <Negative vol penalty>
0.000

$$$$

  -OEChem-04052318373D

 88 96  0     1  0  0  0  0  0999 V2000
  -22.5898  -28.2595   24.2997 C   0  0  0  0  0  0  0  0  0  0  0  0
  -23.0843  -26.9982   23.9833 C   0  0  0  0  0  0  0  0  0  0  0  0
  -28.5990  -26.7326   19.8559 C   0  0  0  0  0  0  0  0  0  0  0  0
  -28.4404  -25.6822   22.0258 C   0  0  0  0  0  0  0  0  0  0  0  0
  -21.2345  -28.5387   24.1286 C   0  0  0  0  0  0  0  0  0  0  0  0
  -22.2235  -26.0151   23.4966 C   0  0  0  0  0  0  0  0  0  0  0  0
  -23.5392  -21.6839   19.3715 C   0  0  0  0  0  0  0  0  0  0  0  0
  -27.9300  -27.8527   20.3492 C   0  0  0  0  0  0  0  0  0  0  0  0
  -27.7715  -26.8023   22.5192 C   0  0  0  0  0  0  0  0  0  0  0  0
  -23.8879  -20.3403   19.5009 C   0  0  0  0  0  0  0  0  0  0  0  0
  -24.7452  -28.7451   21.0457 C   0  0  0  0  0  0  0  0  0  0  0  0
  -23.7269  -29.2881   20.2622 C   0  0  0  0  0  0  0  0  0  0  0  0
  -21.5840  -19.7152   19.1535 C   0  0  0  0  0  0  0  0  0  0  0  0
  -24.9247  -31.3837   20.1581 C   0  0  0  0  0  0  0  0  0  0  0  0
  -23.8234  -12.8805   21.0750 C   0  0  0  0  0  0  0  0  0  0  0  0
  -28.8542  -25.6473   20.6942 C   0  0  0  0  0  0  0  0  0  0  0  0
  -30.9342  -24.2638   20.1774 C   0  0  0  0  0  0  0  0  0  0  0  0
  -20.3585  -27.5614   23.6305 C   0  0  0  0  0  0  0  0  0  0  0  0
  -22.2063  -22.0545   19.1425 C   0  0  0  0  0  0  0  0  0  0  0  0
  -20.8550  -26.2810   23.3199 C   0  0  0  0  0  0  0  0  0  0  0  0
  -21.2214  -21.0641   19.0190 C   0  0  0  0  0  0  0  0  0  0  0  0
  -27.5163  -27.8876   21.6809 C   0  0  0  0  0  0  0  0  0  0  0  0
  -22.9098  -19.3558   19.3948 C   0  0  0  0  0  0  0  0  0  0  0  0
  -25.8532  -29.5214   21.3854 C   0  0  0  0  0  0  0  0  0  0  0  0
  -23.8167  -30.6074   19.8184 C   0  0  0  0  0  0  0  0  0  0  0  0
  -25.9429  -30.8407   20.9416 C   0  0  0  0  0  0  0  0  0  0  0  0
  -29.5447  -24.4897   20.1850 C   0  0  0  0  0  0  0  0  0  0  0  0
  -24.1203  -11.9581   20.1117 C   0  0  0  0  0  0  0  0  0  0  0  0
  -31.0782  -23.0299   19.5915 C   0  0  0  0  0  0  0  0  0  0  0  0
  -26.0081  -12.9395   20.7229 C   0  0  0  0  0  0  0  0  0  0  0  0
  -31.9994  -25.0949   20.6571 C   0  0  0  0  0  0  0  0  0  0  0  0
  -20.0530  -23.7753   20.7255 C   0  0  0  0  0  0  0  0  0  0  0  0
  -18.2868  -23.3148   18.0440 C   0  0  0  0  0  0  0  0  0  0  0  0
  -17.6674  -21.4225   15.2722 C   0  0  0  0  0  0  0  0  0  0  0  0
  -29.6125  -17.7765   19.1439 C   0  0  0  0  0  0  0  0  0  0  0  0
  -18.8929  -27.8953   23.5072 C   0  0  0  0  0  0  0  0  0  0  0  0
  -21.8508  -23.5069   18.9787 C   0  0  0  0  0  0  0  0  0  0  0  0
  -19.7795  -21.4084   18.7533 C   0  0  0  0  0  0  0  0  0  0  0  0
  -18.1162  -26.9144   22.6326 C   0  0  0  0  0  0  0  0  0  0  0  0
  -27.7293  -20.1334   17.1448 C   0  0  0  0  0  0  0  0  0  0  0  0
  -18.4683  -25.4766   23.0007 C   0  0  0  0  0  0  0  0  0  0  0  0
  -28.1545  -21.4658   17.7645 C   0  0  0  0  0  0  0  0  0  0  0  0
  -27.5878  -19.0490   18.2089 C   0  0  0  0  0  0  0  0  0  0  0  0
  -29.2327  -20.1703   19.6616 C   0  0  0  0  0  0  0  0  0  0  0  0
  -19.9574  -25.1958   22.7661 C   0  0  1  0  0  0  0  0  0  0  0  0
  -20.3796  -23.7973   19.2591 C   0  0  1  0  0  0  0  0  0  0  0  0
  -29.4150  -21.3023   18.6343 C   0  0  2  0  0  0  0  0  0  0  0  0
  -16.1363  -21.2753   13.2894 C   0  0  0  0  0  0  0  0  0  0  0  0
  -22.1721  -11.7842   18.5243 C   0  0  0  0  0  0  0  0  0  0  0  0
  -22.5043  -10.0350   20.3036 C   0  0  0  0  0  0  0  0  0  0  0  0
  -23.9945  -10.1059   18.3148 C   0  0  0  0  0  0  0  0  0  0  0  0
  -16.0661  -22.2435   19.8414 C   0  0  0  0  0  0  0  0  0  0  0  0
  -14.9918  -21.2552   17.8073 C   0  0  0  0  0  0  0  0  0  0  0  0
  -15.2825  -23.7263   17.9862 C   0  0  0  0  0  0  0  0  0  0  0  0
  -19.9158  -21.7058   13.3687 C   0  0  0  0  0  0  0  0  0  0  0  0
  -27.4474  -13.2933   20.8009 C   0  0  0  0  0  0  0  0  0  0  0  0
  -27.8990  -14.1848   19.6300 C   0  0  0  0  0  0  0  0  0  0  0  0
  -25.3084  -15.9625   21.8859 C   0  0  0  0  0  0  0  0  0  0  0  0
  -29.3939  -14.5102   19.7010 C   0  0  0  0  0  0  0  0  0  0  0  0
  -24.1567  -16.3484   20.9564 C   0  0  0  0  0  0  0  0  0  0  0  0
  -25.1586  -14.5550   22.4744 C   0  0  0  0  0  0  0  0  0  0  0  0
  -29.8600  -15.3826   18.5399 C   0  0  0  0  0  0  0  0  0  0  0  0
  -24.3573  -17.7368   20.3640 C   0  0  0  0  0  0  0  0  0  1  0  0
  -17.3058  -22.2666   17.5768 C   0  0  1  0  0  0  0  0  0  0  0  0
  -17.4607  -21.8043   13.8176 C   0  0  2  0  0  0  0  0  0  0  0  0
  -23.2670  -11.0329   19.3617 C   0  0  0  0  0  0  0  0  0  0  0  0
  -15.9383  -22.3662   18.3099 C   0  0  0  0  0  0  0  0  0  0  0  0
  -28.8552  -23.4804   19.6465 N   0  0  0  0  0  0  0  0  0  0  0  0
  -25.0100  -13.4724   21.4352 N   0  0  0  0  0  0  0  0  0  0  0  0
  -29.8154  -22.6083   19.2950 N   0  0  0  0  0  0  0  0  0  0  0  0
  -25.4787  -12.0164   19.9136 N   0  3  0  0  0  0  0  0  0  0  0  0
  -19.4808  -22.8427   18.6071 N   0  0  0  0  0  0  0  0  0  0  0  0
  -28.8278  -18.9313   18.9891 N   0  0  0  0  0  0  0  0  0  0  0  0
  -32.1606  -22.2753   19.3061 N   0  0  0  0  0  0  0  0  0  0  0  0
  -31.6752  -26.3317   21.2313 N   0  0  0  0  0  0  0  0  0  0  0  0
  -20.2177  -24.9934   21.3569 N   0  0  0  0  0  0  0  0  0  0  0  0
  -17.2184  -22.4067   16.1273 N   0  0  0  0  0  0  0  0  0  0  0  0
  -29.1561  -16.6443   18.4802 N   0  0  0  0  0  0  0  0  0  0  0  0
  -18.5579  -21.2493   12.9755 N   0  3  0  0  0  0  0  0  0  0  0  0
  -33.2042  -24.7583   20.5640 O   0  0  0  0  0  0  0  0  0  0  0  0
  -19.6778  -22.7310   21.2454 O   0  0  0  0  0  0  0  0  0  0  0  0
  -18.0070  -24.5084   17.9076 O   0  0  0  0  0  0  0  0  0  0  0  0
  -18.1730  -20.3562   15.6157 O   0  0  0  0  0  0  0  0  0  0  0  0
  -30.6470  -17.7570   19.8195 O   0  0  0  0  0  0  0  0  0  0  0  0
  -26.8637  -28.9806   22.1627 O   0  0  0  0  0  0  0  0  0  0  0  0
  -23.2473  -18.0436   19.5214 O   0  0  0  0  0  0  0  0  0  1  0  0
  -22.8395  -31.1283   19.0647 F   0  0  0  0  0  0  0  0  0  0  0  0
  -27.0055  -31.5910   21.2637 F   0  0  0  0  0  0  0  0  0  0  0  0
  1  2  1  0  0  0  0
  1  5  2  0  0  0  0
  2  6  2  0  0  0  0
  3  8  2  0  0  0  0
  3 16  1  0  0  0  0
  4  9  1  0  0  0  0
  4 16  2  0  0  0  0
  5 18  1  0  0  0  0
  6 20  1  0  0  0  0
  7 10  2  0  0  0  0
  7 19  1  0  0  0  0
  8 22  1  0  0  0  0
  9 22  2  0  0  0  0
 10 23  1  0  0  0  0
 11 12  2  0  0  0  0
 11 24  1  0  0  0  0
 12 25  1  0  0  0  0
 13 21  1  0  0  0  0
 13 23  2  0  0  0  0
 14 25  2  0  0  0  0
 14 26  1  0  0  0  0
 15 28  2  0  0  0  0
 15 69  1  0  0  0  0
 16 27  1  0  0  0  0
 17 27  1  0  0  0  0
 17 29  2  0  0  0  0
 17 31  1  0  0  0  0
 18 20  2  0  0  0  0
 18 36  1  0  0  0  0
 19 21  2  0  0  0  0
 19 37  1  0  0  0  0
 20 45  1  0  0  0  0
 21 38  1  0  0  0  0
 22 85  1  0  0  0  0
 23 86  1  0  0  0  0
 24 26  2  0  0  0  0
 24 85  1  0  0  0  0
 25 87  1  0  0  0  0
 26 88  1  0  0  0  0
 27 68  2  0  0  0  0
 28 66  1  0  0  0  0
 28 71  1  0  0  0  0
 29 70  1  0  0  0  0
 29 74  1  0  0  0  0
 30 56  1  0  0  0  0
 30 69  1  0  0  0  0
 30 71  2  0  0  0  0
 31 75  1  0  0  0  0
 31 80  2  0  0  0  0
 32 46  1  0  0  0  0
 32 76  1  0  0  0  0
 32 81  2  0  0  0  0
 33 64  1  0  0  0  0
 33 72  1  0  0  0  0
 33 82  2  0  0  0  0
 34 65  1  0  0  0  0
 34 77  1  0  0  0  0
 34 83  2  0  0  0  0
 35 73  1  0  0  0  0
 35 78  1  0  0  0  0
 35 84  2  0  0  0  0
 36 39  1  0  0  0  0
 37 46  1  0  0  0  0
 38 72  1  0  0  0  0
 39 41  1  0  0  0  0
 40 42  1  0  0  0  0
 40 43  1  0  0  0  0
 41 45  1  0  0  0  0
 42 47  1  0  0  0  0
 43 73  1  0  0  0  0
 44 47  1  0  0  0  0
 44 73  1  0  0  0  0
 45 76  1  0  0  0  0
 46 72  1  0  0  0  0
 47 70  1  0  0  0  0
 48 65  1  0  0  0  0
 49 66  1  0  0  0  0
 50 66  1  0  0  0  0
 51 66  1  0  0  0  0
 52 67  1  0  0  0  0
 53 67  1  0  0  0  0
 54 67  1  0  0  0  0
 55 79  1  0  0  0  0
 56 57  1  0  0  0  0
 57 59  1  0  0  0  0
 58 60  1  0  0  0  0
 58 61  1  0  0  0  0
 59 62  1  0  0  0  0
 60 63  1  0  0  0  0
 61 69  1  0  0  0  0
 62 78  1  0  0  0  0
 63 86  1  0  0  0  0
 64 67  1  0  0  0  0
 64 77  1  0  0  0  0
 65 79  1  0  0  0  0
 68 70  1  0  0  0  0
M  CHG  2  71   1  79   1
M  ISO  4  35 100  63 101  78 100  86 101
M  END
> <Batch ID>
0077

> <Smiles>
CNC(C)C(=O)NC(C(=O)N1Cc2cc([101O:1][101CH2:1]CCCn3cc(C(C)(C)C)nc3CCCC[100NH:0][100C:0](=O)N3CCCC(n4nc(-c5ccc(Oc6ccc(F)cc6F)cc5)c(C(N)=O)c4N)C3)ccc2CC1C(=O)NC1CCCc2ccccc21)C(C)(C)C

> <Shape>
0.222

> <Color>
0.061

> <Negative vol penalty>
0.000

$$$$

  -OEChem-04052318373D

 83 91  0     1  0  0  0  0  0999 V2000
  -21.6078  -11.9141   21.3707 C   0  0  0  0  0  0  0  0  0  0  0  0
  -21.8745  -13.0506   22.1275 C   0  0  0  0  0  0  0  0  0  0  0  0
  -24.9721  -27.5884   19.3634 C   0  0  0  0  0  0  0  0  0  0  0  0
  -25.2652  -25.5761   20.6679 C   0  0  0  0  0  0  0  0  0  0  0  0
  -22.6121  -11.3491   20.5859 C   0  0  0  0  0  0  0  0  0  0  0  0
  -23.1461  -13.6222   22.1006 C   0  0  0  0  0  0  0  0  0  0  0  0
  -23.0005  -18.6646   21.6561 C   0  0  0  0  0  0  0  0  0  0  0  0
  -26.3549  -27.7686   19.3305 C   0  0  0  0  0  0  0  0  0  0  0  0
  -26.6481  -25.7562   20.6350 C   0  0  0  0  0  0  0  0  0  0  0  0
  -22.7036  -19.3967   22.8048 C   0  0  0  0  0  0  0  0  0  0  0  0
  -28.7657  -28.9242   21.3985 C   0  0  0  0  0  0  0  0  0  0  0  0
  -29.2577  -30.2054   21.6476 C   0  0  0  0  0  0  0  0  0  0  0  0
  -25.0513  -19.8613   23.1083 C   0  0  0  0  0  0  0  0  0  0  0  0
  -30.2824  -30.2372   19.4599 C   0  0  0  0  0  0  0  0  0  0  0  0
  -22.2807  -21.2858   27.5842 C   0  0  0  0  0  0  0  0  0  0  0  0
  -24.4273  -26.4922   20.0322 C   0  0  0  0  0  0  0  0  0  0  0  0
  -22.2119  -25.5923   19.1434 C   0  0  0  0  0  0  0  0  0  0  0  0
  -23.8939  -11.9196   20.5418 C   0  0  0  0  0  0  0  0  0  0  0  0
  -24.3283  -18.5159   21.2302 C   0  0  0  0  0  0  0  0  0  0  0  0
  -24.1689  -13.0635   21.3154 C   0  0  0  0  0  0  0  0  0  0  0  0
  -25.3621  -19.1289   21.9524 C   0  0  0  0  0  0  0  0  0  0  0  0
  -27.1928  -26.8524   19.9662 C   0  0  0  0  0  0  0  0  0  0  0  0
  -23.7293  -19.9928   23.5327 C   0  0  0  0  0  0  0  0  0  0  0  0
  -29.0321  -28.2994   20.1802 C   0  0  0  0  0  0  0  0  0  0  0  0
  -30.0160  -30.8619   20.6783 C   0  0  0  0  0  0  0  0  0  0  0  0
  -29.7904  -28.9559   19.2108 C   0  0  0  0  0  0  0  0  0  0  0  0
  -22.9989  -26.3059   20.0671 C   0  0  0  0  0  0  0  0  0  0  0  0
  -21.9567  -21.6503   26.2636 C   0  0  0  0  0  0  0  0  0  0  0  0
  -22.0021  -22.4064   28.3279 C   0  0  0  0  0  0  0  0  0  0  0  0
  -20.9293  -25.7131   19.6196 C   0  0  0  0  0  0  0  0  0  0  0  0
  -22.6051  -24.8834   17.9608 C   0  0  0  0  0  0  0  0  0  0  0  0
  -26.2901  -16.0484   20.8219 C   0  0  0  0  0  0  0  0  0  0  0  0
  -28.2542  -18.3148   19.5856 C   0  0  0  0  0  0  0  0  0  0  0  0
  -29.1448  -21.6056   19.4314 C   0  0  0  0  0  0  0  0  0  0  0  0
  -18.6841  -26.7051   25.0809 C   0  0  0  0  0  0  0  0  0  0  0  0
  -24.9605  -11.2458   19.7153 C   0  0  0  0  0  0  0  0  0  0  0  0
  -24.6295  -17.7454   19.9740 C   0  0  0  0  0  0  0  0  0  0  0  0
  -26.8023  -19.0163   21.5260 C   0  0  0  0  0  0  0  0  0  0  0  0
  -26.1761  -12.1306   19.4511 C   0  0  0  0  0  0  0  0  0  0  0  0
  -18.1382  -28.6584   22.1546 C   0  0  0  0  0  0  0  0  0  0  0  0
  -26.6285  -12.8142   20.7375 C   0  0  0  0  0  0  0  0  0  0  0  0
  -19.2510  -28.2126   21.2044 C   0  0  0  0  0  0  0  0  0  0  0  0
  -18.6148  -28.6934   23.6050 C   0  0  0  0  0  0  0  0  0  0  0  0
  -20.3373  -26.9940   23.1367 C   0  0  0  0  0  0  0  0  0  0  0  0
  -25.5288  -13.7270   21.2933 C   0  0  1  0  0  0  0  0  0  0  0  0
  -26.0638  -17.2284   19.9196 C   0  0  1  0  0  0  0  0  0  0  0  0
  -19.8885  -26.8893   21.6691 C   0  0  2  0  0  0  0  0  0  0  0  0
  -22.1284  -22.6652   29.7738 C   0  0  0  0  0  0  0  0  0  0  0  0
  -30.3637  -23.6536   18.6457 C   0  0  0  0  0  0  0  0  0  0  0  0
  -30.3920  -17.3476   21.5361 C   0  0  0  0  0  0  0  0  0  0  0  0
  -31.6455  -19.4719   21.1069 C   0  0  0  0  0  0  0  0  0  0  0  0
  -31.2342  -17.8696   19.2399 C   0  0  0  0  0  0  0  0  0  0  0  0
  -19.2891  -26.4123   28.1889 C   0  0  0  0  0  0  0  0  0  0  0  0
  -18.9969  -24.0490   28.9123 C   0  0  0  0  0  0  0  0  0  0  0  0
  -27.1691  -22.0994   17.2839 C   0  0  0  0  0  0  0  0  0  0  0  0
  -22.0686  -20.8058   25.0285 C   0  0  0  0  0  0  0  0  0  1  0  0
  -21.1211  -24.6855   27.7413 C   0  0  0  0  0  0  0  0  0  0  0  0
  -18.8698  -24.6519   26.4626 C   0  0  0  0  0  0  0  0  0  0  0  0
  -29.3101  -19.2360   20.1470 C   0  0  1  0  0  0  0  0  0  0  0  0
  -29.4334  -22.5169   18.2521 C   0  0  2  0  0  0  0  0  0  0  0  0
  -30.6186  -18.4820   20.5168 C   0  0  0  0  0  0  0  0  0  0  0  0
  -19.5860  -24.9491   27.8017 C   0  0  0  0  0  0  0  0  0  0  0  0
  -22.2767  -26.8407   21.0552 N   0  0  0  0  0  0  0  0  0  0  0  0
  -21.5067  -22.9044   26.1705 N   0  0  0  0  0  0  0  0  0  0  0  0
  -21.5457  -23.3377   27.4421 N   0  0  0  0  0  0  0  0  0  0  0  0
  -21.0223  -26.4629   20.7551 N   0  0  0  0  0  0  0  0  0  0  0  0
  -27.0464  -18.2473   20.2945 N   0  0  0  0  0  0  0  0  0  0  0  0
  -19.2074  -27.4082   23.9833 N   0  0  0  0  0  0  0  0  0  0  0  0
  -19.7422  -25.2502   19.1735 N   0  0  0  0  0  0  0  0  0  0  0  0
  -23.9636  -24.8593   17.6169 N   0  0  0  0  0  0  0  0  0  0  0  0
  -25.4758  -14.9662   20.5477 N   0  0  0  0  0  0  0  0  0  0  0  0
  -29.4903  -20.2980   19.1630 N   0  0  0  0  0  0  0  0  0  0  0  0
  -19.2996  -25.4928   25.3676 N   0  0  0  0  0  0  0  0  0  0  0  0
  -28.1675  -23.1049   17.7299 N   0  3  0  0  0  0  0  0  0  0  0  0
  -21.7743  -24.3029   17.2217 O   0  0  0  0  0  0  0  0  0  0  0  0
  -27.1415  -16.1144   21.7008 O   0  0  0  0  0  0  0  0  0  0  0  0
  -28.4895  -17.6839   18.5520 O   0  0  0  0  0  0  0  0  0  0  0  0
  -28.6646  -22.0137   20.4866 O   0  0  0  0  0  0  0  0  0  0  0  0
  -17.7349  -27.1240   25.7522 O   0  0  0  0  0  0  0  0  0  0  0  0
  -28.5422  -27.0278   19.9341 O   0  0  0  0  0  0  0  0  0  0  0  0
  -23.4423  -20.7074   24.6547 O   0  0  0  0  0  0  0  0  0  1  0  0
  -30.4872  -32.0929   20.9170 F   0  0  0  0  0  0  0  0  0  0  0  0
  -30.0486  -28.3613   18.0380 F   0  0  0  0  0  0  0  0  0  0  0  0
  1  2  1  0  0  0  0
  1  5  2  0  0  0  0
  2  6  2  0  0  0  0
  3  8  2  0  0  0  0
  3 16  1  0  0  0  0
  4  9  1  0  0  0  0
  4 16  2  0  0  0  0
  5 18  1  0  0  0  0
  6 20  1  0  0  0  0
  7 10  2  0  0  0  0
  7 19  1  0  0  0  0
  8 22  1  0  0  0  0
  9 22  2  0  0  0  0
 10 23  1  0  0  0  0
 11 12  2  0  0  0  0
 11 24  1  0  0  0  0
 12 25  1  0  0  0  0
 13 21  1  0  0  0  0
 13 23  2  0  0  0  0
 14 25  2  0  0  0  0
 14 26  1  0  0  0  0
 15 28  1  0  0  0  0
 15 29  2  0  0  0  0
 16 27  1  0  0  0  0
 17 27  1  0  0  0  0
 17 30  2  0  0  0  0
 17 31  1  0  0  0  0
 18 20  2  0  0  0  0
 18 36  1  0  0  0  0
 19 21  2  0  0  0  0
 19 37  1  0  0  0  0
 20 45  1  0  0  0  0
 21 38  1  0  0  0  0
 22 80  1  0  0  0  0
 23 81  1  0  0  0  0
 24 26  2  0  0  0  0
 24 80  1  0  0  0  0
 25 82  1  0  0  0  0
 26 83  1  0  0  0  0
 27 63  2  0  0  0  0
 28 56  1  0  0  0  0
 28 64  2  0  0  0  0
 29 48  1  0  0  0  0
 29 65  1  0  0  0  0
 30 66  1  0  0  0  0
 30 69  1  0  0  0  0
 31 70  1  0  0  0  0
 31 75  2  0  0  0  0
 32 46  1  0  0  0  0
 32 71  1  0  0  0  0
 32 76  2  0  0  0  0
 33 59  1  0  0  0  0
 33 67  1  0  0  0  0
 33 77  2  0  0  0  0
 34 60  1  0  0  0  0
 34 72  1  0  0  0  0
 34 78  2  0  0  0  0
 35 68  1  0  0  0  0
 35 73  1  0  0  0  0
 35 79  2  0  0  0  0
 36 39  1  0  0  0  0
 37 46  1  0  0  0  0
 38 67  1  0  0  0  0
 39 41  1  0  0  0  0
 40 42  1  0  0  0  0
 40 43  1  0  0  0  0
 41 45  1  0  0  0  0
 42 47  1  0  0  0  0
 43 68  1  0  0  0  0
 44 47  1  0  0  0  0
 44 68  1  0  0  0  0
 45 71  1  0  0  0  0
 46 67  1  0  0  0  0
 47 66  1  0  0  0  0
 49 60  1  0  0  0  0
 50 61  1  0  0  0  0
 51 61  1  0  0  0  0
 52 61  1  0  0  0  0
 53 62  1  0  0  0  0
 54 62  1  0  0  0  0
 55 74  1  0  0  0  0
 56 81  1  0  0  0  0
 57 62  1  0  0  0  0
 57 65  1  0  0  0  0
 58 62  1  0  0  0  0
 58 73  1  0  0  0  0
 59 61  1  0  0  0  0
 59 72  1  0  0  0  0
 60 74  1  0  0  0  0
 63 66  1  0  0  0  0
 64 65  1  0  0  0  0
M  CHG  1  74   1
M  ISO  4  35 100  56 101  73 100  81 101
M  END
> <Batch ID>
0077

> <Smiles>
CNC(C)C(=O)NC(C(=O)N1Cc2cc([101O:1][101CH2:1]c3cc(C)n(CC(C)(C)C[100NH:0][100C:0](=O)N4CCCC(n5nc(-c6ccc(Oc7ccc(F)cc7F)cc6)c(C(N)=O)c5N)C4)n3)ccc2CC1C(=O)NC1CCCc2ccccc21)C(C)(C)C

> <Shape>
0.202

> <Color>
0.075

> <Negative vol penalty>
0.000

$$$$

  -OEChem-04052318373D

 83 91  0     1  0  0  0  0  0999 V2000
  -19.0488  -18.9905   25.6229 C   0  0  0  0  0  0  0  0  0  0  0  0
  -20.0756  -18.9178   24.6870 C   0  0  0  0  0  0  0  0  0  0  0  0
  -23.1901   -9.8170   19.9370 C   0  0  0  0  0  0  0  0  0  0  0  0
  -23.5755  -10.0054   22.3146 C   0  0  0  0  0  0  0  0  0  0  0  0
  -19.2547  -19.6538   26.8318 C   0  0  0  0  0  0  0  0  0  0  0  0
  -21.3086  -19.5095   24.9591 C   0  0  0  0  0  0  0  0  0  0  0  0
  -26.8253  -17.4785   23.2425 C   0  0  0  0  0  0  0  0  0  0  0  0
  -22.4257   -8.6702   20.1518 C   0  0  0  0  0  0  0  0  0  0  0  0
  -22.8111   -8.8586   22.5294 C   0  0  0  0  0  0  0  0  0  0  0  0
  -27.6672  -17.8284   22.1876 C   0  0  0  0  0  0  0  0  0  0  0  0
  -23.2149   -5.5115   22.2748 C   0  0  0  0  0  0  0  0  0  0  0  0
  -23.7170   -4.5535   23.1555 C   0  0  0  0  0  0  0  0  0  0  0  0
  -28.8726  -19.3190   23.6520 C   0  0  0  0  0  0  0  0  0  0  0  0
  -21.7645   -4.8159   24.5541 C   0  0  0  0  0  0  0  0  0  0  0  0
  -31.2457  -16.0446   22.2340 C   0  0  0  0  0  0  0  0  0  0  0  0
  -23.7651  -10.4846   21.0185 C   0  0  0  0  0  0  0  0  0  0  0  0
  -24.1003  -13.0008   20.7656 C   0  0  0  0  0  0  0  0  0  0  0  0
  -20.4940  -20.2456   27.1229 C   0  0  0  0  0  0  0  0  0  0  0  0
  -26.9943  -18.0555   24.5094 C   0  0  0  0  0  0  0  0  0  0  0  0
  -21.5308  -20.1825   26.1725 C   0  0  0  0  0  0  0  0  0  0  0  0
  -28.0332  -18.9728   24.7219 C   0  0  0  0  0  0  0  0  0  0  0  0
  -22.2361   -8.1910   21.4480 C   0  0  0  0  0  0  0  0  0  0  0  0
  -28.6892  -18.7509   22.3915 C   0  0  0  0  0  0  0  0  0  0  0  0
  -21.9876   -6.1218   22.5337 C   0  0  0  0  0  0  0  0  0  0  0  0
  -22.9918   -4.2057   24.2951 C   0  0  0  0  0  0  0  0  0  0  0  0
  -21.2624   -5.7739   23.6733 C   0  0  0  0  0  0  0  0  0  0  0  0
  -24.5553  -11.6689   20.7972 C   0  0  0  0  0  0  0  0  0  0  0  0
  -31.9753  -15.4106   23.1997 C   0  0  0  0  0  0  0  0  0  0  0  0
  -25.2300  -13.7439   20.5245 C   0  0  0  0  0  0  0  0  0  0  0  0
  -33.3803  -16.5319   21.9076 C   0  0  0  0  0  0  0  0  0  0  0  0
  -22.7751  -13.5198   20.9389 C   0  0  0  0  0  0  0  0  0  0  0  0
  -25.2067  -19.8830   26.3984 C   0  0  0  0  0  0  0  0  0  0  0  0
  -27.6306  -19.4057   28.5006 C   0  0  0  0  0  0  0  0  0  0  0  0
  -30.9188  -18.6456   29.0072 C   0  0  0  0  0  0  0  0  0  0  0  0
  -31.0490  -12.7633   21.5388 C   0  0  0  0  0  0  0  0  0  0  0  0
  -20.6541  -20.9926   28.4233 C   0  0  0  0  0  0  0  0  0  0  0  0
  -26.0946  -17.6474   25.6436 C   0  0  0  0  0  0  0  0  0  0  0  0
  -28.2695  -19.6056   26.0681 C   0  0  0  0  0  0  0  0  0  0  0  0
  -22.1095  -21.2697   28.7913 C   0  0  0  0  0  0  0  0  0  0  0  0
  -29.5112  -13.4691   18.4062 C   0  0  0  0  0  0  0  0  0  0  0  0
  -22.8712  -21.8111   27.5856 C   0  0  0  0  0  0  0  0  0  0  0  0
  -28.0256  -13.2079   18.6609 C   0  0  0  0  0  0  0  0  0  0  0  0
  -30.3959  -12.4831   19.1658 C   0  0  0  0  0  0  0  0  0  0  0  0
  -28.6479  -12.1439   20.8698 C   0  0  0  0  0  0  0  0  0  0  0  0
  -22.8904  -20.7904   26.4414 C   0  0  1  0  0  0  0  0  0  0  0  0
  -26.0354  -18.6835   26.7618 C   0  0  1  0  0  0  0  0  0  0  0  0
  -27.7173  -13.1484   20.1691 C   0  0  2  0  0  0  0  0  0  0  0  0
  -34.6377  -17.0902   21.3508 C   0  0  0  0  0  0  0  0  0  0  0  0
  -30.1821  -14.9237   24.8942 C   0  0  0  0  0  0  0  0  0  0  0  0
  -32.6179  -18.3683   30.8330 C   0  0  0  0  0  0  0  0  0  0  0  0
  -27.8058  -22.4376   28.7948 C   0  0  0  0  0  0  0  0  0  0  0  0
  -30.0607  -22.1361   29.8401 C   0  0  0  0  0  0  0  0  0  0  0  0
  -28.0402  -21.1665   30.9358 C   0  0  0  0  0  0  0  0  0  0  0  0
  -31.3915  -15.8120   28.2958 C   0  0  0  0  0  0  0  0  0  0  0  0
  -31.7675  -19.0802   20.5458 C   0  0  0  0  0  0  0  0  0  0  0  0
  -31.7752  -17.5777   20.2558 C   0  0  0  0  0  0  0  0  0  0  0  0
  -31.5464  -13.0227   23.9564 C   0  0  0  0  0  0  0  0  0  0  0  0
  -30.8479  -19.4683   21.6978 C   0  0  0  0  0  0  0  0  0  1  0  0
  -31.5679  -14.5414   24.3066 C   0  0  1  0  0  0  0  0  0  0  0  0
  -28.9270  -20.1120   28.8159 C   0  0  1  0  0  0  0  0  0  0  0  0
  -31.5926  -17.6689   29.9541 C   0  0  2  0  0  0  0  0  0  0  0  0
  -28.7030  -21.4528   29.5707 C   0  0  0  0  0  0  0  0  0  0  0  0
  -25.8713  -11.5686   20.5923 N   0  0  0  0  0  0  0  0  0  0  0  0
  -32.1403  -16.7312   21.4490 N   0  0  0  0  0  0  0  0  0  0  0  0
  -26.2530  -12.8468   20.4296 N   0  0  0  0  0  0  0  0  0  0  0  0
  -33.2926  -15.7295   22.9734 N   0  3  0  0  0  0  0  0  0  0  0  0
  -27.3593  -19.1790   27.1438 N   0  0  0  0  0  0  0  0  0  0  0  0
  -30.0537  -12.4761   20.5902 N   0  0  0  0  0  0  0  0  0  0  0  0
  -25.4381  -15.0705   20.3863 N   0  0  0  0  0  0  0  0  0  0  0  0
  -21.7301  -12.6172   21.1791 N   0  0  0  0  0  0  0  0  0  0  0  0
  -23.8655  -19.7541   26.7049 N   0  0  0  0  0  0  0  0  0  0  0  0
  -29.7508  -19.1495   29.5393 N   0  0  0  0  0  0  0  0  0  0  0  0
  -30.6389  -12.7417   22.8663 N   0  0  0  0  0  0  0  0  0  0  0  0
  -32.2858  -16.5968   29.1854 N   0  3  0  0  0  0  0  0  0  0  0  0
  -22.5224  -14.7464   20.8661 O   0  0  0  0  0  0  0  0  0  0  0  0
  -25.7446  -20.8543   25.8797 O   0  0  0  0  0  0  0  0  0  0  0  0
  -26.8894  -19.0611   29.4245 O   0  0  0  0  0  0  0  0  0  0  0  0
  -31.3842  -18.9355   27.9072 O   0  0  0  0  0  0  0  0  0  0  0  0
  -32.2153  -13.0252   21.2257 O   0  0  0  0  0  0  0  0  0  0  0  0
  -21.4901   -7.0721   21.6579 O   0  0  0  0  0  0  0  0  0  0  0  0
  -29.5119  -19.0946   21.3635 O   0  0  0  0  0  0  0  0  0  1  0  0
  -23.4734   -3.2846   25.1400 F   0  0  0  0  0  0  0  0  0  0  0  0
  -20.0822   -6.3559   23.9268 F   0  0  0  0  0  0  0  0  0  0  0  0
  1  2  1  0  0  0  0
  1  5  2  0  0  0  0
  2  6  2  0  0  0  0
  3  8  2  0  0  0  0
  3 16  1  0  0  0  0
  4  9  1  0  0  0  0
  4 16  2  0  0  0  0
  5 18  1  0  0  0  0
  6 20  1  0  0  0  0
  7 10  2  0  0  0  0
  7 19  1  0  0  0  0
  8 22  1  0  0  0  0
  9 22  2  0  0  0  0
 10 23  1  0  0  0  0
 11 12  2  0  0  0  0
 11 24  1  0  0  0  0
 12 25  1  0  0  0  0
 13 21  1  0  0  0  0
 13 23  2  0  0  0  0
 14 25  2  0  0  0  0
 14 26  1  0  0  0  0
 15 28  2  0  0  0  0
 15 64  1  0  0  0  0
 16 27  1  0  0  0  0
 17 27  1  0  0  0  0
 17 29  2  0  0  0  0
 17 31  1  0  0  0  0
 18 20  2  0  0  0  0
 18 36  1  0  0  0  0
 19 21  2  0  0  0  0
 19 37  1  0  0  0  0
 20 45  1  0  0  0  0
 21 38  1  0  0  0  0
 22 80  1  0  0  0  0
 23 81  1  0  0  0  0
 24 26  2  0  0  0  0
 24 80  1  0  0  0  0
 25 82  1  0  0  0  0
 26 83  1  0  0  0  0
 27 63  2  0  0  0  0
 28 59  1  0  0  0  0
 28 66  1  0  0  0  0
 29 65  1  0  0  0  0
 29 69  1  0  0  0  0
 30 48  1  0  0  0  0
 30 64  1  0  0  0  0
 30 66  2  0  0  0  0
 31 70  1  0  0  0  0
 31 75  2  0  0  0  0
 32 46  1  0  0  0  0
 32 71  1  0  0  0  0
 32 76  2  0  0  0  0
 33 60  1  0  0  0  0
 33 67  1  0  0  0  0
 33 77  2  0  0  0  0
 34 61  1  0  0  0  0
 34 72  1  0  0  0  0
 34 78  2  0  0  0  0
 35 68  1  0  0  0  0
 35 73  1  0  0  0  0
 35 79  2  0  0  0  0
 36 39  1  0  0  0  0
 37 46  1  0  0  0  0
 38 67  1  0  0  0  0
 39 41  1  0  0  0  0
 40 42  1  0  0  0  0
 40 43  1  0  0  0  0
 41 45  1  0  0  0  0
 42 47  1  0  0  0  0
 43 68  1  0  0  0  0
 44 47  1  0  0  0  0
 44 68  1  0  0  0  0
 45 71  1  0  0  0  0
 46 67  1  0  0  0  0
 47 65  1  0  0  0  0
 49 59  1  0  0  0  0
 50 61  1  0  0  0  0
 51 62  1  0  0  0  0
 52 62  1  0  0  0  0
 53 62  1  0  0  0  0
 54 74  1  0  0  0  0
 55 56  1  0  0  0  0
 55 58  1  0  0  0  0
 56 64  1  0  0  0  0
 57 59  1  0  0  0  0
 57 73  1  0  0  0  0
 58 81  1  0  0  0  0
 60 62  1  0  0  0  0
 60 72  1  0  0  0  0
 61 74  1  0  0  0  0
 63 65  1  0  0  0  0
M  CHG  2  66   1  74   1
M  ISO  4  35 100  58 101  73 100  81 101
M  END
> <Batch ID>
0077

> <Smiles>
CNC(C)C(=O)NC(C(=O)N1Cc2cc([101O:1][101CH2:1]CCn3cc(C(C)C[100NH:0][100C:0](=O)N4CCCC(n5nc(-c6ccc(Oc7ccc(F)cc7F)cc6)c(C(N)=O)c5N)C4)nc3C)ccc2CC1C(=O)NC1CCCc2ccccc21)C(C)(C)C

> <Shape>
0.169

> <Color>
0.179

> <Negative vol penalty>
0.000

$$$$

  -OEChem-04052318373D

 88 96  0     1  0  0  0  0  0999 V2000
  -22.5763  -15.3561   22.0347 C   0  0  0  0  0  0  0  0  0  0  0  0
  -23.0950  -16.6429   21.9325 C   0  0  0  0  0  0  0  0  0  0  0  0
  -29.1692  -17.7745   19.1199 C   0  0  0  0  0  0  0  0  0  0  0  0
  -30.2278  -18.2543   21.2379 C   0  0  0  0  0  0  0  0  0  0  0  0
  -22.1206  -14.6968   20.8938 C   0  0  0  0  0  0  0  0  0  0  0  0
  -23.1594  -17.2708   20.6891 C   0  0  0  0  0  0  0  0  0  0  0  0
  -22.4244  -23.2406   19.5371 C   0  0  0  0  0  0  0  0  0  0  0  0
  -29.6775  -16.4762   19.1598 C   0  0  0  0  0  0  0  0  0  0  0  0
  -30.7362  -16.9560   21.2779 C   0  0  0  0  0  0  0  0  0  0  0  0
  -23.3359  -24.2764   19.3369 C   0  0  0  0  0  0  0  0  0  0  0  0
  -28.9393  -13.5585   20.7008 C   0  0  0  0  0  0  0  0  0  0  0  0
  -28.0747  -12.5135   20.3753 C   0  0  0  0  0  0  0  0  0  0  0  0
  -23.1418  -23.9779   16.9510 C   0  0  0  0  0  0  0  0  0  0  0  0
  -29.5299  -11.8766   18.5548 C   0  0  0  0  0  0  0  0  0  0  0  0
  -27.3759  -28.0239   19.8693 C   0  0  0  0  0  0  0  0  0  0  0  0
  -29.4444  -18.6636   20.1589 C   0  0  0  0  0  0  0  0  0  0  0  0
  -27.6884  -20.4524   20.6324 C   0  0  0  0  0  0  0  0  0  0  0  0
  -22.1705  -15.3206   19.6372 C   0  0  0  0  0  0  0  0  0  0  0  0
  -21.8722  -22.5573   18.4441 C   0  0  0  0  0  0  0  0  0  0  0  0
  -22.7051  -16.6187   19.5301 C   0  0  0  0  0  0  0  0  0  0  0  0
  -22.2216  -22.9355   17.1399 C   0  0  0  0  0  0  0  0  0  0  0  0
  -27.0354  -28.2586   21.1859 C   0  0  0  0  0  0  0  0  0  0  0  0
  -30.4610  -16.0669   20.2389 C   0  0  0  0  0  0  0  0  0  0  0  0
  -23.6970  -24.6433   18.0437 C   0  0  0  0  0  0  0  0  0  0  0  0
  -30.0992  -13.7626   19.9534 C   0  0  0  0  0  0  0  0  0  0  0  0
  -28.3700  -11.6725   19.3023 C   0  0  0  0  0  0  0  0  0  0  0  0
  -30.3945  -12.9217   18.8804 C   0  0  0  0  0  0  0  0  0  0  0  0
  -28.9200  -20.0050   20.1179 C   0  0  0  0  0  0  0  0  0  0  0  0
  -25.7135  -28.0316   21.5102 C   0  0  0  0  0  0  0  0  0  0  0  0
  -27.6623  -21.7947   20.3423 C   0  0  0  0  0  0  0  0  0  0  0  0
  -25.2427  -27.4150   19.3735 C   0  0  0  0  0  0  0  0  0  0  0  0
  -26.6599  -19.7202   21.3118 C   0  0  0  0  0  0  0  0  0  0  0  0
  -21.9293  -19.5494   17.4178 C   0  0  0  0  0  0  0  0  0  0  0  0
  -19.8051  -20.6644   15.2345 C   0  0  0  0  0  0  0  0  0  0  0  0
  -31.3036  -26.3106   20.0341 C   0  0  0  0  0  0  0  0  0  0  0  0
  -18.5565  -23.3286   13.5053 C   0  0  0  0  0  0  0  0  0  0  0  0
  -21.7097  -14.5500   18.4254 C   0  0  0  0  0  0  0  0  0  0  0  0
  -20.8700  -21.4599   18.6763 C   0  0  0  0  0  0  0  0  0  0  0  0
  -21.6418  -22.2470   15.9323 C   0  0  0  0  0  0  0  0  0  0  0  0
  -21.4669  -15.4286   17.2009 C   0  0  0  0  0  0  0  0  0  0  0  0
  -29.9815  -24.7161   17.1101 C   0  0  0  0  0  0  0  0  0  0  0  0
  -22.6266  -16.3994   17.0020 C   0  0  0  0  0  0  0  0  0  0  0  0
  -29.4819  -23.3690   17.6307 C   0  0  0  0  0  0  0  0  0  0  0  0
  -31.2414  -25.1656   17.8434 C   0  0  0  0  0  0  0  0  0  0  0  0
  -30.5931  -23.8747   19.8521 C   0  0  0  0  0  0  0  0  0  0  0  0
  -22.7687  -17.3426   18.2027 C   0  0  1  0  0  0  0  0  0  0  0  0
  -20.7617  -20.4914   17.5026 C   0  0  1  0  0  0  0  0  0  0  0  0
  -29.3042  -23.3985   19.1591 C   0  0  2  0  0  0  0  0  0  0  0  0
  -23.7773  -28.7156   22.9489 C   0  0  0  0  0  0  0  0  0  0  0  0
  -24.1028  -27.9036   17.1815 C   0  0  0  0  0  0  0  0  0  0  0  0
  -16.8496  -23.9220   11.7642 C   0  0  0  0  0  0  0  0  0  0  0  0
  -29.2679  -26.0147   23.2433 C   0  0  0  0  0  0  0  0  0  0  0  0
  -28.1047  -30.2707   22.2096 C   0  0  0  0  0  0  0  0  0  0  0  0
  -21.6198  -19.5154   13.0673 C   0  0  0  0  0  0  0  0  0  0  0  0
  -20.4034  -20.9291   11.3970 C   0  0  0  0  0  0  0  0  0  0  0  0
  -19.1746  -19.1714   12.6710 C   0  0  0  0  0  0  0  0  0  0  0  0
  -17.1078  -25.1150   15.3678 C   0  0  0  0  0  0  0  0  0  0  0  0
  -25.2304  -28.2520   22.9057 C   0  0  0  0  0  0  0  0  0  0  0  0
  -29.4890  -28.1864   21.9142 C   0  0  0  0  0  0  0  0  0  0  0  0
  -24.2336  -26.9394   18.3536 C   0  0  1  0  0  0  0  0  0  1  0  0
  -19.9083  -21.2788   13.8594 C   0  0  1  0  0  0  0  0  0  0  0  0
  -31.0677  -26.2276   21.5212 C   0  0  2  0  0  0  0  0  0  0  0  0
  -17.1316  -23.7870   13.2524 C   0  0  2  0  0  0  0  0  0  0  0  0
  -29.6324  -26.6418   21.8939 C   0  0  1  0  0  0  0  0  0  0  0  0
  -28.0451  -28.7254   22.1697 C   0  0  2  0  0  0  0  0  0  0  0  0
  -20.2891  -20.2356   12.7713 C   0  0  0  0  0  0  0  0  0  0  0  0
  -26.5018  -27.6001   18.9331 N   0  0  0  0  0  0  0  0  0  0  0  0
  -29.6252  -20.9836   19.5443 N   0  0  0  0  0  0  0  0  0  0  0  0
  -24.7867  -27.6082   20.6259 N   0  0  0  0  0  0  0  0  0  0  0  0
  -28.8341  -22.0593   19.6965 N   0  0  0  0  0  0  0  0  0  0  0  0
  -20.6709  -21.1761   16.2114 N   0  0  0  0  0  0  0  0  0  0  0  0
  -31.0389  -25.1586   19.2932 N   0  0  0  0  0  0  0  0  0  0  0  0
  -26.7516  -22.7626   20.5791 N   0  0  0  0  0  0  0  0  0  0  0  0
  -26.8479  -18.3482   21.5278 N   0  0  0  0  0  0  0  0  0  0  0  0
  -21.7679  -18.3865   18.1465 N   0  0  0  0  0  0  0  0  0  0  0  0
  -18.6392  -21.9569   13.6189 N   0  0  0  0  0  0  0  0  0  0  0  0
  -16.8903  -25.1083   13.8982 N   0  3  0  0  0  0  0  0  0  0  0  0
  -25.5981  -20.2631   21.7010 O   0  0  0  0  0  0  0  0  0  0  0  0
  -22.9037  -19.8544   16.7402 O   0  0  0  0  0  0  0  0  0  0  0  0
  -18.9814  -19.7686   15.4363 O   0  0  0  0  0  0  0  0  0  0  0  0
  -31.7083  -27.3694   19.5470 O   0  0  0  0  0  0  0  0  0  0  0  0
  -19.5023  -24.1090   13.5896 O   0  0  0  0  0  0  0  0  0  0  0  0
  -30.9570  -14.8001   20.2783 O   0  0  0  0  0  0  0  0  0  0  0  0
  -24.5869  -25.6535   17.8455 O   0  0  0  0  0  0  0  0  0  1  0  0
  -27.5404  -10.6681   18.9907 F   0  0  0  0  0  0  0  0  0  0  0  0
  -31.5079  -13.1121   18.1594 F   0  0  0  0  0  0  0  0  0  0  0  0
  -31.9557  -27.0057   22.1961 F   0  0  0  0  0  0  0  0  0  0  0  0
  -27.7454  -28.3741   23.4767 F   0  0  0  0  0  0  0  0  0  0  0  0
  1  2  1  0  0  0  0
  1  5  2  0  0  0  0
  2  6  2  0  0  0  0
  3  8  2  0  0  0  0
  3 16  1  0  0  0  0
  4  9  1  0  0  0  0
  4 16  2  0  0  0  0
  5 18  1  0  0  0  0
  6 20  1  0  0  0  0
  7 10  2  0  0  0  0
  7 19  1  0  0  0  0
  8 23  1  0  0  0  0
  9 23  2  0  0  0  0
 10 24  1  0  0  0  0
 11 12  2  0  0  0  0
 11 25  1  0  0  0  0
 12 26  1  0  0  0  0
 13 21  1  0  0  0  0
 13 24  2  0  0  0  0
 14 26  2  0  0  0  0
 14 27  1  0  0  0  0
 15 22  1  0  0  0  0
 15 67  2  0  0  0  0
 16 28  1  0  0  0  0
 17 28  1  0  0  0  0
 17 30  2  0  0  0  0
 17 32  1  0  0  0  0
 18 20  2  0  0  0  0
 18 37  1  0  0  0  0
 19 21  2  0  0  0  0
 19 38  1  0  0  0  0
 20 46  1  0  0  0  0
 21 39  1  0  0  0  0
 22 29  2  0  0  0  0
 22 65  1  0  0  0  0
 23 83  1  0  0  0  0
 24 84  1  0  0  0  0
 25 27  2  0  0  0  0
 25 83  1  0  0  0  0
 26 85  1  0  0  0  0
 27 86  1  0  0  0  0
 28 68  2  0  0  0  0
 29 58  1  0  0  0  0
 29 69  1  0  0  0  0
 30 70  1  0  0  0  0
 30 73  1  0  0  0  0
 31 60  1  0  0  0  0
 31 67  1  0  0  0  0
 31 69  2  0  0  0  0
 32 74  1  0  0  0  0
 32 78  2  0  0  0  0
 33 47  1  0  0  0  0
 33 75  1  0  0  0  0
 33 79  2  0  0  0  0
 34 61  1  0  0  0  0
 34 71  1  0  0  0  0
 34 80  2  0  0  0  0
 35 62  1  0  0  0  0
 35 72  1  0  0  0  0
 35 81  2  0  0  0  0
 36 63  1  0  0  0  0
 36 76  1  0  0  0  0
 36 82  2  0  0  0  0
 37 40  1  0  0  0  0
 38 47  1  0  0  0  0
 39 71  1  0  0  0  0
 40 42  1  0  0  0  0
 41 43  1  0  0  0  0
 41 44  1  0  0  0  0
 42 46  1  0  0  0  0
 43 48  1  0  0  0  0
 44 72  1  0  0  0  0
 45 48  1  0  0  0  0
 45 72  1  0  0  0  0
 46 75  1  0  0  0  0
 47 71  1  0  0  0  0
 48 70  1  0  0  0  0
 49 58  1  0  0  0  0
 50 60  1  0  0  0  0
 51 63  1  0  0  0  0
 52 64  1  0  0  0  0
 53 65  1  0  0  0  0
 54 66  1  0  0  0  0
 55 66  1  0  0  0  0
 56 66  1  0  0  0  0
 57 77  1  0  0  0  0
 59 64  1  0  0  0  0
 59 65  1  0  0  0  0
 60 84  1  0  0  0  0
 61 66  1  0  0  0  0
 61 76  1  0  0  0  0
 62 64  1  0  0  0  0
 62 87  1  0  0  0  0
 63 77  1  0  0  0  0
 65 88  1  0  0  0  0
 68 70  1  0  0  0  0
M  CHG  1  77   1
M  ISO  4  35 100  60 101  62 100  84 101
M  END
> <Batch ID>
0077

> <Smiles>
CCc1nc([101CH:1](C)[101O:1]c2ccc3c(c2)CN(C(=O)C(NC(=O)C(C)NC)C(C)(C)C)C(C(=O)NC2CCCc4ccccc42)C3)ncc1C(C)(F)CC(C)[100CH:0](F)[100C:0](=O)N1CCCC(n2nc(-c3ccc(Oc4ccc(F)cc4F)cc3)c(C(N)=O)c2N)C1

> <Shape>
0.207

> <Color>
0.053

> <Negative vol penalty>
0.000

$$$$

  -OEChem-04052318373D

 90 98  0     1  0  0  0  0  0999 V2000
  -19.4605  -32.2512   21.2500 C   0  0  0  0  0  0  0  0  0  0  0  0
  -20.5657  -31.4091   21.3189 C   0  0  0  0  0  0  0  0  0  0  0  0
  -24.8541  -13.5284   21.4573 C   0  0  0  0  0  0  0  0  0  0  0  0
  -26.1297  -13.3996   19.4095 C   0  0  0  0  0  0  0  0  0  0  0  0
  -18.2734  -31.8951   21.8887 C   0  0  0  0  0  0  0  0  0  0  0  0
  -20.4848  -30.2108   22.0274 C   0  0  0  0  0  0  0  0  0  0  0  0
  -22.5240  -26.3214   19.5058 C   0  0  0  0  0  0  0  0  0  0  0  0
  -24.1469  -12.3840   21.0888 C   0  0  0  0  0  0  0  0  0  0  0  0
  -25.4225  -12.2552   19.0410 C   0  0  0  0  0  0  0  0  0  0  0  0
  -23.9145  -26.2202   19.5077 C   0  0  0  0  0  0  0  0  0  0  0  0
  -24.6483   -9.0401   21.0828 C   0  0  0  0  0  0  0  0  0  0  0  0
  -24.4554   -8.0568   22.0531 C   0  0  0  0  0  0  0  0  0  0  0  0
  -23.7844  -24.5481   21.2416 C   0  0  0  0  0  0  0  0  0  0  0  0
  -22.0626   -8.3029   21.8268 C   0  0  0  0  0  0  0  0  0  0  0  0
  -31.3579  -25.3106   21.3531 C   0  0  0  0  0  0  0  0  0  0  0  0
  -25.8454  -14.0363   20.6176 C   0  0  0  0  0  0  0  0  0  0  0  0
  -27.7715  -15.2781   21.7383 C   0  0  0  0  0  0  0  0  0  0  0  0
  -18.1748  -30.6873   22.5972 C   0  0  0  0  0  0  0  0  0  0  0  0
  -21.7525  -25.5433   20.3809 C   0  0  0  0  0  0  0  0  0  0  0  0
  -19.2956  -29.8389   22.6772 C   0  0  0  0  0  0  0  0  0  0  0  0
  -22.3841  -24.6394   21.2470 C   0  0  0  0  0  0  0  0  0  0  0  0
  -31.0864  -26.4602   20.6445 C   0  0  0  0  0  0  0  0  0  0  0  0
  -31.7916  -26.3781   19.4186 C   0  0  0  0  0  0  0  0  0  0  0  0
  -24.4311  -11.7474   19.8806 C   0  0  0  0  0  0  0  0  0  0  0  0
  -24.5451  -25.3355   20.3777 C   0  0  0  0  0  0  0  0  0  0  0  0
  -23.5483   -9.6549   20.4846 C   0  0  0  0  0  0  0  0  0  0  0  0
  -23.1626   -7.6882   22.4251 C   0  0  0  0  0  0  0  0  0  0  0  0
  -22.2555   -9.2863   20.8565 C   0  0  0  0  0  0  0  0  0  0  0  0
  -26.5759  -15.2188   20.9974 C   0  0  0  0  0  0  0  0  0  0  0  0
  -32.4725  -25.1807   19.4152 C   0  0  0  0  0  0  0  0  0  0  0  0
  -28.0533  -16.6193   21.8285 C   0  0  0  0  0  0  0  0  0  0  0  0
  -28.5571  -14.2158   22.2950 C   0  0  0  0  0  0  0  0  0  0  0  0
  -19.7396  -26.1716   22.7593 C   0  0  0  0  0  0  0  0  0  0  0  0
  -19.2588  -22.9645   22.6807 C   0  0  0  0  0  0  0  0  0  0  0  0
  -20.4503  -19.8758   21.8521 C   0  0  0  0  0  0  0  0  0  0  0  0
  -28.4424  -21.6777   19.5033 C   0  0  0  0  0  0  0  0  0  0  0  0
  -16.8852  -30.3675   23.3109 C   0  0  0  0  0  0  0  0  0  0  0  0
  -20.2522  -25.6448   20.3478 C   0  0  0  0  0  0  0  0  0  0  0  0
  -21.6003  -23.7670   22.1920 C   0  0  0  0  0  0  0  0  0  0  0  0
  -16.7661  -28.9036   23.7270 C   0  0  0  0  0  0  0  0  0  0  0  0
  -25.2378  -20.6600   20.6744 C   0  0  0  0  0  0  0  0  0  0  0  0
  -18.0568  -28.4297   24.3876 C   0  0  0  0  0  0  0  0  0  0  0  0
  -25.3973  -19.1583   20.9178 C   0  0  0  0  0  0  0  0  0  0  0  0
  -26.0291  -21.1209   19.4523 C   0  0  0  0  0  0  0  0  0  0  0  0
  -27.6176  -19.2542   19.7095 C   0  0  0  0  0  0  0  0  0  0  0  0
  -19.2393  -28.5189   23.4153 C   0  0  1  0  0  0  0  0  0  0  0  0
  -19.5930  -25.1778   21.6419 C   0  0  1  0  0  0  0  0  0  0  0  0
  -26.8826  -18.7524   20.9643 C   0  0  2  0  0  0  0  0  0  0  0  0
  -31.7975  -27.3888   18.3408 C   0  0  0  0  0  0  0  0  0  0  0  0
  -19.8469  -17.4417   21.9443 C   0  0  0  0  0  0  0  0  0  0  0  0
  -34.5949  -25.5032   18.0971 C   0  0  0  0  0  0  0  0  0  0  0  0
  -32.6108  -24.3797   17.0306 C   0  0  0  0  0  0  0  0  0  0  0  0
  -33.9666  -23.1845   18.7379 C   0  0  0  0  0  0  0  0  0  0  0  0
  -19.8973  -22.9218   25.6641 C   0  0  0  0  0  0  0  0  0  0  0  0
  -20.2135  -20.4443   25.4900 C   0  0  0  0  0  0  0  0  0  0  0  0
  -17.9894  -21.4546   24.9845 C   0  0  0  0  0  0  0  0  0  0  0  0
  -30.8085  -21.9363   22.0816 C   0  0  0  0  0  0  0  0  0  0  0  0
  -32.6207  -20.7481   20.8576 C   0  0  0  0  0  0  0  0  0  0  0  0
  -20.5488  -19.6205   18.9052 C   0  0  0  0  0  0  0  0  0  0  0  0
  -30.2000  -27.5916   21.1008 C   0  0  0  0  0  0  0  0  0  0  0  0
  -28.8228  -27.6092   20.4282 C   0  0  0  0  0  0  0  0  0  0  0  0
  -27.9843  -26.3710   20.7486 C   0  0  0  0  0  0  0  0  0  0  0  0
  -32.7165  -23.2500   20.9988 C   0  0  0  0  0  0  0  0  0  0  0  0
  -30.8902  -22.0781   19.5859 C   0  0  0  0  0  0  0  0  0  0  0  0
  -26.6410  -26.4049   20.0323 C   0  0  0  0  0  0  0  0  0  1  0  0
  -19.8944  -21.7714   23.3527 C   0  0  1  0  0  0  0  0  0  0  0  0
  -19.8107  -18.7145   21.1127 C   0  0  2  0  0  0  0  0  0  0  0  0
  -33.3581  -24.5898   18.3896 C   0  0  0  0  0  0  0  0  0  0  0  0
  -19.5138  -21.6657   24.8565 C   0  0  0  0  0  0  0  0  0  0  0  0
  -31.7557  -22.0296   20.8677 C   0  0  0  0  0  0  0  0  0  0  0  0
  -26.1288  -16.4263   20.6424 N   0  0  0  0  0  0  0  0  0  0  0  0
  -32.2012  -24.5401   20.5960 N   0  0  0  0  0  0  0  0  0  0  0  0
  -27.0484  -17.2570   21.1625 N   0  0  0  0  0  0  0  0  0  0  0  0
  -20.1362  -23.9072   22.1264 N   0  0  0  0  0  0  0  0  0  0  0  0
  -27.4299  -20.7058   19.5596 N   0  0  0  0  0  0  0  0  0  0  0  0
  -29.0602  -17.3036   22.4118 N   0  0  0  0  0  0  0  0  0  0  0  0
  -28.1238  -12.8960   22.1089 N   0  0  0  0  0  0  0  0  0  0  0  0
  -19.2080  -27.4159   22.4790 N   0  0  0  0  0  0  0  0  0  0  0  0
  -19.5186  -20.6071   22.5579 N   0  0  0  0  0  0  0  0  0  0  0  0
  -29.7420  -21.1999   19.6191 N   0  0  0  0  0  0  0  0  0  0  0  0
  -20.5269  -18.4589   19.8310 N   0  3  0  0  0  0  0  0  0  0  0  0
  -29.6034  -14.4315   22.9525 O   0  0  0  0  0  0  0  0  0  0  0  0
  -20.2926  -25.8339   23.7995 O   0  0  0  0  0  0  0  0  0  0  0  0
  -18.0290  -23.0531   22.6426 O   0  0  0  0  0  0  0  0  0  0  0  0
  -21.6564  -20.1085   21.8108 O   0  0  0  0  0  0  0  0  0  0  0  0
  -28.2054  -22.8827   19.3658 O   0  0  0  0  0  0  0  0  0  0  0  0
  -23.7415  -10.6305   19.5209 O   0  0  0  0  0  0  0  0  0  0  0  0
  -25.9022  -25.2353   20.3821 O   0  0  0  0  0  0  0  0  0  1  0  0
  -22.9775   -6.7428   23.3557 F   0  0  0  0  0  0  0  0  0  0  0  0
  -21.1949   -9.8726   20.2845 F   0  0  0  0  0  0  0  0  0  0  0  0
  1  2  1  0  0  0  0
  1  5  2  0  0  0  0
  2  6  2  0  0  0  0
  3  8  2  0  0  0  0
  3 16  1  0  0  0  0
  4  9  1  0  0  0  0
  4 16  2  0  0  0  0
  5 18  1  0  0  0  0
  6 20  1  0  0  0  0
  7 10  2  0  0  0  0
  7 19  1  0  0  0  0
  8 24  1  0  0  0  0
  9 24  2  0  0  0  0
 10 25  1  0  0  0  0
 11 12  2  0  0  0  0
 11 26  1  0  0  0  0
 12 27  1  0  0  0  0
 13 21  1  0  0  0  0
 13 25  2  0  0  0  0
 14 27  2  0  0  0  0
 14 28  1  0  0  0  0
 15 22  2  0  0  0  0
 15 72  1  0  0  0  0
 16 29  1  0  0  0  0
 17 29  1  0  0  0  0
 17 31  2  0  0  0  0
 17 32  1  0  0  0  0
 18 20  2  0  0  0  0
 18 37  1  0  0  0  0
 19 21  2  0  0  0  0
 19 38  1  0  0  0  0
 20 46  1  0  0  0  0
 21 39  1  0  0  0  0
 22 23  1  0  0  0  0
 22 60  1  0  0  0  0
 23 30  2  0  0  0  0
 23 49  1  0  0  0  0
 24 87  1  0  0  0  0
 25 88  1  0  0  0  0
 26 28  2  0  0  0  0
 26 87  1  0  0  0  0
 27 89  1  0  0  0  0
 28 90  1  0  0  0  0
 29 71  2  0  0  0  0
 30 68  1  0  0  0  0
 30 72  1  0  0  0  0
 31 73  1  0  0  0  0
 31 76  1  0  0  0  0
 32 77  1  0  0  0  0
 32 82  2  0  0  0  0
 33 47  1  0  0  0  0
 33 78  1  0  0  0  0
 33 83  2  0  0  0  0
 34 66  1  0  0  0  0
 34 74  1  0  0  0  0
 34 84  2  0  0  0  0
 35 67  1  0  0  0  0
 35 79  1  0  0  0  0
 35 85  2  0  0  0  0
 36 75  1  0  0  0  0
 36 80  1  0  0  0  0
 36 86  2  0  0  0  0
 37 40  1  0  0  0  0
 38 47  1  0  0  0  0
 39 74  1  0  0  0  0
 40 42  1  0  0  0  0
 41 43  1  0  0  0  0
 41 44  1  0  0  0  0
 42 46  1  0  0  0  0
 43 48  1  0  0  0  0
 44 75  1  0  0  0  0
 45 48  1  0  0  0  0
 45 75  1  0  0  0  0
 46 78  1  0  0  0  0
 47 74  1  0  0  0  0
 48 73  1  0  0  0  0
 50 67  1  0  0  0  0
 51 68  1  0  0  0  0
 52 68  1  0  0  0  0
 53 68  1  0  0  0  0
 54 69  1  0  0  0  0
 55 69  1  0  0  0  0
 56 69  1  0  0  0  0
 57 70  1  0  0  0  0
 58 70  1  0  0  0  0
 59 81  1  0  0  0  0
 60 61  1  0  0  0  0
 61 62  1  0  0  0  0
 62 65  1  0  0  0  0
 63 70  1  0  0  0  0
 63 72  1  0  0  0  0
 64 70  1  0  0  0  0
 64 80  1  0  0  0  0
 65 88  1  0  0  0  0
 66 69  1  0  0  0  0
 66 79  1  0  0  0  0
 67 81  1  0  0  0  0
 71 73  1  0  0  0  0
M  CHG  1  81   1
M  ISO  4  36 100  65 101  80 100  88 101
M  END
> <Batch ID>
0077

> <Smiles>
CNC(C)C(=O)NC(C(=O)N1Cc2cc([101O:1][101CH2:1]CCCc3cn(CC(C)(C)C[100NH:0][100C:0](=O)N4CCCC(n5nc(-c6ccc(Oc7ccc(F)cc7F)cc6)c(C(N)=O)c5N)C4)c(C(C)(C)C)c3C)ccc2CC1C(=O)NC1CCCc2ccccc21)C(C)(C)C

> <Shape>
0.217

> <Color>
0.055

> <Negative vol penalty>
0.000

$$$$

  -OEChem-04052318373D

 85 93  0     1  0  0  0  0  0999 V2000
  -23.3788  -29.3075   12.2424 C   0  0  0  0  0  0  0  0  0  0  0  0
  -22.9331  -29.4919   13.5473 C   0  0  0  0  0  0  0  0  0  0  0  0
  -26.9476  -15.1743   21.7852 C   0  0  0  0  0  0  0  0  0  0  0  0
  -26.3119  -15.2852   19.4570 C   0  0  0  0  0  0  0  0  0  0  0  0
  -24.3148  -28.3133   11.9606 C   0  0  0  0  0  0  0  0  0  0  0  0
  -23.4224  -28.6815   14.5711 C   0  0  0  0  0  0  0  0  0  0  0  0
  -24.4634  -30.3151   20.3809 C   0  0  0  0  0  0  0  0  0  0  0  0
  -26.6145  -13.8201   21.8117 C   0  0  0  0  0  0  0  0  0  0  0  0
  -25.9788  -13.9310   19.4834 C   0  0  0  0  0  0  0  0  0  0  0  0
  -23.7172  -30.1567   21.5479 C   0  0  0  0  0  0  0  0  0  0  0  0
  -23.4062  -12.0188   20.5588 C   0  0  0  0  0  0  0  0  0  0  0  0
  -22.2044  -11.6353   19.9636 C   0  0  0  0  0  0  0  0  0  0  0  0
  -24.9733  -28.1654   22.0736 C   0  0  0  0  0  0  0  0  0  0  0  0
  -21.2277  -26.4885   21.6889 C   0  0  0  0  0  0  0  0  0  0  0  0
  -23.4159  -10.2057   18.4385 C   0  0  0  0  0  0  0  0  0  0  0  0
  -26.7963  -15.9069   20.6078 C   0  0  0  0  0  0  0  0  0  0  0  0
  -28.3914  -17.8680   20.2648 C   0  0  0  0  0  0  0  0  0  0  0  0
  -24.8231  -27.4967   12.9830 C   0  0  0  0  0  0  0  0  0  0  0  0
  -25.4645  -29.3922   20.0454 C   0  0  0  0  0  0  0  0  0  0  0  0
  -24.3651  -27.6746   14.3025 C   0  0  0  0  0  0  0  0  0  0  0  0
  -25.7325  -28.3158   20.9031 C   0  0  0  0  0  0  0  0  0  0  0  0
  -20.4129  -26.7824   22.7766 C   0  0  0  0  0  0  0  0  0  0  0  0
  -19.0317  -26.8037   22.6179 C   0  0  0  0  0  0  0  0  0  0  0  0
  -26.1301  -13.1984   20.6608 C   0  0  0  0  0  0  0  0  0  0  0  0
  -23.9701  -29.0802   22.3930 C   0  0  0  0  0  0  0  0  0  0  0  0
  -24.6129  -11.4958   20.0938 C   0  0  0  0  0  0  0  0  0  0  0  0
  -22.2092  -10.7288   18.9035 C   0  0  0  0  0  0  0  0  0  0  0  0
  -24.6177  -10.5893   19.0337 C   0  0  0  0  0  0  0  0  0  0  0  0
  -27.1397  -17.3060   20.5800 C   0  0  0  0  0  0  0  0  0  0  0  0
  -20.6169  -26.2253   20.4735 C   0  0  0  0  0  0  0  0  0  0  0  0
  -18.5192  -26.5265   21.3607 C   0  0  0  0  0  0  0  0  0  0  0  0
  -28.1985  -19.2229   20.3812 C   0  0  0  0  0  0  0  0  0  0  0  0
  -29.6186  -17.2230   19.8995 C   0  0  0  0  0  0  0  0  0  0  0  0
  -25.9442  -27.3821   17.6303 C   0  0  0  0  0  0  0  0  0  0  0  0
  -23.2779  -22.5115   19.8835 C   0  0  0  0  0  0  0  0  0  0  0  0
  -28.7992  -26.9144   19.0975 C   0  0  0  0  0  0  0  0  0  0  0  0
  -30.6331  -27.0363   21.9730 C   0  0  0  0  0  0  0  0  0  0  0  0
  -25.7981  -26.4040   12.6223 C   0  0  0  0  0  0  0  0  0  0  0  0
  -26.2786  -29.5920   18.7965 C   0  0  0  0  0  0  0  0  0  0  0  0
  -26.8100  -27.3084   20.5987 C   0  0  0  0  0  0  0  0  0  0  0  0
  -26.5473  -25.8349   13.8244 C   0  0  0  0  0  0  0  0  0  0  0  0
  -25.5603  -22.4508   22.7144 C   0  0  0  0  0  0  0  0  0  0  0  0
  -25.5805  -25.5474   14.9687 C   0  0  0  0  0  0  0  0  0  0  0  0
  -26.3211  -21.1491   22.4657 C   0  0  0  0  0  0  0  0  0  0  0  0
  -24.1004  -22.3390   22.2825 C   0  0  0  0  0  0  0  0  0  0  0  0
  -24.6835  -20.6098   20.6109 C   0  0  0  0  0  0  0  0  0  0  0  0
  -24.8909  -26.8319   15.4442 C   0  0  1  0  0  0  0  0  0  0  0  0
  -26.9264  -28.3057   18.2934 C   0  0  1  0  0  0  0  0  0  0  0  0
  -26.1678  -20.6907   21.0049 C   0  0  2  0  0  0  0  0  0  0  0  0
  -18.1327  -27.1134   23.7673 C   0  0  0  0  0  0  0  0  0  0  0  0
  -17.0435  -26.5329   21.1286 C   0  0  0  0  0  0  0  0  0  0  0  0
  -32.9281  -26.5565   22.8676 C   0  0  0  0  0  0  0  0  0  0  0  0
  -20.4719  -23.6160   18.8367 C   0  0  0  0  0  0  0  0  0  0  0  0
  -28.1835  -23.9261   19.0676 C   0  0  0  0  0  0  0  0  0  0  0  0
  -29.9903  -23.6076   20.7711 C   0  0  0  0  0  0  0  0  0  0  0  0
  -30.5516  -24.5089   18.5138 C   0  0  0  0  0  0  0  0  0  0  0  0
  -31.0454  -29.8609   22.7545 C   0  0  0  0  0  0  0  0  0  0  0  0
  -21.0498  -27.0759   24.1114 C   0  0  0  0  0  0  0  0  0  0  0  0
  -21.4599  -25.9047   19.2846 C   0  0  0  0  0  0  0  0  0  0  0  0
  -22.5584  -23.7811   20.2635 C   0  0  0  0  0  0  0  0  0  0  0  0
  -21.0652  -28.5627   24.4730 C   0  0  0  0  0  0  0  0  0  0  0  0
  -21.9007  -29.4076   23.5183 C   0  0  0  0  0  0  0  0  0  1  0  0
  -29.3135  -25.9741   20.1607 C   0  0  1  0  0  0  0  0  0  0  0  0
  -32.0082  -27.6082   22.2673 C   0  0  2  0  0  0  0  0  0  0  0  0
  -21.7660  -24.3956   19.0974 C   0  0  1  0  0  0  0  0  0  0  0  0
  -29.4880  -24.5219   19.6334 C   0  0  0  0  0  0  0  0  0  0  0  0
  -26.2198  -18.2285   20.8746 N   0  0  0  0  0  0  0  0  0  0  0  0
  -19.2788  -26.2367   20.2806 N   0  0  0  0  0  0  0  0  0  0  0  0
  -26.8940  -19.3838   20.7451 N   0  0  0  0  0  0  0  0  0  0  0  0
  -27.5745  -27.5435   19.3626 N   0  0  0  0  0  0  0  0  0  0  0  0
  -23.9969  -21.8734   20.8944 N   0  0  0  0  0  0  0  0  0  0  0  0
  -29.0192  -20.2804   20.2067 N   0  0  0  0  0  0  0  0  0  0  0  0
  -29.6421  -15.8235   19.8272 N   0  0  0  0  0  0  0  0  0  0  0  0
  -25.7856  -27.6076   16.2762 N   0  0  0  0  0  0  0  0  0  0  0  0
  -30.5390  -26.5735   20.6776 N   0  0  0  0  0  0  0  0  0  0  0  0
  -31.9025  -28.7433   23.2272 N   0  3  0  0  0  0  0  0  0  0  0  0
  -30.6678  -17.8677   19.6607 O   0  0  0  0  0  0  0  0  0  0  0  0
  -25.3736  -26.5270   18.2974 O   0  0  0  0  0  0  0  0  0  0  0  0
  -23.2041  -22.1024   18.7219 O   0  0  0  0  0  0  0  0  0  0  0  0
  -29.4632  -27.0899   18.0729 O   0  0  0  0  0  0  0  0  0  0  0  0
  -29.7337  -27.0001   22.8099 O   0  0  0  0  0  0  0  0  0  0  0  0
  -25.8051  -11.8770   20.6862 O   0  0  0  0  0  0  0  0  0  0  0  0
  -23.2428  -28.9229   23.5323 O   0  0  0  0  0  0  0  0  0  1  0  0
  -21.0550  -10.3594   18.3331 F   0  0  0  0  0  0  0  0  0  0  0  0
  -25.7737  -10.0826   18.5834 F   0  0  0  0  0  0  0  0  0  0  0  0
  1  2  1  0  0  0  0
  1  5  2  0  0  0  0
  2  6  2  0  0  0  0
  3  8  2  0  0  0  0
  3 16  1  0  0  0  0
  4  9  1  0  0  0  0
  4 16  2  0  0  0  0
  5 18  1  0  0  0  0
  6 20  1  0  0  0  0
  7 10  2  0  0  0  0
  7 19  1  0  0  0  0
  8 24  1  0  0  0  0
  9 24  2  0  0  0  0
 10 25  1  0  0  0  0
 11 12  2  0  0  0  0
 11 26  1  0  0  0  0
 12 27  1  0  0  0  0
 13 21  1  0  0  0  0
 13 25  2  0  0  0  0
 14 22  1  0  0  0  0
 14 30  2  0  0  0  0
 15 27  2  0  0  0  0
 15 28  1  0  0  0  0
 16 29  1  0  0  0  0
 17 29  1  0  0  0  0
 17 32  2  0  0  0  0
 17 33  1  0  0  0  0
 18 20  2  0  0  0  0
 18 38  1  0  0  0  0
 19 21  2  0  0  0  0
 19 39  1  0  0  0  0
 20 47  1  0  0  0  0
 21 40  1  0  0  0  0
 22 23  2  0  0  0  0
 22 58  1  0  0  0  0
 23 31  1  0  0  0  0
 23 50  1  0  0  0  0
 24 82  1  0  0  0  0
 25 83  1  0  0  0  0
 26 28  2  0  0  0  0
 26 82  1  0  0  0  0
 27 84  1  0  0  0  0
 28 85  1  0  0  0  0
 29 67  2  0  0  0  0
 30 59  1  0  0  0  0
 30 68  1  0  0  0  0
 31 51  1  0  0  0  0
 31 68  2  0  0  0  0
 32 69  1  0  0  0  0
 32 72  1  0  0  0  0
 33 73  1  0  0  0  0
 33 77  2  0  0  0  0
 34 48  1  0  0  0  0
 34 74  1  0  0  0  0
 34 78  2  0  0  0  0
 35 60  1  0  0  0  0
 35 71  1  0  0  0  0
 35 79  2  0  0  0  0
 36 63  1  0  0  0  0
 36 70  1  0  0  0  0
 36 80  2  0  0  0  0
 37 64  1  0  0  0  0
 37 75  1  0  0  0  0
 37 81  2  0  0  0  0
 38 41  1  0  0  0  0
 39 48  1  0  0  0  0
 40 70  1  0  0  0  0
 41 43  1  0  0  0  0
 42 44  1  0  0  0  0
 42 45  1  0  0  0  0
 43 47  1  0  0  0  0
 44 49  1  0  0  0  0
 45 71  1  0  0  0  0
 46 49  1  0  0  0  0
 46 71  1  0  0  0  0
 47 74  1  0  0  0  0
 48 70  1  0  0  0  0
 49 69  1  0  0  0  0
 52 64  1  0  0  0  0
 53 65  1  0  0  0  0
 54 66  1  0  0  0  0
 55 66  1  0  0  0  0
 56 66  1  0  0  0  0
 57 76  1  0  0  0  0
 58 61  1  0  0  0  0
 59 65  1  0  0  0  0
 60 65  1  0  0  0  0
 61 62  1  0  0  0  0
 62 83  1  0  0  0  0
 63 66  1  0  0  0  0
 63 75  1  0  0  0  0
 64 76  1  0  0  0  0
 67 69  1  0  0  0  0
M  CHG  1  76   1
M  ISO  4  35 100  60 100  62 101  83 101
M  END
> <Batch ID>
0077

> <Smiles>
CNC(C)C(=O)NC(C(=O)N1Cc2cc([101O:1][101CH2:1]CCc3cc(CC(C)[100CH2:0][100C:0](=O)N4CCCC(n5nc(-c6ccc(Oc7ccc(F)cc7F)cc6)c(C(N)=O)c5N)C4)nc(C)c3C)ccc2CC1C(=O)NC1CCCc2ccccc21)C(C)(C)C

> <Shape>
0.225

> <Color>
0.093

> <Negative vol penalty>
0.000

$$$$

  -OEChem-04052318373D

 85 93  0     1  0  0  0  0  0999 V2000
  -27.4264  -34.4684   23.9385 C   0  0  0  0  0  0  0  0  0  0  0  0
  -28.2989  -33.6126   23.2738 C   0  0  0  0  0  0  0  0  0  0  0  0
  -27.7285  -12.2354   18.9598 C   0  0  0  0  0  0  0  0  0  0  0  0
  -28.5002  -13.7546   20.6726 C   0  0  0  0  0  0  0  0  0  0  0  0
  -26.2485  -33.9687   24.4924 C   0  0  0  0  0  0  0  0  0  0  0  0
  -27.9944  -32.2563   23.1635 C   0  0  0  0  0  0  0  0  0  0  0  0
  -28.8016  -26.6968   18.7186 C   0  0  0  0  0  0  0  0  0  0  0  0
  -29.0486  -11.9924   18.5805 C   0  0  0  0  0  0  0  0  0  0  0  0
  -29.8203  -13.5115   20.2934 C   0  0  0  0  0  0  0  0  0  0  0  0
  -29.2637  -25.3815   18.7119 C   0  0  0  0  0  0  0  0  0  0  0  0
  -31.4418  -13.5378   16.7616 C   0  0  0  0  0  0  0  0  0  0  0  0
  -31.7341  -13.5387   15.3977 C   0  0  0  0  0  0  0  0  0  0  0  0
  -27.1621  -24.6447   19.6389 C   0  0  0  0  0  0  0  0  0  0  0  0
  -25.2460  -19.5342   19.1490 C   0  0  0  0  0  0  0  0  0  0  0  0
  -32.4912  -11.2500   15.5584 C   0  0  0  0  0  0  0  0  0  0  0  0
  -25.8795  -19.0417   21.2528 C   0  0  0  0  0  0  0  0  0  0  0  0
  -27.4543  -13.1165   20.0058 C   0  0  0  0  0  0  0  0  0  0  0  0
  -25.3391  -12.6666   21.3591 C   0  0  0  0  0  0  0  0  0  0  0  0
  -25.9248  -32.6073   24.3804 C   0  0  0  0  0  0  0  0  0  0  0  0
  -27.5181  -26.9979   19.1965 C   0  0  0  0  0  0  0  0  0  0  0  0
  -26.8117  -31.7377   23.7176 C   0  0  0  0  0  0  0  0  0  0  0  0
  -26.6851  -25.9644   19.6483 C   0  0  0  0  0  0  0  0  0  0  0  0
  -24.7773  -19.2774   20.4611 C   0  0  0  0  0  0  0  0  0  0  0  0
  -30.0945  -12.6304   19.2473 C   0  0  0  0  0  0  0  0  0  0  0  0
  -28.4450  -24.3555   19.1748 C   0  0  0  0  0  0  0  0  0  0  0  0
  -31.6743  -12.3930   17.5239 C   0  0  0  0  0  0  0  0  0  0  0  0
  -32.2588  -12.3949   14.7961 C   0  0  0  0  0  0  0  0  0  0  0  0
  -32.1990  -11.2491   16.9223 C   0  0  0  0  0  0  0  0  0  0  0  0
  -26.0908  -13.3684   20.3977 C   0  0  0  0  0  0  0  0  0  0  0  0
  -26.6204  -19.4473   19.1789 C   0  0  0  0  0  0  0  0  0  0  0  0
  -24.1150  -13.2894   21.3594 C   0  0  0  0  0  0  0  0  0  0  0  0
  -25.7140  -11.5514   22.1786 C   0  0  0  0  0  0  0  0  0  0  0  0
  -26.3680  -28.7544   21.5831 C   0  0  0  0  0  0  0  0  0  0  0  0
  -23.5125  -28.0197   20.2306 C   0  0  0  0  0  0  0  0  0  0  0  0
  -22.4380  -18.8428   19.7913 C   0  0  0  0  0  0  0  0  0  0  0  0
  -21.6945  -25.8949   18.2744 C   0  0  0  0  0  0  0  0  0  0  0  0
  -24.6630  -32.1048   25.0364 C   0  0  0  0  0  0  0  0  0  0  0  0
  -27.0245  -28.4185   19.1722 C   0  0  0  0  0  0  0  0  0  0  0  0
  -25.2914  -26.2322   20.1527 C   0  0  0  0  0  0  0  0  0  0  0  0
  -24.2326  -30.7232   24.5505 C   0  0  0  0  0  0  0  0  0  0  0  0
  -21.1538  -15.7454   18.5278 C   0  0  0  0  0  0  0  0  0  0  0  0
  -25.4241  -29.7710   24.5254 C   0  0  0  0  0  0  0  0  0  0  0  0
  -22.2197  -14.7255   18.9266 C   0  0  0  0  0  0  0  0  0  0  0  0
  -21.7750  -17.0932   18.1747 C   0  0  0  0  0  0  0  0  0  0  0  0
  -23.7097  -16.6442   19.6501 C   0  0  0  0  0  0  0  0  0  0  0  0
  -26.5045  -30.2647   23.5556 C   0  0  1  0  0  0  0  0  0  0  0  0
  -25.8908  -28.6742   20.1605 C   0  0  1  0  0  0  0  0  0  0  0  0
  -23.1222  -15.2775   20.0443 C   0  0  2  0  0  0  0  0  0  0  0  0
  -28.5669  -17.5995   21.5557 C   0  0  0  0  0  0  0  0  0  0  0  0
  -19.3768  -25.5356   17.3820 C   0  0  0  0  0  0  0  0  0  0  0  0
  -22.9021  -20.6775   21.3644 C   0  0  0  0  0  0  0  0  0  0  0  0
  -23.0064  -18.2821   22.0610 C   0  0  0  0  0  0  0  0  0  0  0  0
  -28.5195  -18.3825   17.7826 C   0  0  0  0  0  0  0  0  0  0  0  0
  -26.8768  -19.9126   16.7315 C   0  0  0  0  0  0  0  0  0  0  0  0
  -22.6182  -27.0088   22.9671 C   0  0  0  0  0  0  0  0  0  0  0  0
  -20.7254  -25.8250   21.8338 C   0  0  0  0  0  0  0  0  0  0  0  0
  -20.8862  -28.3117   21.7192 C   0  0  0  0  0  0  0  0  0  0  0  0
  -22.6152  -26.1133   15.4702 C   0  0  0  0  0  0  0  0  0  0  0  0
  -28.5831  -20.8465   18.3269 C   0  0  0  0  0  0  0  0  0  0  0  0
  -28.3514  -18.9668   20.9300 C   0  0  0  0  0  0  0  0  0  0  0  0
  -27.9181  -22.0425   19.0066 C   0  0  0  0  0  0  0  0  0  1  0  0
  -22.5103  -26.9020   20.3897 C   0  0  1  0  0  0  0  0  0  0  0  0
  -20.7416  -26.1538   17.1214 C   0  0  2  0  0  0  0  0  0  0  0  0
  -23.3689  -19.2650   20.9000 C   0  0  0  0  0  0  0  0  0  0  0  0
  -27.6466  -19.6328   18.0464 C   0  0  0  0  0  0  0  0  0  0  0  0
  -21.7119  -27.0067   21.7198 C   0  0  0  0  0  0  0  0  0  0  0  0
  -25.4017  -14.3610   19.8285 N   0  0  0  0  0  0  0  0  0  0  0  0
  -26.9943  -19.1472   20.4627 N   0  0  0  0  0  0  0  0  0  0  0  0
  -24.2042  -14.2873   20.4340 N   0  0  0  0  0  0  0  0  0  0  0  0
  -24.8568  -27.6383   20.1148 N   0  0  0  0  0  0  0  0  0  0  0  0
  -22.6425  -17.5726   19.2520 N   0  0  0  0  0  0  0  0  0  0  0  0
  -22.9816  -13.0753   22.0609 N   0  0  0  0  0  0  0  0  0  0  0  0
  -27.0106  -11.0349   22.0516 N   0  0  0  0  0  0  0  0  0  0  0  0
  -26.1283  -29.9730   22.1889 N   0  0  0  0  0  0  0  0  0  0  0  0
  -21.6794  -26.9251   19.1908 N   0  0  0  0  0  0  0  0  0  0  0  0
  -21.2859  -25.5766   15.8599 N   0  3  0  0  0  0  0  0  0  0  0  0
  -24.9172  -11.0182   22.9876 O   0  0  0  0  0  0  0  0  0  0  0  0
  -26.9118  -27.7822   22.0936 O   0  0  0  0  0  0  0  0  0  0  0  0
  -23.1166  -29.1876   20.2028 O   0  0  0  0  0  0  0  0  0  0  0  0
  -21.5541  -19.6190   19.4190 O   0  0  0  0  0  0  0  0  0  0  0  0
  -22.3807  -24.8785   18.3560 O   0  0  0  0  0  0  0  0  0  0  0  0
  -31.3828  -12.3934   18.8777 O   0  0  0  0  0  0  0  0  0  0  0  0
  -28.8939  -23.0709   19.1699 O   0  0  0  0  0  0  0  0  0  1  0  0
  -32.5380  -12.3954   13.4861 F   0  0  0  0  0  0  0  0  0  0  0  0
  -32.4233  -10.1459   17.6492 F   0  0  0  0  0  0  0  0  0  0  0  0
  1  2  1  0  0  0  0
  1  5  2  0  0  0  0
  2  6  2  0  0  0  0
  3  8  2  0  0  0  0
  3 17  1  0  0  0  0
  4  9  1  0  0  0  0
  4 17  2  0  0  0  0
  5 19  1  0  0  0  0
  6 21  1  0  0  0  0
  7 10  2  0  0  0  0
  7 20  1  0  0  0  0
  8 24  1  0  0  0  0
  9 24  2  0  0  0  0
 10 25  1  0  0  0  0
 11 12  2  0  0  0  0
 11 26  1  0  0  0  0
 12 27  1  0  0  0  0
 13 22  1  0  0  0  0
 13 25  2  0  0  0  0
 14 23  1  0  0  0  0
 14 30  2  0  0  0  0
 15 27  2  0  0  0  0
 15 28  1  0  0  0  0
 16 23  2  0  0  0  0
 16 68  1  0  0  0  0
 17 29  1  0  0  0  0
 18 29  1  0  0  0  0
 18 31  2  0  0  0  0
 18 32  1  0  0  0  0
 19 21  2  0  0  0  0
 19 37  1  0  0  0  0
 20 22  2  0  0  0  0
 20 38  1  0  0  0  0
 21 46  1  0  0  0  0
 22 39  1  0  0  0  0
 23 64  1  0  0  0  0
 24 82  1  0  0  0  0
 25 83  1  0  0  0  0
 26 28  2  0  0  0  0
 26 82  1  0  0  0  0
 27 84  1  0  0  0  0
 28 85  1  0  0  0  0
 29 67  2  0  0  0  0
 30 65  1  0  0  0  0
 30 68  1  0  0  0  0
 31 69  1  0  0  0  0
 31 72  1  0  0  0  0
 32 73  1  0  0  0  0
 32 77  2  0  0  0  0
 33 47  1  0  0  0  0
 33 74  1  0  0  0  0
 33 78  2  0  0  0  0
 34 62  1  0  0  0  0
 34 70  1  0  0  0  0
 34 79  2  0  0  0  0
 35 64  1  0  0  0  0
 35 71  1  0  0  0  0
 35 80  2  0  0  0  0
 36 63  1  0  0  0  0
 36 75  1  0  0  0  0
 36 81  2  0  0  0  0
 37 40  1  0  0  0  0
 38 47  1  0  0  0  0
 39 70  1  0  0  0  0
 40 42  1  0  0  0  0
 41 43  1  0  0  0  0
 41 44  1  0  0  0  0
 42 46  1  0  0  0  0
 43 48  1  0  0  0  0
 44 71  1  0  0  0  0
 45 48  1  0  0  0  0
 45 71  1  0  0  0  0
 46 74  1  0  0  0  0
 47 70  1  0  0  0  0
 48 69  1  0  0  0  0
 49 60  1  0  0  0  0
 50 63  1  0  0  0  0
 51 64  1  0  0  0  0
 52 64  1  0  0  0  0
 53 65  1  0  0  0  0
 54 65  1  0  0  0  0
 55 66  1  0  0  0  0
 56 66  1  0  0  0  0
 57 66  1  0  0  0  0
 58 76  1  0  0  0  0
 59 61  1  0  0  0  0
 59 65  1  0  0  0  0
 60 68  1  0  0  0  0
 61 83  1  0  0  0  0
 62 66  1  0  0  0  0
 62 75  1  0  0  0  0
 63 76  1  0  0  0  0
 67 69  1  0  0  0  0
M  CHG  1  76   1
M  ISO  4  35 100  61 101  64 100  83 101
M  END
> <Batch ID>
0077

> <Smiles>
CCn1cc([100C:0](C)(C)[100C:0](=O)N2CCCC(n3nc(-c4ccc(Oc5ccc(F)cc5F)cc4)c(C(N)=O)c3N)C2)cc1C(C)(C)C[101CH2:1][101O:1]c1ccc2c(c1)CN(C(=O)C(NC(=O)C(C)NC)C(C)(C)C)C(C(=O)NC1CCCc3ccccc31)C2

> <Shape>
0.249

> <Color>
0.064

> <Negative vol penalty>
0.000

$$$$

  -OEChem-04052318373D

 84 91  0     1  0  0  0  0  0999 V2000
  -32.0942  -14.4154   21.5498 C   0  0  0  0  0  0  0  0  0  0  0  0
  -31.1606  -15.3449   21.9967 C   0  0  0  0  0  0  0  0  0  0  0  0
  -28.4319  -26.2191   18.8759 C   0  0  0  0  0  0  0  0  0  0  0  0
  -26.7593  -24.8698   19.9798 C   0  0  0  0  0  0  0  0  0  0  0  0
  -31.7241  -13.4535   20.6108 C   0  0  0  0  0  0  0  0  0  0  0  0
  -29.8565  -15.3137   21.5040 C   0  0  0  0  0  0  0  0  0  0  0  0
  -24.7304  -16.6733   24.5667 C   0  0  0  0  0  0  0  0  0  0  0  0
  -29.1525  -25.0674   18.5599 C   0  0  0  0  0  0  0  0  0  0  0  0
  -27.4799  -23.7180   19.6638 C   0  0  0  0  0  0  0  0  0  0  0  0
  -23.9478  -17.8258   24.6209 C   0  0  0  0  0  0  0  0  0  0  0  0
  -30.2057  -22.0882   20.8233 C   0  0  0  0  0  0  0  0  0  0  0  0
  -30.3773  -21.1353   21.8273 C   0  0  0  0  0  0  0  0  0  0  0  0
  -22.4830  -16.9029   22.9411 C   0  0  0  0  0  0  0  0  0  0  0  0
  -29.2340  -19.4974   20.4682 C   0  0  0  0  0  0  0  0  0  0  0  0
  -27.2353  -26.1203   19.5859 C   0  0  0  0  0  0  0  0  0  0  0  0
  -25.4861  -27.9231   19.1409 C   0  0  0  0  0  0  0  0  0  0  0  0
  -30.4123  -13.4045   20.1135 C   0  0  0  0  0  0  0  0  0  0  0  0
  -24.4007  -15.6297   23.6900 C   0  0  0  0  0  0  0  0  0  0  0  0
  -29.4689  -14.3511   20.5564 C   0  0  0  0  0  0  0  0  0  0  0  0
  -23.2615  -15.7370   22.8796 C   0  0  0  0  0  0  0  0  0  0  0  0
  -28.6765  -23.8168   18.9539 C   0  0  0  0  0  0  0  0  0  0  0  0
  -22.8255  -17.9420   23.8059 C   0  0  0  0  0  0  0  0  0  0  0  0
  -29.5482  -21.7458   19.6417 C   0  0  0  0  0  0  0  0  0  0  0  0
  -29.8915  -19.8399   21.6498 C   0  0  0  0  0  0  0  0  0  0  0  0
  -29.0624  -20.4503   19.4642 C   0  0  0  0  0  0  0  0  0  0  0  0
  -26.4908  -27.3097   19.9131 C   0  0  0  0  0  0  0  0  0  0  0  0
  -25.0979  -29.0109   19.8841 C   0  0  0  0  0  0  0  0  0  0  0  0
  -24.9516  -27.5434   17.8659 C   0  0  0  0  0  0  0  0  0  0  0  0
  -25.8351  -14.2400   21.2171 C   0  0  0  0  0  0  0  0  0  0  0  0
  -23.3058  -12.2161   21.3864 C   0  0  0  0  0  0  0  0  0  0  0  0
  -20.0792  -11.6868   22.3640 C   0  0  0  0  0  0  0  0  0  0  0  0
  -23.6133  -30.8655   25.0487 C   0  0  0  0  0  0  0  0  0  0  0  0
  -30.0717  -12.3761   19.0642 C   0  0  0  0  0  0  0  0  0  0  0  0
  -25.2400  -14.3817   23.6629 C   0  0  0  0  0  0  0  0  0  0  0  0
  -22.8531  -14.6366   21.9359 C   0  0  0  0  0  0  0  0  0  0  0  0
  -28.5706  -12.1762   18.8719 C   0  0  0  0  0  0  0  0  0  0  0  0
  -27.1503  -31.1193   23.9874 C   0  0  0  0  0  0  0  0  0  0  0  0
  -27.8608  -13.5229   18.7749 C   0  0  0  0  0  0  0  0  0  0  0  0
  -27.2168  -30.1434   22.8139 C   0  0  0  0  0  0  0  0  0  0  0  0
  -26.0766  -30.7216   24.9957 C   0  0  0  0  0  0  0  0  0  0  0  0
  -24.7914  -29.5699   23.2249 C   0  0  0  0  0  0  0  0  0  0  0  0
  -28.0380  -14.3341   20.0641 C   0  0  1  0  0  0  0  0  0  0  0  0
  -25.1030  -13.5977   22.3613 C   0  0  1  0  0  0  0  0  0  0  0  0
  -25.8318  -29.9679   22.1672 C   0  0  2  0  0  0  0  0  0  0  0  0
  -19.4589  -32.8525   25.5364 C   0  0  0  0  0  0  0  0  0  0  0  0
  -18.2714   -9.9466   22.3317 C   0  0  0  0  0  0  0  0  0  0  0  0
  -21.4826  -31.5158   22.2881 C   0  0  0  0  0  0  0  0  0  0  0  0
  -22.8054  -12.7942   18.4325 C   0  0  0  0  0  0  0  0  0  0  0  0
  -20.5133  -11.8239   18.7025 C   0  0  0  0  0  0  0  0  0  0  0  0
  -22.5230  -10.3975   19.0889 C   0  0  0  0  0  0  0  0  0  0  0  0
  -19.9518  -11.5976   25.3195 C   0  0  0  0  0  0  0  0  0  0  0  0
  -20.7378  -32.4648   24.8073 C   0  0  0  0  0  0  0  0  0  0  0  0
  -22.5084  -25.3580   23.5881 C   0  0  0  0  0  0  0  0  0  0  0  0
  -21.8605  -24.0167   23.2390 C   0  0  0  0  0  0  0  0  0  0  0  0
  -21.7088  -26.5268   23.0076 C   0  0  0  0  0  0  0  0  0  0  0  0
  -22.6168  -22.8099   23.8025 C   0  0  0  0  0  0  0  0  0  0  0  0
  -22.3720  -27.8682   23.3272 C   0  0  0  0  0  0  0  0  0  0  0  0
  -21.9823  -21.4445   23.5344 C   0  0  0  0  0  0  0  0  0  0  0  0
  -21.5916  -29.0343   22.7101 C   0  0  0  0  0  0  0  0  0  0  0  0
  -21.1527  -31.0224   25.0720 C   0  0  0  0  0  0  0  0  0  0  0  0
  -22.7181  -20.2859   24.1936 C   0  0  0  0  0  0  0  0  0  1  0  0
  -21.9238  -12.1790   20.7799 C   0  0  1  0  0  0  0  0  0  0  0  0
  -19.4303  -10.5398   23.1177 C   0  0  2  0  0  0  0  0  0  0  0  0
  -22.2635  -30.3918   22.9616 C   0  0  2  0  0  0  0  0  0  0  0  0
  -21.9499  -11.8204   19.2672 C   0  0  0  0  0  0  0  0  0  0  0  0
  -26.7262  -27.9545   21.0589 N   0  0  0  0  0  0  0  0  0  0  0  0
  -25.8640  -28.9843   21.0122 N   0  0  0  0  0  0  0  0  0  0  0  0
  -23.7093  -13.4389   21.9411 N   0  0  0  0  0  0  0  0  0  0  0  0
  -24.7802  -30.5193   24.3479 N   0  0  0  0  0  0  0  0  0  0  0  0
  -24.1794  -29.9781   19.6762 N   0  0  0  0  0  0  0  0  0  0  0  0
  -25.4638  -26.3983   17.2408 N   0  0  0  0  0  0  0  0  0  0  0  0
  -27.1526  -13.8409   21.0972 N   0  0  0  0  0  0  0  0  0  0  0  0
  -21.1432  -11.2580   21.5989 N   0  0  0  0  0  0  0  0  0  0  0  0
  -22.3898  -30.6678   24.3910 N   0  0  0  0  0  0  0  0  0  0  0  0
  -18.9133  -11.0114   24.4335 N   0  3  0  0  0  0  0  0  0  0  0  0
  -24.0579  -28.2093   17.2901 O   0  0  0  0  0  0  0  0  0  0  0  0
  -25.2477  -15.0375   20.4955 O   0  0  0  0  0  0  0  0  0  0  0  0
  -23.9988  -11.1958   21.3749 O   0  0  0  0  0  0  0  0  0  0  0  0
  -19.6796  -12.8463   22.4430 O   0  0  0  0  0  0  0  0  0  0  0  0
  -23.6627  -31.3341   26.1933 O   0  0  0  0  0  0  0  0  0  0  0  0
  -29.3793  -22.6927   18.6455 O   0  0  0  0  0  0  0  0  0  0  0  0
  -22.0550  -19.0741   23.8566 O   0  0  0  0  0  0  0  0  0  1  0  0
  -30.0578  -18.9245   22.6134 F   0  0  0  0  0  0  0  0  0  0  0  0
  -28.4309  -20.1151   18.3307 F   0  0  0  0  0  0  0  0  0  0  0  0
  1  2  1  0  0  0  0
  1  5  2  0  0  0  0
  2  6  2  0  0  0  0
  3  8  2  0  0  0  0
  3 15  1  0  0  0  0
  4  9  1  0  0  0  0
  4 15  2  0  0  0  0
  5 17  1  0  0  0  0
  6 19  1  0  0  0  0
  7 10  2  0  0  0  0
  7 18  1  0  0  0  0
  8 21  1  0  0  0  0
  9 21  2  0  0  0  0
 10 22  1  0  0  0  0
 11 12  2  0  0  0  0
 11 23  1  0  0  0  0
 12 24  1  0  0  0  0
 13 20  1  0  0  0  0
 13 22  2  0  0  0  0
 14 24  2  0  0  0  0
 14 25  1  0  0  0  0
 15 26  1  0  0  0  0
 16 26  1  0  0  0  0
 16 27  2  0  0  0  0
 16 28  1  0  0  0  0
 17 19  2  0  0  0  0
 17 33  1  0  0  0  0
 18 20  2  0  0  0  0
 18 34  1  0  0  0  0
 19 42  1  0  0  0  0
 20 35  1  0  0  0  0
 21 81  1  0  0  0  0
 22 82  1  0  0  0  0
 23 25  2  0  0  0  0
 23 81  1  0  0  0  0
 24 83  1  0  0  0  0
 25 84  1  0  0  0  0
 26 66  2  0  0  0  0
 27 67  1  0  0  0  0
 27 70  1  0  0  0  0
 28 71  1  0  0  0  0
 28 76  2  0  0  0  0
 29 43  1  0  0  0  0
 29 72  1  0  0  0  0
 29 77  2  0  0  0  0
 30 62  1  0  0  0  0
 30 68  1  0  0  0  0
 30 78  2  0  0  0  0
 31 63  1  0  0  0  0
 31 73  1  0  0  0  0
 31 79  2  0  0  0  0
 32 69  1  0  0  0  0
 32 74  1  0  0  0  0
 32 80  2  0  0  0  0
 33 36  1  0  0  0  0
 34 43  1  0  0  0  0
 35 68  1  0  0  0  0
 36 38  1  0  0  0  0
 37 39  1  0  0  0  0
 37 40  1  0  0  0  0
 38 42  1  0  0  0  0
 39 44  1  0  0  0  0
 40 69  1  0  0  0  0
 41 44  1  0  0  0  0
 41 69  1  0  0  0  0
 42 72  1  0  0  0  0
 43 68  1  0  0  0  0
 44 67  1  0  0  0  0
 45 52  1  0  0  0  0
 46 63  1  0  0  0  0
 47 64  1  0  0  0  0
 48 65  1  0  0  0  0
 49 65  1  0  0  0  0
 50 65  1  0  0  0  0
 51 75  1  0  0  0  0
 52 60  1  0  0  0  0
 53 54  1  0  0  0  0
 53 55  1  0  0  0  0
 54 56  1  0  0  0  0
 55 57  1  0  0  0  0
 56 58  1  0  0  0  0
 57 59  1  0  0  0  0
 58 61  1  0  0  0  0
 59 64  1  0  0  0  0
 60 74  1  0  0  0  0
 61 82  1  0  0  0  0
 62 65  1  0  0  0  0
 62 73  1  0  0  0  0
 63 75  1  0  0  0  0
 64 74  1  0  0  0  0
 66 67  1  0  0  0  0
M  CHG  1  75   1
M  ISO  4  32 100  61 101  74 100  82 101
M  END
> <Batch ID>
0077

> <Smiles>
CCC[100N:0](C(C)CCCCCCC[101CH2:1][101O:1]c1ccc2c(c1)CN(C(=O)C(NC(=O)C(C)NC)C(C)(C)C)C(C(=O)NC1CCCc3ccccc31)C2)[100C:0](=O)N1CCCC(n2nc(-c3ccc(Oc4ccc(F)cc4F)cc3)c(C(N)=O)c2N)C1

> <Shape>
0.264

> <Color>
0.069

> <Negative vol penalty>
0.000

$$$$

  -OEChem-04052318373D

 88 96  0     1  0  0  0  0  0999 V2000
  -25.2025  -35.7137   23.8911 C   0  0  0  0  0  0  0  0  0  0  0  0
  -26.0770  -34.6504   24.0912 C   0  0  0  0  0  0  0  0  0  0  0  0
  -23.9425  -10.7539   23.3819 C   0  0  0  0  0  0  0  0  0  0  0  0
  -24.2596  -12.9360   24.3692 C   0  0  0  0  0  0  0  0  0  0  0  0
  -23.9051  -35.4725   23.4412 C   0  0  0  0  0  0  0  0  0  0  0  0
  -25.6542  -33.3451   23.8424 C   0  0  0  0  0  0  0  0  0  0  0  0
  -28.1151  -27.0216   21.5459 C   0  0  0  0  0  0  0  0  0  0  0  0
  -23.4348  -10.2803   24.5916 C   0  0  0  0  0  0  0  0  0  0  0  0
  -23.7519  -12.4624   25.5790 C   0  0  0  0  0  0  0  0  0  0  0  0
  -28.1505  -25.6792   21.9206 C   0  0  0  0  0  0  0  0  0  0  0  0
  -20.5195  -10.4280   26.2981 C   0  0  0  0  0  0  0  0  0  0  0  0
  -19.3624   -9.6502   26.2554 C   0  0  0  0  0  0  0  0  0  0  0  0
  -25.9118  -25.3890   21.0702 C   0  0  0  0  0  0  0  0  0  0  0  0
  -28.7894  -20.6930   22.1704 C   0  0  0  0  0  0  0  0  0  0  0  0
  -20.5587   -7.8147   27.2736 C   0  0  0  0  0  0  0  0  0  0  0  0
  -24.3550  -12.0818   23.2707 C   0  0  0  0  0  0  0  0  0  0  0  0
  -24.1552  -13.1550   20.9650 C   0  0  0  0  0  0  0  0  0  0  0  0
  -23.4692  -34.1644   23.1776 C   0  0  0  0  0  0  0  0  0  0  0  0
  -26.9717  -27.5614   20.9394 C   0  0  0  0  0  0  0  0  0  0  0  0
  -24.3493  -33.0861   23.3898 C   0  0  0  0  0  0  0  0  0  0  0  0
  -25.8654  -26.7379   20.6864 C   0  0  0  0  0  0  0  0  0  0  0  0
  -28.1255  -21.6173   22.9693 C   0  0  0  0  0  0  0  0  0  0  0  0
  -27.3361  -21.1752   24.0251 C   0  0  0  0  0  0  0  0  0  0  0  0
  -23.3395  -11.1345   25.6902 C   0  0  0  0  0  0  0  0  0  0  0  0
  -27.0477  -24.8634   21.6854 C   0  0  0  0  0  0  0  0  0  0  0  0
  -21.6962   -9.8991   26.8284 C   0  0  0  0  0  0  0  0  0  0  0  0
  -19.3820   -8.3436   26.7432 C   0  0  0  0  0  0  0  0  0  0  0  0
  -21.7158   -8.5924   27.3162 C   0  0  0  0  0  0  0  0  0  0  0  0
  -24.8800  -12.5715   22.0214 C   0  0  0  0  0  0  0  0  0  0  0  0
  -28.6325  -19.3486   22.4667 C   0  0  0  0  0  0  0  0  0  0  0  0
  -27.2441  -19.8092   24.2382 C   0  0  0  0  0  0  0  0  0  0  0  0
  -25.1051  -13.4469   20.0169 C   0  0  0  0  0  0  0  0  0  0  0  0
  -22.7490  -13.4105   20.8510 C   0  0  0  0  0  0  0  0  0  0  0  0
  -24.8974  -29.8473   21.6979 C   0  0  0  0  0  0  0  0  0  0  0  0
  -23.7416  -29.2441   18.7276 C   0  0  0  0  0  0  0  0  0  0  0  0
  -23.4146  -27.0465   16.1371 C   0  0  0  0  0  0  0  0  0  0  0  0
  -30.9914  -14.4976   20.3312 C   0  0  0  0  0  0  0  0  0  0  0  0
  -22.0427  -33.9494   22.7378 C   0  0  0  0  0  0  0  0  0  0  0  0
  -26.9594  -29.0049   20.5169 C   0  0  0  0  0  0  0  0  0  0  0  0
  -24.6214  -27.2638   20.0199 C   0  0  0  0  0  0  0  0  0  0  0  0
  -21.7915  -32.5677   22.1394 C   0  0  0  0  0  0  0  0  0  0  0  0
  -29.3658  -11.9793   18.4097 C   0  0  0  0  0  0  0  0  0  0  0  0
  -22.4147  -31.4853   23.0152 C   0  0  0  0  0  0  0  0  0  0  0  0
  -27.9665  -11.8981   19.0221 C   0  0  0  0  0  0  0  0  0  0  0  0
  -30.4319  -12.2430   19.4708 C   0  0  0  0  0  0  0  0  0  0  0  0
  -28.7803  -13.3390   20.9353 C   0  0  0  0  0  0  0  0  0  0  0  0
  -23.9356  -31.6581   23.1074 C   0  0  1  0  0  0  0  0  0  0  0  0
  -25.5510  -29.5733   20.3729 C   0  0  1  0  0  0  0  0  0  0  0  0
  -27.6649  -13.1299   19.8968 C   0  0  2  0  0  0  0  0  0  0  0  0
  -26.6142  -22.1437   24.9004 C   0  0  0  0  0  0  0  0  0  0  0  0
  -29.3520  -18.7293   20.1306 C   0  0  0  0  0  0  0  0  0  0  0  0
  -27.2497  -18.4991   26.3916 C   0  0  0  0  0  0  0  0  0  0  0  0
  -25.2518  -18.3947   24.8579 C   0  0  0  0  0  0  0  0  0  0  0  0
  -22.3839  -26.8252   13.8598 C   0  0  0  0  0  0  0  0  0  0  0  0
  -20.9991  -28.8605   20.0088 C   0  0  0  0  0  0  0  0  0  0  0  0
  -20.2483  -27.7382   17.9005 C   0  0  0  0  0  0  0  0  0  0  0  0
  -20.9748  -30.1241   17.8508 C   0  0  0  0  0  0  0  0  0  0  0  0
  -31.7712  -19.0286   22.2153 C   0  0  0  0  0  0  0  0  0  0  0  0
  -30.6314  -17.2896   23.5924 C   0  0  0  0  0  0  0  0  0  0  0  0
  -26.0514  -26.6415   14.8556 C   0  0  0  0  0  0  0  0  0  0  0  0
  -28.2747  -23.0801   22.6705 C   0  0  0  0  0  0  0  0  0  1  0  0
  -31.4027  -16.7622   21.2593 C   0  0  0  0  0  0  0  0  0  0  0  0
  -29.3312  -18.3284   21.6313 C   0  0  1  0  0  0  0  0  0  0  0  0
  -26.4125  -19.2739   25.3578 C   0  0  0  0  0  0  0  0  0  0  0  0
  -22.7067  -28.3071   18.1531 C   0  0  1  0  0  0  0  0  0  0  0  0
  -23.6288  -27.2113   14.6433 C   0  0  2  0  0  0  0  0  0  0  0  0
  -21.2548  -28.7477   18.4926 C   0  0  0  0  0  0  0  0  0  0  0  0
  -30.7633  -17.8592   22.1590 C   0  0  0  0  0  0  0  0  0  0  0  0
  -26.1894  -12.4961   21.7686 N   0  0  0  0  0  0  0  0  0  0  0  0
  -27.8742  -18.8812   23.4836 N   0  0  0  0  0  0  0  0  0  0  0  0
  -26.2948  -13.0361   20.5424 N   0  0  0  0  0  0  0  0  0  0  0  0
  -24.6555  -28.6834   19.6310 N   0  0  0  0  0  0  0  0  0  0  0  0
  -30.0869  -13.4250   20.2644 N   0  0  0  0  0  0  0  0  0  0  0  0
  -25.0305  -14.0122   18.7933 N   0  0  0  0  0  0  0  0  0  0  0  0
  -21.9154  -13.0481   21.9179 N   0  0  0  0  0  0  0  0  0  0  0  0
  -24.5732  -31.1751   21.9013 N   0  0  0  0  0  0  0  0  0  0  0  0
  -22.9853  -28.2182   16.7238 N   0  0  0  0  0  0  0  0  0  0  0  0
  -30.5839  -15.5812   21.0996 N   0  0  0  0  0  0  0  0  0  0  0  0
  -24.7578  -26.3537   14.1842 N   0  3  0  0  0  0  0  0  0  0  0  0
  -22.2444  -13.9293   19.8265 O   0  0  0  0  0  0  0  0  0  0  0  0
  -24.7004  -28.9224   22.4772 O   0  0  0  0  0  0  0  0  0  0  0  0
  -23.7436  -30.4282   18.3819 O   0  0  0  0  0  0  0  0  0  0  0  0
  -23.6053  -25.9837   16.7241 O   0  0  0  0  0  0  0  0  0  0  0  0
  -32.0791  -14.4923   19.7447 O   0  0  0  0  0  0  0  0  0  0  0  0
  -22.8439  -10.6728   26.8708 O   0  0  0  0  0  0  0  0  0  0  0  0
  -27.0794  -23.5529   22.0507 O   0  0  0  0  0  0  0  0  0  1  0  0
  -18.2704   -7.5973   26.7036 F   0  0  0  0  0  0  0  0  0  0  0  0
  -22.8430   -8.0793   27.8280 F   0  0  0  0  0  0  0  0  0  0  0  0
  1  2  1  0  0  0  0
  1  5  2  0  0  0  0
  2  6  2  0  0  0  0
  3  8  2  0  0  0  0
  3 16  1  0  0  0  0
  4  9  1  0  0  0  0
  4 16  2  0  0  0  0
  5 18  1  0  0  0  0
  6 20  1  0  0  0  0
  7 10  2  0  0  0  0
  7 19  1  0  0  0  0
  8 24  1  0  0  0  0
  9 24  2  0  0  0  0
 10 25  1  0  0  0  0
 11 12  2  0  0  0  0
 11 26  1  0  0  0  0
 12 27  1  0  0  0  0
 13 21  1  0  0  0  0
 13 25  2  0  0  0  0
 14 22  1  0  0  0  0
 14 30  2  0  0  0  0
 15 27  2  0  0  0  0
 15 28  1  0  0  0  0
 16 29  1  0  0  0  0
 17 29  1  0  0  0  0
 17 32  2  0  0  0  0
 17 33  1  0  0  0  0
 18 20  2  0  0  0  0
 18 38  1  0  0  0  0
 19 21  2  0  0  0  0
 19 39  1  0  0  0  0
 20 47  1  0  0  0  0
 21 40  1  0  0  0  0
 22 23  2  0  0  0  0
 22 61  1  0  0  0  0
 23 31  1  0  0  0  0
 23 50  1  0  0  0  0
 24 85  1  0  0  0  0
 25 86  1  0  0  0  0
 26 28  2  0  0  0  0
 26 85  1  0  0  0  0
 27 87  1  0  0  0  0
 28 88  1  0  0  0  0
 29 69  2  0  0  0  0
 30 63  1  0  0  0  0
 30 70  1  0  0  0  0
 31 64  1  0  0  0  0
 31 70  2  0  0  0  0
 32 71  1  0  0  0  0
 32 74  1  0  0  0  0
 33 75  1  0  0  0  0
 33 80  2  0  0  0  0
 34 48  1  0  0  0  0
 34 76  1  0  0  0  0
 34 81  2  0  0  0  0
 35 65  1  0  0  0  0
 35 72  1  0  0  0  0
 35 82  2  0  0  0  0
 36 66  1  0  0  0  0
 36 77  1  0  0  0  0
 36 83  2  0  0  0  0
 37 73  1  0  0  0  0
 37 78  1  0  0  0  0
 37 84  2  0  0  0  0
 38 41  1  0  0  0  0
 39 48  1  0  0  0  0
 40 72  1  0  0  0  0
 41 43  1  0  0  0  0
 42 44  1  0  0  0  0
 42 45  1  0  0  0  0
 43 47  1  0  0  0  0
 44 49  1  0  0  0  0
 45 73  1  0  0  0  0
 46 49  1  0  0  0  0
 46 73  1  0  0  0  0
 47 76  1  0  0  0  0
 48 72  1  0  0  0  0
 49 71  1  0  0  0  0
 51 63  1  0  0  0  0
 52 64  1  0  0  0  0
 53 64  1  0  0  0  0
 54 66  1  0  0  0  0
 55 67  1  0  0  0  0
 56 67  1  0  0  0  0
 57 67  1  0  0  0  0
 58 68  1  0  0  0  0
 59 68  1  0  0  0  0
 60 79  1  0  0  0  0
 61 86  1  0  0  0  0
 62 68  1  0  0  0  0
 62 78  1  0  0  0  0
 63 68  1  0  0  0  0
 65 67  1  0  0  0  0
 65 77  1  0  0  0  0
 66 79  1  0  0  0  0
 69 71  1  0  0  0  0
M  CHG  1  79   1
M  ISO  4  37 100  61 101  78 100  86 101
M  END
> <Batch ID>
0077

> <Smiles>
CNC(C)C(=O)NC(C(=O)N1Cc2cc([101O:1][101CH2:1]c3cc(C(C)C(C)(C)C[100NH:0][100C:0](=O)N4CCCC(n5nc(-c6ccc(Oc7ccc(F)cc7F)cc6)c(C(N)=O)c5N)C4)nc(C(C)C)c3C)ccc2CC1C(=O)NC1CCCc2ccccc21)C(C)(C)C

> <Shape>
0.224

> <Color>
0.093

> <Negative vol penalty>
0.000

$$$$

  -OEChem-04052318373D

 84 92  0     1  0  0  0  0  0999 V2000
  -30.1528  -30.9767   22.5619 C   0  0  0  0  0  0  0  0  0  0  0  0
  -29.3808  -29.8788   22.9281 C   0  0  0  0  0  0  0  0  0  0  0  0
  -23.0010   -9.8962   19.9791 C   0  0  0  0  0  0  0  0  0  0  0  0
  -23.7339   -9.9400   22.2809 C   0  0  0  0  0  0  0  0  0  0  0  0
  -30.0319  -31.5167   21.2822 C   0  0  0  0  0  0  0  0  0  0  0  0
  -28.4866  -29.3210   22.0151 C   0  0  0  0  0  0  0  0  0  0  0  0
  -28.7021  -24.2622   21.9277 C   0  0  0  0  0  0  0  0  0  0  0  0
  -22.2364   -8.7602   20.2441 C   0  0  0  0  0  0  0  0  0  0  0  0
  -22.9692   -8.8039   22.5459 C   0  0  0  0  0  0  0  0  0  0  0  0
  -28.0615  -23.5797   22.9609 C   0  0  0  0  0  0  0  0  0  0  0  0
  -23.2149   -5.4668   22.0618 C   0  0  0  0  0  0  0  0  0  0  0  0
  -23.8058   -4.4476   22.8084 C   0  0  0  0  0  0  0  0  0  0  0  0
  -26.1828  -23.1560   21.5083 C   0  0  0  0  0  0  0  0  0  0  0  0
  -22.0874   -4.6833   24.4902 C   0  0  0  0  0  0  0  0  0  0  0  0
  -27.0600  -17.5215   23.3498 C   0  0  0  0  0  0  0  0  0  0  0  0
  -28.0158  -19.3643   22.6247 C   0  0  0  0  0  0  0  0  0  0  0  0
  -23.7498  -10.4861   20.9975 C   0  0  0  0  0  0  0  0  0  0  0  0
  -24.1323  -13.0027   20.8288 C   0  0  0  0  0  0  0  0  0  0  0  0
  -29.1428  -30.9593   20.3498 C   0  0  0  0  0  0  0  0  0  0  0  0
  -28.0820  -24.4064   20.6782 C   0  0  0  0  0  0  0  0  0  0  0  0
  -28.3527  -29.8549   20.7221 C   0  0  0  0  0  0  0  0  0  0  0  0
  -26.8187  -23.8385   20.4601 C   0  0  0  0  0  0  0  0  0  0  0  0
  -27.2170  -18.8907   23.6368 C   0  0  0  0  0  0  0  0  0  0  0  0
  -22.2204   -8.2140   21.5275 C   0  0  0  0  0  0  0  0  0  0  0  0
  -26.8005  -23.0289   22.7523 C   0  0  0  0  0  0  0  0  0  0  0  0
  -22.0602   -6.0944   22.5294 C   0  0  0  0  0  0  0  0  0  0  0  0
  -23.2421   -4.0558   24.0226 C   0  0  0  0  0  0  0  0  0  0  0  0
  -21.4964   -5.7026   23.7436 C   0  0  0  0  0  0  0  0  0  0  0  0
  -24.5403  -11.6594   20.7242 C   0  0  0  0  0  0  0  0  0  0  0  0
  -25.2402  -13.7275   20.4631 C   0  0  0  0  0  0  0  0  0  0  0  0
  -22.8652  -13.5466   21.2214 C   0  0  0  0  0  0  0  0  0  0  0  0
  -27.0991  -26.8748   18.9333 C   0  0  0  0  0  0  0  0  0  0  0  0
  -26.5138  -24.5769   16.7197 C   0  0  0  0  0  0  0  0  0  0  0  0
  -25.8675  -21.2927   16.0542 C   0  0  0  0  0  0  0  0  0  0  0  0
  -30.7366  -14.6661   20.6964 C   0  0  0  0  0  0  0  0  0  0  0  0
  -29.0124  -31.6069   18.9940 C   0  0  0  0  0  0  0  0  0  0  0  0
  -28.7977  -25.1224   19.5657 C   0  0  0  0  0  0  0  0  0  0  0  0
  -26.1189  -23.9479   19.1309 C   0  0  0  0  0  0  0  0  0  0  0  0
  -28.3140  -30.7248   17.9623 C   0  0  0  0  0  0  0  0  0  0  0  0
  -29.5902  -12.2495   18.3465 C   0  0  0  0  0  0  0  0  0  0  0  0
  -27.0527  -30.1055   18.5558 C   0  0  0  0  0  0  0  0  0  0  0  0
  -28.1433  -11.9870   18.7680 C   0  0  0  0  0  0  0  0  0  0  0  0
  -30.4964  -12.4815   19.5535 C   0  0  0  0  0  0  0  0  0  0  0  0
  -28.5901  -13.2708   20.9014 C   0  0  0  0  0  0  0  0  0  0  0  0
  -27.3896  -29.2065   19.7516 C   0  0  1  0  0  0  0  0  0  0  0  0
  -27.8531  -25.6525   18.4914 C   0  0  1  0  0  0  0  0  0  0  0  0
  -27.6273  -13.0863   19.7160 C   0  0  2  0  0  0  0  0  0  0  0  0
  -25.4916  -19.2250   14.6828 C   0  0  0  0  0  0  0  0  0  0  0  0
  -31.3191  -19.2650   21.4286 C   0  0  0  0  0  0  0  0  0  0  0  0
  -28.4799  -17.3068   19.6126 C   0  0  0  0  0  0  0  0  0  0  0  0
  -23.6656  -25.6557   16.5356 C   0  0  0  0  0  0  0  0  0  0  0  0
  -23.0083  -23.5284   15.3908 C   0  0  0  0  0  0  0  0  0  0  0  0
  -24.6918  -25.0396   14.3397 C   0  0  0  0  0  0  0  0  0  0  0  0
  -28.7618  -20.6797   15.9734 C   0  0  0  0  0  0  0  0  0  0  0  0
  -26.6374  -19.6662   24.7927 C   0  0  0  0  0  0  0  0  0  0  0  0
  -25.2623  -20.2707   24.5011 C   0  0  0  0  0  0  0  0  0  0  0  0
  -30.8214  -16.8411   21.8887 C   0  0  0  0  0  0  0  0  0  0  0  0
  -25.2838  -21.3105   23.3868 C   0  0  0  0  0  0  0  0  0  1  0  0
  -25.3372  -23.6941   16.3806 C   0  0  1  0  0  0  0  0  0  0  0  0
  -26.4694  -20.3322   15.0444 C   0  0  2  0  0  0  0  0  0  0  0  0
  -30.5904  -18.0149   20.9129 C   0  0  1  0  0  0  0  0  0  0  0  0
  -29.0817  -18.2944   20.6252 C   0  0  2  0  0  0  0  0  0  0  0  0
  -24.1878  -24.4789   15.6874 C   0  0  0  0  0  0  0  0  0  0  0  0
  -27.7070  -17.1493   22.2421 N   0  0  0  0  0  0  0  0  0  0  0  0
  -25.8084  -11.5354   20.3233 N   0  0  0  0  0  0  0  0  0  0  0  0
  -28.2781  -18.2917   21.8241 N   0  0  0  0  0  0  0  0  0  0  0  0
  -26.2067  -12.8100   20.1727 N   0  0  0  0  0  0  0  0  0  0  0  0
  -26.8568  -24.6629   18.0765 N   0  0  0  0  0  0  0  0  0  0  0  0
  -29.9515  -13.5368   20.4110 N   0  0  0  0  0  0  0  0  0  0  0  0
  -25.4722  -15.0537   20.3648 N   0  0  0  0  0  0  0  0  0  0  0  0
  -21.8353  -12.6604   21.5654 N   0  0  0  0  0  0  0  0  0  0  0  0
  -27.9083  -27.9342   19.2970 N   0  0  0  0  0  0  0  0  0  0  0  0
  -25.8697  -22.5906   15.5886 N   0  0  0  0  0  0  0  0  0  0  0  0
  -30.1421  -15.6216   21.5115 N   0  0  0  0  0  0  0  0  0  0  0  0
  -27.7042  -19.7067   15.5967 N   0  3  0  0  0  0  0  0  0  0  0  0
  -22.6475  -14.7817   21.2501 O   0  0  0  0  0  0  0  0  0  0  0  0
  -25.8738  -26.8584   18.9421 O   0  0  0  0  0  0  0  0  0  0  0  0
  -27.1113  -25.1629   15.8134 O   0  0  0  0  0  0  0  0  0  0  0  0
  -25.4351  -20.9276   17.1451 O   0  0  0  0  0  0  0  0  0  0  0  0
  -31.8804  -14.8145   20.2530 O   0  0  0  0  0  0  0  0  0  0  0  0
  -21.4742   -7.1056   21.7865 O   0  0  0  0  0  0  0  0  0  0  0  0
  -26.1728  -22.3628   23.7593 O   0  0  0  0  0  0  0  0  0  1  0  0
  -23.8088   -3.0759   24.7388 F   0  0  0  0  0  0  0  0  0  0  0  0
  -20.3865   -6.3009   24.1974 F   0  0  0  0  0  0  0  0  0  0  0  0
  1  2  1  0  0  0  0
  1  5  2  0  0  0  0
  2  6  2  0  0  0  0
  3  8  2  0  0  0  0
  3 17  1  0  0  0  0
  4  9  1  0  0  0  0
  4 17  2  0  0  0  0
  5 19  1  0  0  0  0
  6 21  1  0  0  0  0
  7 10  2  0  0  0  0
  7 20  1  0  0  0  0
  8 24  1  0  0  0  0
  9 24  2  0  0  0  0
 10 25  1  0  0  0  0
 11 12  2  0  0  0  0
 11 26  1  0  0  0  0
 12 27  1  0  0  0  0
 13 22  1  0  0  0  0
 13 25  2  0  0  0  0
 14 27  2  0  0  0  0
 14 28  1  0  0  0  0
 15 23  1  0  0  0  0
 15 64  2  0  0  0  0
 16 23  2  0  0  0  0
 16 66  1  0  0  0  0
 17 29  1  0  0  0  0
 18 29  1  0  0  0  0
 18 30  2  0  0  0  0
 18 31  1  0  0  0  0
 19 21  2  0  0  0  0
 19 36  1  0  0  0  0
 20 22  2  0  0  0  0
 20 37  1  0  0  0  0
 21 45  1  0  0  0  0
 22 38  1  0  0  0  0
 23 55  1  0  0  0  0
 24 81  1  0  0  0  0
 25 82  1  0  0  0  0
 26 28  2  0  0  0  0
 26 81  1  0  0  0  0
 27 83  1  0  0  0  0
 28 84  1  0  0  0  0
 29 65  2  0  0  0  0
 30 67  1  0  0  0  0
 30 70  1  0  0  0  0
 31 71  1  0  0  0  0
 31 76  2  0  0  0  0
 32 46  1  0  0  0  0
 32 72  1  0  0  0  0
 32 77  2  0  0  0  0
 33 59  1  0  0  0  0
 33 68  1  0  0  0  0
 33 78  2  0  0  0  0
 34 60  1  0  0  0  0
 34 73  1  0  0  0  0
 34 79  2  0  0  0  0
 35 69  1  0  0  0  0
 35 74  1  0  0  0  0
 35 80  2  0  0  0  0
 36 39  1  0  0  0  0
 37 46  1  0  0  0  0
 38 68  1  0  0  0  0
 39 41  1  0  0  0  0
 40 42  1  0  0  0  0
 40 43  1  0  0  0  0
 41 45  1  0  0  0  0
 42 47  1  0  0  0  0
 43 69  1  0  0  0  0
 44 47  1  0  0  0  0
 44 69  1  0  0  0  0
 45 72  1  0  0  0  0
 46 68  1  0  0  0  0
 47 67  1  0  0  0  0
 48 60  1  0  0  0  0
 49 61  1  0  0  0  0
 50 62  1  0  0  0  0
 51 63  1  0  0  0  0
 52 63  1  0  0  0  0
 53 63  1  0  0  0  0
 54 75  1  0  0  0  0
 55 56  1  0  0  0  0
 56 58  1  0  0  0  0
 57 61  1  0  0  0  0
 57 74  1  0  0  0  0
 58 82  1  0  0  0  0
 59 63  1  0  0  0  0
 59 73  1  0  0  0  0
 60 75  1  0  0  0  0
 61 62  1  0  0  0  0
 62 66  1  0  0  0  0
 64 66  1  0  0  0  0
 65 67  1  0  0  0  0
M  CHG  1  75   1
M  ISO  4  35 100  58 101  74 100  82 101
M  END
> <Batch ID>
0077

> <Smiles>
CNC(C)C(=O)NC(C(=O)N1Cc2cc([101O:1][101CH2:1]CCc3cnn(C(C)C(C)C[100NH:0][100C:0](=O)N4CCCC(n5nc(-c6ccc(Oc7ccc(F)cc7F)cc6)c(C(N)=O)c5N)C4)c3)ccc2CC1C(=O)NC1CCCc2ccccc21)C(C)(C)C

> <Shape>
0.235

> <Color>
0.197

> <Negative vol penalty>
0.000

$$$$

  -OEChem-04052318373D

 84 92  0     1  0  0  0  0  0999 V2000
  -40.5423  -27.5631   21.4089 C   0  0  0  0  0  0  0  0  0  0  0  0
  -40.0686  -26.2970   21.7375 C   0  0  0  0  0  0  0  0  0  0  0  0
  -23.0731   -9.8680   19.9448 C   0  0  0  0  0  0  0  0  0  0  0  0
  -23.8332   -9.8805   22.2381 C   0  0  0  0  0  0  0  0  0  0  0  0
  -39.8494  -28.6968   21.8314 C   0  0  0  0  0  0  0  0  0  0  0  0
  -38.9021  -26.1639   22.4899 C   0  0  0  0  0  0  0  0  0  0  0  0
  -34.6821  -21.7540   21.9903 C   0  0  0  0  0  0  0  0  0  0  0  0
  -22.3296   -8.7153   20.1974 C   0  0  0  0  0  0  0  0  0  0  0  0
  -23.0896   -8.7277   22.4908 C   0  0  0  0  0  0  0  0  0  0  0  0
  -34.4601  -20.5820   22.7122 C   0  0  0  0  0  0  0  0  0  0  0  0
  -19.3817   -7.9212   21.6508 C   0  0  0  0  0  0  0  0  0  0  0  0
  -18.0748   -7.8734   21.1657 C   0  0  0  0  0  0  0  0  0  0  0  0
  -32.8327  -21.7339   24.0702 C   0  0  0  0  0  0  0  0  0  0  0  0
  -18.6350   -5.9275   19.8479 C   0  0  0  0  0  0  0  0  0  0  0  0
  -30.3957  -17.9245   25.3785 C   0  0  0  0  0  0  0  0  0  0  0  0
  -23.8250  -10.4507   20.9651 C   0  0  0  0  0  0  0  0  0  0  0  0
  -24.1661  -12.9756   20.8392 C   0  0  0  0  0  0  0  0  0  0  0  0
  -38.6686  -28.5774   22.5810 C   0  0  0  0  0  0  0  0  0  0  0  0
  -33.9878  -22.9295   22.3106 C   0  0  0  0  0  0  0  0  0  0  0  0
  -38.1934  -27.2972   22.9239 C   0  0  0  0  0  0  0  0  0  0  0  0
  -33.0459  -22.9188   23.3492 C   0  0  0  0  0  0  0  0  0  0  0  0
  -22.3378   -8.1451   21.4704 C   0  0  0  0  0  0  0  0  0  0  0  0
  -33.5374  -20.5726   23.7542 C   0  0  0  0  0  0  0  0  0  0  0  0
  -20.3153   -6.9721   21.2344 C   0  0  0  0  0  0  0  0  0  0  0  0
  -17.7014   -6.8766   20.2643 C   0  0  0  0  0  0  0  0  0  0  0  0
  -19.9419   -5.9753   20.3330 C   0  0  0  0  0  0  0  0  0  0  0  0
  -24.5937  -11.6412   20.7045 C   0  0  0  0  0  0  0  0  0  0  0  0
  -29.1289  -18.1074   24.9003 C   0  0  0  0  0  0  0  0  0  0  0  0
  -25.2580  -13.7246   20.4741 C   0  0  0  0  0  0  0  0  0  0  0  0
  -30.3853  -17.3594   23.2382 C   0  0  0  0  0  0  0  0  0  0  0  0
  -22.8955  -13.4920   21.2570 C   0  0  0  0  0  0  0  0  0  0  0  0
  -34.8259  -25.8271   23.3133 C   0  0  0  0  0  0  0  0  0  0  0  0
  -31.6722  -26.4589   22.8925 C   0  0  0  0  0  0  0  0  0  0  0  0
  -28.4789  -25.2695   22.7056 C   0  0  0  0  0  0  0  0  0  0  0  0
  -30.7414  -14.7457   20.6597 C   0  0  0  0  0  0  0  0  0  0  0  0
  -37.9799  -29.8325   23.0555 C   0  0  0  0  0  0  0  0  0  0  0  0
  -34.2192  -24.1784   21.5050 C   0  0  0  0  0  0  0  0  0  0  0  0
  -32.2598  -24.1489   23.7196 C   0  0  0  0  0  0  0  0  0  0  0  0
  -36.5480  -29.5992   23.5302 C   0  0  0  0  0  0  0  0  0  0  0  0
  -29.6044  -12.3553   18.2785 C   0  0  0  0  0  0  0  0  0  0  0  0
  -36.4821  -28.3852   24.4514 C   0  0  0  0  0  0  0  0  0  0  0  0
  -28.1670  -12.0622   18.7122 C   0  0  0  0  0  0  0  0  0  0  0  0
  -30.5215  -12.5792   19.4788 C   0  0  0  0  0  0  0  0  0  0  0  0
  -28.6197  -13.3129   20.8639 C   0  0  0  0  0  0  0  0  0  0  0  0
  -36.9183  -27.1114   23.7174 C   0  0  1  0  0  0  0  0  0  0  0  0
  -33.8316  -25.4513   22.2513 C   0  0  1  0  0  0  0  0  0  0  0  0
  -27.6455  -13.1353   19.6867 C   0  0  2  0  0  0  0  0  0  0  0  0
  -30.6127  -17.9663   20.8007 C   0  0  0  0  0  0  0  0  0  0  0  0
  -26.1084  -26.0309   22.3917 C   0  0  0  0  0  0  0  0  0  0  0  0
  -28.0654  -20.0319   26.1296 C   0  0  0  0  0  0  0  0  0  0  0  0
  -27.4874  -17.6643   26.7594 C   0  0  0  0  0  0  0  0  0  0  0  0
  -26.6160  -18.6545   24.6519 C   0  0  0  0  0  0  0  0  0  0  0  0
  -31.6201  -27.4746   25.7692 C   0  0  0  0  0  0  0  0  0  0  0  0
  -29.1221  -27.3195   25.7052 C   0  0  0  0  0  0  0  0  0  0  0  0
  -30.3145  -28.8622   24.1492 C   0  0  0  0  0  0  0  0  0  0  0  0
  -28.1705  -23.6714   20.2338 C   0  0  0  0  0  0  0  0  0  0  0  0
  -32.6202  -17.1195   24.4014 C   0  0  0  0  0  0  0  0  0  0  0  0
  -33.4972  -18.1948   23.7692 C   0  0  0  0  0  0  0  0  0  1  0  0
  -30.8068  -16.8991   21.8916 C   0  0  2  0  0  0  0  0  0  0  0  0
  -30.4387  -26.3675   23.7581 C   0  0  1  0  0  0  0  0  0  0  0  0
  -27.3664  -25.5234   21.7043 C   0  0  2  0  0  0  0  0  0  0  0  0
  -27.9060  -18.5798   25.5546 C   0  0  0  0  0  0  0  0  0  0  0  0
  -30.3899  -27.4831   24.8400 C   0  0  0  0  0  0  0  0  0  0  0  0
  -25.8586  -11.5447   20.2864 N   0  0  0  0  0  0  0  0  0  0  0  0
  -31.1517  -17.4608   24.3290 N   0  0  0  0  0  0  0  0  0  0  0  0
  -26.2351  -12.8281   20.1551 N   0  0  0  0  0  0  0  0  0  0  0  0
  -29.1515  -17.7503   23.5737 N   0  3  0  0  0  0  0  0  0  0  0  0
  -32.5261  -25.3470   22.9064 N   0  0  0  0  0  0  0  0  0  0  0  0
  -29.9707  -13.6096   20.3625 N   0  0  0  0  0  0  0  0  0  0  0  0
  -25.4680  -15.0560   20.3980 N   0  0  0  0  0  0  0  0  0  0  0  0
  -21.8839  -12.5834   21.5965 N   0  0  0  0  0  0  0  0  0  0  0  0
  -35.8544  -26.6319   22.8615 N   0  0  0  0  0  0  0  0  0  0  0  0
  -29.2995  -26.3686   22.8468 N   0  0  0  0  0  0  0  0  0  0  0  0
  -30.1421  -15.6763   21.4997 N   0  0  0  0  0  0  0  0  0  0  0  0
  -27.0296  -24.2681   20.9750 N   0  3  0  0  0  0  0  0  0  0  0  0
  -22.6589  -14.7227   21.3116 O   0  0  0  0  0  0  0  0  0  0  0  0
  -34.6707  -25.4185   24.4581 O   0  0  0  0  0  0  0  0  0  0  0  0
  -31.8670  -27.4765   22.2230 O   0  0  0  0  0  0  0  0  0  0  0  0
  -28.6049  -24.2042   23.3054 O   0  0  0  0  0  0  0  0  0  0  0  0
  -31.8773  -14.9204   20.2056 O   0  0  0  0  0  0  0  0  0  0  0  0
  -21.6122   -7.0204   21.7174 O   0  0  0  0  0  0  0  0  0  0  0  0
  -33.3193  -19.4303   24.4608 O   0  0  0  0  0  0  0  0  0  1  0  0
  -16.4459   -6.8299   19.7998 F   0  0  0  0  0  0  0  0  0  0  0  0
  -20.8341   -5.0600   19.9302 F   0  0  0  0  0  0  0  0  0  0  0  0
  1  2  1  0  0  0  0
  1  5  2  0  0  0  0
  2  6  2  0  0  0  0
  3  8  2  0  0  0  0
  3 16  1  0  0  0  0
  4  9  1  0  0  0  0
  4 16  2  0  0  0  0
  5 18  1  0  0  0  0
  6 20  1  0  0  0  0
  7 10  2  0  0  0  0
  7 19  1  0  0  0  0
  8 22  1  0  0  0  0
  9 22  2  0  0  0  0
 10 23  1  0  0  0  0
 11 12  2  0  0  0  0
 11 24  1  0  0  0  0
 12 25  1  0  0  0  0
 13 21  1  0  0  0  0
 13 23  2  0  0  0  0
 14 25  2  0  0  0  0
 14 26  1  0  0  0  0
 15 28  2  0  0  0  0
 15 65  1  0  0  0  0
 16 27  1  0  0  0  0
 17 27  1  0  0  0  0
 17 29  2  0  0  0  0
 17 31  1  0  0  0  0
 18 20  2  0  0  0  0
 18 36  1  0  0  0  0
 19 21  2  0  0  0  0
 19 37  1  0  0  0  0
 20 45  1  0  0  0  0
 21 38  1  0  0  0  0
 22 81  1  0  0  0  0
 23 82  1  0  0  0  0
 24 26  2  0  0  0  0
 24 81  1  0  0  0  0
 25 83  1  0  0  0  0
 26 84  1  0  0  0  0
 27 64  2  0  0  0  0
 28 62  1  0  0  0  0
 28 67  1  0  0  0  0
 29 66  1  0  0  0  0
 29 70  1  0  0  0  0
 30 59  1  0  0  0  0
 30 65  1  0  0  0  0
 30 67  2  0  0  0  0
 31 71  1  0  0  0  0
 31 76  2  0  0  0  0
 32 46  1  0  0  0  0
 32 72  1  0  0  0  0
 32 77  2  0  0  0  0
 33 60  1  0  0  0  0
 33 68  1  0  0  0  0
 33 78  2  0  0  0  0
 34 61  1  0  0  0  0
 34 73  1  0  0  0  0
 34 79  2  0  0  0  0
 35 69  1  0  0  0  0
 35 74  1  0  0  0  0
 35 80  2  0  0  0  0
 36 39  1  0  0  0  0
 37 46  1  0  0  0  0
 38 68  1  0  0  0  0
 39 41  1  0  0  0  0
 40 42  1  0  0  0  0
 40 43  1  0  0  0  0
 41 45  1  0  0  0  0
 42 47  1  0  0  0  0
 43 69  1  0  0  0  0
 44 47  1  0  0  0  0
 44 69  1  0  0  0  0
 45 72  1  0  0  0  0
 46 68  1  0  0  0  0
 47 66  1  0  0  0  0
 48 59  1  0  0  0  0
 49 61  1  0  0  0  0
 50 62  1  0  0  0  0
 51 62  1  0  0  0  0
 52 62  1  0  0  0  0
 53 63  1  0  0  0  0
 54 63  1  0  0  0  0
 55 63  1  0  0  0  0
 56 75  1  0  0  0  0
 57 58  1  0  0  0  0
 57 65  1  0  0  0  0
 58 82  1  0  0  0  0
 59 74  1  0  0  0  0
 60 63  1  0  0  0  0
 60 73  1  0  0  0  0
 61 75  1  0  0  0  0
 64 66  1  0  0  0  0
M  CHG  2  67   1  75   1
M  ISO  4  35 100  58 101  74 100  82 101
M  END
> <Batch ID>
0077

> <Smiles>
CNC(C)C(=O)NC(C(=O)N1Cc2cc([101O:1][101CH2:1]Cn3cc(C(C)(C)C)nc3C(C)[100NH:0][100C:0](=O)N3CCCC(n4nc(-c5ccc(Oc6ccc(F)cc6F)cc5)c(C(N)=O)c4N)C3)ccc2CC1C(=O)NC1CCCc2ccccc21)C(C)(C)C

> <Shape>
0.160

> <Color>
0.187

> <Negative vol penalty>
0.000

$$$$

  -OEChem-04052318373D

 86 94  0     1  0  0  0  0  0999 V2000
  -16.7928  -28.8776   24.1439 C   0  0  0  0  0  0  0  0  0  0  0  0
  -17.3554  -28.0472   23.1799 C   0  0  0  0  0  0  0  0  0  0  0  0
  -21.9563  -17.4184   24.6067 C   0  0  0  0  0  0  0  0  0  0  0  0
  -21.4018  -18.8726   22.7588 C   0  0  0  0  0  0  0  0  0  0  0  0
  -17.3645  -30.1209   24.4110 C   0  0  0  0  0  0  0  0  0  0  0  0
  -18.4895  -28.4602   22.4815 C   0  0  0  0  0  0  0  0  0  0  0  0
  -21.9778  -24.8082   22.1077 C   0  0  0  0  0  0  0  0  0  0  0  0
  -20.8622  -17.9078   25.3202 C   0  0  0  0  0  0  0  0  0  0  0  0
  -20.3077  -19.3621   23.4723 C   0  0  0  0  0  0  0  0  0  0  0  0
  -21.7605  -23.8154   21.1533 C   0  0  0  0  0  0  0  0  0  0  0  0
  -17.1656  -18.3591   24.2084 C   0  0  0  0  0  0  0  0  0  0  0  0
  -15.9541  -18.4842   23.5287 C   0  0  0  0  0  0  0  0  0  0  0  0
  -23.2959  -24.9240   19.6591 C   0  0  0  0  0  0  0  0  0  0  0  0
  -15.9450  -20.8573   23.9819 C   0  0  0  0  0  0  0  0  0  0  0  0
  -24.7737  -20.0806   19.0658 C   0  0  0  0  0  0  0  0  0  0  0  0
  -22.2261  -17.9008   23.3260 C   0  0  0  0  0  0  0  0  0  0  0  0
  -23.3771  -16.2930   21.7142 C   0  0  0  0  0  0  0  0  0  0  0  0
  -18.5118  -30.5452   23.7223 C   0  0  0  0  0  0  0  0  0  0  0  0
  -22.8490  -25.8740   21.8403 C   0  0  0  0  0  0  0  0  0  0  0  0
  -19.0763  -29.7109   22.7386 C   0  0  0  0  0  0  0  0  0  0  0  0
  -23.5245  -25.9277   20.6127 C   0  0  0  0  0  0  0  0  0  0  0  0
  -20.0379  -18.8796   24.7530 C   0  0  0  0  0  0  0  0  0  0  0  0
  -22.4173  -23.8747   19.9277 C   0  0  0  0  0  0  0  0  0  0  0  0
  -17.7669  -19.4830   24.7750 C   0  0  0  0  0  0  0  0  0  0  0  0
  -15.3437  -19.7334   23.4154 C   0  0  0  0  0  0  0  0  0  0  0  0
  -17.1565  -20.7322   24.6617 C   0  0  0  0  0  0  0  0  0  0  0  0
  -23.3564  -17.3960   22.5887 C   0  0  0  0  0  0  0  0  0  0  0  0
  -25.9883  -20.3118   18.4843 C   0  0  0  0  0  0  0  0  0  0  0  0
  -24.6762  -16.2290   21.2729 C   0  0  0  0  0  0  0  0  0  0  0  0
  -24.4235  -21.1176   17.1416 C   0  0  0  0  0  0  0  0  0  0  0  0
  -22.3167  -15.4057   21.3346 C   0  0  0  0  0  0  0  0  0  0  0  0
  -22.5327  -29.0295   21.6244 C   0  0  0  0  0  0  0  0  0  0  0  0
  -25.7629  -28.9426   21.3397 C   0  0  0  0  0  0  0  0  0  0  0  0
  -28.9813  -20.4004   20.8523 C   0  0  0  0  0  0  0  0  0  0  0  0
  -28.5499  -27.1643   20.4930 C   0  0  0  0  0  0  0  0  0  0  0  0
  -19.0663  -31.9175   24.0120 C   0  0  0  0  0  0  0  0  0  0  0  0
  -23.0931  -26.9227   22.8906 C   0  0  0  0  0  0  0  0  0  0  0  0
  -24.4854  -27.0401   20.2844 C   0  0  0  0  0  0  0  0  0  0  0  0
  -20.4871  -32.1225   23.4927 C   0  0  0  0  0  0  0  0  0  0  0  0
  -29.1449  -17.2752   22.5975 C   0  0  0  0  0  0  0  0  0  0  0  0
  -20.6095  -31.6169   22.0588 C   0  0  0  0  0  0  0  0  0  0  0  0
  -27.6794  -16.8657   22.7387 C   0  0  0  0  0  0  0  0  0  0  0  0
  -29.3140  -18.7879   22.6971 C   0  0  0  0  0  0  0  0  0  0  0  0
  -27.0117  -19.1502   21.8666 C   0  0  0  0  0  0  0  0  0  0  0  0
  -20.3209  -30.1130   21.9775 C   0  0  1  0  0  0  0  0  0  0  0  0
  -23.6078  -28.2378   22.3136 C   0  0  1  0  0  0  0  0  0  0  0  0
  -26.7928  -17.6320   21.7411 C   0  0  2  0  0  0  0  0  0  0  0  0
  -23.7655  -21.7703   15.9824 C   0  0  0  0  0  0  0  0  0  0  0  0
  -31.0452  -27.3730   20.3286 C   0  0  0  0  0  0  0  0  0  0  0  0
  -27.8411  -17.1111   17.8058 C   0  0  0  0  0  0  0  0  0  0  0  0
  -28.9153  -18.1404   15.7957 C   0  0  0  0  0  0  0  0  0  0  0  0
  -26.9913  -21.8297   20.7680 C   0  0  0  0  0  0  0  0  0  0  0  0
  -28.8038  -22.1166   19.0905 C   0  0  0  0  0  0  0  0  0  0  0  0
  -25.4555  -30.5694   18.7766 C   0  0  0  0  0  0  0  0  0  0  0  0
  -27.8026  -29.9373   18.1766 C   0  0  0  0  0  0  0  0  0  0  0  0
  -27.3603  -31.2728   20.2366 C   0  0  0  0  0  0  0  0  0  0  0  0
  -28.9770  -25.0079   22.4745 C   0  0  0  0  0  0  0  0  0  0  0  0
  -28.3321  -19.6211   17.7442 C   0  0  0  0  0  0  0  0  0  0  0  0
  -22.3340  -20.5568   18.4551 C   0  0  0  0  0  0  0  0  0  0  0  0
  -21.8882  -21.6012   19.4727 C   0  0  0  0  0  0  0  0  0  1  0  0
  -27.3489  -19.9944   18.9255 C   0  0  1  0  0  0  0  0  0  0  0  0
  -26.7318  -28.8244   20.1881 C   0  0  1  0  0  0  0  0  0  0  0  0
  -29.8738  -26.9654   21.2086 C   0  0  2  0  0  0  0  0  0  0  0  0
  -27.9182  -18.3674   16.9367 C   0  0  0  0  0  0  0  0  0  0  0  0
  -28.0180  -21.0701   19.9049 C   0  0  0  0  0  0  0  0  0  0  0  0
  -26.8180  -30.1309   19.3496 C   0  0  0  0  0  0  0  0  0  0  0  0
  -24.5479  -17.9899   22.6979 N   0  0  0  0  0  0  0  0  0  0  0  0
  -23.8236  -20.5899   18.2136 N   0  0  0  0  0  0  0  0  0  0  0  0
  -25.3293  -17.2573   21.8863 N   0  0  0  0  0  0  0  0  0  0  0  0
  -25.7415  -20.9543   17.2950 N   0  3  0  0  0  0  0  0  0  0  0  0
  -24.6858  -28.0450   21.3415 N   0  0  0  0  0  0  0  0  0  0  0  0
  -28.4388  -19.4802   21.7495 N   0  0  0  0  0  0  0  0  0  0  0  0
  -25.3121  -15.3939   20.4239 N   0  0  0  0  0  0  0  0  0  0  0  0
  -21.0433  -15.6140   21.8816 N   0  0  0  0  0  0  0  0  0  0  0  0
  -21.4636  -29.3535   22.4377 N   0  0  0  0  0  0  0  0  0  0  0  0
  -28.0025  -28.4001   20.7657 N   0  0  0  0  0  0  0  0  0  0  0  0
  -30.0472  -25.5350   21.5892 N   0  3  0  0  0  0  0  0  0  0  0  0
  -22.4972  -14.4464   20.5468 O   0  0  0  0  0  0  0  0  0  0  0  0
  -22.6641  -29.3258   20.4426 O   0  0  0  0  0  0  0  0  0  0  0  0
  -25.9585  -29.7952   22.2095 O   0  0  0  0  0  0  0  0  0  0  0  0
  -30.1802  -20.6858   20.7932 O   0  0  0  0  0  0  0  0  0  0  0  0
  -28.0529  -26.3103   19.7621 O   0  0  0  0  0  0  0  0  0  0  0  0
  -18.9701  -19.3573   25.4488 O   0  0  0  0  0  0  0  0  0  0  0  0
  -22.2065  -22.9073   18.9941 O   0  0  0  0  0  0  0  0  0  1  0  0
  -14.1811  -19.8537   22.7613 F   0  0  0  0  0  0  0  0  0  0  0  0
  -17.7299  -21.8157   25.2028 F   0  0  0  0  0  0  0  0  0  0  0  0
  1  2  1  0  0  0  0
  1  5  2  0  0  0  0
  2  6  2  0  0  0  0
  3  8  2  0  0  0  0
  3 16  1  0  0  0  0
  4  9  1  0  0  0  0
  4 16  2  0  0  0  0
  5 18  1  0  0  0  0
  6 20  1  0  0  0  0
  7 10  2  0  0  0  0
  7 19  1  0  0  0  0
  8 22  1  0  0  0  0
  9 22  2  0  0  0  0
 10 23  1  0  0  0  0
 11 12  2  0  0  0  0
 11 24  1  0  0  0  0
 12 25  1  0  0  0  0
 13 21  1  0  0  0  0
 13 23  2  0  0  0  0
 14 25  2  0  0  0  0
 14 26  1  0  0  0  0
 15 28  2  0  0  0  0
 15 68  1  0  0  0  0
 16 27  1  0  0  0  0
 17 27  1  0  0  0  0
 17 29  2  0  0  0  0
 17 31  1  0  0  0  0
 18 20  2  0  0  0  0
 18 36  1  0  0  0  0
 19 21  2  0  0  0  0
 19 37  1  0  0  0  0
 20 45  1  0  0  0  0
 21 38  1  0  0  0  0
 22 83  1  0  0  0  0
 23 84  1  0  0  0  0
 24 26  2  0  0  0  0
 24 83  1  0  0  0  0
 25 85  1  0  0  0  0
 26 86  1  0  0  0  0
 27 67  2  0  0  0  0
 28 61  1  0  0  0  0
 28 70  1  0  0  0  0
 29 69  1  0  0  0  0
 29 73  1  0  0  0  0
 30 48  1  0  0  0  0
 30 68  1  0  0  0  0
 30 70  2  0  0  0  0
 31 74  1  0  0  0  0
 31 78  2  0  0  0  0
 32 46  1  0  0  0  0
 32 75  1  0  0  0  0
 32 79  2  0  0  0  0
 33 62  1  0  0  0  0
 33 71  1  0  0  0  0
 33 80  2  0  0  0  0
 34 65  1  0  0  0  0
 34 72  1  0  0  0  0
 34 81  2  0  0  0  0
 35 63  1  0  0  0  0
 35 76  1  0  0  0  0
 35 82  2  0  0  0  0
 36 39  1  0  0  0  0
 37 46  1  0  0  0  0
 38 71  1  0  0  0  0
 39 41  1  0  0  0  0
 40 42  1  0  0  0  0
 40 43  1  0  0  0  0
 41 45  1  0  0  0  0
 42 47  1  0  0  0  0
 43 72  1  0  0  0  0
 44 47  1  0  0  0  0
 44 72  1  0  0  0  0
 45 75  1  0  0  0  0
 46 71  1  0  0  0  0
 47 69  1  0  0  0  0
 49 63  1  0  0  0  0
 50 64  1  0  0  0  0
 51 64  1  0  0  0  0
 52 65  1  0  0  0  0
 53 65  1  0  0  0  0
 54 66  1  0  0  0  0
 55 66  1  0  0  0  0
 56 66  1  0  0  0  0
 57 77  1  0  0  0  0
 58 61  1  0  0  0  0
 58 64  1  0  0  0  0
 59 60  1  0  0  0  0
 59 68  1  0  0  0  0
 60 84  1  0  0  0  0
 61 65  1  0  0  0  0
 62 66  1  0  0  0  0
 62 76  1  0  0  0  0
 63 77  1  0  0  0  0
 67 69  1  0  0  0  0
M  CHG  2  70   1  77   1
M  ISO  4  34 100  60 101  65 100  84 101
M  END
> <Batch ID>
0077

> <Smiles>
CNC(C)C(=O)NC(C(=O)N1Cc2cc([101O:1][101CH2:1]Cn3cc(C(CC(C)C)[100C:0](C)(C)[100C:0](=O)N4CCCC(n5nc(-c6ccc(Oc7ccc(F)cc7F)cc6)c(C(N)=O)c5N)C4)nc3C)ccc2CC1C(=O)NC1CCCc2ccccc21)C(C)(C)C

> <Shape>
0.171

> <Color>
0.110

> <Negative vol penalty>
0.000

$$$$

  -OEChem-04052318373D

 84 92  0     1  0  0  0  0  0999 V2000
  -26.4634  -11.1151   20.5349 C   0  0  0  0  0  0  0  0  0  0  0  0
  -26.8805  -12.3748   20.1170 C   0  0  0  0  0  0  0  0  0  0  0  0
  -22.2817  -27.4794   20.2537 C   0  0  0  0  0  0  0  0  0  0  0  0
  -22.7376  -28.6389   22.3236 C   0  0  0  0  0  0  0  0  0  0  0  0
  -25.1707  -10.9375   21.0261 C   0  0  0  0  0  0  0  0  0  0  0  0
  -26.0047  -13.4575   20.1891 C   0  0  0  0  0  0  0  0  0  0  0  0
  -28.2004  -17.6097   22.0818 C   0  0  0  0  0  0  0  0  0  0  0  0
  -20.9580  -27.2907   20.6509 C   0  0  0  0  0  0  0  0  0  0  0  0
  -21.4139  -28.4502   22.7208 C   0  0  0  0  0  0  0  0  0  0  0  0
  -29.0229  -18.3413   21.2262 C   0  0  0  0  0  0  0  0  0  0  0  0
  -18.4014  -29.8431   22.0840 C   0  0  0  0  0  0  0  0  0  0  0  0
  -17.7317  -30.9328   22.6403 C   0  0  0  0  0  0  0  0  0  0  0  0
  -27.2287  -19.9099   20.8523 C   0  0  0  0  0  0  0  0  0  0  0  0
  -17.3927  -29.6832   24.6801 C   0  0  0  0  0  0  0  0  0  0  0  0
  -33.1686  -24.4722   21.1687 C   0  0  0  0  0  0  0  0  0  0  0  0
  -23.1715  -28.1534   21.0901 C   0  0  0  0  0  0  0  0  0  0  0  0
  -25.0631  -29.4356   19.9562 C   0  0  0  0  0  0  0  0  0  0  0  0
  -24.2818  -12.0205   21.1132 C   0  0  0  0  0  0  0  0  0  0  0  0
  -26.8802  -18.0174   22.3209 C   0  0  0  0  0  0  0  0  0  0  0  0
  -24.6984  -13.2939   20.6806 C   0  0  0  0  0  0  0  0  0  0  0  0
  -26.3923  -19.1831   21.7133 C   0  0  0  0  0  0  0  0  0  0  0  0
  -20.5240  -27.7762   21.8844 C   0  0  0  0  0  0  0  0  0  0  0  0
  -28.5362  -19.4900   20.6090 C   0  0  0  0  0  0  0  0  0  0  0  0
  -18.5666  -28.6733   22.8257 C   0  0  0  0  0  0  0  0  0  0  0  0
  -17.2274  -30.8530   23.9384 C   0  0  0  0  0  0  0  0  0  0  0  0
  -18.0623  -28.5934   24.1237 C   0  0  0  0  0  0  0  0  0  0  0  0
  -24.5392  -28.3481   20.6805 C   0  0  0  0  0  0  0  0  0  0  0  0
  -32.5663  -25.7444   21.1472 C   0  0  0  0  0  0  0  0  0  0  0  0
  -33.1082  -24.0416   19.8658 C   0  0  0  0  0  0  0  0  0  0  0  0
  -26.3996  -29.1481   19.8239 C   0  0  0  0  0  0  0  0  0  0  0  0
  -24.4009  -30.6015   19.4485 C   0  0  0  0  0  0  0  0  0  0  0  0
  -24.0125  -16.7430   21.8148 C   0  0  0  0  0  0  0  0  0  0  0  0
  -22.9956  -19.3446   23.4640 C   0  0  0  0  0  0  0  0  0  0  0  0
  -31.1369  -27.5199   22.1011 C   0  0  0  0  0  0  0  0  0  0  0  0
  -23.5935  -22.5480   24.4778 C   0  0  0  0  0  0  0  0  0  0  0  0
  -22.8788  -11.7701   21.6068 C   0  0  0  0  0  0  0  0  0  0  0  0
  -26.0142  -17.2321   23.2674 C   0  0  0  0  0  0  0  0  0  0  0  0
  -24.9889  -19.6745   21.9529 C   0  0  0  0  0  0  0  0  0  0  0  0
  -22.1353  -13.0439   22.0007 C   0  0  0  0  0  0  0  0  0  0  0  0
  -28.9763  -24.9106   20.7780 C   0  0  0  0  0  0  0  0  0  0  0  0
  -22.3095  -14.1164   20.9301 C   0  0  0  0  0  0  0  0  0  0  0  0
  -27.6583  -25.6640   20.6042 C   0  0  0  0  0  0  0  0  0  0  0  0
  -29.7429  -25.3963   22.0054 C   0  0  0  0  0  0  0  0  0  0  0  0
  -28.6787  -27.6245   21.8404 C   0  0  0  0  0  0  0  0  0  0  0  0
  -23.7857  -14.4979   20.7664 C   0  0  1  0  0  0  0  0  0  0  0  0
  -24.5226  -17.4539   23.0363 C   0  0  1  0  0  0  0  0  0  0  0  0
  -27.8892  -27.1853   20.5960 C   0  0  2  0  0  0  0  0  0  0  0  0
  -35.1075  -22.6264   19.3301 C   0  0  0  0  0  0  0  0  0  0  0  0
  -22.5616  -24.4258   25.7841 C   0  0  0  0  0  0  0  0  0  0  0  0
  -33.5680  -27.6326   22.4602 C   0  0  0  0  0  0  0  0  0  0  0  0
  -32.1261  -26.0012   23.6823 C   0  0  0  0  0  0  0  0  0  0  0  0
  -21.1265  -19.9401   21.1269 C   0  0  0  0  0  0  0  0  0  0  0  0
  -20.8461  -22.2574   22.0322 C   0  0  0  0  0  0  0  0  0  0  0  0
  -20.1163  -20.2942   23.3871 C   0  0  0  0  0  0  0  0  0  0  0  0
  -32.2035  -25.0637   17.7561 C   0  0  0  0  0  0  0  0  0  0  0  0
  -25.8121  -22.5590   26.4366 C   0  0  0  0  0  0  0  0  0  0  0  0
  -31.3828  -21.4721   19.5437 C   0  0  0  0  0  0  0  0  0  0  0  0
  -32.8977  -21.4944   19.7939 C   0  0  0  0  0  0  0  0  0  0  0  0
  -30.7388  -20.1817   20.0378 C   0  0  0  0  0  0  0  0  0  1  0  0
  -33.5832  -22.7524   19.2180 C   0  0  1  0  0  0  0  0  0  0  0  0
  -22.5860  -20.7504   23.0966 C   0  0  1  0  0  0  0  0  0  0  0  0
  -23.4769  -23.2125   25.8377 C   0  0  2  0  0  0  0  0  0  0  0  0
  -32.3622  -26.6599   22.2824 C   0  0  0  0  0  0  0  0  0  0  0  0
  -21.1946  -20.8004   22.4045 C   0  0  0  0  0  0  0  0  0  0  0  0
  -25.4672  -27.4375   20.9868 N   0  0  0  0  0  0  0  0  0  0  0  0
  -32.1538  -26.0990   19.9273 N   0  0  0  0  0  0  0  0  0  0  0  0
  -32.4975  -25.0433   19.1702 N   0  0  0  0  0  0  0  0  0  0  0  0
  -26.5876  -27.9522   20.4522 N   0  0  0  0  0  0  0  0  0  0  0  0
  -24.1789  -18.8689   22.8816 N   0  0  0  0  0  0  0  0  0  0  0  0
  -29.9180  -26.8533   21.9734 N   0  0  0  0  0  0  0  0  0  0  0  0
  -27.4206  -29.8040   19.2324 N   0  0  0  0  0  0  0  0  0  0  0  0
  -23.0244  -30.7393   19.6736 N   0  0  0  0  0  0  0  0  0  0  0  0
  -24.2031  -15.3746   21.8396 N   0  0  0  0  0  0  0  0  0  0  0  0
  -22.6714  -21.5344   24.3239 N   0  0  0  0  0  0  0  0  0  0  0  0
  -24.8175  -23.6558   26.3143 N   0  3  0  0  0  0  0  0  0  0  0  0
  -25.0085  -31.4866   18.7998 O   0  0  0  0  0  0  0  0  0  0  0  0
  -23.4838  -17.3880   20.9170 O   0  0  0  0  0  0  0  0  0  0  0  0
  -22.2954  -18.6952   24.2448 O   0  0  0  0  0  0  0  0  0  0  0  0
  -31.2617  -28.7469   22.0713 O   0  0  0  0  0  0  0  0  0  0  0  0
  -24.4175  -22.8959   23.6349 O   0  0  0  0  0  0  0  0  0  0  0  0
  -19.2324  -27.5925   22.2723 O   0  0  0  0  0  0  0  0  0  0  0  0
  -29.3368  -20.2055   19.7730 O   0  0  0  0  0  0  0  0  0  1  0  0
  -16.5857  -31.9001   24.4730 F   0  0  0  0  0  0  0  0  0  0  0  0
  -18.2190  -27.4727   24.8416 F   0  0  0  0  0  0  0  0  0  0  0  0
  1  2  1  0  0  0  0
  1  5  2  0  0  0  0
  2  6  2  0  0  0  0
  3  8  2  0  0  0  0
  3 16  1  0  0  0  0
  4  9  1  0  0  0  0
  4 16  2  0  0  0  0
  5 18  1  0  0  0  0
  6 20  1  0  0  0  0
  7 10  2  0  0  0  0
  7 19  1  0  0  0  0
  8 22  1  0  0  0  0
  9 22  2  0  0  0  0
 10 23  1  0  0  0  0
 11 12  2  0  0  0  0
 11 24  1  0  0  0  0
 12 25  1  0  0  0  0
 13 21  1  0  0  0  0
 13 23  2  0  0  0  0
 14 25  2  0  0  0  0
 14 26  1  0  0  0  0
 15 28  1  0  0  0  0
 15 29  2  0  0  0  0
 16 27  1  0  0  0  0
 17 27  1  0  0  0  0
 17 30  2  0  0  0  0
 17 31  1  0  0  0  0
 18 20  2  0  0  0  0
 18 36  1  0  0  0  0
 19 21  2  0  0  0  0
 19 37  1  0  0  0  0
 20 45  1  0  0  0  0
 21 38  1  0  0  0  0
 22 81  1  0  0  0  0
 23 82  1  0  0  0  0
 24 26  2  0  0  0  0
 24 81  1  0  0  0  0
 25 83  1  0  0  0  0
 26 84  1  0  0  0  0
 27 65  2  0  0  0  0
 28 63  1  0  0  0  0
 28 66  2  0  0  0  0
 29 60  1  0  0  0  0
 29 67  1  0  0  0  0
 30 68  1  0  0  0  0
 30 71  1  0  0  0  0
 31 72  1  0  0  0  0
 31 76  2  0  0  0  0
 32 46  1  0  0  0  0
 32 73  1  0  0  0  0
 32 77  2  0  0  0  0
 33 61  1  0  0  0  0
 33 69  1  0  0  0  0
 33 78  2  0  0  0  0
 34 63  1  0  0  0  0
 34 70  1  0  0  0  0
 34 79  2  0  0  0  0
 35 62  1  0  0  0  0
 35 74  1  0  0  0  0
 35 80  2  0  0  0  0
 36 39  1  0  0  0  0
 37 46  1  0  0  0  0
 38 69  1  0  0  0  0
 39 41  1  0  0  0  0
 40 42  1  0  0  0  0
 40 43  1  0  0  0  0
 41 45  1  0  0  0  0
 42 47  1  0  0  0  0
 43 70  1  0  0  0  0
 44 47  1  0  0  0  0
 44 70  1  0  0  0  0
 45 73  1  0  0  0  0
 46 69  1  0  0  0  0
 47 68  1  0  0  0  0
 48 60  1  0  0  0  0
 49 62  1  0  0  0  0
 50 63  1  0  0  0  0
 51 63  1  0  0  0  0
 52 64  1  0  0  0  0
 53 64  1  0  0  0  0
 54 64  1  0  0  0  0
 55 67  1  0  0  0  0
 56 75  1  0  0  0  0
 57 58  1  0  0  0  0
 57 59  1  0  0  0  0
 58 60  1  0  0  0  0
 59 82  1  0  0  0  0
 61 64  1  0  0  0  0
 61 74  1  0  0  0  0
 62 75  1  0  0  0  0
 65 68  1  0  0  0  0
 66 67  1  0  0  0  0
M  CHG  1  75   1
M  ISO  4  34 100  59 101  63 100  82 101
M  END
> <Batch ID>
0077

> <Smiles>
CNC(C)C(=O)NC(C(=O)N1Cc2cc([101O:1][101CH2:1]CCC(C)c3cc([100C:0](C)(C)[100C:0](=O)N4CCCC(n5nc(-c6ccc(Oc7ccc(F)cc7F)cc6)c(C(N)=O)c5N)C4)nn3C)ccc2CC1C(=O)NC1CCCc2ccccc21)C(C)(C)C

> <Shape>
0.204

> <Color>
0.065

> <Negative vol penalty>
0.000

$$$$

  -OEChem-04052318372D

  0  0  0     0  0  0  0  0  0999 V2000
M  END
$$$$

  -OEChem-04052318373D

 85 93  0     1  0  0  0  0  0999 V2000
  -21.7149   -8.0604   19.1601 C   0  0  0  0  0  0  0  0  0  0  0  0
  -22.4249   -9.1789   18.7356 C   0  0  0  0  0  0  0  0  0  0  0  0
  -26.6368  -28.4780   18.7222 C   0  0  0  0  0  0  0  0  0  0  0  0
  -26.6755  -28.6596   21.1310 C   0  0  0  0  0  0  0  0  0  0  0  0
  -20.7294   -8.1913   20.1376 C   0  0  0  0  0  0  0  0  0  0  0  0
  -22.1491  -10.4293   19.2877 C   0  0  0  0  0  0  0  0  0  0  0  0
  -26.3489  -13.0001   20.4700 C   0  0  0  0  0  0  0  0  0  0  0  0
  -25.4949  -29.2779   18.6802 C   0  0  0  0  0  0  0  0  0  0  0  0
  -25.5336  -29.4596   21.0891 C   0  0  0  0  0  0  0  0  0  0  0  0
  -27.0313  -13.6203   19.4244 C   0  0  0  0  0  0  0  0  0  0  0  0
  -22.2002  -29.0263   20.7268 C   0  0  0  0  0  0  0  0  0  0  0  0
  -21.1815  -28.7501   21.6387 C   0  0  0  0  0  0  0  0  0  0  0  0
  -26.0183  -15.7268   20.0207 C   0  0  0  0  0  0  0  0  0  0  0  0
  -31.5347  -17.1888   21.9790 C   0  0  0  0  0  0  0  0  0  0  0  0
  -21.3995  -30.9746   22.5560 C   0  0  0  0  0  0  0  0  0  0  0  0
  -27.2271  -28.1688   19.9476 C   0  0  0  0  0  0  0  0  0  0  0  0
  -29.7466  -27.7693   19.9381 C   0  0  0  0  0  0  0  0  0  0  0  0
  -20.4481   -9.4424   20.7089 C   0  0  0  0  0  0  0  0  0  0  0  0
  -25.4861  -13.7377   21.2934 C   0  0  0  0  0  0  0  0  0  0  0  0
  -21.1580  -10.5774   20.2728 C   0  0  0  0  0  0  0  0  0  0  0  0
  -25.3280  -15.1141   21.0776 C   0  0  0  0  0  0  0  0  0  0  0  0
  -31.7108  -15.9072   21.4694 C   0  0  0  0  0  0  0  0  0  0  0  0
  -31.3235  -15.6248   20.1642 C   0  0  0  0  0  0  0  0  0  0  0  0
  -24.9433  -29.7688   19.8636 C   0  0  0  0  0  0  0  0  0  0  0  0
  -26.8639  -14.9833   19.1978 C   0  0  0  0  0  0  0  0  0  0  0  0
  -22.8186  -30.2767   20.7295 C   0  0  0  0  0  0  0  0  0  0  0  0
  -20.7811  -29.7243   22.5533 C   0  0  0  0  0  0  0  0  0  0  0  0
  -22.4182  -31.2508   21.6440 C   0  0  0  0  0  0  0  0  0  0  0  0
  -28.4063  -27.3420   19.9917 C   0  0  0  0  0  0  0  0  0  0  0  0
  -30.9713  -18.1449   21.1494 C   0  0  0  0  0  0  0  0  0  0  0  0
  -30.7693  -16.6508   19.4158 C   0  0  0  0  0  0  0  0  0  0  0  0
  -30.4798  -26.6104   20.0146 C   0  0  0  0  0  0  0  0  0  0  0  0
  -30.2811  -29.0952   19.8291 C   0  0  0  0  0  0  0  0  0  0  0  0
  -22.3753  -13.6421   21.9397 C   0  0  0  0  0  0  0  0  0  0  0  0
  -23.1561  -15.9100   24.1236 C   0  0  0  0  0  0  0  0  0  0  0  0
  -29.1618  -21.3179   22.3659 C   0  0  0  0  0  0  0  0  0  0  0  0
  -25.3132  -18.3653   25.1059 C   0  0  0  0  0  0  0  0  0  0  0  0
  -19.3412   -9.5424   21.7285 C   0  0  0  0  0  0  0  0  0  0  0  0
  -24.7779  -13.0591   22.4337 C   0  0  0  0  0  0  0  0  0  0  0  0
  -24.4291  -15.9548   21.9457 C   0  0  0  0  0  0  0  0  0  0  0  0
  -19.3688  -10.8400   22.5321 C   0  0  0  0  0  0  0  0  0  0  0  0
  -30.2624  -21.9561   18.9588 C   0  0  0  0  0  0  0  0  0  0  0  0
  -19.5656  -12.0368   21.6070 C   0  0  0  0  0  0  0  0  0  0  0  0
  -30.0022  -23.4563   18.8295 C   0  0  0  0  0  0  0  0  0  0  0  0
  -29.2054  -21.2756   19.8246 C   0  0  0  0  0  0  0  0  0  0  0  0
  -28.7950  -23.3836   21.0544 C   0  0  0  0  0  0  0  0  0  0  0  0
  -20.9049  -11.9465   20.8656 C   0  0  1  0  0  0  0  0  0  0  0  0
  -23.5279  -13.8055   22.8897 C   0  0  1  0  0  0  0  0  0  0  0  0
  -29.8565  -24.1125   20.2136 C   0  0  2  0  0  0  0  0  0  0  0  0
  -32.3130  -14.8557   22.3416 C   0  0  0  0  0  0  0  0  0  0  0  0
  -31.5025  -14.2597   19.5899 C   0  0  0  0  0  0  0  0  0  0  0  0
  -26.3185  -20.1277   26.5827 C   0  0  0  0  0  0  0  0  0  0  0  0
  -29.4636  -19.3681   23.8204 C   0  0  0  0  0  0  0  0  0  0  0  0
  -28.2316  -19.1344   21.6580 C   0  0  0  0  0  0  0  0  0  0  0  0
  -20.9867  -17.6659   22.8905 C   0  0  0  0  0  0  0  0  0  0  0  0
  -22.0078  -19.6292   24.0615 C   0  0  0  0  0  0  0  0  0  0  0  0
  -21.0852  -17.7291   25.3887 C   0  0  0  0  0  0  0  0  0  0  0  0
  -27.0191  -16.3890   26.4997 C   0  0  0  0  0  0  0  0  0  0  0  0
  -30.7685  -19.5315   21.6622 C   0  0  0  0  0  0  0  0  0  0  0  0
  -30.3314  -16.4065   17.9938 C   0  0  0  0  0  0  0  0  0  0  0  0
  -29.1375  -17.2606   17.5617 C   0  0  0  0  0  0  0  0  0  0  0  0
  -27.8673  -16.9663   18.3511 C   0  0  0  0  0  0  0  0  0  1  0  0
  -23.2464  -17.4169   24.1144 C   0  0  1  0  0  0  0  0  0  0  0  0
  -25.9684  -18.6543   26.4445 C   0  0  2  0  0  0  0  0  0  0  0  0
  -29.4068  -19.8301   22.3552 C   0  0  0  0  0  0  0  0  0  0  0  0
  -21.8470  -18.0943   24.0960 C   0  0  0  0  0  0  0  0  0  0  0  0
  -28.2918  -26.0152   20.0941 N   0  0  0  0  0  0  0  0  0  0  0  0
  -30.5827  -17.9081   19.8764 N   0  0  0  0  0  0  0  0  0  0  0  0
  -29.5695  -25.5987   20.1054 N   0  0  0  0  0  0  0  0  0  0  0  0
  -23.7534  -15.2441   23.0439 N   0  0  0  0  0  0  0  0  0  0  0  0
  -29.0777  -21.9471   21.1236 N   0  0  0  0  0  0  0  0  0  0  0  0
  -31.8078  -26.3681   20.0122 N   0  0  0  0  0  0  0  0  0  0  0  0
  -29.3871  -30.1725   19.7615 N   0  0  0  0  0  0  0  0  0  0  0  0
  -21.9932  -12.3293   21.7394 N   0  0  0  0  0  0  0  0  0  0  0  0
  -24.0727  -17.7833   25.2595 N   0  0  0  0  0  0  0  0  0  0  0  0
  -27.2196  -17.8581   26.5913 N   0  3  0  0  0  0  0  0  0  0  0  0
  -31.5146  -29.3169   19.7762 O   0  0  0  0  0  0  0  0  0  0  0  0
  -21.8692  -14.6337   21.4275 O   0  0  0  0  0  0  0  0  0  0  0  0
  -22.5831  -15.3442   25.0580 O   0  0  0  0  0  0  0  0  0  0  0  0
  -29.0514  -21.9021   23.4469 O   0  0  0  0  0  0  0  0  0  0  0  0
  -25.8468  -18.6329   24.0316 O   0  0  0  0  0  0  0  0  0  0  0  0
  -23.8292  -30.5496   19.8230 O   0  0  0  0  0  0  0  0  0  0  0  0
  -27.5283  -15.5910   18.1774 O   0  0  0  0  0  0  0  0  0  1  0  0
  -19.8018  -29.4594   23.4279 F   0  0  0  0  0  0  0  0  0  0  0  0
  -23.0078  -32.4542   21.6507 F   0  0  0  0  0  0  0  0  0  0  0  0
  1  2  1  0  0  0  0
  1  5  2  0  0  0  0
  2  6  2  0  0  0  0
  3  8  2  0  0  0  0
  3 16  1  0  0  0  0
  4  9  1  0  0  0  0
  4 16  2  0  0  0  0
  5 18  1  0  0  0  0
  6 20  1  0  0  0  0
  7 10  2  0  0  0  0
  7 19  1  0  0  0  0
  8 24  1  0  0  0  0
  9 24  2  0  0  0  0
 10 25  1  0  0  0  0
 11 12  2  0  0  0  0
 11 26  1  0  0  0  0
 12 27  1  0  0  0  0
 13 21  1  0  0  0  0
 13 25  2  0  0  0  0
 14 22  2  0  0  0  0
 14 30  1  0  0  0  0
 15 27  2  0  0  0  0
 15 28  1  0  0  0  0
 16 29  1  0  0  0  0
 17 29  1  0  0  0  0
 17 32  2  0  0  0  0
 17 33  1  0  0  0  0
 18 20  2  0  0  0  0
 18 38  1  0  0  0  0
 19 21  2  0  0  0  0
 19 39  1  0  0  0  0
 20 47  1  0  0  0  0
 21 40  1  0  0  0  0
 22 23  1  0  0  0  0
 22 50  1  0  0  0  0
 23 31  2  0  0  0  0
 23 51  1  0  0  0  0
 24 82  1  0  0  0  0
 25 83  1  0  0  0  0
 26 28  2  0  0  0  0
 26 82  1  0  0  0  0
 27 84  1  0  0  0  0
 28 85  1  0  0  0  0
 29 67  2  0  0  0  0
 30 59  1  0  0  0  0
 30 68  2  0  0  0  0
 31 60  1  0  0  0  0
 31 68  1  0  0  0  0
 32 69  1  0  0  0  0
 32 72  1  0  0  0  0
 33 73  1  0  0  0  0
 33 77  2  0  0  0  0
 34 48  1  0  0  0  0
 34 74  1  0  0  0  0
 34 78  2  0  0  0  0
 35 63  1  0  0  0  0
 35 70  1  0  0  0  0
 35 79  2  0  0  0  0
 36 65  1  0  0  0  0
 36 71  1  0  0  0  0
 36 80  2  0  0  0  0
 37 64  1  0  0  0  0
 37 75  1  0  0  0  0
 37 81  2  0  0  0  0
 38 41  1  0  0  0  0
 39 48  1  0  0  0  0
 40 70  1  0  0  0  0
 41 43  1  0  0  0  0
 42 44  1  0  0  0  0
 42 45  1  0  0  0  0
 43 47  1  0  0  0  0
 44 49  1  0  0  0  0
 45 71  1  0  0  0  0
 46 49  1  0  0  0  0
 46 71  1  0  0  0  0
 47 74  1  0  0  0  0
 48 70  1  0  0  0  0
 49 69  1  0  0  0  0
 52 64  1  0  0  0  0
 53 65  1  0  0  0  0
 54 65  1  0  0  0  0
 55 66  1  0  0  0  0
 56 66  1  0  0  0  0
 57 66  1  0  0  0  0
 58 76  1  0  0  0  0
 59 65  1  0  0  0  0
 60 61  1  0  0  0  0
 61 62  1  0  0  0  0
 62 83  1  0  0  0  0
 63 66  1  0  0  0  0
 63 75  1  0  0  0  0
 64 76  1  0  0  0  0
 67 69  1  0  0  0  0
M  CHG  1  76   1
M  ISO  4  36 100  62 101  65 100  83 101
M  END
> <Batch ID>
0077

> <Smiles>
CNC(C)C(=O)NC(C(=O)N1Cc2cc([101O:1][101CH2:1]CCc3nc(C[100C:0](C)(C)[100C:0](=O)N4CCCC(n5nc(-c6ccc(Oc7ccc(F)cc7F)cc6)c(C(N)=O)c5N)C4)cc(C)c3C)ccc2CC1C(=O)NC1CCCc2ccccc21)C(C)(C)C

> <Shape>
0.253

> <Color>
0.064

> <Negative vol penalty>
0.000

$$$$

  -OEChem-04052318373D

 82 90  0     1  0  0  0  0  0999 V2000
  -28.1550  -24.6098   17.1230 C   0  0  0  0  0  0  0  0  0  0  0  0
  -26.9352  -24.8879   17.7316 C   0  0  0  0  0  0  0  0  0  0  0  0
  -27.7151  -14.3767   21.2931 C   0  0  0  0  0  0  0  0  0  0  0  0
  -25.9321  -14.7100   19.6973 C   0  0  0  0  0  0  0  0  0  0  0  0
  -29.3409  -25.0546   17.7057 C   0  0  0  0  0  0  0  0  0  0  0  0
  -26.9009  -25.6099   18.9240 C   0  0  0  0  0  0  0  0  0  0  0  0
  -23.3260  -29.1968   18.9207 C   0  0  0  0  0  0  0  0  0  0  0  0
  -27.3955  -13.0210   21.3671 C   0  0  0  0  0  0  0  0  0  0  0  0
  -25.6125  -13.3543   19.7712 C   0  0  0  0  0  0  0  0  0  0  0  0
  -22.0118  -28.7861   19.1399 C   0  0  0  0  0  0  0  0  0  0  0  0
  -23.9489  -11.2981   21.8773 C   0  0  0  0  0  0  0  0  0  0  0  0
  -22.6017  -10.9551   21.9906 C   0  0  0  0  0  0  0  0  0  0  0  0
  -22.1852  -29.4812   21.4434 C   0  0  0  0  0  0  0  0  0  0  0  0
  -22.7456   -9.7080   19.9263 C   0  0  0  0  0  0  0  0  0  0  0  0
  -22.5299  -24.7399   21.7145 C   0  0  0  0  0  0  0  0  0  0  0  0
  -26.9833  -15.2213   20.4582 C   0  0  0  0  0  0  0  0  0  0  0  0
  -28.2194  -17.2350   19.4965 C   0  0  0  0  0  0  0  0  0  0  0  0
  -29.3204  -25.7908   18.9008 C   0  0  0  0  0  0  0  0  0  0  0  0
  -24.0845  -29.7436   19.9657 C   0  0  0  0  0  0  0  0  0  0  0  0
  -28.0877  -26.0638   19.5240 C   0  0  0  0  0  0  0  0  0  0  0  0
  -23.5079  -29.9004   21.2342 C   0  0  0  0  0  0  0  0  0  0  0  0
  -26.3442  -12.5098   20.6061 C   0  0  0  0  0  0  0  0  0  0  0  0
  -21.4421  -28.9256   20.4021 C   0  0  0  0  0  0  0  0  0  0  0  0
  -24.6946  -10.8462   20.7885 C   0  0  0  0  0  0  0  0  0  0  0  0
  -22.0000  -10.1601   21.0152 C   0  0  0  0  0  0  0  0  0  0  0  0
  -24.0929  -10.0511   19.8131 C   0  0  0  0  0  0  0  0  0  0  0  0
  -27.3126  -16.6219   20.3818 C   0  0  0  0  0  0  0  0  0  0  0  0
  -22.3611  -23.7359   22.6424 C   0  0  0  0  0  0  0  0  0  0  0  0
  -20.0963  -24.0431   22.5625 C   0  0  0  0  0  0  0  0  0  0  0  0
  -20.2653  -25.0476   21.6352 C   0  0  0  0  0  0  0  0  0  0  0  0
  -28.1728  -18.5676   19.8256 C   0  0  0  0  0  0  0  0  0  0  0  0
  -29.0311  -16.6519   18.4684 C   0  0  0  0  0  0  0  0  0  0  0  0
  -26.7660  -28.9197   21.4605 C   0  0  0  0  0  0  0  0  0  0  0  0
  -23.8904  -21.8016   22.3708 C   0  0  0  0  0  0  0  0  0  0  0  0
  -26.3743  -31.7901   22.9198 C   0  0  0  0  0  0  0  0  0  0  0  0
  -24.2557  -34.2888   23.8762 C   0  0  0  0  0  0  0  0  0  0  0  0
  -30.6313  -26.2097   19.5180 C   0  0  0  0  0  0  0  0  0  0  0  0
  -25.4920  -30.2064   19.7063 C   0  0  0  0  0  0  0  0  0  0  0  0
  -24.2731  -30.5002   22.3845 C   0  0  0  0  0  0  0  0  0  0  0  0
  -30.4840  -27.2911   20.5852 C   0  0  0  0  0  0  0  0  0  0  0  0
  -27.3326  -21.4970   23.5048 C   0  0  0  0  0  0  0  0  0  0  0  0
  -29.3492  -26.9442   21.5437 C   0  0  0  0  0  0  0  0  0  0  0  0
  -27.7884  -20.2407   22.7639 C   0  0  0  0  0  0  0  0  0  0  0  0
  -25.8665  -21.4032   23.9194 C   0  0  0  0  0  0  0  0  0  0  0  0
  -25.3906  -19.8617   22.0428 C   0  0  0  0  0  0  0  0  0  0  0  0
  -28.0077  -26.8656   20.8050 C   0  0  1  0  0  0  0  0  0  0  0  0
  -26.3411  -30.2755   20.9718 C   0  0  1  0  0  0  0  0  0  0  0  0
  -26.8557  -19.9289   21.5804 C   0  0  2  0  0  0  0  0  0  0  0  0
  -18.7413  -23.6471   23.0411 C   0  0  0  0  0  0  0  0  0  0  0  0
  -24.2214  -36.4872   25.0858 C   0  0  0  0  0  0  0  0  0  0  0  0
  -17.4401  -27.6838   21.2380 C   0  0  0  0  0  0  0  0  0  0  0  0
  -26.5941  -30.3236   25.5864 C   0  0  0  0  0  0  0  0  0  0  0  0
  -25.6228  -32.3453   26.6989 C   0  0  0  0  0  0  0  0  0  0  0  0
  -27.8021  -32.5116   25.4964 C   0  0  0  0  0  0  0  0  0  0  0  0
  -23.2871  -35.7257   21.4771 C   0  0  0  0  0  0  0  0  0  0  0  0
  -23.5388  -23.0135   23.1963 C   0  0  0  0  0  0  0  0  0  0  0  0
  -19.0863  -25.7944   21.0601 C   0  0  0  0  0  0  0  0  0  0  0  0
  -19.8349  -28.0693   21.9315 C   0  0  0  0  0  0  0  0  0  1  0  0
  -25.6669  -32.2690   24.1645 C   0  0  1  0  0  0  0  0  0  0  0  0
  -24.3493  -35.7975   23.7365 C   0  0  2  0  0  0  0  0  0  0  0  0
  -18.6893  -27.0494   21.8629 C   0  0  1  0  0  0  0  0  0  0  0  0
  -26.4074  -31.8492   25.4656 C   0  0  0  0  0  0  0  0  0  0  0  0
  -21.4850  -25.4138   21.1943 N   0  0  0  0  0  0  0  0  0  0  0  0
  -26.7326  -17.4936   21.2112 N   0  0  0  0  0  0  0  0  0  0  0  0
  -21.1412  -23.3695   23.0830 N   0  0  0  0  0  0  0  0  0  0  0  0
  -27.2762  -18.6679   20.8484 N   0  0  0  0  0  0  0  0  0  0  0  0
  -25.6479  -30.9317   22.0823 N   0  0  0  0  0  0  0  0  0  0  0  0
  -25.0145  -21.0779   22.7694 N   0  0  0  0  0  0  0  0  0  0  0  0
  -28.8118  -19.6518   19.3370 N   0  0  0  0  0  0  0  0  0  0  0  0
  -28.9569  -15.2674   18.2633 N   0  0  0  0  0  0  0  0  0  0  0  0
  -27.4980  -28.1939   20.5401 N   0  0  0  0  0  0  0  0  0  0  0  0
  -25.5000  -33.7101   24.0103 N   0  0  0  0  0  0  0  0  0  0  0  0
  -23.2671  -36.3034   22.8456 N   0  3  0  0  0  0  0  0  0  0  0  0
  -29.8116  -17.3360   17.7640 O   0  0  0  0  0  0  0  0  0  0  0  0
  -26.4543  -28.5593   22.5895 O   0  0  0  0  0  0  0  0  0  0  0  0
  -23.1875  -21.5102   21.3997 O   0  0  0  0  0  0  0  0  0  0  0  0
  -27.5263  -32.1697   22.6950 O   0  0  0  0  0  0  0  0  0  0  0  0
  -23.1855  -33.6845   23.8710 O   0  0  0  0  0  0  0  0  0  0  0  0
  -26.0322  -11.1869   20.6779 O   0  0  0  0  0  0  0  0  0  0  0  0
  -20.1598  -28.5250   20.6189 O   0  0  0  0  0  0  0  0  0  1  0  0
  -20.7066   -9.8295   21.1249 F   0  0  0  0  0  0  0  0  0  0  0  0
  -24.8044   -9.6129   18.7654 F   0  0  0  0  0  0  0  0  0  0  0  0
  1  2  1  0  0  0  0
  1  5  2  0  0  0  0
  2  6  2  0  0  0  0
  3  8  2  0  0  0  0
  3 16  1  0  0  0  0
  4  9  1  0  0  0  0
  4 16  2  0  0  0  0
  5 18  1  0  0  0  0
  6 20  1  0  0  0  0
  7 10  2  0  0  0  0
  7 19  1  0  0  0  0
  8 22  1  0  0  0  0
  9 22  2  0  0  0  0
 10 23  1  0  0  0  0
 11 12  2  0  0  0  0
 11 24  1  0  0  0  0
 12 25  1  0  0  0  0
 13 21  1  0  0  0  0
 13 23  2  0  0  0  0
 14 25  2  0  0  0  0
 14 26  1  0  0  0  0
 15 28  1  0  0  0  0
 15 63  2  0  0  0  0
 16 27  1  0  0  0  0
 17 27  1  0  0  0  0
 17 31  2  0  0  0  0
 17 32  1  0  0  0  0
 18 20  2  0  0  0  0
 18 37  1  0  0  0  0
 19 21  2  0  0  0  0
 19 38  1  0  0  0  0
 20 46  1  0  0  0  0
 21 39  1  0  0  0  0
 22 79  1  0  0  0  0
 23 80  1  0  0  0  0
 24 26  2  0  0  0  0
 24 79  1  0  0  0  0
 25 81  1  0  0  0  0
 26 82  1  0  0  0  0
 27 64  2  0  0  0  0
 28 56  1  0  0  0  0
 28 65  2  0  0  0  0
 29 30  2  0  0  0  0
 29 49  1  0  0  0  0
 29 65  1  0  0  0  0
 30 57  1  0  0  0  0
 30 63  1  0  0  0  0
 31 66  1  0  0  0  0
 31 69  1  0  0  0  0
 32 70  1  0  0  0  0
 32 74  2  0  0  0  0
 33 47  1  0  0  0  0
 33 71  1  0  0  0  0
 33 75  2  0  0  0  0
 34 56  1  0  0  0  0
 34 68  1  0  0  0  0
 34 76  2  0  0  0  0
 35 59  1  0  0  0  0
 35 67  1  0  0  0  0
 35 77  2  0  0  0  0
 36 60  1  0  0  0  0
 36 72  1  0  0  0  0
 36 78  2  0  0  0  0
 37 40  1  0  0  0  0
 38 47  1  0  0  0  0
 39 67  1  0  0  0  0
 40 42  1  0  0  0  0
 41 43  1  0  0  0  0
 41 44  1  0  0  0  0
 42 46  1  0  0  0  0
 43 48  1  0  0  0  0
 44 68  1  0  0  0  0
 45 48  1  0  0  0  0
 45 68  1  0  0  0  0
 46 71  1  0  0  0  0
 47 67  1  0  0  0  0
 48 66  1  0  0  0  0
 50 60  1  0  0  0  0
 51 61  1  0  0  0  0
 52 62  1  0  0  0  0
 53 62  1  0  0  0  0
 54 62  1  0  0  0  0
 55 73  1  0  0  0  0
 57 61  1  0  0  0  0
 58 61  1  0  0  0  0
 58 80  1  0  0  0  0
 59 62  1  0  0  0  0
 59 72  1  0  0  0  0
 60 73  1  0  0  0  0
 64 66  1  0  0  0  0
M  CHG  1  73   1
M  ISO  4  34 100  56 100  58 101  80 101
M  END
> <Batch ID>
0077

> <Smiles>
CNC(C)C(=O)NC(C(=O)N1Cc2cc([101O:1][101CH2:1]C(C)Cc3ncc([100CH2:0][100C:0](=O)N4CCCC(n5nc(-c6ccc(Oc7ccc(F)cc7F)cc6)c(C(N)=O)c5N)C4)nc3C)ccc2CC1C(=O)NC1CCCc2ccccc21)C(C)(C)C

> <Shape>
0.320

> <Color>
0.076

> <Negative vol penalty>
0.000

$$$$

  -OEChem-04052318373D

 84 92  0     1  0  0  0  0  0999 V2000
  -19.0988  -23.8241   14.5612 C   0  0  0  0  0  0  0  0  0  0  0  0
  -19.3986  -22.5036   14.8804 C   0  0  0  0  0  0  0  0  0  0  0  0
  -25.8814  -27.2210   19.0186 C   0  0  0  0  0  0  0  0  0  0  0  0
  -26.1215  -26.5514   21.3275 C   0  0  0  0  0  0  0  0  0  0  0  0
  -19.7187  -24.8649   15.2513 C   0  0  0  0  0  0  0  0  0  0  0  0
  -20.3195  -22.2232   15.8892 C   0  0  0  0  0  0  0  0  0  0  0  0
  -20.1701  -17.5180   19.8064 C   0  0  0  0  0  0  0  0  0  0  0  0
  -25.1690  -28.3509   19.4203 C   0  0  0  0  0  0  0  0  0  0  0  0
  -25.4090  -27.6813   21.7292 C   0  0  0  0  0  0  0  0  0  0  0  0
  -20.8226  -16.2860   19.8179 C   0  0  0  0  0  0  0  0  0  0  0  0
  -23.9645  -30.5775   23.3855 C   0  0  0  0  0  0  0  0  0  0  0  0
  -24.4644  -31.3119   24.4608 C   0  0  0  0  0  0  0  0  0  0  0  0
  -22.5174  -17.2040   21.2685 C   0  0  0  0  0  0  0  0  0  0  0  0
  -23.8165  -12.3981   21.8637 C   0  0  0  0  0  0  0  0  0  0  0  0
  -26.5069  -31.7160   23.2353 C   0  0  0  0  0  0  0  0  0  0  0  0
  -26.3577  -26.3212   19.9721 C   0  0  0  0  0  0  0  0  0  0  0  0
  -28.4856  -25.0443   19.3815 C   0  0  0  0  0  0  0  0  0  0  0  0
  -20.6404  -24.5971   16.2757 C   0  0  0  0  0  0  0  0  0  0  0  0
  -20.6931  -18.6071   20.5182 C   0  0  0  0  0  0  0  0  0  0  0  0
  -20.9534  -23.2614   16.5928 C   0  0  0  0  0  0  0  0  0  0  0  0
  -21.8682  -18.4480   21.2664 C   0  0  0  0  0  0  0  0  0  0  0  0
  -24.4028  -13.4559   21.1912 C   0  0  0  0  0  0  0  0  0  0  0  0
  -24.9328  -28.5810   20.7756 C   0  0  0  0  0  0  0  0  0  0  0  0
  -21.9980  -16.1296   20.5466 C   0  0  0  0  0  0  0  0  0  0  0  0
  -24.7358  -30.4123   22.2351 C   0  0  0  0  0  0  0  0  0  0  0  0
  -25.7356  -31.8812   24.3857 C   0  0  0  0  0  0  0  0  0  0  0  0
  -26.0070  -30.9816   22.1599 C   0  0  0  0  0  0  0  0  0  0  0  0
  -27.0932  -25.1536   19.5577 C   0  0  0  0  0  0  0  0  0  0  0  0
  -24.3738  -11.1449   21.7076 C   0  0  0  0  0  0  0  0  0  0  0  0
  -25.5077  -13.1905   20.4074 C   0  0  0  0  0  0  0  0  0  0  0  0
  -28.6805  -23.7438   18.9849 C   0  0  0  0  0  0  0  0  0  0  0  0
  -29.5112  -26.0301   19.5603 C   0  0  0  0  0  0  0  0  0  0  0  0
  -21.7725  -21.4913   19.7311 C   0  0  0  0  0  0  0  0  0  0  0  0
  -21.9281  -21.8830   22.9474 C   0  0  0  0  0  0  0  0  0  0  0  0
  -22.1744  -20.4451   26.0326 C   0  0  0  0  0  0  0  0  0  0  0  0
  -27.7303  -18.3899   19.6010 C   0  0  0  0  0  0  0  0  0  0  0  0
  -21.3204  -25.7555   16.9615 C   0  0  0  0  0  0  0  0  0  0  0  0
  -19.9628  -19.9220   20.5173 C   0  0  0  0  0  0  0  0  0  0  0  0
  -22.4600  -19.5804   22.0639 C   0  0  0  0  0  0  0  0  0  0  0  0
  -22.0040  -25.3717   18.2714 C   0  0  0  0  0  0  0  0  0  0  0  0
  -25.3626  -20.2042   17.5518 C   0  0  0  0  0  0  0  0  0  0  0  0
  -22.8235  -24.0976   18.0925 C   0  0  0  0  0  0  0  0  0  0  0  0
  -25.7229  -21.6538   17.8817 C   0  0  0  0  0  0  0  0  0  0  0  0
  -25.4775  -19.3118   18.7841 C   0  0  0  0  0  0  0  0  0  0  0  0
  -27.1720  -20.7978   19.7811 C   0  0  0  0  0  0  0  0  0  0  0  0
  -21.9283  -22.9168   17.6977 C   0  0  1  0  0  0  0  0  0  0  0  0
  -20.8620  -21.1052   20.8622 C   0  0  1  0  0  0  0  0  0  0  0  0
  -27.0971  -21.7466   18.5710 C   0  0  2  0  0  0  0  0  0  0  0  0
  -23.7801   -9.9720   22.4098 C   0  0  0  0  0  0  0  0  0  0  0  0
  -22.3166  -21.0241   28.4702 C   0  0  0  0  0  0  0  0  0  0  0  0
  -24.8460  -22.6964   22.5815 C   0  0  0  0  0  0  0  0  0  0  0  0
  -25.1815  -22.3369   25.0364 C   0  0  0  0  0  0  0  0  0  0  0  0
  -23.5789  -24.0746   24.2397 C   0  0  0  0  0  0  0  0  0  0  0  0
  -27.2857  -15.4495   21.6493 C   0  0  0  0  0  0  0  0  0  0  0  0
  -28.5292  -13.6895   20.4044 C   0  0  0  0  0  0  0  0  0  0  0  0
  -19.6673  -18.9954   26.6422 C   0  0  0  0  0  0  0  0  0  0  0  0
  -23.8368  -14.8389   21.3269 C   0  0  0  0  0  0  0  0  0  1  0  0
  -26.1914  -14.2802   19.6527 C   0  0  0  0  0  0  0  0  0  0  0  0
  -28.1470  -15.9560   19.3564 C   0  0  0  0  0  0  0  0  0  0  0  0
  -22.9746  -21.6308   24.0057 C   0  0  1  0  0  0  0  0  0  0  0  0
  -21.3933  -20.6710   27.3145 C   0  0  2  0  0  0  0  0  0  0  0  0
  -24.1354  -22.6637   23.9493 C   0  0  0  0  0  0  0  0  0  0  0  0
  -27.5244  -14.8540   20.2465 C   0  0  0  0  0  0  0  0  0  0  0  0
  -26.4491  -24.0135   19.2946 N   0  0  0  0  0  0  0  0  0  0  0  0
  -25.4556  -10.9142   20.9339 N   0  0  0  0  0  0  0  0  0  0  0  0
  -26.0320  -11.9539   20.2732 N   0  0  0  0  0  0  0  0  0  0  0  0
  -27.4412  -23.1755   18.9488 N   0  0  0  0  0  0  0  0  0  0  0  0
  -21.7124  -20.8482   22.0262 N   0  0  0  0  0  0  0  0  0  0  0  0
  -26.8148  -19.4325   19.3816 N   0  0  0  0  0  0  0  0  0  0  0  0
  -29.7893  -23.0424   18.6670 N   0  0  0  0  0  0  0  0  0  0  0  0
  -29.1369  -27.3166   19.9716 N   0  0  0  0  0  0  0  0  0  0  0  0
  -21.2235  -22.4079   18.8547 N   0  0  0  0  0  0  0  0  0  0  0  0
  -22.2661  -21.5972   25.2806 N   0  0  0  0  0  0  0  0  0  0  0  0
  -27.3124  -17.1266   19.2009 N   0  0  0  0  0  0  0  0  0  0  0  0
  -20.6313  -19.4434   27.6799 N   0  3  0  0  0  0  0  0  0  0  0  0
  -30.7220  -25.7823   19.3454 O   0  0  0  0  0  0  0  0  0  0  0  0
  -22.8909  -20.9956   19.6595 O   0  0  0  0  0  0  0  0  0  0  0  0
  -21.3191  -22.9558   22.9426 O   0  0  0  0  0  0  0  0  0  0  0  0
  -22.6583  -19.3564   25.7304 O   0  0  0  0  0  0  0  0  0  0  0  0
  -28.8410  -18.5721   20.1112 O   0  0  0  0  0  0  0  0  0  0  0  0
  -24.2378  -29.6835   21.1680 O   0  0  0  0  0  0  0  0  0  0  0  0
  -22.6373  -14.9284   20.5591 O   0  0  0  0  0  0  0  0  0  1  0  0
  -26.2149  -32.5877   25.4178 F   0  0  0  0  0  0  0  0  0  0  0  0
  -26.7522  -30.8273   21.0569 F   0  0  0  0  0  0  0  0  0  0  0  0
  1  2  1  0  0  0  0
  1  5  2  0  0  0  0
  2  6  2  0  0  0  0
  3  8  2  0  0  0  0
  3 16  1  0  0  0  0
  4  9  1  0  0  0  0
  4 16  2  0  0  0  0
  5 18  1  0  0  0  0
  6 20  1  0  0  0  0
  7 10  2  0  0  0  0
  7 19  1  0  0  0  0
  8 23  1  0  0  0  0
  9 23  2  0  0  0  0
 10 24  1  0  0  0  0
 11 12  2  0  0  0  0
 11 25  1  0  0  0  0
 12 26  1  0  0  0  0
 13 21  1  0  0  0  0
 13 24  2  0  0  0  0
 14 22  1  0  0  0  0
 14 29  2  0  0  0  0
 15 26  2  0  0  0  0
 15 27  1  0  0  0  0
 16 28  1  0  0  0  0
 17 28  1  0  0  0  0
 17 31  2  0  0  0  0
 17 32  1  0  0  0  0
 18 20  2  0  0  0  0
 18 37  1  0  0  0  0
 19 21  2  0  0  0  0
 19 38  1  0  0  0  0
 20 46  1  0  0  0  0
 21 39  1  0  0  0  0
 22 30  2  0  0  0  0
 22 57  1  0  0  0  0
 23 81  1  0  0  0  0
 24 82  1  0  0  0  0
 25 27  2  0  0  0  0
 25 81  1  0  0  0  0
 26 83  1  0  0  0  0
 27 84  1  0  0  0  0
 28 64  2  0  0  0  0
 29 49  1  0  0  0  0
 29 65  1  0  0  0  0
 30 58  1  0  0  0  0
 30 66  1  0  0  0  0
 31 67  1  0  0  0  0
 31 70  1  0  0  0  0
 32 71  1  0  0  0  0
 32 76  2  0  0  0  0
 33 47  1  0  0  0  0
 33 72  1  0  0  0  0
 33 77  2  0  0  0  0
 34 60  1  0  0  0  0
 34 68  1  0  0  0  0
 34 78  2  0  0  0  0
 35 61  1  0  0  0  0
 35 73  1  0  0  0  0
 35 79  2  0  0  0  0
 36 69  1  0  0  0  0
 36 74  1  0  0  0  0
 36 80  2  0  0  0  0
 37 40  1  0  0  0  0
 38 47  1  0  0  0  0
 39 68  1  0  0  0  0
 40 42  1  0  0  0  0
 41 43  1  0  0  0  0
 41 44  1  0  0  0  0
 42 46  1  0  0  0  0
 43 48  1  0  0  0  0
 44 69  1  0  0  0  0
 45 48  1  0  0  0  0
 45 69  1  0  0  0  0
 46 72  1  0  0  0  0
 47 68  1  0  0  0  0
 48 67  1  0  0  0  0
 50 61  1  0  0  0  0
 51 62  1  0  0  0  0
 52 62  1  0  0  0  0
 53 62  1  0  0  0  0
 54 63  1  0  0  0  0
 55 63  1  0  0  0  0
 56 75  1  0  0  0  0
 57 82  1  0  0  0  0
 58 63  1  0  0  0  0
 59 63  1  0  0  0  0
 59 74  1  0  0  0  0
 60 62  1  0  0  0  0
 60 73  1  0  0  0  0
 61 75  1  0  0  0  0
 64 67  1  0  0  0  0
 65 66  2  0  0  0  0
M  CHG  1  75   1
M  ISO  4  36 100  57 101  74 100  82 101
M  END
> <Batch ID>
0077

> <Smiles>
CNC(C)C(=O)NC(C(=O)N1Cc2cc([101O:1][101CH2:1]c3cc(C)nnc3CC(C)(C)C[100NH:0][100C:0](=O)N3CCCC(n4nc(-c5ccc(Oc6ccc(F)cc6F)cc5)c(C(N)=O)c4N)C3)ccc2CC1C(=O)NC1CCCc2ccccc21)C(C)(C)C

> <Shape>
0.188

> <Color>
0.085

> <Negative vol penalty>
0.000

$$$$

  -OEChem-04052318373D

 86 94  0     1  0  0  0  0  0999 V2000
  -33.7450  -28.2559   18.8610 C   0  0  0  0  0  0  0  0  0  0  0  0
  -32.6981  -27.3429   18.9389 C   0  0  0  0  0  0  0  0  0  0  0  0
  -24.4630  -13.7887   20.8154 C   0  0  0  0  0  0  0  0  0  0  0  0
  -26.8065  -13.2872   20.5095 C   0  0  0  0  0  0  0  0  0  0  0  0
  -33.7152  -29.4164   19.6333 C   0  0  0  0  0  0  0  0  0  0  0  0
  -31.6214  -27.5894   19.7899 C   0  0  0  0  0  0  0  0  0  0  0  0
  -25.7573  -26.1060   18.8321 C   0  0  0  0  0  0  0  0  0  0  0  0
  -28.6853  -21.0397   24.7800 C   0  0  0  0  0  0  0  0  0  0  0  0
  -24.1368  -12.4789   20.4639 C   0  0  0  0  0  0  0  0  0  0  0  0
  -26.4803  -11.9773   20.1581 C   0  0  0  0  0  0  0  0  0  0  0  0
  -24.9746  -25.0410   19.2760 C   0  0  0  0  0  0  0  0  0  0  0  0
  -22.7113   -9.1675   19.9970 C   0  0  0  0  0  0  0  0  0  0  0  0
  -21.7697   -8.5010   20.7811 C   0  0  0  0  0  0  0  0  0  0  0  0
  -27.3396  -21.3806   24.7022 C   0  0  0  0  0  0  0  0  0  0  0  0
  -24.1443  -26.4108   21.0797 C   0  0  0  0  0  0  0  0  0  0  0  0
  -23.1932   -8.7651   22.7152 C   0  0  0  0  0  0  0  0  0  0  0  0
  -25.7978  -14.1929   20.8381 C   0  0  0  0  0  0  0  0  0  0  0  0
  -26.4091  -16.0373   22.4911 C   0  0  0  0  0  0  0  0  0  0  0  0
  -32.6329  -29.6819   20.4869 C   0  0  0  0  0  0  0  0  0  0  0  0
  -25.7476  -27.3300   19.5162 C   0  0  0  0  0  0  0  0  0  0  0  0
  -31.5777  -28.7539   20.5753 C   0  0  0  0  0  0  0  0  0  0  0  0
  -24.9258  -27.4906   20.6410 C   0  0  0  0  0  0  0  0  0  0  0  0
  -29.6040  -21.6622   23.9424 C   0  0  0  0  0  0  0  0  0  0  0  0
  -25.1454  -11.5732   20.1353 C   0  0  0  0  0  0  0  0  0  0  0  0
  -24.1701  -25.1924   20.4016 C   0  0  0  0  0  0  0  0  0  0  0  0
  -23.8940   -9.6327   20.5721 C   0  0  0  0  0  0  0  0  0  0  0  0
  -22.0106   -8.2999   22.1402 C   0  0  0  0  0  0  0  0  0  0  0  0
  -24.1349   -9.4316   21.9312 C   0  0  0  0  0  0  0  0  0  0  0  0
  -26.1354  -15.5460   21.2005 C   0  0  0  0  0  0  0  0  0  0  0  0
  -26.9667  -22.3426   23.7773 C   0  0  0  0  0  0  0  0  0  0  0  0
  -29.1298  -22.6114   23.0513 C   0  0  0  0  0  0  0  0  0  0  0  0
  -26.6710  -17.3722   22.3019 C   0  0  0  0  0  0  0  0  0  0  0  0
  -26.4254  -15.3485   23.7484 C   0  0  0  0  0  0  0  0  0  0  0  0
  -27.9269  -29.0549   21.0587 C   0  0  0  0  0  0  0  0  0  0  0  0
  -25.5194  -31.2216   21.2370 C   0  0  0  0  0  0  0  0  0  0  0  0
  -22.1615  -31.8303   21.2098 C   0  0  0  0  0  0  0  0  0  0  0  0
  -29.1479  -21.4917   19.4664 C   0  0  0  0  0  0  0  0  0  0  0  0
  -32.6677  -30.9269   21.3376 C   0  0  0  0  0  0  0  0  0  0  0  0
  -26.5773  -28.4775   19.0090 C   0  0  0  0  0  0  0  0  0  0  0  0
  -24.8641  -28.7906   21.3989 C   0  0  0  0  0  0  0  0  0  0  0  0
  -31.3117  -31.2951   21.9341 C   0  0  0  0  0  0  0  0  0  0  0  0
  -26.0227  -20.3103   18.2357 C   0  0  0  0  0  0  0  0  0  0  0  0
  -30.6424  -30.0647   22.5381 C   0  0  0  0  0  0  0  0  0  0  0  0
  -25.7994  -19.0036   18.9989 C   0  0  0  0  0  0  0  0  0  0  0  0
  -27.4966  -20.5206   17.8958 C   0  0  0  0  0  0  0  0  0  0  0  0
  -28.1920  -19.1328   19.8100 C   0  0  0  0  0  0  0  0  0  0  0  0
  -30.3805  -28.9979   21.4681 C   0  0  1  0  0  0  0  0  0  0  0  0
  -26.8806  -29.5166   20.0840 C   0  0  1  0  0  0  0  0  0  0  0  0
  -26.7282  -18.9040   20.2240 C   0  0  2  0  0  0  0  0  0  0  0  0
  -31.0468  -21.3002   24.0203 C   0  0  0  0  0  0  0  0  0  0  0  0
  -20.4960  -33.6962   21.4147 C   0  0  0  0  0  0  0  0  0  0  0  0
  -22.6733  -22.5497   22.4648 C   0  0  0  0  0  0  0  0  0  0  0  0
  -31.2061  -24.1397   22.8289 C   0  0  0  0  0  0  0  0  0  0  0  0
  -29.2998  -24.3563   21.2558 C   0  0  0  0  0  0  0  0  0  0  0  0
  -25.9791  -31.2975   24.2525 C   0  0  0  0  0  0  0  0  0  0  0  0
  -23.7420  -32.3950   24.4956 C   0  0  0  0  0  0  0  0  0  0  0  0
  -25.5516  -33.5283   23.2059 C   0  0  0  0  0  0  0  0  0  0  0  0
  -21.0965  -31.3335   18.4935 C   0  0  0  0  0  0  0  0  0  0  0  0
  -25.5158  -22.7380   23.6669 C   0  0  0  0  0  0  0  0  0  0  0  0
  -25.1026  -23.1899   22.2586 C   0  0  0  0  0  0  0  0  0  0  0  0
  -30.7834  -22.3319   21.1332 C   0  0  0  0  0  0  0  0  0  0  0  0
  -24.4055  -31.5039   22.2160 C   0  0  1  0  0  0  0  0  0  0  0  0
  -21.3297  -32.8554   20.4603 C   0  0  2  0  0  0  0  0  0  0  0  0
  -23.6516  -23.6768   22.1594 C   0  0  1  0  0  0  0  0  0  1  0  0
  -30.0712  -23.3147   22.1295 C   0  0  0  0  0  0  0  0  0  0  0  0
  -24.9220  -32.1559   23.5296 C   0  0  0  0  0  0  0  0  0  0  0  0
  -26.2156  -16.4919   20.2609 N   0  0  0  0  0  0  0  0  0  0  0  0
  -27.8302  -22.9689   22.9469 N   0  0  0  0  0  0  0  0  0  0  0  0
  -26.5428  -17.5910   20.9617 N   0  0  0  0  0  0  0  0  0  0  0  0
  -25.6984  -29.8810   20.8675 N   0  0  0  0  0  0  0  0  0  0  0  0
  -28.3229  -20.4152   19.1008 N   0  0  0  0  0  0  0  0  0  0  0  0
  -26.9960  -18.3686   23.1527 N   0  0  0  0  0  0  0  0  0  0  0  0
  -26.1333  -13.9778   23.7632 N   0  0  0  0  0  0  0  0  0  0  0  0
  -29.2215  -29.3503   20.6762 N   0  0  0  0  0  0  0  0  0  0  0  0
  -23.4232  -32.3072   21.4962 N   0  0  0  0  0  0  0  0  0  0  0  0
  -29.8932  -21.3120   20.6252 N   0  0  0  0  0  0  0  0  0  0  0  0
  -20.4089  -32.1768   19.5050 N   0  3  0  0  0  0  0  0  0  0  0  0
  -26.6751  -15.9347   24.8290 O   0  0  0  0  0  0  0  0  0  0  0  0
  -27.5849  -28.4751   22.0826 O   0  0  0  0  0  0  0  0  0  0  0  0
  -26.2009  -32.1571   20.8102 O   0  0  0  0  0  0  0  0  0  0  0  0
  -21.7335  -30.7191   21.5142 O   0  0  0  0  0  0  0  0  0  0  0  0
  -29.2112  -22.5378   18.8116 O   0  0  0  0  0  0  0  0  0  0  0  0
  -24.8275  -10.2949   19.7925 O   0  0  0  0  0  0  0  0  0  0  0  0
  -23.4057  -24.1543   20.8373 O   0  0  0  0  0  0  0  0  0  1  0  0
  -21.1055   -7.6612   22.8932 F   0  0  0  0  0  0  0  0  0  0  0  0
  -25.2686   -9.8773   22.4895 F   0  0  0  0  0  0  0  0  0  0  0  0
  1  2  1  0  0  0  0
  1  5  2  0  0  0  0
  2  6  2  0  0  0  0
  3  9  2  0  0  0  0
  3 17  1  0  0  0  0
  4 10  1  0  0  0  0
  4 17  2  0  0  0  0
  5 19  1  0  0  0  0
  6 21  1  0  0  0  0
  7 11  2  0  0  0  0
  7 20  1  0  0  0  0
  8 14  2  0  0  0  0
  8 23  1  0  0  0  0
  9 24  1  0  0  0  0
 10 24  2  0  0  0  0
 11 25  1  0  0  0  0
 12 13  2  0  0  0  0
 12 26  1  0  0  0  0
 13 27  1  0  0  0  0
 14 30  1  0  0  0  0
 15 22  1  0  0  0  0
 15 25  2  0  0  0  0
 16 27  2  0  0  0  0
 16 28  1  0  0  0  0
 17 29  1  0  0  0  0
 18 29  1  0  0  0  0
 18 32  2  0  0  0  0
 18 33  1  0  0  0  0
 19 21  2  0  0  0  0
 19 38  1  0  0  0  0
 20 22  2  0  0  0  0
 20 39  1  0  0  0  0
 21 47  1  0  0  0  0
 22 40  1  0  0  0  0
 23 31  2  0  0  0  0
 23 50  1  0  0  0  0
 24 83  1  0  0  0  0
 25 84  1  0  0  0  0
 26 28  2  0  0  0  0
 26 83  1  0  0  0  0
 27 85  1  0  0  0  0
 28 86  1  0  0  0  0
 29 67  2  0  0  0  0
 30 59  1  0  0  0  0
 30 68  2  0  0  0  0
 31 65  1  0  0  0  0
 31 68  1  0  0  0  0
 32 69  1  0  0  0  0
 32 72  1  0  0  0  0
 33 73  1  0  0  0  0
 33 78  2  0  0  0  0
 34 48  1  0  0  0  0
 34 74  1  0  0  0  0
 34 79  2  0  0  0  0
 35 62  1  0  0  0  0
 35 70  1  0  0  0  0
 35 80  2  0  0  0  0
 36 63  1  0  0  0  0
 36 75  1  0  0  0  0
 36 81  2  0  0  0  0
 37 71  1  0  0  0  0
 37 76  1  0  0  0  0
 37 82  2  0  0  0  0
 38 41  1  0  0  0  0
 39 48  1  0  0  0  0
 40 70  1  0  0  0  0
 41 43  1  0  0  0  0
 42 44  1  0  0  0  0
 42 45  1  0  0  0  0
 43 47  1  0  0  0  0
 44 49  1  0  0  0  0
 45 71  1  0  0  0  0
 46 49  1  0  0  0  0
 46 71  1  0  0  0  0
 47 74  1  0  0  0  0
 48 70  1  0  0  0  0
 49 69  1  0  0  0  0
 51 63  1  0  0  0  0
 52 64  1  0  0  0  0
 53 65  1  0  0  0  0
 54 65  1  0  0  0  0
 55 66  1  0  0  0  0
 56 66  1  0  0  0  0
 57 66  1  0  0  0  0
 58 77  1  0  0  0  0
 59 60  1  0  0  0  0
 60 64  1  0  0  0  0
 61 65  1  0  0  0  0
 61 76  1  0  0  0  0
 62 66  1  0  0  0  0
 62 75  1  0  0  0  0
 63 77  1  0  0  0  0
 64 84  1  0  0  0  0
 67 69  1  0  0  0  0
M  CHG  1  77   1
M  ISO  4  37 100  64 101  76 100  84 101
M  END
> <Batch ID>
0077

> <Smiles>
CNC(C)C(=O)NC(C(=O)N1Cc2cc([101O:1][101CH:1](C)CCc3ccc(C)c(C(C)(C)C[100NH:0][100C:0](=O)N4CCCC(n5nc(-c6ccc(Oc7ccc(F)cc7F)cc6)c(C(N)=O)c5N)C4)n3)ccc2CC1C(=O)NC1CCCc2ccccc21)C(C)(C)C

> <Shape>
0.222

> <Color>
0.066

> <Negative vol penalty>
0.000

$$$$

  -OEChem-04052318373D

 84 92  0     1  0  0  0  0  0999 V2000
  -27.3880  -34.6555   23.5205 C   0  0  0  0  0  0  0  0  0  0  0  0
  -27.6623  -33.3328   23.8529 C   0  0  0  0  0  0  0  0  0  0  0  0
  -27.3847  -11.3886   22.0212 C   0  0  0  0  0  0  0  0  0  0  0  0
  -25.9446  -11.8338   20.1331 C   0  0  0  0  0  0  0  0  0  0  0  0
  -26.0962  -35.0264   23.1498 C   0  0  0  0  0  0  0  0  0  0  0  0
  -26.6445  -32.3803   23.8160 C   0  0  0  0  0  0  0  0  0  0  0  0
  -28.0959  -28.0718   21.5855 C   0  0  0  0  0  0  0  0  0  0  0  0
  -26.3327  -10.7437   22.6716 C   0  0  0  0  0  0  0  0  0  0  0  0
  -24.8926  -11.1889   20.7835 C   0  0  0  0  0  0  0  0  0  0  0  0
  -28.8775  -27.1968   22.3386 C   0  0  0  0  0  0  0  0  0  0  0  0
  -21.9277   -9.3438   21.7953 C   0  0  0  0  0  0  0  0  0  0  0  0
  -21.1574   -8.4483   21.0536 C   0  0  0  0  0  0  0  0  0  0  0  0
  -26.9227  -25.8630   22.8065 C   0  0  0  0  0  0  0  0  0  0  0  0
  -29.6428  -21.0874   21.3754 C   0  0  0  0  0  0  0  0  0  0  0  0
  -23.1248   -7.1144   20.6208 C   0  0  0  0  0  0  0  0  0  0  0  0
  -27.8436  -20.2831   22.4644 C   0  0  0  0  0  0  0  0  0  0  0  0
  -27.1906  -11.9337   20.7520 C   0  0  0  0  0  0  0  0  0  0  0  0
  -29.2271  -12.0208   19.2181 C   0  0  0  0  0  0  0  0  0  0  0  0
  -25.0642  -34.0762   23.0989 C   0  0  0  0  0  0  0  0  0  0  0  0
  -26.7175  -27.8546   21.4460 C   0  0  0  0  0  0  0  0  0  0  0  0
  -25.3373  -32.7392   23.4455 C   0  0  0  0  0  0  0  0  0  0  0  0
  -26.1262  -26.7353   22.0490 C   0  0  0  0  0  0  0  0  0  0  0  0
  -29.0328  -20.9537   22.6471 C   0  0  0  0  0  0  0  0  0  0  0  0
  -25.0867  -10.6438   22.0527 C   0  0  0  0  0  0  0  0  0  0  0  0
  -28.2904  -26.0938   22.9517 C   0  0  0  0  0  0  0  0  0  0  0  0
  -23.2967   -9.1247   21.9497 C   0  0  0  0  0  0  0  0  0  0  0  0
  -21.7559   -7.3335   20.4664 C   0  0  0  0  0  0  0  0  0  0  0  0
  -23.8952   -8.0100   21.3624 C   0  0  0  0  0  0  0  0  0  0  0  0
  -28.2768  -12.6005   20.0799 C   0  0  0  0  0  0  0  0  0  0  0  0
  -28.8077  -20.4945   20.4543 C   0  0  0  0  0  0  0  0  0  0  0  0
  -30.0364  -13.0665   18.8463 C   0  0  0  0  0  0  0  0  0  0  0  0
  -29.3658  -10.6590   18.7917 C   0  0  0  0  0  0  0  0  0  0  0  0
  -24.0999  -29.4709   22.2454 C   0  0  0  0  0  0  0  0  0  0  0  0
  -22.6094  -27.1106   20.5932 C   0  0  0  0  0  0  0  0  0  0  0  0
  -28.9744  -18.9035   18.5690 C   0  0  0  0  0  0  0  0  0  0  0  0
  -22.6827  -23.9099   19.4114 C   0  0  0  0  0  0  0  0  0  0  0  0
  -23.6731  -34.5338   22.7380 C   0  0  0  0  0  0  0  0  0  0  0  0
  -25.8931  -28.7930   20.6081 C   0  0  0  0  0  0  0  0  0  0  0  0
  -24.6544  -26.4463   21.9131 C   0  0  0  0  0  0  0  0  0  0  0  0
  -22.7341  -33.3905   22.3620 C   0  0  0  0  0  0  0  0  0  0  0  0
  -31.6702  -17.2809   20.3931 C   0  0  0  0  0  0  0  0  0  0  0  0
  -22.8465  -32.2532   23.3724 C   0  0  0  0  0  0  0  0  0  0  0  0
  -31.1681  -15.8393   20.4621 C   0  0  0  0  0  0  0  0  0  0  0  0
  -30.5207  -18.2808   20.4882 C   0  0  0  0  0  0  0  0  0  0  0  0
  -28.9467  -16.6259   19.5351 C   0  0  0  0  0  0  0  0  0  0  0  0
  -24.2654  -31.6722   23.3935 C   0  0  1  0  0  0  0  0  0  0  0  0
  -24.4086  -28.7595   20.9585 C   0  0  1  0  0  0  0  0  0  0  0  0
  -30.0726  -15.5856   19.4119 C   0  0  2  0  0  0  0  0  0  0  0  0
  -21.3034  -22.2514   18.1291 C   0  0  0  0  0  0  0  0  0  0  0  0
  -28.6854  -21.1594   25.2019 C   0  0  0  0  0  0  0  0  0  0  0  0
  -30.9391  -20.7432   24.2574 C   0  0  0  0  0  0  0  0  0  0  0  0
  -30.2943  -20.9798   18.4929 C   0  0  0  0  0  0  0  0  0  0  0  0
  -27.8272  -20.9685   18.1089 C   0  0  0  0  0  0  0  0  0  0  0  0
  -20.8709  -26.6539   23.0588 C   0  0  0  0  0  0  0  0  0  0  0  0
  -20.2061  -24.4412   22.0943 C   0  0  0  0  0  0  0  0  0  0  0  0
  -19.6433  -26.5477   20.8825 C   0  0  0  0  0  0  0  0  0  0  0  0
  -26.5964  -19.3126   20.5351 C   0  0  0  0  0  0  0  0  0  0  0  0
  -24.7143  -23.7014   17.2694 C   0  0  0  0  0  0  0  0  0  0  0  0
  -29.8675  -22.9967   23.9375 C   0  0  0  0  0  0  0  0  0  0  0  0
  -28.6334  -23.8748   23.7354 C   0  0  0  0  0  0  0  0  0  1  0  0
  -22.0433  -25.7551   20.9414 C   0  0  1  0  0  0  0  0  0  0  0  0
  -22.3678  -23.3341   18.0426 C   0  0  2  0  0  0  0  0  0  0  0  0
  -29.5944  -21.4631   23.9869 C   0  0  0  0  0  0  0  0  0  0  0  0
  -28.9594  -20.3509   18.9916 C   0  0  0  0  0  0  0  0  0  0  0  0
  -20.7183  -25.8557   21.7486 C   0  0  0  0  0  0  0  0  0  0  0  0
  -28.4639  -13.9126   20.2459 N   0  0  0  0  0  0  0  0  0  0  0  0
  -27.7171  -20.0093   21.1275 N   0  0  0  0  0  0  0  0  0  0  0  0
  -29.5411  -14.1660   19.4834 N   0  0  0  0  0  0  0  0  0  0  0  0
  -23.8894  -27.3965   21.0889 N   0  0  0  0  0  0  0  0  0  0  0  0
  -29.4854  -17.9883   19.4896 N   0  0  0  0  0  0  0  0  0  0  0  0
  -31.1162  -13.1434   18.0398 N   0  0  0  0  0  0  0  0  0  0  0  0
  -28.4488   -9.7127   19.2690 N   0  0  0  0  0  0  0  0  0  0  0  0
  -24.4721  -30.8016   22.2559 N   0  0  0  0  0  0  0  0  0  0  0  0
  -21.9223  -25.0277   19.6825 N   0  0  0  0  0  0  0  0  0  0  0  0
  -23.5930  -22.7412   17.4356 N   0  3  0  0  0  0  0  0  0  0  0  0
  -30.2860  -10.2891   18.0235 O   0  0  0  0  0  0  0  0  0  0  0  0
  -23.5623  -28.8583   23.1606 O   0  0  0  0  0  0  0  0  0  0  0  0
  -21.9434  -27.8844   19.9009 O   0  0  0  0  0  0  0  0  0  0  0  0
  -28.5470  -18.5977   17.4528 O   0  0  0  0  0  0  0  0  0  0  0  0
  -23.5169  -23.4151   20.1663 O   0  0  0  0  0  0  0  0  0  0  0  0
  -24.0600  -10.0144   22.6870 O   0  0  0  0  0  0  0  0  0  0  0  0
  -29.0509  -25.2386   23.6880 O   0  0  0  0  0  0  0  0  0  1  0  0
  -21.0157   -6.4728   19.7555 F   0  0  0  0  0  0  0  0  0  0  0  0
  -25.2096   -7.7936   21.5082 F   0  0  0  0  0  0  0  0  0  0  0  0
  1  2  1  0  0  0  0
  1  5  2  0  0  0  0
  2  6  2  0  0  0  0
  3  8  2  0  0  0  0
  3 17  1  0  0  0  0
  4  9  1  0  0  0  0
  4 17  2  0  0  0  0
  5 19  1  0  0  0  0
  6 21  1  0  0  0  0
  7 10  2  0  0  0  0
  7 20  1  0  0  0  0
  8 24  1  0  0  0  0
  9 24  2  0  0  0  0
 10 25  1  0  0  0  0
 11 12  2  0  0  0  0
 11 26  1  0  0  0  0
 12 27  1  0  0  0  0
 13 22  1  0  0  0  0
 13 25  2  0  0  0  0
 14 23  1  0  0  0  0
 14 30  2  0  0  0  0
 15 27  2  0  0  0  0
 15 28  1  0  0  0  0
 16 23  2  0  0  0  0
 16 67  1  0  0  0  0
 17 29  1  0  0  0  0
 18 29  1  0  0  0  0
 18 31  2  0  0  0  0
 18 32  1  0  0  0  0
 19 21  2  0  0  0  0
 19 37  1  0  0  0  0
 20 22  2  0  0  0  0
 20 38  1  0  0  0  0
 21 46  1  0  0  0  0
 22 39  1  0  0  0  0
 23 63  1  0  0  0  0
 24 81  1  0  0  0  0
 25 82  1  0  0  0  0
 26 28  2  0  0  0  0
 26 81  1  0  0  0  0
 27 83  1  0  0  0  0
 28 84  1  0  0  0  0
 29 66  2  0  0  0  0
 30 64  1  0  0  0  0
 30 67  1  0  0  0  0
 31 68  1  0  0  0  0
 31 71  1  0  0  0  0
 32 72  1  0  0  0  0
 32 76  2  0  0  0  0
 33 47  1  0  0  0  0
 33 73  1  0  0  0  0
 33 77  2  0  0  0  0
 34 61  1  0  0  0  0
 34 69  1  0  0  0  0
 34 78  2  0  0  0  0
 35 64  1  0  0  0  0
 35 70  1  0  0  0  0
 35 79  2  0  0  0  0
 36 62  1  0  0  0  0
 36 74  1  0  0  0  0
 36 80  2  0  0  0  0
 37 40  1  0  0  0  0
 38 47  1  0  0  0  0
 39 69  1  0  0  0  0
 40 42  1  0  0  0  0
 41 43  1  0  0  0  0
 41 44  1  0  0  0  0
 42 46  1  0  0  0  0
 43 48  1  0  0  0  0
 44 70  1  0  0  0  0
 45 48  1  0  0  0  0
 45 70  1  0  0  0  0
 46 73  1  0  0  0  0
 47 69  1  0  0  0  0
 48 68  1  0  0  0  0
 49 62  1  0  0  0  0
 50 63  1  0  0  0  0
 51 63  1  0  0  0  0
 52 64  1  0  0  0  0
 53 64  1  0  0  0  0
 54 65  1  0  0  0  0
 55 65  1  0  0  0  0
 56 65  1  0  0  0  0
 57 67  1  0  0  0  0
 58 75  1  0  0  0  0
 59 60  1  0  0  0  0
 59 63  1  0  0  0  0
 60 82  1  0  0  0  0
 61 65  1  0  0  0  0
 61 74  1  0  0  0  0
 62 75  1  0  0  0  0
 66 68  1  0  0  0  0
M  CHG  1  75   1
M  ISO  4  35 100  60 101  64 100  82 101
M  END
> <Batch ID>
0077

> <Smiles>
CNC(C)C(=O)NC(C(=O)N1Cc2cc([101O:1][101CH2:1]CC(C)(C)c3cc([100C:0](C)(C)[100C:0](=O)N4CCCC(n5nc(-c6ccc(Oc7ccc(F)cc7F)cc6)c(C(N)=O)c5N)C4)n(C)c3)ccc2CC1C(=O)NC1CCCc2ccccc21)C(C)(C)C

> <Shape>
0.262

> <Color>
0.042

> <Negative vol penalty>
0.000

$$$$

  -OEChem-04052318373D

 90 99  0     1  0  0  0  0  0999 V2000
  -26.2773  -35.4835   22.8367 C   0  0  0  0  0  0  0  0  0  0  0  0
  -26.7759  -34.1945   22.6781 C   0  0  0  0  0  0  0  0  0  0  0  0
  -22.4594  -11.2042   21.0637 C   0  0  0  0  0  0  0  0  0  0  0  0
  -20.8117  -12.3440   19.7134 C   0  0  0  0  0  0  0  0  0  0  0  0
  -24.9839  -35.6748   23.3209 C   0  0  0  0  0  0  0  0  0  0  0  0
  -25.9817  -33.0958   23.0047 C   0  0  0  0  0  0  0  0  0  0  0  0
  -26.1753  -29.4475   19.4980 C   0  0  0  0  0  0  0  0  0  0  0  0
  -22.1375   -9.9992   20.4393 C   0  0  0  0  0  0  0  0  0  0  0  0
  -20.4898  -11.1389   19.0890 C   0  0  0  0  0  0  0  0  0  0  0  0
  -27.3007  -28.6245   19.4969 C   0  0  0  0  0  0  0  0  0  0  0  0
  -21.4966   -6.5582   19.4532 C   0  0  0  0  0  0  0  0  0  0  0  0
  -21.3372   -5.4308   20.2590 C   0  0  0  0  0  0  0  0  0  0  0  0
  -26.0507  -26.9239   20.6651 C   0  0  0  0  0  0  0  0  0  0  0  0
  -19.5438   -6.5323   21.4454 C   0  0  0  0  0  0  0  0  0  0  0  0
  -21.7964  -12.3766   20.7008 C   0  0  0  0  0  0  0  0  0  0  0  0
  -22.0317  -13.9201   22.7182 C   0  0  0  0  0  0  0  0  0  0  0  0
  -24.1700  -34.5777   23.6445 C   0  0  0  0  0  0  0  0  0  0  0  0
  -24.9804  -29.0185   20.0933 C   0  0  0  0  0  0  0  0  0  0  0  0
  -24.6767  -33.2726   23.4950 C   0  0  0  0  0  0  0  0  0  0  0  0
  -24.9109  -27.7423   20.6701 C   0  0  0  0  0  0  0  0  0  0  0  0
  -21.1528   -9.9665   19.4520 C   0  0  0  0  0  0  0  0  0  0  0  0
  -27.2394  -27.3637   20.0830 C   0  0  0  0  0  0  0  0  0  0  0  0
  -20.6797   -7.6727   19.6436 C   0  0  0  0  0  0  0  0  0  0  0  0
  -20.3608   -5.4179   21.2550 C   0  0  0  0  0  0  0  0  0  0  0  0
  -19.7032   -7.6597   20.6396 C   0  0  0  0  0  0  0  0  0  0  0  0
  -22.1280  -13.6217   21.3458 C   0  0  0  0  0  0  0  0  0  0  0  0
  -22.4613  -15.2209   22.8177 C   0  0  0  0  0  0  0  0  0  0  0  0
  -29.4893  -21.0217   20.9137 C   0  0  0  0  0  0  0  0  0  0  0  0
  -28.9138  -19.0854   20.3587 C   0  0  0  0  0  0  0  0  0  0  0  0
  -21.5932  -13.0953   23.8059 C   0  0  0  0  0  0  0  0  0  0  0  0
  -23.1878  -30.0367   22.5127 C   0  0  0  0  0  0  0  0  0  0  0  0
  -21.1760  -27.7052   21.4932 C   0  0  0  0  0  0  0  0  0  0  0  0
  -26.0609  -18.5357   19.3295 C   0  0  0  0  0  0  0  0  0  0  0  0
  -20.7672  -24.7575   19.8228 C   0  0  0  0  0  0  0  0  0  0  0  0
  -22.7954  -34.8352   24.2092 C   0  0  0  0  0  0  0  0  0  0  0  0
  -23.7676  -29.9076   20.0626 C   0  0  0  0  0  0  0  0  0  0  0  0
  -23.6459  -27.2266   21.3045 C   0  0  0  0  0  0  0  0  0  0  0  0
  -29.9508  -22.4303   21.0216 C   0  0  0  0  0  0  0  0  0  0  0  0
  -21.8849  -33.6104   24.1780 C   0  0  0  0  0  0  0  0  0  0  0  0
  -22.7048  -19.2925   20.3316 C   0  0  0  0  0  0  0  0  0  0  0  0
  -22.6252  -32.3815   24.6962 C   0  0  0  0  0  0  0  0  0  0  0  0
  -22.1586  -17.9456   20.8032 C   0  0  0  0  0  0  0  0  0  0  0  0
  -29.9235  -22.0754   23.5294 C   0  0  0  0  0  0  0  0  0  0  0  0
  -29.1690  -20.7517   23.3807 C   0  0  0  0  0  0  0  0  0  0  0  0
  -23.6657  -19.1256   19.1585 C   0  0  0  0  0  0  0  0  0  0  0  0
  -24.2530  -16.8395   19.9004 C   0  0  0  0  0  0  0  0  0  0  0  0
  -23.8369  -32.0550   23.8149 C   0  0  1  0  0  0  0  0  0  0  0  0
  -22.7531  -29.5722   21.1515 C   0  0  1  0  0  0  0  0  0  0  0  0
  -29.5751  -23.0463   22.3842 C   0  0  1  0  0  0  0  0  0  0  0  0
  -23.3019  -16.9602   21.1042 C   0  0  2  0  0  0  0  0  0  0  0  0
  -19.0124  -23.0789   19.1898 C   0  0  0  0  0  0  0  0  0  0  0  0
  -29.5015  -16.6696   19.8188 C   0  0  0  0  0  0  0  0  0  0  0  0
  -28.8341  -18.1737   17.9619 C   0  0  0  0  0  0  0  0  0  0  0  0
  -29.8537  -24.9894   23.9297 C   0  0  0  0  0  0  0  0  0  0  0  0
  -31.7965  -24.1504   22.6005 C   0  0  0  0  0  0  0  0  0  0  0  0
  -21.1853  -26.6232   24.3461 C   0  0  0  0  0  0  0  0  0  0  0  0
  -20.2324  -24.4829   23.4632 C   0  0  0  0  0  0  0  0  0  0  0  0
  -18.9464  -26.6078   23.2319 C   0  0  0  0  0  0  0  0  0  0  0  0
  -21.2248  -25.1964   16.9320 C   0  0  0  0  0  0  0  0  0  0  0  0
  -29.9537  -25.3596   21.4133 C   0  0  0  0  0  0  0  0  0  0  0  0
  -28.4735  -25.6485   21.1744 C   0  0  0  0  0  0  0  0  0  1  0  0
  -20.9971  -26.2380   21.8001 C   0  0  1  0  0  0  0  0  0  0  0  0
  -19.7661  -24.3296   18.7649 C   0  0  2  0  0  0  0  0  0  0  0  0
  -28.6034  -17.9308   19.5077 C   0  0  0  0  0  0  0  0  0  0  0  0
  -27.0938  -17.4942   19.6795 C   0  0  0  0  0  0  0  0  0  0  0  0
  -30.2743  -24.3897   22.5779 C   0  0  0  0  0  0  0  0  0  0  0  0
  -20.3649  -25.9982   23.2002 C   0  0  0  0  0  0  0  0  0  0  0  0
  -22.5829  -14.6501   20.6252 N   0  0  0  0  0  0  0  0  0  0  0  0
  -29.3316  -20.2801   19.8387 N   0  0  0  0  0  0  0  0  0  0  0  0
  -28.8019  -19.0344   21.6889 N   0  0  0  0  0  0  0  0  0  0  0  0
  -22.7762  -15.6076   21.5482 N   0  0  0  0  0  0  0  0  0  0  0  0
  -29.1836  -20.2765   22.0167 N   0  0  0  0  0  0  0  0  0  0  0  0
  -22.4889  -28.1356   21.2547 N   0  0  0  0  0  0  0  0  0  0  0  0
  -24.7240  -18.1652   19.4760 N   0  0  0  0  0  0  0  0  0  0  0  0
  -22.5965  -16.0603   23.8663 N   0  0  0  0  0  0  0  0  0  0  0  0
  -20.2336  -13.1051   24.1459 N   0  0  0  0  0  0  0  0  0  0  0  0
  -23.4138  -31.3973   22.5972 N   0  0  0  0  0  0  0  0  0  0  0  0
  -20.2272  -25.6804   20.6934 N   0  0  0  0  0  0  0  0  0  0  0  0
  -20.4621  -24.0446   17.4783 N   0  3  0  0  0  0  0  0  0  0  0  0
  -22.3864  -12.3835   24.4675 O   0  0  0  0  0  0  0  0  0  0  0  0
  -23.3078  -29.2213   23.4195 O   0  0  0  0  0  0  0  0  0  0  0  0
  -20.1865  -28.4410   21.4591 O   0  0  0  0  0  0  0  0  0  0  0  0
  -26.4332  -19.6458   18.9406 O   0  0  0  0  0  0  0  0  0  0  0  0
  -21.9124  -24.3142   19.8742 O   0  0  0  0  0  0  0  0  0  0  0  0
  -20.8386   -8.7909   18.8423 O   0  0  0  0  0  0  0  0  0  0  0  0
  -28.3365  -26.5586   20.0839 O   0  0  0  0  0  0  0  0  0  1  0  0
  -20.2068   -4.3346   22.0277 F   0  0  0  0  0  0  0  0  0  0  0  0
  -18.9146   -8.7270   20.8264 F   0  0  0  0  0  0  0  0  0  0  0  0
  -26.9199  -17.1018   20.9726 F   0  0  0  0  0  0  0  0  0  0  0  0
  -26.8824  -16.3830   18.9216 F   0  0  0  0  0  0  0  0  0  0  0  0
  1  2  1  0  0  0  0
  1  5  2  0  0  0  0
  2  6  2  0  0  0  0
  3  8  2  0  0  0  0
  3 15  1  0  0  0  0
  4  9  1  0  0  0  0
  4 15  2  0  0  0  0
  5 17  1  0  0  0  0
  6 19  1  0  0  0  0
  7 10  2  0  0  0  0
  7 18  1  0  0  0  0
  8 21  1  0  0  0  0
  9 21  2  0  0  0  0
 10 22  1  0  0  0  0
 11 12  2  0  0  0  0
 11 23  1  0  0  0  0
 12 24  1  0  0  0  0
 13 20  1  0  0  0  0
 13 22  2  0  0  0  0
 14 24  2  0  0  0  0
 14 25  1  0  0  0  0
 15 26  1  0  0  0  0
 16 26  1  0  0  0  0
 16 27  2  0  0  0  0
 16 30  1  0  0  0  0
 17 19  2  0  0  0  0
 17 35  1  0  0  0  0
 18 20  2  0  0  0  0
 18 36  1  0  0  0  0
 19 47  1  0  0  0  0
 20 37  1  0  0  0  0
 21 85  1  0  0  0  0
 22 86  1  0  0  0  0
 23 25  2  0  0  0  0
 23 85  1  0  0  0  0
 24 87  1  0  0  0  0
 25 88  1  0  0  0  0
 26 68  2  0  0  0  0
 27 71  1  0  0  0  0
 27 75  1  0  0  0  0
 28 38  1  0  0  0  0
 28 69  2  0  0  0  0
 28 72  1  0  0  0  0
 29 64  1  0  0  0  0
 29 69  1  0  0  0  0
 29 70  2  0  0  0  0
 30 76  1  0  0  0  0
 30 80  2  0  0  0  0
 31 48  1  0  0  0  0
 31 77  1  0  0  0  0
 31 81  2  0  0  0  0
 32 62  1  0  0  0  0
 32 73  1  0  0  0  0
 32 82  2  0  0  0  0
 33 65  1  0  0  0  0
 33 74  1  0  0  0  0
 33 83  2  0  0  0  0
 34 63  1  0  0  0  0
 34 78  1  0  0  0  0
 34 84  2  0  0  0  0
 35 39  1  0  0  0  0
 36 48  1  0  0  0  0
 37 73  1  0  0  0  0
 38 49  1  0  0  0  0
 39 41  1  0  0  0  0
 40 42  1  0  0  0  0
 40 45  1  0  0  0  0
 41 47  1  0  0  0  0
 42 50  1  0  0  0  0
 43 44  1  0  0  0  0
 43 49  1  0  0  0  0
 44 72  1  0  0  0  0
 45 74  1  0  0  0  0
 46 50  1  0  0  0  0
 46 74  1  0  0  0  0
 47 77  1  0  0  0  0
 48 73  1  0  0  0  0
 49 66  1  0  0  0  0
 50 71  1  0  0  0  0
 51 63  1  0  0  0  0
 52 64  1  0  0  0  0
 53 64  1  0  0  0  0
 54 66  1  0  0  0  0
 55 66  1  0  0  0  0
 56 67  1  0  0  0  0
 57 67  1  0  0  0  0
 58 67  1  0  0  0  0
 59 79  1  0  0  0  0
 60 61  1  0  0  0  0
 60 66  1  0  0  0  0
 61 86  1  0  0  0  0
 62 67  1  0  0  0  0
 62 78  1  0  0  0  0
 63 79  1  0  0  0  0
 64 65  1  0  0  0  0
 65 89  1  0  0  0  0
 65 90  1  0  0  0  0
 68 71  1  0  0  0  0
 70 72  1  0  0  0  0
M  CHG  1  79   1
M  ISO  4  33 100  61 101  65 100  86 101
M  END
> <Batch ID>
0077

> <Smiles>
CNC(C)C(=O)NC(C(=O)N1Cc2cc([101O:1][101CH2:1]CC(C)(C)C3CCn4nc(C(C)(C)[100C:0](F)(F)[100C:0](=O)N5CCCC(n6nc(-c7ccc(Oc8ccc(F)cc8F)cc7)c(C(N)=O)c6N)C5)nc4C3)ccc2CC1C(=O)NC1CCCc2ccccc21)C(C)(C)C

> <Shape>
0.234

> <Color>
0.089

> <Negative vol penalty>
0.000

$$$$

  -OEChem-04052318373D

 84 92  0     1  0  0  0  0  0999 V2000
  -22.5775  -20.9431   17.6182 C   0  0  0  0  0  0  0  0  0  0  0  0
  -23.6439  -21.3940   18.3894 C   0  0  0  0  0  0  0  0  0  0  0  0
  -25.7536  -14.0290   21.3045 C   0  0  0  0  0  0  0  0  0  0  0  0
  -25.3722  -14.4839   18.9626 C   0  0  0  0  0  0  0  0  0  0  0  0
  -21.7601  -21.8592   16.9574 C   0  0  0  0  0  0  0  0  0  0  0  0
  -23.8942  -22.7614   18.4994 C   0  0  0  0  0  0  0  0  0  0  0  0
  -26.0487  -25.7264   23.4058 C   0  0  0  0  0  0  0  0  0  0  0  0
  -24.6911  -13.1253   21.3021 C   0  0  0  0  0  0  0  0  0  0  0  0
  -24.3097  -13.5801   18.9601 C   0  0  0  0  0  0  0  0  0  0  0  0
  -27.3263  -26.1654   23.7503 C   0  0  0  0  0  0  0  0  0  0  0  0
  -24.1320   -9.9408   20.3124 C   0  0  0  0  0  0  0  0  0  0  0  0
  -24.3256   -8.7110   20.9414 C   0  0  0  0  0  0  0  0  0  0  0  0
  -26.8011  -28.3547   22.8840 C   0  0  0  0  0  0  0  0  0  0  0  0
  -22.5032   -9.1964   22.4515 C   0  0  0  0  0  0  0  0  0  0  0  0
  -29.7342  -27.4046   20.1180 C   0  0  0  0  0  0  0  0  0  0  0  0
  -31.4897  -26.1454   20.5527 C   0  0  0  0  0  0  0  0  0  0  0  0
  -26.0941  -14.7084   20.1348 C   0  0  0  0  0  0  0  0  0  0  0  0
  -28.5439  -15.3657   19.8626 C   0  0  0  0  0  0  0  0  0  0  0  0
  -21.9946  -23.2389   17.0673 C   0  0  0  0  0  0  0  0  0  0  0  0
  -25.1398  -26.5967   22.7869 C   0  0  0  0  0  0  0  0  0  0  0  0
  -23.0800  -23.6967   17.8385 C   0  0  0  0  0  0  0  0  0  0  0  0
  -25.5117  -27.9250   22.5350 C   0  0  0  0  0  0  0  0  0  0  0  0
  -23.9692  -12.9008   20.1299 C   0  0  0  0  0  0  0  0  0  0  0  0
  -27.7037  -27.4789   23.4868 C   0  0  0  0  0  0  0  0  0  0  0  0
  -23.1240  -10.7985   20.7530 C   0  0  0  0  0  0  0  0  0  0  0  0
  -23.5112   -8.3388   22.0109 C   0  0  0  0  0  0  0  0  0  0  0  0
  -22.3096  -10.4263   21.8225 C   0  0  0  0  0  0  0  0  0  0  0  0
  -27.1911  -15.6425   20.1369 C   0  0  0  0  0  0  0  0  0  0  0  0
  -29.7797  -26.3038   19.2953 C   0  0  0  0  0  0  0  0  0  0  0  0
  -29.1760  -16.5780   19.9942 C   0  0  0  0  0  0  0  0  0  0  0  0
  -29.1729  -14.1238   19.5194 C   0  0  0  0  0  0  0  0  0  0  0  0
  -23.6394  -26.6516   19.9852 C   0  0  0  0  0  0  0  0  0  0  0  0
  -28.1742  -22.1020   18.8547 C   0  0  0  0  0  0  0  0  0  0  0  0
  -22.1387  -29.2196   21.2798 C   0  0  0  0  0  0  0  0  0  0  0  0
  -22.1916  -31.7640   23.5536 C   0  0  0  0  0  0  0  0  0  0  0  0
  -21.1125  -24.1888   16.2965 C   0  0  0  0  0  0  0  0  0  0  0  0
  -23.7563  -26.1152   22.4458 C   0  0  0  0  0  0  0  0  0  0  0  0
  -24.5662  -28.9046   21.8908 C   0  0  0  0  0  0  0  0  0  0  0  0
  -21.2189  -25.6369   16.7675 C   0  0  0  0  0  0  0  0  0  0  0  0
  -28.1320  -20.8350   22.2635 C   0  0  0  0  0  0  0  0  0  0  0  0
  -22.6811  -26.0368   16.9380 C   0  0  0  0  0  0  0  0  0  0  0  0
  -27.9839  -19.3322   22.0292 C   0  0  0  0  0  0  0  0  0  0  0  0
  -27.3652  -21.6439   21.2206 C   0  0  0  0  0  0  0  0  0  0  0  0
  -27.5851  -19.8093   19.5744 C   0  0  0  0  0  0  0  0  0  0  0  0
  -23.3687  -25.1732   18.0024 C   0  0  1  0  0  0  0  0  0  0  0  0
  -23.0882  -26.9430   21.3523 C   0  0  1  0  0  0  0  0  0  0  0  0
  -28.3688  -18.9579   20.5872 C   0  0  2  0  0  0  0  0  0  0  0  0
  -20.8401  -33.7228   24.3498 C   0  0  0  0  0  0  0  0  0  0  0  0
  -32.6150  -28.8901   21.6660 C   0  0  0  0  0  0  0  0  0  0  0  0
  -29.2669  -26.5392   16.8555 C   0  0  0  0  0  0  0  0  0  0  0  0
  -27.3481  -26.4104   18.4195 C   0  0  0  0  0  0  0  0  0  0  0  0
  -22.9679  -30.7957   18.8022 C   0  0  0  0  0  0  0  0  0  0  0  0
  -22.4474  -32.9012   20.0529 C   0  0  0  0  0  0  0  0  0  0  0  0
  -20.6386  -31.2458   19.5937 C   0  0  0  0  0  0  0  0  0  0  0  0
  -21.9630  -30.6446   26.2837 C   0  0  0  0  0  0  0  0  0  0  0  0
  -28.2625  -23.5646   19.2107 C   0  0  0  0  0  0  0  0  0  0  0  0
  -28.7524  -24.3540   17.9946 C   0  0  0  0  0  0  0  0  0  0  0  0
  -31.3108  -27.6099   23.4061 C   0  0  0  0  0  0  0  0  0  0  0  0
  -29.9981  -26.9411   23.8067 C   0  0  0  0  0  0  0  0  0  1  0  0
  -22.4047  -30.7051   21.3203 C   0  0  1  0  0  0  0  0  0  0  0  0
  -21.1520  -32.2476   24.5484 C   0  0  2  0  0  0  0  0  0  0  0  0
  -31.2610  -28.2571   22.0087 C   0  0  2  0  0  0  0  0  0  0  0  0
  -28.8353  -25.9203   18.2349 C   0  0  0  0  0  0  0  0  0  0  0  0
  -22.1333  -31.3932   19.9527 C   0  0  0  0  0  0  0  0  0  0  0  0
  -30.8747  -25.5238   19.5712 N   0  0  0  0  0  0  0  0  0  0  0  0
  -26.9756  -16.9296   20.4214 N   0  0  0  0  0  0  0  0  0  0  0  0
  -30.8358  -27.2891   20.9182 N   0  0  0  0  0  0  0  0  0  0  0  0
  -28.2014  -17.4723   20.3267 N   0  0  0  0  0  0  0  0  0  0  0  0
  -23.2268  -28.3844   21.5703 N   0  0  0  0  0  0  0  0  0  0  0  0
  -27.7401  -21.2384   19.8607 N   0  0  0  0  0  0  0  0  0  0  0  0
  -30.4648  -16.9555   19.8569 N   0  0  0  0  0  0  0  0  0  0  0  0
  -28.3761  -12.9745   19.4267 N   0  0  0  0  0  0  0  0  0  0  0  0
  -22.9995  -25.6173   19.3294 N   0  0  0  0  0  0  0  0  0  0  0  0
  -21.6082  -31.2325   22.4229 N   0  0  0  0  0  0  0  0  0  0  0  0
  -21.6402  -32.0541   25.9431 N   0  3  0  0  0  0  0  0  0  0  0  0
  -30.4075  -14.0327   19.3175 O   0  0  0  0  0  0  0  0  0  0  0  0
  -24.5749  -27.3170   19.5566 O   0  0  0  0  0  0  0  0  0  0  0  0
  -28.4847  -21.7395   17.7170 O   0  0  0  0  0  0  0  0  0  0  0  0
  -21.0055  -28.8153   21.0077 O   0  0  0  0  0  0  0  0  0  0  0  0
  -23.4004  -31.8525   23.7574 O   0  0  0  0  0  0  0  0  0  0  0  0
  -22.9326  -12.0188   20.1270 O   0  0  0  0  0  0  0  0  0  0  0  0
  -28.9504  -27.9098   23.8214 O   0  0  0  0  0  0  0  0  0  1  0  0
  -23.6963   -7.1571   22.6138 F   0  0  0  0  0  0  0  0  0  0  0  0
  -21.3389  -11.2455   22.2495 F   0  0  0  0  0  0  0  0  0  0  0  0
  1  2  1  0  0  0  0
  1  5  2  0  0  0  0
  2  6  2  0  0  0  0
  3  8  2  0  0  0  0
  3 17  1  0  0  0  0
  4  9  1  0  0  0  0
  4 17  2  0  0  0  0
  5 19  1  0  0  0  0
  6 21  1  0  0  0  0
  7 10  2  0  0  0  0
  7 20  1  0  0  0  0
  8 23  1  0  0  0  0
  9 23  2  0  0  0  0
 10 24  1  0  0  0  0
 11 12  2  0  0  0  0
 11 25  1  0  0  0  0
 12 26  1  0  0  0  0
 13 22  1  0  0  0  0
 13 24  2  0  0  0  0
 14 26  2  0  0  0  0
 14 27  1  0  0  0  0
 15 29  2  0  0  0  0
 15 67  1  0  0  0  0
 16 65  2  0  0  0  0
 16 67  1  0  0  0  0
 17 28  1  0  0  0  0
 18 28  1  0  0  0  0
 18 30  2  0  0  0  0
 18 31  1  0  0  0  0
 19 21  2  0  0  0  0
 19 36  1  0  0  0  0
 20 22  2  0  0  0  0
 20 37  1  0  0  0  0
 21 45  1  0  0  0  0
 22 38  1  0  0  0  0
 23 81  1  0  0  0  0
 24 82  1  0  0  0  0
 25 27  2  0  0  0  0
 25 81  1  0  0  0  0
 26 83  1  0  0  0  0
 27 84  1  0  0  0  0
 28 66  2  0  0  0  0
 29 63  1  0  0  0  0
 29 65  1  0  0  0  0
 30 68  1  0  0  0  0
 30 71  1  0  0  0  0
 31 72  1  0  0  0  0
 31 76  2  0  0  0  0
 32 46  1  0  0  0  0
 32 73  1  0  0  0  0
 32 77  2  0  0  0  0
 33 56  1  0  0  0  0
 33 70  1  0  0  0  0
 33 78  2  0  0  0  0
 34 60  1  0  0  0  0
 34 69  1  0  0  0  0
 34 79  2  0  0  0  0
 35 61  1  0  0  0  0
 35 74  1  0  0  0  0
 35 80  2  0  0  0  0
 36 39  1  0  0  0  0
 37 46  1  0  0  0  0
 38 69  1  0  0  0  0
 39 41  1  0  0  0  0
 40 42  1  0  0  0  0
 40 43  1  0  0  0  0
 41 45  1  0  0  0  0
 42 47  1  0  0  0  0
 43 70  1  0  0  0  0
 44 47  1  0  0  0  0
 44 70  1  0  0  0  0
 45 73  1  0  0  0  0
 46 69  1  0  0  0  0
 47 68  1  0  0  0  0
 48 61  1  0  0  0  0
 49 62  1  0  0  0  0
 50 63  1  0  0  0  0
 51 63  1  0  0  0  0
 52 64  1  0  0  0  0
 53 64  1  0  0  0  0
 54 64  1  0  0  0  0
 55 75  1  0  0  0  0
 56 57  1  0  0  0  0
 57 63  1  0  0  0  0
 58 59  1  0  0  0  0
 58 62  1  0  0  0  0
 59 82  1  0  0  0  0
 60 64  1  0  0  0  0
 60 74  1  0  0  0  0
 61 75  1  0  0  0  0
 62 67  1  0  0  0  0
 66 68  1  0  0  0  0
M  CHG  1  75   1
M  ISO  4  33 100  56 100  59 101  82 101
M  END
> <Batch ID>
0077

> <Smiles>
CNC(C)C(=O)NC(C(=O)N1Cc2cc([101O:1][101CH2:1]CC(C)n3cnc(C(C)(C)C[100CH2:0][100C:0](=O)N4CCCC(n5nc(-c6ccc(Oc7ccc(F)cc7F)cc6)c(C(N)=O)c5N)C4)c3)ccc2CC1C(=O)NC1CCCc2ccccc21)C(C)(C)C

> <Shape>
0.217

> <Color>
0.068

> <Negative vol penalty>
0.000

$$$$

  -OEChem-04052318373D

 85 93  0     1  0  0  0  0  0999 V2000
  -17.8413  -24.9397   22.2741 C   0  0  0  0  0  0  0  0  0  0  0  0
  -19.1941  -24.6383   22.1536 C   0  0  0  0  0  0  0  0  0  0  0  0
  -22.9144  -15.4214   22.6965 C   0  0  0  0  0  0  0  0  0  0  0  0
  -22.3808  -15.5838   20.3458 C   0  0  0  0  0  0  0  0  0  0  0  0
  -17.4417  -26.2445   22.5603 C   0  0  0  0  0  0  0  0  0  0  0  0
  -20.1481  -25.6418   22.3182 C   0  0  0  0  0  0  0  0  0  0  0  0
  -24.0366  -24.1702   25.2094 C   0  0  0  0  0  0  0  0  0  0  0  0
  -21.8569  -16.2802   22.9959 C   0  0  0  0  0  0  0  0  0  0  0  0
  -21.3233  -16.4426   20.6452 C   0  0  0  0  0  0  0  0  0  0  0  0
  -25.0022  -23.3599   24.6136 C   0  0  0  0  0  0  0  0  0  0  0  0
  -20.9084  -19.7063   21.4244 C   0  0  0  0  0  0  0  0  0  0  0  0
  -20.7610  -20.8506   20.6405 C   0  0  0  0  0  0  0  0  0  0  0  0
  -26.4276  -25.2839   24.3211 C   0  0  0  0  0  0  0  0  0  0  0  0
  -18.5601  -20.1102   19.9736 C   0  0  0  0  0  0  0  0  0  0  0  0
  -28.6865  -18.0971   18.3888 C   0  0  0  0  0  0  0  0  0  0  0  0
  -23.1764  -15.0732   21.3714 C   0  0  0  0  0  0  0  0  0  0  0  0
  -24.2256  -12.7821   20.9741 C   0  0  0  0  0  0  0  0  0  0  0  0
  -18.3918  -27.2625   22.7380 C   0  0  0  0  0  0  0  0  0  0  0  0
  -24.2552  -25.5476   25.3559 C   0  0  0  0  0  0  0  0  0  0  0  0
  -19.7609  -26.9617   22.6057 C   0  0  0  0  0  0  0  0  0  0  0  0
  -25.4643  -26.1091   24.9214 C   0  0  0  0  0  0  0  0  0  0  0  0
  -21.0613  -16.7908   21.9703 C   0  0  0  0  0  0  0  0  0  0  0  0
  -26.1967  -23.9172   24.1668 C   0  0  0  0  0  0  0  0  0  0  0  0
  -19.8816  -18.7639   21.4828 C   0  0  0  0  0  0  0  0  0  0  0  0
  -19.5869  -21.0526   19.9151 C   0  0  0  0  0  0  0  0  0  0  0  0
  -18.7075  -18.9659   20.7574 C   0  0  0  0  0  0  0  0  0  0  0  0
  -24.2690  -14.1865   21.0615 C   0  0  0  0  0  0  0  0  0  0  0  0
  -27.7494  -18.9278   18.9684 C   0  0  0  0  0  0  0  0  0  0  0  0
  -28.1794  -17.0726   17.6157 C   0  0  0  0  0  0  0  0  0  0  0  0
  -25.5112  -12.4179   20.6563 C   0  0  0  0  0  0  0  0  0  0  0  0
  -26.0484  -17.7435   18.0352 C   0  0  0  0  0  0  0  0  0  0  0  0
  -23.1218  -11.8868   21.1633 C   0  0  0  0  0  0  0  0  0  0  0  0
  -22.8289  -28.1730   24.2710 C   0  0  0  0  0  0  0  0  0  0  0  0
  -24.9352  -29.6604   26.2391 C   0  0  0  0  0  0  0  0  0  0  0  0
  -29.9742  -15.3991   17.9533 C   0  0  0  0  0  0  0  0  0  0  0  0
  -27.9152  -29.5619   27.8995 C   0  0  0  0  0  0  0  0  0  0  0  0
  -17.9100  -28.6676   22.9994 C   0  0  0  0  0  0  0  0  0  0  0  0
  -23.2148  -26.4035   26.0249 C   0  0  0  0  0  0  0  0  0  0  0  0
  -25.7562  -27.5788   25.0737 C   0  0  0  0  0  0  0  0  0  0  0  0
  -18.9993  -29.5963   23.5295 C   0  0  0  0  0  0  0  0  0  0  0  0
  -30.0464  -13.8264   21.1722 C   0  0  0  0  0  0  0  0  0  0  0  0
  -20.2757  -29.4457   22.7080 C   0  0  0  0  0  0  0  0  0  0  0  0
  -28.5687  -13.6387   21.5133 C   0  0  0  0  0  0  0  0  0  0  0  0
  -30.2797  -15.1155   20.3906 C   0  0  0  0  0  0  0  0  0  0  0  0
  -27.9770  -15.0440   19.4884 C   0  0  0  0  0  0  0  0  0  0  0  0
  -20.8269  -28.0179   22.8018 C   0  0  1  0  0  0  0  0  0  0  0  0
  -23.3290  -27.8797   25.6572 C   0  0  1  0  0  0  0  0  0  0  0  0
  -27.6932  -13.7380   20.2515 C   0  0  2  0  0  0  0  0  0  0  0  0
  -24.1142  -18.0352   16.4667 C   0  0  0  0  0  0  0  0  0  0  0  0
  -29.3827  -30.9415   29.3963 C   0  0  0  0  0  0  0  0  0  0  0  0
  -30.0711  -16.8748   15.9802 C   0  0  0  0  0  0  0  0  0  0  0  0
  -28.4570  -14.9757   16.1282 C   0  0  0  0  0  0  0  0  0  0  0  0
  -25.7962  -31.3407   23.8422 C   0  0  0  0  0  0  0  0  0  0  0  0
  -27.8468  -31.9909   25.1230 C   0  0  0  0  0  0  0  0  0  0  0  0
  -25.5902  -32.6109   25.9866 C   0  0  0  0  0  0  0  0  0  0  0  0
  -27.7556  -27.5717   30.0841 C   0  0  0  0  0  0  0  0  0  0  0  0
  -28.2073  -20.0770   19.8308 C   0  0  0  0  0  0  0  0  0  0  0  0
  -24.5834  -17.5487   17.8354 C   0  0  0  0  0  0  0  0  0  0  0  0
  -27.2190  -20.4498   20.9414 C   0  0  0  0  0  0  0  0  0  0  0  0
  -27.6643  -21.6651   21.7559 C   0  0  0  0  0  0  0  0  0  0  0  0
  -26.6791  -21.9807   22.8732 C   0  0  0  0  0  0  0  0  0  1  0  0
  -26.3382  -30.1982   26.0932 C   0  0  1  0  0  0  0  0  0  0  0  0
  -28.2801  -29.8959   29.3347 C   0  0  2  0  0  0  0  0  0  0  0  0
  -29.1164  -16.1236   16.9466 C   0  0  0  0  0  0  0  0  0  0  0  0
  -26.3869  -31.5078   25.2565 C   0  0  0  0  0  0  0  0  0  0  0  0
  -25.4859  -14.6808   20.8189 N   0  0  0  0  0  0  0  0  0  0  0  0
  -26.4175  -18.7796   18.8122 N   0  0  0  0  0  0  0  0  0  0  0  0
  -26.8611  -16.8655   17.4168 N   0  0  0  0  0  0  0  0  0  0  0  0
  -26.2190  -13.5810   20.5760 N   0  0  0  0  0  0  0  0  0  0  0  0
  -24.7051  -28.3751   25.7284 N   0  0  0  0  0  0  0  0  0  0  0  0
  -29.4137  -15.1820   19.2121 N   0  0  0  0  0  0  0  0  0  0  0  0
  -26.0939  -11.2195   20.4405 N   0  0  0  0  0  0  0  0  0  0  0  0
  -21.8699  -12.4284   21.4856 N   0  0  0  0  0  0  0  0  0  0  0  0
  -21.5089  -27.8212   24.0630 N   0  0  0  0  0  0  0  0  0  0  0  0
  -26.8662  -30.3338   27.4464 N   0  0  0  0  0  0  0  0  0  0  0  0
  -28.7504  -28.6744   30.0472 N   0  3  0  0  0  0  0  0  0  0  0  0
  -23.2457  -10.6423   21.0660 O   0  0  0  0  0  0  0  0  0  0  0  0
  -23.5843  -28.6821   23.4513 O   0  0  0  0  0  0  0  0  0  0  0  0
  -24.0768  -30.3523   26.7924 O   0  0  0  0  0  0  0  0  0  0  0  0
  -31.1072  -15.0351   17.6276 O   0  0  0  0  0  0  0  0  0  0  0  0
  -28.5043  -28.7049   27.2446 O   0  0  0  0  0  0  0  0  0  0  0  0
  -20.0292  -17.6287   22.2621 O   0  0  0  0  0  0  0  0  0  0  0  0
  -27.1405  -23.1287   23.5843 O   0  0  0  0  0  0  0  0  0  1  0  0
  -19.4448  -22.1523   19.1637 F   0  0  0  0  0  0  0  0  0  0  0  0
  -17.7171  -18.0647   20.8105 F   0  0  0  0  0  0  0  0  0  0  0  0
  1  2  1  0  0  0  0
  1  5  2  0  0  0  0
  2  6  2  0  0  0  0
  3  8  2  0  0  0  0
  3 16  1  0  0  0  0
  4  9  1  0  0  0  0
  4 16  2  0  0  0  0
  5 18  1  0  0  0  0
  6 20  1  0  0  0  0
  7 10  2  0  0  0  0
  7 19  1  0  0  0  0
  8 22  1  0  0  0  0
  9 22  2  0  0  0  0
 10 23  1  0  0  0  0
 11 12  2  0  0  0  0
 11 24  1  0  0  0  0
 12 25  1  0  0  0  0
 13 21  1  0  0  0  0
 13 23  2  0  0  0  0
 14 25  2  0  0  0  0
 14 26  1  0  0  0  0
 15 28  1  0  0  0  0
 15 29  2  0  0  0  0
 16 27  1  0  0  0  0
 17 27  1  0  0  0  0
 17 30  2  0  0  0  0
 17 32  1  0  0  0  0
 18 20  2  0  0  0  0
 18 37  1  0  0  0  0
 19 21  2  0  0  0  0
 19 38  1  0  0  0  0
 20 46  1  0  0  0  0
 21 39  1  0  0  0  0
 22 82  1  0  0  0  0
 23 83  1  0  0  0  0
 24 26  2  0  0  0  0
 24 82  1  0  0  0  0
 25 84  1  0  0  0  0
 26 85  1  0  0  0  0
 27 66  2  0  0  0  0
 28 57  1  0  0  0  0
 28 67  2  0  0  0  0
 29 64  1  0  0  0  0
 29 68  1  0  0  0  0
 30 69  1  0  0  0  0
 30 72  1  0  0  0  0
 31 58  1  0  0  0  0
 31 67  1  0  0  0  0
 31 68  2  0  0  0  0
 32 73  1  0  0  0  0
 32 77  2  0  0  0  0
 33 47  1  0  0  0  0
 33 74  1  0  0  0  0
 33 78  2  0  0  0  0
 34 62  1  0  0  0  0
 34 70  1  0  0  0  0
 34 79  2  0  0  0  0
 35 64  1  0  0  0  0
 35 71  1  0  0  0  0
 35 80  2  0  0  0  0
 36 63  1  0  0  0  0
 36 75  1  0  0  0  0
 36 81  2  0  0  0  0
 37 40  1  0  0  0  0
 38 47  1  0  0  0  0
 39 70  1  0  0  0  0
 40 42  1  0  0  0  0
 41 43  1  0  0  0  0
 41 44  1  0  0  0  0
 42 46  1  0  0  0  0
 43 48  1  0  0  0  0
 44 71  1  0  0  0  0
 45 48  1  0  0  0  0
 45 71  1  0  0  0  0
 46 74  1  0  0  0  0
 47 70  1  0  0  0  0
 48 69  1  0  0  0  0
 49 58  1  0  0  0  0
 50 63  1  0  0  0  0
 51 64  1  0  0  0  0
 52 64  1  0  0  0  0
 53 65  1  0  0  0  0
 54 65  1  0  0  0  0
 55 65  1  0  0  0  0
 56 76  1  0  0  0  0
 57 59  1  0  0  0  0
 59 60  1  0  0  0  0
 60 61  1  0  0  0  0
 61 83  1  0  0  0  0
 62 65  1  0  0  0  0
 62 75  1  0  0  0  0
 63 76  1  0  0  0  0
 66 69  1  0  0  0  0
M  CHG  1  76   1
M  ISO  4  35 100  61 101  64 100  83 101
M  END
> <Batch ID>
0077

> <Smiles>
CCc1nc(CCC[101CH2:1][101O:1]c2ccc3c(c2)CN(C(=O)C(NC(=O)C(C)NC)C(C)(C)C)C(C(=O)NC2CCCc4ccccc42)C3)cc([100C:0](C)(C)[100C:0](=O)N2CCCC(n3nc(-c4ccc(Oc5ccc(F)cc5F)cc4)c(C(N)=O)c3N)C2)n1

> <Shape>
0.206

> <Color>
0.092

> <Negative vol penalty>
0.000

$$$$

  -OEChem-04052318373D

 82 90  0     1  0  0  0  0  0999 V2000
  -19.9834  -29.9749   25.1027 C   0  0  0  0  0  0  0  0  0  0  0  0
  -21.2721  -29.5826   24.7553 C   0  0  0  0  0  0  0  0  0  0  0  0
  -23.5831  -18.4469   20.3371 C   0  0  0  0  0  0  0  0  0  0  0  0
  -25.3279  -17.6165   21.7874 C   0  0  0  0  0  0  0  0  0  0  0  0
  -18.8839  -29.3615   24.5039 C   0  0  0  0  0  0  0  0  0  0  0  0
  -21.4620  -28.5757   23.8095 C   0  0  0  0  0  0  0  0  0  0  0  0
  -25.0604  -29.7302   20.4386 C   0  0  0  0  0  0  0  0  0  0  0  0
  -23.0220  -17.1711   20.2818 C   0  0  0  0  0  0  0  0  0  0  0  0
  -24.7667  -16.3407   21.7321 C   0  0  0  0  0  0  0  0  0  0  0  0
  -26.3855  -29.5862   20.8473 C   0  0  0  0  0  0  0  0  0  0  0  0
  -24.7027  -13.7386   19.5744 C   0  0  0  0  0  0  0  0  0  0  0  0
  -25.5639  -12.6600   19.3736 C   0  0  0  0  0  0  0  0  0  0  0  0
  -33.9332  -26.2003   22.0050 C   0  0  0  0  0  0  0  0  0  0  0  0
  -32.9768  -26.6524   22.9474 C   0  0  0  0  0  0  0  0  0  0  0  0
  -26.5044  -27.4698   19.6959 C   0  0  0  0  0  0  0  0  0  0  0  0
  -24.8624  -11.7077   21.4803 C   0  0  0  0  0  0  0  0  0  0  0  0
  -24.7362  -18.6696   21.0899 C   0  0  0  0  0  0  0  0  0  0  0  0
  -25.0278  -21.0038   22.0769 C   0  0  0  0  0  0  0  0  0  0  0  0
  -19.0605  -28.3532   23.5432 C   0  0  0  0  0  0  0  0  0  0  0  0
  -24.4429  -28.7382   19.6632 C   0  0  0  0  0  0  0  0  0  0  0  0
  -20.3638  -27.9472   23.1983 C   0  0  0  0  0  0  0  0  0  0  0  0
  -25.1722  -27.6047   19.2764 C   0  0  0  0  0  0  0  0  0  0  0  0
  -23.6137  -16.1180   20.9793 C   0  0  0  0  0  0  0  0  0  0  0  0
  -27.1069  -28.4546   20.4784 C   0  0  0  0  0  0  0  0  0  0  0  0
  -23.9214  -13.8019   20.7282 C   0  0  0  0  0  0  0  0  0  0  0  0
  -25.6438  -11.6445   20.3265 C   0  0  0  0  0  0  0  0  0  0  0  0
  -24.0012  -12.7864   21.6811 C   0  0  0  0  0  0  0  0  0  0  0  0
  -25.3167  -19.9871   21.1470 C   0  0  0  0  0  0  0  0  0  0  0  0
  -33.4035  -25.0928   21.3804 C   0  0  0  0  0  0  0  0  0  0  0  0
  -31.8918  -25.8073   22.8700 C   0  0  0  0  0  0  0  0  0  0  0  0
  -25.8364  -22.0497   21.7044 C   0  0  0  0  0  0  0  0  0  0  0  0
  -24.1107  -21.0028   23.1790 C   0  0  0  0  0  0  0  0  0  0  0  0
  -21.9524  -26.8042   20.0641 C   0  0  0  0  0  0  0  0  0  0  0  0
  -30.8508  -23.9289   20.0875 C   0  0  0  0  0  0  0  0  0  0  0  0
  -22.5601  -26.0197   16.9758 C   0  0  0  0  0  0  0  0  0  0  0  0
  -24.8149  -25.8488   14.4198 C   0  0  0  0  0  0  0  0  0  0  0  0
  -17.8408  -27.6865   22.9580 C   0  0  0  0  0  0  0  0  0  0  0  0
  -23.0210  -28.9211   19.2080 C   0  0  0  0  0  0  0  0  0  0  0  0
  -24.5617  -26.5205   18.4278 C   0  0  0  0  0  0  0  0  0  0  0  0
  -18.1326  -26.8879   21.6901 C   0  0  0  0  0  0  0  0  0  0  0  0
  -28.6138  -22.7562   17.5457 C   0  0  0  0  0  0  0  0  0  0  0  0
  -19.3708  -26.0177   21.8804 C   0  0  0  0  0  0  0  0  0  0  0  0
  -27.5498  -21.9894   18.3298 C   0  0  0  0  0  0  0  0  0  0  0  0
  -29.9921  -22.6072   18.1822 C   0  0  0  0  0  0  0  0  0  0  0  0
  -28.9788  -22.2365   20.4087 C   0  0  0  0  0  0  0  0  0  0  0  0
  -20.6109  -26.8758   22.1584 C   0  0  1  0  0  0  0  0  0  0  0  0
  -22.3338  -27.6064   18.8522 C   0  0  1  0  0  0  0  0  0  0  0  0
  -27.5661  -22.3857   19.8168 C   0  0  2  0  0  0  0  0  0  0  0  0
  -33.9782  -24.2381   20.3211 C   0  0  0  0  0  0  0  0  0  0  0  0
  -31.8884  -22.4093   21.7576 C   0  0  0  0  0  0  0  0  0  0  0  0
  -25.0278  -25.1276   12.0257 C   0  0  0  0  0  0  0  0  0  0  0  0
  -22.6464  -23.1021   17.8649 C   0  0  0  0  0  0  0  0  0  0  0  0
  -23.7748  -22.5483   15.6997 C   0  0  0  0  0  0  0  0  0  0  0  0
  -21.4677  -23.4969   15.6948 C   0  0  0  0  0  0  0  0  0  0  0  0
  -25.5039  -28.5876   13.5348 C   0  0  0  0  0  0  0  0  0  0  0  0
  -30.5972  -25.8241   23.6431 C   0  0  0  0  0  0  0  0  0  0  0  0
  -29.4925  -26.6563   22.9827 C   0  0  0  0  0  0  0  0  0  0  0  0
  -29.9032  -28.1088   22.7365 C   0  0  0  0  0  0  0  0  0  0  0  0
  -28.7685  -28.9132   22.1168 C   0  0  0  0  0  0  0  0  0  1  0  0
  -31.2735  -23.7876   21.5281 C   0  0  1  0  0  0  0  0  0  0  0  0
  -23.4208  -24.9905   16.2837 C   0  0  1  0  0  0  0  0  0  0  0  0
  -24.7263  -26.2827   12.9678 C   0  0  2  0  0  0  0  0  0  0  0  0
  -22.8386  -23.5538   16.4034 C   0  0  0  0  0  0  0  0  0  0  0  0
  -26.2368  -20.3541   20.2510 N   0  0  0  0  0  0  0  0  0  0  0  0
  -32.1625  -24.8630   21.9144 N   0  0  0  0  0  0  0  0  0  0  0  0
  -26.5330  -21.6131   20.6161 N   0  0  0  0  0  0  0  0  0  0  0  0
  -23.1665  -26.7423   18.0130 N   0  0  0  0  0  0  0  0  0  0  0  0
  -29.9608  -22.9718   19.5997 N   0  0  0  0  0  0  0  0  0  0  0  0
  -26.0123  -23.2911   22.2047 N   0  0  0  0  0  0  0  0  0  0  0  0
  -23.3580  -19.8455   23.4207 N   0  0  0  0  0  0  0  0  0  0  0  0
  -21.1034  -27.4647   20.9316 N   0  0  0  0  0  0  0  0  0  0  0  0
  -23.5881  -25.4550   14.9109 N   0  0  0  0  0  0  0  0  0  0  0  0
  -25.6989  -27.3783   12.6943 N   0  3  0  0  0  0  0  0  0  0  0  0
  -23.9511  -22.0043   23.9172 O   0  0  0  0  0  0  0  0  0  0  0  0
  -22.3944  -25.6695   20.2013 O   0  0  0  0  0  0  0  0  0  0  0  0
  -31.2970  -24.8643   19.4182 O   0  0  0  0  0  0  0  0  0  0  0  0
  -21.3948  -26.1816   16.6050 O   0  0  0  0  0  0  0  0  0  0  0  0
  -25.8678  -25.8549   15.0538 O   0  0  0  0  0  0  0  0  0  0  0  0
  -23.0663  -14.8731   20.9258 O   0  0  0  0  0  0  0  0  0  0  0  0
  -28.4003  -28.3112   20.8765 O   0  0  0  0  0  0  0  0  0  1  0  0
  -26.4697  -10.6079   20.1328 F   0  0  0  0  0  0  0  0  0  0  0  0
  -23.2522  -12.8411   22.7910 F   0  0  0  0  0  0  0  0  0  0  0  0
  1  2  1  0  0  0  0
  1  5  2  0  0  0  0
  2  6  2  0  0  0  0
  3  8  2  0  0  0  0
  3 17  1  0  0  0  0
  4  9  1  0  0  0  0
  4 17  2  0  0  0  0
  5 19  1  0  0  0  0
  6 21  1  0  0  0  0
  7 10  2  0  0  0  0
  7 20  1  0  0  0  0
  8 23  1  0  0  0  0
  9 23  2  0  0  0  0
 10 24  1  0  0  0  0
 11 12  2  0  0  0  0
 11 25  1  0  0  0  0
 12 26  1  0  0  0  0
 13 14  1  0  0  0  0
 13 29  2  0  0  0  0
 14 30  2  0  0  0  0
 15 22  1  0  0  0  0
 15 24  2  0  0  0  0
 16 26  2  0  0  0  0
 16 27  1  0  0  0  0
 17 28  1  0  0  0  0
 18 28  1  0  0  0  0
 18 31  2  0  0  0  0
 18 32  1  0  0  0  0
 19 21  2  0  0  0  0
 19 37  1  0  0  0  0
 20 22  2  0  0  0  0
 20 38  1  0  0  0  0
 21 46  1  0  0  0  0
 22 39  1  0  0  0  0
 23 79  1  0  0  0  0
 24 80  1  0  0  0  0
 25 27  2  0  0  0  0
 25 79  1  0  0  0  0
 26 81  1  0  0  0  0
 27 82  1  0  0  0  0
 28 64  2  0  0  0  0
 29 49  1  0  0  0  0
 29 65  1  0  0  0  0
 30 56  1  0  0  0  0
 30 65  1  0  0  0  0
 31 66  1  0  0  0  0
 31 69  1  0  0  0  0
 32 70  1  0  0  0  0
 32 74  2  0  0  0  0
 33 47  1  0  0  0  0
 33 71  1  0  0  0  0
 33 75  2  0  0  0  0
 34 60  1  0  0  0  0
 34 68  1  0  0  0  0
 34 76  2  0  0  0  0
 35 61  1  0  0  0  0
 35 67  1  0  0  0  0
 35 77  2  0  0  0  0
 36 62  1  0  0  0  0
 36 72  1  0  0  0  0
 36 78  2  0  0  0  0
 37 40  1  0  0  0  0
 38 47  1  0  0  0  0
 39 67  1  0  0  0  0
 40 42  1  0  0  0  0
 41 43  1  0  0  0  0
 41 44  1  0  0  0  0
 42 46  1  0  0  0  0
 43 48  1  0  0  0  0
 44 68  1  0  0  0  0
 45 48  1  0  0  0  0
 45 68  1  0  0  0  0
 46 71  1  0  0  0  0
 47 67  1  0  0  0  0
 48 66  1  0  0  0  0
 50 60  1  0  0  0  0
 51 62  1  0  0  0  0
 52 63  1  0  0  0  0
 53 63  1  0  0  0  0
 54 63  1  0  0  0  0
 55 73  1  0  0  0  0
 56 57  1  0  0  0  0
 57 58  1  0  0  0  0
 58 59  1  0  0  0  0
 59 80  1  0  0  0  0
 60 65  1  0  0  0  0
 61 63  1  0  0  0  0
 61 72  1  0  0  0  0
 62 73  1  0  0  0  0
 64 66  1  0  0  0  0
M  CHG  1  73   1
M  ISO  4  34 100  59 101  60 100  80 101
M  END
> <Batch ID>
0077

> <Smiles>
CNC(C)C(=O)NC(C(=O)N1Cc2cc([101O:1][101CH2:1]CCCc3ccc(C)n3[100CH:0](C)[100C:0](=O)N3CCCC(n4nc(-c5ccc(Oc6ccc(F)cc6F)cc5)c(C(N)=O)c4N)C3)ccc2CC1C(=O)NC1CCCc2ccccc21)C(C)(C)C

> <Shape>
0.186

> <Color>
0.075

> <Negative vol penalty>
0.000

$$$$

  -OEChem-04052318373D

 84 92  0     1  0  0  0  0  0999 V2000
  -30.5309  -23.7188   14.3199 C   0  0  0  0  0  0  0  0  0  0  0  0
  -29.9924  -23.3215   15.5396 C   0  0  0  0  0  0  0  0  0  0  0  0
  -23.7973   -8.9878   20.0493 C   0  0  0  0  0  0  0  0  0  0  0  0
  -23.2898   -9.6079   22.3286 C   0  0  0  0  0  0  0  0  0  0  0  0
  -30.9300  -25.0415   14.1332 C   0  0  0  0  0  0  0  0  0  0  0  0
  -29.8538  -24.2466   16.5737 C   0  0  0  0  0  0  0  0  0  0  0  0
  -25.3537  -23.9289   18.8745 C   0  0  0  0  0  0  0  0  0  0  0  0
  -23.8229   -7.6436   20.4207 C   0  0  0  0  0  0  0  0  0  0  0  0
  -23.3154   -8.2636   22.7000 C   0  0  0  0  0  0  0  0  0  0  0  0
  -25.1780  -22.8912   19.7889 C   0  0  0  0  0  0  0  0  0  0  0  0
  -22.8910   -4.9685   24.1766 C   0  0  0  0  0  0  0  0  0  0  0  0
  -21.8670   -4.5032   25.0014 C   0  0  0  0  0  0  0  0  0  0  0  0
  -25.5822  -24.4293   21.6028 C   0  0  0  0  0  0  0  0  0  0  0  0
  -28.7900  -21.8751   22.1758 C   0  0  0  0  0  0  0  0  0  0  0  0
  -20.2383   -5.1185   23.3263 C   0  0  0  0  0  0  0  0  0  0  0  0
  -23.5308   -9.9700   21.0033 C   0  0  0  0  0  0  0  0  0  0  0  0
  -22.3925  -12.0964   20.1723 C   0  0  0  0  0  0  0  0  0  0  0  0
  -30.7873  -25.9855   15.1623 C   0  0  0  0  0  0  0  0  0  0  0  0
  -25.6563  -25.2245   19.3176 C   0  0  0  0  0  0  0  0  0  0  0  0
  -30.2527  -25.5829   16.4010 C   0  0  0  0  0  0  0  0  0  0  0  0
  -25.7588  -25.4822   20.6921 C   0  0  0  0  0  0  0  0  0  0  0  0
  -29.9499  -21.9177   21.4103 C   0  0  0  0  0  0  0  0  0  0  0  0
  -28.3748  -20.6703   22.7321 C   0  0  0  0  0  0  0  0  0  0  0  0
  -23.5820   -7.2814   21.7460 C   0  0  0  0  0  0  0  0  0  0  0  0
  -25.2951  -23.1407   21.1532 C   0  0  0  0  0  0  0  0  0  0  0  0
  -22.5888   -5.5089   22.9267 C   0  0  0  0  0  0  0  0  0  0  0  0
  -20.5406   -4.5781   24.5763 C   0  0  0  0  0  0  0  0  0  0  0  0
  -21.2624   -5.5839   22.5016 C   0  0  0  0  0  0  0  0  0  0  0  0
  -23.5047  -11.3588   20.6204 C   0  0  0  0  0  0  0  0  0  0  0  0
  -30.6532  -20.7373   21.2322 C   0  0  0  0  0  0  0  0  0  0  0  0
  -29.1485  -19.5457   22.4947 C   0  0  0  0  0  0  0  0  0  0  0  0
  -22.8870  -13.3566   19.9405 C   0  0  0  0  0  0  0  0  0  0  0  0
  -21.0338  -11.6796   19.9827 C   0  0  0  0  0  0  0  0  0  0  0  0
  -28.1016  -27.2164   18.9224 C   0  0  0  0  0  0  0  0  0  0  0  0
  -26.1735  -29.2804   20.5176 C   0  0  0  0  0  0  0  0  0  0  0  0
  -23.5748  -29.7324   22.6831 C   0  0  0  0  0  0  0  0  0  0  0  0
  -27.4892  -16.2591   22.2318 C   0  0  0  0  0  0  0  0  0  0  0  0
  -31.2768  -27.3930   14.9293 C   0  0  0  0  0  0  0  0  0  0  0  0
  -25.8165  -26.3384   18.3197 C   0  0  0  0  0  0  0  0  0  0  0  0
  -26.0621  -26.8597   21.2202 C   0  0  0  0  0  0  0  0  0  0  0  0
  -30.7496  -28.3980   15.9503 C   0  0  0  0  0  0  0  0  0  0  0  0
  -26.9153  -15.6316   18.7141 C   0  0  0  0  0  0  0  0  0  0  0  0
  -30.8877  -27.8442   17.3649 C   0  0  0  0  0  0  0  0  0  0  0  0
  -25.8603  -14.5253   18.7707 C   0  0  0  0  0  0  0  0  0  0  0  0
  -27.9435  -15.4726   19.8302 C   0  0  0  0  0  0  0  0  0  0  0  0
  -26.3066  -14.3101   21.2595 C   0  0  0  0  0  0  0  0  0  0  0  0
  -30.0634  -26.5628   17.5386 C   0  0  1  0  0  0  0  0  0  0  0  0
  -26.6297  -27.5112   18.8588 C   0  0  1  0  0  0  0  0  0  0  0  0
  -25.2250  -14.4279   20.1703 C   0  0  2  0  0  0  0  0  0  0  0  0
  -30.4002  -23.2053   20.8117 C   0  0  0  0  0  0  0  0  0  0  0  0
  -31.9058  -20.7220   20.4186 C   0  0  0  0  0  0  0  0  0  0  0  0
  -29.8115  -17.6443   24.0135 C   0  0  0  0  0  0  0  0  0  0  0  0
  -22.2529  -31.5339   23.8253 C   0  0  0  0  0  0  0  0  0  0  0  0
  -28.4805  -29.7374   22.4615 C   0  0  0  0  0  0  0  0  0  0  0  0
  -26.8424  -30.7561   24.0573 C   0  0  0  0  0  0  0  0  0  0  0  0
  -27.2257  -31.8056   21.8270 C   0  0  0  0  0  0  0  0  0  0  0  0
  -21.0577  -28.8670   21.3891 C   0  0  0  0  0  0  0  0  0  0  0  0
  -27.1177  -20.6171   23.5631 C   0  0  0  0  0  0  0  0  0  0  0  0
  -25.9208  -20.0062   22.8311 C   0  0  0  0  0  0  0  0  0  0  0  0
  -25.4778  -20.8155   21.6178 C   0  0  0  0  0  0  0  0  0  1  0  0
  -28.7508  -18.2251   23.0686 C   0  0  2  0  0  0  0  0  0  0  0  0
  -25.9484  -29.6284   21.9693 C   0  0  1  0  0  0  0  0  0  0  0  0
  -22.3471  -30.6224   22.6116 C   0  0  2  0  0  0  0  0  0  0  0  0
  -27.1204  -30.4554   22.5690 C   0  0  0  0  0  0  0  0  0  0  0  0
  -24.6216  -12.0896   20.6708 N   0  0  0  0  0  0  0  0  0  0  0  0
  -30.2811  -19.5481   21.7566 N   0  0  0  0  0  0  0  0  0  0  0  0
  -24.2137  -13.2994   20.2514 N   0  0  0  0  0  0  0  0  0  0  0  0
  -26.2164  -27.9144   20.2046 N   0  0  0  0  0  0  0  0  0  0  0  0
  -27.2750  -15.4049   21.1374 N   0  0  0  0  0  0  0  0  0  0  0  0
  -22.3120  -14.4970   19.5030 N   0  0  0  0  0  0  0  0  0  0  0  0
  -20.6968  -10.3496   20.2687 N   0  0  0  0  0  0  0  0  0  0  0  0
  -28.6616  -26.8822   17.7042 N   0  0  0  0  0  0  0  0  0  0  0  0
  -24.6525  -30.2954   22.0329 N   0  0  0  0  0  0  0  0  0  0  0  0
  -28.4272  -17.2655   22.0364 N   0  0  0  0  0  0  0  0  0  0  0  0
  -21.1098  -29.7942   22.5486 N   0  3  0  0  0  0  0  0  0  0  0  0
  -20.1484  -12.4591   19.5562 O   0  0  0  0  0  0  0  0  0  0  0  0
  -28.6864  -27.2884   19.9970 O   0  0  0  0  0  0  0  0  0  0  0  0
  -26.2992  -30.1871   19.6908 O   0  0  0  0  0  0  0  0  0  0  0  0
  -23.5784  -28.6479   23.2614 O   0  0  0  0  0  0  0  0  0  0  0  0
  -26.8851  -16.1373   23.3030 O   0  0  0  0  0  0  0  0  0  0  0  0
  -23.6067   -5.9698   22.1087 O   0  0  0  0  0  0  0  0  0  0  0  0
  -25.1247  -22.1296   22.0478 O   0  0  0  0  0  0  0  0  0  1  0  0
  -19.5574   -4.1298   25.3677 F   0  0  0  0  0  0  0  0  0  0  0  0
  -20.9659   -6.1010   21.3013 F   0  0  0  0  0  0  0  0  0  0  0  0
  1  2  1  0  0  0  0
  1  5  2  0  0  0  0
  2  6  2  0  0  0  0
  3  8  2  0  0  0  0
  3 16  1  0  0  0  0
  4  9  1  0  0  0  0
  4 16  2  0  0  0  0
  5 18  1  0  0  0  0
  6 20  1  0  0  0  0
  7 10  2  0  0  0  0
  7 19  1  0  0  0  0
  8 24  1  0  0  0  0
  9 24  2  0  0  0  0
 10 25  1  0  0  0  0
 11 12  2  0  0  0  0
 11 26  1  0  0  0  0
 12 27  1  0  0  0  0
 13 21  1  0  0  0  0
 13 25  2  0  0  0  0
 14 22  2  0  0  0  0
 14 23  1  0  0  0  0
 15 27  2  0  0  0  0
 15 28  1  0  0  0  0
 16 29  1  0  0  0  0
 17 29  1  0  0  0  0
 17 32  2  0  0  0  0
 17 33  1  0  0  0  0
 18 20  2  0  0  0  0
 18 38  1  0  0  0  0
 19 21  2  0  0  0  0
 19 39  1  0  0  0  0
 20 47  1  0  0  0  0
 21 40  1  0  0  0  0
 22 30  1  0  0  0  0
 22 50  1  0  0  0  0
 23 31  2  0  0  0  0
 23 58  1  0  0  0  0
 24 81  1  0  0  0  0
 25 82  1  0  0  0  0
 26 28  2  0  0  0  0
 26 81  1  0  0  0  0
 27 83  1  0  0  0  0
 28 84  1  0  0  0  0
 29 65  2  0  0  0  0
 30 51  1  0  0  0  0
 30 66  2  0  0  0  0
 31 61  1  0  0  0  0
 31 66  1  0  0  0  0
 32 67  1  0  0  0  0
 32 70  1  0  0  0  0
 33 71  1  0  0  0  0
 33 76  2  0  0  0  0
 34 48  1  0  0  0  0
 34 72  1  0  0  0  0
 34 77  2  0  0  0  0
 35 62  1  0  0  0  0
 35 68  1  0  0  0  0
 35 78  2  0  0  0  0
 36 63  1  0  0  0  0
 36 73  1  0  0  0  0
 36 79  2  0  0  0  0
 37 69  1  0  0  0  0
 37 74  1  0  0  0  0
 37 80  2  0  0  0  0
 38 41  1  0  0  0  0
 39 48  1  0  0  0  0
 40 68  1  0  0  0  0
 41 43  1  0  0  0  0
 42 44  1  0  0  0  0
 42 45  1  0  0  0  0
 43 47  1  0  0  0  0
 44 49  1  0  0  0  0
 45 69  1  0  0  0  0
 46 49  1  0  0  0  0
 46 69  1  0  0  0  0
 47 72  1  0  0  0  0
 48 68  1  0  0  0  0
 49 67  1  0  0  0  0
 52 61  1  0  0  0  0
 53 63  1  0  0  0  0
 54 64  1  0  0  0  0
 55 64  1  0  0  0  0
 56 64  1  0  0  0  0
 57 75  1  0  0  0  0
 58 59  1  0  0  0  0
 59 60  1  0  0  0  0
 60 82  1  0  0  0  0
 61 74  1  0  0  0  0
 62 64  1  0  0  0  0
 62 73  1  0  0  0  0
 63 75  1  0  0  0  0
 65 67  1  0  0  0  0
M  CHG  1  75   1
M  ISO  4  37 100  60 101  74 100  82 101
M  END
> <Batch ID>
0077

> <Smiles>
CNC(C)C(=O)NC(C(=O)N1Cc2cc([101O:1][101CH2:1]CCc3cc(C)c(C)nc3C(C)[100NH:0][100C:0](=O)N3CCCC(n4nc(-c5ccc(Oc6ccc(F)cc6F)cc5)c(C(N)=O)c4N)C3)ccc2CC1C(=O)NC1CCCc2ccccc21)C(C)(C)C

> <Shape>
0.233

> <Color>
0.087

> <Negative vol penalty>
0.000

$$$$

  -OEChem-04052318373D

 88 96  0     1  0  0  0  0  0999 V2000
  -19.4583   -9.1432   22.0662 C   0  0  0  0  0  0  0  0  0  0  0  0
  -19.8777  -10.2785   22.7521 C   0  0  0  0  0  0  0  0  0  0  0  0
  -22.3268  -28.2189   20.9554 C   0  0  0  0  0  0  0  0  0  0  0  0
  -23.5664  -27.6006   22.9348 C   0  0  0  0  0  0  0  0  0  0  0  0
  -20.3770   -8.3952   21.3309 C   0  0  0  0  0  0  0  0  0  0  0  0
  -21.2163  -10.6660   22.7041 C   0  0  0  0  0  0  0  0  0  0  0  0
  -23.3948  -16.3896   22.7139 C   0  0  0  0  0  0  0  0  0  0  0  0
  -21.1295  -28.0134   21.6409 C   0  0  0  0  0  0  0  0  0  0  0  0
  -22.3691  -27.3951   23.6204 C   0  0  0  0  0  0  0  0  0  0  0  0
  -23.9139  -17.1939   23.7275 C   0  0  0  0  0  0  0  0  0  0  0  0
  -19.2327  -29.6739   23.8942 C   0  0  0  0  0  0  0  0  0  0  0  0
  -18.2334  -30.6373   23.7568 C   0  0  0  0  0  0  0  0  0  0  0  0
  -26.1477  -16.5386   23.0951 C   0  0  0  0  0  0  0  0  0  0  0  0
  -16.7482  -28.9662   22.8410 C   0  0  0  0  0  0  0  0  0  0  0  0
  -27.8431  -22.9032   22.0220 C   0  0  0  0  0  0  0  0  0  0  0  0
  -23.5452  -28.0124   21.6023 C   0  0  0  0  0  0  0  0  0  0  0  0
  -25.5181  -29.4210   20.8078 C   0  0  0  0  0  0  0  0  0  0  0  0
  -21.7257   -8.7792   21.2660 C   0  0  0  0  0  0  0  0  0  0  0  0
  -24.2491  -15.6440   21.8889 C   0  0  0  0  0  0  0  0  0  0  0  0
  -22.1542   -9.9217   21.9685 C   0  0  0  0  0  0  0  0  0  0  0  0
  -25.6370  -15.7276   22.0701 C   0  0  0  0  0  0  0  0  0  0  0  0
  -21.1507  -27.6015   22.9734 C   0  0  0  0  0  0  0  0  0  0  0  0
  -25.2904  -17.2663   23.9201 C   0  0  0  0  0  0  0  0  0  0  0  0
  -18.9898  -28.3566   23.5049 C   0  0  0  0  0  0  0  0  0  0  0  0
  -16.9912  -30.2835   23.2302 C   0  0  0  0  0  0  0  0  0  0  0  0
  -17.7475  -28.0028   22.9784 C   0  0  0  0  0  0  0  0  0  0  0  0
  -24.7823  -28.2240   20.8945 C   0  0  0  0  0  0  0  0  0  0  0  0
  -28.8495  -22.8304   21.1008 C   0  0  0  0  0  0  0  0  0  0  0  0
  -26.6035  -29.1012   20.0293 C   0  0  0  0  0  0  0  0  0  0  0  0
  -28.2559  -20.7642   21.6289 C   0  0  0  0  0  0  0  0  0  0  0  0
  -25.2450  -30.7070   21.3800 C   0  0  0  0  0  0  0  0  0  0  0  0
  -24.6701  -12.5468   21.3113 C   0  0  0  0  0  0  0  0  0  0  0  0
  -29.3497  -23.8709   18.9274 C   0  0  0  0  0  0  0  0  0  0  0  0
  -26.7199  -13.6456   19.0500 C   0  0  0  0  0  0  0  0  0  0  0  0
  -28.7478  -16.1628   17.9554 C   0  0  0  0  0  0  0  0  0  0  0  0
  -22.6910   -7.9124   20.4970 C   0  0  0  0  0  0  0  0  0  0  0  0
  -23.6747  -14.8020   20.7829 C   0  0  0  0  0  0  0  0  0  0  0  0
  -26.5981  -14.9628   21.1985 C   0  0  0  0  0  0  0  0  0  0  0  0
  -24.0183   -8.6018   20.1916 C   0  0  0  0  0  0  0  0  0  0  0  0
  -27.9730  -26.1513   16.5306 C   0  0  0  0  0  0  0  0  0  0  0  0
  -24.5572   -9.2982   21.4371 C   0  0  0  0  0  0  0  0  0  0  0  0
  -27.0439  -27.0318   17.3653 C   0  0  0  0  0  0  0  0  0  0  0  0
  -27.9895  -24.7144   17.0425 C   0  0  0  0  0  0  0  0  0  0  0  0
  -27.4110  -25.4687   19.3268 C   0  0  0  0  0  0  0  0  0  0  0  0
  -23.5930  -10.3882   21.9205 C   0  0  1  0  0  0  0  0  0  0  0  0
  -24.6124  -13.6858   20.3331 C   0  0  1  0  0  0  0  0  0  0  0  0
  -27.3885  -26.9357   18.8622 C   0  0  2  0  0  0  0  0  0  0  0  0
  -29.5455  -18.6571   22.0572 C   0  0  0  0  0  0  0  0  0  0  0  0
  -30.3233  -16.7548   16.0940 C   0  0  0  0  0  0  0  0  0  0  0  0
  -33.1500  -23.9463   22.1381 C   0  0  0  0  0  0  0  0  0  0  0  0
  -31.1345  -25.3242   22.6814 C   0  0  0  0  0  0  0  0  0  0  0  0
  -28.8484  -11.8382   20.2799 C   0  0  0  0  0  0  0  0  0  0  0  0
  -30.5808  -13.1478   19.0342 C   0  0  0  0  0  0  0  0  0  0  0  0
  -28.8353  -11.8824   17.7795 C   0  0  0  0  0  0  0  0  0  0  0  0
  -26.7854  -19.8617   26.9703 C   0  0  0  0  0  0  0  0  0  0  0  0
  -25.1343  -21.5526   26.1621 C   0  0  0  0  0  0  0  0  0  0  0  0
  -27.0887  -18.4701   17.1291 C   0  0  0  0  0  0  0  0  0  0  0  0
  -28.2060  -19.2813   21.6636 C   0  0  0  0  0  0  0  0  0  0  0  0
  -27.0198  -20.7546   24.6462 C   0  0  0  0  0  0  0  0  0  0  0  0
  -31.1583  -23.8308   20.6095 C   0  0  0  0  0  0  0  0  0  0  0  0
  -26.4182  -21.2118   23.3107 C   0  0  0  0  0  0  0  0  0  0  0  0
  -25.0545  -19.2142   25.2640 C   0  0  0  0  0  0  0  0  0  1  0  0
  -29.6097  -23.8771   20.4128 C   0  0  2  0  0  0  0  0  0  0  0  0
  -28.1892  -13.9908   19.0160 C   0  0  1  0  0  0  0  0  0  0  0  0
  -28.8894  -16.8232   16.5959 C   0  0  2  0  0  0  0  0  0  0  0  0
  -31.6213  -24.0094   22.0708 C   0  0  0  0  0  0  0  0  0  0  0  0
  -29.0955  -12.7278   19.0452 C   0  0  0  0  0  0  0  0  0  0  0  0
  -25.9910  -20.3463   25.7381 C   0  0  0  0  0  0  0  0  0  0  0  0
  -25.3520  -27.2188   20.2244 N   0  0  0  0  0  0  0  0  0  0  0  0
  -27.4948  -21.6103   22.3305 N   0  0  0  0  0  0  0  0  0  0  0  0
  -26.4573  -27.7835   19.7092 N   0  0  0  0  0  0  0  0  0  0  0  0
  -29.0846  -21.4953   20.8765 N   0  3  0  0  0  0  0  0  0  0  0  0
  -25.9875  -14.1485   20.1347 N   0  0  0  0  0  0  0  0  0  0  0  0
  -28.2985  -24.6673   18.4727 N   0  0  0  0  0  0  0  0  0  0  0  0
  -27.6591  -29.8215   19.5941 N   0  0  0  0  0  0  0  0  0  0  0  0
  -24.0863  -30.8618   22.1531 N   0  0  0  0  0  0  0  0  0  0  0  0
  -23.7146  -11.5720   21.0968 N   0  0  0  0  0  0  0  0  0  0  0  0
  -28.3824  -14.8379   17.8440 N   0  0  0  0  0  0  0  0  0  0  0  0
  -28.4857  -18.2558   16.6714 N   0  3  0  0  0  0  0  0  0  0  0  0
  -25.9974  -31.6938   21.1971 O   0  0  0  0  0  0  0  0  0  0  0  0
  -25.5198  -12.5513   22.1944 O   0  0  0  0  0  0  0  0  0  0  0  0
  -30.0626  -23.1805   18.1943 O   0  0  0  0  0  0  0  0  0  0  0  0
  -26.2383  -12.9613   18.1437 O   0  0  0  0  0  0  0  0  0  0  0  0
  -28.9456  -16.7613   19.0105 O   0  0  0  0  0  0  0  0  0  0  0  0
  -19.9826  -27.4011   23.6427 O   0  0  0  0  0  0  0  0  0  0  0  0
  -25.7997  -18.0501   24.9091 O   0  0  0  0  0  0  0  0  0  1  0  0
  -16.0312  -31.2085   23.0998 F   0  0  0  0  0  0  0  0  0  0  0  0
  -17.5078  -26.7387   22.6038 F   0  0  0  0  0  0  0  0  0  0  0  0
  1  2  1  0  0  0  0
  1  5  2  0  0  0  0
  2  6  2  0  0  0  0
  3  8  2  0  0  0  0
  3 16  1  0  0  0  0
  4  9  1  0  0  0  0
  4 16  2  0  0  0  0
  5 18  1  0  0  0  0
  6 20  1  0  0  0  0
  7 10  2  0  0  0  0
  7 19  1  0  0  0  0
  8 22  1  0  0  0  0
  9 22  2  0  0  0  0
 10 23  1  0  0  0  0
 11 12  2  0  0  0  0
 11 24  1  0  0  0  0
 12 25  1  0  0  0  0
 13 21  1  0  0  0  0
 13 23  2  0  0  0  0
 14 25  2  0  0  0  0
 14 26  1  0  0  0  0
 15 28  2  0  0  0  0
 15 70  1  0  0  0  0
 16 27  1  0  0  0  0
 17 27  1  0  0  0  0
 17 29  2  0  0  0  0
 17 31  1  0  0  0  0
 18 20  2  0  0  0  0
 18 36  1  0  0  0  0
 19 21  2  0  0  0  0
 19 37  1  0  0  0  0
 20 45  1  0  0  0  0
 21 38  1  0  0  0  0
 22 85  1  0  0  0  0
 23 86  1  0  0  0  0
 24 26  2  0  0  0  0
 24 85  1  0  0  0  0
 25 87  1  0  0  0  0
 26 88  1  0  0  0  0
 27 69  2  0  0  0  0
 28 63  1  0  0  0  0
 28 72  1  0  0  0  0
 29 71  1  0  0  0  0
 29 75  1  0  0  0  0
 30 58  1  0  0  0  0
 30 70  1  0  0  0  0
 30 72  2  0  0  0  0
 31 76  1  0  0  0  0
 31 80  2  0  0  0  0
 32 46  1  0  0  0  0
 32 77  1  0  0  0  0
 32 81  2  0  0  0  0
 33 63  1  0  0  0  0
 33 74  1  0  0  0  0
 33 82  2  0  0  0  0
 34 64  1  0  0  0  0
 34 73  1  0  0  0  0
 34 83  2  0  0  0  0
 35 65  1  0  0  0  0
 35 78  1  0  0  0  0
 35 84  2  0  0  0  0
 36 39  1  0  0  0  0
 37 46  1  0  0  0  0
 38 73  1  0  0  0  0
 39 41  1  0  0  0  0
 40 42  1  0  0  0  0
 40 43  1  0  0  0  0
 41 45  1  0  0  0  0
 42 47  1  0  0  0  0
 43 74  1  0  0  0  0
 44 47  1  0  0  0  0
 44 74  1  0  0  0  0
 45 77  1  0  0  0  0
 46 73  1  0  0  0  0
 47 71  1  0  0  0  0
 48 58  1  0  0  0  0
 49 65  1  0  0  0  0
 50 66  1  0  0  0  0
 51 66  1  0  0  0  0
 52 67  1  0  0  0  0
 53 67  1  0  0  0  0
 54 67  1  0  0  0  0
 55 68  1  0  0  0  0
 56 68  1  0  0  0  0
 57 79  1  0  0  0  0
 59 61  1  0  0  0  0
 59 68  1  0  0  0  0
 60 63  1  0  0  0  0
 60 66  1  0  0  0  0
 61 70  1  0  0  0  0
 62 68  1  0  0  0  0
 62 86  1  0  0  0  0
 64 67  1  0  0  0  0
 64 78  1  0  0  0  0
 65 79  1  0  0  0  0
 69 71  1  0  0  0  0
M  CHG  2  72   1  79   1
M  ISO  4  33 100  62 101  63 100  86 101
M  END
> <Batch ID>
0077

> <Smiles>
CCc1nc([100CH:0](CC(C)C)[100C:0](=O)N2CCCC(n3nc(-c4ccc(Oc5ccc(F)cc5F)cc4)c(C(N)=O)c3N)C2)cn1CCC(C)(C)[101CH2:1][101O:1]c1ccc2c(c1)CN(C(=O)C(NC(=O)C(C)NC)C(C)(C)C)C(C(=O)NC1CCCc3ccccc31)C2

> <Shape>
0.294

> <Color>
0.056

> <Negative vol penalty>
0.000

$$$$

  -OEChem-04052318373D

 83 91  0     1  0  0  0  0  0999 V2000
  -26.0470  -34.9925   25.0155 C   0  0  0  0  0  0  0  0  0  0  0  0
  -26.6146  -33.8302   24.5032 C   0  0  0  0  0  0  0  0  0  0  0  0
  -25.7536  -12.5831   21.9038 C   0  0  0  0  0  0  0  0  0  0  0  0
  -25.2510  -13.5584   19.7514 C   0  0  0  0  0  0  0  0  0  0  0  0
  -24.7174  -34.9912   25.4352 C   0  0  0  0  0  0  0  0  0  0  0  0
  -25.8532  -32.6657   24.4113 C   0  0  0  0  0  0  0  0  0  0  0  0
  -26.4441  -30.3034   19.9711 C   0  0  0  0  0  0  0  0  0  0  0  0
  -25.3388  -11.3364   21.4358 C   0  0  0  0  0  0  0  0  0  0  0  0
  -24.8363  -12.3116   19.2833 C   0  0  0  0  0  0  0  0  0  0  0  0
  -27.6045  -29.5496   19.8004 C   0  0  0  0  0  0  0  0  0  0  0  0
  -24.0732   -7.9669   20.9175 C   0  0  0  0  0  0  0  0  0  0  0  0
  -23.2492   -7.2034   21.7443 C   0  0  0  0  0  0  0  0  0  0  0  0
  -26.3624  -27.5391   20.2845 C   0  0  0  0  0  0  0  0  0  0  0  0
  -21.5920   -8.9612   21.7158 C   0  0  0  0  0  0  0  0  0  0  0  0
  -30.5066  -22.9934   19.7395 C   0  0  0  0  0  0  0  0  0  0  0  0
  -25.7097  -13.6942   21.0616 C   0  0  0  0  0  0  0  0  0  0  0  0
  -27.4356  -15.5239   21.4867 C   0  0  0  0  0  0  0  0  0  0  0  0
  -23.9365  -33.8286   25.3395 C   0  0  0  0  0  0  0  0  0  0  0  0
  -25.2345  -29.6808   20.3111 C   0  0  0  0  0  0  0  0  0  0  0  0
  -24.5123  -32.6485   24.8314 C   0  0  0  0  0  0  0  0  0  0  0  0
  -25.1875  -28.2870   20.4564 C   0  0  0  0  0  0  0  0  0  0  0  0
  -24.8802  -11.2006   20.1255 C   0  0  0  0  0  0  0  0  0  0  0  0
  -27.5644  -28.1676   19.9599 C   0  0  0  0  0  0  0  0  0  0  0  0
  -23.6567   -9.2276   20.4899 C   0  0  0  0  0  0  0  0  0  0  0  0
  -22.0086   -7.7005   22.1434 C   0  0  0  0  0  0  0  0  0  0  0  0
  -22.4161   -9.7247   20.8890 C   0  0  0  0  0  0  0  0  0  0  0  0
  -26.1375  -14.9825   21.5447 C   0  0  0  0  0  0  0  0  0  0  0  0
  -29.8711  -21.8108   19.4856 C   0  0  0  0  0  0  0  0  0  0  0  0
  -27.3185  -16.7603   22.0733 C   0  0  0  0  0  0  0  0  0  0  0  0
  -29.2026  -22.5338   21.4683 C   0  0  0  0  0  0  0  0  0  0  0  0
  -28.6397  -14.9598   20.9504 C   0  0  0  0  0  0  0  0  0  0  0  0
  -23.2432  -29.8473   22.7831 C   0  0  0  0  0  0  0  0  0  0  0  0
  -21.4130  -27.9038   20.9404 C   0  0  0  0  0  0  0  0  0  0  0  0
  -21.2517  -25.6175   18.4118 C   0  0  0  0  0  0  0  0  0  0  0  0
  -24.5990  -21.5858   22.7549 C   0  0  0  0  0  0  0  0  0  0  0  0
  -22.5177  -33.8631   25.8498 C   0  0  0  0  0  0  0  0  0  0  0  0
  -23.9859  -30.5053   20.4655 C   0  0  0  0  0  0  0  0  0  0  0  0
  -23.9097  -27.5682   20.8011 C   0  0  0  0  0  0  0  0  0  0  0  0
  -21.6693  -32.6878   25.3707 C   0  0  0  0  0  0  0  0  0  0  0  0
  -23.5142  -18.8098   24.7027 C   0  0  0  0  0  0  0  0  0  0  0  0
  -22.4312  -31.3768   25.5369 C   0  0  0  0  0  0  0  0  0  0  0  0
  -24.2018  -17.6114   24.0463 C   0  0  0  0  0  0  0  0  0  0  0  0
  -23.0866  -19.8504   23.6701 C   0  0  0  0  0  0  0  0  0  0  0  0
  -24.8498  -19.1111   22.1150 C   0  0  0  0  0  0  0  0  0  0  0  0
  -23.7114  -31.3719   24.6928 C   0  0  1  0  0  0  0  0  0  0  0  0
  -22.9198  -29.8215   21.3160 C   0  0  1  0  0  0  0  0  0  0  0  0
  -25.3492  -18.0605   23.1216 C   0  0  2  0  0  0  0  0  0  0  0  0
  -29.9360  -20.9042   18.3365 C   0  0  0  0  0  0  0  0  0  0  0  0
  -19.6221  -24.1793   17.1574 C   0  0  0  0  0  0  0  0  0  0  0  0
  -21.2881  -25.9840   23.3087 C   0  0  0  0  0  0  0  0  0  0  0  0
  -20.4956  -24.2050   21.7354 C   0  0  0  0  0  0  0  0  0  0  0  0
  -19.1292  -26.2638   22.0776 C   0  0  0  0  0  0  0  0  0  0  0  0
  -21.8746  -26.9499   15.8435 C   0  0  0  0  0  0  0  0  0  0  0  0
  -28.4986  -22.6103   22.7726 C   0  0  0  0  0  0  0  0  0  0  0  0
  -27.2762  -23.5542   22.7917 C   0  0  0  0  0  0  0  0  0  0  0  0
  -30.2784  -25.9500   20.8251 C   0  0  0  0  0  0  0  0  0  0  0  0
  -30.5160  -24.6874   21.6564 C   0  0  0  0  0  0  0  0  0  0  0  0
  -26.1995  -23.2047   21.7666 C   0  0  0  0  0  0  0  0  0  0  0  0
  -28.8040  -26.2275   20.5559 C   0  0  0  0  0  0  0  0  0  1  0  0
  -21.2834  -26.4103   20.7623 C   0  0  1  0  0  0  0  0  0  0  0  0
  -20.3423  -25.5180   17.2003 C   0  0  2  0  0  0  0  0  0  0  0  0
  -20.5737  -25.7292   21.9664 C   0  0  0  0  0  0  0  0  0  0  0  0
  -25.2601  -15.8073   22.1227 N   0  0  0  0  0  0  0  0  0  0  0  0
  -30.0739  -23.4184   20.9725 N   0  0  0  0  0  0  0  0  0  0  0  0
  -26.0084  -16.8795   22.4334 N   0  0  0  0  0  0  0  0  0  0  0  0
  -29.0710  -21.5506   20.5720 N   0  3  0  0  0  0  0  0  0  0  0  0
  -22.7170  -28.4188   20.9480 N   0  0  0  0  0  0  0  0  0  0  0  0
  -24.2208  -20.2349   22.8265 N   0  0  0  0  0  0  0  0  0  0  0  0
  -28.2094  -17.7463   22.3113 N   0  0  0  0  0  0  0  0  0  0  0  0
  -28.5830  -13.6790   20.3842 N   0  0  0  0  0  0  0  0  0  0  0  0
  -23.3993  -31.1182   23.3026 N   0  0  0  0  0  0  0  0  0  0  0  0
  -20.6138  -26.2085   19.4819 N   0  0  0  0  0  0  0  0  0  0  0  0
  -25.6880  -21.8631   21.9376 N   0  0  0  0  0  0  0  0  0  0  0  0
  -21.1328  -25.6668   15.9457 N   0  3  0  0  0  0  0  0  0  0  0  0
  -29.7370  -15.5666   20.9875 O   0  0  0  0  0  0  0  0  0  0  0  0
  -23.3422  -28.7922   23.3985 O   0  0  0  0  0  0  0  0  0  0  0  0
  -20.3944  -28.5890   21.0610 O   0  0  0  0  0  0  0  0  0  0  0  0
  -22.4106  -25.2084   18.4102 O   0  0  0  0  0  0  0  0  0  0  0  0
  -24.0131  -22.4779   23.3776 O   0  0  0  0  0  0  0  0  0  0  0  0
  -24.4756   -9.9841   19.6684 O   0  0  0  0  0  0  0  0  0  0  0  0
  -28.6956  -27.4295   19.7945 O   0  0  0  0  0  0  0  0  0  1  0  0
  -21.2167   -6.9666   22.9362 F   0  0  0  0  0  0  0  0  0  0  0  0
  -22.0099  -10.9347   20.4805 F   0  0  0  0  0  0  0  0  0  0  0  0
  1  2  1  0  0  0  0
  1  5  2  0  0  0  0
  2  6  2  0  0  0  0
  3  8  2  0  0  0  0
  3 16  1  0  0  0  0
  4  9  1  0  0  0  0
  4 16  2  0  0  0  0
  5 18  1  0  0  0  0
  6 20  1  0  0  0  0
  7 10  2  0  0  0  0
  7 19  1  0  0  0  0
  8 22  1  0  0  0  0
  9 22  2  0  0  0  0
 10 23  1  0  0  0  0
 11 12  2  0  0  0  0
 11 24  1  0  0  0  0
 12 25  1  0  0  0  0
 13 21  1  0  0  0  0
 13 23  2  0  0  0  0
 14 25  2  0  0  0  0
 14 26  1  0  0  0  0
 15 28  2  0  0  0  0
 15 64  1  0  0  0  0
 16 27  1  0  0  0  0
 17 27  1  0  0  0  0
 17 29  2  0  0  0  0
 17 31  1  0  0  0  0
 18 20  2  0  0  0  0
 18 36  1  0  0  0  0
 19 21  2  0  0  0  0
 19 37  1  0  0  0  0
 20 45  1  0  0  0  0
 21 38  1  0  0  0  0
 22 80  1  0  0  0  0
 23 81  1  0  0  0  0
 24 26  2  0  0  0  0
 24 80  1  0  0  0  0
 25 82  1  0  0  0  0
 26 83  1  0  0  0  0
 27 63  2  0  0  0  0
 28 48  1  0  0  0  0
 28 66  1  0  0  0  0
 29 65  1  0  0  0  0
 29 69  1  0  0  0  0
 30 54  1  0  0  0  0
 30 64  1  0  0  0  0
 30 66  2  0  0  0  0
 31 70  1  0  0  0  0
 31 75  2  0  0  0  0
 32 46  1  0  0  0  0
 32 71  1  0  0  0  0
 32 76  2  0  0  0  0
 33 60  1  0  0  0  0
 33 67  1  0  0  0  0
 33 77  2  0  0  0  0
 34 61  1  0  0  0  0
 34 72  1  0  0  0  0
 34 78  2  0  0  0  0
 35 68  1  0  0  0  0
 35 73  1  0  0  0  0
 35 79  2  0  0  0  0
 36 39  1  0  0  0  0
 37 46  1  0  0  0  0
 38 67  1  0  0  0  0
 39 41  1  0  0  0  0
 40 42  1  0  0  0  0
 40 43  1  0  0  0  0
 41 45  1  0  0  0  0
 42 47  1  0  0  0  0
 43 68  1  0  0  0  0
 44 47  1  0  0  0  0
 44 68  1  0  0  0  0
 45 71  1  0  0  0  0
 46 67  1  0  0  0  0
 47 65  1  0  0  0  0
 49 61  1  0  0  0  0
 50 62  1  0  0  0  0
 51 62  1  0  0  0  0
 52 62  1  0  0  0  0
 53 74  1  0  0  0  0
 54 55  1  0  0  0  0
 55 58  1  0  0  0  0
 56 57  1  0  0  0  0
 56 59  1  0  0  0  0
 57 64  1  0  0  0  0
 58 73  1  0  0  0  0
 59 81  1  0  0  0  0
 60 62  1  0  0  0  0
 60 72  1  0  0  0  0
 61 74  1  0  0  0  0
 63 65  1  0  0  0  0
M  CHG  2  66   1  74   1
M  ISO  4  35 100  59 101  73 100  81 101
M  END
> <Batch ID>
0077

> <Smiles>
CNC(C)C(=O)NC(C(=O)N1Cc2cc([101O:1][101CH2:1]CCn3cc(C)nc3CCC[100NH:0][100C:0](=O)N3CCCC(n4nc(-c5ccc(Oc6ccc(F)cc6F)cc5)c(C(N)=O)c4N)C3)ccc2CC1C(=O)NC1CCCc2ccccc21)C(C)(C)C

> <Shape>
0.262

> <Color>
0.072

> <Negative vol penalty>
0.000

$$$$

  -OEChem-04052318373D

 88 96  0     1  0  0  0  0  0999 V2000
  -32.8773  -14.7412   21.3696 C   0  0  0  0  0  0  0  0  0  0  0  0
  -32.0682  -15.7548   21.8730 C   0  0  0  0  0  0  0  0  0  0  0  0
  -25.2347  -30.8034   21.1712 C   0  0  0  0  0  0  0  0  0  0  0  0
  -24.6266  -28.9631   22.6136 C   0  0  0  0  0  0  0  0  0  0  0  0
  -32.3602  -13.8302   20.4495 C   0  0  0  0  0  0  0  0  0  0  0  0
  -30.7418  -15.8587   21.4557 C   0  0  0  0  0  0  0  0  0  0  0  0
  -25.9592  -17.6930   24.8125 C   0  0  0  0  0  0  0  0  0  0  0  0
  -24.5379  -31.6830   21.9996 C   0  0  0  0  0  0  0  0  0  0  0  0
  -23.9298  -29.8428   23.4421 C   0  0  0  0  0  0  0  0  0  0  0  0
  -25.3003  -18.9173   24.9160 C   0  0  0  0  0  0  0  0  0  0  0  0
  -23.2216  -34.4672   23.9311 C   0  0  0  0  0  0  0  0  0  0  0  0
  -23.8406  -35.6719   24.2645 C   0  0  0  0  0  0  0  0  0  0  0  0
  -23.6577  -18.1614   23.3193 C   0  0  0  0  0  0  0  0  0  0  0  0
  -25.8684  -23.5741   21.8587 C   0  0  0  0  0  0  0  0  0  0  0  0
  -25.3144  -21.4122   20.9623 C   0  0  0  0  0  0  0  0  0  0  0  0
  -25.6590  -34.4542   25.2881 C   0  0  0  0  0  0  0  0  0  0  0  0
  -25.2790  -29.4434   21.4781 C   0  0  0  0  0  0  0  0  0  0  0  0
  -27.3528  -28.1645   20.7222 C   0  0  0  0  0  0  0  0  0  0  0  0
  -31.0240  -13.9171   20.0281 C   0  0  0  0  0  0  0  0  0  0  0  0
  -25.4776  -16.6960   23.9520 C   0  0  0  0  0  0  0  0  0  0  0  0
  -30.2067  -14.9488   20.5281 C   0  0  0  0  0  0  0  0  0  0  0  0
  -24.3109  -16.9243   23.2086 C   0  0  0  0  0  0  0  0  0  0  0  0
  -24.9636  -22.5285   21.7134 C   0  0  0  0  0  0  0  0  0  0  0  0
  -23.8855  -31.2027   23.1351 C   0  0  0  0  0  0  0  0  0  0  0  0
  -24.1510  -19.1527   24.1672 C   0  0  0  0  0  0  0  0  0  0  0  0
  -23.8212  -33.2560   24.2763 C   0  0  0  0  0  0  0  0  0  0  0  0
  -25.0593  -35.6654   24.9430 C   0  0  0  0  0  0  0  0  0  0  0  0
  -25.0399  -33.2495   24.9548 C   0  0  0  0  0  0  0  0  0  0  0  0
  -25.9981  -28.5341   20.6224 C   0  0  0  0  0  0  0  0  0  0  0  0
  -27.1014  -23.4558   21.2378 C   0  0  0  0  0  0  0  0  0  0  0  0
  -26.5721  -21.3908   20.3813 C   0  0  0  0  0  0  0  0  0  0  0  0
  -27.5463  -27.2859   19.6844 C   0  0  0  0  0  0  0  0  0  0  0  0
  -28.3473  -28.5782   21.6685 C   0  0  0  0  0  0  0  0  0  0  0  0
  -26.6233  -15.1943   21.3955 C   0  0  0  0  0  0  0  0  0  0  0  0
  -23.9177  -13.4312   21.7014 C   0  0  0  0  0  0  0  0  0  0  0  0
  -20.7149  -13.2169   22.8602 C   0  0  0  0  0  0  0  0  0  0  0  0
  -25.8773  -22.9314   16.6188 C   0  0  0  0  0  0  0  0  0  0  0  0
  -30.5232  -12.9380   18.9959 C   0  0  0  0  0  0  0  0  0  0  0  0
  -26.1848  -15.3709   23.8719 C   0  0  0  0  0  0  0  0  0  0  0  0
  -23.7415  -15.8793   22.2855 C   0  0  0  0  0  0  0  0  0  0  0  0
  -29.0011  -12.8907   18.8892 C   0  0  0  0  0  0  0  0  0  0  0  0
  -24.5823  -26.1324   15.7511 C   0  0  0  0  0  0  0  0  0  0  0  0
  -28.4255  -14.3024   18.8383 C   0  0  0  0  0  0  0  0  0  0  0  0
  -24.9413  -27.0099   16.9516 C   0  0  0  0  0  0  0  0  0  0  0  0
  -24.2139  -24.7136   16.1793 C   0  0  0  0  0  0  0  0  0  0  0  0
  -25.5798  -24.9169   18.2205 C   0  0  0  0  0  0  0  0  0  0  0  0
  -28.7557  -15.0793   20.1185 C   0  0  1  0  0  0  0  0  0  0  0  0
  -25.8966  -14.6172   22.5772 C   0  0  1  0  0  0  0  0  0  0  0  0
  -26.0125  -26.3416   17.8342 C   0  0  2  0  0  0  0  0  0  0  0  0
  -28.0983  -24.5579   21.3733 C   0  0  0  0  0  0  0  0  0  0  0  0
  -22.7863  -23.7706   21.7955 C   0  0  0  0  0  0  0  0  0  0  0  0
  -18.7430  -11.6661   22.9247 C   0  0  0  0  0  0  0  0  0  0  0  0
  -28.7772  -21.5415   16.2698 C   0  0  0  0  0  0  0  0  0  0  0  0
  -25.8143  -19.4625   18.8336 C   0  0  0  0  0  0  0  0  0  0  0  0
  -27.6097  -19.1208   20.5030 C   0  0  0  0  0  0  0  0  0  0  0  0
  -23.3113  -14.0848   18.7833 C   0  0  0  0  0  0  0  0  0  0  0  0
  -20.9525  -13.3454   19.1805 C   0  0  0  0  0  0  0  0  0  0  0  0
  -22.8280  -11.7221   19.4454 C   0  0  0  0  0  0  0  0  0  0  0  0
  -20.7468  -13.1123   25.8177 C   0  0  0  0  0  0  0  0  0  0  0  0
  -23.6737  -22.7147   23.9087 C   0  0  0  0  0  0  0  0  0  0  0  0
  -28.0836  -20.5386   18.4763 C   0  0  0  0  0  0  0  0  0  0  0  0
  -24.3023  -21.4917   24.5698 C   0  0  0  0  0  0  0  0  0  1  0  0
  -23.5977  -22.6048   22.3735 C   0  0  2  0  0  0  0  0  0  0  0  0
  -22.5069  -13.5380   21.1749 C   0  0  1  0  0  0  0  0  0  0  0  0
  -19.9982  -12.1331   23.6453 C   0  0  2  0  0  0  0  0  0  0  0  0
  -27.5950  -21.2328   17.1876 C   0  0  1  0  0  0  0  0  0  0  0  0
  -26.9812  -20.2092   19.5668 C   0  0  0  0  0  0  0  0  0  0  0  0
  -22.4112  -13.1932   19.6619 C   0  0  0  0  0  0  0  0  0  0  0  0
  -25.3751  -27.9392   19.6017 N   0  0  0  0  0  0  0  0  0  0  0  0
  -27.4779  -22.3873   20.5002 N   0  0  0  0  0  0  0  0  0  0  0  0
  -26.3427  -27.1868   19.0505 N   0  0  0  0  0  0  0  0  0  0  0  0
  -24.4724  -14.6022   22.2370 N   0  0  0  0  0  0  0  0  0  0  0  0
  -25.2717  -24.1362   17.0121 N   0  0  0  0  0  0  0  0  0  0  0  0
  -28.6269  -26.5962   19.2612 N   0  0  0  0  0  0  0  0  0  0  0  0
  -27.9792  -29.4863   22.6706 N   0  0  0  0  0  0  0  0  0  0  0  0
  -27.8853  -14.6669   21.1987 N   0  0  0  0  0  0  0  0  0  0  0  0
  -21.6856  -12.6916   22.0337 N   0  0  0  0  0  0  0  0  0  0  0  0
  -26.8750  -22.4566   17.4612 N   0  0  0  0  0  0  0  0  0  0  0  0
  -19.6064  -12.6411   24.9904 N   0  3  0  0  0  0  0  0  0  0  0  0
  -29.5315  -28.1678   21.6168 O   0  0  0  0  0  0  0  0  0  0  0  0
  -26.0788  -16.0533   20.7119 O   0  0  0  0  0  0  0  0  0  0  0  0
  -24.5033  -12.3470   21.6462 O   0  0  0  0  0  0  0  0  0  0  0  0
  -20.4386  -14.4097   22.9665 O   0  0  0  0  0  0  0  0  0  0  0  0
  -25.5565  -22.3266   15.5900 O   0  0  0  0  0  0  0  0  0  0  0  0
  -23.2057  -32.0608   23.9439 O   0  0  0  0  0  0  0  0  0  0  0  0
  -23.5063  -20.3471   24.2658 O   0  0  0  0  0  0  0  0  0  1  0  0
  -25.6544  -36.8223   25.2617 F   0  0  0  0  0  0  0  0  0  0  0  0
  -25.6213  -32.0890   25.2880 F   0  0  0  0  0  0  0  0  0  0  0  0
  1  2  1  0  0  0  0
  1  5  2  0  0  0  0
  2  6  2  0  0  0  0
  3  8  2  0  0  0  0
  3 17  1  0  0  0  0
  4  9  1  0  0  0  0
  4 17  2  0  0  0  0
  5 19  1  0  0  0  0
  6 21  1  0  0  0  0
  7 10  2  0  0  0  0
  7 20  1  0  0  0  0
  8 24  1  0  0  0  0
  9 24  2  0  0  0  0
 10 25  1  0  0  0  0
 11 12  2  0  0  0  0
 11 26  1  0  0  0  0
 12 27  1  0  0  0  0
 13 22  1  0  0  0  0
 13 25  2  0  0  0  0
 14 23  1  0  0  0  0
 14 30  2  0  0  0  0
 15 23  2  0  0  0  0
 15 31  1  0  0  0  0
 16 27  2  0  0  0  0
 16 28  1  0  0  0  0
 17 29  1  0  0  0  0
 18 29  1  0  0  0  0
 18 32  2  0  0  0  0
 18 33  1  0  0  0  0
 19 21  2  0  0  0  0
 19 38  1  0  0  0  0
 20 22  2  0  0  0  0
 20 39  1  0  0  0  0
 21 47  1  0  0  0  0
 22 40  1  0  0  0  0
 23 63  1  0  0  0  0
 24 85  1  0  0  0  0
 25 86  1  0  0  0  0
 26 28  2  0  0  0  0
 26 85  1  0  0  0  0
 27 87  1  0  0  0  0
 28 88  1  0  0  0  0
 29 69  2  0  0  0  0
 30 50  1  0  0  0  0
 30 70  1  0  0  0  0
 31 67  1  0  0  0  0
 31 70  2  0  0  0  0
 32 71  1  0  0  0  0
 32 74  1  0  0  0  0
 33 75  1  0  0  0  0
 33 80  2  0  0  0  0
 34 48  1  0  0  0  0
 34 76  1  0  0  0  0
 34 81  2  0  0  0  0
 35 64  1  0  0  0  0
 35 72  1  0  0  0  0
 35 82  2  0  0  0  0
 36 65  1  0  0  0  0
 36 77  1  0  0  0  0
 36 83  2  0  0  0  0
 37 73  1  0  0  0  0
 37 78  1  0  0  0  0
 37 84  2  0  0  0  0
 38 41  1  0  0  0  0
 39 48  1  0  0  0  0
 40 72  1  0  0  0  0
 41 43  1  0  0  0  0
 42 44  1  0  0  0  0
 42 45  1  0  0  0  0
 43 47  1  0  0  0  0
 44 49  1  0  0  0  0
 45 73  1  0  0  0  0
 46 49  1  0  0  0  0
 46 73  1  0  0  0  0
 47 76  1  0  0  0  0
 48 72  1  0  0  0  0
 49 71  1  0  0  0  0
 51 63  1  0  0  0  0
 52 65  1  0  0  0  0
 53 66  1  0  0  0  0
 54 67  1  0  0  0  0
 55 67  1  0  0  0  0
 56 68  1  0  0  0  0
 57 68  1  0  0  0  0
 58 68  1  0  0  0  0
 59 79  1  0  0  0  0
 60 62  1  0  0  0  0
 60 63  1  0  0  0  0
 61 66  1  0  0  0  0
 61 67  1  0  0  0  0
 62 86  1  0  0  0  0
 64 68  1  0  0  0  0
 64 77  1  0  0  0  0
 65 79  1  0  0  0  0
 66 78  1  0  0  0  0
 69 71  1  0  0  0  0
M  CHG  1  79   1
M  ISO  4  37 100  62 101  78 100  86 101
M  END
> <Batch ID>
0077

> <Smiles>
CNC(C)C(=O)NC(C(=O)N1Cc2cc([101O:1][101CH2:1]CC(C)c3cc(C)nc(C(C)(C)CC(C)[100NH:0][100C:0](=O)N4CCCC(n5nc(-c6ccc(Oc7ccc(F)cc7F)cc6)c(C(N)=O)c5N)C4)c3)ccc2CC1C(=O)NC1CCCc2ccccc21)C(C)(C)C

> <Shape>
0.219

> <Color>
0.066

> <Negative vol penalty>
0.000

$$$$

  -OEChem-04052318373D

 90 98  0     1  0  0  0  0  0999 V2000
  -23.3231   -2.2430   32.5397 C   0  0  0  0  0  0  0  0  0  0  0  0
  -24.0871   -3.2841   32.0221 C   0  0  0  0  0  0  0  0  0  0  0  0
  -23.1894   -9.8196   19.9321 C   0  0  0  0  0  0  0  0  0  0  0  0
  -23.5683  -10.0000   22.3114 C   0  0  0  0  0  0  0  0  0  0  0  0
  -22.0003   -2.0801   32.1304 C   0  0  0  0  0  0  0  0  0  0  0  0
  -23.5289   -4.1623   31.0938 C   0  0  0  0  0  0  0  0  0  0  0  0
  -24.6974  -10.1468   30.5228 C   0  0  0  0  0  0  0  0  0  0  0  0
  -22.4229   -8.6732   20.1410 C   0  0  0  0  0  0  0  0  0  0  0  0
  -22.8018   -8.8535   22.5203 C   0  0  0  0  0  0  0  0  0  0  0  0
  -25.5323  -10.8618   29.6652 C   0  0  0  0  0  0  0  0  0  0  0  0
  -21.2438   -5.7701   23.6497 C   0  0  0  0  0  0  0  0  0  0  0  0
  -21.7402   -4.8102   24.5315 C   0  0  0  0  0  0  0  0  0  0  0  0
  -23.6628  -11.2721   28.1969 C   0  0  0  0  0  0  0  0  0  0  0  0
  -27.8896  -15.8217   24.5106 C   0  0  0  0  0  0  0  0  0  0  0  0
  -23.6985   -4.5457   23.1414 C   0  0  0  0  0  0  0  0  0  0  0  0
  -23.7622  -10.4830   21.0173 C   0  0  0  0  0  0  0  0  0  0  0  0
  -24.1014  -12.9996   20.7734 C   0  0  0  0  0  0  0  0  0  0  0  0
  -21.4227   -2.9626   31.2039 C   0  0  0  0  0  0  0  0  0  0  0  0
  -23.3389   -9.9795   30.2178 C   0  0  0  0  0  0  0  0  0  0  0  0
  -22.1976   -4.0103   30.6707 C   0  0  0  0  0  0  0  0  0  0  0  0
  -22.8122  -10.5567   29.0536 C   0  0  0  0  0  0  0  0  0  0  0  0
  -28.4256  -14.6632   25.1251 C   0  0  0  0  0  0  0  0  0  0  0  0
  -22.2291   -8.1901   21.4351 C   0  0  0  0  0  0  0  0  0  0  0  0
  -25.0157  -11.4221   28.5006 C   0  0  0  0  0  0  0  0  0  0  0  0
  -21.9747   -6.1178   22.5136 C   0  0  0  0  0  0  0  0  0  0  0  0
  -22.9675   -4.1980   24.2775 C   0  0  0  0  0  0  0  0  0  0  0  0
  -23.2020   -5.5056   22.2595 C   0  0  0  0  0  0  0  0  0  0  0  0
  -24.5546  -11.6670   20.8020 C   0  0  0  0  0  0  0  0  0  0  0  0
  -28.9245  -16.4604   23.8639 C   0  0  0  0  0  0  0  0  0  0  0  0
  -29.7718  -14.6293   24.8353 C   0  0  0  0  0  0  0  0  0  0  0  0
  -25.2328  -13.7420   20.5378 C   0  0  0  0  0  0  0  0  0  0  0  0
  -22.7764  -13.5198   20.9445 C   0  0  0  0  0  0  0  0  0  0  0  0
  -21.4610   -7.4810   29.6391 C   0  0  0  0  0  0  0  0  0  0  0  0
  -19.1243   -9.7309   29.6412 C   0  0  0  0  0  0  0  0  0  0  0  0
  -18.2547  -13.0053   29.2301 C   0  0  0  0  0  0  0  0  0  0  0  0
  -31.0475  -12.7506   21.5657 C   0  0  0  0  0  0  0  0  0  0  0  0
  -20.0035   -2.7181   30.7559 C   0  0  0  0  0  0  0  0  0  0  0  0
  -22.4459   -9.2281   31.1667 C   0  0  0  0  0  0  0  0  0  0  0  0
  -21.3565  -10.4232   28.6909 C   0  0  0  0  0  0  0  0  0  0  0  0
  -19.3723   -3.9161   30.0512 C   0  0  0  0  0  0  0  0  0  0  0  0
  -29.5196  -13.4683   18.4309 C   0  0  0  0  0  0  0  0  0  0  0  0
  -20.3330   -4.4940   29.0168 C   0  0  0  0  0  0  0  0  0  0  0  0
  -28.0330  -13.2083   18.6805 C   0  0  0  0  0  0  0  0  0  0  0  0
  -30.4008  -12.4787   19.1899 C   0  0  0  0  0  0  0  0  0  0  0  0
  -28.6476  -12.1364   20.8878 C   0  0  0  0  0  0  0  0  0  0  0  0
  -21.6201   -4.9983   29.6805 C   0  0  1  0  0  0  0  0  0  0  0  0
  -21.1876   -8.6831   30.4981 C   0  0  1  0  0  0  0  0  0  0  0  0
  -27.7202  -13.1444   20.1876 C   0  0  2  0  0  0  0  0  0  0  0  0
  -16.2642  -14.5332   29.2572 C   0  0  0  0  0  0  0  0  0  0  0  0
  -27.4898  -18.3403   22.9958 C   0  0  0  0  0  0  0  0  0  0  0  0
  -29.3875  -17.4577   21.5972 C   0  0  0  0  0  0  0  0  0  0  0  0
  -29.8453  -18.8599   23.5985 C   0  0  0  0  0  0  0  0  0  0  0  0
  -30.3097  -12.4401   26.1061 C   0  0  0  0  0  0  0  0  0  0  0  0
  -31.9250  -14.3233   26.0874 C   0  0  0  0  0  0  0  0  0  0  0  0
  -18.2846   -8.6816   26.9019 C   0  0  0  0  0  0  0  0  0  0  0  0
  -16.9714  -10.7880   26.5749 C   0  0  0  0  0  0  0  0  0  0  0  0
  -16.3868   -9.2318   28.4348 C   0  0  0  0  0  0  0  0  0  0  0  0
  -28.5147  -14.7675   28.0827 C   0  0  0  0  0  0  0  0  0  0  0  0
  -26.1378  -15.0306   27.3833 C   0  0  0  0  0  0  0  0  0  0  0  0
  -31.3750  -16.0607   23.5527 C   0  0  0  0  0  0  0  0  0  0  0  0
  -19.3655  -14.6026   31.4603 C   0  0  0  0  0  0  0  0  0  0  0  0
  -27.6551  -13.6549   25.9452 C   0  0  0  0  0  0  0  0  0  0  0  0
  -31.5383  -13.0017   23.9854 C   0  0  0  0  0  0  0  0  0  0  0  0
  -26.9359  -12.8025   28.2484 C   0  0  0  0  0  0  0  0  0  1  0  0
  -18.4944  -10.6190   28.5955 C   0  0  1  0  0  0  0  0  0  0  0  0
  -17.3991  -13.9337   30.0729 C   0  0  2  0  0  0  0  0  0  0  0  0
  -28.9192  -17.7064   23.0700 C   0  0  0  0  0  0  0  0  0  0  0  0
  -30.8052  -13.6456   25.2232 C   0  0  0  0  0  0  0  0  0  0  0  0
  -17.5622   -9.8312   27.6324 C   0  0  0  0  0  0  0  0  0  0  0  0
  -27.3277  -14.0448   27.4168 C   0  0  0  0  0  0  0  0  0  0  0  0
  -25.8710  -11.5656   20.6006 N   0  0  0  0  0  0  0  0  0  0  0  0
  -30.0639  -15.7268   24.0684 N   0  0  0  0  0  0  0  0  0  0  0  0
  -26.2549  -12.8439   20.4430 N   0  0  0  0  0  0  0  0  0  0  0  0
  -20.5252   -9.6740   29.6475 N   0  0  0  0  0  0  0  0  0  0  0  0
  -30.0546  -12.4677   20.6132 N   0  0  0  0  0  0  0  0  0  0  0  0
  -25.4430  -15.0688   20.4045 N   0  0  0  0  0  0  0  0  0  0  0  0
  -21.7296  -12.6178   21.1788 N   0  0  0  0  0  0  0  0  0  0  0  0
  -21.3928   -6.2784   30.3163 N   0  0  0  0  0  0  0  0  0  0  0  0
  -17.8305  -11.6965   29.3213 N   0  0  0  0  0  0  0  0  0  0  0  0
  -30.6336  -12.7254   22.8918 N   0  0  0  0  0  0  0  0  0  0  0  0
  -18.2256  -15.0477   30.6178 N   0  3  0  0  0  0  0  0  0  0  0  0
  -22.5255  -14.7469   20.8749 O   0  0  0  0  0  0  0  0  0  0  0  0
  -21.7136   -7.6332   28.4497 O   0  0  0  0  0  0  0  0  0  0  0  0
  -18.4002   -9.1160   30.4282 O   0  0  0  0  0  0  0  0  0  0  0  0
  -19.2022  -13.4020   28.5552 O   0  0  0  0  0  0  0  0  0  0  0  0
  -32.2151  -13.0120   21.2567 O   0  0  0  0  0  0  0  0  0  0  0  0
  -21.4810   -7.0716   21.6394 O   0  0  0  0  0  0  0  0  0  0  0  0
  -25.8286  -12.1200   27.6615 O   0  0  0  0  0  0  0  0  0  1  0  0
  -23.4448   -3.2773   25.1252 F   0  0  0  0  0  0  0  0  0  0  0  0
  -23.9093   -5.8363   21.1704 F   0  0  0  0  0  0  0  0  0  0  0  0
  1  2  1  0  0  0  0
  1  5  2  0  0  0  0
  2  6  2  0  0  0  0
  3  8  2  0  0  0  0
  3 16  1  0  0  0  0
  4  9  1  0  0  0  0
  4 16  2  0  0  0  0
  5 18  1  0  0  0  0
  6 20  1  0  0  0  0
  7 10  2  0  0  0  0
  7 19  1  0  0  0  0
  8 23  1  0  0  0  0
  9 23  2  0  0  0  0
 10 24  1  0  0  0  0
 11 12  2  0  0  0  0
 11 25  1  0  0  0  0
 12 26  1  0  0  0  0
 13 21  1  0  0  0  0
 13 24  2  0  0  0  0
 14 22  1  0  0  0  0
 14 29  2  0  0  0  0
 15 26  2  0  0  0  0
 15 27  1  0  0  0  0
 16 28  1  0  0  0  0
 17 28  1  0  0  0  0
 17 31  2  0  0  0  0
 17 32  1  0  0  0  0
 18 20  2  0  0  0  0
 18 37  1  0  0  0  0
 19 21  2  0  0  0  0
 19 38  1  0  0  0  0
 20 46  1  0  0  0  0
 21 39  1  0  0  0  0
 22 30  2  0  0  0  0
 22 62  1  0  0  0  0
 23 87  1  0  0  0  0
 24 88  1  0  0  0  0
 25 27  2  0  0  0  0
 25 87  1  0  0  0  0
 26 89  1  0  0  0  0
 27 90  1  0  0  0  0
 28 71  2  0  0  0  0
 29 67  1  0  0  0  0
 29 72  1  0  0  0  0
 30 68  1  0  0  0  0
 30 72  1  0  0  0  0
 31 73  1  0  0  0  0
 31 76  1  0  0  0  0
 32 77  1  0  0  0  0
 32 82  2  0  0  0  0
 33 47  1  0  0  0  0
 33 78  1  0  0  0  0
 33 83  2  0  0  0  0
 34 65  1  0  0  0  0
 34 74  1  0  0  0  0
 34 84  2  0  0  0  0
 35 66  1  0  0  0  0
 35 79  1  0  0  0  0
 35 85  2  0  0  0  0
 36 75  1  0  0  0  0
 36 80  1  0  0  0  0
 36 86  2  0  0  0  0
 37 40  1  0  0  0  0
 38 47  1  0  0  0  0
 39 74  1  0  0  0  0
 40 42  1  0  0  0  0
 41 43  1  0  0  0  0
 41 44  1  0  0  0  0
 42 46  1  0  0  0  0
 43 48  1  0  0  0  0
 44 75  1  0  0  0  0
 45 48  1  0  0  0  0
 45 75  1  0  0  0  0
 46 78  1  0  0  0  0
 47 74  1  0  0  0  0
 48 73  1  0  0  0  0
 49 66  1  0  0  0  0
 50 67  1  0  0  0  0
 51 67  1  0  0  0  0
 52 67  1  0  0  0  0
 53 68  1  0  0  0  0
 54 68  1  0  0  0  0
 55 69  1  0  0  0  0
 56 69  1  0  0  0  0
 57 69  1  0  0  0  0
 58 70  1  0  0  0  0
 59 70  1  0  0  0  0
 60 72  1  0  0  0  0
 61 81  1  0  0  0  0
 62 70  1  0  0  0  0
 63 68  1  0  0  0  0
 63 80  1  0  0  0  0
 64 70  1  0  0  0  0
 64 88  1  0  0  0  0
 65 69  1  0  0  0  0
 65 79  1  0  0  0  0
 66 81  1  0  0  0  0
 71 73  1  0  0  0  0
M  CHG  1  81   1
M  ISO  4  36 100  64 101  80 100  88 101
M  END
> <Batch ID>
0077

> <Smiles>
CNC(C)C(=O)NC(C(=O)N1Cc2cc([101O:1][101CH2:1]C(C)(C)Cc3cc(C(C)(C)C)n(C)c3C(C)(C)C[100NH:0][100C:0](=O)N3CCCC(n4nc(-c5ccc(Oc6ccc(F)cc6F)cc5)c(C(N)=O)c4N)C3)ccc2CC1C(=O)NC1CCCc2ccccc21)C(C)(C)C

> <Shape>
0.150

> <Color>
0.178

> <Negative vol penalty>
0.000

$$$$

  -OEChem-04052318373D

 80 88  0     1  0  0  0  0  0999 V2000
  -21.1202  -27.5275   25.6882 C   0  0  0  0  0  0  0  0  0  0  0  0
  -22.3696  -27.4539   25.0807 C   0  0  0  0  0  0  0  0  0  0  0  0
  -25.0310  -17.0460   21.6549 C   0  0  0  0  0  0  0  0  0  0  0  0
  -24.7541  -17.0908   19.2552 C   0  0  0  0  0  0  0  0  0  0  0  0
  -19.9697  -27.2576   24.9484 C   0  0  0  0  0  0  0  0  0  0  0  0
  -22.4692  -27.1094   23.7332 C   0  0  0  0  0  0  0  0  0  0  0  0
  -25.7002  -30.0766   21.2031 C   0  0  0  0  0  0  0  0  0  0  0  0
  -24.1326  -15.9823   21.7387 C   0  0  0  0  0  0  0  0  0  0  0  0
  -23.8557  -16.0271   19.3390 C   0  0  0  0  0  0  0  0  0  0  0  0
  -27.0608  -29.8176   21.3625 C   0  0  0  0  0  0  0  0  0  0  0  0
  -22.1879  -13.0196   22.5484 C   0  0  0  0  0  0  0  0  0  0  0  0
  -22.5299  -11.9450   23.3691 C   0  0  0  0  0  0  0  0  0  0  0  0
  -27.0761  -28.6364   19.2592 C   0  0  0  0  0  0  0  0  0  0  0  0
  -24.5146  -11.5652   22.0446 C   0  0  0  0  0  0  0  0  0  0  0  0
  -29.4929  -24.1337   24.0078 C   0  0  0  0  0  0  0  0  0  0  0  0
  -31.2346  -23.7628   22.8419 C   0  0  0  0  0  0  0  0  0  0  0  0
  -25.3417  -17.6003   20.4131 C   0  0  0  0  0  0  0  0  0  0  0  0
  -27.6655  -18.6227   20.1632 C   0  0  0  0  0  0  0  0  0  0  0  0
  -20.0546  -26.9190   23.5887 C   0  0  0  0  0  0  0  0  0  0  0  0
  -25.0138  -29.6073   20.0740 C   0  0  0  0  0  0  0  0  0  0  0  0
  -21.3188  -26.8335   22.9748 C   0  0  0  0  0  0  0  0  0  0  0  0
  -25.7074  -28.8930   19.0867 C   0  0  0  0  0  0  0  0  0  0  0  0
  -23.5450  -15.4728   20.5808 C   0  0  0  0  0  0  0  0  0  0  0  0
  -27.7484  -29.0949   20.3919 C   0  0  0  0  0  0  0  0  0  0  0  0
  -23.0091  -13.3671   21.4757 C   0  0  0  0  0  0  0  0  0  0  0  0
  -23.6933  -11.2178   23.1173 C   0  0  0  0  0  0  0  0  0  0  0  0
  -24.1724  -12.6399   21.2238 C   0  0  0  0  0  0  0  0  0  0  0  0
  -26.2693  -18.6995   20.3259 C   0  0  0  0  0  0  0  0  0  0  0  0
  -29.1715  -24.5295   22.7307 C   0  0  0  0  0  0  0  0  0  0  0  0
  -28.0808  -19.9317   20.1389 C   0  0  0  0  0  0  0  0  0  0  0  0
  -28.5114  -17.4712   20.0446 C   0  0  0  0  0  0  0  0  0  0  0  0
  -27.9145  -25.0934   22.2218 C   0  0  0  0  0  0  0  0  0  0  0  0
  -22.5891  -27.6089   19.5928 C   0  0  0  0  0  0  0  0  0  0  0  0
  -22.8859  -28.6061   16.5204 C   0  0  0  0  0  0  0  0  0  0  0  0
  -24.8714  -29.9408   14.0866 C   0  0  0  0  0  0  0  0  0  0  0  0
  -18.7862  -26.5898   22.8420 C   0  0  0  0  0  0  0  0  0  0  0  0
  -23.5519  -29.9181   19.9040 C   0  0  0  0  0  0  0  0  0  0  0  0
  -25.0210  -28.3845   17.8462 C   0  0  0  0  0  0  0  0  0  0  0  0
  -18.9532  -26.5977   21.3246 C   0  0  0  0  0  0  0  0  0  0  0  0
  -25.4412  -24.2320   19.7965 C   0  0  0  0  0  0  0  0  0  0  0  0
  -20.2099  -25.8327   20.9219 C   0  0  0  0  0  0  0  0  0  0  0  0
  -25.5348  -22.7073   19.7168 C   0  0  0  0  0  0  0  0  0  0  0  0
  -25.6847  -24.7381   21.2160 C   0  0  0  0  0  0  0  0  0  0  0  0
  -27.0453  -22.7450   21.7459 C   0  0  0  0  0  0  0  0  0  0  0  0
  -21.4662  -26.4873   21.5090 C   0  0  1  0  0  0  0  0  0  0  0  0
  -22.8407  -28.9500   18.9636 C   0  0  1  0  0  0  0  0  0  0  0  0
  -26.8563  -22.1972   20.3218 C   0  0  1  0  0  0  0  0  0  0  0  0
  -24.8453  -30.6028   11.6661 C   0  0  0  0  0  0  0  0  0  0  0  0
  -31.9119  -28.1587   20.7461 C   0  0  0  0  0  0  0  0  0  0  0  0
  -23.0807  -25.6689   15.7175 C   0  0  0  0  0  0  0  0  0  0  0  0
  -23.9876  -26.4063   13.5035 C   0  0  0  0  0  0  0  0  0  0  0  0
  -21.6858  -27.0770   14.1924 C   0  0  0  0  0  0  0  0  0  0  0  0
  -25.4495  -32.7701   14.7343 C   0  0  0  0  0  0  0  0  0  0  0  0
  -31.3401  -25.7778   20.2067 C   0  0  0  0  0  0  0  0  0  0  0  0
  -30.4880  -24.5403   20.5209 C   0  0  0  0  0  0  0  0  0  0  0  0
  -29.5782  -27.6373   19.9642 C   0  0  0  0  0  0  0  0  0  1  0  0
  -23.6788  -28.1488   15.3198 C   0  0  1  0  0  0  0  0  0  0  0  0
  -24.6334  -31.0683   13.0983 C   0  0  2  0  0  0  0  0  0  0  0  0
  -30.7883  -27.1143   20.7499 C   0  0  2  0  0  0  0  0  0  0  0  0
  -23.1210  -26.8330   14.7075 C   0  0  0  0  0  0  0  0  0  0  0  0
  -30.7785  -23.6575   24.0702 N   0  0  0  0  0  0  0  0  0  0  0  0
  -25.8271  -19.9577   20.3999 N   0  0  0  0  0  0  0  0  0  0  0  0
  -30.2971  -24.2858   21.9953 N   0  0  0  0  0  0  0  0  0  0  0  0
  -26.9521  -20.6836   20.2832 N   0  0  0  0  0  0  0  0  0  0  0  0
  -26.9423  -24.2111   21.7446 N   0  0  0  0  0  0  0  0  0  0  0  0
  -23.5897  -28.7085   17.7287 N   0  0  0  0  0  0  0  0  0  0  0  0
  -29.2977  -20.5014   20.0084 N   0  0  0  0  0  0  0  0  0  0  0  0
  -27.9209  -16.2009   20.0898 N   0  0  0  0  0  0  0  0  0  0  0  0
  -21.8281  -27.6619   20.7450 N   0  0  0  0  0  0  0  0  0  0  0  0
  -23.7032  -29.2756   14.3935 N   0  0  0  0  0  0  0  0  0  0  0  0
  -25.5662  -32.1989   13.3679 N   0  3  0  0  0  0  0  0  0  0  0  0
  -29.7559  -17.5656   19.9192 O   0  0  0  0  0  0  0  0  0  0  0  0
  -27.8202  -26.3196   22.2453 O   0  0  0  0  0  0  0  0  0  0  0  0
  -23.0501  -26.6006   19.0708 O   0  0  0  0  0  0  0  0  0  0  0  0
  -21.6881  -28.8698   16.3893 O   0  0  0  0  0  0  0  0  0  0  0  0
  -25.9830  -29.6743   14.5380 O   0  0  0  0  0  0  0  0  0  0  0  0
  -22.6685  -14.4347   20.6622 O   0  0  0  0  0  0  0  0  0  0  0  0
  -29.0763  -28.8402   20.5452 O   0  0  0  0  0  0  0  0  0  1  0  0
  -24.0225  -10.1868   23.9065 F   0  0  0  0  0  0  0  0  0  0  0  0
  -24.9659  -12.9696   20.1955 F   0  0  0  0  0  0  0  0  0  0  0  0
  1  2  1  0  0  0  0
  1  5  2  0  0  0  0
  2  6  2  0  0  0  0
  3  8  2  0  0  0  0
  3 17  1  0  0  0  0
  4  9  1  0  0  0  0
  4 17  2  0  0  0  0
  5 19  1  0  0  0  0
  6 21  1  0  0  0  0
  7 10  2  0  0  0  0
  7 20  1  0  0  0  0
  8 23  1  0  0  0  0
  9 23  2  0  0  0  0
 10 24  1  0  0  0  0
 11 12  2  0  0  0  0
 11 25  1  0  0  0  0
 12 26  1  0  0  0  0
 13 22  1  0  0  0  0
 13 24  2  0  0  0  0
 14 26  2  0  0  0  0
 14 27  1  0  0  0  0
 15 29  2  0  0  0  0
 15 61  1  0  0  0  0
 16 61  2  0  0  0  0
 16 63  1  0  0  0  0
 17 28  1  0  0  0  0
 18 28  1  0  0  0  0
 18 30  2  0  0  0  0
 18 31  1  0  0  0  0
 19 21  2  0  0  0  0
 19 36  1  0  0  0  0
 20 22  2  0  0  0  0
 20 37  1  0  0  0  0
 21 45  1  0  0  0  0
 22 38  1  0  0  0  0
 23 77  1  0  0  0  0
 24 78  1  0  0  0  0
 25 27  2  0  0  0  0
 25 77  1  0  0  0  0
 26 79  1  0  0  0  0
 27 80  1  0  0  0  0
 28 62  2  0  0  0  0
 29 32  1  0  0  0  0
 29 63  1  0  0  0  0
 30 64  1  0  0  0  0
 30 67  1  0  0  0  0
 31 68  1  0  0  0  0
 31 72  2  0  0  0  0
 32 65  1  0  0  0  0
 32 73  2  0  0  0  0
 33 46  1  0  0  0  0
 33 69  1  0  0  0  0
 33 74  2  0  0  0  0
 34 57  1  0  0  0  0
 34 66  1  0  0  0  0
 34 75  2  0  0  0  0
 35 58  1  0  0  0  0
 35 70  1  0  0  0  0
 35 76  2  0  0  0  0
 36 39  1  0  0  0  0
 37 46  1  0  0  0  0
 38 66  1  0  0  0  0
 39 41  1  0  0  0  0
 40 42  1  0  0  0  0
 40 43  1  0  0  0  0
 41 45  1  0  0  0  0
 42 47  1  0  0  0  0
 43 65  1  0  0  0  0
 44 47  1  0  0  0  0
 44 65  1  0  0  0  0
 45 69  1  0  0  0  0
 46 66  1  0  0  0  0
 47 64  1  0  0  0  0
 48 58  1  0  0  0  0
 49 59  1  0  0  0  0
 50 60  1  0  0  0  0
 51 60  1  0  0  0  0
 52 60  1  0  0  0  0
 53 71  1  0  0  0  0
 54 55  1  0  0  0  0
 54 59  1  0  0  0  0
 55 63  1  0  0  0  0
 56 59  1  0  0  0  0
 56 78  1  0  0  0  0
 57 60  1  0  0  0  0
 57 70  1  0  0  0  0
 58 71  1  0  0  0  0
 62 64  1  0  0  0  0
M  CHG  1  71   1
M  ISO  4  29 100  32 100  56 101  78 101
M  END
> <Batch ID>
0077

> <Smiles>
CNC(C)C(=O)NC(C(=O)N1Cc2cc([101O:1][101CH2:1]C(C)CCn3cnc[100c:0]3[100C:0](=O)N3CCCC(n4nc(-c5ccc(Oc6ccc(F)cc6F)cc5)c(C(N)=O)c4N)C3)ccc2CC1C(=O)NC1CCCc2ccccc21)C(C)(C)C

> <Shape>
0.192

> <Color>
0.057

> <Negative vol penalty>
0.000

$$$$

  -OEChem-04052318373D

 83 91  0     1  0  0  0  0  0999 V2000
  -18.2713  -32.3829   21.1394 C   0  0  0  0  0  0  0  0  0  0  0  0
  -19.6349  -32.1854   20.9475 C   0  0  0  0  0  0  0  0  0  0  0  0
  -26.0620  -13.7149   21.7426 C   0  0  0  0  0  0  0  0  0  0  0  0
  -24.8750  -14.9499   20.0389 C   0  0  0  0  0  0  0  0  0  0  0  0
  -17.5314  -31.4597   21.8771 C   0  0  0  0  0  0  0  0  0  0  0  0
  -20.2597  -31.0651   21.4942 C   0  0  0  0  0  0  0  0  0  0  0  0
  -24.8981  -27.8860   19.0683 C   0  0  0  0  0  0  0  0  0  0  0  0
  -24.9946  -12.8224   21.8394 C   0  0  0  0  0  0  0  0  0  0  0  0
  -23.8075  -14.0573   20.1356 C   0  0  0  0  0  0  0  0  0  0  0  0
  -26.2730  -27.9098   19.2980 C   0  0  0  0  0  0  0  0  0  0  0  0
  -22.7338  -10.0096   22.2779 C   0  0  0  0  0  0  0  0  0  0  0  0
  -23.0296   -8.6473   22.3241 C   0  0  0  0  0  0  0  0  0  0  0  0
  -26.0435  -26.0587   20.8277 C   0  0  0  0  0  0  0  0  0  0  0  0
  -24.0970   -8.8058   20.1624 C   0  0  0  0  0  0  0  0  0  0  0  0
  -31.6715  -26.9194   17.3756 C   0  0  0  0  0  0  0  0  0  0  0  0
  -26.0023  -14.7788   20.8424 C   0  0  0  0  0  0  0  0  0  0  0  0
  -28.2217  -15.6021   19.8917 C   0  0  0  0  0  0  0  0  0  0  0  0
  -18.1456  -30.3225   22.4250 C   0  0  0  0  0  0  0  0  0  0  0  0
  -24.0827  -26.9538   19.7260 C   0  0  0  0  0  0  0  0  0  0  0  0
  -19.5277  -30.1265   22.2411 C   0  0  0  0  0  0  0  0  0  0  0  0
  -24.6589  -26.0235   20.6027 C   0  0  0  0  0  0  0  0  0  0  0  0
  -23.8673  -12.9935   21.0359 C   0  0  0  0  0  0  0  0  0  0  0  0
  -26.8455  -26.9980   20.1800 C   0  0  0  0  0  0  0  0  0  0  0  0
  -23.1194  -10.7700   21.1739 C   0  0  0  0  0  0  0  0  0  0  0  0
  -23.7113   -8.0454   21.2664 C   0  0  0  0  0  0  0  0  0  0  0  0
  -23.8010  -10.1681   20.1162 C   0  0  0  0  0  0  0  0  0  0  0  0
  -27.1044  -15.7014   20.7424 C   0  0  0  0  0  0  0  0  0  0  0  0
  -31.4798  -26.2807   16.1830 C   0  0  0  0  0  0  0  0  0  0  0  0
  -28.9707  -16.7175   20.1771 C   0  0  0  0  0  0  0  0  0  0  0  0
  -30.4875  -25.0895   17.7632 C   0  0  0  0  0  0  0  0  0  0  0  0
  -28.5528  -14.5921   18.9295 C   0  0  0  0  0  0  0  0  0  0  0  0
  -21.6586  -27.1444   21.7734 C   0  0  0  0  0  0  0  0  0  0  0  0
  -21.5386  -23.9337   21.3273 C   0  0  0  0  0  0  0  0  0  0  0  0
  -23.0541  -20.6877   20.8980 C   0  0  0  0  0  0  0  0  0  0  0  0
  -29.3592  -22.1949   21.1733 C   0  0  0  0  0  0  0  0  0  0  0  0
  -17.3138  -29.3771   23.2550 C   0  0  0  0  0  0  0  0  0  0  0  0
  -22.6049  -26.9238   19.4470 C   0  0  0  0  0  0  0  0  0  0  0  0
  -23.8301  -24.9894   21.3184 C   0  0  0  0  0  0  0  0  0  0  0  0
  -17.9783  -28.0220   23.4841 C   0  0  0  0  0  0  0  0  0  0  0  0
  -28.5630  -20.0856   23.9289 C   0  0  0  0  0  0  0  0  0  0  0  0
  -19.4351  -28.2049   23.8978 C   0  0  0  0  0  0  0  0  0  0  0  0
  -28.1989  -18.7514   23.2751 C   0  0  0  0  0  0  0  0  0  0  0  0
  -28.0915  -21.2720   23.0910 C   0  0  0  0  0  0  0  0  0  0  0  0
  -28.1748  -19.9203   21.0319 C   0  0  0  0  0  0  0  0  0  0  0  0
  -20.2366  -28.9108   22.7974 C   0  0  1  0  0  0  0  0  0  0  0  0
  -21.7995  -26.2654   20.5629 C   0  0  1  0  0  0  0  0  0  0  0  0
  -28.6790  -18.6943   21.8124 C   0  0  2  0  0  0  0  0  0  0  0  0
  -31.9122  -26.6173   14.8242 C   0  0  0  0  0  0  0  0  0  0  0  0
  -22.0121  -18.4419   20.4884 C   0  0  0  0  0  0  0  0  0  0  0  0
  -31.5475  -22.2678   18.2108 C   0  0  0  0  0  0  0  0  0  0  0  0
  -21.6902  -23.6326   24.3599 C   0  0  0  0  0  0  0  0  0  0  0  0
  -22.2904  -21.2257   24.0211 C   0  0  0  0  0  0  0  0  0  0  0  0
  -20.0823  -22.0810   23.2366 C   0  0  0  0  0  0  0  0  0  0  0  0
  -24.6690  -20.2547   18.4560 C   0  0  0  0  0  0  0  0  0  0  0  0
  -29.7178  -24.0162   18.4401 C   0  0  0  0  0  0  0  0  0  0  0  0
  -30.4118  -27.8685   20.1113 C   0  0  0  0  0  0  0  0  0  0  0  0
  -31.0008  -26.4894   19.8066 C   0  0  0  0  0  0  0  0  0  0  0  0
  -28.9484  -28.0031   19.7068 C   0  0  0  0  0  0  0  0  0  1  0  0
  -22.1805  -22.7378   21.9882 C   0  0  1  0  0  0  0  0  0  0  0  0
  -22.6914  -19.6462   19.8550 C   0  0  2  0  0  0  0  0  0  0  0  0
  -30.6015  -22.9791   19.1731 C   0  0  1  0  0  0  0  0  0  0  0  0
  -21.5765  -22.4399   23.3896 C   0  0  0  0  0  0  0  0  0  0  0  0
  -27.1368  -16.7935   21.5107 N   0  0  0  0  0  0  0  0  0  0  0  0
  -31.0466  -26.1606   18.3357 N   0  0  0  0  0  0  0  0  0  0  0  0
  -28.2835  -17.3906   21.1439 N   0  0  0  0  0  0  0  0  0  0  0  0
  -30.7445  -25.1517   16.4527 N   0  3  0  0  0  0  0  0  0  0  0  0
  -22.3890  -25.0044   21.0172 N   0  0  0  0  0  0  0  0  0  0  0  0
  -28.5820  -21.1580   21.7154 N   0  0  0  0  0  0  0  0  0  0  0  0
  -30.1436  -17.1782   19.6929 N   0  0  0  0  0  0  0  0  0  0  0  0
  -27.6726  -13.5142   18.7625 N   0  0  0  0  0  0  0  0  0  0  0  0
  -20.5614  -27.9834   21.7348 N   0  0  0  0  0  0  0  0  0  0  0  0
  -22.0625  -21.6352   21.0401 N   0  0  0  0  0  0  0  0  0  0  0  0
  -29.7888  -22.0041   19.8657 N   0  0  0  0  0  0  0  0  0  0  0  0
  -23.9144  -19.1763   19.1449 N   0  3  0  0  0  0  0  0  0  0  0  0
  -29.6063  -14.6353   18.2500 O   0  0  0  0  0  0  0  0  0  0  0  0
  -22.4836  -27.0661   22.6762 O   0  0  0  0  0  0  0  0  0  0  0  0
  -20.3286  -23.9155   21.0884 O   0  0  0  0  0  0  0  0  0  0  0  0
  -24.1099  -20.6612   21.5268 O   0  0  0  0  0  0  0  0  0  0  0  0
  -29.6532  -23.2127   21.8094 O   0  0  0  0  0  0  0  0  0  0  0  0
  -22.8256  -12.1226   21.1299 O   0  0  0  0  0  0  0  0  0  0  0  0
  -28.1872  -27.0195   20.4065 O   0  0  0  0  0  0  0  0  0  1  0  0
  -23.9967   -6.7375   21.3116 F   0  0  0  0  0  0  0  0  0  0  0  0
  -24.1751  -10.8938   19.0535 F   0  0  0  0  0  0  0  0  0  0  0  0
  1  2  1  0  0  0  0
  1  5  2  0  0  0  0
  2  6  2  0  0  0  0
  3  8  2  0  0  0  0
  3 16  1  0  0  0  0
  4  9  1  0  0  0  0
  4 16  2  0  0  0  0
  5 18  1  0  0  0  0
  6 20  1  0  0  0  0
  7 10  2  0  0  0  0
  7 19  1  0  0  0  0
  8 22  1  0  0  0  0
  9 22  2  0  0  0  0
 10 23  1  0  0  0  0
 11 12  2  0  0  0  0
 11 24  1  0  0  0  0
 12 25  1  0  0  0  0
 13 21  1  0  0  0  0
 13 23  2  0  0  0  0
 14 25  2  0  0  0  0
 14 26  1  0  0  0  0
 15 28  2  0  0  0  0
 15 64  1  0  0  0  0
 16 27  1  0  0  0  0
 17 27  1  0  0  0  0
 17 29  2  0  0  0  0
 17 31  1  0  0  0  0
 18 20  2  0  0  0  0
 18 36  1  0  0  0  0
 19 21  2  0  0  0  0
 19 37  1  0  0  0  0
 20 45  1  0  0  0  0
 21 38  1  0  0  0  0
 22 80  1  0  0  0  0
 23 81  1  0  0  0  0
 24 26  2  0  0  0  0
 24 80  1  0  0  0  0
 25 82  1  0  0  0  0
 26 83  1  0  0  0  0
 27 63  2  0  0  0  0
 28 48  1  0  0  0  0
 28 66  1  0  0  0  0
 29 65  1  0  0  0  0
 29 69  1  0  0  0  0
 30 55  1  0  0  0  0
 30 64  1  0  0  0  0
 30 66  2  0  0  0  0
 31 70  1  0  0  0  0
 31 75  2  0  0  0  0
 32 46  1  0  0  0  0
 32 71  1  0  0  0  0
 32 76  2  0  0  0  0
 33 59  1  0  0  0  0
 33 67  1  0  0  0  0
 33 77  2  0  0  0  0
 34 60  1  0  0  0  0
 34 72  1  0  0  0  0
 34 78  2  0  0  0  0
 35 68  1  0  0  0  0
 35 73  1  0  0  0  0
 35 79  2  0  0  0  0
 36 39  1  0  0  0  0
 37 46  1  0  0  0  0
 38 67  1  0  0  0  0
 39 41  1  0  0  0  0
 40 42  1  0  0  0  0
 40 43  1  0  0  0  0
 41 45  1  0  0  0  0
 42 47  1  0  0  0  0
 43 68  1  0  0  0  0
 44 47  1  0  0  0  0
 44 68  1  0  0  0  0
 45 71  1  0  0  0  0
 46 67  1  0  0  0  0
 47 65  1  0  0  0  0
 49 60  1  0  0  0  0
 50 61  1  0  0  0  0
 51 62  1  0  0  0  0
 52 62  1  0  0  0  0
 53 62  1  0  0  0  0
 54 74  1  0  0  0  0
 55 61  1  0  0  0  0
 56 57  1  0  0  0  0
 56 58  1  0  0  0  0
 57 64  1  0  0  0  0
 58 81  1  0  0  0  0
 59 62  1  0  0  0  0
 59 72  1  0  0  0  0
 60 74  1  0  0  0  0
 61 73  1  0  0  0  0
 63 65  1  0  0  0  0
M  CHG  2  66   1  74   1
M  ISO  4  35 100  58 101  73 100  81 101
M  END
> <Batch ID>
0077

> <Smiles>
CNC(C)C(=O)NC(C(=O)N1Cc2cc([101O:1][101CH2:1]CCn3cc(C)nc3CC(C)[100NH:0][100C:0](=O)N3CCCC(n4nc(-c5ccc(Oc6ccc(F)cc6F)cc5)c(C(N)=O)c4N)C3)ccc2CC1C(=O)NC1CCCc2ccccc21)C(C)(C)C

> <Shape>
0.248

> <Color>
0.059

> <Negative vol penalty>
0.000

$$$$

  -OEChem-04052318373D

 86 94  0     1  0  0  0  0  0999 V2000
  -16.6317  -29.6465   24.3769 C   0  0  0  0  0  0  0  0  0  0  0  0
  -17.0355  -28.6936   23.4473 C   0  0  0  0  0  0  0  0  0  0  0  0
  -24.5087   -9.5707   21.7153 C   0  0  0  0  0  0  0  0  0  0  0  0
  -24.6496  -10.9090   23.7218 C   0  0  0  0  0  0  0  0  0  0  0  0
  -17.3832  -30.8074   24.5549 C   0  0  0  0  0  0  0  0  0  0  0  0
  -18.1906  -28.9015   22.6942 C   0  0  0  0  0  0  0  0  0  0  0  0
  -21.1100  -24.7718   22.4346 C   0  0  0  0  0  0  0  0  0  0  0  0
  -24.1465   -8.4619   22.4802 C   0  0  0  0  0  0  0  0  0  0  0  0
  -24.2874   -9.8003   24.4868 C   0  0  0  0  0  0  0  0  0  0  0  0
  -20.7195  -23.7708   21.5461 C   0  0  0  0  0  0  0  0  0  0  0  0
  -22.8336   -5.3696   23.8690 C   0  0  0  0  0  0  0  0  0  0  0  0
  -21.7736   -4.5857   23.4136 C   0  0  0  0  0  0  0  0  0  0  0  0
  -22.3413  -24.5660   19.9471 C   0  0  0  0  0  0  0  0  0  0  0  0
  -20.3036   -6.4987   23.5425 C   0  0  0  0  0  0  0  0  0  0  0  0
  -25.3296  -18.6003   19.8268 C   0  0  0  0  0  0  0  0  0  0  0  0
  -24.7603  -10.7942   22.3361 C   0  0  0  0  0  0  0  0  0  0  0  0
  -24.2745  -12.8937   20.9708 C   0  0  0  0  0  0  0  0  0  0  0  0
  -18.5533  -31.0251   23.8105 C   0  0  0  0  0  0  0  0  0  0  0  0
  -22.1131  -25.6856   22.0811 C   0  0  0  0  0  0  0  0  0  0  0  0
  -18.9577  -30.0669   22.8614 C   0  0  0  0  0  0  0  0  0  0  0  0
  -22.7444  -25.5760   20.8339 C   0  0  0  0  0  0  0  0  0  0  0  0
  -24.0359   -8.5767   23.8660 C   0  0  0  0  0  0  0  0  0  0  0  0
  -21.3332  -23.6696   20.3010 C   0  0  0  0  0  0  0  0  0  0  0  0
  -22.6287   -6.7180   24.1613 C   0  0  0  0  0  0  0  0  0  0  0  0
  -20.5086   -5.1503   23.2502 C   0  0  0  0  0  0  0  0  0  0  0  0
  -21.3637   -7.2826   23.9980 C   0  0  0  0  0  0  0  0  0  0  0  0
  -25.1350  -11.9397   21.5465 C   0  0  0  0  0  0  0  0  0  0  0  0
  -26.6197  -18.8795   19.4739 C   0  0  0  0  0  0  0  0  0  0  0  0
  -25.1143  -13.7702   20.3282 C   0  0  0  0  0  0  0  0  0  0  0  0
  -25.4794  -20.7769   19.4523 C   0  0  0  0  0  0  0  0  0  0  0  0
  -22.8440  -12.9799   21.0133 C   0  0  0  0  0  0  0  0  0  0  0  0
  -22.2398  -28.8377   21.6911 C   0  0  0  0  0  0  0  0  0  0  0  0
  -29.7638  -16.8802   20.3414 C   0  0  0  0  0  0  0  0  0  0  0  0
  -25.4125  -28.2728   21.3205 C   0  0  0  0  0  0  0  0  0  0  0  0
  -27.8866  -26.0700   20.5001 C   0  0  0  0  0  0  0  0  0  0  0  0
  -19.3069  -32.3171   24.0040 C   0  0  0  0  0  0  0  0  0  0  0  0
  -22.5415  -26.7431   23.0613 C   0  0  0  0  0  0  0  0  0  0  0  0
  -23.8407  -26.5197   20.4142 C   0  0  0  0  0  0  0  0  0  0  0  0
  -20.7226  -32.2879   23.4336 C   0  0  0  0  0  0  0  0  0  0  0  0
  -30.0503  -13.4624   19.3039 C   0  0  0  0  0  0  0  0  0  0  0  0
  -20.7198  -31.6939   22.0286 C   0  0  0  0  0  0  0  0  0  0  0  0
  -28.7396  -12.8333   19.7744 C   0  0  0  0  0  0  0  0  0  0  0  0
  -30.5368  -14.5323   20.2763 C   0  0  0  0  0  0  0  0  0  0  0  0
  -28.2206  -14.9766   21.0242 C   0  0  0  0  0  0  0  0  0  0  0  0
  -20.2182  -30.2449   22.0432 C   0  0  1  0  0  0  0  0  0  0  0  0
  -23.2161  -27.9379   22.3945 C   0  0  1  0  0  0  0  0  0  0  0  0
  -27.6781  -13.9118   20.0545 C   0  0  2  0  0  0  0  0  0  0  0  0
  -25.1483  -22.2165   19.3080 C   0  0  0  0  0  0  0  0  0  0  0  0
  -30.0731  -19.0228   22.3636 C   0  0  0  0  0  0  0  0  0  0  0  0
  -30.3787  -25.9091   20.2531 C   0  0  0  0  0  0  0  0  0  0  0  0
  -25.2459  -29.7874   18.6769 C   0  0  0  0  0  0  0  0  0  0  0  0
  -27.4562  -28.7936   18.0484 C   0  0  0  0  0  0  0  0  0  0  0  0
  -27.2830  -30.2871   20.0389 C   0  0  0  0  0  0  0  0  0  0  0  0
  -20.1537  -20.4860   17.7031 C   0  0  0  0  0  0  0  0  0  0  0  0
  -20.2178  -18.9976   19.7079 C   0  0  0  0  0  0  0  0  0  0  0  0
  -28.0755  -23.9838   22.5907 C   0  0  0  0  0  0  0  0  0  0  0  0
  -27.7923  -18.0135   19.3274 C   0  0  0  0  0  0  0  0  0  0  0  0
  -29.2143  -19.1780   21.1146 C   0  0  0  0  0  0  0  0  0  0  0  0
  -22.3409  -20.1210   18.8592 C   0  0  0  0  0  0  0  0  0  0  0  0
  -23.1824  -19.9598   20.1322 C   0  0  0  0  0  0  0  0  0  0  0  0
  -20.4709  -21.4745   19.9942 C   0  0  0  0  0  0  0  0  0  1  0  0
  -28.6374  -17.8424   20.6234 C   0  0  2  0  0  0  0  0  0  0  0  0
  -26.3123  -27.9553   20.1507 C   0  0  1  0  0  0  0  0  0  0  0  0
  -29.1941  -25.7217   21.1882 C   0  0  2  0  0  0  0  0  0  0  0  0
  -26.5524  -29.1891   19.2356 C   0  0  0  0  0  0  0  0  0  0  0  0
  -20.8101  -20.2741   19.0846 C   0  0  0  0  0  0  0  0  0  0  0  0
  -26.4227  -12.1867   21.2919 N   0  0  0  0  0  0  0  0  0  0  0  0
  -24.6466  -19.7924   19.8057 N   0  0  0  0  0  0  0  0  0  0  0  0
  -26.3776  -13.3058   20.5491 N   0  0  0  0  0  0  0  0  0  0  0  0
  -26.6836  -20.2334   19.2477 N   0  3  0  0  0  0  0  0  0  0  0  0
  -24.2198  -27.5405   21.4050 N   0  0  0  0  0  0  0  0  0  0  0  0
  -29.4925  -15.5254   20.5337 N   0  0  0  0  0  0  0  0  0  0  0  0
  -24.8881  -14.8850   19.6014 N   0  0  0  0  0  0  0  0  0  0  0  0
  -22.1360  -11.9967   21.7179 N   0  0  0  0  0  0  0  0  0  0  0  0
  -21.2577  -29.3549   22.5142 N   0  0  0  0  0  0  0  0  0  0  0  0
  -27.5302  -27.3845   20.7158 N   0  0  0  0  0  0  0  0  0  0  0  0
  -29.1767  -24.3037   21.6462 N   0  3  0  0  0  0  0  0  0  0  0  0
  -22.2113  -13.8922   20.4295 O   0  0  0  0  0  0  0  0  0  0  0  0
  -22.3688  -29.0484   20.4909 O   0  0  0  0  0  0  0  0  0  0  0  0
  -30.8507  -17.3212   19.9588 O   0  0  0  0  0  0  0  0  0  0  0  0
  -25.7585  -29.1337   22.1334 O   0  0  0  0  0  0  0  0  0  0  0  0
  -27.2474  -25.2584   19.8344 O   0  0  0  0  0  0  0  0  0  0  0  0
  -23.6823   -7.4951   24.6127 O   0  0  0  0  0  0  0  0  0  0  0  0
  -20.9535  -22.6939   19.4317 O   0  0  0  0  0  0  0  0  0  1  0  0
  -19.4911   -4.3978   22.8113 F   0  0  0  0  0  0  0  0  0  0  0  0
  -21.1609   -8.5777   24.2760 F   0  0  0  0  0  0  0  0  0  0  0  0
  1  2  1  0  0  0  0
  1  5  2  0  0  0  0
  2  6  2  0  0  0  0
  3  8  2  0  0  0  0
  3 16  1  0  0  0  0
  4  9  1  0  0  0  0
  4 16  2  0  0  0  0
  5 18  1  0  0  0  0
  6 20  1  0  0  0  0
  7 10  2  0  0  0  0
  7 19  1  0  0  0  0
  8 22  1  0  0  0  0
  9 22  2  0  0  0  0
 10 23  1  0  0  0  0
 11 12  2  0  0  0  0
 11 24  1  0  0  0  0
 12 25  1  0  0  0  0
 13 21  1  0  0  0  0
 13 23  2  0  0  0  0
 14 25  2  0  0  0  0
 14 26  1  0  0  0  0
 15 28  2  0  0  0  0
 15 68  1  0  0  0  0
 16 27  1  0  0  0  0
 17 27  1  0  0  0  0
 17 29  2  0  0  0  0
 17 31  1  0  0  0  0
 18 20  2  0  0  0  0
 18 36  1  0  0  0  0
 19 21  2  0  0  0  0
 19 37  1  0  0  0  0
 20 45  1  0  0  0  0
 21 38  1  0  0  0  0
 22 83  1  0  0  0  0
 23 84  1  0  0  0  0
 24 26  2  0  0  0  0
 24 83  1  0  0  0  0
 25 85  1  0  0  0  0
 26 86  1  0  0  0  0
 27 67  2  0  0  0  0
 28 57  1  0  0  0  0
 28 70  1  0  0  0  0
 29 69  1  0  0  0  0
 29 73  1  0  0  0  0
 30 48  1  0  0  0  0
 30 68  1  0  0  0  0
 30 70  2  0  0  0  0
 31 74  1  0  0  0  0
 31 78  2  0  0  0  0
 32 46  1  0  0  0  0
 32 75  1  0  0  0  0
 32 79  2  0  0  0  0
 33 62  1  0  0  0  0
 33 72  1  0  0  0  0
 33 80  2  0  0  0  0
 34 63  1  0  0  0  0
 34 71  1  0  0  0  0
 34 81  2  0  0  0  0
 35 64  1  0  0  0  0
 35 76  1  0  0  0  0
 35 82  2  0  0  0  0
 36 39  1  0  0  0  0
 37 46  1  0  0  0  0
 38 71  1  0  0  0  0
 39 41  1  0  0  0  0
 40 42  1  0  0  0  0
 40 43  1  0  0  0  0
 41 45  1  0  0  0  0
 42 47  1  0  0  0  0
 43 72  1  0  0  0  0
 44 47  1  0  0  0  0
 44 72  1  0  0  0  0
 45 75  1  0  0  0  0
 46 71  1  0  0  0  0
 47 69  1  0  0  0  0
 49 58  1  0  0  0  0
 50 64  1  0  0  0  0
 51 65  1  0  0  0  0
 52 65  1  0  0  0  0
 53 65  1  0  0  0  0
 54 66  1  0  0  0  0
 55 66  1  0  0  0  0
 56 77  1  0  0  0  0
 57 62  1  0  0  0  0
 58 62  1  0  0  0  0
 59 60  1  0  0  0  0
 59 66  1  0  0  0  0
 60 68  1  0  0  0  0
 61 66  1  0  0  0  0
 61 84  1  0  0  0  0
 63 65  1  0  0  0  0
 63 76  1  0  0  0  0
 64 77  1  0  0  0  0
 67 69  1  0  0  0  0
M  CHG  2  70   1  77   1
M  ISO  4  33 100  61 101  62 100  84 101
M  END
> <Batch ID>
0077

> <Smiles>
CC[100CH:0](Cc1cn(CCC(C)(C)[101CH2:1][101O:1]c2ccc3c(c2)CN(C(=O)C(NC(=O)C(C)NC)C(C)(C)C)C(C(=O)NC2CCCc4ccccc42)C3)c(C)n1)[100C:0](=O)N1CCCC(n2nc(-c3ccc(Oc4ccc(F)cc4F)cc3)c(C(N)=O)c2N)C1

> <Shape>
0.268

> <Color>
0.121

> <Negative vol penalty>
0.000

$$$$

  -OEChem-04052318373D

 87 95  0     1  0  0  0  0  0999 V2000
  -31.1605  -27.6722   17.7115 C   0  0  0  0  0  0  0  0  0  0  0  0
  -30.1087  -26.7687   17.5979 C   0  0  0  0  0  0  0  0  0  0  0  0
  -26.1927  -12.8370   21.4156 C   0  0  0  0  0  0  0  0  0  0  0  0
  -26.0260  -13.2655   19.0437 C   0  0  0  0  0  0  0  0  0  0  0  0
  -31.3631  -28.3574   18.9087 C   0  0  0  0  0  0  0  0  0  0  0  0
  -29.2596  -26.5490   18.6820 C   0  0  0  0  0  0  0  0  0  0  0  0
  -24.3768  -26.4739   17.3412 C   0  0  0  0  0  0  0  0  0  0  0  0
  -25.0038  -12.1090   21.3676 C   0  0  0  0  0  0  0  0  0  0  0  0
  -24.8371  -12.5375   18.9958 C   0  0  0  0  0  0  0  0  0  0  0  0
  -23.8993  -25.3098   16.7406 C   0  0  0  0  0  0  0  0  0  0  0  0
  -24.0123   -9.0177   20.4225 C   0  0  0  0  0  0  0  0  0  0  0  0
  -23.9735   -7.7948   21.0923 C   0  0  0  0  0  0  0  0  0  0  0  0
  -22.9492  -24.6196   18.8478 C   0  0  0  0  0  0  0  0  0  0  0  0
  -22.1638   -8.6075   22.4712 C   0  0  0  0  0  0  0  0  0  0  0  0
  -26.2113  -20.0388   18.7239 C   0  0  0  0  0  0  0  0  0  0  0  0
  -25.7384  -18.5226   17.1961 C   0  0  0  0  0  0  0  0  0  0  0  0
  -26.7037  -13.4153   20.2536 C   0  0  0  0  0  0  0  0  0  0  0  0
  -29.2380  -13.6758   20.1217 C   0  0  0  0  0  0  0  0  0  0  0  0
  -30.5103  -28.1533   20.0048 C   0  0  0  0  0  0  0  0  0  0  0  0
  -24.1531  -26.7148   18.7044 C   0  0  0  0  0  0  0  0  0  0  0  0
  -29.4519  -27.2312   19.8954 C   0  0  0  0  0  0  0  0  0  0  0  0
  -23.4227  -25.7887   19.4627 C   0  0  0  0  0  0  0  0  0  0  0  0
  -24.3260  -11.9593   20.1578 C   0  0  0  0  0  0  0  0  0  0  0  0
  -23.1879  -24.3811   17.4946 C   0  0  0  0  0  0  0  0  0  0  0  0
  -23.1268  -10.0356   20.7771 C   0  0  0  0  0  0  0  0  0  0  0  0
  -23.0493   -7.5897   22.1166 C   0  0  0  0  0  0  0  0  0  0  0  0
  -22.2026   -9.8305   21.8014 C   0  0  0  0  0  0  0  0  0  0  0  0
  -27.9315  -14.1679   20.3026 C   0  0  0  0  0  0  0  0  0  0  0  0
  -27.3191  -19.7156   17.9764 C   0  0  0  0  0  0  0  0  0  0  0  0
  -30.0432  -14.7794   20.2636 C   0  0  0  0  0  0  0  0  0  0  0  0
  -29.6838  -12.3406   19.8495 C   0  0  0  0  0  0  0  0  0  0  0  0
  -26.0175  -27.0912   21.2512 C   0  0  0  0  0  0  0  0  0  0  0  0
  -23.2089  -27.7808   22.7206 C   0  0  0  0  0  0  0  0  0  0  0  0
  -28.9776  -20.6465   19.5195 C   0  0  0  0  0  0  0  0  0  0  0  0
  -19.8123  -27.4542   22.7776 C   0  0  0  0  0  0  0  0  0  0  0  0
  -30.7975  -28.8819   21.2937 C   0  0  0  0  0  0  0  0  0  0  0  0
  -24.6518  -27.9879   19.3311 C   0  0  0  0  0  0  0  0  0  0  0  0
  -23.1381  -26.0098   20.9251 C   0  0  0  0  0  0  0  0  0  0  0  0
  -29.6271  -28.8708   22.2736 C   0  0  0  0  0  0  0  0  0  0  0  0
  -30.2444  -19.0212   22.4510 C   0  0  0  0  0  0  0  0  0  0  0  0
  -29.0415  -27.4671   22.3898 C   0  0  0  0  0  0  0  0  0  0  0  0
  -29.8883  -17.5518   22.2290 C   0  0  0  0  0  0  0  0  0  0  0  0
  -29.1734  -19.9472   21.8832 C   0  0  0  0  0  0  0  0  0  0  0  0
  -28.5144  -18.2436   20.2144 C   0  0  0  0  0  0  0  0  0  0  0  0
  -28.4944  -26.9843   21.0410 C   0  0  1  0  0  0  0  0  0  0  0  0
  -24.8093  -27.8869   20.8452 C   0  0  1  0  0  0  0  0  0  0  0  0
  -29.5852  -17.2745   20.7459 C   0  0  2  0  0  0  0  0  0  0  0  0
  -28.7066  -21.3750   15.7436 C   0  0  0  0  0  0  0  0  0  0  0  0
  -17.7938  -28.0973   24.1228 C   0  0  0  0  0  0  0  0  0  0  0  0
  -29.8584  -19.2605   17.7655 C   0  0  0  0  0  0  0  0  0  0  0  0
  -23.9133  -25.6526   24.7905 C   0  0  0  0  0  0  0  0  0  0  0  0
  -21.5178  -25.6670   25.5182 C   0  0  0  0  0  0  0  0  0  0  0  0
  -22.8985  -27.7331   25.7372 C   0  0  0  0  0  0  0  0  0  0  0  0
  -21.3135  -19.3207   18.2069 C   0  0  0  0  0  0  0  0  0  0  0  0
  -18.6435  -28.9651   20.5171 C   0  0  0  0  0  0  0  0  0  0  0  0
  -28.9245  -21.5566   17.2423 C   0  0  0  0  0  0  0  0  0  0  0  0
  -23.7730  -19.2353   18.6860 C   0  0  0  0  0  0  0  0  0  0  0  0
  -22.6093  -22.0874   17.7396 C   0  0  0  0  0  0  0  0  0  1  0  0
  -22.1544  -26.9770   23.4422 C   0  0  1  0  0  0  0  0  0  0  0  0
  -18.7052  -28.4757   22.9656 C   0  0  2  0  0  0  0  0  0  0  0  0
  -28.6843  -20.2497   18.0946 C   0  0  1  0  0  0  0  0  0  0  0  0
  -22.6279  -26.5020   24.8450 C   0  0  0  0  0  0  0  0  0  0  0  0
  -22.7081  -19.5046   17.6012 C   0  0  2  0  0  0  0  0  0  0  0  0
  -22.8325  -20.8545   16.8796 C   0  0  0  0  0  0  0  0  0  0  0  0
  -27.0180  -18.7714   17.0269 N   0  0  0  0  0  0  0  0  0  0  0  0
  -27.9038  -15.4817   20.5414 N   0  0  0  0  0  0  0  0  0  0  0  0
  -25.2065  -19.2669   18.2121 N   0  0  0  0  0  0  0  0  0  0  0  0
  -29.2028  -15.8246   20.5116 N   0  0  0  0  0  0  0  0  0  0  0  0
  -23.6520  -27.2668   21.4937 N   0  0  0  0  0  0  0  0  0  0  0  0
  -28.8982  -19.6371   20.4792 N   0  0  0  0  0  0  0  0  0  0  0  0
  -31.3811  -14.9480   20.1993 N   0  0  0  0  0  0  0  0  0  0  0  0
  -28.7238  -11.3260   19.7345 N   0  0  0  0  0  0  0  0  0  0  0  0
  -27.2106  -27.5943   20.7687 N   0  0  0  0  0  0  0  0  0  0  0  0
  -20.9542  -27.8062   23.4658 N   0  0  0  0  0  0  0  0  0  0  0  0
  -17.8784  -28.5768   21.7299 N   0  3  0  0  0  0  0  0  0  0  0  0
  -30.8988  -12.0527   19.7287 O   0  0  0  0  0  0  0  0  0  0  0  0
  -25.8777  -26.0955   21.9517 O   0  0  0  0  0  0  0  0  0  0  0  0
  -23.6192  -28.8298   23.2235 O   0  0  0  0  0  0  0  0  0  0  0  0
  -29.2712  -21.8184   19.7699 O   0  0  0  0  0  0  0  0  0  0  0  0
  -19.6765  -26.4432   22.0921 O   0  0  0  0  0  0  0  0  0  0  0  0
  -23.1661  -11.2488   20.1106 O   0  0  0  0  0  0  0  0  0  0  0  0
  -22.7213  -23.2437   16.9110 O   0  0  0  0  0  0  0  0  0  1  0  0
  -23.0111   -6.4148   22.7587 F   0  0  0  0  0  0  0  0  0  0  0  0
  -21.3486  -10.8041   22.1457 F   0  0  0  0  0  0  0  0  0  0  0  0
  -22.8335  -18.5329   16.6416 F   0  0  0  0  0  0  0  0  0  0  0  0
  -24.0582  -20.9429   16.2975 F   0  0  0  0  0  0  0  0  0  0  0  0
  -21.9332  -20.8782   15.8554 F   0  0  0  0  0  0  0  0  0  0  0  0
  1  2  1  0  0  0  0
  1  5  2  0  0  0  0
  2  6  2  0  0  0  0
  3  8  2  0  0  0  0
  3 17  1  0  0  0  0
  4  9  1  0  0  0  0
  4 17  2  0  0  0  0
  5 19  1  0  0  0  0
  6 21  1  0  0  0  0
  7 10  2  0  0  0  0
  7 20  1  0  0  0  0
  8 23  1  0  0  0  0
  9 23  2  0  0  0  0
 10 24  1  0  0  0  0
 11 12  2  0  0  0  0
 11 25  1  0  0  0  0
 12 26  1  0  0  0  0
 13 22  1  0  0  0  0
 13 24  2  0  0  0  0
 14 26  2  0  0  0  0
 14 27  1  0  0  0  0
 15 29  2  0  0  0  0
 15 67  1  0  0  0  0
 16 65  2  0  0  0  0
 16 67  1  0  0  0  0
 17 28  1  0  0  0  0
 18 28  1  0  0  0  0
 18 30  2  0  0  0  0
 18 31  1  0  0  0  0
 19 21  2  0  0  0  0
 19 36  1  0  0  0  0
 20 22  2  0  0  0  0
 20 37  1  0  0  0  0
 21 45  1  0  0  0  0
 22 38  1  0  0  0  0
 23 81  1  0  0  0  0
 24 82  1  0  0  0  0
 25 27  2  0  0  0  0
 25 81  1  0  0  0  0
 26 83  1  0  0  0  0
 27 84  1  0  0  0  0
 28 66  2  0  0  0  0
 29 61  1  0  0  0  0
 29 65  1  0  0  0  0
 30 68  1  0  0  0  0
 30 71  1  0  0  0  0
 31 72  1  0  0  0  0
 31 76  2  0  0  0  0
 32 46  1  0  0  0  0
 32 73  1  0  0  0  0
 32 77  2  0  0  0  0
 33 59  1  0  0  0  0
 33 69  1  0  0  0  0
 33 78  2  0  0  0  0
 34 61  1  0  0  0  0
 34 70  1  0  0  0  0
 34 79  2  0  0  0  0
 35 60  1  0  0  0  0
 35 74  1  0  0  0  0
 35 80  2  0  0  0  0
 36 39  1  0  0  0  0
 37 46  1  0  0  0  0
 38 69  1  0  0  0  0
 39 41  1  0  0  0  0
 40 42  1  0  0  0  0
 40 43  1  0  0  0  0
 41 45  1  0  0  0  0
 42 47  1  0  0  0  0
 43 70  1  0  0  0  0
 44 47  1  0  0  0  0
 44 70  1  0  0  0  0
 45 73  1  0  0  0  0
 46 69  1  0  0  0  0
 47 68  1  0  0  0  0
 48 56  1  0  0  0  0
 49 60  1  0  0  0  0
 50 61  1  0  0  0  0
 51 62  1  0  0  0  0
 52 62  1  0  0  0  0
 53 62  1  0  0  0  0
 54 63  1  0  0  0  0
 55 75  1  0  0  0  0
 56 61  1  0  0  0  0
 57 63  1  0  0  0  0
 57 67  1  0  0  0  0
 58 64  1  0  0  0  0
 58 82  1  0  0  0  0
 59 62  1  0  0  0  0
 59 74  1  0  0  0  0
 60 75  1  0  0  0  0
 63 64  1  0  0  0  0
 63 85  1  0  0  0  0
 64 86  1  0  0  0  0
 64 87  1  0  0  0  0
 66 68  1  0  0  0  0
M  CHG  1  75   1
M  ISO  4  34 100  58 101  61 100  82 101
M  END
> <Batch ID>
0077

> <Smiles>
CC[100C:0](C)(c1cn(CC(C)(F)C(F)(F)[101CH2:1][101O:1]c2ccc3c(c2)CN(C(=O)C(NC(=O)C(C)NC)C(C)(C)C)C(C(=O)NC2CCCc4ccccc42)C3)cn1)[100C:0](=O)N1CCCC(n2nc(-c3ccc(Oc4ccc(F)cc4F)cc3)c(C(N)=O)c2N)C1

> <Shape>
0.260

> <Color>
0.066

> <Negative vol penalty>
0.000

$$$$

  -OEChem-04052318373D

 85 93  0     1  0  0  0  0  0999 V2000
  -32.9750  -14.3192   21.2515 C   0  0  0  0  0  0  0  0  0  0  0  0
  -32.2013  -15.2240   21.9713 C   0  0  0  0  0  0  0  0  0  0  0  0
  -26.6451  -28.7367   19.1610 C   0  0  0  0  0  0  0  0  0  0  0  0
  -26.0679  -27.2650   20.9880 C   0  0  0  0  0  0  0  0  0  0  0  0
  -32.4134  -13.6163   20.1864 C   0  0  0  0  0  0  0  0  0  0  0  0
  -30.8657  -15.4272   21.6258 C   0  0  0  0  0  0  0  0  0  0  0  0
  -26.2196  -16.6256   25.4315 C   0  0  0  0  0  0  0  0  0  0  0  0
  -25.6320  -29.6141   19.5477 C   0  0  0  0  0  0  0  0  0  0  0  0
  -25.0549  -28.1424   21.3748 C   0  0  0  0  0  0  0  0  0  0  0  0
  -25.5887  -17.8141   25.7964 C   0  0  0  0  0  0  0  0  0  0  0  0
  -21.9075  -28.8993   20.3989 C   0  0  0  0  0  0  0  0  0  0  0  0
  -20.6648  -28.3533   20.7198 C   0  0  0  0  0  0  0  0  0  0  0  0
  -23.8860  -17.4131   24.1354 C   0  0  0  0  0  0  0  0  0  0  0  0
  -20.8371  -29.2705   22.9482 C   0  0  0  0  0  0  0  0  0  0  0  0
  -25.5685  -20.7305   22.6529 C   0  0  0  0  0  0  0  0  0  0  0  0
  -26.8630  -27.5621   19.8812 C   0  0  0  0  0  0  0  0  0  0  0  0
  -29.2496  -26.6618   19.9110 C   0  0  0  0  0  0  0  0  0  0  0  0
  -31.0677  -13.8038   19.8337 C   0  0  0  0  0  0  0  0  0  0  0  0
  -25.6935  -15.8261   24.4066 C   0  0  0  0  0  0  0  0  0  0  0  0
  -30.2860  -14.7270   20.5541 C   0  0  0  0  0  0  0  0  0  0  0  0
  -24.5107  -16.2137   23.7611 C   0  0  0  0  0  0  0  0  0  0  0  0
  -24.8369  -29.3170   20.6546 C   0  0  0  0  0  0  0  0  0  0  0  0
  -24.4233  -18.2095   25.1464 C   0  0  0  0  0  0  0  0  0  0  0  0
  -22.6152  -29.6309   21.3527 C   0  0  0  0  0  0  0  0  0  0  0  0
  -20.1295  -28.5389   21.9944 C   0  0  0  0  0  0  0  0  0  0  0  0
  -22.0799  -29.8165   22.6274 C   0  0  0  0  0  0  0  0  0  0  0  0
  -27.9089  -26.6551   19.4818 C   0  0  0  0  0  0  0  0  0  0  0  0
  -26.7991  -21.0178   22.1334 C   0  0  0  0  0  0  0  0  0  0  0  0
  -29.8282  -25.6083   19.2463 C   0  0  0  0  0  0  0  0  0  0  0  0
  -26.1201  -22.7762   23.2943 C   0  0  0  0  0  0  0  0  0  0  0  0
  -29.9127  -27.5415   20.8286 C   0  0  0  0  0  0  0  0  0  0  0  0
  -26.7347  -14.8456   21.5678 C   0  0  0  0  0  0  0  0  0  0  0  0
  -24.0041  -13.0950   21.6057 C   0  0  0  0  0  0  0  0  0  0  0  0
  -28.4753  -20.2539   17.4443 C   0  0  0  0  0  0  0  0  0  0  0  0
  -20.8324  -12.6998   22.8016 C   0  0  0  0  0  0  0  0  0  0  0  0
  -30.5178  -13.0561   18.6449 C   0  0  0  0  0  0  0  0  0  0  0  0
  -26.3713  -14.5334   24.0430 C   0  0  0  0  0  0  0  0  0  0  0  0
  -23.8941  -15.3807   22.6682 C   0  0  0  0  0  0  0  0  0  0  0  0
  -28.9927  -13.0523   18.5800 C   0  0  0  0  0  0  0  0  0  0  0  0
  -28.7453  -23.0217   15.1846 C   0  0  0  0  0  0  0  0  0  0  0  0
  -28.4443  -14.4539   18.8281 C   0  0  0  0  0  0  0  0  0  0  0  0
  -28.6555  -24.2423   16.0997 C   0  0  0  0  0  0  0  0  0  0  0  0
  -27.8644  -21.8818   15.6862 C   0  0  0  0  0  0  0  0  0  0  0  0
  -28.0504  -22.6962   18.0150 C   0  0  0  0  0  0  0  0  0  0  0  0
  -28.8267  -14.9566   20.2254 C   0  0  1  0  0  0  0  0  0  0  0  0
  -26.0309  -14.0557   22.6347 C   0  0  1  0  0  0  0  0  0  0  0  0
  -28.9491  -23.8602   17.5612 C   0  0  2  0  0  0  0  0  0  0  0  0
  -26.0924  -24.1207   23.9224 C   0  0  0  0  0  0  0  0  0  0  0  0
  -18.8324  -11.1948   22.6214 C   0  0  0  0  0  0  0  0  0  0  0  0
  -26.2398  -19.6366   19.3081 C   0  0  0  0  0  0  0  0  0  0  0  0
  -29.0847  -18.5027   19.0032 C   0  0  0  0  0  0  0  0  0  0  0  0
  -30.0231  -20.8065   19.2810 C   0  0  0  0  0  0  0  0  0  0  0  0
  -23.3273  -14.3232   18.8958 C   0  0  0  0  0  0  0  0  0  0  0  0
  -20.9665  -13.5528   19.2144 C   0  0  0  0  0  0  0  0  0  0  0  0
  -22.8158  -11.8831   19.0922 C   0  0  0  0  0  0  0  0  0  0  0  0
  -20.9472  -12.0099   25.6774 C   0  0  0  0  0  0  0  0  0  0  0  0
  -27.7043  -20.2279   21.2948 C   0  0  0  0  0  0  0  0  0  0  0  0
  -24.0045  -21.7571   25.6257 C   0  0  0  0  0  0  0  0  0  0  0  0
  -23.8699  -21.9634   24.1154 C   0  0  0  0  0  0  0  0  0  0  0  0
  -24.6332  -20.4197   25.9990 C   0  0  0  0  0  0  0  0  0  1  0  0
  -22.5812  -13.3239   21.1565 C   0  0  1  0  0  0  0  0  0  0  0  0
  -20.1169  -11.4920   23.3793 C   0  0  2  0  0  0  0  0  0  0  0  0
  -27.5060  -20.3945   19.7436 C   0  0  1  0  0  0  0  0  0  0  0  0
  -28.7695  -20.0049   18.9022 C   0  0  0  0  0  0  0  0  0  0  0  0
  -22.4351  -13.2876   19.6090 C   0  0  0  0  0  0  0  0  0  0  0  0
  -27.6509  -25.6752   18.6116 N   0  0  0  0  0  0  0  0  0  0  0  0
  -25.1726  -21.8358   23.3669 N   0  0  0  0  0  0  0  0  0  0  0  0
  -28.8375  -25.0564   18.4886 N   0  0  0  0  0  0  0  0  0  0  0  0
  -27.1155  -22.2897   22.5459 N   0  3  0  0  0  0  0  0  0  0  0  0
  -24.5975  -14.1286   22.3443 N   0  0  0  0  0  0  0  0  0  0  0  0
  -28.1583  -21.5639   17.0846 N   0  0  0  0  0  0  0  0  0  0  0  0
  -31.0826  -25.1095   19.2417 N   0  0  0  0  0  0  0  0  0  0  0  0
  -29.1699  -28.5711   21.4223 N   0  0  0  0  0  0  0  0  0  0  0  0
  -27.9797  -14.3502   21.2301 N   0  0  0  0  0  0  0  0  0  0  0  0
  -21.7681  -12.3354   21.8567 N   0  0  0  0  0  0  0  0  0  0  0  0
  -19.7742  -11.7283   24.8103 N   0  3  0  0  0  0  0  0  0  0  0  0
  -31.1320  -27.4284   21.1010 O   0  0  0  0  0  0  0  0  0  0  0  0
  -26.1882  -15.8308   21.0857 O   0  0  0  0  0  0  0  0  0  0  0  0
  -24.5660  -12.0352   21.3181 O   0  0  0  0  0  0  0  0  0  0  0  0
  -28.5289  -19.3114   16.6498 O   0  0  0  0  0  0  0  0  0  0  0  0
  -20.5833  -13.8515   23.1508 O   0  0  0  0  0  0  0  0  0  0  0  0
  -23.8485  -30.1730   21.0324 O   0  0  0  0  0  0  0  0  0  0  0  0
  -23.8058  -19.3694   25.5002 O   0  0  0  0  0  0  0  0  0  1  0  0
  -18.9354  -28.0158   22.3019 F   0  0  0  0  0  0  0  0  0  0  0  0
  -22.7545  -30.5194   23.5475 F   0  0  0  0  0  0  0  0  0  0  0  0
  1  2  1  0  0  0  0
  1  5  2  0  0  0  0
  2  6  2  0  0  0  0
  3  8  2  0  0  0  0
  3 16  1  0  0  0  0
  4  9  1  0  0  0  0
  4 16  2  0  0  0  0
  5 18  1  0  0  0  0
  6 20  1  0  0  0  0
  7 10  2  0  0  0  0
  7 19  1  0  0  0  0
  8 22  1  0  0  0  0
  9 22  2  0  0  0  0
 10 23  1  0  0  0  0
 11 12  2  0  0  0  0
 11 24  1  0  0  0  0
 12 25  1  0  0  0  0
 13 21  1  0  0  0  0
 13 23  2  0  0  0  0
 14 25  2  0  0  0  0
 14 26  1  0  0  0  0
 15 28  2  0  0  0  0
 15 67  1  0  0  0  0
 16 27  1  0  0  0  0
 17 27  1  0  0  0  0
 17 29  2  0  0  0  0
 17 31  1  0  0  0  0
 18 20  2  0  0  0  0
 18 36  1  0  0  0  0
 19 21  2  0  0  0  0
 19 37  1  0  0  0  0
 20 45  1  0  0  0  0
 21 38  1  0  0  0  0
 22 82  1  0  0  0  0
 23 83  1  0  0  0  0
 24 26  2  0  0  0  0
 24 82  1  0  0  0  0
 25 84  1  0  0  0  0
 26 85  1  0  0  0  0
 27 66  2  0  0  0  0
 28 57  1  0  0  0  0
 28 69  1  0  0  0  0
 29 68  1  0  0  0  0
 29 72  1  0  0  0  0
 30 48  1  0  0  0  0
 30 67  1  0  0  0  0
 30 69  2  0  0  0  0
 31 73  1  0  0  0  0
 31 77  2  0  0  0  0
 32 46  1  0  0  0  0
 32 74  1  0  0  0  0
 32 78  2  0  0  0  0
 33 61  1  0  0  0  0
 33 70  1  0  0  0  0
 33 79  2  0  0  0  0
 34 64  1  0  0  0  0
 34 71  1  0  0  0  0
 34 80  2  0  0  0  0
 35 62  1  0  0  0  0
 35 75  1  0  0  0  0
 35 81  2  0  0  0  0
 36 39  1  0  0  0  0
 37 46  1  0  0  0  0
 38 70  1  0  0  0  0
 39 41  1  0  0  0  0
 40 42  1  0  0  0  0
 40 43  1  0  0  0  0
 41 45  1  0  0  0  0
 42 47  1  0  0  0  0
 43 71  1  0  0  0  0
 44 47  1  0  0  0  0
 44 71  1  0  0  0  0
 45 74  1  0  0  0  0
 46 70  1  0  0  0  0
 47 68  1  0  0  0  0
 49 62  1  0  0  0  0
 50 63  1  0  0  0  0
 51 64  1  0  0  0  0
 52 64  1  0  0  0  0
 53 65  1  0  0  0  0
 54 65  1  0  0  0  0
 55 65  1  0  0  0  0
 56 76  1  0  0  0  0
 57 63  1  0  0  0  0
 58 59  1  0  0  0  0
 58 60  1  0  0  0  0
 59 67  1  0  0  0  0
 60 83  1  0  0  0  0
 61 65  1  0  0  0  0
 61 75  1  0  0  0  0
 62 76  1  0  0  0  0
 63 64  1  0  0  0  0
 66 68  1  0  0  0  0
M  CHG  2  69   1  76   1
M  ISO  4  34 100  60 101  64 100  83 101
M  END
> <Batch ID>
0077

> <Smiles>
CNC(C)C(=O)NC(C(=O)N1Cc2cc([101O:1][101CH2:1]CCn3cc(CC(C)[100C:0](C)(C)[100C:0](=O)N4CCCC(n5nc(-c6ccc(Oc7ccc(F)cc7F)cc6)c(C(N)=O)c5N)C4)nc3C)ccc2CC1C(=O)NC1CCCc2ccccc21)C(C)(C)C

> <Shape>
0.239

> <Color>
0.055

> <Negative vol penalty>
0.000

$$$$

  -OEChem-04052318373D

 84 92  0     1  0  0  0  0  0999 V2000
  -31.0777  -33.8159   25.5601 C   0  0  0  0  0  0  0  0  0  0  0  0
  -31.0395  -33.0122   24.4252 C   0  0  0  0  0  0  0  0  0  0  0  0
  -26.3881  -13.0582   19.0925 C   0  0  0  0  0  0  0  0  0  0  0  0
  -24.6116  -13.7346   20.5836 C   0  0  0  0  0  0  0  0  0  0  0  0
  -30.1424  -33.6290   26.5770 C   0  0  0  0  0  0  0  0  0  0  0  0
  -30.0665  -32.0204   24.3070 C   0  0  0  0  0  0  0  0  0  0  0  0
  -27.2912  -30.1798   19.1673 C   0  0  0  0  0  0  0  0  0  0  0  0
  -26.3774  -11.7832   19.6579 C   0  0  0  0  0  0  0  0  0  0  0  0
  -24.6008  -12.4595   21.1491 C   0  0  0  0  0  0  0  0  0  0  0  0
  -27.5134  -29.0972   18.3174 C   0  0  0  0  0  0  0  0  0  0  0  0
  -23.3901   -9.4018   20.3713 C   0  0  0  0  0  0  0  0  0  0  0  0
  -22.1502   -8.7986   20.5826 C   0  0  0  0  0  0  0  0  0  0  0  0
  -25.8037  -27.8473   19.4724 C   0  0  0  0  0  0  0  0  0  0  0  0
  -29.4105  -23.8212   20.3836 C   0  0  0  0  0  0  0  0  0  0  0  0
  -22.6152   -8.6723   22.9501 C   0  0  0  0  0  0  0  0  0  0  0  0
  -25.5053  -14.0340   19.5553 C   0  0  0  0  0  0  0  0  0  0  0  0
  -24.7625  -15.7999   17.8709 C   0  0  0  0  0  0  0  0  0  0  0  0
  -29.1514  -32.6408   26.4669 C   0  0  0  0  0  0  0  0  0  0  0  0
  -26.3296  -30.1002   20.1848 C   0  0  0  0  0  0  0  0  0  0  0  0
  -29.1178  -31.8193   25.3239 C   0  0  0  0  0  0  0  0  0  0  0  0
  -25.5695  -28.9312   20.3323 C   0  0  0  0  0  0  0  0  0  0  0  0
  -29.5297  -24.5330   19.1951 C   0  0  0  0  0  0  0  0  0  0  0  0
  -28.5154  -24.4660   18.2464 C   0  0  0  0  0  0  0  0  0  0  0  0
  -25.4837  -11.4838   20.6862 C   0  0  0  0  0  0  0  0  0  0  0  0
  -26.7716  -27.9297   18.4717 C   0  0  0  0  0  0  0  0  0  0  0  0
  -24.2425   -9.6401   21.4494 C   0  0  0  0  0  0  0  0  0  0  0  0
  -21.7628   -8.4339   21.8720 C   0  0  0  0  0  0  0  0  0  0  0  0
  -23.8551   -9.2754   22.7387 C   0  0  0  0  0  0  0  0  0  0  0  0
  -25.5163  -15.3514   18.9720 C   0  0  0  0  0  0  0  0  0  0  0  0
  -28.2664  -23.0633   20.5737 C   0  0  0  0  0  0  0  0  0  0  0  0
  -27.4113  -23.6790   18.5321 C   0  0  0  0  0  0  0  0  0  0  0  0
  -25.1308  -17.1139   17.7150 C   0  0  0  0  0  0  0  0  0  0  0  0
  -23.8142  -15.0921   17.0614 C   0  0  0  0  0  0  0  0  0  0  0  0
  -26.4030  -30.2637   23.3584 C   0  0  0  0  0  0  0  0  0  0  0  0
  -23.1756  -30.1617   23.0495 C   0  0  0  0  0  0  0  0  0  0  0  0
  -27.2818  -21.0429   21.6152 C   0  0  0  0  0  0  0  0  0  0  0  0
  -20.4719  -29.2647   21.1700 C   0  0  0  0  0  0  0  0  0  0  0  0
  -28.1910  -32.4449   27.6132 C   0  0  0  0  0  0  0  0  0  0  0  0
  -26.0833  -31.2864   21.0763 C   0  0  0  0  0  0  0  0  0  0  0  0
  -24.5110  -28.8023   21.3960 C   0  0  0  0  0  0  0  0  0  0  0  0
  -26.9609  -31.6203   27.2430 C   0  0  0  0  0  0  0  0  0  0  0  0
  -28.7905  -20.0970   18.4441 C   0  0  0  0  0  0  0  0  0  0  0  0
  -27.3683  -30.3744   26.4630 C   0  0  0  0  0  0  0  0  0  0  0  0
  -28.0628  -18.7887   18.1376 C   0  0  0  0  0  0  0  0  0  0  0  0
  -29.0312  -20.2679   19.9417 C   0  0  0  0  0  0  0  0  0  0  0  0
  -27.0595  -18.8655   20.4615 C   0  0  0  0  0  0  0  0  0  0  0  0
  -28.0622  -30.7493   25.1479 C   0  0  1  0  0  0  0  0  0  0  0  0
  -25.4372  -30.9104   22.4062 C   0  0  1  0  0  0  0  0  0  0  0  0
  -26.7703  -18.6694   18.9639 C   0  0  2  0  0  0  0  0  0  0  0  0
  -30.7532  -25.3562   18.9617 C   0  0  0  0  0  0  0  0  0  0  0  0
  -25.0468  -22.9296   18.1662 C   0  0  0  0  0  0  0  0  0  0  0  0
  -17.9627  -29.2755   21.1975 C   0  0  0  0  0  0  0  0  0  0  0  0
  -27.3794  -23.1335   22.9191 C   0  0  0  0  0  0  0  0  0  0  0  0
  -29.4147  -21.7540   22.4852 C   0  0  0  0  0  0  0  0  0  0  0  0
  -23.1892  -27.8095   24.9929 C   0  0  0  0  0  0  0  0  0  0  0  0
  -20.8580  -27.2746   24.2528 C   0  0  0  0  0  0  0  0  0  0  0  0
  -21.3433  -29.4561   25.3610 C   0  0  0  0  0  0  0  0  0  0  0  0
  -20.3373  -30.9816   18.7631 C   0  0  0  0  0  0  0  0  0  0  0  0
  -28.6159  -25.2296   16.9483 C   0  0  0  0  0  0  0  0  0  0  0  0
  -26.2888  -23.5687   17.5526 C   0  0  0  0  0  0  0  0  0  0  0  0
  -28.3057  -26.7124   17.1223 C   0  0  0  0  0  0  0  0  0  1  0  0
  -22.1411  -29.0637   22.9943 C   0  0  1  0  0  0  0  0  0  0  0  0
  -19.2178  -30.0267   20.7814 C   0  0  2  0  0  0  0  0  0  0  0  0
  -28.1038  -22.2873   21.8379 C   0  0  0  0  0  0  0  0  0  0  0  0
  -21.9041  -28.4024   24.3813 C   0  0  0  0  0  0  0  0  0  0  0  0
  -26.3040  -16.3032   19.4797 N   0  0  0  0  0  0  0  0  0  0  0  0
  -27.2601  -22.9735   19.6754 N   0  0  0  0  0  0  0  0  0  0  0  0
  -26.0473  -17.3628   18.6939 N   0  0  0  0  0  0  0  0  0  0  0  0
  -24.3119  -29.9872   22.2469 N   0  0  0  0  0  0  0  0  0  0  0  0
  -27.7805  -20.1200   20.6956 N   0  0  0  0  0  0  0  0  0  0  0  0
  -24.7568  -18.0691   16.8374 N   0  0  0  0  0  0  0  0  0  0  0  0
  -23.5533  -13.7476   17.3592 N   0  0  0  0  0  0  0  0  0  0  0  0
  -27.0865  -31.1579   24.1602 N   0  0  0  0  0  0  0  0  0  0  0  0
  -20.9466  -29.6575   22.4035 N   0  0  0  0  0  0  0  0  0  0  0  0
  -19.1740  -30.2342   19.3063 N   0  3  0  0  0  0  0  0  0  0  0  0
  -23.2280  -15.6311   16.0921 O   0  0  0  0  0  0  0  0  0  0  0  0
  -26.5184  -29.0438   23.3662 O   0  0  0  0  0  0  0  0  0  0  0  0
  -22.9793  -31.1417   23.7725 O   0  0  0  0  0  0  0  0  0  0  0  0
  -26.2270  -20.8986   22.2387 O   0  0  0  0  0  0  0  0  0  0  0  0
  -20.9777  -28.4043   20.4527 O   0  0  0  0  0  0  0  0  0  0  0  0
  -25.4728  -10.2396   21.2380 O   0  0  0  0  0  0  0  0  0  0  0  0
  -26.9870  -26.8713   17.6439 O   0  0  0  0  0  0  0  0  0  1  0  0
  -20.5715   -7.8562   22.0750 F   0  0  0  0  0  0  0  0  0  0  0  0
  -24.6693   -9.5029   23.7785 F   0  0  0  0  0  0  0  0  0  0  0  0
  1  2  1  0  0  0  0
  1  5  2  0  0  0  0
  2  6  2  0  0  0  0
  3  8  2  0  0  0  0
  3 16  1  0  0  0  0
  4  9  1  0  0  0  0
  4 16  2  0  0  0  0
  5 18  1  0  0  0  0
  6 20  1  0  0  0  0
  7 10  2  0  0  0  0
  7 19  1  0  0  0  0
  8 24  1  0  0  0  0
  9 24  2  0  0  0  0
 10 25  1  0  0  0  0
 11 12  2  0  0  0  0
 11 26  1  0  0  0  0
 12 27  1  0  0  0  0
 13 21  1  0  0  0  0
 13 25  2  0  0  0  0
 14 22  2  0  0  0  0
 14 30  1  0  0  0  0
 15 27  2  0  0  0  0
 15 28  1  0  0  0  0
 16 29  1  0  0  0  0
 17 29  1  0  0  0  0
 17 32  2  0  0  0  0
 17 33  1  0  0  0  0
 18 20  2  0  0  0  0
 18 38  1  0  0  0  0
 19 21  2  0  0  0  0
 19 39  1  0  0  0  0
 20 47  1  0  0  0  0
 21 40  1  0  0  0  0
 22 23  1  0  0  0  0
 22 50  1  0  0  0  0
 23 31  2  0  0  0  0
 23 59  1  0  0  0  0
 24 81  1  0  0  0  0
 25 82  1  0  0  0  0
 26 28  2  0  0  0  0
 26 81  1  0  0  0  0
 27 83  1  0  0  0  0
 28 84  1  0  0  0  0
 29 66  2  0  0  0  0
 30 64  1  0  0  0  0
 30 67  2  0  0  0  0
 31 60  1  0  0  0  0
 31 67  1  0  0  0  0
 32 68  1  0  0  0  0
 32 71  1  0  0  0  0
 33 72  1  0  0  0  0
 33 76  2  0  0  0  0
 34 48  1  0  0  0  0
 34 73  1  0  0  0  0
 34 77  2  0  0  0  0
 35 62  1  0  0  0  0
 35 69  1  0  0  0  0
 35 78  2  0  0  0  0
 36 64  1  0  0  0  0
 36 70  1  0  0  0  0
 36 79  2  0  0  0  0
 37 63  1  0  0  0  0
 37 74  1  0  0  0  0
 37 80  2  0  0  0  0
 38 41  1  0  0  0  0
 39 48  1  0  0  0  0
 40 69  1  0  0  0  0
 41 43  1  0  0  0  0
 42 44  1  0  0  0  0
 42 45  1  0  0  0  0
 43 47  1  0  0  0  0
 44 49  1  0  0  0  0
 45 70  1  0  0  0  0
 46 49  1  0  0  0  0
 46 70  1  0  0  0  0
 47 73  1  0  0  0  0
 48 69  1  0  0  0  0
 49 68  1  0  0  0  0
 51 60  1  0  0  0  0
 52 63  1  0  0  0  0
 53 64  1  0  0  0  0
 54 64  1  0  0  0  0
 55 65  1  0  0  0  0
 56 65  1  0  0  0  0
 57 65  1  0  0  0  0
 58 75  1  0  0  0  0
 59 61  1  0  0  0  0
 61 82  1  0  0  0  0
 62 65  1  0  0  0  0
 62 74  1  0  0  0  0
 63 75  1  0  0  0  0
 66 68  1  0  0  0  0
M  CHG  1  75   1
M  ISO  4  36 100  61 101  64 100  82 101
M  END
> <Batch ID>
0077

> <Smiles>
CCc1nc([100C:0](C)(C)[100C:0](=O)N2CCCC(n3nc(-c4ccc(Oc5ccc(F)cc5F)cc4)c(C(N)=O)c3N)C2)cc(C)c1C[101CH2:1][101O:1]c1ccc2c(c1)CN(C(=O)C(NC(=O)C(C)NC)C(C)(C)C)C(C(=O)NC1CCCc3ccccc31)C2

> <Shape>
0.254

> <Color>
0.066

> <Negative vol penalty>
0.000

$$$$

  -OEChem-04052318373D

 82 90  0     1  0  0  0  0  0999 V2000
  -18.3942  -26.6264   21.9781 C   0  0  0  0  0  0  0  0  0  0  0  0
  -19.4259  -27.0908   21.1686 C   0  0  0  0  0  0  0  0  0  0  0  0
  -27.9828  -17.3066   20.9315 C   0  0  0  0  0  0  0  0  0  0  0  0
  -27.6922  -17.7638   18.5770 C   0  0  0  0  0  0  0  0  0  0  0  0
  -18.2910  -27.0686   23.2963 C   0  0  0  0  0  0  0  0  0  0  0  0
  -20.3544  -27.9986   21.6766 C   0  0  0  0  0  0  0  0  0  0  0  0
  -25.1178  -26.8002   20.4441 C   0  0  0  0  0  0  0  0  0  0  0  0
  -26.8966  -16.4322   20.8958 C   0  0  0  0  0  0  0  0  0  0  0  0
  -26.6060  -16.8894   18.5413 C   0  0  0  0  0  0  0  0  0  0  0  0
  -25.5370  -27.1065   19.1502 C   0  0  0  0  0  0  0  0  0  0  0  0
  -26.2836  -13.2609   19.8959 C   0  0  0  0  0  0  0  0  0  0  0  0
  -26.4224  -12.0284   20.5341 C   0  0  0  0  0  0  0  0  0  0  0  0
  -26.6413  -29.0832   19.9824 C   0  0  0  0  0  0  0  0  0  0  0  0
  -24.5647  -12.5685   21.9813 C   0  0  0  0  0  0  0  0  0  0  0  0
  -27.2398  -25.7521   14.0221 C   0  0  0  0  0  0  0  0  0  0  0  0
  -28.3805  -17.9725   19.7721 C   0  0  0  0  0  0  0  0  0  0  0  0
  -30.8552  -18.5616   19.5802 C   0  0  0  0  0  0  0  0  0  0  0  0
  -19.2244  -27.9749   23.8236 C   0  0  0  0  0  0  0  0  0  0  0  0
  -25.4486  -27.6403   21.5171 C   0  0  0  0  0  0  0  0  0  0  0  0
  -20.2629  -28.4544   23.0027 C   0  0  0  0  0  0  0  0  0  0  0  0
  -26.2273  -28.7839   21.2893 C   0  0  0  0  0  0  0  0  0  0  0  0
  -26.2082  -16.2236   19.7007 C   0  0  0  0  0  0  0  0  0  0  0  0
  -26.2964  -28.2497   18.9187 C   0  0  0  0  0  0  0  0  0  0  0  0
  -25.2854  -14.1473   20.3005 C   0  0  0  0  0  0  0  0  0  0  0  0
  -25.5629  -11.6822   21.5767 C   0  0  0  0  0  0  0  0  0  0  0  0
  -24.4260  -13.8011   21.3432 C   0  0  0  0  0  0  0  0  0  0  0  0
  -29.5021  -18.8762   19.8085 C   0  0  0  0  0  0  0  0  0  0  0  0
  -31.5155  -19.7566   19.7299 C   0  0  0  0  0  0  0  0  0  0  0  0
  -28.6605  -25.6273   15.6577 C   0  0  0  0  0  0  0  0  0  0  0  0
  -31.4609  -17.3018   19.2613 C   0  0  0  0  0  0  0  0  0  0  0  0
  -23.7906  -29.3770   23.5999 C   0  0  0  0  0  0  0  0  0  0  0  0
  -26.7105  -29.8626   24.9268 C   0  0  0  0  0  0  0  0  0  0  0  0
  -30.0983  -29.9472   24.5235 C   0  0  0  0  0  0  0  0  0  0  0  0
  -29.7996  -25.4638   19.1514 C   0  0  0  0  0  0  0  0  0  0  0  0
  -19.0443  -28.4606   25.2401 C   0  0  0  0  0  0  0  0  0  0  0  0
  -25.0113  -27.2816   22.9108 C   0  0  0  0  0  0  0  0  0  0  0  0
  -26.6263  -29.7077   22.4100 C   0  0  0  0  0  0  0  0  0  0  0  0
  -20.2869  -29.1353   25.8153 C   0  0  0  0  0  0  0  0  0  0  0  0
  -31.2165  -23.9364   22.0386 C   0  0  0  0  0  0  0  0  0  0  0  0
  -20.8673  -30.1283   24.8134 C   0  0  0  0  0  0  0  0  0  0  0  0
  -31.0599  -22.4380   21.7739 C   0  0  0  0  0  0  0  0  0  0  0  0
  -30.0257  -24.7310   21.5069 C   0  0  0  0  0  0  0  0  0  0  0  0
  -29.5521  -22.9967   19.8212 C   0  0  0  0  0  0  0  0  0  0  0  0
  -21.3040  -29.4206   23.5249 C   0  0  1  0  0  0  0  0  0  0  0  0
  -24.9707  -28.4817   23.8518 C   0  0  1  0  0  0  0  0  0  0  0  0
  -30.7547  -22.1597   20.2898 C   0  0  2  0  0  0  0  0  0  0  0  0
  -31.6730  -25.1337   15.5776 C   0  0  0  0  0  0  0  0  0  0  0  0
  -32.5161  -30.1329   25.1692 C   0  0  0  0  0  0  0  0  0  0  0  0
  -26.1497  -32.8573   24.7602 C   0  0  0  0  0  0  0  0  0  0  0  0
  -28.5945  -33.2641   25.1153 C   0  0  0  0  0  0  0  0  0  0  0  0
  -27.2533  -32.1189   26.8795 C   0  0  0  0  0  0  0  0  0  0  0  0
  -30.2942  -27.0459   25.0739 C   0  0  0  0  0  0  0  0  0  0  0  0
  -31.0118  -26.3193   16.2698 C   0  0  0  0  0  0  0  0  0  0  0  0
  -26.4938  -28.5751   15.2669 C   0  0  0  0  0  0  0  0  0  0  0  0
  -27.8983  -28.0114   15.0403 C   0  0  0  0  0  0  0  0  0  0  0  0
  -25.8681  -28.1270   16.5826 C   0  0  0  0  0  0  0  0  0  1  0  0
  -29.5602  -26.0406   16.7495 C   0  0  2  0  0  0  0  0  0  0  0  0
  -27.8107  -30.8806   24.7469 C   0  0  1  0  0  0  0  0  0  0  0  0
  -31.2257  -29.3476   25.3445 C   0  0  2  0  0  0  0  0  0  0  0  0
  -27.4431  -32.2640   25.3538 C   0  0  0  0  0  0  0  0  0  0  0  0
  -27.5193  -24.4815   14.2061 N   0  0  0  0  0  0  0  0  0  0  0  0
  -29.3126  -20.1697   20.0825 N   0  0  0  0  0  0  0  0  0  0  0  0
  -28.4232  -24.4021   15.2466 N   0  0  0  0  0  0  0  0  0  0  0  0
  -27.9363  -26.5093   14.9145 N   0  0  0  0  0  0  0  0  0  0  0  0
  -30.5553  -20.6784   20.0275 N   0  0  0  0  0  0  0  0  0  0  0  0
  -26.1692  -29.3174   23.7540 N   0  0  0  0  0  0  0  0  0  0  0  0
  -29.7907  -24.4226   20.0942 N   0  0  0  0  0  0  0  0  0  0  0  0
  -32.8181  -20.0983   19.6347 N   0  0  0  0  0  0  0  0  0  0  0  0
  -30.6364  -16.1744   19.1449 N   0  0  0  0  0  0  0  0  0  0  0  0
  -22.5682  -28.7446   23.7231 N   0  0  0  0  0  0  0  0  0  0  0  0
  -29.0164  -30.2824   25.3098 N   0  0  0  0  0  0  0  0  0  0  0  0
  -29.5747  -25.0841   17.8338 N   0  0  0  0  0  0  0  0  0  0  0  0
  -31.4740  -27.9374   24.9313 N   0  3  0  0  0  0  0  0  0  0  0  0
  -32.6987  -17.1764   19.1009 O   0  0  0  0  0  0  0  0  0  0  0  0
  -23.9754  -30.5548   23.3164 O   0  0  0  0  0  0  0  0  0  0  0  0
  -26.3498  -29.5570   26.0662 O   0  0  0  0  0  0  0  0  0  0  0  0
  -30.1716  -30.1059   23.3070 O   0  0  0  0  0  0  0  0  0  0  0  0
  -29.9990  -26.6436   19.4602 O   0  0  0  0  0  0  0  0  0  0  0  0
  -25.1484  -15.3703   19.6655 O   0  0  0  0  0  0  0  0  0  0  0  0
  -26.7063  -28.5514   17.6566 O   0  0  0  0  0  0  0  0  0  1  0  0
  -25.6953  -10.4979   22.1884 F   0  0  0  0  0  0  0  0  0  0  0  0
  -23.4644  -14.6480   21.7355 F   0  0  0  0  0  0  0  0  0  0  0  0
  1  2  1  0  0  0  0
  1  5  2  0  0  0  0
  2  6  2  0  0  0  0
  3  8  2  0  0  0  0
  3 16  1  0  0  0  0
  4  9  1  0  0  0  0
  4 16  2  0  0  0  0
  5 18  1  0  0  0  0
  6 20  1  0  0  0  0
  7 10  2  0  0  0  0
  7 19  1  0  0  0  0
  8 22  1  0  0  0  0
  9 22  2  0  0  0  0
 10 23  1  0  0  0  0
 11 12  2  0  0  0  0
 11 24  1  0  0  0  0
 12 25  1  0  0  0  0
 13 21  1  0  0  0  0
 13 23  2  0  0  0  0
 14 25  2  0  0  0  0
 14 26  1  0  0  0  0
 15 61  2  0  0  0  0
 15 64  1  0  0  0  0
 16 27  1  0  0  0  0
 17 27  1  0  0  0  0
 17 28  2  0  0  0  0
 17 30  1  0  0  0  0
 18 20  2  0  0  0  0
 18 35  1  0  0  0  0
 19 21  2  0  0  0  0
 19 36  1  0  0  0  0
 20 44  1  0  0  0  0
 21 37  1  0  0  0  0
 22 79  1  0  0  0  0
 23 80  1  0  0  0  0
 24 26  2  0  0  0  0
 24 79  1  0  0  0  0
 25 81  1  0  0  0  0
 26 82  1  0  0  0  0
 27 62  2  0  0  0  0
 28 65  1  0  0  0  0
 28 68  1  0  0  0  0
 29 57  1  0  0  0  0
 29 63  2  0  0  0  0
 29 64  1  0  0  0  0
 30 69  1  0  0  0  0
 30 74  2  0  0  0  0
 31 45  1  0  0  0  0
 31 70  1  0  0  0  0
 31 75  2  0  0  0  0
 32 58  1  0  0  0  0
 32 66  1  0  0  0  0
 32 76  2  0  0  0  0
 33 59  1  0  0  0  0
 33 71  1  0  0  0  0
 33 77  2  0  0  0  0
 34 67  1  0  0  0  0
 34 72  1  0  0  0  0
 34 78  2  0  0  0  0
 35 38  1  0  0  0  0
 36 45  1  0  0  0  0
 37 66  1  0  0  0  0
 38 40  1  0  0  0  0
 39 41  1  0  0  0  0
 39 42  1  0  0  0  0
 40 44  1  0  0  0  0
 41 46  1  0  0  0  0
 42 67  1  0  0  0  0
 43 46  1  0  0  0  0
 43 67  1  0  0  0  0
 44 70  1  0  0  0  0
 45 66  1  0  0  0  0
 46 65  1  0  0  0  0
 47 53  1  0  0  0  0
 48 59  1  0  0  0  0
 49 60  1  0  0  0  0
 50 60  1  0  0  0  0
 51 60  1  0  0  0  0
 52 73  1  0  0  0  0
 53 57  1  0  0  0  0
 54 55  1  0  0  0  0
 54 56  1  0  0  0  0
 55 64  1  0  0  0  0
 56 80  1  0  0  0  0
 57 72  1  0  0  0  0
 58 60  1  0  0  0  0
 58 71  1  0  0  0  0
 59 73  1  0  0  0  0
 61 63  1  0  0  0  0
 62 65  1  0  0  0  0
M  CHG  1  73   1
M  ISO  4  34 100  56 101  72 100  80 101
M  END
> <Batch ID>
0077

> <Smiles>
CCC([100NH:0][100C:0](=O)N1CCCC(n2nc(-c3ccc(Oc4ccc(F)cc4F)cc3)c(C(N)=O)c2N)C1)c1nncn1CC[101CH2:1][101O:1]c1ccc2c(c1)CN(C(=O)C(NC(=O)C(C)NC)C(C)(C)C)C(C(=O)NC1CCCc3ccccc31)C2

> <Shape>
0.260

> <Color>
0.086

> <Negative vol penalty>
0.000

$$$$

  -OEChem-04052318373D

 84 92  0     1  0  0  0  0  0999 V2000
  -29.9055  -23.9478   16.9090 C   0  0  0  0  0  0  0  0  0  0  0  0
  -28.6490  -24.0006   17.5038 C   0  0  0  0  0  0  0  0  0  0  0  0
  -22.7500  -10.5841   22.3153 C   0  0  0  0  0  0  0  0  0  0  0  0
  -22.5069  -10.3881   19.9196 C   0  0  0  0  0  0  0  0  0  0  0  0
  -30.9807  -24.6161   17.4932 C   0  0  0  0  0  0  0  0  0  0  0  0
  -28.4672  -24.7208   18.6839 C   0  0  0  0  0  0  0  0  0  0  0  0
  -24.2826  -27.5715   18.5950 C   0  0  0  0  0  0  0  0  0  0  0  0
  -22.2840   -9.2785   22.4695 C   0  0  0  0  0  0  0  0  0  0  0  0
  -22.0409   -9.0824   20.0737 C   0  0  0  0  0  0  0  0  0  0  0  0
  -23.0667  -26.9245   18.8111 C   0  0  0  0  0  0  0  0  0  0  0  0
  -23.5080   -6.1428   22.1500 C   0  0  0  0  0  0  0  0  0  0  0  0
  -24.1990   -5.3072   23.0274 C   0  0  0  0  0  0  0  0  0  0  0  0
  -23.0824  -27.6736   21.1041 C   0  0  0  0  0  0  0  0  0  0  0  0
  -22.1937   -5.0346   24.3471 C   0  0  0  0  0  0  0  0  0  0  0  0
  -21.9037  -21.5789   20.3558 C   0  0  0  0  0  0  0  0  0  0  0  0
  -21.4456  -21.5198   18.2060 C   0  0  0  0  0  0  0  0  0  0  0  0
  -22.8614  -11.1389   21.0404 C   0  0  0  0  0  0  0  0  0  0  0  0
  -24.6776  -12.8998   20.7111 C   0  0  0  0  0  0  0  0  0  0  0  0
  -30.8098  -25.3528   18.6759 C   0  0  0  0  0  0  0  0  0  0  0  0
  -24.9140  -28.2665   19.6365 C   0  0  0  0  0  0  0  0  0  0  0  0
  -29.5414  -25.3985   19.2853 C   0  0  0  0  0  0  0  0  0  0  0  0
  -24.3050  -28.3308   20.8979 C   0  0  0  0  0  0  0  0  0  0  0  0
  -20.9826  -22.0329   19.3929 C   0  0  0  0  0  0  0  0  0  0  0  0
  -21.9295   -8.5276   21.3487 C   0  0  0  0  0  0  0  0  0  0  0  0
  -22.4678  -26.9730   20.0665 C   0  0  0  0  0  0  0  0  0  0  0  0
  -22.1598   -6.4244   22.3712 C   0  0  0  0  0  0  0  0  0  0  0  0
  -23.5419   -4.7531   24.1260 C   0  0  0  0  0  0  0  0  0  0  0  0
  -21.5027   -5.8703   23.4697 C   0  0  0  0  0  0  0  0  0  0  0  0
  -23.3422  -12.4878   20.8805 C   0  0  0  0  0  0  0  0  0  0  0  0
  -24.6043  -14.2673   20.6058 C   0  0  0  0  0  0  0  0  0  0  0  0
  -25.8771  -12.1165   20.6539 C   0  0  0  0  0  0  0  0  0  0  0  0
  -27.6868  -27.9833   21.1646 C   0  0  0  0  0  0  0  0  0  0  0  0
  -26.7478  -30.7501   22.5736 C   0  0  0  0  0  0  0  0  0  0  0  0
  -24.1878  -32.8200   23.4730 C   0  0  0  0  0  0  0  0  0  0  0  0
  -20.7671  -18.1182   18.2541 C   0  0  0  0  0  0  0  0  0  0  0  0
  -32.0122  -26.0196   19.2958 C   0  0  0  0  0  0  0  0  0  0  0  0
  -26.2121  -28.9816   19.3800 C   0  0  0  0  0  0  0  0  0  0  0  0
  -24.9319  -29.0806   22.0439 C   0  0  0  0  0  0  0  0  0  0  0  0
  -31.6534  -27.0697   20.3441 C   0  0  0  0  0  0  0  0  0  0  0  0
  -21.3052  -17.7053   21.8930 C   0  0  0  0  0  0  0  0  0  0  0  0
  -30.5940  -26.5299   21.2996 C   0  0  0  0  0  0  0  0  0  0  0  0
  -21.9447  -16.3205   21.9801 C   0  0  0  0  0  0  0  0  0  0  0  0
  -20.3928  -17.8332   20.6769 C   0  0  0  0  0  0  0  0  0  0  0  0
  -21.6946  -16.1080   19.4756 C   0  0  0  0  0  0  0  0  0  0  0  0
  -29.2989  -26.1897   20.5522 C   0  0  1  0  0  0  0  0  0  0  0  0
  -27.0199  -29.2278   20.6506 C   0  0  1  0  0  0  0  0  0  0  0  0
  -22.6563  -15.9611   20.6642 C   0  0  2  0  0  0  0  0  0  0  0  0
  -23.7287  -34.9904   24.6460 C   0  0  0  0  0  0  0  0  0  0  0  0
  -18.9463  -23.2149   18.3220 C   0  0  0  0  0  0  0  0  0  0  0  0
  -18.7622  -22.1369   20.5466 C   0  0  0  0  0  0  0  0  0  0  0  0
  -27.2113  -29.3905   25.2655 C   0  0  0  0  0  0  0  0  0  0  0  0
  -25.8661  -31.2098   26.3374 C   0  0  0  0  0  0  0  0  0  0  0  0
  -27.9878  -31.7649   25.1486 C   0  0  0  0  0  0  0  0  0  0  0  0
  -21.4372  -18.3086   15.8889 C   0  0  0  0  0  0  0  0  0  0  0  0
  -22.9917  -34.0137   21.0434 C   0  0  0  0  0  0  0  0  0  0  0  0
  -20.1045  -24.2516   20.3109 C   0  0  0  0  0  0  0  0  0  0  0  0
  -23.4135  -20.0942   17.5946 C   0  0  0  0  0  0  0  0  0  0  0  0
  -23.1716  -18.5873   17.6208 C   0  0  0  0  0  0  0  0  0  0  0  0
  -21.0182  -25.1734   19.5045 C   0  0  0  0  0  0  0  0  0  1  0  0
  -25.9501  -31.1058   23.8049 C   0  0  1  0  0  0  0  0  0  0  0  0
  -23.9980  -34.3172   23.3092 C   0  0  2  0  0  0  0  0  0  0  0  0
  -19.7345  -22.9058   19.6174 C   0  0  0  0  0  0  0  0  0  0  0  0
  -26.7427  -30.8519   25.1182 C   0  0  0  0  0  0  0  0  0  0  0  0
  -22.8782  -20.8344   19.8264 N   0  0  0  0  0  0  0  0  0  0  0  0
  -22.4834  -13.5108   20.8835 N   0  0  0  0  0  0  0  0  0  0  0  0
  -22.5719  -20.8167   18.5180 N   0  0  0  0  0  0  0  0  0  0  0  0
  -23.2810  -14.5791   20.7147 N   0  0  0  0  0  0  0  0  0  0  0  0
  -26.2043  -29.7582   21.7450 N   0  0  0  0  0  0  0  0  0  0  0  0
  -21.0813  -17.4443   19.4457 N   0  0  0  0  0  0  0  0  0  0  0  0
  -25.5433  -15.2214   20.4317 N   0  0  0  0  0  0  0  0  0  0  0  0
  -25.7726  -10.7244   20.7792 N   0  0  0  0  0  0  0  0  0  0  0  0
  -28.5515  -27.3945   20.2618 N   0  0  0  0  0  0  0  0  0  0  0  0
  -25.5172  -32.4874   23.6259 N   0  0  0  0  0  0  0  0  0  0  0  0
  -21.7887  -18.2406   17.3001 N   0  0  0  0  0  0  0  0  0  0  0  0
  -22.8493  -34.5975   22.4021 N   0  3  0  0  0  0  0  0  0  0  0  0
  -27.0097  -12.6369   20.5128 O   0  0  0  0  0  0  0  0  0  0  0  0
  -27.4365  -27.5874   22.2970 O   0  0  0  0  0  0  0  0  0  0  0  0
  -27.8103  -31.3360   22.3512 O   0  0  0  0  0  0  0  0  0  0  0  0
  -23.2502  -32.0254   23.4697 O   0  0  0  0  0  0  0  0  0  0  0  0
  -19.6407  -18.5921   18.0583 O   0  0  0  0  0  0  0  0  0  0  0  0
  -21.4749   -7.2535   21.4987 O   0  0  0  0  0  0  0  0  0  0  0  0
  -21.2813  -26.3418   20.2803 O   0  0  0  0  0  0  0  0  0  1  0  0
  -24.2052   -3.9495   24.9676 F   0  0  0  0  0  0  0  0  0  0  0  0
  -20.2073   -6.1362   23.6867 F   0  0  0  0  0  0  0  0  0  0  0  0
  1  2  1  0  0  0  0
  1  5  2  0  0  0  0
  2  6  2  0  0  0  0
  3  8  2  0  0  0  0
  3 17  1  0  0  0  0
  4  9  1  0  0  0  0
  4 17  2  0  0  0  0
  5 19  1  0  0  0  0
  6 21  1  0  0  0  0
  7 10  2  0  0  0  0
  7 20  1  0  0  0  0
  8 24  1  0  0  0  0
  9 24  2  0  0  0  0
 10 25  1  0  0  0  0
 11 12  2  0  0  0  0
 11 26  1  0  0  0  0
 12 27  1  0  0  0  0
 13 22  1  0  0  0  0
 13 25  2  0  0  0  0
 14 27  2  0  0  0  0
 14 28  1  0  0  0  0
 15 23  1  0  0  0  0
 15 64  2  0  0  0  0
 16 23  2  0  0  0  0
 16 66  1  0  0  0  0
 17 29  1  0  0  0  0
 18 29  1  0  0  0  0
 18 30  2  0  0  0  0
 18 31  1  0  0  0  0
 19 21  2  0  0  0  0
 19 36  1  0  0  0  0
 20 22  2  0  0  0  0
 20 37  1  0  0  0  0
 21 45  1  0  0  0  0
 22 38  1  0  0  0  0
 23 62  1  0  0  0  0
 24 81  1  0  0  0  0
 25 82  1  0  0  0  0
 26 28  2  0  0  0  0
 26 81  1  0  0  0  0
 27 83  1  0  0  0  0
 28 84  1  0  0  0  0
 29 65  2  0  0  0  0
 30 67  1  0  0  0  0
 30 70  1  0  0  0  0
 31 71  1  0  0  0  0
 31 76  2  0  0  0  0
 32 46  1  0  0  0  0
 32 72  1  0  0  0  0
 32 77  2  0  0  0  0
 33 60  1  0  0  0  0
 33 68  1  0  0  0  0
 33 78  2  0  0  0  0
 34 61  1  0  0  0  0
 34 73  1  0  0  0  0
 34 79  2  0  0  0  0
 35 69  1  0  0  0  0
 35 74  1  0  0  0  0
 35 80  2  0  0  0  0
 36 39  1  0  0  0  0
 37 46  1  0  0  0  0
 38 68  1  0  0  0  0
 39 41  1  0  0  0  0
 40 42  1  0  0  0  0
 40 43  1  0  0  0  0
 41 45  1  0  0  0  0
 42 47  1  0  0  0  0
 43 69  1  0  0  0  0
 44 47  1  0  0  0  0
 44 69  1  0  0  0  0
 45 72  1  0  0  0  0
 46 68  1  0  0  0  0
 47 67  1  0  0  0  0
 48 61  1  0  0  0  0
 49 62  1  0  0  0  0
 50 62  1  0  0  0  0
 51 63  1  0  0  0  0
 52 63  1  0  0  0  0
 53 63  1  0  0  0  0
 54 74  1  0  0  0  0
 55 75  1  0  0  0  0
 56 59  1  0  0  0  0
 56 62  1  0  0  0  0
 57 58  1  0  0  0  0
 57 66  1  0  0  0  0
 58 74  1  0  0  0  0
 59 82  1  0  0  0  0
 60 63  1  0  0  0  0
 60 73  1  0  0  0  0
 61 75  1  0  0  0  0
 64 66  1  0  0  0  0
 65 67  1  0  0  0  0
M  CHG  1  75   1
M  ISO  4  35 100  59 101  74 100  82 101
M  END
> <Batch ID>
0077

> <Smiles>
CNC(C)C(=O)NC(C(=O)N1Cc2cc([101O:1][101CH2:1]CC(C)(C)c3cnn(CC[100N:0](C)[100C:0](=O)N4CCCC(n5nc(-c6ccc(Oc7ccc(F)cc7F)cc6)c(C(N)=O)c5N)C4)c3)ccc2CC1C(=O)NC1CCCc2ccccc21)C(C)(C)C

> <Shape>
0.272

> <Color>
0.118

> <Negative vol penalty>
0.000

$$$$

  -OEChem-04052318373D

 83 91  0     1  0  0  0  0  0999 V2000
  -27.6222  -31.7582   24.1899 C   0  0  0  0  0  0  0  0  0  0  0  0
  -27.1484  -30.4557   24.3108 C   0  0  0  0  0  0  0  0  0  0  0  0
  -23.7179   -9.7188   19.8176 C   0  0  0  0  0  0  0  0  0  0  0  0
  -24.3277   -9.8171   22.1533 C   0  0  0  0  0  0  0  0  0  0  0  0
  -28.2380  -32.1679   23.0080 C   0  0  0  0  0  0  0  0  0  0  0  0
  -27.2892  -29.5625   23.2493 C   0  0  0  0  0  0  0  0  0  0  0  0
  -28.9030  -25.0026   24.7484 C   0  0  0  0  0  0  0  0  0  0  0  0
  -23.2305   -8.4246   19.9993 C   0  0  0  0  0  0  0  0  0  0  0  0
  -23.8403   -8.5229   22.3350 C   0  0  0  0  0  0  0  0  0  0  0  0
  -27.9620  -24.1533   25.3289 C   0  0  0  0  0  0  0  0  0  0  0  0
  -20.8351   -7.0262   22.7216 C   0  0  0  0  0  0  0  0  0  0  0  0
  -20.0405   -6.7861   23.8425 C   0  0  0  0  0  0  0  0  0  0  0  0
  -27.7405  -22.9771   23.2344 C   0  0  0  0  0  0  0  0  0  0  0  0
  -21.6310   -5.1410   24.6177 C   0  0  0  0  0  0  0  0  0  0  0  0
  -28.1020  -19.2903   26.1145 C   0  0  0  0  0  0  0  0  0  0  0  0
  -24.2666  -10.4151   20.8946 C   0  0  0  0  0  0  0  0  0  0  0  0
  -24.0557  -12.9568   20.8435 C   0  0  0  0  0  0  0  0  0  0  0  0
  -28.3951  -31.2764   21.9350 C   0  0  0  0  0  0  0  0  0  0  0  0
  -29.2624  -24.8521   23.4014 C   0  0  0  0  0  0  0  0  0  0  0  0
  -27.9065  -29.9610   22.0514 C   0  0  0  0  0  0  0  0  0  0  0  0
  -28.6882  -23.8242   22.6400 C   0  0  0  0  0  0  0  0  0  0  0  0
  -23.2917   -7.8266   21.2580 C   0  0  0  0  0  0  0  0  0  0  0  0
  -27.3784  -23.1422   24.5711 C   0  0  0  0  0  0  0  0  0  0  0  0
  -22.0277   -6.3237   22.5487 C   0  0  0  0  0  0  0  0  0  0  0  0
  -20.4384   -5.8435   24.7905 C   0  0  0  0  0  0  0  0  0  0  0  0
  -22.4257   -5.3811   23.4967 C   0  0  0  0  0  0  0  0  0  0  0  0
  -24.7707  -11.7518   20.7074 C   0  0  0  0  0  0  0  0  0  0  0  0
  -28.3346  -18.2672   25.2393 C   0  0  0  0  0  0  0  0  0  0  0  0
  -24.9768  -13.9362   20.5626 C   0  0  0  0  0  0  0  0  0  0  0  0
  -26.1778  -18.7591   25.1576 C   0  0  0  0  0  0  0  0  0  0  0  0
  -22.6818  -13.1717   21.1927 C   0  0  0  0  0  0  0  0  0  0  0  0
  -29.0527  -26.6763   20.8067 C   0  0  0  0  0  0  0  0  0  0  0  0
  -30.7552  -24.2698   19.4529 C   0  0  0  0  0  0  0  0  0  0  0  0
  -31.6616  -20.9799   19.4988 C   0  0  0  0  0  0  0  0  0  0  0  0
  -30.0869  -16.1120   21.1090 C   0  0  0  0  0  0  0  0  0  0  0  0
  -29.0249  -31.7788   20.6601 C   0  0  0  0  0  0  0  0  0  0  0  0
  -30.2988  -25.7596   22.7974 C   0  0  0  0  0  0  0  0  0  0  0  0
  -29.0548  -23.6078   21.1952 C   0  0  0  0  0  0  0  0  0  0  0  0
  -29.4705  -30.6619   19.7196 C   0  0  0  0  0  0  0  0  0  0  0  0
  -29.6328  -13.6150   18.6119 C   0  0  0  0  0  0  0  0  0  0  0  0
  -28.3731  -29.6116   19.5804 C   0  0  0  0  0  0  0  0  0  0  0  0
  -28.2720  -13.0033   18.9495 C   0  0  0  0  0  0  0  0  0  0  0  0
  -30.4106  -13.9908   19.8712 C   0  0  0  0  0  0  0  0  0  0  0  0
  -28.3203  -14.2482   21.1510 C   0  0  0  0  0  0  0  0  0  0  0  0
  -28.0628  -28.9556   20.9313 C   0  0  1  0  0  0  0  0  0  0  0  0
  -30.2093  -25.8401   21.2766 C   0  0  1  0  0  0  0  0  0  0  0  0
  -27.4755  -13.9044   19.9123 C   0  0  2  0  0  0  0  0  0  0  0  0
  -24.7429  -18.7313   24.7794 C   0  0  0  0  0  0  0  0  0  0  0  0
  -33.0346  -19.2972   18.2415 C   0  0  0  0  0  0  0  0  0  0  0  0
  -26.1376  -20.3641   28.3498 C   0  0  0  0  0  0  0  0  0  0  0  0
  -28.6008  -24.1264   17.2971 C   0  0  0  0  0  0  0  0  0  0  0  0
  -29.4961  -21.8796   16.6500 C   0  0  0  0  0  0  0  0  0  0  0  0
  -30.9425  -23.9020   16.4483 C   0  0  0  0  0  0  0  0  0  0  0  0
  -33.3973  -20.4732   21.8417 C   0  0  0  0  0  0  0  0  0  0  0  0
  -29.5652  -17.5526   24.8904 C   0  0  0  0  0  0  0  0  0  0  0  0
  -30.3737  -18.1585   23.7115 C   0  0  0  0  0  0  0  0  0  0  0  0
  -29.6125  -18.1853   22.3878 C   0  0  0  0  0  0  0  0  0  0  0  0
  -26.5882  -22.0539   26.5325 C   0  0  0  0  0  0  0  0  0  1  0  0
  -30.4092  -22.9835   18.7426 C   0  0  1  0  0  0  0  0  0  0  0  0
  -33.0169  -20.3067   19.3787 C   0  0  2  0  0  0  0  0  0  0  0  0
  -26.0500  -20.6517   26.8484 C   0  0  1  0  0  0  0  0  0  0  0  0
  -29.8536  -23.2279   17.3112 C   0  0  0  0  0  0  0  0  0  0  0  0
  -26.0475  -11.9455   20.3664 N   0  0  0  0  0  0  0  0  0  0  0  0
  -26.7596  -19.5746   26.0431 N   0  0  0  0  0  0  0  0  0  0  0  0
  -26.1421  -13.2837   20.2858 N   0  0  0  0  0  0  0  0  0  0  0  0
  -27.1267  -17.9585   24.6616 N   0  3  0  0  0  0  0  0  0  0  0  0
  -30.0684  -24.5249   20.6483 N   0  0  0  0  0  0  0  0  0  0  0  0
  -29.6001  -14.8470   20.7406 N   0  0  0  0  0  0  0  0  0  0  0  0
  -24.8956  -15.2833   20.5279 N   0  0  0  0  0  0  0  0  0  0  0  0
  -21.8752  -12.0547   21.4495 N   0  0  0  0  0  0  0  0  0  0  0  0
  -29.0783  -27.9798   21.2644 N   0  0  0  0  0  0  0  0  0  0  0  0
  -31.6114  -22.1581   18.7841 N   0  0  0  0  0  0  0  0  0  0  0  0
  -29.2532  -16.8618   21.9297 N   0  0  0  0  0  0  0  0  0  0  0  0
  -33.3559  -19.5956   20.6437 N   0  3  0  0  0  0  0  0  0  0  0  0
  -22.1801  -14.3195   21.2585 O   0  0  0  0  0  0  0  0  0  0  0  0
  -28.2010  -26.1762   20.0813 O   0  0  0  0  0  0  0  0  0  0  0  0
  -31.6089  -25.0172   18.9688 O   0  0  0  0  0  0  0  0  0  0  0  0
  -30.7384  -20.5061   20.1574 O   0  0  0  0  0  0  0  0  0  0  0  0
  -31.1810  -16.5436   20.7298 O   0  0  0  0  0  0  0  0  0  0  0  0
  -22.8160   -6.5638   21.4357 O   0  0  0  0  0  0  0  0  0  0  0  0
  -26.4592  -22.3122   25.1350 O   0  0  0  0  0  0  0  0  0  1  0  0
  -19.6759   -5.6141   25.8677 F   0  0  0  0  0  0  0  0  0  0  0  0
  -23.5709   -4.7039   23.3367 F   0  0  0  0  0  0  0  0  0  0  0  0
  1  2  1  0  0  0  0
  1  5  2  0  0  0  0
  2  6  2  0  0  0  0
  3  8  2  0  0  0  0
  3 16  1  0  0  0  0
  4  9  1  0  0  0  0
  4 16  2  0  0  0  0
  5 18  1  0  0  0  0
  6 20  1  0  0  0  0
  7 10  2  0  0  0  0
  7 19  1  0  0  0  0
  8 22  1  0  0  0  0
  9 22  2  0  0  0  0
 10 23  1  0  0  0  0
 11 12  2  0  0  0  0
 11 24  1  0  0  0  0
 12 25  1  0  0  0  0
 13 21  1  0  0  0  0
 13 23  2  0  0  0  0
 14 25  2  0  0  0  0
 14 26  1  0  0  0  0
 15 28  2  0  0  0  0
 15 64  1  0  0  0  0
 16 27  1  0  0  0  0
 17 27  1  0  0  0  0
 17 29  2  0  0  0  0
 17 31  1  0  0  0  0
 18 20  2  0  0  0  0
 18 36  1  0  0  0  0
 19 21  2  0  0  0  0
 19 37  1  0  0  0  0
 20 45  1  0  0  0  0
 21 38  1  0  0  0  0
 22 80  1  0  0  0  0
 23 81  1  0  0  0  0
 24 26  2  0  0  0  0
 24 80  1  0  0  0  0
 25 82  1  0  0  0  0
 26 83  1  0  0  0  0
 27 63  2  0  0  0  0
 28 55  1  0  0  0  0
 28 66  1  0  0  0  0
 29 65  1  0  0  0  0
 29 69  1  0  0  0  0
 30 48  1  0  0  0  0
 30 64  1  0  0  0  0
 30 66  2  0  0  0  0
 31 70  1  0  0  0  0
 31 75  2  0  0  0  0
 32 46  1  0  0  0  0
 32 71  1  0  0  0  0
 32 76  2  0  0  0  0
 33 59  1  0  0  0  0
 33 67  1  0  0  0  0
 33 77  2  0  0  0  0
 34 60  1  0  0  0  0
 34 72  1  0  0  0  0
 34 78  2  0  0  0  0
 35 68  1  0  0  0  0
 35 73  1  0  0  0  0
 35 79  2  0  0  0  0
 36 39  1  0  0  0  0
 37 46  1  0  0  0  0
 38 67  1  0  0  0  0
 39 41  1  0  0  0  0
 40 42  1  0  0  0  0
 40 43  1  0  0  0  0
 41 45  1  0  0  0  0
 42 47  1  0  0  0  0
 43 68  1  0  0  0  0
 44 47  1  0  0  0  0
 44 68  1  0  0  0  0
 45 71  1  0  0  0  0
 46 67  1  0  0  0  0
 47 65  1  0  0  0  0
 49 60  1  0  0  0  0
 50 61  1  0  0  0  0
 51 62  1  0  0  0  0
 52 62  1  0  0  0  0
 53 62  1  0  0  0  0
 54 74  1  0  0  0  0
 55 56  1  0  0  0  0
 56 57  1  0  0  0  0
 57 73  1  0  0  0  0
 58 61  1  0  0  0  0
 58 81  1  0  0  0  0
 59 62  1  0  0  0  0
 59 72  1  0  0  0  0
 60 74  1  0  0  0  0
 61 64  1  0  0  0  0
 63 65  1  0  0  0  0
M  CHG  2  66   1  74   1
M  ISO  4  35 100  58 101  73 100  81 101
M  END
> <Batch ID>
0077

> <Smiles>
CNC(C)C(=O)NC(C(=O)N1Cc2cc([101O:1][101CH2:1]C(C)n3cc(CCC[100NH:0][100C:0](=O)N4CCCC(n5nc(-c6ccc(Oc7ccc(F)cc7F)cc6)c(C(N)=O)c5N)C4)nc3C)ccc2CC1C(=O)NC1CCCc2ccccc21)C(C)(C)C

> <Shape>
0.261

> <Color>
0.147

> <Negative vol penalty>
0.000

$$$$

  -OEChem-04052318373D

 84 92  0     1  0  0  0  0  0999 V2000
  -33.5867  -26.5740   18.0249 C   0  0  0  0  0  0  0  0  0  0  0  0
  -32.3210  -25.9989   17.9718 C   0  0  0  0  0  0  0  0  0  0  0  0
  -26.1513  -13.2019   20.5088 C   0  0  0  0  0  0  0  0  0  0  0  0
  -24.3191  -14.6712   19.9421 C   0  0  0  0  0  0  0  0  0  0  0  0
  -33.9340  -27.3940   19.0976 C   0  0  0  0  0  0  0  0  0  0  0  0
  -31.4023  -26.2426   18.9921 C   0  0  0  0  0  0  0  0  0  0  0  0
  -25.3267  -26.7657   18.4278 C   0  0  0  0  0  0  0  0  0  0  0  0
  -25.2611  -12.3377   21.1461 C   0  0  0  0  0  0  0  0  0  0  0  0
  -23.4288  -13.8070   20.5794 C   0  0  0  0  0  0  0  0  0  0  0  0
  -24.2837  -25.8658   18.6426 C   0  0  0  0  0  0  0  0  0  0  0  0
  -23.0343   -9.9541   20.2554 C   0  0  0  0  0  0  0  0  0  0  0  0
  -23.1658   -8.5882   20.0055 C   0  0  0  0  0  0  0  0  0  0  0  0
  -23.9727  -26.7647   20.8594 C   0  0  0  0  0  0  0  0  0  0  0  0
  -23.7615  -21.6354   21.0307 C   0  0  0  0  0  0  0  0  0  0  0  0
  -23.5534   -8.1951   22.3576 C   0  0  0  0  0  0  0  0  0  0  0  0
  -25.6803  -14.3687   19.9068 C   0  0  0  0  0  0  0  0  0  0  0  0
  -26.9934  -15.2326   17.8976 C   0  0  0  0  0  0  0  0  0  0  0  0
  -33.0158  -27.6557   20.1267 C   0  0  0  0  0  0  0  0  0  0  0  0
  -25.7082  -27.6661   19.4329 C   0  0  0  0  0  0  0  0  0  0  0  0
  -31.7382  -27.0658   20.0803 C   0  0  0  0  0  0  0  0  0  0  0  0
  -25.0191  -27.6768   20.6539 C   0  0  0  0  0  0  0  0  0  0  0  0
  -22.5063  -21.3845   20.5050 C   0  0  0  0  0  0  0  0  0  0  0  0
  -23.8999  -12.6402   21.1814 C   0  0  0  0  0  0  0  0  0  0  0  0
  -23.6085  -25.8632   19.8596 C   0  0  0  0  0  0  0  0  0  0  0  0
  -23.1625  -10.4406   21.5564 C   0  0  0  0  0  0  0  0  0  0  0  0
  -23.4253   -7.7087   21.0565 C   0  0  0  0  0  0  0  0  0  0  0  0
  -23.4219   -9.5611   22.6075 C   0  0  0  0  0  0  0  0  0  0  0  0
  -26.5994  -15.2622   19.2488 C   0  0  0  0  0  0  0  0  0  0  0  0
  -24.7453  -20.6870   20.8349 C   0  0  0  0  0  0  0  0  0  0  0  0
  -22.3180  -20.2020   19.8182 C   0  0  0  0  0  0  0  0  0  0  0  0
  -27.8718  -16.2812   17.7730 C   0  0  0  0  0  0  0  0  0  0  0  0
  -26.6005  -14.3375   16.8488 C   0  0  0  0  0  0  0  0  0  0  0  0
  -28.3633  -28.1647   21.1078 C   0  0  0  0  0  0  0  0  0  0  0  0
  -26.7137  -30.7251   22.2238 C   0  0  0  0  0  0  0  0  0  0  0  0
  -28.5348  -21.3558   20.9227 C   0  0  0  0  0  0  0  0  0  0  0  0
  -23.6877  -32.1870   22.8180 C   0  0  0  0  0  0  0  0  0  0  0  0
  -33.4530  -28.5106   21.2898 C   0  0  0  0  0  0  0  0  0  0  0  0
  -26.8177  -28.6486   19.1757 C   0  0  0  0  0  0  0  0  0  0  0  0
  -25.3766  -28.6369   21.7579 C   0  0  0  0  0  0  0  0  0  0  0  0
  -32.2930  -29.0203   22.1411 C   0  0  0  0  0  0  0  0  0  0  0  0
  -31.0201  -18.8564   20.2779 C   0  0  0  0  0  0  0  0  0  0  0  0
  -31.3161  -27.8887   22.4447 C   0  0  0  0  0  0  0  0  0  0  0  0
  -30.2023  -17.6401   19.8455 C   0  0  0  0  0  0  0  0  0  0  0  0
  -30.2921  -19.6682   21.3447 C   0  0  0  0  0  0  0  0  0  0  0  0
  -28.0973  -18.8832   20.5152 C   0  0  0  0  0  0  0  0  0  0  0  0
  -30.7055  -27.3263   21.1554 C   0  0  1  0  0  0  0  0  0  0  0  0
  -27.4599  -29.1732   20.4563 C   0  0  1  0  0  0  0  0  0  0  0  0
  -28.7832  -18.0525   19.4162 C   0  0  2  0  0  0  0  0  0  0  0  0
  -20.9922  -19.8632   19.2249 C   0  0  0  0  0  0  0  0  0  0  0  0
  -22.6583  -34.2664   23.7739 C   0  0  0  0  0  0  0  0  0  0  0  0
  -26.9169  -23.1606   20.5565 C   0  0  0  0  0  0  0  0  0  0  0  0
  -26.9944  -21.2155   18.9883 C   0  0  0  0  0  0  0  0  0  0  0  0
  -27.3026  -29.7178   25.0431 C   0  0  0  0  0  0  0  0  0  0  0  0
  -25.5023  -31.2389   25.8876 C   0  0  0  0  0  0  0  0  0  0  0  0
  -27.5097  -32.1934   24.7553 C   0  0  0  0  0  0  0  0  0  0  0  0
  -22.4093  -32.8787   20.2400 C   0  0  0  0  0  0  0  0  0  0  0  0
  -21.3960  -22.3878   20.6897 C   0  0  0  0  0  0  0  0  0  0  0  0
  -26.1141  -20.9086   21.3811 C   0  0  0  0  0  0  0  0  0  0  0  0
  -21.0996  -23.2159   19.4375 C   0  0  0  0  0  0  0  0  0  0  0  0
  -22.2672  -24.0950   19.0047 C   0  0  0  0  0  0  0  0  0  1  0  0
  -25.7754  -30.9708   23.3807 C   0  0  1  0  0  0  0  0  0  0  0  0
  -23.1650  -33.5796   22.5152 C   0  0  2  0  0  0  0  0  0  0  0  0
  -27.1299  -21.6414   20.4551 C   0  0  0  0  0  0  0  0  0  0  0  0
  -26.5168  -31.0107   24.7468 C   0  0  0  0  0  0  0  0  0  0  0  0
  -27.1800  -16.2511   19.9337 N   0  0  0  0  0  0  0  0  0  0  0  0
  -24.5328  -19.5383   20.1585 N   0  0  0  0  0  0  0  0  0  0  0  0
  -23.2991  -19.2919   19.6416 N   0  0  0  0  0  0  0  0  0  0  0  0
  -27.9478  -16.8526   19.0091 N   0  0  0  0  0  0  0  0  0  0  0  0
  -26.4726  -29.5738   21.4607 N   0  0  0  0  0  0  0  0  0  0  0  0
  -28.9401  -20.0211   20.9078 N   0  0  0  0  0  0  0  0  0  0  0  0
  -28.5788  -16.7609   16.7279 N   0  0  0  0  0  0  0  0  0  0  0  0
  -25.6893  -13.3157   17.1489 N   0  0  0  0  0  0  0  0  0  0  0  0
  -29.6699  -28.2077   20.6602 N   0  0  0  0  0  0  0  0  0  0  0  0
  -25.0449  -32.1926   23.0614 N   0  0  0  0  0  0  0  0  0  0  0  0
  -22.0452  -33.5106   21.5342 N   0  3  0  0  0  0  0  0  0  0  0  0
  -27.0569  -14.4305   15.6841 O   0  0  0  0  0  0  0  0  0  0  0  0
  -27.9089  -27.4049   21.9551 O   0  0  0  0  0  0  0  0  0  0  0  0
  -27.6224  -31.5289   22.0010 O   0  0  0  0  0  0  0  0  0  0  0  0
  -29.2501  -22.2927   21.2872 O   0  0  0  0  0  0  0  0  0  0  0  0
  -22.9637  -31.1941   22.8404 O   0  0  0  0  0  0  0  0  0  0  0  0
  -23.0309  -11.7969   21.8031 O   0  0  0  0  0  0  0  0  0  0  0  0
  -22.5906  -24.9853   20.0721 O   0  0  0  0  0  0  0  0  0  1  0  0
  -23.5500   -6.3968   20.8166 F   0  0  0  0  0  0  0  0  0  0  0  0
  -23.5449  -10.0224   23.8597 F   0  0  0  0  0  0  0  0  0  0  0  0
  1  2  1  0  0  0  0
  1  5  2  0  0  0  0
  2  6  2  0  0  0  0
  3  8  2  0  0  0  0
  3 16  1  0  0  0  0
  4  9  1  0  0  0  0
  4 16  2  0  0  0  0
  5 18  1  0  0  0  0
  6 20  1  0  0  0  0
  7 10  2  0  0  0  0
  7 19  1  0  0  0  0
  8 23  1  0  0  0  0
  9 23  2  0  0  0  0
 10 24  1  0  0  0  0
 11 12  2  0  0  0  0
 11 25  1  0  0  0  0
 12 26  1  0  0  0  0
 13 21  1  0  0  0  0
 13 24  2  0  0  0  0
 14 22  1  0  0  0  0
 14 29  2  0  0  0  0
 15 26  2  0  0  0  0
 15 27  1  0  0  0  0
 16 28  1  0  0  0  0
 17 28  1  0  0  0  0
 17 31  2  0  0  0  0
 17 32  1  0  0  0  0
 18 20  2  0  0  0  0
 18 37  1  0  0  0  0
 19 21  2  0  0  0  0
 19 38  1  0  0  0  0
 20 46  1  0  0  0  0
 21 39  1  0  0  0  0
 22 30  2  0  0  0  0
 22 57  1  0  0  0  0
 23 81  1  0  0  0  0
 24 82  1  0  0  0  0
 25 27  2  0  0  0  0
 25 81  1  0  0  0  0
 26 83  1  0  0  0  0
 27 84  1  0  0  0  0
 28 65  2  0  0  0  0
 29 58  1  0  0  0  0
 29 66  1  0  0  0  0
 30 49  1  0  0  0  0
 30 67  1  0  0  0  0
 31 68  1  0  0  0  0
 31 71  1  0  0  0  0
 32 72  1  0  0  0  0
 32 76  2  0  0  0  0
 33 47  1  0  0  0  0
 33 73  1  0  0  0  0
 33 77  2  0  0  0  0
 34 61  1  0  0  0  0
 34 69  1  0  0  0  0
 34 78  2  0  0  0  0
 35 63  1  0  0  0  0
 35 70  1  0  0  0  0
 35 79  2  0  0  0  0
 36 62  1  0  0  0  0
 36 74  1  0  0  0  0
 36 80  2  0  0  0  0
 37 40  1  0  0  0  0
 38 47  1  0  0  0  0
 39 69  1  0  0  0  0
 40 42  1  0  0  0  0
 41 43  1  0  0  0  0
 41 44  1  0  0  0  0
 42 46  1  0  0  0  0
 43 48  1  0  0  0  0
 44 70  1  0  0  0  0
 45 48  1  0  0  0  0
 45 70  1  0  0  0  0
 46 73  1  0  0  0  0
 47 69  1  0  0  0  0
 48 68  1  0  0  0  0
 50 62  1  0  0  0  0
 51 63  1  0  0  0  0
 52 63  1  0  0  0  0
 53 64  1  0  0  0  0
 54 64  1  0  0  0  0
 55 64  1  0  0  0  0
 56 75  1  0  0  0  0
 57 59  1  0  0  0  0
 58 63  1  0  0  0  0
 59 60  1  0  0  0  0
 60 82  1  0  0  0  0
 61 64  1  0  0  0  0
 61 74  1  0  0  0  0
 62 75  1  0  0  0  0
 65 68  1  0  0  0  0
 66 67  2  0  0  0  0
M  CHG  1  75   1
M  ISO  4  35 100  60 101  63 100  82 101
M  END
> <Batch ID>
0077

> <Smiles>
CNC(C)C(=O)NC(C(=O)N1Cc2cc([101O:1][101CH2:1]CCc3cc(C[100C:0](C)(C)[100C:0](=O)N4CCCC(n5nc(-c6ccc(Oc7ccc(F)cc7F)cc6)c(C(N)=O)c5N)C4)nnc3C)ccc2CC1C(=O)NC1CCCc2ccccc21)C(C)(C)C

> <Shape>
0.254

> <Color>
0.058

> <Negative vol penalty>
0.000

$$$$

  -OEChem-04052318373D

 85 93  0     1  0  0  0  0  0999 V2000
  -25.6518  -35.7048   22.4229 C   0  0  0  0  0  0  0  0  0  0  0  0
  -26.2423  -34.4455   22.3942 C   0  0  0  0  0  0  0  0  0  0  0  0
  -26.4555  -12.4689   21.5345 C   0  0  0  0  0  0  0  0  0  0  0  0
  -25.8345  -13.3688   19.3801 C   0  0  0  0  0  0  0  0  0  0  0  0
  -24.3029  -35.8336   22.7513 C   0  0  0  0  0  0  0  0  0  0  0  0
  -25.4845  -33.3143   22.6949 C   0  0  0  0  0  0  0  0  0  0  0  0
  -26.2927  -29.5146   19.4462 C   0  0  0  0  0  0  0  0  0  0  0  0
  -25.2152  -11.8377   21.6284 C   0  0  0  0  0  0  0  0  0  0  0  0
  -24.5942  -12.7376   19.4740 C   0  0  0  0  0  0  0  0  0  0  0  0
  -27.4589  -28.7694   19.6153 C   0  0  0  0  0  0  0  0  0  0  0  0
  -23.7338   -9.0607   20.3931 C   0  0  0  0  0  0  0  0  0  0  0  0
  -23.7126   -7.7338   20.8226 C   0  0  0  0  0  0  0  0  0  0  0  0
  -26.1907  -27.0504   20.7361 C   0  0  0  0  0  0  0  0  0  0  0  0
  -28.2086  -24.0689   19.9996 C   0  0  0  0  0  0  0  0  0  0  0  0
  -22.3296   -8.3639   22.7008 C   0  0  0  0  0  0  0  0  0  0  0  0
  -26.7652  -13.2346   20.4104 C   0  0  0  0  0  0  0  0  0  0  0  0
  -29.2268  -13.3634   19.7537 C   0  0  0  0  0  0  0  0  0  0  0  0
  -23.5258  -34.7025   23.0467 C   0  0  0  0  0  0  0  0  0  0  0  0
  -25.0665  -29.0374   19.9312 C   0  0  0  0  0  0  0  0  0  0  0  0
  -24.1242  -33.4282   23.0288 C   0  0  0  0  0  0  0  0  0  0  0  0
  -25.0100  -27.7903   20.5696 C   0  0  0  0  0  0  0  0  0  0  0  0
  -28.0580  -24.5935   21.2784 C   0  0  0  0  0  0  0  0  0  0  0  0
  -27.4007  -23.8531   22.2546 C   0  0  0  0  0  0  0  0  0  0  0  0
  -24.2846  -11.9720   20.5981 C   0  0  0  0  0  0  0  0  0  0  0  0
  -27.4085  -27.5385   20.2629 C   0  0  0  0  0  0  0  0  0  0  0  0
  -23.0530  -10.0392   21.1174 C   0  0  0  0  0  0  0  0  0  0  0  0
  -23.0105   -7.3854   21.9764 C   0  0  0  0  0  0  0  0  0  0  0  0
  -22.3509   -9.6908   22.2713 C   0  0  0  0  0  0  0  0  0  0  0  0
  -28.0460  -13.8873   20.3131 C   0  0  0  0  0  0  0  0  0  0  0  0
  -27.6879  -22.8095   19.7498 C   0  0  0  0  0  0  0  0  0  0  0  0
  -26.9160  -22.6034   21.9038 C   0  0  0  0  0  0  0  0  0  0  0  0
  -30.1528  -14.3665   19.9048 C   0  0  0  0  0  0  0  0  0  0  0  0
  -29.4653  -12.0844   19.1512 C   0  0  0  0  0  0  0  0  0  0  0  0
  -22.9544  -30.0548   22.0778 C   0  0  0  0  0  0  0  0  0  0  0  0
  -21.2154  -27.5459   20.9807 C   0  0  0  0  0  0  0  0  0  0  0  0
  -21.1768  -24.4968   19.4482 C   0  0  0  0  0  0  0  0  0  0  0  0
  -29.6734  -20.3098   20.4508 C   0  0  0  0  0  0  0  0  0  0  0  0
  -22.0832  -34.8960   23.4422 C   0  0  0  0  0  0  0  0  0  0  0  0
  -23.8132  -29.8410   19.7171 C   0  0  0  0  0  0  0  0  0  0  0  0
  -23.7153  -27.2241   21.0906 C   0  0  0  0  0  0  0  0  0  0  0  0
  -21.2580  -33.6131   23.3823 C   0  0  0  0  0  0  0  0  0  0  0  0
  -31.2340  -18.0691   22.7356 C   0  0  0  0  0  0  0  0  0  0  0  0
  -22.0083  -32.4641   24.0481 C   0  0  0  0  0  0  0  0  0  0  0  0
  -30.7004  -16.6960   22.3233 C   0  0  0  0  0  0  0  0  0  0  0  0
  -30.1716  -19.1557   22.5853 C   0  0  0  0  0  0  0  0  0  0  0  0
  -29.0138  -17.8582   20.8389 C   0  0  0  0  0  0  0  0  0  0  0  0
  -23.3292  -32.1750   23.3247 C   0  0  1  0  0  0  0  0  0  0  0  0
  -22.7048  -29.4942   20.7063 C   0  0  1  0  0  0  0  0  0  0  0  0
  -30.0661  -16.7390   20.9201 C   0  0  2  0  0  0  0  0  0  0  0  0
  -27.2264  -24.3892   23.6357 C   0  0  0  0  0  0  0  0  0  0  0  0
  -26.2023  -21.7605   22.9098 C   0  0  0  0  0  0  0  0  0  0  0  0
  -30.0604  -25.9103   22.0530 C   0  0  0  0  0  0  0  0  0  0  0  0
  -19.6095  -22.6753   18.7251 C   0  0  0  0  0  0  0  0  0  0  0  0
  -27.8777  -23.2423   17.2055 C   0  0  0  0  0  0  0  0  0  0  0  0
  -26.6134  -21.2891   18.0671 C   0  0  0  0  0  0  0  0  0  0  0  0
  -20.9689  -26.6123   23.8751 C   0  0  0  0  0  0  0  0  0  0  0  0
  -20.2531  -24.3714   23.0182 C   0  0  0  0  0  0  0  0  0  0  0  0
  -18.8748  -26.3915   22.5259 C   0  0  0  0  0  0  0  0  0  0  0  0
  -21.9296  -24.8188   16.6042 C   0  0  0  0  0  0  0  0  0  0  0  0
  -29.1190  -21.3236   18.2544 C   0  0  0  0  0  0  0  0  0  0  0  0
  -28.6135  -25.9667   21.5795 C   0  0  1  0  0  0  0  0  0  1  0  0
  -21.0923  -26.0874   21.3502 C   0  0  1  0  0  0  0  0  0  0  0  0
  -20.3290  -23.9503   18.3137 C   0  0  2  0  0  0  0  0  0  0  0  0
  -27.8321  -22.2143   18.3890 C   0  0  0  0  0  0  0  0  0  0  0  0
  -20.3222  -25.8769   22.6844 C   0  0  0  0  0  0  0  0  0  0  0  0
  -28.2046  -15.1269   20.7846 N   0  0  0  0  0  0  0  0  0  0  0  0
  -27.0432  -22.0605   20.6722 N   0  0  0  0  0  0  0  0  0  0  0  0
  -29.4960  -15.3902   20.5219 N   0  0  0  0  0  0  0  0  0  0  0  0
  -22.5182  -28.0502   20.8626 N   0  0  0  0  0  0  0  0  0  0  0  0
  -29.6111  -19.1441   21.2319 N   0  0  0  0  0  0  0  0  0  0  0  0
  -31.4567  -14.4638   19.5689 N   0  0  0  0  0  0  0  0  0  0  0  0
  -28.4037  -11.1724   19.0771 N   0  0  0  0  0  0  0  0  0  0  0  0
  -23.0865  -31.4299   22.1080 N   0  0  0  0  0  0  0  0  0  0  0  0
  -20.4873  -25.4245   20.2000 N   0  0  0  0  0  0  0  0  0  0  0  0
  -29.1248  -20.2111   19.1780 N   0  0  0  0  0  0  0  0  0  0  0  0
  -21.1815  -23.6477   17.1294 N   0  3  0  0  0  0  0  0  0  0  0  0
  -30.5909  -11.7538   18.7070 O   0  0  0  0  0  0  0  0  0  0  0  0
  -23.0208  -29.2960   23.0378 O   0  0  0  0  0  0  0  0  0  0  0  0
  -20.1932  -28.2114   20.7965 O   0  0  0  0  0  0  0  0  0  0  0  0
  -22.3337  -24.1341   19.6498 O   0  0  0  0  0  0  0  0  0  0  0  0
  -30.1852  -21.3592   20.8556 O   0  0  0  0  0  0  0  0  0  0  0  0
  -23.0743  -11.3560   20.6893 O   0  0  0  0  0  0  0  0  0  0  0  0
  -28.5454  -26.8095   20.4299 O   0  0  0  0  0  0  0  0  0  1  0  0
  -22.9889   -6.1108   22.3879 F   0  0  0  0  0  0  0  0  0  0  0  0
  -21.6940  -10.6263   22.9707 F   0  0  0  0  0  0  0  0  0  0  0  0
  1  2  1  0  0  0  0
  1  5  2  0  0  0  0
  2  6  2  0  0  0  0
  3  8  2  0  0  0  0
  3 16  1  0  0  0  0
  4  9  1  0  0  0  0
  4 16  2  0  0  0  0
  5 18  1  0  0  0  0
  6 20  1  0  0  0  0
  7 10  2  0  0  0  0
  7 19  1  0  0  0  0
  8 24  1  0  0  0  0
  9 24  2  0  0  0  0
 10 25  1  0  0  0  0
 11 12  2  0  0  0  0
 11 26  1  0  0  0  0
 12 27  1  0  0  0  0
 13 21  1  0  0  0  0
 13 25  2  0  0  0  0
 14 22  1  0  0  0  0
 14 30  2  0  0  0  0
 15 27  2  0  0  0  0
 15 28  1  0  0  0  0
 16 29  1  0  0  0  0
 17 29  1  0  0  0  0
 17 32  2  0  0  0  0
 17 33  1  0  0  0  0
 18 20  2  0  0  0  0
 18 38  1  0  0  0  0
 19 21  2  0  0  0  0
 19 39  1  0  0  0  0
 20 47  1  0  0  0  0
 21 40  1  0  0  0  0
 22 23  2  0  0  0  0
 22 61  1  0  0  0  0
 23 31  1  0  0  0  0
 23 50  1  0  0  0  0
 24 82  1  0  0  0  0
 25 83  1  0  0  0  0
 26 28  2  0  0  0  0
 26 82  1  0  0  0  0
 27 84  1  0  0  0  0
 28 85  1  0  0  0  0
 29 66  2  0  0  0  0
 30 64  1  0  0  0  0
 30 67  1  0  0  0  0
 31 51  1  0  0  0  0
 31 67  2  0  0  0  0
 32 68  1  0  0  0  0
 32 71  1  0  0  0  0
 33 72  1  0  0  0  0
 33 77  2  0  0  0  0
 34 48  1  0  0  0  0
 34 73  1  0  0  0  0
 34 78  2  0  0  0  0
 35 62  1  0  0  0  0
 35 69  1  0  0  0  0
 35 79  2  0  0  0  0
 36 63  1  0  0  0  0
 36 74  1  0  0  0  0
 36 80  2  0  0  0  0
 37 70  1  0  0  0  0
 37 75  1  0  0  0  0
 37 81  2  0  0  0  0
 38 41  1  0  0  0  0
 39 48  1  0  0  0  0
 40 69  1  0  0  0  0
 41 43  1  0  0  0  0
 42 44  1  0  0  0  0
 42 45  1  0  0  0  0
 43 47  1  0  0  0  0
 44 49  1  0  0  0  0
 45 70  1  0  0  0  0
 46 49  1  0  0  0  0
 46 70  1  0  0  0  0
 47 73  1  0  0  0  0
 48 69  1  0  0  0  0
 49 68  1  0  0  0  0
 52 61  1  0  0  0  0
 53 63  1  0  0  0  0
 54 64  1  0  0  0  0
 55 64  1  0  0  0  0
 56 65  1  0  0  0  0
 57 65  1  0  0  0  0
 58 65  1  0  0  0  0
 59 76  1  0  0  0  0
 60 64  1  0  0  0  0
 60 75  1  0  0  0  0
 61 83  1  0  0  0  0
 62 65  1  0  0  0  0
 62 74  1  0  0  0  0
 63 76  1  0  0  0  0
 66 68  1  0  0  0  0
M  CHG  1  76   1
M  ISO  4  37 100  61 101  75 100  83 101
M  END
> <Batch ID>
0077

> <Smiles>
CNC(C)C(=O)NC(C(=O)N1Cc2cc([101O:1][101CH:1](C)c3cc(C(C)(C)C[100NH:0][100C:0](=O)N4CCCC(n5nc(-c6ccc(Oc7ccc(F)cc7F)cc6)c(C(N)=O)c5N)C4)nc(C)c3C)ccc2CC1C(=O)NC1CCCc2ccccc21)C(C)(C)C

> <Shape>
0.313

> <Color>
0.094

> <Negative vol penalty>
0.000

$$$$

  -OEChem-04052318373D

 89 97  0     1  0  0  0  0  0999 V2000
  -19.4007  -17.0240   23.4354 C   0  0  0  0  0  0  0  0  0  0  0  0
  -20.4837  -17.1981   24.2911 C   0  0  0  0  0  0  0  0  0  0  0  0
  -23.0668   -9.8737   19.9519 C   0  0  0  0  0  0  0  0  0  0  0  0
  -23.8583   -9.8777   22.2346 C   0  0  0  0  0  0  0  0  0  0  0  0
  -19.3227  -17.7590   22.2532 C   0  0  0  0  0  0  0  0  0  0  0  0
  -21.4898  -18.1066   23.9646 C   0  0  0  0  0  0  0  0  0  0  0  0
  -24.7169  -21.5773   27.8435 C   0  0  0  0  0  0  0  0  0  0  0  0
  -22.3288   -8.7185   20.2098 C   0  0  0  0  0  0  0  0  0  0  0  0
  -23.1203   -8.7225   22.4925 C   0  0  0  0  0  0  0  0  0  0  0  0
  -25.9853  -21.4280   28.4027 C   0  0  0  0  0  0  0  0  0  0  0  0
  -19.9024   -7.9167   23.1379 C   0  0  0  0  0  0  0  0  0  0  0  0
  -19.1618   -7.8729   24.3191 C   0  0  0  0  0  0  0  0  0  0  0  0
  -26.9081  -22.8280   26.6684 C   0  0  0  0  0  0  0  0  0  0  0  0
  -20.4173   -5.9366   25.0344 C   0  0  0  0  0  0  0  0  0  0  0  0
  -27.8016  -15.9905   24.2657 C   0  0  0  0  0  0  0  0  0  0  0  0
  -23.8316  -10.4533   20.9643 C   0  0  0  0  0  0  0  0  0  0  0  0
  -24.1664  -12.9794   20.8447 C   0  0  0  0  0  0  0  0  0  0  0  0
  -20.3235  -18.6840   21.9167 C   0  0  0  0  0  0  0  0  0  0  0  0
  -24.5361  -22.3454   26.6843 C   0  0  0  0  0  0  0  0  0  0  0  0
  -21.4258  -18.8537   22.7761 C   0  0  0  0  0  0  0  0  0  0  0  0
  -25.6360  -22.9875   26.0979 C   0  0  0  0  0  0  0  0  0  0  0  0
  -22.3555   -8.1429   21.4801 C   0  0  0  0  0  0  0  0  0  0  0  0
  -27.0816  -22.0510   27.8136 C   0  0  0  0  0  0  0  0  0  0  0  0
  -20.9004   -6.9705   22.9049 C   0  0  0  0  0  0  0  0  0  0  0  0
  -19.4192   -6.8829   25.2673 C   0  0  0  0  0  0  0  0  0  0  0  0
  -21.1579   -5.9804   23.8532 C   0  0  0  0  0  0  0  0  0  0  0  0
  -24.5945  -11.6463   20.6984 C   0  0  0  0  0  0  0  0  0  0  0  0
  -29.1737  -15.7686   24.0419 C   0  0  0  0  0  0  0  0  0  0  0  0
  -27.7612  -16.8014   25.3735 C   0  0  0  0  0  0  0  0  0  0  0  0
  -25.2519  -13.7319   20.4678 C   0  0  0  0  0  0  0  0  0  0  0  0
  -22.9008  -13.4917   21.2821 C   0  0  0  0  0  0  0  0  0  0  0  0
  -23.5130  -21.7481   23.7347 C   0  0  0  0  0  0  0  0  0  0  0  0
  -23.7612  -24.9666   23.4153 C   0  0  0  0  0  0  0  0  0  0  0  0
  -30.7579  -14.6955   20.6790 C   0  0  0  0  0  0  0  0  0  0  0  0
  -25.1912  -27.8809   24.4685 C   0  0  0  0  0  0  0  0  0  0  0  0
  -20.2195  -19.4211   20.6050 C   0  0  0  0  0  0  0  0  0  0  0  0
  -23.1572  -22.5184   26.1087 C   0  0  0  0  0  0  0  0  0  0  0  0
  -25.4919  -23.8396   24.8643 C   0  0  0  0  0  0  0  0  0  0  0  0
  -21.1386  -20.6365   20.5146 C   0  0  0  0  0  0  0  0  0  0  0  0
  -29.5636  -12.4015   18.1990 C   0  0  0  0  0  0  0  0  0  0  0  0
  -22.5413  -20.2821   20.9981 C   0  0  0  0  0  0  0  0  0  0  0  0
  -28.1400  -12.0868   18.6569 C   0  0  0  0  0  0  0  0  0  0  0  0
  -30.5001  -12.6037   19.3860 C   0  0  0  0  0  0  0  0  0  0  0  0
  -28.6148  -13.3316   20.8134 C   0  0  0  0  0  0  0  0  0  0  0  0
  -22.5246  -19.8478   22.4687 C   0  0  1  0  0  0  0  0  0  0  0  0
  -23.1699  -22.9031   24.6325 C   0  0  1  0  0  0  0  0  0  0  0  0
  -27.6295  -13.1504   19.6452 C   0  0  2  0  0  0  0  0  0  0  0  0
  -26.6221  -17.3844   26.1058 C   0  0  0  0  0  0  0  0  0  0  0  0
  -32.4560  -21.1921   29.7462 C   0  0  0  0  0  0  0  0  0  0  0  0
  -25.2246  -30.3441   23.9904 C   0  0  0  0  0  0  0  0  0  0  0  0
  -29.9244  -19.5899   25.1470 C   0  0  0  0  0  0  0  0  0  0  0  0
  -31.1844  -16.7874   21.8836 C   0  0  0  0  0  0  0  0  0  0  0  0
  -28.9043  -16.3110   20.9767 C   0  0  0  0  0  0  0  0  0  0  0  0
  -25.4945  -24.4632   20.9552 C   0  0  0  0  0  0  0  0  0  0  0  0
  -26.2583  -26.8436   21.0922 C   0  0  0  0  0  0  0  0  0  0  0  0
  -23.8479  -26.3291   20.7071 C   0  0  0  0  0  0  0  0  0  0  0  0
  -30.2526  -19.0083   29.8382 C   0  0  0  0  0  0  0  0  0  0  0  0
  -24.1978  -28.5379   27.1778 C   0  0  0  0  0  0  0  0  0  0  0  0
  -29.7898  -14.9607   22.9760 C   0  0  0  0  0  0  0  0  0  0  0  0
  -30.9549  -21.4518   29.6751 C   0  0  0  0  0  0  0  0  0  0  0  0
  -30.5458  -20.1113   27.5520 C   0  0  0  0  0  0  0  0  0  0  0  0
  -29.5620  -17.8356   26.8922 C   0  0  0  0  0  0  0  0  0  0  0  0
  -28.5900  -20.6883   29.0479 C   0  0  0  0  0  0  0  0  0  1  0  0
  -24.8537  -25.9177   22.9899 C   0  0  1  0  0  0  0  0  0  0  0  0
  -24.5897  -29.2320   24.8106 C   0  0  2  0  0  0  0  0  0  0  0  0
  -29.5571  -19.3592   26.6200 C   0  0  2  0  0  0  0  0  0  0  0  0
  -30.1409  -15.6864   21.6338 C   0  0  0  0  0  0  0  0  0  0  0  0
  -25.1170  -25.8708   21.4582 C   0  0  0  0  0  0  0  0  0  0  0  0
  -30.0982  -20.3161   29.0396 C   0  0  1  0  0  0  0  0  0  0  0  0
  -25.8537  -11.5540   20.2625 N   0  0  0  0  0  0  0  0  0  0  0  0
  -29.9488  -16.3887   24.9356 N   0  0  0  0  0  0  0  0  0  0  0  0
  -29.0608  -17.0083   25.7317 N   0  0  0  0  0  0  0  0  0  0  0  0
  -26.2261  -12.8386   20.1315 N   0  0  0  0  0  0  0  0  0  0  0  0
  -24.1245  -23.9730   24.3354 N   0  0  0  0  0  0  0  0  0  0  0  0
  -29.9690  -13.6050   20.3125 N   0  0  0  0  0  0  0  0  0  0  0  0
  -25.4585  -15.0640   20.3946 N   0  0  0  0  0  0  0  0  0  0  0  0
  -21.8955  -12.5798   21.6315 N   0  0  0  0  0  0  0  0  0  0  0  0
  -22.4205  -21.0021   23.3354 N   0  0  0  0  0  0  0  0  0  0  0  0
  -24.4677  -27.2327   23.4899 N   0  0  0  0  0  0  0  0  0  0  0  0
  -24.7926  -29.5386   26.2548 N   0  3  0  0  0  0  0  0  0  0  0  0
  -22.6628  -14.7217   21.3452 O   0  0  0  0  0  0  0  0  0  0  0  0
  -24.6821  -21.5495   23.4257 O   0  0  0  0  0  0  0  0  0  0  0  0
  -22.6256  -25.1048   22.9538 O   0  0  0  0  0  0  0  0  0  0  0  0
  -31.9059  -14.8883   20.2700 O   0  0  0  0  0  0  0  0  0  0  0  0
  -26.2039  -27.4457   25.0122 O   0  0  0  0  0  0  0  0  0  0  0  0
  -21.6354   -7.0158   21.7321 O   0  0  0  0  0  0  0  0  0  0  0  0
  -28.3296  -21.9055   28.3608 O   0  0  0  0  0  0  0  0  0  1  0  0
  -18.7090   -6.8418   26.4022 F   0  0  0  0  0  0  0  0  0  0  0  0
  -22.1162   -5.0694   23.6355 F   0  0  0  0  0  0  0  0  0  0  0  0
  1  2  1  0  0  0  0
  1  5  2  0  0  0  0
  2  6  2  0  0  0  0
  3  8  2  0  0  0  0
  3 16  1  0  0  0  0
  4  9  1  0  0  0  0
  4 16  2  0  0  0  0
  5 18  1  0  0  0  0
  6 20  1  0  0  0  0
  7 10  2  0  0  0  0
  7 19  1  0  0  0  0
  8 22  1  0  0  0  0
  9 22  2  0  0  0  0
 10 23  1  0  0  0  0
 11 12  2  0  0  0  0
 11 24  1  0  0  0  0
 12 25  1  0  0  0  0
 13 21  1  0  0  0  0
 13 23  2  0  0  0  0
 14 25  2  0  0  0  0
 14 26  1  0  0  0  0
 15 28  1  0  0  0  0
 15 29  2  0  0  0  0
 16 27  1  0  0  0  0
 17 27  1  0  0  0  0
 17 30  2  0  0  0  0
 17 31  1  0  0  0  0
 18 20  2  0  0  0  0
 18 36  1  0  0  0  0
 19 21  2  0  0  0  0
 19 37  1  0  0  0  0
 20 45  1  0  0  0  0
 21 38  1  0  0  0  0
 22 86  1  0  0  0  0
 23 87  1  0  0  0  0
 24 26  2  0  0  0  0
 24 86  1  0  0  0  0
 25 88  1  0  0  0  0
 26 89  1  0  0  0  0
 27 70  2  0  0  0  0
 28 59  1  0  0  0  0
 28 71  2  0  0  0  0
 29 48  1  0  0  0  0
 29 72  1  0  0  0  0
 30 73  1  0  0  0  0
 30 76  1  0  0  0  0
 31 77  1  0  0  0  0
 31 81  2  0  0  0  0
 32 46  1  0  0  0  0
 32 78  1  0  0  0  0
 32 82  2  0  0  0  0
 33 64  1  0  0  0  0
 33 74  1  0  0  0  0
 33 83  2  0  0  0  0
 34 67  1  0  0  0  0
 34 75  1  0  0  0  0
 34 84  2  0  0  0  0
 35 65  1  0  0  0  0
 35 79  1  0  0  0  0
 35 85  2  0  0  0  0
 36 39  1  0  0  0  0
 37 46  1  0  0  0  0
 38 74  1  0  0  0  0
 39 41  1  0  0  0  0
 40 42  1  0  0  0  0
 40 43  1  0  0  0  0
 41 45  1  0  0  0  0
 42 47  1  0  0  0  0
 43 75  1  0  0  0  0
 44 47  1  0  0  0  0
 44 75  1  0  0  0  0
 45 78  1  0  0  0  0
 46 74  1  0  0  0  0
 47 73  1  0  0  0  0
 49 60  1  0  0  0  0
 50 65  1  0  0  0  0
 51 66  1  0  0  0  0
 52 67  1  0  0  0  0
 53 67  1  0  0  0  0
 54 68  1  0  0  0  0
 55 68  1  0  0  0  0
 56 68  1  0  0  0  0
 57 69  1  0  0  0  0
 58 80  1  0  0  0  0
 59 67  1  0  0  0  0
 60 69  1  0  0  0  0
 61 66  1  0  0  0  0
 61 69  1  0  0  0  0
 62 66  1  0  0  0  0
 62 72  1  0  0  0  0
 63 69  1  0  0  0  0
 63 87  1  0  0  0  0
 64 68  1  0  0  0  0
 64 79  1  0  0  0  0
 65 80  1  0  0  0  0
 70 73  1  0  0  0  0
 71 72  1  0  0  0  0
M  CHG  1  80   1
M  ISO  4  34 100  63 101  67 100  87 101
M  END
> <Batch ID>
0077

> <Smiles>
CCC(C)(CC(C)Cn1nc(C[100C:0](C)(C)[100C:0](=O)N2CCCC(n3nc(-c4ccc(Oc5ccc(F)cc5F)cc4)c(C(N)=O)c3N)C2)cc1C)[101CH2:1][101O:1]c1ccc2c(c1)CN(C(=O)C(NC(=O)C(C)NC)C(C)(C)C)C(C(=O)NC1CCCc3ccccc31)C2

> <Shape>
0.180

> <Color>
0.179

> <Negative vol penalty>
0.000

$$$$

  -OEChem-04052318373D

 86 94  0     1  0  0  0  0  0999 V2000
  -28.4555  -19.3750   31.7416 C   0  0  0  0  0  0  0  0  0  0  0  0
  -29.0768  -19.3907   30.4970 C   0  0  0  0  0  0  0  0  0  0  0  0
  -22.9979   -9.8978   19.9863 C   0  0  0  0  0  0  0  0  0  0  0  0
  -23.7584   -9.9386   22.2791 C   0  0  0  0  0  0  0  0  0  0  0  0
  -27.9108  -20.5480   32.2624 C   0  0  0  0  0  0  0  0  0  0  0  0
  -29.1527  -20.5793   29.7718 C   0  0  0  0  0  0  0  0  0  0  0  0
  -33.7405  -21.3433   27.7685 C   0  0  0  0  0  0  0  0  0  0  0  0
  -22.2392   -8.7594   20.2582 C   0  0  0  0  0  0  0  0  0  0  0  0
  -22.9996   -8.8002   22.5511 C   0  0  0  0  0  0  0  0  0  0  0  0
  -34.0588  -20.6277   26.6151 C   0  0  0  0  0  0  0  0  0  0  0  0
  -23.2472   -5.4647   22.0572 C   0  0  0  0  0  0  0  0  0  0  0  0
  -23.8495   -4.4454   22.7946 C   0  0  0  0  0  0  0  0  0  0  0  0
  -33.5579  -22.5720   25.2779 C   0  0  0  0  0  0  0  0  0  0  0  0
  -30.6640  -19.9991   23.8121 C   0  0  0  0  0  0  0  0  0  0  0  0
  -22.1509   -4.6736   24.4975 C   0  0  0  0  0  0  0  0  0  0  0  0
  -23.7576  -10.4874   20.9968 C   0  0  0  0  0  0  0  0  0  0  0  0
  -24.1321  -13.0051   20.8286 C   0  0  0  0  0  0  0  0  0  0  0  0
  -27.9886  -21.7537   31.5476 C   0  0  0  0  0  0  0  0  0  0  0  0
  -33.3173  -22.6775   27.6843 C   0  0  0  0  0  0  0  0  0  0  0  0
  -28.6073  -21.7693   30.2829 C   0  0  0  0  0  0  0  0  0  0  0  0
  -33.2373  -23.3031   26.4319 C   0  0  0  0  0  0  0  0  0  0  0  0
  -29.4795  -19.7159   24.4829 C   0  0  0  0  0  0  0  0  0  0  0  0
  -31.2254  -19.0448   22.9709 C   0  0  0  0  0  0  0  0  0  0  0  0
  -22.2400   -8.2106   21.5406 C   0  0  0  0  0  0  0  0  0  0  0  0
  -33.9648  -21.2411   25.3693 C   0  0  0  0  0  0  0  0  0  0  0  0
  -22.0968   -6.0886   22.5400 C   0  0  0  0  0  0  0  0  0  0  0  0
  -23.3013   -4.0498   24.0147 C   0  0  0  0  0  0  0  0  0  0  0  0
  -21.5486   -5.6930   23.7601 C   0  0  0  0  0  0  0  0  0  0  0  0
  -24.5420  -11.6631   20.7164 C   0  0  0  0  0  0  0  0  0  0  0  0
  -28.9005  -18.4735   24.2802 C   0  0  0  0  0  0  0  0  0  0  0  0
  -30.5683  -17.8324   22.8361 C   0  0  0  0  0  0  0  0  0  0  0  0
  -25.2338  -13.7333   20.4511 C   0  0  0  0  0  0  0  0  0  0  0  0
  -22.8686  -13.5453   21.2376 C   0  0  0  0  0  0  0  0  0  0  0  0
  -30.6605  -24.2412   28.4589 C   0  0  0  0  0  0  0  0  0  0  0  0
  -30.7504  -14.6196   20.7183 C   0  0  0  0  0  0  0  0  0  0  0  0
  -32.4130  -26.8413   27.6278 C   0  0  0  0  0  0  0  0  0  0  0  0
  -35.0245  -28.1259   25.8455 C   0  0  0  0  0  0  0  0  0  0  0  0
  -27.3435  -22.9861   32.1304 C   0  0  0  0  0  0  0  0  0  0  0  0
  -33.0033  -23.4438   28.9400 C   0  0  0  0  0  0  0  0  0  0  0  0
  -32.8075  -24.7395   26.2890 C   0  0  0  0  0  0  0  0  0  0  0  0
  -27.7965  -24.2832   31.4651 C   0  0  0  0  0  0  0  0  0  0  0  0
  -29.5553  -12.2912   18.2708 C   0  0  0  0  0  0  0  0  0  0  0  0
  -27.7693  -24.1421   29.9465 C   0  0  0  0  0  0  0  0  0  0  0  0
  -28.1211  -12.0075   18.7155 C   0  0  0  0  0  0  0  0  0  0  0  0
  -30.4786  -12.5047   19.4661 C   0  0  0  0  0  0  0  0  0  0  0  0
  -28.5853  -13.2907   20.8516 C   0  0  0  0  0  0  0  0  0  0  0  0
  -28.7314  -23.0442   29.4771 C   0  0  1  0  0  0  0  0  0  0  0  0
  -32.0893  -24.6408   28.6967 C   0  0  1  0  0  0  0  0  0  0  0  0
  -27.6133  -13.0993   19.6739 C   0  0  2  0  0  0  0  0  0  0  0  0
  -28.8730  -20.7341   25.3853 C   0  0  0  0  0  0  0  0  0  0  0  0
  -36.1864  -30.2912   25.3366 C   0  0  0  0  0  0  0  0  0  0  0  0
  -26.4790  -19.0945   24.5912 C   0  0  0  0  0  0  0  0  0  0  0  0
  -27.7975  -18.1665   26.5243 C   0  0  0  0  0  0  0  0  0  0  0  0
  -27.0781  -16.6825   24.6637 C   0  0  0  0  0  0  0  0  0  0  0  0
  -30.1415  -27.6143   25.7430 C   0  0  0  0  0  0  0  0  0  0  0  0
  -31.7176  -29.1900   24.6021 C   0  0  0  0  0  0  0  0  0  0  0  0
  -31.1446  -29.5252   27.0067 C   0  0  0  0  0  0  0  0  0  0  0  0
  -37.5716  -27.1663   27.0076 C   0  0  0  0  0  0  0  0  0  0  0  0
  -32.5099  -19.3454   22.2407 C   0  0  0  0  0  0  0  0  0  0  0  0
  -31.1251  -16.7709   21.9447 C   0  0  0  0  0  0  0  0  0  0  0  0
  -30.1356  -15.6395   21.6433 C   0  0  0  0  0  0  0  0  0  0  0  0
  -33.7382  -18.6657   22.8497 C   0  0  0  0  0  0  0  0  0  0  0  0
  -34.0484  -19.1360   24.2661 C   0  0  0  0  0  0  0  0  0  1  0  0
  -32.6516  -27.6051   26.3477 C   0  0  1  0  0  0  0  0  0  0  0  0
  -36.1466  -29.0689   26.2406 C   0  0  2  0  0  0  0  0  0  0  0  0
  -27.6283  -18.1129   24.9749 C   0  0  0  0  0  0  0  0  0  0  0  0
  -31.4201  -28.4560   25.9271 C   0  0  0  0  0  0  0  0  0  0  0  0
  -25.8054  -11.5428   20.3000 N   0  0  0  0  0  0  0  0  0  0  0  0
  -29.4161  -17.5211   23.4712 N   0  0  0  0  0  0  0  0  0  0  0  0
  -26.1989  -12.8187   20.1472 N   0  0  0  0  0  0  0  0  0  0  0  0
  -32.5051  -25.4446   27.5455 N   0  0  0  0  0  0  0  0  0  0  0  0
  -29.9501  -13.5333   20.3639 N   0  0  0  0  0  0  0  0  0  0  0  0
  -25.4615  -15.0603   20.3527 N   0  0  0  0  0  0  0  0  0  0  0  0
  -21.8450  -12.6560   21.5921 N   0  0  0  0  0  0  0  0  0  0  0  0
  -30.0961  -23.5256   29.4975 N   0  0  0  0  0  0  0  0  0  0  0  0
  -33.8702  -28.3798   26.5556 N   0  0  0  0  0  0  0  0  0  0  0  0
  -37.4624  -28.3748   26.1506 N   0  3  0  0  0  0  0  0  0  0  0  0
  -22.6483  -14.7798   21.2715 O   0  0  0  0  0  0  0  0  0  0  0  0
  -30.1103  -24.5599   27.4113 O   0  0  0  0  0  0  0  0  0  0  0  0
  -31.9066  -14.7866   20.3212 O   0  0  0  0  0  0  0  0  0  0  0  0
  -32.1615  -27.4613   28.6641 O   0  0  0  0  0  0  0  0  0  0  0  0
  -35.1575  -27.2539   24.9896 O   0  0  0  0  0  0  0  0  0  0  0  0
  -21.4995   -7.0999   21.8063 O   0  0  0  0  0  0  0  0  0  0  0  0
  -34.2742  -20.5448   24.2418 O   0  0  0  0  0  0  0  0  0  1  0  0
  -23.8789   -3.0698   24.7220 F   0  0  0  0  0  0  0  0  0  0  0  0
  -20.4429   -6.2878   24.2284 F   0  0  0  0  0  0  0  0  0  0  0  0
  1  2  1  0  0  0  0
  1  5  2  0  0  0  0
  2  6  2  0  0  0  0
  3  8  2  0  0  0  0
  3 16  1  0  0  0  0
  4  9  1  0  0  0  0
  4 16  2  0  0  0  0
  5 18  1  0  0  0  0
  6 20  1  0  0  0  0
  7 10  2  0  0  0  0
  7 19  1  0  0  0  0
  8 24  1  0  0  0  0
  9 24  2  0  0  0  0
 10 25  1  0  0  0  0
 11 12  2  0  0  0  0
 11 26  1  0  0  0  0
 12 27  1  0  0  0  0
 13 21  1  0  0  0  0
 13 25  2  0  0  0  0
 14 22  2  0  0  0  0
 14 23  1  0  0  0  0
 15 27  2  0  0  0  0
 15 28  1  0  0  0  0
 16 29  1  0  0  0  0
 17 29  1  0  0  0  0
 17 32  2  0  0  0  0
 17 33  1  0  0  0  0
 18 20  2  0  0  0  0
 18 38  1  0  0  0  0
 19 21  2  0  0  0  0
 19 39  1  0  0  0  0
 20 47  1  0  0  0  0
 21 40  1  0  0  0  0
 22 30  1  0  0  0  0
 22 50  1  0  0  0  0
 23 31  2  0  0  0  0
 23 59  1  0  0  0  0
 24 83  1  0  0  0  0
 25 84  1  0  0  0  0
 26 28  2  0  0  0  0
 26 83  1  0  0  0  0
 27 85  1  0  0  0  0
 28 86  1  0  0  0  0
 29 68  2  0  0  0  0
 30 66  1  0  0  0  0
 30 69  2  0  0  0  0
 31 60  1  0  0  0  0
 31 69  1  0  0  0  0
 32 70  1  0  0  0  0
 32 73  1  0  0  0  0
 33 74  1  0  0  0  0
 33 78  2  0  0  0  0
 34 48  1  0  0  0  0
 34 75  1  0  0  0  0
 34 79  2  0  0  0  0
 35 61  1  0  0  0  0
 35 72  1  0  0  0  0
 35 80  2  0  0  0  0
 36 64  1  0  0  0  0
 36 71  1  0  0  0  0
 36 81  2  0  0  0  0
 37 65  1  0  0  0  0
 37 76  1  0  0  0  0
 37 82  2  0  0  0  0
 38 41  1  0  0  0  0
 39 48  1  0  0  0  0
 40 71  1  0  0  0  0
 41 43  1  0  0  0  0
 42 44  1  0  0  0  0
 42 45  1  0  0  0  0
 43 47  1  0  0  0  0
 44 49  1  0  0  0  0
 45 72  1  0  0  0  0
 46 49  1  0  0  0  0
 46 72  1  0  0  0  0
 47 75  1  0  0  0  0
 48 71  1  0  0  0  0
 49 70  1  0  0  0  0
 51 65  1  0  0  0  0
 52 66  1  0  0  0  0
 53 66  1  0  0  0  0
 54 66  1  0  0  0  0
 55 67  1  0  0  0  0
 56 67  1  0  0  0  0
 57 67  1  0  0  0  0
 58 77  1  0  0  0  0
 59 62  1  0  0  0  0
 60 61  1  0  0  0  0
 62 63  1  0  0  0  0
 63 84  1  0  0  0  0
 64 67  1  0  0  0  0
 64 76  1  0  0  0  0
 65 77  1  0  0  0  0
 68 70  1  0  0  0  0
M  CHG  1  77   1
M  ISO  4  35 100  61 100  63 101  84 101
M  END
> <Batch ID>
0077

> <Smiles>
CNC(C)C(=O)NC(C(=O)N1Cc2cc([101O:1][101CH2:1]CCc3cc(C)c(C(C)(C)C)nc3C[100CH2:0][100C:0](=O)N3CCCC(n4nc(-c5ccc(Oc6ccc(F)cc6F)cc5)c(C(N)=O)c4N)C3)ccc2CC1C(=O)NC1CCCc2ccccc21)C(C)(C)C

> <Shape>
0.169

> <Color>
0.200

> <Negative vol penalty>
0.000

$$$$

  -OEChem-04052318373D

 84 92  0     1  0  0  0  0  0999 V2000
  -36.0505  -23.9450   25.3940 C   0  0  0  0  0  0  0  0  0  0  0  0
  -35.0332  -23.0651   25.0385 C   0  0  0  0  0  0  0  0  0  0  0  0
  -23.2902   -9.7989   19.9271 C   0  0  0  0  0  0  0  0  0  0  0  0
  -23.7484   -9.9556   22.2941 C   0  0  0  0  0  0  0  0  0  0  0  0
  -35.7352  -25.2048   25.9013 C   0  0  0  0  0  0  0  0  0  0  0  0
  -33.7000  -23.4441   25.1911 C   0  0  0  0  0  0  0  0  0  0  0  0
  -30.8697  -22.2573   21.1629 C   0  0  0  0  0  0  0  0  0  0  0  0
  -22.5654   -8.6273   20.1449 C   0  0  0  0  0  0  0  0  0  0  0  0
  -23.0236   -8.7839   22.5119 C   0  0  0  0  0  0  0  0  0  0  0  0
  -30.4696  -20.9279   21.0353 C   0  0  0  0  0  0  0  0  0  0  0  0
  -19.7780   -7.8719   22.7457 C   0  0  0  0  0  0  0  0  0  0  0  0
  -18.8791   -7.8565   23.8121 C   0  0  0  0  0  0  0  0  0  0  0  0
  -28.3023  -21.5009   21.9261 C   0  0  0  0  0  0  0  0  0  0  0  0
  -29.5414  -18.8818   24.8615 C   0  0  0  0  0  0  0  0  0  0  0  0
  -20.0894   -6.0168   24.8059 C   0  0  0  0  0  0  0  0  0  0  0  0
  -31.2006  -17.0379   25.9985 C   0  0  0  0  0  0  0  0  0  0  0  0
  -23.8818  -10.4631   21.0017 C   0  0  0  0  0  0  0  0  0  0  0  0
  -24.1386  -12.9919   20.7855 C   0  0  0  0  0  0  0  0  0  0  0  0
  -34.3974  -25.6031   26.0512 C   0  0  0  0  0  0  0  0  0  0  0  0
  -29.9913  -23.2181   21.6842 C   0  0  0  0  0  0  0  0  0  0  0  0
  -33.3665  -24.7099   25.7021 C   0  0  0  0  0  0  0  0  0  0  0  0
  -28.6928  -22.8424   22.0570 C   0  0  0  0  0  0  0  0  0  0  0  0
  -29.4914  -17.5610   24.4296 C   0  0  0  0  0  0  0  0  0  0  0  0
  -30.3335  -16.6153   25.0038 C   0  0  0  0  0  0  0  0  0  0  0  0
  -22.4321   -8.1198   21.4373 C   0  0  0  0  0  0  0  0  0  0  0  0
  -29.1867  -20.5489   21.4196 C   0  0  0  0  0  0  0  0  0  0  0  0
  -20.8326   -6.9596   22.7093 C   0  0  0  0  0  0  0  0  0  0  0  0
  -19.0347   -6.9291   24.8422 C   0  0  0  0  0  0  0  0  0  0  0  0
  -20.9883   -6.0321   23.7395 C   0  0  0  0  0  0  0  0  0  0  0  0
  -24.6311  -11.6732   20.7772 C   0  0  0  0  0  0  0  0  0  0  0  0
  -30.4438  -19.2028   25.8626 C   0  0  0  0  0  0  0  0  0  0  0  0
  -25.2386  -13.7709   20.5218 C   0  0  0  0  0  0  0  0  0  0  0  0
  -22.8059  -13.4700   21.0114 C   0  0  0  0  0  0  0  0  0  0  0  0
  -30.0020  -25.1201   24.2309 C   0  0  0  0  0  0  0  0  0  0  0  0
  -27.3162  -26.3186   22.8625 C   0  0  0  0  0  0  0  0  0  0  0  0
  -24.6745  -25.8357   20.7566 C   0  0  0  0  0  0  0  0  0  0  0  0
  -31.1128  -12.9379   21.3282 C   0  0  0  0  0  0  0  0  0  0  0  0
  -34.1057  -26.9571   26.6481 C   0  0  0  0  0  0  0  0  0  0  0  0
  -30.4291  -24.6531   21.7906 C   0  0  0  0  0  0  0  0  0  0  0  0
  -27.7048  -23.8393   22.6034 C   0  0  0  0  0  0  0  0  0  0  0  0
  -32.6689  -27.4232   26.4276 C   0  0  0  0  0  0  0  0  0  0  0  0
  -29.4536  -13.6557   18.2609 C   0  0  0  0  0  0  0  0  0  0  0  0
  -31.6880  -26.3005   26.7501 C   0  0  0  0  0  0  0  0  0  0  0  0
  -27.9850  -13.3480   18.5587 C   0  0  0  0  0  0  0  0  0  0  0  0
  -30.3899  -12.6817   18.9728 C   0  0  0  0  0  0  0  0  0  0  0  0
  -28.7092  -12.2626   20.7259 C   0  0  0  0  0  0  0  0  0  0  0  0
  -31.9083  -25.0939   25.8297 C   0  0  1  0  0  0  0  0  0  0  0  0
  -29.6250  -25.4489   22.8141 C   0  0  1  0  0  0  0  0  0  0  0  0
  -27.7284  -13.2528   20.0748 C   0  0  2  0  0  0  0  0  0  0  0  0
  -30.5252  -20.6107   26.3507 C   0  0  0  0  0  0  0  0  0  0  0  0
  -22.6259  -26.9830   19.8709 C   0  0  0  0  0  0  0  0  0  0  0  0
  -25.8921  -25.8173   25.5140 C   0  0  0  0  0  0  0  0  0  0  0  0
  -23.7112  -26.0701   24.3106 C   0  0  0  0  0  0  0  0  0  0  0  0
  -25.3082  -27.9838   24.4096 C   0  0  0  0  0  0  0  0  0  0  0  0
  -25.6565  -25.6898   17.9685 C   0  0  0  0  0  0  0  0  0  0  0  0
  -28.5198  -17.1786   23.3417 C   0  0  0  0  0  0  0  0  0  0  0  0
  -30.3216  -15.1880   24.5787 C   0  0  0  0  0  0  0  0  0  0  0  0
  -29.1744  -16.9815   21.9727 C   0  0  0  0  0  0  0  0  0  0  0  0
  -31.6905  -14.6452   24.1202 C   0  0  0  0  0  0  0  0  0  0  0  0
  -31.6822  -13.1680   23.7328 C   0  0  0  0  0  0  0  0  0  0  0  0
  -29.8056  -18.2526   21.4166 C   0  0  0  0  0  0  0  0  0  1  0  0
  -25.8430  -25.9981   22.9389 C   0  0  1  0  0  0  0  0  0  0  0  0
  -24.1022  -26.6963   19.6447 C   0  0  2  0  0  0  0  0  0  0  0  0
  -25.2076  -26.4479   24.2848 C   0  0  0  0  0  0  0  0  0  0  0  0
  -31.2778  -18.3118   26.4443 N   0  0  0  0  0  0  0  0  0  0  0  0
  -25.9419  -11.6139   20.5279 N   0  0  0  0  0  0  0  0  0  0  0  0
  -26.2824  -12.9051   20.3769 N   0  0  0  0  0  0  0  0  0  0  0  0
  -28.1823  -25.2290   22.6940 N   0  0  0  0  0  0  0  0  0  0  0  0
  -30.0952  -12.6396   20.4071 N   0  0  0  0  0  0  0  0  0  0  0  0
  -25.4051  -15.1052   20.4020 N   0  0  0  0  0  0  0  0  0  0  0  0
  -21.7948  -12.5340   21.2683 N   0  0  0  0  0  0  0  0  0  0  0  0
  -31.3338  -25.3422   24.5248 N   0  0  0  0  0  0  0  0  0  0  0  0
  -25.2323  -26.6007   21.7590 N   0  0  0  0  0  0  0  0  0  0  0  0
  -30.7475  -12.8809   22.6676 N   0  0  0  0  0  0  0  0  0  0  0  0
  -24.2518  -26.0109   18.3299 N   0  3  0  0  0  0  0  0  0  0  0  0
  -22.5169  -14.6900   20.9699 O   0  0  0  0  0  0  0  0  0  0  0  0
  -29.1474  -24.6978   25.0010 O   0  0  0  0  0  0  0  0  0  0  0  0
  -27.6844  -27.4933   22.9419 O   0  0  0  0  0  0  0  0  0  0  0  0
  -24.6277  -24.6076   20.7395 O   0  0  0  0  0  0  0  0  0  0  0  0
  -32.2605  -13.2383   20.9824 O   0  0  0  0  0  0  0  0  0  0  0  0
  -21.7247   -6.9766   21.6503 O   0  0  0  0  0  0  0  0  0  0  0  0
  -28.7938  -19.2519   21.2966 O   0  0  0  0  0  0  0  0  0  1  0  0
  -18.1723   -6.9155   25.8670 F   0  0  0  0  0  0  0  0  0  0  0  0
  -22.0002   -5.1541   23.7107 F   0  0  0  0  0  0  0  0  0  0  0  0
  1  2  1  0  0  0  0
  1  5  2  0  0  0  0
  2  6  2  0  0  0  0
  3  8  2  0  0  0  0
  3 17  1  0  0  0  0
  4  9  1  0  0  0  0
  4 17  2  0  0  0  0
  5 19  1  0  0  0  0
  6 21  1  0  0  0  0
  7 10  2  0  0  0  0
  7 20  1  0  0  0  0
  8 25  1  0  0  0  0
  9 25  2  0  0  0  0
 10 26  1  0  0  0  0
 11 12  2  0  0  0  0
 11 27  1  0  0  0  0
 12 28  1  0  0  0  0
 13 22  1  0  0  0  0
 13 26  2  0  0  0  0
 14 23  1  0  0  0  0
 14 31  2  0  0  0  0
 15 28  2  0  0  0  0
 15 29  1  0  0  0  0
 16 24  1  0  0  0  0
 16 65  2  0  0  0  0
 17 30  1  0  0  0  0
 18 30  1  0  0  0  0
 18 32  2  0  0  0  0
 18 33  1  0  0  0  0
 19 21  2  0  0  0  0
 19 38  1  0  0  0  0
 20 22  2  0  0  0  0
 20 39  1  0  0  0  0
 21 47  1  0  0  0  0
 22 40  1  0  0  0  0
 23 24  2  0  0  0  0
 23 56  1  0  0  0  0
 24 57  1  0  0  0  0
 25 81  1  0  0  0  0
 26 82  1  0  0  0  0
 27 29  2  0  0  0  0
 27 81  1  0  0  0  0
 28 83  1  0  0  0  0
 29 84  1  0  0  0  0
 30 66  2  0  0  0  0
 31 50  1  0  0  0  0
 31 65  1  0  0  0  0
 32 67  1  0  0  0  0
 32 70  1  0  0  0  0
 33 71  1  0  0  0  0
 33 76  2  0  0  0  0
 34 48  1  0  0  0  0
 34 72  1  0  0  0  0
 34 77  2  0  0  0  0
 35 62  1  0  0  0  0
 35 68  1  0  0  0  0
 35 78  2  0  0  0  0
 36 63  1  0  0  0  0
 36 73  1  0  0  0  0
 36 79  2  0  0  0  0
 37 69  1  0  0  0  0
 37 74  1  0  0  0  0
 37 80  2  0  0  0  0
 38 41  1  0  0  0  0
 39 48  1  0  0  0  0
 40 68  1  0  0  0  0
 41 43  1  0  0  0  0
 42 44  1  0  0  0  0
 42 45  1  0  0  0  0
 43 47  1  0  0  0  0
 44 49  1  0  0  0  0
 45 69  1  0  0  0  0
 46 49  1  0  0  0  0
 46 69  1  0  0  0  0
 47 72  1  0  0  0  0
 48 68  1  0  0  0  0
 49 67  1  0  0  0  0
 51 63  1  0  0  0  0
 52 64  1  0  0  0  0
 53 64  1  0  0  0  0
 54 64  1  0  0  0  0
 55 75  1  0  0  0  0
 56 58  1  0  0  0  0
 57 59  1  0  0  0  0
 58 61  1  0  0  0  0
 59 60  1  0  0  0  0
 60 74  1  0  0  0  0
 61 82  1  0  0  0  0
 62 64  1  0  0  0  0
 62 73  1  0  0  0  0
 63 75  1  0  0  0  0
 66 67  1  0  0  0  0
M  CHG  1  75   1
M  ISO  4  37 100  61 101  74 100  82 101
M  END
> <Batch ID>
0077

> <Smiles>
CNC(C)C(=O)NC(C(=O)N1Cc2cc([101O:1][101CH2:1]CCc3cc(C)ncc3CCC[100NH:0][100C:0](=O)N3CCCC(n4nc(-c5ccc(Oc6ccc(F)cc6F)cc5)c(C(N)=O)c4N)C3)ccc2CC1C(=O)NC1CCCc2ccccc21)C(C)(C)C

> <Shape>
0.191

> <Color>
0.178

> <Negative vol penalty>
0.000

$$$$

  -OEChem-04052318373D

 84 92  0     1  0  0  0  0  0999 V2000
  -17.1078  -30.8672   24.2919 C   0  0  0  0  0  0  0  0  0  0  0  0
  -17.3723  -29.6703   23.6339 C   0  0  0  0  0  0  0  0  0  0  0  0
  -24.4539   -9.3432   21.3043 C   0  0  0  0  0  0  0  0  0  0  0  0
  -25.0679  -10.3185   23.4277 C   0  0  0  0  0  0  0  0  0  0  0  0
  -17.9132  -31.9814   24.0604 C   0  0  0  0  0  0  0  0  0  0  0  0
  -18.4419  -29.5874   22.7431 C   0  0  0  0  0  0  0  0  0  0  0  0
  -22.0369  -24.7300   21.7492 C   0  0  0  0  0  0  0  0  0  0  0  0
  -24.1953   -8.1275   21.9374 C   0  0  0  0  0  0  0  0  0  0  0  0
  -24.8093   -9.1028   24.0609 C   0  0  0  0  0  0  0  0  0  0  0  0
  -22.0331  -23.7468   20.7608 C   0  0  0  0  0  0  0  0  0  0  0  0
  -21.7191   -6.7613   23.7907 C   0  0  0  0  0  0  0  0  0  0  0  0
  -20.5470   -6.0879   23.4471 C   0  0  0  0  0  0  0  0  0  0  0  0
  -23.6848  -24.9943   19.5219 C   0  0  0  0  0  0  0  0  0  0  0  0
  -25.2154  -21.2329   20.7015 C   0  0  0  0  0  0  0  0  0  0  0  0
  -26.4214  -19.6334   19.3706 C   0  0  0  0  0  0  0  0  0  0  0  0
  -21.8521   -4.1950   22.7049 C   0  0  0  0  0  0  0  0  0  0  0  0
  -24.8902  -10.4387   22.0495 C   0  0  0  0  0  0  0  0  0  0  0  0
  -24.2509  -12.7481   21.1746 C   0  0  0  0  0  0  0  0  0  0  0  0
  -18.9991  -31.9094   23.1736 C   0  0  0  0  0  0  0  0  0  0  0  0
  -22.8581  -25.8600   21.6260 C   0  0  0  0  0  0  0  0  0  0  0  0
  -19.2619  -30.7021   22.4985 C   0  0  0  0  0  0  0  0  0  0  0  0
  -23.6991  -25.9892   20.5115 C   0  0  0  0  0  0  0  0  0  0  0  0
  -25.2738  -20.3834   19.6024 C   0  0  0  0  0  0  0  0  0  0  0  0
  -24.3730   -8.0073   23.3157 C   0  0  0  0  0  0  0  0  0  0  0  0
  -22.8550  -23.8803   19.6455 C   0  0  0  0  0  0  0  0  0  0  0  0
  -22.9578   -6.1517   23.5914 C   0  0  0  0  0  0  0  0  0  0  0  0
  -20.6135   -4.8047   22.9042 C   0  0  0  0  0  0  0  0  0  0  0  0
  -23.0243   -4.8685   23.0485 C   0  0  0  0  0  0  0  0  0  0  0  0
  -25.1580  -11.6946   21.3960 C   0  0  0  0  0  0  0  0  0  0  0  0
  -26.3226  -21.2959   21.5321 C   0  0  0  0  0  0  0  0  0  0  0  0
  -27.4747  -19.7680   20.2607 C   0  0  0  0  0  0  0  0  0  0  0  0
  -24.9890  -13.7054   20.5224 C   0  0  0  0  0  0  0  0  0  0  0  0
  -22.8650  -12.8522   21.5271 C   0  0  0  0  0  0  0  0  0  0  0  0
  -22.3486  -28.9899   21.4061 C   0  0  0  0  0  0  0  0  0  0  0  0
  -29.7037  -16.6819   20.0732 C   0  0  0  0  0  0  0  0  0  0  0  0
  -25.5835  -29.1355   21.5968 C   0  0  0  0  0  0  0  0  0  0  0  0
  -28.5855  -27.5764   21.1452 C   0  0  0  0  0  0  0  0  0  0  0  0
  -19.8129  -33.1536   22.9198 C   0  0  0  0  0  0  0  0  0  0  0  0
  -22.8703  -26.8986   22.7139 C   0  0  0  0  0  0  0  0  0  0  0  0
  -24.6143  -27.1733   20.3416 C   0  0  0  0  0  0  0  0  0  0  0  0
  -21.1538  -32.8771   22.2447 C   0  0  0  0  0  0  0  0  0  0  0  0
  -29.5930  -13.4853   18.4578 C   0  0  0  0  0  0  0  0  0  0  0  0
  -20.9734  -31.9189   21.0717 C   0  0  0  0  0  0  0  0  0  0  0  0
  -28.3728  -12.8097   19.0821 C   0  0  0  0  0  0  0  0  0  0  0  0
  -30.3220  -14.3654   19.4683 C   0  0  0  0  0  0  0  0  0  0  0  0
  -28.2314  -14.7187   20.7436 C   0  0  0  0  0  0  0  0  0  0  0  0
  -20.4280  -30.5656   21.5437 C   0  0  1  0  0  0  0  0  0  0  0  0
  -23.3667  -28.2594   22.2353 C   0  0  1  0  0  0  0  0  0  0  0  0
  -27.4485  -13.8443   19.7482 C   0  0  2  0  0  0  0  0  0  0  0  0
  -26.8127  -23.5954   22.4031 C   0  0  0  0  0  0  0  0  0  0  0  0
  -29.0693  -17.7171   22.2135 C   0  0  0  0  0  0  0  0  0  0  0  0
  -31.0706  -27.2390   21.2333 C   0  0  0  0  0  0  0  0  0  0  0  0
  -25.5346  -30.7957   19.0372 C   0  0  0  0  0  0  0  0  0  0  0  0
  -27.9835  -30.3432   18.7797 C   0  0  0  0  0  0  0  0  0  0  0  0
  -27.1510  -31.5965   20.7694 C   0  0  0  0  0  0  0  0  0  0  0  0
  -28.4460  -26.3966   23.8558 C   0  0  0  0  0  0  0  0  0  0  0  0
  -24.0969  -20.2752   18.6660 C   0  0  0  0  0  0  0  0  0  0  0  0
  -26.2950  -22.1956   22.7223 C   0  0  0  0  0  0  0  0  0  0  0  0
  -28.7225  -18.9795   20.0415 C   0  0  0  0  0  0  0  0  0  0  0  0
  -24.1393  -21.2718   17.5056 C   0  0  0  0  0  0  0  0  0  0  0  0
  -24.0673  -22.7263   17.9560 C   0  0  0  0  0  0  0  0  0  1  0  0
  -28.7102  -17.6028   20.7358 C   0  0  1  0  0  0  0  0  0  0  0  0
  -26.7155  -29.1120   20.5982 C   0  0  1  0  0  0  0  0  0  0  0  0
  -29.8023  -27.4540   22.0445 C   0  0  2  0  0  0  0  0  0  0  0  0
  -26.8276  -30.4404   19.7981 C   0  0  0  0  0  0  0  0  0  0  0  0
  -26.3791  -11.9575   20.9227 N   0  0  0  0  0  0  0  0  0  0  0  0
  -27.4548  -20.5827   21.3393 N   0  0  0  0  0  0  0  0  0  0  0  0
  -26.2443  -13.1871   20.3974 N   0  0  0  0  0  0  0  0  0  0  0  0
  -24.5856  -28.1650   21.4293 N   0  0  0  0  0  0  0  0  0  0  0  0
  -29.4053  -15.3194   20.0951 N   0  0  0  0  0  0  0  0  0  0  0  0
  -24.6801  -14.9315   20.0494 N   0  0  0  0  0  0  0  0  0  0  0  0
  -22.2628  -11.7768   22.1943 N   0  0  0  0  0  0  0  0  0  0  0  0
  -21.4831  -29.7764   22.1422 N   0  0  0  0  0  0  0  0  0  0  0  0
  -27.9162  -28.7643   21.3504 N   0  0  0  0  0  0  0  0  0  0  0  0
  -29.6420  -26.3046   22.9795 N   0  3  0  0  0  0  0  0  0  0  0  0
  -22.1768  -13.8619   21.2437 O   0  0  0  0  0  0  0  0  0  0  0  0
  -22.3492  -28.8513   20.1886 O   0  0  0  0  0  0  0  0  0  0  0  0
  -30.7128  -17.1614   19.5497 O   0  0  0  0  0  0  0  0  0  0  0  0
  -25.5884  -29.9792   22.4966 O   0  0  0  0  0  0  0  0  0  0  0  0
  -28.2633  -26.7069   20.3385 O   0  0  0  0  0  0  0  0  0  0  0  0
  -24.1206   -6.8213   23.9338 O   0  0  0  0  0  0  0  0  0  0  0  0
  -22.8527  -22.9224   18.6789 O   0  0  0  0  0  0  0  0  0  1  0  0
  -19.4877   -4.1575   22.5756 F   0  0  0  0  0  0  0  0  0  0  0  0
  -24.2113   -4.2772   22.8558 F   0  0  0  0  0  0  0  0  0  0  0  0
  1  2  1  0  0  0  0
  1  5  2  0  0  0  0
  2  6  2  0  0  0  0
  3  8  2  0  0  0  0
  3 17  1  0  0  0  0
  4  9  1  0  0  0  0
  4 17  2  0  0  0  0
  5 19  1  0  0  0  0
  6 21  1  0  0  0  0
  7 10  2  0  0  0  0
  7 20  1  0  0  0  0
  8 24  1  0  0  0  0
  9 24  2  0  0  0  0
 10 25  1  0  0  0  0
 11 12  2  0  0  0  0
 11 26  1  0  0  0  0
 12 27  1  0  0  0  0
 13 22  1  0  0  0  0
 13 25  2  0  0  0  0
 14 23  2  0  0  0  0
 14 30  1  0  0  0  0
 15 23  1  0  0  0  0
 15 31  2  0  0  0  0
 16 27  2  0  0  0  0
 16 28  1  0  0  0  0
 17 29  1  0  0  0  0
 18 29  1  0  0  0  0
 18 32  2  0  0  0  0
 18 33  1  0  0  0  0
 19 21  2  0  0  0  0
 19 38  1  0  0  0  0
 20 22  2  0  0  0  0
 20 39  1  0  0  0  0
 21 47  1  0  0  0  0
 22 40  1  0  0  0  0
 23 57  1  0  0  0  0
 24 81  1  0  0  0  0
 25 82  1  0  0  0  0
 26 28  2  0  0  0  0
 26 81  1  0  0  0  0
 27 83  1  0  0  0  0
 28 84  1  0  0  0  0
 29 66  2  0  0  0  0
 30 58  1  0  0  0  0
 30 67  2  0  0  0  0
 31 59  1  0  0  0  0
 31 67  1  0  0  0  0
 32 68  1  0  0  0  0
 32 71  1  0  0  0  0
 33 72  1  0  0  0  0
 33 76  2  0  0  0  0
 34 48  1  0  0  0  0
 34 73  1  0  0  0  0
 34 77  2  0  0  0  0
 35 62  1  0  0  0  0
 35 70  1  0  0  0  0
 35 78  2  0  0  0  0
 36 63  1  0  0  0  0
 36 69  1  0  0  0  0
 36 79  2  0  0  0  0
 37 64  1  0  0  0  0
 37 74  1  0  0  0  0
 37 80  2  0  0  0  0
 38 41  1  0  0  0  0
 39 48  1  0  0  0  0
 40 69  1  0  0  0  0
 41 43  1  0  0  0  0
 42 44  1  0  0  0  0
 42 45  1  0  0  0  0
 43 47  1  0  0  0  0
 44 49  1  0  0  0  0
 45 70  1  0  0  0  0
 46 49  1  0  0  0  0
 46 70  1  0  0  0  0
 47 73  1  0  0  0  0
 48 69  1  0  0  0  0
 49 68  1  0  0  0  0
 50 58  1  0  0  0  0
 51 62  1  0  0  0  0
 52 64  1  0  0  0  0
 53 65  1  0  0  0  0
 54 65  1  0  0  0  0
 55 65  1  0  0  0  0
 56 75  1  0  0  0  0
 57 60  1  0  0  0  0
 59 62  1  0  0  0  0
 60 61  1  0  0  0  0
 61 82  1  0  0  0  0
 63 65  1  0  0  0  0
 63 74  1  0  0  0  0
 64 75  1  0  0  0  0
 66 68  1  0  0  0  0
M  CHG  1  75   1
M  ISO  4  35 100  61 101  62 100  82 101
M  END
> <Batch ID>
0077

> <Smiles>
CCc1cc(CC[101CH2:1][101O:1]c2ccc3c(c2)CN(C(=O)C(NC(=O)C(C)NC)C(C)(C)C)C(C(=O)NC2CCCc4ccccc42)C3)cc(C[100CH:0](C)[100C:0](=O)N2CCCC(n3nc(-c4ccc(Oc5ccc(F)cc5F)cc4)c(C(N)=O)c3N)C2)n1

> <Shape>
0.274

> <Color>
0.134

> <Negative vol penalty>
0.000

$$$$

  -OEChem-04052318373D

 81 89  0     1  0  0  0  0  0999 V2000
  -22.9888  -34.0797   22.5156 C   0  0  0  0  0  0  0  0  0  0  0  0
  -23.9155  -33.0426   22.4856 C   0  0  0  0  0  0  0  0  0  0  0  0
  -26.7207  -14.4017   22.0299 C   0  0  0  0  0  0  0  0  0  0  0  0
  -26.3590  -14.1724   19.6521 C   0  0  0  0  0  0  0  0  0  0  0  0
  -21.6582  -33.8150   22.8370 C   0  0  0  0  0  0  0  0  0  0  0  0
  -23.5123  -31.7401   22.7780 C   0  0  0  0  0  0  0  0  0  0  0  0
  -25.3891  -28.3477   19.5200 C   0  0  0  0  0  0  0  0  0  0  0  0
  -25.8903  -13.3053   22.2620 C   0  0  0  0  0  0  0  0  0  0  0  0
  -25.5286  -13.0759   19.8842 C   0  0  0  0  0  0  0  0  0  0  0  0
  -26.7192  -27.9671   19.6929 C   0  0  0  0  0  0  0  0  0  0  0  0
  -23.0272  -10.4392   19.8711 C   0  0  0  0  0  0  0  0  0  0  0  0
  -21.8220  -10.3790   19.1714 C   0  0  0  0  0  0  0  0  0  0  0  0
  -25.9920  -25.9512   20.8004 C   0  0  0  0  0  0  0  0  0  0  0  0
  -21.1361  -12.4678   20.1733 C   0  0  0  0  0  0  0  0  0  0  0  0
  -31.2579  -25.1565   18.4071 C   0  0  0  0  0  0  0  0  0  0  0  0
  -26.9550  -14.8353   20.7250 C   0  0  0  0  0  0  0  0  0  0  0  0
  -29.2041  -15.9517   20.2743 C   0  0  0  0  0  0  0  0  0  0  0  0
  -21.2365  -32.5072   23.1240 C   0  0  0  0  0  0  0  0  0  0  0  0
  -24.3490  -27.5368   19.9965 C   0  0  0  0  0  0  0  0  0  0  0  0
  -22.1751  -31.4578   23.1048 C   0  0  0  0  0  0  0  0  0  0  0  0
  -24.6495  -26.3226   20.6300 C   0  0  0  0  0  0  0  0  0  0  0  0
  -25.2943  -12.6424   21.1891 C   0  0  0  0  0  0  0  0  0  0  0  0
  -27.0209  -26.7701   20.3357 C   0  0  0  0  0  0  0  0  0  0  0  0
  -23.2868  -11.5136   20.7219 C   0  0  0  0  0  0  0  0  0  0  0  0
  -20.8765  -11.3934   19.3225 C   0  0  0  0  0  0  0  0  0  0  0  0
  -22.3413  -12.5279   20.8730 C   0  0  0  0  0  0  0  0  0  0  0  0
  -27.8122  -15.9683   20.4846 C   0  0  0  0  0  0  0  0  0  0  0  0
  -31.4090  -23.8064   18.2619 C   0  0  0  0  0  0  0  0  0  0  0  0
  -29.5400  -17.2713   20.0951 C   0  0  0  0  0  0  0  0  0  0  0  0
  -30.9215  -24.2152   20.3822 C   0  0  0  0  0  0  0  0  0  0  0  0
  -30.1121  -14.8425   20.2436 C   0  0  0  0  0  0  0  0  0  0  0  0
  -22.0249  -27.8955   22.1351 C   0  0  0  0  0  0  0  0  0  0  0  0
  -21.0823  -24.9992   21.0194 C   0  0  0  0  0  0  0  0  0  0  0  0
  -21.9255  -22.0747   19.4757 C   0  0  0  0  0  0  0  0  0  0  0  0
  -28.5686  -22.2753   17.8230 C   0  0  0  0  0  0  0  0  0  0  0  0
  -19.7974  -32.2772   23.5122 C   0  0  0  0  0  0  0  0  0  0  0  0
  -22.9189  -27.9487   19.7785 C   0  0  0  0  0  0  0  0  0  0  0  0
  -23.5691  -25.4065   21.1419 C   0  0  0  0  0  0  0  0  0  0  0  0
  -19.3745  -30.8121   23.4431 C   0  0  0  0  0  0  0  0  0  0  0  0
  -26.8414  -21.4853   20.8346 C   0  0  0  0  0  0  0  0  0  0  0  0
  -20.4198  -29.9228   24.1090 C   0  0  0  0  0  0  0  0  0  0  0  0
  -27.0496  -19.9779   20.9910 C   0  0  0  0  0  0  0  0  0  0  0  0
  -26.6738  -21.8828   19.3697 C   0  0  0  0  0  0  0  0  0  0  0  0
  -27.9606  -19.9147   18.6320 C   0  0  0  0  0  0  0  0  0  0  0  0
  -21.7711  -30.0280   23.3918 C   0  0  1  0  0  0  0  0  0  0  0  0
  -21.9522  -27.2939   20.7602 C   0  0  1  0  0  0  0  0  0  0  0  0
  -28.1904  -19.4727   20.0874 C   0  0  2  0  0  0  0  0  0  0  0  0
  -30.6330  -24.0088   21.8234 C   0  0  0  0  0  0  0  0  0  0  0  0
  -20.9489  -19.8841   18.7373 C   0  0  0  0  0  0  0  0  0  0  0  0
  -21.1014  -24.0194   23.9090 C   0  0  0  0  0  0  0  0  0  0  0  0
  -21.0613  -21.6718   23.0400 C   0  0  0  0  0  0  0  0  0  0  0  0
  -19.1641  -23.2148   22.5474 C   0  0  0  0  0  0  0  0  0  0  0  0
  -22.5666  -22.6132   16.6370 C   0  0  0  0  0  0  0  0  0  0  0  0
  -31.7311  -22.9889   17.0895 C   0  0  0  0  0  0  0  0  0  0  0  0
  -30.7035  -26.7364   20.3431 C   0  0  0  0  0  0  0  0  0  0  0  0
  -30.5028  -22.5095   16.2859 C   0  0  0  0  0  0  0  0  0  0  0  0
  -29.3199  -27.2788   20.0019 C   0  0  0  0  0  0  0  0  0  1  0  0
  -21.3807  -23.5647   21.3829 C   0  0  1  0  0  0  0  0  0  0  0  0
  -21.2746  -21.3139   18.3345 C   0  0  2  0  0  0  0  0  0  0  0  0
  -20.6975  -23.1356   22.7120 C   0  0  0  0  0  0  0  0  0  0  0  0
  -27.2991  -17.2008   20.4433 N   0  0  0  0  0  0  0  0  0  0  0  0
  -30.9562  -25.3810   19.7287 N   0  0  0  0  0  0  0  0  0  0  0  0
  -28.3744  -17.9709   20.2050 N   0  0  0  0  0  0  0  0  0  0  0  0
  -31.1955  -23.2491   19.4996 N   0  3  0  0  0  0  0  0  0  0  0  0
  -22.1865  -25.8562   20.9103 N   0  0  0  0  0  0  0  0  0  0  0  0
  -27.7891  -21.3746   18.5675 N   0  0  0  0  0  0  0  0  0  0  0  0
  -30.7158  -17.8900   19.8558 N   0  0  0  0  0  0  0  0  0  0  0  0
  -29.5998  -13.5538   20.4466 N   0  0  0  0  0  0  0  0  0  0  0  0
  -21.7573  -29.2507   22.1711 N   0  0  0  0  0  0  0  0  0  0  0  0
  -20.9958  -22.7621   20.2270 N   0  0  0  0  0  0  0  0  0  0  0  0
  -29.6095  -21.7114   17.0957 N   0  0  0  0  0  0  0  0  0  0  0  0
  -22.1831  -21.2742   17.1538 N   0  3  0  0  0  0  0  0  0  0  0  0
  -31.3438  -14.9915   20.0585 O   0  0  0  0  0  0  0  0  0  0  0  0
  -22.3018  -27.1827   23.0927 O   0  0  0  0  0  0  0  0  0  0  0  0
  -19.9131  -25.3448   20.8320 O   0  0  0  0  0  0  0  0  0  0  0  0
  -23.1369  -22.0576   19.6823 O   0  0  0  0  0  0  0  0  0  0  0  0
  -28.3560  -23.4925   17.8119 O   0  0  0  0  0  0  0  0  0  0  0  0
  -24.4842  -11.5722   21.4152 O   0  0  0  0  0  0  0  0  0  0  0  0
  -28.3182  -26.3965   20.5063 O   0  0  0  0  0  0  0  0  0  1  0  0
  -19.7198  -11.3363   18.6494 F   0  0  0  0  0  0  0  0  0  0  0  0
  -22.5857  -13.5632   21.6881 F   0  0  0  0  0  0  0  0  0  0  0  0
  1  2  1  0  0  0  0
  1  5  2  0  0  0  0
  2  6  2  0  0  0  0
  3  8  2  0  0  0  0
  3 16  1  0  0  0  0
  4  9  1  0  0  0  0
  4 16  2  0  0  0  0
  5 18  1  0  0  0  0
  6 20  1  0  0  0  0
  7 10  2  0  0  0  0
  7 19  1  0  0  0  0
  8 22  1  0  0  0  0
  9 22  2  0  0  0  0
 10 23  1  0  0  0  0
 11 12  2  0  0  0  0
 11 24  1  0  0  0  0
 12 25  1  0  0  0  0
 13 21  1  0  0  0  0
 13 23  2  0  0  0  0
 14 25  2  0  0  0  0
 14 26  1  0  0  0  0
 15 28  2  0  0  0  0
 15 62  1  0  0  0  0
 16 27  1  0  0  0  0
 17 27  1  0  0  0  0
 17 29  2  0  0  0  0
 17 31  1  0  0  0  0
 18 20  2  0  0  0  0
 18 36  1  0  0  0  0
 19 21  2  0  0  0  0
 19 37  1  0  0  0  0
 20 45  1  0  0  0  0
 21 38  1  0  0  0  0
 22 78  1  0  0  0  0
 23 79  1  0  0  0  0
 24 26  2  0  0  0  0
 24 78  1  0  0  0  0
 25 80  1  0  0  0  0
 26 81  1  0  0  0  0
 27 61  2  0  0  0  0
 28 54  1  0  0  0  0
 28 64  1  0  0  0  0
 29 63  1  0  0  0  0
 29 67  1  0  0  0  0
 30 48  1  0  0  0  0
 30 62  1  0  0  0  0
 30 64  2  0  0  0  0
 31 68  1  0  0  0  0
 31 73  2  0  0  0  0
 32 46  1  0  0  0  0
 32 69  1  0  0  0  0
 32 74  2  0  0  0  0
 33 58  1  0  0  0  0
 33 65  1  0  0  0  0
 33 75  2  0  0  0  0
 34 59  1  0  0  0  0
 34 70  1  0  0  0  0
 34 76  2  0  0  0  0
 35 66  1  0  0  0  0
 35 71  1  0  0  0  0
 35 77  2  0  0  0  0
 36 39  1  0  0  0  0
 37 46  1  0  0  0  0
 38 65  1  0  0  0  0
 39 41  1  0  0  0  0
 40 42  1  0  0  0  0
 40 43  1  0  0  0  0
 41 45  1  0  0  0  0
 42 47  1  0  0  0  0
 43 66  1  0  0  0  0
 44 47  1  0  0  0  0
 44 66  1  0  0  0  0
 45 69  1  0  0  0  0
 46 65  1  0  0  0  0
 47 63  1  0  0  0  0
 49 59  1  0  0  0  0
 50 60  1  0  0  0  0
 51 60  1  0  0  0  0
 52 60  1  0  0  0  0
 53 72  1  0  0  0  0
 54 56  1  0  0  0  0
 55 57  1  0  0  0  0
 55 62  1  0  0  0  0
 56 71  1  0  0  0  0
 57 79  1  0  0  0  0
 58 60  1  0  0  0  0
 58 70  1  0  0  0  0
 59 72  1  0  0  0  0
 61 63  1  0  0  0  0
M  CHG  2  64   1  72   1
M  ISO  4  35 100  57 101  71 100  79 101
M  END
> <Batch ID>
0077

> <Smiles>
CNC(C)C(=O)NC(C(=O)N1Cc2cc([101O:1][101CH2:1]Cn3cc(CC[100NH:0][100C:0](=O)N4CCCC(n5nc(-c6ccc(Oc7ccc(F)cc7F)cc6)c(C(N)=O)c5N)C4)nc3C)ccc2CC1C(=O)NC1CCCc2ccccc21)C(C)(C)C

> <Shape>
0.242

> <Color>
0.072

> <Negative vol penalty>
0.000

$$$$

  -OEChem-04052318373D

 87 95  0     1  0  0  0  0  0999 V2000
  -31.9081  -17.4844   22.2347 C   0  0  0  0  0  0  0  0  0  0  0  0
  -31.5327  -17.8009   23.5363 C   0  0  0  0  0  0  0  0  0  0  0  0
  -28.9128  -26.7015   18.9543 C   0  0  0  0  0  0  0  0  0  0  0  0
  -27.5467  -24.8936   19.7923 C   0  0  0  0  0  0  0  0  0  0  0  0
  -31.0347  -17.7367   21.1776 C   0  0  0  0  0  0  0  0  0  0  0  0
  -30.2840  -18.3709   23.7816 C   0  0  0  0  0  0  0  0  0  0  0  0
  -22.3144  -19.2360   26.2699 C   0  0  0  0  0  0  0  0  0  0  0  0
  -29.9229  -25.7925   18.6397 C   0  0  0  0  0  0  0  0  0  0  0  0
  -28.5568  -23.9845   19.4777 C   0  0  0  0  0  0  0  0  0  0  0  0
  -21.1754  -19.8142   25.7112 C   0  0  0  0  0  0  0  0  0  0  0  0
  -30.5883  -23.5565   16.1921 C   0  0  0  0  0  0  0  0  0  0  0  0
  -31.2053  -23.6782   14.9471 C   0  0  0  0  0  0  0  0  0  0  0  0
  -21.6843  -18.7625   23.6007 C   0  0  0  0  0  0  0  0  0  0  0  0
  -33.3342  -24.0239   16.0359 C   0  0  0  0  0  0  0  0  0  0  0  0
  -27.7247  -26.2521   19.5306 C   0  0  0  0  0  0  0  0  0  0  0  0
  -25.9987  -28.0446   18.9693 C   0  0  0  0  0  0  0  0  0  0  0  0
  -29.7708  -18.3012   21.4111 C   0  0  0  0  0  0  0  0  0  0  0  0
  -23.1543  -18.4243   25.4939 C   0  0  0  0  0  0  0  0  0  0  0  0
  -29.3933  -18.6322   22.7265 C   0  0  0  0  0  0  0  0  0  0  0  0
  -22.8320  -18.1732   24.1526 C   0  0  0  0  0  0  0  0  0  0  0  0
  -29.7449  -24.4340   18.9014 C   0  0  0  0  0  0  0  0  0  0  0  0
  -20.8617  -19.5798   24.3756 C   0  0  0  0  0  0  0  0  0  0  0  0
  -31.3442  -23.6685   17.3591 C   0  0  0  0  0  0  0  0  0  0  0  0
  -32.5782  -23.9119   14.8690 C   0  0  0  0  0  0  0  0  0  0  0  0
  -32.7171  -23.9022   17.2810 C   0  0  0  0  0  0  0  0  0  0  0  0
  -26.6811  -27.1906   19.8563 C   0  0  0  0  0  0  0  0  0  0  0  0
  -25.1121  -28.7285   19.7648 C   0  0  0  0  0  0  0  0  0  0  0  0
  -26.1523  -28.2053   17.5528 C   0  0  0  0  0  0  0  0  0  0  0  0
  -21.2960  -28.7071   23.8546 C   0  0  0  0  0  0  0  0  0  0  0  0
  -26.1923  -18.5744   24.5713 C   0  0  0  0  0  0  0  0  0  0  0  0
  -25.5733  -15.6177   23.3895 C   0  0  0  0  0  0  0  0  0  0  0  0
  -22.8710  -13.9967   21.6323 C   0  0  0  0  0  0  0  0  0  0  0  0
  -28.8797  -18.5992   20.2313 C   0  0  0  0  0  0  0  0  0  0  0  0
  -24.3647  -17.7864   26.1188 C   0  0  0  0  0  0  0  0  0  0  0  0
  -23.6898  -17.2929   23.2823 C   0  0  0  0  0  0  0  0  0  0  0  0
  -27.4257  -18.8597   20.6166 C   0  0  0  0  0  0  0  0  0  0  0  0
  -24.7395  -29.0262   24.7928 C   0  0  0  0  0  0  0  0  0  0  0  0
  -27.3507  -19.8208   21.7988 C   0  0  0  0  0  0  0  0  0  0  0  0
  -18.1983  -28.2166   23.5683 C   0  0  0  0  0  0  0  0  0  0  0  0
  -19.1783  -26.6592   21.8263 C   0  0  0  0  0  0  0  0  0  0  0  0
  -25.4953  -28.6182   23.5288 C   0  0  0  0  0  0  0  0  0  0  0  0
  -19.0521  -29.2345   22.8084 C   0  0  0  0  0  0  0  0  0  0  0  0
  -20.5210  -27.3978   21.8206 C   0  0  0  0  0  0  0  0  0  0  0  0
  -23.4543  -28.2215   24.9592 C   0  0  0  0  0  0  0  0  0  0  0  0
  -23.2932  -27.8791   22.5141 C   0  0  0  0  0  0  0  0  0  0  0  0
  -28.0373  -19.2288   23.0355 C   0  0  1  0  0  0  0  0  0  0  0  0
  -25.4272  -17.3930   25.0972 C   0  0  1  0  0  0  0  0  0  0  0  0
  -18.4922  -26.7560   23.1895 C   0  0  0  0  0  0  0  0  0  0  0  0
  -24.5825  -28.6894   22.2918 C   0  0  2  0  0  0  0  0  0  0  0  0
  -20.4923  -28.7637   22.5468 C   0  0  0  0  0  0  0  0  0  0  0  0
  -21.4677  -32.2373   21.2135 C   0  0  0  0  0  0  0  0  0  0  0  0
  -15.2179  -25.2301   24.6788 C   0  0  0  0  0  0  0  0  0  0  0  0
  -22.1837  -11.5842   21.5649 C   0  0  0  0  0  0  0  0  0  0  0  0
  -16.2139  -23.8080   22.1998 C   0  0  0  0  0  0  0  0  0  0  0  0
  -27.3119  -15.4926   20.8851 C   0  0  0  0  0  0  0  0  0  0  0  0
  -25.6093  -13.9674   19.8639 C   0  0  0  0  0  0  0  0  0  0  0  0
  -26.8245  -13.2727   21.9286 C   0  0  0  0  0  0  0  0  0  0  0  0
  -20.1130  -14.6382   22.4929 C   0  0  0  0  0  0  0  0  0  0  0  0
  -21.1728  -29.7909   21.6759 C   0  0  0  0  0  0  0  0  0  0  0  0
  -20.8015  -31.2028   22.1064 C   0  0  0  0  0  0  0  0  0  0  0  0
  -16.5439  -25.9781   24.6143 C   0  0  0  0  0  0  0  0  0  0  0  0
  -18.6127  -22.2077   23.2836 C   0  0  0  0  0  0  0  0  0  0  0  0
  -18.1668  -23.5730   23.8141 C   0  0  0  0  0  0  0  0  0  0  0  0
  -19.3280  -21.3973   24.3584 C   0  0  0  0  0  0  0  0  0  1  0  0
  -25.0596  -15.0769   22.0770 C   0  0  1  0  0  0  0  0  0  0  0  0
  -21.9258  -12.9471   22.1883 C   0  0  2  0  0  0  0  0  0  0  0  0
  -17.2170  -25.9156   23.2265 C   0  0  2  0  0  0  0  0  0  0  0  0
  -17.4962  -24.4580   22.7399 C   0  0  2  0  0  0  0  0  0  0  0  0
  -26.1939  -14.4782   21.1981 C   0  0  0  0  0  0  0  0  0  0  0  0
  -26.2640  -27.3186   21.1187 N   0  0  0  0  0  0  0  0  0  0  0  0
  -25.3100  -28.2610   21.0307 N   0  0  0  0  0  0  0  0  0  0  0  0
  -22.6254  -28.2963   23.7548 N   0  0  0  0  0  0  0  0  0  0  0  0
  -24.8660  -16.6972   23.9374 N   0  0  0  0  0  0  0  0  0  0  0  0
  -24.1905  -29.6781   19.4980 N   0  0  0  0  0  0  0  0  0  0  0  0
  -25.3776  -27.4055   16.7017 N   0  0  0  0  0  0  0  0  0  0  0  0
  -27.1829  -18.2454   23.6658 N   0  0  0  0  0  0  0  0  0  0  0  0
  -24.0006  -14.1310   22.4117 N   0  0  0  0  0  0  0  0  0  0  0  0
  -20.5109  -13.3281   21.9164 N   0  3  0  0  0  0  0  0  0  0  0  0
  -26.9648  -29.0221   17.0566 O   0  0  0  0  0  0  0  0  0  0  0  0
  -20.7464  -29.0228   24.9131 O   0  0  0  0  0  0  0  0  0  0  0  0
  -25.9042  -19.7013   24.9572 O   0  0  0  0  0  0  0  0  0  0  0  0
  -26.5614  -15.0967   23.9129 O   0  0  0  0  0  0  0  0  0  0  0  0
  -22.6331  -14.6313   20.6070 O   0  0  0  0  0  0  0  0  0  0  0  0
  -30.7303  -23.5467   18.5944 O   0  0  0  0  0  0  0  0  0  0  0  0
  -19.7429  -20.1475   23.8236 O   0  0  0  0  0  0  0  0  0  1  0  0
  -33.1708  -24.0272   13.6733 F   0  0  0  0  0  0  0  0  0  0  0  0
  -33.4488  -24.0095   18.3986 F   0  0  0  0  0  0  0  0  0  0  0  0
  1  2  1  0  0  0  0
  1  5  2  0  0  0  0
  2  6  2  0  0  0  0
  3  8  2  0  0  0  0
  3 15  1  0  0  0  0
  4  9  1  0  0  0  0
  4 15  2  0  0  0  0
  5 17  1  0  0  0  0
  6 19  1  0  0  0  0
  7 10  2  0  0  0  0
  7 18  1  0  0  0  0
  8 21  1  0  0  0  0
  9 21  2  0  0  0  0
 10 22  1  0  0  0  0
 11 12  2  0  0  0  0
 11 23  1  0  0  0  0
 12 24  1  0  0  0  0
 13 20  1  0  0  0  0
 13 22  2  0  0  0  0
 14 24  2  0  0  0  0
 14 25  1  0  0  0  0
 15 26  1  0  0  0  0
 16 26  1  0  0  0  0
 16 27  2  0  0  0  0
 16 28  1  0  0  0  0
 17 19  2  0  0  0  0
 17 33  1  0  0  0  0
 18 20  2  0  0  0  0
 18 34  1  0  0  0  0
 19 46  1  0  0  0  0
 20 35  1  0  0  0  0
 21 84  1  0  0  0  0
 22 85  1  0  0  0  0
 23 25  2  0  0  0  0
 23 84  1  0  0  0  0
 24 86  1  0  0  0  0
 25 87  1  0  0  0  0
 26 70  2  0  0  0  0
 27 71  1  0  0  0  0
 27 74  1  0  0  0  0
 28 75  1  0  0  0  0
 28 79  2  0  0  0  0
 29 50  1  0  0  0  0
 29 72  1  0  0  0  0
 29 80  2  0  0  0  0
 30 47  1  0  0  0  0
 30 76  1  0  0  0  0
 30 81  2  0  0  0  0
 31 65  1  0  0  0  0
 31 73  1  0  0  0  0
 31 82  2  0  0  0  0
 32 66  1  0  0  0  0
 32 77  1  0  0  0  0
 32 83  2  0  0  0  0
 33 36  1  0  0  0  0
 34 47  1  0  0  0  0
 35 73  1  0  0  0  0
 36 38  1  0  0  0  0
 37 41  1  0  0  0  0
 37 44  1  0  0  0  0
 38 46  1  0  0  0  0
 39 42  1  0  0  0  0
 39 48  1  0  0  0  0
 40 43  1  0  0  0  0
 40 48  1  0  0  0  0
 41 49  1  0  0  0  0
 42 50  1  0  0  0  0
 43 50  1  0  0  0  0
 44 72  1  0  0  0  0
 45 49  1  0  0  0  0
 45 72  1  0  0  0  0
 46 76  1  0  0  0  0
 47 73  1  0  0  0  0
 48 67  1  0  0  0  0
 49 71  1  0  0  0  0
 50 59  1  0  0  0  0
 51 60  1  0  0  0  0
 52 61  1  0  0  0  0
 53 66  1  0  0  0  0
 54 68  1  0  0  0  0
 55 69  1  0  0  0  0
 56 69  1  0  0  0  0
 57 69  1  0  0  0  0
 58 78  1  0  0  0  0
 59 60  1  0  0  0  0
 61 67  1  0  0  0  0
 62 63  1  0  0  0  0
 62 64  1  0  0  0  0
 63 68  1  0  0  0  0
 64 85  1  0  0  0  0
 65 69  1  0  0  0  0
 65 77  1  0  0  0  0
 66 78  1  0  0  0  0
 67 68  1  0  0  0  0
 70 71  1  0  0  0  0
M  CHG  1  78   1
M  ISO  4  29 100  50 100  64 101  85 101
M  END
> <Batch ID>
0077

> <Smiles>
CCC[100C:0]1([100C:0](=O)N2CCCC(n3nc(-c4ccc(Oc5ccc(F)cc5F)cc4)c(C(N)=O)c3N)C2)CCC(C(CC)C(C)CC[101CH2:1][101O:1]c2ccc3c(c2)CN(C(=O)C(NC(=O)C(C)NC)C(C)(C)C)C(C(=O)NC2CCCc4ccccc42)C3)CC1

> <Shape>
0.204

> <Color>
0.053

> <Negative vol penalty>
0.000

$$$$

  -OEChem-04052318373D

 84 92  0     1  0  0  0  0  0999 V2000
  -32.3086  -13.7610   20.7765 C   0  0  0  0  0  0  0  0  0  0  0  0
  -31.5651  -14.8964   21.0824 C   0  0  0  0  0  0  0  0  0  0  0  0
  -26.5326  -28.0801   18.7649 C   0  0  0  0  0  0  0  0  0  0  0  0
  -26.0589  -26.7882   20.7507 C   0  0  0  0  0  0  0  0  0  0  0  0
  -31.6956  -12.6746   20.1538 C   0  0  0  0  0  0  0  0  0  0  0  0
  -30.2083  -14.9464   20.7647 C   0  0  0  0  0  0  0  0  0  0  0  0
  -25.7793  -17.7198   23.9581 C   0  0  0  0  0  0  0  0  0  0  0  0
  -25.8878  -29.1816   19.3276 C   0  0  0  0  0  0  0  0  0  0  0  0
  -25.4142  -27.8896   21.3135 C   0  0  0  0  0  0  0  0  0  0  0  0
  -25.1527  -18.9569   23.8136 C   0  0  0  0  0  0  0  0  0  0  0  0
  -26.2897  -30.7679   22.8527 C   0  0  0  0  0  0  0  0  0  0  0  0
  -26.5760  -31.0746   24.1830 C   0  0  0  0  0  0  0  0  0  0  0  0
  -23.3604  -17.8997   22.5933 C   0  0  0  0  0  0  0  0  0  0  0  0
  -24.2470  -30.7773   24.7527 C   0  0  0  0  0  0  0  0  0  0  0  0
  -22.1530  -22.6455   19.9950 C   0  0  0  0  0  0  0  0  0  0  0  0
  -26.6181  -26.8834   19.4764 C   0  0  0  0  0  0  0  0  0  0  0  0
  -28.6468  -25.4108   19.0033 C   0  0  0  0  0  0  0  0  0  0  0  0
  -30.3284  -12.7075   19.8371 C   0  0  0  0  0  0  0  0  0  0  0  0
  -25.2056  -16.5631   23.4110 C   0  0  0  0  0  0  0  0  0  0  0  0
  -29.5767  -13.8599   20.1359 C   0  0  0  0  0  0  0  0  0  0  0  0
  -23.9804  -16.6488   22.7345 C   0  0  0  0  0  0  0  0  0  0  0  0
  -25.3286  -29.0863   20.6019 C   0  0  0  0  0  0  0  0  0  0  0  0
  -23.9446  -19.0474   23.1286 C   0  0  0  0  0  0  0  0  0  0  0  0
  -24.9821  -30.4660   22.4724 C   0  0  0  0  0  0  0  0  0  0  0  0
  -25.5547  -31.0792   25.1330 C   0  0  0  0  0  0  0  0  0  0  0  0
  -23.9608  -30.4706   23.4224 C   0  0  0  0  0  0  0  0  0  0  0  0
  -27.2835  -25.7451   18.8953 C   0  0  0  0  0  0  0  0  0  0  0  0
  -21.9849  -22.1886   18.7038 C   0  0  0  0  0  0  0  0  0  0  0  0
  -23.2139  -22.0994   20.6882 C   0  0  0  0  0  0  0  0  0  0  0  0
  -28.7741  -24.2504   18.2797 C   0  0  0  0  0  0  0  0  0  0  0  0
  -23.7841  -20.8136   18.9025 C   0  0  0  0  0  0  0  0  0  0  0  0
  -29.7035  -26.0887   19.6958 C   0  0  0  0  0  0  0  0  0  0  0  0
  -26.0909  -14.4443   21.2131 C   0  0  0  0  0  0  0  0  0  0  0  0
  -23.3952  -12.9121   22.1660 C   0  0  0  0  0  0  0  0  0  0  0  0
  -24.8054  -19.9865   16.8031 C   0  0  0  0  0  0  0  0  0  0  0  0
  -20.3070  -13.1068   23.6054 C   0  0  0  0  0  0  0  0  0  0  0  0
  -29.7204  -11.5273   19.1214 C   0  0  0  0  0  0  0  0  0  0  0  0
  -25.8807  -15.2322   23.5987 C   0  0  0  0  0  0  0  0  0  0  0  0
  -23.3129  -15.4336   22.1460 C   0  0  0  0  0  0  0  0  0  0  0  0
  -28.1944  -11.5135   19.1570 C   0  0  0  0  0  0  0  0  0  0  0  0
  -26.8630  -21.9045   14.5834 C   0  0  0  0  0  0  0  0  0  0  0  0
  -27.6398  -12.8917   18.8106 C   0  0  0  0  0  0  0  0  0  0  0  0
  -27.3048  -23.0912   15.4388 C   0  0  0  0  0  0  0  0  0  0  0  0
  -25.4430  -21.4661   14.9274 C   0  0  0  0  0  0  0  0  0  0  0  0
  -25.6789  -22.3370   17.2312 C   0  0  0  0  0  0  0  0  0  0  0  0
  -28.0970  -13.9424   19.8296 C   0  0  1  0  0  0  0  0  0  0  0  0
  -25.4644  -14.1988   22.5566 C   0  0  1  0  0  0  0  0  0  0  0  0
  -27.1193  -22.7921   16.9370 C   0  0  2  0  0  0  0  0  0  0  0  0
  -20.8646  -22.7219   17.8752 C   0  0  0  0  0  0  0  0  0  0  0  0
  -18.3237  -11.6940   24.2118 C   0  0  0  0  0  0  0  0  0  0  0  0
  -22.2095  -22.9713   22.9040 C   0  0  0  0  0  0  0  0  0  0  0  0
  -24.4273  -23.7729   22.1189 C   0  0  0  0  0  0  0  0  0  0  0  0
  -24.1628  -18.3603   18.5414 C   0  0  0  0  0  0  0  0  0  0  0  0
  -26.1705  -19.8248   18.7833 C   0  0  0  0  0  0  0  0  0  0  0  0
  -22.5387  -12.8619   19.2379 C   0  0  0  0  0  0  0  0  0  0  0  0
  -20.2135  -12.3310   19.9994 C   0  0  0  0  0  0  0  0  0  0  0  0
  -22.0782  -10.7501   20.4958 C   0  0  0  0  0  0  0  0  0  0  0  0
  -20.6040  -13.7207   26.4853 C   0  0  0  0  0  0  0  0  0  0  0  0
  -24.1702  -21.4067   22.9327 C   0  0  0  0  0  0  0  0  0  1  0  0
  -21.9445  -12.9417   21.7492 C   0  0  1  0  0  0  0  0  0  0  0  0
  -19.6463  -12.2736   24.6888 C   0  0  2  0  0  0  0  0  0  0  0  0
  -23.4849  -22.5473   22.1367 C   0  0  0  0  0  0  0  0  0  0  0  0
  -24.6925  -19.7989   18.2951 C   0  0  0  0  0  0  0  0  0  0  0  0
  -21.7070  -12.2446   20.3799 C   0  0  0  0  0  0  0  0  0  0  0  0
  -26.5941  -24.8680   18.1608 N   0  0  0  0  0  0  0  0  0  0  0  0
  -22.7848  -21.2699   18.1237 N   0  0  0  0  0  0  0  0  0  0  0  0
  -24.0525  -21.1777   20.1709 N   0  0  0  0  0  0  0  0  0  0  0  0
  -27.5280  -23.9712   17.8007 N   0  0  0  0  0  0  0  0  0  0  0  0
  -24.0152  -14.1560   22.3505 N   0  0  0  0  0  0  0  0  0  0  0  0
  -25.3019  -21.2134   16.3624 N   0  0  0  0  0  0  0  0  0  0  0  0
  -29.8293  -23.4518   18.0127 N   0  0  0  0  0  0  0  0  0  0  0  0
  -29.3990  -27.2679   20.3895 N   0  0  0  0  0  0  0  0  0  0  0  0
  -27.3211  -13.8374   21.0466 N   0  0  0  0  0  0  0  0  0  0  0  0
  -21.1903  -12.3604   22.8544 N   0  0  0  0  0  0  0  0  0  0  0  0
  -19.3860  -13.1068   25.8966 N   0  3  0  0  0  0  0  0  0  0  0  0
  -30.8860  -25.6702   19.6858 O   0  0  0  0  0  0  0  0  0  0  0  0
  -25.5011  -15.1322   20.3881 O   0  0  0  0  0  0  0  0  0  0  0  0
  -23.9555  -11.8253   22.3290 O   0  0  0  0  0  0  0  0  0  0  0  0
  -24.4647  -19.0678   16.0533 O   0  0  0  0  0  0  0  0  0  0  0  0
  -20.0611  -14.2995   23.4394 O   0  0  0  0  0  0  0  0  0  0  0  0
  -24.6996  -30.1610   21.1515 O   0  0  0  0  0  0  0  0  0  0  0  0
  -23.3312  -20.2537   22.9856 O   0  0  0  0  0  0  0  0  0  1  0  0
  -25.8300  -31.3722   26.4107 F   0  0  0  0  0  0  0  0  0  0  0  0
  -22.7028  -30.1802   23.0633 F   0  0  0  0  0  0  0  0  0  0  0  0
  1  2  1  0  0  0  0
  1  5  2  0  0  0  0
  2  6  2  0  0  0  0
  3  8  2  0  0  0  0
  3 16  1  0  0  0  0
  4  9  1  0  0  0  0
  4 16  2  0  0  0  0
  5 18  1  0  0  0  0
  6 20  1  0  0  0  0
  7 10  2  0  0  0  0
  7 19  1  0  0  0  0
  8 22  1  0  0  0  0
  9 22  2  0  0  0  0
 10 23  1  0  0  0  0
 11 12  2  0  0  0  0
 11 24  1  0  0  0  0
 12 25  1  0  0  0  0
 13 21  1  0  0  0  0
 13 23  2  0  0  0  0
 14 25  2  0  0  0  0
 14 26  1  0  0  0  0
 15 28  2  0  0  0  0
 15 29  1  0  0  0  0
 16 27  1  0  0  0  0
 17 27  1  0  0  0  0
 17 30  2  0  0  0  0
 17 32  1  0  0  0  0
 18 20  2  0  0  0  0
 18 37  1  0  0  0  0
 19 21  2  0  0  0  0
 19 38  1  0  0  0  0
 20 46  1  0  0  0  0
 21 39  1  0  0  0  0
 22 81  1  0  0  0  0
 23 82  1  0  0  0  0
 24 26  2  0  0  0  0
 24 81  1  0  0  0  0
 25 83  1  0  0  0  0
 26 84  1  0  0  0  0
 27 65  2  0  0  0  0
 28 49  1  0  0  0  0
 28 66  1  0  0  0  0
 29 62  1  0  0  0  0
 29 67  2  0  0  0  0
 30 68  1  0  0  0  0
 30 71  1  0  0  0  0
 31 63  1  0  0  0  0
 31 66  2  0  0  0  0
 31 67  1  0  0  0  0
 32 72  1  0  0  0  0
 32 76  2  0  0  0  0
 33 47  1  0  0  0  0
 33 73  1  0  0  0  0
 33 77  2  0  0  0  0
 34 60  1  0  0  0  0
 34 69  1  0  0  0  0
 34 78  2  0  0  0  0
 35 63  1  0  0  0  0
 35 70  1  0  0  0  0
 35 79  2  0  0  0  0
 36 61  1  0  0  0  0
 36 74  1  0  0  0  0
 36 80  2  0  0  0  0
 37 40  1  0  0  0  0
 38 47  1  0  0  0  0
 39 69  1  0  0  0  0
 40 42  1  0  0  0  0
 41 43  1  0  0  0  0
 41 44  1  0  0  0  0
 42 46  1  0  0  0  0
 43 48  1  0  0  0  0
 44 70  1  0  0  0  0
 45 48  1  0  0  0  0
 45 70  1  0  0  0  0
 46 73  1  0  0  0  0
 47 69  1  0  0  0  0
 48 68  1  0  0  0  0
 50 61  1  0  0  0  0
 51 62  1  0  0  0  0
 52 62  1  0  0  0  0
 53 63  1  0  0  0  0
 54 63  1  0  0  0  0
 55 64  1  0  0  0  0
 56 64  1  0  0  0  0
 57 64  1  0  0  0  0
 58 75  1  0  0  0  0
 59 62  1  0  0  0  0
 59 82  1  0  0  0  0
 60 64  1  0  0  0  0
 60 74  1  0  0  0  0
 61 75  1  0  0  0  0
 65 68  1  0  0  0  0
M  CHG  1  75   1
M  ISO  4  35 100  59 101  63 100  82 101
M  END
> <Batch ID>
0077

> <Smiles>
CNC(C)C(=O)NC(C(=O)N1Cc2cc([101O:1][101CH2:1]C(C)(C)c3cc(C)nc([100C:0](C)(C)[100C:0](=O)N4CCCC(n5nc(-c6ccc(Oc7ccc(F)cc7F)cc6)c(C(N)=O)c5N)C4)n3)ccc2CC1C(=O)NC1CCCc2ccccc21)C(C)(C)C

> <Shape>
0.209

> <Color>
0.077

> <Negative vol penalty>
0.000

$$$$

  -OEChem-04052318373D

 86 94  0     1  0  0  0  0  0999 V2000
  -28.2948  -32.1477   13.5171 C   0  0  0  0  0  0  0  0  0  0  0  0
  -27.6908  -30.8946   13.4980 C   0  0  0  0  0  0  0  0  0  0  0  0
  -23.0742   -9.8677   19.9361 C   0  0  0  0  0  0  0  0  0  0  0  0
  -23.8388   -9.8666   22.2279 C   0  0  0  0  0  0  0  0  0  0  0  0
  -29.6756  -32.2523   13.6790 C   0  0  0  0  0  0  0  0  0  0  0  0
  -28.4675  -29.7453   13.6399 C   0  0  0  0  0  0  0  0  0  0  0  0
  -28.1920  -23.1204   16.3512 C   0  0  0  0  0  0  0  0  0  0  0  0
  -22.3336   -8.7117   20.1826 C   0  0  0  0  0  0  0  0  0  0  0  0
  -23.0982   -8.7106   22.4744 C   0  0  0  0  0  0  0  0  0  0  0  0
  -28.4150  -21.7949   15.9808 C   0  0  0  0  0  0  0  0  0  0  0  0
  -21.1227   -5.9631   23.8034 C   0  0  0  0  0  0  0  0  0  0  0  0
  -20.3689   -5.9127   24.9760 C   0  0  0  0  0  0  0  0  0  0  0  0
  -30.7817  -22.1007   16.3338 C   0  0  0  0  0  0  0  0  0  0  0  0
  -30.0287  -17.8699   18.5061 C   0  0  0  0  0  0  0  0  0  0  0  0
  -19.1182   -7.8501   24.2553 C   0  0  0  0  0  0  0  0  0  0  0  0
  -32.6556  -17.2511   18.1033 C   0  0  0  0  0  0  0  0  0  0  0  0
  -23.8269  -10.4451   20.9587 C   0  0  0  0  0  0  0  0  0  0  0  0
  -24.1624  -12.9716   20.8488 C   0  0  0  0  0  0  0  0  0  0  0  0
  -30.4685  -31.1041   13.8326 C   0  0  0  0  0  0  0  0  0  0  0  0
  -29.2652  -23.9505   16.7057 C   0  0  0  0  0  0  0  0  0  0  0  0
  -29.8605  -29.8346   13.8027 C   0  0  0  0  0  0  0  0  0  0  0  0
  -30.5694  -23.4356   16.7107 C   0  0  0  0  0  0  0  0  0  0  0  0
  -30.4760  -17.5998   17.2176 C   0  0  0  0  0  0  0  0  0  0  0  0
  -22.3456   -8.1332   21.4518 C   0  0  0  0  0  0  0  0  0  0  0  0
  -29.7103  -21.2857   15.9693 C   0  0  0  0  0  0  0  0  0  0  0  0
  -20.8742   -6.9570   22.8568 C   0  0  0  0  0  0  0  0  0  0  0  0
  -31.8130  -17.2837   17.0038 C   0  0  0  0  0  0  0  0  0  0  0  0
  -19.3667   -6.8561   25.2020 C   0  0  0  0  0  0  0  0  0  0  0  0
  -19.8720   -7.9005   23.0828 C   0  0  0  0  0  0  0  0  0  0  0  0
  -24.5926  -11.6390   20.7045 C   0  0  0  0  0  0  0  0  0  0  0  0
  -30.9511  -17.8108   19.5384 C   0  0  0  0  0  0  0  0  0  0  0  0
  -25.2520  -13.7252   20.4865 C   0  0  0  0  0  0  0  0  0  0  0  0
  -22.8916  -13.4826   21.2725 C   0  0  0  0  0  0  0  0  0  0  0  0
  -30.5003  -26.6391   15.5440 C   0  0  0  0  0  0  0  0  0  0  0  0
  -32.3613  -26.4708   18.1957 C   0  0  0  0  0  0  0  0  0  0  0  0
  -33.7563  -24.5384   20.6383 C   0  0  0  0  0  0  0  0  0  0  0  0
  -30.7337  -14.7567   20.6678 C   0  0  0  0  0  0  0  0  0  0  0  0
  -31.9629  -31.2653   13.9575 C   0  0  0  0  0  0  0  0  0  0  0  0
  -29.0051  -25.3703   17.1285 C   0  0  0  0  0  0  0  0  0  0  0  0
  -31.7537  -24.2797   17.1025 C   0  0  0  0  0  0  0  0  0  0  0  0
  -32.6690  -30.0154   14.4768 C   0  0  0  0  0  0  0  0  0  0  0  0
  -29.5968  -12.3797   18.2732 C   0  0  0  0  0  0  0  0  0  0  0  0
  -32.1670  -28.7754   13.7439 C   0  0  0  0  0  0  0  0  0  0  0  0
  -28.1610  -12.0806   18.7078 C   0  0  0  0  0  0  0  0  0  0  0  0
  -30.5159  -12.5976   19.4731 C   0  0  0  0  0  0  0  0  0  0  0  0
  -28.6153  -13.3181   20.8668 C   0  0  0  0  0  0  0  0  0  0  0  0
  -30.6662  -28.5657   13.9783 C   0  0  1  0  0  0  0  0  0  0  0  0
  -30.2257  -26.2726   16.9751 C   0  0  1  0  0  0  0  0  0  0  0  0
  -27.6391  -13.1462   19.6904 C   0  0  2  0  0  0  0  0  0  0  0  0
  -28.3892  -16.6066   16.2223 C   0  0  0  0  0  0  0  0  0  0  0  0
  -35.2597  -24.6783   22.6427 C   0  0  0  0  0  0  0  0  0  0  0  0
  -28.9861  -18.4443   21.0985 C   0  0  0  0  0  0  0  0  0  0  0  0
  -31.2649  -19.3370   21.5056 C   0  0  0  0  0  0  0  0  0  0  0  0
  -34.7847  -26.7146   16.3579 C   0  0  0  0  0  0  0  0  0  0  0  0
  -36.2126  -25.9059   18.2487 C   0  0  0  0  0  0  0  0  0  0  0  0
  -34.9415  -28.0406   18.4725 C   0  0  0  0  0  0  0  0  0  0  0  0
  -31.6293  -23.5568   22.4469 C   0  0  0  0  0  0  0  0  0  0  0  0
  -33.6832  -16.7006   15.6554 C   0  0  0  0  0  0  0  0  0  0  0  0
  -30.7969  -16.9021   21.9138 C   0  0  0  0  0  0  0  0  0  0  0  0
  -28.8905  -19.0549   15.8819 C   0  0  0  0  0  0  0  0  0  1  0  0
  -29.4935  -17.6546   16.0582 C   0  0  1  0  0  0  0  0  0  0  0  0
  -33.6930  -25.8428   18.5291 C   0  0  1  0  0  0  0  0  0  0  0  0
  -33.8231  -24.7121   22.1449 C   0  0  2  0  0  0  0  0  0  0  0  0
  -30.5060  -18.0951   20.9345 C   0  0  0  0  0  0  0  0  0  0  0  0
  -34.8860  -26.6104   17.8927 C   0  0  0  0  0  0  0  0  0  0  0  0
  -32.2576  -17.5074   19.3696 N   0  0  0  0  0  0  0  0  0  0  0  0
  -25.8568  -11.5480   20.2831 N   0  0  0  0  0  0  0  0  0  0  0  0
  -26.2303  -12.8330   20.1595 N   0  0  0  0  0  0  0  0  0  0  0  0
  -31.4487  -25.6634   17.5021 N   0  0  0  0  0  0  0  0  0  0  0  0
  -29.9647  -13.6209   20.3646 N   0  0  0  0  0  0  0  0  0  0  0  0
  -25.4590  -15.0575   20.4187 N   0  0  0  0  0  0  0  0  0  0  0  0
  -21.8825  -12.5695   21.6080 N   0  0  0  0  0  0  0  0  0  0  0  0
  -30.4340  -27.9954   15.2880 N   0  0  0  0  0  0  0  0  0  0  0  0
  -33.7487  -25.7521   19.9841 N   0  0  0  0  0  0  0  0  0  0  0  0
  -30.1340  -15.6804   21.5150 N   0  0  0  0  0  0  0  0  0  0  0  0
  -33.0641  -23.6252   22.8257 N   0  3  0  0  0  0  0  0  0  0  0  0
  -22.6525  -14.7123   21.3357 O   0  0  0  0  0  0  0  0  0  0  0  0
  -30.7551  -25.7569   14.7326 O   0  0  0  0  0  0  0  0  0  0  0  0
  -32.1363  -27.6325   18.5442 O   0  0  0  0  0  0  0  0  0  0  0  0
  -33.7186  -23.4362   20.0958 O   0  0  0  0  0  0  0  0  0  0  0  0
  -31.8682  -14.9368   20.2126 O   0  0  0  0  0  0  0  0  0  0  0  0
  -21.6228   -7.0053   21.6928 O   0  0  0  0  0  0  0  0  0  0  0  0
  -32.2936  -17.0138   15.7635 O   0  0  0  0  0  0  0  0  0  0  0  0
  -29.9308  -19.9925   15.6076 O   0  0  0  0  0  0  0  0  0  1  0  0
  -18.6420   -6.8066   26.3273 F   0  0  0  0  0  0  0  0  0  0  0  0
  -19.6279   -8.8570   22.1765 F   0  0  0  0  0  0  0  0  0  0  0  0
  1  2  1  0  0  0  0
  1  5  2  0  0  0  0
  2  6  2  0  0  0  0
  3  8  2  0  0  0  0
  3 17  1  0  0  0  0
  4  9  1  0  0  0  0
  4 17  2  0  0  0  0
  5 19  1  0  0  0  0
  6 21  1  0  0  0  0
  7 10  2  0  0  0  0
  7 20  1  0  0  0  0
  8 24  1  0  0  0  0
  9 24  2  0  0  0  0
 10 25  1  0  0  0  0
 11 12  2  0  0  0  0
 11 26  1  0  0  0  0
 12 28  1  0  0  0  0
 13 22  1  0  0  0  0
 13 25  2  0  0  0  0
 14 23  1  0  0  0  0
 14 31  2  0  0  0  0
 15 28  2  0  0  0  0
 15 29  1  0  0  0  0
 16 27  1  0  0  0  0
 16 66  2  0  0  0  0
 17 30  1  0  0  0  0
 18 30  1  0  0  0  0
 18 32  2  0  0  0  0
 18 33  1  0  0  0  0
 19 21  2  0  0  0  0
 19 38  1  0  0  0  0
 20 22  2  0  0  0  0
 20 39  1  0  0  0  0
 21 47  1  0  0  0  0
 22 40  1  0  0  0  0
 23 27  2  0  0  0  0
 23 61  1  0  0  0  0
 24 82  1  0  0  0  0
 25 84  1  0  0  0  0
 26 29  2  0  0  0  0
 26 82  1  0  0  0  0
 27 83  1  0  0  0  0
 28 85  1  0  0  0  0
 29 86  1  0  0  0  0
 30 67  2  0  0  0  0
 31 64  1  0  0  0  0
 31 66  1  0  0  0  0
 32 68  1  0  0  0  0
 32 71  1  0  0  0  0
 33 72  1  0  0  0  0
 33 77  2  0  0  0  0
 34 48  1  0  0  0  0
 34 73  1  0  0  0  0
 34 78  2  0  0  0  0
 35 62  1  0  0  0  0
 35 69  1  0  0  0  0
 35 79  2  0  0  0  0
 36 63  1  0  0  0  0
 36 74  1  0  0  0  0
 36 80  2  0  0  0  0
 37 70  1  0  0  0  0
 37 75  1  0  0  0  0
 37 81  2  0  0  0  0
 38 41  1  0  0  0  0
 39 48  1  0  0  0  0
 40 69  1  0  0  0  0
 41 43  1  0  0  0  0
 42 44  1  0  0  0  0
 42 45  1  0  0  0  0
 43 47  1  0  0  0  0
 44 49  1  0  0  0  0
 45 70  1  0  0  0  0
 46 49  1  0  0  0  0
 46 70  1  0  0  0  0
 47 73  1  0  0  0  0
 48 69  1  0  0  0  0
 49 68  1  0  0  0  0
 50 61  1  0  0  0  0
 51 63  1  0  0  0  0
 52 64  1  0  0  0  0
 53 64  1  0  0  0  0
 54 65  1  0  0  0  0
 55 65  1  0  0  0  0
 56 65  1  0  0  0  0
 57 76  1  0  0  0  0
 58 83  1  0  0  0  0
 59 64  1  0  0  0  0
 59 75  1  0  0  0  0
 60 61  1  0  0  0  0
 60 84  1  0  0  0  0
 62 65  1  0  0  0  0
 62 74  1  0  0  0  0
 63 76  1  0  0  0  0
 67 68  1  0  0  0  0
M  CHG  1  76   1
M  ISO  4  37 100  60 101  75 100  84 101
M  END
> <Batch ID>
0077

> <Smiles>
CNC(C)C(=O)NC(C(=O)N1Cc2cc([101O:1][101CH2:1]C(C)c3cc(C(C)(C)C[100NH:0][100C:0](=O)N4CCCC(n5nc(-c6ccc(Oc7ccc(F)cc7F)cc6)c(C(N)=O)c5N)C4)ncc3OC)ccc2CC1C(=O)NC1CCCc2ccccc21)C(C)(C)C

> <Shape>
0.207

> <Color>
0.184

> <Negative vol penalty>
0.000

$$$$

  -OEChem-04052318373D

 87 95  0     1  0  0  0  0  0999 V2000
  -22.7381  -18.5161   18.0147 C   0  0  0  0  0  0  0  0  0  0  0  0
  -24.1286  -18.4966   17.9773 C   0  0  0  0  0  0  0  0  0  0  0  0
  -26.8920  -29.7027   20.2823 C   0  0  0  0  0  0  0  0  0  0  0  0
  -25.4889  -27.8386   20.9095 C   0  0  0  0  0  0  0  0  0  0  0  0
  -22.0569  -17.7621   18.9693 C   0  0  0  0  0  0  0  0  0  0  0  0
  -24.8389  -17.7237   18.8952 C   0  0  0  0  0  0  0  0  0  0  0  0
  -30.1057  -14.7566   17.9143 C   0  0  0  0  0  0  0  0  0  0  0  0
  -25.7566  -30.4742   20.0352 C   0  0  0  0  0  0  0  0  0  0  0  0
  -24.3534  -28.6102   20.6625 C   0  0  0  0  0  0  0  0  0  0  0  0
  -31.4313  -15.0781   18.2030 C   0  0  0  0  0  0  0  0  0  0  0  0
  -22.6015  -31.0353   22.2341 C   0  0  0  0  0  0  0  0  0  0  0  0
  -21.5741  -30.9940   23.1766 C   0  0  0  0  0  0  0  0  0  0  0  0
  -31.2946  -13.7890   20.2374 C   0  0  0  0  0  0  0  0  0  0  0  0
  -31.9444  -17.6657   21.8789 C   0  0  0  0  0  0  0  0  0  0  0  0
  -20.0592  -30.1614   21.4886 C   0  0  0  0  0  0  0  0  0  0  0  0
  -26.7582  -28.3848   20.7194 C   0  0  0  0  0  0  0  0  0  0  0  0
  -28.6307  -27.4690   22.1899 C   0  0  0  0  0  0  0  0  0  0  0  0
  -22.7589  -16.9720   19.8933 C   0  0  0  0  0  0  0  0  0  0  0  0
  -29.3600  -13.9565   18.7920 C   0  0  0  0  0  0  0  0  0  0  0  0
  -24.1665  -16.9594   19.8640 C   0  0  0  0  0  0  0  0  0  0  0  0
  -29.9605  -13.4567   19.9563 C   0  0  0  0  0  0  0  0  0  0  0  0
  -33.3297  -17.9027   21.7003 C   0  0  0  0  0  0  0  0  0  0  0  0
  -24.4873  -29.9280   20.2253 C   0  0  0  0  0  0  0  0  0  0  0  0
  -32.0250  -14.5967   19.3661 C   0  0  0  0  0  0  0  0  0  0  0  0
  -22.3578  -30.6398   20.9188 C   0  0  0  0  0  0  0  0  0  0  0  0
  -20.3030  -30.5570   22.8039 C   0  0  0  0  0  0  0  0  0  0  0  0
  -21.0867  -30.2028   20.5461 C   0  0  0  0  0  0  0  0  0  0  0  0
  -27.9307  -27.5871   20.9743 C   0  0  0  0  0  0  0  0  0  0  0  0
  -31.3250  -18.8929   21.9656 C   0  0  0  0  0  0  0  0  0  0  0  0
  -33.5146  -19.2676   21.6835 C   0  0  0  0  0  0  0  0  0  0  0  0
  -29.6581  -26.6010   21.9116 C   0  0  0  0  0  0  0  0  0  0  0  0
  -28.3751  -28.0885   23.4575 C   0  0  0  0  0  0  0  0  0  0  0  0
  -26.7257  -14.3763   20.5205 C   0  0  0  0  0  0  0  0  0  0  0  0
  -27.0977  -11.2144   21.1416 C   0  0  0  0  0  0  0  0  0  0  0  0
  -29.1919   -8.5267   21.3355 C   0  0  0  0  0  0  0  0  0  0  0  0
  -30.3598  -22.2949   17.8108 C   0  0  0  0  0  0  0  0  0  0  0  0
  -21.9803  -16.2108   20.9368 C   0  0  0  0  0  0  0  0  0  0  0  0
  -27.9394  -13.5967   18.4529 C   0  0  0  0  0  0  0  0  0  0  0  0
  -29.2095  -12.5773   20.9212 C   0  0  0  0  0  0  0  0  0  0  0  0
  -22.7963  -15.1254   21.6342 C   0  0  0  0  0  0  0  0  0  0  0  0
  -32.4494  -25.1335   18.3135 C   0  0  0  0  0  0  0  0  0  0  0  0
  -24.1606  -15.6669   22.0492 C   0  0  0  0  0  0  0  0  0  0  0  0
  -31.5914  -26.0736   19.1621 C   0  0  0  0  0  0  0  0  0  0  0  0
  -31.6090  -24.3702   17.2921 C   0  0  0  0  0  0  0  0  0  0  0  0
  -29.6017  -24.5795   18.7066 C   0  0  0  0  0  0  0  0  0  0  0  0
  -24.9716  -16.1142   20.8270 C   0  0  1  0  0  0  0  0  0  0  0  0
  -27.1163  -13.1980   19.6739 C   0  0  1  0  0  0  0  0  0  0  0  0
  -30.3967  -25.3299   19.7888 C   0  0  2  0  0  0  0  0  0  0  0  0
  -34.7536  -20.0591   21.5268 C   0  0  0  0  0  0  0  0  0  0  0  0
  -29.2132   -6.0831   21.9064 C   0  0  0  0  0  0  0  0  0  0  0  0
  -29.0412  -17.9082   22.2555 C   0  0  0  0  0  0  0  0  0  0  0  0
  -29.5383  -20.0140   23.4635 C   0  0  0  0  0  0  0  0  0  0  0  0
  -26.9603  -11.9090   24.1095 C   0  0  0  0  0  0  0  0  0  0  0  0
  -27.9193   -9.6514   24.6110 C   0  0  0  0  0  0  0  0  0  0  0  0
  -25.7124   -9.8403   23.4634 C   0  0  0  0  0  0  0  0  0  0  0  0
  -32.0493  -21.2867   21.8849 C   0  0  0  0  0  0  0  0  0  0  0  0
  -30.0841   -7.7799   18.6142 C   0  0  0  0  0  0  0  0  0  0  0  0
  -34.3984  -16.8489   21.5554 C   0  0  0  0  0  0  0  0  0  0  0  0
  -34.8886  -16.6624   20.1179 C   0  0  0  0  0  0  0  0  0  0  0  0
  -29.7062  -19.5457   19.5578 C   0  0  0  0  0  0  0  0  0  0  0  0
  -29.2777  -20.0466   20.9475 C   0  0  0  0  0  0  0  0  0  0  0  0
  -29.0124  -20.3044   18.4286 C   0  0  0  0  0  0  0  0  0  0  0  0
  -33.8044  -16.1623   19.1703 C   0  0  0  0  0  0  0  0  0  1  0  0
  -27.8228  -10.4094   22.1929 C   0  0  1  0  0  0  0  0  0  0  0  0
  -29.0688   -7.1128   20.7966 C   0  0  2  0  0  0  0  0  0  0  0  0
  -29.8966  -19.2211   22.1520 C   0  0  0  0  0  0  0  0  0  0  0  0
  -27.1175  -10.4707   23.5772 C   0  0  0  0  0  0  0  0  0  0  0  0
  -28.4681  -26.8530   19.9964 N   0  0  0  0  0  0  0  0  0  0  0  0
  -32.2893  -19.8593   21.8459 N   0  0  0  0  0  0  0  0  0  0  0  0
  -29.5167  -26.2652   20.5973 N   0  0  0  0  0  0  0  0  0  0  0  0
  -27.8212  -12.2588   20.5486 N   0  0  0  0  0  0  0  0  0  0  0  0
  -30.4939  -23.6861   17.9512 N   0  0  0  0  0  0  0  0  0  0  0  0
  -30.6597  -26.0998   22.6653 N   0  0  0  0  0  0  0  0  0  0  0  0
  -27.2778  -28.9531   23.5693 N   0  0  0  0  0  0  0  0  0  0  0  0
  -25.5340  -14.9675   20.1464 N   0  0  0  0  0  0  0  0  0  0  0  0
  -27.9611   -9.0617   21.6518 N   0  0  0  0  0  0  0  0  0  0  0  0
  -29.2794  -21.7248   18.4730 N   0  0  0  0  0  0  0  0  0  0  0  0
  -30.1229   -6.8541   19.7754 N   0  3  0  0  0  0  0  0  0  0  0  0
  -29.1081  -27.8943   24.4568 O   0  0  0  0  0  0  0  0  0  0  0  0
  -27.4509  -14.7226   21.4456 O   0  0  0  0  0  0  0  0  0  0  0  0
  -25.9348  -10.9225   20.8519 O   0  0  0  0  0  0  0  0  0  0  0  0
  -30.2723   -9.0979   21.4664 O   0  0  0  0  0  0  0  0  0  0  0  0
  -31.1479  -21.6108   17.1491 O   0  0  0  0  0  0  0  0  0  0  0  0
  -23.3791  -30.6807   19.9845 O   0  0  0  0  0  0  0  0  0  0  0  0
  -33.3185  -14.9095   19.6505 O   0  0  0  0  0  0  0  0  0  1  0  0
  -19.3168  -30.5159   23.7094 F   0  0  0  0  0  0  0  0  0  0  0  0
  -20.8468  -29.8204   19.2844 F   0  0  0  0  0  0  0  0  0  0  0  0
  1  2  1  0  0  0  0
  1  5  2  0  0  0  0
  2  6  2  0  0  0  0
  3  8  2  0  0  0  0
  3 16  1  0  0  0  0
  4  9  1  0  0  0  0
  4 16  2  0  0  0  0
  5 18  1  0  0  0  0
  6 20  1  0  0  0  0
  7 10  2  0  0  0  0
  7 19  1  0  0  0  0
  8 23  1  0  0  0  0
  9 23  2  0  0  0  0
 10 24  1  0  0  0  0
 11 12  2  0  0  0  0
 11 25  1  0  0  0  0
 12 26  1  0  0  0  0
 13 21  1  0  0  0  0
 13 24  2  0  0  0  0
 14 22  1  0  0  0  0
 14 29  2  0  0  0  0
 15 26  2  0  0  0  0
 15 27  1  0  0  0  0
 16 28  1  0  0  0  0
 17 28  1  0  0  0  0
 17 31  2  0  0  0  0
 17 32  1  0  0  0  0
 18 20  2  0  0  0  0
 18 37  1  0  0  0  0
 19 21  2  0  0  0  0
 19 38  1  0  0  0  0
 20 46  1  0  0  0  0
 21 39  1  0  0  0  0
 22 30  2  0  0  0  0
 22 58  1  0  0  0  0
 23 84  1  0  0  0  0
 24 85  1  0  0  0  0
 25 27  2  0  0  0  0
 25 84  1  0  0  0  0
 26 86  1  0  0  0  0
 27 87  1  0  0  0  0
 28 68  2  0  0  0  0
 29 66  1  0  0  0  0
 29 69  1  0  0  0  0
 30 49  1  0  0  0  0
 30 69  1  0  0  0  0
 31 70  1  0  0  0  0
 31 73  1  0  0  0  0
 32 74  1  0  0  0  0
 32 79  2  0  0  0  0
 33 47  1  0  0  0  0
 33 75  1  0  0  0  0
 33 80  2  0  0  0  0
 34 64  1  0  0  0  0
 34 71  1  0  0  0  0
 34 81  2  0  0  0  0
 35 65  1  0  0  0  0
 35 76  1  0  0  0  0
 35 82  2  0  0  0  0
 36 72  1  0  0  0  0
 36 77  1  0  0  0  0
 36 83  2  0  0  0  0
 37 40  1  0  0  0  0
 38 47  1  0  0  0  0
 39 71  1  0  0  0  0
 40 42  1  0  0  0  0
 41 43  1  0  0  0  0
 41 44  1  0  0  0  0
 42 46  1  0  0  0  0
 43 48  1  0  0  0  0
 44 72  1  0  0  0  0
 45 48  1  0  0  0  0
 45 72  1  0  0  0  0
 46 75  1  0  0  0  0
 47 71  1  0  0  0  0
 48 70  1  0  0  0  0
 50 65  1  0  0  0  0
 51 66  1  0  0  0  0
 52 66  1  0  0  0  0
 53 67  1  0  0  0  0
 54 67  1  0  0  0  0
 55 67  1  0  0  0  0
 56 69  1  0  0  0  0
 57 78  1  0  0  0  0
 58 59  1  0  0  0  0
 59 63  1  0  0  0  0
 60 61  1  0  0  0  0
 60 62  1  0  0  0  0
 61 66  1  0  0  0  0
 62 77  1  0  0  0  0
 63 85  1  0  0  0  0
 64 67  1  0  0  0  0
 64 76  1  0  0  0  0
 65 78  1  0  0  0  0
 68 70  1  0  0  0  0
M  CHG  1  78   1
M  ISO  4  36 100  63 101  77 100  85 101
M  END
> <Batch ID>
0077

> <Smiles>
CNC(C)C(=O)NC(C(=O)N1Cc2cc([101O:1][101CH2:1]CCc3cc(C(C)(C)CCC[100NH:0][100C:0](=O)N4CCCC(n5nc(-c6ccc(Oc7ccc(F)cc7F)cc6)c(C(N)=O)c5N)C4)n(C)c3C)ccc2CC1C(=O)NC1CCCc2ccccc21)C(C)(C)C

> <Shape>
0.230

> <Color>
0.070

> <Negative vol penalty>
0.000

$$$$

  -OEChem-04052318373D

 83 91  0     1  0  0  0  0  0999 V2000
  -29.3165  -11.4454   18.7252 C   0  0  0  0  0  0  0  0  0  0  0  0
  -28.3160  -12.3210   18.3158 C   0  0  0  0  0  0  0  0  0  0  0  0
  -23.6210  -24.9052   21.5895 C   0  0  0  0  0  0  0  0  0  0  0  0
  -23.4832  -24.3506   19.2421 C   0  0  0  0  0  0  0  0  0  0  0  0
  -30.1169  -11.7663   19.8208 C   0  0  0  0  0  0  0  0  0  0  0  0
  -28.1145  -13.5177   19.0026 C   0  0  0  0  0  0  0  0  0  0  0  0
  -27.4877  -17.4624   15.8895 C   0  0  0  0  0  0  0  0  0  0  0  0
  -24.3528  -26.0505   21.2760 C   0  0  0  0  0  0  0  0  0  0  0  0
  -24.2150  -25.4960   18.9286 C   0  0  0  0  0  0  0  0  0  0  0  0
  -26.2385  -17.6061   15.2873 C   0  0  0  0  0  0  0  0  0  0  0  0
  -25.9474  -29.3107   21.0671 C   0  0  0  0  0  0  0  0  0  0  0  0
  -25.5967  -30.4996   21.7067 C   0  0  0  0  0  0  0  0  0  0  0  0
  -25.6484  -19.2770   16.9240 C   0  0  0  0  0  0  0  0  0  0  0  0
  -23.3793  -30.3557   20.7582 C   0  0  0  0  0  0  0  0  0  0  0  0
  -19.4498  -15.4250   16.3033 C   0  0  0  0  0  0  0  0  0  0  0  0
  -18.4065  -17.3235   15.8984 C   0  0  0  0  0  0  0  0  0  0  0  0
  -23.1863  -24.0552   20.5726 C   0  0  0  0  0  0  0  0  0  0  0  0
  -21.0318  -22.7593   21.0043 C   0  0  0  0  0  0  0  0  0  0  0  0
  -29.9315  -12.9721   20.5154 C   0  0  0  0  0  0  0  0  0  0  0  0
  -27.8231  -18.2184   17.0219 C   0  0  0  0  0  0  0  0  0  0  0  0
  -28.9123  -13.8545   20.1094 C   0  0  0  0  0  0  0  0  0  0  0  0
  -26.9034  -19.1429   17.5372 C   0  0  0  0  0  0  0  0  0  0  0  0
  -24.6498  -26.3459   19.9456 C   0  0  0  0  0  0  0  0  0  0  0  0
  -25.3176  -18.5114   15.8062 C   0  0  0  0  0  0  0  0  0  0  0  0
  -25.0141  -28.6443   20.2729 C   0  0  0  0  0  0  0  0  0  0  0  0
  -24.3126  -31.0221   21.5522 C   0  0  0  0  0  0  0  0  0  0  0  0
  -23.7300  -29.1668   20.1185 C   0  0  0  0  0  0  0  0  0  0  0  0
  -22.4309  -22.8716   20.8958 C   0  0  0  0  0  0  0  0  0  0  0  0
  -18.7049  -15.8303   17.3856 C   0  0  0  0  0  0  0  0  0  0  0  0
  -20.8171  -21.4417   21.3273 C   0  0  0  0  0  0  0  0  0  0  0  0
  -20.0170  -23.7568   20.8287 C   0  0  0  0  0  0  0  0  0  0  0  0
  -28.5813  -17.5338   20.0320 C   0  0  0  0  0  0  0  0  0  0  0  0
  -21.9302  -16.0261   20.4778 C   0  0  0  0  0  0  0  0  0  0  0  0
  -29.1392  -20.7245   20.2071 C   0  0  0  0  0  0  0  0  0  0  0  0
  -28.5155  -23.8465   18.9778 C   0  0  0  0  0  0  0  0  0  0  0  0
  -30.7903  -13.2538   21.7227 C   0  0  0  0  0  0  0  0  0  0  0  0
  -29.1847  -18.0710   17.6438 C   0  0  0  0  0  0  0  0  0  0  0  0
  -27.2222  -19.9930   18.7389 C   0  0  0  0  0  0  0  0  0  0  0  0
  -30.7580  -14.7142   22.1658 C   0  0  0  0  0  0  0  0  0  0  0  0
  -24.0417  -17.8233   22.7475 C   0  0  0  0  0  0  0  0  0  0  0  0
  -29.3225  -15.2288   22.2043 C   0  0  0  0  0  0  0  0  0  0  0  0
  -23.7179  -19.2880   22.4557 C   0  0  0  0  0  0  0  0  0  0  0  0
  -23.9814  -16.9751   21.4811 C   0  0  0  0  0  0  0  0  0  0  0  0
  -22.3570  -18.5338   20.4547 C   0  0  0  0  0  0  0  0  0  0  0  0
  -28.6792  -15.1736   20.8134 C   0  0  1  0  0  0  0  0  0  0  0  0
  -29.2278  -18.5203   19.1011 C   0  0  1  0  0  0  0  0  0  0  0  0
  -22.3768  -19.4201   21.7126 C   0  0  2  0  0  0  0  0  0  0  0  0
  -17.8631  -13.7785   18.5555 C   0  0  0  0  0  0  0  0  0  0  0  0
  -28.7434  -26.3309   18.7076 C   0  0  0  0  0  0  0  0  0  0  0  0
  -27.2673  -20.7930   22.6156 C   0  0  0  0  0  0  0  0  0  0  0  0
  -27.1289  -23.2786   22.3495 C   0  0  0  0  0  0  0  0  0  0  0  0
  -29.3216  -22.1997   22.8507 C   0  0  0  0  0  0  0  0  0  0  0  0
  -30.6664  -23.5473   16.9670 C   0  0  0  0  0  0  0  0  0  0  0  0
  -20.6223  -16.2817   19.7722 C   0  0  0  0  0  0  0  0  0  0  0  0
  -19.8837  -14.9730   19.4894 C   0  0  0  0  0  0  0  0  0  0  0  0
  -21.3814  -16.3692   13.9647 C   0  0  0  0  0  0  0  0  0  0  0  0
  -22.0319  -17.5818   14.6324 C   0  0  0  0  0  0  0  0  0  0  0  0
  -19.8497  -16.4278   13.9759 C   0  0  0  0  0  0  0  0  0  0  0  0
  -23.5515  -17.5058   14.5710 C   0  0  0  0  0  0  0  0  0  1  0  0
  -18.5526  -15.1625   18.6872 C   0  0  1  0  0  0  0  0  0  0  0  0
  -28.3087  -21.9379   20.5491 C   0  0  1  0  0  0  0  0  0  0  0  0
  -29.4459  -24.9862   18.6038 C   0  0  2  0  0  0  0  0  0  0  0  0
  -27.9996  -22.0350   22.0697 C   0  0  0  0  0  0  0  0  0  0  0  0
  -18.0576  -17.0126   17.1270 N   0  0  0  0  0  0  0  0  0  0  0  0
  -23.0605  -21.7173   21.1310 N   0  0  0  0  0  0  0  0  0  0  0  0
  -19.2483  -16.3913   15.3583 N   0  0  0  0  0  0  0  0  0  0  0  0
  -22.0525  -20.8673   21.3905 N   0  0  0  0  0  0  0  0  0  0  0  0
  -28.5642  -19.8079   19.3155 N   0  0  0  0  0  0  0  0  0  0  0  0
  -22.7008  -17.1456   20.7924 N   0  0  0  0  0  0  0  0  0  0  0  0
  -19.6939  -20.7300   21.5606 N   0  0  0  0  0  0  0  0  0  0  0  0
  -20.4116  -25.0604   20.4983 N   0  0  0  0  0  0  0  0  0  0  0  0
  -29.1462  -16.2733   19.9967 N   0  0  0  0  0  0  0  0  0  0  0  0
  -29.0259  -23.0885   20.0104 N   0  0  0  0  0  0  0  0  0  0  0  0
  -29.9350  -24.8181   17.2061 N   0  3  0  0  0  0  0  0  0  0  0  0
  -18.7974  -23.5035   20.9769 O   0  0  0  0  0  0  0  0  0  0  0  0
  -27.6405  -17.8904   20.7316 O   0  0  0  0  0  0  0  0  0  0  0  0
  -22.2543  -14.8656   20.7433 O   0  0  0  0  0  0  0  0  0  0  0  0
  -30.2599  -20.5983   20.7069 O   0  0  0  0  0  0  0  0  0  0  0  0
  -27.4416  -23.6507   18.4131 O   0  0  0  0  0  0  0  0  0  0  0  0
  -25.3636  -27.4636   19.6393 O   0  0  0  0  0  0  0  0  0  0  0  0
  -24.0973  -18.6531   15.2208 O   0  0  0  0  0  0  0  0  0  1  0  0
  -23.9755  -32.1630   22.1678 F   0  0  0  0  0  0  0  0  0  0  0  0
  -22.8287  -28.5305   19.3579 F   0  0  0  0  0  0  0  0  0  0  0  0
  1  2  1  0  0  0  0
  1  5  2  0  0  0  0
  2  6  2  0  0  0  0
  3  8  2  0  0  0  0
  3 17  1  0  0  0  0
  4  9  1  0  0  0  0
  4 17  2  0  0  0  0
  5 19  1  0  0  0  0
  6 21  1  0  0  0  0
  7 10  2  0  0  0  0
  7 20  1  0  0  0  0
  8 23  1  0  0  0  0
  9 23  2  0  0  0  0
 10 24  1  0  0  0  0
 11 12  2  0  0  0  0
 11 25  1  0  0  0  0
 12 26  1  0  0  0  0
 13 22  1  0  0  0  0
 13 24  2  0  0  0  0
 14 26  2  0  0  0  0
 14 27  1  0  0  0  0
 15 29  2  0  0  0  0
 15 66  1  0  0  0  0
 16 64  2  0  0  0  0
 16 66  1  0  0  0  0
 17 28  1  0  0  0  0
 18 28  1  0  0  0  0
 18 30  2  0  0  0  0
 18 31  1  0  0  0  0
 19 21  2  0  0  0  0
 19 36  1  0  0  0  0
 20 22  2  0  0  0  0
 20 37  1  0  0  0  0
 21 45  1  0  0  0  0
 22 38  1  0  0  0  0
 23 80  1  0  0  0  0
 24 81  1  0  0  0  0
 25 27  2  0  0  0  0
 25 80  1  0  0  0  0
 26 82  1  0  0  0  0
 27 83  1  0  0  0  0
 28 65  2  0  0  0  0
 29 60  1  0  0  0  0
 29 64  1  0  0  0  0
 30 67  1  0  0  0  0
 30 70  1  0  0  0  0
 31 71  1  0  0  0  0
 31 75  2  0  0  0  0
 32 46  1  0  0  0  0
 32 72  1  0  0  0  0
 32 76  2  0  0  0  0
 33 54  1  0  0  0  0
 33 69  1  0  0  0  0
 33 77  2  0  0  0  0
 34 61  1  0  0  0  0
 34 68  1  0  0  0  0
 34 78  2  0  0  0  0
 35 62  1  0  0  0  0
 35 73  1  0  0  0  0
 35 79  2  0  0  0  0
 36 39  1  0  0  0  0
 37 46  1  0  0  0  0
 38 68  1  0  0  0  0
 39 41  1  0  0  0  0
 40 42  1  0  0  0  0
 40 43  1  0  0  0  0
 41 45  1  0  0  0  0
 42 47  1  0  0  0  0
 43 69  1  0  0  0  0
 44 47  1  0  0  0  0
 44 69  1  0  0  0  0
 45 72  1  0  0  0  0
 46 68  1  0  0  0  0
 47 67  1  0  0  0  0
 48 60  1  0  0  0  0
 49 62  1  0  0  0  0
 50 63  1  0  0  0  0
 51 63  1  0  0  0  0
 52 63  1  0  0  0  0
 53 74  1  0  0  0  0
 54 55  1  0  0  0  0
 55 60  1  0  0  0  0
 56 57  1  0  0  0  0
 56 58  1  0  0  0  0
 57 59  1  0  0  0  0
 58 66  1  0  0  0  0
 59 81  1  0  0  0  0
 61 63  1  0  0  0  0
 61 73  1  0  0  0  0
 62 74  1  0  0  0  0
 65 67  1  0  0  0  0
M  CHG  1  74   1
M  ISO  4  33 100  54 100  59 101  81 101
M  END
> <Batch ID>
0077

> <Smiles>
CNC(C)C(=O)NC(C(=O)N1Cc2cc([101O:1][101CH2:1]CCCn3cnc(C(C)C[100CH2:0][100C:0](=O)N4CCCC(n5nc(-c6ccc(Oc7ccc(F)cc7F)cc6)c(C(N)=O)c5N)C4)c3)ccc2CC1C(=O)NC1CCCc2ccccc21)C(C)(C)C

> <Shape>
0.193

> <Color>
0.058

> <Negative vol penalty>
0.000

$$$$

  -OEChem-04052318373D

 86 94  0     1  0  0  0  0  0999 V2000
  -22.3291   -8.4108   20.7152 C   0  0  0  0  0  0  0  0  0  0  0  0
  -21.8570   -9.6482   21.1411 C   0  0  0  0  0  0  0  0  0  0  0  0
  -22.1240  -31.0980   20.4881 C   0  0  0  0  0  0  0  0  0  0  0  0
  -22.2356  -28.9697   21.6261 C   0  0  0  0  0  0  0  0  0  0  0  0
  -23.6849   -8.1064   20.8291 C   0  0  0  0  0  0  0  0  0  0  0  0
  -22.7404  -10.5816   21.6821 C   0  0  0  0  0  0  0  0  0  0  0  0
  -23.8233  -17.6501   22.1076 C   0  0  0  0  0  0  0  0  0  0  0  0
  -20.7307  -31.0321   20.5014 C   0  0  0  0  0  0  0  0  0  0  0  0
  -20.8423  -28.9038   21.6394 C   0  0  0  0  0  0  0  0  0  0  0  0
  -24.0490  -18.6502   23.0524 C   0  0  0  0  0  0  0  0  0  0  0  0
  -18.3044  -30.2345   23.4308 C   0  0  0  0  0  0  0  0  0  0  0  0
  -17.6869  -29.8465   24.6197 C   0  0  0  0  0  0  0  0  0  0  0  0
  -26.3828  -18.0446   23.1271 C   0  0  0  0  0  0  0  0  0  0  0  0
  -16.6925  -27.9583   23.4871 C   0  0  0  0  0  0  0  0  0  0  0  0
  -26.6452  -23.4223   23.0568 C   0  0  0  0  0  0  0  0  0  0  0  0
  -27.9401  -22.1446   24.3006 C   0  0  0  0  0  0  0  0  0  0  0  0
  -22.8764  -30.0668   21.0504 C   0  0  0  0  0  0  0  0  0  0  0  0
  -25.1496  -30.7023   22.0179 C   0  0  0  0  0  0  0  0  0  0  0  0
  -24.5869   -9.0403   21.3630 C   0  0  0  0  0  0  0  0  0  0  0  0
  -24.8754  -16.8312   21.6728 C   0  0  0  0  0  0  0  0  0  0  0  0
  -24.1093  -10.2890   21.8045 C   0  0  0  0  0  0  0  0  0  0  0  0
  -26.1684  -17.0365   22.1748 C   0  0  0  0  0  0  0  0  0  0  0  0
  -20.0899  -29.9350   21.0771 C   0  0  0  0  0  0  0  0  0  0  0  0
  -25.3283  -18.8457   23.5644 C   0  0  0  0  0  0  0  0  0  0  0  0
  -18.1160  -29.4844   22.2699 C   0  0  0  0  0  0  0  0  0  0  0  0
  -16.8809  -28.7084   24.6479 C   0  0  0  0  0  0  0  0  0  0  0  0
  -17.3100  -28.3463   22.2981 C   0  0  0  0  0  0  0  0  0  0  0  0
  -24.3156  -30.1340   21.0365 C   0  0  0  0  0  0  0  0  0  0  0  0
  -27.9471  -23.4444   22.6151 C   0  0  0  0  0  0  0  0  0  0  0  0
  -26.4227  -30.5120   21.5388 C   0  0  0  0  0  0  0  0  0  0  0  0
  -24.8044  -31.3448   23.2524 C   0  0  0  0  0  0  0  0  0  0  0  0
  -25.4921  -13.7155   21.7986 C   0  0  0  0  0  0  0  0  0  0  0  0
  -28.0310  -14.5397   19.9555 C   0  0  0  0  0  0  0  0  0  0  0  0
  -30.2213  -16.9581   18.9552 C   0  0  0  0  0  0  0  0  0  0  0  0
  -28.8048  -26.5193   17.7660 C   0  0  0  0  0  0  0  0  0  0  0  0
  -26.0359   -8.6481   21.5097 C   0  0  0  0  0  0  0  0  0  0  0  0
  -24.6208  -15.7743   20.6333 C   0  0  0  0  0  0  0  0  0  0  0  0
  -27.3359  -16.1977   21.7257 C   0  0  0  0  0  0  0  0  0  0  0  0
  -26.9667   -9.8342   21.7484 C   0  0  0  0  0  0  0  0  0  0  0  0
  -28.8541  -30.0646   17.4426 C   0  0  0  0  0  0  0  0  0  0  0  0
  -26.3902  -10.7590   22.8157 C   0  0  0  0  0  0  0  0  0  0  0  0
  -27.7717  -30.5357   18.4156 C   0  0  0  0  0  0  0  0  0  0  0  0
  -28.4661  -28.7563   16.7572 C   0  0  0  0  0  0  0  0  0  0  0  0
  -27.0127  -28.1339   18.6478 C   0  0  0  0  0  0  0  0  0  0  0  0
  -25.0404  -11.3373   22.3740 C   0  0  1  0  0  0  0  0  0  0  0  0
  -25.6645  -14.6617   20.6442 C   0  0  1  0  0  0  0  0  0  0  0  0
  -27.3833  -29.4206   19.4050 C   0  0  2  0  0  0  0  0  0  0  0  0
  -29.9377  -24.7425   21.7718 C   0  0  0  0  0  0  0  0  0  0  0  0
  -32.2094  -17.3221   17.4678 C   0  0  0  0  0  0  0  0  0  0  0  0
  -29.8084  -13.1172   21.9871 C   0  0  0  0  0  0  0  0  0  0  0  0
  -31.7759  -14.3033   20.9920 C   0  0  0  0  0  0  0  0  0  0  0  0
  -30.4362  -12.7271   19.5979 C   0  0  0  0  0  0  0  0  0  0  0  0
  -29.2230  -22.1242   20.0456 C   0  0  0  0  0  0  0  0  0  0  0  0
  -26.9695  -23.1355   19.7006 C   0  0  0  0  0  0  0  0  0  0  0  0
  -25.8187  -21.8966   26.4827 C   0  0  0  0  0  0  0  0  0  0  0  0
  -24.4587  -23.4007   25.0454 C   0  0  0  0  0  0  0  0  0  0  0  0
  -28.7840  -18.9727   17.3321 C   0  0  0  0  0  0  0  0  0  0  0  0
  -29.0335  -24.3184   18.8898 C   0  0  0  0  0  0  0  0  0  0  0  0
  -24.7169  -20.9768   24.4250 C   0  0  0  0  0  0  0  0  0  1  0  0
  -28.5093  -24.1852   21.4756 C   0  0  1  0  0  0  0  0  0  0  0  0
  -29.4526  -14.9703   20.2248 C   0  0  1  0  0  0  0  0  0  0  0  0
  -30.6936  -17.3813   17.5759 C   0  0  2  0  0  0  0  0  0  0  0  0
  -30.3461  -13.7942   20.7106 C   0  0  0  0  0  0  0  0  0  0  0  0
  -28.4439  -23.4582   20.0449 C   0  0  0  0  0  0  0  0  0  0  0  0
  -25.4465  -22.2117   25.0138 C   0  0  0  0  0  0  0  0  0  0  0  0
  -28.7481  -22.6468   23.3935 N   0  0  0  0  0  0  0  0  0  0  0  0
  -25.0012  -29.6212   20.0113 N   0  0  0  0  0  0  0  0  0  0  0  0
  -26.6562  -22.5852   24.1367 N   0  0  0  0  0  0  0  0  0  0  0  0
  -26.2794  -29.8667   20.3459 N   0  0  0  0  0  0  0  0  0  0  0  0
  -27.0349  -15.1730   20.7123 N   0  0  0  0  0  0  0  0  0  0  0  0
  -28.1107  -27.7403   17.7509 N   0  0  0  0  0  0  0  0  0  0  0  0
  -27.6395  -30.8354   22.0258 N   0  0  0  0  0  0  0  0  0  0  0  0
  -23.4491  -31.4559   23.5916 N   0  0  0  0  0  0  0  0  0  0  0  0
  -25.2372  -12.4103   21.4230 N   0  0  0  0  0  0  0  0  0  0  0  0
  -29.9231  -15.6127   19.0024 N   0  0  0  0  0  0  0  0  0  0  0  0
  -28.4096  -25.6146   18.7438 N   0  0  0  0  0  0  0  0  0  0  0  0
  -30.2556  -18.7755   17.2836 N   0  3  0  0  0  0  0  0  0  0  0  0
  -25.6714  -31.8212   24.0237 O   0  0  0  0  0  0  0  0  0  0  0  0
  -25.5850  -14.1379   22.9452 O   0  0  0  0  0  0  0  0  0  0  0  0
  -27.8117  -13.6785   19.1000 O   0  0  0  0  0  0  0  0  0  0  0  0
  -30.1298  -17.7419   19.8975 O   0  0  0  0  0  0  0  0  0  0  0  0
  -29.7134  -26.2570   16.9705 O   0  0  0  0  0  0  0  0  0  0  0  0
  -18.7304  -29.8705   21.0905 O   0  0  0  0  0  0  0  0  0  0  0  0
  -25.5512  -19.8207   24.4872 O   0  0  0  0  0  0  0  0  0  1  0  0
  -16.2892  -28.3351   25.7901 F   0  0  0  0  0  0  0  0  0  0  0  0
  -17.1262  -27.6210   21.1863 F   0  0  0  0  0  0  0  0  0  0  0  0
  1  2  1  0  0  0  0
  1  5  2  0  0  0  0
  2  6  2  0  0  0  0
  3  8  2  0  0  0  0
  3 17  1  0  0  0  0
  4  9  1  0  0  0  0
  4 17  2  0  0  0  0
  5 19  1  0  0  0  0
  6 21  1  0  0  0  0
  7 10  2  0  0  0  0
  7 20  1  0  0  0  0
  8 23  1  0  0  0  0
  9 23  2  0  0  0  0
 10 24  1  0  0  0  0
 11 12  2  0  0  0  0
 11 25  1  0  0  0  0
 12 26  1  0  0  0  0
 13 22  1  0  0  0  0
 13 24  2  0  0  0  0
 14 26  2  0  0  0  0
 14 27  1  0  0  0  0
 15 29  2  0  0  0  0
 15 68  1  0  0  0  0
 16 66  2  0  0  0  0
 16 68  1  0  0  0  0
 17 28  1  0  0  0  0
 18 28  1  0  0  0  0
 18 30  2  0  0  0  0
 18 31  1  0  0  0  0
 19 21  2  0  0  0  0
 19 36  1  0  0  0  0
 20 22  2  0  0  0  0
 20 37  1  0  0  0  0
 21 45  1  0  0  0  0
 22 38  1  0  0  0  0
 23 83  1  0  0  0  0
 24 84  1  0  0  0  0
 25 27  2  0  0  0  0
 25 83  1  0  0  0  0
 26 85  1  0  0  0  0
 27 86  1  0  0  0  0
 28 67  2  0  0  0  0
 29 60  1  0  0  0  0
 29 66  1  0  0  0  0
 30 69  1  0  0  0  0
 30 72  1  0  0  0  0
 31 73  1  0  0  0  0
 31 78  2  0  0  0  0
 32 46  1  0  0  0  0
 32 74  1  0  0  0  0
 32 79  2  0  0  0  0
 33 61  1  0  0  0  0
 33 70  1  0  0  0  0
 33 80  2  0  0  0  0
 34 62  1  0  0  0  0
 34 75  1  0  0  0  0
 34 81  2  0  0  0  0
 35 71  1  0  0  0  0
 35 76  1  0  0  0  0
 35 82  2  0  0  0  0
 36 39  1  0  0  0  0
 37 46  1  0  0  0  0
 38 70  1  0  0  0  0
 39 41  1  0  0  0  0
 40 42  1  0  0  0  0
 40 43  1  0  0  0  0
 41 45  1  0  0  0  0
 42 47  1  0  0  0  0
 43 71  1  0  0  0  0
 44 47  1  0  0  0  0
 44 71  1  0  0  0  0
 45 74  1  0  0  0  0
 46 70  1  0  0  0  0
 47 69  1  0  0  0  0
 48 60  1  0  0  0  0
 49 62  1  0  0  0  0
 50 63  1  0  0  0  0
 51 63  1  0  0  0  0
 52 63  1  0  0  0  0
 53 64  1  0  0  0  0
 54 64  1  0  0  0  0
 55 65  1  0  0  0  0
 56 65  1  0  0  0  0
 57 77  1  0  0  0  0
 58 64  1  0  0  0  0
 58 76  1  0  0  0  0
 59 65  1  0  0  0  0
 59 84  1  0  0  0  0
 60 64  1  0  0  0  0
 61 63  1  0  0  0  0
 61 75  1  0  0  0  0
 62 77  1  0  0  0  0
 65 68  1  0  0  0  0
 67 69  1  0  0  0  0
M  CHG  1  77   1
M  ISO  4  35 100  59 101  76 100  84 101
M  END
> <Batch ID>
0077

> <Smiles>
CNC(C)C(=O)NC(C(=O)N1Cc2cc([101O:1][101CH2:1]C(C)(C)n3cnc(C(C)C(C)(C)C[100NH:0][100C:0](=O)N4CCCC(n5nc(-c6ccc(Oc7ccc(F)cc7F)cc6)c(C(N)=O)c5N)C4)c3)ccc2CC1C(=O)NC1CCCc2ccccc21)C(C)(C)C

> <Shape>
0.256

> <Color>
0.061

> <Negative vol penalty>
0.000

$$$$
