
  -OEChem-04052318393D

 84 92  0     1  0  0  0  0  0999 V2000
  -17.6019  -23.7873   19.4441 C   0  0  0  0  0  0  0  0  0  0  0  0
  -17.9585  -22.5387   18.9448 C   0  0  0  0  0  0  0  0  0  0  0  0
  -26.2489  -26.0106   18.0638 C   0  0  0  0  0  0  0  0  0  0  0  0
  -26.1951  -25.9480   20.4784 C   0  0  0  0  0  0  0  0  0  0  0  0
  -18.4589  -24.4593   20.3146 C   0  0  0  0  0  0  0  0  0  0  0  0
  -19.1729  -21.9619   19.3149 C   0  0  0  0  0  0  0  0  0  0  0  0
  -22.1694  -15.5766   20.5659 C   0  0  0  0  0  0  0  0  0  0  0  0
  -25.3442  -27.0722   18.0711 C   0  0  0  0  0  0  0  0  0  0  0  0
  -25.2903  -27.0096   20.4857 C   0  0  0  0  0  0  0  0  0  0  0  0
  -23.2749  -14.8138   20.1920 C   0  0  0  0  0  0  0  0  0  0  0  0
  -25.3912  -30.3686   20.1292 C   0  0  0  0  0  0  0  0  0  0  0  0
  -25.6176  -31.4049   21.0349 C   0  0  0  0  0  0  0  0  0  0  0  0
  -24.6397  -16.0319   21.7645 C   0  0  0  0  0  0  0  0  0  0  0  0
  -23.4723  -30.9774   22.0605 C   0  0  0  0  0  0  0  0  0  0  0  0
  -28.8353  -11.4866   19.7739 C   0  0  0  0  0  0  0  0  0  0  0  0
  -26.6744  -25.4485   19.2674 C   0  0  0  0  0  0  0  0  0  0  0  0
  -29.0136  -24.4313   19.2941 C   0  0  0  0  0  0  0  0  0  0  0  0
  -19.6800  -23.8862   20.7031 C   0  0  0  0  0  0  0  0  0  0  0  0
  -22.2934  -16.5818   21.5357 C   0  0  0  0  0  0  0  0  0  0  0  0
  -20.0476  -22.6276   20.1903 C   0  0  0  0  0  0  0  0  0  0  0  0
  -23.5337  -16.8043   22.1508 C   0  0  0  0  0  0  0  0  0  0  0  0
  -24.8648  -27.5717   19.2821 C   0  0  0  0  0  0  0  0  0  0  0  0
  -24.5109  -15.0433   20.7892 C   0  0  0  0  0  0  0  0  0  0  0  0
  -24.2052  -29.6367   20.1890 C   0  0  0  0  0  0  0  0  0  0  0  0
  -24.6583  -31.7093   22.0006 C   0  0  0  0  0  0  0  0  0  0  0  0
  -23.2458  -29.9411   21.1547 C   0  0  0  0  0  0  0  0  0  0  0  0
  -27.6085  -24.3515   19.2605 C   0  0  0  0  0  0  0  0  0  0  0  0
  -27.7956  -12.4089   19.5492 C   0  0  0  0  0  0  0  0  0  0  0  0
  -29.9834  -12.2352   19.6851 C   0  0  0  0  0  0  0  0  0  0  0  0
  -29.4325  -23.1234   19.2703 C   0  0  0  0  0  0  0  0  0  0  0  0
  -29.8642  -25.5845   19.3425 C   0  0  0  0  0  0  0  0  0  0  0  0
  -21.8927  -19.7350   21.5620 C   0  0  0  0  0  0  0  0  0  0  0  0
  -22.4152  -19.3834   24.7441 C   0  0  0  0  0  0  0  0  0  0  0  0
  -23.7734  -17.5337   27.2702 C   0  0  0  0  0  0  0  0  0  0  0  0
  -29.0781  -17.9812   21.1085 C   0  0  0  0  0  0  0  0  0  0  0  0
  -20.5949  -24.6717   21.6092 C   0  0  0  0  0  0  0  0  0  0  0  0
  -21.0854  -17.3779   21.9472 C   0  0  0  0  0  0  0  0  0  0  0  0
  -23.7151  -17.8578   23.2118 C   0  0  0  0  0  0  0  0  0  0  0  0
  -21.6938  -23.8256   22.2470 C   0  0  0  0  0  0  0  0  0  0  0  0
  -26.8632  -18.8568   18.3836 C   0  0  0  0  0  0  0  0  0  0  0  0
  -22.3563  -22.9345   21.2011 C   0  0  0  0  0  0  0  0  0  0  0  0
  -26.9797  -20.3821   18.3751 C   0  0  0  0  0  0  0  0  0  0  0  0
  -26.8890  -18.3084   19.8073 C   0  0  0  0  0  0  0  0  0  0  0  0
  -28.1988  -20.2410   20.5963 C   0  0  0  0  0  0  0  0  0  0  0  0
  -21.3453  -21.9581   20.5879 C   0  0  1  0  0  0  0  0  0  0  0  0
  -21.4411  -18.7218   22.5755 C   0  0  1  0  0  0  0  0  0  0  0  0
  -28.2016  -20.8553   19.1846 C   0  0  2  0  0  0  0  0  0  0  0  0
  -31.4009  -11.8544   19.8241 C   0  0  0  0  0  0  0  0  0  0  0  0
  -25.7075  -12.3865   18.1346 C   0  0  0  0  0  0  0  0  0  0  0  0
  -24.0710  -17.5206   29.7619 C   0  0  0  0  0  0  0  0  0  0  0  0
  -25.9471  -12.5511   22.0420 C   0  0  0  0  0  0  0  0  0  0  0  0
  -24.6008  -21.4975   24.4918 C   0  0  0  0  0  0  0  0  0  0  0  0
  -25.4721  -20.7627   26.7210 C   0  0  0  0  0  0  0  0  0  0  0  0
  -23.1728  -21.7120   26.5336 C   0  0  0  0  0  0  0  0  0  0  0  0
  -22.2651  -15.0032   27.5534 C   0  0  0  0  0  0  0  0  0  0  0  0
  -30.9301  -15.2782   20.5560 C   0  0  0  0  0  0  0  0  0  0  0  0
  -30.4202  -14.6699   19.2427 C   0  0  0  0  0  0  0  0  0  0  0  0
  -29.8325  -15.6584   21.5475 C   0  0  0  0  0  0  0  0  0  0  0  0
  -26.2991  -12.1325   19.5289 C   0  0  2  0  0  0  0  0  0  0  0  0
  -23.6339  -19.3942   25.6350 C   0  0  1  0  0  0  0  0  0  0  0  0
  -23.2025  -17.0693   28.5979 C   0  0  2  0  0  0  0  0  0  0  0  0
  -25.5059  -12.8897   20.6216 C   0  0  2  0  0  0  0  0  0  1  0  0
  -24.2173  -20.8230   25.8240 C   0  0  0  0  0  0  0  0  0  0  0  0
  -27.1644  -23.0925   19.2184 N   0  0  0  0  0  0  0  0  0  0  0  0
  -28.2437  -13.6486   19.3341 N   0  0  0  0  0  0  0  0  0  0  0  0
  -29.5775  -13.5107   19.4233 N   0  0  0  0  0  0  0  0  0  0  0  0
  -28.2970  -22.3692   19.2253 N   0  0  0  0  0  0  0  0  0  0  0  0
  -22.5055  -18.6143   23.5754 N   0  0  0  0  0  0  0  0  0  0  0  0
  -28.0860  -18.7808   20.5171 N   0  0  0  0  0  0  0  0  0  0  0  0
  -30.6576  -22.5565   19.2836 N   0  0  0  0  0  0  0  0  0  0  0  0
  -29.2691  -26.8533   19.3614 N   0  0  0  0  0  0  0  0  0  0  0  0
  -21.0912  -20.8585   21.4939 N   0  0  0  0  0  0  0  0  0  0  0  0
  -23.2366  -18.7418   26.8780 N   0  0  0  0  0  0  0  0  0  0  0  0
  -28.8931  -16.6087   20.9949 N   0  0  0  0  0  0  0  0  0  0  0  0
  -23.1093  -15.5823   28.6299 N   0  3  0  0  0  0  0  0  0  0  0  0
  -31.1152  -25.4929   19.3517 O   0  0  0  0  0  0  0  0  0  0  0  0
  -22.8951  -19.5144   20.8925 O   0  0  0  0  0  0  0  0  0  0  0  0
  -21.4173  -20.0278   25.0767 O   0  0  0  0  0  0  0  0  0  0  0  0
  -24.6143  -16.8911   26.6454 O   0  0  0  0  0  0  0  0  0  0  0  0
  -30.0598  -18.4553   21.6904 O   0  0  0  0  0  0  0  0  0  0  0  0
  -23.9821  -28.6077   19.2896 O   0  0  0  0  0  0  0  0  0  0  0  0
  -25.5917  -14.3006   20.4256 O   0  0  0  0  0  0  0  0  0  1  0  0
  -24.8766  -32.7035   22.8713 F   0  0  0  0  0  0  0  0  0  0  0  0
  -22.1050  -29.2408   21.2179 F   0  0  0  0  0  0  0  0  0  0  0  0
  1  2  1  0  0  0  0
  1  5  2  0  0  0  0
  2  6  2  0  0  0  0
  3  8  2  0  0  0  0
  3 16  1  0  0  0  0
  4  9  1  0  0  0  0
  4 16  2  0  0  0  0
  5 18  1  0  0  0  0
  6 20  1  0  0  0  0
  7 10  2  0  0  0  0
  7 19  1  0  0  0  0
  8 22  1  0  0  0  0
  9 22  2  0  0  0  0
 10 23  1  0  0  0  0
 11 12  2  0  0  0  0
 11 24  1  0  0  0  0
 12 25  1  0  0  0  0
 13 21  1  0  0  0  0
 13 23  2  0  0  0  0
 14 25  2  0  0  0  0
 14 26  1  0  0  0  0
 15 28  1  0  0  0  0
 15 29  2  0  0  0  0
 16 27  1  0  0  0  0
 17 27  1  0  0  0  0
 17 30  2  0  0  0  0
 17 31  1  0  0  0  0
 18 20  2  0  0  0  0
 18 36  1  0  0  0  0
 19 21  2  0  0  0  0
 19 37  1  0  0  0  0
 20 45  1  0  0  0  0
 21 38  1  0  0  0  0
 22 81  1  0  0  0  0
 23 82  1  0  0  0  0
 24 26  2  0  0  0  0
 24 81  1  0  0  0  0
 25 83  1  0  0  0  0
 26 84  1  0  0  0  0
 27 64  2  0  0  0  0
 28 59  1  0  0  0  0
 28 65  2  0  0  0  0
 29 48  1  0  0  0  0
 29 66  1  0  0  0  0
 30 67  1  0  0  0  0
 30 70  1  0  0  0  0
 31 71  1  0  0  0  0
 31 76  2  0  0  0  0
 32 46  1  0  0  0  0
 32 72  1  0  0  0  0
 32 77  2  0  0  0  0
 33 60  1  0  0  0  0
 33 68  1  0  0  0  0
 33 78  2  0  0  0  0
 34 61  1  0  0  0  0
 34 73  1  0  0  0  0
 34 79  2  0  0  0  0
 35 69  1  0  0  0  0
 35 74  1  0  0  0  0
 35 80  2  0  0  0  0
 36 39  1  0  0  0  0
 37 46  1  0  0  0  0
 38 68  1  0  0  0  0
 39 41  1  0  0  0  0
 40 42  1  0  0  0  0
 40 43  1  0  0  0  0
 41 45  1  0  0  0  0
 42 47  1  0  0  0  0
 43 69  1  0  0  0  0
 44 47  1  0  0  0  0
 44 69  1  0  0  0  0
 45 72  1  0  0  0  0
 46 68  1  0  0  0  0
 47 67  1  0  0  0  0
 49 59  1  0  0  0  0
 50 61  1  0  0  0  0
 51 62  1  0  0  0  0
 52 63  1  0  0  0  0
 53 63  1  0  0  0  0
 54 63  1  0  0  0  0
 55 75  1  0  0  0  0
 56 57  1  0  0  0  0
 56 58  1  0  0  0  0
 57 66  1  0  0  0  0
 58 74  1  0  0  0  0
 59 62  1  0  0  0  0
 60 63  1  0  0  0  0
 60 73  1  0  0  0  0
 61 75  1  0  0  0  0
 62 82  1  0  0  0  0
 64 67  1  0  0  0  0
 65 66  1  0  0  0  0
M  CHG  1  75   1
M  ISO  4  35 100  62 101  74 100  82 101
M  END
> <Batch ID>
0078

> <Smiles>
CNC(C)C(=O)NC(C(=O)N1Cc2cc([101O:1][101CH:1](C)C(C)c3cc(C)n(CCC[100NH:0][100C:0](=O)N4CCCC(n5nc(-c6ccc(Oc7ccc(F)cc7F)cc6)c(C(N)=O)c5N)C4)n3)ccc2CC1C(=O)NC1CCCc2ccccc21)C(C)(C)C

> <Shape>
0.231

> <Color>
0.058

> <Negative vol penalty>
0.000

$$$$

  -OEChem-04052318393D

 86 94  0     1  0  0  0  0  0999 V2000
  -30.0363  -21.7837   23.2114 C   0  0  0  0  0  0  0  0  0  0  0  0
  -28.7593  -21.8798   22.6680 C   0  0  0  0  0  0  0  0  0  0  0  0
  -29.5185  -26.8862   19.4609 C   0  0  0  0  0  0  0  0  0  0  0  0
  -28.0773  -25.0119   19.9577 C   0  0  0  0  0  0  0  0  0  0  0  0
  -30.7317  -20.5771   23.1455 C   0  0  0  0  0  0  0  0  0  0  0  0
  -28.1773  -20.7695   22.0573 C   0  0  0  0  0  0  0  0  0  0  0  0
  -23.3488  -20.1047   23.4314 C   0  0  0  0  0  0  0  0  0  0  0  0
  -20.1221  -25.1260   22.6223 C   0  0  0  0  0  0  0  0  0  0  0  0
  -30.6112  -26.0236   19.3760 C   0  0  0  0  0  0  0  0  0  0  0  0
  -29.1701  -24.1492   19.8728 C   0  0  0  0  0  0  0  0  0  0  0  0
  -22.3966  -20.9260   22.8292 C   0  0  0  0  0  0  0  0  0  0  0  0
  -31.5166  -21.4074   19.4313 C   0  0  0  0  0  0  0  0  0  0  0  0
  -31.3520  -20.2191   18.7197 C   0  0  0  0  0  0  0  0  0  0  0  0
  -19.9983  -26.3979   23.1702 C   0  0  0  0  0  0  0  0  0  0  0  0
  -21.8243  -19.1399   21.3121 C   0  0  0  0  0  0  0  0  0  0  0  0
  -30.8314  -21.4839   16.7281 C   0  0  0  0  0  0  0  0  0  0  0  0
  -28.2515  -26.3804   19.7517 C   0  0  0  0  0  0  0  0  0  0  0  0
  -26.2603  -27.6570   18.7962 C   0  0  0  0  0  0  0  0  0  0  0  0
  -30.1542  -19.4488   22.5423 C   0  0  0  0  0  0  0  0  0  0  0  0
  -23.5538  -18.7963   22.9705 C   0  0  0  0  0  0  0  0  0  0  0  0
  -28.8662  -19.5470   21.9820 C   0  0  0  0  0  0  0  0  0  0  0  0
  -22.7779  -18.3032   21.9118 C   0  0  0  0  0  0  0  0  0  0  0  0
  -19.2782  -24.7352   21.5887 C   0  0  0  0  0  0  0  0  0  0  0  0
  -30.4371  -24.6550   19.5820 C   0  0  0  0  0  0  0  0  0  0  0  0
  -21.6362  -20.4446   21.7675 C   0  0  0  0  0  0  0  0  0  0  0  0
  -31.3386  -22.6340   18.7913 C   0  0  0  0  0  0  0  0  0  0  0  0
  -31.0094  -20.2574   17.3681 C   0  0  0  0  0  0  0  0  0  0  0  0
  -30.9960  -22.6723   17.4397 C   0  0  0  0  0  0  0  0  0  0  0  0
  -27.1223  -27.2711   19.8401 C   0  0  0  0  0  0  0  0  0  0  0  0
  -19.0224  -27.2346   22.6531 C   0  0  0  0  0  0  0  0  0  0  0  0
  -18.3344  -25.6462   21.1425 C   0  0  0  0  0  0  0  0  0  0  0  0
  -25.3594  -28.5062   19.3909 C   0  0  0  0  0  0  0  0  0  0  0  0
  -26.2727  -27.2813   17.4125 C   0  0  0  0  0  0  0  0  0  0  0  0
  -26.0060  -17.2253   21.6966 C   0  0  0  0  0  0  0  0  0  0  0  0
  -24.0090  -14.6823   21.9576 C   0  0  0  0  0  0  0  0  0  0  0  0
  -20.8062  -13.5239   22.1745 C   0  0  0  0  0  0  0  0  0  0  0  0
  -21.9399  -29.7959   23.6086 C   0  0  0  0  0  0  0  0  0  0  0  0
  -30.9633  -18.1791   22.4530 C   0  0  0  0  0  0  0  0  0  0  0  0
  -24.5663  -17.9141   23.6482 C   0  0  0  0  0  0  0  0  0  0  0  0
  -22.9453  -16.8992   21.3927 C   0  0  0  0  0  0  0  0  0  0  0  0
  -30.1271  -16.9459   22.1212 C   0  0  0  0  0  0  0  0  0  0  0  0
  -25.3792  -30.6396   23.9773 C   0  0  0  0  0  0  0  0  0  0  0  0
  -29.1758  -17.2411   20.9659 C   0  0  0  0  0  0  0  0  0  0  0  0
  -26.0683  -29.8657   22.8521 C   0  0  0  0  0  0  0  0  0  0  0  0
  -24.2189  -29.8489   24.5778 C   0  0  0  0  0  0  0  0  0  0  0  0
  -23.9105  -28.6005   22.4754 C   0  0  0  0  0  0  0  0  0  0  0  0
  -28.1913  -18.3579   21.3334 C   0  0  1  0  0  0  0  0  0  0  0  0
  -25.0499  -16.7700   22.7626 C   0  0  1  0  0  0  0  0  0  0  0  0
  -25.0519  -29.3806   21.8010 C   0  0  2  0  0  0  0  0  0  0  0  0
  -17.5107  -26.2402   18.8501 C   0  0  0  0  0  0  0  0  0  0  0  0
  -17.6968  -22.2866   22.6541 C   0  0  0  0  0  0  0  0  0  0  0  0
  -19.4884  -11.3947   22.3384 C   0  0  0  0  0  0  0  0  0  0  0  0
  -19.7371  -23.3334   19.4627 C   0  0  0  0  0  0  0  0  0  0  0  0
  -24.4907  -14.1585   18.9905 C   0  0  0  0  0  0  0  0  0  0  0  0
  -22.4776  -12.6701   18.9978 C   0  0  0  0  0  0  0  0  0  0  0  0
  -24.4488  -12.1061   20.4188 C   0  0  0  0  0  0  0  0  0  0  0  0
  -19.6573  -14.3001   24.7891 C   0  0  0  0  0  0  0  0  0  0  0  0
  -18.8628  -28.6073   23.2164 C   0  0  0  0  0  0  0  0  0  0  0  0
  -17.4033  -25.2824   20.0328 C   0  0  0  0  0  0  0  0  0  0  0  0
  -18.0987  -22.5038   21.1979 C   0  0  0  0  0  0  0  0  0  0  0  0
  -19.7190  -29.6639   22.5088 C   0  0  0  0  0  0  0  0  0  0  0  0
  -20.5627  -22.5656   21.6971 C   0  0  0  0  0  0  0  0  0  1  0  0
  -22.9656  -14.0470   21.0708 C   0  0  1  0  0  0  0  0  0  0  0  0
  -20.1596  -12.5195   23.1111 C   0  0  2  0  0  0  0  0  0  0  0  0
  -19.4098  -23.3252   20.9777 C   0  0  2  0  0  0  0  0  0  0  0  0
  -23.5936  -13.2726   19.8778 C   0  0  0  0  0  0  0  0  0  0  0  0
  -26.7984  -27.8295   21.0094 N   0  0  0  0  0  0  0  0  0  0  0  0
  -18.1842  -26.8903   21.6498 N   0  0  0  0  0  0  0  0  0  0  0  0
  -25.7227  -28.5750   20.7038 N   0  0  0  0  0  0  0  0  0  0  0  0
  -23.9523  -16.0775   22.0842 N   0  0  0  0  0  0  0  0  0  0  0  0
  -23.2909  -29.4198   23.5288 N   0  0  0  0  0  0  0  0  0  0  0  0
  -24.3000  -29.1934   18.9138 N   0  0  0  0  0  0  0  0  0  0  0  0
  -27.2675  -26.3996   16.9685 N   0  0  0  0  0  0  0  0  0  0  0  0
  -27.1402  -17.8449   22.1856 N   0  0  0  0  0  0  0  0  0  0  0  0
  -22.1327  -13.2266   21.9436 N   0  0  0  0  0  0  0  0  0  0  0  0
  -21.1298  -29.3528   22.5703 N   0  0  0  0  0  0  0  0  0  0  0  0
  -19.1307  -13.1878   23.9570 N   0  3  0  0  0  0  0  0  0  0  0  0
  -25.4364  -27.7275   16.5908 O   0  0  0  0  0  0  0  0  0  0  0  0
  -25.7354  -17.0276   20.5179 O   0  0  0  0  0  0  0  0  0  0  0  0
  -24.8393  -13.9664   22.5230 O   0  0  0  0  0  0  0  0  0  0  0  0
  -20.1947  -14.4749   21.6926 O   0  0  0  0  0  0  0  0  0  0  0  0
  -21.4901  -30.4808   24.5336 O   0  0  0  0  0  0  0  0  0  0  0  0
  -31.5031  -23.8129   19.4990 O   0  0  0  0  0  0  0  0  0  0  0  0
  -20.7065  -21.2443   21.1775 O   0  0  0  0  0  0  0  0  0  1  0  0
  -30.8528  -19.1162   16.6844 F   0  0  0  0  0  0  0  0  0  0  0  0
  -30.8248  -23.8476   16.8192 F   0  0  0  0  0  0  0  0  0  0  0  0
  1  2  1  0  0  0  0
  1  5  2  0  0  0  0
  2  6  2  0  0  0  0
  3  9  2  0  0  0  0
  3 17  1  0  0  0  0
  4 10  1  0  0  0  0
  4 17  2  0  0  0  0
  5 19  1  0  0  0  0
  6 21  1  0  0  0  0
  7 11  2  0  0  0  0
  7 20  1  0  0  0  0
  8 14  2  0  0  0  0
  8 23  1  0  0  0  0
  9 24  1  0  0  0  0
 10 24  2  0  0  0  0
 11 25  1  0  0  0  0
 12 13  2  0  0  0  0
 12 26  1  0  0  0  0
 13 27  1  0  0  0  0
 14 30  1  0  0  0  0
 15 22  1  0  0  0  0
 15 25  2  0  0  0  0
 16 27  2  0  0  0  0
 16 28  1  0  0  0  0
 17 29  1  0  0  0  0
 18 29  1  0  0  0  0
 18 32  2  0  0  0  0
 18 33  1  0  0  0  0
 19 21  2  0  0  0  0
 19 38  1  0  0  0  0
 20 22  2  0  0  0  0
 20 39  1  0  0  0  0
 21 47  1  0  0  0  0
 22 40  1  0  0  0  0
 23 31  2  0  0  0  0
 23 65  1  0  0  0  0
 24 83  1  0  0  0  0
 25 84  1  0  0  0  0
 26 28  2  0  0  0  0
 26 83  1  0  0  0  0
 27 85  1  0  0  0  0
 28 86  1  0  0  0  0
 29 67  2  0  0  0  0
 30 58  1  0  0  0  0
 30 68  2  0  0  0  0
 31 59  1  0  0  0  0
 31 68  1  0  0  0  0
 32 69  1  0  0  0  0
 32 72  1  0  0  0  0
 33 73  1  0  0  0  0
 33 78  2  0  0  0  0
 34 48  1  0  0  0  0
 34 74  1  0  0  0  0
 34 79  2  0  0  0  0
 35 63  1  0  0  0  0
 35 70  1  0  0  0  0
 35 80  2  0  0  0  0
 36 64  1  0  0  0  0
 36 75  1  0  0  0  0
 36 81  2  0  0  0  0
 37 71  1  0  0  0  0
 37 76  1  0  0  0  0
 37 82  2  0  0  0  0
 38 41  1  0  0  0  0
 39 48  1  0  0  0  0
 40 70  1  0  0  0  0
 41 43  1  0  0  0  0
 42 44  1  0  0  0  0
 42 45  1  0  0  0  0
 43 47  1  0  0  0  0
 44 49  1  0  0  0  0
 45 71  1  0  0  0  0
 46 49  1  0  0  0  0
 46 71  1  0  0  0  0
 47 74  1  0  0  0  0
 48 70  1  0  0  0  0
 49 69  1  0  0  0  0
 50 59  1  0  0  0  0
 51 60  1  0  0  0  0
 52 64  1  0  0  0  0
 53 65  1  0  0  0  0
 54 66  1  0  0  0  0
 55 66  1  0  0  0  0
 56 66  1  0  0  0  0
 57 77  1  0  0  0  0
 58 61  1  0  0  0  0
 60 65  1  0  0  0  0
 61 76  1  0  0  0  0
 62 65  1  0  0  0  0
 62 84  1  0  0  0  0
 63 66  1  0  0  0  0
 63 75  1  0  0  0  0
 64 77  1  0  0  0  0
 67 69  1  0  0  0  0
M  CHG  1  77   1
M  ISO  4  37 100  62 101  76 100  84 101
M  END
> <Batch ID>
0078

> <Smiles>
CCc1nc(CC[100NH:0][100C:0](=O)N2CCCC(n3nc(-c4ccc(Oc5ccc(F)cc5F)cc4)c(C(N)=O)c3N)C2)ccc1C(C)(CC)[101CH2:1][101O:1]c1ccc2c(c1)CN(C(=O)C(NC(=O)C(C)NC)C(C)(C)C)C(C(=O)NC1CCCc3ccccc31)C2

> <Shape>
0.213

> <Color>
0.050

> <Negative vol penalty>
0.000

$$$$

  -OEChem-04052318393D

 84 92  0     1  0  0  0  0  0999 V2000
  -21.3492  -38.5942   24.7501 C   0  0  0  0  0  0  0  0  0  0  0  0
  -21.6413  -38.0462   23.5052 C   0  0  0  0  0  0  0  0  0  0  0  0
  -23.2636   -9.0425   20.3389 C   0  0  0  0  0  0  0  0  0  0  0  0
  -23.4962  -10.6319   22.1435 C   0  0  0  0  0  0  0  0  0  0  0  0
  -22.2999  -38.5530   25.7691 C   0  0  0  0  0  0  0  0  0  0  0  0
  -22.8849  -37.4575   23.2783 C   0  0  0  0  0  0  0  0  0  0  0  0
  -23.4106  -30.5641   21.2546 C   0  0  0  0  0  0  0  0  0  0  0  0
  -22.4816   -8.2276   21.1573 C   0  0  0  0  0  0  0  0  0  0  0  0
  -22.7141   -9.8170   22.9620 C   0  0  0  0  0  0  0  0  0  0  0  0
  -23.5852  -29.3132   20.6621 C   0  0  0  0  0  0  0  0  0  0  0  0
  -22.9716   -6.0012   23.6528 C   0  0  0  0  0  0  0  0  0  0  0  0
  -23.2438   -4.6332   23.6540 C   0  0  0  0  0  0  0  0  0  0  0  0
  -25.9857  -29.5865   20.7675 C   0  0  0  0  0  0  0  0  0  0  0  0
  -20.9967   -4.1855   22.8875 C   0  0  0  0  0  0  0  0  0  0  0  0
  -23.7709  -10.2447   20.8319 C   0  0  0  0  0  0  0  0  0  0  0  0
  -24.2034  -11.6764   18.7653 C   0  0  0  0  0  0  0  0  0  0  0  0
  -23.5522  -37.9549   25.5575 C   0  0  0  0  0  0  0  0  0  0  0  0
  -24.5244  -31.3251   21.6203 C   0  0  0  0  0  0  0  0  0  0  0  0
  -23.8537  -37.4094   24.2950 C   0  0  0  0  0  0  0  0  0  0  0  0
  -25.8171  -30.8347   21.3728 C   0  0  0  0  0  0  0  0  0  0  0  0
  -22.2068   -8.6148   22.4689 C   0  0  0  0  0  0  0  0  0  0  0  0
  -24.8696  -28.8258   20.4190 C   0  0  0  0  0  0  0  0  0  0  0  0
  -21.7120   -6.4615   23.2691 C   0  0  0  0  0  0  0  0  0  0  0  0
  -22.2564   -3.7254   23.2713 C   0  0  0  0  0  0  0  0  0  0  0  0
  -20.7246   -5.5536   22.8864 C   0  0  0  0  0  0  0  0  0  0  0  0
  -24.5793  -11.0867   19.9871 C   0  0  0  0  0  0  0  0  0  0  0  0
  -25.3167  -12.3733   18.3636 C   0  0  0  0  0  0  0  0  0  0  0  0
  -22.9591  -11.6011   18.0570 C   0  0  0  0  0  0  0  0  0  0  0  0
  -25.8175  -34.4924   23.1606 C   0  0  0  0  0  0  0  0  0  0  0  0
  -29.5421  -15.8295   19.5843 C   0  0  0  0  0  0  0  0  0  0  0  0
  -27.6160  -32.2168   24.1595 C   0  0  0  0  0  0  0  0  0  0  0  0
  -29.6944  -30.1846   25.9449 C   0  0  0  0  0  0  0  0  0  0  0  0
  -24.5649  -37.9764   26.6749 C   0  0  0  0  0  0  0  0  0  0  0  0
  -24.3835  -32.7043   22.2049 C   0  0  0  0  0  0  0  0  0  0  0  0
  -26.9856  -31.7031   21.7513 C   0  0  0  0  0  0  0  0  0  0  0  0
  -25.7209  -37.0011   26.4679 C   0  0  0  0  0  0  0  0  0  0  0  0
  -30.0532  -12.3229   20.1161 C   0  0  0  0  0  0  0  0  0  0  0  0
  -26.2603  -37.1067   25.0450 C   0  0  0  0  0  0  0  0  0  0  0  0
  -28.6410  -11.7417   20.0598 C   0  0  0  0  0  0  0  0  0  0  0  0
  -27.8331  -19.0641   18.4065 C   0  0  0  0  0  0  0  0  0  0  0  0
  -28.9148  -18.4976   20.6109 C   0  0  0  0  0  0  0  0  0  0  0  0
  -30.0609  -13.7109   20.7491 C   0  0  0  0  0  0  0  0  0  0  0  0
  -27.7260  -14.1054   20.0321 C   0  0  0  0  0  0  0  0  0  0  0  0
  -28.1161  -20.5394   18.6540 C   0  0  0  0  0  0  0  0  0  0  0  0
  -29.1928  -19.9756   20.8471 C   0  0  0  0  0  0  0  0  0  0  0  0
  -25.1824  -36.7402   24.0178 C   0  0  1  0  0  0  0  0  0  0  0  0
  -25.4722  -33.0344   23.2417 C   0  0  1  0  0  0  0  0  0  0  0  0
  -28.8485  -18.1619   19.1167 C   0  0  0  0  0  0  0  0  0  0  0  0
  -27.6691  -12.7165   19.3716 C   0  0  2  0  0  0  0  0  0  0  0  0
  -28.4499  -16.3376   17.4285 C   0  0  0  0  0  0  0  0  0  0  0  0
  -31.9187  -30.1737   27.1067 C   0  0  0  0  0  0  0  0  0  0  0  0
  -25.8920  -22.4951   21.1876 C   0  0  0  0  0  0  0  0  0  0  0  0
  -29.0225  -32.0623   21.4573 C   0  0  0  0  0  0  0  0  0  0  0  0
  -31.0224  -31.1196   22.6319 C   0  0  0  0  0  0  0  0  0  0  0  0
  -30.2230  -33.4175   23.1826 C   0  0  0  0  0  0  0  0  0  0  0  0
  -28.4554  -29.5675   28.5608 C   0  0  0  0  0  0  0  0  0  0  0  0
  -25.9459  -25.3775   20.0772 C   0  0  0  0  0  0  0  0  0  0  0  0
  -27.1878  -24.5597   20.4380 C   0  0  0  0  0  0  0  0  0  0  0  0
  -28.3051  -22.2688   20.4388 C   0  0  0  0  0  0  0  0  0  0  0  0
  -26.2102  -26.8742   20.1918 C   0  0  0  0  0  0  0  0  0  1  0  0
  -28.5047  -16.6888   18.9066 C   0  0  1  0  0  0  0  0  0  0  0  0
  -28.8791  -31.4196   23.9538 C   0  0  1  0  0  0  0  0  0  0  0  0
  -30.4218  -30.3935   27.2609 C   0  0  2  0  0  0  0  0  0  0  0  0
  -26.9873  -23.0398   20.2651 C   0  0  1  0  0  0  0  0  0  0  0  0
  -29.7614  -31.9921   22.8086 C   0  0  0  0  0  0  0  0  0  0  0  0
  -25.8334  -11.3829   20.3384 N   0  0  0  0  0  0  0  0  0  0  0  0
  -26.2553  -12.1664   19.3313 N   0  0  0  0  0  0  0  0  0  0  0  0
  -26.7480  -32.3201   23.0656 N   0  0  0  0  0  0  0  0  0  0  0  0
  -29.1087  -14.6003   20.0817 N   0  0  0  0  0  0  0  0  0  0  0  0
  -25.5746  -13.1366   17.2804 N   0  0  0  0  0  0  0  0  0  0  0  0
  -21.9750  -12.5606   18.3313 N   0  0  0  0  0  0  0  0  0  0  0  0
  -25.0207  -35.3038   23.9455 N   0  0  0  0  0  0  0  0  0  0  0  0
  -29.5443  -31.3668   25.2511 N   0  0  0  0  0  0  0  0  0  0  0  0
  -28.1480  -20.8033   20.1395 N   0  3  0  0  0  0  0  0  0  0  0  0
  -29.9112  -29.4453   28.2911 N   0  3  0  0  0  0  0  0  0  0  0  0
  -22.7207  -10.6997   17.2179 O   0  0  0  0  0  0  0  0  0  0  0  0
  -26.7400  -34.8556   22.4403 O   0  0  0  0  0  0  0  0  0  0  0  0
  -30.7032  -16.2388   19.6656 O   0  0  0  0  0  0  0  0  0  0  0  0
  -27.4048  -32.7396   25.2573 O   0  0  0  0  0  0  0  0  0  0  0  0
  -29.3021  -29.0825   25.5682 O   0  0  0  0  0  0  0  0  0  0  0  0
  -21.4436   -7.8200   23.2678 O   0  0  0  0  0  0  0  0  0  0  0  0
  -25.0329  -27.6019   19.8443 O   0  0  0  0  0  0  0  0  0  1  0  0
  -22.5184   -2.4118   23.2709 F   0  0  0  0  0  0  0  0  0  0  0  0
  -19.5129   -5.9898   22.5156 F   0  0  0  0  0  0  0  0  0  0  0  0
  1  2  1  0  0  0  0
  1  5  2  0  0  0  0
  2  6  2  0  0  0  0
  3  8  2  0  0  0  0
  3 15  1  0  0  0  0
  4  9  1  0  0  0  0
  4 15  2  0  0  0  0
  5 17  1  0  0  0  0
  6 19  1  0  0  0  0
  7 10  2  0  0  0  0
  7 18  1  0  0  0  0
  8 21  1  0  0  0  0
  9 21  2  0  0  0  0
 10 22  1  0  0  0  0
 11 12  2  0  0  0  0
 11 23  1  0  0  0  0
 12 24  1  0  0  0  0
 13 20  1  0  0  0  0
 13 22  2  0  0  0  0
 14 24  2  0  0  0  0
 14 25  1  0  0  0  0
 15 26  1  0  0  0  0
 16 26  1  0  0  0  0
 16 27  2  0  0  0  0
 16 28  1  0  0  0  0
 17 19  2  0  0  0  0
 17 33  1  0  0  0  0
 18 20  2  0  0  0  0
 18 34  1  0  0  0  0
 19 46  1  0  0  0  0
 20 35  1  0  0  0  0
 21 81  1  0  0  0  0
 22 82  1  0  0  0  0
 23 25  2  0  0  0  0
 23 81  1  0  0  0  0
 24 83  1  0  0  0  0
 25 84  1  0  0  0  0
 26 66  2  0  0  0  0
 27 67  1  0  0  0  0
 27 70  1  0  0  0  0
 28 71  1  0  0  0  0
 28 76  2  0  0  0  0
 29 47  1  0  0  0  0
 29 72  1  0  0  0  0
 29 77  2  0  0  0  0
 30 61  1  0  0  0  0
 30 69  1  0  0  0  0
 30 78  2  0  0  0  0
 31 62  1  0  0  0  0
 31 68  1  0  0  0  0
 31 79  2  0  0  0  0
 32 63  1  0  0  0  0
 32 73  1  0  0  0  0
 32 80  2  0  0  0  0
 33 36  1  0  0  0  0
 34 47  1  0  0  0  0
 35 68  1  0  0  0  0
 36 38  1  0  0  0  0
 37 39  1  0  0  0  0
 37 42  1  0  0  0  0
 38 46  1  0  0  0  0
 39 49  1  0  0  0  0
 40 44  1  0  0  0  0
 40 48  1  0  0  0  0
 41 45  1  0  0  0  0
 41 48  1  0  0  0  0
 42 69  1  0  0  0  0
 43 49  1  0  0  0  0
 43 69  1  0  0  0  0
 44 74  1  0  0  0  0
 45 74  1  0  0  0  0
 46 72  1  0  0  0  0
 47 68  1  0  0  0  0
 48 61  1  0  0  0  0
 49 67  1  0  0  0  0
 50 61  1  0  0  0  0
 51 63  1  0  0  0  0
 52 64  1  0  0  0  0
 53 65  1  0  0  0  0
 54 65  1  0  0  0  0
 55 65  1  0  0  0  0
 56 75  1  0  0  0  0
 57 58  1  0  0  0  0
 57 60  1  0  0  0  0
 58 64  1  0  0  0  0
 59 64  1  0  0  0  0
 59 74  1  0  0  0  0
 60 82  1  0  0  0  0
 62 65  1  0  0  0  0
 62 73  1  0  0  0  0
 63 75  1  0  0  0  0
 66 67  1  0  0  0  0
M  CHG  2  74   1  75   1
M  ISO  4  30 100  60 101  61 100  82 101
M  END
> <Batch ID>
0078

> <Smiles>
CNC(C)C(=O)NC(C(=O)N1Cc2cc([101O:1][101CH2:1]CCC(C)CN3CCC([100CH:0](C)[100C:0](=O)N4CCCC(n5nc(-c6ccc(Oc7ccc(F)cc7F)cc6)c(C(N)=O)c5N)C4)CC3)ccc2CC1C(=O)NC1CCCc2ccccc21)C(C)(C)C

> <Shape>
0.301

> <Color>
0.103

> <Negative vol penalty>
0.000

$$$$

  -OEChem-04052318393D

 87 95  0     1  0  0  0  0  0999 V2000
  -28.1569  -34.0542   25.0550 C   0  0  0  0  0  0  0  0  0  0  0  0
  -28.2899  -32.7682   24.5413 C   0  0  0  0  0  0  0  0  0  0  0  0
  -26.8702  -13.6216   21.5414 C   0  0  0  0  0  0  0  0  0  0  0  0
  -26.5738  -13.8601   19.1555 C   0  0  0  0  0  0  0  0  0  0  0  0
  -26.9079  -34.5107   25.4738 C   0  0  0  0  0  0  0  0  0  0  0  0
  -27.1739  -31.9374   24.4472 C   0  0  0  0  0  0  0  0  0  0  0  0
  -26.9196  -29.5216   20.0038 C   0  0  0  0  0  0  0  0  0  0  0  0
  -26.1349  -12.4366   21.5142 C   0  0  0  0  0  0  0  0  0  0  0  0
  -25.8385  -12.6751   19.1284 C   0  0  0  0  0  0  0  0  0  0  0  0
  -27.7494  -28.4143   19.8327 C   0  0  0  0  0  0  0  0  0  0  0  0
  -26.6523   -9.2028   20.6729 C   0  0  0  0  0  0  0  0  0  0  0  0
  -27.1531   -8.1127   21.3845 C   0  0  0  0  0  0  0  0  0  0  0  0
  -25.8900  -26.9544   20.3129 C   0  0  0  0  0  0  0  0  0  0  0  0
  -25.1455   -8.0671   22.7278 C   0  0  0  0  0  0  0  0  0  0  0  0
  -29.7674  -22.9172   14.5823 C   0  0  0  0  0  0  0  0  0  0  0  0
  -29.0054  -21.9972   16.4283 C   0  0  0  0  0  0  0  0  0  0  0  0
  -27.0896  -14.3334   20.3620 C   0  0  0  0  0  0  0  0  0  0  0  0
  -29.2401  -15.6992   20.2305 C   0  0  0  0  0  0  0  0  0  0  0  0
  -25.7743  -33.6885   25.3758 C   0  0  0  0  0  0  0  0  0  0  0  0
  -25.5692  -29.3535   20.3420 C   0  0  0  0  0  0  0  0  0  0  0  0
  -25.9087  -32.3828   24.8664 C   0  0  0  0  0  0  0  0  0  0  0  0
  -25.0447  -28.0610   20.4852 C   0  0  0  0  0  0  0  0  0  0  0  0
  -29.9900  -22.8382   15.9701 C   0  0  0  0  0  0  0  0  0  0  0  0
  -25.6191  -11.9633   20.3078 C   0  0  0  0  0  0  0  0  0  0  0  0
  -27.2353  -27.1305   19.9900 C   0  0  0  0  0  0  0  0  0  0  0  0
  -25.3980   -9.7251   20.9888 C   0  0  0  0  0  0  0  0  0  0  0  0
  -26.3998   -7.5448   22.4119 C   0  0  0  0  0  0  0  0  0  0  0  0
  -24.6446   -9.1572   22.0162 C   0  0  0  0  0  0  0  0  0  0  0  0
  -27.8485  -15.5579   20.3894 C   0  0  0  0  0  0  0  0  0  0  0  0
  -29.4624  -17.0504   20.3371 C   0  0  0  0  0  0  0  0  0  0  0  0
  -30.2423  -14.6986   20.0064 C   0  0  0  0  0  0  0  0  0  0  0  0
  -23.7544  -30.1929   22.8130 C   0  0  0  0  0  0  0  0  0  0  0  0
  -21.3687  -29.0013   20.9662 C   0  0  0  0  0  0  0  0  0  0  0  0
  -20.4323  -26.9138   18.4340 C   0  0  0  0  0  0  0  0  0  0  0  0
  -26.0020  -21.8405   19.3725 C   0  0  0  0  0  0  0  0  0  0  0  0
  -24.4536  -34.2092   25.8853 C   0  0  0  0  0  0  0  0  0  0  0  0
  -24.6810  -30.5575   20.4969 C   0  0  0  0  0  0  0  0  0  0  0  0
  -23.5970  -27.8262   20.8280 C   0  0  0  0  0  0  0  0  0  0  0  0
  -23.2529  -33.3988   25.4039 C   0  0  0  0  0  0  0  0  0  0  0  0
  -27.6829  -20.9872   22.3929 C   0  0  0  0  0  0  0  0  0  0  0  0
  -23.5161  -31.9053   25.5686 C   0  0  0  0  0  0  0  0  0  0  0  0
  -28.0416  -19.5117   22.2076 C   0  0  0  0  0  0  0  0  0  0  0  0
  -26.3280  -21.3208   21.7725 C   0  0  0  0  0  0  0  0  0  0  0  0
  -26.5422  -19.4600   20.1709 C   0  0  0  0  0  0  0  0  0  0  0  0
  -24.7172  -31.4606   24.7253 C   0  0  1  0  0  0  0  0  0  0  0  0
  -23.4436  -30.2820   21.3456 C   0  0  1  0  0  0  0  0  0  0  0  0
  -27.9256  -19.0876   20.7311 C   0  0  2  0  0  0  0  0  0  0  0  0
  -32.3611  -23.6534   15.9539 C   0  0  0  0  0  0  0  0  0  0  0  0
  -18.4083  -26.1267   17.1764 C   0  0  0  0  0  0  0  0  0  0  0  0
  -27.1718  -19.8781   14.0451 C   0  0  0  0  0  0  0  0  0  0  0  0
  -20.5872  -27.2394   23.3315 C   0  0  0  0  0  0  0  0  0  0  0  0
  -19.2320  -25.8443   21.7550 C   0  0  0  0  0  0  0  0  0  0  0  0
  -18.6584  -28.2474   22.0995 C   0  0  0  0  0  0  0  0  0  0  0  0
  -25.3952  -22.5100   14.4813 C   0  0  0  0  0  0  0  0  0  0  0  0
  -24.6114  -20.4125   15.5596 C   0  0  0  0  0  0  0  0  0  0  0  0
  -21.4791  -27.9529   15.8682 C   0  0  0  0  0  0  0  0  0  0  0  0
  -29.4757  -24.8213   18.3123 C   0  0  0  0  0  0  0  0  0  0  0  0
  -30.6475  -24.9055   17.3235 C   0  0  0  0  0  0  0  0  0  0  0  0
  -25.7171  -22.2068   16.9345 C   0  0  0  0  0  0  0  0  0  0  0  0
  -29.1276  -26.1814   18.9063 C   0  0  0  0  0  0  0  0  0  1  0  0
  -31.0757  -23.5249   16.7805 C   0  0  1  0  0  0  0  0  0  0  0  0
  -20.7326  -27.6442   20.7857 C   0  0  1  0  0  0  0  0  0  0  0  0
  -19.5457  -27.1352   17.2218 C   0  0  2  0  0  0  0  0  0  0  0  0
  -27.1364  -20.7591   15.3091 C   0  0  2  0  0  0  0  0  0  0  0  0
  -19.8304  -27.2479   21.9884 C   0  0  0  0  0  0  0  0  0  0  0  0
  -25.7458  -21.4679   15.5664 C   0  0  0  0  0  0  0  0  0  0  0  0
  -28.7236  -22.1848   14.1849 N   0  0  0  0  0  0  0  0  0  0  0  0
  -27.2303  -16.7260   20.5825 N   0  0  0  0  0  0  0  0  0  0  0  0
  -28.2814  -21.6375   15.3299 N   0  0  0  0  0  0  0  0  0  0  0  0
  -28.2382  -17.6142   20.5457 N   0  0  0  0  0  0  0  0  0  0  0  0
  -22.7703  -29.0355   20.9754 N   0  0  0  0  0  0  0  0  0  0  0  0
  -26.2842  -20.8945   20.3717 N   0  0  0  0  0  0  0  0  0  0  0  0
  -30.5837  -17.7993   20.2720 N   0  0  0  0  0  0  0  0  0  0  0  0
  -29.8412  -13.3582   19.9230 N   0  0  0  0  0  0  0  0  0  0  0  0
  -24.3383  -31.3316   23.3345 N   0  0  0  0  0  0  0  0  0  0  0  0
  -20.0359  -27.6870   19.5047 N   0  0  0  0  0  0  0  0  0  0  0  0
  -25.9860  -21.3542   18.0710 N   0  0  0  0  0  0  0  0  0  0  0  0
  -20.3405  -27.0039   15.9679 N   0  3  0  0  0  0  0  0  0  0  0  0
  -31.4594  -14.9830   19.9002 O   0  0  0  0  0  0  0  0  0  0  0  0
  -23.4831  -29.1677   23.4269 O   0  0  0  0  0  0  0  0  0  0  0  0
  -20.6485  -29.9955   21.0872 O   0  0  0  0  0  0  0  0  0  0  0  0
  -21.3792  -26.1303   18.4325 O   0  0  0  0  0  0  0  0  0  0  0  0
  -25.7859  -23.0315   19.6213 O   0  0  0  0  0  0  0  0  0  0  0  0
  -24.9018  -10.8069   20.2809 O   0  0  0  0  0  0  0  0  0  0  0  0
  -28.0432  -26.0481   19.8242 O   0  0  0  0  0  0  0  0  0  1  0  0
  -26.8802   -6.4970   23.0942 F   0  0  0  0  0  0  0  0  0  0  0  0
  -23.4385   -9.6539   22.3235 F   0  0  0  0  0  0  0  0  0  0  0  0
  1  2  1  0  0  0  0
  1  5  2  0  0  0  0
  2  6  2  0  0  0  0
  3  8  2  0  0  0  0
  3 17  1  0  0  0  0
  4  9  1  0  0  0  0
  4 17  2  0  0  0  0
  5 19  1  0  0  0  0
  6 21  1  0  0  0  0
  7 10  2  0  0  0  0
  7 20  1  0  0  0  0
  8 24  1  0  0  0  0
  9 24  2  0  0  0  0
 10 25  1  0  0  0  0
 11 12  2  0  0  0  0
 11 26  1  0  0  0  0
 12 27  1  0  0  0  0
 13 22  1  0  0  0  0
 13 25  2  0  0  0  0
 14 27  2  0  0  0  0
 14 28  1  0  0  0  0
 15 23  1  0  0  0  0
 15 67  2  0  0  0  0
 16 23  2  0  0  0  0
 16 69  1  0  0  0  0
 17 29  1  0  0  0  0
 18 29  1  0  0  0  0
 18 30  2  0  0  0  0
 18 31  1  0  0  0  0
 19 21  2  0  0  0  0
 19 36  1  0  0  0  0
 20 22  2  0  0  0  0
 20 37  1  0  0  0  0
 21 45  1  0  0  0  0
 22 38  1  0  0  0  0
 23 61  1  0  0  0  0
 24 84  1  0  0  0  0
 25 85  1  0  0  0  0
 26 28  2  0  0  0  0
 26 84  1  0  0  0  0
 27 86  1  0  0  0  0
 28 87  1  0  0  0  0
 29 68  2  0  0  0  0
 30 70  1  0  0  0  0
 30 73  1  0  0  0  0
 31 74  1  0  0  0  0
 31 79  2  0  0  0  0
 32 46  1  0  0  0  0
 32 75  1  0  0  0  0
 32 80  2  0  0  0  0
 33 62  1  0  0  0  0
 33 71  1  0  0  0  0
 33 81  2  0  0  0  0
 34 63  1  0  0  0  0
 34 76  1  0  0  0  0
 34 82  2  0  0  0  0
 35 72  1  0  0  0  0
 35 77  1  0  0  0  0
 35 83  2  0  0  0  0
 36 39  1  0  0  0  0
 37 46  1  0  0  0  0
 38 71  1  0  0  0  0
 39 41  1  0  0  0  0
 40 42  1  0  0  0  0
 40 43  1  0  0  0  0
 41 45  1  0  0  0  0
 42 47  1  0  0  0  0
 43 72  1  0  0  0  0
 44 47  1  0  0  0  0
 44 72  1  0  0  0  0
 45 75  1  0  0  0  0
 46 71  1  0  0  0  0
 47 70  1  0  0  0  0
 48 61  1  0  0  0  0
 49 63  1  0  0  0  0
 50 64  1  0  0  0  0
 51 65  1  0  0  0  0
 52 65  1  0  0  0  0
 53 65  1  0  0  0  0
 54 66  1  0  0  0  0
 55 66  1  0  0  0  0
 56 78  1  0  0  0  0
 57 58  1  0  0  0  0
 57 60  1  0  0  0  0
 58 61  1  0  0  0  0
 59 66  1  0  0  0  0
 59 77  1  0  0  0  0
 60 85  1  0  0  0  0
 62 65  1  0  0  0  0
 62 76  1  0  0  0  0
 63 78  1  0  0  0  0
 64 66  1  0  0  0  0
 64 69  1  0  0  0  0
 67 69  1  0  0  0  0
 68 70  1  0  0  0  0
M  CHG  1  78   1
M  ISO  4  35 100  60 101  77 100  85 101
M  END
> <Batch ID>
0078

> <Smiles>
CNC(C)C(=O)NC(C(=O)N1Cc2cc([101O:1][101CH2:1]CCC(C)c3cnn(C(C)C(C)(C)C[100NH:0][100C:0](=O)N4CCCC(n5nc(-c6ccc(Oc7ccc(F)cc7F)cc6)c(C(N)=O)c5N)C4)c3)ccc2CC1C(=O)NC1CCCc2ccccc21)C(C)(C)C

> <Shape>
0.272

> <Color>
0.087

> <Negative vol penalty>
0.000

$$$$

  -OEChem-04052318393D

 82 90  0     1  0  0  0  0  0999 V2000
  -20.9841  -29.6486   26.2592 C   0  0  0  0  0  0  0  0  0  0  0  0
  -21.8597  -28.6058   25.9740 C   0  0  0  0  0  0  0  0  0  0  0  0
  -23.1891   -9.8816   21.5613 C   0  0  0  0  0  0  0  0  0  0  0  0
  -23.8709  -11.0086   23.5866 C   0  0  0  0  0  0  0  0  0  0  0  0
  -20.3875  -30.3604   25.2195 C   0  0  0  0  0  0  0  0  0  0  0  0
  -22.1382  -28.2735   24.6487 C   0  0  0  0  0  0  0  0  0  0  0  0
  -27.4619  -26.2435   22.4031 C   0  0  0  0  0  0  0  0  0  0  0  0
  -22.4919   -8.9410   22.3193 C   0  0  0  0  0  0  0  0  0  0  0  0
  -23.1736  -10.0680   24.3447 C   0  0  0  0  0  0  0  0  0  0  0  0
  -27.9245  -24.9641   22.0982 C   0  0  0  0  0  0  0  0  0  0  0  0
  -23.2082   -6.1870   24.1433 C   0  0  0  0  0  0  0  0  0  0  0  0
  -23.3542   -4.8428   23.8008 C   0  0  0  0  0  0  0  0  0  0  0  0
  -30.6469  -20.9074   20.8487 C   0  0  0  0  0  0  0  0  0  0  0  0
  -31.0235  -19.6719   20.3523 C   0  0  0  0  0  0  0  0  0  0  0  0
  -27.2849  -25.2881   19.7950 C   0  0  0  0  0  0  0  0  0  0  0  0
  -20.9776   -4.6881   23.3947 C   0  0  0  0  0  0  0  0  0  0  0  0
  -23.8787  -10.9154   22.1949 C   0  0  0  0  0  0  0  0  0  0  0  0
  -24.1063  -13.1028   20.9022 C   0  0  0  0  0  0  0  0  0  0  0  0
  -20.6663  -30.0430   23.8808 C   0  0  0  0  0  0  0  0  0  0  0  0
  -26.8964  -27.0520   21.4066 C   0  0  0  0  0  0  0  0  0  0  0  0
  -21.5437  -28.9809   23.5900 C   0  0  0  0  0  0  0  0  0  0  0  0
  -26.8182  -26.5784   20.0892 C   0  0  0  0  0  0  0  0  0  0  0  0
  -22.4841   -9.0342   23.7111 C   0  0  0  0  0  0  0  0  0  0  0  0
  -27.8334  -24.4851   20.7946 C   0  0  0  0  0  0  0  0  0  0  0  0
  -21.9468   -6.7818   24.1116 C   0  0  0  0  0  0  0  0  0  0  0  0
  -22.2390   -4.0934   23.4265 C   0  0  0  0  0  0  0  0  0  0  0  0
  -20.8316   -6.0324   23.7372 C   0  0  0  0  0  0  0  0  0  0  0  0
  -24.5996  -11.8870   21.4124 C   0  0  0  0  0  0  0  0  0  0  0  0
  -29.2997  -21.1472   21.0305 C   0  0  0  0  0  0  0  0  0  0  0  0
  -30.0281  -18.7578   20.0708 C   0  0  0  0  0  0  0  0  0  0  0  0
  -25.1739  -13.6543   20.2369 C   0  0  0  0  0  0  0  0  0  0  0  0
  -22.7999  -13.6818   21.0192 C   0  0  0  0  0  0  0  0  0  0  0  0
  -24.0401  -28.3652   20.9365 C   0  0  0  0  0  0  0  0  0  0  0  0
  -30.6155  -14.9403   20.0811 C   0  0  0  0  0  0  0  0  0  0  0  0
  -25.5328  -29.7725   18.4238 C   0  0  0  0  0  0  0  0  0  0  0  0
  -28.0805  -29.6963   16.1544 C   0  0  0  0  0  0  0  0  0  0  0  0
  -19.9607  -30.8101   22.7907 C   0  0  0  0  0  0  0  0  0  0  0  0
  -26.4265  -28.4399   21.7463 C   0  0  0  0  0  0  0  0  0  0  0  0
  -26.2381  -27.4146   18.9790 C   0  0  0  0  0  0  0  0  0  0  0  0
  -20.5985  -30.6386   21.4144 C   0  0  0  0  0  0  0  0  0  0  0  0
  -29.6427  -11.6802   18.9562 C   0  0  0  0  0  0  0  0  0  0  0  0
  -20.8942  -29.1670   21.1427 C   0  0  0  0  0  0  0  0  0  0  0  0
  -28.2145  -11.5314   19.4789 C   0  0  0  0  0  0  0  0  0  0  0  0
  -30.5123  -12.4746   19.9256 C   0  0  0  0  0  0  0  0  0  0  0  0
  -28.5312  -13.6714   20.7999 C   0  0  0  0  0  0  0  0  0  0  0  0
  -21.8901  -28.6065   22.1653 C   0  0  1  0  0  0  0  0  0  0  0  0
  -25.3987  -28.9815   20.7574 C   0  0  1  0  0  0  0  0  0  0  0  0
  -27.6111  -12.9013   19.8362 C   0  0  2  0  0  0  0  0  0  0  0  0
  -29.8289  -17.2451   18.0998 C   0  0  0  0  0  0  0  0  0  0  0  0
  -29.0179  -30.9636   14.2018 C   0  0  0  0  0  0  0  0  0  0  0  0
  -23.3004  -28.6862   16.6501 C   0  0  0  0  0  0  0  0  0  0  0  0
  -24.7514  -29.1451   14.6621 C   0  0  0  0  0  0  0  0  0  0  0  0
  -24.0073  -31.0261   16.1217 C   0  0  0  0  0  0  0  0  0  0  0  0
  -30.6488  -30.1705   17.5465 C   0  0  0  0  0  0  0  0  0  0  0  0
  -28.8376  -22.4713   21.5641 C   0  0  0  0  0  0  0  0  0  1  0  0
  -30.0790  -16.4516   21.9501 C   0  0  0  0  0  0  0  0  0  0  0  0
  -30.3816  -17.4117   19.5377 C   0  0  2  0  0  0  0  0  0  0  0  0
  -29.9107  -16.2239   20.4409 C   0  0  1  0  0  0  0  0  0  0  0  0
  -25.7566  -29.4124   16.9749 C   0  0  1  0  0  0  0  0  0  0  0  0
  -29.0646  -30.7627   15.7085 C   0  0  2  0  0  0  0  0  0  0  0  0
  -24.4632  -29.5507   16.1233 C   0  0  0  0  0  0  0  0  0  0  0  0
  -25.8808  -11.6779   21.0980 N   0  0  0  0  0  0  0  0  0  0  0  0
  -28.3471  -20.2341   20.7464 N   0  0  0  0  0  0  0  0  0  0  0  0
  -28.7173  -19.0196   20.2589 N   0  0  0  0  0  0  0  0  0  0  0  0
  -26.2016  -12.7697   20.3830 N   0  0  0  0  0  0  0  0  0  0  0  0
  -25.7865  -28.7624   19.3624 N   0  0  0  0  0  0  0  0  0  0  0  0
  -29.8940  -13.7595   20.2574 N   0  0  0  0  0  0  0  0  0  0  0  0
  -25.3243  -14.8049   19.5469 N   0  0  0  0  0  0  0  0  0  0  0  0
  -21.8208  -12.9820   21.7374 N   0  0  0  0  0  0  0  0  0  0  0  0
  -23.2364  -29.0290   21.8436 N   0  0  0  0  0  0  0  0  0  0  0  0
  -26.8661  -30.2407   16.5151 N   0  0  0  0  0  0  0  0  0  0  0  0
  -31.5083  -16.5250   22.3430 N   0  3  0  0  0  0  0  0  0  0  0  0
  -30.4532  -30.3776   16.0885 N   0  3  0  0  0  0  0  0  0  0  0  0
  -22.5048  -14.7794   20.4884 O   0  0  0  0  0  0  0  0  0  0  0  0
  -23.7425  -27.3626   20.2978 O   0  0  0  0  0  0  0  0  0  0  0  0
  -31.7718  -14.9879   19.6533 O   0  0  0  0  0  0  0  0  0  0  0  0
  -25.1540  -30.9104   18.7126 O   0  0  0  0  0  0  0  0  0  0  0  0
  -28.3599  -28.4996   16.1766 O   0  0  0  0  0  0  0  0  0  0  0  0
  -21.8036   -8.1167   24.4511 O   0  0  0  0  0  0  0  0  0  0  0  0
  -28.2836  -23.2364   20.4945 O   0  0  0  0  0  0  0  0  0  1  0  0
  -22.3796   -2.8029   23.0961 F   0  0  0  0  0  0  0  0  0  0  0  0
  -19.6175   -6.5986   23.7037 F   0  0  0  0  0  0  0  0  0  0  0  0
  1  2  1  0  0  0  0
  1  5  2  0  0  0  0
  2  6  2  0  0  0  0
  3  8  2  0  0  0  0
  3 17  1  0  0  0  0
  4  9  1  0  0  0  0
  4 17  2  0  0  0  0
  5 19  1  0  0  0  0
  6 21  1  0  0  0  0
  7 10  2  0  0  0  0
  7 20  1  0  0  0  0
  8 23  1  0  0  0  0
  9 23  2  0  0  0  0
 10 24  1  0  0  0  0
 11 12  2  0  0  0  0
 11 25  1  0  0  0  0
 12 26  1  0  0  0  0
 13 14  2  0  0  0  0
 13 29  1  0  0  0  0
 14 30  1  0  0  0  0
 15 22  1  0  0  0  0
 15 24  2  0  0  0  0
 16 26  2  0  0  0  0
 16 27  1  0  0  0  0
 17 28  1  0  0  0  0
 18 28  1  0  0  0  0
 18 31  2  0  0  0  0
 18 32  1  0  0  0  0
 19 21  2  0  0  0  0
 19 37  1  0  0  0  0
 20 22  2  0  0  0  0
 20 38  1  0  0  0  0
 21 46  1  0  0  0  0
 22 39  1  0  0  0  0
 23 79  1  0  0  0  0
 24 80  1  0  0  0  0
 25 27  2  0  0  0  0
 25 79  1  0  0  0  0
 26 81  1  0  0  0  0
 27 82  1  0  0  0  0
 28 62  2  0  0  0  0
 29 55  1  0  0  0  0
 29 63  2  0  0  0  0
 30 57  1  0  0  0  0
 30 64  2  0  0  0  0
 31 65  1  0  0  0  0
 31 68  1  0  0  0  0
 32 69  1  0  0  0  0
 32 74  2  0  0  0  0
 33 47  1  0  0  0  0
 33 70  1  0  0  0  0
 33 75  2  0  0  0  0
 34 58  1  0  0  0  0
 34 67  1  0  0  0  0
 34 76  2  0  0  0  0
 35 59  1  0  0  0  0
 35 66  1  0  0  0  0
 35 77  2  0  0  0  0
 36 60  1  0  0  0  0
 36 71  1  0  0  0  0
 36 78  2  0  0  0  0
 37 40  1  0  0  0  0
 38 47  1  0  0  0  0
 39 66  1  0  0  0  0
 40 42  1  0  0  0  0
 41 43  1  0  0  0  0
 41 44  1  0  0  0  0
 42 46  1  0  0  0  0
 43 48  1  0  0  0  0
 44 67  1  0  0  0  0
 45 48  1  0  0  0  0
 45 67  1  0  0  0  0
 46 70  1  0  0  0  0
 47 66  1  0  0  0  0
 48 65  1  0  0  0  0
 49 57  1  0  0  0  0
 50 60  1  0  0  0  0
 51 61  1  0  0  0  0
 52 61  1  0  0  0  0
 53 61  1  0  0  0  0
 54 73  1  0  0  0  0
 55 80  1  0  0  0  0
 56 58  1  0  0  0  0
 56 72  1  0  0  0  0
 57 58  1  0  0  0  0
 59 61  1  0  0  0  0
 59 71  1  0  0  0  0
 60 73  1  0  0  0  0
 62 65  1  0  0  0  0
 63 64  1  0  0  0  0
M  CHG  2  72   1  73   1
M  ISO  4  34 100  55 101  58 100  80 101
M  END
> <Batch ID>
0078

> <Smiles>
CNC(C)C(=O)NC(C(=O)N1Cc2cc([101O:1][101CH2:1]c3ccc(C(C)[100CH:0](CN)[100C:0](=O)N4CCCC(n5nc(-c6ccc(Oc7ccc(F)cc7F)cc6)c(C(N)=O)c5N)C4)nn3)ccc2CC1C(=O)NC1CCCc2ccccc21)C(C)(C)C

> <Shape>
0.286

> <Color>
0.157

> <Negative vol penalty>
0.000

$$$$

  -OEChem-04052318393D

 89 97  0     1  0  0  0  0  0999 V2000
  -15.9671  -26.4232   20.8024 C   0  0  0  0  0  0  0  0  0  0  0  0
  -16.2557  -25.0712   20.6463 C   0  0  0  0  0  0  0  0  0  0  0  0
  -27.5270  -23.4717   21.2366 C   0  0  0  0  0  0  0  0  0  0  0  0
  -28.2861  -23.0289   18.9861 C   0  0  0  0  0  0  0  0  0  0  0  0
  -16.9492  -27.2948   21.2712 C   0  0  0  0  0  0  0  0  0  0  0  0
  -17.5269  -24.5903   20.9579 C   0  0  0  0  0  0  0  0  0  0  0  0
  -20.8187  -18.7706   23.5291 C   0  0  0  0  0  0  0  0  0  0  0  0
  -27.6816  -24.8408   21.0193 C   0  0  0  0  0  0  0  0  0  0  0  0
  -28.4406  -24.3981   18.7688 C   0  0  0  0  0  0  0  0  0  0  0  0
  -21.8570  -17.8941   23.2168 C   0  0  0  0  0  0  0  0  0  0  0  0
  -25.9844  -27.3255   19.4770 C   0  0  0  0  0  0  0  0  0  0  0  0
  -24.9574  -28.1691   19.9006 C   0  0  0  0  0  0  0  0  0  0  0  0
  -23.4505  -19.4786   24.0938 C   0  0  0  0  0  0  0  0  0  0  0  0
  -23.7254  -12.9935   21.4475 C   0  0  0  0  0  0  0  0  0  0  0  0
  -26.5027  -29.3172   21.3604 C   0  0  0  0  0  0  0  0  0  0  0  0
  -27.8293  -22.5657   20.2199 C   0  0  0  0  0  0  0  0  0  0  0  0
  -26.5185  -20.3773   20.2074 C   0  0  0  0  0  0  0  0  0  0  0  0
  -18.2302  -26.8226   21.5979 C   0  0  0  0  0  0  0  0  0  0  0  0
  -21.0899  -20.0144   24.1172 C   0  0  0  0  0  0  0  0  0  0  0  0
  -18.5275  -25.4566   21.4302 C   0  0  0  0  0  0  0  0  0  0  0  0
  -22.4137  -20.3680   24.4150 C   0  0  0  0  0  0  0  0  0  0  0  0
  -24.9099  -13.0755   22.1711 C   0  0  0  0  0  0  0  0  0  0  0  0
  -23.7315  -12.4308   20.1760 C   0  0  0  0  0  0  0  0  0  0  0  0
  -28.1384  -25.3040   19.7855 C   0  0  0  0  0  0  0  0  0  0  0  0
  -23.1733  -18.2492   23.4964 C   0  0  0  0  0  0  0  0  0  0  0  0
  -27.2705  -27.4777   19.9952 C   0  0  0  0  0  0  0  0  0  0  0  0
  -25.2166  -29.1649   20.8422 C   0  0  0  0  0  0  0  0  0  0  0  0
  -27.5296  -28.4736   20.9368 C   0  0  0  0  0  0  0  0  0  0  0  0
  -27.6703  -21.1513   20.4439 C   0  0  0  0  0  0  0  0  0  0  0  0
  -26.0644  -12.5843   21.5831 C   0  0  0  0  0  0  0  0  0  0  0  0
  -24.9388  -11.9687   19.6773 C   0  0  0  0  0  0  0  0  0  0  0  0
  -26.8779  -19.1046   20.5782 C   0  0  0  0  0  0  0  0  0  0  0  0
  -25.2381  -20.7734   19.6981 C   0  0  0  0  0  0  0  0  0  0  0  0
  -20.6388  -23.0437   23.2668 C   0  0  0  0  0  0  0  0  0  0  0  0
  -21.7132  -23.6391   26.2691 C   0  0  0  0  0  0  0  0  0  0  0  0
  -23.5255  -22.5815   28.9605 C   0  0  0  0  0  0  0  0  0  0  0  0
  -30.8545  -15.0607   20.1903 C   0  0  0  0  0  0  0  0  0  0  0  0
  -19.2732  -27.8110   22.0561 C   0  0  0  0  0  0  0  0  0  0  0  0
  -19.9566  -20.9373   24.4725 C   0  0  0  0  0  0  0  0  0  0  0  0
  -22.7563  -21.6831   25.0644 C   0  0  0  0  0  0  0  0  0  0  0  0
  -20.4825  -27.1568   22.7194 C   0  0  0  0  0  0  0  0  0  0  0  0
  -30.9325  -17.3999   23.0580 C   0  0  0  0  0  0  0  0  0  0  0  0
  -20.9703  -25.9727   21.8908 C   0  0  0  0  0  0  0  0  0  0  0  0
  -30.0503  -18.5495   22.5742 C   0  0  0  0  0  0  0  0  0  0  0  0
  -31.6082  -16.6762   21.8972 C   0  0  0  0  0  0  0  0  0  0  0  0
  -29.7791  -17.3418   20.3722 C   0  0  0  0  0  0  0  0  0  0  0  0
  -19.8872  -24.8926   21.7811 C   0  0  1  0  0  0  0  0  0  0  0  0
  -20.3899  -22.3945   24.5989 C   0  0  1  0  0  0  0  0  0  0  0  0
  -29.0470  -18.0625   21.5142 C   0  0  2  0  0  0  0  0  0  0  0  0
  -25.0041  -11.3537   18.3176 C   0  0  0  0  0  0  0  0  0  0  0  0
  -21.8641  -13.7243   19.0837 C   0  0  0  0  0  0  0  0  0  0  0  0
  -21.4087  -11.4561   20.0849 C   0  0  0  0  0  0  0  0  0  0  0  0
  -24.2520  -23.3016   31.2521 C   0  0  0  0  0  0  0  0  0  0  0  0
  -25.7097  -15.6234   24.9358 C   0  0  0  0  0  0  0  0  0  0  0  0
  -23.7802  -25.5067   25.0243 C   0  0  0  0  0  0  0  0  0  0  0  0
  -25.0398  -25.4407   27.1870 C   0  0  0  0  0  0  0  0  0  0  0  0
  -22.7250  -26.3681   27.1217 C   0  0  0  0  0  0  0  0  0  0  0  0
  -29.8081  -13.5354   18.5599 C   0  0  0  0  0  0  0  0  0  0  0  0
  -22.1388  -20.3029   30.2427 C   0  0  0  0  0  0  0  0  0  0  0  0
  -24.9101  -13.6851   23.5519 C   0  0  0  0  0  0  0  0  0  0  0  0
  -27.3664  -12.6465   22.3123 C   0  0  0  0  0  0  0  0  0  0  0  0
  -28.5914  -12.8797   21.4077 C   0  0  0  0  0  0  0  0  0  0  0  0
  -28.5224  -14.1559   20.5718 C   0  0  0  0  0  0  0  0  0  0  0  0
  -23.8952  -15.9997   23.2239 C   0  0  0  0  0  0  0  0  0  1  0  0
  -22.4659  -12.3403   19.3955 C   0  0  0  0  0  0  0  0  0  0  0  0
  -23.0678  -23.8737   26.8929 C   0  0  1  0  0  0  0  0  0  0  0  0
  -23.2033  -22.5536   30.4437 C   0  0  2  0  0  0  0  0  0  0  0  0
  -25.1645  -15.2057   23.5641 C   0  0  1  0  0  0  0  0  0  0  0  0
  -23.6472  -25.2733   26.5424 C   0  0  0  0  0  0  0  0  0  0  0  0
  -28.6855  -20.4305   20.9276 N   0  0  0  0  0  0  0  0  0  0  0  0
  -26.1095  -12.0310   20.3504 N   0  0  0  0  0  0  0  0  0  0  0  0
  -28.1727  -19.1903   20.9981 N   0  0  0  0  0  0  0  0  0  0  0  0
  -21.6139  -22.5539   25.3868 N   0  0  0  0  0  0  0  0  0  0  0  0
  -30.6369  -16.2625   20.8840 N   0  0  0  0  0  0  0  0  0  0  0  0
  -26.2095  -17.9317   20.5827 N   0  0  0  0  0  0  0  0  0  0  0  0
  -25.0385  -22.1204   19.3665 N   0  0  0  0  0  0  0  0  0  0  0  0
  -19.8159  -24.1223   23.0042 N   0  0  0  0  0  0  0  0  0  0  0  0
  -22.9054  -23.6352   28.3230 N   0  0  0  0  0  0  0  0  0  0  0  0
  -29.7200  -14.3568   19.7588 N   0  0  0  0  0  0  0  0  0  0  0  0
  -23.1459  -21.1477   30.9349 N   0  3  0  0  0  0  0  0  0  0  0  0
  -24.2936  -19.9600   19.5571 O   0  0  0  0  0  0  0  0  0  0  0  0
  -21.5136  -22.5999   22.5324 O   0  0  0  0  0  0  0  0  0  0  0  0
  -20.7760  -24.3867   26.5596 O   0  0  0  0  0  0  0  0  0  0  0  0
  -24.2573  -21.7538   28.4221 O   0  0  0  0  0  0  0  0  0  0  0  0
  -31.9974  -14.6359   19.9776 O   0  0  0  0  0  0  0  0  0  0  0  0
  -28.2891  -26.6400   19.5731 O   0  0  0  0  0  0  0  0  0  0  0  0
  -24.1886  -17.3958   23.1920 O   0  0  0  0  0  0  0  0  0  1  0  0
  -24.2307  -29.9759   21.2477 F   0  0  0  0  0  0  0  0  0  0  0  0
  -28.7634  -28.6255   21.4373 F   0  0  0  0  0  0  0  0  0  0  0  0
  1  2  1  0  0  0  0
  1  5  2  0  0  0  0
  2  6  2  0  0  0  0
  3  8  2  0  0  0  0
  3 16  1  0  0  0  0
  4  9  1  0  0  0  0
  4 16  2  0  0  0  0
  5 18  1  0  0  0  0
  6 20  1  0  0  0  0
  7 10  2  0  0  0  0
  7 19  1  0  0  0  0
  8 24  1  0  0  0  0
  9 24  2  0  0  0  0
 10 25  1  0  0  0  0
 11 12  2  0  0  0  0
 11 26  1  0  0  0  0
 12 27  1  0  0  0  0
 13 21  1  0  0  0  0
 13 25  2  0  0  0  0
 14 22  1  0  0  0  0
 14 23  2  0  0  0  0
 15 27  2  0  0  0  0
 15 28  1  0  0  0  0
 16 29  1  0  0  0  0
 17 29  1  0  0  0  0
 17 32  2  0  0  0  0
 17 33  1  0  0  0  0
 18 20  2  0  0  0  0
 18 38  1  0  0  0  0
 19 21  2  0  0  0  0
 19 39  1  0  0  0  0
 20 47  1  0  0  0  0
 21 40  1  0  0  0  0
 22 30  2  0  0  0  0
 22 60  1  0  0  0  0
 23 31  1  0  0  0  0
 23 65  1  0  0  0  0
 24 86  1  0  0  0  0
 25 87  1  0  0  0  0
 26 28  2  0  0  0  0
 26 86  1  0  0  0  0
 27 88  1  0  0  0  0
 28 89  1  0  0  0  0
 29 70  2  0  0  0  0
 30 61  1  0  0  0  0
 30 71  1  0  0  0  0
 31 50  1  0  0  0  0
 31 71  2  0  0  0  0
 32 72  1  0  0  0  0
 32 75  1  0  0  0  0
 33 76  1  0  0  0  0
 33 81  2  0  0  0  0
 34 48  1  0  0  0  0
 34 77  1  0  0  0  0
 34 82  2  0  0  0  0
 35 66  1  0  0  0  0
 35 73  1  0  0  0  0
 35 83  2  0  0  0  0
 36 67  1  0  0  0  0
 36 78  1  0  0  0  0
 36 84  2  0  0  0  0
 37 74  1  0  0  0  0
 37 79  1  0  0  0  0
 37 85  2  0  0  0  0
 38 41  1  0  0  0  0
 39 48  1  0  0  0  0
 40 73  1  0  0  0  0
 41 43  1  0  0  0  0
 42 44  1  0  0  0  0
 42 45  1  0  0  0  0
 43 47  1  0  0  0  0
 44 49  1  0  0  0  0
 45 74  1  0  0  0  0
 46 49  1  0  0  0  0
 46 74  1  0  0  0  0
 47 77  1  0  0  0  0
 48 73  1  0  0  0  0
 49 72  1  0  0  0  0
 51 65  1  0  0  0  0
 52 65  1  0  0  0  0
 53 67  1  0  0  0  0
 54 68  1  0  0  0  0
 55 69  1  0  0  0  0
 56 69  1  0  0  0  0
 57 69  1  0  0  0  0
 58 79  1  0  0  0  0
 59 80  1  0  0  0  0
 60 68  1  0  0  0  0
 61 62  1  0  0  0  0
 62 63  1  0  0  0  0
 63 79  1  0  0  0  0
 64 68  1  0  0  0  0
 64 87  1  0  0  0  0
 66 69  1  0  0  0  0
 66 78  1  0  0  0  0
 67 80  1  0  0  0  0
 70 72  1  0  0  0  0
M  CHG  1  80   1
M  ISO  4  37 100  64 101  79 100  87 101
M  END
> <Batch ID>
0078

> <Smiles>
CNC(C)C(=O)NC(C(=O)N1Cc2cc([101O:1][101CH2:1]C(C)Cc3cc(C(C)C)c(C)nc3CCC[100N:0](C)[100C:0](=O)N3CCCC(n4nc(-c5ccc(Oc6ccc(F)cc6F)cc5)c(C(N)=O)c4N)C3)ccc2CC1C(=O)NC1CCCc2ccccc21)C(C)(C)C

> <Shape>
0.210

> <Color>
0.090

> <Negative vol penalty>
0.000

$$$$

  -OEChem-04052318393D

 85 93  0     1  0  0  0  0  0999 V2000
  -21.5567  -23.6371   21.4128 C   0  0  0  0  0  0  0  0  0  0  0  0
  -22.8712  -23.2603   21.1571 C   0  0  0  0  0  0  0  0  0  0  0  0
  -23.4823  -28.0100   20.4346 C   0  0  0  0  0  0  0  0  0  0  0  0
  -24.7192  -28.3262   22.4857 C   0  0  0  0  0  0  0  0  0  0  0  0
  -20.7228  -22.7972   22.1498 C   0  0  0  0  0  0  0  0  0  0  0  0
  -23.3530  -22.0438   21.6392 C   0  0  0  0  0  0  0  0  0  0  0  0
  -27.4079  -18.3502   18.9150 C   0  0  0  0  0  0  0  0  0  0  0  0
  -22.3110  -28.4070   21.0797 C   0  0  0  0  0  0  0  0  0  0  0  0
  -23.5479  -28.7233   23.1308 C   0  0  0  0  0  0  0  0  0  0  0  0
  -28.7802  -18.1745   19.0872 C   0  0  0  0  0  0  0  0  0  0  0  0
  -20.0425  -27.0461   23.1835 C   0  0  0  0  0  0  0  0  0  0  0  0
  -18.8937  -26.2857   22.9653 C   0  0  0  0  0  0  0  0  0  0  0  0
  -28.3508  -16.3148   20.5625 C   0  0  0  0  0  0  0  0  0  0  0  0
  -17.7789  -28.2295   22.0618 C   0  0  0  0  0  0  0  0  0  0  0  0
  -34.1424  -21.5951   21.3465 C   0  0  0  0  0  0  0  0  0  0  0  0
  -24.6864  -27.9695   21.1376 C   0  0  0  0  0  0  0  0  0  0  0  0
  -26.8140  -28.3821   19.7920 C   0  0  0  0  0  0  0  0  0  0  0  0
  -21.1917  -21.5654   22.6329 C   0  0  0  0  0  0  0  0  0  0  0  0
  -26.4950  -17.5150   19.5750 C   0  0  0  0  0  0  0  0  0  0  0  0
  -22.5250  -21.1873   22.3845 C   0  0  0  0  0  0  0  0  0  0  0  0
  -26.9675  -16.4803   20.3949 C   0  0  0  0  0  0  0  0  0  0  0  0
  -33.7385  -20.6377   22.2447 C   0  0  0  0  0  0  0  0  0  0  0  0
  -22.3438  -28.7637   22.4277 C   0  0  0  0  0  0  0  0  0  0  0  0
  -29.2518  -17.1585   19.9133 C   0  0  0  0  0  0  0  0  0  0  0  0
  -20.0596  -28.3981   22.8409 C   0  0  0  0  0  0  0  0  0  0  0  0
  -17.7619  -26.8774   22.4044 C   0  0  0  0  0  0  0  0  0  0  0  0
  -18.9278  -28.9898   22.2801 C   0  0  0  0  0  0  0  0  0  0  0  0
  -25.8965  -27.5589   20.4720 C   0  0  0  0  0  0  0  0  0  0  0  0
  -33.3103  -21.3685   23.3692 C   0  0  0  0  0  0  0  0  0  0  0  0
  -27.7824  -27.5183   19.3421 C   0  0  0  0  0  0  0  0  0  0  0  0
  -26.7928  -29.8008   19.5856 C   0  0  0  0  0  0  0  0  0  0  0  0
  -24.1991  -17.9594   21.7279 C   0  0  0  0  0  0  0  0  0  0  0  0
  -23.6146  -14.8160   21.1801 C   0  0  0  0  0  0  0  0  0  0  0  0
  -24.7928  -11.7901   20.1302 C   0  0  0  0  0  0  0  0  0  0  0  0
  -31.2258  -23.2063   20.1760 C   0  0  0  0  0  0  0  0  0  0  0  0
  -20.2672  -20.7126   23.4652 C   0  0  0  0  0  0  0  0  0  0  0  0
  -25.0183  -17.7007   19.3576 C   0  0  0  0  0  0  0  0  0  0  0  0
  -26.0293  -15.5438   21.1099 C   0  0  0  0  0  0  0  0  0  0  0  0
  -20.7437  -19.2707   23.6206 C   0  0  0  0  0  0  0  0  0  0  0  0
  -27.8807  -22.4626   19.2097 C   0  0  0  0  0  0  0  0  0  0  0  0
  -22.2260  -19.2339   23.9784 C   0  0  0  0  0  0  0  0  0  0  0  0
  -27.1413  -23.7879   19.4018 C   0  0  0  0  0  0  0  0  0  0  0  0
  -28.9439  -22.2486   20.2848 C   0  0  0  0  0  0  0  0  0  0  0  0
  -29.1698  -24.6794   20.6221 C   0  0  0  0  0  0  0  0  0  0  0  0
  -23.0770  -19.8643   22.8694 C   0  0  1  0  0  0  0  0  0  0  0  0
  -24.1705  -17.1172   20.4838 C   0  0  1  0  0  0  0  0  0  0  0  0
  -28.1257  -24.9659   19.5293 C   0  0  2  0  0  0  0  0  0  0  0  0
  -32.7736  -20.8432   24.6368 C   0  0  0  0  0  0  0  0  0  0  0  0
  -24.0922   -9.3989   19.8324 C   0  0  0  0  0  0  0  0  0  0  0  0
  -23.8349  -14.3789   24.1918 C   0  0  0  0  0  0  0  0  0  0  0  0
  -24.0796  -11.9271   23.7477 C   0  0  0  0  0  0  0  0  0  0  0  0
  -21.9853  -13.1098   23.0860 C   0  0  0  0  0  0  0  0  0  0  0  0
  -33.8755  -25.2682   22.3679 C   0  0  0  0  0  0  0  0  0  0  0  0
  -35.7325  -24.2016   21.1149 C   0  0  0  0  0  0  0  0  0  0  0  0
  -25.2857  -11.8876   17.2137 C   0  0  0  0  0  0  0  0  0  0  0  0
  -33.7555  -19.1417   22.0561 C   0  0  0  0  0  0  0  0  0  0  0  0
  -32.3760  -18.5380   21.7703 C   0  0  0  0  0  0  0  0  0  0  0  0
  -32.4014  -17.0129   21.6585 C   0  0  0  0  0  0  0  0  0  0  0  0
  -33.4447  -24.3140   20.0819 C   0  0  0  0  0  0  0  0  0  0  0  0
  -31.0227  -16.4531   21.3353 C   0  0  0  0  0  0  0  0  0  1  0  0
  -24.1069  -13.5179   21.7730 C   0  0  1  0  0  0  0  0  0  0  0  0
  -24.2181  -10.7628   19.1717 C   0  0  2  0  0  0  0  0  0  0  0  0
  -23.5196  -13.2521   23.1878 C   0  0  0  0  0  0  0  0  0  0  0  0
  -34.2171  -24.0990   21.4120 C   0  0  0  0  0  0  0  0  0  0  0  0
  -26.2503  -26.2710   20.4577 N   0  0  0  0  0  0  0  0  0  0  0  0
  -33.4311  -22.6883   23.2030 N   0  0  0  0  0  0  0  0  0  0  0  0
  -33.9398  -22.7943   21.9637 N   0  0  0  0  0  0  0  0  0  0  0  0
  -27.4008  -26.2784   19.7633 N   0  0  0  0  0  0  0  0  0  0  0  0
  -24.5943  -15.7699   20.8704 N   0  0  0  0  0  0  0  0  0  0  0  0
  -29.8460  -23.4007   20.3533 N   0  0  0  0  0  0  0  0  0  0  0  0
  -28.9146  -27.7059   18.6313 N   0  0  0  0  0  0  0  0  0  0  0  0
  -25.7244  -30.5371   20.1154 N   0  0  0  0  0  0  0  0  0  0  0  0
  -23.2293  -18.9431   21.7637 N   0  0  0  0  0  0  0  0  0  0  0  0
  -23.8008  -12.4801   20.7943 N   0  0  0  0  0  0  0  0  0  0  0  0
  -32.0090  -24.3517   20.2498 N   0  0  0  0  0  0  0  0  0  0  0  0
  -25.0936  -10.6256   17.9735 N   0  3  0  0  0  0  0  0  0  0  0  0
  -27.6860  -30.3955   18.9360 O   0  0  0  0  0  0  0  0  0  0  0  0
  -25.0378  -17.7325   22.5920 O   0  0  0  0  0  0  0  0  0  0  0  0
  -22.4059  -14.9749   20.9919 O   0  0  0  0  0  0  0  0  0  0  0  0
  -26.0010  -11.9605   20.2781 O   0  0  0  0  0  0  0  0  0  0  0  0
  -31.7224  -22.0951   19.9621 O   0  0  0  0  0  0  0  0  0  0  0  0
  -21.2012  -29.1515   23.0575 O   0  0  0  0  0  0  0  0  0  0  0  0
  -30.5908  -16.9852   20.0837 O   0  0  0  0  0  0  0  0  0  1  0  0
  -16.6592  -26.1468   22.1935 F   0  0  0  0  0  0  0  0  0  0  0  0
  -18.9385  -30.2880   21.9478 F   0  0  0  0  0  0  0  0  0  0  0  0
  1  2  1  0  0  0  0
  1  5  2  0  0  0  0
  2  6  2  0  0  0  0
  3  8  2  0  0  0  0
  3 16  1  0  0  0  0
  4  9  1  0  0  0  0
  4 16  2  0  0  0  0
  5 18  1  0  0  0  0
  6 20  1  0  0  0  0
  7 10  2  0  0  0  0
  7 19  1  0  0  0  0
  8 23  1  0  0  0  0
  9 23  2  0  0  0  0
 10 24  1  0  0  0  0
 11 12  2  0  0  0  0
 11 25  1  0  0  0  0
 12 26  1  0  0  0  0
 13 21  1  0  0  0  0
 13 24  2  0  0  0  0
 14 26  2  0  0  0  0
 14 27  1  0  0  0  0
 15 22  2  0  0  0  0
 15 67  1  0  0  0  0
 16 28  1  0  0  0  0
 17 28  1  0  0  0  0
 17 30  2  0  0  0  0
 17 31  1  0  0  0  0
 18 20  2  0  0  0  0
 18 36  1  0  0  0  0
 19 21  2  0  0  0  0
 19 37  1  0  0  0  0
 20 45  1  0  0  0  0
 21 38  1  0  0  0  0
 22 29  1  0  0  0  0
 22 56  1  0  0  0  0
 23 82  1  0  0  0  0
 24 83  1  0  0  0  0
 25 27  2  0  0  0  0
 25 82  1  0  0  0  0
 26 84  1  0  0  0  0
 27 85  1  0  0  0  0
 28 65  2  0  0  0  0
 29 48  1  0  0  0  0
 29 66  2  0  0  0  0
 30 68  1  0  0  0  0
 30 71  1  0  0  0  0
 31 72  1  0  0  0  0
 31 77  2  0  0  0  0
 32 46  1  0  0  0  0
 32 73  1  0  0  0  0
 32 78  2  0  0  0  0
 33 61  1  0  0  0  0
 33 69  1  0  0  0  0
 33 79  2  0  0  0  0
 34 62  1  0  0  0  0
 34 74  1  0  0  0  0
 34 80  2  0  0  0  0
 35 70  1  0  0  0  0
 35 75  1  0  0  0  0
 35 81  2  0  0  0  0
 36 39  1  0  0  0  0
 37 46  1  0  0  0  0
 38 69  1  0  0  0  0
 39 41  1  0  0  0  0
 40 42  1  0  0  0  0
 40 43  1  0  0  0  0
 41 45  1  0  0  0  0
 42 47  1  0  0  0  0
 43 70  1  0  0  0  0
 44 47  1  0  0  0  0
 44 70  1  0  0  0  0
 45 73  1  0  0  0  0
 46 69  1  0  0  0  0
 47 68  1  0  0  0  0
 49 62  1  0  0  0  0
 50 63  1  0  0  0  0
 51 63  1  0  0  0  0
 52 63  1  0  0  0  0
 53 64  1  0  0  0  0
 54 64  1  0  0  0  0
 55 76  1  0  0  0  0
 56 57  1  0  0  0  0
 57 58  1  0  0  0  0
 58 60  1  0  0  0  0
 59 64  1  0  0  0  0
 59 75  1  0  0  0  0
 60 83  1  0  0  0  0
 61 63  1  0  0  0  0
 61 74  1  0  0  0  0
 62 76  1  0  0  0  0
 64 67  1  0  0  0  0
 65 68  1  0  0  0  0
 66 67  1  0  0  0  0
M  CHG  1  76   1
M  ISO  4  35 100  60 101  75 100  83 101
M  END
> <Batch ID>
0078

> <Smiles>
CNC(C)C(=O)NC(C(=O)N1Cc2cc([101O:1][101CH2:1]CCCc3cn(C(C)(C)C[100NH:0][100C:0](=O)N4CCCC(n5nc(-c6ccc(Oc7ccc(F)cc7F)cc6)c(C(N)=O)c5N)C4)nc3C)ccc2CC1C(=O)NC1CCCc2ccccc21)C(C)(C)C

> <Shape>
0.205

> <Color>
0.061

> <Negative vol penalty>
0.000

$$$$

  -OEChem-04052318393D

 80 88  0     1  0  0  0  0  0999 V2000
  -20.2056  -33.9084   23.9262 C   0  0  0  0  0  0  0  0  0  0  0  0
  -21.4996  -33.5179   23.5969 C   0  0  0  0  0  0  0  0  0  0  0  0
  -24.5312  -12.4427   21.8246 C   0  0  0  0  0  0  0  0  0  0  0  0
  -25.2059  -12.1967   19.5179 C   0  0  0  0  0  0  0  0  0  0  0  0
  -19.2400  -32.9448   24.2146 C   0  0  0  0  0  0  0  0  0  0  0  0
  -21.8291  -32.1636   23.5568 C   0  0  0  0  0  0  0  0  0  0  0  0
  -25.7696  -29.4447   19.7377 C   0  0  0  0  0  0  0  0  0  0  0  0
  -23.7689  -11.2788   21.7258 C   0  0  0  0  0  0  0  0  0  0  0  0
  -24.4436  -11.0327   19.4190 C   0  0  0  0  0  0  0  0  0  0  0  0
  -27.1009  -29.0569   19.8832 C   0  0  0  0  0  0  0  0  0  0  0  0
  -24.3028   -7.9402   21.7688 C   0  0  0  0  0  0  0  0  0  0  0  0
  -24.3957   -7.0143   22.8078 C   0  0  0  0  0  0  0  0  0  0  0  0
  -26.3828  -26.8229   20.4423 C   0  0  0  0  0  0  0  0  0  0  0  0
  -22.0276   -7.2463   23.2264 C   0  0  0  0  0  0  0  0  0  0  0  0
  -28.4862  -22.6746   16.3632 C   0  0  0  0  0  0  0  0  0  0  0  0
  -30.3054  -23.9663   16.8647 C   0  0  0  0  0  0  0  0  0  0  0  0
  -25.2497  -12.9017   20.7206 C   0  0  0  0  0  0  0  0  0  0  0  0
  -27.3875  -14.2063   21.2059 C   0  0  0  0  0  0  0  0  0  0  0  0
  -19.5554  -31.5777   24.1687 C   0  0  0  0  0  0  0  0  0  0  0  0
  -24.7329  -28.5257   19.9544 C   0  0  0  0  0  0  0  0  0  0  0  0
  -20.8672  -31.1809   23.8463 C   0  0  0  0  0  0  0  0  0  0  0  0
  -25.0393  -27.2008   20.2964 C   0  0  0  0  0  0  0  0  0  0  0  0
  -23.7251  -10.5738   20.5230 C   0  0  0  0  0  0  0  0  0  0  0  0
  -27.4076  -27.7466   20.2384 C   0  0  0  0  0  0  0  0  0  0  0  0
  -23.0723   -8.5193   21.4586 C   0  0  0  0  0  0  0  0  0  0  0  0
  -23.2582   -6.6673   23.5366 C   0  0  0  0  0  0  0  0  0  0  0  0
  -21.9347   -8.1724   22.1874 C   0  0  0  0  0  0  0  0  0  0  0  0
  -26.0369  -14.1042   20.8220 C   0  0  0  0  0  0  0  0  0  0  0  0
  -28.2052  -22.5491   17.7059 C   0  0  0  0  0  0  0  0  0  0  0  0
  -30.0241  -23.8415   18.2074 C   0  0  0  0  0  0  0  0  0  0  0  0
  -27.6619  -15.5506   21.1419 C   0  0  0  0  0  0  0  0  0  0  0  0
  -28.3113  -13.1780   21.5863 C   0  0  0  0  0  0  0  0  0  0  0  0
  -22.3042  -28.3240   21.9952 C   0  0  0  0  0  0  0  0  0  0  0  0
  -27.3887  -20.3096   18.3932 C   0  0  0  0  0  0  0  0  0  0  0  0
  -21.4979  -25.7611   20.1777 C   0  0  0  0  0  0  0  0  0  0  0  0
  -22.4951  -23.3037   18.0297 C   0  0  0  0  0  0  0  0  0  0  0  0
  -18.4904  -30.5744   24.5345 C   0  0  0  0  0  0  0  0  0  0  0  0
  -23.3028  -28.9528   19.7673 C   0  0  0  0  0  0  0  0  0  0  0  0
  -23.9637  -26.1705   20.5204 C   0  0  0  0  0  0  0  0  0  0  0  0
  -18.8236  -29.1482   24.1042 C   0  0  0  0  0  0  0  0  0  0  0  0
  -24.5952  -19.5245   20.5856 C   0  0  0  0  0  0  0  0  0  0  0  0
  -20.2599  -28.7987   24.4806 C   0  0  0  0  0  0  0  0  0  0  0  0
  -24.8217  -18.0363   20.8483 C   0  0  0  0  0  0  0  0  0  0  0  0
  -24.9998  -19.9117   19.1656 C   0  0  0  0  0  0  0  0  0  0  0  0
  -26.6344  -18.0556   19.0801 C   0  0  0  0  0  0  0  0  0  0  0  0
  -21.2568  -29.7206   23.7681 C   0  0  1  0  0  0  0  0  0  0  0  0
  -22.3117  -28.0661   20.5150 C   0  0  1  0  0  0  0  0  0  0  0  0
  -26.2671  -17.6301   20.5115 C   0  0  2  0  0  0  0  0  0  0  0  0
  -21.6173  -21.3356   16.7439 C   0  0  0  0  0  0  0  0  0  0  0  0
  -21.4137  -24.1215   22.7496 C   0  0  0  0  0  0  0  0  0  0  0  0
  -21.4814  -22.0482   21.3477 C   0  0  0  0  0  0  0  0  0  0  0  0
  -19.5647  -23.6309   21.1387 C   0  0  0  0  0  0  0  0  0  0  0  0
  -23.2491  -24.5143   15.4364 C   0  0  0  0  0  0  0  0  0  0  0  0
  -27.0307  -21.7560   18.1616 C   0  0  0  0  0  0  0  0  0  0  0  0
  -30.9005  -24.5063   19.2386 C   0  0  0  0  0  0  0  0  0  0  0  0
  -30.4589  -25.9263   19.5992 C   0  0  0  0  0  0  0  0  0  0  0  0
  -29.0190  -26.0036   20.0934 C   0  0  0  0  0  0  0  0  0  1  0  0
  -21.8210  -24.2867   20.2054 C   0  0  1  0  0  0  0  0  0  0  0  0
  -21.9194  -22.8257   16.7089 C   0  0  2  0  0  0  0  0  0  0  0  0
  -21.0906  -23.5415   21.3581 C   0  0  0  0  0  0  0  0  0  0  0  0
  -29.5414  -23.3855   15.9185 N   0  0  0  0  0  0  0  0  0  0  0  0
  -25.4913  -15.2892   20.5355 N   0  0  0  0  0  0  0  0  0  0  0  0
  -28.9690  -23.1303   18.6521 N   0  0  0  0  0  0  0  0  0  0  0  0
  -26.5040  -16.1487   20.7396 N   0  0  0  0  0  0  0  0  0  0  0  0
  -22.5806  -26.6385   20.3316 N   0  0  0  0  0  0  0  0  0  0  0  0
  -26.3732  -19.4832   18.8748 N   0  0  0  0  0  0  0  0  0  0  0  0
  -28.7782  -16.2676   21.3912 N   0  0  0  0  0  0  0  0  0  0  0  0
  -27.8647  -11.8496   21.5981 N   0  0  0  0  0  0  0  0  0  0  0  0
  -21.4246  -29.3142   22.3893 N   0  0  0  0  0  0  0  0  0  0  0  0
  -21.5127  -23.7761   18.8740 N   0  0  0  0  0  0  0  0  0  0  0  0
  -22.8815  -23.0843   15.6005 N   0  3  0  0  0  0  0  0  0  0  0  0
  -29.4931  -13.4314   21.9220 O   0  0  0  0  0  0  0  0  0  0  0  0
  -23.0408  -27.6718   22.7258 O   0  0  0  0  0  0  0  0  0  0  0  0
  -28.5376  -19.9283   18.1552 O   0  0  0  0  0  0  0  0  0  0  0  0
  -20.3289  -26.1211   20.0179 O   0  0  0  0  0  0  0  0  0  0  0  0
  -23.6959  -23.2589   18.2880 O   0  0  0  0  0  0  0  0  0  0  0  0
  -22.9815   -9.4379   20.4263 O   0  0  0  0  0  0  0  0  0  0  0  0
  -28.7061  -27.3657   20.3817 O   0  0  0  0  0  0  0  0  0  1  0  0
  -23.3473   -5.7769   24.5333 F   0  0  0  0  0  0  0  0  0  0  0  0
  -20.7496   -8.7245   21.8933 F   0  0  0  0  0  0  0  0  0  0  0  0
  1  2  1  0  0  0  0
  1  5  2  0  0  0  0
  2  6  2  0  0  0  0
  3  8  2  0  0  0  0
  3 17  1  0  0  0  0
  4  9  1  0  0  0  0
  4 17  2  0  0  0  0
  5 19  1  0  0  0  0
  6 21  1  0  0  0  0
  7 10  2  0  0  0  0
  7 20  1  0  0  0  0
  8 23  1  0  0  0  0
  9 23  2  0  0  0  0
 10 24  1  0  0  0  0
 11 12  2  0  0  0  0
 11 25  1  0  0  0  0
 12 26  1  0  0  0  0
 13 22  1  0  0  0  0
 13 24  2  0  0  0  0
 14 26  2  0  0  0  0
 14 27  1  0  0  0  0
 15 29  2  0  0  0  0
 15 61  1  0  0  0  0
 16 30  1  0  0  0  0
 16 61  2  0  0  0  0
 17 28  1  0  0  0  0
 18 28  1  0  0  0  0
 18 31  2  0  0  0  0
 18 32  1  0  0  0  0
 19 21  2  0  0  0  0
 19 37  1  0  0  0  0
 20 22  2  0  0  0  0
 20 38  1  0  0  0  0
 21 46  1  0  0  0  0
 22 39  1  0  0  0  0
 23 77  1  0  0  0  0
 24 78  1  0  0  0  0
 25 27  2  0  0  0  0
 25 77  1  0  0  0  0
 26 79  1  0  0  0  0
 27 80  1  0  0  0  0
 28 62  2  0  0  0  0
 29 54  1  0  0  0  0
 29 63  1  0  0  0  0
 30 55  1  0  0  0  0
 30 63  2  0  0  0  0
 31 64  1  0  0  0  0
 31 67  1  0  0  0  0
 32 68  1  0  0  0  0
 32 72  2  0  0  0  0
 33 47  1  0  0  0  0
 33 69  1  0  0  0  0
 33 73  2  0  0  0  0
 34 54  1  0  0  0  0
 34 66  1  0  0  0  0
 34 74  2  0  0  0  0
 35 58  1  0  0  0  0
 35 65  1  0  0  0  0
 35 75  2  0  0  0  0
 36 59  1  0  0  0  0
 36 70  1  0  0  0  0
 36 76  2  0  0  0  0
 37 40  1  0  0  0  0
 38 47  1  0  0  0  0
 39 65  1  0  0  0  0
 40 42  1  0  0  0  0
 41 43  1  0  0  0  0
 41 44  1  0  0  0  0
 42 46  1  0  0  0  0
 43 48  1  0  0  0  0
 44 66  1  0  0  0  0
 45 48  1  0  0  0  0
 45 66  1  0  0  0  0
 46 69  1  0  0  0  0
 47 65  1  0  0  0  0
 48 64  1  0  0  0  0
 49 59  1  0  0  0  0
 50 60  1  0  0  0  0
 51 60  1  0  0  0  0
 52 60  1  0  0  0  0
 53 71  1  0  0  0  0
 55 56  1  0  0  0  0
 56 57  1  0  0  0  0
 57 78  1  0  0  0  0
 58 60  1  0  0  0  0
 58 70  1  0  0  0  0
 59 71  1  0  0  0  0
 62 64  1  0  0  0  0
M  CHG  1  71   1
M  ISO  4  34 100  54 100  57 101  78 101
M  END
> <Batch ID>
0078

> <Smiles>
CNC(C)C(=O)NC(C(=O)N1Cc2cc([101O:1][101CH2:1]CCc3cncc([100CH2:0][100C:0](=O)N4CCCC(n5nc(-c6ccc(Oc7ccc(F)cc7F)cc6)c(C(N)=O)c5N)C4)n3)ccc2CC1C(=O)NC1CCCc2ccccc21)C(C)(C)C

> <Shape>
0.241

> <Color>
0.097

> <Negative vol penalty>
0.000

$$$$

  -OEChem-04052318393D

 83 91  0     1  0  0  0  0  0999 V2000
  -23.7438   -7.8938   21.2324 C   0  0  0  0  0  0  0  0  0  0  0  0
  -24.2353   -8.9256   20.4391 C   0  0  0  0  0  0  0  0  0  0  0  0
  -23.7767  -28.6249   23.3405 C   0  0  0  0  0  0  0  0  0  0  0  0
  -25.1074  -29.7390   21.6597 C   0  0  0  0  0  0  0  0  0  0  0  0
  -22.6163   -8.1024   22.0255 C   0  0  0  0  0  0  0  0  0  0  0  0
  -23.5988  -10.1663   20.4377 C   0  0  0  0  0  0  0  0  0  0  0  0
  -26.8647  -14.0255   20.7296 C   0  0  0  0  0  0  0  0  0  0  0  0
  -23.3583  -29.8624   23.8295 C   0  0  0  0  0  0  0  0  0  0  0  0
  -24.6890  -30.9765   22.1486 C   0  0  0  0  0  0  0  0  0  0  0  0
  -27.5394  -14.3784   19.5617 C   0  0  0  0  0  0  0  0  0  0  0  0
  -24.2554  -34.4343   23.1807 C   0  0  0  0  0  0  0  0  0  0  0  0
  -25.2218  -35.4265   23.3462 C   0  0  0  0  0  0  0  0  0  0  0  0
  -25.9913  -16.1975   19.2242 C   0  0  0  0  0  0  0  0  0  0  0  0
  -26.4092  -34.0104   24.9024 C   0  0  0  0  0  0  0  0  0  0  0  0
  -31.0890  -19.2985   18.4649 C   0  0  0  0  0  0  0  0  0  0  0  0
  -24.6513  -28.5632   22.2556 C   0  0  0  0  0  0  0  0  0  0  0  0
  -24.4659  -26.5132   20.7487 C   0  0  0  0  0  0  0  0  0  0  0  0
  -21.9714   -9.3491   22.0412 C   0  0  0  0  0  0  0  0  0  0  0  0
  -25.7398  -14.7505   21.1485 C   0  0  0  0  0  0  0  0  0  0  0  0
  -22.4608  -10.3913   21.2308 C   0  0  0  0  0  0  0  0  0  0  0  0
  -25.3057  -15.8533   20.3992 C   0  0  0  0  0  0  0  0  0  0  0  0
  -23.8144  -31.0382   23.2335 C   0  0  0  0  0  0  0  0  0  0  0  0
  -27.1010  -15.4627   18.8072 C   0  0  0  0  0  0  0  0  0  0  0  0
  -24.3659  -33.2302   23.8762 C   0  0  0  0  0  0  0  0  0  0  0  0
  -26.2987  -35.2146   24.2070 C   0  0  0  0  0  0  0  0  0  0  0  0
  -25.4428  -33.0183   24.7370 C   0  0  0  0  0  0  0  0  0  0  0  0
  -25.0844  -27.2852   21.7504 C   0  0  0  0  0  0  0  0  0  0  0  0
  -30.4392  -18.0845   18.5554 C   0  0  0  0  0  0  0  0  0  0  0  0
  -31.1777  -20.0172   19.6395 C   0  0  0  0  0  0  0  0  0  0  0  0
  -25.2592  -25.3976   20.6362 C   0  0  0  0  0  0  0  0  0  0  0  0
  -30.0643  -18.3936   20.7759 C   0  0  0  0  0  0  0  0  0  0  0  0
  -23.2804  -26.7806   19.9880 C   0  0  0  0  0  0  0  0  0  0  0  0
  -22.6724  -14.0602   21.6151 C   0  0  0  0  0  0  0  0  0  0  0  0
  -22.5674  -17.0915   22.7650 C   0  0  0  0  0  0  0  0  0  0  0  0
  -23.9271  -20.2213   22.8112 C   0  0  0  0  0  0  0  0  0  0  0  0
  -30.2086  -23.1056   20.1917 C   0  0  0  0  0  0  0  0  0  0  0  0
  -20.7278   -9.5127   22.8787 C   0  0  0  0  0  0  0  0  0  0  0  0
  -25.0392  -14.3735   22.4250 C   0  0  0  0  0  0  0  0  0  0  0  0
  -24.1156  -16.6766   20.8165 C   0  0  0  0  0  0  0  0  0  0  0  0
  -20.3334  -10.9699   23.1055 C   0  0  0  0  0  0  0  0  0  0  0  0
  -29.0388  -23.7341   23.5583 C   0  0  0  0  0  0  0  0  0  0  0  0
  -20.3907  -11.7485   21.7951 C   0  0  0  0  0  0  0  0  0  0  0  0
  -27.8465  -24.6568   23.2987 C   0  0  0  0  0  0  0  0  0  0  0  0
  -30.1821  -24.0225   22.5898 C   0  0  0  0  0  0  0  0  0  0  0  0
  -28.6125  -24.8689   20.8887 C   0  0  0  0  0  0  0  0  0  0  0  0
  -21.8126  -11.7588   21.2211 C   0  0  1  0  0  0  0  0  0  0  0  0
  -23.5967  -14.8665   22.4829 C   0  0  1  0  0  0  0  0  0  0  0  0
  -27.4147  -24.6120   21.8210 C   0  0  2  0  0  0  0  0  0  0  0  0
  -29.4987  -17.8900   22.0606 C   0  0  0  0  0  0  0  0  0  0  0  0
  -33.3690  -21.2325   19.9272 C   0  0  0  0  0  0  0  0  0  0  0  0
  -23.5989  -22.4970   23.8166 C   0  0  0  0  0  0  0  0  0  0  0  0
  -20.2695  -17.6138   20.8267 C   0  0  0  0  0  0  0  0  0  0  0  0
  -20.6211  -20.0673   21.1802 C   0  0  0  0  0  0  0  0  0  0  0  0
  -19.9655  -18.6138   23.0986 C   0  0  0  0  0  0  0  0  0  0  0  0
  -26.5560  -20.1288   24.1674 C   0  0  0  0  0  0  0  0  0  0  0  0
  -30.2929  -17.2264   17.3242 C   0  0  0  0  0  0  0  0  0  0  0  0
  -29.0162  -17.5045   16.5278 C   0  0  0  0  0  0  0  0  0  0  0  0
  -27.7413  -17.1883   17.3011 C   0  0  0  0  0  0  0  0  0  1  0  0
  -31.8646  -21.3418   19.6407 C   0  0  2  0  0  0  0  0  0  0  0  0
  -22.3103  -18.4535   22.1668 C   0  0  1  0  0  0  0  0  0  0  0  0
  -24.2848  -21.1473   23.9597 C   0  0  2  0  0  0  0  0  0  0  0  0
  -20.8129  -18.6706   21.8089 C   0  0  0  0  0  0  0  0  0  0  0  0
  -26.1856  -26.7088   22.2394 N   0  0  0  0  0  0  0  0  0  0  0  0
  -29.9129  -17.5994   19.6990 N   0  0  0  0  0  0  0  0  0  0  0  0
  -30.6745  -19.5934   20.8175 N   0  0  0  0  0  0  0  0  0  0  0  0
  -26.2652  -25.5626   21.5422 N   0  0  0  0  0  0  0  0  0  0  0  0
  -23.4601  -16.2644   22.0687 N   0  0  0  0  0  0  0  0  0  0  0  0
  -29.7088  -23.9458   21.2005 N   0  0  0  0  0  0  0  0  0  0  0  0
  -25.1873  -24.3013   19.8516 N   0  0  0  0  0  0  0  0  0  0  0  0
  -22.5861  -27.9737   20.2302 N   0  0  0  0  0  0  0  0  0  0  0  0
  -22.6366  -12.7149   21.9291 N   0  0  0  0  0  0  0  0  0  0  0  0
  -22.8445  -19.4238   23.1163 N   0  0  0  0  0  0  0  0  0  0  0  0
  -31.2509  -22.2670   20.5672 N   0  0  0  0  0  0  0  0  0  0  0  0
  -25.7575  -21.3710   24.0053 N   0  3  0  0  0  0  0  0  0  0  0  0
  -22.8404  -25.9774   19.1308 O   0  0  0  0  0  0  0  0  0  0  0  0
  -22.0375  -14.6174   20.7274 O   0  0  0  0  0  0  0  0  0  0  0  0
  -22.0026  -16.7759   23.8152 O   0  0  0  0  0  0  0  0  0  0  0  0
  -24.5439  -20.2095   21.7482 O   0  0  0  0  0  0  0  0  0  0  0  0
  -29.7555  -23.0991   19.0420 O   0  0  0  0  0  0  0  0  0  0  0  0
  -23.4061  -32.2459   23.7103 O   0  0  0  0  0  0  0  0  0  0  0  0
  -27.7573  -15.8089   17.6665 O   0  0  0  0  0  0  0  0  0  1  0  0
  -27.2274  -36.1668   24.3645 F   0  0  0  0  0  0  0  0  0  0  0  0
  -25.5549  -31.8631   25.4069 F   0  0  0  0  0  0  0  0  0  0  0  0
  1  2  1  0  0  0  0
  1  5  2  0  0  0  0
  2  6  2  0  0  0  0
  3  8  2  0  0  0  0
  3 16  1  0  0  0  0
  4  9  1  0  0  0  0
  4 16  2  0  0  0  0
  5 18  1  0  0  0  0
  6 20  1  0  0  0  0
  7 10  2  0  0  0  0
  7 19  1  0  0  0  0
  8 22  1  0  0  0  0
  9 22  2  0  0  0  0
 10 23  1  0  0  0  0
 11 12  2  0  0  0  0
 11 24  1  0  0  0  0
 12 25  1  0  0  0  0
 13 21  1  0  0  0  0
 13 23  2  0  0  0  0
 14 25  2  0  0  0  0
 14 26  1  0  0  0  0
 15 28  1  0  0  0  0
 15 29  2  0  0  0  0
 16 27  1  0  0  0  0
 17 27  1  0  0  0  0
 17 30  2  0  0  0  0
 17 32  1  0  0  0  0
 18 20  2  0  0  0  0
 18 37  1  0  0  0  0
 19 21  2  0  0  0  0
 19 38  1  0  0  0  0
 20 46  1  0  0  0  0
 21 39  1  0  0  0  0
 22 80  1  0  0  0  0
 23 81  1  0  0  0  0
 24 26  2  0  0  0  0
 24 80  1  0  0  0  0
 25 82  1  0  0  0  0
 26 83  1  0  0  0  0
 27 63  2  0  0  0  0
 28 56  1  0  0  0  0
 28 64  2  0  0  0  0
 29 59  1  0  0  0  0
 29 65  1  0  0  0  0
 30 66  1  0  0  0  0
 30 69  1  0  0  0  0
 31 49  1  0  0  0  0
 31 64  1  0  0  0  0
 31 65  2  0  0  0  0
 32 70  1  0  0  0  0
 32 75  2  0  0  0  0
 33 47  1  0  0  0  0
 33 71  1  0  0  0  0
 33 76  2  0  0  0  0
 34 60  1  0  0  0  0
 34 67  1  0  0  0  0
 34 77  2  0  0  0  0
 35 61  1  0  0  0  0
 35 72  1  0  0  0  0
 35 78  2  0  0  0  0
 36 68  1  0  0  0  0
 36 73  1  0  0  0  0
 36 79  2  0  0  0  0
 37 40  1  0  0  0  0
 38 47  1  0  0  0  0
 39 67  1  0  0  0  0
 40 42  1  0  0  0  0
 41 43  1  0  0  0  0
 41 44  1  0  0  0  0
 42 46  1  0  0  0  0
 43 48  1  0  0  0  0
 44 68  1  0  0  0  0
 45 48  1  0  0  0  0
 45 68  1  0  0  0  0
 46 71  1  0  0  0  0
 47 67  1  0  0  0  0
 48 66  1  0  0  0  0
 50 59  1  0  0  0  0
 51 61  1  0  0  0  0
 52 62  1  0  0  0  0
 53 62  1  0  0  0  0
 54 62  1  0  0  0  0
 55 74  1  0  0  0  0
 56 57  1  0  0  0  0
 57 58  1  0  0  0  0
 58 81  1  0  0  0  0
 59 73  1  0  0  0  0
 60 62  1  0  0  0  0
 60 72  1  0  0  0  0
 61 74  1  0  0  0  0
 63 66  1  0  0  0  0
M  CHG  1  74   1
M  ISO  4  36 100  58 101  73 100  81 101
M  END
> <Batch ID>
0078

> <Smiles>
CNC(C)C(=O)NC(C(=O)N1Cc2cc([101O:1][101CH2:1]CCc3cc(C(C)[100NH:0][100C:0](=O)N4CCCC(n5nc(-c6ccc(Oc7ccc(F)cc7F)cc6)c(C(N)=O)c5N)C4)nc(C)n3)ccc2CC1C(=O)NC1CCCc2ccccc21)C(C)(C)C

> <Shape>
0.205

> <Color>
0.097

> <Negative vol penalty>
0.000

$$$$

  -OEChem-04052318393D

 82 90  0     1  0  0  0  0  0999 V2000
  -35.3205  -25.2128   12.4965 C   0  0  0  0  0  0  0  0  0  0  0  0
  -35.0348  -24.2345   13.4434 C   0  0  0  0  0  0  0  0  0  0  0  0
  -28.5974  -15.4665   25.8717 C   0  0  0  0  0  0  0  0  0  0  0  0
  -23.2910   -9.7966   19.9137 C   0  0  0  0  0  0  0  0  0  0  0  0
  -23.7428   -9.9385   22.2828 C   0  0  0  0  0  0  0  0  0  0  0  0
  -35.7998  -26.4570   12.9041 C   0  0  0  0  0  0  0  0  0  0  0  0
  -35.2292  -24.4995   14.7985 C   0  0  0  0  0  0  0  0  0  0  0  0
  -31.3593  -22.9257   17.6606 C   0  0  0  0  0  0  0  0  0  0  0  0
  -22.5674   -8.6225   20.1220 C   0  0  0  0  0  0  0  0  0  0  0  0
  -23.0191   -8.7644   22.4911 C   0  0  0  0  0  0  0  0  0  0  0  0
  -31.2904  -21.5624   17.9444 C   0  0  0  0  0  0  0  0  0  0  0  0
  -19.7742   -7.8462   22.7104 C   0  0  0  0  0  0  0  0  0  0  0  0
  -18.8725   -7.8226   23.7743 C   0  0  0  0  0  0  0  0  0  0  0  0
  -28.3837  -16.0839   24.6146 C   0  0  0  0  0  0  0  0  0  0  0  0
  -32.2498  -21.9729   20.1193 C   0  0  0  0  0  0  0  0  0  0  0  0
  -20.0829   -5.9782   24.7593 C   0  0  0  0  0  0  0  0  0  0  0  0
  -29.8359  -14.8652   25.8294 C   0  0  0  0  0  0  0  0  0  0  0  0
  -23.8788  -10.4546   20.9941 C   0  0  0  0  0  0  0  0  0  0  0  0
  -24.1325  -12.9852   20.7951 C   0  0  0  0  0  0  0  0  0  0  0  0
  -35.9910  -26.7407   14.2656 C   0  0  0  0  0  0  0  0  0  0  0  0
  -31.8849  -23.8229   18.6014 C   0  0  0  0  0  0  0  0  0  0  0  0
  -35.7128  -25.7482   15.2247 C   0  0  0  0  0  0  0  0  0  0  0  0
  -32.3219  -23.3474   19.8460 C   0  0  0  0  0  0  0  0  0  0  0  0
  -22.4314   -8.1064   21.4107 C   0  0  0  0  0  0  0  0  0  0  0  0
  -31.7384  -21.0855   19.1728 C   0  0  0  0  0  0  0  0  0  0  0  0
  -20.8303   -6.9357   22.6709 C   0  0  0  0  0  0  0  0  0  0  0  0
  -19.0268   -6.8887   24.7988 C   0  0  0  0  0  0  0  0  0  0  0  0
  -20.9846   -6.0017   23.6953 C   0  0  0  0  0  0  0  0  0  0  0  0
  -24.6269  -11.6672   20.7795 C   0  0  0  0  0  0  0  0  0  0  0  0
  -29.4982  -15.8410   23.8424 C   0  0  0  0  0  0  0  0  0  0  0  0
  -25.2321  -13.7675   20.5394 C   0  0  0  0  0  0  0  0  0  0  0  0
  -22.7985  -13.4598   21.0206 C   0  0  0  0  0  0  0  0  0  0  0  0
  -34.3672  -25.8073   18.6654 C   0  0  0  0  0  0  0  0  0  0  0  0
  -33.0715  -26.7148   21.4973 C   0  0  0  0  0  0  0  0  0  0  0  0
  -31.0911  -25.9263   24.1625 C   0  0  0  0  0  0  0  0  0  0  0  0
  -31.1054  -12.9375   21.3558 C   0  0  0  0  0  0  0  0  0  0  0  0
  -36.5559  -28.0839   14.6549 C   0  0  0  0  0  0  0  0  0  0  0  0
  -31.9276  -25.2939   18.2902 C   0  0  0  0  0  0  0  0  0  0  0  0
  -32.8759  -24.2719   20.8981 C   0  0  0  0  0  0  0  0  0  0  0  0
  -36.3792  -28.4132   16.1349 C   0  0  0  0  0  0  0  0  0  0  0  0
  -29.4531  -13.6730   18.2889 C   0  0  0  0  0  0  0  0  0  0  0  0
  -36.7769  -27.2203   16.9984 C   0  0  0  0  0  0  0  0  0  0  0  0
  -27.9843  -13.3612   18.5808 C   0  0  0  0  0  0  0  0  0  0  0  0
  -30.3890  -12.6957   18.9968 C   0  0  0  0  0  0  0  0  0  0  0  0
  -28.7043  -12.2628   20.7427 C   0  0  0  0  0  0  0  0  0  0  0  0
  -35.8872  -26.0062   16.7056 C   0  0  1  0  0  0  0  0  0  0  0  0
  -32.9570  -26.0512   19.1233 C   0  0  1  0  0  0  0  0  0  0  0  0
  -27.7237  -13.2558   20.0955 C   0  0  2  0  0  0  0  0  0  0  0  0
  -30.2532  -26.8562   26.3375 C   0  0  0  0  0  0  0  0  0  0  0  0
  -35.7932  -26.1837   22.7701 C   0  0  0  0  0  0  0  0  0  0  0  0
  -34.6720  -26.2002   25.0085 C   0  0  0  0  0  0  0  0  0  0  0  0
  -34.6450  -28.2498   23.5869 C   0  0  0  0  0  0  0  0  0  0  0  0
  -28.2715  -25.7692   23.2769 C   0  0  0  0  0  0  0  0  0  0  0  0
  -29.8049  -16.2626   22.4274 C   0  0  0  0  0  0  0  0  0  0  0  0
  -30.5198  -17.6145   22.3254 C   0  0  0  0  0  0  0  0  0  0  0  0
  -30.7532  -18.0609   20.8814 C   0  0  0  0  0  0  0  0  0  0  0  0
  -31.6710  -14.6274   24.1579 C   0  0  0  0  0  0  0  0  0  0  0  0
  -31.6681  -13.1528   23.7633 C   0  0  0  0  0  0  0  0  0  0  0  0
  -31.4998  -19.3865   20.8198 C   0  0  0  0  0  0  0  0  0  1  0  0
  -33.2179  -26.2683   22.9320 C   0  0  1  0  0  0  0  0  0  0  0  0
  -29.9765  -26.6932   24.8510 C   0  0  2  0  0  0  0  0  0  0  0  0
  -34.5734  -26.7076   23.5540 C   0  0  0  0  0  0  0  0  0  0  0  0
  -25.9385  -11.6114   20.5332 N   0  0  0  0  0  0  0  0  0  0  0  0
  -30.3741  -15.0991   24.5910 N   0  0  0  0  0  0  0  0  0  0  0  0
  -26.2775  -12.9041   20.3916 N   0  0  0  0  0  0  0  0  0  0  0  0
  -32.9028  -25.7007   20.5440 N   0  0  0  0  0  0  0  0  0  0  0  0
  -30.0906  -12.6438   20.4301 N   0  0  0  0  0  0  0  0  0  0  0  0
  -25.3970  -15.1027   20.4287 N   0  0  0  0  0  0  0  0  0  0  0  0
  -21.7881  -12.5207   21.2687 N   0  0  0  0  0  0  0  0  0  0  0  0
  -34.5994  -26.1564   17.3487 N   0  0  0  0  0  0  0  0  0  0  0  0
  -32.0451  -26.7726   23.6381 N   0  0  0  0  0  0  0  0  0  0  0  0
  -30.7366  -12.8713   22.6938 N   0  0  0  0  0  0  0  0  0  0  0  0
  -28.6792  -25.9776   24.6902 N   0  3  0  0  0  0  0  0  0  0  0  0
  -22.5079  -14.6796   20.9863 O   0  0  0  0  0  0  0  0  0  0  0  0
  -35.1844  -25.3386   19.4491 O   0  0  0  0  0  0  0  0  0  0  0  0
  -33.0984  -27.9194   21.2332 O   0  0  0  0  0  0  0  0  0  0  0  0
  -31.1150  -24.6991   24.0996 O   0  0  0  0  0  0  0  0  0  0  0  0
  -32.2535  -13.2418   21.0150 O   0  0  0  0  0  0  0  0  0  0  0  0
  -21.7251   -6.9609   21.6143 O   0  0  0  0  0  0  0  0  0  0  0  0
  -31.6729  -19.7552   19.4522 O   0  0  0  0  0  0  0  0  0  1  0  0
  -18.1617   -6.8672   25.8212 F   0  0  0  0  0  0  0  0  0  0  0  0
  -21.9979   -5.1253   23.6635 F   0  0  0  0  0  0  0  0  0  0  0  0
  1  2  1  0  0  0  0
  1  6  2  0  0  0  0
  2  7  2  0  0  0  0
  3 14  1  0  0  0  0
  3 17  2  0  0  0  0
  4  9  2  0  0  0  0
  4 18  1  0  0  0  0
  5 10  1  0  0  0  0
  5 18  2  0  0  0  0
  6 20  1  0  0  0  0
  7 22  1  0  0  0  0
  8 11  2  0  0  0  0
  8 21  1  0  0  0  0
  9 24  1  0  0  0  0
 10 24  2  0  0  0  0
 11 25  1  0  0  0  0
 12 13  2  0  0  0  0
 12 26  1  0  0  0  0
 13 27  1  0  0  0  0
 14 30  2  0  0  0  0
 15 23  1  0  0  0  0
 15 25  2  0  0  0  0
 16 27  2  0  0  0  0
 16 28  1  0  0  0  0
 17 64  1  0  0  0  0
 18 29  1  0  0  0  0
 19 29  1  0  0  0  0
 19 31  2  0  0  0  0
 19 32  1  0  0  0  0
 20 22  2  0  0  0  0
 20 37  1  0  0  0  0
 21 23  2  0  0  0  0
 21 38  1  0  0  0  0
 22 46  1  0  0  0  0
 23 39  1  0  0  0  0
 24 79  1  0  0  0  0
 25 80  1  0  0  0  0
 26 28  2  0  0  0  0
 26 79  1  0  0  0  0
 27 81  1  0  0  0  0
 28 82  1  0  0  0  0
 29 63  2  0  0  0  0
 30 54  1  0  0  0  0
 30 64  1  0  0  0  0
 31 65  1  0  0  0  0
 31 68  1  0  0  0  0
 32 69  1  0  0  0  0
 32 74  2  0  0  0  0
 33 47  1  0  0  0  0
 33 70  1  0  0  0  0
 33 75  2  0  0  0  0
 34 60  1  0  0  0  0
 34 66  1  0  0  0  0
 34 76  2  0  0  0  0
 35 61  1  0  0  0  0
 35 71  1  0  0  0  0
 35 77  2  0  0  0  0
 36 67  1  0  0  0  0
 36 72  1  0  0  0  0
 36 78  2  0  0  0  0
 37 40  1  0  0  0  0
 38 47  1  0  0  0  0
 39 66  1  0  0  0  0
 40 42  1  0  0  0  0
 41 43  1  0  0  0  0
 41 44  1  0  0  0  0
 42 46  1  0  0  0  0
 43 48  1  0  0  0  0
 44 67  1  0  0  0  0
 45 48  1  0  0  0  0
 45 67  1  0  0  0  0
 46 70  1  0  0  0  0
 47 66  1  0  0  0  0
 48 65  1  0  0  0  0
 49 61  1  0  0  0  0
 50 62  1  0  0  0  0
 51 62  1  0  0  0  0
 52 62  1  0  0  0  0
 53 73  1  0  0  0  0
 54 55  1  0  0  0  0
 55 56  1  0  0  0  0
 56 59  1  0  0  0  0
 57 58  1  0  0  0  0
 57 64  1  0  0  0  0
 58 72  1  0  0  0  0
 59 80  1  0  0  0  0
 60 62  1  0  0  0  0
 60 71  1  0  0  0  0
 61 73  1  0  0  0  0
 63 65  1  0  0  0  0
M  CHG  1  73   1
M  ISO  4  36 100  59 101  72 100  80 101
M  END
> <Batch ID>
0078

> <Smiles>
CNC(C)C(=O)NC(C(=O)N1Cc2cc([101O:1][101CH2:1]CCCc3cccn3CC[100NH:0][100C:0](=O)N3CCCC(n4nc(-c5ccc(Oc6ccc(F)cc6F)cc5)c(C(N)=O)c4N)C3)ccc2CC1C(=O)NC1CCCc2ccccc21)C(C)(C)C

> <Shape>
0.173

> <Color>
0.182

> <Negative vol penalty>
0.000

$$$$

  -OEChem-04052318393D

 80 88  0     1  0  0  0  0  0999 V2000
  -22.5975  -21.4749   17.3922 C   0  0  0  0  0  0  0  0  0  0  0  0
  -22.8679  -22.7989   17.7190 C   0  0  0  0  0  0  0  0  0  0  0  0
  -21.5600  -17.0420   21.1711 C   0  0  0  0  0  0  0  0  0  0  0  0
  -23.8503  -17.1753   21.9286 C   0  0  0  0  0  0  0  0  0  0  0  0
  -23.4787  -20.4700   17.7855 C   0  0  0  0  0  0  0  0  0  0  0  0
  -24.0255  -23.1198   18.4288 C   0  0  0  0  0  0  0  0  0  0  0  0
  -25.0368  -27.8989   19.0127 C   0  0  0  0  0  0  0  0  0  0  0  0
  -21.8830  -15.9329   20.3894 C   0  0  0  0  0  0  0  0  0  0  0  0
  -24.1734  -16.0661   21.1469 C   0  0  0  0  0  0  0  0  0  0  0  0
  -24.3082  -28.7245   19.8678 C   0  0  0  0  0  0  0  0  0  0  0  0
  -23.8379  -12.7084   21.3307 C   0  0  0  0  0  0  0  0  0  0  0  0
  -24.6245  -11.7144   21.9126 C   0  0  0  0  0  0  0  0  0  0  0  0
  -26.1011  -28.6278   21.4789 C   0  0  0  0  0  0  0  0  0  0  0  0
  -20.3365  -27.4867   23.4732 C   0  0  0  0  0  0  0  0  0  0  0  0
  -26.3096  -12.0540   20.2149 C   0  0  0  0  0  0  0  0  0  0  0  0
  -22.5436  -17.6632   21.9407 C   0  0  0  0  0  0  0  0  0  0  0  0
  -21.7688  -18.8082   24.0846 C   0  0  0  0  0  0  0  0  0  0  0  0
  -24.6412  -20.7782   18.5112 C   0  0  0  0  0  0  0  0  0  0  0  0
  -26.3005  -27.4219   19.3894 C   0  0  0  0  0  0  0  0  0  0  0  0
  -24.9395  -22.1223   18.8140 C   0  0  0  0  0  0  0  0  0  0  0  0
  -26.8448  -27.7984   20.6256 C   0  0  0  0  0  0  0  0  0  0  0  0
  -20.0454  -28.7343   22.8679 C   0  0  0  0  0  0  0  0  0  0  0  0
  -23.1897  -15.4449   20.3773 C   0  0  0  0  0  0  0  0  0  0  0  0
  -24.8391  -29.0867   21.1024 C   0  0  0  0  0  0  0  0  0  0  0  0
  -24.2870  -13.3753   20.1909 C   0  0  0  0  0  0  0  0  0  0  0  0
  -25.8603  -11.3872   21.3547 C   0  0  0  0  0  0  0  0  0  0  0  0
  -25.5229  -13.0481   19.6330 C   0  0  0  0  0  0  0  0  0  0  0  0
  -22.2106  -18.8093   22.7479 C   0  0  0  0  0  0  0  0  0  0  0  0
  -19.6263  -26.5232   22.7915 C   0  0  0  0  0  0  0  0  0  0  0  0
  -19.1664  -28.4950   21.8345 C   0  0  0  0  0  0  0  0  0  0  0  0
  -21.5918  -20.1358   24.3888 C   0  0  0  0  0  0  0  0  0  0  0  0
  -21.5391  -17.7057   24.9719 C   0  0  0  0  0  0  0  0  0  0  0  0
  -19.6044  -25.0782   23.0501 C   0  0  0  0  0  0  0  0  0  0  0  0
  -27.5535  -24.5443   19.8928 C   0  0  0  0  0  0  0  0  0  0  0  0
  -30.3076  -26.2282   20.2115 C   0  0  0  0  0  0  0  0  0  0  0  0
  -31.8180  -29.2038   20.9267 C   0  0  0  0  0  0  0  0  0  0  0  0
  -25.5644  -19.6521   18.9049 C   0  0  0  0  0  0  0  0  0  0  0  0
  -27.0852  -26.5539   18.4443 C   0  0  0  0  0  0  0  0  0  0  0  0
  -28.2059  -27.3297   21.0686 C   0  0  0  0  0  0  0  0  0  0  0  0
  -26.5242  -20.0348   20.0267 C   0  0  0  0  0  0  0  0  0  0  0  0
  -22.9502  -24.3067   21.8766 C   0  0  0  0  0  0  0  0  0  0  0  0
  -27.2043  -21.3561   19.7007 C   0  0  0  0  0  0  0  0  0  0  0  0
  -23.0074  -22.7943   22.0948 C   0  0  0  0  0  0  0  0  0  0  0  0
  -21.5566  -24.7538   21.4456 C   0  0  0  0  0  0  0  0  0  0  0  0
  -20.5231  -22.8275   22.6008 C   0  0  0  0  0  0  0  0  0  0  0  0
  -26.1770  -22.4918   19.6118 C   0  0  1  0  0  0  0  0  0  0  0  0
  -28.1426  -25.7085   19.1476 C   0  0  1  0  0  0  0  0  0  0  0  0
  -21.9035  -22.3289   23.0622 C   0  0  1  0  0  0  0  0  0  0  0  0
  -18.5420  -29.4341   20.8783 C   0  0  0  0  0  0  0  0  0  0  0  0
  -34.0835  -30.2611   21.1432 C   0  0  0  0  0  0  0  0  0  0  0  0
  -30.6877  -24.8558   22.9100 C   0  0  0  0  0  0  0  0  0  0  0  0
  -32.3886  -26.6022   23.4802 C   0  0  0  0  0  0  0  0  0  0  0  0
  -32.7734  -25.0730   21.5472 C   0  0  0  0  0  0  0  0  0  0  0  0
  -18.0448  -26.4840   20.8529 C   0  0  0  0  0  0  0  0  0  0  0  0
  -31.2504  -31.1378   18.7597 C   0  0  0  0  0  0  0  0  0  0  0  0
  -20.6003  -30.0730   23.2843 C   0  0  0  0  0  0  0  0  0  0  0  0
  -22.1280  -30.1482   23.2368 C   0  0  0  0  0  0  0  0  0  0  0  0
  -22.7069  -29.8104   21.8678 C   0  0  0  0  0  0  0  0  0  1  0  0
  -31.0278  -26.8924   21.3600 C   0  0  1  0  0  0  0  0  0  0  0  0
  -32.9147  -29.9738   20.2136 C   0  0  2  0  0  0  0  0  0  0  0  0
  -31.6929  -25.8633   22.3171 C   0  0  0  0  0  0  0  0  0  0  0  0
  -22.3081  -20.0400   22.2381 N   0  0  0  0  0  0  0  0  0  0  0  0
  -18.9187  -27.1475   21.7975 N   0  0  0  0  0  0  0  0  0  0  0  0
  -21.9250  -20.8246   23.2598 N   0  0  0  0  0  0  0  0  0  0  0  0
  -20.5424  -24.2770   22.3944 N   0  0  0  0  0  0  0  0  0  0  0  0
  -28.9315  -26.4777   20.1120 N   0  0  0  0  0  0  0  0  0  0  0  0
  -21.1851  -20.7696   25.5093 N   0  0  0  0  0  0  0  0  0  0  0  0
  -21.7706  -16.4072   24.4980 N   0  0  0  0  0  0  0  0  0  0  0  0
  -26.8272  -23.6774   19.0988 N   0  0  0  0  0  0  0  0  0  0  0  0
  -31.9603  -27.8421   20.7626 N   0  0  0  0  0  0  0  0  0  0  0  0
  -32.3891  -31.2720   19.7043 N   0  3  0  0  0  0  0  0  0  0  0  0
  -21.1246  -17.8663   26.1449 O   0  0  0  0  0  0  0  0  0  0  0  0
  -18.7535  -24.6824   23.8453 O   0  0  0  0  0  0  0  0  0  0  0  0
  -27.7450  -24.4395   21.0987 O   0  0  0  0  0  0  0  0  0  0  0  0
  -30.9440  -25.5199   19.4272 O   0  0  0  0  0  0  0  0  0  0  0  0
  -30.9265  -29.7549   21.5686 O   0  0  0  0  0  0  0  0  0  0  0  0
  -23.5053  -14.3625   19.6148 O   0  0  0  0  0  0  0  0  0  0  0  0
  -24.1297  -29.8919   21.9393 O   0  0  0  0  0  0  0  0  0  1  0  0
  -26.6163  -10.4336   21.9145 F   0  0  0  0  0  0  0  0  0  0  0  0
  -25.9603  -13.6861   18.5387 F   0  0  0  0  0  0  0  0  0  0  0  0
  1  2  1  0  0  0  0
  1  5  2  0  0  0  0
  2  6  2  0  0  0  0
  3  8  2  0  0  0  0
  3 16  1  0  0  0  0
  4  9  1  0  0  0  0
  4 16  2  0  0  0  0
  5 18  1  0  0  0  0
  6 20  1  0  0  0  0
  7 10  2  0  0  0  0
  7 19  1  0  0  0  0
  8 23  1  0  0  0  0
  9 23  2  0  0  0  0
 10 24  1  0  0  0  0
 11 12  2  0  0  0  0
 11 25  1  0  0  0  0
 12 26  1  0  0  0  0
 13 21  1  0  0  0  0
 13 24  2  0  0  0  0
 14 22  1  0  0  0  0
 14 29  2  0  0  0  0
 15 26  2  0  0  0  0
 15 27  1  0  0  0  0
 16 28  1  0  0  0  0
 17 28  1  0  0  0  0
 17 31  2  0  0  0  0
 17 32  1  0  0  0  0
 18 20  2  0  0  0  0
 18 37  1  0  0  0  0
 19 21  2  0  0  0  0
 19 38  1  0  0  0  0
 20 46  1  0  0  0  0
 21 39  1  0  0  0  0
 22 30  2  0  0  0  0
 22 56  1  0  0  0  0
 23 77  1  0  0  0  0
 24 78  1  0  0  0  0
 25 27  2  0  0  0  0
 25 77  1  0  0  0  0
 26 79  1  0  0  0  0
 27 80  1  0  0  0  0
 28 62  2  0  0  0  0
 29 33  1  0  0  0  0
 29 63  1  0  0  0  0
 30 49  1  0  0  0  0
 30 63  1  0  0  0  0
 31 64  1  0  0  0  0
 31 67  1  0  0  0  0
 32 68  1  0  0  0  0
 32 72  2  0  0  0  0
 33 65  1  0  0  0  0
 33 73  2  0  0  0  0
 34 47  1  0  0  0  0
 34 69  1  0  0  0  0
 34 74  2  0  0  0  0
 35 59  1  0  0  0  0
 35 66  1  0  0  0  0
 35 75  2  0  0  0  0
 36 60  1  0  0  0  0
 36 70  1  0  0  0  0
 36 76  2  0  0  0  0
 37 40  1  0  0  0  0
 38 47  1  0  0  0  0
 39 66  1  0  0  0  0
 40 42  1  0  0  0  0
 41 43  1  0  0  0  0
 41 44  1  0  0  0  0
 42 46  1  0  0  0  0
 43 48  1  0  0  0  0
 44 65  1  0  0  0  0
 45 48  1  0  0  0  0
 45 65  1  0  0  0  0
 46 69  1  0  0  0  0
 47 66  1  0  0  0  0
 48 64  1  0  0  0  0
 50 60  1  0  0  0  0
 51 61  1  0  0  0  0
 52 61  1  0  0  0  0
 53 61  1  0  0  0  0
 54 63  1  0  0  0  0
 55 71  1  0  0  0  0
 56 57  1  0  0  0  0
 57 58  1  0  0  0  0
 58 78  1  0  0  0  0
 59 61  1  0  0  0  0
 59 70  1  0  0  0  0
 60 71  1  0  0  0  0
 62 64  1  0  0  0  0
M  CHG  1  71   1
M  ISO  4  29 100  33 100  58 101  78 101
M  END
> <Batch ID>
0078

> <Smiles>
CNC(C)C(=O)NC(C(=O)N1Cc2cc([101O:1][101CH2:1]CCc3c[100c:0]([100C:0](=O)N4CCCC(n5nc(-c6ccc(Oc7ccc(F)cc7F)cc6)c(C(N)=O)c5N)C4)n(C)c3C)ccc2CC1C(=O)NC1CCCc2ccccc21)C(C)(C)C

> <Shape>
0.174

> <Color>
0.075

> <Negative vol penalty>
0.000

$$$$

  -OEChem-04052318393D

 84 92  0     1  0  0  0  0  0999 V2000
  -27.0016  -24.0470   17.0412 C   0  0  0  0  0  0  0  0  0  0  0  0
  -25.8789  -24.3988   17.7836 C   0  0  0  0  0  0  0  0  0  0  0  0
  -28.0239  -12.5550   18.6822 C   0  0  0  0  0  0  0  0  0  0  0  0
  -28.6704  -13.7486   20.6808 C   0  0  0  0  0  0  0  0  0  0  0  0
  -28.2677  -24.4563   17.4576 C   0  0  0  0  0  0  0  0  0  0  0  0
  -26.0218  -25.1594   18.9436 C   0  0  0  0  0  0  0  0  0  0  0  0
  -22.6230  -28.9014   19.2442 C   0  0  0  0  0  0  0  0  0  0  0  0
  -29.1989  -11.8064   18.7491 C   0  0  0  0  0  0  0  0  0  0  0  0
  -29.8454  -12.9999   20.7478 C   0  0  0  0  0  0  0  0  0  0  0  0
  -21.3304  -28.5574   19.6376 C   0  0  0  0  0  0  0  0  0  0  0  0
  -31.8575   -9.3317   18.5978 C   0  0  0  0  0  0  0  0  0  0  0  0
  -31.7619   -7.9552   18.3938 C   0  0  0  0  0  0  0  0  0  0  0  0
  -21.8157  -29.3171   21.8751 C   0  0  0  0  0  0  0  0  0  0  0  0
  -30.2729   -7.7779   20.2882 C   0  0  0  0  0  0  0  0  0  0  0  0
  -27.7596  -13.5262   19.6480 C   0  0  0  0  0  0  0  0  0  0  0  0
  -25.3052  -13.9895   20.1664 C   0  0  0  0  0  0  0  0  0  0  0  0
  -28.4253  -25.2305   18.6180 C   0  0  0  0  0  0  0  0  0  0  0  0
  -23.5266  -29.4466   20.1675 C   0  0  0  0  0  0  0  0  0  0  0  0
  -27.2913  -25.5784   19.3767 C   0  0  0  0  0  0  0  0  0  0  0  0
  -23.1184  -29.6695   21.4903 C   0  0  0  0  0  0  0  0  0  0  0  0
  -30.1096  -12.0288   19.7819 C   0  0  0  0  0  0  0  0  0  0  0  0
  -20.9275  -28.7626   20.9539 C   0  0  0  0  0  0  0  0  0  0  0  0
  -31.1609   -9.9314   19.6470 C   0  0  0  0  0  0  0  0  0  0  0  0
  -30.9696   -7.1783   19.2390 C   0  0  0  0  0  0  0  0  0  0  0  0
  -30.3686   -9.1545   20.4922 C   0  0  0  0  0  0  0  0  0  0  0  0
  -26.5463  -14.3002   19.5791 C   0  0  0  0  0  0  0  0  0  0  0  0
  -21.8973  -24.3699   22.4492 C   0  0  0  0  0  0  0  0  0  0  0  0
  -21.4647  -23.1025   22.1542 C   0  0  0  0  0  0  0  0  0  0  0  0
  -24.4858  -15.0325   19.8096 C   0  0  0  0  0  0  0  0  0  0  0  0
  -19.7445  -25.0316   22.6154 C   0  0  0  0  0  0  0  0  0  0  0  0
  -24.9269  -12.8592   20.9632 C   0  0  0  0  0  0  0  0  0  0  0  0
  -26.3368  -28.5511   21.3527 C   0  0  0  0  0  0  0  0  0  0  0  0
  -26.2459  -31.4813   22.7411 C   0  0  0  0  0  0  0  0  0  0  0  0
  -24.3654  -34.1019   23.8560 C   0  0  0  0  0  0  0  0  0  0  0  0
  -23.5744  -20.4981   19.1451 C   0  0  0  0  0  0  0  0  0  0  0  0
  -29.8184  -25.6095   19.0542 C   0  0  0  0  0  0  0  0  0  0  0  0
  -24.9088  -29.8371   19.7208 C   0  0  0  0  0  0  0  0  0  0  0  0
  -24.0438  -30.2707   22.5152 C   0  0  0  0  0  0  0  0  0  0  0  0
  -29.8485  -26.7299   20.0905 C   0  0  0  0  0  0  0  0  0  0  0  0
  -25.1800  -18.7732   16.4762 C   0  0  0  0  0  0  0  0  0  0  0  0
  -28.8279  -26.4652   21.1928 C   0  0  0  0  0  0  0  0  0  0  0  0
  -25.5815  -17.4334   17.0956 C   0  0  0  0  0  0  0  0  0  0  0  0
  -25.3115  -19.9195   17.4766 C   0  0  0  0  0  0  0  0  0  0  0  0
  -25.0003  -18.3739   19.3708 C   0  0  0  0  0  0  0  0  0  0  0  0
  -27.4032  -26.4234   20.6271 C   0  0  1  0  0  0  0  0  0  0  0  0
  -25.9101  -29.9084   20.8696 C   0  0  1  0  0  0  0  0  0  0  0  0
  -24.8310  -17.1792   18.4168 C   0  0  2  0  0  0  0  0  0  0  0  0
  -23.3490  -24.6994   22.5191 C   0  0  0  0  0  0  0  0  0  0  0  0
  -22.8467  -21.2725   23.1862 C   0  0  0  0  0  0  0  0  0  0  0  0
  -24.5706  -36.3372   24.9781 C   0  0  0  0  0  0  0  0  0  0  0  0
  -26.7343  -30.0922   25.4136 C   0  0  0  0  0  0  0  0  0  0  0  0
  -25.9912  -32.1900   26.5605 C   0  0  0  0  0  0  0  0  0  0  0  0
  -28.0098  -32.2197   25.0952 C   0  0  0  0  0  0  0  0  0  0  0  0
  -23.1665  -35.5037   21.5415 C   0  0  0  0  0  0  0  0  0  0  0  0
  -18.7329  -26.1190   22.8756 C   0  0  0  0  0  0  0  0  0  0  0  0
  -18.0680  -26.6581   21.6072 C   0  0  0  0  0  0  0  0  0  0  0  0
  -21.8640  -20.9347   20.8896 C   0  0  0  0  0  0  0  0  0  0  0  0
  -19.0450  -27.3400   20.6565 C   0  0  0  0  0  0  0  0  0  1  0  0
  -22.4116  -21.9855   21.8876 C   0  0  1  0  0  0  0  0  0  0  0  0
  -25.7181  -32.0309   24.0444 C   0  0  1  0  0  0  0  0  0  0  0  0
  -24.5023  -35.5997   23.6498 C   0  0  2  0  0  0  0  0  0  0  0  0
  -26.5963  -31.6200   25.2598 C   0  0  0  0  0  0  0  0  0  0  0  0
  -26.5222  -15.4505   18.9006 N   0  0  0  0  0  0  0  0  0  0  0  0
  -21.0395  -25.3733   22.6890 N   0  0  0  0  0  0  0  0  0  0  0  0
  -20.1510  -22.8189   22.0942 N   0  0  0  0  0  0  0  0  0  0  0  0
  -19.2620  -23.8061   22.3301 N   0  0  0  0  0  0  0  0  0  0  0  0
  -25.2559  -15.8717   19.0592 N   0  0  0  0  0  0  0  0  0  0  0  0
  -25.3871  -30.6301   22.0314 N   0  0  0  0  0  0  0  0  0  0  0  0
  -24.5759  -19.6162   18.7065 N   0  0  0  0  0  0  0  0  0  0  0  0
  -23.1889  -15.3044   20.0676 N   0  0  0  0  0  0  0  0  0  0  0  0
  -25.8922  -11.8800   21.2348 N   0  0  0  0  0  0  0  0  0  0  0  0
  -26.9190  -27.7642   20.3774 N   0  0  0  0  0  0  0  0  0  0  0  0
  -25.5921  -33.4724   23.8583 N   0  0  0  0  0  0  0  0  0  0  0  0
  -22.9218  -20.1327   20.3161 N   0  0  0  0  0  0  0  0  0  0  0  0
  -23.3396  -36.1250   22.8798 N   0  3  0  0  0  0  0  0  0  0  0  0
  -23.7627  -12.7134   21.4071 O   0  0  0  0  0  0  0  0  0  0  0  0
  -26.1529  -28.2413   22.5240 O   0  0  0  0  0  0  0  0  0  0  0  0
  -27.3756  -31.8013   22.3632 O   0  0  0  0  0  0  0  0  0  0  0  0
  -23.2790  -33.5465   24.0042 O   0  0  0  0  0  0  0  0  0  0  0  0
  -23.2798  -21.5317   18.5352 O   0  0  0  0  0  0  0  0  0  0  0  0
  -31.2562  -11.2983   19.8477 O   0  0  0  0  0  0  0  0  0  0  0  0
  -19.6667  -28.4271   21.3407 O   0  0  0  0  0  0  0  0  0  1  0  0
  -30.8767   -5.8567   19.0421 F   0  0  0  0  0  0  0  0  0  0  0  0
  -29.6960   -9.7251   21.5011 F   0  0  0  0  0  0  0  0  0  0  0  0
  1  2  1  0  0  0  0
  1  5  2  0  0  0  0
  2  6  2  0  0  0  0
  3  8  2  0  0  0  0
  3 15  1  0  0  0  0
  4  9  1  0  0  0  0
  4 15  2  0  0  0  0
  5 17  1  0  0  0  0
  6 19  1  0  0  0  0
  7 10  2  0  0  0  0
  7 18  1  0  0  0  0
  8 21  1  0  0  0  0
  9 21  2  0  0  0  0
 10 22  1  0  0  0  0
 11 12  2  0  0  0  0
 11 23  1  0  0  0  0
 12 24  1  0  0  0  0
 13 20  1  0  0  0  0
 13 22  2  0  0  0  0
 14 24  2  0  0  0  0
 14 25  1  0  0  0  0
 15 26  1  0  0  0  0
 16 26  1  0  0  0  0
 16 29  2  0  0  0  0
 16 31  1  0  0  0  0
 17 19  2  0  0  0  0
 17 36  1  0  0  0  0
 18 20  2  0  0  0  0
 18 37  1  0  0  0  0
 19 45  1  0  0  0  0
 20 38  1  0  0  0  0
 21 81  1  0  0  0  0
 22 82  1  0  0  0  0
 23 25  2  0  0  0  0
 23 81  1  0  0  0  0
 24 83  1  0  0  0  0
 25 84  1  0  0  0  0
 26 63  2  0  0  0  0
 27 28  2  0  0  0  0
 27 48  1  0  0  0  0
 27 64  1  0  0  0  0
 28 59  1  0  0  0  0
 28 65  1  0  0  0  0
 29 67  1  0  0  0  0
 29 70  1  0  0  0  0
 30 55  1  0  0  0  0
 30 64  2  0  0  0  0
 30 66  1  0  0  0  0
 31 71  1  0  0  0  0
 31 76  2  0  0  0  0
 32 46  1  0  0  0  0
 32 72  1  0  0  0  0
 32 77  2  0  0  0  0
 33 60  1  0  0  0  0
 33 68  1  0  0  0  0
 33 78  2  0  0  0  0
 34 61  1  0  0  0  0
 34 73  1  0  0  0  0
 34 79  2  0  0  0  0
 35 69  1  0  0  0  0
 35 74  1  0  0  0  0
 35 80  2  0  0  0  0
 36 39  1  0  0  0  0
 37 46  1  0  0  0  0
 38 68  1  0  0  0  0
 39 41  1  0  0  0  0
 40 42  1  0  0  0  0
 40 43  1  0  0  0  0
 41 45  1  0  0  0  0
 42 47  1  0  0  0  0
 43 69  1  0  0  0  0
 44 47  1  0  0  0  0
 44 69  1  0  0  0  0
 45 72  1  0  0  0  0
 46 68  1  0  0  0  0
 47 67  1  0  0  0  0
 49 59  1  0  0  0  0
 50 61  1  0  0  0  0
 51 62  1  0  0  0  0
 52 62  1  0  0  0  0
 53 62  1  0  0  0  0
 54 75  1  0  0  0  0
 55 56  1  0  0  0  0
 56 58  1  0  0  0  0
 57 59  1  0  0  0  0
 57 74  1  0  0  0  0
 58 82  1  0  0  0  0
 60 62  1  0  0  0  0
 60 73  1  0  0  0  0
 61 75  1  0  0  0  0
 63 67  1  0  0  0  0
 65 66  2  0  0  0  0
M  CHG  1  75   1
M  ISO  4  35 100  58 101  74 100  82 101
M  END
> <Batch ID>
0078

> <Smiles>
CNC(C)C(=O)NC(C(=O)N1Cc2cc([101O:1][101CH2:1]CCc3nnc(C(C)C[100NH:0][100C:0](=O)N4CCCC(n5nc(-c6ccc(Oc7ccc(F)cc7F)cc6)c(C(N)=O)c5N)C4)c(C)n3)ccc2CC1C(=O)NC1CCCc2ccccc21)C(C)(C)C

> <Shape>
0.285

> <Color>
0.072

> <Negative vol penalty>
0.000

$$$$

  -OEChem-04052318393D

 85 93  0     1  0  0  0  0  0999 V2000
  -38.8872  -25.9188   28.3688 C   0  0  0  0  0  0  0  0  0  0  0  0
  -37.8756  -24.9880   28.5823 C   0  0  0  0  0  0  0  0  0  0  0  0
  -23.0834   -9.8673   19.9345 C   0  0  0  0  0  0  0  0  0  0  0  0
  -23.8482   -9.8681   22.2262 C   0  0  0  0  0  0  0  0  0  0  0  0
  -38.6933  -26.9624   27.4649 C   0  0  0  0  0  0  0  0  0  0  0  0
  -36.6689  -25.1010   27.8926 C   0  0  0  0  0  0  0  0  0  0  0  0
  -31.4528  -21.0814   25.0727 C   0  0  0  0  0  0  0  0  0  0  0  0
  -22.3460   -8.7092   20.1810 C   0  0  0  0  0  0  0  0  0  0  0  0
  -23.1108   -8.7101   22.4727 C   0  0  0  0  0  0  0  0  0  0  0  0
  -30.0653  -20.9471   25.0946 C   0  0  0  0  0  0  0  0  0  0  0  0
  -21.1429   -5.9569   23.8016 C   0  0  0  0  0  0  0  0  0  0  0  0
  -20.3894   -5.9043   24.9742 C   0  0  0  0  0  0  0  0  0  0  0  0
  -29.8722  -22.7455   23.4985 C   0  0  0  0  0  0  0  0  0  0  0  0
  -28.3362  -18.8649   21.9624 C   0  0  0  0  0  0  0  0  0  0  0  0
  -19.1333   -7.8383   24.2538 C   0  0  0  0  0  0  0  0  0  0  0  0
  -28.3536  -18.3232   19.6466 C   0  0  0  0  0  0  0  0  0  0  0  0
  -23.8345  -10.4467   20.9571 C   0  0  0  0  0  0  0  0  0  0  0  0
  -24.1631  -12.9741   20.8474 C   0  0  0  0  0  0  0  0  0  0  0  0
  -37.4873  -27.0827   26.7566 C   0  0  0  0  0  0  0  0  0  0  0  0
  -32.0609  -22.0576   24.2705 C   0  0  0  0  0  0  0  0  0  0  0  0
  -36.4582  -26.1479   26.9793 C   0  0  0  0  0  0  0  0  0  0  0  0
  -31.2678  -22.8884   23.4663 C   0  0  0  0  0  0  0  0  0  0  0  0
  -29.0403  -18.4294   20.8453 C   0  0  0  0  0  0  0  0  0  0  0  0
  -26.9859  -19.1765   21.8482 C   0  0  0  0  0  0  0  0  0  0  0  0
  -22.3597   -8.1306   21.4501 C   0  0  0  0  0  0  0  0  0  0  0  0
  -29.2746  -21.7812   24.3096 C   0  0  0  0  0  0  0  0  0  0  0  0
  -20.8917   -6.9503   22.8551 C   0  0  0  0  0  0  0  0  0  0  0  0
  -19.3846   -6.8450   25.2003 C   0  0  0  0  0  0  0  0  0  0  0  0
  -19.8869   -7.8909   23.0812 C   0  0  0  0  0  0  0  0  0  0  0  0
  -24.5969  -11.6427   20.7029 C   0  0  0  0  0  0  0  0  0  0  0  0
  -26.3912  -19.0370   20.6045 C   0  0  0  0  0  0  0  0  0  0  0  0
  -25.2505  -13.7308   20.4851 C   0  0  0  0  0  0  0  0  0  0  0  0
  -22.8909  -13.4815   21.2713 C   0  0  0  0  0  0  0  0  0  0  0  0
  -33.8833  -24.6018   24.8270 C   0  0  0  0  0  0  0  0  0  0  0  0
  -34.0718  -24.6897   21.5899 C   0  0  0  0  0  0  0  0  0  0  0  0
  -32.6867  -23.8594   18.5835 C   0  0  0  0  0  0  0  0  0  0  0  0
  -30.7294  -14.7774   20.6661 C   0  0  0  0  0  0  0  0  0  0  0  0
  -37.3063  -28.2548   25.8249 C   0  0  0  0  0  0  0  0  0  0  0  0
  -33.5603  -22.1719   24.2379 C   0  0  0  0  0  0  0  0  0  0  0  0
  -31.8727  -23.9388   22.5722 C   0  0  0  0  0  0  0  0  0  0  0  0
  -36.1384  -28.0882   24.8562 C   0  0  0  0  0  0  0  0  0  0  0  0
  -29.5989  -12.3975   18.2714 C   0  0  0  0  0  0  0  0  0  0  0  0
  -34.8982  -27.5955   25.5949 C   0  0  0  0  0  0  0  0  0  0  0  0
  -28.1639  -12.0944   18.7061 C   0  0  0  0  0  0  0  0  0  0  0  0
  -30.5175  -12.6178   19.4712 C   0  0  0  0  0  0  0  0  0  0  0  0
  -28.6150  -13.3329   20.8651 C   0  0  0  0  0  0  0  0  0  0  0  0
  -35.1445  -26.2225   26.2319 C   0  0  1  0  0  0  0  0  0  0  0  0
  -34.0452  -23.5420   23.7743 C   0  0  1  0  0  0  0  0  0  0  0  0
  -27.6392  -13.1585   19.6888 C   0  0  2  0  0  0  0  0  0  0  0  0
  -31.3479  -19.3083   21.3214 C   0  0  0  0  0  0  0  0  0  0  0  0
  -32.5016  -23.6165   16.0927 C   0  0  0  0  0  0  0  0  0  0  0  0
  -33.1462  -27.5933   21.7398 C   0  0  0  0  0  0  0  0  0  0  0  0
  -32.6214  -27.4793   19.2944 C   0  0  0  0  0  0  0  0  0  0  0  0
  -34.9676  -27.1633   20.0808 C   0  0  0  0  0  0  0  0  0  0  0  0
  -34.0367  -21.2260   18.6234 C   0  0  0  0  0  0  0  0  0  0  0  0
  -24.5157  -19.1676   19.1481 C   0  0  0  0  0  0  0  0  0  0  0  0
  -26.2120  -19.6510   23.0521 C   0  0  0  0  0  0  0  0  0  0  0  0
  -25.9460  -21.1579   23.0587 C   0  0  0  0  0  0  0  0  0  0  0  0
  -30.7868  -16.9228   21.9123 C   0  0  0  0  0  0  0  0  0  0  0  0
  -27.2175  -21.9951   23.1355 C   0  0  0  0  0  0  0  0  0  1  0  0
  -30.4849  -18.0870   20.9350 C   0  0  1  0  0  0  0  0  0  0  0  0
  -33.2669  -25.3377   20.4893 C   0  0  1  0  0  0  0  0  0  0  0  0
  -33.2851  -23.2312   17.3378 C   0  0  2  0  0  0  0  0  0  0  0  0
  -33.4887  -26.8750   20.4193 C   0  0  0  0  0  0  0  0  0  0  0  0
  -27.0425  -18.6168   19.4969 N   0  0  0  0  0  0  0  0  0  0  0  0
  -25.8613  -11.5552   20.2815 N   0  0  0  0  0  0  0  0  0  0  0  0
  -26.2313  -12.8413   20.1580 N   0  0  0  0  0  0  0  0  0  0  0  0
  -33.3429  -24.0158   22.5799 N   0  0  0  0  0  0  0  0  0  0  0  0
  -29.9635  -13.6395   20.3629 N   0  0  0  0  0  0  0  0  0  0  0  0
  -25.4539  -15.0637   20.4174 N   0  0  0  0  0  0  0  0  0  0  0  0
  -21.8844  -12.5657   21.6068 N   0  0  0  0  0  0  0  0  0  0  0  0
  -35.0716  -25.1804   25.2303 N   0  0  0  0  0  0  0  0  0  0  0  0
  -33.6090  -24.6281   19.2614 N   0  0  0  0  0  0  0  0  0  0  0  0
  -30.1272  -15.6994   21.5135 N   0  0  0  0  0  0  0  0  0  0  0  0
  -33.2818  -21.7455   17.4542 N   0  3  0  0  0  0  0  0  0  0  0  0
  -22.6484  -14.7106   21.3345 O   0  0  0  0  0  0  0  0  0  0  0  0
  -32.7631  -24.8754   25.2416 O   0  0  0  0  0  0  0  0  0  0  0  0
  -35.3024  -24.7723   21.5680 O   0  0  0  0  0  0  0  0  0  0  0  0
  -31.5168  -23.6885   18.9194 O   0  0  0  0  0  0  0  0  0  0  0  0
  -31.8634  -14.9607   20.2108 O   0  0  0  0  0  0  0  0  0  0  0  0
  -21.6401   -7.0007   21.6911 O   0  0  0  0  0  0  0  0  0  0  0  0
  -27.9200  -21.6527   24.3295 O   0  0  0  0  0  0  0  0  0  1  0  0
  -25.0616  -19.3329   20.4511 O   0  0  0  0  0  0  0  0  0  0  0  0
  -18.6601   -6.7934   26.3258 F   0  0  0  0  0  0  0  0  0  0  0  0
  -19.6401   -8.8469   22.1751 F   0  0  0  0  0  0  0  0  0  0  0  0
  1  2  1  0  0  0  0
  1  5  2  0  0  0  0
  2  6  2  0  0  0  0
  3  8  2  0  0  0  0
  3 17  1  0  0  0  0
  4  9  1  0  0  0  0
  4 17  2  0  0  0  0
  5 19  1  0  0  0  0
  6 21  1  0  0  0  0
  7 10  2  0  0  0  0
  7 20  1  0  0  0  0
  8 25  1  0  0  0  0
  9 25  2  0  0  0  0
 10 26  1  0  0  0  0
 11 12  2  0  0  0  0
 11 27  1  0  0  0  0
 12 28  1  0  0  0  0
 13 22  1  0  0  0  0
 13 26  2  0  0  0  0
 14 23  2  0  0  0  0
 14 24  1  0  0  0  0
 15 28  2  0  0  0  0
 15 29  1  0  0  0  0
 16 23  1  0  0  0  0
 16 65  2  0  0  0  0
 17 30  1  0  0  0  0
 18 30  1  0  0  0  0
 18 32  2  0  0  0  0
 18 33  1  0  0  0  0
 19 21  2  0  0  0  0
 19 38  1  0  0  0  0
 20 22  2  0  0  0  0
 20 39  1  0  0  0  0
 21 47  1  0  0  0  0
 22 40  1  0  0  0  0
 23 61  1  0  0  0  0
 24 31  2  0  0  0  0
 24 57  1  0  0  0  0
 25 81  1  0  0  0  0
 26 82  1  0  0  0  0
 27 29  2  0  0  0  0
 27 81  1  0  0  0  0
 28 84  1  0  0  0  0
 29 85  1  0  0  0  0
 30 66  2  0  0  0  0
 31 65  1  0  0  0  0
 31 83  1  0  0  0  0
 32 67  1  0  0  0  0
 32 70  1  0  0  0  0
 33 71  1  0  0  0  0
 33 76  2  0  0  0  0
 34 48  1  0  0  0  0
 34 72  1  0  0  0  0
 34 77  2  0  0  0  0
 35 62  1  0  0  0  0
 35 68  1  0  0  0  0
 35 78  2  0  0  0  0
 36 63  1  0  0  0  0
 36 73  1  0  0  0  0
 36 79  2  0  0  0  0
 37 69  1  0  0  0  0
 37 74  1  0  0  0  0
 37 80  2  0  0  0  0
 38 41  1  0  0  0  0
 39 48  1  0  0  0  0
 40 68  1  0  0  0  0
 41 43  1  0  0  0  0
 42 44  1  0  0  0  0
 42 45  1  0  0  0  0
 43 47  1  0  0  0  0
 44 49  1  0  0  0  0
 45 69  1  0  0  0  0
 46 49  1  0  0  0  0
 46 69  1  0  0  0  0
 47 72  1  0  0  0  0
 48 68  1  0  0  0  0
 49 67  1  0  0  0  0
 50 61  1  0  0  0  0
 51 63  1  0  0  0  0
 52 64  1  0  0  0  0
 53 64  1  0  0  0  0
 54 64  1  0  0  0  0
 55 75  1  0  0  0  0
 56 83  1  0  0  0  0
 57 58  1  0  0  0  0
 58 60  1  0  0  0  0
 59 61  1  0  0  0  0
 59 74  1  0  0  0  0
 60 82  1  0  0  0  0
 62 64  1  0  0  0  0
 62 73  1  0  0  0  0
 63 75  1  0  0  0  0
 66 67  1  0  0  0  0
M  CHG  1  75   1
M  ISO  4  37 100  60 101  74 100  82 101
M  END
> <Batch ID>
0078

> <Smiles>
CNC(C)C(=O)NC(C(=O)N1Cc2cc([101O:1][101CH2:1]CCc3cc(C(C)C[100NH:0][100C:0](=O)N4CCCC(n5nc(-c6ccc(Oc7ccc(F)cc7F)cc6)c(C(N)=O)c5N)C4)cnc3OC)ccc2CC1C(=O)NC1CCCc2ccccc21)C(C)(C)C

> <Shape>
0.193

> <Color>
0.188

> <Negative vol penalty>
0.000

$$$$

  -OEChem-04052318393D

 87 95  0     1  0  0  0  0  0999 V2000
  -19.6147  -29.0068   26.3356 C   0  0  0  0  0  0  0  0  0  0  0  0
  -20.9251  -28.7018   25.9818 C   0  0  0  0  0  0  0  0  0  0  0  0
  -23.9335  -12.9048   19.4248 C   0  0  0  0  0  0  0  0  0  0  0  0
  -24.8527  -14.1084   21.3072 C   0  0  0  0  0  0  0  0  0  0  0  0
  -18.5766  -28.7627   25.4374 C   0  0  0  0  0  0  0  0  0  0  0  0
  -21.1981  -28.1513   24.7301 C   0  0  0  0  0  0  0  0  0  0  0  0
  -26.1571  -29.1409   21.2754 C   0  0  0  0  0  0  0  0  0  0  0  0
  -24.9857  -11.9918   19.4948 C   0  0  0  0  0  0  0  0  0  0  0  0
  -25.9049  -13.1954   21.3772 C   0  0  0  0  0  0  0  0  0  0  0  0
  -27.3298  -28.4109   21.0868 C   0  0  0  0  0  0  0  0  0  0  0  0
  -28.8132  -12.6165   19.7533 C   0  0  0  0  0  0  0  0  0  0  0  0
  -30.1018  -13.1241   19.9189 C   0  0  0  0  0  0  0  0  0  0  0  0
  -26.3785  -27.4042   19.1118 C   0  0  0  0  0  0  0  0  0  0  0  0
  -29.5344  -22.8795   19.6180 C   0  0  0  0  0  0  0  0  0  0  0  0
  -30.3186  -11.8985   21.9896 C   0  0  0  0  0  0  0  0  0  0  0  0
  -27.9153  -23.8563   20.8404 C   0  0  0  0  0  0  0  0  0  0  0  0
  -23.8670  -13.9632   20.3310 C   0  0  0  0  0  0  0  0  0  0  0  0
  -21.5390  -14.8259   20.9173 C   0  0  0  0  0  0  0  0  0  0  0  0
  -18.8381  -28.2180   24.1703 C   0  0  0  0  0  0  0  0  0  0  0  0
  -25.0803  -28.9997   20.3882 C   0  0  0  0  0  0  0  0  0  0  0  0
  -20.1624  -27.8985   23.8146 C   0  0  0  0  0  0  0  0  0  0  0  0
  -25.1941  -28.1355   19.2898 C   0  0  0  0  0  0  0  0  0  0  0  0
  -29.2164  -24.0073   20.4141 C   0  0  0  0  0  0  0  0  0  0  0  0
  -25.9713  -12.1370   20.4710 C   0  0  0  0  0  0  0  0  0  0  0  0
  -27.4396  -27.5402   20.0065 C   0  0  0  0  0  0  0  0  0  0  0  0
  -28.2772  -11.7499   20.7059 C   0  0  0  0  0  0  0  0  0  0  0  0
  -30.8545  -12.7651   21.0370 C   0  0  0  0  0  0  0  0  0  0  0  0
  -29.0299  -11.3909   21.8241 C   0  0  0  0  0  0  0  0  0  0  0  0
  -22.7807  -14.9070   20.2589 C   0  0  0  0  0  0  0  0  0  0  0  0
  -28.4178  -22.0736   19.5818 C   0  0  0  0  0  0  0  0  0  0  0  0
  -20.8669  -15.9571   20.5233 C   0  0  0  0  0  0  0  0  0  0  0  0
  -21.0379  -13.8182   21.8057 C   0  0  0  0  0  0  0  0  0  0  0  0
  -22.0707  -28.0118   20.6526 C   0  0  0  0  0  0  0  0  0  0  0  0
  -21.8889  -28.9885   17.5647 C   0  0  0  0  0  0  0  0  0  0  0  0
  -23.5099  -29.6533   14.6360 C   0  0  0  0  0  0  0  0  0  0  0  0
  -22.6952  -21.3167   18.5783 C   0  0  0  0  0  0  0  0  0  0  0  0
  -17.6779  -27.9279   23.2514 C   0  0  0  0  0  0  0  0  0  0  0  0
  -23.8322  -29.8144   20.5903 C   0  0  0  0  0  0  0  0  0  0  0  0
  -24.0746  -27.9631   18.2971 C   0  0  0  0  0  0  0  0  0  0  0  0
  -18.0935  -27.6907   21.8018 C   0  0  0  0  0  0  0  0  0  0  0  0
  -20.5438  -19.0431   16.8815 C   0  0  0  0  0  0  0  0  0  0  0  0
  -19.2815  -26.7360   21.7365 C   0  0  0  0  0  0  0  0  0  0  0  0
  -20.7611  -17.7179   17.6140 C   0  0  0  0  0  0  0  0  0  0  0  0
  -21.8369  -19.8488   16.7769 C   0  0  0  0  0  0  0  0  0  0  0  0
  -22.7434  -18.7577   18.7922 C   0  0  0  0  0  0  0  0  0  0  0  0
  -20.5014  -27.3233   22.4565 C   0  0  1  0  0  0  0  0  0  0  0  0
  -22.6062  -29.2067   19.9157 C   0  0  1  0  0  0  0  0  0  0  0  0
  -21.4560  -17.9352   18.9717 C   0  0  2  0  0  0  0  0  0  0  0  0
  -23.0895  -30.3990   12.2771 C   0  0  0  0  0  0  0  0  0  0  0  0
  -31.1918  -25.4808   19.6358 C   0  0  0  0  0  0  0  0  0  0  0  0
  -30.9455  -24.8568   22.0291 C   0  0  0  0  0  0  0  0  0  0  0  0
  -29.4795  -20.3189   18.1190 C   0  0  0  0  0  0  0  0  0  0  0  0
  -27.0349  -20.8605   17.8605 C   0  0  0  0  0  0  0  0  0  0  0  0
  -27.8365  -19.5681   19.8274 C   0  0  0  0  0  0  0  0  0  0  0  0
  -20.8176  -26.2144   16.8813 C   0  0  0  0  0  0  0  0  0  0  0  0
  -21.3160  -26.6912   14.4745 C   0  0  0  0  0  0  0  0  0  0  0  0
  -19.6639  -28.0968   15.7065 C   0  0  0  0  0  0  0  0  0  0  0  0
  -25.1971  -32.0613   14.9735 C   0  0  0  0  0  0  0  0  0  0  0  0
  -24.9899  -23.1369   20.1482 C   0  0  0  0  0  0  0  0  0  0  0  0
  -26.1061  -22.1642   20.5519 C   0  0  0  0  0  0  0  0  0  0  0  0
  -23.5784  -22.6533   20.4736 C   0  0  0  0  0  0  0  0  0  0  0  0
  -29.3267  -26.4755   20.9868 C   0  0  0  0  0  0  0  0  0  1  0  0
  -22.1270  -28.3399   16.2224 C   0  0  1  0  0  0  0  0  0  0  0  0
  -23.4366  -30.8390   13.6908 C   0  0  2  0  0  0  0  0  0  0  0  0
  -30.1520  -25.1856   20.7435 C   0  0  0  0  0  0  0  0  0  0  0  0
  -28.2035  -20.7809   18.8990 C   0  0  0  0  0  0  0  0  0  0  0  0
  -21.0017  -27.3371   15.8408 C   0  0  0  0  0  0  0  0  0  0  0  0
  -22.8933  -16.0029   19.5038 N   0  0  0  0  0  0  0  0  0  0  0  0
  -27.4398  -22.6775   20.3280 N   0  0  0  0  0  0  0  0  0  0  0  0
  -21.7138  -16.6209   19.6852 N   0  0  0  0  0  0  0  0  0  0  0  0
  -22.8723  -28.7768   18.5414 N   0  0  0  0  0  0  0  0  0  0  0  0
  -22.4448  -20.0204   18.0986 N   0  0  0  0  0  0  0  0  0  0  0  0
  -19.6401  -16.4387   20.8153 N   0  0  0  0  0  0  0  0  0  0  0  0
  -21.8592  -12.7225   22.1043 N   0  0  0  0  0  0  0  0  0  0  0  0
  -21.1440  -28.3221   21.6295 N   0  0  0  0  0  0  0  0  0  0  0  0
  -22.3054  -29.4292   15.2686 N   0  0  0  0  0  0  0  0  0  0  0  0
  -23.2673  -21.3902   19.8424 N   0  0  0  0  0  0  0  0  0  0  0  0
  -24.7442  -31.5530   13.6531 N   0  3  0  0  0  0  0  0  0  0  0  0
  -19.8895  -13.8792   22.3065 O   0  0  0  0  0  0  0  0  0  0  0  0
  -22.4678  -26.8911   20.3558 O   0  0  0  0  0  0  0  0  0  0  0  0
  -20.8714  -29.6641   17.7378 O   0  0  0  0  0  0  0  0  0  0  0  0
  -24.5323  -28.9899   14.7944 O   0  0  0  0  0  0  0  0  0  0  0  0
  -22.4238  -22.3333   17.9303 O   0  0  0  0  0  0  0  0  0  0  0  0
  -26.9981  -11.2462   20.5397 O   0  0  0  0  0  0  0  0  0  0  0  0
  -28.5828  -26.8260   19.8205 O   0  0  0  0  0  0  0  0  0  1  0  0
  -32.0925  -13.2514   21.1951 F   0  0  0  0  0  0  0  0  0  0  0  0
  -28.5208  -10.5578   22.7420 F   0  0  0  0  0  0  0  0  0  0  0  0
  1  2  1  0  0  0  0
  1  5  2  0  0  0  0
  2  6  2  0  0  0  0
  3  8  2  0  0  0  0
  3 17  1  0  0  0  0
  4  9  1  0  0  0  0
  4 17  2  0  0  0  0
  5 19  1  0  0  0  0
  6 21  1  0  0  0  0
  7 10  2  0  0  0  0
  7 20  1  0  0  0  0
  8 24  1  0  0  0  0
  9 24  2  0  0  0  0
 10 25  1  0  0  0  0
 11 12  2  0  0  0  0
 11 26  1  0  0  0  0
 12 27  1  0  0  0  0
 13 22  1  0  0  0  0
 13 25  2  0  0  0  0
 14 23  1  0  0  0  0
 14 30  2  0  0  0  0
 15 27  2  0  0  0  0
 15 28  1  0  0  0  0
 16 23  2  0  0  0  0
 16 69  1  0  0  0  0
 17 29  1  0  0  0  0
 18 29  1  0  0  0  0
 18 31  2  0  0  0  0
 18 32  1  0  0  0  0
 19 21  2  0  0  0  0
 19 37  1  0  0  0  0
 20 22  2  0  0  0  0
 20 38  1  0  0  0  0
 21 46  1  0  0  0  0
 22 39  1  0  0  0  0
 23 65  1  0  0  0  0
 24 84  1  0  0  0  0
 25 85  1  0  0  0  0
 26 28  2  0  0  0  0
 26 84  1  0  0  0  0
 27 86  1  0  0  0  0
 28 87  1  0  0  0  0
 29 68  2  0  0  0  0
 30 66  1  0  0  0  0
 30 69  1  0  0  0  0
 31 70  1  0  0  0  0
 31 73  1  0  0  0  0
 32 74  1  0  0  0  0
 32 79  2  0  0  0  0
 33 47  1  0  0  0  0
 33 75  1  0  0  0  0
 33 80  2  0  0  0  0
 34 63  1  0  0  0  0
 34 71  1  0  0  0  0
 34 81  2  0  0  0  0
 35 64  1  0  0  0  0
 35 76  1  0  0  0  0
 35 82  2  0  0  0  0
 36 72  1  0  0  0  0
 36 77  1  0  0  0  0
 36 83  2  0  0  0  0
 37 40  1  0  0  0  0
 38 47  1  0  0  0  0
 39 71  1  0  0  0  0
 40 42  1  0  0  0  0
 41 43  1  0  0  0  0
 41 44  1  0  0  0  0
 42 46  1  0  0  0  0
 43 48  1  0  0  0  0
 44 72  1  0  0  0  0
 45 48  1  0  0  0  0
 45 72  1  0  0  0  0
 46 75  1  0  0  0  0
 47 71  1  0  0  0  0
 48 70  1  0  0  0  0
 49 64  1  0  0  0  0
 50 65  1  0  0  0  0
 51 65  1  0  0  0  0
 52 66  1  0  0  0  0
 53 66  1  0  0  0  0
 54 66  1  0  0  0  0
 55 67  1  0  0  0  0
 56 67  1  0  0  0  0
 57 67  1  0  0  0  0
 58 78  1  0  0  0  0
 59 60  1  0  0  0  0
 59 61  1  0  0  0  0
 60 69  1  0  0  0  0
 61 77  1  0  0  0  0
 62 65  1  0  0  0  0
 62 85  1  0  0  0  0
 63 67  1  0  0  0  0
 63 76  1  0  0  0  0
 64 78  1  0  0  0  0
 68 70  1  0  0  0  0
M  CHG  1  78   1
M  ISO  4  36 100  62 101  77 100  85 101
M  END
> <Batch ID>
0078

> <Smiles>
CNC(C)C(=O)NC(C(=O)N1Cc2cc([101O:1][101CH2:1]C(C)(C)c3cc(C(C)(C)C)n(CCC[100NH:0][100C:0](=O)N4CCCC(n5nc(-c6ccc(Oc7ccc(F)cc7F)cc6)c(C(N)=O)c5N)C4)c3)ccc2CC1C(=O)NC1CCCc2ccccc21)C(C)(C)C

> <Shape>
0.224

> <Color>
0.098

> <Negative vol penalty>
0.000

$$$$

  -OEChem-04052318393D

 86 94  0     1  0  0  0  0  0999 V2000
  -17.0191  -29.3469   24.4745 C   0  0  0  0  0  0  0  0  0  0  0  0
  -17.4176  -28.2289   23.7487 C   0  0  0  0  0  0  0  0  0  0  0  0
  -27.4926  -20.0774   18.5443 C   0  0  0  0  0  0  0  0  0  0  0  0
  -26.4024  -20.7121   20.6048 C   0  0  0  0  0  0  0  0  0  0  0  0
  -17.6536  -30.5715   24.2704 C   0  0  0  0  0  0  0  0  0  0  0  0
  -18.4500  -28.3353   22.8174 C   0  0  0  0  0  0  0  0  0  0  0  0
  -22.6327  -24.0744   21.4554 C   0  0  0  0  0  0  0  0  0  0  0  0
  -28.1174  -21.3233   18.4911 C   0  0  0  0  0  0  0  0  0  0  0  0
  -27.0272  -21.9580   20.5516 C   0  0  0  0  0  0  0  0  0  0  0  0
  -22.7223  -23.1451   20.4199 C   0  0  0  0  0  0  0  0  0  0  0  0
  -30.2807  -24.2036   18.0025 C   0  0  0  0  0  0  0  0  0  0  0  0
  -31.6389  -24.2350   17.6862 C   0  0  0  0  0  0  0  0  0  0  0  0
  -24.1335  -24.6642   19.1869 C   0  0  0  0  0  0  0  0  0  0  0  0
  -24.4243  -19.9478   13.1215 C   0  0  0  0  0  0  0  0  0  0  0  0
  -32.1222  -22.8797   19.6270 C   0  0  0  0  0  0  0  0  0  0  0  0
  -22.3724  -19.1395   13.5758 C   0  0  0  0  0  0  0  0  0  0  0  0
  -26.6350  -19.7717   19.6011 C   0  0  0  0  0  0  0  0  0  0  0  0
  -26.4736  -17.3161   20.2731 C   0  0  0  0  0  0  0  0  0  0  0  0
  -18.7007  -30.6908   23.3432 C   0  0  0  0  0  0  0  0  0  0  0  0
  -23.2850  -25.3120   21.3595 C   0  0  0  0  0  0  0  0  0  0  0  0
  -19.0981  -29.5630   22.5998 C   0  0  0  0  0  0  0  0  0  0  0  0
  -24.0527  -25.6064   20.2237 C   0  0  0  0  0  0  0  0  0  0  0  0
  -23.0784  -20.3061   13.3810 C   0  0  0  0  0  0  0  0  0  0  0  0
  -27.8848  -22.2636   19.4947 C   0  0  0  0  0  0  0  0  0  0  0  0
  -23.4704  -23.4411   19.2842 C   0  0  0  0  0  0  0  0  0  0  0  0
  -29.8433  -23.5103   19.1310 C   0  0  0  0  0  0  0  0  0  0  0  0
  -32.5596  -23.5731   18.4984 C   0  0  0  0  0  0  0  0  0  0  0  0
  -30.7640  -22.8483   19.9433 C   0  0  0  0  0  0  0  0  0  0  0  0
  -25.9888  -18.4851   19.6564 C   0  0  0  0  0  0  0  0  0  0  0  0
  -24.4997  -18.5731   13.1655 C   0  0  0  0  0  0  0  0  0  0  0  0
  -25.4966  -16.3778   20.0462 C   0  0  0  0  0  0  0  0  0  0  0  0
  -27.6975  -17.0980   20.9874 C   0  0  0  0  0  0  0  0  0  0  0  0
  -22.3419  -28.3472   21.3143 C   0  0  0  0  0  0  0  0  0  0  0  0
  -25.5313  -28.9328   21.3969 C   0  0  0  0  0  0  0  0  0  0  0  0
  -28.6973  -27.8282   20.7617 C   0  0  0  0  0  0  0  0  0  0  0  0
  -22.0110  -14.2267   16.0486 C   0  0  0  0  0  0  0  0  0  0  0  0
  -19.3246  -32.0461   23.1230 C   0  0  0  0  0  0  0  0  0  0  0  0
  -23.2004  -26.2927   22.4968 C   0  0  0  0  0  0  0  0  0  0  0  0
  -24.7887  -26.9126   20.0807 C   0  0  0  0  0  0  0  0  0  0  0  0
  -20.6612  -31.9892   22.3877 C   0  0  0  0  0  0  0  0  0  0  0  0
  -21.0249  -15.3404   19.4381 C   0  0  0  0  0  0  0  0  0  0  0  0
  -20.5648  -31.0683   21.1755 C   0  0  0  0  0  0  0  0  0  0  0  0
  -22.3178  -15.9498   19.9778 C   0  0  0  0  0  0  0  0  0  0  0  0
  -21.2992  -14.2454   18.4117 C   0  0  0  0  0  0  0  0  0  0  0  0
  -23.4628  -15.2891   17.8253 C   0  0  0  0  0  0  0  0  0  0  0  0
  -20.2307  -29.6327   21.5985 C   0  0  1  0  0  0  0  0  0  0  0  0
  -23.4847  -27.7293   22.0694 C   0  0  1  0  0  0  0  0  0  0  0  0
  -23.2209  -16.4278   18.8275 C   0  0  2  0  0  0  0  0  0  0  0  0
  -25.6604  -17.6805   12.9671 C   0  0  0  0  0  0  0  0  0  0  0  0
  -31.0983  -28.5449   20.8985 C   0  0  0  0  0  0  0  0  0  0  0  0
  -22.7413  -22.4050   12.0580 C   0  0  0  0  0  0  0  0  0  0  0  0
  -20.9835  -21.7912   13.6937 C   0  0  0  0  0  0  0  0  0  0  0  0
  -25.1473  -30.6823   18.9267 C   0  0  0  0  0  0  0  0  0  0  0  0
  -27.6221  -30.5868   18.5601 C   0  0  0  0  0  0  0  0  0  0  0  0
  -26.7099  -31.6224   20.6381 C   0  0  0  0  0  0  0  0  0  0  0  0
  -23.2029  -13.8549   13.9224 C   0  0  0  0  0  0  0  0  0  0  0  0
  -29.3657  -25.6364   22.6348 C   0  0  0  0  0  0  0  0  0  0  0  0
  -23.0694  -22.1000   15.9618 C   0  0  0  0  0  0  0  0  0  0  0  0
  -23.2337  -22.5944   14.5196 C   0  0  0  0  0  0  0  0  0  0  0  0
  -22.8838  -16.6986   13.5765 C   0  0  0  0  0  0  0  0  0  0  0  0
  -23.2796  -16.1068   14.9267 C   0  0  0  0  0  0  0  0  0  0  0  0
  -23.7286  -23.0524   16.9522 C   0  0  0  0  0  0  0  0  0  1  0  0
  -26.6127  -29.1115   20.3588 C   0  0  1  0  0  0  0  0  0  0  0  0
  -29.9561  -27.8364   21.6100 C   0  0  2  0  0  0  0  0  0  0  0  0
  -22.5087  -21.7352   13.4359 C   0  0  0  0  0  0  0  0  0  0  0  0
  -26.5077  -30.4768   19.6225 C   0  0  0  0  0  0  0  0  0  0  0  0
  -24.7967  -18.3079   19.0807 N   0  0  0  0  0  0  0  0  0  0  0  0
  -23.2464  -18.0924   13.4421 N   0  0  0  0  0  0  0  0  0  0  0  0
  -24.5241  -17.0167   19.3348 N   0  0  0  0  0  0  0  0  0  0  0  0
  -24.6699  -27.8414   21.2168 N   0  0  0  0  0  0  0  0  0  0  0  0
  -22.1945  -14.7136   17.3532 N   0  0  0  0  0  0  0  0  0  0  0  0
  -25.3832  -15.0767   20.3878 N   0  0  0  0  0  0  0  0  0  0  0  0
  -28.5892  -18.1702   21.1280 N   0  0  0  0  0  0  0  0  0  0  0  0
  -21.4084  -28.9721   22.1190 N   0  0  0  0  0  0  0  0  0  0  0  0
  -27.8804  -28.9011   21.0496 N   0  0  0  0  0  0  0  0  0  0  0  0
  -22.8814  -14.7070   15.0584 N   0  0  0  0  0  0  0  0  0  0  0  0
  -30.3849  -26.4419   21.9142 N   0  3  0  0  0  0  0  0  0  0  0  0
  -27.9992  -15.9810   21.4719 O   0  0  0  0  0  0  0  0  0  0  0  0
  -22.3103  -28.2644   20.0921 O   0  0  0  0  0  0  0  0  0  0  0  0
  -25.4582  -29.7282   22.3370 O   0  0  0  0  0  0  0  0  0  0  0  0
  -28.4638  -26.9591   19.9247 O   0  0  0  0  0  0  0  0  0  0  0  0
  -21.1141  -13.4165   15.7822 O   0  0  0  0  0  0  0  0  0  0  0  0
  -28.4945  -23.4794   19.4432 O   0  0  0  0  0  0  0  0  0  0  0  0
  -23.5589  -22.5362   18.2717 O   0  0  0  0  0  0  0  0  0  1  0  0
  -33.8636  -23.6020   18.1938 F   0  0  0  0  0  0  0  0  0  0  0  0
  -30.3496  -22.1796   21.0281 F   0  0  0  0  0  0  0  0  0  0  0  0
  1  2  1  0  0  0  0
  1  5  2  0  0  0  0
  2  6  2  0  0  0  0
  3  8  2  0  0  0  0
  3 17  1  0  0  0  0
  4  9  1  0  0  0  0
  4 17  2  0  0  0  0
  5 19  1  0  0  0  0
  6 21  1  0  0  0  0
  7 10  2  0  0  0  0
  7 20  1  0  0  0  0
  8 24  1  0  0  0  0
  9 24  2  0  0  0  0
 10 25  1  0  0  0  0
 11 12  2  0  0  0  0
 11 26  1  0  0  0  0
 12 27  1  0  0  0  0
 13 22  1  0  0  0  0
 13 25  2  0  0  0  0
 14 23  1  0  0  0  0
 14 30  2  0  0  0  0
 15 27  2  0  0  0  0
 15 28  1  0  0  0  0
 16 23  2  0  0  0  0
 16 68  1  0  0  0  0
 17 29  1  0  0  0  0
 18 29  1  0  0  0  0
 18 31  2  0  0  0  0
 18 32  1  0  0  0  0
 19 21  2  0  0  0  0
 19 37  1  0  0  0  0
 20 22  2  0  0  0  0
 20 38  1  0  0  0  0
 21 46  1  0  0  0  0
 22 39  1  0  0  0  0
 23 65  1  0  0  0  0
 24 83  1  0  0  0  0
 25 84  1  0  0  0  0
 26 28  2  0  0  0  0
 26 83  1  0  0  0  0
 27 85  1  0  0  0  0
 28 86  1  0  0  0  0
 29 67  2  0  0  0  0
 30 49  1  0  0  0  0
 30 68  1  0  0  0  0
 31 69  1  0  0  0  0
 31 72  1  0  0  0  0
 32 73  1  0  0  0  0
 32 78  2  0  0  0  0
 33 47  1  0  0  0  0
 33 74  1  0  0  0  0
 33 79  2  0  0  0  0
 34 63  1  0  0  0  0
 34 70  1  0  0  0  0
 34 80  2  0  0  0  0
 35 64  1  0  0  0  0
 35 75  1  0  0  0  0
 35 81  2  0  0  0  0
 36 71  1  0  0  0  0
 36 76  1  0  0  0  0
 36 82  2  0  0  0  0
 37 40  1  0  0  0  0
 38 47  1  0  0  0  0
 39 70  1  0  0  0  0
 40 42  1  0  0  0  0
 41 43  1  0  0  0  0
 41 44  1  0  0  0  0
 42 46  1  0  0  0  0
 43 48  1  0  0  0  0
 44 71  1  0  0  0  0
 45 48  1  0  0  0  0
 45 71  1  0  0  0  0
 46 74  1  0  0  0  0
 47 70  1  0  0  0  0
 48 69  1  0  0  0  0
 50 64  1  0  0  0  0
 51 65  1  0  0  0  0
 52 65  1  0  0  0  0
 53 66  1  0  0  0  0
 54 66  1  0  0  0  0
 55 66  1  0  0  0  0
 56 76  1  0  0  0  0
 57 77  1  0  0  0  0
 58 59  1  0  0  0  0
 58 62  1  0  0  0  0
 59 65  1  0  0  0  0
 60 61  1  0  0  0  0
 60 68  1  0  0  0  0
 61 76  1  0  0  0  0
 62 84  1  0  0  0  0
 63 66  1  0  0  0  0
 63 75  1  0  0  0  0
 64 77  1  0  0  0  0
 67 69  1  0  0  0  0
M  CHG  1  77   1
M  ISO  4  36 100  62 101  76 100  84 101
M  END
> <Batch ID>
0078

> <Smiles>
CNC(C)C(=O)NC(C(=O)N1Cc2cc([101O:1][101CH2:1]CCC(C)(C)c3cc(C)n(CC[100N:0](C)[100C:0](=O)N4CCCC(n5nc(-c6ccc(Oc7ccc(F)cc7F)cc6)c(C(N)=O)c5N)C4)c3)ccc2CC1C(=O)NC1CCCc2ccccc21)C(C)(C)C

> <Shape>
0.173

> <Color>
0.105

> <Negative vol penalty>
0.000

$$$$

  -OEChem-04052318393D

 84 92  0     1  0  0  0  0  0999 V2000
  -23.9496  -17.8331   21.5319 C   0  0  0  0  0  0  0  0  0  0  0  0
  -24.6903  -18.9085   21.0520 C   0  0  0  0  0  0  0  0  0  0  0  0
  -26.3267  -12.9420   21.6034 C   0  0  0  0  0  0  0  0  0  0  0  0
  -25.8837  -13.8032   19.3900 C   0  0  0  0  0  0  0  0  0  0  0  0
  -22.5663  -17.9453   21.6657 C   0  0  0  0  0  0  0  0  0  0  0  0
  -24.0480  -20.0964   20.7046 C   0  0  0  0  0  0  0  0  0  0  0  0
  -26.4618  -24.1922   22.4490 C   0  0  0  0  0  0  0  0  0  0  0  0
  -25.1143  -12.2527   21.5778 C   0  0  0  0  0  0  0  0  0  0  0  0
  -24.6713  -13.1138   19.3644 C   0  0  0  0  0  0  0  0  0  0  0  0
  -27.5945  -24.6091   21.7512 C   0  0  0  0  0  0  0  0  0  0  0  0
  -23.8970   -9.4035   20.2239 C   0  0  0  0  0  0  0  0  0  0  0  0
  -23.8952   -8.0788   20.6604 C   0  0  0  0  0  0  0  0  0  0  0  0
  -26.2830  -26.3072   20.6487 C   0  0  0  0  0  0  0  0  0  0  0  0
  -22.3024   -8.6492   22.3851 C   0  0  0  0  0  0  0  0  0  0  0  0
  -30.7782  -23.9276   18.1375 C   0  0  0  0  0  0  0  0  0  0  0  0
  -26.7113  -13.7174   20.5094 C   0  0  0  0  0  0  0  0  0  0  0  0
  -29.2177  -13.9611   20.1017 C   0  0  0  0  0  0  0  0  0  0  0  0
  -21.9079  -19.1384   21.3289 C   0  0  0  0  0  0  0  0  0  0  0  0
  -25.2267  -24.8237   22.2434 C   0  0  0  0  0  0  0  0  0  0  0  0
  -22.6544  -20.2242   20.8328 C   0  0  0  0  0  0  0  0  0  0  0  0
  -25.1366  -25.8981   21.3470 C   0  0  0  0  0  0  0  0  0  0  0  0
  -24.2867  -12.3386   20.4583 C   0  0  0  0  0  0  0  0  0  0  0  0
  -27.5046  -25.6648   20.8487 C   0  0  0  0  0  0  0  0  0  0  0  0
  -23.1015  -10.3512   20.8680 C   0  0  0  0  0  0  0  0  0  0  0  0
  -23.0979   -7.7016   21.7410 C   0  0  0  0  0  0  0  0  0  0  0  0
  -22.3042   -9.9740   21.9486 C   0  0  0  0  0  0  0  0  0  0  0  0
  -27.9633  -14.4301   20.5355 C   0  0  0  0  0  0  0  0  0  0  0  0
  -30.3273  -22.6412   17.7859 C   0  0  0  0  0  0  0  0  0  0  0  0
  -29.7380  -24.7596   17.8022 C   0  0  0  0  0  0  0  0  0  0  0  0
  -30.0755  -15.0078   20.3363 C   0  0  0  0  0  0  0  0  0  0  0  0
  -29.5755  -12.6927   19.5371 C   0  0  0  0  0  0  0  0  0  0  0  0
  -22.3835  -23.8939   21.1685 C   0  0  0  0  0  0  0  0  0  0  0  0
  -21.5088  -26.8951   22.0346 C   0  0  0  0  0  0  0  0  0  0  0  0
  -22.4400  -30.1197   22.6526 C   0  0  0  0  0  0  0  0  0  0  0  0
  -30.2111  -20.7936   20.1932 C   0  0  0  0  0  0  0  0  0  0  0  0
  -20.4053  -19.1963   21.4459 C   0  0  0  0  0  0  0  0  0  0  0  0
  -24.0200  -24.3795   23.0238 C   0  0  0  0  0  0  0  0  0  0  0  0
  -23.8385  -26.6226   21.1054 C   0  0  0  0  0  0  0  0  0  0  0  0
  -19.8458  -20.6162   21.4098 C   0  0  0  0  0  0  0  0  0  0  0  0
  -29.9899  -18.9951   23.2580 C   0  0  0  0  0  0  0  0  0  0  0  0
  -20.4811  -21.4116   20.2737 C   0  0  0  0  0  0  0  0  0  0  0  0
  -29.5613  -17.5910   22.8281 C   0  0  0  0  0  0  0  0  0  0  0  0
  -29.3366  -20.0732   22.3961 C   0  0  0  0  0  0  0  0  0  0  0  0
  -29.0991  -18.5007   20.5135 C   0  0  0  0  0  0  0  0  0  0  0  0
  -21.9968  -21.5377   20.4689 C   0  0  1  0  0  0  0  0  0  0  0  0
  -22.7027  -24.7593   22.3546 C   0  0  1  0  0  0  0  0  0  0  0  0
  -29.7756  -17.3773   21.3176 C   0  0  2  0  0  0  0  0  0  0  0  0
  -26.3321  -23.6719   17.5288 C   0  0  0  0  0  0  0  0  0  0  0  0
  -31.2814  -20.6361   16.5897 C   0  0  0  0  0  0  0  0  0  0  0  0
  -21.4970  -32.3519   23.3046 C   0  0  0  0  0  0  0  0  0  0  0  0
  -29.3454  -26.9996   16.5746 C   0  0  0  0  0  0  0  0  0  0  0  0
  -30.8800  -26.8789   18.5261 C   0  0  0  0  0  0  0  0  0  0  0  0
  -20.4244  -27.2606   19.2060 C   0  0  0  0  0  0  0  0  0  0  0  0
  -20.3784  -29.7297   19.6176 C   0  0  0  0  0  0  0  0  0  0  0  0
  -18.9745  -28.2087   21.0097 C   0  0  0  0  0  0  0  0  0  0  0  0
  -24.0660  -30.2147   25.1236 C   0  0  0  0  0  0  0  0  0  0  0  0
  -27.4707  -24.3597   16.7954 C   0  0  0  0  0  0  0  0  0  0  0  0
  -28.4005  -26.6316   18.8692 C   0  0  0  0  0  0  0  0  0  1  0  0
  -31.0507  -21.3665   17.9292 C   0  0  2  0  0  0  0  0  0  0  0  0
  -21.4796  -28.2399   21.3493 C   0  0  1  0  0  0  0  0  0  0  0  0
  -22.1208  -31.0575   23.8028 C   0  0  2  0  0  0  0  0  0  0  0  0
  -29.5832  -26.2868   17.9276 C   0  0  0  0  0  0  0  0  0  0  0  0
  -20.3384  -28.3450   20.2985 C   0  0  0  0  0  0  0  0  0  0  0  0
  -28.0151  -15.6776   21.0099 N   0  0  0  0  0  0  0  0  0  0  0  0
  -29.0965  -22.6501   17.2672 N   0  0  0  0  0  0  0  0  0  0  0  0
  -28.7651  -23.9523   17.2904 N   0  0  0  0  0  0  0  0  0  0  0  0
  -29.3126  -16.0013   20.8757 N   0  0  0  0  0  0  0  0  0  0  0  0
  -22.6855  -26.1471   21.8877 N   0  0  0  0  0  0  0  0  0  0  0  0
  -29.5786  -19.8129   20.9750 N   0  0  0  0  0  0  0  0  0  0  0  0
  -31.4005  -15.1660   20.1319 N   0  0  0  0  0  0  0  0  0  0  0  0
  -28.5709  -11.7308   19.3647 N   0  0  0  0  0  0  0  0  0  0  0  0
  -22.2963  -22.5465   21.4624 N   0  0  0  0  0  0  0  0  0  0  0  0
  -21.4079  -29.2377   22.4111 N   0  0  0  0  0  0  0  0  0  0  0  0
  -30.4078  -20.4637   18.8578 N   0  0  0  0  0  0  0  0  0  0  0  0
  -23.3615  -31.3934   24.5569 N   0  3  0  0  0  0  0  0  0  0  0  0
  -30.7544  -12.4145   19.2107 O   0  0  0  0  0  0  0  0  0  0  0  0
  -22.2265  -24.4106   20.0685 O   0  0  0  0  0  0  0  0  0  0  0  0
  -20.5264  -26.5252   22.6825 O   0  0  0  0  0  0  0  0  0  0  0  0
  -23.4975  -30.1673   22.0281 O   0  0  0  0  0  0  0  0  0  0  0  0
  -30.5784  -21.8803   20.6526 O   0  0  0  0  0  0  0  0  0  0  0  0
  -23.1037  -11.6659   20.4330 O   0  0  0  0  0  0  0  0  0  0  0  0
  -28.6085  -26.0733   20.1658 O   0  0  0  0  0  0  0  0  0  1  0  0
  -23.0952   -6.4290   22.1591 F   0  0  0  0  0  0  0  0  0  0  0  0
  -21.5370  -10.8797   22.5707 F   0  0  0  0  0  0  0  0  0  0  0  0
  1  2  1  0  0  0  0
  1  5  2  0  0  0  0
  2  6  2  0  0  0  0
  3  8  2  0  0  0  0
  3 16  1  0  0  0  0
  4  9  1  0  0  0  0
  4 16  2  0  0  0  0
  5 18  1  0  0  0  0
  6 20  1  0  0  0  0
  7 10  2  0  0  0  0
  7 19  1  0  0  0  0
  8 22  1  0  0  0  0
  9 22  2  0  0  0  0
 10 23  1  0  0  0  0
 11 12  2  0  0  0  0
 11 24  1  0  0  0  0
 12 25  1  0  0  0  0
 13 21  1  0  0  0  0
 13 23  2  0  0  0  0
 14 25  2  0  0  0  0
 14 26  1  0  0  0  0
 15 28  1  0  0  0  0
 15 29  2  0  0  0  0
 16 27  1  0  0  0  0
 17 27  1  0  0  0  0
 17 30  2  0  0  0  0
 17 31  1  0  0  0  0
 18 20  2  0  0  0  0
 18 36  1  0  0  0  0
 19 21  2  0  0  0  0
 19 37  1  0  0  0  0
 20 45  1  0  0  0  0
 21 38  1  0  0  0  0
 22 81  1  0  0  0  0
 23 82  1  0  0  0  0
 24 26  2  0  0  0  0
 24 81  1  0  0  0  0
 25 83  1  0  0  0  0
 26 84  1  0  0  0  0
 27 64  2  0  0  0  0
 28 59  1  0  0  0  0
 28 65  2  0  0  0  0
 29 62  1  0  0  0  0
 29 66  1  0  0  0  0
 30 67  1  0  0  0  0
 30 70  1  0  0  0  0
 31 71  1  0  0  0  0
 31 76  2  0  0  0  0
 32 46  1  0  0  0  0
 32 72  1  0  0  0  0
 32 77  2  0  0  0  0
 33 60  1  0  0  0  0
 33 68  1  0  0  0  0
 33 78  2  0  0  0  0
 34 61  1  0  0  0  0
 34 73  1  0  0  0  0
 34 79  2  0  0  0  0
 35 69  1  0  0  0  0
 35 74  1  0  0  0  0
 35 80  2  0  0  0  0
 36 39  1  0  0  0  0
 37 46  1  0  0  0  0
 38 68  1  0  0  0  0
 39 41  1  0  0  0  0
 40 42  1  0  0  0  0
 40 43  1  0  0  0  0
 41 45  1  0  0  0  0
 42 47  1  0  0  0  0
 43 69  1  0  0  0  0
 44 47  1  0  0  0  0
 44 69  1  0  0  0  0
 45 72  1  0  0  0  0
 46 68  1  0  0  0  0
 47 67  1  0  0  0  0
 48 57  1  0  0  0  0
 49 59  1  0  0  0  0
 50 61  1  0  0  0  0
 51 62  1  0  0  0  0
 52 62  1  0  0  0  0
 53 63  1  0  0  0  0
 54 63  1  0  0  0  0
 55 63  1  0  0  0  0
 56 75  1  0  0  0  0
 57 66  1  0  0  0  0
 58 62  1  0  0  0  0
 58 82  1  0  0  0  0
 59 74  1  0  0  0  0
 60 63  1  0  0  0  0
 60 73  1  0  0  0  0
 61 75  1  0  0  0  0
 64 67  1  0  0  0  0
 65 66  1  0  0  0  0
M  CHG  1  75   1
M  ISO  4  35 100  58 101  74 100  82 101
M  END
> <Batch ID>
0078

> <Smiles>
CCn1nc(C(C)[100NH:0][100C:0](=O)N2CCCC(n3nc(-c4ccc(Oc5ccc(F)cc5F)cc4)c(C(N)=O)c3N)C2)cc1C(C)(C)[101CH2:1][101O:1]c1ccc2c(c1)CN(C(=O)C(NC(=O)C(C)NC)C(C)(C)C)C(C(=O)NC1CCCc3ccccc31)C2

> <Shape>
0.245

> <Color>
0.079

> <Negative vol penalty>
0.000

$$$$

  -OEChem-04052318393D

 82 89  0     1  0  0  0  0  0999 V2000
  -24.3636  -18.9902   24.0993 C   0  0  0  0  0  0  0  0  0  0  0  0
  -25.1725  -19.6320   23.1671 C   0  0  0  0  0  0  0  0  0  0  0  0
  -24.2907   -9.8347   20.8922 C   0  0  0  0  0  0  0  0  0  0  0  0
  -24.6218  -10.6462   23.1436 C   0  0  0  0  0  0  0  0  0  0  0  0
  -23.1626  -19.5752   24.4986 C   0  0  0  0  0  0  0  0  0  0  0  0
  -24.7804  -20.8589   22.6327 C   0  0  0  0  0  0  0  0  0  0  0  0
  -28.5702  -24.2147   22.4868 C   0  0  0  0  0  0  0  0  0  0  0  0
  -23.8831   -8.6000   21.3972 C   0  0  0  0  0  0  0  0  0  0  0  0
  -24.2142   -9.4115   23.6486 C   0  0  0  0  0  0  0  0  0  0  0  0
  -29.5050  -24.0752   21.4620 C   0  0  0  0  0  0  0  0  0  0  0  0
  -21.3040   -7.7800   24.1864 C   0  0  0  0  0  0  0  0  0  0  0  0
  -20.4069   -7.7825   25.2545 C   0  0  0  0  0  0  0  0  0  0  0  0
  -28.3996  -25.8257   20.2237 C   0  0  0  0  0  0  0  0  0  0  0  0
  -22.0166   -6.5946   26.6091 C   0  0  0  0  0  0  0  0  0  0  0  0
  -24.6601  -10.8578   21.7655 C   0  0  0  0  0  0  0  0  0  0  0  0
  -24.2685  -13.2474   20.9627 C   0  0  0  0  0  0  0  0  0  0  0  0
  -22.7603  -20.8145   23.9761 C   0  0  0  0  0  0  0  0  0  0  0  0
  -27.5349  -25.1548   22.3829 C   0  0  0  0  0  0  0  0  0  0  0  0
  -23.5723  -21.4604   23.0244 C   0  0  0  0  0  0  0  0  0  0  0  0
  -27.4544  -25.9769   21.2498 C   0  0  0  0  0  0  0  0  0  0  0  0
  -23.8449   -8.3884   22.7754 C   0  0  0  0  0  0  0  0  0  0  0  0
  -29.4181  -24.8788   20.3289 C   0  0  0  0  0  0  0  0  0  0  0  0
  -22.5573   -7.1847   24.3296 C   0  0  0  0  0  0  0  0  0  0  0  0
  -20.7633   -7.1899   26.4659 C   0  0  0  0  0  0  0  0  0  0  0  0
  -22.9136   -6.5921   25.5409 C   0  0  0  0  0  0  0  0  0  0  0  0
  -25.0817  -12.1333   21.2444 C   0  0  0  0  0  0  0  0  0  0  0  0
  -25.1403  -14.1988   20.4925 C   0  0  0  0  0  0  0  0  0  0  0  0
  -22.8516  -13.4079   21.1128 C   0  0  0  0  0  0  0  0  0  0  0  0
  -24.3613  -24.9964   22.2983 C   0  0  0  0  0  0  0  0  0  0  0  0
  -30.0023  -16.9275   20.9453 C   0  0  0  0  0  0  0  0  0  0  0  0
  -24.5861  -28.2308   22.3991 C   0  0  0  0  0  0  0  0  0  0  0  0
  -26.4509  -31.0255   21.7998 C   0  0  0  0  0  0  0  0  0  0  0  0
  -21.4309  -21.3850   24.4027 C   0  0  0  0  0  0  0  0  0  0  0  0
  -26.5501  -25.3113   23.5090 C   0  0  0  0  0  0  0  0  0  0  0  0
  -26.3740  -27.0153   21.0986 C   0  0  0  0  0  0  0  0  0  0  0  0
  -21.2684  -22.8658   24.0692 C   0  0  0  0  0  0  0  0  0  0  0  0
  -29.9880  -13.8437   19.1205 C   0  0  0  0  0  0  0  0  0  0  0  0
  -21.7101  -23.1417   22.6355 C   0  0  0  0  0  0  0  0  0  0  0  0
  -28.6573  -13.2017   19.5109 C   0  0  0  0  0  0  0  0  0  0  0  0
  -30.5962  -14.6199   20.2844 C   0  0  0  0  0  0  0  0  0  0  0  0
  -28.3558  -15.0136   21.2577 C   0  0  0  0  0  0  0  0  0  0  0  0
  -23.1932  -22.8041   22.4405 C   0  0  1  0  0  0  0  0  0  0  0  0
  -25.2346  -25.9460   23.0686 C   0  0  1  0  0  0  0  0  0  0  0  0
  -27.6923  -14.2451   20.1011 C   0  0  2  0  0  0  0  0  0  0  0  0
  -29.1088  -17.8604   23.0322 C   0  0  0  0  0  0  0  0  0  0  0  0
  -26.3521  -33.5287   21.9473 C   0  0  0  0  0  0  0  0  0  0  0  0
  -27.5126  -20.3557   16.9679 C   0  0  0  0  0  0  0  0  0  0  0  0
  -22.8262  -28.3057   19.9076 C   0  0  0  0  0  0  0  0  0  0  0  0
  -23.5385  -30.6807   19.5609 C   0  0  0  0  0  0  0  0  0  0  0  0
  -22.2835  -30.0449   21.6209 C   0  0  0  0  0  0  0  0  0  0  0  0
  -28.7171  -31.1189   23.7009 C   0  0  0  0  0  0  0  0  0  0  0  0
  -31.5953  -21.9534   16.6205 C   0  0  0  0  0  0  0  0  0  0  0  0
  -28.9451  -19.3208   19.4241 C   0  0  0  0  0  0  0  0  0  0  0  0
  -29.1357  -19.2752   20.9459 C   0  0  0  0  0  0  0  0  0  0  0  0
  -29.0600  -20.7550   18.8960 C   0  0  0  0  0  0  0  0  0  0  0  0
  -30.6983  -24.2451   16.9998 C   0  0  0  0  0  0  0  0  0  0  0  0
  -29.1433  -22.3039   16.8792 C   0  0  0  0  0  0  0  0  0  0  0  0
  -29.8893  -25.0427   18.0036 C   0  0  0  0  0  0  0  0  0  1  0  0
  -28.9641  -17.8616   21.5142 C   0  0  1  0  0  0  0  0  0  0  0  0
  -24.6946  -29.3276   21.3674 C   0  0  1  0  0  0  0  0  0  0  0  0
  -26.7457  -32.2428   22.6575 C   0  0  2  0  0  0  0  0  0  0  0  0
  -28.9040  -20.8676   17.3637 C   0  0  2  0  0  0  0  0  0  0  0  0
  -23.3550  -29.5689   20.6159 C   0  0  0  0  0  0  0  0  0  0  0  0
  -26.3711  -12.3549   20.9755 N   0  0  0  0  0  0  0  0  0  0  0  0
  -26.3747  -13.6192   20.5197 N   0  0  0  0  0  0  0  0  0  0  0  0
  -25.4312  -27.1259   22.2240 N   0  0  0  0  0  0  0  0  0  0  0  0
  -29.6408  -15.5849   20.8315 N   0  0  0  0  0  0  0  0  0  0  0  0
  -24.9639  -15.4661   20.0624 N   0  0  0  0  0  0  0  0  0  0  0  0
  -22.1061  -12.3303   21.6100 N   0  0  0  0  0  0  0  0  0  0  0  0
  -24.0266  -23.8501   22.9936 N   0  0  0  0  0  0  0  0  0  0  0  0
  -25.2052  -30.4998   22.0700 N   0  0  0  0  0  0  0  0  0  0  0  0
  -28.1992  -32.3098   22.9796 N   0  3  0  0  0  0  0  0  0  0  0  0
  -30.4998  -22.7718   17.2584 N   0  3  1  0  0  0  0  0  0  0  0  0
  -22.2619  -14.4697   20.7993 O   0  0  0  0  0  0  0  0  0  0  0  0
  -24.0154  -25.2832   21.1583 O   0  0  0  0  0  0  0  0  0  0  0  0
  -31.1001  -17.3798   20.6100 O   0  0  0  0  0  0  0  0  0  0  0  0
  -23.7862  -28.3534   23.3301 O   0  0  0  0  0  0  0  0  0  0  0  0
  -27.2448  -30.5872   20.9702 O   0  0  0  0  0  0  0  0  0  0  0  0
  -23.4470   -7.1837   23.2684 O   0  0  0  0  0  0  0  0  0  0  0  0
  -30.3354  -24.7434   19.3196 O   0  0  0  0  0  0  0  0  0  1  0  0
  -19.9023   -7.1937   27.4921 F   0  0  0  0  0  0  0  0  0  0  0  0
  -24.1167   -6.0197   25.6849 F   0  0  0  0  0  0  0  0  0  0  0  0
  1  2  1  0  0  0  0
  1  5  2  0  0  0  0
  2  6  2  0  0  0  0
  3  8  2  0  0  0  0
  3 15  1  0  0  0  0
  4  9  1  0  0  0  0
  4 15  2  0  0  0  0
  5 17  1  0  0  0  0
  6 19  1  0  0  0  0
  7 10  2  0  0  0  0
  7 18  1  0  0  0  0
  8 21  1  0  0  0  0
  9 21  2  0  0  0  0
 10 22  1  0  0  0  0
 11 12  2  0  0  0  0
 11 23  1  0  0  0  0
 12 24  1  0  0  0  0
 13 20  1  0  0  0  0
 13 22  2  0  0  0  0
 14 24  2  0  0  0  0
 14 25  1  0  0  0  0
 15 26  1  0  0  0  0
 16 26  1  0  0  0  0
 16 27  2  0  0  0  0
 16 28  1  0  0  0  0
 17 19  2  0  0  0  0
 17 33  1  0  0  0  0
 18 20  2  0  0  0  0
 18 34  1  0  0  0  0
 19 42  1  0  0  0  0
 20 35  1  0  0  0  0
 21 79  1  0  0  0  0
 22 80  1  0  0  0  0
 23 25  2  0  0  0  0
 23 79  1  0  0  0  0
 24 81  1  0  0  0  0
 25 82  1  0  0  0  0
 26 64  2  0  0  0  0
 27 65  1  0  0  0  0
 27 68  1  0  0  0  0
 28 69  1  0  0  0  0
 28 74  2  0  0  0  0
 29 43  1  0  0  0  0
 29 70  1  0  0  0  0
 29 75  2  0  0  0  0
 30 59  1  0  0  0  0
 30 67  1  0  0  0  0
 30 76  2  0  0  0  0
 31 60  1  0  0  0  0
 31 66  1  0  0  0  0
 31 77  2  0  0  0  0
 32 61  1  0  0  0  0
 32 71  1  0  0  0  0
 32 78  2  0  0  0  0
 33 36  1  0  0  0  0
 34 43  1  0  0  0  0
 35 66  1  0  0  0  0
 36 38  1  0  0  0  0
 37 39  1  0  0  0  0
 37 40  1  0  0  0  0
 38 42  1  0  0  0  0
 39 44  1  0  0  0  0
 40 67  1  0  0  0  0
 41 44  1  0  0  0  0
 41 67  1  0  0  0  0
 42 70  1  0  0  0  0
 43 66  1  0  0  0  0
 44 65  1  0  0  0  0
 45 59  1  0  0  0  0
 46 61  1  0  0  0  0
 47 62  1  0  0  0  0
 48 63  1  0  0  0  0
 49 63  1  0  0  0  0
 50 63  1  0  0  0  0
 51 72  1  0  0  0  0
 52 73  1  0  0  0  0
 53 54  1  0  0  0  0
 53 55  1  0  0  0  0
 54 59  1  0  0  0  0
 55 62  1  0  0  0  0
 56 58  1  0  0  0  0
 56 73  1  0  0  0  0
 57 62  1  0  0  0  0
 57 73  1  0  0  0  0
 58 80  1  0  0  0  0
 60 63  1  0  0  0  0
 60 71  1  0  0  0  0
 61 72  1  0  0  0  0
 64 65  1  0  0  0  0
M  CHG  2  72   1  73   1
M  ISO  4  30 100  58 101  59 100  80 101
M  END
> <Batch ID>
0078

> <Smiles>
CNC(C)C(=O)NC(C(=O)N1Cc2cc([101O:1][101CH2:1]CN(C)CC(C)CCC[100CH:0](C)[100C:0](=O)N3CCCC(n4nc(-c5ccc(Oc6ccc(F)cc6F)cc5)c(C(N)=O)c4N)C3)ccc2CC1C(=O)NC1CCCc2ccccc21)C(C)(C)C

> <Shape>
0.262

> <Color>
0.116

> <Negative vol penalty>
0.000

$$$$

  -OEChem-04052318393D

 84 92  0     1  0  0  0  0  0999 V2000
  -20.9296  -30.4137   20.2523 C   0  0  0  0  0  0  0  0  0  0  0  0
  -21.1234  -29.1309   19.7499 C   0  0  0  0  0  0  0  0  0  0  0  0
  -22.8214  -10.5832   19.9107 C   0  0  0  0  0  0  0  0  0  0  0  0
  -23.8428   -9.6525   21.8924 C   0  0  0  0  0  0  0  0  0  0  0  0
  -22.0017  -31.1151   20.8022 C   0  0  0  0  0  0  0  0  0  0  0  0
  -22.3899  -28.5492   19.7962 C   0  0  0  0  0  0  0  0  0  0  0  0
  -25.5843  -22.1804   20.5374 C   0  0  0  0  0  0  0  0  0  0  0  0
  -21.9212   -9.5183   19.8745 C   0  0  0  0  0  0  0  0  0  0  0  0
  -22.9426   -8.5876   21.8564 C   0  0  0  0  0  0  0  0  0  0  0  0
  -26.5344  -21.3729   19.9137 C   0  0  0  0  0  0  0  0  0  0  0  0
  -19.5850   -6.8552   19.0538 C   0  0  0  0  0  0  0  0  0  0  0  0
  -19.3509   -6.2434   17.8224 C   0  0  0  0  0  0  0  0  0  0  0  0
  -28.2954  -22.6480   20.9586 C   0  0  0  0  0  0  0  0  0  0  0  0
  -21.6923   -5.6696   17.6623 C   0  0  0  0  0  0  0  0  0  0  0  0
  -28.3032  -18.3340   22.3217 C   0  0  0  0  0  0  0  0  0  0  0  0
  -29.7090  -17.4651   23.8327 C   0  0  0  0  0  0  0  0  0  0  0  0
  -23.7823  -10.6502   20.9196 C   0  0  0  0  0  0  0  0  0  0  0  0
  -24.5481  -12.9805   21.6203 C   0  0  0  0  0  0  0  0  0  0  0  0
  -23.2799  -30.5379   20.8641 C   0  0  0  0  0  0  0  0  0  0  0  0
  -25.9835  -23.2364   21.3692 C   0  0  0  0  0  0  0  0  0  0  0  0
  -23.4804  -29.2441   20.3463 C   0  0  0  0  0  0  0  0  0  0  0  0
  -27.3484  -23.4658   21.5938 C   0  0  0  0  0  0  0  0  0  0  0  0
  -29.4467  -17.9591   21.6517 C   0  0  0  0  0  0  0  0  0  0  0  0
  -30.3362  -17.4095   22.6076 C   0  0  0  0  0  0  0  0  0  0  0  0
  -21.9818   -8.5205   20.8474 C   0  0  0  0  0  0  0  0  0  0  0  0
  -27.8902  -21.6084   20.1219 C   0  0  0  0  0  0  0  0  0  0  0  0
  -20.8727   -6.8743   19.5895 C   0  0  0  0  0  0  0  0  0  0  0  0
  -20.4045   -5.6506   17.1266 C   0  0  0  0  0  0  0  0  0  0  0  0
  -21.9264   -6.2815   18.8938 C   0  0  0  0  0  0  0  0  0  0  0  0
  -24.7128  -11.7497   20.9571 C   0  0  0  0  0  0  0  0  0  0  0  0
  -25.7034  -13.6729   21.3510 C   0  0  0  0  0  0  0  0  0  0  0  0
  -23.4492  -13.4555   22.4092 C   0  0  0  0  0  0  0  0  0  0  0  0
  -25.6234  -26.3941   21.3148 C   0  0  0  0  0  0  0  0  0  0  0  0
  -27.0247  -26.2134   24.2347 C   0  0  0  0  0  0  0  0  0  0  0  0
  -29.0335  -24.4812   26.3821 C   0  0  0  0  0  0  0  0  0  0  0  0
  -31.2626  -13.8785   20.9064 C   0  0  0  0  0  0  0  0  0  0  0  0
  -24.4182  -31.3532   21.4247 C   0  0  0  0  0  0  0  0  0  0  0  0
  -24.9459  -24.0816   22.0559 C   0  0  0  0  0  0  0  0  0  0  0  0
  -27.8288  -24.5740   22.4937 C   0  0  0  0  0  0  0  0  0  0  0  0
  -25.6483  -30.5206   21.7764 C   0  0  0  0  0  0  0  0  0  0  0  0
  -29.4405  -12.6979   18.0845 C   0  0  0  0  0  0  0  0  0  0  0  0
  -25.9825  -29.5566   20.6425 C   0  0  0  0  0  0  0  0  0  0  0  0
  -28.0370  -12.4418   18.6364 C   0  0  0  0  0  0  0  0  0  0  0  0
  -30.5209  -12.3479   19.1054 C   0  0  0  0  0  0  0  0  0  0  0  0
  -28.9608  -12.7411   20.9722 C   0  0  0  0  0  0  0  0  0  0  0  0
  -24.8340  -28.5696   20.4010 C   0  0  1  0  0  0  0  0  0  0  0  0
  -25.4723  -25.4509   22.4746 C   0  0  1  0  0  0  0  0  0  0  0  0
  -27.8356  -13.1321   19.9988 C   0  0  2  0  0  0  0  0  0  0  0  0
  -27.4487  -19.7216   25.1099 C   0  0  0  0  0  0  0  0  0  0  0  0
  -30.2039  -23.9103   28.5272 C   0  0  0  0  0  0  0  0  0  0  0  0
  -29.0602  -28.2602   23.2460 C   0  0  0  0  0  0  0  0  0  0  0  0
  -30.5238  -27.6347   25.1786 C   0  0  0  0  0  0  0  0  0  0  0  0
  -28.2708  -28.6229   25.5911 C   0  0  0  0  0  0  0  0  0  0  0  0
  -26.7285  -22.8996   27.3539 C   0  0  0  0  0  0  0  0  0  0  0  0
  -29.6941  -18.1096   20.1719 C   0  0  0  0  0  0  0  0  0  0  0  0
  -30.6249  -19.2714   19.8180 C   0  0  0  0  0  0  0  0  0  0  0  0
  -27.4995  -18.2632   24.6879 C   0  0  0  0  0  0  0  0  0  0  0  0
  -31.8572  -15.3969   22.7772 C   0  0  0  0  0  0  0  0  0  0  0  0
  -30.0589  -20.6352   20.1961 C   0  0  0  0  0  0  0  0  0  1  0  0
  -31.6875  -16.8734   22.3510 C   0  0  2  0  0  0  0  0  0  0  0  0
  -28.4460  -26.2478   24.7424 C   0  0  1  0  0  0  0  0  0  0  0  0
  -28.8600  -24.1064   27.8428 C   0  0  2  0  0  0  0  0  0  0  0  0
  -29.0665  -27.6717   24.6710 C   0  0  0  0  0  0  0  0  0  0  0  0
  -25.8806  -11.6623   20.3148 N   0  0  0  0  0  0  0  0  0  0  0  0
  -28.4737  -18.0287   23.6468 N   0  0  0  0  0  0  0  0  0  0  0  0
  -26.4602  -12.8470   20.5729 N   0  0  0  0  0  0  0  0  0  0  0  0
  -26.7759  -25.3769   23.1374 N   0  0  0  0  0  0  0  0  0  0  0  0
  -30.2724  -13.0361   20.3745 N   0  0  0  0  0  0  0  0  0  0  0  0
  -26.1355  -14.9015   21.7061 N   0  0  0  0  0  0  0  0  0  0  0  0
  -22.3409  -12.6158   22.5852 N   0  0  0  0  0  0  0  0  0  0  0  0
  -24.8413  -27.5296   21.4074 N   0  0  0  0  0  0  0  0  0  0  0  0
  -28.4140  -25.6766   26.0845 N   0  0  0  0  0  0  0  0  0  0  0  0
  -30.9437  -14.4969   22.1091 N   0  0  0  0  0  0  0  0  0  0  0  0
  -32.7871  -17.6623   23.0248 N   0  3  0  0  0  0  0  0  0  0  0  0
  -28.0818  -22.8413   27.9641 N   0  3  0  0  0  0  0  0  0  0  0  0
  -23.4430  -14.5972   22.9287 O   0  0  0  0  0  0  0  0  0  0  0  0
  -26.3937  -26.1132   20.4040 O   0  0  0  0  0  0  0  0  0  0  0  0
  -26.1654  -26.8980   24.7957 O   0  0  0  0  0  0  0  0  0  0  0  0
  -29.6594  -23.7852   25.5856 O   0  0  0  0  0  0  0  0  0  0  0  0
  -32.3482  -14.0697   20.3479 O   0  0  0  0  0  0  0  0  0  0  0  0
  -21.1034   -7.4814   20.8126 O   0  0  0  0  0  0  0  0  0  0  0  0
  -28.8197  -20.8221   19.5138 O   0  0  0  0  0  0  0  0  0  1  0  0
  -20.1793   -5.0617   15.9448 F   0  0  0  0  0  0  0  0  0  0  0  0
  -23.1655   -6.2956   19.4039 F   0  0  0  0  0  0  0  0  0  0  0  0
  1  2  1  0  0  0  0
  1  5  2  0  0  0  0
  2  6  2  0  0  0  0
  3  8  2  0  0  0  0
  3 17  1  0  0  0  0
  4  9  1  0  0  0  0
  4 17  2  0  0  0  0
  5 19  1  0  0  0  0
  6 21  1  0  0  0  0
  7 10  2  0  0  0  0
  7 20  1  0  0  0  0
  8 25  1  0  0  0  0
  9 25  2  0  0  0  0
 10 26  1  0  0  0  0
 11 12  2  0  0  0  0
 11 27  1  0  0  0  0
 12 28  1  0  0  0  0
 13 22  1  0  0  0  0
 13 26  2  0  0  0  0
 14 28  2  0  0  0  0
 14 29  1  0  0  0  0
 15 23  2  0  0  0  0
 15 65  1  0  0  0  0
 16 24  2  0  0  0  0
 16 65  1  0  0  0  0
 17 30  1  0  0  0  0
 18 30  1  0  0  0  0
 18 31  2  0  0  0  0
 18 32  1  0  0  0  0
 19 21  2  0  0  0  0
 19 37  1  0  0  0  0
 20 22  2  0  0  0  0
 20 38  1  0  0  0  0
 21 46  1  0  0  0  0
 22 39  1  0  0  0  0
 23 24  1  0  0  0  0
 23 55  1  0  0  0  0
 24 60  1  0  0  0  0
 25 81  1  0  0  0  0
 26 82  1  0  0  0  0
 27 29  2  0  0  0  0
 27 81  1  0  0  0  0
 28 83  1  0  0  0  0
 29 84  1  0  0  0  0
 30 64  2  0  0  0  0
 31 66  1  0  0  0  0
 31 69  1  0  0  0  0
 32 70  1  0  0  0  0
 32 76  2  0  0  0  0
 33 47  1  0  0  0  0
 33 71  1  0  0  0  0
 33 77  2  0  0  0  0
 34 61  1  0  0  0  0
 34 67  1  0  0  0  0
 34 78  2  0  0  0  0
 35 62  1  0  0  0  0
 35 72  1  0  0  0  0
 35 79  2  0  0  0  0
 36 68  1  0  0  0  0
 36 73  1  0  0  0  0
 36 80  2  0  0  0  0
 37 40  1  0  0  0  0
 38 47  1  0  0  0  0
 39 67  1  0  0  0  0
 40 42  1  0  0  0  0
 41 43  1  0  0  0  0
 41 44  1  0  0  0  0
 42 46  1  0  0  0  0
 43 48  1  0  0  0  0
 44 68  1  0  0  0  0
 45 48  1  0  0  0  0
 45 68  1  0  0  0  0
 46 71  1  0  0  0  0
 47 67  1  0  0  0  0
 48 66  1  0  0  0  0
 49 57  1  0  0  0  0
 50 62  1  0  0  0  0
 51 63  1  0  0  0  0
 52 63  1  0  0  0  0
 53 63  1  0  0  0  0
 54 75  1  0  0  0  0
 55 56  1  0  0  0  0
 56 59  1  0  0  0  0
 57 65  1  0  0  0  0
 58 60  1  0  0  0  0
 58 73  1  0  0  0  0
 59 82  1  0  0  0  0
 60 74  1  0  0  0  0
 61 63  1  0  0  0  0
 61 72  1  0  0  0  0
 62 75  1  0  0  0  0
 64 66  1  0  0  0  0
M  CHG  2  74   1  75   1
M  ISO  4  36 100  59 101  73 100  82 101
M  END
> <Batch ID>
0078

> <Smiles>
CCn1cc(CC[101CH2:1][101O:1]c2ccc3c(c2)CN(C(=O)C(NC(=O)C(C)NC)C(C)(C)C)C(C(=O)NC2CCCc4ccccc42)C3)c(C(N)C[100NH:0][100C:0](=O)N2CCCC(n3nc(-c4ccc(Oc5ccc(F)cc5F)cc4)c(C(N)=O)c3N)C2)c1

> <Shape>
0.240

> <Color>
0.135

> <Negative vol penalty>
0.000

$$$$

  -OEChem-04052318393D

 84 92  0     1  0  0  0  0  0999 V2000
  -18.4336  -24.0480   22.8983 C   0  0  0  0  0  0  0  0  0  0  0  0
  -19.6196  -24.0848   22.1721 C   0  0  0  0  0  0  0  0  0  0  0  0
  -22.2032  -10.9590   22.4136 C   0  0  0  0  0  0  0  0  0  0  0  0
  -21.8075  -10.8565   20.0324 C   0  0  0  0  0  0  0  0  0  0  0  0
  -17.8052  -25.2372   23.2655 C   0  0  0  0  0  0  0  0  0  0  0  0
  -20.1774  -25.3109   21.8116 C   0  0  0  0  0  0  0  0  0  0  0  0
  -25.1755  -25.4808   22.6082 C   0  0  0  0  0  0  0  0  0  0  0  0
  -21.5783   -9.7219   22.5707 C   0  0  0  0  0  0  0  0  0  0  0  0
  -21.1826   -9.6194   20.1895 C   0  0  0  0  0  0  0  0  0  0  0  0
  -25.9912  -24.8434   21.6743 C   0  0  0  0  0  0  0  0  0  0  0  0
  -20.4077   -6.4233   23.5527 C   0  0  0  0  0  0  0  0  0  0  0  0
  -21.0268   -5.4841   24.3773 C   0  0  0  0  0  0  0  0  0  0  0  0
  -26.4573  -26.9713   20.6380 C   0  0  0  0  0  0  0  0  0  0  0  0
  -22.9790   -5.5217   22.9544 C   0  0  0  0  0  0  0  0  0  0  0  0
  -23.8732  -22.3120   18.2112 C   0  0  0  0  0  0  0  0  0  0  0  0
  -22.3177  -11.5263   21.1444 C   0  0  0  0  0  0  0  0  0  0  0  0
  -24.3296  -13.0428   20.7440 C   0  0  0  0  0  0  0  0  0  0  0  0
  -18.3606  -26.4786   22.9177 C   0  0  0  0  0  0  0  0  0  0  0  0
  -24.9857  -26.8692   22.5573 C   0  0  0  0  0  0  0  0  0  0  0  0
  -19.5551  -26.5178   22.1733 C   0  0  0  0  0  0  0  0  0  0  0  0
  -25.6408  -27.6242   21.5740 C   0  0  0  0  0  0  0  0  0  0  0  0
  -21.0680   -9.0521   21.4586 C   0  0  0  0  0  0  0  0  0  0  0  0
  -26.6299  -25.5882   20.6873 C   0  0  0  0  0  0  0  0  0  0  0  0
  -21.0741   -6.9117   22.4288 C   0  0  0  0  0  0  0  0  0  0  0  0
  -22.3125   -5.0333   24.0782 C   0  0  0  0  0  0  0  0  0  0  0  0
  -22.3598   -6.4610   22.1297 C   0  0  0  0  0  0  0  0  0  0  0  0
  -22.9626  -12.8045   20.9816 C   0  0  0  0  0  0  0  0  0  0  0  0
  -22.7918  -21.5314   17.9145 C   0  0  0  0  0  0  0  0  0  0  0  0
  -24.4314  -14.4104   20.6674 C   0  0  0  0  0  0  0  0  0  0  0  0
  -23.3431  -22.6571   16.0898 C   0  0  0  0  0  0  0  0  0  0  0  0
  -25.4106  -12.1113   20.6049 C   0  0  0  0  0  0  0  0  0  0  0  0
  -22.4792  -28.7762   22.1271 C   0  0  0  0  0  0  0  0  0  0  0  0
  -22.5659  -19.1895   18.6780 C   0  0  0  0  0  0  0  0  0  0  0  0
  -24.6342  -31.1098   22.7849 C   0  0  0  0  0  0  0  0  0  0  0  0
  -27.8980  -32.1050   22.8489 C   0  0  0  0  0  0  0  0  0  0  0  0
  -17.6202  -27.7368   23.2962 C   0  0  0  0  0  0  0  0  0  0  0  0
  -24.1239  -27.5451   23.5884 C   0  0  0  0  0  0  0  0  0  0  0  0
  -25.4860  -29.1200   21.4885 C   0  0  0  0  0  0  0  0  0  0  0  0
  -18.4736  -28.9987   23.1981 C   0  0  0  0  0  0  0  0  0  0  0  0
  -21.1072  -18.0384   21.8043 C   0  0  0  0  0  0  0  0  0  0  0  0
  -19.2447  -29.0207   21.8822 C   0  0  0  0  0  0  0  0  0  0  0  0
  -21.5528  -16.5770   21.8297 C   0  0  0  0  0  0  0  0  0  0  0  0
  -20.8080  -18.5094   20.3835 C   0  0  0  0  0  0  0  0  0  0  0  0
  -22.3885  -16.8471   19.4545 C   0  0  0  0  0  0  0  0  0  0  0  0
  -20.2042  -27.8285   21.7850 C   0  0  1  0  0  0  0  0  0  0  0  0
  -23.5927  -28.8992   23.1285 C   0  0  1  0  0  0  0  0  0  0  0  0
  -22.7295  -16.3420   20.8665 C   0  0  2  0  0  0  0  0  0  0  0  0
  -23.3357  -23.1645   14.6951 C   0  0  0  0  0  0  0  0  0  0  0  0
  -29.3446  -34.0805   23.3986 C   0  0  0  0  0  0  0  0  0  0  0  0
  -27.0774  -22.2604   16.3213 C   0  0  0  0  0  0  0  0  0  0  0  0
  -23.7932  -32.4487   20.1753 C   0  0  0  0  0  0  0  0  0  0  0  0
  -25.8707  -33.8403   20.3009 C   0  0  0  0  0  0  0  0  0  0  0  0
  -24.1410  -34.0203   22.0893 C   0  0  0  0  0  0  0  0  0  0  0  0
  -29.1959  -23.8469   17.7993 C   0  0  0  0  0  0  0  0  0  0  0  0
  -28.0613  -25.2425   16.0637 C   0  0  0  0  0  0  0  0  0  0  0  0
  -29.3381  -30.6103   24.9587 C   0  0  0  0  0  0  0  0  0  0  0  0
  -22.0202  -20.5941   18.7348 C   0  0  0  0  0  0  0  0  0  0  0  0
  -25.3326  -23.9828   16.9289 C   0  0  0  0  0  0  0  0  0  0  0  0
  -27.5164  -25.5644   18.4806 C   0  0  0  0  0  0  0  0  0  1  0  0
  -25.5850  -31.9487   21.9657 C   0  0  1  0  0  0  0  0  0  0  0  0
  -28.7192  -32.7969   23.9220 C   0  0  2  0  0  0  0  0  0  0  0  0
  -26.7234  -23.3986   17.2989 C   0  0  2  0  0  0  0  0  0  0  0  0
  -24.8491  -33.0361   21.1329 C   0  0  0  0  0  0  0  0  0  0  0  0
  -27.8517  -24.5021   17.3993 C   0  0  0  0  0  0  0  0  0  0  0  0
  -22.2474  -13.9304   21.0515 N   0  0  0  0  0  0  0  0  0  0  0  0
  -24.1932  -22.9973   17.0640 N   0  0  0  0  0  0  0  0  0  0  0  0
  -23.1685  -14.8894   20.8567 N   0  0  0  0  0  0  0  0  0  0  0  0
  -22.4852  -21.7652   16.5956 N   0  3  0  0  0  0  0  0  0  0  0  0
  -24.6280  -29.7339   22.5154 N   0  0  0  0  0  0  0  0  0  0  0  0
  -21.9425  -18.2429   19.4913 N   0  0  0  0  0  0  0  0  0  0  0  0
  -25.4771  -15.2379   20.4573 N   0  0  0  0  0  0  0  0  0  0  0  0
  -25.1306  -10.7422   20.7111 N   0  0  0  0  0  0  0  0  0  0  0  0
  -21.3867  -28.0649   22.5852 N   0  0  0  0  0  0  0  0  0  0  0  0
  -26.5716  -32.4783   22.9009 N   0  0  0  0  0  0  0  0  0  0  0  0
  -29.8118  -31.9011   24.3961 N   0  3  0  0  0  0  0  0  0  0  0  0
  -26.5926  -12.4829   20.4090 O   0  0  0  0  0  0  0  0  0  0  0  0
  -22.6016  -29.2899   21.0213 O   0  0  0  0  0  0  0  0  0  0  0  0
  -23.5194  -18.9438   17.9346 O   0  0  0  0  0  0  0  0  0  0  0  0
  -23.9284  -31.6542   23.6376 O   0  0  0  0  0  0  0  0  0  0  0  0
  -28.3852  -31.3155   22.0428 O   0  0  0  0  0  0  0  0  0  0  0  0
  -20.4584   -7.8448   21.6115 O   0  0  0  0  0  0  0  0  0  0  0  0
  -27.4260  -24.9685   19.7740 O   0  0  0  0  0  0  0  0  0  1  0  0
  -22.9076   -4.1325   24.8710 F   0  0  0  0  0  0  0  0  0  0  0  0
  -23.0056   -6.9274   21.0521 F   0  0  0  0  0  0  0  0  0  0  0  0
  1  2  1  0  0  0  0
  1  5  2  0  0  0  0
  2  6  2  0  0  0  0
  3  8  2  0  0  0  0
  3 16  1  0  0  0  0
  4  9  1  0  0  0  0
  4 16  2  0  0  0  0
  5 18  1  0  0  0  0
  6 20  1  0  0  0  0
  7 10  2  0  0  0  0
  7 19  1  0  0  0  0
  8 22  1  0  0  0  0
  9 22  2  0  0  0  0
 10 23  1  0  0  0  0
 11 12  2  0  0  0  0
 11 24  1  0  0  0  0
 12 25  1  0  0  0  0
 13 21  1  0  0  0  0
 13 23  2  0  0  0  0
 14 25  2  0  0  0  0
 14 26  1  0  0  0  0
 15 28  2  0  0  0  0
 15 66  1  0  0  0  0
 16 27  1  0  0  0  0
 17 27  1  0  0  0  0
 17 29  2  0  0  0  0
 17 31  1  0  0  0  0
 18 20  2  0  0  0  0
 18 36  1  0  0  0  0
 19 21  2  0  0  0  0
 19 37  1  0  0  0  0
 20 45  1  0  0  0  0
 21 38  1  0  0  0  0
 22 81  1  0  0  0  0
 23 82  1  0  0  0  0
 24 26  2  0  0  0  0
 24 81  1  0  0  0  0
 25 83  1  0  0  0  0
 26 84  1  0  0  0  0
 27 65  2  0  0  0  0
 28 57  1  0  0  0  0
 28 68  1  0  0  0  0
 29 67  1  0  0  0  0
 29 71  1  0  0  0  0
 30 48  1  0  0  0  0
 30 66  1  0  0  0  0
 30 68  2  0  0  0  0
 31 72  1  0  0  0  0
 31 76  2  0  0  0  0
 32 46  1  0  0  0  0
 32 73  1  0  0  0  0
 32 77  2  0  0  0  0
 33 57  1  0  0  0  0
 33 70  1  0  0  0  0
 33 78  2  0  0  0  0
 34 60  1  0  0  0  0
 34 69  1  0  0  0  0
 34 79  2  0  0  0  0
 35 61  1  0  0  0  0
 35 74  1  0  0  0  0
 35 80  2  0  0  0  0
 36 39  1  0  0  0  0
 37 46  1  0  0  0  0
 38 69  1  0  0  0  0
 39 41  1  0  0  0  0
 40 42  1  0  0  0  0
 40 43  1  0  0  0  0
 41 45  1  0  0  0  0
 42 47  1  0  0  0  0
 43 70  1  0  0  0  0
 44 47  1  0  0  0  0
 44 70  1  0  0  0  0
 45 73  1  0  0  0  0
 46 69  1  0  0  0  0
 47 67  1  0  0  0  0
 49 61  1  0  0  0  0
 50 62  1  0  0  0  0
 51 63  1  0  0  0  0
 52 63  1  0  0  0  0
 53 63  1  0  0  0  0
 54 64  1  0  0  0  0
 55 64  1  0  0  0  0
 56 75  1  0  0  0  0
 58 62  1  0  0  0  0
 58 66  1  0  0  0  0
 59 64  1  0  0  0  0
 59 82  1  0  0  0  0
 60 63  1  0  0  0  0
 60 74  1  0  0  0  0
 61 75  1  0  0  0  0
 62 64  1  0  0  0  0
 65 67  1  0  0  0  0
M  CHG  2  68   1  75   1
M  ISO  4  33 100  57 100  59 101  82 101
M  END
> <Batch ID>
0078

> <Smiles>
CNC(C)C(=O)NC(C(=O)N1Cc2cc([101O:1][101CH2:1]C(C)(C)C(C)Cn3cc([100CH2:0][100C:0](=O)N4CCCC(n5nc(-c6ccc(Oc7ccc(F)cc7F)cc6)c(C(N)=O)c5N)C4)nc3C)ccc2CC1C(=O)NC1CCCc2ccccc21)C(C)(C)C

> <Shape>
0.229

> <Color>
0.100

> <Negative vol penalty>
0.000

$$$$

  -OEChem-04052318393D

 86 94  0     1  0  0  0  0  0999 V2000
  -29.1530  -24.1029   18.7178 C   0  0  0  0  0  0  0  0  0  0  0  0
  -27.8713  -24.3727   19.1868 C   0  0  0  0  0  0  0  0  0  0  0  0
  -27.0865  -18.0598   21.1524 C   0  0  0  0  0  0  0  0  0  0  0  0
  -27.3093  -19.2453   19.0590 C   0  0  0  0  0  0  0  0  0  0  0  0
  -30.2545  -24.7211   19.3081 C   0  0  0  0  0  0  0  0  0  0  0  0
  -27.6905  -25.2601   20.2471 C   0  0  0  0  0  0  0  0  0  0  0  0
  -23.8986  -28.5158   19.4308 C   0  0  0  0  0  0  0  0  0  0  0  0
  -28.3705  -17.5384   20.9938 C   0  0  0  0  0  0  0  0  0  0  0  0
  -28.5934  -18.7240   18.9005 C   0  0  0  0  0  0  0  0  0  0  0  0
  -22.6009  -28.0412   19.6162 C   0  0  0  0  0  0  0  0  0  0  0  0
  -31.5560  -18.5921   21.4125 C   0  0  0  0  0  0  0  0  0  0  0  0
  -32.4044  -18.6107   22.5195 C   0  0  0  0  0  0  0  0  0  0  0  0
  -22.5364  -29.0844   21.7903 C   0  0  0  0  0  0  0  0  0  0  0  0
  -32.5786  -16.2028   22.4263 C   0  0  0  0  0  0  0  0  0  0  0  0
  -26.5559  -18.9132   20.1849 C   0  0  0  0  0  0  0  0  0  0  0  0
  -24.8723  -20.6525   20.9897 C   0  0  0  0  0  0  0  0  0  0  0  0
  -30.0864  -25.6238   20.3699 C   0  0  0  0  0  0  0  0  0  0  0  0
  -24.5301  -29.2704   20.4300 C   0  0  0  0  0  0  0  0  0  0  0  0
  -28.7909  -25.8899   20.8531 C   0  0  0  0  0  0  0  0  0  0  0  0
  -23.8412  -29.5696   21.6141 C   0  0  0  0  0  0  0  0  0  0  0  0
  -19.1957  -22.9026   24.0861 C   0  0  0  0  0  0  0  0  0  0  0  0
  -29.1240  -17.8705   19.8679 C   0  0  0  0  0  0  0  0  0  0  0  0
  -21.9206  -28.3230   20.7973 C   0  0  0  0  0  0  0  0  0  0  0  0
  -31.2188  -17.3789   20.8124 C   0  0  0  0  0  0  0  0  0  0  0  0
  -32.9158  -17.4160   23.0264 C   0  0  0  0  0  0  0  0  0  0  0  0
  -31.7302  -16.1842   21.3193 C   0  0  0  0  0  0  0  0  0  0  0  0
  -25.2294  -19.4516   20.3479 C   0  0  0  0  0  0  0  0  0  0  0  0
  -19.6752  -21.7242   23.5515 C   0  0  0  0  0  0  0  0  0  0  0  0
  -18.3524  -23.6288   23.2702 C   0  0  0  0  0  0  0  0  0  0  0  0
  -23.5047  -20.7094   20.8755 C   0  0  0  0  0  0  0  0  0  0  0  0
  -18.5308  -22.0764   21.6193 C   0  0  0  0  0  0  0  0  0  0  0  0
  -25.7025  -21.6293   21.6318 C   0  0  0  0  0  0  0  0  0  0  0  0
  -27.1272  -28.8912   22.2230 C   0  0  0  0  0  0  0  0  0  0  0  0
  -26.4267  -31.9081   23.1873 C   0  0  0  0  0  0  0  0  0  0  0  0
  -24.0753  -34.3486   23.5899 C   0  0  0  0  0  0  0  0  0  0  0  0
  -19.0707  -20.1360   17.3644 C   0  0  0  0  0  0  0  0  0  0  0  0
  -31.3110  -26.2314   21.0070 C   0  0  0  0  0  0  0  0  0  0  0  0
  -25.9204  -29.7976   20.2036 C   0  0  0  0  0  0  0  0  0  0  0  0
  -24.4671  -30.3926   22.7093 C   0  0  0  0  0  0  0  0  0  0  0  0
  -31.0045  -27.4454   21.8802 C   0  0  0  0  0  0  0  0  0  0  0  0
  -20.1600  -17.2326   19.3856 C   0  0  0  0  0  0  0  0  0  0  0  0
  -29.8197  -27.1583   22.7970 C   0  0  0  0  0  0  0  0  0  0  0  0
  -21.5745  -17.6300   19.8042 C   0  0  0  0  0  0  0  0  0  0  0  0
  -19.7610  -17.8703   18.0583 C   0  0  0  0  0  0  0  0  0  0  0  0
  -21.3199  -19.7487   18.4525 C   0  0  0  0  0  0  0  0  0  0  0  0
  -28.5522  -26.8655   21.9850 C   0  0  1  0  0  0  0  0  0  0  0  0
  -26.6553  -30.1213   21.5007 C   0  0  1  0  0  0  0  0  0  0  0  0
  -21.7357  -19.1602   19.8091 C   0  0  2  0  0  0  0  0  0  0  0  0
  -19.5629  -23.3591   25.4535 C   0  0  0  0  0  0  0  0  0  0  0  0
  -20.5959  -20.8544   24.3429 C   0  0  0  0  0  0  0  0  0  0  0  0
  -23.7955  -36.6937   24.4381 C   0  0  0  0  0  0  0  0  0  0  0  0
  -26.5214  -30.8786   26.0580 C   0  0  0  0  0  0  0  0  0  0  0  0
  -25.3296  -32.9618   26.7707 C   0  0  0  0  0  0  0  0  0  0  0  0
  -27.5852  -33.1161   25.7165 C   0  0  0  0  0  0  0  0  0  0  0  0
  -17.9148  -22.3055   17.1727 C   0  0  0  0  0  0  0  0  0  0  0  0
  -23.2158  -35.3304   20.9336 C   0  0  0  0  0  0  0  0  0  0  0  0
  -17.7665  -24.9345   23.7452 C   0  0  0  0  0  0  0  0  0  0  0  0
  -18.1593  -21.6162   20.2505 C   0  0  0  0  0  0  0  0  0  0  0  0
  -18.7565  -26.1042   23.7165 C   0  0  0  0  0  0  0  0  0  0  0  0
  -19.2418  -26.4433   22.3064 C   0  0  0  0  0  0  0  0  0  0  0  0
  -19.2489  -21.8674   19.2010 C   0  0  0  0  0  0  0  0  0  0  0  0
  -20.2524  -27.5822   22.3218 C   0  0  0  0  0  0  0  0  0  1  0  0
  -25.5885  -32.5110   24.2886 C   0  0  1  0  0  0  0  0  0  0  0  0
  -24.0802  -35.8221   23.2248 C   0  0  2  0  0  0  0  0  0  0  0  0
  -26.2448  -32.3497   25.6888 C   0  0  0  0  0  0  0  0  0  0  0  0
  -24.1738  -18.7930   19.8620 N   0  0  0  0  0  0  0  0  0  0  0  0
  -19.3621  -21.2791   22.3169 N   0  0  0  0  0  0  0  0  0  0  0  0
  -17.9976  -23.2440   22.0266 N   0  0  0  0  0  0  0  0  0  0  0  0
  -23.1400  -19.5828   20.1988 N   0  0  0  0  0  0  0  0  0  0  0  0
  -25.8306  -30.8800   22.4433 N   0  0  0  0  0  0  0  0  0  0  0  0
  -19.9649  -19.3192   18.0758 N   0  0  0  0  0  0  0  0  0  0  0  0
  -22.5906  -21.6127   21.2889 N   0  0  0  0  0  0  0  0  0  0  0  0
  -27.0873  -21.4152   21.6588 N   0  0  0  0  0  0  0  0  0  0  0  0
  -27.9793  -28.0954   21.4814 N   0  0  0  0  0  0  0  0  0  0  0  0
  -25.3398  -33.8954   23.9011 N   0  0  0  0  0  0  0  0  0  0  0  0
  -18.8424  -21.4252   17.8688 N   0  0  0  0  0  0  0  0  0  0  0  0
  -23.0443  -36.1030   22.1909 N   0  3  0  0  0  0  0  0  0  0  0  0
  -25.2288  -22.6533   22.1801 O   0  0  0  0  0  0  0  0  0  0  0  0
  -26.7475  -28.6805   23.3690 O   0  0  0  0  0  0  0  0  0  0  0  0
  -27.5657  -32.3386   22.9896 O   0  0  0  0  0  0  0  0  0  0  0  0
  -23.0516  -33.6686   23.6017 O   0  0  0  0  0  0  0  0  0  0  0  0
  -18.5013  -19.7324   16.3422 O   0  0  0  0  0  0  0  0  0  0  0  0
  -30.3770  -17.3622   19.7130 O   0  0  0  0  0  0  0  0  0  0  0  0
  -20.6541  -27.8604   20.9810 O   0  0  0  0  0  0  0  0  0  1  0  0
  -33.7317  -17.4341   24.0885 F   0  0  0  0  0  0  0  0  0  0  0  0
  -31.4108  -15.0157   20.7463 F   0  0  0  0  0  0  0  0  0  0  0  0
  1  2  1  0  0  0  0
  1  5  2  0  0  0  0
  2  6  2  0  0  0  0
  3  8  2  0  0  0  0
  3 15  1  0  0  0  0
  4  9  1  0  0  0  0
  4 15  2  0  0  0  0
  5 17  1  0  0  0  0
  6 19  1  0  0  0  0
  7 10  2  0  0  0  0
  7 18  1  0  0  0  0
  8 22  1  0  0  0  0
  9 22  2  0  0  0  0
 10 23  1  0  0  0  0
 11 12  2  0  0  0  0
 11 24  1  0  0  0  0
 12 25  1  0  0  0  0
 13 20  1  0  0  0  0
 13 23  2  0  0  0  0
 14 25  2  0  0  0  0
 14 26  1  0  0  0  0
 15 27  1  0  0  0  0
 16 27  1  0  0  0  0
 16 30  2  0  0  0  0
 16 32  1  0  0  0  0
 17 19  2  0  0  0  0
 17 37  1  0  0  0  0
 18 20  2  0  0  0  0
 18 38  1  0  0  0  0
 19 46  1  0  0  0  0
 20 39  1  0  0  0  0
 21 28  1  0  0  0  0
 21 29  2  0  0  0  0
 21 49  1  0  0  0  0
 22 83  1  0  0  0  0
 23 84  1  0  0  0  0
 24 26  2  0  0  0  0
 24 83  1  0  0  0  0
 25 85  1  0  0  0  0
 26 86  1  0  0  0  0
 27 66  2  0  0  0  0
 28 50  1  0  0  0  0
 28 67  2  0  0  0  0
 29 57  1  0  0  0  0
 29 68  1  0  0  0  0
 30 69  1  0  0  0  0
 30 72  1  0  0  0  0
 31 58  1  0  0  0  0
 31 67  1  0  0  0  0
 31 68  2  0  0  0  0
 32 73  1  0  0  0  0
 32 78  2  0  0  0  0
 33 47  1  0  0  0  0
 33 74  1  0  0  0  0
 33 79  2  0  0  0  0
 34 63  1  0  0  0  0
 34 70  1  0  0  0  0
 34 80  2  0  0  0  0
 35 64  1  0  0  0  0
 35 75  1  0  0  0  0
 35 81  2  0  0  0  0
 36 71  1  0  0  0  0
 36 76  1  0  0  0  0
 36 82  2  0  0  0  0
 37 40  1  0  0  0  0
 38 47  1  0  0  0  0
 39 70  1  0  0  0  0
 40 42  1  0  0  0  0
 41 43  1  0  0  0  0
 41 44  1  0  0  0  0
 42 46  1  0  0  0  0
 43 48  1  0  0  0  0
 44 71  1  0  0  0  0
 45 48  1  0  0  0  0
 45 71  1  0  0  0  0
 46 74  1  0  0  0  0
 47 70  1  0  0  0  0
 48 69  1  0  0  0  0
 51 64  1  0  0  0  0
 52 65  1  0  0  0  0
 53 65  1  0  0  0  0
 54 65  1  0  0  0  0
 55 76  1  0  0  0  0
 56 77  1  0  0  0  0
 57 59  1  0  0  0  0
 58 61  1  0  0  0  0
 59 60  1  0  0  0  0
 60 62  1  0  0  0  0
 61 76  1  0  0  0  0
 62 84  1  0  0  0  0
 63 65  1  0  0  0  0
 63 75  1  0  0  0  0
 64 77  1  0  0  0  0
 66 69  1  0  0  0  0
M  CHG  1  77   1
M  ISO  4  36 100  62 101  76 100  84 101
M  END
> <Batch ID>
0078

> <Smiles>
CNC(C)C(=O)NC(C(=O)N1Cc2cc([101O:1][101CH2:1]CCCc3nc(CC[100N:0](C)[100C:0](=O)N4CCCC(n5nc(-c6ccc(Oc7ccc(F)cc7F)cc6)c(C(N)=O)c5N)C4)nc(C)c3C)ccc2CC1C(=O)NC1CCCc2ccccc21)C(C)(C)C

> <Shape>
0.231

> <Color>
0.051

> <Negative vol penalty>
0.000

$$$$

  -OEChem-04052318393D

 87 95  0     1  0  0  0  0  0999 V2000
  -17.0858  -24.6767   22.8326 C   0  0  0  0  0  0  0  0  0  0  0  0
  -18.0049  -24.2659   21.8725 C   0  0  0  0  0  0  0  0  0  0  0  0
  -27.5785  -12.5201   23.0433 C   0  0  0  0  0  0  0  0  0  0  0  0
  -26.4896  -12.9698   20.9340 C   0  0  0  0  0  0  0  0  0  0  0  0
  -17.1180  -25.9857   23.3117 C   0  0  0  0  0  0  0  0  0  0  0  0
  -18.9561  -25.1641   21.3901 C   0  0  0  0  0  0  0  0  0  0  0  0
  -25.6973  -25.3964   18.9778 C   0  0  0  0  0  0  0  0  0  0  0  0
  -26.4497  -11.8255   23.4780 C   0  0  0  0  0  0  0  0  0  0  0  0
  -25.3608  -12.2751   21.3687 C   0  0  0  0  0  0  0  0  0  0  0  0
  -26.4368  -25.8596   17.8904 C   0  0  0  0  0  0  0  0  0  0  0  0
  -24.3919   -9.0538   21.6926 C   0  0  0  0  0  0  0  0  0  0  0  0
  -23.8046   -8.1536   20.8037 C   0  0  0  0  0  0  0  0  0  0  0  0
  -26.4482  -28.0733   18.8489 C   0  0  0  0  0  0  0  0  0  0  0  0
  -29.4957  -25.8023   17.4726 C   0  0  0  0  0  0  0  0  0  0  0  0
  -28.6938  -24.3110   15.7645 C   0  0  0  0  0  0  0  0  0  0  0  0
  -21.7426   -9.4094   20.8944 C   0  0  0  0  0  0  0  0  0  0  0  0
  -27.5984  -13.0923   21.7713 C   0  0  0  0  0  0  0  0  0  0  0  0
  -29.8748  -13.2839   20.6360 C   0  0  0  0  0  0  0  0  0  0  0  0
  -18.0763  -26.8977   22.8420 C   0  0  0  0  0  0  0  0  0  0  0  0
  -25.3178  -26.2720   20.0053 C   0  0  0  0  0  0  0  0  0  0  0  0
  -19.0004  -26.4869   21.8624 C   0  0  0  0  0  0  0  0  0  0  0  0
  -25.7061  -27.6181   19.9495 C   0  0  0  0  0  0  0  0  0  0  0  0
  -28.7114  -25.5732   16.3475 C   0  0  0  0  0  0  0  0  0  0  0  0
  -25.3409  -11.7030   22.6407 C   0  0  0  0  0  0  0  0  0  0  0  0
  -26.8099  -27.1988   17.8244 C   0  0  0  0  0  0  0  0  0  0  0  0
  -23.6546  -10.1318   22.1826 C   0  0  0  0  0  0  0  0  0  0  0  0
  -22.4800   -8.3314   20.4045 C   0  0  0  0  0  0  0  0  0  0  0  0
  -22.3299  -10.3096   21.7834 C   0  0  0  0  0  0  0  0  0  0  0  0
  -28.7640  -13.8104   21.3220 C   0  0  0  0  0  0  0  0  0  0  0  0
  -30.2380  -24.7444   17.9721 C   0  0  0  0  0  0  0  0  0  0  0  0
  -29.4721  -23.3199   16.3404 C   0  0  0  0  0  0  0  0  0  0  0  0
  -30.7003  -14.3639   20.4391 C   0  0  0  0  0  0  0  0  0  0  0  0
  -30.1371  -11.9388   20.2144 C   0  0  0  0  0  0  0  0  0  0  0  0
  -22.5426  -27.2852   21.1780 C   0  0  0  0  0  0  0  0  0  0  0  0
  -24.4413  -28.7062   23.3911 C   0  0  0  0  0  0  0  0  0  0  0  0
  -27.5129  -29.9534   24.2016 C   0  0  0  0  0  0  0  0  0  0  0  0
  -29.6937  -20.2562   20.0958 C   0  0  0  0  0  0  0  0  0  0  0  0
  -18.0419  -28.3155   23.3551 C   0  0  0  0  0  0  0  0  0  0  0  0
  -24.5430  -25.7509   21.1846 C   0  0  0  0  0  0  0  0  0  0  0  0
  -25.3412  -28.5945   21.0367 C   0  0  0  0  0  0  0  0  0  0  0  0
  -19.3199  -29.0989   23.0665 C   0  0  0  0  0  0  0  0  0  0  0  0
  -31.8682  -18.5845   22.3660 C   0  0  0  0  0  0  0  0  0  0  0  0
  -19.7527  -28.8993   21.6175 C   0  0  0  0  0  0  0  0  0  0  0  0
  -31.4194  -17.1239   22.2940 C   0  0  0  0  0  0  0  0  0  0  0  0
  -30.6861  -19.5444   22.2511 C   0  0  0  0  0  0  0  0  0  0  0  0
  -29.3801  -17.8719   20.9977 C   0  0  0  0  0  0  0  0  0  0  0  0
  -20.0632  -27.4249   21.3326 C   0  0  1  0  0  0  0  0  0  0  0  0
  -23.7708  -26.8411   21.9210 C   0  0  1  0  0  0  0  0  0  0  0  0
  -30.5434  -16.8670   21.0530 C   0  0  2  0  0  0  0  0  0  0  0  0
  -31.0899  -24.9531   19.1793 C   0  0  0  0  0  0  0  0  0  0  0  0
  -25.6860  -27.2954   14.5199 C   0  0  0  0  0  0  0  0  0  0  0  0
  -30.5093  -21.8816   14.5878 C   0  0  0  0  0  0  0  0  0  0  0  0
  -28.7495  -31.0845   26.0694 C   0  0  0  0  0  0  0  0  0  0  0  0
  -29.7658  -19.4081   16.1503 C   0  0  0  0  0  0  0  0  0  0  0  0
  -28.6934  -27.4677   14.7027 C   0  0  0  0  0  0  0  0  0  0  0  0
  -23.0358  -31.3321   22.7283 C   0  0  0  0  0  0  0  0  0  0  0  0
  -24.9026  -32.5409   23.8781 C   0  0  0  0  0  0  0  0  0  0  0  0
  -23.4615  -30.9628   25.1648 C   0  0  0  0  0  0  0  0  0  0  0  0
  -29.4485  -27.7256   24.4245 C   0  0  0  0  0  0  0  0  0  0  0  0
  -26.5530  -26.1933   15.1233 C   0  0  0  0  0  0  0  0  0  0  0  0
  -28.6502  -20.8151   17.9146 C   0  0  0  0  0  0  0  0  0  0  0  0
  -29.4786  -21.9539   15.7397 C   0  0  1  0  0  0  0  0  0  0  0  0
  -25.1333  -30.0430   23.5061 C   0  0  1  0  0  0  0  0  0  0  0  0
  -28.3900  -29.7549   25.4246 C   0  0  2  0  0  0  0  0  0  0  0  0
  -29.7062  -20.8039   16.7893 C   0  0  2  0  0  0  0  0  0  0  0  0
  -27.8714  -26.7041   15.7546 C   0  0  1  0  0  0  0  0  0  1  0  0
  -24.1387  -31.2020   23.7977 C   0  0  0  0  0  0  0  0  0  0  0  0
  -28.8709  -15.1228   21.5460 N   0  0  0  0  0  0  0  0  0  0  0  0
  -30.2465  -23.5047   17.4331 N   0  0  0  0  0  0  0  0  0  0  0  0
  -30.0588  -15.4300   20.9977 N   0  0  0  0  0  0  0  0  0  0  0  0
  -24.5778  -28.0382   22.1660 N   0  0  0  0  0  0  0  0  0  0  0  0
  -29.8971  -19.2483   21.0528 N   0  0  0  0  0  0  0  0  0  0  0  0
  -31.9050  -14.4960   19.8445 N   0  0  0  0  0  0  0  0  0  0  0  0
  -29.1830  -10.9519   20.4973 N   0  0  0  0  0  0  0  0  0  0  0  0
  -21.3620  -27.0702   21.8633 N   0  0  0  0  0  0  0  0  0  0  0  0
  -26.1726  -29.8791   24.5167 N   0  0  0  0  0  0  0  0  0  0  0  0
  -28.9400  -19.8900   18.9874 N   0  0  0  0  0  0  0  0  0  0  0  0
  -29.6526  -29.0580   25.0490 N   0  3  0  0  0  0  0  0  0  0  0  0
  -31.1938  -11.6185   19.6192 O   0  0  0  0  0  0  0  0  0  0  0  0
  -22.6576  -27.7872   20.0661 O   0  0  0  0  0  0  0  0  0  0  0  0
  -23.8092  -28.2675   24.3553 O   0  0  0  0  0  0  0  0  0  0  0  0
  -27.9709  -30.1578   23.0795 O   0  0  0  0  0  0  0  0  0  0  0  0
  -30.1544  -21.3964   20.2175 O   0  0  0  0  0  0  0  0  0  0  0  0
  -24.2393  -11.0251   23.0645 O   0  0  0  0  0  0  0  0  0  0  0  0
  -27.5311  -27.6537   16.7639 O   0  0  0  0  0  0  0  0  0  1  0  0
  -21.9166   -7.4677   19.5496 F   0  0  0  0  0  0  0  0  0  0  0  0
  -21.6169  -11.3439   22.2498 F   0  0  0  0  0  0  0  0  0  0  0  0
  1  2  1  0  0  0  0
  1  5  2  0  0  0  0
  2  6  2  0  0  0  0
  3  8  2  0  0  0  0
  3 17  1  0  0  0  0
  4  9  1  0  0  0  0
  4 17  2  0  0  0  0
  5 19  1  0  0  0  0
  6 21  1  0  0  0  0
  7 10  2  0  0  0  0
  7 20  1  0  0  0  0
  8 24  1  0  0  0  0
  9 24  2  0  0  0  0
 10 25  1  0  0  0  0
 11 12  2  0  0  0  0
 11 26  1  0  0  0  0
 12 27  1  0  0  0  0
 13 22  1  0  0  0  0
 13 25  2  0  0  0  0
 14 23  1  0  0  0  0
 14 30  2  0  0  0  0
 15 23  2  0  0  0  0
 15 31  1  0  0  0  0
 16 27  2  0  0  0  0
 16 28  1  0  0  0  0
 17 29  1  0  0  0  0
 18 29  1  0  0  0  0
 18 32  2  0  0  0  0
 18 33  1  0  0  0  0
 19 21  2  0  0  0  0
 19 38  1  0  0  0  0
 20 22  2  0  0  0  0
 20 39  1  0  0  0  0
 21 47  1  0  0  0  0
 22 40  1  0  0  0  0
 23 66  1  0  0  0  0
 24 84  1  0  0  0  0
 25 85  1  0  0  0  0
 26 28  2  0  0  0  0
 26 84  1  0  0  0  0
 27 86  1  0  0  0  0
 28 87  1  0  0  0  0
 29 68  2  0  0  0  0
 30 50  1  0  0  0  0
 30 69  1  0  0  0  0
 31 62  1  0  0  0  0
 31 69  2  0  0  0  0
 32 70  1  0  0  0  0
 32 73  1  0  0  0  0
 33 74  1  0  0  0  0
 33 79  2  0  0  0  0
 34 48  1  0  0  0  0
 34 75  1  0  0  0  0
 34 80  2  0  0  0  0
 35 63  1  0  0  0  0
 35 71  1  0  0  0  0
 35 81  2  0  0  0  0
 36 64  1  0  0  0  0
 36 76  1  0  0  0  0
 36 82  2  0  0  0  0
 37 72  1  0  0  0  0
 37 77  1  0  0  0  0
 37 83  2  0  0  0  0
 38 41  1  0  0  0  0
 39 48  1  0  0  0  0
 40 71  1  0  0  0  0
 41 43  1  0  0  0  0
 42 44  1  0  0  0  0
 42 45  1  0  0  0  0
 43 47  1  0  0  0  0
 44 49  1  0  0  0  0
 45 72  1  0  0  0  0
 46 49  1  0  0  0  0
 46 72  1  0  0  0  0
 47 75  1  0  0  0  0
 48 71  1  0  0  0  0
 49 70  1  0  0  0  0
 51 60  1  0  0  0  0
 52 62  1  0  0  0  0
 53 64  1  0  0  0  0
 54 65  1  0  0  0  0
 55 66  1  0  0  0  0
 56 67  1  0  0  0  0
 57 67  1  0  0  0  0
 58 67  1  0  0  0  0
 59 78  1  0  0  0  0
 60 66  1  0  0  0  0
 61 65  1  0  0  0  0
 61 77  1  0  0  0  0
 62 65  1  0  0  0  0
 63 67  1  0  0  0  0
 63 76  1  0  0  0  0
 64 78  1  0  0  0  0
 66 85  1  0  0  0  0
 68 70  1  0  0  0  0
M  CHG  1  78   1
M  ISO  4  37 100  66 101  77 100  85 101
M  END
> <Batch ID>
0078

> <Smiles>
CC[101C:1](C)(c1cc(C)nc(C(C)C(C)C[100NH:0][100C:0](=O)N2CCCC(n3nc(-c4ccc(Oc5ccc(F)cc5F)cc4)c(C(N)=O)c3N)C2)c1)[101O:1]c1ccc2c(c1)CN(C(=O)C(NC(=O)C(C)NC)C(C)(C)C)C(C(=O)NC1CCCc3ccccc31)C2

> <Shape>
0.300

> <Color>
0.059

> <Negative vol penalty>
0.000

$$$$

  -OEChem-04052318393D

 84 92  0     1  0  0  0  0  0999 V2000
  -31.3161  -34.6020   20.2726 C   0  0  0  0  0  0  0  0  0  0  0  0
  -31.3676  -33.2343   20.0234 C   0  0  0  0  0  0  0  0  0  0  0  0
  -19.6050  -16.0979   21.0391 C   0  0  0  0  0  0  0  0  0  0  0  0
  -21.2067  -17.5868   20.0121 C   0  0  0  0  0  0  0  0  0  0  0  0
  -30.4194  -35.1044   21.2147 C   0  0  0  0  0  0  0  0  0  0  0  0
  -30.5232  -32.3681   20.7169 C   0  0  0  0  0  0  0  0  0  0  0  0
  -27.9530  -27.2365   18.5799 C   0  0  0  0  0  0  0  0  0  0  0  0
  -18.8878  -17.1964   21.5131 C   0  0  0  0  0  0  0  0  0  0  0  0
  -20.4896  -18.6853   20.4861 C   0  0  0  0  0  0  0  0  0  0  0  0
  -28.2998  -25.8918   18.7038 C   0  0  0  0  0  0  0  0  0  0  0  0
  -20.1320  -20.3565   23.4032 C   0  0  0  0  0  0  0  0  0  0  0  0
  -20.8530  -21.3985   23.9865 C   0  0  0  0  0  0  0  0  0  0  0  0
  -26.7669  -25.6731   20.5535 C   0  0  0  0  0  0  0  0  0  0  0  0
  -20.0023  -22.9223   22.3157 C   0  0  0  0  0  0  0  0  0  0  0  0
  -28.1145  -17.9050   19.6918 C   0  0  0  0  0  0  0  0  0  0  0  0
  -20.7645  -16.2931   20.2886 C   0  0  0  0  0  0  0  0  0  0  0  0
  -21.3330  -14.4967   18.5689 C   0  0  0  0  0  0  0  0  0  0  0  0
  -29.5568  -34.2449   21.9132 C   0  0  0  0  0  0  0  0  0  0  0  0
  -27.0171  -27.8133   19.4504 C   0  0  0  0  0  0  0  0  0  0  0  0
  -29.6151  -32.8593   21.6702 C   0  0  0  0  0  0  0  0  0  0  0  0
  -26.4080  -27.0247   20.4370 C   0  0  0  0  0  0  0  0  0  0  0  0
  -19.3301  -18.4900   21.2366 C   0  0  0  0  0  0  0  0  0  0  0  0
  -27.7088  -25.1106   19.6925 C   0  0  0  0  0  0  0  0  0  0  0  0
  -19.3462  -20.5975   22.2762 C   0  0  0  0  0  0  0  0  0  0  0  0
  -20.7881  -22.6814   23.4428 C   0  0  0  0  0  0  0  0  0  0  0  0
  -19.2813  -21.8803   21.7325 C   0  0  0  0  0  0  0  0  0  0  0  0
  -21.5060  -15.1588   19.7991 C   0  0  0  0  0  0  0  0  0  0  0  0
  -29.1747  -17.4089   20.4081 C   0  0  0  0  0  0  0  0  0  0  0  0
  -22.2734  -13.4957   18.5825 C   0  0  0  0  0  0  0  0  0  0  0  0
  -20.4052  -14.7627   17.5086 C   0  0  0  0  0  0  0  0  0  0  0  0
  -27.0964  -30.1568   21.5964 C   0  0  0  0  0  0  0  0  0  0  0  0
  -23.9036  -29.6030   21.7441 C   0  0  0  0  0  0  0  0  0  0  0  0
  -21.3155  -27.4288   21.2737 C   0  0  0  0  0  0  0  0  0  0  0  0
  -27.4969  -12.8470   21.4364 C   0  0  0  0  0  0  0  0  0  0  0  0
  -28.6376  -34.8294   22.9562 C   0  0  0  0  0  0  0  0  0  0  0  0
  -26.6340  -29.2586   19.2865 C   0  0  0  0  0  0  0  0  0  0  0  0
  -25.3825  -27.5909   21.3836 C   0  0  0  0  0  0  0  0  0  0  0  0
  -27.5153  -33.8842   23.3775 C   0  0  0  0  0  0  0  0  0  0  0  0
  -24.6869  -10.6661   21.5922 C   0  0  0  0  0  0  0  0  0  0  0  0
  -28.0666  -32.4878   23.6475 C   0  0  0  0  0  0  0  0  0  0  0  0
  -23.5374  -11.5104   21.0394 C   0  0  0  0  0  0  0  0  0  0  0  0
  -25.6588  -11.5068   22.4172 C   0  0  0  0  0  0  0  0  0  0  0  0
  -25.0384  -13.5421   21.1736 C   0  0  0  0  0  0  0  0  0  0  0  0
  -28.6980  -31.8902   22.3843 C   0  0  1  0  0  0  0  0  0  0  0  0
  -26.0503  -29.8697   20.5567 C   0  0  1  0  0  0  0  0  0  0  0  0
  -24.0622  -12.7488   20.2882 C   0  0  2  0  0  0  0  0  0  0  0  0
  -29.7906  -17.2842   22.8365 C   0  0  0  0  0  0  0  0  0  0  0  0
  -18.8243  -27.2495   21.5172 C   0  0  0  0  0  0  0  0  0  0  0  0
  -24.2232  -29.2958   24.7629 C   0  0  0  0  0  0  0  0  0  0  0  0
  -21.9696  -28.2067   24.8206 C   0  0  0  0  0  0  0  0  0  0  0  0
  -22.1916  -30.5699   24.0533 C   0  0  0  0  0  0  0  0  0  0  0  0
  -20.9501  -26.9509   18.3759 C   0  0  0  0  0  0  0  0  0  0  0  0
  -28.4504  -20.8514   17.5086 C   0  0  0  0  0  0  0  0  0  0  0  0
  -28.0423  -21.6485   18.7486 C   0  0  0  0  0  0  0  0  0  0  0  0
  -29.8686  -15.1769   21.4464 C   0  0  0  0  0  0  0  0  0  0  0  0
  -28.0358  -19.3773   17.5796 C   0  0  0  0  0  0  0  0  0  0  0  0
  -29.2249  -14.2847   20.3847 C   0  0  0  0  0  0  0  0  0  0  0  0
  -28.4388  -23.1137   18.6270 C   0  0  0  0  0  0  0  0  0  1  0  0
  -29.1646  -16.5660   21.6107 C   0  0  2  0  0  0  0  0  0  0  0  0
  -23.0118  -28.7003   22.5620 C   0  0  1  0  0  0  0  0  0  0  0  0
  -19.9738  -27.5943   20.5830 C   0  0  2  0  0  0  0  0  0  0  0  0
  -22.8698  -29.1827   24.0333 C   0  0  0  0  0  0  0  0  0  0  0  0
  -22.4797  -14.6235   20.5404 N   0  0  0  0  0  0  0  0  0  0  0  0
  -30.3473  -17.8136   19.8330 N   0  0  0  0  0  0  0  0  0  0  0  0
  -30.0472  -18.5540   18.7716 N   0  0  0  0  0  0  0  0  0  0  0  0
  -28.7079  -18.6078   18.6887 N   0  0  0  0  0  0  0  0  0  0  0  0
  -22.9268  -13.6143   19.7737 N   0  0  0  0  0  0  0  0  0  0  0  0
  -25.0460  -29.0107   21.1873 N   0  0  0  0  0  0  0  0  0  0  0  0
  -26.1202  -12.6643   21.6469 N   0  0  0  0  0  0  0  0  0  0  0  0
  -22.5967  -12.5344   17.6915 N   0  0  0  0  0  0  0  0  0  0  0  0
  -19.5082  -15.8293   17.6576 N   0  0  0  0  0  0  0  0  0  0  0  0
  -27.6712  -31.4085   21.4854 N   0  0  0  0  0  0  0  0  0  0  0  0
  -21.7484  -28.6099   21.8382 N   0  0  0  0  0  0  0  0  0  0  0  0
  -27.8482  -13.9656   20.6907 N   0  0  0  0  0  0  0  0  0  0  0  0
  -19.8923  -26.7054   19.3897 N   0  3  0  0  0  0  0  0  0  0  0  0
  -20.3616  -14.0648   16.4672 O   0  0  0  0  0  0  0  0  0  0  0  0
  -27.3612  -29.3063   22.4379 O   0  0  0  0  0  0  0  0  0  0  0  0
  -23.5941  -30.7881   21.5985 O   0  0  0  0  0  0  0  0  0  0  0  0
  -21.9173  -26.3579   21.3119 O   0  0  0  0  0  0  0  0  0  0  0  0
  -28.3495  -12.0678   21.8756 O   0  0  0  0  0  0  0  0  0  0  0  0
  -18.6304  -19.5621   21.6988 O   0  0  0  0  0  0  0  0  0  0  0  0
  -28.0460  -23.7980   19.8160 O   0  0  0  0  0  0  0  0  0  1  0  0
  -21.4793  -23.6822   24.0039 F   0  0  0  0  0  0  0  0  0  0  0  0
  -18.5272  -22.1182   20.6505 F   0  0  0  0  0  0  0  0  0  0  0  0
  1  2  1  0  0  0  0
  1  5  2  0  0  0  0
  2  6  2  0  0  0  0
  3  8  2  0  0  0  0
  3 16  1  0  0  0  0
  4  9  1  0  0  0  0
  4 16  2  0  0  0  0
  5 18  1  0  0  0  0
  6 20  1  0  0  0  0
  7 10  2  0  0  0  0
  7 19  1  0  0  0  0
  8 22  1  0  0  0  0
  9 22  2  0  0  0  0
 10 23  1  0  0  0  0
 11 12  2  0  0  0  0
 11 24  1  0  0  0  0
 12 25  1  0  0  0  0
 13 21  1  0  0  0  0
 13 23  2  0  0  0  0
 14 25  2  0  0  0  0
 14 26  1  0  0  0  0
 15 28  2  0  0  0  0
 15 66  1  0  0  0  0
 16 27  1  0  0  0  0
 17 27  1  0  0  0  0
 17 29  2  0  0  0  0
 17 30  1  0  0  0  0
 18 20  2  0  0  0  0
 18 35  1  0  0  0  0
 19 21  2  0  0  0  0
 19 36  1  0  0  0  0
 20 44  1  0  0  0  0
 21 37  1  0  0  0  0
 22 81  1  0  0  0  0
 23 82  1  0  0  0  0
 24 26  2  0  0  0  0
 24 81  1  0  0  0  0
 25 83  1  0  0  0  0
 26 84  1  0  0  0  0
 27 63  2  0  0  0  0
 28 59  1  0  0  0  0
 28 64  1  0  0  0  0
 29 67  1  0  0  0  0
 29 70  1  0  0  0  0
 30 71  1  0  0  0  0
 30 76  2  0  0  0  0
 31 45  1  0  0  0  0
 31 72  1  0  0  0  0
 31 77  2  0  0  0  0
 32 60  1  0  0  0  0
 32 68  1  0  0  0  0
 32 78  2  0  0  0  0
 33 61  1  0  0  0  0
 33 73  1  0  0  0  0
 33 79  2  0  0  0  0
 34 69  1  0  0  0  0
 34 74  1  0  0  0  0
 34 80  2  0  0  0  0
 35 38  1  0  0  0  0
 36 45  1  0  0  0  0
 37 68  1  0  0  0  0
 38 40  1  0  0  0  0
 39 41  1  0  0  0  0
 39 42  1  0  0  0  0
 40 44  1  0  0  0  0
 41 46  1  0  0  0  0
 42 69  1  0  0  0  0
 43 46  1  0  0  0  0
 43 69  1  0  0  0  0
 44 72  1  0  0  0  0
 45 68  1  0  0  0  0
 46 67  1  0  0  0  0
 47 59  1  0  0  0  0
 48 61  1  0  0  0  0
 49 62  1  0  0  0  0
 50 62  1  0  0  0  0
 51 62  1  0  0  0  0
 52 75  1  0  0  0  0
 53 54  1  0  0  0  0
 53 56  1  0  0  0  0
 54 58  1  0  0  0  0
 55 57  1  0  0  0  0
 55 59  1  0  0  0  0
 56 66  1  0  0  0  0
 57 74  1  0  0  0  0
 58 82  1  0  0  0  0
 60 62  1  0  0  0  0
 60 73  1  0  0  0  0
 61 75  1  0  0  0  0
 63 67  1  0  0  0  0
 64 65  2  0  0  0  0
 65 66  1  0  0  0  0
M  CHG  1  75   1
M  ISO  4  34 100  58 101  74 100  82 101
M  END
> <Batch ID>
0078

> <Smiles>
CNC(C)C(=O)NC(C(=O)N1Cc2cc([101O:1][101CH2:1]CCCn3cc(C(C)CC[100NH:0][100C:0](=O)N4CCCC(n5nc(-c6ccc(Oc7ccc(F)cc7F)cc6)c(C(N)=O)c5N)C4)nn3)ccc2CC1C(=O)NC1CCCc2ccccc21)C(C)(C)C

> <Shape>
0.210

> <Color>
0.072

> <Negative vol penalty>
0.000

$$$$

  -OEChem-04052318393D

 86 94  0     1  0  0  0  0  0999 V2000
  -27.6984  -37.0210   19.0065 C   0  0  0  0  0  0  0  0  0  0  0  0
  -27.2568  -35.9417   18.2479 C   0  0  0  0  0  0  0  0  0  0  0  0
  -27.0595  -12.3180   21.9647 C   0  0  0  0  0  0  0  0  0  0  0  0
  -26.3149  -14.2749   20.7593 C   0  0  0  0  0  0  0  0  0  0  0  0
  -28.0901  -36.8272   20.3304 C   0  0  0  0  0  0  0  0  0  0  0  0
  -27.2078  -34.6676   18.8125 C   0  0  0  0  0  0  0  0  0  0  0  0
  -23.4178  -28.5937   18.5658 C   0  0  0  0  0  0  0  0  0  0  0  0
  -25.7394  -11.8801   22.0694 C   0  0  0  0  0  0  0  0  0  0  0  0
  -24.9947  -13.8370   20.8639 C   0  0  0  0  0  0  0  0  0  0  0  0
  -23.5929  -27.2211   18.3956 C   0  0  0  0  0  0  0  0  0  0  0  0
  -23.4585  -10.3503   20.0970 C   0  0  0  0  0  0  0  0  0  0  0  0
  -23.1976   -9.0073   19.8254 C   0  0  0  0  0  0  0  0  0  0  0  0
  -24.2194  -27.0193   20.7164 C   0  0  0  0  0  0  0  0  0  0  0  0
  -22.3386   -8.7211   22.0653 C   0  0  0  0  0  0  0  0  0  0  0  0
  -28.3106  -20.9391   18.7920 C   0  0  0  0  0  0  0  0  0  0  0  0
  -28.9662  -22.5206   17.4042 C   0  0  0  0  0  0  0  0  0  0  0  0
  -27.3473  -13.5154   21.3097 C   0  0  0  0  0  0  0  0  0  0  0  0
  -29.6233  -13.6800   20.1693 C   0  0  0  0  0  0  0  0  0  0  0  0
  -28.0367  -35.5519   20.9146 C   0  0  0  0  0  0  0  0  0  0  0  0
  -23.6531  -29.1922   19.8120 C   0  0  0  0  0  0  0  0  0  0  0  0
  -27.6004  -34.4564   20.1452 C   0  0  0  0  0  0  0  0  0  0  0  0
  -24.0440  -28.3993   20.9004 C   0  0  0  0  0  0  0  0  0  0  0  0
  -24.7069  -12.6395   21.5190 C   0  0  0  0  0  0  0  0  0  0  0  0
  -23.9966  -26.4341   19.4702 C   0  0  0  0  0  0  0  0  0  0  0  0
  -23.1596  -10.8787   21.3529 C   0  0  0  0  0  0  0  0  0  0  0  0
  -22.6376   -8.1927   20.8095 C   0  0  0  0  0  0  0  0  0  0  0  0
  -22.5997  -10.0641   22.3370 C   0  0  0  0  0  0  0  0  0  0  0  0
  -28.7108  -13.9686   21.2017 C   0  0  0  0  0  0  0  0  0  0  0  0
  -29.5599  -21.4102   19.1204 C   0  0  0  0  0  0  0  0  0  0  0  0
  -30.7716  -14.3410   20.5312 C   0  0  0  0  0  0  0  0  0  0  0  0
  -29.4485  -12.8856   18.9885 C   0  0  0  0  0  0  0  0  0  0  0  0
  -25.6695  -31.3970   20.8966 C   0  0  0  0  0  0  0  0  0  0  0  0
  -23.9310  -31.0885   23.6178 C   0  0  0  0  0  0  0  0  0  0  0  0
  -21.8809  -29.1546   25.5425 C   0  0  0  0  0  0  0  0  0  0  0  0
  -31.8064  -19.1349   23.9661 C   0  0  0  0  0  0  0  0  0  0  0  0
  -28.5153  -35.3833   22.3349 C   0  0  0  0  0  0  0  0  0  0  0  0
  -23.4339  -30.6700   19.9859 C   0  0  0  0  0  0  0  0  0  0  0  0
  -24.2899  -28.9900   22.2639 C   0  0  0  0  0  0  0  0  0  0  0  0
  -28.0785  -34.0670   22.9727 C   0  0  0  0  0  0  0  0  0  0  0  0
  -33.1560  -15.8673   24.3881 C   0  0  0  0  0  0  0  0  0  0  0  0
  -28.3258  -32.9033   22.0180 C   0  0  0  0  0  0  0  0  0  0  0  0
  -32.2521  -14.9841   23.5262 C   0  0  0  0  0  0  0  0  0  0  0  0
  -32.3702  -16.9879   25.0655 C   0  0  0  0  0  0  0  0  0  0  0  0
  -30.6622  -16.9373   23.2896 C   0  0  0  0  0  0  0  0  0  0  0  0
  -27.5096  -33.0635   20.7297 C   0  0  1  0  0  0  0  0  0  0  0  0
  -24.1992  -31.2523   21.1702 C   0  0  1  0  0  0  0  0  0  0  0  0
  -31.4190  -15.8265   22.5415 C   0  0  2  0  0  0  0  0  0  0  0  0
  -31.9386  -20.9620   19.8271 C   0  0  0  0  0  0  0  0  0  0  0  0
  -20.6526  -29.1583   27.7307 C   0  0  0  0  0  0  0  0  0  0  0  0
  -26.5564  -30.5868   25.0896 C   0  0  0  0  0  0  0  0  0  0  0  0
  -25.2273  -29.6768   27.0063 C   0  0  0  0  0  0  0  0  0  0  0  0
  -24.9405  -32.0548   26.3096 C   0  0  0  0  0  0  0  0  0  0  0  0
  -30.4481  -23.2473   21.5307 C   0  0  0  0  0  0  0  0  0  0  0  0
  -28.7423  -21.5186   22.0979 C   0  0  0  0  0  0  0  0  0  0  0  0
  -19.2572  -28.8717   24.2028 C   0  0  0  0  0  0  0  0  0  0  0  0
  -25.8588  -22.8351   16.8145 C   0  0  0  0  0  0  0  0  0  0  0  0
  -25.3817  -23.3644   18.1679 C   0  0  0  0  0  0  0  0  0  0  0  0
  -26.6498  -21.5269   16.9269 C   0  0  0  0  0  0  0  0  0  0  0  0
  -31.1454  -21.2022   22.7625 C   0  0  0  0  0  0  0  0  0  0  0  0
  -24.5709  -24.6441   18.0135 C   0  0  0  0  0  0  0  0  0  1  0  0
  -30.4297  -20.9876   20.2286 C   0  0  1  0  0  0  0  0  0  0  0  0
  -24.0132  -30.2139   24.8456 C   0  0  1  0  0  0  0  0  0  0  0  0
  -20.5703  -29.4639   26.2433 C   0  0  2  0  0  0  0  0  0  0  0  0
  -25.1817  -30.6219   25.7867 C   0  0  0  0  0  0  0  0  0  0  0  0
  -30.2059  -21.7253   21.6377 C   0  0  0  0  0  0  0  0  0  0  0  0
  -29.9621  -22.3947   18.2529 N   0  0  0  0  0  0  0  0  0  0  0  0
  -29.2343  -14.7517   22.1486 N   0  0  0  0  0  0  0  0  0  0  0  0
  -27.9431  -21.6602   17.6910 N   0  0  0  0  0  0  0  0  0  0  0  0
  -30.4882  -14.9608   21.7126 N   0  0  0  0  0  0  0  0  0  0  0  0
  -24.0682  -30.4407   22.3820 N   0  0  0  0  0  0  0  0  0  0  0  0
  -31.6033  -17.7494   24.0767 N   0  0  0  0  0  0  0  0  0  0  0  0
  -31.9859  -14.4466   19.9511 N   0  0  0  0  0  0  0  0  0  0  0  0
  -28.2048  -12.2772   18.7707 N   0  0  0  0  0  0  0  0  0  0  0  0
  -26.1277  -32.6992   20.9583 N   0  0  0  0  0  0  0  0  0  0  0  0
  -22.6964  -30.2642   25.4715 N   0  0  0  0  0  0  0  0  0  0  0  0
  -31.0439  -19.7794   22.9997 N   0  0  0  0  0  0  0  0  0  0  0  0
  -19.4657  -28.6531   25.6573 N   0  3  0  0  0  0  0  0  0  0  0  0
  -30.3730  -12.7068   18.1598 O   0  0  0  0  0  0  0  0  0  0  0  0
  -26.3390  -30.4009   20.6494 O   0  0  0  0  0  0  0  0  0  0  0  0
  -23.7446  -32.3006   23.7502 O   0  0  0  0  0  0  0  0  0  0  0  0
  -22.1555  -28.0393   25.1053 O   0  0  0  0  0  0  0  0  0  0  0  0
  -32.6119  -19.7510   24.6723 O   0  0  0  0  0  0  0  0  0  0  0  0
  -23.4186  -12.2124   21.6208 O   0  0  0  0  0  0  0  0  0  0  0  0
  -24.1688  -25.0942   19.3066 O   0  0  0  0  0  0  0  0  0  1  0  0
  -22.3856   -6.9034   20.5480 F   0  0  0  0  0  0  0  0  0  0  0  0
  -22.3093  -10.5664   23.5450 F   0  0  0  0  0  0  0  0  0  0  0  0
  1  2  1  0  0  0  0
  1  5  2  0  0  0  0
  2  6  2  0  0  0  0
  3  8  2  0  0  0  0
  3 17  1  0  0  0  0
  4  9  1  0  0  0  0
  4 17  2  0  0  0  0
  5 19  1  0  0  0  0
  6 21  1  0  0  0  0
  7 10  2  0  0  0  0
  7 20  1  0  0  0  0
  8 23  1  0  0  0  0
  9 23  2  0  0  0  0
 10 24  1  0  0  0  0
 11 12  2  0  0  0  0
 11 25  1  0  0  0  0
 12 26  1  0  0  0  0
 13 22  1  0  0  0  0
 13 24  2  0  0  0  0
 14 26  2  0  0  0  0
 14 27  1  0  0  0  0
 15 29  2  0  0  0  0
 15 68  1  0  0  0  0
 16 66  2  0  0  0  0
 16 68  1  0  0  0  0
 17 28  1  0  0  0  0
 18 28  1  0  0  0  0
 18 30  2  0  0  0  0
 18 31  1  0  0  0  0
 19 21  2  0  0  0  0
 19 36  1  0  0  0  0
 20 22  2  0  0  0  0
 20 37  1  0  0  0  0
 21 45  1  0  0  0  0
 22 38  1  0  0  0  0
 23 83  1  0  0  0  0
 24 84  1  0  0  0  0
 25 27  2  0  0  0  0
 25 83  1  0  0  0  0
 26 85  1  0  0  0  0
 27 86  1  0  0  0  0
 28 67  2  0  0  0  0
 29 61  1  0  0  0  0
 29 66  1  0  0  0  0
 30 69  1  0  0  0  0
 30 72  1  0  0  0  0
 31 73  1  0  0  0  0
 31 78  2  0  0  0  0
 32 46  1  0  0  0  0
 32 74  1  0  0  0  0
 32 79  2  0  0  0  0
 33 62  1  0  0  0  0
 33 70  1  0  0  0  0
 33 80  2  0  0  0  0
 34 63  1  0  0  0  0
 34 75  1  0  0  0  0
 34 81  2  0  0  0  0
 35 71  1  0  0  0  0
 35 76  1  0  0  0  0
 35 82  2  0  0  0  0
 36 39  1  0  0  0  0
 37 46  1  0  0  0  0
 38 70  1  0  0  0  0
 39 41  1  0  0  0  0
 40 42  1  0  0  0  0
 40 43  1  0  0  0  0
 41 45  1  0  0  0  0
 42 47  1  0  0  0  0
 43 71  1  0  0  0  0
 44 47  1  0  0  0  0
 44 71  1  0  0  0  0
 45 74  1  0  0  0  0
 46 70  1  0  0  0  0
 47 69  1  0  0  0  0
 48 61  1  0  0  0  0
 49 63  1  0  0  0  0
 50 64  1  0  0  0  0
 51 64  1  0  0  0  0
 52 64  1  0  0  0  0
 53 65  1  0  0  0  0
 54 65  1  0  0  0  0
 55 77  1  0  0  0  0
 56 57  1  0  0  0  0
 56 58  1  0  0  0  0
 57 60  1  0  0  0  0
 58 68  1  0  0  0  0
 59 65  1  0  0  0  0
 59 76  1  0  0  0  0
 60 84  1  0  0  0  0
 61 65  1  0  0  0  0
 62 64  1  0  0  0  0
 62 75  1  0  0  0  0
 63 77  1  0  0  0  0
 67 69  1  0  0  0  0
M  CHG  1  77   1
M  ISO  4  35 100  60 101  76 100  84 101
M  END
> <Batch ID>
0078

> <Smiles>
CNC(C)C(=O)NC(C(=O)N1Cc2cc([101O:1][101CH2:1]CCCn3cnc(C(C)C(C)(C)C[100NH:0][100C:0](=O)N4CCCC(n5nc(-c6ccc(Oc7ccc(F)cc7F)cc6)c(C(N)=O)c5N)C4)c3)ccc2CC1C(=O)NC1CCCc2ccccc21)C(C)(C)C

> <Shape>
0.256

> <Color>
0.069

> <Negative vol penalty>
0.000

$$$$

  -OEChem-04052318393D

 86 94  0     1  0  0  0  0  0999 V2000
  -17.3560  -30.9546   25.0186 C   0  0  0  0  0  0  0  0  0  0  0  0
  -17.9822  -29.7355   25.2573 C   0  0  0  0  0  0  0  0  0  0  0  0
  -31.3486  -18.9464   20.3016 C   0  0  0  0  0  0  0  0  0  0  0  0
  -29.0863  -19.1974   19.4917 C   0  0  0  0  0  0  0  0  0  0  0  0
  -17.4903  -31.5747   23.7770 C   0  0  0  0  0  0  0  0  0  0  0  0
  -18.7423  -29.1352   24.2541 C   0  0  0  0  0  0  0  0  0  0  0  0
  -24.5451  -25.0343   23.3448 C   0  0  0  0  0  0  0  0  0  0  0  0
  -31.6975  -20.1565   19.7022 C   0  0  0  0  0  0  0  0  0  0  0  0
  -29.4352  -20.4076   18.8923 C   0  0  0  0  0  0  0  0  0  0  0  0
  -24.9440  -23.8576   22.7123 C   0  0  0  0  0  0  0  0  0  0  0  0
  -29.6401  -23.7404   17.4541 C   0  0  0  0  0  0  0  0  0  0  0  0
  -28.7696  -24.8186   17.6133 C   0  0  0  0  0  0  0  0  0  0  0  0
  -25.1708  -25.0593   20.6329 C   0  0  0  0  0  0  0  0  0  0  0  0
  -24.5373  -15.7713   20.4545 C   0  0  0  0  0  0  0  0  0  0  0  0
  -29.0515  -24.6922   20.0095 C   0  0  0  0  0  0  0  0  0  0  0  0
  -22.4094  -16.5850   19.8079 C   0  0  0  0  0  0  0  0  0  0  0  0
  -30.0430  -18.4668   20.1963 C   0  0  0  0  0  0  0  0  0  0  0  0
  -29.1930  -17.0240   22.1208 C   0  0  0  0  0  0  0  0  0  0  0  0
  -18.2604  -30.9864   22.7614 C   0  0  0  0  0  0  0  0  0  0  0  0
  -24.4454  -26.2321   22.6224 C   0  0  0  0  0  0  0  0  0  0  0  0
  -18.8860  -29.7474   22.9974 C   0  0  0  0  0  0  0  0  0  0  0  0
  -24.7729  -26.2504   21.2592 C   0  0  0  0  0  0  0  0  0  0  0  0
  -23.7690  -16.7930   19.9247 C   0  0  0  0  0  0  0  0  0  0  0  0
  -30.7408  -20.8872   18.9976 C   0  0  0  0  0  0  0  0  0  0  0  0
  -25.2542  -23.8694   21.3555 C   0  0  0  0  0  0  0  0  0  0  0  0
  -30.2162  -23.1381   18.5725 C   0  0  0  0  0  0  0  0  0  0  0  0
  -28.4753  -25.2945   18.8910 C   0  0  0  0  0  0  0  0  0  0  0  0
  -29.9219  -23.6140   19.8502 C   0  0  0  0  0  0  0  0  0  0  0  0
  -29.6821  -17.2164   20.8149 C   0  0  0  0  0  0  0  0  0  0  0  0
  -23.8951  -14.6093   20.8327 C   0  0  0  0  0  0  0  0  0  0  0  0
  -29.0057  -15.6670   22.2208 C   0  0  0  0  0  0  0  0  0  0  0  0
  -28.9313  -17.9859   23.1514 C   0  0  0  0  0  0  0  0  0  0  0  0
  -22.0815  -28.2374   21.9194 C   0  0  0  0  0  0  0  0  0  0  0  0
  -24.4865  -30.0182   20.6675 C   0  0  0  0  0  0  0  0  0  0  0  0
  -27.1238  -10.8840   20.0138 C   0  0  0  0  0  0  0  0  0  0  0  0
  -27.5664  -30.4270   18.8333 C   0  0  0  0  0  0  0  0  0  0  0  0
  -18.3376  -31.6713   21.4199 C   0  0  0  0  0  0  0  0  0  0  0  0
  -24.0393  -27.4984   23.3253 C   0  0  0  0  0  0  0  0  0  0  0  0
  -24.7015  -27.5144   20.4433 C   0  0  0  0  0  0  0  0  0  0  0  0
  -19.4679  -31.1520   20.5350 C   0  0  0  0  0  0  0  0  0  0  0  0
  -30.4580  -11.9016   19.1843 C   0  0  0  0  0  0  0  0  0  0  0  0
  -19.4869  -29.6267   20.5337 C   0  0  0  0  0  0  0  0  0  0  0  0
  -30.5034  -13.3673   19.6140 C   0  0  0  0  0  0  0  0  0  0  0  0
  -29.0828  -11.5200   18.6455 C   0  0  0  0  0  0  0  0  0  0  0  0
  -28.0032  -13.2711   20.0201 C   0  0  0  0  0  0  0  0  0  0  0  0
  -19.7393  -29.0768   21.9427 C   0  0  1  0  0  0  0  0  0  0  0  0
  -23.4770  -28.5536   22.3780 C   0  0  1  0  0  0  0  0  0  0  0  0
  -29.3660  -13.6900   20.5994 C   0  0  2  0  0  0  0  0  0  0  0  0
  -28.9211  -32.4851   18.3576 C   0  0  0  0  0  0  0  0  0  0  0  0
  -24.0382  -11.9205   19.5163 C   0  0  0  0  0  0  0  0  0  0  0  0
  -25.2311  -10.0504   21.2751 C   0  0  0  0  0  0  0  0  0  0  0  0
  -26.7714  -11.7369   22.2992 C   0  0  0  0  0  0  0  0  0  0  0  0
  -22.8940  -30.1133   18.0666 C   0  0  0  0  0  0  0  0  0  0  0  0
  -24.9786  -30.8612   16.8990 C   0  0  0  0  0  0  0  0  0  0  0  0
  -23.9858  -32.2720   18.7009 C   0  0  0  0  0  0  0  0  0  0  0  0
  -30.0096  -29.2285   19.9966 C   0  0  0  0  0  0  0  0  0  0  0  0
  -24.3971  -18.0927   19.4885 C   0  0  0  0  0  0  0  0  0  0  0  0
  -24.6763  -13.4789   21.4093 C   0  0  0  0  0  0  0  0  0  0  0  0
  -24.4643  -19.1502   20.5958 C   0  0  0  0  0  0  0  0  0  0  0  0
  -25.0331  -20.4858   20.1145 C   0  0  0  0  0  0  0  0  0  0  0  0
  -25.1215  -21.4972   21.2492 C   0  0  0  0  0  0  0  0  0  1  0  0
  -25.1531  -30.1155   19.3166 C   0  0  1  0  0  0  0  0  0  0  0  0
  -28.7661  -31.2605   19.2460 C   0  0  2  0  0  0  0  0  0  0  0  0
  -25.2102  -12.4542   20.3582 C   0  0  1  0  0  0  0  0  0  0  0  0
  -26.0683  -11.3117   21.0022 C   0  0  0  0  0  0  0  0  0  0  0  0
  -24.2525  -30.8161   18.2604 C   0  0  0  0  0  0  0  0  0  0  0  0
  -21.8076  -15.4375   20.1861 N   0  0  0  0  0  0  0  0  0  0  0  0
  -29.7983  -16.0732   20.1341 N   0  0  0  0  0  0  0  0  0  0  0  0
  -22.5627  -14.4335   20.7072 N   0  0  0  0  0  0  0  0  0  0  0  0
  -29.3797  -15.1493   21.0158 N   0  0  0  0  0  0  0  0  0  0  0  0
  -24.2932  -28.7253   21.1744 N   0  0  0  0  0  0  0  0  0  0  0  0
  -28.0280  -11.8628   19.6010 N   0  0  0  0  0  0  0  0  0  0  0  0
  -28.5593  -14.8781   23.2212 N   0  0  0  0  0  0  0  0  0  0  0  0
  -29.1789  -19.3386   22.8812 N   0  0  0  0  0  0  0  0  0  0  0  0
  -21.1419  -29.1832   22.2830 N   0  0  0  0  0  0  0  0  0  0  0  0
  -26.4350  -30.7750   19.5405 N   0  0  0  0  0  0  0  0  0  0  0  0
  -30.0147  -30.4522   19.1541 N   0  3  0  0  0  0  0  0  0  0  0  0
  -28.5064  -17.6538   24.2840 O   0  0  0  0  0  0  0  0  0  0  0  0
  -21.8728  -27.2121   21.2816 O   0  0  0  0  0  0  0  0  0  0  0  0
  -24.1560  -31.0514   21.2547 O   0  0  0  0  0  0  0  0  0  0  0  0
  -27.1444   -9.7137   19.6237 O   0  0  0  0  0  0  0  0  0  0  0  0
  -27.6259  -29.5569   17.9673 O   0  0  0  0  0  0  0  0  0  0  0  0
  -31.0809  -22.0682   18.4127 O   0  0  0  0  0  0  0  0  0  0  0  0
  -25.6432  -22.7221   20.7355 O   0  0  0  0  0  0  0  0  0  1  0  0
  -27.6406  -26.3309   19.0437 F   0  0  0  0  0  0  0  0  0  0  0  0
  -30.4733  -23.0401   20.9284 F   0  0  0  0  0  0  0  0  0  0  0  0
  1  2  1  0  0  0  0
  1  5  2  0  0  0  0
  2  6  2  0  0  0  0
  3  8  2  0  0  0  0
  3 17  1  0  0  0  0
  4  9  1  0  0  0  0
  4 17  2  0  0  0  0
  5 19  1  0  0  0  0
  6 21  1  0  0  0  0
  7 10  2  0  0  0  0
  7 20  1  0  0  0  0
  8 24  1  0  0  0  0
  9 24  2  0  0  0  0
 10 25  1  0  0  0  0
 11 12  2  0  0  0  0
 11 26  1  0  0  0  0
 12 27  1  0  0  0  0
 13 22  1  0  0  0  0
 13 25  2  0  0  0  0
 14 23  2  0  0  0  0
 14 30  1  0  0  0  0
 15 27  2  0  0  0  0
 15 28  1  0  0  0  0
 16 23  1  0  0  0  0
 16 67  2  0  0  0  0
 17 29  1  0  0  0  0
 18 29  1  0  0  0  0
 18 31  2  0  0  0  0
 18 32  1  0  0  0  0
 19 21  2  0  0  0  0
 19 37  1  0  0  0  0
 20 22  2  0  0  0  0
 20 38  1  0  0  0  0
 21 46  1  0  0  0  0
 22 39  1  0  0  0  0
 23 57  1  0  0  0  0
 24 83  1  0  0  0  0
 25 84  1  0  0  0  0
 26 28  2  0  0  0  0
 26 83  1  0  0  0  0
 27 85  1  0  0  0  0
 28 86  1  0  0  0  0
 29 68  2  0  0  0  0
 30 58  1  0  0  0  0
 30 69  2  0  0  0  0
 31 70  1  0  0  0  0
 31 73  1  0  0  0  0
 32 74  1  0  0  0  0
 32 78  2  0  0  0  0
 33 47  1  0  0  0  0
 33 75  1  0  0  0  0
 33 79  2  0  0  0  0
 34 62  1  0  0  0  0
 34 71  1  0  0  0  0
 34 80  2  0  0  0  0
 35 65  1  0  0  0  0
 35 72  1  0  0  0  0
 35 81  2  0  0  0  0
 36 63  1  0  0  0  0
 36 76  1  0  0  0  0
 36 82  2  0  0  0  0
 37 40  1  0  0  0  0
 38 47  1  0  0  0  0
 39 71  1  0  0  0  0
 40 42  1  0  0  0  0
 41 43  1  0  0  0  0
 41 44  1  0  0  0  0
 42 46  1  0  0  0  0
 43 48  1  0  0  0  0
 44 72  1  0  0  0  0
 45 48  1  0  0  0  0
 45 72  1  0  0  0  0
 46 75  1  0  0  0  0
 47 71  1  0  0  0  0
 48 70  1  0  0  0  0
 49 63  1  0  0  0  0
 50 64  1  0  0  0  0
 51 65  1  0  0  0  0
 52 65  1  0  0  0  0
 53 66  1  0  0  0  0
 54 66  1  0  0  0  0
 55 66  1  0  0  0  0
 56 77  1  0  0  0  0
 57 59  1  0  0  0  0
 58 64  1  0  0  0  0
 59 60  1  0  0  0  0
 60 61  1  0  0  0  0
 61 84  1  0  0  0  0
 62 66  1  0  0  0  0
 62 76  1  0  0  0  0
 63 77  1  0  0  0  0
 64 65  1  0  0  0  0
 67 69  1  0  0  0  0
 68 70  1  0  0  0  0
M  CHG  1  77   1
M  ISO  4  35 100  61 101  65 100  84 101
M  END
> <Batch ID>
0078

> <Smiles>
CNC(C)C(=O)NC(C(=O)N1Cc2cc([101O:1][101CH2:1]CCCc3cnnc(CC(C)[100C:0](C)(C)[100C:0](=O)N4CCCC(n5nc(-c6ccc(Oc7ccc(F)cc7F)cc6)c(C(N)=O)c5N)C4)c3)ccc2CC1C(=O)NC1CCCc2ccccc21)C(C)(C)C

> <Shape>
0.251

> <Color>
0.063

> <Negative vol penalty>
0.000

$$$$

  -OEChem-04052318393D

 86 94  0     1  0  0  0  0  0999 V2000
  -28.4936  -24.6705   16.8779 C   0  0  0  0  0  0  0  0  0  0  0  0
  -27.3189  -24.7915   17.6132 C   0  0  0  0  0  0  0  0  0  0  0  0
  -27.2690  -14.6675   19.1368 C   0  0  0  0  0  0  0  0  0  0  0  0
  -25.2025  -15.1646   20.2856 C   0  0  0  0  0  0  0  0  0  0  0  0
  -29.6599  -25.2920   17.3221 C   0  0  0  0  0  0  0  0  0  0  0  0
  -27.3101  -25.5332   18.7940 C   0  0  0  0  0  0  0  0  0  0  0  0
  -23.2831  -28.5839   19.1419 C   0  0  0  0  0  0  0  0  0  0  0  0
  -27.1246  -13.3185   19.4608 C   0  0  0  0  0  0  0  0  0  0  0  0
  -25.0581  -13.8156   20.6095 C   0  0  0  0  0  0  0  0  0  0  0  0
  -22.0714  -27.9997   19.5084 C   0  0  0  0  0  0  0  0  0  0  0  0
  -26.3205  -11.6491   22.8775 C   0  0  0  0  0  0  0  0  0  0  0  0
  -25.9515  -11.3325   24.1848 C   0  0  0  0  0  0  0  0  0  0  0  0
  -22.3896  -28.7733   21.7710 C   0  0  0  0  0  0  0  0  0  0  0  0
  -22.4033  -24.7103   22.4653 C   0  0  0  0  0  0  0  0  0  0  0  0
  -23.9607  -10.2411   23.3585 C   0  0  0  0  0  0  0  0  0  0  0  0
  -26.3079  -15.5906   19.5492 C   0  0  0  0  0  0  0  0  0  0  0  0
  -25.9752  -17.6393   18.0661 C   0  0  0  0  0  0  0  0  0  0  0  0
  -29.6631  -26.0497   18.5039 C   0  0  0  0  0  0  0  0  0  0  0  0
  -24.0637  -29.2590   20.0913 C   0  0  0  0  0  0  0  0  0  0  0  0
  -28.4779  -26.1643   19.2552 C   0  0  0  0  0  0  0  0  0  0  0  0
  -23.6096  -29.3674   21.4135 C   0  0  0  0  0  0  0  0  0  0  0  0
  -21.1283  -24.1635   22.3734 C   0  0  0  0  0  0  0  0  0  0  0  0
  -20.9751  -22.8248   22.0302 C   0  0  0  0  0  0  0  0  0  0  0  0
  -26.0191  -12.8925   20.1971 C   0  0  0  0  0  0  0  0  0  0  0  0
  -21.6259  -28.0918   20.8237 C   0  0  0  0  0  0  0  0  0  0  0  0
  -25.5096  -11.2618   21.8106 C   0  0  0  0  0  0  0  0  0  0  0  0
  -24.7716  -10.6285   24.4253 C   0  0  0  0  0  0  0  0  0  0  0  0
  -24.3297  -10.5578   22.0511 C   0  0  0  0  0  0  0  0  0  0  0  0
  -26.4568  -16.9843   19.2154 C   0  0  0  0  0  0  0  0  0  0  0  0
  -23.4841  -23.8829   22.2064 C   0  0  0  0  0  0  0  0  0  0  0  0
  -22.1198  -22.0818   21.7906 C   0  0  0  0  0  0  0  0  0  0  0  0
  -26.3747  -18.9441   18.2218 C   0  0  0  0  0  0  0  0  0  0  0  0
  -25.2331  -17.1151   16.9570 C   0  0  0  0  0  0  0  0  0  0  0  0
  -26.9792  -28.8580   21.2925 C   0  0  0  0  0  0  0  0  0  0  0  0
  -26.3426  -31.6834   22.7534 C   0  0  0  0  0  0  0  0  0  0  0  0
  -24.0055  -33.8861   23.9080 C   0  0  0  0  0  0  0  0  0  0  0  0
  -27.6835  -22.2615   23.0315 C   0  0  0  0  0  0  0  0  0  0  0  0
  -30.9597  -26.6639   18.9689 C   0  0  0  0  0  0  0  0  0  0  0  0
  -25.3554  -29.9068   19.6740 C   0  0  0  0  0  0  0  0  0  0  0  0
  -24.4005  -30.0987   22.4662 C   0  0  0  0  0  0  0  0  0  0  0  0
  -30.7755  -27.7422   20.0336 C   0  0  0  0  0  0  0  0  0  0  0  0
  -29.8034  -21.5938   20.2500 C   0  0  0  0  0  0  0  0  0  0  0  0
  -29.8103  -27.2658   21.1145 C   0  0  0  0  0  0  0  0  0  0  0  0
  -29.1427  -20.3959   19.5657 C   0  0  0  0  0  0  0  0  0  0  0  0
  -29.6802  -21.5143   21.7700 C   0  0  0  0  0  0  0  0  0  0  0  0
  -27.6438  -20.1382   21.5870 C   0  0  0  0  0  0  0  0  0  0  0  0
  -28.4223  -26.9809   20.5281 C   0  0  1  0  0  0  0  0  0  0  0  0
  -26.3165  -30.1277   20.8381 C   0  0  1  0  0  0  0  0  0  0  0  0
  -27.6934  -20.2021   20.0509 C   0  0  2  0  0  0  0  0  0  0  0  0
  -19.6197  -22.2103   21.9265 C   0  0  0  0  0  0  0  0  0  0  0  0
  -23.1446  -20.2011   20.4870 C   0  0  0  0  0  0  0  0  0  0  0  0
  -23.7893  -36.0896   25.0892 C   0  0  0  0  0  0  0  0  0  0  0  0
  -27.0518  -30.3336   25.3963 C   0  0  0  0  0  0  0  0  0  0  0  0
  -25.9282  -32.2286   26.5856 C   0  0  0  0  0  0  0  0  0  0  0  0
  -27.9207  -32.6657   25.1498 C   0  0  0  0  0  0  0  0  0  0  0  0
  -22.5921  -35.1091   21.6133 C   0  0  0  0  0  0  0  0  0  0  0  0
  -19.9329  -25.0409   22.6470 C   0  0  0  0  0  0  0  0  0  0  0  0
  -24.8674  -24.4353   22.2968 C   0  0  0  0  0  0  0  0  0  0  0  0
  -22.0192  -20.6382   21.4196 C   0  0  0  0  0  0  0  0  0  0  0  0
  -19.1924  -25.4846   21.3835 C   0  0  0  0  0  0  0  0  0  0  0  0
  -25.5107  -24.3172   23.6922 C   0  0  0  0  0  0  0  0  0  0  0  0
  -25.5997  -22.8886   24.2247 C   0  0  0  0  0  0  0  0  0  0  0  0
  -20.0373  -26.3589   20.4642 C   0  0  0  0  0  0  0  0  0  1  0  0
  -25.7115  -32.0917   24.0627 C   0  0  1  0  0  0  0  0  0  0  0  0
  -23.8688  -35.3888   23.7418 C   0  0  2  0  0  0  0  0  0  0  0  0
  -26.6389  -31.8144   25.2794 C   0  0  0  0  0  0  0  0  0  0  0  0
  -27.1123  -17.8053   20.0402 N   0  0  0  0  0  0  0  0  0  0  0  0
  -23.3748  -22.5780   21.8702 N   0  0  0  0  0  0  0  0  0  0  0  0
  -27.0455  -18.9896   19.4084 N   0  0  0  0  0  0  0  0  0  0  0  0
  -25.6600  -30.7099   22.0104 N   0  0  0  0  0  0  0  0  0  0  0  0
  -28.2811  -21.3321   22.1642 N   0  0  0  0  0  0  0  0  0  0  0  0
  -26.2142  -20.0456   17.4579 N   0  0  0  0  0  0  0  0  0  0  0  0
  -24.9058  -15.7523   16.9564 N   0  0  0  0  0  0  0  0  0  0  0  0
  -27.7040  -28.2174   20.3058 N   0  0  0  0  0  0  0  0  0  0  0  0
  -25.3264  -33.4907   23.9115 N   0  0  0  0  0  0  0  0  0  0  0  0
  -26.3529  -22.0182   23.3495 N   0  0  0  0  0  0  0  0  0  0  0  0
  -22.6368  -35.7146   22.9692 N   0  3  0  0  0  0  0  0  0  0  0  0
  -24.8851  -17.8304   15.9871 O   0  0  0  0  0  0  0  0  0  0  0  0
  -26.8441  -28.4878   22.4529 O   0  0  0  0  0  0  0  0  0  0  0  0
  -27.3984  -32.2141   22.3996 O   0  0  0  0  0  0  0  0  0  0  0  0
  -23.0374  -33.1383   24.0269 O   0  0  0  0  0  0  0  0  0  0  0  0
  -28.2892  -23.2388   23.4843 O   0  0  0  0  0  0  0  0  0  0  0  0
  -25.8778  -11.5762   20.5132 O   0  0  0  0  0  0  0  0  0  0  0  0
  -20.4439  -27.5218   21.1843 O   0  0  0  0  0  0  0  0  0  1  0  0
  -24.4181  -10.3231   25.6807 F   0  0  0  0  0  0  0  0  0  0  0  0
  -23.5473  -10.1820   21.0302 F   0  0  0  0  0  0  0  0  0  0  0  0
  1  2  1  0  0  0  0
  1  5  2  0  0  0  0
  2  6  2  0  0  0  0
  3  8  2  0  0  0  0
  3 16  1  0  0  0  0
  4  9  1  0  0  0  0
  4 16  2  0  0  0  0
  5 18  1  0  0  0  0
  6 20  1  0  0  0  0
  7 10  2  0  0  0  0
  7 19  1  0  0  0  0
  8 24  1  0  0  0  0
  9 24  2  0  0  0  0
 10 25  1  0  0  0  0
 11 12  2  0  0  0  0
 11 26  1  0  0  0  0
 12 27  1  0  0  0  0
 13 21  1  0  0  0  0
 13 25  2  0  0  0  0
 14 22  2  0  0  0  0
 14 30  1  0  0  0  0
 15 27  2  0  0  0  0
 15 28  1  0  0  0  0
 16 29  1  0  0  0  0
 17 29  1  0  0  0  0
 17 32  2  0  0  0  0
 17 33  1  0  0  0  0
 18 20  2  0  0  0  0
 18 38  1  0  0  0  0
 19 21  2  0  0  0  0
 19 39  1  0  0  0  0
 20 47  1  0  0  0  0
 21 40  1  0  0  0  0
 22 23  1  0  0  0  0
 22 57  1  0  0  0  0
 23 31  2  0  0  0  0
 23 50  1  0  0  0  0
 24 83  1  0  0  0  0
 25 84  1  0  0  0  0
 26 28  2  0  0  0  0
 26 83  1  0  0  0  0
 27 85  1  0  0  0  0
 28 86  1  0  0  0  0
 29 67  2  0  0  0  0
 30 58  1  0  0  0  0
 30 68  2  0  0  0  0
 31 59  1  0  0  0  0
 31 68  1  0  0  0  0
 32 69  1  0  0  0  0
 32 72  1  0  0  0  0
 33 73  1  0  0  0  0
 33 78  2  0  0  0  0
 34 48  1  0  0  0  0
 34 74  1  0  0  0  0
 34 79  2  0  0  0  0
 35 64  1  0  0  0  0
 35 70  1  0  0  0  0
 35 80  2  0  0  0  0
 36 65  1  0  0  0  0
 36 75  1  0  0  0  0
 36 81  2  0  0  0  0
 37 71  1  0  0  0  0
 37 76  1  0  0  0  0
 37 82  2  0  0  0  0
 38 41  1  0  0  0  0
 39 48  1  0  0  0  0
 40 70  1  0  0  0  0
 41 43  1  0  0  0  0
 42 44  1  0  0  0  0
 42 45  1  0  0  0  0
 43 47  1  0  0  0  0
 44 49  1  0  0  0  0
 45 71  1  0  0  0  0
 46 49  1  0  0  0  0
 46 71  1  0  0  0  0
 47 74  1  0  0  0  0
 48 70  1  0  0  0  0
 49 69  1  0  0  0  0
 51 59  1  0  0  0  0
 52 65  1  0  0  0  0
 53 66  1  0  0  0  0
 54 66  1  0  0  0  0
 55 66  1  0  0  0  0
 56 77  1  0  0  0  0
 57 60  1  0  0  0  0
 58 61  1  0  0  0  0
 60 63  1  0  0  0  0
 61 62  1  0  0  0  0
 62 76  1  0  0  0  0
 63 84  1  0  0  0  0
 64 66  1  0  0  0  0
 64 75  1  0  0  0  0
 65 77  1  0  0  0  0
 67 69  1  0  0  0  0
M  CHG  1  77   1
M  ISO  4  37 100  63 101  76 100  84 101
M  END
> <Batch ID>
0078

> <Smiles>
CCc1nc(CCC[100NH:0][100C:0](=O)N2CCCC(n3nc(-c4ccc(Oc5ccc(F)cc5F)cc4)c(C(N)=O)c3N)C2)cc(CC[101CH2:1][101O:1]c2ccc3c(c2)CN(C(=O)C(NC(=O)C(C)NC)C(C)(C)C)C(C(=O)NC2CCCc4ccccc42)C3)c1C

> <Shape>
0.280

> <Color>
0.071

> <Negative vol penalty>
0.000

$$$$

  -OEChem-04052318393D

 85 93  0     1  0  0  0  0  0999 V2000
  -29.2294  -35.7724   22.0408 C   0  0  0  0  0  0  0  0  0  0  0  0
  -29.3182  -34.3879   21.9366 C   0  0  0  0  0  0  0  0  0  0  0  0
  -26.6774  -15.3084   22.0508 C   0  0  0  0  0  0  0  0  0  0  0  0
  -27.5835  -15.2046   19.8135 C   0  0  0  0  0  0  0  0  0  0  0  0
  -28.1508  -36.3523   22.7073 C   0  0  0  0  0  0  0  0  0  0  0  0
  -28.3289  -33.5826   22.4998 C   0  0  0  0  0  0  0  0  0  0  0  0
  -26.8635  -29.8533   19.4031 C   0  0  0  0  0  0  0  0  0  0  0  0
  -26.1885  -14.0093   21.9131 C   0  0  0  0  0  0  0  0  0  0  0  0
  -27.0946  -13.9054   19.6758 C   0  0  0  0  0  0  0  0  0  0  0  0
  -27.7005  -28.7428   19.3031 C   0  0  0  0  0  0  0  0  0  0  0  0
  -23.5598  -12.4810   20.4371 C   0  0  0  0  0  0  0  0  0  0  0  0
  -22.2552  -12.2317   20.8630 C   0  0  0  0  0  0  0  0  0  0  0  0
  -26.2727  -27.5369   20.8284 C   0  0  0  0  0  0  0  0  0  0  0  0
  -31.1552  -22.2838   17.6408 C   0  0  0  0  0  0  0  0  0  0  0  0
  -23.0824  -10.6024   22.4435 C   0  0  0  0  0  0  0  0  0  0  0  0
  -27.3748  -15.9061   21.0009 C   0  0  0  0  0  0  0  0  0  0  0  0
  -29.1404  -17.6348   21.6348 C   0  0  0  0  0  0  0  0  0  0  0  0
  -27.1428  -35.5540   23.2706 C   0  0  0  0  0  0  0  0  0  0  0  0
  -25.7288  -29.8176   20.2264 C   0  0  0  0  0  0  0  0  0  0  0  0
  -27.2366  -34.1523   23.1757 C   0  0  0  0  0  0  0  0  0  0  0  0
  -25.4216  -28.6474   20.9351 C   0  0  0  0  0  0  0  0  0  0  0  0
  -30.1578  -23.0378   16.9747 C   0  0  0  0  0  0  0  0  0  0  0  0
  -26.3972  -13.3078   20.7257 C   0  0  0  0  0  0  0  0  0  0  0  0
  -27.4068  -27.5854   20.0181 C   0  0  0  0  0  0  0  0  0  0  0  0
  -24.6258  -11.7909   21.0144 C   0  0  0  0  0  0  0  0  0  0  0  0
  -22.0164  -11.2925   21.8662 C   0  0  0  0  0  0  0  0  0  0  0  0
  -24.3870  -10.8516   22.0176 C   0  0  0  0  0  0  0  0  0  0  0  0
  -27.8795  -17.2482   21.1423 C   0  0  0  0  0  0  0  0  0  0  0  0
  -31.0734  -20.9904   17.1742 C   0  0  0  0  0  0  0  0  0  0  0  0
  -29.4967  -22.1821   16.1213 C   0  0  0  0  0  0  0  0  0  0  0  0
  -29.1301  -19.0065   21.5661 C   0  0  0  0  0  0  0  0  0  0  0  0
  -30.2241  -16.8262   22.1118 C   0  0  0  0  0  0  0  0  0  0  0  0
  -24.7644  -31.4337   22.7880 C   0  0  0  0  0  0  0  0  0  0  0  0
  -22.0391  -29.7283   22.3560 C   0  0  0  0  0  0  0  0  0  0  0  0
  -20.5374  -26.9387   21.0873 C   0  0  0  0  0  0  0  0  0  0  0  0
  -26.1062  -22.8957   18.1630 C   0  0  0  0  0  0  0  0  0  0  0  0
  -26.0206  -36.2249   24.0225 C   0  0  0  0  0  0  0  0  0  0  0  0
  -24.8215  -31.0148   20.3026 C   0  0  0  0  0  0  0  0  0  0  0  0
  -24.2044  -28.5510   21.8171 C   0  0  0  0  0  0  0  0  0  0  0  0
  -24.8206  -35.3134   24.2665 C   0  0  0  0  0  0  0  0  0  0  0  0
  -26.1432  -22.7409   21.7198 C   0  0  0  0  0  0  0  0  0  0  0  0
  -25.2797  -33.9527   24.7808 C   0  0  0  0  0  0  0  0  0  0  0  0
  -26.7061  -21.3505   22.0196 C   0  0  0  0  0  0  0  0  0  0  0  0
  -25.2495  -22.7330   20.4816 C   0  0  0  0  0  0  0  0  0  0  0  0
  -26.4354  -20.7735   19.5716 C   0  0  0  0  0  0  0  0  0  0  0  0
  -26.1705  -33.2460   23.7520 C   0  0  1  0  0  0  0  0  0  0  0  0
  -23.9744  -31.0427   21.5711 C   0  0  1  0  0  0  0  0  0  0  0  0
  -27.3878  -20.7422   20.7792 C   0  0  2  0  0  0  0  0  0  0  0  0
  -31.8756  -19.8025   17.5322 C   0  0  0  0  0  0  0  0  0  0  0  0
  -28.7476  -23.4026   14.0313 C   0  0  0  0  0  0  0  0  0  0  0  0
  -18.3049  -25.8042   20.9253 C   0  0  0  0  0  0  0  0  0  0  0  0
  -25.8311  -22.7171   14.9389 C   0  0  0  0  0  0  0  0  0  0  0  0
  -22.2817  -28.8408   25.2652 C   0  0  0  0  0  0  0  0  0  0  0  0
  -20.6335  -27.0212   24.7748 C   0  0  0  0  0  0  0  0  0  0  0  0
  -19.9575  -29.4108   24.5388 C   0  0  0  0  0  0  0  0  0  0  0  0
  -29.6527  -19.7563   15.5250 C   0  0  0  0  0  0  0  0  0  0  0  0
  -20.5527  -27.0750   18.1309 C   0  0  0  0  0  0  0  0  0  0  0  0
  -29.8784  -24.5066   17.1693 C   0  0  0  0  0  0  0  0  0  0  0  0
  -29.1206  -24.8237   18.4603 C   0  0  0  0  0  0  0  0  0  0  0  0
  -28.9181  -26.3168   18.6904 C   0  0  0  0  0  0  0  0  0  1  0  0
  -28.3752  -22.4406   15.1932 C   0  0  2  0  0  0  0  0  0  0  0  0
  -21.5261  -28.3926   22.8374 C   0  0  1  0  0  0  0  0  0  0  0  0
  -19.2792  -26.7615   20.2567 C   0  0  2  0  0  0  0  0  0  0  0  0
  -27.0342  -22.9125   15.8613 C   0  0  2  0  0  0  0  0  0  0  0  0
  -21.1238  -28.4185   24.3391 C   0  0  0  0  0  0  0  0  0  0  0  0
  -27.1231  -18.2902   20.7871 N   0  0  0  0  0  0  0  0  0  0  0  0
  -30.0616  -20.9402   16.2512 N   0  0  0  0  0  0  0  0  0  0  0  0
  -27.9110  -19.3450   21.0568 N   0  0  0  0  0  0  0  0  0  0  0  0
  -23.3516  -29.7501   21.8635 N   0  0  0  0  0  0  0  0  0  0  0  0
  -25.9558  -22.1452   19.3407 N   0  0  0  0  0  0  0  0  0  0  0  0
  -30.0449  -19.9441   21.8923 N   0  0  0  0  0  0  0  0  0  0  0  0
  -30.0679  -15.4334   22.1139 N   0  0  0  0  0  0  0  0  0  0  0  0
  -25.3653  -32.6745   22.6940 N   0  0  0  0  0  0  0  0  0  0  0  0
  -20.4417  -28.0223   21.9345 N   0  0  0  0  0  0  0  0  0  0  0  0
  -26.7936  -22.2665   17.1323 N   0  0  0  0  0  0  0  0  0  0  0  0
  -19.6193  -26.2212   18.9100 N   0  3  0  0  0  0  0  0  0  0  0  0
  -31.2929  -17.3248   22.5391 O   0  0  0  0  0  0  0  0  0  0  0  0
  -24.8232  -30.6670   23.7422 O   0  0  0  0  0  0  0  0  0  0  0  0
  -21.2999  -30.7145   22.4083 O   0  0  0  0  0  0  0  0  0  0  0  0
  -21.5067  -26.1884   20.9965 O   0  0  0  0  0  0  0  0  0  0  0  0
  -25.6655  -24.0437   18.0410 O   0  0  0  0  0  0  0  0  0  0  0  0
  -25.9205  -12.0400   20.5910 O   0  0  0  0  0  0  0  0  0  0  0  0
  -28.2224  -26.5002   19.9228 O   0  0  0  0  0  0  0  0  0  1  0  0
  -20.7637  -11.0544   22.2761 F   0  0  0  0  0  0  0  0  0  0  0  0
  -25.4071  -10.1864   22.5768 F   0  0  0  0  0  0  0  0  0  0  0  0
  1  2  1  0  0  0  0
  1  5  2  0  0  0  0
  2  6  2  0  0  0  0
  3  8  2  0  0  0  0
  3 16  1  0  0  0  0
  4  9  1  0  0  0  0
  4 16  2  0  0  0  0
  5 18  1  0  0  0  0
  6 20  1  0  0  0  0
  7 10  2  0  0  0  0
  7 19  1  0  0  0  0
  8 23  1  0  0  0  0
  9 23  2  0  0  0  0
 10 24  1  0  0  0  0
 11 12  2  0  0  0  0
 11 25  1  0  0  0  0
 12 26  1  0  0  0  0
 13 21  1  0  0  0  0
 13 24  2  0  0  0  0
 14 22  1  0  0  0  0
 14 29  2  0  0  0  0
 15 26  2  0  0  0  0
 15 27  1  0  0  0  0
 16 28  1  0  0  0  0
 17 28  1  0  0  0  0
 17 31  2  0  0  0  0
 17 32  1  0  0  0  0
 18 20  2  0  0  0  0
 18 37  1  0  0  0  0
 19 21  2  0  0  0  0
 19 38  1  0  0  0  0
 20 46  1  0  0  0  0
 21 39  1  0  0  0  0
 22 30  2  0  0  0  0
 22 58  1  0  0  0  0
 23 82  1  0  0  0  0
 24 83  1  0  0  0  0
 25 27  2  0  0  0  0
 25 82  1  0  0  0  0
 26 84  1  0  0  0  0
 27 85  1  0  0  0  0
 28 66  2  0  0  0  0
 29 49  1  0  0  0  0
 29 67  1  0  0  0  0
 30 61  1  0  0  0  0
 30 67  1  0  0  0  0
 31 68  1  0  0  0  0
 31 71  1  0  0  0  0
 32 72  1  0  0  0  0
 32 77  2  0  0  0  0
 33 47  1  0  0  0  0
 33 73  1  0  0  0  0
 33 78  2  0  0  0  0
 34 62  1  0  0  0  0
 34 69  1  0  0  0  0
 34 79  2  0  0  0  0
 35 63  1  0  0  0  0
 35 74  1  0  0  0  0
 35 80  2  0  0  0  0
 36 70  1  0  0  0  0
 36 75  1  0  0  0  0
 36 81  2  0  0  0  0
 37 40  1  0  0  0  0
 38 47  1  0  0  0  0
 39 69  1  0  0  0  0
 40 42  1  0  0  0  0
 41 43  1  0  0  0  0
 41 44  1  0  0  0  0
 42 46  1  0  0  0  0
 43 48  1  0  0  0  0
 44 70  1  0  0  0  0
 45 48  1  0  0  0  0
 45 70  1  0  0  0  0
 46 73  1  0  0  0  0
 47 69  1  0  0  0  0
 48 68  1  0  0  0  0
 50 61  1  0  0  0  0
 51 63  1  0  0  0  0
 52 64  1  0  0  0  0
 53 65  1  0  0  0  0
 54 65  1  0  0  0  0
 55 65  1  0  0  0  0
 56 67  1  0  0  0  0
 57 76  1  0  0  0  0
 58 59  1  0  0  0  0
 59 60  1  0  0  0  0
 60 83  1  0  0  0  0
 61 64  1  0  0  0  0
 62 65  1  0  0  0  0
 62 74  1  0  0  0  0
 63 76  1  0  0  0  0
 64 75  1  0  0  0  0
 66 68  1  0  0  0  0
M  CHG  1  76   1
M  ISO  4  36 100  60 101  75 100  83 101
M  END
> <Batch ID>
0078

> <Smiles>
CNC(C)C(=O)NC(C(=O)N1Cc2cc([101O:1][101CH2:1]CCc3cc(C)n(C)c3C(C)C(C)[100NH:0][100C:0](=O)N3CCCC(n4nc(-c5ccc(Oc6ccc(F)cc6F)cc5)c(C(N)=O)c4N)C3)ccc2CC1C(=O)NC1CCCc2ccccc21)C(C)(C)C

> <Shape>
0.290

> <Color>
0.066

> <Negative vol penalty>
0.000

$$$$

  -OEChem-04052318393D

 90 98  0     1  0  0  0  0  0999 V2000
  -16.6031  -28.7435   23.4780 C   0  0  0  0  0  0  0  0  0  0  0  0
  -17.4988  -28.2939   22.5132 C   0  0  0  0  0  0  0  0  0  0  0  0
  -27.4910  -13.3579   23.0631 C   0  0  0  0  0  0  0  0  0  0  0  0
  -28.1789  -14.3975   20.9936 C   0  0  0  0  0  0  0  0  0  0  0  0
  -16.9687  -29.7774   24.3390 C   0  0  0  0  0  0  0  0  0  0  0  0
  -18.7603  -28.8786   22.4081 C   0  0  0  0  0  0  0  0  0  0  0  0
  -23.9941  -26.0913   20.8770 C   0  0  0  0  0  0  0  0  0  0  0  0
  -26.8392  -12.3564   22.3434 C   0  0  0  0  0  0  0  0  0  0  0  0
  -27.5272  -13.3961   20.2738 C   0  0  0  0  0  0  0  0  0  0  0  0
  -24.6935  -26.0044   19.6741 C   0  0  0  0  0  0  0  0  0  0  0  0
  -24.6900   -9.7245   21.0482 C   0  0  0  0  0  0  0  0  0  0  0  0
  -23.4079   -9.3590   21.4581 C   0  0  0  0  0  0  0  0  0  0  0  0
  -26.0885  -27.8495   20.3590 C   0  0  0  0  0  0  0  0  0  0  0  0
  -22.6423  -11.6188   21.0785 C   0  0  0  0  0  0  0  0  0  0  0  0
  -28.1608  -14.3785   22.3882 C   0  0  0  0  0  0  0  0  0  0  0  0
  -30.1701  -15.4105   23.5735 C   0  0  0  0  0  0  0  0  0  0  0  0
  -18.2389  -30.3686   24.2508 C   0  0  0  0  0  0  0  0  0  0  0  0
  -24.3301  -27.0666   21.8269 C   0  0  0  0  0  0  0  0  0  0  0  0
  -19.1428  -29.9223   23.2679 C   0  0  0  0  0  0  0  0  0  0  0  0
  -25.3934  -27.9450   21.5742 C   0  0  0  0  0  0  0  0  0  0  0  0
  -26.8573  -12.3755   20.9488 C   0  0  0  0  0  0  0  0  0  0  0  0
  -25.7390  -26.8855   19.4137 C   0  0  0  0  0  0  0  0  0  0  0  0
  -24.9484  -11.0372   20.6536 C   0  0  0  0  0  0  0  0  0  0  0  0
  -22.3840  -10.3061   21.4732 C   0  0  0  0  0  0  0  0  0  0  0  0
  -23.9245  -11.9844   20.6686 C   0  0  0  0  0  0  0  0  0  0  0  0
  -28.8337  -15.4135   23.1311 C   0  0  0  0  0  0  0  0  0  0  0  0
  -30.5170  -18.0598   18.9343 C   0  0  0  0  0  0  0  0  0  0  0  0
  -29.7423  -19.1924   18.9484 C   0  0  0  0  0  0  0  0  0  0  0  0
  -30.3189  -16.6105   24.2249 C   0  0  0  0  0  0  0  0  0  0  0  0
  -31.1862  -14.4122   23.4103 C   0  0  0  0  0  0  0  0  0  0  0  0
  -22.8149  -29.5310   23.1440 C   0  0  0  0  0  0  0  0  0  0  0  0
  -25.4889  -29.6969   24.9728 C   0  0  0  0  0  0  0  0  0  0  0  0
  -28.8104  -28.9937   25.3189 C   0  0  0  0  0  0  0  0  0  0  0  0
  -27.0139  -21.7289   23.5784 C   0  0  0  0  0  0  0  0  0  0  0  0
  -18.5715  -31.5151   25.1724 C   0  0  0  0  0  0  0  0  0  0  0  0
  -23.5833  -27.1299   23.1310 C   0  0  0  0  0  0  0  0  0  0  0  0
  -25.8068  -28.9969   22.5698 C   0  0  0  0  0  0  0  0  0  0  0  0
  -20.0641  -31.8280   25.2413 C   0  0  0  0  0  0  0  0  0  0  0  0
  -27.8491  -19.8848   26.6773 C   0  0  0  0  0  0  0  0  0  0  0  0
  -20.6656  -31.8715   23.8401 C   0  0  0  0  0  0  0  0  0  0  0  0
  -28.2405  -18.5058   26.1491 C   0  0  0  0  0  0  0  0  0  0  0  0
  -26.8512  -20.5821   25.7578 C   0  0  0  0  0  0  0  0  0  0  0  0
  -27.6959  -19.3058   23.8158 C   0  0  0  0  0  0  0  0  0  0  0  0
  -20.5294  -30.5145   23.1390 C   0  0  1  0  0  0  0  0  0  0  0  0
  -23.6765  -28.4941   23.8074 C   0  0  1  0  0  0  0  0  0  0  0  0
  -28.7360  -18.5955   24.6952 C   0  0  2  0  0  0  0  0  0  0  0  0
  -31.5294  -17.6376   17.9569 C   0  0  0  0  0  0  0  0  0  0  0  0
  -28.2790  -23.9351   21.5034 C   0  0  0  0  0  0  0  0  0  0  0  0
  -30.7310  -29.2872   26.9071 C   0  0  0  0  0  0  0  0  0  0  0  0
  -26.7676  -23.9367   15.0228 C   0  0  0  0  0  0  0  0  0  0  0  0
  -29.0400  -25.6614   17.6976 C   0  0  0  0  0  0  0  0  0  0  0  0
  -25.7193  -32.6258   24.1490 C   0  0  0  0  0  0  0  0  0  0  0  0
  -28.0893  -32.5939   24.9556 C   0  0  0  0  0  0  0  0  0  0  0  0
  -26.2228  -32.1767   26.5571 C   0  0  0  0  0  0  0  0  0  0  0  0
  -29.1691  -26.0702   25.6080 C   0  0  0  0  0  0  0  0  0  0  0  0
  -29.6412  -20.3723   18.0144 C   0  0  0  0  0  0  0  0  0  0  0  0
  -28.4336  -20.3102   17.0711 C   0  0  0  0  0  0  0  0  0  0  0  0
  -28.3422  -21.5241   16.1405 C   0  0  0  0  0  0  0  0  0  0  0  0
  -28.1215  -22.8494   16.8843 C   0  0  0  0  0  0  0  0  0  0  0  0
  -27.9972  -19.9531   20.6012 C   0  0  0  0  0  0  0  0  0  0  0  0
  -27.2083  -22.8679   21.4002 C   0  0  0  0  0  0  0  0  0  0  0  0
  -28.5107  -20.8039   21.7599 C   0  0  0  0  0  0  0  0  0  0  0  0
  -26.5227  -25.5134   17.6363 C   0  0  0  0  0  0  0  0  0  1  0  0
  -26.8196  -30.4008   24.8595 C   0  0  1  0  0  0  0  0  0  0  0  0
  -29.5958  -28.3780   26.4628 C   0  0  2  0  0  0  0  0  0  0  0  0
  -27.9463  -24.0995   15.9924 C   0  0  2  0  0  0  0  0  0  0  0  0
  -27.8118  -25.4216   16.8064 C   0  0  2  0  0  0  0  0  0  0  0  0
  -26.7040  -31.9309   25.1105 C   0  0  0  0  0  0  0  0  0  0  0  0
  -28.1800  -16.5271   23.4726 N   0  0  0  0  0  0  0  0  0  0  0  0
  -30.2251  -17.2898   20.0258 N   0  0  0  0  0  0  0  0  0  0  0  0
  -29.2831  -17.9133   20.7250 N   0  0  0  0  0  0  0  0  0  0  0  0
  -28.9949  -19.0538   20.0772 N   0  0  0  0  0  0  0  0  0  0  0  0
  -29.1095  -17.2349   24.1367 N   0  0  0  0  0  0  0  0  0  0  0  0
  -25.0419  -29.0229   23.8275 N   0  0  0  0  0  0  0  0  0  0  0  0
  -27.3277  -20.6152   24.3747 N   0  0  0  0  0  0  0  0  0  0  0  0
  -31.3649  -17.1820   24.8588 N   0  0  0  0  0  0  0  0  0  0  0  0
  -30.8644  -13.2388   22.7147 N   0  0  0  0  0  0  0  0  0  0  0  0
  -21.5242  -29.5875   23.6344 N   0  0  0  0  0  0  0  0  0  0  0  0
  -27.7247  -29.7121   25.7732 N   0  0  0  0  0  0  0  0  0  0  0  0
  -27.4975  -21.7300   22.2613 N   0  0  0  0  0  0  0  0  0  0  0  0
  -30.1764  -27.0698   26.0475 N   0  3  0  0  0  0  0  0  0  0  0  0
  -32.3405  -14.5494   23.8819 O   0  0  0  0  0  0  0  0  0  0  0  0
  -23.2866  -30.2291   22.2541 O   0  0  0  0  0  0  0  0  0  0  0  0
  -24.8722  -29.7375   26.0403 O   0  0  0  0  0  0  0  0  0  0  0  0
  -29.1303  -28.8545   24.1404 O   0  0  0  0  0  0  0  0  0  0  0  0
  -26.3479  -22.6729   24.0224 O   0  0  0  0  0  0  0  0  0  0  0  0
  -26.2217  -11.3983   20.2462 O   0  0  0  0  0  0  0  0  0  0  0  0
  -26.4273  -26.8028   18.2325 O   0  0  0  0  0  0  0  0  0  1  0  0
  -21.1524   -9.9546   21.8653 F   0  0  0  0  0  0  0  0  0  0  0  0
  -24.1664  -13.2467   20.2894 F   0  0  0  0  0  0  0  0  0  0  0  0
  1  2  1  0  0  0  0
  1  5  2  0  0  0  0
  2  6  2  0  0  0  0
  3  8  2  0  0  0  0
  3 15  1  0  0  0  0
  4  9  1  0  0  0  0
  4 15  2  0  0  0  0
  5 17  1  0  0  0  0
  6 19  1  0  0  0  0
  7 10  2  0  0  0  0
  7 18  1  0  0  0  0
  8 21  1  0  0  0  0
  9 21  2  0  0  0  0
 10 22  1  0  0  0  0
 11 12  2  0  0  0  0
 11 23  1  0  0  0  0
 12 24  1  0  0  0  0
 13 20  1  0  0  0  0
 13 22  2  0  0  0  0
 14 24  2  0  0  0  0
 14 25  1  0  0  0  0
 15 26  1  0  0  0  0
 16 26  1  0  0  0  0
 16 29  2  0  0  0  0
 16 30  1  0  0  0  0
 17 19  2  0  0  0  0
 17 35  1  0  0  0  0
 18 20  2  0  0  0  0
 18 36  1  0  0  0  0
 19 44  1  0  0  0  0
 20 37  1  0  0  0  0
 21 87  1  0  0  0  0
 22 88  1  0  0  0  0
 23 25  2  0  0  0  0
 23 87  1  0  0  0  0
 24 89  1  0  0  0  0
 25 90  1  0  0  0  0
 26 69  2  0  0  0  0
 27 28  2  0  0  0  0
 27 47  1  0  0  0  0
 27 70  1  0  0  0  0
 28 56  1  0  0  0  0
 28 72  1  0  0  0  0
 29 73  1  0  0  0  0
 29 76  1  0  0  0  0
 30 77  1  0  0  0  0
 30 82  2  0  0  0  0
 31 45  1  0  0  0  0
 31 78  1  0  0  0  0
 31 83  2  0  0  0  0
 32 64  1  0  0  0  0
 32 74  1  0  0  0  0
 32 84  2  0  0  0  0
 33 65  1  0  0  0  0
 33 79  1  0  0  0  0
 33 85  2  0  0  0  0
 34 75  1  0  0  0  0
 34 80  1  0  0  0  0
 34 86  2  0  0  0  0
 35 38  1  0  0  0  0
 36 45  1  0  0  0  0
 37 74  1  0  0  0  0
 38 40  1  0  0  0  0
 39 41  1  0  0  0  0
 39 42  1  0  0  0  0
 40 44  1  0  0  0  0
 41 46  1  0  0  0  0
 42 75  1  0  0  0  0
 43 46  1  0  0  0  0
 43 75  1  0  0  0  0
 44 78  1  0  0  0  0
 45 74  1  0  0  0  0
 46 73  1  0  0  0  0
 48 61  1  0  0  0  0
 49 65  1  0  0  0  0
 50 66  1  0  0  0  0
 51 67  1  0  0  0  0
 52 68  1  0  0  0  0
 53 68  1  0  0  0  0
 54 68  1  0  0  0  0
 55 81  1  0  0  0  0
 56 57  1  0  0  0  0
 57 58  1  0  0  0  0
 58 59  1  0  0  0  0
 59 66  1  0  0  0  0
 60 62  1  0  0  0  0
 60 72  1  0  0  0  0
 61 80  1  0  0  0  0
 62 80  1  0  0  0  0
 63 67  1  0  0  0  0
 63 88  1  0  0  0  0
 64 68  1  0  0  0  0
 64 79  1  0  0  0  0
 65 81  1  0  0  0  0
 66 67  1  0  0  0  0
 69 73  1  0  0  0  0
 70 71  2  0  0  0  0
 71 72  1  0  0  0  0
M  CHG  1  81   1
M  ISO  4  34 100  63 101  80 100  88 101
M  END
> <Batch ID>
0078

> <Smiles>
CC[100N:0](CCn1nnc(C)c1CCCCC(C)C(C)[101CH2:1][101O:1]c1ccc2c(c1)CN(C(=O)C(NC(=O)C(C)NC)C(C)(C)C)C(C(=O)NC1CCCc3ccccc31)C2)[100C:0](=O)N1CCCC(n2nc(-c3ccc(Oc4ccc(F)cc4F)cc3)c(C(N)=O)c2N)C1

> <Shape>
0.256

> <Color>
0.064

> <Negative vol penalty>
0.000

$$$$

  -OEChem-04052318393D

 85 93  0     1  0  0  0  0  0999 V2000
  -24.5811  -11.9621   20.4888 C   0  0  0  0  0  0  0  0  0  0  0  0
  -24.0408  -13.1748   20.9043 C   0  0  0  0  0  0  0  0  0  0  0  0
  -26.3758  -31.3031   20.3711 C   0  0  0  0  0  0  0  0  0  0  0  0
  -24.9350  -30.8156   22.2482 C   0  0  0  0  0  0  0  0  0  0  0  0
  -25.9647  -11.7975   20.4382 C   0  0  0  0  0  0  0  0  0  0  0  0
  -24.8838  -14.2234   21.2706 C   0  0  0  0  0  0  0  0  0  0  0  0
  -23.4274  -18.6612   19.3135 C   0  0  0  0  0  0  0  0  0  0  0  0
  -26.7646  -32.4965   20.9794 C   0  0  0  0  0  0  0  0  0  0  0  0
  -25.3238  -32.0091   22.8566 C   0  0  0  0  0  0  0  0  0  0  0  0
  -22.3612  -19.3113   19.9336 C   0  0  0  0  0  0  0  0  0  0  0  0
  -27.9710  -33.1601   24.6138 C   0  0  0  0  0  0  0  0  0  0  0  0
  -28.2888  -33.1203   25.9714 C   0  0  0  0  0  0  0  0  0  0  0  0
  -23.9168  -20.7505   21.0860 C   0  0  0  0  0  0  0  0  0  0  0  0
  -26.5300  -34.7120   26.4298 C   0  0  0  0  0  0  0  0  0  0  0  0
  -20.2288  -27.4886   23.0643 C   0  0  0  0  0  0  0  0  0  0  0  0
  -25.4609  -30.4626   21.0055 C   0  0  0  0  0  0  0  0  0  0  0  0
  -25.6657  -27.9674   20.5159 C   0  0  0  0  0  0  0  0  0  0  0  0
  -26.8251  -12.8478   20.7947 C   0  0  0  0  0  0  0  0  0  0  0  0
  -24.7489  -19.0443   19.5839 C   0  0  0  0  0  0  0  0  0  0  0  0
  -26.2802  -14.0723   21.2260 C   0  0  0  0  0  0  0  0  0  0  0  0
  -24.9979  -20.1053   20.4661 C   0  0  0  0  0  0  0  0  0  0  0  0
  -26.2386  -32.8495   22.2222 C   0  0  0  0  0  0  0  0  0  0  0  0
  -22.6060  -20.3542   20.8221 C   0  0  0  0  0  0  0  0  0  0  0  0
  -26.9328  -33.9760   24.1642 C   0  0  0  0  0  0  0  0  0  0  0  0
  -27.5683  -33.8962   26.8794 C   0  0  0  0  0  0  0  0  0  0  0  0
  -26.2123  -34.7519   25.0722 C   0  0  0  0  0  0  0  0  0  0  0  0
  -25.0585  -29.2299   20.3773 C   0  0  0  0  0  0  0  0  0  0  0  0
  -19.8087  -28.8260   22.9344 C   0  0  0  0  0  0  0  0  0  0  0  0
  -19.3080  -26.7679   22.3438 C   0  0  0  0  0  0  0  0  0  0  0  0
  -24.9131  -27.1356   19.7233 C   0  0  0  0  0  0  0  0  0  0  0  0
  -26.8079  -27.5811   21.2917 C   0  0  0  0  0  0  0  0  0  0  0  0
  -27.2875  -17.6071   20.8464 C   0  0  0  0  0  0  0  0  0  0  0  0
  -28.7842  -20.3532   19.9856 C   0  0  0  0  0  0  0  0  0  0  0  0
  -28.5432  -23.6788   19.2581 C   0  0  0  0  0  0  0  0  0  0  0  0
  -19.2438  -27.3555   17.8098 C   0  0  0  0  0  0  0  0  0  0  0  0
  -28.3138  -12.6072   20.7691 C   0  0  0  0  0  0  0  0  0  0  0  0
  -25.8868  -18.3506   18.8864 C   0  0  0  0  0  0  0  0  0  0  0  0
  -26.3975  -20.5683   20.7747 C   0  0  0  0  0  0  0  0  0  0  0  0
  -29.1391  -13.8906   20.8158 C   0  0  0  0  0  0  0  0  0  0  0  0
  -22.1761  -27.1682   15.7991 C   0  0  0  0  0  0  0  0  0  0  0  0
  -28.6095  -14.8268   21.8973 C   0  0  0  0  0  0  0  0  0  0  0  0
  -23.3022  -27.5614   16.7570 C   0  0  0  0  0  0  0  0  0  0  0  0
  -20.9006  -27.9626   16.0712 C   0  0  0  0  0  0  0  0  0  0  0  0
  -21.5503  -28.3038   18.4239 C   0  0  0  0  0  0  0  0  0  0  0  0
  -27.1619  -15.2416   21.6076 C   0  0  1  0  0  0  0  0  0  0  0  0
  -27.2130  -18.4842   19.6286 C   0  0  1  0  0  0  0  0  0  0  0  0
  -22.8403  -27.4898   18.2249 C   0  0  2  0  0  0  0  0  0  0  0  0
  -20.4380  -30.0245   23.5140 C   0  0  0  0  0  0  0  0  0  0  0  0
  -29.9430  -25.6639   18.6279 C   0  0  0  0  0  0  0  0  0  0  0  0
  -29.7568  -20.5795   22.8688 C   0  0  0  0  0  0  0  0  0  0  0  0
  -30.3117  -22.9793   22.4198 C   0  0  0  0  0  0  0  0  0  0  0  0
  -31.4652  -21.1740   21.1418 C   0  0  0  0  0  0  0  0  0  0  0  0
  -16.2281  -26.4853   21.6828 C   0  0  0  0  0  0  0  0  0  0  0  0
  -16.5511  -28.7505   20.7234 C   0  0  0  0  0  0  0  0  0  0  0  0
  -27.1109  -24.0199   16.6908 C   0  0  0  0  0  0  0  0  0  0  0  0
  -19.1909  -25.2867   22.0869 C   0  0  0  0  0  0  0  0  0  0  0  0
  -20.5364  -24.5527   22.0714 C   0  0  0  0  0  0  0  0  0  0  0  0
  -20.4042  -23.0671   21.7334 C   0  0  0  0  0  0  0  0  0  0  0  0
  -17.6975  -26.7813   19.6641 C   0  0  0  0  0  0  0  0  0  0  0  0
  -21.7544  -22.3639   21.7665 C   0  0  0  0  0  0  0  0  0  1  0  0
  -29.0387  -21.6852   20.6489 C   0  0  1  0  0  0  0  0  0  0  0  0
  -29.1058  -24.5030   18.1141 C   0  0  2  0  0  0  0  0  0  0  0  0
  -30.1167  -21.5947   21.7657 C   0  0  0  0  0  0  0  0  0  0  0  0
  -17.2736  -27.4138   21.0177 C   0  0  0  0  0  0  0  0  0  0  0  0
  -24.0017  -29.2070   19.5608 N   0  0  0  0  0  0  0  0  0  0  0  0
  -18.7069  -28.9503   22.1897 N   0  0  0  0  0  0  0  0  0  0  0  0
  -18.4268  -27.6818   21.8452 N   0  0  0  0  0  0  0  0  0  0  0  0
  -23.9390  -27.9200   19.1791 N   0  0  0  0  0  0  0  0  0  0  0  0
  -27.4767  -19.8544   20.0726 N   0  0  0  0  0  0  0  0  0  0  0  0
  -20.5158  -27.8518   17.4803 N   0  0  0  0  0  0  0  0  0  0  0  0
  -24.9963  -25.8171   19.4456 N   0  0  0  0  0  0  0  0  0  0  0  0
  -27.4638  -28.5613   22.0488 N   0  0  0  0  0  0  0  0  0  0  0  0
  -27.1241  -16.2608   20.5809 N   0  0  0  0  0  0  0  0  0  0  0  0
  -29.3658  -22.6192   19.5770 N   0  0  0  0  0  0  0  0  0  0  0  0
  -18.9620  -27.2772   19.1682 N   0  0  0  0  0  0  0  0  0  0  0  0
  -28.0004  -25.0537   17.2799 N   0  3  0  0  0  0  0  0  0  0  0  0
  -27.2440  -26.4050   21.3001 O   0  0  0  0  0  0  0  0  0  0  0  0
  -27.4805  -18.1140   21.9452 O   0  0  0  0  0  0  0  0  0  0  0  0
  -29.7096  -19.7800   19.4054 O   0  0  0  0  0  0  0  0  0  0  0  0
  -27.4820  -23.9501   19.8157 O   0  0  0  0  0  0  0  0  0  0  0  0
  -18.4222  -27.0030   16.9568 O   0  0  0  0  0  0  0  0  0  0  0  0
  -26.6180  -34.0139   22.8162 O   0  0  0  0  0  0  0  0  0  0  0  0
  -21.5672  -20.9900   21.4292 O   0  0  0  0  0  0  0  0  0  1  0  0
  -27.8725  -33.8566   28.1832 F   0  0  0  0  0  0  0  0  0  0  0  0
  -25.2130  -35.5368   24.6464 F   0  0  0  0  0  0  0  0  0  0  0  0
  1  2  1  0  0  0  0
  1  5  2  0  0  0  0
  2  6  2  0  0  0  0
  3  8  2  0  0  0  0
  3 16  1  0  0  0  0
  4  9  1  0  0  0  0
  4 16  2  0  0  0  0
  5 18  1  0  0  0  0
  6 20  1  0  0  0  0
  7 10  2  0  0  0  0
  7 19  1  0  0  0  0
  8 22  1  0  0  0  0
  9 22  2  0  0  0  0
 10 23  1  0  0  0  0
 11 12  2  0  0  0  0
 11 24  1  0  0  0  0
 12 25  1  0  0  0  0
 13 21  1  0  0  0  0
 13 23  2  0  0  0  0
 14 25  2  0  0  0  0
 14 26  1  0  0  0  0
 15 28  1  0  0  0  0
 15 29  2  0  0  0  0
 16 27  1  0  0  0  0
 17 27  1  0  0  0  0
 17 30  2  0  0  0  0
 17 31  1  0  0  0  0
 18 20  2  0  0  0  0
 18 36  1  0  0  0  0
 19 21  2  0  0  0  0
 19 37  1  0  0  0  0
 20 45  1  0  0  0  0
 21 38  1  0  0  0  0
 22 82  1  0  0  0  0
 23 83  1  0  0  0  0
 24 26  2  0  0  0  0
 24 82  1  0  0  0  0
 25 84  1  0  0  0  0
 26 85  1  0  0  0  0
 27 65  2  0  0  0  0
 28 48  1  0  0  0  0
 28 66  2  0  0  0  0
 29 56  1  0  0  0  0
 29 67  1  0  0  0  0
 30 68  1  0  0  0  0
 30 71  1  0  0  0  0
 31 72  1  0  0  0  0
 31 77  2  0  0  0  0
 32 46  1  0  0  0  0
 32 73  1  0  0  0  0
 32 78  2  0  0  0  0
 33 61  1  0  0  0  0
 33 69  1  0  0  0  0
 33 79  2  0  0  0  0
 34 62  1  0  0  0  0
 34 74  1  0  0  0  0
 34 80  2  0  0  0  0
 35 70  1  0  0  0  0
 35 75  1  0  0  0  0
 35 81  2  0  0  0  0
 36 39  1  0  0  0  0
 37 46  1  0  0  0  0
 38 69  1  0  0  0  0
 39 41  1  0  0  0  0
 40 42  1  0  0  0  0
 40 43  1  0  0  0  0
 41 45  1  0  0  0  0
 42 47  1  0  0  0  0
 43 70  1  0  0  0  0
 44 47  1  0  0  0  0
 44 70  1  0  0  0  0
 45 73  1  0  0  0  0
 46 69  1  0  0  0  0
 47 68  1  0  0  0  0
 49 62  1  0  0  0  0
 50 63  1  0  0  0  0
 51 63  1  0  0  0  0
 52 63  1  0  0  0  0
 53 64  1  0  0  0  0
 54 64  1  0  0  0  0
 55 76  1  0  0  0  0
 56 57  1  0  0  0  0
 57 58  1  0  0  0  0
 58 60  1  0  0  0  0
 59 64  1  0  0  0  0
 59 75  1  0  0  0  0
 60 83  1  0  0  0  0
 61 63  1  0  0  0  0
 61 74  1  0  0  0  0
 62 76  1  0  0  0  0
 64 67  1  0  0  0  0
 65 68  1  0  0  0  0
 66 67  1  0  0  0  0
M  CHG  1  76   1
M  ISO  4  35 100  60 101  75 100  83 101
M  END
> <Batch ID>
0078

> <Smiles>
CNC(C)C(=O)NC(C(=O)N1Cc2cc([101O:1][101CH2:1]CCCc3cc(C)nn3C(C)(C)C[100NH:0][100C:0](=O)N3CCCC(n4nc(-c5ccc(Oc6ccc(F)cc6F)cc5)c(C(N)=O)c4N)C3)ccc2CC1C(=O)NC1CCCc2ccccc21)C(C)(C)C

> <Shape>
0.274

> <Color>
0.053

> <Negative vol penalty>
0.000

$$$$

  -OEChem-04052318393D

 83 91  0     1  0  0  0  0  0999 V2000
  -29.2427  -34.2519   16.7258 C   0  0  0  0  0  0  0  0  0  0  0  0
  -29.2217  -32.9392   17.1860 C   0  0  0  0  0  0  0  0  0  0  0  0
  -24.1902  -10.1666   22.2390 C   0  0  0  0  0  0  0  0  0  0  0  0
  -24.6349  -11.7070   24.0464 C   0  0  0  0  0  0  0  0  0  0  0  0
  -28.8625  -35.2924   17.5724 C   0  0  0  0  0  0  0  0  0  0  0  0
  -28.8215  -32.6664   18.4936 C   0  0  0  0  0  0  0  0  0  0  0  0
  -25.6418  -28.7349   18.7718 C   0  0  0  0  0  0  0  0  0  0  0  0
  -23.8016   -9.1957   23.1620 C   0  0  0  0  0  0  0  0  0  0  0  0
  -24.2463  -10.7361   24.9695 C   0  0  0  0  0  0  0  0  0  0  0  0
  -26.1973  -27.4592   18.6833 C   0  0  0  0  0  0  0  0  0  0  0  0
  -21.0767   -8.4879   25.0346 C   0  0  0  0  0  0  0  0  0  0  0  0
  -19.9110   -7.7698   24.7680 C   0  0  0  0  0  0  0  0  0  0  0  0
  -26.0809  -27.2486   21.0835 C   0  0  0  0  0  0  0  0  0  0  0  0
  -21.1799   -5.7138   24.7580 C   0  0  0  0  0  0  0  0  0  0  0  0
  -29.2841  -19.6274   18.1479 C   0  0  0  0  0  0  0  0  0  0  0  0
  -24.6069  -11.4223   22.6812 C   0  0  0  0  0  0  0  0  0  0  0  0
  -24.1886  -13.3880   21.1100 C   0  0  0  0  0  0  0  0  0  0  0  0
  -28.4482  -35.0313   18.8880 C   0  0  0  0  0  0  0  0  0  0  0  0
  -25.3112  -29.2822   20.0198 C   0  0  0  0  0  0  0  0  0  0  0  0
  -28.4367  -33.7045   19.3590 C   0  0  0  0  0  0  0  0  0  0  0  0
  -25.5190  -28.5304   21.1850 C   0  0  0  0  0  0  0  0  0  0  0  0
  -23.8296   -9.4804   24.5272 C   0  0  0  0  0  0  0  0  0  0  0  0
  -26.4196  -26.7170   19.8395 C   0  0  0  0  0  0  0  0  0  0  0  0
  -22.2940   -7.8191   25.1628 C   0  0  0  0  0  0  0  0  0  0  0  0
  -19.9626   -6.3828   24.6298 C   0  0  0  0  0  0  0  0  0  0  0  0
  -22.3456   -6.4320   25.0245 C   0  0  0  0  0  0  0  0  0  0  0  0
  -25.0090  -12.4254   21.7283 C   0  0  0  0  0  0  0  0  0  0  0  0
  -29.4587  -19.1344   19.4155 C   0  0  0  0  0  0  0  0  0  0  0  0
  -25.0412  -14.0956   20.2984 C   0  0  0  0  0  0  0  0  0  0  0  0
  -30.4031  -21.4930   18.7538 C   0  0  0  0  0  0  0  0  0  0  0  0
  -22.7816  -13.6217   21.2564 C   0  0  0  0  0  0  0  0  0  0  0  0
  -26.2622  -31.8217   21.6784 C   0  0  0  0  0  0  0  0  0  0  0  0
  -29.9331  -16.7037   19.5521 C   0  0  0  0  0  0  0  0  0  0  0  0
  -23.8816  -30.9154   23.6868 C   0  0  0  0  0  0  0  0  0  0  0  0
  -21.8736  -28.4171   24.8587 C   0  0  0  0  0  0  0  0  0  0  0  0
  -28.0916  -36.1932   19.7809 C   0  0  0  0  0  0  0  0  0  0  0  0
  -24.6880  -30.6491   20.0963 C   0  0  0  0  0  0  0  0  0  0  0  0
  -25.1627  -29.0644   22.5475 C   0  0  0  0  0  0  0  0  0  0  0  0
  -27.3224  -35.7844   21.0345 C   0  0  0  0  0  0  0  0  0  0  0  0
  -29.8143  -13.1775   18.9261 C   0  0  0  0  0  0  0  0  0  0  0  0
  -27.9846  -34.5812   21.6984 C   0  0  0  0  0  0  0  0  0  0  0  0
  -28.5011  -12.7418   19.5749 C   0  0  0  0  0  0  0  0  0  0  0  0
  -30.4825  -14.2983   19.7162 C   0  0  0  0  0  0  0  0  0  0  0  0
  -28.2942  -15.0563   20.5873 C   0  0  0  0  0  0  0  0  0  0  0  0
  -27.9851  -33.3660   20.7632 C   0  0  1  0  0  0  0  0  0  0  0  0
  -24.8660  -31.3115   21.4589 C   0  0  1  0  0  0  0  0  0  0  0  0
  -27.5712  -13.9465   19.8038 C   0  0  2  0  0  0  0  0  0  0  0  0
  -20.0518  -27.9727   26.5263 C   0  0  0  0  0  0  0  0  0  0  0  0
  -25.9388  -30.9510   25.9399 C   0  0  0  0  0  0  0  0  0  0  0  0
  -24.3385  -29.6169   27.3282 C   0  0  0  0  0  0  0  0  0  0  0  0
  -23.7072  -31.9012   26.5497 C   0  0  0  0  0  0  0  0  0  0  0  0
  -19.9707  -27.6125   22.7395 C   0  0  0  0  0  0  0  0  0  0  0  0
  -28.9286  -17.8002   19.8025 C   0  0  0  0  0  0  0  0  0  0  0  0
  -28.8637  -24.1654   19.0942 C   0  0  0  0  0  0  0  0  0  0  0  0
  -29.8637  -23.8625   17.9748 C   0  0  0  0  0  0  0  0  0  0  0  0
  -27.8539  -25.2234   18.6698 C   0  0  0  0  0  0  0  0  0  1  0  0
  -32.0326  -22.7541   17.3005 C   0  0  0  0  0  0  0  0  0  0  0  0
  -30.9625  -22.8640   18.3997 C   0  0  2  0  0  0  0  0  0  0  0  0
  -23.7829  -30.0009   24.8838 C   0  0  1  0  0  0  0  0  0  0  0  0
  -20.3746  -28.3545   25.0901 C   0  0  2  0  0  0  0  0  0  0  0  0
  -24.4505  -30.6079   26.1500 C   0  0  0  0  0  0  0  0  0  0  0  0
  -29.7567  -20.8291   17.7839 N   0  0  0  0  0  0  0  0  0  0  0  0
  -26.2848  -12.5108   21.3423 N   0  0  0  0  0  0  0  0  0  0  0  0
  -30.1166  -19.8469   20.3479 N   0  0  0  0  0  0  0  0  0  0  0  0
  -30.6043  -21.0598   20.0139 N   0  0  0  0  0  0  0  0  0  0  0  0
  -26.2725  -13.5354   20.4727 N   0  0  0  0  0  0  0  0  0  0  0  0
  -24.5618  -30.4083   22.5706 N   0  0  0  0  0  0  0  0  0  0  0  0
  -29.5598  -15.4143   19.9319 N   0  0  0  0  0  0  0  0  0  0  0  0
  -24.8503  -15.1360   19.4596 N   0  0  0  0  0  0  0  0  0  0  0  0
  -22.0558  -12.8026   22.1321 N   0  0  0  0  0  0  0  0  0  0  0  0
  -26.6775  -32.7462   20.7391 N   0  0  0  0  0  0  0  0  0  0  0  0
  -22.3664  -29.6913   25.0453 N   0  0  0  0  0  0  0  0  0  0  0  0
  -19.7524  -27.3473   24.1849 N   0  3  0  0  0  0  0  0  0  0  0  0
  -22.1826  -14.5193   20.6170 O   0  0  0  0  0  0  0  0  0  0  0  0
  -26.9138  -31.4082   22.6303 O   0  0  0  0  0  0  0  0  0  0  0  0
  -31.0154  -16.9861   19.0316 O   0  0  0  0  0  0  0  0  0  0  0  0
  -23.3677  -32.0356   23.7376 O   0  0  0  0  0  0  0  0  0  0  0  0
  -22.5412  -27.4333   24.5474 O   0  0  0  0  0  0  0  0  0  0  0  0
  -33.1202  -21.9635   17.7678 O   0  0  0  0  0  0  0  0  0  0  0  0
  -23.4503   -8.5334   25.4282 O   0  0  0  0  0  0  0  0  0  0  0  0
  -26.9623  -25.4718   19.7559 O   0  0  0  0  0  0  0  0  0  1  0  0
  -18.8429   -5.6931   24.3754 F   0  0  0  0  0  0  0  0  0  0  0  0
  -23.5120   -5.7838   25.1478 F   0  0  0  0  0  0  0  0  0  0  0  0
  1  2  1  0  0  0  0
  1  5  2  0  0  0  0
  2  6  2  0  0  0  0
  3  8  2  0  0  0  0
  3 16  1  0  0  0  0
  4  9  1  0  0  0  0
  4 16  2  0  0  0  0
  5 18  1  0  0  0  0
  6 20  1  0  0  0  0
  7 10  2  0  0  0  0
  7 19  1  0  0  0  0
  8 22  1  0  0  0  0
  9 22  2  0  0  0  0
 10 23  1  0  0  0  0
 11 12  2  0  0  0  0
 11 24  1  0  0  0  0
 12 25  1  0  0  0  0
 13 21  1  0  0  0  0
 13 23  2  0  0  0  0
 14 25  2  0  0  0  0
 14 26  1  0  0  0  0
 15 28  1  0  0  0  0
 15 62  2  0  0  0  0
 16 27  1  0  0  0  0
 17 27  1  0  0  0  0
 17 29  2  0  0  0  0
 17 31  1  0  0  0  0
 18 20  2  0  0  0  0
 18 36  1  0  0  0  0
 19 21  2  0  0  0  0
 19 37  1  0  0  0  0
 20 45  1  0  0  0  0
 21 38  1  0  0  0  0
 22 80  1  0  0  0  0
 23 81  1  0  0  0  0
 24 26  2  0  0  0  0
 24 80  1  0  0  0  0
 25 82  1  0  0  0  0
 26 83  1  0  0  0  0
 27 63  2  0  0  0  0
 28 53  1  0  0  0  0
 28 64  2  0  0  0  0
 29 66  1  0  0  0  0
 29 69  1  0  0  0  0
 30 58  1  0  0  0  0
 30 62  1  0  0  0  0
 30 65  2  0  0  0  0
 31 70  1  0  0  0  0
 31 74  2  0  0  0  0
 32 46  1  0  0  0  0
 32 71  1  0  0  0  0
 32 75  2  0  0  0  0
 33 53  1  0  0  0  0
 33 68  1  0  0  0  0
 33 76  2  0  0  0  0
 34 59  1  0  0  0  0
 34 67  1  0  0  0  0
 34 77  2  0  0  0  0
 35 60  1  0  0  0  0
 35 72  1  0  0  0  0
 35 78  2  0  0  0  0
 36 39  1  0  0  0  0
 37 46  1  0  0  0  0
 38 67  1  0  0  0  0
 39 41  1  0  0  0  0
 40 42  1  0  0  0  0
 40 43  1  0  0  0  0
 41 45  1  0  0  0  0
 42 47  1  0  0  0  0
 43 68  1  0  0  0  0
 44 47  1  0  0  0  0
 44 68  1  0  0  0  0
 45 71  1  0  0  0  0
 46 67  1  0  0  0  0
 47 66  1  0  0  0  0
 48 60  1  0  0  0  0
 49 61  1  0  0  0  0
 50 61  1  0  0  0  0
 51 61  1  0  0  0  0
 52 73  1  0  0  0  0
 54 55  1  0  0  0  0
 54 56  1  0  0  0  0
 55 58  1  0  0  0  0
 56 81  1  0  0  0  0
 57 58  1  0  0  0  0
 57 79  1  0  0  0  0
 59 61  1  0  0  0  0
 59 72  1  0  0  0  0
 60 73  1  0  0  0  0
 63 66  1  0  0  0  0
 64 65  1  0  0  0  0
M  CHG  1  73   1
M  ISO  4  33 100  53 100  56 101  81 101
M  END
> <Batch ID>
0078

> <Smiles>
CNC(C)C(=O)NC(C(=O)N1Cc2cc([101O:1][101CH2:1]CCC(CO)c3ncc([100CH2:0][100C:0](=O)N4CCCC(n5nc(-c6ccc(Oc7ccc(F)cc7F)cc6)c(C(N)=O)c5N)C4)nn3)ccc2CC1C(=O)NC1CCCc2ccccc21)C(C)(C)C

> <Shape>
0.266

> <Color>
0.135

> <Negative vol penalty>
0.000

$$$$

  -OEChem-04052318393D

 88 96  0     1  0  0  0  0  0999 V2000
  -32.5620  -13.9762   21.1651 C   0  0  0  0  0  0  0  0  0  0  0  0
  -31.8240  -15.1541   21.1066 C   0  0  0  0  0  0  0  0  0  0  0  0
  -29.6080  -26.0471   19.9055 C   0  0  0  0  0  0  0  0  0  0  0  0
  -27.6125  -26.1142   18.5453 C   0  0  0  0  0  0  0  0  0  0  0  0
  -31.9836  -12.7720   20.7659 C   0  0  0  0  0  0  0  0  0  0  0  0
  -30.5075  -15.1286   20.6478 C   0  0  0  0  0  0  0  0  0  0  0  0
  -25.8626  -18.6133   22.5941 C   0  0  0  0  0  0  0  0  0  0  0  0
  -29.7365  -24.6820   19.6498 C   0  0  0  0  0  0  0  0  0  0  0  0
  -27.7409  -24.7490   18.2895 C   0  0  0  0  0  0  0  0  0  0  0  0
  -25.2886  -19.7790   22.0886 C   0  0  0  0  0  0  0  0  0  0  0  0
  -30.3870  -21.1042   19.6472 C   0  0  0  0  0  0  0  0  0  0  0  0
  -30.6834  -20.2666   20.7224 C   0  0  0  0  0  0  0  0  0  0  0  0
  -23.5975  -18.4601   20.9841 C   0  0  0  0  0  0  0  0  0  0  0  0
  -21.4154  -26.3198   23.4406 C   0  0  0  0  0  0  0  0  0  0  0  0
  -28.6485  -20.9608   21.8242 C   0  0  0  0  0  0  0  0  0  0  0  0
  -20.2202  -25.9939   21.4103 C   0  0  0  0  0  0  0  0  0  0  0  0
  -28.5460  -26.7633   19.3532 C   0  0  0  0  0  0  0  0  0  0  0  0
  -28.9578  -29.2338   18.8693 C   0  0  0  0  0  0  0  0  0  0  0  0
  -30.6562  -12.7303   20.3110 C   0  0  0  0  0  0  0  0  0  0  0  0
  -25.3139  -17.3595   22.2889 C   0  0  0  0  0  0  0  0  0  0  0  0
  -29.9112  -13.9230   20.2409 C   0  0  0  0  0  0  0  0  0  0  0  0
  -24.1649  -17.2802   21.4891 C   0  0  0  0  0  0  0  0  0  0  0  0
  -20.5765  -26.8300   22.4561 C   0  0  0  0  0  0  0  0  0  0  0  0
  -21.8659  -25.0074   23.3505 C   0  0  0  0  0  0  0  0  0  0  0  0
  -28.8030  -24.0329   18.8418 C   0  0  0  0  0  0  0  0  0  0  0  0
  -24.1576  -19.7023   21.2811 C   0  0  0  0  0  0  0  0  0  0  0  0
  -29.2214  -21.8702   19.6605 C   0  0  0  0  0  0  0  0  0  0  0  0
  -29.8142  -20.1948   21.8109 C   0  0  0  0  0  0  0  0  0  0  0  0
  -28.3521  -21.7985   20.7490 C   0  0  0  0  0  0  0  0  0  0  0  0
  -28.4125  -28.1734   19.6175 C   0  0  0  0  0  0  0  0  0  0  0  0
  -21.4517  -24.2528   22.2648 C   0  0  0  0  0  0  0  0  0  0  0  0
  -28.5458  -30.3664   19.5281 C   0  0  0  0  0  0  0  0  0  0  0  0
  -29.7647  -29.1983   17.6846 C   0  0  0  0  0  0  0  0  0  0  0  0
  -26.3534  -14.7638   20.7770 C   0  0  0  0  0  0  0  0  0  0  0  0
  -23.5342  -13.5199   21.7906 C   0  0  0  0  0  0  0  0  0  0  0  0
  -20.3248  -14.0706   22.8121 C   0  0  0  0  0  0  0  0  0  0  0  0
  -23.8978  -31.5317   23.1183 C   0  0  0  0  0  0  0  0  0  0  0  0
  -30.0894  -11.4124   19.8456 C   0  0  0  0  0  0  0  0  0  0  0  0
  -25.9292  -16.1132   22.8639 C   0  0  0  0  0  0  0  0  0  0  0  0
  -23.5253  -15.9598   21.1486 C   0  0  0  0  0  0  0  0  0  0  0  0
  -28.5676  -11.4122   19.7256 C   0  0  0  0  0  0  0  0  0  0  0  0
  -27.3507  -31.9373   23.8864 C   0  0  0  0  0  0  0  0  0  0  0  0
  -28.0893  -12.6650   18.9984 C   0  0  0  0  0  0  0  0  0  0  0  0
  -28.0635  -31.1143   22.8119 C   0  0  0  0  0  0  0  0  0  0  0  0
  -26.0450  -31.2794   24.3275 C   0  0  0  0  0  0  0  0  0  0  0  0
  -25.8258  -30.1336   22.1566 C   0  0  0  0  0  0  0  0  0  0  0  0
  -28.4723  -13.9322   19.7724 C   0  0  1  0  0  0  0  0  0  0  0  0
  -25.5896  -14.8570   22.0676 C   0  0  1  0  0  0  0  0  0  0  0  0
  -27.1198  -30.7852   21.6396 C   0  0  2  0  0  0  0  0  0  0  0  0
  -24.2056  -24.9426   24.2495 C   0  0  0  0  0  0  0  0  0  0  0  0
  -18.2520  -12.8555   23.5360 C   0  0  0  0  0  0  0  0  0  0  0  0
  -20.8109  -29.1749   20.2995 C   0  0  0  0  0  0  0  0  0  0  0  0
  -19.3441  -31.2766   22.0900 C   0  0  0  0  0  0  0  0  0  0  0  0
  -22.9722  -12.7558   18.8905 C   0  0  0  0  0  0  0  0  0  0  0  0
  -20.5688  -12.4346   19.5139 C   0  0  0  0  0  0  0  0  0  0  0  0
  -22.3295  -11.0182   20.5705 C   0  0  0  0  0  0  0  0  0  0  0  0
  -20.3510  -15.3711   25.4705 C   0  0  0  0  0  0  0  0  0  0  0  0
  -20.0766  -28.2291   22.5237 C   0  0  0  0  0  0  0  0  0  0  0  0
  -22.7663  -24.4550   24.4009 C   0  0  0  0  0  0  0  0  0  0  0  0
  -21.9077  -22.8233   22.1151 C   0  0  0  0  0  0  0  0  0  0  0  0
  -21.6461  -22.2356   20.7266 C   0  0  0  0  0  0  0  0  0  0  0  0
  -21.8131  -31.7018   21.7825 C   0  0  0  0  0  0  0  0  0  0  0  0
  -22.1871  -20.8206   20.5583 C   0  0  0  0  0  0  0  0  0  1  0  0
  -22.1336  -13.4507   21.2315 C   0  0  1  0  0  0  0  0  0  0  0  0
  -19.5364  -13.5305   23.9915 C   0  0  2  0  0  0  0  0  0  0  0  0
  -20.9781  -29.2877   21.8215 C   0  0  2  0  0  0  0  0  0  0  0  0
  -20.7564  -30.7376   22.3538 C   0  0  2  0  0  0  0  0  0  0  0  0
  -22.0140  -12.4397   20.0562 C   0  0  0  0  0  0  0  0  0  0  0  0
  -20.6376  -24.7138   21.2889 N   0  0  0  0  0  0  0  0  0  0  0  0
  -27.7078  -28.5946   20.6711 N   0  0  0  0  0  0  0  0  0  0  0  0
  -27.8077  -29.9323   20.5897 N   0  0  0  0  0  0  0  0  0  0  0  0
  -24.1676  -14.7693   21.7296 N   0  0  0  0  0  0  0  0  0  0  0  0
  -25.1949  -30.9949   23.1690 N   0  0  0  0  0  0  0  0  0  0  0  0
  -28.7465  -31.6812   19.2971 N   0  0  0  0  0  0  0  0  0  0  0  0
  -30.0957  -27.9506   17.1388 N   0  0  0  0  0  0  0  0  0  0  0  0
  -27.5764  -14.1310   20.8915 N   0  0  0  0  0  0  0  0  0  0  0  0
  -21.2571  -13.1603   22.3610 N   0  0  0  0  0  0  0  0  0  0  0  0
  -23.1612  -31.2185   21.9825 N   0  0  0  0  0  0  0  0  0  0  0  0
  -19.1808  -14.6352   24.9264 N   0  3  0  0  0  0  0  0  0  0  0  0
  -30.1935  -30.2417   17.1359 O   0  0  0  0  0  0  0  0  0  0  0  0
  -25.8682  -15.2301   19.7529 O   0  0  0  0  0  0  0  0  0  0  0  0
  -24.0447  -12.5046   22.2704 O   0  0  0  0  0  0  0  0  0  0  0  0
  -20.1304  -15.1869   22.3360 O   0  0  0  0  0  0  0  0  0  0  0  0
  -23.4328  -32.2421   24.0161 O   0  0  0  0  0  0  0  0  0  0  0  0
  -28.9281  -22.7008   18.5919 O   0  0  0  0  0  0  0  0  0  0  0  0
  -23.5957  -20.8385   20.7859 O   0  0  0  0  0  0  0  0  0  1  0  0
  -30.0982  -19.3892   22.8426 F   0  0  0  0  0  0  0  0  0  0  0  0
  -27.2302  -22.5312   20.7670 F   0  0  0  0  0  0  0  0  0  0  0  0
  1  2  1  0  0  0  0
  1  5  2  0  0  0  0
  2  6  2  0  0  0  0
  3  8  2  0  0  0  0
  3 17  1  0  0  0  0
  4  9  1  0  0  0  0
  4 17  2  0  0  0  0
  5 19  1  0  0  0  0
  6 21  1  0  0  0  0
  7 10  2  0  0  0  0
  7 20  1  0  0  0  0
  8 25  1  0  0  0  0
  9 25  2  0  0  0  0
 10 26  1  0  0  0  0
 11 12  2  0  0  0  0
 11 27  1  0  0  0  0
 12 28  1  0  0  0  0
 13 22  1  0  0  0  0
 13 26  2  0  0  0  0
 14 23  2  0  0  0  0
 14 24  1  0  0  0  0
 15 28  2  0  0  0  0
 15 29  1  0  0  0  0
 16 23  1  0  0  0  0
 16 69  2  0  0  0  0
 17 30  1  0  0  0  0
 18 30  1  0  0  0  0
 18 32  2  0  0  0  0
 18 33  1  0  0  0  0
 19 21  2  0  0  0  0
 19 38  1  0  0  0  0
 20 22  2  0  0  0  0
 20 39  1  0  0  0  0
 21 47  1  0  0  0  0
 22 40  1  0  0  0  0
 23 58  1  0  0  0  0
 24 31  2  0  0  0  0
 24 59  1  0  0  0  0
 25 85  1  0  0  0  0
 26 86  1  0  0  0  0
 27 29  2  0  0  0  0
 27 85  1  0  0  0  0
 28 87  1  0  0  0  0
 29 88  1  0  0  0  0
 30 70  2  0  0  0  0
 31 60  1  0  0  0  0
 31 69  1  0  0  0  0
 32 71  1  0  0  0  0
 32 74  1  0  0  0  0
 33 75  1  0  0  0  0
 33 80  2  0  0  0  0
 34 48  1  0  0  0  0
 34 76  1  0  0  0  0
 34 81  2  0  0  0  0
 35 64  1  0  0  0  0
 35 72  1  0  0  0  0
 35 82  2  0  0  0  0
 36 65  1  0  0  0  0
 36 77  1  0  0  0  0
 36 83  2  0  0  0  0
 37 73  1  0  0  0  0
 37 78  1  0  0  0  0
 37 84  2  0  0  0  0
 38 41  1  0  0  0  0
 39 48  1  0  0  0  0
 40 72  1  0  0  0  0
 41 43  1  0  0  0  0
 42 44  1  0  0  0  0
 42 45  1  0  0  0  0
 43 47  1  0  0  0  0
 44 49  1  0  0  0  0
 45 73  1  0  0  0  0
 46 49  1  0  0  0  0
 46 73  1  0  0  0  0
 47 76  1  0  0  0  0
 48 72  1  0  0  0  0
 49 71  1  0  0  0  0
 50 59  1  0  0  0  0
 51 65  1  0  0  0  0
 52 66  1  0  0  0  0
 53 67  1  0  0  0  0
 54 68  1  0  0  0  0
 55 68  1  0  0  0  0
 56 68  1  0  0  0  0
 57 79  1  0  0  0  0
 58 66  1  0  0  0  0
 60 61  1  0  0  0  0
 61 63  1  0  0  0  0
 62 67  1  0  0  0  0
 62 78  1  0  0  0  0
 63 86  1  0  0  0  0
 64 68  1  0  0  0  0
 64 77  1  0  0  0  0
 65 79  1  0  0  0  0
 66 67  1  0  0  0  0
 70 71  1  0  0  0  0
M  CHG  1  79   1
M  ISO  4  37 100  63 101  78 100  86 101
M  END
> <Batch ID>
0078

> <Smiles>
CCc1cc(CC(C)C(C)C[100NH:0][100C:0](=O)N2CCCC(n3nc(-c4ccc(Oc5ccc(F)cc5F)cc4)c(C(N)=O)c3N)C2)cnc1CC[101CH2:1][101O:1]c1ccc2c(c1)CN(C(=O)C(NC(=O)C(C)NC)C(C)(C)C)C(C(=O)NC1CCCc3ccccc31)C2

> <Shape>
0.261

> <Color>
0.066

> <Negative vol penalty>
0.000

$$$$

  -OEChem-04052318393D

 84 92  0     1  0  0  0  0  0999 V2000
  -17.2243  -29.5685   24.8152 C   0  0  0  0  0  0  0  0  0  0  0  0
  -17.9749  -28.4003   24.7286 C   0  0  0  0  0  0  0  0  0  0  0  0
  -29.2157  -18.3079   21.4185 C   0  0  0  0  0  0  0  0  0  0  0  0
  -27.4995  -18.8507   23.0300 C   0  0  0  0  0  0  0  0  0  0  0  0
  -17.2950  -30.5182   23.7968 C   0  0  0  0  0  0  0  0  0  0  0  0
  -18.7958  -28.1807   23.6230 C   0  0  0  0  0  0  0  0  0  0  0  0
  -23.3722  -26.4406   24.9164 C   0  0  0  0  0  0  0  0  0  0  0  0
  -29.4300  -19.6670   21.1889 C   0  0  0  0  0  0  0  0  0  0  0  0
  -27.7138  -20.2098   22.8005 C   0  0  0  0  0  0  0  0  0  0  0  0
  -23.4696  -25.0899   25.2479 C   0  0  0  0  0  0  0  0  0  0  0  0
  -30.1789  -22.9897   19.9151 C   0  0  0  0  0  0  0  0  0  0  0  0
  -30.3003  -23.4142   18.5921 C   0  0  0  0  0  0  0  0  0  0  0  0
  -24.3207  -24.6158   23.0411 C   0  0  0  0  0  0  0  0  0  0  0  0
  -28.0788  -22.5882   18.1231 C   0  0  0  0  0  0  0  0  0  0  0  0
  -22.3377  -15.8897   22.9119 C   0  0  0  0  0  0  0  0  0  0  0  0
  -28.2504  -17.8998   22.3390 C   0  0  0  0  0  0  0  0  0  0  0  0
  -28.6679  -15.6836   23.5314 C   0  0  0  0  0  0  0  0  0  0  0  0
  -18.1245  -30.3145   22.6828 C   0  0  0  0  0  0  0  0  0  0  0  0
  -23.7388  -26.8882   23.6390 C   0  0  0  0  0  0  0  0  0  0  0  0
  -18.8766  -29.1279   22.5882 C   0  0  0  0  0  0  0  0  0  0  0  0
  -24.2295  -25.9731   22.6967 C   0  0  0  0  0  0  0  0  0  0  0  0
  -28.6791  -20.6179   21.8799 C   0  0  0  0  0  0  0  0  0  0  0  0
  -23.9411  -24.1768   24.3093 C   0  0  0  0  0  0  0  0  0  0  0  0
  -29.0074  -22.3643   20.3422 C   0  0  0  0  0  0  0  0  0  0  0  0
  -29.2503  -23.2135   17.6960 C   0  0  0  0  0  0  0  0  0  0  0  0
  -27.9574  -22.1636   19.4462 C   0  0  0  0  0  0  0  0  0  0  0  0
  -28.0282  -16.4961   22.5761 C   0  0  0  0  0  0  0  0  0  0  0  0
  -22.2991  -17.2130   22.5224 C   0  0  0  0  0  0  0  0  0  0  0  0
  -22.2186  -14.9643   21.8951 C   0  0  0  0  0  0  0  0  0  0  0  0
  -28.1087  -14.4415   23.3554 C   0  0  0  0  0  0  0  0  0  0  0  0
  -22.0501  -16.6166   20.3430 C   0  0  0  0  0  0  0  0  0  0  0  0
  -29.6773  -16.0215   24.4919 C   0  0  0  0  0  0  0  0  0  0  0  0
  -22.2151  -28.3045   21.2357 C   0  0  0  0  0  0  0  0  0  0  0  0
  -25.1908  -28.4590   19.9536 C   0  0  0  0  0  0  0  0  0  0  0  0
  -22.8252  -12.7057   21.0787 C   0  0  0  0  0  0  0  0  0  0  0  0
  -28.3601  -27.1995   19.8276 C   0  0  0  0  0  0  0  0  0  0  0  0
  -18.1318  -31.3480   21.5845 C   0  0  0  0  0  0  0  0  0  0  0  0
  -23.6531  -28.3525   23.3059 C   0  0  0  0  0  0  0  0  0  0  0  0
  -24.6551  -26.4056   21.3183 C   0  0  0  0  0  0  0  0  0  0  0  0
  -19.3121  -31.2102   20.6262 C   0  0  0  0  0  0  0  0  0  0  0  0
  -26.0911  -11.6722   20.0270 C   0  0  0  0  0  0  0  0  0  0  0  0
  -19.4914  -29.7548   20.2060 C   0  0  0  0  0  0  0  0  0  0  0  0
  -27.0134  -12.7341   20.6245 C   0  0  0  0  0  0  0  0  0  0  0  0
  -24.7558  -12.2708   19.5961 C   0  0  0  0  0  0  0  0  0  0  0  0
  -24.9623  -14.0708   21.2811 C   0  0  0  0  0  0  0  0  0  0  0  0
  -19.7976  -28.8648   21.4166 C   0  0  1  0  0  0  0  0  0  0  0  0
  -23.5687  -28.6201   21.8063 C   0  0  1  0  0  0  0  0  0  0  0  0
  -26.3106  -13.5023   21.7577 C   0  0  2  0  0  0  0  0  0  0  0  0
  -21.8941  -17.0196   18.9158 C   0  0  0  0  0  0  0  0  0  0  0  0
  -30.5578  -27.5091   18.6564 C   0  0  0  0  0  0  0  0  0  0  0  0
  -20.8213  -12.9682   22.4913 C   0  0  0  0  0  0  0  0  0  0  0  0
  -23.1280  -13.0989   23.4378 C   0  0  0  0  0  0  0  0  0  0  0  0
  -24.0544  -27.1024   17.4680 C   0  0  0  0  0  0  0  0  0  0  0  0
  -26.4005  -26.5872   16.7619 C   0  0  0  0  0  0  0  0  0  0  0  0
  -25.6638  -28.9585   16.9998 C   0  0  0  0  0  0  0  0  0  0  0  0
  -29.7585  -27.8066   22.3643 C   0  0  0  0  0  0  0  0  0  0  0  0
  -22.4222  -18.2977   23.5626 C   0  0  0  0  0  0  0  0  0  0  0  0
  -23.0750  -19.5832   23.0425 C   0  0  0  0  0  0  0  0  0  0  0  0
  -23.2611  -20.6424   24.1298 C   0  0  0  0  0  0  0  0  0  0  0  0
  -23.8748  -21.9179   23.5685 C   0  0  0  0  0  0  0  0  0  1  0  0
  -26.0239  -27.5584   19.0740 C   0  0  1  0  0  0  0  0  0  0  0  0
  -29.7167  -27.8796   19.8680 C   0  0  2  0  0  0  0  0  0  0  0  0
  -22.2510  -13.5082   22.2190 C   0  0  0  0  0  0  0  0  0  0  0  0
  -25.5259  -27.5429   17.6012 C   0  0  0  0  0  0  0  0  0  0  0  0
  -27.1314  -15.8264   21.8473 N   0  0  0  0  0  0  0  0  0  0  0  0
  -22.1560  -17.6136   21.2420 N   0  0  0  0  0  0  0  0  0  0  0  0
  -22.0727  -15.2938   20.5949 N   0  0  0  0  0  0  0  0  0  0  0  0
  -27.2036  -14.5800   22.3446 N   0  0  0  0  0  0  0  0  0  0  0  0
  -24.5467  -27.8469   21.0383 N   0  0  0  0  0  0  0  0  0  0  0  0
  -24.1308  -13.0111   20.6936 N   0  0  0  0  0  0  0  0  0  0  0  0
  -28.3080  -13.2552   23.9682 N   0  0  0  0  0  0  0  0  0  0  0  0
  -30.1399  -17.3437   24.5380 N   0  0  0  0  0  0  0  0  0  0  0  0
  -21.1806  -29.0133   21.8162 N   0  0  0  0  0  0  0  0  0  0  0  0
  -27.4060  -27.9977   19.2328 N   0  0  0  0  0  0  0  0  0  0  0  0
  -30.4601  -27.4800   21.0962 N   0  3  0  0  0  0  0  0  0  0  0  0
  -30.1667  -15.1722   25.2747 O   0  0  0  0  0  0  0  0  0  0  0  0
  -22.1166  -27.4801   20.3343 O   0  0  0  0  0  0  0  0  0  0  0  0
  -25.1200  -29.6625   19.6923 O   0  0  0  0  0  0  0  0  0  0  0  0
  -22.1336  -11.8319   20.5492 O   0  0  0  0  0  0  0  0  0  0  0  0
  -28.1670  -26.0713   20.2754 O   0  0  0  0  0  0  0  0  0  0  0  0
  -28.8881  -21.9441   21.6563 O   0  0  0  0  0  0  0  0  0  0  0  0
  -24.0364  -22.8578   24.6300 O   0  0  0  0  0  0  0  0  0  1  0  0
  -29.3665  -23.6226   16.4259 F   0  0  0  0  0  0  0  0  0  0  0  0
  -26.8291  -21.5645   19.8510 F   0  0  0  0  0  0  0  0  0  0  0  0
  1  2  1  0  0  0  0
  1  5  2  0  0  0  0
  2  6  2  0  0  0  0
  3  8  2  0  0  0  0
  3 16  1  0  0  0  0
  4  9  1  0  0  0  0
  4 16  2  0  0  0  0
  5 18  1  0  0  0  0
  6 20  1  0  0  0  0
  7 10  2  0  0  0  0
  7 19  1  0  0  0  0
  8 22  1  0  0  0  0
  9 22  2  0  0  0  0
 10 23  1  0  0  0  0
 11 12  2  0  0  0  0
 11 24  1  0  0  0  0
 12 25  1  0  0  0  0
 13 21  1  0  0  0  0
 13 23  2  0  0  0  0
 14 25  2  0  0  0  0
 14 26  1  0  0  0  0
 15 28  1  0  0  0  0
 15 29  2  0  0  0  0
 16 27  1  0  0  0  0
 17 27  1  0  0  0  0
 17 30  2  0  0  0  0
 17 32  1  0  0  0  0
 18 20  2  0  0  0  0
 18 37  1  0  0  0  0
 19 21  2  0  0  0  0
 19 38  1  0  0  0  0
 20 46  1  0  0  0  0
 21 39  1  0  0  0  0
 22 81  1  0  0  0  0
 23 82  1  0  0  0  0
 24 26  2  0  0  0  0
 24 81  1  0  0  0  0
 25 83  1  0  0  0  0
 26 84  1  0  0  0  0
 27 65  2  0  0  0  0
 28 57  1  0  0  0  0
 28 66  2  0  0  0  0
 29 63  1  0  0  0  0
 29 67  1  0  0  0  0
 30 68  1  0  0  0  0
 30 71  1  0  0  0  0
 31 49  1  0  0  0  0
 31 66  1  0  0  0  0
 31 67  2  0  0  0  0
 32 72  1  0  0  0  0
 32 76  2  0  0  0  0
 33 47  1  0  0  0  0
 33 73  1  0  0  0  0
 33 77  2  0  0  0  0
 34 61  1  0  0  0  0
 34 69  1  0  0  0  0
 34 78  2  0  0  0  0
 35 63  1  0  0  0  0
 35 70  1  0  0  0  0
 35 79  2  0  0  0  0
 36 62  1  0  0  0  0
 36 74  1  0  0  0  0
 36 80  2  0  0  0  0
 37 40  1  0  0  0  0
 38 47  1  0  0  0  0
 39 69  1  0  0  0  0
 40 42  1  0  0  0  0
 41 43  1  0  0  0  0
 41 44  1  0  0  0  0
 42 46  1  0  0  0  0
 43 48  1  0  0  0  0
 44 70  1  0  0  0  0
 45 48  1  0  0  0  0
 45 70  1  0  0  0  0
 46 73  1  0  0  0  0
 47 69  1  0  0  0  0
 48 68  1  0  0  0  0
 50 62  1  0  0  0  0
 51 63  1  0  0  0  0
 52 63  1  0  0  0  0
 53 64  1  0  0  0  0
 54 64  1  0  0  0  0
 55 64  1  0  0  0  0
 56 75  1  0  0  0  0
 57 58  1  0  0  0  0
 58 59  1  0  0  0  0
 59 60  1  0  0  0  0
 60 82  1  0  0  0  0
 61 64  1  0  0  0  0
 61 74  1  0  0  0  0
 62 75  1  0  0  0  0
 65 68  1  0  0  0  0
M  CHG  1  75   1
M  ISO  4  35 100  60 101  63 100  82 101
M  END
> <Batch ID>
0078

> <Smiles>
CNC(C)C(=O)NC(C(=O)N1Cc2cc([101O:1][101CH2:1]CCCc3cc([100C:0](C)(C)[100C:0](=O)N4CCCC(n5nc(-c6ccc(Oc7ccc(F)cc7F)cc6)c(C(N)=O)c5N)C4)nc(C)n3)ccc2CC1C(=O)NC1CCCc2ccccc21)C(C)(C)C

> <Shape>
0.214

> <Color>
0.067

> <Negative vol penalty>
0.000

$$$$

  -OEChem-04052318393D

 87 95  0     1  0  0  0  0  0999 V2000
  -21.3524  -32.6038   16.5424 C   0  0  0  0  0  0  0  0  0  0  0  0
  -22.1089  -31.6137   15.9236 C   0  0  0  0  0  0  0  0  0  0  0  0
  -23.0338   -9.9180   19.8842 C   0  0  0  0  0  0  0  0  0  0  0  0
  -23.8854   -9.7310   22.1374 C   0  0  0  0  0  0  0  0  0  0  0  0
  -21.5626  -32.9011   17.8883 C   0  0  0  0  0  0  0  0  0  0  0  0
  -23.0769  -30.9211   16.6501 C   0  0  0  0  0  0  0  0  0  0  0  0
  -26.1413  -24.4636   17.1267 C   0  0  0  0  0  0  0  0  0  0  0  0
  -30.2225  -20.2849   17.1190 C   0  0  0  0  0  0  0  0  0  0  0  0
  -22.3007   -8.7451   20.0639 C   0  0  0  0  0  0  0  0  0  0  0  0
  -23.1522   -8.5580   22.3171 C   0  0  0  0  0  0  0  0  0  0  0  0
  -27.4018  -23.8682   17.1426 C   0  0  0  0  0  0  0  0  0  0  0  0
  -19.9510   -7.7000   22.9779 C   0  0  0  0  0  0  0  0  0  0  0  0
  -19.2418   -7.5572   24.1705 C   0  0  0  0  0  0  0  0  0  0  0  0
  -29.5573  -19.3146   16.3780 C   0  0  0  0  0  0  0  0  0  0  0  0
  -27.6227  -24.4122   19.4823 C   0  0  0  0  0  0  0  0  0  0  0  0
  -20.5121   -5.5681   24.6875 C   0  0  0  0  0  0  0  0  0  0  0  0
  -23.8262  -10.4110   20.9210 C   0  0  0  0  0  0  0  0  0  0  0  0
  -24.1626  -12.9383   21.0045 C   0  0  0  0  0  0  0  0  0  0  0  0
  -22.5269  -32.2051   18.6342 C   0  0  0  0  0  0  0  0  0  0  0  0
  -25.6157  -25.0485   18.2878 C   0  0  0  0  0  0  0  0  0  0  0  0
  -23.3011  -31.2103   18.0069 C   0  0  0  0  0  0  0  0  0  0  0  0
  -26.3542  -25.0122   19.4792 C   0  0  0  0  0  0  0  0  0  0  0  0
  -29.9602  -20.4150   18.4783 C   0  0  0  0  0  0  0  0  0  0  0  0
  -22.3599   -8.0651   21.2804 C   0  0  0  0  0  0  0  0  0  0  0  0
  -28.1439  -23.8449   18.3198 C   0  0  0  0  0  0  0  0  0  0  0  0
  -20.9407   -6.7769   22.6401 C   0  0  0  0  0  0  0  0  0  0  0  0
  -19.5223   -6.4912   25.0253 C   0  0  0  0  0  0  0  0  0  0  0  0
  -21.2212   -5.7110   23.4949 C   0  0  0  0  0  0  0  0  0  0  0  0
  -24.5841  -11.6223   20.7358 C   0  0  0  0  0  0  0  0  0  0  0  0
  -28.6464  -18.5057   17.0381 C   0  0  0  0  0  0  0  0  0  0  0  0
  -29.0310  -19.5570   19.0443 C   0  0  0  0  0  0  0  0  0  0  0  0
  -25.2392  -13.7201   20.6634 C   0  0  0  0  0  0  0  0  0  0  0  0
  -22.9100  -13.4118   21.5167 C   0  0  0  0  0  0  0  0  0  0  0  0
  -24.7256  -27.9859   19.1144 C   0  0  0  0  0  0  0  0  0  0  0  0
  -23.7166  -26.4998   21.8155 C   0  0  0  0  0  0  0  0  0  0  0  0
  -23.9942  -23.8394   23.9349 C   0  0  0  0  0  0  0  0  0  0  0  0
  -30.7260  -14.7387   20.7185 C   0  0  0  0  0  0  0  0  0  0  0  0
  -22.7508  -32.5942   20.0740 C   0  0  0  0  0  0  0  0  0  0  0  0
  -24.2432  -25.6632   18.2608 C   0  0  0  0  0  0  0  0  0  0  0  0
  -25.8264  -25.6081   20.7578 C   0  0  0  0  0  0  0  0  0  0  0  0
  -23.5368  -31.5559   20.8704 C   0  0  0  0  0  0  0  0  0  0  0  0
  -29.4935  -12.5636   18.1834 C   0  0  0  0  0  0  0  0  0  0  0  0
  -24.7577  -31.0912   20.0829 C   0  0  0  0  0  0  0  0  0  0  0  0
  -28.0747  -12.2288   18.6468 C   0  0  0  0  0  0  0  0  0  0  0  0
  -30.4582  -12.6839   19.3611 C   0  0  0  0  0  0  0  0  0  0  0  0
  -28.6137  -13.2866   20.8804 C   0  0  0  0  0  0  0  0  0  0  0  0
  -24.3433  -30.4199   18.7679 C   0  0  1  0  0  0  0  0  0  0  0  0
  -24.0233  -26.6831   19.3738 C   0  0  1  0  0  0  0  0  0  0  0  0
  -27.5930  -13.2102   19.7322 C   0  0  2  0  0  0  0  0  0  0  0  0
  -26.3927  -17.6810   16.2670 C   0  0  0  0  0  0  0  0  0  0  0  0
  -28.2295  -16.0329   16.7818 C   0  0  0  0  0  0  0  0  0  0  0  0
  -27.2368  -20.0403   20.7273 C   0  0  0  0  0  0  0  0  0  0  0  0
  -23.0637  -22.9221   26.0774 C   0  0  0  0  0  0  0  0  0  0  0  0
  -25.3651  -28.5239   23.3952 C   0  0  0  0  0  0  0  0  0  0  0  0
  -25.1764  -27.0186   25.3869 C   0  0  0  0  0  0  0  0  0  0  0  0
  -23.1228  -28.0114   24.3770 C   0  0  0  0  0  0  0  0  0  0  0  0
  -22.9852  -21.4040   22.5895 C   0  0  0  0  0  0  0  0  0  0  0  0
  -30.6782  -21.4674   19.2878 C   0  0  0  0  0  0  0  0  0  0  0  0
  -30.5236  -18.0067   21.2879 C   0  0  0  0  0  0  0  0  0  0  0  0
  -29.0280  -18.3544   21.3008 C   0  0  0  0  0  0  0  0  0  0  0  0
  -30.8414  -16.7755   22.1317 C   0  0  0  0  0  0  0  0  0  0  0  0
  -29.8000  -22.6818   19.5689 C   0  0  0  0  0  0  0  0  0  1  0  0
  -27.9157  -17.4525   16.2738 C   0  0  0  0  0  0  0  0  0  0  0  0
  -28.7115  -19.6486   20.5004 C   0  0  1  0  0  0  0  0  0  0  0  0
  -24.3405  -26.1669   23.1493 C   0  0  1  0  0  0  0  0  0  0  0  0
  -22.9465  -22.9369   24.5612 C   0  0  2  0  0  0  0  0  0  0  0  0
  -24.5123  -27.4206   24.0527 C   0  0  0  0  0  0  0  0  0  0  0  0
  -25.8311  -11.5672   20.2604 N   0  0  0  0  0  0  0  0  0  0  0  0
  -28.3651  -18.6022   18.3568 N   0  0  0  0  0  0  0  0  0  0  0  0
  -26.2025  -12.8584   20.2277 N   0  0  0  0  0  0  0  0  0  0  0  0
  -24.4821  -26.2032   20.6790 N   0  0  0  0  0  0  0  0  0  0  0  0
  -29.9436  -13.6307   20.3534 N   0  0  0  0  0  0  0  0  0  0  0  0
  -25.4464  -15.0536   20.6965 N   0  0  0  0  0  0  0  0  0  0  0  0
  -21.9126  -12.4735   21.8150 N   0  0  0  0  0  0  0  0  0  0  0  0
  -23.8773  -29.0720   19.0135 N   0  0  0  0  0  0  0  0  0  0  0  0
  -23.5147  -25.1167   23.7354 N   0  0  0  0  0  0  0  0  0  0  0  0
  -30.1611  -15.5898   21.6605 N   0  0  0  0  0  0  0  0  0  0  0  0
  -23.1017  -21.5405   24.0642 N   0  3  0  0  0  0  0  0  0  0  0  0
  -22.6761  -14.6321   21.6889 O   0  0  0  0  0  0  0  0  0  0  0  0
  -25.9468  -28.0045   19.0147 O   0  0  0  0  0  0  0  0  0  0  0  0
  -22.5886  -26.9980   21.7831 O   0  0  0  0  0  0  0  0  0  0  0  0
  -25.1260  -23.4511   23.6543 O   0  0  0  0  0  0  0  0  0  0  0  0
  -31.8428  -14.9565   20.2364 O   0  0  0  0  0  0  0  0  0  0  0  0
  -21.6445   -6.9206   21.4561 O   0  0  0  0  0  0  0  0  0  0  0  0
  -29.3748  -23.2649   18.3379 O   0  0  0  0  0  0  0  0  0  1  0  0
  -18.8423   -6.3550   26.1712 F   0  0  0  0  0  0  0  0  0  0  0  0
  -22.1717   -4.8217   23.1764 F   0  0  0  0  0  0  0  0  0  0  0  0
  1  2  1  0  0  0  0
  1  5  2  0  0  0  0
  2  6  2  0  0  0  0
  3  9  2  0  0  0  0
  3 17  1  0  0  0  0
  4 10  1  0  0  0  0
  4 17  2  0  0  0  0
  5 19  1  0  0  0  0
  6 21  1  0  0  0  0
  7 11  2  0  0  0  0
  7 20  1  0  0  0  0
  8 14  2  0  0  0  0
  8 23  1  0  0  0  0
  9 24  1  0  0  0  0
 10 24  2  0  0  0  0
 11 25  1  0  0  0  0
 12 13  2  0  0  0  0
 12 26  1  0  0  0  0
 13 27  1  0  0  0  0
 14 30  1  0  0  0  0
 15 22  1  0  0  0  0
 15 25  2  0  0  0  0
 16 27  2  0  0  0  0
 16 28  1  0  0  0  0
 17 29  1  0  0  0  0
 18 29  1  0  0  0  0
 18 32  2  0  0  0  0
 18 33  1  0  0  0  0
 19 21  2  0  0  0  0
 19 38  1  0  0  0  0
 20 22  2  0  0  0  0
 20 39  1  0  0  0  0
 21 47  1  0  0  0  0
 22 40  1  0  0  0  0
 23 31  2  0  0  0  0
 23 58  1  0  0  0  0
 24 84  1  0  0  0  0
 25 85  1  0  0  0  0
 26 28  2  0  0  0  0
 26 84  1  0  0  0  0
 27 86  1  0  0  0  0
 28 87  1  0  0  0  0
 29 68  2  0  0  0  0
 30 63  1  0  0  0  0
 30 69  2  0  0  0  0
 31 64  1  0  0  0  0
 31 69  1  0  0  0  0
 32 70  1  0  0  0  0
 32 73  1  0  0  0  0
 33 74  1  0  0  0  0
 33 79  2  0  0  0  0
 34 48  1  0  0  0  0
 34 75  1  0  0  0  0
 34 80  2  0  0  0  0
 35 65  1  0  0  0  0
 35 71  1  0  0  0  0
 35 81  2  0  0  0  0
 36 66  1  0  0  0  0
 36 76  1  0  0  0  0
 36 82  2  0  0  0  0
 37 72  1  0  0  0  0
 37 77  1  0  0  0  0
 37 83  2  0  0  0  0
 38 41  1  0  0  0  0
 39 48  1  0  0  0  0
 40 71  1  0  0  0  0
 41 43  1  0  0  0  0
 42 44  1  0  0  0  0
 42 45  1  0  0  0  0
 43 47  1  0  0  0  0
 44 49  1  0  0  0  0
 45 72  1  0  0  0  0
 46 49  1  0  0  0  0
 46 72  1  0  0  0  0
 47 75  1  0  0  0  0
 48 71  1  0  0  0  0
 49 70  1  0  0  0  0
 50 63  1  0  0  0  0
 51 63  1  0  0  0  0
 52 64  1  0  0  0  0
 53 66  1  0  0  0  0
 54 67  1  0  0  0  0
 55 67  1  0  0  0  0
 56 67  1  0  0  0  0
 57 78  1  0  0  0  0
 58 62  1  0  0  0  0
 59 60  1  0  0  0  0
 59 61  1  0  0  0  0
 60 64  1  0  0  0  0
 61 77  1  0  0  0  0
 62 85  1  0  0  0  0
 65 67  1  0  0  0  0
 65 76  1  0  0  0  0
 66 78  1  0  0  0  0
 68 70  1  0  0  0  0
M  CHG  1  78   1
M  ISO  4  37 100  62 101  77 100  85 101
M  END
> <Batch ID>
0078

> <Smiles>
CNC(C)C(=O)NC(C(=O)N1Cc2cc([101O:1][101CH2:1]Cc3ccc(C(C)C)nc3C(C)CCC[100NH:0][100C:0](=O)N3CCCC(n4nc(-c5ccc(Oc6ccc(F)cc6F)cc5)c(C(N)=O)c4N)C3)ccc2CC1C(=O)NC1CCCc2ccccc21)C(C)(C)C

> <Shape>
0.279

> <Color>
0.195

> <Negative vol penalty>
0.000

$$$$

  -OEChem-04052318393D

 88 96  0     1  0  0  0  0  0999 V2000
  -20.9968   -9.2158    9.5721 C   0  0  0  0  0  0  0  0  0  0  0  0
  -21.2203  -10.3973   10.2717 C   0  0  0  0  0  0  0  0  0  0  0  0
  -23.0711   -9.8897   19.9274 C   0  0  0  0  0  0  0  0  0  0  0  0
  -23.8402   -9.8667   22.2176 C   0  0  0  0  0  0  0  0  0  0  0  0
  -21.8926   -8.1544    9.6945 C   0  0  0  0  0  0  0  0  0  0  0  0
  -22.3393  -10.5177   11.0951 C   0  0  0  0  0  0  0  0  0  0  0  0
  -25.6422  -15.5756   12.1017 C   0  0  0  0  0  0  0  0  0  0  0  0
  -22.3272   -8.7341   20.1656 C   0  0  0  0  0  0  0  0  0  0  0  0
  -23.0962   -8.7111   22.4558 C   0  0  0  0  0  0  0  0  0  0  0  0
  -25.6361  -16.5093   13.1371 C   0  0  0  0  0  0  0  0  0  0  0  0
  -19.3840   -7.9217   21.6183 C   0  0  0  0  0  0  0  0  0  0  0  0
  -18.0752   -7.8828   21.1378 C   0  0  0  0  0  0  0  0  0  0  0  0
  -27.4516  -15.3311   14.2024 C   0  0  0  0  0  0  0  0  0  0  0  0
  -18.6277   -5.9563   19.7886 C   0  0  0  0  0  0  0  0  0  0  0  0
  -28.1549  -21.3310   18.9627 C   0  0  0  0  0  0  0  0  0  0  0  0
  -23.8277  -10.4560   20.9534 C   0  0  0  0  0  0  0  0  0  0  0  0
  -24.1714  -12.9821   20.8643 C   0  0  0  0  0  0  0  0  0  0  0  0
  -23.0282   -8.2653   10.5123 C   0  0  0  0  0  0  0  0  0  0  0  0
  -26.5474  -14.5047   12.1145 C   0  0  0  0  0  0  0  0  0  0  0  0
  -23.2504   -9.4563   11.2296 C   0  0  0  0  0  0  0  0  0  0  0  0
  -27.4689  -14.3866   13.1647 C   0  0  0  0  0  0  0  0  0  0  0  0
  -22.3397   -8.1448   21.4298 C   0  0  0  0  0  0  0  0  0  0  0  0
  -26.5389  -16.3855   14.1891 C   0  0  0  0  0  0  0  0  0  0  0  0
  -20.3148   -6.9779   21.1840 C   0  0  0  0  0  0  0  0  0  0  0  0
  -17.6970   -6.9001   20.2229 C   0  0  0  0  0  0  0  0  0  0  0  0
  -19.9366   -5.9952   20.2691 C   0  0  0  0  0  0  0  0  0  0  0  0
  -24.5969  -11.6493   20.7078 C   0  0  0  0  0  0  0  0  0  0  0  0
  -28.7801  -20.4359   18.0741 C   0  0  0  0  0  0  0  0  0  0  0  0
  -28.1796  -20.6852   20.1747 C   0  0  0  0  0  0  0  0  0  0  0  0
  -25.2629  -13.7352   20.5063 C   0  0  0  0  0  0  0  0  0  0  0  0
  -22.9031  -13.4937   21.2948 C   0  0  0  0  0  0  0  0  0  0  0  0
  -26.2756  -11.3390   12.2072 C   0  0  0  0  0  0  0  0  0  0  0  0
  -29.4925  -11.4409   11.8022 C   0  0  0  0  0  0  0  0  0  0  0  0
  -32.4008  -13.1944   12.1389 C   0  0  0  0  0  0  0  0  0  0  0  0
  -30.7483  -14.7469   20.6857 C   0  0  0  0  0  0  0  0  0  0  0  0
  -23.9429   -7.0740   10.6498 C   0  0  0  0  0  0  0  0  0  0  0  0
  -26.5591  -13.5210   10.9766 C   0  0  0  0  0  0  0  0  0  0  0  0
  -28.4746  -13.2665   13.2152 C   0  0  0  0  0  0  0  0  0  0  0  0
  -25.3036   -7.4171   11.2506 C   0  0  0  0  0  0  0  0  0  0  0  0
  -29.5989  -12.3941   18.2732 C   0  0  0  0  0  0  0  0  0  0  0  0
  -25.1360   -8.3044   12.4800 C   0  0  0  0  0  0  0  0  0  0  0  0
  -28.1629  -12.0961   18.7081 C   0  0  0  0  0  0  0  0  0  0  0  0
  -30.5210  -12.5987   19.4732 C   0  0  0  0  0  0  0  0  0  0  0  0
  -28.6255  -13.3137   20.8766 C   0  0  0  0  0  0  0  0  0  0  0  0
  -24.4659   -9.6341   12.1133 C   0  0  1  0  0  0  0  0  0  0  0  0
  -27.1814  -12.1798   11.3526 C   0  0  1  0  0  0  0  0  0  0  0  0
  -27.6465  -13.1550   19.7007 C   0  0  2  0  0  0  0  0  0  0  0  0
  -30.5336  -20.6542   16.2952 C   0  0  0  0  0  0  0  0  0  0  0  0
  -34.8733  -13.0010   11.7557 C   0  0  0  0  0  0  0  0  0  0  0  0
  -27.0224  -22.5151   21.4622 C   0  0  0  0  0  0  0  0  0  0  0  0
  -28.8319  -21.1544   22.5623 C   0  0  0  0  0  0  0  0  0  0  0  0
  -26.5904  -20.1634   22.1439 C   0  0  0  0  0  0  0  0  0  0  0  0
  -29.7339   -9.6655   14.2720 C   0  0  0  0  0  0  0  0  0  0  0  0
  -32.1567  -10.2847   14.3945 C   0  0  0  0  0  0  0  0  0  0  0  0
  -31.2818   -9.0665   12.4012 C   0  0  0  0  0  0  0  0  0  0  0  0
  -32.4019  -15.4660   10.2419 C   0  0  0  0  0  0  0  0  0  0  0  0
  -26.7988  -19.6172   15.8187 C   0  0  0  0  0  0  0  0  0  0  0  0
  -28.3298  -19.5665   15.7121 C   0  0  0  0  0  0  0  0  0  0  0  0
  -30.5379  -18.0480   21.0057 C   0  0  0  0  0  0  0  0  0  0  0  0
  -29.0599  -18.4515   20.9164 C   0  0  0  0  0  0  0  0  0  0  0  0
  -30.8211  -16.8814   21.9497 C   0  0  0  0  0  0  0  0  0  0  0  0
  -26.1252  -18.6236   14.8789 C   0  0  0  0  0  0  0  0  0  1  0  0
  -29.0284  -20.6289   16.5881 C   0  0  1  0  0  0  0  0  0  0  0  0
  -30.6849  -11.5017   12.7260 C   0  0  1  0  0  0  0  0  0  0  0  0
  -33.5424  -13.4473   11.1707 C   0  0  2  0  0  0  0  0  0  0  0  0
  -27.6816  -21.0947   21.5006 C   0  0  0  0  0  0  0  0  0  0  0  0
  -30.9442  -10.1497   13.4488 C   0  0  0  0  0  0  0  0  0  0  0  0
  -25.8600  -11.5577   20.2833 N   0  0  0  0  0  0  0  0  0  0  0  0
  -29.1735  -19.3075   18.6707 N   0  0  0  0  0  0  0  0  0  0  0  0
  -28.7945  -19.4892   19.9472 N   0  0  0  0  0  0  0  0  0  0  0  0
  -26.2376  -12.8425   20.1699 N   0  0  0  0  0  0  0  0  0  0  0  0
  -28.4423  -12.3265   12.0825 N   0  0  0  0  0  0  0  0  0  0  0  0
  -29.9750  -13.6163   20.3744 N   0  0  0  0  0  0  0  0  0  0  0  0
  -25.4742  -15.0673   20.4494 N   0  0  0  0  0  0  0  0  0  0  0  0
  -21.8917  -12.5812   21.6245 N   0  0  0  0  0  0  0  0  0  0  0  0
  -25.4199  -10.5256   11.4892 N   0  0  0  0  0  0  0  0  0  0  0  0
  -31.8045  -11.9711   11.9170 N   0  0  0  0  0  0  0  0  0  0  0  0
  -30.1533  -15.6654   21.5420 N   0  0  0  0  0  0  0  0  0  0  0  0
  -33.6347  -14.8990   10.8466 N   0  3  0  0  0  0  0  0  0  0  0  0
  -22.6683  -14.7237   21.3689 O   0  0  0  0  0  0  0  0  0  0  0  0
  -26.3489  -11.4210   13.4277 O   0  0  0  0  0  0  0  0  0  0  0  0
  -29.4958  -10.6421   10.8622 O   0  0  0  0  0  0  0  0  0  0  0  0
  -32.0735  -13.9997   13.0077 O   0  0  0  0  0  0  0  0  0  0  0  0
  -31.8826  -14.9271   20.2298 O   0  0  0  0  0  0  0  0  0  0  0  0
  -21.6136   -7.0173   21.6626 O   0  0  0  0  0  0  0  0  0  0  0  0
  -26.5345  -17.2951   15.2013 O   0  0  0  0  0  0  0  0  0  1  0  0
  -16.4397   -6.8620   19.7627 F   0  0  0  0  0  0  0  0  0  0  0  0
  -20.8261   -5.0851   19.8491 F   0  0  0  0  0  0  0  0  0  0  0  0
  1  2  1  0  0  0  0
  1  5  2  0  0  0  0
  2  6  2  0  0  0  0
  3  8  2  0  0  0  0
  3 16  1  0  0  0  0
  4  9  1  0  0  0  0
  4 16  2  0  0  0  0
  5 18  1  0  0  0  0
  6 20  1  0  0  0  0
  7 10  2  0  0  0  0
  7 19  1  0  0  0  0
  8 22  1  0  0  0  0
  9 22  2  0  0  0  0
 10 23  1  0  0  0  0
 11 12  2  0  0  0  0
 11 24  1  0  0  0  0
 12 25  1  0  0  0  0
 13 21  1  0  0  0  0
 13 23  2  0  0  0  0
 14 25  2  0  0  0  0
 14 26  1  0  0  0  0
 15 28  1  0  0  0  0
 15 29  2  0  0  0  0
 16 27  1  0  0  0  0
 17 27  1  0  0  0  0
 17 30  2  0  0  0  0
 17 31  1  0  0  0  0
 18 20  2  0  0  0  0
 18 36  1  0  0  0  0
 19 21  2  0  0  0  0
 19 37  1  0  0  0  0
 20 45  1  0  0  0  0
 21 38  1  0  0  0  0
 22 85  1  0  0  0  0
 23 86  1  0  0  0  0
 24 26  2  0  0  0  0
 24 85  1  0  0  0  0
 25 87  1  0  0  0  0
 26 88  1  0  0  0  0
 27 68  2  0  0  0  0
 28 63  1  0  0  0  0
 28 69  2  0  0  0  0
 29 66  1  0  0  0  0
 29 70  1  0  0  0  0
 30 71  1  0  0  0  0
 30 74  1  0  0  0  0
 31 75  1  0  0  0  0
 31 80  2  0  0  0  0
 32 46  1  0  0  0  0
 32 76  1  0  0  0  0
 32 81  2  0  0  0  0
 33 64  1  0  0  0  0
 33 72  1  0  0  0  0
 33 82  2  0  0  0  0
 34 65  1  0  0  0  0
 34 77  1  0  0  0  0
 34 83  2  0  0  0  0
 35 73  1  0  0  0  0
 35 78  1  0  0  0  0
 35 84  2  0  0  0  0
 36 39  1  0  0  0  0
 37 46  1  0  0  0  0
 38 72  1  0  0  0  0
 39 41  1  0  0  0  0
 40 42  1  0  0  0  0
 40 43  1  0  0  0  0
 41 45  1  0  0  0  0
 42 47  1  0  0  0  0
 43 73  1  0  0  0  0
 44 47  1  0  0  0  0
 44 73  1  0  0  0  0
 45 76  1  0  0  0  0
 46 72  1  0  0  0  0
 47 71  1  0  0  0  0
 48 63  1  0  0  0  0
 49 65  1  0  0  0  0
 50 66  1  0  0  0  0
 51 66  1  0  0  0  0
 52 66  1  0  0  0  0
 53 67  1  0  0  0  0
 54 67  1  0  0  0  0
 55 67  1  0  0  0  0
 56 79  1  0  0  0  0
 57 58  1  0  0  0  0
 57 62  1  0  0  0  0
 58 63  1  0  0  0  0
 59 60  1  0  0  0  0
 59 61  1  0  0  0  0
 60 70  1  0  0  0  0
 61 78  1  0  0  0  0
 62 86  1  0  0  0  0
 64 67  1  0  0  0  0
 64 77  1  0  0  0  0
 65 79  1  0  0  0  0
 68 71  1  0  0  0  0
 69 70  1  0  0  0  0
M  CHG  1  79   1
M  ISO  4  35 100  62 101  78 100  86 101
M  END
> <Batch ID>
0078

> <Smiles>
CNC(C)C(=O)NC(C(=O)N1Cc2cc([101O:1][101CH2:1]CCC(C)c3cc(C(C)(C)C)n(CCC[100NH:0][100C:0](=O)N4CCCC(n5nc(-c6ccc(Oc7ccc(F)cc7F)cc6)c(C(N)=O)c5N)C4)n3)ccc2CC1C(=O)NC1CCCc2ccccc21)C(C)(C)C

> <Shape>
0.184

> <Color>
0.189

> <Negative vol penalty>
0.000

$$$$

  -OEChem-04052318393D

 86 94  0     1  0  0  0  0  0999 V2000
  -20.1392  -17.1307   26.0069 C   0  0  0  0  0  0  0  0  0  0  0  0
  -20.9503  -17.7887   25.0880 C   0  0  0  0  0  0  0  0  0  0  0  0
  -25.1429  -27.8365   19.3570 C   0  0  0  0  0  0  0  0  0  0  0  0
  -25.1197  -26.6336   21.4521 C   0  0  0  0  0  0  0  0  0  0  0  0
  -20.5211  -15.8864   26.5067 C   0  0  0  0  0  0  0  0  0  0  0  0
  -22.1446  -17.2032   24.6691 C   0  0  0  0  0  0  0  0  0  0  0  0
  -22.8124  -17.5228   19.6595 C   0  0  0  0  0  0  0  0  0  0  0  0
  -23.7660  -27.6501   19.2347 C   0  0  0  0  0  0  0  0  0  0  0  0
  -23.7428  -26.4472   21.3298 C   0  0  0  0  0  0  0  0  0  0  0  0
  -23.2431  -18.7476   19.1514 C   0  0  0  0  0  0  0  0  0  0  0  0
  -20.1634  -25.9666   21.7482 C   0  0  0  0  0  0  0  0  0  0  0  0
  -19.3749  -26.1920   22.8765 C   0  0  0  0  0  0  0  0  0  0  0  0
  -25.4966  -17.8960   19.0250 C   0  0  0  0  0  0  0  0  0  0  0  0
  -20.1409  -28.4821   22.9541 C   0  0  0  0  0  0  0  0  0  0  0  0
  -29.2846  -21.1934   20.6241 C   0  0  0  0  0  0  0  0  0  0  0  0
  -25.8198  -27.3282   20.4657 C   0  0  0  0  0  0  0  0  0  0  0  0
  -27.9028  -28.5948   21.2170 C   0  0  0  0  0  0  0  0  0  0  0  0
  -21.7159  -15.2810   26.0864 C   0  0  0  0  0  0  0  0  0  0  0  0
  -23.7241  -16.4772   19.8647 C   0  0  0  0  0  0  0  0  0  0  0  0
  -22.5435  -15.9503   25.1648 C   0  0  0  0  0  0  0  0  0  0  0  0
  -25.0745  -16.6580   19.5334 C   0  0  0  0  0  0  0  0  0  0  0  0
  -28.3480  -22.1627   20.3600 C   0  0  0  0  0  0  0  0  0  0  0  0
  -23.0659  -26.9555   20.2211 C   0  0  0  0  0  0  0  0  0  0  0  0
  -24.5858  -18.9353   18.8368 C   0  0  0  0  0  0  0  0  0  0  0  0
  -20.9407  -26.9988   21.2229 C   0  0  0  0  0  0  0  0  0  0  0  0
  -19.3636  -27.4498   23.4794 C   0  0  0  0  0  0  0  0  0  0  0  0
  -20.9294  -28.2566   21.8258 C   0  0  0  0  0  0  0  0  0  0  0  0
  -27.2422  -27.5200   20.5923 C   0  0  0  0  0  0  0  0  0  0  0  0
  -28.0055  -22.6753   21.6256 C   0  0  0  0  0  0  0  0  0  0  0  0
  -29.2382  -28.3097   21.0690 C   0  0  0  0  0  0  0  0  0  0  0  0
  -27.3581  -29.7478   21.8723 C   0  0  0  0  0  0  0  0  0  0  0  0
  -24.7282  -14.8418   22.3987 C   0  0  0  0  0  0  0  0  0  0  0  0
  -26.2857  -13.0848   20.1605 C   0  0  0  0  0  0  0  0  0  0  0  0
  -27.6329  -12.9188   17.0293 C   0  0  0  0  0  0  0  0  0  0  0  0
  -32.2547  -23.1950   20.2996 C   0  0  0  0  0  0  0  0  0  0  0  0
  -22.1101  -13.9564   26.6904 C   0  0  0  0  0  0  0  0  0  0  0  0
  -23.2389  -15.1533   20.3885 C   0  0  0  0  0  0  0  0  0  0  0  0
  -26.0897  -15.5606   19.7161 C   0  0  0  0  0  0  0  0  0  0  0  0
  -23.2067  -13.2343   25.9119 C   0  0  0  0  0  0  0  0  0  0  0  0
  -32.2824  -26.0397   18.1586 C   0  0  0  0  0  0  0  0  0  0  0  0
  -24.3367  -14.1977   25.5632 C   0  0  0  0  0  0  0  0  0  0  0  0
  -31.0534  -26.8386   18.5959 C   0  0  0  0  0  0  0  0  0  0  0  0
  -32.0314  -24.5350   18.2281 C   0  0  0  0  0  0  0  0  0  0  0  0
  -30.3158  -24.8468   19.9697 C   0  0  0  0  0  0  0  0  0  0  0  0
  -23.8342  -15.3364   24.6674 C   0  0  1  0  0  0  0  0  0  0  0  0
  -24.3437  -14.3275   21.0403 C   0  0  1  0  0  0  0  0  0  0  0  0
  -30.5390  -26.3688   19.9699 C   0  0  2  0  0  0  0  0  0  0  0  0
  -27.0389  -23.7431   21.9361 C   0  0  0  0  0  0  0  0  0  0  0  0
  -28.8713  -11.3641   15.4975 C   0  0  0  0  0  0  0  0  0  0  0  0
  -32.7993  -19.4868   22.8154 C   0  0  0  0  0  0  0  0  0  0  0  0
  -28.8491  -13.5726   21.7420 C   0  0  0  0  0  0  0  0  0  0  0  0
  -30.1471  -12.8444   19.7287 C   0  0  0  0  0  0  0  0  0  0  0  0
  -28.5967  -11.2477   20.8554 C   0  0  0  0  0  0  0  0  0  0  0  0
  -30.2493  -20.5845   24.2612 C   0  0  0  0  0  0  0  0  0  0  0  0
  -29.8382  -18.8689   22.5240 C   0  0  0  0  0  0  0  0  0  0  0  0
  -25.4591  -12.9785   15.0218 C   0  0  0  0  0  0  0  0  0  0  0  0
  -27.8144  -22.5752   19.0114 C   0  0  0  0  0  0  0  0  0  0  0  0
  -26.4119  -22.0403   18.7140 C   0  0  0  0  0  0  0  0  0  0  0  0
  -32.3507  -21.9347   22.4354 C   0  0  0  0  0  0  0  0  0  0  0  0
  -26.3490  -20.5191   18.6401 C   0  0  0  0  0  0  0  0  0  1  0  0
  -27.6408  -13.1551   19.4988 C   0  0  1  0  0  0  0  0  0  0  0  0
  -27.5073  -11.8767   15.9326 C   0  0  2  0  0  0  0  0  0  0  0  0
  -31.8102  -20.5038   22.2146 C   0  0  2  0  0  0  0  0  0  0  0  0
  -28.7899  -12.7265   20.4545 C   0  0  0  0  0  0  0  0  0  0  0  0
  -30.3233  -20.3286   22.7342 C   0  0  0  0  0  0  0  0  0  0  0  0
  -28.0882  -26.6194   20.0852 N   0  0  0  0  0  0  0  0  0  0  0  0
  -28.6703  -22.0808   22.6198 N   0  0  0  0  0  0  0  0  0  0  0  0
  -29.4399  -21.1845   21.9791 N   0  0  0  0  0  0  0  0  0  0  0  0
  -29.2941  -27.1277   20.3909 N   0  0  0  0  0  0  0  0  0  0  0  0
  -25.5674  -14.2865   20.2371 N   0  0  0  0  0  0  0  0  0  0  0  0
  -31.5470  -24.1547   19.5572 N   0  0  0  0  0  0  0  0  0  0  0  0
  -30.3584  -28.9573   21.4541 N   0  0  0  0  0  0  0  0  0  0  0  0
  -25.9646  -29.8848   21.9347 N   0  0  0  0  0  0  0  0  0  0  0  0
  -23.6841  -14.8774   23.3031 N   0  0  0  0  0  0  0  0  0  0  0  0
  -27.5438  -12.3534   18.2838 N   0  0  0  0  0  0  0  0  0  0  0  0
  -31.7311  -22.8970   21.5517 N   0  0  0  0  0  0  0  0  0  0  0  0
  -26.8218  -12.4565   14.7432 N   0  3  0  0  0  0  0  0  0  0  0  0
  -28.0856  -30.6386   22.3730 O   0  0  0  0  0  0  0  0  0  0  0  0
  -25.8868  -15.1799   22.6110 O   0  0  0  0  0  0  0  0  0  0  0  0
  -25.8764  -12.0021   20.5870 O   0  0  0  0  0  0  0  0  0  0  0  0
  -27.7975  -14.1143   16.7964 O   0  0  0  0  0  0  0  0  0  0  0  0
  -33.2805  -22.6485   19.8800 O   0  0  0  0  0  0  0  0  0  0  0  0
  -21.7223  -26.7736   20.1022 O   0  0  0  0  0  0  0  0  0  0  0  0
  -25.0089  -20.1300   18.3413 O   0  0  0  0  0  0  0  0  0  1  0  0
  -18.6052  -27.6667   24.5620 F   0  0  0  0  0  0  0  0  0  0  0  0
  -21.6731  -29.2525   21.3249 F   0  0  0  0  0  0  0  0  0  0  0  0
  1  2  1  0  0  0  0
  1  5  2  0  0  0  0
  2  6  2  0  0  0  0
  3  8  2  0  0  0  0
  3 16  1  0  0  0  0
  4  9  1  0  0  0  0
  4 16  2  0  0  0  0
  5 18  1  0  0  0  0
  6 20  1  0  0  0  0
  7 10  2  0  0  0  0
  7 19  1  0  0  0  0
  8 23  1  0  0  0  0
  9 23  2  0  0  0  0
 10 24  1  0  0  0  0
 11 12  2  0  0  0  0
 11 25  1  0  0  0  0
 12 26  1  0  0  0  0
 13 21  1  0  0  0  0
 13 24  2  0  0  0  0
 14 26  2  0  0  0  0
 14 27  1  0  0  0  0
 15 22  2  0  0  0  0
 15 68  1  0  0  0  0
 16 28  1  0  0  0  0
 17 28  1  0  0  0  0
 17 30  2  0  0  0  0
 17 31  1  0  0  0  0
 18 20  2  0  0  0  0
 18 36  1  0  0  0  0
 19 21  2  0  0  0  0
 19 37  1  0  0  0  0
 20 45  1  0  0  0  0
 21 38  1  0  0  0  0
 22 29  1  0  0  0  0
 22 57  1  0  0  0  0
 23 83  1  0  0  0  0
 24 84  1  0  0  0  0
 25 27  2  0  0  0  0
 25 83  1  0  0  0  0
 26 85  1  0  0  0  0
 27 86  1  0  0  0  0
 28 66  2  0  0  0  0
 29 48  1  0  0  0  0
 29 67  2  0  0  0  0
 30 69  1  0  0  0  0
 30 72  1  0  0  0  0
 31 73  1  0  0  0  0
 31 78  2  0  0  0  0
 32 46  1  0  0  0  0
 32 74  1  0  0  0  0
 32 79  2  0  0  0  0
 33 61  1  0  0  0  0
 33 70  1  0  0  0  0
 33 80  2  0  0  0  0
 34 62  1  0  0  0  0
 34 75  1  0  0  0  0
 34 81  2  0  0  0  0
 35 71  1  0  0  0  0
 35 76  1  0  0  0  0
 35 82  2  0  0  0  0
 36 39  1  0  0  0  0
 37 46  1  0  0  0  0
 38 70  1  0  0  0  0
 39 41  1  0  0  0  0
 40 42  1  0  0  0  0
 40 43  1  0  0  0  0
 41 45  1  0  0  0  0
 42 47  1  0  0  0  0
 43 71  1  0  0  0  0
 44 47  1  0  0  0  0
 44 71  1  0  0  0  0
 45 74  1  0  0  0  0
 46 70  1  0  0  0  0
 47 69  1  0  0  0  0
 49 62  1  0  0  0  0
 50 63  1  0  0  0  0
 51 64  1  0  0  0  0
 52 64  1  0  0  0  0
 53 64  1  0  0  0  0
 54 65  1  0  0  0  0
 55 65  1  0  0  0  0
 56 77  1  0  0  0  0
 57 58  1  0  0  0  0
 58 60  1  0  0  0  0
 59 63  1  0  0  0  0
 59 76  1  0  0  0  0
 60 84  1  0  0  0  0
 61 64  1  0  0  0  0
 61 75  1  0  0  0  0
 62 77  1  0  0  0  0
 63 65  1  0  0  0  0
 65 68  1  0  0  0  0
 66 69  1  0  0  0  0
 67 68  1  0  0  0  0
M  CHG  1  77   1
M  ISO  4  35 100  60 101  76 100  84 101
M  END
> <Batch ID>
0078

> <Smiles>
CNC(C)C(=O)NC(C(=O)N1Cc2cc([101O:1][101CH2:1]CCc3cn(C(C)(C)C(C)C[100NH:0][100C:0](=O)N4CCCC(n5nc(-c6ccc(Oc7ccc(F)cc7F)cc6)c(C(N)=O)c5N)C4)nc3C)ccc2CC1C(=O)NC1CCCc2ccccc21)C(C)(C)C

> <Shape>
0.231

> <Color>
0.041

> <Negative vol penalty>
0.000

$$$$

  -OEChem-04052318393D

 84 92  0     1  0  0  0  0  0999 V2000
  -29.4155  -35.3082   24.3105 C   0  0  0  0  0  0  0  0  0  0  0  0
  -29.4065  -33.9684   23.9361 C   0  0  0  0  0  0  0  0  0  0  0  0
  -26.6328  -12.7060   19.7810 C   0  0  0  0  0  0  0  0  0  0  0  0
  -24.4912  -13.4277   20.6354 C   0  0  0  0  0  0  0  0  0  0  0  0
  -28.2537  -35.9009   24.8033 C   0  0  0  0  0  0  0  0  0  0  0  0
  -28.2360  -33.2201   24.0553 C   0  0  0  0  0  0  0  0  0  0  0  0
  -27.3267  -30.3710   19.9687 C   0  0  0  0  0  0  0  0  0  0  0  0
  -26.4622  -11.4675   20.3995 C   0  0  0  0  0  0  0  0  0  0  0  0
  -24.3206  -12.1892   21.2539 C   0  0  0  0  0  0  0  0  0  0  0  0
  -28.0588  -29.1916   19.8390 C   0  0  0  0  0  0  0  0  0  0  0  0
  -23.4102   -9.0617   20.3537 C   0  0  0  0  0  0  0  0  0  0  0  0
  -22.1666   -8.4425   20.2289 C   0  0  0  0  0  0  0  0  0  0  0  0
  -26.1756  -27.9376   20.6758 C   0  0  0  0  0  0  0  0  0  0  0  0
  -21.9117   -8.4705   22.6313 C   0  0  0  0  0  0  0  0  0  0  0  0
  -25.9201  -24.2795   21.3225 C   0  0  0  0  0  0  0  0  0  0  0  0
  -25.6473  -13.6861   19.8989 C   0  0  0  0  0  0  0  0  0  0  0  0
  -25.4262  -15.3288   17.9597 C   0  0  0  0  0  0  0  0  0  0  0  0
  -27.0657  -35.1620   24.9196 C   0  0  0  0  0  0  0  0  0  0  0  0
  -26.0150  -30.3437   20.4640 C   0  0  0  0  0  0  0  0  0  0  0  0
  -27.0575  -33.8031   24.5515 C   0  0  0  0  0  0  0  0  0  0  0  0
  -25.4280  -29.1177   20.8083 C   0  0  0  0  0  0  0  0  0  0  0  0
  -25.3061  -11.2091   21.1359 C   0  0  0  0  0  0  0  0  0  0  0  0
  -27.4843  -27.9750   20.1953 C   0  0  0  0  0  0  0  0  0  0  0  0
  -23.9047   -9.3852   21.6173 C   0  0  0  0  0  0  0  0  0  0  0  0
  -21.4173   -8.1469   21.3677 C   0  0  0  0  0  0  0  0  0  0  0  0
  -23.1554   -9.0896   22.7561 C   0  0  0  0  0  0  0  0  0  0  0  0
  -25.8232  -14.9659   19.2607 C   0  0  0  0  0  0  0  0  0  0  0  0
  -26.8044  -24.8766   20.4474 C   0  0  0  0  0  0  0  0  0  0  0  0
  -24.9558  -23.4797   20.7439 C   0  0  0  0  0  0  0  0  0  0  0  0
  -25.8170  -16.6395   17.8345 C   0  0  0  0  0  0  0  0  0  0  0  0
  -25.7741  -23.9091   18.6671 C   0  0  0  0  0  0  0  0  0  0  0  0
  -24.7633  -14.5506   16.9544 C   0  0  0  0  0  0  0  0  0  0  0  0
  -24.5487  -31.5780   22.9998 C   0  0  0  0  0  0  0  0  0  0  0  0
  -21.8980  -30.3822   21.5623 C   0  0  0  0  0  0  0  0  0  0  0  0
  -20.5493  -28.1144   19.3979 C   0  0  0  0  0  0  0  0  0  0  0  0
  -26.7896  -21.0027   21.8179 C   0  0  0  0  0  0  0  0  0  0  0  0
  -25.8473  -35.8335   25.5022 C   0  0  0  0  0  0  0  0  0  0  0  0
  -25.2293  -31.6217   20.5727 C   0  0  0  0  0  0  0  0  0  0  0  0
  -24.0162  -29.0321   21.3260 C   0  0  0  0  0  0  0  0  0  0  0  0
  -24.5502  -35.0706   25.2455 C   0  0  0  0  0  0  0  0  0  0  0  0
  -29.1000  -19.7361   19.4233 C   0  0  0  0  0  0  0  0  0  0  0  0
  -24.7338  -33.5875   25.5512 C   0  0  0  0  0  0  0  0  0  0  0  0
  -28.4864  -18.4027   18.9927 C   0  0  0  0  0  0  0  0  0  0  0  0
  -28.8688  -20.0105   20.9077 C   0  0  0  0  0  0  0  0  0  0  0  0
  -26.8470  -18.6013   20.9089 C   0  0  0  0  0  0  0  0  0  0  0  0
  -25.8008  -32.9649   24.6428 C   0  0  1  0  0  0  0  0  0  0  0  0
  -24.0806  -31.5336   21.5727 C   0  0  1  0  0  0  0  0  0  0  0  0
  -27.0058  -18.3068   19.4075 C   0  0  2  0  0  0  0  0  0  0  0  0
  -25.6947  -23.7000   17.1927 C   0  0  0  0  0  0  0  0  0  0  0  0
  -29.1793  -25.0008   21.2764 C   0  0  0  0  0  0  0  0  0  0  0  0
  -18.3499  -27.3548   18.4583 C   0  0  0  0  0  0  0  0  0  0  0  0
  -22.9044  -21.9061   20.8537 C   0  0  0  0  0  0  0  0  0  0  0  0
  -23.1031  -23.8377   22.3982 C   0  0  0  0  0  0  0  0  0  0  0  0
  -21.2769  -28.9473   24.1825 C   0  0  0  0  0  0  0  0  0  0  0  0
  -19.6655  -27.4999   22.9270 C   0  0  0  0  0  0  0  0  0  0  0  0
  -19.2902  -29.9628   23.0529 C   0  0  0  0  0  0  0  0  0  0  0  0
  -21.3643  -28.7911   16.6344 C   0  0  0  0  0  0  0  0  0  0  0  0
  -24.6279  -21.8609   22.6840 C   0  0  0  0  0  0  0  0  0  0  0  0
  -27.8971  -25.7708   20.9871 C   0  0  1  0  0  0  0  0  0  1  0  0
  -21.1597  -29.0662   21.6060 C   0  0  1  0  0  0  0  0  0  0  0  0
  -19.5476  -28.2725   18.2682 C   0  0  2  0  0  0  0  0  0  0  0  0
  -23.9558  -22.7902   21.6105 C   0  0  0  0  0  0  0  0  0  0  0  0
  -20.3754  -28.8705   22.9342 C   0  0  0  0  0  0  0  0  0  0  0  0
  -26.4206  -15.9654   19.9151 N   0  0  0  0  0  0  0  0  0  0  0  0
  -26.7603  -24.7126   19.1089 N   0  0  0  0  0  0  0  0  0  0  0  0
  -24.8531  -23.2717   19.4148 N   0  0  0  0  0  0  0  0  0  0  0  0
  -26.4019  -16.9691   19.0217 N   0  0  0  0  0  0  0  0  0  0  0  0
  -23.2910  -30.3099   21.4202 N   0  0  0  0  0  0  0  0  0  0  0  0
  -27.4448  -19.9055   21.2349 N   0  0  0  0  0  0  0  0  0  0  0  0
  -25.7141  -17.5307   16.8257 N   0  0  0  0  0  0  0  0  0  0  0  0
  -24.4333  -13.2206   17.2485 N   0  0  0  0  0  0  0  0  0  0  0  0
  -25.2598  -32.7177   23.3235 N   0  0  0  0  0  0  0  0  0  0  0  0
  -20.3270  -29.0254   20.4088 N   0  0  0  0  0  0  0  0  0  0  0  0
  -25.4391  -20.8215   22.0904 N   0  0  0  0  0  0  0  0  0  0  0  0
  -20.1856  -27.9480   16.9611 N   0  3  0  0  0  0  0  0  0  0  0  0
  -24.4870  -15.0158   15.8226 O   0  0  0  0  0  0  0  0  0  0  0  0
  -24.2831  -30.6477   23.7520 O   0  0  0  0  0  0  0  0  0  0  0  0
  -21.2615  -31.4357   21.6439 O   0  0  0  0  0  0  0  0  0  0  0  0
  -21.4377  -27.2652   19.3865 O   0  0  0  0  0  0  0  0  0  0  0  0
  -27.3641  -22.0669   22.0716 O   0  0  0  0  0  0  0  0  0  0  0  0
  -25.1392  -10.0006   21.7394 O   0  0  0  0  0  0  0  0  0  0  0  0
  -28.1969  -26.8224   20.0703 O   0  0  0  0  0  0  0  0  0  1  0  0
  -20.2223   -7.5538   21.2477 F   0  0  0  0  0  0  0  0  0  0  0  0
  -23.6246   -9.3991   23.9726 F   0  0  0  0  0  0  0  0  0  0  0  0
  1  2  1  0  0  0  0
  1  5  2  0  0  0  0
  2  6  2  0  0  0  0
  3  8  2  0  0  0  0
  3 16  1  0  0  0  0
  4  9  1  0  0  0  0
  4 16  2  0  0  0  0
  5 18  1  0  0  0  0
  6 20  1  0  0  0  0
  7 10  2  0  0  0  0
  7 19  1  0  0  0  0
  8 22  1  0  0  0  0
  9 22  2  0  0  0  0
 10 23  1  0  0  0  0
 11 12  2  0  0  0  0
 11 24  1  0  0  0  0
 12 25  1  0  0  0  0
 13 21  1  0  0  0  0
 13 23  2  0  0  0  0
 14 25  2  0  0  0  0
 14 26  1  0  0  0  0
 15 28  1  0  0  0  0
 15 29  2  0  0  0  0
 16 27  1  0  0  0  0
 17 27  1  0  0  0  0
 17 30  2  0  0  0  0
 17 32  1  0  0  0  0
 18 20  2  0  0  0  0
 18 37  1  0  0  0  0
 19 21  2  0  0  0  0
 19 38  1  0  0  0  0
 20 46  1  0  0  0  0
 21 39  1  0  0  0  0
 22 81  1  0  0  0  0
 23 82  1  0  0  0  0
 24 26  2  0  0  0  0
 24 81  1  0  0  0  0
 25 83  1  0  0  0  0
 26 84  1  0  0  0  0
 27 64  2  0  0  0  0
 28 59  1  0  0  0  0
 28 65  2  0  0  0  0
 29 62  1  0  0  0  0
 29 66  1  0  0  0  0
 30 67  1  0  0  0  0
 30 70  1  0  0  0  0
 31 49  1  0  0  0  0
 31 65  1  0  0  0  0
 31 66  2  0  0  0  0
 32 71  1  0  0  0  0
 32 76  2  0  0  0  0
 33 47  1  0  0  0  0
 33 72  1  0  0  0  0
 33 77  2  0  0  0  0
 34 60  1  0  0  0  0
 34 68  1  0  0  0  0
 34 78  2  0  0  0  0
 35 61  1  0  0  0  0
 35 73  1  0  0  0  0
 35 79  2  0  0  0  0
 36 69  1  0  0  0  0
 36 74  1  0  0  0  0
 36 80  2  0  0  0  0
 37 40  1  0  0  0  0
 38 47  1  0  0  0  0
 39 68  1  0  0  0  0
 40 42  1  0  0  0  0
 41 43  1  0  0  0  0
 41 44  1  0  0  0  0
 42 46  1  0  0  0  0
 43 48  1  0  0  0  0
 44 69  1  0  0  0  0
 45 48  1  0  0  0  0
 45 69  1  0  0  0  0
 46 72  1  0  0  0  0
 47 68  1  0  0  0  0
 48 67  1  0  0  0  0
 50 59  1  0  0  0  0
 51 61  1  0  0  0  0
 52 62  1  0  0  0  0
 53 62  1  0  0  0  0
 54 63  1  0  0  0  0
 55 63  1  0  0  0  0
 56 63  1  0  0  0  0
 57 75  1  0  0  0  0
 58 62  1  0  0  0  0
 58 74  1  0  0  0  0
 59 82  1  0  0  0  0
 60 63  1  0  0  0  0
 60 73  1  0  0  0  0
 61 75  1  0  0  0  0
 64 67  1  0  0  0  0
M  CHG  1  75   1
M  ISO  4  36 100  59 101  74 100  82 101
M  END
> <Batch ID>
0078

> <Smiles>
CNC(C)C(=O)NC(C(=O)N1Cc2cc([101O:1][101CH:1](C)c3cc(C(C)(C)C[100NH:0][100C:0](=O)N4CCCC(n5nc(-c6ccc(Oc7ccc(F)cc7F)cc6)c(C(N)=O)c5N)C4)nc(C)n3)ccc2CC1C(=O)NC1CCCc2ccccc21)C(C)(C)C

> <Shape>
0.258

> <Color>
0.075

> <Negative vol penalty>
0.000

$$$$

  -OEChem-04052318393D

 85 94  0     1  0  0  0  0  0999 V2000
  -28.1575   -8.1515   35.5030 C   0  0  0  0  0  0  0  0  0  0  0  0
  -28.5909   -8.4010   34.2048 C   0  0  0  0  0  0  0  0  0  0  0  0
  -23.1979   -9.8537   19.9558 C   0  0  0  0  0  0  0  0  0  0  0  0
  -23.9043   -9.9369   22.2647 C   0  0  0  0  0  0  0  0  0  0  0  0
  -26.7949   -8.0228   35.7691 C   0  0  0  0  0  0  0  0  0  0  0  0
  -27.6620   -8.5210   33.1718 C   0  0  0  0  0  0  0  0  0  0  0  0
  -28.6387  -12.4482   30.1274 C   0  0  0  0  0  0  0  0  0  0  0  0
  -22.5044   -8.6706   20.2106 C   0  0  0  0  0  0  0  0  0  0  0  0
  -23.2108   -8.7538   22.5195 C   0  0  0  0  0  0  0  0  0  0  0  0
  -29.6542  -12.2868   29.1858 C   0  0  0  0  0  0  0  0  0  0  0  0
  -23.2277   -5.3890   20.5748 C   0  0  0  0  0  0  0  0  0  0  0  0
  -23.3649   -4.3478   19.6570 C   0  0  0  0  0  0  0  0  0  0  0  0
  -27.9997  -11.8544   27.4844 C   0  0  0  0  0  0  0  0  0  0  0  0
  -20.9838   -4.3925   19.2502 C   0  0  0  0  0  0  0  0  0  0  0  0
  -33.4555  -14.8630   24.4338 C   0  0  0  0  0  0  0  0  0  0  0  0
  -23.8979  -10.4868   20.9828 C   0  0  0  0  0  0  0  0  0  0  0  0
  -24.1215  -13.0230   20.8239 C   0  0  0  0  0  0  0  0  0  0  0  0
  -25.8483   -8.1508   34.7405 C   0  0  0  0  0  0  0  0  0  0  0  0
  -27.2942  -12.3029   29.7562 C   0  0  0  0  0  0  0  0  0  0  0  0
  -26.2856   -8.3926   33.4242 C   0  0  0  0  0  0  0  0  0  0  0  0
  -26.9689  -12.0169   28.4226 C   0  0  0  0  0  0  0  0  0  0  0  0
  -22.5108   -8.1206   21.4924 C   0  0  0  0  0  0  0  0  0  0  0  0
  -29.3349  -11.9870   27.8647 C   0  0  0  0  0  0  0  0  0  0  0  0
  -21.9685   -5.9320   20.8305 C   0  0  0  0  0  0  0  0  0  0  0  0
  -22.2429   -3.8495   18.9946 C   0  0  0  0  0  0  0  0  0  0  0  0
  -20.8465   -5.4338   20.1682 C   0  0  0  0  0  0  0  0  0  0  0  0
  -24.6150  -11.7087   20.7201 C   0  0  0  0  0  0  0  0  0  0  0  0
  -32.1947  -14.6380   23.9587 C   0  0  0  0  0  0  0  0  0  0  0  0
  -25.1846  -13.8178   20.4709 C   0  0  0  0  0  0  0  0  0  0  0  0
  -32.6991  -12.9918   25.3562 C   0  0  0  0  0  0  0  0  0  0  0  0
  -22.8187  -13.4843   21.2054 C   0  0  0  0  0  0  0  0  0  0  0  0
  -24.9376  -10.3381   30.5868 C   0  0  0  0  0  0  0  0  0  0  0  0
  -23.1649  -12.2969   28.7045 C   0  0  0  0  0  0  0  0  0  0  0  0
  -23.0699  -14.5335   26.1286 C   0  0  0  0  0  0  0  0  0  0  0  0
  -30.9475  -14.0539   20.9685 C   0  0  0  0  0  0  0  0  0  0  0  0
  -24.3890   -7.9569   35.0686 C   0  0  0  0  0  0  0  0  0  0  0  0
  -26.2095  -12.5065   30.7781 C   0  0  0  0  0  0  0  0  0  0  0  0
  -25.5402  -11.8707   27.9687 C   0  0  0  0  0  0  0  0  0  0  0  0
  -23.4471   -8.4700   33.9824 C   0  0  0  0  0  0  0  0  0  0  0  0
  -34.8102  -12.6640   27.2016 C   0  0  0  0  0  0  0  0  0  0  0  0
  -29.3620  -13.1185   17.9209 C   0  0  0  0  0  0  0  0  0  0  0  0
  -23.9136   -8.0033   32.6071 C   0  0  0  0  0  0  0  0  0  0  0  0
  -27.9304  -12.7818   18.3417 C   0  0  0  0  0  0  0  0  0  0  0  0
  -34.0475  -11.4099   26.7602 C   0  0  0  0  0  0  0  0  0  0  0  0
  -34.9974  -13.6309   26.0342 C   0  0  0  0  0  0  0  0  0  0  0  0
  -30.3765  -12.6920   18.9796 C   0  0  0  0  0  0  0  0  0  0  0  0
  -28.6782  -12.8699   20.7566 C   0  0  0  0  0  0  0  0  0  0  0  0
  -25.3071   -8.5538   32.2811 C   0  0  1  0  0  0  0  0  0  0  0  0
  -24.8965  -11.8283   30.3990 C   0  0  1  0  0  0  0  0  0  0  0  0
  -27.6146  -13.3316   19.7457 C   0  0  2  0  0  0  0  0  0  0  0  0
  -32.6294  -11.7502   26.2181 C   0  0  2  0  0  0  0  0  0  0  0  0
  -32.0508   -9.3188   26.2689 C   0  0  0  0  0  0  0  0  0  0  0  0
  -30.4858  -16.4727   23.6850 C   0  0  0  0  0  0  0  0  0  0  0  0
  -21.4718  -15.9346   24.7943 C   0  0  0  0  0  0  0  0  0  0  0  0
  -22.2511   -9.8096   27.1917 C   0  0  0  0  0  0  0  0  0  0  0  0
  -21.4592  -11.3070   25.3481 C   0  0  0  0  0  0  0  0  0  0  0  0
  -20.4493  -11.4898   27.6217 C   0  0  0  0  0  0  0  0  0  0  0  0
  -24.3955  -17.0452   26.9610 C   0  0  0  0  0  0  0  0  0  0  0  0
  -32.1178  -10.5384   25.4175 C   0  0  0  0  0  0  0  0  0  0  0  0
  -31.6673  -11.9830   27.4003 C   0  0  0  0  0  0  0  0  0  1  0  0
  -31.3672  -15.3939   23.0148 C   0  0  2  0  0  0  0  0  0  0  0  0
  -22.8025  -12.3314   27.2394 C   0  0  1  0  0  0  0  0  0  0  0  0
  -22.4018  -15.8902   25.9968 C   0  0  2  0  0  0  0  0  0  0  0  0
  -21.7676  -11.2353   26.8589 C   0  0  0  0  0  0  0  0  0  0  0  0
  -25.8921  -11.6666   20.3315 N   0  0  0  0  0  0  0  0  0  0  0  0
  -33.7497  -13.8319   25.3052 N   0  0  0  0  0  0  0  0  0  0  0  0
  -26.2102  -12.9644   20.1878 N   0  0  0  0  0  0  0  0  0  0  0  0
  -31.7518  -13.4795   24.5441 N   0  3  0  0  0  0  0  0  0  0  0  0
  -24.5156  -12.0728   29.0064 N   0  0  0  0  0  0  0  0  0  0  0  0
  -30.0205  -13.2479   20.2873 N   0  0  0  0  0  0  0  0  0  0  0  0
  -25.3329  -15.1564   20.3781 N   0  0  0  0  0  0  0  0  0  0  0  0
  -21.8439  -12.5335   21.5372 N   0  0  0  0  0  0  0  0  0  0  0  0
  -25.2211   -9.9416   31.8798 N   0  0  0  0  0  0  0  0  0  0  0  0
  -22.3602  -13.6934   26.9604 N   0  0  0  0  0  0  0  0  0  0  0  0
  -30.5278  -14.5454   22.1985 N   0  0  0  0  0  0  0  0  0  0  0  0
  -23.4276  -16.9594   25.8373 N   0  3  0  0  0  0  0  0  0  0  0  0
  -22.5227  -14.7029   21.2350 O   0  0  0  0  0  0  0  0  0  0  0  0
  -24.7262   -9.6025   29.6298 O   0  0  0  0  0  0  0  0  0  0  0  0
  -22.2832  -12.4696   29.5498 O   0  0  0  0  0  0  0  0  0  0  0  0
  -24.1147  -14.2463   25.5486 O   0  0  0  0  0  0  0  0  0  0  0  0
  -32.0644  -14.3204   20.5117 O   0  0  0  0  0  0  0  0  0  0  0  0
  -21.8340   -6.9663   21.7415 O   0  0  0  0  0  0  0  0  0  0  0  0
  -30.3242  -11.8283   26.9439 O   0  0  0  0  0  0  0  0  0  1  0  0
  -22.3751   -2.8506   18.1121 F   0  0  0  0  0  0  0  0  0  0  0  0
  -19.6344   -5.9522   20.4087 F   0  0  0  0  0  0  0  0  0  0  0  0
  1  2  1  0  0  0  0
  1  5  2  0  0  0  0
  2  6  2  0  0  0  0
  3  8  2  0  0  0  0
  3 16  1  0  0  0  0
  4  9  1  0  0  0  0
  4 16  2  0  0  0  0
  5 18  1  0  0  0  0
  6 20  1  0  0  0  0
  7 10  2  0  0  0  0
  7 19  1  0  0  0  0
  8 22  1  0  0  0  0
  9 22  2  0  0  0  0
 10 23  1  0  0  0  0
 11 12  2  0  0  0  0
 11 24  1  0  0  0  0
 12 25  1  0  0  0  0
 13 21  1  0  0  0  0
 13 23  2  0  0  0  0
 14 25  2  0  0  0  0
 14 26  1  0  0  0  0
 15 28  2  0  0  0  0
 15 66  1  0  0  0  0
 16 27  1  0  0  0  0
 17 27  1  0  0  0  0
 17 29  2  0  0  0  0
 17 31  1  0  0  0  0
 18 20  2  0  0  0  0
 18 36  1  0  0  0  0
 19 21  2  0  0  0  0
 19 37  1  0  0  0  0
 20 48  1  0  0  0  0
 21 38  1  0  0  0  0
 22 82  1  0  0  0  0
 23 83  1  0  0  0  0
 24 26  2  0  0  0  0
 24 82  1  0  0  0  0
 25 84  1  0  0  0  0
 26 85  1  0  0  0  0
 27 65  2  0  0  0  0
 28 61  1  0  0  0  0
 28 68  1  0  0  0  0
 29 67  1  0  0  0  0
 29 71  1  0  0  0  0
 30 51  1  0  0  0  0
 30 66  1  0  0  0  0
 30 68  2  0  0  0  0
 31 72  1  0  0  0  0
 31 77  2  0  0  0  0
 32 49  1  0  0  0  0
 32 73  1  0  0  0  0
 32 78  2  0  0  0  0
 33 62  1  0  0  0  0
 33 69  1  0  0  0  0
 33 79  2  0  0  0  0
 34 63  1  0  0  0  0
 34 74  1  0  0  0  0
 34 80  2  0  0  0  0
 35 70  1  0  0  0  0
 35 75  1  0  0  0  0
 35 81  2  0  0  0  0
 36 39  1  0  0  0  0
 37 49  1  0  0  0  0
 38 69  1  0  0  0  0
 39 42  1  0  0  0  0
 40 44  1  0  0  0  0
 40 45  1  0  0  0  0
 41 43  1  0  0  0  0
 41 46  1  0  0  0  0
 42 48  1  0  0  0  0
 43 50  1  0  0  0  0
 44 51  1  0  0  0  0
 45 66  1  0  0  0  0
 46 70  1  0  0  0  0
 47 50  1  0  0  0  0
 47 70  1  0  0  0  0
 48 73  1  0  0  0  0
 49 69  1  0  0  0  0
 50 67  1  0  0  0  0
 51 59  1  0  0  0  0
 51 60  1  0  0  0  0
 52 59  1  0  0  0  0
 53 61  1  0  0  0  0
 54 63  1  0  0  0  0
 55 64  1  0  0  0  0
 56 64  1  0  0  0  0
 57 64  1  0  0  0  0
 58 76  1  0  0  0  0
 60 83  1  0  0  0  0
 61 75  1  0  0  0  0
 62 64  1  0  0  0  0
 62 74  1  0  0  0  0
 63 76  1  0  0  0  0
 65 67  1  0  0  0  0
M  CHG  2  68   1  76   1
M  ISO  4  35 100  60 101  75 100  83 101
M  END
> <Batch ID>
0078

> <Smiles>
CCC1([101CH2:1][101O:1]c2ccc3c(c2)CN(C(=O)C(NC(=O)C(C)NC)C(C)(C)C)C(C(=O)NC2CCCc4ccccc42)C3)CCCn2cc(C(C)[100NH:0][100C:0](=O)N3CCCC(n4nc(-c5ccc(Oc6ccc(F)cc6F)cc5)c(C(N)=O)c4N)C3)nc21

> <Shape>
0.136

> <Color>
0.177

> <Negative vol penalty>
0.000

$$$$

  -OEChem-04052318393D

 90 98  0     1  0  0  0  0  0999 V2000
  -19.7621  -29.9932   26.5982 C   0  0  0  0  0  0  0  0  0  0  0  0
  -21.0364  -29.5614   26.2446 C   0  0  0  0  0  0  0  0  0  0  0  0
  -24.6600   -8.4029   20.6121 C   0  0  0  0  0  0  0  0  0  0  0  0
  -22.9003   -9.9829   20.1177 C   0  0  0  0  0  0  0  0  0  0  0  0
  -18.6941  -29.8001   25.7230 C   0  0  0  0  0  0  0  0  0  0  0  0
  -21.2433  -28.9352   25.0159 C   0  0  0  0  0  0  0  0  0  0  0  0
  -26.2182  -29.3424   21.4677 C   0  0  0  0  0  0  0  0  0  0  0  0
  -23.7129   -7.4982   21.0917 C   0  0  0  0  0  0  0  0  0  0  0  0
  -21.9532   -9.0781   20.5973 C   0  0  0  0  0  0  0  0  0  0  0  0
  -27.3214  -28.5067   21.2996 C   0  0  0  0  0  0  0  0  0  0  0  0
  -21.9032   -7.0474   23.9105 C   0  0  0  0  0  0  0  0  0  0  0  0
  -22.1800   -6.3971   25.1130 C   0  0  0  0  0  0  0  0  0  0  0  0
  -26.2591  -27.5001   19.3820 C   0  0  0  0  0  0  0  0  0  0  0  0
  -25.6663  -22.7887   21.6325 C   0  0  0  0  0  0  0  0  0  0  0  0
  -22.0687   -4.2636   23.9848 C   0  0  0  0  0  0  0  0  0  0  0  0
  -27.3708  -21.7707   22.6948 C   0  0  0  0  0  0  0  0  0  0  0  0
  -24.2537   -9.6454   20.1252 C   0  0  0  0  0  0  0  0  0  0  0  0
  -25.7057  -10.6957   18.3096 C   0  0  0  0  0  0  0  0  0  0  0  0
  -18.8897  -29.1800   24.4789 C   0  0  0  0  0  0  0  0  0  0  0  0
  -25.1206  -29.2556   20.5992 C   0  0  0  0  0  0  0  0  0  0  0  0
  -20.1766  -28.7325   24.1238 C   0  0  0  0  0  0  0  0  0  0  0  0
  -25.1443  -28.3376   19.5396 C   0  0  0  0  0  0  0  0  0  0  0  0
  -26.9423  -22.9886   22.2149 C   0  0  0  0  0  0  0  0  0  0  0  0
  -22.3595   -7.8357   21.0843 C   0  0  0  0  0  0  0  0  0  0  0  0
  -27.3407  -27.5833   20.2584 C   0  0  0  0  0  0  0  0  0  0  0  0
  -21.7090   -6.3058   22.7452 C   0  0  0  0  0  0  0  0  0  0  0  0
  -22.2628   -5.0052   25.1502 C   0  0  0  0  0  0  0  0  0  0  0  0
  -21.7919   -4.9139   22.7823 C   0  0  0  0  0  0  0  0  0  0  0  0
  -25.2316  -10.5806   19.6302 C   0  0  0  0  0  0  0  0  0  0  0  0
  -25.3539  -21.4546   21.7745 C   0  0  0  0  0  0  0  0  0  0  0  0
  -26.6143  -11.7245   18.3594 C   0  0  0  0  0  0  0  0  0  0  0  0
  -25.3559   -9.9402   17.1423 C   0  0  0  0  0  0  0  0  0  0  0  0
  -22.0417  -28.5427   20.9398 C   0  0  0  0  0  0  0  0  0  0  0  0
  -21.8994  -29.3952   17.8132 C   0  0  0  0  0  0  0  0  0  0  0  0
  -23.5288  -29.7893   14.8406 C   0  0  0  0  0  0  0  0  0  0  0  0
  -27.1896  -16.3846   21.7595 C   0  0  0  0  0  0  0  0  0  0  0  0
  -17.6958  -28.9508   23.5863 C   0  0  0  0  0  0  0  0  0  0  0  0
  -23.9497  -30.1827   20.7779 C   0  0  0  0  0  0  0  0  0  0  0  0
  -23.9999  -28.2188   18.5676 C   0  0  0  0  0  0  0  0  0  0  0  0
  -18.0687  -28.6154   22.1445 C   0  0  0  0  0  0  0  0  0  0  0  0
  -29.6621  -13.9009   21.3234 C   0  0  0  0  0  0  0  0  0  0  0  0
  -19.1697  -27.5603   22.1094 C   0  0  0  0  0  0  0  0  0  0  0  0
  -28.8443  -12.7637   20.7129 C   0  0  0  0  0  0  0  0  0  0  0  0
  -28.8966  -14.6298   22.4293 C   0  0  0  0  0  0  0  0  0  0  0  0
  -26.7424  -13.9752   21.4028 C   0  0  0  0  0  0  0  0  0  0  0  0
  -20.4456  -28.0714   22.7894 C   0  0  1  0  0  0  0  0  0  0  0  0
  -22.6667  -29.6537   20.1443 C   0  0  1  0  0  0  0  0  0  0  0  0
  -27.4660  -13.2651   20.2483 C   0  0  2  0  0  0  0  0  0  0  0  0
  -27.8409  -24.7090   23.7715 C   0  0  0  0  0  0  0  0  0  0  0  0
  -23.1395  -30.4644   12.4552 C   0  0  0  0  0  0  0  0  0  0  0  0
  -23.1165  -21.6460   20.6329 C   0  0  0  0  0  0  0  0  0  0  0  0
  -23.4119  -20.0563   22.5620 C   0  0  0  0  0  0  0  0  0  0  0  0
  -24.3937  -19.5332   20.3386 C   0  0  0  0  0  0  0  0  0  0  0  0
  -20.5853  -26.6963   17.2665 C   0  0  0  0  0  0  0  0  0  0  0  0
  -21.0877  -27.0226   14.8355 C   0  0  0  0  0  0  0  0  0  0  0  0
  -19.5797  -28.6176   16.0208 C   0  0  0  0  0  0  0  0  0  0  0  0
  -30.6067  -24.8844   19.7188 C   0  0  0  0  0  0  0  0  0  0  0  0
  -28.9189  -23.0965   19.3506 C   0  0  0  0  0  0  0  0  0  0  0  0
  -28.2548  -17.0988   23.9412 C   0  0  0  0  0  0  0  0  0  0  0  0
  -25.4202  -32.0558   15.0517 C   0  0  0  0  0  0  0  0  0  0  0  0
  -29.0940  -24.2965   21.6198 C   0  0  0  0  0  0  0  0  0  0  0  0
  -26.4759  -19.4441   22.7708 C   0  0  0  0  0  0  0  0  0  0  0  0
  -27.7103  -18.7546   22.1954 C   0  0  0  0  0  0  0  0  0  0  0  0
  -28.1735  -25.4822   19.5185 C   0  0  0  0  0  0  0  0  0  1  0  0
  -27.6986  -24.3014   22.2953 C   0  0  1  0  0  0  0  0  0  0  0  0
  -22.0618  -28.6704   16.4990 C   0  0  1  0  0  0  0  0  0  0  0  0
  -23.5434  -30.9343   13.8440 C   0  0  2  0  0  0  0  0  0  0  0  0
  -24.1499  -20.7123   21.3474 C   0  0  0  0  0  0  0  0  0  0  0  0
  -20.8495  -27.7524   16.1747 C   0  0  0  0  0  0  0  0  0  0  0  0
  -29.1667  -24.4353   20.0662 C   0  0  0  0  0  0  0  0  0  0  0  0
  -25.7928  -11.4656   20.4584 N   0  0  0  0  0  0  0  0  0  0  0  0
  -26.3971  -20.8457   22.4219 N   0  0  0  0  0  0  0  0  0  0  0  0
  -26.6289  -12.1465   19.6563 N   0  0  0  0  0  0  0  0  0  0  0  0
  -22.8751  -29.1428   18.7879 N   0  0  0  0  0  0  0  0  0  0  0  0
  -27.5694  -15.0491   21.9586 N   0  0  0  0  0  0  0  0  0  0  0  0
  -27.3942  -12.3003   17.4199 N   0  0  0  0  0  0  0  0  0  0  0  0
  -24.4045   -8.9188   17.2678 N   0  0  0  0  0  0  0  0  0  0  0  0
  -21.1591  -28.9741   21.9116 N   0  0  0  0  0  0  0  0  0  0  0  0
  -22.3188  -29.6976   15.4954 N   0  0  0  0  0  0  0  0  0  0  0  0
  -27.7905  -17.3521   22.5787 N   0  0  0  0  0  0  0  0  0  0  0  0
  -24.9065  -31.5309   13.7604 N   0  3  0  0  0  0  0  0  0  0  0  0
  -25.8838  -10.1535   16.0246 O   0  0  0  0  0  0  0  0  0  0  0  0
  -22.3372  -27.3801   20.6894 O   0  0  0  0  0  0  0  0  0  0  0  0
  -20.9460  -30.1628   17.9667 O   0  0  0  0  0  0  0  0  0  0  0  0
  -24.4930  -29.0480   15.0177 O   0  0  0  0  0  0  0  0  0  0  0  0
  -26.3531  -16.6962   20.9020 O   0  0  0  0  0  0  0  0  0  0  0  0
  -21.4351   -6.9530   21.5519 O   0  0  0  0  0  0  0  0  0  0  0  0
  -28.4160  -26.7659   20.0925 O   0  0  0  0  0  0  0  0  0  1  0  0
  -22.5301   -4.3809   26.3048 F   0  0  0  0  0  0  0  0  0  0  0  0
  -21.6075   -4.1962   21.6658 F   0  0  0  0  0  0  0  0  0  0  0  0
  1  2  1  0  0  0  0
  1  5  2  0  0  0  0
  2  6  2  0  0  0  0
  3  8  2  0  0  0  0
  3 17  1  0  0  0  0
  4  9  1  0  0  0  0
  4 17  2  0  0  0  0
  5 19  1  0  0  0  0
  6 21  1  0  0  0  0
  7 10  2  0  0  0  0
  7 20  1  0  0  0  0
  8 24  1  0  0  0  0
  9 24  2  0  0  0  0
 10 25  1  0  0  0  0
 11 12  2  0  0  0  0
 11 26  1  0  0  0  0
 12 27  1  0  0  0  0
 13 22  1  0  0  0  0
 13 25  2  0  0  0  0
 14 23  1  0  0  0  0
 14 30  2  0  0  0  0
 15 27  2  0  0  0  0
 15 28  1  0  0  0  0
 16 23  2  0  0  0  0
 16 72  1  0  0  0  0
 17 29  1  0  0  0  0
 18 29  1  0  0  0  0
 18 31  2  0  0  0  0
 18 32  1  0  0  0  0
 19 21  2  0  0  0  0
 19 37  1  0  0  0  0
 20 22  2  0  0  0  0
 20 38  1  0  0  0  0
 21 46  1  0  0  0  0
 22 39  1  0  0  0  0
 23 65  1  0  0  0  0
 24 87  1  0  0  0  0
 25 88  1  0  0  0  0
 26 28  2  0  0  0  0
 26 87  1  0  0  0  0
 27 89  1  0  0  0  0
 28 90  1  0  0  0  0
 29 71  2  0  0  0  0
 30 68  1  0  0  0  0
 30 72  1  0  0  0  0
 31 73  1  0  0  0  0
 31 76  1  0  0  0  0
 32 77  1  0  0  0  0
 32 82  2  0  0  0  0
 33 47  1  0  0  0  0
 33 78  1  0  0  0  0
 33 83  2  0  0  0  0
 34 66  1  0  0  0  0
 34 74  1  0  0  0  0
 34 84  2  0  0  0  0
 35 67  1  0  0  0  0
 35 79  1  0  0  0  0
 35 85  2  0  0  0  0
 36 75  1  0  0  0  0
 36 80  1  0  0  0  0
 36 86  2  0  0  0  0
 37 40  1  0  0  0  0
 38 47  1  0  0  0  0
 39 74  1  0  0  0  0
 40 42  1  0  0  0  0
 41 43  1  0  0  0  0
 41 44  1  0  0  0  0
 42 46  1  0  0  0  0
 43 48  1  0  0  0  0
 44 75  1  0  0  0  0
 45 48  1  0  0  0  0
 45 75  1  0  0  0  0
 46 78  1  0  0  0  0
 47 74  1  0  0  0  0
 48 73  1  0  0  0  0
 49 65  1  0  0  0  0
 50 67  1  0  0  0  0
 51 68  1  0  0  0  0
 52 68  1  0  0  0  0
 53 68  1  0  0  0  0
 54 69  1  0  0  0  0
 55 69  1  0  0  0  0
 56 69  1  0  0  0  0
 57 70  1  0  0  0  0
 58 70  1  0  0  0  0
 59 80  1  0  0  0  0
 60 81  1  0  0  0  0
 61 65  1  0  0  0  0
 61 70  1  0  0  0  0
 62 63  1  0  0  0  0
 62 72  1  0  0  0  0
 63 80  1  0  0  0  0
 64 70  1  0  0  0  0
 64 88  1  0  0  0  0
 66 69  1  0  0  0  0
 66 79  1  0  0  0  0
 67 81  1  0  0  0  0
 71 73  1  0  0  0  0
M  CHG  1  81   1
M  ISO  4  36 100  64 101  80 100  88 101
M  END
> <Batch ID>
0078

> <Smiles>
CNC(C)C(=O)NC(C(=O)N1Cc2cc([101O:1][101CH2:1]C(C)(C)CC(C)c3cc(C(C)(C)C)n(CC[100N:0](C)[100C:0](=O)N4CCCC(n5nc(-c6ccc(Oc7ccc(F)cc7F)cc6)c(C(N)=O)c5N)C4)c3)ccc2CC1C(=O)NC1CCCc2ccccc21)C(C)(C)C

> <Shape>
0.246

> <Color>
0.121

> <Negative vol penalty>
0.000

$$$$

  -OEChem-04052318393D

 82 90  0     1  0  0  0  0  0999 V2000
  -28.4031  -21.6015   27.8180 C   0  0  0  0  0  0  0  0  0  0  0  0
  -28.0161  -20.9461   26.6534 C   0  0  0  0  0  0  0  0  0  0  0  0
  -21.8569  -25.3122   22.0200 C   0  0  0  0  0  0  0  0  0  0  0  0
  -24.0185  -25.2448   20.9430 C   0  0  0  0  0  0  0  0  0  0  0  0
  -28.5736  -22.9852   27.8141 C   0  0  0  0  0  0  0  0  0  0  0  0
  -27.7984  -21.6744   25.4844 C   0  0  0  0  0  0  0  0  0  0  0  0
  -29.8866  -19.4932   21.4192 C   0  0  0  0  0  0  0  0  0  0  0  0
  -22.1697  -26.5552   22.5701 C   0  0  0  0  0  0  0  0  0  0  0  0
  -24.3314  -26.4878   21.4930 C   0  0  0  0  0  0  0  0  0  0  0  0
  -29.2112  -18.4088   20.8609 C   0  0  0  0  0  0  0  0  0  0  0  0
  -23.6249  -29.7337   20.8717 C   0  0  0  0  0  0  0  0  0  0  0  0
  -24.2134  -30.6815   20.0346 C   0  0  0  0  0  0  0  0  0  0  0  0
  -28.3045  -19.8578   19.1587 C   0  0  0  0  0  0  0  0  0  0  0  0
  -26.1476  -30.7575   21.4803 C   0  0  0  0  0  0  0  0  0  0  0  0
  -22.7813  -24.6569   21.2065 C   0  0  0  0  0  0  0  0  0  0  0  0
  -21.8351  -23.1226   19.4015 C   0  0  0  0  0  0  0  0  0  0  0  0
  -28.3672  -23.7297   26.6420 C   0  0  0  0  0  0  0  0  0  0  0  0
  -29.7672  -20.7722   20.8569 C   0  0  0  0  0  0  0  0  0  0  0  0
  -27.9650  -23.0696   25.4651 C   0  0  0  0  0  0  0  0  0  0  0  0
  -28.9815  -20.9562   19.7102 C   0  0  0  0  0  0  0  0  0  0  0  0
  -23.4069  -27.1431   22.3066 C   0  0  0  0  0  0  0  0  0  0  0  0
  -28.4177  -18.5916   19.7322 C   0  0  0  0  0  0  0  0  0  0  0  0
  -24.2977  -29.2978   22.0133 C   0  0  0  0  0  0  0  0  0  0  0  0
  -25.4748  -31.1934   20.3388 C   0  0  0  0  0  0  0  0  0  0  0  0
  -25.5591  -29.8097   22.3175 C   0  0  0  0  0  0  0  0  0  0  0  0
  -22.4590  -23.3726   20.6385 C   0  0  0  0  0  0  0  0  0  0  0  0
  -21.7563  -21.7533   19.3272 C   0  0  0  0  0  0  0  0  0  0  0  0
  -26.9480  -12.3525   20.8998 C   0  0  0  0  0  0  0  0  0  0  0  0
  -25.2069  -13.3339   20.0546 C   0  0  0  0  0  0  0  0  0  0  0  0
  -21.3686  -24.0455   18.4084 C   0  0  0  0  0  0  0  0  0  0  0  0
  -28.6615  -23.5743   21.8717 C   0  0  0  0  0  0  0  0  0  0  0  0
  -29.8322  -24.6233   19.0342 C   0  0  0  0  0  0  0  0  0  0  0  0
  -30.7432  -23.8921   15.8276 C   0  0  0  0  0  0  0  0  0  0  0  0
  -24.0698  -16.8208   19.8416 C   0  0  0  0  0  0  0  0  0  0  0  0
  -28.5180  -25.2293   26.6985 C   0  0  0  0  0  0  0  0  0  0  0  0
  -30.5236  -21.9264   21.4553 C   0  0  0  0  0  0  0  0  0  0  0  0
  -28.8364  -22.3053   19.0564 C   0  0  0  0  0  0  0  0  0  0  0  0
  -28.6311  -25.8823   25.3233 C   0  0  0  0  0  0  0  0  0  0  0  0
  -22.5929  -18.2098   22.8394 C   0  0  0  0  0  0  0  0  0  0  0  0
  -27.5659  -25.3305   24.3811 C   0  0  0  0  0  0  0  0  0  0  0  0
  -22.3750  -19.6660   22.4244 C   0  0  0  0  0  0  0  0  0  0  0  0
  -23.8936  -17.6593   22.2621 C   0  0  0  0  0  0  0  0  0  0  0  0
  -23.7893  -19.2273   20.3636 C   0  0  0  0  0  0  0  0  0  0  0  0
  -27.7433  -23.8219   24.1709 C   0  0  1  0  0  0  0  0  0  0  0  0
  -29.9199  -23.2828   21.1041 C   0  0  1  0  0  0  0  0  0  0  0  0
  -22.4794  -19.8351   20.8971 C   0  0  2  0  0  0  0  0  0  0  0  0
  -28.3181  -12.1456   21.4017 C   0  0  0  0  0  0  0  0  0  0  0  0
  -31.6275  -24.9638   13.7379 C   0  0  0  0  0  0  0  0  0  0  0  0
  -28.9509  -16.6939   17.2814 C   0  0  0  0  0  0  0  0  0  0  0  0
  -27.0740  -25.8018   18.4744 C   0  0  0  0  0  0  0  0  0  0  0  0
  -27.7247  -26.0006   16.0650 C   0  0  0  0  0  0  0  0  0  0  0  0
  -28.9888  -27.2645   17.8049 C   0  0  0  0  0  0  0  0  0  0  0  0
  -33.1802  -22.2131   15.8589 C   0  0  0  0  0  0  0  0  0  0  0  0
  -24.3497  -14.3828   19.4743 C   0  0  0  0  0  0  0  0  0  0  0  0
  -27.7394  -15.1431   18.8565 C   0  0  0  0  0  0  0  0  0  0  0  0
  -27.2871  -14.8269   20.2895 C   0  0  0  0  0  0  0  0  0  0  0  0
  -29.2817  -24.7590   17.6351 C   0  0  1  0  0  0  0  0  0  0  0  0
  -31.9852  -24.2431   15.0284 C   0  0  2  0  0  0  0  0  0  0  0  0
  -28.5488  -16.4395   18.7285 C   0  0  2  0  0  0  0  0  0  1  0  0
  -28.2683  -25.9313   17.5080 C   0  0  0  0  0  0  0  0  0  0  0  0
  -22.7553  -22.2521   21.3023 N   0  0  0  0  0  0  0  0  0  0  0  0
  -25.9811  -11.4645   20.8471 N   0  0  0  0  0  0  0  0  0  0  0  0
  -24.8734  -12.0888   20.3094 N   0  0  0  0  0  0  0  0  0  0  0  0
  -22.3157  -21.2847   20.4795 N   0  0  0  0  0  0  0  0  0  0  0  0
  -26.5045  -13.5438   20.4109 N   0  0  0  0  0  0  0  0  0  0  0  0
  -29.5907  -23.4038   19.6824 N   0  0  0  0  0  0  0  0  0  0  0  0
  -23.9215  -17.8342   20.8030 N   0  0  0  0  0  0  0  0  0  0  0  0
  -21.2637  -20.9165   18.3894 N   0  0  0  0  0  0  0  0  0  0  0  0
  -21.5281  -25.4178   18.6442 N   0  0  0  0  0  0  0  0  0  0  0  0
  -28.8244  -23.5645   23.2438 N   0  0  0  0  0  0  0  0  0  0  0  0
  -30.4369  -24.8694   16.7508 N   0  0  0  0  0  0  0  0  0  0  0  0
  -24.1958  -15.5302   20.3408 N   0  0  0  0  0  0  0  0  0  0  0  0
  -32.7445  -23.0084   14.6821 N   0  3  0  0  0  0  0  0  0  0  0  0
  -20.8116  -23.6649   17.3508 O   0  0  0  0  0  0  0  0  0  0  0  0
  -27.6202  -23.7934   21.2639 O   0  0  0  0  0  0  0  0  0  0  0  0
  -30.4597  -25.5621   19.5308 O   0  0  0  0  0  0  0  0  0  0  0  0
  -30.1063  -22.8565   15.6481 O   0  0  0  0  0  0  0  0  0  0  0  0
  -24.0836  -17.0486   18.6271 O   0  0  0  0  0  0  0  0  0  0  0  0
  -23.7124  -28.3561   22.8430 O   0  0  0  0  0  0  0  0  0  0  0  0
  -27.7567  -17.5350   19.1856 O   0  0  0  0  0  0  0  0  0  1  0  0
  -26.0405  -32.1025   19.5340 F   0  0  0  0  0  0  0  0  0  0  0  0
  -26.2108  -29.3939   23.4121 F   0  0  0  0  0  0  0  0  0  0  0  0
  1  2  1  0  0  0  0
  1  5  2  0  0  0  0
  2  6  2  0  0  0  0
  3  8  2  0  0  0  0
  3 15  1  0  0  0  0
  4  9  1  0  0  0  0
  4 15  2  0  0  0  0
  5 17  1  0  0  0  0
  6 19  1  0  0  0  0
  7 10  2  0  0  0  0
  7 18  1  0  0  0  0
  8 21  1  0  0  0  0
  9 21  2  0  0  0  0
 10 22  1  0  0  0  0
 11 12  2  0  0  0  0
 11 23  1  0  0  0  0
 12 24  1  0  0  0  0
 13 20  1  0  0  0  0
 13 22  2  0  0  0  0
 14 24  2  0  0  0  0
 14 25  1  0  0  0  0
 15 26  1  0  0  0  0
 16 26  1  0  0  0  0
 16 27  2  0  0  0  0
 16 30  1  0  0  0  0
 17 19  2  0  0  0  0
 17 35  1  0  0  0  0
 18 20  2  0  0  0  0
 18 36  1  0  0  0  0
 19 44  1  0  0  0  0
 20 37  1  0  0  0  0
 21 79  1  0  0  0  0
 22 80  1  0  0  0  0
 23 25  2  0  0  0  0
 23 79  1  0  0  0  0
 24 81  1  0  0  0  0
 25 82  1  0  0  0  0
 26 61  2  0  0  0  0
 27 64  1  0  0  0  0
 27 68  1  0  0  0  0
 28 47  1  0  0  0  0
 28 62  2  0  0  0  0
 28 65  1  0  0  0  0
 29 54  1  0  0  0  0
 29 63  2  0  0  0  0
 29 65  1  0  0  0  0
 30 69  1  0  0  0  0
 30 74  2  0  0  0  0
 31 45  1  0  0  0  0
 31 70  1  0  0  0  0
 31 75  2  0  0  0  0
 32 57  1  0  0  0  0
 32 66  1  0  0  0  0
 32 76  2  0  0  0  0
 33 58  1  0  0  0  0
 33 71  1  0  0  0  0
 33 77  2  0  0  0  0
 34 67  1  0  0  0  0
 34 72  1  0  0  0  0
 34 78  2  0  0  0  0
 35 38  1  0  0  0  0
 36 45  1  0  0  0  0
 37 66  1  0  0  0  0
 38 40  1  0  0  0  0
 39 41  1  0  0  0  0
 39 42  1  0  0  0  0
 40 44  1  0  0  0  0
 41 46  1  0  0  0  0
 42 67  1  0  0  0  0
 43 46  1  0  0  0  0
 43 67  1  0  0  0  0
 44 70  1  0  0  0  0
 45 66  1  0  0  0  0
 46 64  1  0  0  0  0
 48 58  1  0  0  0  0
 49 59  1  0  0  0  0
 50 60  1  0  0  0  0
 51 60  1  0  0  0  0
 52 60  1  0  0  0  0
 53 73  1  0  0  0  0
 54 72  1  0  0  0  0
 55 56  1  0  0  0  0
 55 59  1  0  0  0  0
 56 65  1  0  0  0  0
 57 60  1  0  0  0  0
 57 71  1  0  0  0  0
 58 73  1  0  0  0  0
 59 80  1  0  0  0  0
 61 64  1  0  0  0  0
 62 63  1  0  0  0  0
M  CHG  1  73   1
M  ISO  4  34 100  59 101  72 100  80 101
M  END
> <Batch ID>
0078

> <Smiles>
CNC(C)C(=O)NC(C(=O)N1Cc2cc([101O:1][101CH:1](C)CCn3c(C)nnc3C[100NH:0][100C:0](=O)N3CCCC(n4nc(-c5ccc(Oc6ccc(F)cc6F)cc5)c(C(N)=O)c4N)C3)ccc2CC1C(=O)NC1CCCc2ccccc21)C(C)(C)C

> <Shape>
0.180

> <Color>
0.084

> <Negative vol penalty>
0.000

$$$$

  -OEChem-04052318393D

 85 93  0     1  0  0  0  0  0999 V2000
  -29.4697  -24.0034   13.4298 C   0  0  0  0  0  0  0  0  0  0  0  0
  -28.7088  -23.0818   14.1420 C   0  0  0  0  0  0  0  0  0  0  0  0
  -24.4709  -11.8801   20.3679 C   0  0  0  0  0  0  0  0  0  0  0  0
  -25.0803  -12.5757   22.5999 C   0  0  0  0  0  0  0  0  0  0  0  0
  -30.0495  -25.0857   14.0903 C   0  0  0  0  0  0  0  0  0  0  0  0
  -28.5281  -23.2415   15.5154 C   0  0  0  0  0  0  0  0  0  0  0  0
  -23.7040  -22.0856   20.6834 C   0  0  0  0  0  0  0  0  0  0  0  0
  -24.5506  -10.5446   20.7624 C   0  0  0  0  0  0  0  0  0  0  0  0
  -25.1600  -11.2402   22.9944 C   0  0  0  0  0  0  0  0  0  0  0  0
  -23.5904  -21.4832   21.9356 C   0  0  0  0  0  0  0  0  0  0  0  0
  -22.6402   -8.3300   22.4592 C   0  0  0  0  0  0  0  0  0  0  0  0
  -21.6123   -7.4745   22.0628 C   0  0  0  0  0  0  0  0  0  0  0  0
  -24.5737  -23.4349   22.9570 C   0  0  0  0  0  0  0  0  0  0  0  0
  -26.1829  -21.0138   27.0907 C   0  0  0  0  0  0  0  0  0  0  0  0
  -26.9642  -19.9273   25.0924 C   0  0  0  0  0  0  0  0  0  0  0  0
  -23.2107   -6.1021   20.8800 C   0  0  0  0  0  0  0  0  0  0  0  0
  -24.7357  -12.8957   21.2867 C   0  0  0  0  0  0  0  0  0  0  0  0
  -23.5218  -15.1106   20.9287 C   0  0  0  0  0  0  0  0  0  0  0  0
  -29.8678  -25.2641   15.4708 C   0  0  0  0  0  0  0  0  0  0  0  0
  -24.2642  -23.3649   20.5572 C   0  0  0  0  0  0  0  0  0  0  0  0
  -29.1071  -24.3266   16.1952 C   0  0  0  0  0  0  0  0  0  0  0  0
  -24.6909  -24.0524   21.7024 C   0  0  0  0  0  0  0  0  0  0  0  0
  -25.9319  -20.2212   25.9763 C   0  0  0  0  0  0  0  0  0  0  0  0
  -24.8952  -10.2246   22.0756 C   0  0  0  0  0  0  0  0  0  0  0  0
  -24.0279  -22.1567   23.0723 C   0  0  0  0  0  0  0  0  0  0  0  0
  -23.9534   -8.0716   22.0659 C   0  0  0  0  0  0  0  0  0  0  0  0
  -21.8976   -6.3606   21.2732 C   0  0  0  0  0  0  0  0  0  0  0  0
  -24.2386   -6.9577   21.2763 C   0  0  0  0  0  0  0  0  0  0  0  0
  -24.6540  -14.2755   20.8797 C   0  0  0  0  0  0  0  0  0  0  0  0
  -27.4732  -21.4841   27.2748 C   0  0  0  0  0  0  0  0  0  0  0  0
  -28.2194  -20.4464   25.3658 C   0  0  0  0  0  0  0  0  0  0  0  0
  -23.9614  -16.3143   20.4344 C   0  0  0  0  0  0  0  0  0  0  0  0
  -22.1917  -14.8240   21.3807 C   0  0  0  0  0  0  0  0  0  0  0  0
  -26.8125  -24.5621   19.0818 C   0  0  0  0  0  0  0  0  0  0  0  0
  -25.5621  -27.3925   20.0553 C   0  0  0  0  0  0  0  0  0  0  0  0
  -23.5691  -29.0756   22.2557 C   0  0  0  0  0  0  0  0  0  0  0  0
  -28.6543  -19.7042   20.4440 C   0  0  0  0  0  0  0  0  0  0  0  0
  -30.5533  -26.4235   16.1494 C   0  0  0  0  0  0  0  0  0  0  0  0
  -24.3552  -24.0118   19.2023 C   0  0  0  0  0  0  0  0  0  0  0  0
  -25.2810  -25.4358   21.6230 C   0  0  0  0  0  0  0  0  0  0  0  0
  -30.0031  -26.7270   17.5406 C   0  0  0  0  0  0  0  0  0  0  0  0
  -27.7594  -17.7432   17.6102 C   0  0  0  0  0  0  0  0  0  0  0  0
  -29.8574  -25.4417   18.3491 C   0  0  0  0  0  0  0  0  0  0  0  0
  -26.7621  -16.7268   18.1690 C   0  0  0  0  0  0  0  0  0  0  0  0
  -28.8708  -18.0522   18.6108 C   0  0  0  0  0  0  0  0  0  0  0  0
  -27.4064  -17.4601   20.5026 C   0  0  0  0  0  0  0  0  0  0  0  0
  -28.8676  -24.4793   17.6817 C   0  0  1  0  0  0  0  0  0  0  0  0
  -25.4137  -25.1083   19.1335 C   0  0  1  0  0  0  0  0  0  0  0  0
  -26.2360  -17.1588   19.5509 C   0  0  2  0  0  0  0  0  0  0  0  0
  -27.7797  -22.3362   28.4608 C   0  0  0  0  0  0  0  0  0  0  0  0
  -22.7738  -31.3873   22.8224 C   0  0  0  0  0  0  0  0  0  0  0  0
  -23.4855  -20.0881   26.7986 C   0  0  0  0  0  0  0  0  0  0  0  0
  -24.5674  -18.1249   25.7250 C   0  0  0  0  0  0  0  0  0  0  0  0
  -28.2705  -28.0126   21.3162 C   0  0  0  0  0  0  0  0  0  0  0  0
  -27.1613  -29.8259   22.6391 C   0  0  0  0  0  0  0  0  0  0  0  0
  -27.1968  -29.9454   20.1476 C   0  0  0  0  0  0  0  0  0  0  0  0
  -20.7415  -28.3465   21.7738 C   0  0  0  0  0  0  0  0  0  0  0  0
  -29.3502  -20.1526   24.4374 C   0  0  0  0  0  0  0  0  0  0  0  0
  -29.5195  -21.1742   23.2960 C   0  0  0  0  0  0  0  0  0  0  0  0
  -28.3253  -21.2615   22.3481 C   0  0  0  0  0  0  0  0  0  0  0  0
  -23.9934  -20.1464   24.3426 C   0  0  0  0  0  0  0  0  0  1  0  0
  -25.7002  -28.2555   21.2862 C   0  0  1  0  0  0  0  0  0  0  0  0
  -22.4845  -30.1156   22.0401 C   0  0  2  0  0  0  0  0  0  0  0  0
  -24.5162  -19.6701   25.7225 C   0  0  0  0  0  0  0  0  0  0  0  0
  -27.0729  -28.9830   21.3489 C   0  0  0  0  0  0  0  0  0  0  0  0
  -25.7318  -14.8960   20.3925 N   0  0  0  0  0  0  0  0  0  0  0  0
  -28.5016  -21.2199   26.4381 N   0  0  0  0  0  0  0  0  0  0  0  0
  -25.2788  -16.1339   20.1309 N   0  0  0  0  0  0  0  0  0  0  0  0
  -25.3545  -26.0234   20.2751 N   0  0  0  0  0  0  0  0  0  0  0  0
  -28.3050  -18.4572   19.8999 N   0  0  0  0  0  0  0  0  0  0  0  0
  -23.3457  -17.4989   20.2341 N   0  0  0  0  0  0  0  0  0  0  0  0
  -21.9111  -13.5364   21.8579 N   0  0  0  0  0  0  0  0  0  0  0  0
  -27.5059  -24.8988   17.9350 N   0  0  0  0  0  0  0  0  0  0  0  0
  -24.5486  -29.1511   21.2882 N   0  0  0  0  0  0  0  0  0  0  0  0
  -28.0687  -20.0128   21.6656 N   0  0  0  0  0  0  0  0  0  0  0  0
  -21.1629  -29.5845   22.4787 N   0  3  0  0  0  0  0  0  0  0  0  0
  -21.2749  -15.6795   21.3468 O   0  0  0  0  0  0  0  0  0  0  0  0
  -27.2322  -23.8866   20.0142 O   0  0  0  0  0  0  0  0  0  0  0  0
  -25.6285  -27.9151   18.9398 O   0  0  0  0  0  0  0  0  0  0  0  0
  -23.5512  -28.2786   23.1911 O   0  0  0  0  0  0  0  0  0  0  0  0
  -29.4265  -20.4869   19.8801 O   0  0  0  0  0  0  0  0  0  0  0  0
  -24.9729   -8.9215   22.4609 O   0  0  0  0  0  0  0  0  0  0  0  0
  -23.9188  -21.5707   24.2957 O   0  0  0  0  0  0  0  0  0  1  0  0
  -20.9106   -5.5383   20.8939 F   0  0  0  0  0  0  0  0  0  0  0  0
  -25.4983   -6.7036   20.8964 F   0  0  0  0  0  0  0  0  0  0  0  0
  1  2  1  0  0  0  0
  1  5  2  0  0  0  0
  2  6  2  0  0  0  0
  3  8  2  0  0  0  0
  3 17  1  0  0  0  0
  4  9  1  0  0  0  0
  4 17  2  0  0  0  0
  5 19  1  0  0  0  0
  6 21  1  0  0  0  0
  7 10  2  0  0  0  0
  7 20  1  0  0  0  0
  8 24  1  0  0  0  0
  9 24  2  0  0  0  0
 10 25  1  0  0  0  0
 11 12  2  0  0  0  0
 11 26  1  0  0  0  0
 12 27  1  0  0  0  0
 13 22  1  0  0  0  0
 13 25  2  0  0  0  0
 14 23  1  0  0  0  0
 14 30  2  0  0  0  0
 15 23  2  0  0  0  0
 15 31  1  0  0  0  0
 16 27  2  0  0  0  0
 16 28  1  0  0  0  0
 17 29  1  0  0  0  0
 18 29  1  0  0  0  0
 18 32  2  0  0  0  0
 18 33  1  0  0  0  0
 19 21  2  0  0  0  0
 19 38  1  0  0  0  0
 20 22  2  0  0  0  0
 20 39  1  0  0  0  0
 21 47  1  0  0  0  0
 22 40  1  0  0  0  0
 23 64  1  0  0  0  0
 24 82  1  0  0  0  0
 25 83  1  0  0  0  0
 26 28  2  0  0  0  0
 26 82  1  0  0  0  0
 27 84  1  0  0  0  0
 28 85  1  0  0  0  0
 29 66  2  0  0  0  0
 30 50  1  0  0  0  0
 30 67  1  0  0  0  0
 31 58  1  0  0  0  0
 31 67  2  0  0  0  0
 32 68  1  0  0  0  0
 32 71  1  0  0  0  0
 33 72  1  0  0  0  0
 33 77  2  0  0  0  0
 34 48  1  0  0  0  0
 34 73  1  0  0  0  0
 34 78  2  0  0  0  0
 35 62  1  0  0  0  0
 35 69  1  0  0  0  0
 35 79  2  0  0  0  0
 36 63  1  0  0  0  0
 36 74  1  0  0  0  0
 36 80  2  0  0  0  0
 37 70  1  0  0  0  0
 37 75  1  0  0  0  0
 37 81  2  0  0  0  0
 38 41  1  0  0  0  0
 39 48  1  0  0  0  0
 40 69  1  0  0  0  0
 41 43  1  0  0  0  0
 42 44  1  0  0  0  0
 42 45  1  0  0  0  0
 43 47  1  0  0  0  0
 44 49  1  0  0  0  0
 45 70  1  0  0  0  0
 46 49  1  0  0  0  0
 46 70  1  0  0  0  0
 47 73  1  0  0  0  0
 48 69  1  0  0  0  0
 49 68  1  0  0  0  0
 51 63  1  0  0  0  0
 52 64  1  0  0  0  0
 53 64  1  0  0  0  0
 54 65  1  0  0  0  0
 55 65  1  0  0  0  0
 56 65  1  0  0  0  0
 57 76  1  0  0  0  0
 58 59  1  0  0  0  0
 59 60  1  0  0  0  0
 60 75  1  0  0  0  0
 61 64  1  0  0  0  0
 61 83  1  0  0  0  0
 62 65  1  0  0  0  0
 62 74  1  0  0  0  0
 63 76  1  0  0  0  0
 66 68  1  0  0  0  0
M  CHG  1  76   1
M  ISO  4  37 100  61 101  75 100  83 101
M  END
> <Batch ID>
0078

> <Smiles>
CNC(C)C(=O)NC(C(=O)N1Cc2cc([101O:1][101CH2:1]C(C)(C)c3cc(C)nc(CCC[100NH:0][100C:0](=O)N4CCCC(n5nc(-c6ccc(Oc7ccc(F)cc7F)cc6)c(C(N)=O)c5N)C4)c3)ccc2CC1C(=O)NC1CCCc2ccccc21)C(C)(C)C

> <Shape>
0.205

> <Color>
0.080

> <Negative vol penalty>
0.000

$$$$

  -OEChem-04052318393D

 86 94  0     1  0  0  0  0  0999 V2000
  -21.7582  -17.7165   35.7556 C   0  0  0  0  0  0  0  0  0  0  0  0
  -22.4036  -18.0305   34.5638 C   0  0  0  0  0  0  0  0  0  0  0  0
  -23.0725   -9.8701   19.9431 C   0  0  0  0  0  0  0  0  0  0  0  0
  -23.8348   -9.8783   22.2356 C   0  0  0  0  0  0  0  0  0  0  0  0
  -21.1198  -16.4852   35.8977 C   0  0  0  0  0  0  0  0  0  0  0  0
  -22.4119  -17.1129   33.5139 C   0  0  0  0  0  0  0  0  0  0  0  0
  -22.2320  -18.3715   27.5231 C   0  0  0  0  0  0  0  0  0  0  0  0
  -22.3290   -8.7170   20.1944 C   0  0  0  0  0  0  0  0  0  0  0  0
  -23.0913   -8.7252   22.4870 C   0  0  0  0  0  0  0  0  0  0  0  0
  -23.2280  -18.4492   26.5507 C   0  0  0  0  0  0  0  0  0  0  0  0
  -19.3824   -7.9209   21.6492 C   0  0  0  0  0  0  0  0  0  0  0  0
  -18.0750   -7.8744   21.1653 C   0  0  0  0  0  0  0  0  0  0  0  0
  -22.7631  -16.1729   25.9013 C   0  0  0  0  0  0  0  0  0  0  0  0
  -25.9337  -19.1751   22.3501 C   0  0  0  0  0  0  0  0  0  0  0  0
  -18.6334   -5.9306   19.8435 C   0  0  0  0  0  0  0  0  0  0  0  0
  -23.8255  -10.4507   20.9637 C   0  0  0  0  0  0  0  0  0  0  0  0
  -24.1670  -12.9759   20.8420 C   0  0  0  0  0  0  0  0  0  0  0  0
  -21.1120  -15.5559   34.8456 C   0  0  0  0  0  0  0  0  0  0  0  0
  -21.5002  -17.1883   27.6996 C   0  0  0  0  0  0  0  0  0  0  0  0
  -21.7739  -15.8675   33.6426 C   0  0  0  0  0  0  0  0  0  0  0  0
  -21.7566  -16.0836   26.8749 C   0  0  0  0  0  0  0  0  0  0  0  0
  -26.8652  -19.0705   21.3232 C   0  0  0  0  0  0  0  0  0  0  0  0
  -26.1756  -18.5478   23.5672 C   0  0  0  0  0  0  0  0  0  0  0  0
  -22.3384   -8.1446   21.4663 C   0  0  0  0  0  0  0  0  0  0  0  0
  -23.4957  -17.3489   25.7415 C   0  0  0  0  0  0  0  0  0  0  0  0
  -20.3154   -6.9724   21.2301 C   0  0  0  0  0  0  0  0  0  0  0  0
  -17.7005   -6.8792   20.2625 C   0  0  0  0  0  0  0  0  0  0  0  0
  -19.9409   -5.9773   20.3273 C   0  0  0  0  0  0  0  0  0  0  0  0
  -24.5942  -11.6415   20.7045 C   0  0  0  0  0  0  0  0  0  0  0  0
  -28.0136  -18.3329   21.5618 C   0  0  0  0  0  0  0  0  0  0  0  0
  -27.3548  -17.8334   23.7053 C   0  0  0  0  0  0  0  0  0  0  0  0
  -25.2587  -13.7252   20.4772 C   0  0  0  0  0  0  0  0  0  0  0  0
  -22.8969  -13.4918   21.2620 C   0  0  0  0  0  0  0  0  0  0  0  0
  -21.1197  -15.1206   30.0835 C   0  0  0  0  0  0  0  0  0  0  0  0
  -18.9237  -13.8161   28.0839 C   0  0  0  0  0  0  0  0  0  0  0  0
  -17.8111  -13.3860   24.8865 C   0  0  0  0  0  0  0  0  0  0  0  0
  -30.7426  -14.7448   20.6593 C   0  0  0  0  0  0  0  0  0  0  0  0
  -20.4491  -14.2187   35.0630 C   0  0  0  0  0  0  0  0  0  0  0  0
  -20.4109  -17.1294   28.7351 C   0  0  0  0  0  0  0  0  0  0  0  0
  -20.9856  -14.7969   27.0105 C   0  0  0  0  0  0  0  0  0  0  0  0
  -20.1835  -13.4531   33.7693 C   0  0  0  0  0  0  0  0  0  0  0  0
  -29.6027  -12.3590   18.2749 C   0  0  0  0  0  0  0  0  0  0  0  0
  -21.4178  -13.4743   32.8734 C   0  0  0  0  0  0  0  0  0  0  0  0
  -28.1657  -12.0654   18.7095 C   0  0  0  0  0  0  0  0  0  0  0  0
  -30.5210  -12.5805   19.4747 C   0  0  0  0  0  0  0  0  0  0  0  0
  -28.6207  -13.3121   20.8629 C   0  0  0  0  0  0  0  0  0  0  0  0
  -21.7836  -14.9084   32.4721 C   0  0  1  0  0  0  0  0  0  0  0  0
  -20.0784  -15.7061   29.1722 C   0  0  1  0  0  0  0  0  0  0  0  0
  -27.6453  -13.1369   19.6864 C   0  0  2  0  0  0  0  0  0  0  0  0
  -26.6120  -19.7404   20.0169 C   0  0  0  0  0  0  0  0  0  0  0  0
  -27.4299  -15.6356   24.9097 C   0  0  0  0  0  0  0  0  0  0  0  0
  -16.0143  -12.2376   23.5637 C   0  0  0  0  0  0  0  0  0  0  0  0
  -20.3726  -11.1535   28.4319 C   0  0  0  0  0  0  0  0  0  0  0  0
  -19.1590  -10.3086   26.4117 C   0  0  0  0  0  0  0  0  0  0  0  0
  -17.8770  -10.9919   28.4396 C   0  0  0  0  0  0  0  0  0  0  0  0
  -31.4762  -17.9399   19.7221 C   0  0  0  0  0  0  0  0  0  0  0  0
  -30.9273  -19.4080   21.6552 C   0  0  0  0  0  0  0  0  0  0  0  0
  -16.7642  -15.9561   23.8581 C   0  0  0  0  0  0  0  0  0  0  0  0
  -25.1744  -18.6565   24.6794 C   0  0  0  0  0  0  0  0  0  1  0  0
  -29.0490  -18.1847   20.4955 C   0  0  0  0  0  0  0  0  0  0  0  0
  -27.6673  -17.1404   24.9912 C   0  0  0  0  0  0  0  0  0  0  0  0
  -30.8095  -16.8960   21.8950 C   0  0  0  0  0  0  0  0  0  0  0  0
  -18.9558  -12.7673   26.9986 C   0  0  1  0  0  0  0  0  0  0  0  0
  -16.4277  -13.5165   24.2752 C   0  0  2  0  0  0  0  0  0  0  0  0
  -19.1071  -11.3288   27.5690 C   0  0  0  0  0  0  0  0  0  0  0  0
  -30.5472  -18.0886   20.9445 C   0  0  0  0  0  0  0  0  0  0  0  0
  -25.8586  -11.5456   20.2849 N   0  0  0  0  0  0  0  0  0  0  0  0
  -28.2833  -17.7094   22.7306 N   0  0  0  0  0  0  0  0  0  0  0  0
  -26.2353  -12.8291   20.1556 N   0  0  0  0  0  0  0  0  0  0  0  0
  -19.9348  -14.7866   28.0416 N   0  0  0  0  0  0  0  0  0  0  0  0
  -29.9713  -13.6094   20.3608 N   0  0  0  0  0  0  0  0  0  0  0  0
  -25.4689  -15.0567   20.4033 N   0  0  0  0  0  0  0  0  0  0  0  0
  -21.8854  -12.5827   21.6008 N   0  0  0  0  0  0  0  0  0  0  0  0
  -20.9044  -15.3798   31.4237 N   0  0  0  0  0  0  0  0  0  0  0  0
  -17.7520  -12.9697   26.1996 N   0  0  0  0  0  0  0  0  0  0  0  0
  -30.1442  -15.6740   21.5015 N   0  0  0  0  0  0  0  0  0  0  0  0
  -16.4006  -14.6330   23.2885 N   0  3  0  0  0  0  0  0  0  0  0  0
  -22.6606  -14.7224   21.3189 O   0  0  0  0  0  0  0  0  0  0  0  0
  -22.0489  -14.4798   29.6063 O   0  0  0  0  0  0  0  0  0  0  0  0
  -18.0302  -13.7800   28.9336 O   0  0  0  0  0  0  0  0  0  0  0  0
  -18.8413  -13.6255   24.2604 O   0  0  0  0  0  0  0  0  0  0  0  0
  -31.8780  -14.9201   20.2044 O   0  0  0  0  0  0  0  0  0  0  0  0
  -21.6128   -7.0196   21.7120 O   0  0  0  0  0  0  0  0  0  0  0  0
  -24.4678  -17.4218   24.7920 O   0  0  0  0  0  0  0  0  0  1  0  0
  -16.4446   -6.8337   19.7991 F   0  0  0  0  0  0  0  0  0  0  0  0
  -20.8325   -5.0626   19.9220 F   0  0  0  0  0  0  0  0  0  0  0  0
  1  2  1  0  0  0  0
  1  5  2  0  0  0  0
  2  6  2  0  0  0  0
  3  8  2  0  0  0  0
  3 16  1  0  0  0  0
  4  9  1  0  0  0  0
  4 16  2  0  0  0  0
  5 18  1  0  0  0  0
  6 20  1  0  0  0  0
  7 10  2  0  0  0  0
  7 19  1  0  0  0  0
  8 24  1  0  0  0  0
  9 24  2  0  0  0  0
 10 25  1  0  0  0  0
 11 12  2  0  0  0  0
 11 26  1  0  0  0  0
 12 27  1  0  0  0  0
 13 21  1  0  0  0  0
 13 25  2  0  0  0  0
 14 22  2  0  0  0  0
 14 23  1  0  0  0  0
 15 27  2  0  0  0  0
 15 28  1  0  0  0  0
 16 29  1  0  0  0  0
 17 29  1  0  0  0  0
 17 32  2  0  0  0  0
 17 33  1  0  0  0  0
 18 20  2  0  0  0  0
 18 38  1  0  0  0  0
 19 21  2  0  0  0  0
 19 39  1  0  0  0  0
 20 47  1  0  0  0  0
 21 40  1  0  0  0  0
 22 30  1  0  0  0  0
 22 50  1  0  0  0  0
 23 31  2  0  0  0  0
 23 59  1  0  0  0  0
 24 83  1  0  0  0  0
 25 84  1  0  0  0  0
 26 28  2  0  0  0  0
 26 83  1  0  0  0  0
 27 85  1  0  0  0  0
 28 86  1  0  0  0  0
 29 67  2  0  0  0  0
 30 60  1  0  0  0  0
 30 68  2  0  0  0  0
 31 61  1  0  0  0  0
 31 68  1  0  0  0  0
 32 69  1  0  0  0  0
 32 72  1  0  0  0  0
 33 73  1  0  0  0  0
 33 78  2  0  0  0  0
 34 48  1  0  0  0  0
 34 74  1  0  0  0  0
 34 79  2  0  0  0  0
 35 63  1  0  0  0  0
 35 70  1  0  0  0  0
 35 80  2  0  0  0  0
 36 64  1  0  0  0  0
 36 75  1  0  0  0  0
 36 81  2  0  0  0  0
 37 71  1  0  0  0  0
 37 76  1  0  0  0  0
 37 82  2  0  0  0  0
 38 41  1  0  0  0  0
 39 48  1  0  0  0  0
 40 70  1  0  0  0  0
 41 43  1  0  0  0  0
 42 44  1  0  0  0  0
 42 45  1  0  0  0  0
 43 47  1  0  0  0  0
 44 49  1  0  0  0  0
 45 71  1  0  0  0  0
 46 49  1  0  0  0  0
 46 71  1  0  0  0  0
 47 74  1  0  0  0  0
 48 70  1  0  0  0  0
 49 69  1  0  0  0  0
 51 61  1  0  0  0  0
 52 64  1  0  0  0  0
 53 65  1  0  0  0  0
 54 65  1  0  0  0  0
 55 65  1  0  0  0  0
 56 66  1  0  0  0  0
 57 66  1  0  0  0  0
 58 77  1  0  0  0  0
 59 84  1  0  0  0  0
 60 66  1  0  0  0  0
 62 66  1  0  0  0  0
 62 76  1  0  0  0  0
 63 65  1  0  0  0  0
 63 75  1  0  0  0  0
 64 77  1  0  0  0  0
 67 69  1  0  0  0  0
M  CHG  1  77   1
M  ISO  4  37 100  59 101  76 100  84 101
M  END
> <Batch ID>
0078

> <Smiles>
CCc1nc(CC(C)(C)C[100NH:0][100C:0](=O)N2CCCC(n3nc(-c4ccc(Oc5ccc(F)cc5F)cc4)c(C(N)=O)c3N)C2)c(C)cc1[101CH2:1][101O:1]c1ccc2c(c1)CN(C(=O)C(NC(=O)C(C)NC)C(C)(C)C)C(C(=O)NC1CCCc3ccccc31)C2

> <Shape>
0.163

> <Color>
0.187

> <Negative vol penalty>
0.000

$$$$

  -OEChem-04052318393D

 87 95  0     1  0  0  0  0  0999 V2000
  -24.4039  -32.0515   25.3179 C   0  0  0  0  0  0  0  0  0  0  0  0
  -24.6050  -31.7640   23.9717 C   0  0  0  0  0  0  0  0  0  0  0  0
  -26.4928  -12.6519   21.6482 C   0  0  0  0  0  0  0  0  0  0  0  0
  -25.9787  -13.7178   19.5419 C   0  0  0  0  0  0  0  0  0  0  0  0
  -24.6951  -31.0911   26.2857 C   0  0  0  0  0  0  0  0  0  0  0  0
  -25.0985  -30.5162   23.5926 C   0  0  0  0  0  0  0  0  0  0  0  0
  -23.6613  -27.3690   18.5393 C   0  0  0  0  0  0  0  0  0  0  0  0
  -25.2384  -12.0420   21.6458 C   0  0  0  0  0  0  0  0  0  0  0  0
  -24.7243  -13.1079   19.5395 C   0  0  0  0  0  0  0  0  0  0  0  0
  -24.3007  -27.2282   17.3084 C   0  0  0  0  0  0  0  0  0  0  0  0
  -23.7592   -9.3934   20.1526 C   0  0  0  0  0  0  0  0  0  0  0  0
  -23.6959   -8.0398   20.4829 C   0  0  0  0  0  0  0  0  0  0  0  0
  -25.3152  -25.1788   18.0767 C   0  0  0  0  0  0  0  0  0  0  0  0
  -22.2476   -8.5620   22.3449 C   0  0  0  0  0  0  0  0  0  0  0  0
  -31.2487  -25.5613   17.6878 C   0  0  0  0  0  0  0  0  0  0  0  0
  -26.8630  -13.4899   20.5963 C   0  0  0  0  0  0  0  0  0  0  0  0
  -29.3518  -13.6134   20.0504 C   0  0  0  0  0  0  0  0  0  0  0  0
  -25.1833  -29.8274   25.9177 C   0  0  0  0  0  0  0  0  0  0  0  0
  -23.8530  -26.4199   19.5537 C   0  0  0  0  0  0  0  0  0  0  0  0
  -25.3978  -29.5384   24.5565 C   0  0  0  0  0  0  0  0  0  0  0  0
  -24.6750  -25.3086   19.3187 C   0  0  0  0  0  0  0  0  0  0  0  0
  -24.3541  -12.2700   20.5914 C   0  0  0  0  0  0  0  0  0  0  0  0
  -25.1301  -26.1345   17.0780 C   0  0  0  0  0  0  0  0  0  0  0  0
  -23.0668  -10.3314   20.9184 C   0  0  0  0  0  0  0  0  0  0  0  0
  -22.9401   -7.6240   21.5791 C   0  0  0  0  0  0  0  0  0  0  0  0
  -22.3110   -9.9157   22.0145 C   0  0  0  0  0  0  0  0  0  0  0  0
  -28.1585  -14.1206   20.5985 C   0  0  0  0  0  0  0  0  0  0  0  0
  -29.8639  -23.5505   16.6079 C   0  0  0  0  0  0  0  0  0  0  0  0
  -29.9423  -24.7757   15.9832 C   0  0  0  0  0  0  0  0  0  0  0  0
  -31.1697  -24.3364   18.3130 C   0  0  0  0  0  0  0  0  0  0  0  0
  -30.2889  -14.5831   20.3114 C   0  0  0  0  0  0  0  0  0  0  0  0
  -29.5918  -12.3764   19.3663 C   0  0  0  0  0  0  0  0  0  0  0  0
  -25.0589  -26.4915   22.4938 C   0  0  0  0  0  0  0  0  0  0  0  0
  -24.0093  -23.4234   22.5793 C   0  0  0  0  0  0  0  0  0  0  0  0
  -23.1475  -20.6071   20.8552 C   0  0  0  0  0  0  0  0  0  0  0  0
  -29.7944  -20.4056   21.1536 C   0  0  0  0  0  0  0  0  0  0  0  0
  -25.5284  -28.8383   27.0027 C   0  0  0  0  0  0  0  0  0  0  0  0
  -23.1350  -26.5723   20.8666 C   0  0  0  0  0  0  0  0  0  0  0  0
  -24.8978  -24.2510   20.3677 C   0  0  0  0  0  0  0  0  0  0  0  0
  -25.6939  -27.4088   26.4935 C   0  0  0  0  0  0  0  0  0  0  0  0
  -31.3146  -18.0526   23.4448 C   0  0  0  0  0  0  0  0  0  0  0  0
  -26.5596  -27.3862   25.2378 C   0  0  0  0  0  0  0  0  0  0  0  0
  -30.7822  -16.7214   22.9114 C   0  0  0  0  0  0  0  0  0  0  0  0
  -30.2594  -19.1501   23.3446 C   0  0  0  0  0  0  0  0  0  0  0  0
  -29.1758  -18.0227   21.4397 C   0  0  0  0  0  0  0  0  0  0  0  0
  -25.9083  -28.1875   24.1041 C   0  0  1  0  0  0  0  0  0  0  0  0
  -23.8084  -25.8154   22.0072 C   0  0  1  0  0  0  0  0  0  0  0  0
  -30.2032  -16.8775   21.4927 C   0  0  2  0  0  0  0  0  0  0  0  0
  -29.0938  -22.4221   16.0120 C   0  0  0  0  0  0  0  0  0  0  0  0
  -22.3662  -18.2476   21.2007 C   0  0  0  0  0  0  0  0  0  0  0  0
  -26.8316  -22.6129   23.4086 C   0  0  0  0  0  0  0  0  0  0  0  0
  -26.2518  -20.2502   22.8172 C   0  0  0  0  0  0  0  0  0  0  0  0
  -25.0028  -21.4225   24.6306 C   0  0  0  0  0  0  0  0  0  0  0  0
  -28.1482  -27.3349   14.8479 C   0  0  0  0  0  0  0  0  0  0  0  0
  -27.1769  -25.5765   13.3739 C   0  0  0  0  0  0  0  0  0  0  0  0
  -32.5911  -25.2623   20.1247 C   0  0  0  0  0  0  0  0  0  0  0  0
  -20.6367  -21.0977   19.3672 C   0  0  0  0  0  0  0  0  0  0  0  0
  -29.2510  -25.0335   14.6647 C   0  0  0  0  0  0  0  0  0  0  0  0
  -30.4690  -22.7895   21.0151 C   0  0  0  0  0  0  0  0  0  0  0  0
  -31.7760  -22.9023   20.2459 C   0  0  0  0  0  0  0  0  0  0  0  0
  -27.0156  -25.3245   15.8760 C   0  0  0  0  0  0  0  0  0  1  0  0
  -24.6007  -22.0809   22.2229 C   0  0  1  0  0  0  0  0  0  0  0  0
  -21.9435  -19.6889   20.9630 C   0  0  2  0  0  0  0  0  0  0  0  0
  -25.6693  -21.6124   23.2505 C   0  0  0  0  0  0  0  0  0  0  0  0
  -27.9072  -25.8187   14.7144 C   0  0  0  0  0  0  0  0  0  0  0  0
  -30.6364  -25.8030   16.5118 N   0  0  0  0  0  0  0  0  0  0  0  0
  -28.3199  -15.3193   21.1652 N   0  0  0  0  0  0  0  0  0  0  0  0
  -30.4760  -23.3089   17.7841 N   0  0  0  0  0  0  0  0  0  0  0  0
  -29.6257  -15.5734   20.9746 N   0  0  0  0  0  0  0  0  0  0  0  0
  -24.1787  -24.4479   21.6372 N   0  0  0  0  0  0  0  0  0  0  0  0
  -29.7630  -19.2597   21.9655 N   0  0  0  0  0  0  0  0  0  0  0  0
  -31.6072  -14.6767   20.0362 N   0  0  0  0  0  0  0  0  0  0  0  0
  -28.5178  -11.4949   19.1832 N   0  0  0  0  0  0  0  0  0  0  0  0
  -24.8431  -27.4226   23.4918 N   0  0  0  0  0  0  0  0  0  0  0  0
  -23.4745  -21.1657   22.0726 N   0  0  0  0  0  0  0  0  0  0  0  0
  -30.3605  -21.5366   21.7290 N   0  0  0  0  0  0  0  0  0  0  0  0
  -31.8414  -24.1676   19.5442 N   0  0  3  0  0  0  0  0  0  0  0  0
  -21.1378  -19.7419   19.7104 N   0  3  0  0  0  0  0  0  0  0  0  0
  -30.7287  -12.0549   18.9448 O   0  0  0  0  0  0  0  0  0  0  0  0
  -26.1397  -26.1897   22.0013 O   0  0  0  0  0  0  0  0  0  0  0  0
  -23.4128  -23.5562   23.6508 O   0  0  0  0  0  0  0  0  0  0  0  0
  -23.7411  -20.8058   19.7975 O   0  0  0  0  0  0  0  0  0  0  0  0
  -29.3550  -20.4186   19.9987 O   0  0  0  0  0  0  0  0  0  0  0  0
  -23.1300  -11.6749   20.5886 O   0  0  0  0  0  0  0  0  0  0  0  0
  -25.7559  -25.9949   15.8776 O   0  0  0  0  0  0  0  0  0  1  0  0
  -22.8781   -6.3239   21.8953 F   0  0  0  0  0  0  0  0  0  0  0  0
  -21.6426  -10.8120   22.7533 F   0  0  0  0  0  0  0  0  0  0  0  0
  1  2  1  0  0  0  0
  1  5  2  0  0  0  0
  2  6  2  0  0  0  0
  3  8  2  0  0  0  0
  3 16  1  0  0  0  0
  4  9  1  0  0  0  0
  4 16  2  0  0  0  0
  5 18  1  0  0  0  0
  6 20  1  0  0  0  0
  7 10  2  0  0  0  0
  7 19  1  0  0  0  0
  8 22  1  0  0  0  0
  9 22  2  0  0  0  0
 10 23  1  0  0  0  0
 11 12  2  0  0  0  0
 11 24  1  0  0  0  0
 12 25  1  0  0  0  0
 13 21  1  0  0  0  0
 13 23  2  0  0  0  0
 14 25  2  0  0  0  0
 14 26  1  0  0  0  0
 15 30  1  0  0  0  0
 15 66  2  0  0  0  0
 16 27  1  0  0  0  0
 17 27  1  0  0  0  0
 17 31  2  0  0  0  0
 17 32  1  0  0  0  0
 18 20  2  0  0  0  0
 18 37  1  0  0  0  0
 19 21  2  0  0  0  0
 19 38  1  0  0  0  0
 20 46  1  0  0  0  0
 21 39  1  0  0  0  0
 22 84  1  0  0  0  0
 23 85  1  0  0  0  0
 24 26  2  0  0  0  0
 24 84  1  0  0  0  0
 25 86  1  0  0  0  0
 26 87  1  0  0  0  0
 27 67  2  0  0  0  0
 28 29  2  0  0  0  0
 28 49  1  0  0  0  0
 28 68  1  0  0  0  0
 29 58  1  0  0  0  0
 29 66  1  0  0  0  0
 30 68  2  0  0  0  0
 30 77  1  0  0  0  0
 31 69  1  0  0  0  0
 31 72  1  0  0  0  0
 32 73  1  0  0  0  0
 32 79  2  0  0  0  0
 33 47  1  0  0  0  0
 33 74  1  0  0  0  0
 33 80  2  0  0  0  0
 34 62  1  0  0  0  0
 34 70  1  0  0  0  0
 34 81  2  0  0  0  0
 35 63  1  0  0  0  0
 35 75  1  0  0  0  0
 35 82  2  0  0  0  0
 36 71  1  0  0  0  0
 36 76  1  0  0  0  0
 36 83  2  0  0  0  0
 37 40  1  0  0  0  0
 38 47  1  0  0  0  0
 39 70  1  0  0  0  0
 40 42  1  0  0  0  0
 41 43  1  0  0  0  0
 41 44  1  0  0  0  0
 42 46  1  0  0  0  0
 43 48  1  0  0  0  0
 44 71  1  0  0  0  0
 45 48  1  0  0  0  0
 45 71  1  0  0  0  0
 46 74  1  0  0  0  0
 47 70  1  0  0  0  0
 48 69  1  0  0  0  0
 50 63  1  0  0  0  0
 51 64  1  0  0  0  0
 52 64  1  0  0  0  0
 53 64  1  0  0  0  0
 54 65  1  0  0  0  0
 55 65  1  0  0  0  0
 56 77  1  0  0  0  0
 57 78  1  0  0  0  0
 58 65  1  0  0  0  0
 59 60  1  0  0  0  0
 59 76  1  0  0  0  0
 60 77  1  0  0  0  0
 61 65  1  0  0  0  0
 61 85  1  0  0  0  0
 62 64  1  0  0  0  0
 62 75  1  0  0  0  0
 63 78  1  0  0  0  0
 67 69  1  0  0  0  0
M  CHG  1  78   1
M  ISO  4  36 100  61 101  76 100  85 101
M  END
> <Batch ID>
0078

> <Smiles>
CNC(C)C(=O)NC(C(=O)N1Cc2cc([101O:1][101CH2:1]C(C)(C)Cc3ncc(N(C)CC[100NH:0][100C:0](=O)N4CCCC(n5nc(-c6ccc(Oc7ccc(F)cc7F)cc6)c(C(N)=O)c5N)C4)nc3C)ccc2CC1C(=O)NC1CCCc2ccccc21)C(C)(C)C

> <Shape>
0.214

> <Color>
0.070

> <Negative vol penalty>
0.000

$$$$

  -OEChem-04052318393D

 83 91  0     1  0  0  0  0  0999 V2000
  -29.6754  -12.3309   19.9976 C   0  0  0  0  0  0  0  0  0  0  0  0
  -29.6127  -13.5501   20.6647 C   0  0  0  0  0  0  0  0  0  0  0  0
  -29.3316  -27.0264   20.0837 C   0  0  0  0  0  0  0  0  0  0  0  0
  -27.4133  -25.7323   19.3891 C   0  0  0  0  0  0  0  0  0  0  0  0
  -28.7272  -12.0210   19.0235 C   0  0  0  0  0  0  0  0  0  0  0  0
  -28.6023  -14.4606   20.3573 C   0  0  0  0  0  0  0  0  0  0  0  0
  -24.5056  -19.4904   23.3961 C   0  0  0  0  0  0  0  0  0  0  0  0
  -30.0862  -25.8572   20.1783 C   0  0  0  0  0  0  0  0  0  0  0  0
  -28.1679  -24.5630   19.4837 C   0  0  0  0  0  0  0  0  0  0  0  0
  -24.1307  -20.8223   23.2252 C   0  0  0  0  0  0  0  0  0  0  0  0
  -29.2491  -22.4862   21.9227 C   0  0  0  0  0  0  0  0  0  0  0  0
  -28.6646  -21.3868   22.5515 C   0  0  0  0  0  0  0  0  0  0  0  0
  -22.5006  -20.1461   21.5805 C   0  0  0  0  0  0  0  0  0  0  0  0
  -28.9016  -20.0994   20.5209 C   0  0  0  0  0  0  0  0  0  0  0  0
  -19.8824  -26.9924   21.1065 C   0  0  0  0  0  0  0  0  0  0  0  0
  -18.9666  -25.7585   22.6862 C   0  0  0  0  0  0  0  0  0  0  0  0
  -27.9951  -26.9640   19.6891 C   0  0  0  0  0  0  0  0  0  0  0  0
  -27.0658  -28.9984   18.4622 C   0  0  0  0  0  0  0  0  0  0  0  0
  -27.6990  -12.9241   18.7108 C   0  0  0  0  0  0  0  0  0  0  0  0
  -23.8873  -18.4758   22.6514 C   0  0  0  0  0  0  0  0  0  0  0  0
  -27.6403  -14.1631   19.3772 C   0  0  0  0  0  0  0  0  0  0  0  0
  -22.8677  -18.8019   21.7457 C   0  0  0  0  0  0  0  0  0  0  0  0
  -29.5044  -24.6255   19.8783 C   0  0  0  0  0  0  0  0  0  0  0  0
  -23.1301  -21.1507   22.3152 C   0  0  0  0  0  0  0  0  0  0  0  0
  -29.6597  -22.3922   20.5929 C   0  0  0  0  0  0  0  0  0  0  0  0
  -28.4909  -20.1934   21.8506 C   0  0  0  0  0  0  0  0  0  0  0  0
  -29.4860  -21.1988   19.8921 C   0  0  0  0  0  0  0  0  0  0  0  0
  -27.2150  -28.1715   19.5917 C   0  0  0  0  0  0  0  0  0  0  0  0
  -19.7134  -27.7074   22.2687 C   0  0  0  0  0  0  0  0  0  0  0  0
  -26.2327  -30.0063   18.8823 C   0  0  0  0  0  0  0  0  0  0  0  0
  -27.6298  -28.8671   17.1506 C   0  0  0  0  0  0  0  0  0  0  0  0
  -24.8788  -16.3355   20.5206 C   0  0  0  0  0  0  0  0  0  0  0  0
  -21.8316  -15.2516   20.7707 C   0  0  0  0  0  0  0  0  0  0  0  0
  -18.5763  -15.9132   21.5528 C   0  0  0  0  0  0  0  0  0  0  0  0
  -22.1055  -30.3490   23.2066 C   0  0  0  0  0  0  0  0  0  0  0  0
  -26.7247  -12.5646   17.6171 C   0  0  0  0  0  0  0  0  0  0  0  0
  -24.2846  -17.0411   22.8669 C   0  0  0  0  0  0  0  0  0  0  0  0
  -22.1587  -17.7478   20.9366 C   0  0  0  0  0  0  0  0  0  0  0  0
  -25.4655  -13.4275   17.6152 C   0  0  0  0  0  0  0  0  0  0  0  0
  -24.9692  -32.4273   22.8108 C   0  0  0  0  0  0  0  0  0  0  0  0
  -25.8286  -14.9021   17.7592 C   0  0  0  0  0  0  0  0  0  0  0  0
  -25.8560  -31.6469   21.8390 C   0  0  0  0  0  0  0  0  0  0  0  0
  -24.2271  -31.4977   23.7685 C   0  0  0  0  0  0  0  0  0  0  0  0
  -24.3359  -29.6480   22.1435 C   0  0  0  0  0  0  0  0  0  0  0  0
  -26.5447  -15.1666   19.0892 C   0  0  1  0  0  0  0  0  0  0  0  0
  -23.9449  -16.1426   21.6817 C   0  0  1  0  0  0  0  0  0  0  0  0
  -25.0617  -30.5392   21.1211 C   0  0  2  0  0  0  0  0  0  0  0  0
  -19.3301  -30.1127   21.6135 C   0  0  0  0  0  0  0  0  0  0  0  0
  -16.3094  -14.8390   21.6216 C   0  0  0  0  0  0  0  0  0  0  0  0
  -24.3232  -23.5684   20.7094 C   0  0  0  0  0  0  0  0  0  0  0  0
  -21.6338  -15.4803   17.7345 C   0  0  0  0  0  0  0  0  0  0  0  0
  -19.1447  -15.3261   17.9548 C   0  0  0  0  0  0  0  0  0  0  0  0
  -20.5808  -13.4262   18.6967 C   0  0  0  0  0  0  0  0  0  0  0  0
  -18.3356  -16.3380   24.4718 C   0  0  0  0  0  0  0  0  0  0  0  0
  -20.4288  -23.5177   20.7044 C   0  0  0  0  0  0  0  0  0  0  0  0
  -21.8525  -24.0807   20.5967 C   0  0  0  0  0  0  0  0  0  0  0  0
  -19.3471  -24.5725   20.4436 C   0  0  0  0  0  0  0  0  0  0  0  0
  -20.0626  -29.1116   22.5325 C   0  0  2  0  0  0  0  0  0  0  0  0
  -20.5297  -15.5501   20.0673 C   0  0  1  0  0  0  0  0  0  0  0  0
  -17.5721  -15.1595   22.4061 C   0  0  2  0  0  0  0  0  0  0  0  0
  -22.9152  -23.0031   20.8393 C   0  0  2  0  0  0  0  0  0  1  0  0
  -20.4867  -14.9660   18.6270 C   0  0  0  0  0  0  0  0  0  0  0  0
  -19.1431  -26.9335   23.2483 N   0  0  0  0  0  0  0  0  0  0  0  0
  -26.5315  -28.6156   20.6498 N   0  0  0  0  0  0  0  0  0  0  0  0
  -19.3998  -25.7457   21.3895 N   0  0  0  0  0  0  0  0  0  0  0  0
  -25.9449  -29.7327   20.1871 N   0  0  0  0  0  0  0  0  0  0  0  0
  -22.5871  -16.3602   21.1784 N   0  0  0  0  0  0  0  0  0  0  0  0
  -23.4929  -30.4715   23.0244 N   0  0  0  0  0  0  0  0  0  0  0  0
  -25.7255  -31.0912   18.2591 N   0  0  0  0  0  0  0  0  0  0  0  0
  -28.4644  -27.7720   16.8888 N   0  0  0  0  0  0  0  0  0  0  0  0
  -25.5918  -15.2026   20.1778 N   0  0  0  0  0  0  0  0  0  0  0  0
  -19.4709  -15.0594   20.9429 N   0  0  0  0  0  0  0  0  0  0  0  0
  -21.4859  -29.3555   22.4584 N   0  0  0  0  0  0  0  0  0  0  0  0
  -17.1923  -15.9707   23.5972 N   0  3  0  0  0  0  0  0  0  0  0  0
  -27.4137  -29.7053   16.2427 O   0  0  0  0  0  0  0  0  0  0  0  0
  -24.9463  -17.4307   19.9751 O   0  0  0  0  0  0  0  0  0  0  0  0
  -22.1626  -14.0782   20.9580 O   0  0  0  0  0  0  0  0  0  0  0  0
  -18.5657  -17.1366   21.4359 O   0  0  0  0  0  0  0  0  0  0  0  0
  -21.4655  -31.0751   23.9749 O   0  0  0  0  0  0  0  0  0  0  0  0
  -30.2405  -23.4843   19.9703 O   0  0  0  0  0  0  0  0  0  0  0  0
  -22.7627  -22.4500   22.1459 O   0  0  0  0  0  0  0  0  0  1  0  0
  -27.9311  -19.1373   22.4551 F   0  0  0  0  0  0  0  0  0  0  0  0
  -29.8796  -21.1021   18.6147 F   0  0  0  0  0  0  0  0  0  0  0  0
  1  2  1  0  0  0  0
  1  5  2  0  0  0  0
  2  6  2  0  0  0  0
  3  8  2  0  0  0  0
  3 17  1  0  0  0  0
  4  9  1  0  0  0  0
  4 17  2  0  0  0  0
  5 19  1  0  0  0  0
  6 21  1  0  0  0  0
  7 10  2  0  0  0  0
  7 20  1  0  0  0  0
  8 23  1  0  0  0  0
  9 23  2  0  0  0  0
 10 24  1  0  0  0  0
 11 12  2  0  0  0  0
 11 25  1  0  0  0  0
 12 26  1  0  0  0  0
 13 22  1  0  0  0  0
 13 24  2  0  0  0  0
 14 26  2  0  0  0  0
 14 27  1  0  0  0  0
 15 29  2  0  0  0  0
 15 65  1  0  0  0  0
 16 63  2  0  0  0  0
 16 65  1  0  0  0  0
 17 28  1  0  0  0  0
 18 28  1  0  0  0  0
 18 30  2  0  0  0  0
 18 31  1  0  0  0  0
 19 21  2  0  0  0  0
 19 36  1  0  0  0  0
 20 22  2  0  0  0  0
 20 37  1  0  0  0  0
 21 45  1  0  0  0  0
 22 38  1  0  0  0  0
 23 80  1  0  0  0  0
 24 81  1  0  0  0  0
 25 27  2  0  0  0  0
 25 80  1  0  0  0  0
 26 82  1  0  0  0  0
 27 83  1  0  0  0  0
 28 64  2  0  0  0  0
 29 58  1  0  0  0  0
 29 63  1  0  0  0  0
 30 66  1  0  0  0  0
 30 69  1  0  0  0  0
 31 70  1  0  0  0  0
 31 75  2  0  0  0  0
 32 46  1  0  0  0  0
 32 71  1  0  0  0  0
 32 76  2  0  0  0  0
 33 59  1  0  0  0  0
 33 67  1  0  0  0  0
 33 77  2  0  0  0  0
 34 60  1  0  0  0  0
 34 72  1  0  0  0  0
 34 78  2  0  0  0  0
 35 68  1  0  0  0  0
 35 73  1  0  0  0  0
 35 79  2  0  0  0  0
 36 39  1  0  0  0  0
 37 46  1  0  0  0  0
 38 67  1  0  0  0  0
 39 41  1  0  0  0  0
 40 42  1  0  0  0  0
 40 43  1  0  0  0  0
 41 45  1  0  0  0  0
 42 47  1  0  0  0  0
 43 68  1  0  0  0  0
 44 47  1  0  0  0  0
 44 68  1  0  0  0  0
 45 71  1  0  0  0  0
 46 67  1  0  0  0  0
 47 66  1  0  0  0  0
 48 58  1  0  0  0  0
 49 60  1  0  0  0  0
 50 61  1  0  0  0  0
 51 62  1  0  0  0  0
 52 62  1  0  0  0  0
 53 62  1  0  0  0  0
 54 74  1  0  0  0  0
 55 56  1  0  0  0  0
 55 57  1  0  0  0  0
 56 61  1  0  0  0  0
 57 65  1  0  0  0  0
 58 73  1  0  0  0  0
 59 62  1  0  0  0  0
 59 72  1  0  0  0  0
 60 74  1  0  0  0  0
 61 81  1  0  0  0  0
 64 66  1  0  0  0  0
M  CHG  1  74   1
M  ISO  4  35 100  61 101  73 100  81 101
M  END
> <Batch ID>
0078

> <Smiles>
CNC(C)C(=O)NC(C(=O)N1Cc2cc([101O:1][101CH:1](C)CCCn3cnc(C(C)[100NH:0][100C:0](=O)N4CCCC(n5nc(-c6ccc(Oc7ccc(F)cc7F)cc6)c(C(N)=O)c5N)C4)c3)ccc2CC1C(=O)NC1CCCc2ccccc21)C(C)(C)C

> <Shape>
0.226

> <Color>
0.076

> <Negative vol penalty>
0.000

$$$$

  -OEChem-04052318393D

 87 95  0     1  0  0  0  0  0999 V2000
  -28.5161  -30.7652   27.2388 C   0  0  0  0  0  0  0  0  0  0  0  0
  -28.9568  -29.7568   26.3877 C   0  0  0  0  0  0  0  0  0  0  0  0
  -22.2570  -10.2900   21.6223 C   0  0  0  0  0  0  0  0  0  0  0  0
  -23.7774   -9.6112   19.8717 C   0  0  0  0  0  0  0  0  0  0  0  0
  -27.1637  -31.1020   27.2772 C   0  0  0  0  0  0  0  0  0  0  0  0
  -28.0450  -29.0838   25.5752 C   0  0  0  0  0  0  0  0  0  0  0  0
  -29.0381  -26.9249   19.9309 C   0  0  0  0  0  0  0  0  0  0  0  0
  -21.8464   -8.9662   21.7790 C   0  0  0  0  0  0  0  0  0  0  0  0
  -23.3669   -8.2873   20.0284 C   0  0  0  0  0  0  0  0  0  0  0  0
  -29.3508  -25.6523   19.4549 C   0  0  0  0  0  0  0  0  0  0  0  0
  -23.0079   -6.1565   23.2588 C   0  0  0  0  0  0  0  0  0  0  0  0
  -22.8976   -5.6615   24.5582 C   0  0  0  0  0  0  0  0  0  0  0  0
  -27.0155  -25.2553   18.9993 C   0  0  0  0  0  0  0  0  0  0  0  0
  -25.2011  -18.8568   22.2485 C   0  0  0  0  0  0  0  0  0  0  0  0
  -20.5516   -5.2171   24.1899 C   0  0  0  0  0  0  0  0  0  0  0  0
  -23.2225  -10.6125   20.6686 C   0  0  0  0  0  0  0  0  0  0  0  0
  -24.7039  -12.6271   21.1729 C   0  0  0  0  0  0  0  0  0  0  0  0
  -26.2363  -30.4393   26.4577 C   0  0  0  0  0  0  0  0  0  0  0  0
  -27.7081  -27.3688   19.9548 C   0  0  0  0  0  0  0  0  0  0  0  0
  -26.6787  -29.4111   25.6036 C   0  0  0  0  0  0  0  0  0  0  0  0
  -26.6887  -26.5349   19.4737 C   0  0  0  0  0  0  0  0  0  0  0  0
  -26.5710  -19.1530   22.0414 C   0  0  0  0  0  0  0  0  0  0  0  0
  -22.4014   -7.9649   20.9821 C   0  0  0  0  0  0  0  0  0  0  0  0
  -28.3392  -24.8162   18.9917 C   0  0  0  0  0  0  0  0  0  0  0  0
  -21.8899   -6.1819   22.4250 C   0  0  0  0  0  0  0  0  0  0  0  0
  -21.6695   -5.1918   25.0237 C   0  0  0  0  0  0  0  0  0  0  0  0
  -20.6618   -5.7122   22.8905 C   0  0  0  0  0  0  0  0  0  0  0  0
  -23.6466  -11.9799   20.5058 C   0  0  0  0  0  0  0  0  0  0  0  0
  -24.6141  -18.7367   21.0082 C   0  0  0  0  0  0  0  0  0  0  0  0
  -26.7793  -19.2051   20.6808 C   0  0  0  0  0  0  0  0  0  0  0  0
  -24.6963  -13.9050   20.6696 C   0  0  0  0  0  0  0  0  0  0  0  0
  -25.6118  -12.1186   22.1592 C   0  0  0  0  0  0  0  0  0  0  0  0
  -25.6829  -28.2640   22.2353 C   0  0  0  0  0  0  0  0  0  0  0  0
  -23.7832  -29.0104   19.7141 C   0  0  0  0  0  0  0  0  0  0  0  0
  -22.9806  -28.4922   16.4378 C   0  0  0  0  0  0  0  0  0  0  0  0
  -24.4343  -17.0835   15.9637 C   0  0  0  0  0  0  0  0  0  0  0  0
  -24.7776  -30.8059   26.5685 C   0  0  0  0  0  0  0  0  0  0  0  0
  -27.3903  -28.7544   20.4464 C   0  0  0  0  0  0  0  0  0  0  0  0
  -25.2474  -26.9717   19.4592 C   0  0  0  0  0  0  0  0  0  0  0  0
  -23.9322  -30.3004   25.4023 C   0  0  0  0  0  0  0  0  0  0  0  0
  -21.3124  -16.3109   17.7963 C   0  0  0  0  0  0  0  0  0  0  0  0
  -24.2563  -28.8405   25.1014 C   0  0  0  0  0  0  0  0  0  0  0  0
  -21.7210  -15.1215   18.6637 C   0  0  0  0  0  0  0  0  0  0  0  0
  -22.1317  -16.3838   16.5114 C   0  0  0  0  0  0  0  0  0  0  0  0
  -24.0116  -15.2048   17.6023 C   0  0  0  0  0  0  0  0  0  0  0  0
  -25.7239  -28.6749   24.6889 C   0  0  1  0  0  0  0  0  0  0  0  0
  -25.9430  -28.9089   20.9034 C   0  0  1  0  0  0  0  0  0  0  0  0
  -23.2370  -15.1293   18.9266 C   0  0  2  0  0  0  0  0  0  0  0  0
  -27.5828  -19.3648   23.0956 C   0  0  0  0  0  0  0  0  0  0  0  0
  -23.2129  -18.4359   20.6494 C   0  0  0  0  0  0  0  0  0  0  0  0
  -21.3571  -29.2207   14.6684 C   0  0  0  0  0  0  0  0  0  0  0  0
  -21.6147  -27.2912   20.9994 C   0  0  0  0  0  0  0  0  0  0  0  0
  -20.4192  -27.2778   18.7997 C   0  0  0  0  0  0  0  0  0  0  0  0
  -20.7935  -29.4319   20.0007 C   0  0  0  0  0  0  0  0  0  0  0  0
  -29.4730  -20.9304   17.5919 C   0  0  0  0  0  0  0  0  0  0  0  0
  -30.9043  -20.7658   19.6442 C   0  0  0  0  0  0  0  0  0  0  0  0
  -26.5327  -18.3589   15.7405 C   0  0  0  0  0  0  0  0  0  0  0  0
  -25.1477  -29.5445   14.7187 C   0  0  0  0  0  0  0  0  0  0  0  0
  -28.0416  -19.4812   19.8999 C   0  0  0  0  0  0  0  0  0  0  0  0
  -28.3737  -20.9798   19.8859 C   0  0  0  0  0  0  0  0  0  0  0  0
  -25.3736  -18.9135   18.6306 C   0  0  0  0  0  0  0  0  0  0  0  0
  -25.8525  -17.6128   17.9913 C   0  0  0  0  0  0  0  0  0  0  0  0
  -29.7789  -22.9262   19.0966 C   0  0  0  0  0  0  0  0  0  1  0  0
  -22.7503  -28.2714   18.8980 C   0  0  1  0  0  0  0  0  0  0  0  0
  -22.7197  -29.4616   15.2991 C   0  0  2  0  0  0  0  0  0  0  0  0
  -21.4213  -28.0588   19.6764 C   0  0  0  0  0  0  0  0  0  0  0  0
  -29.6247  -21.3859   19.0553 C   0  0  0  0  0  0  0  0  0  0  0  0
  -23.0133  -12.7806   19.6446 N   0  0  0  0  0  0  0  0  0  0  0  0
  -25.5829  -18.9508   20.0628 N   0  0  0  0  0  0  0  0  0  0  0  0
  -23.6745  -13.9442   19.7671 N   0  0  0  0  0  0  0  0  0  0  0  0
  -24.9866  -28.3329   19.9559 N   0  0  0  0  0  0  0  0  0  0  0  0
  -23.5682  -16.3460   16.7875 N   0  0  0  0  0  0  0  0  0  0  0  0
  -25.4640  -14.9879   20.9155 N   0  0  0  0  0  0  0  0  0  0  0  0
  -25.4798  -10.7831   22.5634 N   0  0  0  0  0  0  0  0  0  0  0  0
  -25.9134  -29.0931   23.3165 N   0  0  0  0  0  0  0  0  0  0  0  0
  -22.6014  -29.0192   17.6543 N   0  0  0  0  0  0  0  0  0  0  0  0
  -25.6086  -17.5785   16.5509 N   0  0  0  0  0  0  0  0  0  0  0  0
  -23.7599  -29.3115   14.2425 N   0  3  0  0  0  0  0  0  0  0  0  0
  -26.5030  -12.8321   22.6791 O   0  0  0  0  0  0  0  0  0  0  0  0
  -25.2998  -27.1008   22.2788 O   0  0  0  0  0  0  0  0  0  0  0  0
  -23.5343  -30.1498   20.1160 O   0  0  0  0  0  0  0  0  0  0  0  0
  -23.4683  -27.3774   16.2650 O   0  0  0  0  0  0  0  0  0  0  0  0
  -24.1683  -17.2961   14.7738 O   0  0  0  0  0  0  0  0  0  0  0  0
  -22.0011   -6.6729   21.1349 O   0  0  0  0  0  0  0  0  0  0  0  0
  -28.6416  -23.5734   18.5272 O   0  0  0  0  0  0  0  0  0  1  0  0
  -21.5642   -4.7150   26.2710 F   0  0  0  0  0  0  0  0  0  0  0  0
  -19.5845   -5.7330   22.0937 F   0  0  0  0  0  0  0  0  0  0  0  0
  1  2  1  0  0  0  0
  1  5  2  0  0  0  0
  2  6  2  0  0  0  0
  3  8  2  0  0  0  0
  3 16  1  0  0  0  0
  4  9  1  0  0  0  0
  4 16  2  0  0  0  0
  5 18  1  0  0  0  0
  6 20  1  0  0  0  0
  7 10  2  0  0  0  0
  7 19  1  0  0  0  0
  8 23  1  0  0  0  0
  9 23  2  0  0  0  0
 10 24  1  0  0  0  0
 11 12  2  0  0  0  0
 11 25  1  0  0  0  0
 12 26  1  0  0  0  0
 13 21  1  0  0  0  0
 13 24  2  0  0  0  0
 14 22  1  0  0  0  0
 14 29  2  0  0  0  0
 15 26  2  0  0  0  0
 15 27  1  0  0  0  0
 16 28  1  0  0  0  0
 17 28  1  0  0  0  0
 17 31  2  0  0  0  0
 17 32  1  0  0  0  0
 18 20  2  0  0  0  0
 18 37  1  0  0  0  0
 19 21  2  0  0  0  0
 19 38  1  0  0  0  0
 20 46  1  0  0  0  0
 21 39  1  0  0  0  0
 22 30  2  0  0  0  0
 22 49  1  0  0  0  0
 23 84  1  0  0  0  0
 24 85  1  0  0  0  0
 25 27  2  0  0  0  0
 25 84  1  0  0  0  0
 26 86  1  0  0  0  0
 27 87  1  0  0  0  0
 28 68  2  0  0  0  0
 29 50  1  0  0  0  0
 29 69  1  0  0  0  0
 30 59  1  0  0  0  0
 30 69  1  0  0  0  0
 31 70  1  0  0  0  0
 31 73  1  0  0  0  0
 32 74  1  0  0  0  0
 32 79  2  0  0  0  0
 33 47  1  0  0  0  0
 33 75  1  0  0  0  0
 33 80  2  0  0  0  0
 34 64  1  0  0  0  0
 34 71  1  0  0  0  0
 34 81  2  0  0  0  0
 35 65  1  0  0  0  0
 35 76  1  0  0  0  0
 35 82  2  0  0  0  0
 36 72  1  0  0  0  0
 36 77  1  0  0  0  0
 36 83  2  0  0  0  0
 37 40  1  0  0  0  0
 38 47  1  0  0  0  0
 39 71  1  0  0  0  0
 40 42  1  0  0  0  0
 41 43  1  0  0  0  0
 41 44  1  0  0  0  0
 42 46  1  0  0  0  0
 43 48  1  0  0  0  0
 44 72  1  0  0  0  0
 45 48  1  0  0  0  0
 45 72  1  0  0  0  0
 46 75  1  0  0  0  0
 47 71  1  0  0  0  0
 48 70  1  0  0  0  0
 51 65  1  0  0  0  0
 52 66  1  0  0  0  0
 53 66  1  0  0  0  0
 54 66  1  0  0  0  0
 55 67  1  0  0  0  0
 56 67  1  0  0  0  0
 57 77  1  0  0  0  0
 58 78  1  0  0  0  0
 59 60  1  0  0  0  0
 60 67  1  0  0  0  0
 61 62  1  0  0  0  0
 61 69  1  0  0  0  0
 62 77  1  0  0  0  0
 63 67  1  0  0  0  0
 63 85  1  0  0  0  0
 64 66  1  0  0  0  0
 64 76  1  0  0  0  0
 65 78  1  0  0  0  0
 68 70  1  0  0  0  0
M  CHG  1  78   1
M  ISO  4  36 100  63 101  77 100  85 101
M  END
> <Batch ID>
0078

> <Smiles>
CNC(C)C(=O)NC(C(=O)N1Cc2cc([101O:1][101CH2:1]C(C)(C)CCc3c(C)cc(C)n3CC[100N:0](C)[100C:0](=O)N3CCCC(n4nc(-c5ccc(Oc6ccc(F)cc6F)cc5)c(C(N)=O)c4N)C3)ccc2CC1C(=O)NC1CCCc2ccccc21)C(C)(C)C

> <Shape>
0.227

> <Color>
0.108

> <Negative vol penalty>
0.000

$$$$

  -OEChem-04052318393D

 85 93  0     1  0  0  0  0  0999 V2000
  -22.6679   -8.0098   20.6772 C   0  0  0  0  0  0  0  0  0  0  0  0
  -22.2516   -9.2100   20.1102 C   0  0  0  0  0  0  0  0  0  0  0  0
  -28.9025  -26.1960   20.4452 C   0  0  0  0  0  0  0  0  0  0  0  0
  -27.1246  -26.0516   18.8157 C   0  0  0  0  0  0  0  0  0  0  0  0
  -23.4134   -8.0182   21.8554 C   0  0  0  0  0  0  0  0  0  0  0  0
  -22.5798  -10.4195   20.7218 C   0  0  0  0  0  0  0  0  0  0  0  0
  -23.8481  -15.7262   17.9404 C   0  0  0  0  0  0  0  0  0  0  0  0
  -19.0610  -26.6090   20.0794 C   0  0  0  0  0  0  0  0  0  0  0  0
  -29.4365  -24.9989   19.9686 C   0  0  0  0  0  0  0  0  0  0  0  0
  -27.6587  -24.8545   18.3390 C   0  0  0  0  0  0  0  0  0  0  0  0
  -23.0760  -16.8581   17.6826 C   0  0  0  0  0  0  0  0  0  0  0  0
  -28.3495  -21.5760   16.9304 C   0  0  0  0  0  0  0  0  0  0  0  0
  -27.4672  -20.5229   16.6895 C   0  0  0  0  0  0  0  0  0  0  0  0
  -19.5295  -25.5418   19.3212 C   0  0  0  0  0  0  0  0  0  0  0  0
  -23.9516  -17.9014   19.6736 C   0  0  0  0  0  0  0  0  0  0  0  0
  -26.8055  -20.5458   19.0130 C   0  0  0  0  0  0  0  0  0  0  0  0
  -27.7464  -26.7224   19.8688 C   0  0  0  0  0  0  0  0  0  0  0  0
  -27.4945  -29.2605   19.9175 C   0  0  0  0  0  0  0  0  0  0  0  0
  -23.7591   -9.2287   22.4764 C   0  0  0  0  0  0  0  0  0  0  0  0
  -24.6709  -15.6690   19.0745 C   0  0  0  0  0  0  0  0  0  0  0  0
  -23.3295  -10.4441   21.9101 C   0  0  0  0  0  0  0  0  0  0  0  0
  -24.7351  -16.7687   19.9421 C   0  0  0  0  0  0  0  0  0  0  0  0
  -19.3868  -26.6920   21.4286 C   0  0  0  0  0  0  0  0  0  0  0  0
  -28.8147  -24.3281   18.9155 C   0  0  0  0  0  0  0  0  0  0  0  0
  -23.1255  -17.9448   18.5508 C   0  0  0  0  0  0  0  0  0  0  0  0
  -28.4599  -22.1140   18.2126 C   0  0  0  0  0  0  0  0  0  0  0  0
  -26.6952  -20.0078   17.7308 C   0  0  0  0  0  0  0  0  0  0  0  0
  -27.6879  -21.5989   19.2539 C   0  0  0  0  0  0  0  0  0  0  0  0
  -27.1939  -27.9587   20.3611 C   0  0  0  0  0  0  0  0  0  0  0  0
  -20.1778  -25.6902   21.9676 C   0  0  0  0  0  0  0  0  0  0  0  0
  -20.3143  -24.5916   19.9545 C   0  0  0  0  0  0  0  0  0  0  0  0
  -26.7128  -30.0779   20.6967 C   0  0  0  0  0  0  0  0  0  0  0  0
  -28.3995  -29.6922   18.8926 C   0  0  0  0  0  0  0  0  0  0  0  0
  -24.8034  -13.8230   21.6588 C   0  0  0  0  0  0  0  0  0  0  0  0
  -27.5166  -15.5026   22.2418 C   0  0  0  0  0  0  0  0  0  0  0  0
  -29.3191  -18.3580   21.7473 C   0  0  0  0  0  0  0  0  0  0  0  0
  -21.5718  -29.2068   23.6398 C   0  0  0  0  0  0  0  0  0  0  0  0
  -24.5261   -9.1857   23.7743 C   0  0  0  0  0  0  0  0  0  0  0  0
  -25.5178  -14.4513   19.3241 C   0  0  0  0  0  0  0  0  0  0  0  0
  -25.6176  -16.7653   21.1626 C   0  0  0  0  0  0  0  0  0  0  0  0
  -25.1515  -10.5246   24.1569 C   0  0  0  0  0  0  0  0  0  0  0  0
  -24.6690  -30.2964   25.0171 C   0  0  0  0  0  0  0  0  0  0  0  0
  -24.1395  -11.6536   23.9901 C   0  0  0  0  0  0  0  0  0  0  0  0
  -25.6944  -29.9383   23.9400 C   0  0  0  0  0  0  0  0  0  0  0  0
  -23.5624  -29.2484   25.1136 C   0  0  0  0  0  0  0  0  0  0  0  0
  -23.9060  -28.5906   22.7634 C   0  0  0  0  0  0  0  0  0  0  0  0
  -23.6867  -11.7774   22.5303 C   0  0  1  0  0  0  0  0  0  0  0  0
  -25.9294  -14.2990   20.7852 C   0  0  1  0  0  0  0  0  0  0  0  0
  -25.0113  -29.6464   22.5904 C   0  0  2  0  0  0  0  0  0  0  0  0
  -21.6716  -24.7369   23.7414 C   0  0  0  0  0  0  0  0  0  0  0  0
  -31.4839  -19.4561   22.3838 C   0  0  0  0  0  0  0  0  0  0  0  0
  -26.3769  -16.1462   24.9980 C   0  0  0  0  0  0  0  0  0  0  0  0
  -28.0837  -17.9665   25.2019 C   0  0  0  0  0  0  0  0  0  0  0  0
  -28.8156  -15.5920   24.9810 C   0  0  0  0  0  0  0  0  0  0  0  0
  -30.2232  -18.4720   18.9315 C   0  0  0  0  0  0  0  0  0  0  0  0
  -18.8875  -27.8328   22.2458 C   0  0  0  0  0  0  0  0  0  0  0  0
  -20.5590  -25.7271   23.4114 C   0  0  0  0  0  0  0  0  0  0  0  0
  -21.5792  -21.2686   18.7603 C   0  0  0  0  0  0  0  0  0  0  0  0
  -19.6773  -29.1316   22.0384 C   0  0  0  0  0  0  0  0  0  0  0  0
  -21.5994  -22.4681   19.7000 C   0  0  0  0  0  0  0  0  0  0  0  0
  -22.4718  -20.1272   19.2331 C   0  0  0  0  0  0  0  0  0  1  0  0
  -27.8458  -16.7821   22.9722 C   0  0  1  0  0  0  0  0  0  0  0  0
  -30.7718  -18.5788   21.3660 C   0  0  2  0  0  0  0  0  0  0  0  0
  -27.7623  -16.6213   24.5164 C   0  0  0  0  0  0  0  0  0  0  0  0
  -26.2917  -27.9451   21.3459 N   0  0  0  0  0  0  0  0  0  0  0  0
  -20.6516  -24.6384   21.2628 N   0  0  0  0  0  0  0  0  0  0  0  0
  -26.0187  -29.2484   21.5276 N   0  0  0  0  0  0  0  0  0  0  0  0
  -26.4220  -15.5493   21.3669 N   0  0  0  0  0  0  0  0  0  0  0  0
  -22.9545  -29.0193   23.8006 N   0  0  0  0  0  0  0  0  0  0  0  0
  -26.5584  -31.4181   20.7454 N   0  0  0  0  0  0  0  0  0  0  0  0
  -29.1244  -28.7208   18.1888 N   0  0  0  0  0  0  0  0  0  0  0  0
  -20.7741  -23.5340   19.1854 N   0  0  0  0  0  0  0  0  0  0  0  0
  -24.6988  -12.4477   21.7423 N   0  0  0  0  0  0  0  0  0  0  0  0
  -29.1544  -17.2050   22.4853 N   0  0  0  0  0  0  0  0  0  0  0  0
  -21.0778  -28.9745   22.3620 N   0  0  0  0  0  0  0  0  0  0  0  0
  -30.8628  -19.2377   20.0323 N   0  3  0  0  0  0  0  0  0  0  0  0
  -28.5727  -30.9044   18.6204 O   0  0  0  0  0  0  0  0  0  0  0  0
  -24.0837  -14.6429   22.2170 O   0  0  0  0  0  0  0  0  0  0  0  0
  -28.2097  -14.5006   22.4349 O   0  0  0  0  0  0  0  0  0  0  0  0
  -28.4209  -19.1329   21.4260 O   0  0  0  0  0  0  0  0  0  0  0  0
  -20.8331  -29.5607   24.5651 O   0  0  0  0  0  0  0  0  0  0  0  0
  -29.3357  -23.1600   18.4500 O   0  0  0  0  0  0  0  0  0  0  0  0
  -22.3724  -19.0506   18.3018 O   0  0  0  0  0  0  0  0  0  1  0  0
  -25.8468  -18.9975   17.4990 F   0  0  0  0  0  0  0  0  0  0  0  0
  -27.7887  -22.1124   20.4876 F   0  0  0  0  0  0  0  0  0  0  0  0
  1  2  1  0  0  0  0
  1  5  2  0  0  0  0
  2  6  2  0  0  0  0
  3  9  2  0  0  0  0
  3 17  1  0  0  0  0
  4 10  1  0  0  0  0
  4 17  2  0  0  0  0
  5 19  1  0  0  0  0
  6 21  1  0  0  0  0
  7 11  2  0  0  0  0
  7 20  1  0  0  0  0
  8 14  2  0  0  0  0
  8 23  1  0  0  0  0
  9 24  1  0  0  0  0
 10 24  2  0  0  0  0
 11 25  1  0  0  0  0
 12 13  2  0  0  0  0
 12 26  1  0  0  0  0
 13 27  1  0  0  0  0
 14 31  1  0  0  0  0
 15 22  1  0  0  0  0
 15 25  2  0  0  0  0
 16 27  2  0  0  0  0
 16 28  1  0  0  0  0
 17 29  1  0  0  0  0
 18 29  1  0  0  0  0
 18 32  2  0  0  0  0
 18 33  1  0  0  0  0
 19 21  2  0  0  0  0
 19 38  1  0  0  0  0
 20 22  2  0  0  0  0
 20 39  1  0  0  0  0
 21 47  1  0  0  0  0
 22 40  1  0  0  0  0
 23 30  2  0  0  0  0
 23 56  1  0  0  0  0
 24 82  1  0  0  0  0
 25 83  1  0  0  0  0
 26 28  2  0  0  0  0
 26 82  1  0  0  0  0
 27 84  1  0  0  0  0
 28 85  1  0  0  0  0
 29 65  2  0  0  0  0
 30 57  1  0  0  0  0
 30 66  1  0  0  0  0
 31 66  2  0  0  0  0
 31 72  1  0  0  0  0
 32 67  1  0  0  0  0
 32 70  1  0  0  0  0
 33 71  1  0  0  0  0
 33 77  2  0  0  0  0
 34 48  1  0  0  0  0
 34 73  1  0  0  0  0
 34 78  2  0  0  0  0
 35 62  1  0  0  0  0
 35 68  1  0  0  0  0
 35 79  2  0  0  0  0
 36 63  1  0  0  0  0
 36 74  1  0  0  0  0
 36 80  2  0  0  0  0
 37 69  1  0  0  0  0
 37 75  1  0  0  0  0
 37 81  2  0  0  0  0
 38 41  1  0  0  0  0
 39 48  1  0  0  0  0
 40 68  1  0  0  0  0
 41 43  1  0  0  0  0
 42 44  1  0  0  0  0
 42 45  1  0  0  0  0
 43 47  1  0  0  0  0
 44 49  1  0  0  0  0
 45 69  1  0  0  0  0
 46 49  1  0  0  0  0
 46 69  1  0  0  0  0
 47 73  1  0  0  0  0
 48 68  1  0  0  0  0
 49 67  1  0  0  0  0
 50 57  1  0  0  0  0
 51 63  1  0  0  0  0
 52 64  1  0  0  0  0
 53 64  1  0  0  0  0
 54 64  1  0  0  0  0
 55 76  1  0  0  0  0
 56 59  1  0  0  0  0
 58 60  1  0  0  0  0
 58 61  1  0  0  0  0
 59 75  1  0  0  0  0
 60 72  1  0  0  0  0
 61 83  1  0  0  0  0
 62 64  1  0  0  0  0
 62 74  1  0  0  0  0
 63 76  1  0  0  0  0
 65 67  1  0  0  0  0
M  CHG  1  76   1
M  ISO  4  37 100  61 101  75 100  83 101
M  END
> <Batch ID>
0078

> <Smiles>
CCc1nc(NCC[101CH2:1][101O:1]c2ccc3c(c2)CN(C(=O)C(NC(=O)C(C)NC)C(C)(C)C)C(C(=O)NC2CCCc4ccccc42)C3)ccc1CC[100NH:0][100C:0](=O)N1CCCC(n2nc(-c3ccc(Oc4ccc(F)cc4F)cc3)c(C(N)=O)c2N)C1

> <Shape>
0.237

> <Color>
0.051

> <Negative vol penalty>
0.000

$$$$

  -OEChem-04052318393D

 82 90  0     1  0  0  0  0  0999 V2000
  -30.8380  -26.0812   17.3108 C   0  0  0  0  0  0  0  0  0  0  0  0
  -29.4892  -25.8496   17.5608 C   0  0  0  0  0  0  0  0  0  0  0  0
  -27.2565  -14.4017   19.3552 C   0  0  0  0  0  0  0  0  0  0  0  0
  -27.2121  -14.9935   21.6972 C   0  0  0  0  0  0  0  0  0  0  0  0
  -31.6117  -26.7660   18.2469 C   0  0  0  0  0  0  0  0  0  0  0  0
  -28.9136  -26.3017   18.7477 C   0  0  0  0  0  0  0  0  0  0  0  0
  -23.2004  -28.3699   19.5146 C   0  0  0  0  0  0  0  0  0  0  0  0
  -28.3173  -13.5286   19.5959 C   0  0  0  0  0  0  0  0  0  0  0  0
  -28.2729  -14.1202   21.9380 C   0  0  0  0  0  0  0  0  0  0  0  0
  -22.0389  -27.7626   19.9898 C   0  0  0  0  0  0  0  0  0  0  0  0
  -28.7479  -10.4189   20.8520 C   0  0  0  0  0  0  0  0  0  0  0  0
  -28.6890   -9.1519   20.2716 C   0  0  0  0  0  0  0  0  0  0  0  0
  -22.4681  -28.6713   22.1828 C   0  0  0  0  0  0  0  0  0  0  0  0
  -30.7401   -9.6036   19.0774 C   0  0  0  0  0  0  0  0  0  0  0  0
  -21.1835  -23.8731   22.6119 C   0  0  0  0  0  0  0  0  0  0  0  0
  -26.7040  -15.1343   20.4059 C   0  0  0  0  0  0  0  0  0  0  0  0
  -24.2336  -15.7389   20.2072 C   0  0  0  0  0  0  0  0  0  0  0  0
  -31.0431  -27.2351   19.4415 C   0  0  0  0  0  0  0  0  0  0  0  0
  -24.0117  -29.1247   20.3740 C   0  0  0  0  0  0  0  0  0  0  0  0
  -29.6808  -26.9922   19.7013 C   0  0  0  0  0  0  0  0  0  0  0  0
  -23.6380  -29.2893   21.7155 C   0  0  0  0  0  0  0  0  0  0  0  0
  -19.9859  -24.5433   22.5559 C   0  0  0  0  0  0  0  0  0  0  0  0
  -28.8254  -13.3878   20.8873 C   0  0  0  0  0  0  0  0  0  0  0  0
  -21.6741  -27.9108   21.3247 C   0  0  0  0  0  0  0  0  0  0  0  0
  -29.8029  -11.2783   20.5450 C   0  0  0  0  0  0  0  0  0  0  0  0
  -29.6851   -8.7442   19.3844 C   0  0  0  0  0  0  0  0  0  0  0  0
  -30.7990  -10.8707   19.6577 C   0  0  0  0  0  0  0  0  0  0  0  0
  -25.6086  -16.0369   20.1578 C   0  0  0  0  0  0  0  0  0  0  0  0
  -19.2378  -23.8469   21.5878 C   0  0  0  0  0  0  0  0  0  0  0  0
  -23.6139  -16.9246   19.8967 C   0  0  0  0  0  0  0  0  0  0  0  0
  -23.5754  -14.5009   20.5071 C   0  0  0  0  0  0  0  0  0  0  0  0
  -27.0110  -28.8983   21.4018 C   0  0  0  0  0  0  0  0  0  0  0  0
  -23.1947  -22.4633   20.5576 C   0  0  0  0  0  0  0  0  0  0  0  0
  -26.3547  -31.7749   22.7499 C   0  0  0  0  0  0  0  0  0  0  0  0
  -24.0085  -33.9505   23.9366 C   0  0  0  0  0  0  0  0  0  0  0  0
  -31.9305  -27.9289   20.4444 C   0  0  0  0  0  0  0  0  0  0  0  0
  -25.2473  -29.7956   19.8397 C   0  0  0  0  0  0  0  0  0  0  0  0
  -24.4638  -30.1063   22.6741 C   0  0  0  0  0  0  0  0  0  0  0  0
  -31.1573  -28.7028   21.5091 C   0  0  0  0  0  0  0  0  0  0  0  0
  -25.4847  -21.2509   18.0826 C   0  0  0  0  0  0  0  0  0  0  0  0
  -30.0192  -27.8532   22.0656 C   0  0  0  0  0  0  0  0  0  0  0  0
  -25.6314  -19.7688   18.4245 C   0  0  0  0  0  0  0  0  0  0  0  0
  -25.3152  -22.0997   19.3387 C   0  0  0  0  0  0  0  0  0  0  0  0
  -24.3291  -20.1864   20.5587 C   0  0  0  0  0  0  0  0  0  0  0  0
  -29.0144  -27.4886   20.9661 C   0  0  1  0  0  0  0  0  0  0  0  0
  -26.2703  -30.1157   20.9252 C   0  0  1  0  0  0  0  0  0  0  0  0
  -24.4720  -19.2899   19.3161 C   0  0  2  0  0  0  0  0  0  0  0  0
  -23.7788  -36.2065   25.0113 C   0  0  0  0  0  0  0  0  0  0  0  0
  -17.7551  -25.5673   20.4980 C   0  0  0  0  0  0  0  0  0  0  0  0
  -16.8298  -24.0667   22.2947 C   0  0  0  0  0  0  0  0  0  0  0  0
  -17.2963  -23.1702   20.0231 C   0  0  0  0  0  0  0  0  0  0  0  0
  -27.2835  -30.6003   25.4084 C   0  0  0  0  0  0  0  0  0  0  0  0
  -26.1618  -32.5155   26.5668 C   0  0  0  0  0  0  0  0  0  0  0  0
  -28.0404  -32.9456   24.9829 C   0  0  0  0  0  0  0  0  0  0  0  0
  -22.4048  -34.9919   21.6777 C   0  0  0  0  0  0  0  0  0  0  0  0
  -19.5765  -25.7545   23.3582 C   0  0  0  0  0  0  0  0  0  0  0  0
  -22.0987  -21.8742   21.4095 C   0  0  0  0  0  0  0  0  0  0  0  0
  -20.5303  -26.9282   23.1638 C   0  0  0  0  0  0  0  0  0  1  0  0
  -25.7918  -32.2314   24.0741 C   0  0  1  0  0  0  0  0  0  0  0  0
  -23.8012  -35.4357   23.7006 C   0  0  2  0  0  0  0  0  0  0  0  0
  -17.8693  -24.1357   21.1244 C   0  0  0  0  0  0  0  0  0  0  0  0
  -26.8046  -32.0561   25.2407 C   0  0  0  0  0  0  0  0  0  0  0  0
  -25.8488  -17.3119   19.8407 N   0  0  0  0  0  0  0  0  0  0  0  0
  -19.9044  -22.8137   21.0662 N   0  0  0  0  0  0  0  0  0  0  0  0
  -21.0839  -22.8559   21.7089 N   0  0  0  0  0  0  0  0  0  0  0  0
  -24.6163  -17.8256   19.6880 N   0  0  0  0  0  0  0  0  0  0  0  0
  -25.6663  -30.7373   22.1054 N   0  0  0  0  0  0  0  0  0  0  0  0
  -24.2188  -21.5991   20.1696 N   0  0  0  0  0  0  0  0  0  0  0  0
  -22.3148  -17.2741   19.7846 N   0  0  0  0  0  0  0  0  0  0  0  0
  -24.3630  -13.3803   20.8043 N   0  0  0  0  0  0  0  0  0  0  0  0
  -28.1521  -28.6141   20.6760 N   0  0  0  0  0  0  0  0  0  0  0  0
  -25.3419  -33.6048   23.8747 N   0  0  0  0  0  0  0  0  0  0  0  0
  -22.5106  -35.6727   22.9939 N   0  3  0  0  0  0  0  0  0  0  0  0
  -22.3262  -14.3876   20.4952 O   0  0  0  0  0  0  0  0  0  0  0  0
  -26.5801  -28.2648   22.3581 O   0  0  0  0  0  0  0  0  0  0  0  0
  -23.1392  -23.6555   20.2450 O   0  0  0  0  0  0  0  0  0  0  0  0
  -27.3639  -32.3236   22.3003 O   0  0  0  0  0  0  0  0  0  0  0  0
  -23.0808  -33.1753   24.1578 O   0  0  0  0  0  0  0  0  0  0  0  0
  -29.8603  -12.5356   21.1226 O   0  0  0  0  0  0  0  0  0  0  0  0
  -20.5412  -27.3186   21.7913 O   0  0  0  0  0  0  0  0  0  1  0  0
  -29.6293   -7.5269   18.8283 F   0  0  0  0  0  0  0  0  0  0  0  0
  -31.8155  -11.6914   19.3599 F   0  0  0  0  0  0  0  0  0  0  0  0
  1  2  1  0  0  0  0
  1  5  2  0  0  0  0
  2  6  2  0  0  0  0
  3  8  2  0  0  0  0
  3 16  1  0  0  0  0
  4  9  1  0  0  0  0
  4 16  2  0  0  0  0
  5 18  1  0  0  0  0
  6 20  1  0  0  0  0
  7 10  2  0  0  0  0
  7 19  1  0  0  0  0
  8 23  1  0  0  0  0
  9 23  2  0  0  0  0
 10 24  1  0  0  0  0
 11 12  2  0  0  0  0
 11 25  1  0  0  0  0
 12 26  1  0  0  0  0
 13 21  1  0  0  0  0
 13 24  2  0  0  0  0
 14 26  2  0  0  0  0
 14 27  1  0  0  0  0
 15 22  2  0  0  0  0
 15 65  1  0  0  0  0
 16 28  1  0  0  0  0
 17 28  1  0  0  0  0
 17 30  2  0  0  0  0
 17 31  1  0  0  0  0
 18 20  2  0  0  0  0
 18 36  1  0  0  0  0
 19 21  2  0  0  0  0
 19 37  1  0  0  0  0
 20 45  1  0  0  0  0
 21 38  1  0  0  0  0
 22 29  1  0  0  0  0
 22 56  1  0  0  0  0
 23 79  1  0  0  0  0
 24 80  1  0  0  0  0
 25 27  2  0  0  0  0
 25 79  1  0  0  0  0
 26 81  1  0  0  0  0
 27 82  1  0  0  0  0
 28 63  2  0  0  0  0
 29 61  1  0  0  0  0
 29 64  2  0  0  0  0
 30 66  1  0  0  0  0
 30 69  1  0  0  0  0
 31 70  1  0  0  0  0
 31 74  2  0  0  0  0
 32 46  1  0  0  0  0
 32 71  1  0  0  0  0
 32 75  2  0  0  0  0
 33 57  1  0  0  0  0
 33 68  1  0  0  0  0
 33 76  2  0  0  0  0
 34 59  1  0  0  0  0
 34 67  1  0  0  0  0
 34 77  2  0  0  0  0
 35 60  1  0  0  0  0
 35 72  1  0  0  0  0
 35 78  2  0  0  0  0
 36 39  1  0  0  0  0
 37 46  1  0  0  0  0
 38 67  1  0  0  0  0
 39 41  1  0  0  0  0
 40 42  1  0  0  0  0
 40 43  1  0  0  0  0
 41 45  1  0  0  0  0
 42 47  1  0  0  0  0
 43 68  1  0  0  0  0
 44 47  1  0  0  0  0
 44 68  1  0  0  0  0
 45 71  1  0  0  0  0
 46 67  1  0  0  0  0
 47 66  1  0  0  0  0
 48 60  1  0  0  0  0
 49 61  1  0  0  0  0
 50 61  1  0  0  0  0
 51 61  1  0  0  0  0
 52 62  1  0  0  0  0
 53 62  1  0  0  0  0
 54 62  1  0  0  0  0
 55 73  1  0  0  0  0
 56 58  1  0  0  0  0
 57 65  1  0  0  0  0
 58 80  1  0  0  0  0
 59 62  1  0  0  0  0
 59 72  1  0  0  0  0
 60 73  1  0  0  0  0
 63 66  1  0  0  0  0
 64 65  1  0  0  0  0
M  CHG  1  73   1
M  ISO  4  33 100  57 100  58 101  80 101
M  END
> <Batch ID>
0078

> <Smiles>
CNC(C)C(=O)NC(C(=O)N1Cc2cc([101O:1][101CH2:1]Cc3cn([100CH2:0][100C:0](=O)N4CCCC(n5nc(-c6ccc(Oc7ccc(F)cc7F)cc6)c(C(N)=O)c5N)C4)nc3C(C)(C)C)ccc2CC1C(=O)NC1CCCc2ccccc21)C(C)(C)C

> <Shape>
0.263

> <Color>
0.066

> <Negative vol penalty>
0.000

$$$$

  -OEChem-04052318393D

 84 92  0     1  0  0  0  0  0999 V2000
  -17.1544  -26.4868   21.5481 C   0  0  0  0  0  0  0  0  0  0  0  0
  -18.4108  -26.4053   20.9563 C   0  0  0  0  0  0  0  0  0  0  0  0
  -25.1443  -13.3699   19.6771 C   0  0  0  0  0  0  0  0  0  0  0  0
  -27.3978  -12.7767   20.3148 C   0  0  0  0  0  0  0  0  0  0  0  0
  -16.9339  -27.3838   22.5924 C   0  0  0  0  0  0  0  0  0  0  0  0
  -19.4472  -27.2218   21.4077 C   0  0  0  0  0  0  0  0  0  0  0  0
  -23.8058  -24.7029   21.9578 C   0  0  0  0  0  0  0  0  0  0  0  0
  -24.7761  -12.0255   19.7276 C   0  0  0  0  0  0  0  0  0  0  0  0
  -27.0296  -11.4323   20.3654 C   0  0  0  0  0  0  0  0  0  0  0  0
  -24.5341  -24.4304   20.8006 C   0  0  0  0  0  0  0  0  0  0  0  0
  -23.1532   -8.7877   20.0401 C   0  0  0  0  0  0  0  0  0  0  0  0
  -21.9523   -8.4676   20.6734 C   0  0  0  0  0  0  0  0  0  0  0  0
  -25.9821  -26.2996   21.2791 C   0  0  0  0  0  0  0  0  0  0  0  0
  -30.8040  -22.1606   21.6149 C   0  0  0  0  0  0  0  0  0  0  0  0
  -22.7816   -9.4262   22.7303 C   0  0  0  0  0  0  0  0  0  0  0  0
  -28.1074  -22.3933   21.2681 C   0  0  0  0  0  0  0  0  0  0  0  0
  -26.4552  -13.7455   19.9706 C   0  0  0  0  0  0  0  0  0  0  0  0
  -26.7857  -16.0699   20.9684 C   0  0  0  0  0  0  0  0  0  0  0  0
  -17.9707  -28.2048   23.0633 C   0  0  0  0  0  0  0  0  0  0  0  0
  -24.1540  -25.7842   22.7799 C   0  0  0  0  0  0  0  0  0  0  0  0
  -19.2400  -28.1316   22.4584 C   0  0  0  0  0  0  0  0  0  0  0  0
  -25.2581  -26.5821   22.4475 C   0  0  0  0  0  0  0  0  0  0  0  0
  -30.3015  -22.4547   20.3522 C   0  0  0  0  0  0  0  0  0  0  0  0
  -28.9288  -22.5750   20.1671 C   0  0  0  0  0  0  0  0  0  0  0  0
  -25.7187  -11.0567   20.0719 C   0  0  0  0  0  0  0  0  0  0  0  0
  -25.6207  -25.2305   20.4596 C   0  0  0  0  0  0  0  0  0  0  0  0
  -24.1683   -9.4269   20.7519 C   0  0  0  0  0  0  0  0  0  0  0  0
  -21.7665   -8.7868   22.0185 C   0  0  0  0  0  0  0  0  0  0  0  0
  -23.9825   -9.7462   22.0970 C   0  0  0  0  0  0  0  0  0  0  0  0
  -26.8364  -15.1341   19.9180 C   0  0  0  0  0  0  0  0  0  0  0  0
  -29.8987  -21.9977   22.6512 C   0  0  0  0  0  0  0  0  0  0  0  0
  -27.2511  -17.2362   20.4119 C   0  0  0  0  0  0  0  0  0  0  0  0
  -26.3564  -15.9002   22.3258 C   0  0  0  0  0  0  0  0  0  0  0  0
  -22.7024  -28.4557   23.7071 C   0  0  0  0  0  0  0  0  0  0  0  0
  -25.3294  -28.7698   25.5840 C   0  0  0  0  0  0  0  0  0  0  0  0
  -28.6094  -28.0009   26.1290 C   0  0  0  0  0  0  0  0  0  0  0  0
  -30.9195  -19.9849   17.2287 C   0  0  0  0  0  0  0  0  0  0  0  0
  -17.6719  -29.1927   24.1631 C   0  0  0  0  0  0  0  0  0  0  0  0
  -23.3746  -26.0486   24.0389 C   0  0  0  0  0  0  0  0  0  0  0  0
  -25.6854  -27.7426   23.3072 C   0  0  0  0  0  0  0  0  0  0  0  0
  -18.9229  -29.7560   24.8323 C   0  0  0  0  0  0  0  0  0  0  0  0
  -28.1599  -18.4480   15.5857 C   0  0  0  0  0  0  0  0  0  0  0  0
  -19.9450  -30.1800   23.7823 C   0  0  0  0  0  0  0  0  0  0  0  0
  -27.5697  -17.5219   16.6506 C   0  0  0  0  0  0  0  0  0  0  0  0
  -29.6835  -18.5075   15.6712 C   0  0  0  0  0  0  0  0  0  0  0  0
  -29.6258  -17.9304   18.0665 C   0  0  0  0  0  0  0  0  0  0  0  0
  -20.3961  -28.9830   22.9366 C   0  0  1  0  0  0  0  0  0  0  0  0
  -23.5034  -27.4871   24.5304 C   0  0  1  0  0  0  0  0  0  0  0  0
  -28.0883  -17.8813   18.0560 C   0  0  2  0  0  0  0  0  0  0  0  0
  -30.4022  -21.6809   24.0198 C   0  0  0  0  0  0  0  0  0  0  0  0
  -32.1886  -23.8411   19.4353 C   0  0  0  0  0  0  0  0  0  0  0  0
  -30.4957  -28.4359   27.7259 C   0  0  0  0  0  0  0  0  0  0  0  0
  -25.6991  -31.5514   24.3857 C   0  0  0  0  0  0  0  0  0  0  0  0
  -28.0427  -31.5432   25.2664 C   0  0  0  0  0  0  0  0  0  0  0  0
  -26.1176  -31.4119   26.8474 C   0  0  0  0  0  0  0  0  0  0  0  0
  -28.8433  -25.1317   26.8161 C   0  0  0  0  0  0  0  0  0  0  0  0
  -28.3301  -22.8920   18.8199 C   0  0  0  0  0  0  0  0  0  0  0  0
  -28.4666  -24.3615   18.4156 C   0  0  0  0  0  0  0  0  0  0  0  0
  -32.0970  -21.3768   18.9125 C   0  0  0  0  0  0  0  0  0  0  0  0
  -27.7171  -25.3141   19.3397 C   0  0  0  0  0  0  0  0  0  1  0  0
  -31.2507  -22.6367   19.2145 C   0  0  1  0  0  0  0  0  0  0  0  0
  -26.6897  -29.4040   25.4216 C   0  0  1  0  0  0  0  0  0  0  0  0
  -29.3378  -27.5166   27.3697 C   0  0  2  0  0  0  0  0  0  0  0  0
  -26.6283  -30.9570   25.4628 C   0  0  0  0  0  0  0  0  0  0  0  0
  -28.5587  -22.1067   22.5098 N   0  0  0  0  0  0  0  0  0  0  0  0
  -27.2975  -15.6604   18.7802 N   0  0  0  0  0  0  0  0  0  0  0  0
  -27.5406  -16.9397   19.1125 N   0  0  0  0  0  0  0  0  0  0  0  0
  -24.8877  -27.9645   24.5246 N   0  0  0  0  0  0  0  0  0  0  0  0
  -30.1098  -18.8546   17.0290 N   0  0  0  0  0  0  0  0  0  0  0  0
  -27.4367  -18.4762   20.9122 N   0  0  0  0  0  0  0  0  0  0  0  0
  -25.9079  -14.6358   22.7316 N   0  0  0  0  0  0  0  0  0  0  0  0
  -21.3495  -28.1773   23.6690 N   0  0  0  0  0  0  0  0  0  0  0  0
  -27.5411  -28.8122   26.4479 N   0  0  0  0  0  0  0  0  0  0  0  0
  -31.2730  -20.2463   18.5468 N   0  0  0  0  0  0  0  0  0  0  0  0
  -29.8771  -26.1446   27.1514 N   0  3  0  0  0  0  0  0  0  0  0  0
  -26.3546  -16.8458   23.1499 O   0  0  0  0  0  0  0  0  0  0  0  0
  -23.2697  -29.3876   23.1489 O   0  0  0  0  0  0  0  0  0  0  0  0
  -24.6856  -28.9753   26.6159 O   0  0  0  0  0  0  0  0  0  0  0  0
  -28.9560  -27.6934   24.9906 O   0  0  0  0  0  0  0  0  0  0  0  0
  -31.2948  -20.7106   16.3016 O   0  0  0  0  0  0  0  0  0  0  0  0
  -25.3596   -9.7448   20.1216 O   0  0  0  0  0  0  0  0  0  0  0  0
  -26.3329  -24.9672   19.3303 O   0  0  0  0  0  0  0  0  0  1  0  0
  -20.6127   -8.4808   22.6261 F   0  0  0  0  0  0  0  0  0  0  0  0
  -24.9536  -10.3614   22.7857 F   0  0  0  0  0  0  0  0  0  0  0  0
  1  2  1  0  0  0  0
  1  5  2  0  0  0  0
  2  6  2  0  0  0  0
  3  8  2  0  0  0  0
  3 17  1  0  0  0  0
  4  9  1  0  0  0  0
  4 17  2  0  0  0  0
  5 19  1  0  0  0  0
  6 21  1  0  0  0  0
  7 10  2  0  0  0  0
  7 20  1  0  0  0  0
  8 25  1  0  0  0  0
  9 25  2  0  0  0  0
 10 26  1  0  0  0  0
 11 12  2  0  0  0  0
 11 27  1  0  0  0  0
 12 28  1  0  0  0  0
 13 22  1  0  0  0  0
 13 26  2  0  0  0  0
 14 23  1  0  0  0  0
 14 31  2  0  0  0  0
 15 28  2  0  0  0  0
 15 29  1  0  0  0  0
 16 24  1  0  0  0  0
 16 65  2  0  0  0  0
 17 30  1  0  0  0  0
 18 30  1  0  0  0  0
 18 32  2  0  0  0  0
 18 33  1  0  0  0  0
 19 21  2  0  0  0  0
 19 38  1  0  0  0  0
 20 22  2  0  0  0  0
 20 39  1  0  0  0  0
 21 47  1  0  0  0  0
 22 40  1  0  0  0  0
 23 24  2  0  0  0  0
 23 61  1  0  0  0  0
 24 57  1  0  0  0  0
 25 81  1  0  0  0  0
 26 82  1  0  0  0  0
 27 29  2  0  0  0  0
 27 81  1  0  0  0  0
 28 83  1  0  0  0  0
 29 84  1  0  0  0  0
 30 66  2  0  0  0  0
 31 50  1  0  0  0  0
 31 65  1  0  0  0  0
 32 67  1  0  0  0  0
 32 70  1  0  0  0  0
 33 71  1  0  0  0  0
 33 76  2  0  0  0  0
 34 48  1  0  0  0  0
 34 72  1  0  0  0  0
 34 77  2  0  0  0  0
 35 62  1  0  0  0  0
 35 68  1  0  0  0  0
 35 78  2  0  0  0  0
 36 63  1  0  0  0  0
 36 73  1  0  0  0  0
 36 79  2  0  0  0  0
 37 69  1  0  0  0  0
 37 74  1  0  0  0  0
 37 80  2  0  0  0  0
 38 41  1  0  0  0  0
 39 48  1  0  0  0  0
 40 68  1  0  0  0  0
 41 43  1  0  0  0  0
 42 44  1  0  0  0  0
 42 45  1  0  0  0  0
 43 47  1  0  0  0  0
 44 49  1  0  0  0  0
 45 69  1  0  0  0  0
 46 49  1  0  0  0  0
 46 69  1  0  0  0  0
 47 72  1  0  0  0  0
 48 68  1  0  0  0  0
 49 67  1  0  0  0  0
 51 61  1  0  0  0  0
 52 63  1  0  0  0  0
 53 64  1  0  0  0  0
 54 64  1  0  0  0  0
 55 64  1  0  0  0  0
 56 75  1  0  0  0  0
 57 58  1  0  0  0  0
 58 60  1  0  0  0  0
 59 61  1  0  0  0  0
 59 74  1  0  0  0  0
 60 82  1  0  0  0  0
 62 64  1  0  0  0  0
 62 73  1  0  0  0  0
 63 75  1  0  0  0  0
 66 67  1  0  0  0  0
M  CHG  1  75   1
M  ISO  4  37 100  60 101  74 100  82 101
M  END
> <Batch ID>
0078

> <Smiles>
CNC(C)C(=O)NC(C(=O)N1Cc2cc([101O:1][101CH2:1]CCc3cnc(C)cc3C(C)C[100NH:0][100C:0](=O)N3CCCC(n4nc(-c5ccc(Oc6ccc(F)cc6F)cc5)c(C(N)=O)c4N)C3)ccc2CC1C(=O)NC1CCCc2ccccc21)C(C)(C)C

> <Shape>
0.232

> <Color>
0.065

> <Negative vol penalty>
0.000

$$$$

  -OEChem-04052318393D

 86 94  0     1  0  0  0  0  0999 V2000
  -18.7328  -24.0087   23.9862 C   0  0  0  0  0  0  0  0  0  0  0  0
  -20.1238  -24.0031   23.9620 C   0  0  0  0  0  0  0  0  0  0  0  0
  -26.6629  -12.6410   21.1241 C   0  0  0  0  0  0  0  0  0  0  0  0
  -25.6561  -13.9127   19.3334 C   0  0  0  0  0  0  0  0  0  0  0  0
  -18.0326  -25.1094   23.4940 C   0  0  0  0  0  0  0  0  0  0  0  0
  -20.8154  -25.0978   23.4445 C   0  0  0  0  0  0  0  0  0  0  0  0
  -24.7219  -26.4802   26.3555 C   0  0  0  0  0  0  0  0  0  0  0  0
  -25.4035  -12.1750   21.5012 C   0  0  0  0  0  0  0  0  0  0  0  0
  -24.3967  -13.4466   19.7105 C   0  0  0  0  0  0  0  0  0  0  0  0
  -25.8835  -25.7142   26.2681 C   0  0  0  0  0  0  0  0  0  0  0  0
  -23.2038   -9.8254   20.4649 C   0  0  0  0  0  0  0  0  0  0  0  0
  -23.0739   -8.4660   20.7488 C   0  0  0  0  0  0  0  0  0  0  0  0
  -26.8596  -27.3714   24.8121 C   0  0  0  0  0  0  0  0  0  0  0  0
  -22.3615   -9.0029   22.9941 C   0  0  0  0  0  0  0  0  0  0  0  0
  -27.9416  -20.6179   21.8218 C   0  0  0  0  0  0  0  0  0  0  0  0
  -26.7892  -13.5099   20.0402 C   0  0  0  0  0  0  0  0  0  0  0  0
  -28.9759  -13.3993   18.7311 C   0  0  0  0  0  0  0  0  0  0  0  0
  -18.7162  -26.2222   22.9791 C   0  0  0  0  0  0  0  0  0  0  0  0
  -24.6161  -27.6944   25.6619 C   0  0  0  0  0  0  0  0  0  0  0  0
  -20.1237  -26.2138   22.9438 C   0  0  0  0  0  0  0  0  0  0  0  0
  -25.6966  -28.1522   24.8943 C   0  0  0  0  0  0  0  0  0  0  0  0
  -24.2704  -12.5777   20.7945 C   0  0  0  0  0  0  0  0  0  0  0  0
  -26.9515  -26.1583   25.4940 C   0  0  0  0  0  0  0  0  0  0  0  0
  -22.9126  -10.7737   21.4456 C   0  0  0  0  0  0  0  0  0  0  0  0
  -22.6528   -8.0547   22.0133 C   0  0  0  0  0  0  0  0  0  0  0  0
  -22.4915  -10.3624   22.7102 C   0  0  0  0  0  0  0  0  0  0  0  0
  -28.0899  -13.9921   19.6505 C   0  0  0  0  0  0  0  0  0  0  0  0
  -27.4715  -21.5324   22.7422 C   0  0  0  0  0  0  0  0  0  0  0  0
  -27.7474  -20.9507   20.4968 C   0  0  0  0  0  0  0  0  0  0  0  0
  -30.0639  -14.2375   18.7135 C   0  0  0  0  0  0  0  0  0  0  0  0
  -26.7284  -22.8964   21.0825 C   0  0  0  0  0  0  0  0  0  0  0  0
  -28.8286  -12.1985   17.9617 C   0  0  0  0  0  0  0  0  0  0  0  0
  -22.7187  -28.8097   23.3685 C   0  0  0  0  0  0  0  0  0  0  0  0
  -24.2958  -31.5839   23.9509 C   0  0  0  0  0  0  0  0  0  0  0  0
  -30.6577  -20.0700   20.0328 C   0  0  0  0  0  0  0  0  0  0  0  0
  -27.0983  -33.1296   25.1354 C   0  0  0  0  0  0  0  0  0  0  0  0
  -17.9153  -27.3689   22.4149 C   0  0  0  0  0  0  0  0  0  0  0  0
  -23.3664  -28.5220   25.7879 C   0  0  0  0  0  0  0  0  0  0  0  0
  -25.6410  -29.4584   24.1466 C   0  0  0  0  0  0  0  0  0  0  0  0
  -18.7295  -28.6466   22.2278 C   0  0  0  0  0  0  0  0  0  0  0  0
  -32.4677  -17.3238   21.4548 C   0  0  0  0  0  0  0  0  0  0  0  0
  -20.0616  -28.3365   21.5524 C   0  0  0  0  0  0  0  0  0  0  0  0
  -31.6160  -16.1073   21.0942 C   0  0  0  0  0  0  0  0  0  0  0  0
  -31.6020  -18.5476   21.7372 C   0  0  0  0  0  0  0  0  0  0  0  0
  -29.8112  -17.6824   20.2655 C   0  0  0  0  0  0  0  0  0  0  0  0
  -20.9101  -27.3929   22.4132 C   0  0  1  0  0  0  0  0  0  0  0  0
  -23.1732  -29.4929   24.6272 C   0  0  1  0  0  0  0  0  0  0  0  0
  -30.6481  -16.4320   19.9426 C   0  0  2  0  0  0  0  0  0  0  0  0
  -26.0580  -24.1634   20.6712 C   0  0  0  0  0  0  0  0  0  0  0  0
  -28.1116  -35.4045   25.4449 C   0  0  0  0  0  0  0  0  0  0  0  0
  -29.8669  -21.7177   18.4256 C   0  0  0  0  0  0  0  0  0  0  0  0
  -30.1059  -19.3188   17.7590 C   0  0  0  0  0  0  0  0  0  0  0  0
  -24.9253  -31.7066   20.9679 C   0  0  0  0  0  0  0  0  0  0  0  0
  -26.6836  -33.4136   21.4801 C   0  0  0  0  0  0  0  0  0  0  0  0
  -24.2906  -33.8985   21.9912 C   0  0  0  0  0  0  0  0  0  0  0  0
  -27.2349  -32.7967   28.0730 C   0  0  0  0  0  0  0  0  0  0  0  0
  -27.6383  -21.2569   24.2153 C   0  0  0  0  0  0  0  0  0  0  0  0
  -28.9467  -21.7981   24.8022 C   0  0  0  0  0  0  0  0  0  0  0  0
  -29.0508  -23.3221   24.7282 C   0  0  0  0  0  0  0  0  0  0  0  0
  -27.9441  -23.9974   25.5268 C   0  0  0  0  0  0  0  0  0  1  0  0
  -28.2239  -20.0241   19.4288 C   0  0  2  0  0  0  0  0  0  0  0  0
  -25.5497  -32.2332   23.4171 C   0  0  1  0  0  0  0  0  0  0  0  0
  -27.2778  -34.3034   26.0813 C   0  0  2  0  0  0  0  0  0  0  0  0
  -29.6857  -20.2623   18.8960 C   0  0  0  0  0  0  0  0  0  0  0  0
  -25.3629  -32.7874   21.9765 C   0  0  0  0  0  0  0  0  0  0  0  0
  -28.5732  -15.1197   20.1788 N   0  0  0  0  0  0  0  0  0  0  0  0
  -26.8578  -22.6860   22.4063 N   0  0  0  0  0  0  0  0  0  0  0  0
  -27.1422  -22.0858   20.0899 N   0  0  0  0  0  0  0  0  0  0  0  0
  -29.7748  -15.2420   19.5895 N   0  0  0  0  0  0  0  0  0  0  0  0
  -24.3953  -30.2286   24.2963 N   0  0  0  0  0  0  0  0  0  0  0  0
  -30.6811  -18.8094   20.6297 N   0  0  0  0  0  0  0  0  0  0  0  0
  -31.2302  -14.2057   18.0343 N   0  0  0  0  0  0  0  0  0  0  0  0
  -27.6474  -11.4569   18.1002 N   0  0  0  0  0  0  0  0  0  0  0  0
  -21.5286  -28.1200   23.5010 N   0  0  0  0  0  0  0  0  0  0  0  0
  -25.9378  -33.2400   24.3990 N   0  0  0  0  0  0  0  0  0  0  0  0
  -27.2740  -19.9464   18.2514 N   0  3  0  0  0  0  0  0  0  0  0  0
  -27.9581  -33.8617   27.3315 N   0  3  0  0  0  0  0  0  0  0  0  0
  -29.7250  -11.7863   17.1870 O   0  0  0  0  0  0  0  0  0  0  0  0
  -23.3967  -28.9027   22.3519 O   0  0  0  0  0  0  0  0  0  0  0  0
  -23.2678  -32.2563   24.0643 O   0  0  0  0  0  0  0  0  0  0  0  0
  -31.3760  -21.0124   20.3766 O   0  0  0  0  0  0  0  0  0  0  0  0
  -27.9086  -32.2090   25.0550 O   0  0  0  0  0  0  0  0  0  0  0  0
  -23.0413  -12.1230   21.1620 O   0  0  0  0  0  0  0  0  0  0  0  0
  -28.0862  -25.4122   25.4065 O   0  0  0  0  0  0  0  0  0  1  0  0
  -22.5266   -6.7492   22.2853 F   0  0  0  0  0  0  0  0  0  0  0  0
  -22.2091  -11.2687   23.6561 F   0  0  0  0  0  0  0  0  0  0  0  0
  1  2  1  0  0  0  0
  1  5  2  0  0  0  0
  2  6  2  0  0  0  0
  3  8  2  0  0  0  0
  3 16  1  0  0  0  0
  4  9  1  0  0  0  0
  4 16  2  0  0  0  0
  5 18  1  0  0  0  0
  6 20  1  0  0  0  0
  7 10  2  0  0  0  0
  7 19  1  0  0  0  0
  8 22  1  0  0  0  0
  9 22  2  0  0  0  0
 10 23  1  0  0  0  0
 11 12  2  0  0  0  0
 11 24  1  0  0  0  0
 12 25  1  0  0  0  0
 13 21  1  0  0  0  0
 13 23  2  0  0  0  0
 14 25  2  0  0  0  0
 14 26  1  0  0  0  0
 15 28  1  0  0  0  0
 15 29  2  0  0  0  0
 16 27  1  0  0  0  0
 17 27  1  0  0  0  0
 17 30  2  0  0  0  0
 17 32  1  0  0  0  0
 18 20  2  0  0  0  0
 18 37  1  0  0  0  0
 19 21  2  0  0  0  0
 19 38  1  0  0  0  0
 20 46  1  0  0  0  0
 21 39  1  0  0  0  0
 22 83  1  0  0  0  0
 23 84  1  0  0  0  0
 24 26  2  0  0  0  0
 24 83  1  0  0  0  0
 25 85  1  0  0  0  0
 26 86  1  0  0  0  0
 27 66  2  0  0  0  0
 28 57  1  0  0  0  0
 28 67  2  0  0  0  0
 29 61  1  0  0  0  0
 29 68  1  0  0  0  0
 30 69  1  0  0  0  0
 30 72  1  0  0  0  0
 31 49  1  0  0  0  0
 31 67  1  0  0  0  0
 31 68  2  0  0  0  0
 32 73  1  0  0  0  0
 32 78  2  0  0  0  0
 33 47  1  0  0  0  0
 33 74  1  0  0  0  0
 33 79  2  0  0  0  0
 34 62  1  0  0  0  0
 34 70  1  0  0  0  0
 34 80  2  0  0  0  0
 35 64  1  0  0  0  0
 35 71  1  0  0  0  0
 35 81  2  0  0  0  0
 36 63  1  0  0  0  0
 36 75  1  0  0  0  0
 36 82  2  0  0  0  0
 37 40  1  0  0  0  0
 38 47  1  0  0  0  0
 39 70  1  0  0  0  0
 40 42  1  0  0  0  0
 41 43  1  0  0  0  0
 41 44  1  0  0  0  0
 42 46  1  0  0  0  0
 43 48  1  0  0  0  0
 44 71  1  0  0  0  0
 45 48  1  0  0  0  0
 45 71  1  0  0  0  0
 46 74  1  0  0  0  0
 47 70  1  0  0  0  0
 48 69  1  0  0  0  0
 50 63  1  0  0  0  0
 51 64  1  0  0  0  0
 52 64  1  0  0  0  0
 53 65  1  0  0  0  0
 54 65  1  0  0  0  0
 55 65  1  0  0  0  0
 56 77  1  0  0  0  0
 57 58  1  0  0  0  0
 58 59  1  0  0  0  0
 59 60  1  0  0  0  0
 60 84  1  0  0  0  0
 61 64  1  0  0  0  0
 61 76  1  0  0  0  0
 62 65  1  0  0  0  0
 62 75  1  0  0  0  0
 63 77  1  0  0  0  0
 66 69  1  0  0  0  0
M  CHG  2  76   1  77   1
M  ISO  4  35 100  60 101  64 100  84 101
M  END
> <Batch ID>
0078

> <Smiles>
CNC(C)C(=O)NC(C(=O)N1Cc2cc([101O:1][101CH2:1]CCCc3cc(C(N)[100C:0](C)(C)[100C:0](=O)N4CCCC(n5nc(-c6ccc(Oc7ccc(F)cc7F)cc6)c(C(N)=O)c5N)C4)nc(C)n3)ccc2CC1C(=O)NC1CCCc2ccccc21)C(C)(C)C

> <Shape>
0.288

> <Color>
0.079

> <Negative vol penalty>
0.000

$$$$

  -OEChem-04052318393D

 83 91  0     1  0  0  0  0  0999 V2000
  -22.0521  -22.7998   26.2197 C   0  0  0  0  0  0  0  0  0  0  0  0
  -23.2352  -23.5300   26.2141 C   0  0  0  0  0  0  0  0  0  0  0  0
  -26.5965  -16.2910   22.9227 C   0  0  0  0  0  0  0  0  0  0  0  0
  -25.4629  -16.4966   20.7992 C   0  0  0  0  0  0  0  0  0  0  0  0
  -20.9431  -23.2716   25.5207 C   0  0  0  0  0  0  0  0  0  0  0  0
  -23.3061  -24.7380   25.5195 C   0  0  0  0  0  0  0  0  0  0  0  0
  -27.4089  -27.3962   26.0717 C   0  0  0  0  0  0  0  0  0  0  0  0
  -25.9348  -15.0861   23.1594 C   0  0  0  0  0  0  0  0  0  0  0  0
  -24.8012  -15.2916   21.0358 C   0  0  0  0  0  0  0  0  0  0  0  0
  -28.6291  -27.0246   25.5091 C   0  0  0  0  0  0  0  0  0  0  0  0
  -23.0846  -12.0889   20.9179 C   0  0  0  0  0  0  0  0  0  0  0  0
  -23.0162  -11.1693   19.8713 C   0  0  0  0  0  0  0  0  0  0  0  0
  -28.3382  -28.6929   23.7911 C   0  0  0  0  0  0  0  0  0  0  0  0
  -29.5382  -27.3022   19.1833 C   0  0  0  0  0  0  0  0  0  0  0  0
  -25.4291  -11.0682   19.8024 C   0  0  0  0  0  0  0  0  0  0  0  0
  -30.0231  -24.9745   19.1270 C   0  0  0  0  0  0  0  0  0  0  0  0
  -26.3605  -16.9963   21.7427 C   0  0  0  0  0  0  0  0  0  0  0  0
  -28.2822  -18.4190   20.8535 C   0  0  0  0  0  0  0  0  0  0  0  0
  -21.0051  -24.4799   24.8072 C   0  0  0  0  0  0  0  0  0  0  0  0
  -26.6376  -28.4132   25.4910 C   0  0  0  0  0  0  0  0  0  0  0  0
  -22.1903  -25.2429   24.8277 C   0  0  0  0  0  0  0  0  0  0  0  0
  -27.1097  -29.0772   24.3498 C   0  0  0  0  0  0  0  0  0  0  0  0
  -30.3697  -26.2487   19.5465 C   0  0  0  0  0  0  0  0  0  0  0  0
  -25.0372  -14.5864   22.2159 C   0  0  0  0  0  0  0  0  0  0  0  0
  -29.0926  -27.6710   24.3669 C   0  0  0  0  0  0  0  0  0  0  0  0
  -24.3253  -12.4982   21.4067 C   0  0  0  0  0  0  0  0  0  0  0  0
  -24.1884  -10.6590   19.3136 C   0  0  0  0  0  0  0  0  0  0  0  0
  -25.4975  -11.9878   20.8490 C   0  0  0  0  0  0  0  0  0  0  0  0
  -28.4015  -27.0529   18.4224 C   0  0  0  0  0  0  0  0  0  0  0  0
  -27.0433  -18.2413   21.4979 C   0  0  0  0  0  0  0  0  0  0  0  0
  -28.1430  -25.7427   18.0530 C   0  0  0  0  0  0  0  0  0  0  0  0
  -28.4882  -19.7768   20.8740 C   0  0  0  0  0  0  0  0  0  0  0  0
  -29.1676  -17.4439   20.2870 C   0  0  0  0  0  0  0  0  0  0  0  0
  -23.7419  -28.5667   24.1890 C   0  0  0  0  0  0  0  0  0  0  0  0
  -24.3817  -31.7452   24.0888 C   0  0  0  0  0  0  0  0  0  0  0  0
  -26.7212  -34.2291   24.0249 C   0  0  0  0  0  0  0  0  0  0  0  0
  -25.5538  -24.7494   20.4547 C   0  0  0  0  0  0  0  0  0  0  0  0
  -19.7724  -24.9478   24.0743 C   0  0  0  0  0  0  0  0  0  0  0  0
  -25.3361  -28.8205   26.1255 C   0  0  0  0  0  0  0  0  0  0  0  0
  -26.3292  -30.1893   23.6996 C   0  0  0  0  0  0  0  0  0  0  0  0
  -20.0755  -26.0002   23.0128 C   0  0  0  0  0  0  0  0  0  0  0  0
  -26.7393  -23.5258   23.5810 C   0  0  0  0  0  0  0  0  0  0  0  0
  -20.9430  -27.1008   23.6049 C   0  0  0  0  0  0  0  0  0  0  0  0
  -27.0537  -22.0549   23.3027 C   0  0  0  0  0  0  0  0  0  0  0  0
  -25.5050  -23.9941   22.8134 C   0  0  0  0  0  0  0  0  0  0  0  0
  -25.8642  -22.2781   21.0814 C   0  0  0  0  0  0  0  0  0  0  0  0
  -22.3001  -26.5444   24.0540 C   0  0  1  0  0  0  0  0  0  0  0  0
  -24.3903  -29.5191   25.1535 C   0  0  1  0  0  0  0  0  0  0  0  0
  -27.1336  -21.7751   21.7899 C   0  0  2  0  0  0  0  0  0  0  0  0
  -26.9404  -36.7260   23.9046 C   0  0  0  0  0  0  0  0  0  0  0  0
  -23.7181  -31.6577   21.1119 C   0  0  0  0  0  0  0  0  0  0  0  0
  -24.8467  -33.8790   20.8661 C   0  0  0  0  0  0  0  0  0  0  0  0
  -22.8315  -33.6599   22.3199 C   0  0  0  0  0  0  0  0  0  0  0  0
  -28.0944  -34.3508   26.6437 C   0  0  0  0  0  0  0  0  0  0  0  0
  -31.6095  -26.4853   20.3716 C   0  0  0  0  0  0  0  0  0  0  0  0
  -26.9396  -25.3997   17.2360 C   0  0  0  0  0  0  0  0  0  0  0  0
  -31.3709  -26.3988   21.8806 C   0  0  0  0  0  0  0  0  0  0  0  0
  -25.6418  -25.3532   18.0491 C   0  0  0  0  0  0  0  0  0  0  0  0
  -30.4197  -27.4689   22.4038 C   0  0  0  0  0  0  0  0  0  1  0  0
  -25.0286  -32.6746   23.0904 C   0  0  1  0  0  0  0  0  0  0  0  0
  -26.8462  -35.5157   24.8206 C   0  0  2  0  0  0  0  0  0  0  0  0
  -24.1203  -32.9456   21.8580 C   0  0  0  0  0  0  0  0  0  0  0  0
  -28.9272  -24.6933   18.3870 N   0  0  0  0  0  0  0  0  0  0  0  0
  -26.5005  -19.3940   21.8987 N   0  0  0  0  0  0  0  0  0  0  0  0
  -27.4027  -20.3090   21.5052 N   0  0  0  0  0  0  0  0  0  0  0  0
  -25.0597  -30.5469   24.3538 N   0  0  0  0  0  0  0  0  0  0  0  0
  -25.6452  -23.7010   21.3850 N   0  0  0  0  0  0  0  0  0  0  0  0
  -29.4903  -20.5554   20.4136 N   0  0  0  0  0  0  0  0  0  0  0  0
  -28.8025  -16.0923   20.3519 N   0  0  0  0  0  0  0  0  0  0  0  0
  -23.0072  -27.5656   24.7951 N   0  0  0  0  0  0  0  0  0  0  0  0
  -25.4029  -33.8739   23.8321 N   0  0  0  0  0  0  0  0  0  0  0  0
  -25.7044  -24.3859   19.1221 N   0  0  0  0  0  0  0  0  0  0  0  0
  -28.0652  -35.4786   25.6772 N   0  3  0  0  0  0  0  0  0  0  0  0
  -30.2581  -17.7603   19.7540 O   0  0  0  0  0  0  0  0  0  0  0  0
  -23.8956  -28.7291   22.9842 O   0  0  0  0  0  0  0  0  0  0  0  0
  -23.3177  -32.0737   24.6195 O   0  0  0  0  0  0  0  0  0  0  0  0
  -27.6954  -33.6038   23.6121 O   0  0  0  0  0  0  0  0  0  0  0  0
  -25.3581  -25.9233   20.7875 O   0  0  0  0  0  0  0  0  0  0  0  0
  -24.3915  -13.4106   22.4463 O   0  0  0  0  0  0  0  0  0  0  0  0
  -30.2831  -27.3098   23.8153 O   0  0  0  0  0  0  0  0  0  1  0  0
  -24.1225   -9.7747   18.3096 F   0  0  0  0  0  0  0  0  0  0  0  0
  -26.6923  -12.3763   21.3152 F   0  0  0  0  0  0  0  0  0  0  0  0
  -27.3748  -28.3582   17.9736 Cl  0  0  0  0  0  0  0  0  0  0  0  0
  1  2  1  0  0  0  0
  1  5  2  0  0  0  0
  2  6  2  0  0  0  0
  3  8  2  0  0  0  0
  3 17  1  0  0  0  0
  4  9  1  0  0  0  0
  4 17  2  0  0  0  0
  5 19  1  0  0  0  0
  6 21  1  0  0  0  0
  7 10  2  0  0  0  0
  7 20  1  0  0  0  0
  8 24  1  0  0  0  0
  9 24  2  0  0  0  0
 10 25  1  0  0  0  0
 11 12  2  0  0  0  0
 11 26  1  0  0  0  0
 12 27  1  0  0  0  0
 13 22  1  0  0  0  0
 13 25  2  0  0  0  0
 14 23  2  0  0  0  0
 14 29  1  0  0  0  0
 15 27  2  0  0  0  0
 15 28  1  0  0  0  0
 16 23  1  0  0  0  0
 16 63  2  0  0  0  0
 17 30  1  0  0  0  0
 18 30  1  0  0  0  0
 18 32  2  0  0  0  0
 18 33  1  0  0  0  0
 19 21  2  0  0  0  0
 19 38  1  0  0  0  0
 20 22  2  0  0  0  0
 20 39  1  0  0  0  0
 21 47  1  0  0  0  0
 22 40  1  0  0  0  0
 23 55  1  0  0  0  0
 24 79  1  0  0  0  0
 25 80  1  0  0  0  0
 26 28  2  0  0  0  0
 26 79  1  0  0  0  0
 27 81  1  0  0  0  0
 28 82  1  0  0  0  0
 29 31  2  0  0  0  0
 29 83  1  0  0  0  0
 30 64  2  0  0  0  0
 31 56  1  0  0  0  0
 31 63  1  0  0  0  0
 32 65  1  0  0  0  0
 32 68  1  0  0  0  0
 33 69  1  0  0  0  0
 33 74  2  0  0  0  0
 34 48  1  0  0  0  0
 34 70  1  0  0  0  0
 34 75  2  0  0  0  0
 35 60  1  0  0  0  0
 35 66  1  0  0  0  0
 35 76  2  0  0  0  0
 36 61  1  0  0  0  0
 36 71  1  0  0  0  0
 36 77  2  0  0  0  0
 37 67  1  0  0  0  0
 37 72  1  0  0  0  0
 37 78  2  0  0  0  0
 38 41  1  0  0  0  0
 39 48  1  0  0  0  0
 40 66  1  0  0  0  0
 41 43  1  0  0  0  0
 42 44  1  0  0  0  0
 42 45  1  0  0  0  0
 43 47  1  0  0  0  0
 44 49  1  0  0  0  0
 45 67  1  0  0  0  0
 46 49  1  0  0  0  0
 46 67  1  0  0  0  0
 47 70  1  0  0  0  0
 48 66  1  0  0  0  0
 49 65  1  0  0  0  0
 50 61  1  0  0  0  0
 51 62  1  0  0  0  0
 52 62  1  0  0  0  0
 53 62  1  0  0  0  0
 54 73  1  0  0  0  0
 55 57  1  0  0  0  0
 56 58  1  0  0  0  0
 57 59  1  0  0  0  0
 58 72  1  0  0  0  0
 59 80  1  0  0  0  0
 60 62  1  0  0  0  0
 60 71  1  0  0  0  0
 61 73  1  0  0  0  0
 64 65  1  0  0  0  0
M  CHG  1  73   1
M  ISO  4  37 100  59 101  72 100  80 101
M  END
> <Batch ID>
0078

> <Smiles>
CNC(C)C(=O)NC(C(=O)N1Cc2cc([101O:1][101CH2:1]CCc3cnc(CC[100NH:0][100C:0](=O)N4CCCC(n5nc(-c6ccc(Oc7ccc(F)cc7F)cc6)c(C(N)=O)c5N)C4)c(Cl)c3)ccc2CC1C(=O)NC1CCCc2ccccc21)C(C)(C)C

> <Shape>
0.211

> <Color>
0.077

> <Negative vol penalty>
0.000

$$$$

  -OEChem-04052318393D

 93101  0     1  0  0  0  0  0999 V2000
  -28.5677  -25.5704   15.5306 C   0  0  0  0  0  0  0  0  0  0  0  0
  -28.4182  -25.0096   16.7950 C   0  0  0  0  0  0  0  0  0  0  0  0
  -22.9975   -9.8996   19.9852 C   0  0  0  0  0  0  0  0  0  0  0  0
  -23.7579   -9.9391   22.2781 C   0  0  0  0  0  0  0  0  0  0  0  0
  -27.8914  -26.7457   15.2062 C   0  0  0  0  0  0  0  0  0  0  0  0
  -27.5931  -25.6244   17.7361 C   0  0  0  0  0  0  0  0  0  0  0  0
  -24.6100  -22.3240   20.1554 C   0  0  0  0  0  0  0  0  0  0  0  0
  -29.9190  -18.9325   22.2889 C   0  0  0  0  0  0  0  0  0  0  0  0
  -29.4022  -19.9244   23.1224 C   0  0  0  0  0  0  0  0  0  0  0  0
  -22.2386   -8.7612   20.2565 C   0  0  0  0  0  0  0  0  0  0  0  0
  -22.9989   -8.8006   22.5494 C   0  0  0  0  0  0  0  0  0  0  0  0
  -25.1913  -21.5660   21.1709 C   0  0  0  0  0  0  0  0  0  0  0  0
  -23.2459   -5.4653   22.0536 C   0  0  0  0  0  0  0  0  0  0  0  0
  -23.8480   -4.4455   22.7905 C   0  0  0  0  0  0  0  0  0  0  0  0
  -24.2490  -23.0580   22.8156 C   0  0  0  0  0  0  0  0  0  0  0  0
  -30.7125  -17.7210   24.2227 C   0  0  0  0  0  0  0  0  0  0  0  0
  -22.1494   -4.6730   24.4934 C   0  0  0  0  0  0  0  0  0  0  0  0
  -23.7572  -10.4886   20.9961 C   0  0  0  0  0  0  0  0  0  0  0  0
  -24.1323  -13.0063   20.8294 C   0  0  0  0  0  0  0  0  0  0  0  0
  -27.0500  -27.3699   16.1405 C   0  0  0  0  0  0  0  0  0  0  0  0
  -23.8516  -23.4629   20.4624 C   0  0  0  0  0  0  0  0  0  0  0  0
  -26.9059  -26.8099   17.4243 C   0  0  0  0  0  0  0  0  0  0  0  0
  -23.6570  -23.8273   21.8023 C   0  0  0  0  0  0  0  0  0  0  0  0
  -30.5741  -17.8307   22.8391 C   0  0  0  0  0  0  0  0  0  0  0  0
  -29.5406  -19.8146   24.5060 C   0  0  0  0  0  0  0  0  0  0  0  0
  -30.1958  -18.7129   25.0562 C   0  0  0  0  0  0  0  0  0  0  0  0
  -22.2392   -8.2117   21.5385 C   0  0  0  0  0  0  0  0  0  0  0  0
  -25.0133  -21.9346   22.5011 C   0  0  0  0  0  0  0  0  0  0  0  0
  -22.0956   -6.0891   22.5367 C   0  0  0  0  0  0  0  0  0  0  0  0
  -23.2997   -4.0493   24.0103 C   0  0  0  0  0  0  0  0  0  0  0  0
  -21.5473   -5.6930   23.7565 C   0  0  0  0  0  0  0  0  0  0  0  0
  -24.5419  -11.6642   20.7164 C   0  0  0  0  0  0  0  0  0  0  0  0
  -25.2341  -13.7345   20.4523 C   0  0  0  0  0  0  0  0  0  0  0  0
  -22.8688  -13.5465   21.2386 C   0  0  0  0  0  0  0  0  0  0  0  0
  -24.1033  -26.5657   19.8198 C   0  0  0  0  0  0  0  0  0  0  0  0
  -30.7508  -14.6197   20.7203 C   0  0  0  0  0  0  0  0  0  0  0  0
  -21.1933  -26.6996   21.2467 C   0  0  0  0  0  0  0  0  0  0  0  0
  -18.9619  -25.2958   23.4140 C   0  0  0  0  0  0  0  0  0  0  0  0
  -26.3767  -28.6647   15.7598 C   0  0  0  0  0  0  0  0  0  0  0  0
  -23.2089  -24.2545   19.3566 C   0  0  0  0  0  0  0  0  0  0  0  0
  -22.8349  -25.0296   22.1858 C   0  0  0  0  0  0  0  0  0  0  0  0
  -25.2280  -29.0499   16.6885 C   0  0  0  0  0  0  0  0  0  0  0  0
  -29.5554  -12.2929   18.2714 C   0  0  0  0  0  0  0  0  0  0  0  0
  -25.6448  -28.8913   18.1472 C   0  0  0  0  0  0  0  0  0  0  0  0
  -28.1211  -12.0092   18.7159 C   0  0  0  0  0  0  0  0  0  0  0  0
  -30.4787  -12.5056   19.4669 C   0  0  0  0  0  0  0  0  0  0  0  0
  -28.5855  -13.2911   20.8527 C   0  0  0  0  0  0  0  0  0  0  0  0
  -26.0005  -27.4337   18.4640 C   0  0  1  0  0  0  0  0  0  0  0  0
  -22.8841  -25.6895   19.7600 C   0  0  1  0  0  0  0  0  0  0  0  0
  -27.6135  -13.1005   19.6749 C   0  0  2  0  0  0  0  0  0  0  0  0
  -30.3562  -18.5742   26.5347 C   0  0  0  0  0  0  0  0  0  0  0  0
  -29.5656  -22.2761   25.0834 C   0  0  0  0  0  0  0  0  0  0  0  0
  -16.6835  -25.6547   24.4026 C   0  0  0  0  0  0  0  0  0  0  0  0
  -24.7651  -17.3035   25.5642 C   0  0  0  0  0  0  0  0  0  0  0  0
  -24.8691  -18.4637   27.7498 C   0  0  0  0  0  0  0  0  0  0  0  0
  -22.7315  -20.1835   22.3690 C   0  0  0  0  0  0  0  0  0  0  0  0
  -22.2826  -19.8348   24.7723 C   0  0  0  0  0  0  0  0  0  0  0  0
  -22.3326  -28.8518   23.0851 C   0  0  0  0  0  0  0  0  0  0  0  0
  -20.3802  -28.4855   24.6088 C   0  0  0  0  0  0  0  0  0  0  0  0
  -20.0069  -29.2931   22.2783 C   0  0  0  0  0  0  0  0  0  0  0  0
  -24.8097  -21.1746   26.4192 C   0  0  0  0  0  0  0  0  0  0  0  0
  -25.1474  -18.8986   23.1292 C   0  0  0  0  0  0  0  0  0  0  0  0
  -17.9385  -22.7668   22.2668 C   0  0  0  0  0  0  0  0  0  0  0  0
  -31.1270  -16.7706   21.9478 C   0  0  0  0  0  0  0  0  0  0  0  0
  -30.1361  -15.6392   21.6458 C   0  0  0  0  0  0  0  0  0  0  0  0
  -26.7655  -19.7883   25.7384 C   0  0  0  0  0  0  0  0  0  0  0  0
  -28.9734  -20.9025   25.3886 C   0  0  1  0  0  0  0  0  0  0  0  0
  -20.7043  -26.8934   22.6618 C   0  0  1  0  0  0  0  0  0  0  0  0
  -17.4784  -25.0019   23.2824 C   0  0  2  0  0  0  0  0  0  0  0  0
  -24.5184  -18.6488   26.2585 C   0  0  0  0  0  0  0  0  0  0  0  0
  -23.2564  -20.5003   23.7762 C   0  0  0  0  0  0  0  0  0  0  0  0
  -20.8732  -28.3594   23.1515 C   0  0  0  0  0  0  0  0  0  0  0  0
  -25.2097  -19.9154   25.5765 C   0  0  1  0  0  0  0  0  0  0  0  0
  -24.7760  -20.1173   24.0167 C   0  0  1  0  0  0  0  0  0  1  0  0
  -25.8053  -11.5440   20.3000 N   0  0  0  0  0  0  0  0  0  0  0  0
  -26.1990  -12.8199   20.1480 N   0  0  0  0  0  0  0  0  0  0  0  0
  -22.2322  -25.7751   21.0684 N   0  0  0  0  0  0  0  0  0  0  0  0
  -29.9504  -13.5337   20.3652 N   0  0  0  0  0  0  0  0  0  0  0  0
  -25.4620  -15.0615   20.3547 N   0  0  0  0  0  0  0  0  0  0  0  0
  -21.8450  -12.6571   21.5926 N   0  0  0  0  0  0  0  0  0  0  0  0
  -24.7986  -26.6444   18.6283 N   0  0  0  0  0  0  0  0  0  0  0  0
  -19.3283  -26.4093   22.6881 N   0  0  0  0  0  0  0  0  0  0  0  0
  -17.2354  -23.5323   23.3283 N   0  3  0  0  0  0  0  0  0  0  0  0
  -27.4932  -21.0059   25.2924 N   0  3  0  0  0  0  0  0  0  0  0  0
  -22.6487  -14.7810   21.2731 O   0  0  0  0  0  0  0  0  0  0  0  0
  -24.3911  -27.1298   20.8690 O   0  0  0  0  0  0  0  0  0  0  0  0
  -31.9070  -14.7867   20.3234 O   0  0  0  0  0  0  0  0  0  0  0  0
  -20.6678  -27.3394   20.3323 O   0  0  0  0  0  0  0  0  0  0  0  0
  -19.7192  -24.6085   24.0957 O   0  0  0  0  0  0  0  0  0  0  0  0
  -21.4986   -7.1010   21.8036 O   0  0  0  0  0  0  0  0  0  0  0  0
  -25.5800  -21.1971   23.4940 O   0  0  0  0  0  0  0  0  0  1  0  0
  -23.8771   -3.0688   24.7171 F   0  0  0  0  0  0  0  0  0  0  0  0
  -20.4416   -6.2877   24.2252 F   0  0  0  0  0  0  0  0  0  0  0  0
  1  2  1  0  0  0  0
  1  5  2  0  0  0  0
  2  6  2  0  0  0  0
  3 10  2  0  0  0  0
  3 18  1  0  0  0  0
  4 11  1  0  0  0  0
  4 18  2  0  0  0  0
  5 20  1  0  0  0  0
  6 22  1  0  0  0  0
  7 12  2  0  0  0  0
  7 21  1  0  0  0  0
  8  9  2  0  0  0  0
  8 24  1  0  0  0  0
  9 25  1  0  0  0  0
 10 27  1  0  0  0  0
 11 27  2  0  0  0  0
 12 28  1  0  0  0  0
 13 14  2  0  0  0  0
 13 29  1  0  0  0  0
 14 30  1  0  0  0  0
 15 23  1  0  0  0  0
 15 28  2  0  0  0  0
 16 24  2  0  0  0  0
 16 26  1  0  0  0  0
 17 30  2  0  0  0  0
 17 31  1  0  0  0  0
 18 32  1  0  0  0  0
 19 32  1  0  0  0  0
 19 33  2  0  0  0  0
 19 34  1  0  0  0  0
 20 22  2  0  0  0  0
 20 39  1  0  0  0  0
 21 23  2  0  0  0  0
 21 40  1  0  0  0  0
 22 48  1  0  0  0  0
 23 41  1  0  0  0  0
 24 64  1  0  0  0  0
 25 26  2  0  0  0  0
 25 67  1  0  0  0  0
 26 51  1  0  0  0  0
 27 90  1  0  0  0  0
 28 91  1  0  0  0  0
 29 31  2  0  0  0  0
 29 90  1  0  0  0  0
 30 92  1  0  0  0  0
 31 93  1  0  0  0  0
 32 75  2  0  0  0  0
 33 76  1  0  0  0  0
 33 79  1  0  0  0  0
 34 80  1  0  0  0  0
 34 85  2  0  0  0  0
 35 49  1  0  0  0  0
 35 81  1  0  0  0  0
 35 86  2  0  0  0  0
 36 65  1  0  0  0  0
 36 78  1  0  0  0  0
 36 87  2  0  0  0  0
 37 68  1  0  0  0  0
 37 77  1  0  0  0  0
 37 88  2  0  0  0  0
 38 69  1  0  0  0  0
 38 82  1  0  0  0  0
 38 89  2  0  0  0  0
 39 42  1  0  0  0  0
 40 49  1  0  0  0  0
 41 77  1  0  0  0  0
 42 44  1  0  0  0  0
 43 45  1  0  0  0  0
 43 46  1  0  0  0  0
 44 48  1  0  0  0  0
 45 50  1  0  0  0  0
 46 78  1  0  0  0  0
 47 50  1  0  0  0  0
 47 78  1  0  0  0  0
 48 81  1  0  0  0  0
 49 77  1  0  0  0  0
 50 76  1  0  0  0  0
 52 67  1  0  0  0  0
 53 69  1  0  0  0  0
 54 70  1  0  0  0  0
 55 70  1  0  0  0  0
 56 71  1  0  0  0  0
 57 71  1  0  0  0  0
 58 72  1  0  0  0  0
 59 72  1  0  0  0  0
 60 72  1  0  0  0  0
 61 73  1  0  0  0  0
 62 74  1  0  0  0  0
 63 83  1  0  0  0  0
 64 65  1  0  0  0  0
 66 73  1  0  0  0  0
 66 84  1  0  0  0  0
 67 84  1  0  0  0  0
 68 72  1  0  0  0  0
 68 82  1  0  0  0  0
 69 83  1  0  0  0  0
 70 73  1  0  0  0  0
 71 74  1  0  0  0  0
 73 74  1  0  0  0  0
 74 91  1  0  0  0  0
 75 76  1  0  0  0  0
M  CHG  2  83   1  84   1
M  ISO  4  36 100  65 100  74 101  91 101
M  END
> <Batch ID>
0078

> <Smiles>
CNC(C)C(=O)NC(C(=O)N1Cc2cc([101O:1][101C:1](C)(C(C)C)C(C)(CNC(C)c3ccc(C[100CH2:0][100C:0](=O)N4CCCC(n5nc(-c6ccc(Oc7ccc(F)cc7F)cc6)c(C(N)=O)c5N)C4)cc3C)C(C)C)ccc2CC1C(=O)NC1CCCc2ccccc21)C(C)(C)C

> <Shape>
0.242

> <Color>
0.188

> <Negative vol penalty>
0.000

$$$$

  -OEChem-04052318393D

 84 92  0     1  0  0  0  0  0999 V2000
  -25.2525  -29.1150   20.6460 C   0  0  0  0  0  0  0  0  0  0  0  0
  -24.9402  -27.7595   20.6215 C   0  0  0  0  0  0  0  0  0  0  0  0
  -28.7553  -19.5038   25.2207 C   0  0  0  0  0  0  0  0  0  0  0  0
  -30.7830  -18.4414   25.9932 C   0  0  0  0  0  0  0  0  0  0  0  0
  -26.4630  -29.5599   20.1165 C   0  0  0  0  0  0  0  0  0  0  0  0
  -25.8379  -26.8483   20.0664 C   0  0  0  0  0  0  0  0  0  0  0  0
  -26.8715  -21.1036   21.9201 C   0  0  0  0  0  0  0  0  0  0  0  0
  -29.1059  -20.6689   25.9027 C   0  0  0  0  0  0  0  0  0  0  0  0
  -31.1336  -19.6065   26.6753 C   0  0  0  0  0  0  0  0  0  0  0  0
  -26.4053  -19.8720   21.4622 C   0  0  0  0  0  0  0  0  0  0  0  0
  -29.0261  -21.8131   29.0822 C   0  0  0  0  0  0  0  0  0  0  0  0
  -28.0346  -22.4491   29.8292 C   0  0  0  0  0  0  0  0  0  0  0  0
  -28.4067  -19.6126   20.1407 C   0  0  0  0  0  0  0  0  0  0  0  0
  -28.2987  -24.4393   28.4851 C   0  0  0  0  0  0  0  0  0  0  0  0
  -29.5938  -18.3900   25.2660 C   0  0  0  0  0  0  0  0  0  0  0  0
  -28.0792  -16.4016   24.7563 C   0  0  0  0  0  0  0  0  0  0  0  0
  -27.3803  -28.6526   19.5633 C   0  0  0  0  0  0  0  0  0  0  0  0
  -28.1059  -21.6048   21.4826 C   0  0  0  0  0  0  0  0  0  0  0  0
  -27.0613  -27.2817   19.5277 C   0  0  0  0  0  0  0  0  0  0  0  0
  -28.8875  -20.8496   20.5966 C   0  0  0  0  0  0  0  0  0  0  0  0
  -30.2950  -20.7203   26.6300 C   0  0  0  0  0  0  0  0  0  0  0  0
  -27.1716  -19.1276   20.5701 C   0  0  0  0  0  0  0  0  0  0  0  0
  -29.6539  -22.4902   28.0367 C   0  0  0  0  0  0  0  0  0  0  0  0
  -27.6709  -23.7622   29.5307 C   0  0  0  0  0  0  0  0  0  0  0  0
  -29.2902  -23.8033   27.7381 C   0  0  0  0  0  0  0  0  0  0  0  0
  -29.2319  -17.1859   24.5621 C   0  0  0  0  0  0  0  0  0  0  0  0
  -24.5301  -12.4549   21.5624 C   0  0  0  0  0  0  0  0  0  0  0  0
  -24.3952  -13.1316   20.3763 C   0  0  0  0  0  0  0  0  0  0  0  0
  -28.2039  -15.3775   23.8495 C   0  0  0  0  0  0  0  0  0  0  0  0
  -26.9927  -16.5826   25.6742 C   0  0  0  0  0  0  0  0  0  0  0  0
  -29.0355  -24.1762   19.8617 C   0  0  0  0  0  0  0  0  0  0  0  0
  -32.0016  -23.0699   20.5691 C   0  0  0  0  0  0  0  0  0  0  0  0
  -33.9846  -20.4164   21.3898 C   0  0  0  0  0  0  0  0  0  0  0  0
  -29.4231  -13.5371   18.7239 C   0  0  0  0  0  0  0  0  0  0  0  0
  -28.6555  -29.1862   18.9602 C   0  0  0  0  0  0  0  0  0  0  0  0
  -28.6068  -22.9227   22.0066 C   0  0  0  0  0  0  0  0  0  0  0  0
  -30.2289  -21.3338   20.1122 C   0  0  0  0  0  0  0  0  0  0  0  0
  -29.7157  -28.1126   18.7288 C   0  0  0  0  0  0  0  0  0  0  0  0
  -32.1334  -13.9710   20.9917 C   0  0  0  0  0  0  0  0  0  0  0  0
  -29.0978  -26.8867   18.0640 C   0  0  0  0  0  0  0  0  0  0  0  0
  -31.5268  -14.7863   22.1350 C   0  0  0  0  0  0  0  0  0  0  0  0
  -31.5632  -14.3869   19.6375 C   0  0  0  0  0  0  0  0  0  0  0  0
  -29.4842  -15.1814   20.6960 C   0  0  0  0  0  0  0  0  0  0  0  0
  -28.0200  -26.2595   18.9565 C   0  0  1  0  0  0  0  0  0  0  0  0
  -29.6438  -23.5726   21.0959 C   0  0  1  0  0  0  0  0  0  0  0  0
  -29.9872  -14.7597   22.0873 C   0  0  2  0  0  0  0  0  0  0  0  0
  -23.7524  -12.5866   22.8019 C   0  0  0  0  0  0  0  0  0  0  0  0
  -36.3741  -19.8159   21.8664 C   0  0  0  0  0  0  0  0  0  0  0  0
  -24.8632  -12.1195   17.2464 C   0  0  0  0  0  0  0  0  0  0  0  0
  -32.6297  -23.2121   17.5866 C   0  0  0  0  0  0  0  0  0  0  0  0
  -34.6145  -21.7447   18.0056 C   0  0  0  0  0  0  0  0  0  0  0  0
  -34.4779  -23.9918   19.0802 C   0  0  0  0  0  0  0  0  0  0  0  0
  -33.3327  -19.5158   24.1326 C   0  0  0  0  0  0  0  0  0  0  0  0
  -23.4471  -14.2112   19.9186 C   0  0  0  0  0  0  0  0  0  0  0  0
  -23.7786  -15.6016   20.4719 C   0  0  0  0  0  0  0  0  0  0  0  0
  -25.1380  -16.1236   20.0045 C   0  0  0  0  0  0  0  0  0  0  0  0
  -27.2025  -12.7646   17.9296 C   0  0  0  0  0  0  0  0  0  0  0  0
  -25.4497  -17.4876   20.6051 C   0  0  0  0  0  0  0  0  0  1  0  0
  -32.9788  -22.1303   19.9048 C   0  0  1  0  0  0  0  0  0  0  0  0
  -35.0430  -20.2441   22.4643 C   0  0  2  0  0  0  0  0  0  0  0  0
  -25.7054  -12.9379   18.2310 C   0  0  2  0  0  0  0  0  0  0  0  0
  -33.6491  -22.7612   18.6518 C   0  0  0  0  0  0  0  0  0  0  0  0
  -30.0303  -16.7016   23.6071 N   0  0  0  0  0  0  0  0  0  0  0  0
  -25.5588  -11.5594   21.4661 N   0  0  0  0  0  0  0  0  0  0  0  0
  -26.0741  -11.6593   20.2456 N   0  0  0  0  0  0  0  0  0  0  0  0
  -25.3751  -12.6026   19.5938 N   0  0  0  0  0  0  0  0  0  0  0  0
  -29.3782  -15.6018   23.1932 N   0  0  0  0  0  0  0  0  0  0  0  0
  -30.6723  -22.6312   20.6484 N   0  0  0  0  0  0  0  0  0  0  0  0
  -30.0992  -14.3386   19.6586 N   0  0  0  0  0  0  0  0  0  0  0  0
  -27.4226  -14.3160   23.5577 N   0  0  0  0  0  0  0  0  0  0  0  0
  -25.8875  -17.3388   25.2606 N   0  0  0  0  0  0  0  0  0  0  0  0
  -28.6293  -25.4877   20.0183 N   0  0  0  0  0  0  0  0  0  0  0  0
  -33.9188  -21.7188   20.9419 N   0  0  0  0  0  0  0  0  0  0  0  0
  -28.0368  -13.5435   18.8173 N   0  0  0  0  0  0  0  0  0  0  0  0
  -34.6167  -19.2112   23.4504 N   0  3  0  0  0  0  0  0  0  0  0  0
  -27.0089  -16.1021   26.8328 O   0  0  0  0  0  0  0  0  0  0  0  0
  -28.9430  -23.5025   18.8423 O   0  0  0  0  0  0  0  0  0  0  0  0
  -32.4044  -24.1500   21.0081 O   0  0  0  0  0  0  0  0  0  0  0  0
  -33.2887  -19.4876   20.9854 O   0  0  0  0  0  0  0  0  0  0  0  0
  -30.0116  -12.8615   17.8730 O   0  0  0  0  0  0  0  0  0  0  0  0
  -30.6376  -21.8571   27.2955 O   0  0  0  0  0  0  0  0  0  0  0  0
  -26.7187  -17.9255   20.1211 O   0  0  0  0  0  0  0  0  0  1  0  0
  -26.7177  -24.3723   30.2471 F   0  0  0  0  0  0  0  0  0  0  0  0
  -29.8890  -24.4585   26.7342 F   0  0  0  0  0  0  0  0  0  0  0  0
  1  2  1  0  0  0  0
  1  5  2  0  0  0  0
  2  6  2  0  0  0  0
  3  8  2  0  0  0  0
  3 15  1  0  0  0  0
  4  9  1  0  0  0  0
  4 15  2  0  0  0  0
  5 17  1  0  0  0  0
  6 19  1  0  0  0  0
  7 10  2  0  0  0  0
  7 18  1  0  0  0  0
  8 21  1  0  0  0  0
  9 21  2  0  0  0  0
 10 22  1  0  0  0  0
 11 12  2  0  0  0  0
 11 23  1  0  0  0  0
 12 24  1  0  0  0  0
 13 20  1  0  0  0  0
 13 22  2  0  0  0  0
 14 24  2  0  0  0  0
 14 25  1  0  0  0  0
 15 26  1  0  0  0  0
 16 26  1  0  0  0  0
 16 29  2  0  0  0  0
 16 30  1  0  0  0  0
 17 19  2  0  0  0  0
 17 35  1  0  0  0  0
 18 20  2  0  0  0  0
 18 36  1  0  0  0  0
 19 44  1  0  0  0  0
 20 37  1  0  0  0  0
 21 81  1  0  0  0  0
 22 82  1  0  0  0  0
 23 25  2  0  0  0  0
 23 81  1  0  0  0  0
 24 83  1  0  0  0  0
 25 84  1  0  0  0  0
 26 63  2  0  0  0  0
 27 28  2  0  0  0  0
 27 47  1  0  0  0  0
 27 64  1  0  0  0  0
 28 54  1  0  0  0  0
 28 66  1  0  0  0  0
 29 67  1  0  0  0  0
 29 70  1  0  0  0  0
 30 71  1  0  0  0  0
 30 76  2  0  0  0  0
 31 45  1  0  0  0  0
 31 72  1  0  0  0  0
 31 77  2  0  0  0  0
 32 59  1  0  0  0  0
 32 68  1  0  0  0  0
 32 78  2  0  0  0  0
 33 60  1  0  0  0  0
 33 73  1  0  0  0  0
 33 79  2  0  0  0  0
 34 69  1  0  0  0  0
 34 74  1  0  0  0  0
 34 80  2  0  0  0  0
 35 38  1  0  0  0  0
 36 45  1  0  0  0  0
 37 68  1  0  0  0  0
 38 40  1  0  0  0  0
 39 41  1  0  0  0  0
 39 42  1  0  0  0  0
 40 44  1  0  0  0  0
 41 46  1  0  0  0  0
 42 69  1  0  0  0  0
 43 46  1  0  0  0  0
 43 69  1  0  0  0  0
 44 72  1  0  0  0  0
 45 68  1  0  0  0  0
 46 67  1  0  0  0  0
 48 60  1  0  0  0  0
 49 61  1  0  0  0  0
 50 62  1  0  0  0  0
 51 62  1  0  0  0  0
 52 62  1  0  0  0  0
 53 75  1  0  0  0  0
 54 55  1  0  0  0  0
 55 56  1  0  0  0  0
 56 58  1  0  0  0  0
 57 61  1  0  0  0  0
 57 74  1  0  0  0  0
 58 82  1  0  0  0  0
 59 62  1  0  0  0  0
 59 73  1  0  0  0  0
 60 75  1  0  0  0  0
 61 66  1  0  0  0  0
 63 67  1  0  0  0  0
 64 65  2  0  0  0  0
 65 66  1  0  0  0  0
M  CHG  1  75   1
M  ISO  4  34 100  58 101  74 100  82 101
M  END
> <Batch ID>
0078

> <Smiles>
CNC(C)C(=O)NC(C(=O)N1Cc2cc([101O:1][101CH2:1]CCCc3c(C)nnn3C(C)C[100NH:0][100C:0](=O)N3CCCC(n4nc(-c5ccc(Oc6ccc(F)cc6F)cc5)c(C(N)=O)c4N)C3)ccc2CC1C(=O)NC1CCCc2ccccc21)C(C)(C)C

> <Shape>
0.174

> <Color>
0.074

> <Negative vol penalty>
0.000

$$$$

  -OEChem-04052318393D

 86 94  0     1  0  0  0  0  0999 V2000
  -31.8169  -18.5739   23.0006 C   0  0  0  0  0  0  0  0  0  0  0  0
  -30.6250  -19.2860   22.9129 C   0  0  0  0  0  0  0  0  0  0  0  0
  -28.5758  -26.0426   19.9402 C   0  0  0  0  0  0  0  0  0  0  0  0
  -26.4976  -25.4005   18.8885 C   0  0  0  0  0  0  0  0  0  0  0  0
  -31.9298  -17.3275   22.3860 C   0  0  0  0  0  0  0  0  0  0  0  0
  -29.5455  -18.7525   22.2096 C   0  0  0  0  0  0  0  0  0  0  0  0
  -23.6033  -19.3890   23.5478 C   0  0  0  0  0  0  0  0  0  0  0  0
  -29.0497  -24.7382   19.8000 C   0  0  0  0  0  0  0  0  0  0  0  0
  -26.9716  -24.0962   18.7483 C   0  0  0  0  0  0  0  0  0  0  0  0
  -22.6166  -20.2411   23.0538 C   0  0  0  0  0  0  0  0  0  0  0  0
  -30.9454  -21.6632   19.3930 C   0  0  0  0  0  0  0  0  0  0  0  0
  -32.2495  -21.4935   18.9281 C   0  0  0  0  0  0  0  0  0  0  0  0
  -21.9012  -18.5168   21.5259 C   0  0  0  0  0  0  0  0  0  0  0  0
  -31.6710  -22.6453   16.8846 C   0  0  0  0  0  0  0  0  0  0  0  0
  -27.2997  -26.3737   19.4845 C   0  0  0  0  0  0  0  0  0  0  0  0
  -26.9468  -28.7790   18.7113 C   0  0  0  0  0  0  0  0  0  0  0  0
  -30.8480  -16.7742   21.6831 C   0  0  0  0  0  0  0  0  0  0  0  0
  -23.7537  -18.0960   23.0262 C   0  0  0  0  0  0  0  0  0  0  0  0
  -29.6445  -17.4981   21.5840 C   0  0  0  0  0  0  0  0  0  0  0  0
  -22.8889  -17.6494   22.0169 C   0  0  0  0  0  0  0  0  0  0  0  0
  -20.8422  -25.4723   22.4620 C   0  0  0  0  0  0  0  0  0  0  0  0
  -28.2477  -23.7650   19.2040 C   0  0  0  0  0  0  0  0  0  0  0  0
  -21.7672  -19.8061   22.0407 C   0  0  0  0  0  0  0  0  0  0  0  0
  -30.0040  -22.3239   18.6036 C   0  0  0  0  0  0  0  0  0  0  0  0
  -32.6123  -21.9846   17.6740 C   0  0  0  0  0  0  0  0  0  0  0  0
  -30.3669  -22.8149   17.3495 C   0  0  0  0  0  0  0  0  0  0  0  0
  -26.8093  -27.7208   19.6295 C   0  0  0  0  0  0  0  0  0  0  0  0
  -20.9443  -25.6545   23.8541 C   0  0  0  0  0  0  0  0  0  0  0  0
  -20.1100  -26.5501   22.0274 C   0  0  0  0  0  0  0  0  0  0  0  0
  -26.3140  -29.8395   19.3124 C   0  0  0  0  0  0  0  0  0  0  0  0
  -27.5891  -28.8013   17.4297 C   0  0  0  0  0  0  0  0  0  0  0  0
  -26.0749  -16.5472   21.5041 C   0  0  0  0  0  0  0  0  0  0  0  0
  -24.0724  -14.0169   21.8359 C   0  0  0  0  0  0  0  0  0  0  0  0
  -20.8825  -12.8840   22.2698 C   0  0  0  0  0  0  0  0  0  0  0  0
  -21.9726  -30.2017   23.4200 C   0  0  0  0  0  0  0  0  0  0  0  0
  -31.0330  -15.4447   20.9953 C   0  0  0  0  0  0  0  0  0  0  0  0
  -24.8057  -17.1798   23.5886 C   0  0  0  0  0  0  0  0  0  0  0  0
  -22.9957  -16.2634   21.4370 C   0  0  0  0  0  0  0  0  0  0  0  0
  -29.7198  -14.7827   20.5860 C   0  0  0  0  0  0  0  0  0  0  0  0
  -25.2397  -31.6014   23.6290 C   0  0  0  0  0  0  0  0  0  0  0  0
  -28.8035  -15.7924   19.9020 C   0  0  0  0  0  0  0  0  0  0  0  0
  -26.0248  -30.8610   22.5448 C   0  0  0  0  0  0  0  0  0  0  0  0
  -24.2296  -30.6867   24.3183 C   0  0  0  0  0  0  0  0  0  0  0  0
  -24.0896  -29.2472   22.3229 C   0  0  0  0  0  0  0  0  0  0  0  0
  -28.4431  -16.9417   20.8510 C   0  0  1  0  0  0  0  0  0  0  0  0
  -25.2016  -16.0634   22.6271 C   0  0  1  0  0  0  0  0  0  0  0  0
  -25.0816  -30.1427   21.5611 C   0  0  2  0  0  0  0  0  0  0  0  0
  -21.6288  -24.7893   24.8310 C   0  0  0  0  0  0  0  0  0  0  0  0
  -19.6593  -26.9412   20.6783 C   0  0  0  0  0  0  0  0  0  0  0  0
  -19.5545  -10.7637   22.4647 C   0  0  0  0  0  0  0  0  0  0  0  0
  -20.8165  -21.8900   19.5099 C   0  0  0  0  0  0  0  0  0  0  0  0
  -24.3074  -13.5956   18.8231 C   0  0  0  0  0  0  0  0  0  0  0  0
  -22.2821  -12.1284   18.9405 C   0  0  0  0  0  0  0  0  0  0  0  0
  -24.3535  -11.4935   20.1771 C   0  0  0  0  0  0  0  0  0  0  0  0
  -17.6222  -28.3873   22.6905 C   0  0  0  0  0  0  0  0  0  0  0  0
  -18.9840  -28.9677   24.6816 C   0  0  0  0  0  0  0  0  0  0  0  0
  -19.9575  -13.5770   24.9943 C   0  0  0  0  0  0  0  0  0  0  0  0
  -21.4074  -24.3480   21.6313 C   0  0  0  0  0  0  0  0  0  0  0  0
  -20.6182  -23.0357   21.7465 C   0  0  0  0  0  0  0  0  0  0  0  0
  -19.7835  -29.6378   22.3956 C   0  0  0  0  0  0  0  0  0  0  0  0
  -22.9529  -13.4246   21.0144 C   0  0  1  0  0  0  0  0  0  0  0  0
  -20.3002  -11.8530   23.2197 C   0  0  2  0  0  0  0  0  0  0  0  0
  -21.2373  -21.8645   20.9738 C   0  0  1  0  0  0  0  0  0  1  0  0
  -23.4730  -12.6874   19.7481 C   0  0  0  0  0  0  0  0  0  0  0  0
  -19.0772  -28.5157   23.2044 C   0  0  0  0  0  0  0  0  0  0  0  0
  -26.1417  -28.0767   20.7303 N   0  0  0  0  0  0  0  0  0  0  0  0
  -20.3265  -26.7611   24.2760 N   0  0  0  0  0  0  0  0  0  0  0  0
  -19.8293  -27.2839   23.1422 N   0  0  0  0  0  0  0  0  0  0  0  0
  -25.8542  -29.3705   20.5077 N   0  0  0  0  0  0  0  0  0  0  0  0
  -24.0442  -15.4071   22.0157 N   0  0  0  0  0  0  0  0  0  0  0  0
  -23.3647  -30.0375   23.3302 N   0  0  0  0  0  0  0  0  0  0  0  0
  -26.1117  -31.1183   18.9299 N   0  0  0  0  0  0  0  0  0  0  0  0
  -28.1898  -27.6243   16.9628 N   0  0  0  0  0  0  0  0  0  0  0  0
  -27.4263  -16.5210   21.7910 N   0  0  0  0  0  0  0  0  0  0  0  0
  -22.1822  -12.5818   21.9223 N   0  0  0  0  0  0  0  0  0  0  0  0
  -21.2266  -29.5580   22.4402 N   0  0  0  0  0  0  0  0  0  0  0  0
  -19.3513  -12.5008   24.1689 N   0  3  0  0  0  0  0  0  0  0  0  0
  -27.6433  -29.8388   16.7267 O   0  0  0  0  0  0  0  0  0  0  0  0
  -25.5607  -16.9154   20.4545 O   0  0  0  0  0  0  0  0  0  0  0  0
  -24.9360  -13.2726   22.3069 O   0  0  0  0  0  0  0  0  0  0  0  0
  -20.2467  -13.8580   21.8726 O   0  0  0  0  0  0  0  0  0  0  0  0
  -21.4347  -30.8765   24.3044 O   0  0  0  0  0  0  0  0  0  0  0  0
  -28.7099  -22.4922   19.0668 O   0  0  0  0  0  0  0  0  0  0  0  0
  -20.8037  -20.6360   21.5561 O   0  0  0  0  0  0  0  0  0  1  0  0
  -33.8651  -21.8229   17.2284 F   0  0  0  0  0  0  0  0  0  0  0  0
  -29.4672  -23.4515   16.5871 F   0  0  0  0  0  0  0  0  0  0  0  0
  1  2  1  0  0  0  0
  1  5  2  0  0  0  0
  2  6  2  0  0  0  0
  3  8  2  0  0  0  0
  3 15  1  0  0  0  0
  4  9  1  0  0  0  0
  4 15  2  0  0  0  0
  5 17  1  0  0  0  0
  6 19  1  0  0  0  0
  7 10  2  0  0  0  0
  7 18  1  0  0  0  0
  8 22  1  0  0  0  0
  9 22  2  0  0  0  0
 10 23  1  0  0  0  0
 11 12  2  0  0  0  0
 11 24  1  0  0  0  0
 12 25  1  0  0  0  0
 13 20  1  0  0  0  0
 13 23  2  0  0  0  0
 14 25  2  0  0  0  0
 14 26  1  0  0  0  0
 15 27  1  0  0  0  0
 16 27  1  0  0  0  0
 16 30  2  0  0  0  0
 16 31  1  0  0  0  0
 17 19  2  0  0  0  0
 17 36  1  0  0  0  0
 18 20  2  0  0  0  0
 18 37  1  0  0  0  0
 19 45  1  0  0  0  0
 20 38  1  0  0  0  0
 21 28  1  0  0  0  0
 21 29  2  0  0  0  0
 21 58  1  0  0  0  0
 22 83  1  0  0  0  0
 23 84  1  0  0  0  0
 24 26  2  0  0  0  0
 24 83  1  0  0  0  0
 25 85  1  0  0  0  0
 26 86  1  0  0  0  0
 27 66  2  0  0  0  0
 28 48  1  0  0  0  0
 28 67  2  0  0  0  0
 29 49  1  0  0  0  0
 29 68  1  0  0  0  0
 30 69  1  0  0  0  0
 30 72  1  0  0  0  0
 31 73  1  0  0  0  0
 31 78  2  0  0  0  0
 32 46  1  0  0  0  0
 32 74  1  0  0  0  0
 32 79  2  0  0  0  0
 33 61  1  0  0  0  0
 33 70  1  0  0  0  0
 33 80  2  0  0  0  0
 34 62  1  0  0  0  0
 34 75  1  0  0  0  0
 34 81  2  0  0  0  0
 35 71  1  0  0  0  0
 35 76  1  0  0  0  0
 35 82  2  0  0  0  0
 36 39  1  0  0  0  0
 37 46  1  0  0  0  0
 38 70  1  0  0  0  0
 39 41  1  0  0  0  0
 40 42  1  0  0  0  0
 40 43  1  0  0  0  0
 41 45  1  0  0  0  0
 42 47  1  0  0  0  0
 43 71  1  0  0  0  0
 44 47  1  0  0  0  0
 44 71  1  0  0  0  0
 45 74  1  0  0  0  0
 46 70  1  0  0  0  0
 47 69  1  0  0  0  0
 50 62  1  0  0  0  0
 51 63  1  0  0  0  0
 52 64  1  0  0  0  0
 53 64  1  0  0  0  0
 54 64  1  0  0  0  0
 55 65  1  0  0  0  0
 56 65  1  0  0  0  0
 57 77  1  0  0  0  0
 58 59  1  0  0  0  0
 59 63  1  0  0  0  0
 60 65  1  0  0  0  0
 60 76  1  0  0  0  0
 61 64  1  0  0  0  0
 61 75  1  0  0  0  0
 62 77  1  0  0  0  0
 63 84  1  0  0  0  0
 65 68  1  0  0  0  0
 66 69  1  0  0  0  0
 67 68  1  0  0  0  0
M  CHG  1  77   1
M  ISO  4  35 100  63 101  76 100  84 101
M  END
> <Batch ID>
0078

> <Smiles>
CNC(C)C(=O)NC(C(=O)N1Cc2cc([101O:1][101CH:1](C)CCc3c(C)nn(C(C)(C)C[100NH:0][100C:0](=O)N4CCCC(n5nc(-c6ccc(Oc7ccc(F)cc7F)cc6)c(C(N)=O)c5N)C4)c3C)ccc2CC1C(=O)NC1CCCc2ccccc21)C(C)(C)C

> <Shape>
0.234

> <Color>
0.062

> <Negative vol penalty>
0.000

$$$$

  -OEChem-04052318393D

 85 93  0     1  0  0  0  0  0999 V2000
  -20.6093  -18.9810   24.3755 C   0  0  0  0  0  0  0  0  0  0  0  0
  -21.9088  -19.3075   24.0013 C   0  0  0  0  0  0  0  0  0  0  0  0
  -20.8250  -27.0841   19.8128 C   0  0  0  0  0  0  0  0  0  0  0  0
  -21.6923  -25.8501   21.7002 C   0  0  0  0  0  0  0  0  0  0  0  0
  -20.2891  -17.6638   24.7017 C   0  0  0  0  0  0  0  0  0  0  0  0
  -22.8893  -18.3171   23.9542 C   0  0  0  0  0  0  0  0  0  0  0  0
  -25.7364  -18.5994   19.7758 C   0  0  0  0  0  0  0  0  0  0  0  0
  -19.6064  -26.4168   19.9364 C   0  0  0  0  0  0  0  0  0  0  0  0
  -20.4736  -25.1828   21.8238 C   0  0  0  0  0  0  0  0  0  0  0  0
  -26.7314  -19.5756   19.7481 C   0  0  0  0  0  0  0  0  0  0  0  0
  -18.8728  -22.6182   20.3102 C   0  0  0  0  0  0  0  0  0  0  0  0
  -18.9069  -21.2380   20.5085 C   0  0  0  0  0  0  0  0  0  0  0  0
  -28.3780  -17.9048   20.3106 C   0  0  0  0  0  0  0  0  0  0  0  0
  -30.4051  -22.7787   20.8774 C   0  0  0  0  0  0  0  0  0  0  0  0
  -17.7462  -21.5112   22.6097 C   0  0  0  0  0  0  0  0  0  0  0  0
  -21.8680  -26.8007   20.6946 C   0  0  0  0  0  0  0  0  0  0  0  0
  -23.5019  -28.6974   21.1851 C   0  0  0  0  0  0  0  0  0  0  0  0
  -21.2639  -16.6550   24.6492 C   0  0  0  0  0  0  0  0  0  0  0  0
  -26.0536  -17.2683   20.0824 C   0  0  0  0  0  0  0  0  0  0  0  0
  -22.5822  -16.9854   24.2813 C   0  0  0  0  0  0  0  0  0  0  0  0
  -27.3856  -16.9131   20.3391 C   0  0  0  0  0  0  0  0  0  0  0  0
  -31.5242  -23.6028   20.8348 C   0  0  0  0  0  0  0  0  0  0  0  0
  -32.0287  -24.0179   19.6073 C   0  0  0  0  0  0  0  0  0  0  0  0
  -19.4307  -25.4662   20.9419 C   0  0  0  0  0  0  0  0  0  0  0  0
  -28.0520  -19.2289   20.0183 C   0  0  0  0  0  0  0  0  0  0  0  0
  -18.2754  -23.4450   21.2617 C   0  0  0  0  0  0  0  0  0  0  0  0
  -18.3436  -20.6844   21.6582 C   0  0  0  0  0  0  0  0  0  0  0  0
  -17.7121  -22.8915   22.4114 C   0  0  0  0  0  0  0  0  0  0  0  0
  -23.1273  -27.4893   20.5671 C   0  0  0  0  0  0  0  0  0  0  0  0
  -29.8319  -22.4008   19.6739 C   0  0  0  0  0  0  0  0  0  0  0  0
  -31.3829  -23.5843   18.4607 C   0  0  0  0  0  0  0  0  0  0  0  0
  -24.7833  -28.9247   20.7459 C   0  0  0  0  0  0  0  0  0  0  0  0
  -22.7582  -29.5389   22.0764 C   0  0  0  0  0  0  0  0  0  0  0  0
  -25.2342  -15.2414   22.3897 C   0  0  0  0  0  0  0  0  0  0  0  0
  -26.9135  -13.1261   20.5931 C   0  0  0  0  0  0  0  0  0  0  0  0
  -29.3449  -12.5974   18.2573 C   0  0  0  0  0  0  0  0  0  0  0  0
  -29.8662  -27.1429   19.7779 C   0  0  0  0  0  0  0  0  0  0  0  0
  -20.8814  -15.2541   25.0563 C   0  0  0  0  0  0  0  0  0  0  0  0
  -24.9728  -16.2222   20.0820 C   0  0  0  0  0  0  0  0  0  0  0  0
  -27.7814  -15.4944   20.6536 C   0  0  0  0  0  0  0  0  0  0  0  0
  -21.8909  -14.1957   24.6192 C   0  0  0  0  0  0  0  0  0  0  0  0
  -27.4706  -26.6569   17.1090 C   0  0  0  0  0  0  0  0  0  0  0  0
  -23.3114  -14.6459   24.9452 C   0  0  0  0  0  0  0  0  0  0  0  0
  -26.1506  -26.9330   17.8312 C   0  0  0  0  0  0  0  0  0  0  0  0
  -28.4535  -25.9218   18.0155 C   0  0  0  0  0  0  0  0  0  0  0  0
  -27.4142  -26.8860   20.0314 C   0  0  0  0  0  0  0  0  0  0  0  0
  -23.6676  -15.9346   24.1942 C   0  0  1  0  0  0  0  0  0  0  0  0
  -25.3310  -14.9927   20.9110 C   0  0  1  0  0  0  0  0  0  0  0  0
  -26.3859  -27.6474   19.1752 C   0  0  2  0  0  0  0  0  0  0  0  0
  -31.8773  -23.9982   17.1132 C   0  0  0  0  0  0  0  0  0  0  0  0
  -32.6116  -22.8330   22.9588 C   0  0  0  0  0  0  0  0  0  0  0  0
  -34.4808  -24.2073   20.1005 C   0  0  0  0  0  0  0  0  0  0  0  0
  -30.5190  -10.7584   17.0176 C   0  0  0  0  0  0  0  0  0  0  0  0
  -28.5280  -12.4715   23.0980 C   0  0  0  0  0  0  0  0  0  0  0  0
  -30.2412  -11.3904   21.6268 C   0  0  0  0  0  0  0  0  0  0  0  0
  -27.9169  -10.4879   21.7028 C   0  0  0  0  0  0  0  0  0  0  0  0
  -28.4263  -13.6201   15.6364 C   0  0  0  0  0  0  0  0  0  0  0  0
  -32.1647  -24.0239   22.1160 C   0  0  0  0  0  0  0  0  0  0  0  0
  -28.6222  -21.5130   19.6813 C   0  0  0  0  0  0  0  0  0  1  0  0
  -33.0437  -26.2801   20.2349 C   0  0  0  0  0  0  0  0  0  0  0  0
  -32.3103  -27.3204   19.3881 C   0  0  0  0  0  0  0  0  0  0  0  0
  -33.2263  -24.9040   19.5309 C   0  0  2  0  0  0  0  0  0  0  0  0
  -28.3558  -12.6847   20.5308 C   0  0  1  0  0  0  0  0  0  0  0  0
  -29.3651  -11.7489   16.9987 C   0  0  2  0  0  0  0  0  0  0  0  0
  -28.7531  -11.7858   21.7356 C   0  0  0  0  0  0  0  0  0  0  0  0
  -24.0925  -26.9845   19.7941 N   0  0  0  0  0  0  0  0  0  0  0  0
  -30.2935  -22.7837   18.4624 N   0  0  0  0  0  0  0  0  0  0  0  0
  -25.0863  -27.8798   19.9234 N   0  0  0  0  0  0  0  0  0  0  0  0
  -26.6877  -14.5088   20.6474 N   0  0  0  0  0  0  0  0  0  0  0  0
  -28.6475  -26.6634   19.2695 N   0  0  0  0  0  0  0  0  0  0  0  0
  -25.6692  -29.9145   20.9869 N   0  0  0  0  0  0  0  0  0  0  0  0
  -21.4554  -29.1571   22.4245 N   0  0  0  0  0  0  0  0  0  0  0  0
  -23.9813  -15.6436   22.8117 N   0  0  0  0  0  0  0  0  0  0  0  0
  -28.5329  -12.0511   19.2286 N   0  0  0  0  0  0  0  0  0  0  0  0
  -30.9875  -26.8844   18.9991 N   0  0  0  0  0  0  0  0  0  0  0  0
  -29.5076  -12.6136   15.7933 N   0  3  0  0  0  0  0  0  0  0  0  0
  -23.2289  -30.6064   22.5372 O   0  0  0  0  0  0  0  0  0  0  0  0
  -26.2225  -15.0788   23.0957 O   0  0  0  0  0  0  0  0  0  0  0  0
  -26.0200  -12.2758   20.5864 O   0  0  0  0  0  0  0  0  0  0  0  0
  -29.9882  -13.6387   18.3691 O   0  0  0  0  0  0  0  0  0  0  0  0
  -29.9483  -27.7609   20.8448 O   0  0  0  0  0  0  0  0  0  0  0  0
  -18.2416  -24.8150   21.0630 O   0  0  0  0  0  0  0  0  0  0  0  0
  -29.0250  -20.1799   19.9926 O   0  0  0  0  0  0  0  0  0  1  0  0
  -18.3751  -19.3588   21.8478 F   0  0  0  0  0  0  0  0  0  0  0  0
  -17.1357  -23.6805   23.3285 F   0  0  0  0  0  0  0  0  0  0  0  0
  1  2  1  0  0  0  0
  1  5  2  0  0  0  0
  2  6  2  0  0  0  0
  3  8  2  0  0  0  0
  3 16  1  0  0  0  0
  4  9  1  0  0  0  0
  4 16  2  0  0  0  0
  5 18  1  0  0  0  0
  6 20  1  0  0  0  0
  7 10  2  0  0  0  0
  7 19  1  0  0  0  0
  8 24  1  0  0  0  0
  9 24  2  0  0  0  0
 10 25  1  0  0  0  0
 11 12  2  0  0  0  0
 11 26  1  0  0  0  0
 12 27  1  0  0  0  0
 13 21  1  0  0  0  0
 13 25  2  0  0  0  0
 14 22  1  0  0  0  0
 14 30  2  0  0  0  0
 15 27  2  0  0  0  0
 15 28  1  0  0  0  0
 16 29  1  0  0  0  0
 17 29  1  0  0  0  0
 17 32  2  0  0  0  0
 17 33  1  0  0  0  0
 18 20  2  0  0  0  0
 18 38  1  0  0  0  0
 19 21  2  0  0  0  0
 19 39  1  0  0  0  0
 20 47  1  0  0  0  0
 21 40  1  0  0  0  0
 22 23  2  0  0  0  0
 22 58  1  0  0  0  0
 23 31  1  0  0  0  0
 23 62  1  0  0  0  0
 24 82  1  0  0  0  0
 25 83  1  0  0  0  0
 26 28  2  0  0  0  0
 26 82  1  0  0  0  0
 27 84  1  0  0  0  0
 28 85  1  0  0  0  0
 29 66  2  0  0  0  0
 30 59  1  0  0  0  0
 30 67  1  0  0  0  0
 31 50  1  0  0  0  0
 31 67  2  0  0  0  0
 32 68  1  0  0  0  0
 32 71  1  0  0  0  0
 33 72  1  0  0  0  0
 33 77  2  0  0  0  0
 34 48  1  0  0  0  0
 34 73  1  0  0  0  0
 34 78  2  0  0  0  0
 35 63  1  0  0  0  0
 35 69  1  0  0  0  0
 35 79  2  0  0  0  0
 36 64  1  0  0  0  0
 36 74  1  0  0  0  0
 36 80  2  0  0  0  0
 37 70  1  0  0  0  0
 37 75  1  0  0  0  0
 37 81  2  0  0  0  0
 38 41  1  0  0  0  0
 39 48  1  0  0  0  0
 40 69  1  0  0  0  0
 41 43  1  0  0  0  0
 42 44  1  0  0  0  0
 42 45  1  0  0  0  0
 43 47  1  0  0  0  0
 44 49  1  0  0  0  0
 45 70  1  0  0  0  0
 46 49  1  0  0  0  0
 46 70  1  0  0  0  0
 47 73  1  0  0  0  0
 48 69  1  0  0  0  0
 49 68  1  0  0  0  0
 51 58  1  0  0  0  0
 52 62  1  0  0  0  0
 53 64  1  0  0  0  0
 54 65  1  0  0  0  0
 55 65  1  0  0  0  0
 56 65  1  0  0  0  0
 57 76  1  0  0  0  0
 59 83  1  0  0  0  0
 60 61  1  0  0  0  0
 60 62  1  0  0  0  0
 61 75  1  0  0  0  0
 63 65  1  0  0  0  0
 63 74  1  0  0  0  0
 64 76  1  0  0  0  0
 66 68  1  0  0  0  0
M  CHG  1  76   1
M  ISO  4  37 100  59 101  75 100  83 101
M  END
> <Batch ID>
0078

> <Smiles>
CCc1cc([101CH2:1][101O:1]c2ccc3c(c2)CN(C(=O)C(NC(=O)C(C)NC)C(C)(C)C)C(C(=O)NC2CCCc4ccccc42)C3)nc(C)c1C(C)CC[100NH:0][100C:0](=O)N1CCCC(n2nc(-c3ccc(Oc4ccc(F)cc4F)cc3)c(C(N)=O)c2N)C1

> <Shape>
0.232

> <Color>
0.050

> <Negative vol penalty>
0.000

$$$$

  -OEChem-04052318393D

 84 92  0     1  0  0  0  0  0999 V2000
  -16.6962  -29.7334   23.7116 C   0  0  0  0  0  0  0  0  0  0  0  0
  -17.2244  -28.8387   22.7864 C   0  0  0  0  0  0  0  0  0  0  0  0
  -22.7963  -14.8348   20.3781 C   0  0  0  0  0  0  0  0  0  0  0  0
  -24.6666  -13.9374   21.6165 C   0  0  0  0  0  0  0  0  0  0  0  0
  -17.4858  -30.7710   24.2055 C   0  0  0  0  0  0  0  0  0  0  0  0
  -18.5422  -28.9818   22.3537 C   0  0  0  0  0  0  0  0  0  0  0  0
  -24.1732  -25.0974   20.2276 C   0  0  0  0  0  0  0  0  0  0  0  0
  -22.0715  -13.6696   20.6284 C   0  0  0  0  0  0  0  0  0  0  0  0
  -23.9418  -12.7722   21.8669 C   0  0  0  0  0  0  0  0  0  0  0  0
  -25.0854  -25.0085   19.1771 C   0  0  0  0  0  0  0  0  0  0  0  0
  -23.1114   -9.9488   20.2027 C   0  0  0  0  0  0  0  0  0  0  0  0
  -23.7660   -8.7290   20.0317 C   0  0  0  0  0  0  0  0  0  0  0  0
  -26.3803  -26.7915   20.1586 C   0  0  0  0  0  0  0  0  0  0  0  0
  -23.3725   -8.1923   22.3542 C   0  0  0  0  0  0  0  0  0  0  0  0
  -28.0670  -22.9817   20.9972 C   0  0  0  0  0  0  0  0  0  0  0  0
  -24.0939  -14.9687   20.8721 C   0  0  0  0  0  0  0  0  0  0  0  0
  -24.8799  -17.3368   21.4027 C   0  0  0  0  0  0  0  0  0  0  0  0
  -18.8169  -30.9212   23.7859 C   0  0  0  0  0  0  0  0  0  0  0  0
  -24.3521  -26.0430   21.2476 C   0  0  0  0  0  0  0  0  0  0  0  0
  -19.3499  -30.0232   22.8414 C   0  0  0  0  0  0  0  0  0  0  0  0
  -25.4703  -26.8886   21.2223 C   0  0  0  0  0  0  0  0  0  0  0  0
  -22.6442  -12.6384   21.3728 C   0  0  0  0  0  0  0  0  0  0  0  0
  -26.1876  -25.8575   19.1409 C   0  0  0  0  0  0  0  0  0  0  0  0
  -22.5874  -10.2904   21.4495 C   0  0  0  0  0  0  0  0  0  0  0  0
  -23.8965   -7.8507   21.1074 C   0  0  0  0  0  0  0  0  0  0  0  0
  -22.7180   -9.4121   22.5253 C   0  0  0  0  0  0  0  0  0  0  0  0
  -24.8433  -16.1718   20.6133 C   0  0  0  0  0  0  0  0  0  0  0  0
  -28.8716  -22.7408   22.0749 C   0  0  0  0  0  0  0  0  0  0  0  0
  -25.7305  -18.1803   20.7308 C   0  0  0  0  0  0  0  0  0  0  0  0
  -30.0581  -22.3777   20.2416 C   0  0  0  0  0  0  0  0  0  0  0  0
  -24.2053  -17.6304   22.6333 C   0  0  0  0  0  0  0  0  0  0  0  0
  -22.6900  -28.5337   22.3141 C   0  0  0  0  0  0  0  0  0  0  0  0
  -24.9717  -28.5737   24.6194 C   0  0  0  0  0  0  0  0  0  0  0  0
  -28.1440  -27.7499   25.5706 C   0  0  0  0  0  0  0  0  0  0  0  0
  -30.4782  -19.0974   17.9444 C   0  0  0  0  0  0  0  0  0  0  0  0
  -19.6169  -32.0864   24.3120 C   0  0  0  0  0  0  0  0  0  0  0  0
  -23.3734  -26.1081   22.3879 C   0  0  0  0  0  0  0  0  0  0  0  0
  -25.7188  -27.9072   22.3036 C   0  0  0  0  0  0  0  0  0  0  0  0
  -21.1199  -31.9453   24.0854 C   0  0  0  0  0  0  0  0  0  0  0  0
  -27.7097  -17.8465   16.0877 C   0  0  0  0  0  0  0  0  0  0  0  0
  -21.4046  -31.5026   22.6537 C   0  0  0  0  0  0  0  0  0  0  0  0
  -26.7235  -17.3900   17.1643 C   0  0  0  0  0  0  0  0  0  0  0  0
  -29.1564  -17.5813   16.4985 C   0  0  0  0  0  0  0  0  0  0  0  0
  -28.5537  -17.6811   18.8861 C   0  0  0  0  0  0  0  0  0  0  0  0
  -20.7827  -30.1307   22.3664 C   0  0  1  0  0  0  0  0  0  0  0  0
  -23.3780  -27.4557   23.1030 C   0  0  1  0  0  0  0  0  0  0  0  0
  -27.0844  -17.9789   18.5413 C   0  0  2  0  0  0  0  0  0  0  0  0
  -28.6119  -22.8229   23.5145 C   0  0  0  0  0  0  0  0  0  0  0  0
  -32.3786  -23.0075   19.5051 C   0  0  0  0  0  0  0  0  0  0  0  0
  -30.1239  -27.4810   27.0889 C   0  0  0  0  0  0  0  0  0  0  0  0
  -29.3203  -26.6269   18.0248 C   0  0  0  0  0  0  0  0  0  0  0  0
  -25.4435  -31.5074   23.9263 C   0  0  0  0  0  0  0  0  0  0  0  0
  -27.6149  -31.3789   25.1658 C   0  0  0  0  0  0  0  0  0  0  0  0
  -25.4664  -30.9972   26.3744 C   0  0  0  0  0  0  0  0  0  0  0  0
  -27.2442  -25.0749   26.4614 C   0  0  0  0  0  0  0  0  0  0  0  0
  -28.8448  -24.1660   17.7567 C   0  0  0  0  0  0  0  0  0  0  0  0
  -28.3430  -22.8941   18.4555 C   0  0  0  0  0  0  0  0  0  0  0  0
  -31.7006  -20.5796   19.5153 C   0  0  0  0  0  0  0  0  0  0  0  0
  -31.1891  -22.0337   19.3441 C   0  0  1  0  0  0  0  0  0  0  0  0
  -26.3205  -29.2331   24.7774 C   0  0  1  0  0  0  0  0  0  0  0  0
  -28.6787  -27.0866   26.8271 C   0  0  2  0  0  0  0  0  0  0  0  0
  -28.4311  -25.4672   18.4552 C   0  0  2  0  0  0  0  0  0  1  0  0
  -26.2059  -30.7614   25.0394 C   0  0  0  0  0  0  0  0  0  0  0  0
  -25.6096  -16.2633   19.5232 N   0  0  0  0  0  0  0  0  0  0  0  0
  -28.8270  -22.7497   19.8762 N   0  0  0  0  0  0  0  0  0  0  0  0
  -26.1357  -17.4959   19.6227 N   0  0  0  0  0  0  0  0  0  0  0  0
  -30.0974  -22.3686   21.5779 N   0  3  0  0  0  0  0  0  0  0  0  0
  -24.7301  -27.9365   23.3941 N   0  0  0  0  0  0  0  0  0  0  0  0
  -29.4342  -18.1670   17.8121 N   0  0  0  0  0  0  0  0  0  0  0  0
  -26.1639  -19.4331   20.9855 N   0  0  0  0  0  0  0  0  0  0  0  0
  -23.3685  -16.6516   23.1865 N   0  0  0  0  0  0  0  0  0  0  0  0
  -21.5892  -29.0786   22.9471 N   0  0  0  0  0  0  0  0  0  0  0  0
  -27.0141  -28.4970   25.8287 N   0  0  0  0  0  0  0  0  0  0  0  0
  -30.6700  -19.6087   19.2221 N   0  0  0  0  0  0  0  0  0  0  0  0
  -28.6122  -25.6034   26.6982 N   0  3  0  0  0  0  0  0  0  0  0  0
  -24.3278  -18.7343   23.2164 O   0  0  0  0  0  0  0  0  0  0  0  0
  -23.1265  -28.8488   21.2132 O   0  0  0  0  0  0  0  0  0  0  0  0
  -24.1650  -28.6160   25.5517 O   0  0  0  0  0  0  0  0  0  0  0  0
  -28.6775  -27.6214   24.4709 O   0  0  0  0  0  0  0  0  0  0  0  0
  -31.1834  -19.4505   16.9931 O   0  0  0  0  0  0  0  0  0  0  0  0
  -21.9371  -11.5014   21.6175 O   0  0  0  0  0  0  0  0  0  0  0  0
  -27.0792  -25.7733   18.1163 O   0  0  0  0  0  0  0  0  0  1  0  0
  -24.5238   -6.6788   20.9427 F   0  0  0  0  0  0  0  0  0  0  0  0
  -22.2156   -9.7342   23.7251 F   0  0  0  0  0  0  0  0  0  0  0  0
  1  2  1  0  0  0  0
  1  5  2  0  0  0  0
  2  6  2  0  0  0  0
  3  8  2  0  0  0  0
  3 16  1  0  0  0  0
  4  9  1  0  0  0  0
  4 16  2  0  0  0  0
  5 18  1  0  0  0  0
  6 20  1  0  0  0  0
  7 10  2  0  0  0  0
  7 19  1  0  0  0  0
  8 22  1  0  0  0  0
  9 22  2  0  0  0  0
 10 23  1  0  0  0  0
 11 12  2  0  0  0  0
 11 24  1  0  0  0  0
 12 25  1  0  0  0  0
 13 21  1  0  0  0  0
 13 23  2  0  0  0  0
 14 25  2  0  0  0  0
 14 26  1  0  0  0  0
 15 28  2  0  0  0  0
 15 65  1  0  0  0  0
 16 27  1  0  0  0  0
 17 27  1  0  0  0  0
 17 29  2  0  0  0  0
 17 31  1  0  0  0  0
 18 20  2  0  0  0  0
 18 36  1  0  0  0  0
 19 21  2  0  0  0  0
 19 37  1  0  0  0  0
 20 45  1  0  0  0  0
 21 38  1  0  0  0  0
 22 81  1  0  0  0  0
 23 82  1  0  0  0  0
 24 26  2  0  0  0  0
 24 81  1  0  0  0  0
 25 83  1  0  0  0  0
 26 84  1  0  0  0  0
 27 64  2  0  0  0  0
 28 48  1  0  0  0  0
 28 67  1  0  0  0  0
 29 66  1  0  0  0  0
 29 70  1  0  0  0  0
 30 59  1  0  0  0  0
 30 65  1  0  0  0  0
 30 67  2  0  0  0  0
 31 71  1  0  0  0  0
 31 76  2  0  0  0  0
 32 46  1  0  0  0  0
 32 72  1  0  0  0  0
 32 77  2  0  0  0  0
 33 60  1  0  0  0  0
 33 68  1  0  0  0  0
 33 78  2  0  0  0  0
 34 61  1  0  0  0  0
 34 73  1  0  0  0  0
 34 79  2  0  0  0  0
 35 69  1  0  0  0  0
 35 74  1  0  0  0  0
 35 80  2  0  0  0  0
 36 39  1  0  0  0  0
 37 46  1  0  0  0  0
 38 68  1  0  0  0  0
 39 41  1  0  0  0  0
 40 42  1  0  0  0  0
 40 43  1  0  0  0  0
 41 45  1  0  0  0  0
 42 47  1  0  0  0  0
 43 69  1  0  0  0  0
 44 47  1  0  0  0  0
 44 69  1  0  0  0  0
 45 72  1  0  0  0  0
 46 68  1  0  0  0  0
 47 66  1  0  0  0  0
 49 59  1  0  0  0  0
 50 61  1  0  0  0  0
 51 62  1  0  0  0  0
 52 63  1  0  0  0  0
 53 63  1  0  0  0  0
 54 63  1  0  0  0  0
 55 75  1  0  0  0  0
 56 57  1  0  0  0  0
 56 62  1  0  0  0  0
 57 65  1  0  0  0  0
 58 59  1  0  0  0  0
 58 74  1  0  0  0  0
 60 63  1  0  0  0  0
 60 73  1  0  0  0  0
 61 75  1  0  0  0  0
 62 82  1  0  0  0  0
 64 66  1  0  0  0  0
M  CHG  2  67   1  75   1
M  ISO  4  35 100  62 101  74 100  82 101
M  END
> <Batch ID>
0078

> <Smiles>
CNC(C)C(=O)NC(C(=O)N1Cc2cc([101O:1][101CH:1](C)CCn3cc(C)nc3C(C)C[100NH:0][100C:0](=O)N3CCCC(n4nc(-c5ccc(Oc6ccc(F)cc6F)cc5)c(C(N)=O)c4N)C3)ccc2CC1C(=O)NC1CCCc2ccccc21)C(C)(C)C

> <Shape>
0.234

> <Color>
0.060

> <Negative vol penalty>
0.000

$$$$

  -OEChem-04052318393D

 85 93  0     1  0  0  0  0  0999 V2000
  -28.9155  -20.8358   14.9759 C   0  0  0  0  0  0  0  0  0  0  0  0
  -27.8800  -20.7861   15.9022 C   0  0  0  0  0  0  0  0  0  0  0  0
  -23.7145  -12.1279   20.0749 C   0  0  0  0  0  0  0  0  0  0  0  0
  -24.7474  -12.3292   22.2496 C   0  0  0  0  0  0  0  0  0  0  0  0
  -29.8992  -21.8161   15.0878 C   0  0  0  0  0  0  0  0  0  0  0  0
  -27.8211  -21.7240   16.9336 C   0  0  0  0  0  0  0  0  0  0  0  0
  -23.9767  -22.2040   21.6365 C   0  0  0  0  0  0  0  0  0  0  0  0
  -23.5587  -10.7565   20.2758 C   0  0  0  0  0  0  0  0  0  0  0  0
  -24.5916  -10.9578   22.4506 C   0  0  0  0  0  0  0  0  0  0  0  0
  -23.9100  -21.7696   22.9596 C   0  0  0  0  0  0  0  0  0  0  0  0
  -24.7926   -7.4520   23.3881 C   0  0  0  0  0  0  0  0  0  0  0  0
  -25.8762   -6.7460   23.9105 C   0  0  0  0  0  0  0  0  0  0  0  0
  -24.7889  -23.8924   23.6946 C   0  0  0  0  0  0  0  0  0  0  0  0
  -27.2182   -7.4003   22.0109 C   0  0  0  0  0  0  0  0  0  0  0  0
  -29.0104  -19.0845   25.5257 C   0  0  0  0  0  0  0  0  0  0  0  0
  -24.3089  -12.9143   21.0618 C   0  0  0  0  0  0  0  0  0  0  0  0
  -23.5595  -15.3492   21.1933 C   0  0  0  0  0  0  0  0  0  0  0  0
  -29.8585  -22.7584   16.1286 C   0  0  0  0  0  0  0  0  0  0  0  0
  -24.4611  -23.4840   21.3312 C   0  0  0  0  0  0  0  0  0  0  0  0
  -28.7913  -22.7359   17.0495 C   0  0  0  0  0  0  0  0  0  0  0  0
  -24.8584  -24.3416   22.3670 C   0  0  0  0  0  0  0  0  0  0  0  0
  -28.0503  -19.5015   26.4249 C   0  0  0  0  0  0  0  0  0  0  0  0
  -23.9972  -10.1714   21.4637 C   0  0  0  0  0  0  0  0  0  0  0  0
  -24.3188  -22.6128   23.9887 C   0  0  0  0  0  0  0  0  0  0  0  0
  -24.9216   -8.1321   22.1771 C   0  0  0  0  0  0  0  0  0  0  0  0
  -27.0890   -6.7202   23.2219 C   0  0  0  0  0  0  0  0  0  0  0  0
  -26.1344   -8.1063   21.4885 C   0  0  0  0  0  0  0  0  0  0  0  0
  -24.4707  -14.3310   20.8546 C   0  0  0  0  0  0  0  0  0  0  0  0
  -27.4548  -20.7140   26.1430 C   0  0  0  0  0  0  0  0  0  0  0  0
  -24.1767  -16.5093   20.7937 C   0  0  0  0  0  0  0  0  0  0  0  0
  -28.7160  -20.9545   24.2673 C   0  0  0  0  0  0  0  0  0  0  0  0
  -22.2704  -15.2548   21.8138 C   0  0  0  0  0  0  0  0  0  0  0  0
  -26.9219  -24.6129   19.6658 C   0  0  0  0  0  0  0  0  0  0  0  0
  -25.5198  -27.4740   20.2744 C   0  0  0  0  0  0  0  0  0  0  0  0
  -23.4543  -29.3232   22.2647 C   0  0  0  0  0  0  0  0  0  0  0  0
  -28.7139  -19.7414   20.4575 C   0  0  0  0  0  0  0  0  0  0  0  0
  -30.9448  -23.8026   16.1978 C   0  0  0  0  0  0  0  0  0  0  0  0
  -24.5016  -23.9474   19.9008 C   0  0  0  0  0  0  0  0  0  0  0  0
  -25.3670  -25.7327   22.0937 C   0  0  0  0  0  0  0  0  0  0  0  0
  -31.0433  -24.4682   17.5667 C   0  0  0  0  0  0  0  0  0  0  0  0
  -28.3047  -17.2353   17.9618 C   0  0  0  0  0  0  0  0  0  0  0  0
  -29.6656  -24.9246   18.0231 C   0  0  0  0  0  0  0  0  0  0  0  0
  -27.2005  -16.3374   18.5227 C   0  0  0  0  0  0  0  0  0  0  0  0
  -29.2228  -17.7569   19.0650 C   0  0  0  0  0  0  0  0  0  0  0  0
  -27.4270  -17.5365   20.7384 C   0  0  0  0  0  0  0  0  0  0  0  0
  -28.7235  -23.7267   18.1976 C   0  0  1  0  0  0  0  0  0  0  0  0
  -25.4945  -25.0821   19.6682 C   0  0  1  0  0  0  0  0  0  0  0  0
  -26.4422  -17.0314   19.6701 C   0  0  2  0  0  0  0  0  0  0  0  0
  -28.8893  -18.4881   28.5750 C   0  0  0  0  0  0  0  0  0  0  0  0
  -27.1156  -17.3036   27.2310 C   0  0  0  0  0  0  0  0  0  0  0  0
  -22.5326  -31.6419   22.5316 C   0  0  0  0  0  0  0  0  0  0  0  0
  -28.2000  -28.4078   21.3947 C   0  0  0  0  0  0  0  0  0  0  0  0
  -27.0009  -30.3174   22.4827 C   0  0  0  0  0  0  0  0  0  0  0  0
  -27.0056  -30.1035   19.9974 C   0  0  0  0  0  0  0  0  0  0  0  0
  -20.6690  -28.3793   21.9330 C   0  0  0  0  0  0  0  0  0  0  0  0
  -26.3911  -21.2708   27.0552 C   0  0  0  0  0  0  0  0  0  0  0  0
  -29.0851  -21.7613   23.0686 C   0  0  0  0  0  0  0  0  0  0  0  0
  -25.0278  -20.5942   26.8965 C   0  0  0  0  0  0  0  0  0  0  0  0
  -28.0793  -21.6458   21.9169 C   0  0  0  0  0  0  0  0  0  0  0  0
  -24.4124  -20.7923   25.5161 C   0  0  0  0  0  0  0  0  0  1  0  0
  -27.6997  -18.6801   27.6114 C   0  0  0  0  0  0  0  0  0  0  0  0
  -25.6198  -28.5006   21.3767 C   0  0  1  0  0  0  0  0  0  0  0  0
  -22.3096  -30.2627   21.9310 C   0  0  2  0  0  0  0  0  0  0  0  0
  -26.9488  -29.3055   21.3182 C   0  0  0  0  0  0  0  0  0  0  0  0
  -29.3694  -19.7886   24.4322 N   0  0  0  0  0  0  0  0  0  0  0  0
  -25.5822  -14.8028   20.2835 N   0  0  0  0  0  0  0  0  0  0  0  0
  -27.7646  -21.4697   25.0692 N   0  0  0  0  0  0  0  0  0  0  0  0
  -25.3734  -16.1302   20.2603 N   0  0  0  0  0  0  0  0  0  0  0  0
  -25.3936  -26.1374   20.6784 N   0  0  0  0  0  0  0  0  0  0  0  0
  -28.4416  -18.4051   20.1212 N   0  0  0  0  0  0  0  0  0  0  0  0
  -23.8072  -17.8065   20.8499 N   0  0  0  0  0  0  0  0  0  0  0  0
  -21.7869  -13.9857   22.1601 N   0  0  0  0  0  0  0  0  0  0  0  0
  -27.3802  -24.2118   18.4254 N   0  0  0  0  0  0  0  0  0  0  0  0
  -24.4186  -29.3228   21.2790 N   0  0  0  0  0  0  0  0  0  0  0  0
  -27.9233  -20.2813   21.4646 N   0  0  0  0  0  0  0  0  0  0  0  0
  -21.0251  -29.7222   22.4591 N   0  3  0  0  0  0  0  0  0  0  0  0
  -21.5610  -16.2646   22.0391 O   0  0  0  0  0  0  0  0  0  0  0  0
  -27.5607  -24.6160   20.7116 O   0  0  0  0  0  0  0  0  0  0  0  0
  -25.5454  -27.8451   19.0983 O   0  0  0  0  0  0  0  0  0  0  0  0
  -23.4914  -28.6591   23.2982 O   0  0  0  0  0  0  0  0  0  0  0  0
  -29.5926  -20.4059   19.8978 O   0  0  0  0  0  0  0  0  0  0  0  0
  -23.8451   -8.8332   21.6602 O   0  0  0  0  0  0  0  0  0  0  0  0
  -24.2554  -22.1910   25.2810 O   0  0  0  0  0  0  0  0  0  1  0  0
  -28.1300   -6.0435   23.7244 F   0  0  0  0  0  0  0  0  0  0  0  0
  -26.2648   -8.7587   20.3253 F   0  0  0  0  0  0  0  0  0  0  0  0
  1  2  1  0  0  0  0
  1  5  2  0  0  0  0
  2  6  2  0  0  0  0
  3  8  2  0  0  0  0
  3 16  1  0  0  0  0
  4  9  1  0  0  0  0
  4 16  2  0  0  0  0
  5 18  1  0  0  0  0
  6 20  1  0  0  0  0
  7 10  2  0  0  0  0
  7 19  1  0  0  0  0
  8 23  1  0  0  0  0
  9 23  2  0  0  0  0
 10 24  1  0  0  0  0
 11 12  2  0  0  0  0
 11 25  1  0  0  0  0
 12 26  1  0  0  0  0
 13 21  1  0  0  0  0
 13 24  2  0  0  0  0
 14 26  2  0  0  0  0
 14 27  1  0  0  0  0
 15 22  1  0  0  0  0
 15 65  2  0  0  0  0
 16 28  1  0  0  0  0
 17 28  1  0  0  0  0
 17 30  2  0  0  0  0
 17 32  1  0  0  0  0
 18 20  2  0  0  0  0
 18 37  1  0  0  0  0
 19 21  2  0  0  0  0
 19 38  1  0  0  0  0
 20 46  1  0  0  0  0
 21 39  1  0  0  0  0
 22 29  2  0  0  0  0
 22 61  1  0  0  0  0
 23 82  1  0  0  0  0
 24 83  1  0  0  0  0
 25 27  2  0  0  0  0
 25 82  1  0  0  0  0
 26 84  1  0  0  0  0
 27 85  1  0  0  0  0
 28 66  2  0  0  0  0
 29 56  1  0  0  0  0
 29 67  1  0  0  0  0
 30 68  1  0  0  0  0
 30 71  1  0  0  0  0
 31 57  1  0  0  0  0
 31 65  1  0  0  0  0
 31 67  2  0  0  0  0
 32 72  1  0  0  0  0
 32 77  2  0  0  0  0
 33 47  1  0  0  0  0
 33 73  1  0  0  0  0
 33 78  2  0  0  0  0
 34 62  1  0  0  0  0
 34 69  1  0  0  0  0
 34 79  2  0  0  0  0
 35 63  1  0  0  0  0
 35 74  1  0  0  0  0
 35 80  2  0  0  0  0
 36 70  1  0  0  0  0
 36 75  1  0  0  0  0
 36 81  2  0  0  0  0
 37 40  1  0  0  0  0
 38 47  1  0  0  0  0
 39 69  1  0  0  0  0
 40 42  1  0  0  0  0
 41 43  1  0  0  0  0
 41 44  1  0  0  0  0
 42 46  1  0  0  0  0
 43 48  1  0  0  0  0
 44 70  1  0  0  0  0
 45 48  1  0  0  0  0
 45 70  1  0  0  0  0
 46 73  1  0  0  0  0
 47 69  1  0  0  0  0
 48 68  1  0  0  0  0
 49 61  1  0  0  0  0
 50 61  1  0  0  0  0
 51 63  1  0  0  0  0
 52 64  1  0  0  0  0
 53 64  1  0  0  0  0
 54 64  1  0  0  0  0
 55 76  1  0  0  0  0
 56 58  1  0  0  0  0
 57 59  1  0  0  0  0
 58 60  1  0  0  0  0
 59 75  1  0  0  0  0
 60 83  1  0  0  0  0
 62 64  1  0  0  0  0
 62 74  1  0  0  0  0
 63 76  1  0  0  0  0
 66 68  1  0  0  0  0
M  CHG  1  76   1
M  ISO  4  36 100  60 101  75 100  83 101
M  END
> <Batch ID>
0078

> <Smiles>
CNC(C)C(=O)NC(C(=O)N1Cc2cc([101O:1][101CH2:1]CCc3nc(CC[100NH:0][100C:0](=O)N4CCCC(n5nc(-c6ccc(Oc7ccc(F)cc7F)cc6)c(C(N)=O)c5N)C4)ncc3C(C)C)ccc2CC1C(=O)NC1CCCc2ccccc21)C(C)(C)C

> <Shape>
0.197

> <Color>
0.071

> <Negative vol penalty>
0.000

$$$$

  -OEChem-04052318393D

 86 94  0     1  0  0  0  0  0999 V2000
  -24.7883  -17.8210   23.0145 C   0  0  0  0  0  0  0  0  0  0  0  0
  -25.5943  -18.9163   22.7214 C   0  0  0  0  0  0  0  0  0  0  0  0
  -26.5463  -12.7505   21.6388 C   0  0  0  0  0  0  0  0  0  0  0  0
  -26.0405  -13.8266   19.5356 C   0  0  0  0  0  0  0  0  0  0  0  0
  -23.4286  -17.8556   22.7077 C   0  0  0  0  0  0  0  0  0  0  0  0
  -25.0414  -20.0465   22.1203 C   0  0  0  0  0  0  0  0  0  0  0  0
  -26.6126  -24.3546   24.2689 C   0  0  0  0  0  0  0  0  0  0  0  0
  -25.2855  -12.1538   21.6367 C   0  0  0  0  0  0  0  0  0  0  0  0
  -24.7797  -13.2299   19.5336 C   0  0  0  0  0  0  0  0  0  0  0  0
  -27.8871  -24.8071   23.9304 C   0  0  0  0  0  0  0  0  0  0  0  0
  -23.7764   -9.5244   20.1396 C   0  0  0  0  0  0  0  0  0  0  0  0
  -23.6994   -8.1707   20.4670 C   0  0  0  0  0  0  0  0  0  0  0  0
  -26.9120  -26.3717   22.3747 C   0  0  0  0  0  0  0  0  0  0  0  0
  -22.2593   -8.7038   22.3322 C   0  0  0  0  0  0  0  0  0  0  0  0
  -31.5673  -26.4851   19.3668 C   0  0  0  0  0  0  0  0  0  0  0  0
  -26.9238  -13.5869   20.5882 C   0  0  0  0  0  0  0  0  0  0  0  0
  -29.4130  -13.6855   20.0390 C   0  0  0  0  0  0  0  0  0  0  0  0
  -22.8568  -18.9905   22.1115 C   0  0  0  0  0  0  0  0  0  0  0  0
  -25.4768  -24.9007   23.6539 C   0  0  0  0  0  0  0  0  0  0  0  0
  -23.6731  -20.0958   21.8041 C   0  0  0  0  0  0  0  0  0  0  0  0
  -25.6240  -25.9262   22.7090 C   0  0  0  0  0  0  0  0  0  0  0  0
  -24.4022  -12.3935   20.5842 C   0  0  0  0  0  0  0  0  0  0  0  0
  -28.0372  -25.8137   22.9811 C   0  0  0  0  0  0  0  0  0  0  0  0
  -23.0950  -10.4678   20.9085 C   0  0  0  0  0  0  0  0  0  0  0  0
  -22.9408   -7.7604   21.5633 C   0  0  0  0  0  0  0  0  0  0  0  0
  -22.3364  -10.0575   22.0048 C   0  0  0  0  0  0  0  0  0  0  0  0
  -28.2258  -14.2040   20.5900 C   0  0  0  0  0  0  0  0  0  0  0  0
  -31.0444  -26.4005   18.0924 C   0  0  0  0  0  0  0  0  0  0  0  0
  -30.9775  -25.6679   20.3094 C   0  0  0  0  0  0  0  0  0  0  0  0
  -30.3606  -14.6447   20.3009 C   0  0  0  0  0  0  0  0  0  0  0  0
  -29.5352  -24.8378   18.7610 C   0  0  0  0  0  0  0  0  0  0  0  0
  -29.6390  -12.4477   19.3518 C   0  0  0  0  0  0  0  0  0  0  0  0
  -23.1527  -23.7540   21.8134 C   0  0  0  0  0  0  0  0  0  0  0  0
  -21.9229  -26.7330   22.1809 C   0  0  0  0  0  0  0  0  0  0  0  0
  -22.4750  -30.0323   22.8565 C   0  0  0  0  0  0  0  0  0  0  0  0
  -30.0309  -20.5436   21.2731 C   0  0  0  0  0  0  0  0  0  0  0  0
  -21.3915  -18.9631   21.7553 C   0  0  0  0  0  0  0  0  0  0  0  0
  -24.1075  -24.4203   24.0496 C   0  0  0  0  0  0  0  0  0  0  0  0
  -24.4356  -26.5596   22.0345 C   0  0  0  0  0  0  0  0  0  0  0  0
  -20.8103  -20.3436   21.4611 C   0  0  0  0  0  0  0  0  0  0  0  0
  -31.4310  -18.0914   23.4418 C   0  0  0  0  0  0  0  0  0  0  0  0
  -21.7327  -21.1238   20.5298 C   0  0  0  0  0  0  0  0  0  0  0  0
  -30.8754  -16.7703   22.9071 C   0  0  0  0  0  0  0  0  0  0  0  0
  -30.4075  -19.2195   23.3326 C   0  0  0  0  0  0  0  0  0  0  0  0
  -29.2854  -18.0922   21.4500 C   0  0  0  0  0  0  0  0  0  0  0  0
  -23.1054  -21.3496   21.1750 C   0  0  1  0  0  0  0  0  0  0  0  0
  -23.0489  -24.6896   22.9846 C   0  0  1  0  0  0  0  0  0  0  0  0
  -30.3008  -16.9372   21.4876 C   0  0  2  0  0  0  0  0  0  0  0  0
  -31.6178  -27.2459   17.0049 C   0  0  0  0  0  0  0  0  0  0  0  0
  -27.0462  -24.6394   18.5207 C   0  0  0  0  0  0  0  0  0  0  0  0
  -21.2803  -32.2309   23.0472 C   0  0  0  0  0  0  0  0  0  0  0  0
  -32.0734  -27.0572   22.1931 C   0  0  0  0  0  0  0  0  0  0  0  0
  -32.6288  -24.6512   21.9092 C   0  0  0  0  0  0  0  0  0  0  0  0
  -21.7584  -26.9047   19.1390 C   0  0  0  0  0  0  0  0  0  0  0  0
  -21.4799  -29.3826   19.3635 C   0  0  0  0  0  0  0  0  0  0  0  0
  -19.7794  -27.8441   20.3454 C   0  0  0  0  0  0  0  0  0  0  0  0
  -23.2450  -30.3363   25.6980 C   0  0  0  0  0  0  0  0  0  0  0  0
  -28.3639  -22.6262   19.2888 C   0  0  0  0  0  0  0  0  0  0  0  0
  -29.5966  -21.7342   19.1394 C   0  0  0  0  0  0  0  0  0  0  0  0
  -30.3508  -25.3180   22.7419 C   0  0  0  0  0  0  0  0  0  1  0  0
  -28.4090  -23.9200   18.4245 C   0  0  2  0  0  0  0  0  0  0  0  0
  -22.0505  -28.0414   21.4387 C   0  0  1  0  0  0  0  0  0  0  0  0
  -21.7733  -31.0001   23.7921 C   0  0  2  0  0  0  0  0  0  0  0  0
  -31.4926  -25.6893   21.7608 C   0  0  0  0  0  0  0  0  0  0  0  0
  -21.2897  -28.0301   20.0828 C   0  0  0  0  0  0  0  0  0  0  0  0
  -28.4007  -15.3996   21.1592 N   0  0  0  0  0  0  0  0  0  0  0  0
  -30.0248  -25.5847   17.7531 N   0  0  0  0  0  0  0  0  0  0  0  0
  -29.9556  -24.8290   20.0404 N   0  0  0  0  0  0  0  0  0  0  0  0
  -29.7088  -15.6404   20.9673 N   0  0  0  0  0  0  0  0  0  0  0  0
  -23.1180  -26.0513   22.4506 N   0  0  0  0  0  0  0  0  0  0  0  0
  -29.9030  -19.3259   21.9614 N   0  0  0  0  0  0  0  0  0  0  0  0
  -31.6794  -14.7251   20.0240 N   0  0  0  0  0  0  0  0  0  0  0  0
  -28.5555  -11.5779   19.1682 N   0  0  0  0  0  0  0  0  0  0  0  0
  -23.0366  -22.4184   22.1483 N   0  0  0  0  0  0  0  0  0  0  0  0
  -21.6086  -29.0799   22.3632 N   0  0  0  0  0  0  0  0  0  0  0  0
  -29.5323  -20.5568   19.9762 N   0  0  0  0  0  0  0  0  0  0  0  0
  -22.7018  -31.4438   24.8701 N   0  3  0  0  0  0  0  0  0  0  0  0
  -30.7719  -12.1151   18.9279 O   0  0  0  0  0  0  0  0  0  0  0  0
  -23.3238  -24.2101   20.6890 O   0  0  0  0  0  0  0  0  0  0  0  0
  -20.8046  -26.3342   22.5156 O   0  0  0  0  0  0  0  0  0  0  0  0
  -23.6713  -30.1154   22.5872 O   0  0  0  0  0  0  0  0  0  0  0  0
  -30.5557  -21.5434   21.7752 O   0  0  0  0  0  0  0  0  0  0  0  0
  -23.1719  -11.8113   20.5817 O   0  0  0  0  0  0  0  0  0  0  0  0
  -29.2801  -26.2567   22.6484 O   0  0  0  0  0  0  0  0  0  1  0  0
  -22.8656   -6.4603   21.8766 F   0  0  0  0  0  0  0  0  0  0  0  0
  -21.6786  -10.9592   22.7466 F   0  0  0  0  0  0  0  0  0  0  0  0
  1  2  1  0  0  0  0
  1  5  2  0  0  0  0
  2  6  2  0  0  0  0
  3  8  2  0  0  0  0
  3 16  1  0  0  0  0
  4  9  1  0  0  0  0
  4 16  2  0  0  0  0
  5 18  1  0  0  0  0
  6 20  1  0  0  0  0
  7 10  2  0  0  0  0
  7 19  1  0  0  0  0
  8 22  1  0  0  0  0
  9 22  2  0  0  0  0
 10 23  1  0  0  0  0
 11 12  2  0  0  0  0
 11 24  1  0  0  0  0
 12 25  1  0  0  0  0
 13 21  1  0  0  0  0
 13 23  2  0  0  0  0
 14 25  2  0  0  0  0
 14 26  1  0  0  0  0
 15 28  2  0  0  0  0
 15 29  1  0  0  0  0
 16 27  1  0  0  0  0
 17 27  1  0  0  0  0
 17 30  2  0  0  0  0
 17 32  1  0  0  0  0
 18 20  2  0  0  0  0
 18 37  1  0  0  0  0
 19 21  2  0  0  0  0
 19 38  1  0  0  0  0
 20 46  1  0  0  0  0
 21 39  1  0  0  0  0
 22 83  1  0  0  0  0
 23 84  1  0  0  0  0
 24 26  2  0  0  0  0
 24 83  1  0  0  0  0
 25 85  1  0  0  0  0
 26 86  1  0  0  0  0
 27 66  2  0  0  0  0
 28 49  1  0  0  0  0
 28 67  1  0  0  0  0
 29 64  1  0  0  0  0
 29 68  2  0  0  0  0
 30 69  1  0  0  0  0
 30 72  1  0  0  0  0
 31 61  1  0  0  0  0
 31 67  2  0  0  0  0
 31 68  1  0  0  0  0
 32 73  1  0  0  0  0
 32 78  2  0  0  0  0
 33 47  1  0  0  0  0
 33 74  1  0  0  0  0
 33 79  2  0  0  0  0
 34 62  1  0  0  0  0
 34 70  1  0  0  0  0
 34 80  2  0  0  0  0
 35 63  1  0  0  0  0
 35 75  1  0  0  0  0
 35 81  2  0  0  0  0
 36 71  1  0  0  0  0
 36 76  1  0  0  0  0
 36 82  2  0  0  0  0
 37 40  1  0  0  0  0
 38 47  1  0  0  0  0
 39 70  1  0  0  0  0
 40 42  1  0  0  0  0
 41 43  1  0  0  0  0
 41 44  1  0  0  0  0
 42 46  1  0  0  0  0
 43 48  1  0  0  0  0
 44 71  1  0  0  0  0
 45 48  1  0  0  0  0
 45 71  1  0  0  0  0
 46 74  1  0  0  0  0
 47 70  1  0  0  0  0
 48 69  1  0  0  0  0
 50 61  1  0  0  0  0
 51 63  1  0  0  0  0
 52 64  1  0  0  0  0
 53 64  1  0  0  0  0
 54 65  1  0  0  0  0
 55 65  1  0  0  0  0
 56 65  1  0  0  0  0
 57 77  1  0  0  0  0
 58 59  1  0  0  0  0
 58 61  1  0  0  0  0
 59 76  1  0  0  0  0
 60 64  1  0  0  0  0
 60 84  1  0  0  0  0
 62 65  1  0  0  0  0
 62 75  1  0  0  0  0
 63 77  1  0  0  0  0
 66 69  1  0  0  0  0
M  CHG  1  77   1
M  ISO  4  36 100  60 101  76 100  84 101
M  END
> <Batch ID>
0078

> <Smiles>
CNC(C)C(=O)NC(C(=O)N1Cc2cc([101O:1][101CH2:1]C(C)(C)c3cc(C)nc(C(C)CC[100NH:0][100C:0](=O)N4CCCC(n5nc(-c6ccc(Oc7ccc(F)cc7F)cc6)c(C(N)=O)c5N)C4)n3)ccc2CC1C(=O)NC1CCCc2ccccc21)C(C)(C)C

> <Shape>
0.238

> <Color>
0.075

> <Negative vol penalty>
0.000

$$$$

  -OEChem-04052318393D

 85 93  0     1  0  0  0  0  0999 V2000
  -24.2036   -8.2346   21.8981 C   0  0  0  0  0  0  0  0  0  0  0  0
  -24.7951   -9.3093   21.2420 C   0  0  0  0  0  0  0  0  0  0  0  0
  -21.3916  -29.4078   20.0983 C   0  0  0  0  0  0  0  0  0  0  0  0
  -21.6306  -27.8846   21.9583 C   0  0  0  0  0  0  0  0  0  0  0  0
  -22.8513   -8.2832   22.2341 C   0  0  0  0  0  0  0  0  0  0  0  0
  -24.0344  -10.4329   20.9205 C   0  0  0  0  0  0  0  0  0  0  0  0
  -26.4167  -14.7677   22.0061 C   0  0  0  0  0  0  0  0  0  0  0  0
  -20.0571  -29.0272   19.9580 C   0  0  0  0  0  0  0  0  0  0  0  0
  -20.2960  -27.5040   21.8181 C   0  0  0  0  0  0  0  0  0  0  0  0
  -27.4044  -15.1912   21.1178 C   0  0  0  0  0  0  0  0  0  0  0  0
  -18.4811  -25.4772   19.8108 C   0  0  0  0  0  0  0  0  0  0  0  0
  -18.1865  -24.1150   19.8659 C   0  0  0  0  0  0  0  0  0  0  0  0
  -25.8386  -16.7318   20.1208 C   0  0  0  0  0  0  0  0  0  0  0  0
  -16.7577  -24.5013   21.7755 C   0  0  0  0  0  0  0  0  0  0  0  0
  -30.0269  -21.8237   21.5388 C   0  0  0  0  0  0  0  0  0  0  0  0
  -22.1784  -28.8364   21.0984 C   0  0  0  0  0  0  0  0  0  0  0  0
  -24.0643  -30.2759   22.0360 C   0  0  0  0  0  0  0  0  0  0  0  0
  -22.0759   -9.4119   21.9252 C   0  0  0  0  0  0  0  0  0  0  0  0
  -25.1273  -15.3162   21.9511 C   0  0  0  0  0  0  0  0  0  0  0  0
  -22.6702  -10.4960   21.2515 C   0  0  0  0  0  0  0  0  0  0  0  0
  -24.8371  -16.3154   21.0112 C   0  0  0  0  0  0  0  0  0  0  0  0
  -19.5092  -28.0753   20.8180 C   0  0  0  0  0  0  0  0  0  0  0  0
  -27.1146  -16.1713   20.1731 C   0  0  0  0  0  0  0  0  0  0  0  0
  -17.9141  -26.3515   20.7381 C   0  0  0  0  0  0  0  0  0  0  0  0
  -17.3247  -23.6270   20.8482 C   0  0  0  0  0  0  0  0  0  0  0  0
  -17.0523  -25.8636   21.7204 C   0  0  0  0  0  0  0  0  0  0  0  0
  -23.5572  -29.2288   21.2434 C   0  0  0  0  0  0  0  0  0  0  0  0
  -29.2312  -22.9284   21.6550 C   0  0  0  0  0  0  0  0  0  0  0  0
  -25.4217  -30.2361   21.8302 C   0  0  0  0  0  0  0  0  0  0  0  0
  -27.9673  -21.2449   20.9702 C   0  0  0  0  0  0  0  0  0  0  0  0
  -23.3703  -31.2017   22.8828 C   0  0  0  0  0  0  0  0  0  0  0  0
  -22.2205  -14.1611   21.3858 C   0  0  0  0  0  0  0  0  0  0  0  0
  -21.2961  -17.1676   22.1788 C   0  0  0  0  0  0  0  0  0  0  0  0
  -21.6557  -20.7574   22.1423 C   0  0  0  0  0  0  0  0  0  0  0  0
  -29.1684  -25.8686   20.1754 C   0  0  0  0  0  0  0  0  0  0  0  0
  -20.6069   -9.3989   22.2664 C   0  0  0  0  0  0  0  0  0  0  0  0
  -24.0807  -14.8677   22.9338 C   0  0  0  0  0  0  0  0  0  0  0  0
  -23.4742  -16.9506   20.9242 C   0  0  0  0  0  0  0  0  0  0  0  0
  -19.9595  -10.7807   22.2241 C   0  0  0  0  0  0  0  0  0  0  0  0
  -28.6766  -28.9977   18.5495 C   0  0  0  0  0  0  0  0  0  0  0  0
  -20.3671  -11.5226   20.9552 C   0  0  0  0  0  0  0  0  0  0  0  0
  -27.3545  -29.5062   19.1270 C   0  0  0  0  0  0  0  0  0  0  0  0
  -28.6655  -27.4820   18.3641 C   0  0  0  0  0  0  0  0  0  0  0  0
  -26.9854  -27.2216   20.1482 C   0  0  0  0  0  0  0  0  0  0  0  0
  -21.8840  -11.7426   20.9078 C   0  0  1  0  0  0  0  0  0  0  0  0
  -22.6571  -15.1272   22.4506 C   0  0  1  0  0  0  0  0  0  0  0  0
  -26.9688  -28.7381   20.4055 C   0  0  2  0  0  0  0  0  0  0  0  0
  -26.7850  -20.4629   20.5303 C   0  0  0  0  0  0  0  0  0  0  0  0
  -30.8069  -16.0510   17.0610 C   0  0  0  0  0  0  0  0  0  0  0  0
  -29.3996  -24.5424   23.5857 C   0  0  0  0  0  0  0  0  0  0  0  0
  -20.2948  -22.5448   23.2605 C   0  0  0  0  0  0  0  0  0  0  0  0
  -19.7822  -17.2659   19.5315 C   0  0  0  0  0  0  0  0  0  0  0  0
  -19.6417  -19.7528   19.7841 C   0  0  0  0  0  0  0  0  0  0  0  0
  -18.5596  -18.2665   21.4702 C   0  0  0  0  0  0  0  0  0  0  0  0
  -24.0378  -21.8977   23.4781 C   0  0  0  0  0  0  0  0  0  0  0  0
  -30.2912  -17.4098   17.5143 C   0  0  0  0  0  0  0  0  0  0  0  0
  -29.8088  -19.0369   19.3625 C   0  0  0  0  0  0  0  0  0  0  0  0
  -29.6770  -19.3841   20.8523 C   0  0  0  0  0  0  0  0  0  0  0  0
  -29.4284  -16.5324   19.7585 C   0  0  0  0  0  0  0  0  0  1  0  0
  -29.5354  -24.3018   22.0647 C   0  0  2  0  0  0  0  0  0  0  0  0
  -21.0803  -18.4548   21.4202 C   0  0  1  0  0  0  0  0  0  0  0  0
  -21.5526  -21.6932   23.3331 C   0  0  2  0  0  0  0  0  0  0  0  0
  -30.2830  -17.5952   19.0499 C   0  0  1  0  0  0  0  0  0  0  0  0
  -19.7912  -18.4218   20.5516 C   0  0  0  0  0  0  0  0  0  0  0  0
  -24.5146  -28.5718   20.5831 N   0  0  0  0  0  0  0  0  0  0  0  0
  -29.2187  -20.7968   21.1140 N   0  0  0  0  0  0  0  0  0  0  0  0
  -25.6367  -29.2078   20.9603 N   0  0  0  0  0  0  0  0  0  0  0  0
  -27.9624  -22.5413   21.2967 N   0  3  0  0  0  0  0  0  0  0  0  0
  -22.4828  -16.4739   21.9027 N   0  0  0  0  0  0  0  0  0  0  0  0
  -28.2938  -26.8132   19.6133 N   0  0  0  0  0  0  0  0  0  0  0  0
  -26.4403  -30.9808   22.3100 N   0  0  0  0  0  0  0  0  0  0  0  0
  -21.9757  -31.1024   22.9797 N   0  0  0  0  0  0  0  0  0  0  0  0
  -22.2634  -12.8363   21.7764 N   0  0  0  0  0  0  0  0  0  0  0  0
  -21.1044  -19.5230   22.4136 N   0  0  0  0  0  0  0  0  0  0  0  0
  -28.7425  -25.2865   21.3630 N   0  0  0  0  0  0  0  0  0  0  0  0
  -22.7330  -22.6016   23.3818 N   0  3  0  0  0  0  0  0  0  0  0  0
  -23.9676  -32.1012   23.5214 O   0  0  0  0  0  0  0  0  0  0  0  0
  -21.8692  -14.5862   20.2915 O   0  0  0  0  0  0  0  0  0  0  0  0
  -20.4465  -16.7951   22.9918 O   0  0  0  0  0  0  0  0  0  0  0  0
  -22.1702  -21.0895   21.0767 O   0  0  0  0  0  0  0  0  0  0  0  0
  -30.2511  -25.5703   19.6599 O   0  0  0  0  0  0  0  0  0  0  0  0
  -18.2069  -27.7038   20.6815 O   0  0  0  0  0  0  0  0  0  0  0  0
  -28.0766  -16.5860   19.3045 O   0  0  0  0  0  0  0  0  0  1  0  0
  -17.0407  -22.3190   20.9001 F   0  0  0  0  0  0  0  0  0  0  0  0
  -16.5036  -26.6988   22.6132 F   0  0  0  0  0  0  0  0  0  0  0  0
  1  2  1  0  0  0  0
  1  5  2  0  0  0  0
  2  6  2  0  0  0  0
  3  8  2  0  0  0  0
  3 16  1  0  0  0  0
  4  9  1  0  0  0  0
  4 16  2  0  0  0  0
  5 18  1  0  0  0  0
  6 20  1  0  0  0  0
  7 10  2  0  0  0  0
  7 19  1  0  0  0  0
  8 22  1  0  0  0  0
  9 22  2  0  0  0  0
 10 23  1  0  0  0  0
 11 12  2  0  0  0  0
 11 24  1  0  0  0  0
 12 25  1  0  0  0  0
 13 21  1  0  0  0  0
 13 23  2  0  0  0  0
 14 25  2  0  0  0  0
 14 26  1  0  0  0  0
 15 28  2  0  0  0  0
 15 66  1  0  0  0  0
 16 27  1  0  0  0  0
 17 27  1  0  0  0  0
 17 29  2  0  0  0  0
 17 31  1  0  0  0  0
 18 20  2  0  0  0  0
 18 36  1  0  0  0  0
 19 21  2  0  0  0  0
 19 37  1  0  0  0  0
 20 45  1  0  0  0  0
 21 38  1  0  0  0  0
 22 82  1  0  0  0  0
 23 83  1  0  0  0  0
 24 26  2  0  0  0  0
 24 82  1  0  0  0  0
 25 84  1  0  0  0  0
 26 85  1  0  0  0  0
 27 65  2  0  0  0  0
 28 60  1  0  0  0  0
 28 68  1  0  0  0  0
 29 67  1  0  0  0  0
 29 71  1  0  0  0  0
 30 48  1  0  0  0  0
 30 66  1  0  0  0  0
 30 68  2  0  0  0  0
 31 72  1  0  0  0  0
 31 77  2  0  0  0  0
 32 46  1  0  0  0  0
 32 73  1  0  0  0  0
 32 78  2  0  0  0  0
 33 61  1  0  0  0  0
 33 69  1  0  0  0  0
 33 79  2  0  0  0  0
 34 62  1  0  0  0  0
 34 74  1  0  0  0  0
 34 80  2  0  0  0  0
 35 70  1  0  0  0  0
 35 75  1  0  0  0  0
 35 81  2  0  0  0  0
 36 39  1  0  0  0  0
 37 46  1  0  0  0  0
 38 69  1  0  0  0  0
 39 41  1  0  0  0  0
 40 42  1  0  0  0  0
 40 43  1  0  0  0  0
 41 45  1  0  0  0  0
 42 47  1  0  0  0  0
 43 70  1  0  0  0  0
 44 47  1  0  0  0  0
 44 70  1  0  0  0  0
 45 73  1  0  0  0  0
 46 69  1  0  0  0  0
 47 67  1  0  0  0  0
 49 56  1  0  0  0  0
 50 60  1  0  0  0  0
 51 62  1  0  0  0  0
 52 64  1  0  0  0  0
 53 64  1  0  0  0  0
 54 64  1  0  0  0  0
 55 76  1  0  0  0  0
 56 63  1  0  0  0  0
 57 58  1  0  0  0  0
 57 63  1  0  0  0  0
 58 66  1  0  0  0  0
 59 63  1  0  0  0  0
 59 83  1  0  0  0  0
 60 75  1  0  0  0  0
 61 64  1  0  0  0  0
 61 74  1  0  0  0  0
 62 76  1  0  0  0  0
 65 67  1  0  0  0  0
M  CHG  2  68   1  76   1
M  ISO  4  35 100  59 101  75 100  83 101
M  END
> <Batch ID>
0078

> <Smiles>
CCC(CCn1cc(C(C)[100NH:0][100C:0](=O)N2CCCC(n3nc(-c4ccc(Oc5ccc(F)cc5F)cc4)c(C(N)=O)c3N)C2)nc1C)[101CH2:1][101O:1]c1ccc2c(c1)CN(C(=O)C(NC(=O)C(C)NC)C(C)(C)C)C(C(=O)NC1CCCc3ccccc31)C2

> <Shape>
0.234

> <Color>
0.086

> <Negative vol penalty>
0.000

$$$$

  -OEChem-04052318393D

 84 92  0     1  0  0  0  0  0999 V2000
  -25.0237  -29.0210   20.0877 C   0  0  0  0  0  0  0  0  0  0  0  0
  -24.7917  -27.8627   19.3528 C   0  0  0  0  0  0  0  0  0  0  0  0
  -24.4396  -16.4799   21.3018 C   0  0  0  0  0  0  0  0  0  0  0  0
  -23.3201  -15.7088   19.3045 C   0  0  0  0  0  0  0  0  0  0  0  0
  -26.2563  -29.2154   20.7096 C   0  0  0  0  0  0  0  0  0  0  0  0
  -25.7926  -26.8986   19.2386 C   0  0  0  0  0  0  0  0  0  0  0  0
  -25.0408  -20.8276   18.9499 C   0  0  0  0  0  0  0  0  0  0  0  0
  -23.7865  -17.7076   21.1939 C   0  0  0  0  0  0  0  0  0  0  0  0
  -22.6669  -16.9365   19.1966 C   0  0  0  0  0  0  0  0  0  0  0  0
  -25.0163  -19.9354   17.8788 C   0  0  0  0  0  0  0  0  0  0  0  0
  -22.1398  -20.9166   21.6475 C   0  0  0  0  0  0  0  0  0  0  0  0
  -21.5851  -21.4602   22.8061 C   0  0  0  0  0  0  0  0  0  0  0  0
  -27.3507  -19.4464   18.2405 C   0  0  0  0  0  0  0  0  0  0  0  0
  -20.1714  -19.5152   23.0417 C   0  0  0  0  0  0  0  0  0  0  0  0
  -28.1245  -13.9503   13.2104 C   0  0  0  0  0  0  0  0  0  0  0  0
  -25.9897  -13.5072   12.8893 C   0  0  0  0  0  0  0  0  0  0  0  0
  -24.2065  -15.4804   20.3570 C   0  0  0  0  0  0  0  0  0  0  0  0
  -24.4355  -13.0694   21.1584 C   0  0  0  0  0  0  0  0  0  0  0  0
  -27.2695  -28.2488   20.6110 C   0  0  0  0  0  0  0  0  0  0  0  0
  -26.2253  -21.0444   19.6686 C   0  0  0  0  0  0  0  0  0  0  0  0
  -27.0404  -27.0809   19.8587 C   0  0  0  0  0  0  0  0  0  0  0  0
  -27.3870  -20.3399   19.3219 C   0  0  0  0  0  0  0  0  0  0  0  0
  -22.9001  -17.9360   20.1413 C   0  0  0  0  0  0  0  0  0  0  0  0
  -26.1720  -19.2468   17.5222 C   0  0  0  0  0  0  0  0  0  0  0  0
  -21.7102  -19.6724   21.1859 C   0  0  0  0  0  0  0  0  0  0  0  0
  -20.6010  -20.7595   23.5033 C   0  0  0  0  0  0  0  0  0  0  0  0
  -20.7261  -18.9717   21.8830 C   0  0  0  0  0  0  0  0  0  0  0  0
  -24.8813  -14.2122   20.4676 C   0  0  0  0  0  0  0  0  0  0  0  0
  -27.8855  -12.5963   13.2159 C   0  0  0  0  0  0  0  0  0  0  0  0
  -25.4271  -12.1399   20.9605 C   0  0  0  0  0  0  0  0  0  0  0  0
  -23.2325  -12.8663   21.9117 C   0  0  0  0  0  0  0  0  0  0  0  0
  -28.0979  -23.5571   20.2010 C   0  0  0  0  0  0  0  0  0  0  0  0
  -29.6245  -21.5053   22.1966 C   0  0  0  0  0  0  0  0  0  0  0  0
  -30.3492  -18.2767   23.0321 C   0  0  0  0  0  0  0  0  0  0  0  0
  -29.5557  -11.4306   16.6823 C   0  0  0  0  0  0  0  0  0  0  0  0
  -28.6020  -28.5249   21.2613 C   0  0  0  0  0  0  0  0  0  0  0  0
  -26.2285  -21.9902   20.8382 C   0  0  0  0  0  0  0  0  0  0  0  0
  -28.6790  -20.5218   20.0742 C   0  0  0  0  0  0  0  0  0  0  0  0
  -29.4794  -27.2838   21.4030 C   0  0  0  0  0  0  0  0  0  0  0  0
  -30.1343  -11.7957   20.1764 C   0  0  0  0  0  0  0  0  0  0  0  0
  -29.4981  -26.4915   20.0996 C   0  0  0  0  0  0  0  0  0  0  0  0
  -28.8134  -12.3533   20.7096 C   0  0  0  0  0  0  0  0  0  0  0  0
  -30.4651  -12.3533   18.7938 C   0  0  0  0  0  0  0  0  0  0  0  0
  -28.0783  -12.7452   18.3211 C   0  0  0  0  0  0  0  0  0  0  0  0
  -28.0926  -26.0006   19.7322 C   0  0  1  0  0  0  0  0  0  0  0  0
  -27.6193  -22.5184   21.1756 C   0  0  1  0  0  0  0  0  0  0  0  0
  -27.6742  -12.1690   19.6890 C   0  0  2  0  0  0  0  0  0  0  0  0
  -31.6531  -16.9160   24.6892 C   0  0  0  0  0  0  0  0  0  0  0  0
  -30.3532  -11.9311   13.6220 C   0  0  0  0  0  0  0  0  0  0  0  0
  -28.9035  -10.5729   12.1354 C   0  0  0  0  0  0  0  0  0  0  0  0
  -32.2076  -22.1936   20.7256 C   0  0  0  0  0  0  0  0  0  0  0  0
  -33.2507  -20.1614   21.7504 C   0  0  0  0  0  0  0  0  0  0  0  0
  -32.4376  -22.0141   23.2094 C   0  0  0  0  0  0  0  0  0  0  0  0
  -27.9035  -16.9529   24.0445 C   0  0  0  0  0  0  0  0  0  0  0  0
  -26.0031  -16.5855   14.1927 C   0  0  0  0  0  0  0  0  0  0  0  0
  -25.8014  -18.0998   14.1185 C   0  0  0  0  0  0  0  0  0  0  0  0
  -26.6066  -15.9971   12.9123 C   0  0  0  0  0  0  0  0  0  0  0  0
  -28.4967  -10.5564   14.6151 C   0  0  0  0  0  0  0  0  0  0  0  0
  -25.2341  -18.6528   15.4190 C   0  0  0  0  0  0  0  0  0  1  0  0
  -30.7584  -20.5191   22.0530 C   0  0  1  0  0  0  0  0  0  0  0  0
  -30.3085  -17.5472   24.3628 C   0  0  2  0  0  0  0  0  0  0  0  0
  -28.8511  -11.5023   13.4012 C   0  0  0  0  0  0  0  0  0  0  0  0
  -32.1399  -21.2199   21.9190 C   0  0  0  0  0  0  0  0  0  0  0  0
  -26.5548  -12.3270   13.0153 N   0  0  0  0  0  0  0  0  0  0  0  0
  -26.0641  -14.0278   19.8752 N   0  0  0  0  0  0  0  0  0  0  0  0
  -26.9007  -14.5206   12.9997 N   0  0  0  0  0  0  0  0  0  0  0  0
  -26.3700  -12.7585   20.1933 N   0  0  0  0  0  0  0  0  0  0  0  0
  -28.6330  -21.4622   21.2061 N   0  0  0  0  0  0  0  0  0  0  0  0
  -29.3448  -12.1450   17.8732 N   0  0  0  0  0  0  0  0  0  0  0  0
  -25.5758  -10.8621   21.3696 N   0  0  0  0  0  0  0  0  0  0  0  0
  -22.3213  -13.9263   22.0141 N   0  0  0  0  0  0  0  0  0  0  0  0
  -27.7346  -24.8486   20.5317 N   0  0  0  0  0  0  0  0  0  0  0  0
  -30.6566  -19.6115   23.1906 N   0  0  0  0  0  0  0  0  0  0  0  0
  -28.4397  -11.2732   15.8696 N   0  0  0  0  0  0  0  0  0  0  0  0
  -29.2789  -16.4703   24.3318 N   0  3  0  0  0  0  0  0  0  0  0  0
  -22.9810  -11.7824   22.4908 O   0  0  0  0  0  0  0  0  0  0  0  0
  -28.7499  -23.2123   19.2224 O   0  0  0  0  0  0  0  0  0  0  0  0
  -29.6150  -22.2803   23.1562 O   0  0  0  0  0  0  0  0  0  0  0  0
  -30.1338  -17.7176   21.9591 O   0  0  0  0  0  0  0  0  0  0  0  0
  -30.6557  -10.9627   16.3694 O   0  0  0  0  0  0  0  0  0  0  0  0
  -22.2624  -19.1338   20.0358 O   0  0  0  0  0  0  0  0  0  0  0  0
  -26.1510  -18.3758   16.4768 O   0  0  0  0  0  0  0  0  0  1  0  0
  -20.0695  -21.2808   24.6168 F   0  0  0  0  0  0  0  0  0  0  0  0
  -20.3102  -17.7754   21.4451 F   0  0  0  0  0  0  0  0  0  0  0  0
  1  2  1  0  0  0  0
  1  5  2  0  0  0  0
  2  6  2  0  0  0  0
  3  8  2  0  0  0  0
  3 17  1  0  0  0  0
  4  9  1  0  0  0  0
  4 17  2  0  0  0  0
  5 19  1  0  0  0  0
  6 21  1  0  0  0  0
  7 10  2  0  0  0  0
  7 20  1  0  0  0  0
  8 23  1  0  0  0  0
  9 23  2  0  0  0  0
 10 24  1  0  0  0  0
 11 12  2  0  0  0  0
 11 25  1  0  0  0  0
 12 26  1  0  0  0  0
 13 22  1  0  0  0  0
 13 24  2  0  0  0  0
 14 26  2  0  0  0  0
 14 27  1  0  0  0  0
 15 29  2  0  0  0  0
 15 66  1  0  0  0  0
 16 64  2  0  0  0  0
 16 66  1  0  0  0  0
 17 28  1  0  0  0  0
 18 28  1  0  0  0  0
 18 30  2  0  0  0  0
 18 31  1  0  0  0  0
 19 21  2  0  0  0  0
 19 36  1  0  0  0  0
 20 22  2  0  0  0  0
 20 37  1  0  0  0  0
 21 45  1  0  0  0  0
 22 38  1  0  0  0  0
 23 81  1  0  0  0  0
 24 82  1  0  0  0  0
 25 27  2  0  0  0  0
 25 81  1  0  0  0  0
 26 83  1  0  0  0  0
 27 84  1  0  0  0  0
 28 65  2  0  0  0  0
 29 62  1  0  0  0  0
 29 64  1  0  0  0  0
 30 67  1  0  0  0  0
 30 70  1  0  0  0  0
 31 71  1  0  0  0  0
 31 76  2  0  0  0  0
 32 46  1  0  0  0  0
 32 72  1  0  0  0  0
 32 77  2  0  0  0  0
 33 60  1  0  0  0  0
 33 68  1  0  0  0  0
 33 78  2  0  0  0  0
 34 61  1  0  0  0  0
 34 73  1  0  0  0  0
 34 79  2  0  0  0  0
 35 69  1  0  0  0  0
 35 74  1  0  0  0  0
 35 80  2  0  0  0  0
 36 39  1  0  0  0  0
 37 46  1  0  0  0  0
 38 68  1  0  0  0  0
 39 41  1  0  0  0  0
 40 42  1  0  0  0  0
 40 43  1  0  0  0  0
 41 45  1  0  0  0  0
 42 47  1  0  0  0  0
 43 69  1  0  0  0  0
 44 47  1  0  0  0  0
 44 69  1  0  0  0  0
 45 72  1  0  0  0  0
 46 68  1  0  0  0  0
 47 67  1  0  0  0  0
 48 61  1  0  0  0  0
 49 62  1  0  0  0  0
 50 62  1  0  0  0  0
 51 63  1  0  0  0  0
 52 63  1  0  0  0  0
 53 63  1  0  0  0  0
 54 75  1  0  0  0  0
 55 56  1  0  0  0  0
 55 57  1  0  0  0  0
 56 59  1  0  0  0  0
 57 66  1  0  0  0  0
 58 62  1  0  0  0  0
 58 74  1  0  0  0  0
 59 82  1  0  0  0  0
 60 63  1  0  0  0  0
 60 73  1  0  0  0  0
 61 75  1  0  0  0  0
 65 67  1  0  0  0  0
M  CHG  1  75   1
M  ISO  4  35 100  59 101  74 100  82 101
M  END
> <Batch ID>
0078

> <Smiles>
CNC(C)C(=O)NC(C(=O)N1Cc2cc([101O:1][101CH2:1]CCCn3cnc(C(C)(C)C[100NH:0][100C:0](=O)N4CCCC(n5nc(-c6ccc(Oc7ccc(F)cc7F)cc6)c(C(N)=O)c5N)C4)c3)ccc2CC1C(=O)NC1CCCc2ccccc21)C(C)(C)C

> <Shape>
0.196

> <Color>
0.070

> <Negative vol penalty>
0.000

$$$$

  -OEChem-04052318393D

 87 95  0     1  0  0  0  0  0999 V2000
  -31.3921  -33.0953   18.5444 C   0  0  0  0  0  0  0  0  0  0  0  0
  -30.8966  -31.8091   18.7332 C   0  0  0  0  0  0  0  0  0  0  0  0
  -23.1376   -9.9650   20.8883 C   0  0  0  0  0  0  0  0  0  0  0  0
  -22.8232  -12.0861   22.0014 C   0  0  0  0  0  0  0  0  0  0  0  0
  -31.1240  -34.0893   19.4847 C   0  0  0  0  0  0  0  0  0  0  0  0
  -30.1337  -31.5159   19.8629 C   0  0  0  0  0  0  0  0  0  0  0  0
  -26.0166  -28.7774   18.7697 C   0  0  0  0  0  0  0  0  0  0  0  0
  -22.1500   -9.3965   21.6926 C   0  0  0  0  0  0  0  0  0  0  0  0
  -21.8354  -11.5176   22.8057 C   0  0  0  0  0  0  0  0  0  0  0  0
  -26.1997  -27.4132   18.5481 C   0  0  0  0  0  0  0  0  0  0  0  0
  -19.9625   -7.2959   23.6991 C   0  0  0  0  0  0  0  0  0  0  0  0
  -20.2210   -6.0451   24.2598 C   0  0  0  0  0  0  0  0  0  0  0  0
  -25.4549  -26.9542   20.7962 C   0  0  0  0  0  0  0  0  0  0  0  0
  -22.1410   -6.9569   25.4084 C   0  0  0  0  0  0  0  0  0  0  0  0
  -27.2129  -20.3411   17.2857 C   0  0  0  0  0  0  0  0  0  0  0  0
  -23.4743  -11.3098   21.0428 C   0  0  0  0  0  0  0  0  0  0  0  0
  -24.3186  -12.5261   18.9654 C   0  0  0  0  0  0  0  0  0  0  0  0
  -30.3493  -33.8105   20.6217 C   0  0  0  0  0  0  0  0  0  0  0  0
  -25.5609  -29.2419   20.0119 C   0  0  0  0  0  0  0  0  0  0  0  0
  -29.8562  -32.5067   20.8200 C   0  0  0  0  0  0  0  0  0  0  0  0
  -25.2644  -28.3246   21.0302 C   0  0  0  0  0  0  0  0  0  0  0  0
  -21.4989  -10.1728   22.6513 C   0  0  0  0  0  0  0  0  0  0  0  0
  -25.9216  -26.5016   19.5623 C   0  0  0  0  0  0  0  0  0  0  0  0
  -20.7933   -8.3772   23.9930 C   0  0  0  0  0  0  0  0  0  0  0  0
  -21.3102   -5.8756   25.1145 C   0  0  0  0  0  0  0  0  0  0  0  0
  -21.8825   -8.2077   24.8476 C   0  0  0  0  0  0  0  0  0  0  0  0
  -24.4949  -11.8975   20.2126 C   0  0  0  0  0  0  0  0  0  0  0  0
  -26.6526  -19.0986   17.6381 C   0  0  0  0  0  0  0  0  0  0  0  0
  -28.3029  -20.4727   18.1110 C   0  0  0  0  0  0  0  0  0  0  0  0
  -25.5835  -12.9102   18.5926 C   0  0  0  0  0  0  0  0  0  0  0  0
  -23.1187  -12.7434   18.2112 C   0  0  0  0  0  0  0  0  0  0  0  0
  -26.7520  -31.1290   22.2755 C   0  0  0  0  0  0  0  0  0  0  0  0
  -23.8026  -30.7738   23.5784 C   0  0  0  0  0  0  0  0  0  0  0  0
  -20.9584  -28.9065   23.8440 C   0  0  0  0  0  0  0  0  0  0  0  0
  -30.5357  -15.1802   19.8042 C   0  0  0  0  0  0  0  0  0  0  0  0
  -30.1258  -34.9057   21.6342 C   0  0  0  0  0  0  0  0  0  0  0  0
  -25.3431  -30.7146   20.2262 C   0  0  0  0  0  0  0  0  0  0  0  0
  -24.7535  -28.7705   22.3750 C   0  0  0  0  0  0  0  0  0  0  0  0
  -28.9950  -34.6068   22.6151 C   0  0  0  0  0  0  0  0  0  0  0  0
  -30.0947  -11.7270   20.5510 C   0  0  0  0  0  0  0  0  0  0  0  0
  -29.1162  -33.1843   23.1521 C   0  0  0  0  0  0  0  0  0  0  0  0
  -28.5841  -11.5172   20.4328 C   0  0  0  0  0  0  0  0  0  0  0  0
  -30.4301  -13.0959   21.1388 C   0  0  0  0  0  0  0  0  0  0  0  0
  -28.2996  -14.0283   20.3232 C   0  0  0  0  0  0  0  0  0  0  0  0
  -29.0039  -32.1558   22.0202 C   0  0  1  0  0  0  0  0  0  0  0  0
  -25.3647  -31.1138   21.6985 C   0  0  1  0  0  0  0  0  0  0  0  0
  -27.9129  -12.6839   19.6834 C   0  0  2  0  0  0  0  0  0  0  0  0
  -18.7392  -28.8529   25.0143 C   0  0  0  0  0  0  0  0  0  0  0  0
  -25.6126  -18.2016   15.5263 C   0  0  0  0  0  0  0  0  0  0  0  0
  -24.1751  -19.3405   17.2505 C   0  0  0  0  0  0  0  0  0  0  0  0
  -25.0684  -17.0577   17.6657 C   0  0  0  0  0  0  0  0  0  0  0  0
  -25.1828  -29.8831   26.1497 C   0  0  0  0  0  0  0  0  0  0  0  0
  -22.9894  -28.9572   26.9240 C   0  0  0  0  0  0  0  0  0  0  0  0
  -23.2252  -31.4021   26.4887 C   0  0  0  0  0  0  0  0  0  0  0  0
  -19.4756  -29.0081   21.2848 C   0  0  0  0  0  0  0  0  0  0  0  0
  -29.3231  -21.5760   18.2360 C   0  0  0  0  0  0  0  0  0  0  0  0
  -28.7784  -22.9655   17.8871 C   0  0  0  0  0  0  0  0  0  0  0  0
  -27.6643  -23.4255   18.8284 C   0  0  0  0  0  0  0  0  0  0  0  0
  -30.6192  -18.4718   19.3544 C   0  0  0  0  0  0  0  0  0  0  0  0
  -29.2915  -19.0130   19.9016 C   0  0  0  0  0  0  0  0  0  0  0  0
  -30.4805  -17.2544   18.4427 C   0  0  0  0  0  0  0  0  0  0  0  0
  -27.1216  -24.7905   18.4274 C   0  0  0  0  0  0  0  0  0  1  0  0
  -23.1682  -29.7955   24.5373 C   0  0  1  0  0  0  0  0  0  0  0  0
  -19.4914  -29.2890   23.7666 C   0  0  2  0  0  0  0  0  0  0  0  0
  -25.4570  -18.4583   17.0644 C   0  0  0  0  0  0  0  0  0  0  0  0
  -23.6529  -30.0009   26.0003 C   0  0  0  0  0  0  0  0  0  0  0  0
  -25.7712  -11.8810   20.6059 N   0  0  0  0  0  0  0  0  0  0  0  0
  -27.3308  -18.4846   18.6113 N   0  0  0  0  0  0  0  0  0  0  0  0
  -28.3285  -19.3448   18.8774 N   0  0  0  0  0  0  0  0  0  0  0  0
  -26.4084  -12.5038   19.5998 N   0  0  0  0  0  0  0  0  0  0  0  0
  -24.5629  -30.2212   22.5379 N   0  0  0  0  0  0  0  0  0  0  0  0
  -29.7640  -14.1585   20.3817 N   0  0  0  0  0  0  0  0  0  0  0  0
  -26.0594  -13.5524   17.5048 N   0  0  0  0  0  0  0  0  0  0  0  0
  -21.9046  -12.2849   18.7405 N   0  0  0  0  0  0  0  0  0  0  0  0
  -27.6215  -31.9854   21.6275 N   0  0  0  0  0  0  0  0  0  0  0  0
  -21.7261  -29.9284   24.3614 N   0  0  0  0  0  0  0  0  0  0  0  0
  -29.8262  -16.1442   19.0984 N   0  0  0  0  0  0  0  0  0  0  0  0
  -18.8507  -28.6481   22.5835 N   0  3  0  0  0  0  0  0  0  0  0  0
  -23.1252  -13.3124   17.0933 O   0  0  0  0  0  0  0  0  0  0  0  0
  -27.0137  -30.4175   23.2383 O   0  0  0  0  0  0  0  0  0  0  0  0
  -23.6241  -31.9833   23.7421 O   0  0  0  0  0  0  0  0  0  0  0  0
  -21.3806  -27.8094   23.4852 O   0  0  0  0  0  0  0  0  0  0  0  0
  -31.7664  -15.2267   19.9052 O   0  0  0  0  0  0  0  0  0  0  0  0
  -20.5349   -9.6184   23.4361 O   0  0  0  0  0  0  0  0  0  0  0  0
  -26.1000  -25.1695   19.3489 O   0  0  0  0  0  0  0  0  0  1  0  0
  -21.5574   -4.6749   25.6541 F   0  0  0  0  0  0  0  0  0  0  0  0
  -22.6835   -9.2430   25.1346 F   0  0  0  0  0  0  0  0  0  0  0  0
  1  2  1  0  0  0  0
  1  5  2  0  0  0  0
  2  6  2  0  0  0  0
  3  8  2  0  0  0  0
  3 16  1  0  0  0  0
  4  9  1  0  0  0  0
  4 16  2  0  0  0  0
  5 18  1  0  0  0  0
  6 20  1  0  0  0  0
  7 10  2  0  0  0  0
  7 19  1  0  0  0  0
  8 22  1  0  0  0  0
  9 22  2  0  0  0  0
 10 23  1  0  0  0  0
 11 12  2  0  0  0  0
 11 24  1  0  0  0  0
 12 25  1  0  0  0  0
 13 21  1  0  0  0  0
 13 23  2  0  0  0  0
 14 25  2  0  0  0  0
 14 26  1  0  0  0  0
 15 28  1  0  0  0  0
 15 29  2  0  0  0  0
 16 27  1  0  0  0  0
 17 27  1  0  0  0  0
 17 30  2  0  0  0  0
 17 31  1  0  0  0  0
 18 20  2  0  0  0  0
 18 36  1  0  0  0  0
 19 21  2  0  0  0  0
 19 37  1  0  0  0  0
 20 45  1  0  0  0  0
 21 38  1  0  0  0  0
 22 84  1  0  0  0  0
 23 85  1  0  0  0  0
 24 26  2  0  0  0  0
 24 84  1  0  0  0  0
 25 86  1  0  0  0  0
 26 87  1  0  0  0  0
 27 67  2  0  0  0  0
 28 65  1  0  0  0  0
 28 68  2  0  0  0  0
 29 56  1  0  0  0  0
 29 69  1  0  0  0  0
 30 70  1  0  0  0  0
 30 73  1  0  0  0  0
 31 74  1  0  0  0  0
 31 79  2  0  0  0  0
 32 46  1  0  0  0  0
 32 75  1  0  0  0  0
 32 80  2  0  0  0  0
 33 63  1  0  0  0  0
 33 71  1  0  0  0  0
 33 81  2  0  0  0  0
 34 64  1  0  0  0  0
 34 76  1  0  0  0  0
 34 82  2  0  0  0  0
 35 72  1  0  0  0  0
 35 77  1  0  0  0  0
 35 83  2  0  0  0  0
 36 39  1  0  0  0  0
 37 46  1  0  0  0  0
 38 71  1  0  0  0  0
 39 41  1  0  0  0  0
 40 42  1  0  0  0  0
 40 43  1  0  0  0  0
 41 45  1  0  0  0  0
 42 47  1  0  0  0  0
 43 72  1  0  0  0  0
 44 47  1  0  0  0  0
 44 72  1  0  0  0  0
 45 75  1  0  0  0  0
 46 71  1  0  0  0  0
 47 70  1  0  0  0  0
 48 64  1  0  0  0  0
 49 65  1  0  0  0  0
 50 65  1  0  0  0  0
 51 65  1  0  0  0  0
 52 66  1  0  0  0  0
 53 66  1  0  0  0  0
 54 66  1  0  0  0  0
 55 78  1  0  0  0  0
 56 57  1  0  0  0  0
 57 58  1  0  0  0  0
 58 62  1  0  0  0  0
 59 60  1  0  0  0  0
 59 61  1  0  0  0  0
 60 69  1  0  0  0  0
 61 77  1  0  0  0  0
 62 85  1  0  0  0  0
 63 66  1  0  0  0  0
 63 76  1  0  0  0  0
 64 78  1  0  0  0  0
 67 70  1  0  0  0  0
 68 69  1  0  0  0  0
M  CHG  1  78   1
M  ISO  4  35 100  62 101  77 100  85 101
M  END
> <Batch ID>
0078

> <Smiles>
CNC(C)C(=O)NC(C(=O)N1Cc2cc([101O:1][101CH2:1]CCCc3cc(C(C)(C)C)nn3CCC[100NH:0][100C:0](=O)N3CCCC(n4nc(-c5ccc(Oc6ccc(F)cc6F)cc5)c(C(N)=O)c4N)C3)ccc2CC1C(=O)NC1CCCc2ccccc21)C(C)(C)C

> <Shape>
0.255

> <Color>
0.095

> <Negative vol penalty>
0.000

$$$$

  -OEChem-04052318393D

 83 91  0     1  0  0  0  0  0999 V2000
  -22.2360  -10.9240   19.0792 C   0  0  0  0  0  0  0  0  0  0  0  0
  -21.8282  -12.2525   19.1434 C   0  0  0  0  0  0  0  0  0  0  0  0
  -27.4587  -23.9178   22.1968 C   0  0  0  0  0  0  0  0  0  0  0  0
  -28.2889  -25.6172   23.7001 C   0  0  0  0  0  0  0  0  0  0  0  0
  -23.4387  -10.5359   19.6682 C   0  0  0  0  0  0  0  0  0  0  0  0
  -22.6224  -13.1936   19.7976 C   0  0  0  0  0  0  0  0  0  0  0  0
  -23.3653  -19.0792   18.2763 C   0  0  0  0  0  0  0  0  0  0  0  0
  -27.7204  -22.9405   23.1569 C   0  0  0  0  0  0  0  0  0  0  0  0
  -28.5505  -24.6398   24.6603 C   0  0  0  0  0  0  0  0  0  0  0  0
  -22.7854  -20.2525   18.7566 C   0  0  0  0  0  0  0  0  0  0  0  0
  -27.8343  -20.0420   25.3480 C   0  0  0  0  0  0  0  0  0  0  0  0
  -26.8531  -19.0771   25.5755 C   0  0  0  0  0  0  0  0  0  0  0  0
  -24.6753  -20.5806   20.2194 C   0  0  0  0  0  0  0  0  0  0  0  0
  -25.2959  -20.8110   26.2128 C   0  0  0  0  0  0  0  0  0  0  0  0
  -18.8858  -26.5188   21.4653 C   0  0  0  0  0  0  0  0  0  0  0  0
  -27.7430  -25.2561   22.4683 C   0  0  0  0  0  0  0  0  0  0  0  0
  -28.0160  -26.3509   20.1804 C   0  0  0  0  0  0  0  0  0  0  0  0
  -24.2527  -11.4746   20.3216 C   0  0  0  0  0  0  0  0  0  0  0  0
  -24.6015  -18.6412   18.7726 C   0  0  0  0  0  0  0  0  0  0  0  0
  -23.8365  -12.8175   20.3971 C   0  0  0  0  0  0  0  0  0  0  0  0
  -25.2700  -19.4027   19.7419 C   0  0  0  0  0  0  0  0  0  0  0  0
  -19.4209  -25.6037   22.3386 C   0  0  0  0  0  0  0  0  0  0  0  0
  -28.2663  -23.3015   24.3887 C   0  0  0  0  0  0  0  0  0  0  0  0
  -23.4390  -21.0019   19.7304 C   0  0  0  0  0  0  0  0  0  0  0  0
  -27.5465  -21.3914   25.5530 C   0  0  0  0  0  0  0  0  0  0  0  0
  -25.5839  -19.4616   26.0078 C   0  0  0  0  0  0  0  0  0  0  0  0
  -26.2773  -21.7759   25.9854 C   0  0  0  0  0  0  0  0  0  0  0  0
  -27.4734  -26.2661   21.4766 C   0  0  0  0  0  0  0  0  0  0  0  0
  -20.4428  -26.3077   23.0035 C   0  0  0  0  0  0  0  0  0  0  0  0
  -27.4478  -27.4802   19.6435 C   0  0  0  0  0  0  0  0  0  0  0  0
  -28.9500  -25.4861   19.5205 C   0  0  0  0  0  0  0  0  0  0  0  0
  -25.6046  -16.0614   20.3354 C   0  0  0  0  0  0  0  0  0  0  0  0
  -28.5245  -17.3983   19.8784 C   0  0  0  0  0  0  0  0  0  0  0  0
  -30.3642  -20.2164   19.3120 C   0  0  0  0  0  0  0  0  0  0  0  0
  -22.3537  -30.4153   20.7779 C   0  0  0  0  0  0  0  0  0  0  0  0
  -25.5213  -10.9989   20.9842 C   0  0  0  0  0  0  0  0  0  0  0  0
  -25.2262  -17.3874   18.2248 C   0  0  0  0  0  0  0  0  0  0  0  0
  -26.6085  -18.9866   20.2928 C   0  0  0  0  0  0  0  0  0  0  0  0
  -26.4865  -12.1286   21.3340 C   0  0  0  0  0  0  0  0  0  0  0  0
  -25.6584  -31.7340   20.9062 C   0  0  0  0  0  0  0  0  0  0  0  0
  -25.7427  -13.2760   22.0101 C   0  0  0  0  0  0  0  0  0  0  0  0
  -26.5473  -30.4899   20.9499 C   0  0  0  0  0  0  0  0  0  0  0  0
  -24.3660  -31.5323   21.6941 C   0  0  0  0  0  0  0  0  0  0  0  0
  -24.4779  -29.0934   21.3580 C   0  0  0  0  0  0  0  0  0  0  0  0
  -24.6825  -13.8724   21.0763 C   0  0  1  0  0  0  0  0  0  0  0  0
  -26.2463  -16.7646   19.1729 C   0  0  1  0  0  0  0  0  0  0  0  0
  -25.7678  -29.2289   20.5309 C   0  0  2  0  0  0  0  0  0  0  0  0
  -21.3487  -25.8079   24.0526 C   0  0  0  0  0  0  0  0  0  0  0  0
  -32.7310  -20.9990   19.0238 C   0  0  0  0  0  0  0  0  0  0  0  0
  -28.9697  -17.1519   22.8869 C   0  0  0  0  0  0  0  0  0  0  0  0
  -30.8690  -18.7684   22.6678 C   0  0  0  0  0  0  0  0  0  0  0  0
  -30.9595  -16.5729   21.4870 C   0  0  0  0  0  0  0  0  0  0  0  0
  -29.8266  -21.2051   16.5747 C   0  0  0  0  0  0  0  0  0  0  0  0
  -18.9991  -24.1689   22.5319 C   0  0  0  0  0  0  0  0  0  0  0  0
  -19.4825  -23.2268   21.4237 C   0  0  0  0  0  0  0  0  0  0  0  0
  -21.0065  -23.1250   21.3471 C   0  0  0  0  0  0  0  0  0  0  0  0
  -19.3946  -28.9191   20.9566 C   0  0  0  0  0  0  0  0  0  0  0  0
  -20.4237  -29.1575   19.8547 C   0  0  0  0  0  0  0  0  0  0  0  0
  -21.4495  -22.2130   20.2111 C   0  0  0  0  0  0  0  0  0  1  0  0
  -29.3888  -18.3676   20.6481 C   0  0  1  0  0  0  0  0  0  0  0  0
  -31.4741  -20.5122   18.3195 C   0  0  2  0  0  0  0  0  0  0  0  0
  -30.0207  -17.7223   21.9137 C   0  0  0  0  0  0  0  0  0  0  0  0
  -26.6258  -27.2623   21.7470 N   0  0  0  0  0  0  0  0  0  0  0  0
  -20.5523  -27.5723   22.5879 N   0  0  0  0  0  0  0  0  0  0  0  0
  -19.5924  -27.6702   21.6525 N   0  0  0  0  0  0  0  0  0  0  0  0
  -26.6315  -27.9838   20.6132 N   0  0  0  0  0  0  0  0  0  0  0  0
  -27.1754  -17.7499   19.7300 N   0  0  0  0  0  0  0  0  0  0  0  0
  -23.6743  -30.3208   21.2471 N   0  0  0  0  0  0  0  0  0  0  0  0
  -27.5718  -28.0818   18.4414 N   0  0  0  0  0  0  0  0  0  0  0  0
  -28.4518  -24.4068   18.7780 N   0  0  0  0  0  0  0  0  0  0  0  0
  -25.3024  -14.7349   20.0934 N   0  0  0  0  0  0  0  0  0  0  0  0
  -30.3617  -18.8921   19.6957 N   0  0  0  0  0  0  0  0  0  0  0  0
  -21.7741  -29.2209   20.3677 N   0  0  0  0  0  0  0  0  0  0  0  0
  -31.0399  -21.5614   17.3543 N   0  3  0  0  0  0  0  0  0  0  0  0
  -30.1903  -25.6555   19.6008 O   0  0  0  0  0  0  0  0  0  0  0  0
  -25.4000  -16.6764   21.3754 O   0  0  0  0  0  0  0  0  0  0  0  0
  -29.0294  -16.3707   19.4195 O   0  0  0  0  0  0  0  0  0  0  0  0
  -29.5802  -21.0752   19.7100 O   0  0  0  0  0  0  0  0  0  0  0  0
  -21.7387  -31.4857   20.7231 O   0  0  0  0  0  0  0  0  0  0  0  0
  -28.5215  -22.3481   25.3260 O   0  0  0  0  0  0  0  0  0  0  0  0
  -22.8749  -22.1473   20.2015 O   0  0  0  0  0  0  0  0  0  1  0  0
  -24.6412  -18.5351   26.2247 F   0  0  0  0  0  0  0  0  0  0  0  0
  -25.9944  -23.0708   26.1829 F   0  0  0  0  0  0  0  0  0  0  0  0
  1  2  1  0  0  0  0
  1  5  2  0  0  0  0
  2  6  2  0  0  0  0
  3  8  2  0  0  0  0
  3 16  1  0  0  0  0
  4  9  1  0  0  0  0
  4 16  2  0  0  0  0
  5 18  1  0  0  0  0
  6 20  1  0  0  0  0
  7 10  2  0  0  0  0
  7 19  1  0  0  0  0
  8 23  1  0  0  0  0
  9 23  2  0  0  0  0
 10 24  1  0  0  0  0
 11 12  2  0  0  0  0
 11 25  1  0  0  0  0
 12 26  1  0  0  0  0
 13 21  1  0  0  0  0
 13 24  2  0  0  0  0
 14 26  2  0  0  0  0
 14 27  1  0  0  0  0
 15 22  2  0  0  0  0
 15 65  1  0  0  0  0
 16 28  1  0  0  0  0
 17 28  1  0  0  0  0
 17 30  2  0  0  0  0
 17 31  1  0  0  0  0
 18 20  2  0  0  0  0
 18 36  1  0  0  0  0
 19 21  2  0  0  0  0
 19 37  1  0  0  0  0
 20 45  1  0  0  0  0
 21 38  1  0  0  0  0
 22 29  1  0  0  0  0
 22 54  1  0  0  0  0
 23 80  1  0  0  0  0
 24 81  1  0  0  0  0
 25 27  2  0  0  0  0
 25 80  1  0  0  0  0
 26 82  1  0  0  0  0
 27 83  1  0  0  0  0
 28 63  2  0  0  0  0
 29 48  1  0  0  0  0
 29 64  2  0  0  0  0
 30 66  1  0  0  0  0
 30 69  1  0  0  0  0
 31 70  1  0  0  0  0
 31 75  2  0  0  0  0
 32 46  1  0  0  0  0
 32 71  1  0  0  0  0
 32 76  2  0  0  0  0
 33 60  1  0  0  0  0
 33 67  1  0  0  0  0
 33 77  2  0  0  0  0
 34 61  1  0  0  0  0
 34 72  1  0  0  0  0
 34 78  2  0  0  0  0
 35 68  1  0  0  0  0
 35 73  1  0  0  0  0
 35 79  2  0  0  0  0
 36 39  1  0  0  0  0
 37 46  1  0  0  0  0
 38 67  1  0  0  0  0
 39 41  1  0  0  0  0
 40 42  1  0  0  0  0
 40 43  1  0  0  0  0
 41 45  1  0  0  0  0
 42 47  1  0  0  0  0
 43 68  1  0  0  0  0
 44 47  1  0  0  0  0
 44 68  1  0  0  0  0
 45 71  1  0  0  0  0
 46 67  1  0  0  0  0
 47 66  1  0  0  0  0
 49 61  1  0  0  0  0
 50 62  1  0  0  0  0
 51 62  1  0  0  0  0
 52 62  1  0  0  0  0
 53 74  1  0  0  0  0
 54 55  1  0  0  0  0
 55 56  1  0  0  0  0
 56 59  1  0  0  0  0
 57 58  1  0  0  0  0
 57 65  1  0  0  0  0
 58 73  1  0  0  0  0
 59 81  1  0  0  0  0
 60 62  1  0  0  0  0
 60 72  1  0  0  0  0
 61 74  1  0  0  0  0
 63 66  1  0  0  0  0
 64 65  1  0  0  0  0
M  CHG  1  74   1
M  ISO  4  35 100  59 101  73 100  81 101
M  END
> <Batch ID>
0078

> <Smiles>
CNC(C)C(=O)NC(C(=O)N1Cc2cc([101O:1][101CH2:1]CCCc3cn(CC[100NH:0][100C:0](=O)N4CCCC(n5nc(-c6ccc(Oc7ccc(F)cc7F)cc6)c(C(N)=O)c5N)C4)nc3C)ccc2CC1C(=O)NC1CCCc2ccccc21)C(C)(C)C

> <Shape>
0.216

> <Color>
0.079

> <Negative vol penalty>
0.000

$$$$

  -OEChem-04052318393D

 81 89  0     1  0  0  0  0  0999 V2000
  -25.1777  -27.8853   16.5604 C   0  0  0  0  0  0  0  0  0  0  0  0
  -25.2372  -26.5050   16.7239 C   0  0  0  0  0  0  0  0  0  0  0  0
  -30.3875  -20.2855   20.3153 C   0  0  0  0  0  0  0  0  0  0  0  0
  -28.0867  -20.1209   19.5969 C   0  0  0  0  0  0  0  0  0  0  0  0
  -25.3896  -28.7253   17.6528 C   0  0  0  0  0  0  0  0  0  0  0  0
  -25.5099  -25.9639   17.9798 C   0  0  0  0  0  0  0  0  0  0  0  0
  -23.2617  -20.7690   20.3173 C   0  0  0  0  0  0  0  0  0  0  0  0
  -30.4585  -21.5766   19.7923 C   0  0  0  0  0  0  0  0  0  0  0  0
  -28.1576  -21.4121   19.0739 C   0  0  0  0  0  0  0  0  0  0  0  0
  -23.7836  -19.4796   20.4112 C   0  0  0  0  0  0  0  0  0  0  0  0
  -29.4841  -24.6864   20.6938 C   0  0  0  0  0  0  0  0  0  0  0  0
  -30.0842  -25.6715   21.4781 C   0  0  0  0  0  0  0  0  0  0  0  0
  -24.5313  -19.9523   22.6555 C   0  0  0  0  0  0  0  0  0  0  0  0
  -31.7355  -26.0389   19.7532 C   0  0  0  0  0  0  0  0  0  0  0  0
  -24.7475  -13.4298   19.8299 C   0  0  0  0  0  0  0  0  0  0  0  0
  -29.2016  -19.5576   20.2176 C   0  0  0  0  0  0  0  0  0  0  0  0
  -28.7470  -17.8539   22.0610 C   0  0  0  0  0  0  0  0  0  0  0  0
  -25.6555  -28.1940   18.9247 C   0  0  0  0  0  0  0  0  0  0  0  0
  -23.3805  -21.6648   21.3896 C   0  0  0  0  0  0  0  0  0  0  0  0
  -25.7270  -26.7976   19.0900 C   0  0  0  0  0  0  0  0  0  0  0  0
  -24.0078  -21.2516   22.5736 C   0  0  0  0  0  0  0  0  0  0  0  0
  -29.3436  -22.1400   19.1716 C   0  0  0  0  0  0  0  0  0  0  0  0
  -24.4211  -19.0720   21.5793 C   0  0  0  0  0  0  0  0  0  0  0  0
  -30.0098  -24.3775   19.4392 C   0  0  0  0  0  0  0  0  0  0  0  0
  -31.2099  -26.3477   21.0078 C   0  0  0  0  0  0  0  0  0  0  0  0
  -31.1354  -25.0538   18.9689 C   0  0  0  0  0  0  0  0  0  0  0  0
  -29.1278  -18.2236   20.7571 C   0  0  0  0  0  0  0  0  0  0  0  0
  -25.7571  -12.5480   19.5362 C   0  0  0  0  0  0  0  0  0  0  0  0
  -28.8411  -16.4836   22.0706 C   0  0  0  0  0  0  0  0  0  0  0  0
  -28.3440  -18.6755   23.1647 C   0  0  0  0  0  0  0  0  0  0  0  0
  -24.7893  -24.4826   21.8129 C   0  0  0  0  0  0  0  0  0  0  0  0
  -27.9394  -11.9771   18.5175 C   0  0  0  0  0  0  0  0  0  0  0  0
  -23.3004  -24.3565   24.6920 C   0  0  0  0  0  0  0  0  0  0  0  0
  -21.9058  -22.4449   27.1513 C   0  0  0  0  0  0  0  0  0  0  0  0
  -25.9246  -29.1427   20.0659 C   0  0  0  0  0  0  0  0  0  0  0  0
  -22.7885  -23.0434   21.2822 C   0  0  0  0  0  0  0  0  0  0  0  0
  -24.1435  -22.1685   23.7608 C   0  0  0  0  0  0  0  0  0  0  0  0
  -25.8373  -28.4831   21.4398 C   0  0  0  0  0  0  0  0  0  0  0  0
  -31.2289  -13.1266   19.3524 C   0  0  0  0  0  0  0  0  0  0  0  0
  -26.5984  -27.1612   21.4467 C   0  0  0  0  0  0  0  0  0  0  0  0
  -30.9899  -14.5343   19.8969 C   0  0  0  0  0  0  0  0  0  0  0  0
  -30.2561  -12.7908   18.2264 C   0  0  0  0  0  0  0  0  0  0  0  0
  -28.5763  -14.3593   19.1426 C   0  0  0  0  0  0  0  0  0  0  0  0
  -25.9956  -26.1723   20.4416 C   0  0  1  0  0  0  0  0  0  0  0  0
  -23.4202  -24.0417   22.2474 C   0  0  1  0  0  0  0  0  0  0  0  0
  -29.5180  -14.7274   20.3028 C   0  0  2  0  0  0  0  0  0  0  0  0
  -25.8748  -11.3760   17.2991 C   0  0  0  0  0  0  0  0  0  0  0  0
  -20.8060  -22.6232   29.3999 C   0  0  0  0  0  0  0  0  0  0  0  0
  -26.0210  -24.8553   25.9804 C   0  0  0  0  0  0  0  0  0  0  0  0
  -25.0530  -24.0868   28.1577 C   0  0  0  0  0  0  0  0  0  0  0  0
  -24.1259  -26.1077   27.0266 C   0  0  0  0  0  0  0  0  0  0  0  0
  -19.3975  -21.2348   26.1495 C   0  0  0  0  0  0  0  0  0  0  0  0
  -23.5536  -15.3103   22.1207 C   0  0  0  0  0  0  0  0  0  0  0  0
  -24.8508  -15.7104   22.8254 C   0  0  0  0  0  0  0  0  0  0  0  0
  -23.3870  -13.7924   21.9870 C   0  0  0  0  0  0  0  0  0  0  0  0
  -24.9647  -17.2219   22.9713 C   0  0  0  0  0  0  0  0  0  1  0  0
  -26.5063  -12.3840   18.2838 C   0  0  1  0  0  0  0  0  0  0  0  0
  -23.6569  -23.8202   26.0574 C   0  0  1  0  0  0  0  0  0  0  0  0
  -20.5884  -22.5656   27.8958 C   0  0  2  0  0  0  0  0  0  0  0  0
  -24.7135  -24.7006   26.7826 C   0  0  0  0  0  0  0  0  0  0  0  0
  -29.4408  -17.1731   19.9939 N   0  0  0  0  0  0  0  0  0  0  0  0
  -26.0199  -11.7698   20.6293 N   0  0  0  0  0  0  0  0  0  0  0  0
  -25.1968  -12.1427   21.6033 N   0  0  0  0  0  0  0  0  0  0  0  0
  -24.4346  -13.1380   21.1219 N   0  0  0  0  0  0  0  0  0  0  0  0
  -29.2567  -16.1298   20.8207 N   0  0  0  0  0  0  0  0  0  0  0  0
  -23.5541  -23.5085   23.6046 N   0  0  0  0  0  0  0  0  0  0  0  0
  -28.8700  -13.0085   18.6442 N   0  0  0  0  0  0  0  0  0  0  0  0
  -28.6081  -15.5590   23.0262 N   0  0  0  0  0  0  0  0  0  0  0  0
  -28.3021  -20.0646   22.9832 N   0  0  0  0  0  0  0  0  0  0  0  0
  -24.7871  -25.5821   20.9760 N   0  0  0  0  0  0  0  0  0  0  0  0
  -22.3985  -23.6786   26.7817 N   0  0  0  0  0  0  0  0  0  0  0  0
  -19.7128  -21.3985   27.5920 N   0  3  0  0  0  0  0  0  0  0  0  0
  -28.0462  -18.1933   24.2838 O   0  0  0  0  0  0  0  0  0  0  0  0
  -25.7749  -23.8713   22.2088 O   0  0  0  0  0  0  0  0  0  0  0  0
  -28.2208  -10.7779   18.5879 O   0  0  0  0  0  0  0  0  0  0  0  0
  -22.8082  -25.4833   24.5946 O   0  0  0  0  0  0  0  0  0  0  0  0
  -22.4457  -21.3645   26.9237 O   0  0  0  0  0  0  0  0  0  0  0  0
  -29.4124  -23.3999   18.6614 O   0  0  0  0  0  0  0  0  0  0  0  0
  -24.9320  -17.8142   21.6734 O   0  0  0  0  0  0  0  0  0  1  0  0
  -31.7851  -27.2947   21.7605 F   0  0  0  0  0  0  0  0  0  0  0  0
  -31.6442  -24.7623   17.7639 F   0  0  0  0  0  0  0  0  0  0  0  0
  1  2  1  0  0  0  0
  1  5  2  0  0  0  0
  2  6  2  0  0  0  0
  3  8  2  0  0  0  0
  3 16  1  0  0  0  0
  4  9  1  0  0  0  0
  4 16  2  0  0  0  0
  5 18  1  0  0  0  0
  6 20  1  0  0  0  0
  7 10  2  0  0  0  0
  7 19  1  0  0  0  0
  8 22  1  0  0  0  0
  9 22  2  0  0  0  0
 10 23  1  0  0  0  0
 11 12  2  0  0  0  0
 11 24  1  0  0  0  0
 12 25  1  0  0  0  0
 13 21  1  0  0  0  0
 13 23  2  0  0  0  0
 14 25  2  0  0  0  0
 14 26  1  0  0  0  0
 15 28  2  0  0  0  0
 15 64  1  0  0  0  0
 16 27  1  0  0  0  0
 17 27  1  0  0  0  0
 17 29  2  0  0  0  0
 17 30  1  0  0  0  0
 18 20  2  0  0  0  0
 18 35  1  0  0  0  0
 19 21  2  0  0  0  0
 19 36  1  0  0  0  0
 20 44  1  0  0  0  0
 21 37  1  0  0  0  0
 22 78  1  0  0  0  0
 23 79  1  0  0  0  0
 24 26  2  0  0  0  0
 24 78  1  0  0  0  0
 25 80  1  0  0  0  0
 26 81  1  0  0  0  0
 27 61  2  0  0  0  0
 28 57  1  0  0  0  0
 28 62  1  0  0  0  0
 29 65  1  0  0  0  0
 29 68  1  0  0  0  0
 30 69  1  0  0  0  0
 30 73  2  0  0  0  0
 31 45  1  0  0  0  0
 31 70  1  0  0  0  0
 31 74  2  0  0  0  0
 32 57  1  0  0  0  0
 32 67  1  0  0  0  0
 32 75  2  0  0  0  0
 33 58  1  0  0  0  0
 33 66  1  0  0  0  0
 33 76  2  0  0  0  0
 34 59  1  0  0  0  0
 34 71  1  0  0  0  0
 34 77  2  0  0  0  0
 35 38  1  0  0  0  0
 36 45  1  0  0  0  0
 37 66  1  0  0  0  0
 38 40  1  0  0  0  0
 39 41  1  0  0  0  0
 39 42  1  0  0  0  0
 40 44  1  0  0  0  0
 41 46  1  0  0  0  0
 42 67  1  0  0  0  0
 43 46  1  0  0  0  0
 43 67  1  0  0  0  0
 44 70  1  0  0  0  0
 45 66  1  0  0  0  0
 46 65  1  0  0  0  0
 47 57  1  0  0  0  0
 48 59  1  0  0  0  0
 49 60  1  0  0  0  0
 50 60  1  0  0  0  0
 51 60  1  0  0  0  0
 52 72  1  0  0  0  0
 53 54  1  0  0  0  0
 53 55  1  0  0  0  0
 54 56  1  0  0  0  0
 55 64  1  0  0  0  0
 56 79  1  0  0  0  0
 58 60  1  0  0  0  0
 58 71  1  0  0  0  0
 59 72  1  0  0  0  0
 61 65  1  0  0  0  0
 62 63  2  0  0  0  0
 63 64  1  0  0  0  0
M  CHG  1  72   1
M  ISO  4  32 100  56 101  57 100  79 101
M  END
> <Batch ID>
0078

> <Smiles>
CNC(C)C(=O)NC(C(=O)N1Cc2cc([101O:1][101CH2:1]CCCn3cc([100CH:0](C)[100C:0](=O)N4CCCC(n5nc(-c6ccc(Oc7ccc(F)cc7F)cc6)c(C(N)=O)c5N)C4)nn3)ccc2CC1C(=O)NC1CCCc2ccccc21)C(C)(C)C

> <Shape>
0.188

> <Color>
0.077

> <Negative vol penalty>
0.000

$$$$

  -OEChem-04052318393D

 85 93  0     1  0  0  0  0  0999 V2000
  -23.5779  -31.8749   25.6297 C   0  0  0  0  0  0  0  0  0  0  0  0
  -24.5056  -30.8390   25.6703 C   0  0  0  0  0  0  0  0  0  0  0  0
  -23.7211   -9.7405   20.9851 C   0  0  0  0  0  0  0  0  0  0  0  0
  -24.3541  -10.5251   23.1807 C   0  0  0  0  0  0  0  0  0  0  0  0
  -22.6838  -31.9670   24.5639 C   0  0  0  0  0  0  0  0  0  0  0  0
  -24.5390  -29.8938   24.6456 C   0  0  0  0  0  0  0  0  0  0  0  0
  -29.1173  -25.7277   21.0402 C   0  0  0  0  0  0  0  0  0  0  0  0
  -23.1834   -8.5855   21.5528 C   0  0  0  0  0  0  0  0  0  0  0  0
  -23.8164   -9.3700   23.7485 C   0  0  0  0  0  0  0  0  0  0  0  0
  -29.2992  -24.3959   20.6701 C   0  0  0  0  0  0  0  0  0  0  0  0
  -20.7566   -8.1885   24.5623 C   0  0  0  0  0  0  0  0  0  0  0  0
  -19.9624   -8.3364   25.6994 C   0  0  0  0  0  0  0  0  0  0  0  0
  -27.7586  -24.7007   18.8390 C   0  0  0  0  0  0  0  0  0  0  0  0
  -27.9482  -15.8141   23.7197 C   0  0  0  0  0  0  0  0  0  0  0  0
  -21.4917   -6.9443   26.9486 C   0  0  0  0  0  0  0  0  0  0  0  0
  -24.3065  -10.7103   21.7990 C   0  0  0  0  0  0  0  0  0  0  0  0
  -24.1980  -13.1204   20.9701 C   0  0  0  0  0  0  0  0  0  0  0  0
  -22.7126  -31.0280   23.5207 C   0  0  0  0  0  0  0  0  0  0  0  0
  -28.2449  -26.5545   20.3178 C   0  0  0  0  0  0  0  0  0  0  0  0
  -23.6435  -29.9727   23.5655 C   0  0  0  0  0  0  0  0  0  0  0  0
  -27.5694  -26.0433   19.2004 C   0  0  0  0  0  0  0  0  0  0  0  0
  -27.7180  -16.7827   22.7491 C   0  0  0  0  0  0  0  0  0  0  0  0
  -28.9965  -14.9146   23.5614 C   0  0  0  0  0  0  0  0  0  0  0  0
  -23.2310   -8.4002   22.9345 C   0  0  0  0  0  0  0  0  0  0  0  0
  -28.6176  -23.8814   19.5711 C   0  0  0  0  0  0  0  0  0  0  0  0
  -21.9183   -7.4185   24.6184 C   0  0  0  0  0  0  0  0  0  0  0  0
  -20.3299   -7.7143   26.8926 C   0  0  0  0  0  0  0  0  0  0  0  0
  -22.2859   -6.7965   25.8115 C   0  0  0  0  0  0  0  0  0  0  0  0
  -24.8626  -11.9034   21.2131 C   0  0  0  0  0  0  0  0  0  0  0  0
  -28.5580  -16.8094   21.6476 C   0  0  0  0  0  0  0  0  0  0  0  0
  -29.7792  -15.0248   22.4234 C   0  0  0  0  0  0  0  0  0  0  0  0
  -25.1555  -13.9279   20.4064 C   0  0  0  0  0  0  0  0  0  0  0  0
  -22.8370  -13.4882   21.2306 C   0  0  0  0  0  0  0  0  0  0  0  0
  -25.5801  -28.1461   21.0031 C   0  0  0  0  0  0  0  0  0  0  0  0
  -25.9534  -29.2923   17.9916 C   0  0  0  0  0  0  0  0  0  0  0  0
  -31.1558  -13.8634   20.7293 C   0  0  0  0  0  0  0  0  0  0  0  0
  -27.2607  -28.8611   14.8688 C   0  0  0  0  0  0  0  0  0  0  0  0
  -21.6949  -31.1416   22.4134 C   0  0  0  0  0  0  0  0  0  0  0  0
  -28.0801  -27.9961   20.7138 C   0  0  0  0  0  0  0  0  0  0  0  0
  -26.6370  -26.8949   18.3794 C   0  0  0  0  0  0  0  0  0  0  0  0
  -22.0435  -30.3147   21.1785 C   0  0  0  0  0  0  0  0  0  0  0  0
  -29.1361  -13.7511   17.7716 C   0  0  0  0  0  0  0  0  0  0  0  0
  -22.4708  -28.9071   21.5818 C   0  0  0  0  0  0  0  0  0  0  0  0
  -27.7577  -13.3474   18.2933 C   0  0  0  0  0  0  0  0  0  0  0  0
  -30.2523  -13.0792   18.5653 C   0  0  0  0  0  0  0  0  0  0  0  0
  -28.8012  -12.9152   20.5625 C   0  0  0  0  0  0  0  0  0  0  0  0
  -23.7272  -28.9423   22.4603 C   0  0  1  0  0  0  0  0  0  0  0  0
  -26.7739  -28.6071   20.2157 C   0  0  1  0  0  0  0  0  0  0  0  0
  -27.6454  -13.5958   19.8080 C   0  0  2  0  0  0  0  0  0  0  0  0
  -26.5965  -17.7494   22.9129 C   0  0  0  0  0  0  0  0  0  0  0  0
  -29.2483  -13.8742   24.5976 C   0  0  0  0  0  0  0  0  0  0  0  0
  -27.3647  -29.9482   12.6094 C   0  0  0  0  0  0  0  0  0  0  0  0
  -32.2291  -14.5914   22.8303 C   0  0  0  0  0  0  0  0  0  0  0  0
  -23.0956  -28.3850   17.4263 C   0  0  0  0  0  0  0  0  0  0  0  0
  -23.5811  -28.6127   14.9808 C   0  0  0  0  0  0  0  0  0  0  0  0
  -23.6916  -30.6151   16.4643 C   0  0  0  0  0  0  0  0  0  0  0  0
  -30.2070  -29.1103   14.9959 C   0  0  0  0  0  0  0  0  0  0  0  0
  -28.3563  -17.8365   20.5621 C   0  0  0  0  0  0  0  0  0  0  0  0
  -28.8467  -19.2392   20.9381 C   0  0  0  0  0  0  0  0  0  0  0  0
  -28.5640  -20.2823   19.8559 C   0  0  0  0  0  0  0  0  0  0  0  0
  -29.0998  -21.6529   20.2470 C   0  0  0  0  0  0  0  0  0  1  0  0
  -25.5019  -28.8570   16.6184 C   0  0  1  0  0  0  0  0  0  0  0  0
  -28.0391  -29.7994   13.9643 C   0  0  2  0  0  0  0  0  0  0  0  0
  -30.9198  -14.0861   22.2020 C   0  0  1  0  0  0  0  0  0  0  0  0
  -23.9836  -29.1006   16.3889 C   0  0  0  0  0  0  0  0  0  0  0  0
  -26.1432  -11.9307   20.8347 N   0  0  0  0  0  0  0  0  0  0  0  0
  -29.5864  -15.9524   21.4590 N   0  0  0  0  0  0  0  0  0  0  0  0
  -26.2911  -13.1747   20.3481 N   0  0  0  0  0  0  0  0  0  0  0  0
  -26.5044  -28.2964   18.8104 N   0  0  0  0  0  0  0  0  0  0  0  0
  -30.0974  -13.3201   20.0010 N   0  0  0  0  0  0  0  0  0  0  0  0
  -25.1285  -15.2016   19.9599 N   0  0  0  0  0  0  0  0  0  0  0  0
  -21.9881  -12.5378   21.8141 N   0  0  0  0  0  0  0  0  0  0  0  0
  -24.9050  -29.1641   21.6491 N   0  0  0  0  0  0  0  0  0  0  0  0
  -26.3680  -29.5447   15.6669 N   0  0  0  0  0  0  0  0  0  0  0  0
  -29.4202  -29.2829   13.7477 N   0  3  0  0  0  0  0  0  0  0  0  0
  -22.3825  -14.6205   20.9391 O   0  0  0  0  0  0  0  0  0  0  0  0
  -25.2920  -26.9551   21.0219 O   0  0  0  0  0  0  0  0  0  0  0  0
  -25.8286  -30.4739   18.3229 O   0  0  0  0  0  0  0  0  0  0  0  0
  -32.2480  -14.1667   20.2420 O   0  0  0  0  0  0  0  0  0  0  0  0
  -27.4253  -27.6431   14.8649 O   0  0  0  0  0  0  0  0  0  0  0  0
  -22.7062   -7.2733   23.4888 O   0  0  0  0  0  0  0  0  0  0  0  0
  -28.7928  -22.5817   19.2081 O   0  0  0  0  0  0  0  0  0  1  0  0
  -19.5680   -7.8577   27.9848 F   0  0  0  0  0  0  0  0  0  0  0  0
  -23.4015   -6.0564   25.8717 F   0  0  0  0  0  0  0  0  0  0  0  0
  -30.7087  -12.8462   22.7688 F   0  0  0  0  0  0  0  0  0  0  0  0
  1  2  1  0  0  0  0
  1  5  2  0  0  0  0
  2  6  2  0  0  0  0
  3  8  2  0  0  0  0
  3 16  1  0  0  0  0
  4  9  1  0  0  0  0
  4 16  2  0  0  0  0
  5 18  1  0  0  0  0
  6 20  1  0  0  0  0
  7 10  2  0  0  0  0
  7 19  1  0  0  0  0
  8 24  1  0  0  0  0
  9 24  2  0  0  0  0
 10 25  1  0  0  0  0
 11 12  2  0  0  0  0
 11 26  1  0  0  0  0
 12 27  1  0  0  0  0
 13 21  1  0  0  0  0
 13 25  2  0  0  0  0
 14 22  1  0  0  0  0
 14 23  2  0  0  0  0
 15 27  2  0  0  0  0
 15 28  1  0  0  0  0
 16 29  1  0  0  0  0
 17 29  1  0  0  0  0
 17 32  2  0  0  0  0
 17 33  1  0  0  0  0
 18 20  2  0  0  0  0
 18 38  1  0  0  0  0
 19 21  2  0  0  0  0
 19 39  1  0  0  0  0
 20 47  1  0  0  0  0
 21 40  1  0  0  0  0
 22 30  2  0  0  0  0
 22 50  1  0  0  0  0
 23 31  1  0  0  0  0
 23 51  1  0  0  0  0
 24 81  1  0  0  0  0
 25 82  1  0  0  0  0
 26 28  2  0  0  0  0
 26 81  1  0  0  0  0
 27 83  1  0  0  0  0
 28 84  1  0  0  0  0
 29 66  2  0  0  0  0
 30 58  1  0  0  0  0
 30 67  1  0  0  0  0
 31 64  1  0  0  0  0
 31 67  2  0  0  0  0
 32 68  1  0  0  0  0
 32 71  1  0  0  0  0
 33 72  1  0  0  0  0
 33 76  2  0  0  0  0
 34 48  1  0  0  0  0
 34 73  1  0  0  0  0
 34 77  2  0  0  0  0
 35 62  1  0  0  0  0
 35 69  1  0  0  0  0
 35 78  2  0  0  0  0
 36 64  1  0  0  0  0
 36 70  1  0  0  0  0
 36 79  2  0  0  0  0
 37 63  1  0  0  0  0
 37 74  1  0  0  0  0
 37 80  2  0  0  0  0
 38 41  1  0  0  0  0
 39 48  1  0  0  0  0
 40 69  1  0  0  0  0
 41 43  1  0  0  0  0
 42 44  1  0  0  0  0
 42 45  1  0  0  0  0
 43 47  1  0  0  0  0
 44 49  1  0  0  0  0
 45 70  1  0  0  0  0
 46 49  1  0  0  0  0
 46 70  1  0  0  0  0
 47 73  1  0  0  0  0
 48 69  1  0  0  0  0
 49 68  1  0  0  0  0
 52 63  1  0  0  0  0
 53 64  1  0  0  0  0
 54 65  1  0  0  0  0
 55 65  1  0  0  0  0
 56 65  1  0  0  0  0
 57 75  1  0  0  0  0
 58 59  1  0  0  0  0
 59 60  1  0  0  0  0
 60 61  1  0  0  0  0
 61 82  1  0  0  0  0
 62 65  1  0  0  0  0
 62 74  1  0  0  0  0
 63 75  1  0  0  0  0
 64 85  1  0  0  0  0
 66 68  1  0  0  0  0
M  CHG  1  75   1
M  ISO  4  36 100  61 101  64 100  82 101
M  END
> <Batch ID>
0078

> <Smiles>
CNC(C)C(=O)NC(C(=O)N1Cc2cc([101O:1][101CH2:1]CCCc3nc([100C:0](C)(F)[100C:0](=O)N4CCCC(n5nc(-c6ccc(Oc7ccc(F)cc7F)cc6)c(C(N)=O)c5N)C4)c(C)cc3C)ccc2CC1C(=O)NC1CCCc2ccccc21)C(C)(C)C

> <Shape>
0.273

> <Color>
0.156

> <Negative vol penalty>
0.000

$$$$

  -OEChem-04052318393D

 82 90  0     1  0  0  0  0  0999 V2000
  -36.5811  -10.0187   24.8467 C   0  0  0  0  0  0  0  0  0  0  0  0
  -35.3231  -10.5300   24.5446 C   0  0  0  0  0  0  0  0  0  0  0  0
  -23.2094   -9.8528   20.0047 C   0  0  0  0  0  0  0  0  0  0  0  0
  -23.9635   -9.9795   22.2965 C   0  0  0  0  0  0  0  0  0  0  0  0
  -36.8939   -8.7004   24.5179 C   0  0  0  0  0  0  0  0  0  0  0  0
  -34.3773   -9.7234   23.9126 C   0  0  0  0  0  0  0  0  0  0  0  0
  -29.7803  -10.1195   25.9995 C   0  0  0  0  0  0  0  0  0  0  0  0
  -22.5294   -8.6698   20.2938 C   0  0  0  0  0  0  0  0  0  0  0  0
  -23.2835   -8.7964   22.5856 C   0  0  0  0  0  0  0  0  0  0  0  0
  -29.0274  -11.2464   25.6722 C   0  0  0  0  0  0  0  0  0  0  0  0
  -19.6267   -7.7624   21.7715 C   0  0  0  0  0  0  0  0  0  0  0  0
  -18.3252   -7.6280   21.2881 C   0  0  0  0  0  0  0  0  0  0  0  0
  -27.7820   -9.9416   24.0704 C   0  0  0  0  0  0  0  0  0  0  0  0
  -18.9931   -5.6747   20.0328 C   0  0  0  0  0  0  0  0  0  0  0  0
  -23.9265  -10.5077   21.0061 C   0  0  0  0  0  0  0  0  0  0  0  0
  -24.1295  -13.0423   20.8001 C   0  0  0  0  0  0  0  0  0  0  0  0
  -35.9483   -7.8743   23.8902 C   0  0  0  0  0  0  0  0  0  0  0  0
  -29.5466   -8.8958   25.3558 C   0  0  0  0  0  0  0  0  0  0  0  0
  -34.6782   -8.3932   23.5739 C   0  0  0  0  0  0  0  0  0  0  0  0
  -28.5315   -8.8001   24.3932 C   0  0  0  0  0  0  0  0  0  0  0  0
  -22.5665   -8.1416   21.5843 C   0  0  0  0  0  0  0  0  0  0  0  0
  -28.0300  -11.1583   24.7055 C   0  0  0  0  0  0  0  0  0  0  0  0
  -20.6114   -6.8530   21.3855 C   0  0  0  0  0  0  0  0  0  0  0  0
  -18.0084   -6.5842   20.4188 C   0  0  0  0  0  0  0  0  0  0  0  0
  -20.2946   -5.8091   20.5161 C   0  0  0  0  0  0  0  0  0  0  0  0
  -24.6295  -11.7296   20.7079 C   0  0  0  0  0  0  0  0  0  0  0  0
  -28.7023  -17.5815   22.2892 C   0  0  0  0  0  0  0  0  0  0  0  0
  -28.9181  -16.3411   22.8349 C   0  0  0  0  0  0  0  0  0  0  0  0
  -25.1795  -13.8378   20.4115 C   0  0  0  0  0  0  0  0  0  0  0  0
  -22.8318  -13.5015   21.2012 C   0  0  0  0  0  0  0  0  0  0  0  0
  -31.2684   -6.9715   23.5021 C   0  0  0  0  0  0  0  0  0  0  0  0
  -30.9703  -14.0156   20.8388 C   0  0  0  0  0  0  0  0  0  0  0  0
  -28.6886   -5.0264   23.7908 C   0  0  0  0  0  0  0  0  0  0  0  0
  -25.3464   -4.7193   24.4092 C   0  0  0  0  0  0  0  0  0  0  0  0
  -36.3484   -6.4703   23.5116 C   0  0  0  0  0  0  0  0  0  0  0  0
  -30.3495   -7.6831   25.7394 C   0  0  0  0  0  0  0  0  0  0  0  0
  -28.2274   -7.5047   23.6875 C   0  0  0  0  0  0  0  0  0  0  0  0
  -35.1629   -5.5674   23.1808 C   0  0  0  0  0  0  0  0  0  0  0  0
  -29.3029  -13.1458   17.7887 C   0  0  0  0  0  0  0  0  0  0  0  0
  -34.1903   -6.2832   22.2488 C   0  0  0  0  0  0  0  0  0  0  0  0
  -27.8880  -12.7886   18.2423 C   0  0  0  0  0  0  0  0  0  0  0  0
  -30.3431  -12.7278   18.8232 C   0  0  0  0  0  0  0  0  0  0  0  0
  -28.6814  -12.9223   20.6460 C   0  0  0  0  0  0  0  0  0  0  0  0
  -33.6170   -7.5419   22.9110 C   0  0  1  0  0  0  0  0  0  0  0  0
  -30.3711   -6.6126   24.6526 C   0  0  1  0  0  0  0  0  0  0  0  0
  -27.5971  -13.3551   19.6433 C   0  0  2  0  0  0  0  0  0  0  0  0
  -27.7351  -18.6151   22.6824 C   0  0  0  0  0  0  0  0  0  0  0  0
  -31.7700  -14.5712   23.1250 C   0  0  0  0  0  0  0  0  0  0  0  0
  -23.5159   -3.0075   24.5371 C   0  0  0  0  0  0  0  0  0  0  0  0
  -28.6104   -4.8859   20.7438 C   0  0  0  0  0  0  0  0  0  0  0  0
  -26.2787   -3.9900   20.9145 C   0  0  0  0  0  0  0  0  0  0  0  0
  -28.1799   -2.7104   21.8998 C   0  0  0  0  0  0  0  0  0  0  0  0
  -24.8153   -5.3306   27.2558 C   0  0  0  0  0  0  0  0  0  0  0  0
  -28.2777  -15.6062   23.9854 C   0  0  0  0  0  0  0  0  0  0  0  0
  -26.8960  -15.0287   23.6590 C   0  0  0  0  0  0  0  0  0  0  0  0
  -26.2300  -14.3546   24.8593 C   0  0  0  0  0  0  0  0  0  0  0  0
  -27.0872  -13.2241   25.4122 C   0  0  0  0  0  0  0  0  0  1  0  0
  -30.5620  -14.5410   22.1921 C   0  0  1  0  0  0  0  0  0  0  0  0
  -27.4017   -4.8367   23.0247 C   0  0  1  0  0  0  0  0  0  0  0  0
  -24.5718   -3.7783   25.3141 C   0  0  2  0  0  0  0  0  0  0  0  0
  -27.6244   -4.1308   21.6574 C   0  0  0  0  0  0  0  0  0  0  0  0
  -25.8985  -11.6891   20.2931 N   0  0  0  0  0  0  0  0  0  0  0  0
  -29.5601  -17.7787   21.2428 N   0  0  0  0  0  0  0  0  0  0  0  0
  -30.3096  -16.6888   21.1185 N   0  0  0  0  0  0  0  0  0  0  0  0
  -29.9230  -15.8280   22.0739 N   0  0  0  0  0  0  0  0  0  0  0  0
  -26.2046  -12.9864   20.1211 N   0  0  0  0  0  0  0  0  0  0  0  0
  -29.0440   -6.3486   24.0928 N   0  0  0  0  0  0  0  0  0  0  0  0
  -30.0191  -13.2674   20.1450 N   0  0  0  0  0  0  0  0  0  0  0  0
  -25.3167  -15.1756   20.2931 N   0  0  0  0  0  0  0  0  0  0  0  0
  -21.8707  -12.5502   21.5693 N   0  0  0  0  0  0  0  0  0  0  0  0
  -32.5851   -7.1875   23.8617 N   0  0  0  0  0  0  0  0  0  0  0  0
  -26.4934   -4.1297   23.9212 N   0  0  0  0  0  0  0  0  0  0  0  0
  -23.8926   -4.5438   26.3975 N   0  3  0  0  0  0  0  0  0  0  0  0
  -22.5283  -14.7185   21.2167 O   0  0  0  0  0  0  0  0  0  0  0  0
  -30.8012   -7.0455   22.3717 O   0  0  0  0  0  0  0  0  0  0  0  0
  -32.1002  -14.2664   20.4115 O   0  0  0  0  0  0  0  0  0  0  0  0
  -29.3504   -4.0374   24.1156 O   0  0  0  0  0  0  0  0  0  0  0  0
  -24.9697   -5.8617   24.1571 O   0  0  0  0  0  0  0  0  0  0  0  0
  -21.9029   -6.9873   21.8668 O   0  0  0  0  0  0  0  0  0  0  0  0
  -27.2941  -12.2568   24.3837 O   0  0  0  0  0  0  0  0  0  1  0  0
  -16.7581   -6.4543   19.9560 F   0  0  0  0  0  0  0  0  0  0  0  0
  -21.2361   -4.9317   20.1427 F   0  0  0  0  0  0  0  0  0  0  0  0
  1  2  1  0  0  0  0
  1  5  2  0  0  0  0
  2  6  2  0  0  0  0
  3  8  2  0  0  0  0
  3 15  1  0  0  0  0
  4  9  1  0  0  0  0
  4 15  2  0  0  0  0
  5 17  1  0  0  0  0
  6 19  1  0  0  0  0
  7 10  2  0  0  0  0
  7 18  1  0  0  0  0
  8 21  1  0  0  0  0
  9 21  2  0  0  0  0
 10 22  1  0  0  0  0
 11 12  2  0  0  0  0
 11 23  1  0  0  0  0
 12 24  1  0  0  0  0
 13 20  1  0  0  0  0
 13 22  2  0  0  0  0
 14 24  2  0  0  0  0
 14 25  1  0  0  0  0
 15 26  1  0  0  0  0
 16 26  1  0  0  0  0
 16 29  2  0  0  0  0
 16 30  1  0  0  0  0
 17 19  2  0  0  0  0
 17 35  1  0  0  0  0
 18 20  2  0  0  0  0
 18 36  1  0  0  0  0
 19 44  1  0  0  0  0
 20 37  1  0  0  0  0
 21 79  1  0  0  0  0
 22 80  1  0  0  0  0
 23 25  2  0  0  0  0
 23 79  1  0  0  0  0
 24 81  1  0  0  0  0
 25 82  1  0  0  0  0
 26 62  2  0  0  0  0
 27 28  2  0  0  0  0
 27 47  1  0  0  0  0
 27 63  1  0  0  0  0
 28 54  1  0  0  0  0
 28 65  1  0  0  0  0
 29 66  1  0  0  0  0
 29 69  1  0  0  0  0
 30 70  1  0  0  0  0
 30 74  2  0  0  0  0
 31 45  1  0  0  0  0
 31 71  1  0  0  0  0
 31 75  2  0  0  0  0
 32 58  1  0  0  0  0
 32 68  1  0  0  0  0
 32 76  2  0  0  0  0
 33 59  1  0  0  0  0
 33 67  1  0  0  0  0
 33 77  2  0  0  0  0
 34 60  1  0  0  0  0
 34 72  1  0  0  0  0
 34 78  2  0  0  0  0
 35 38  1  0  0  0  0
 36 45  1  0  0  0  0
 37 67  1  0  0  0  0
 38 40  1  0  0  0  0
 39 41  1  0  0  0  0
 39 42  1  0  0  0  0
 40 44  1  0  0  0  0
 41 46  1  0  0  0  0
 42 68  1  0  0  0  0
 43 46  1  0  0  0  0
 43 68  1  0  0  0  0
 44 71  1  0  0  0  0
 45 67  1  0  0  0  0
 46 66  1  0  0  0  0
 48 58  1  0  0  0  0
 49 60  1  0  0  0  0
 50 61  1  0  0  0  0
 51 61  1  0  0  0  0
 52 61  1  0  0  0  0
 53 73  1  0  0  0  0
 54 55  1  0  0  0  0
 55 56  1  0  0  0  0
 56 57  1  0  0  0  0
 57 80  1  0  0  0  0
 58 65  1  0  0  0  0
 59 61  1  0  0  0  0
 59 72  1  0  0  0  0
 60 73  1  0  0  0  0
 62 66  1  0  0  0  0
 63 64  2  0  0  0  0
 64 65  1  0  0  0  0
M  CHG  1  73   1
M  ISO  4  32 100  57 101  58 100  80 101
M  END
> <Batch ID>
0078

> <Smiles>
CNC(C)C(=O)NC(C(=O)N1Cc2cc([101O:1][101CH2:1]CCCc3c(C)nnn3[100CH:0](C)[100C:0](=O)N3CCCC(n4nc(-c5ccc(Oc6ccc(F)cc6F)cc5)c(C(N)=O)c4N)C3)ccc2CC1C(=O)NC1CCCc2ccccc21)C(C)(C)C

> <Shape>
0.160

> <Color>
0.187

> <Negative vol penalty>
0.000

$$$$

  -OEChem-04052318393D

 83 91  0     1  0  0  0  0  0999 V2000
  -26.0710  -34.6820   25.0981 C   0  0  0  0  0  0  0  0  0  0  0  0
  -26.6323  -33.5319   24.5525 C   0  0  0  0  0  0  0  0  0  0  0  0
  -25.6727  -12.3526   21.8545 C   0  0  0  0  0  0  0  0  0  0  0  0
  -25.0901  -13.3176   19.7176 C   0  0  0  0  0  0  0  0  0  0  0  0
  -24.7491  -34.6685   25.5412 C   0  0  0  0  0  0  0  0  0  0  0  0
  -25.8722  -32.3673   24.4507 C   0  0  0  0  0  0  0  0  0  0  0  0
  -26.3898  -30.0964   19.9540 C   0  0  0  0  0  0  0  0  0  0  0  0
  -25.2295  -11.1061   21.4125 C   0  0  0  0  0  0  0  0  0  0  0  0
  -24.6470  -12.0711   19.2755 C   0  0  0  0  0  0  0  0  0  0  0  0
  -27.5487  -29.3495   19.7475 C   0  0  0  0  0  0  0  0  0  0  0  0
  -22.2754   -9.5176   20.9956 C   0  0  0  0  0  0  0  0  0  0  0  0
  -21.4784   -8.7694   21.8619 C   0  0  0  0  0  0  0  0  0  0  0  0
  -26.3205  -27.3262   20.2130 C   0  0  0  0  0  0  0  0  0  0  0  0
  -23.1184   -6.9954   21.8386 C   0  0  0  0  0  0  0  0  0  0  0  0
  -25.6030  -13.4584   21.0071 C   0  0  0  0  0  0  0  0  0  0  0  0
  -27.3590  -15.2771   21.3486 C   0  0  0  0  0  0  0  0  0  0  0  0
  -23.9695  -33.5059   25.4360 C   0  0  0  0  0  0  0  0  0  0  0  0
  -25.1879  -29.4637   20.3028 C   0  0  0  0  0  0  0  0  0  0  0  0
  -24.5391  -32.3378   24.8941 C   0  0  0  0  0  0  0  0  0  0  0  0
  -25.1470  -28.0671   20.4209 C   0  0  0  0  0  0  0  0  0  0  0  0
  -24.7167  -10.9653   20.1230 C   0  0  0  0  0  0  0  0  0  0  0  0
  -27.5149  -27.9644   19.8799 C   0  0  0  0  0  0  0  0  0  0  0  0
  -23.4939   -9.0047   20.5507 C   0  0  0  0  0  0  0  0  0  0  0  0
  -21.8999   -7.5083   22.2834 C   0  0  0  0  0  0  0  0  0  0  0  0
  -23.9154   -7.7437   20.9722 C   0  0  0  0  0  0  0  0  0  0  0  0
  -26.0601  -14.7464   21.4633 C   0  0  0  0  0  0  0  0  0  0  0  0
  -27.2755  -16.5182   21.9309 C   0  0  0  0  0  0  0  0  0  0  0  0
  -30.4333  -22.7678   19.5184 C   0  0  0  0  0  0  0  0  0  0  0  0
  -29.1822  -22.2667   21.2192 C   0  0  0  0  0  0  0  0  0  0  0  0
  -28.5357  -14.6997   20.7676 C   0  0  0  0  0  0  0  0  0  0  0  0
  -23.2406  -29.5748   22.8126 C   0  0  0  0  0  0  0  0  0  0  0  0
  -21.3827  -27.6635   20.9640 C   0  0  0  0  0  0  0  0  0  0  0  0
  -21.1819  -25.4282   18.3931 C   0  0  0  0  0  0  0  0  0  0  0  0
  -24.6234  -21.3697   22.6892 C   0  0  0  0  0  0  0  0  0  0  0  0
  -22.5599  -33.5261   25.9720 C   0  0  0  0  0  0  0  0  0  0  0  0
  -23.9403  -30.2813   20.4959 C   0  0  0  0  0  0  0  0  0  0  0  0
  -23.8773  -27.3379   20.7737 C   0  0  0  0  0  0  0  0  0  0  0  0
  -21.7061  -32.3583   25.4845 C   0  0  0  0  0  0  0  0  0  0  0  0
  -23.5977  -18.6155   24.6989 C   0  0  0  0  0  0  0  0  0  0  0  0
  -22.4740  -31.0464   25.6107 C   0  0  0  0  0  0  0  0  0  0  0  0
  -24.2487  -17.4073   24.0233 C   0  0  0  0  0  0  0  0  0  0  0  0
  -23.1363  -19.6526   23.6774 C   0  0  0  0  0  0  0  0  0  0  0  0
  -24.8288  -18.8889   22.0569 C   0  0  0  0  0  0  0  0  0  0  0  0
  -23.7390  -31.0621   24.7441 C   0  0  1  0  0  0  0  0  0  0  0  0
  -22.8912  -29.5777   21.3513 C   0  0  1  0  0  0  0  0  0  0  0  0
  -25.3608  -17.8410   23.0495 C   0  0  2  0  0  0  0  0  0  0  0  0
  -31.3823  -23.4996   18.6607 C   0  0  0  0  0  0  0  0  0  0  0  0
  -19.5338  -24.0108   17.1392 C   0  0  0  0  0  0  0  0  0  0  0  0
  -21.3047  -25.6962   23.2950 C   0  0  0  0  0  0  0  0  0  0  0  0
  -20.4887  -23.9469   21.7005 C   0  0  0  0  0  0  0  0  0  0  0  0
  -19.1236  -25.9946   22.1083 C   0  0  0  0  0  0  0  0  0  0  0  0
  -21.7557  -26.8136   15.8416 C   0  0  0  0  0  0  0  0  0  0  0  0
  -28.5299  -22.3581   22.5375 C   0  0  0  0  0  0  0  0  0  0  0  0
  -27.3151  -23.3168   22.6031 C   0  0  0  0  0  0  0  0  0  0  0  0
  -30.2494  -25.7376   20.6519 C   0  0  0  0  0  0  0  0  0  0  0  0
  -30.5049  -24.4592   21.4533 C   0  0  0  0  0  0  0  0  0  0  0  0
  -26.1947  -22.9691   21.6252 C   0  0  0  0  0  0  0  0  0  0  0  0
  -28.7698  -26.0163   20.4145 C   0  0  0  0  0  0  0  0  0  1  0  0
  -21.2536  -26.1736   20.7582 C   0  0  1  0  0  0  0  0  0  0  0  0
  -20.2514  -25.3504   17.1962 C   0  0  2  0  0  0  0  0  0  0  0  0
  -20.5672  -25.4664   21.9607 C   0  0  0  0  0  0  0  0  0  0  0  0
  -25.2135  -15.5820   22.0709 N   0  0  0  0  0  0  0  0  0  0  0  0
  -29.8310  -21.6326   19.2445 N   0  0  0  0  0  0  0  0  0  0  0  0
  -29.0351  -21.3138   20.3267 N   0  0  0  0  0  0  0  0  0  0  0  0
  -25.9821  -16.6503   22.3432 N   0  0  0  0  0  0  0  0  0  0  0  0
  -30.0538  -23.2030   20.7519 N   0  0  0  0  0  0  0  0  0  0  0  0
  -22.6853  -28.1820   20.9588 N   0  0  0  0  0  0  0  0  0  0  0  0
  -24.2381  -20.0224   22.7856 N   0  0  0  0  0  0  0  0  0  0  0  0
  -28.1830  -17.4985   22.1254 N   0  0  0  0  0  0  0  0  0  0  0  0
  -28.4460  -13.4157   20.2131 N   0  0  0  0  0  0  0  0  0  0  0  0
  -23.4028  -30.8354   23.3548 N   0  0  0  0  0  0  0  0  0  0  0  0
  -20.5618  -25.9956   19.4861 N   0  0  0  0  0  0  0  0  0  0  0  0
  -25.6802  -21.6328   21.8263 N   0  0  0  0  0  0  0  0  0  0  0  0
  -21.0190  -25.5266   15.9310 N   0  3  0  0  0  0  0  0  0  0  0  0
  -29.6382  -15.2979   20.7556 O   0  0  0  0  0  0  0  0  0  0  0  0
  -23.3532  -28.5079   23.4049 O   0  0  0  0  0  0  0  0  0  0  0  0
  -20.3647  -28.3433   21.1165 O   0  0  0  0  0  0  0  0  0  0  0  0
  -22.3417  -25.0224   18.3627 O   0  0  0  0  0  0  0  0  0  0  0  0
  -24.0704  -22.2706   23.3291 O   0  0  0  0  0  0  0  0  0  0  0  0
  -24.2844   -9.7491   19.6912 O   0  0  0  0  0  0  0  0  0  0  0  0
  -28.6449  -27.2330   19.6795 O   0  0  0  0  0  0  0  0  0  1  0  0
  -21.1351   -6.7905   23.1166 F   0  0  0  0  0  0  0  0  0  0  0  0
  -25.0856   -7.2462   20.5491 F   0  0  0  0  0  0  0  0  0  0  0  0
  1  2  1  0  0  0  0
  1  5  2  0  0  0  0
  2  6  2  0  0  0  0
  3  8  2  0  0  0  0
  3 15  1  0  0  0  0
  4  9  1  0  0  0  0
  4 15  2  0  0  0  0
  5 17  1  0  0  0  0
  6 19  1  0  0  0  0
  7 10  2  0  0  0  0
  7 18  1  0  0  0  0
  8 21  1  0  0  0  0
  9 21  2  0  0  0  0
 10 22  1  0  0  0  0
 11 12  2  0  0  0  0
 11 23  1  0  0  0  0
 12 24  1  0  0  0  0
 13 20  1  0  0  0  0
 13 22  2  0  0  0  0
 14 24  2  0  0  0  0
 14 25  1  0  0  0  0
 15 26  1  0  0  0  0
 16 26  1  0  0  0  0
 16 27  2  0  0  0  0
 16 30  1  0  0  0  0
 17 19  2  0  0  0  0
 17 35  1  0  0  0  0
 18 20  2  0  0  0  0
 18 36  1  0  0  0  0
 19 44  1  0  0  0  0
 20 37  1  0  0  0  0
 21 80  1  0  0  0  0
 22 81  1  0  0  0  0
 23 25  2  0  0  0  0
 23 80  1  0  0  0  0
 24 82  1  0  0  0  0
 25 83  1  0  0  0  0
 26 62  2  0  0  0  0
 27 65  1  0  0  0  0
 27 69  1  0  0  0  0
 28 47  1  0  0  0  0
 28 63  2  0  0  0  0
 28 66  1  0  0  0  0
 29 53  1  0  0  0  0
 29 64  2  0  0  0  0
 29 66  1  0  0  0  0
 30 70  1  0  0  0  0
 30 75  2  0  0  0  0
 31 45  1  0  0  0  0
 31 71  1  0  0  0  0
 31 76  2  0  0  0  0
 32 59  1  0  0  0  0
 32 67  1  0  0  0  0
 32 77  2  0  0  0  0
 33 60  1  0  0  0  0
 33 72  1  0  0  0  0
 33 78  2  0  0  0  0
 34 68  1  0  0  0  0
 34 73  1  0  0  0  0
 34 79  2  0  0  0  0
 35 38  1  0  0  0  0
 36 45  1  0  0  0  0
 37 67  1  0  0  0  0
 38 40  1  0  0  0  0
 39 41  1  0  0  0  0
 39 42  1  0  0  0  0
 40 44  1  0  0  0  0
 41 46  1  0  0  0  0
 42 68  1  0  0  0  0
 43 46  1  0  0  0  0
 43 68  1  0  0  0  0
 44 71  1  0  0  0  0
 45 67  1  0  0  0  0
 46 65  1  0  0  0  0
 48 60  1  0  0  0  0
 49 61  1  0  0  0  0
 50 61  1  0  0  0  0
 51 61  1  0  0  0  0
 52 74  1  0  0  0  0
 53 54  1  0  0  0  0
 54 57  1  0  0  0  0
 55 56  1  0  0  0  0
 55 58  1  0  0  0  0
 56 66  1  0  0  0  0
 57 73  1  0  0  0  0
 58 81  1  0  0  0  0
 59 61  1  0  0  0  0
 59 72  1  0  0  0  0
 60 74  1  0  0  0  0
 62 65  1  0  0  0  0
 63 64  1  0  0  0  0
M  CHG  1  74   1
M  ISO  4  34 100  58 101  73 100  81 101
M  END
> <Batch ID>
0078

> <Smiles>
CNC(C)C(=O)NC(C(=O)N1Cc2cc([101O:1][101CH2:1]CCn3c(C)nnc3CCC[100NH:0][100C:0](=O)N3CCCC(n4nc(-c5ccc(Oc6ccc(F)cc6F)cc5)c(C(N)=O)c4N)C3)ccc2CC1C(=O)NC1CCCc2ccccc21)C(C)(C)C

> <Shape>
0.261

> <Color>
0.079

> <Negative vol penalty>
0.000

$$$$

  -OEChem-04052318393D

 83 90  0     1  0  0  0  0  0999 V2000
  -21.7977  -26.8813   25.8501 C   0  0  0  0  0  0  0  0  0  0  0  0
  -22.3090  -25.6675   25.4051 C   0  0  0  0  0  0  0  0  0  0  0  0
  -29.9080  -23.7431   19.4036 C   0  0  0  0  0  0  0  0  0  0  0  0
  -28.4681  -23.7687   21.3435 C   0  0  0  0  0  0  0  0  0  0  0  0
  -21.0365  -27.6699   24.9899 C   0  0  0  0  0  0  0  0  0  0  0  0
  -22.0693  -25.2473   24.0963 C   0  0  0  0  0  0  0  0  0  0  0  0
  -23.5306  -20.0483   21.2746 C   0  0  0  0  0  0  0  0  0  0  0  0
  -29.6912  -25.1093   19.2245 C   0  0  0  0  0  0  0  0  0  0  0  0
  -28.2512  -25.1350   21.1644 C   0  0  0  0  0  0  0  0  0  0  0  0
  -22.9482  -18.8022   21.0468 C   0  0  0  0  0  0  0  0  0  0  0  0
  -26.3646  -27.1191   19.1809 C   0  0  0  0  0  0  0  0  0  0  0  0
  -25.0550  -27.5870   19.2888 C   0  0  0  0  0  0  0  0  0  0  0  0
  -22.1975  -19.5555   18.8816 C   0  0  0  0  0  0  0  0  0  0  0  0
  -25.7189  -29.0237   21.1143 C   0  0  0  0  0  0  0  0  0  0  0  0
  -29.2964  -23.0728   20.4631 C   0  0  0  0  0  0  0  0  0  0  0  0
  -30.5354  -21.0542   21.4105 C   0  0  0  0  0  0  0  0  0  0  0  0
  -20.7773  -27.2527   23.6740 C   0  0  0  0  0  0  0  0  0  0  0  0
  -23.4412  -21.0626   20.3104 C   0  0  0  0  0  0  0  0  0  0  0  0
  -21.3234  -26.0403   23.2056 C   0  0  0  0  0  0  0  0  0  0  0  0
  -22.7817  -20.8128   19.0985 C   0  0  0  0  0  0  0  0  0  0  0  0
  -28.8628  -25.8052   20.1050 C   0  0  0  0  0  0  0  0  0  0  0  0
  -22.2791  -18.5566   19.8514 C   0  0  0  0  0  0  0  0  0  0  0  0
  -27.3513  -27.6034   20.0396 C   0  0  0  0  0  0  0  0  0  0  0  0
  -24.7322  -28.5394   20.2555 C   0  0  0  0  0  0  0  0  0  0  0  0
  -27.0285  -28.5557   21.0063 C   0  0  0  0  0  0  0  0  0  0  0  0
  -29.5196  -21.6614   20.6482 C   0  0  0  0  0  0  0  0  0  0  0  0
  -30.3145  -19.7064   21.2654 C   0  0  0  0  0  0  0  0  0  0  0  0
  -31.5849  -21.6548   22.1810 C   0  0  0  0  0  0  0  0  0  0  0  0
  -22.1599  -23.9704   20.2259 C   0  0  0  0  0  0  0  0  0  0  0  0
  -20.8496  -12.6006   20.6898 C   0  0  0  0  0  0  0  0  0  0  0  0
  -23.6081  -24.0998   17.3262 C   0  0  0  0  0  0  0  0  0  0  0  0
  -24.8840  -22.4140   14.6472 C   0  0  0  0  0  0  0  0  0  0  0  0
  -25.9832  -16.0280   20.9161 C   0  0  0  0  0  0  0  0  0  0  0  0
  -19.9539  -28.1490   22.7831 C   0  0  0  0  0  0  0  0  0  0  0  0
  -24.0977  -22.3927   20.5603 C   0  0  0  0  0  0  0  0  0  0  0  0
  -22.6751  -21.8615   18.0228 C   0  0  0  0  0  0  0  0  0  0  0  0
  -19.3846  -27.4206   21.5699 C   0  0  0  0  0  0  0  0  0  0  0  0
  -27.9078  -16.9029   17.9788 C   0  0  0  0  0  0  0  0  0  0  0  0
  -20.4846  -26.6349   20.8720 C   0  0  0  0  0  0  0  0  0  0  0  0
  -28.6231  -18.1703   18.4502 C   0  0  0  0  0  0  0  0  0  0  0  0
  -26.4869  -16.8324   18.5303 C   0  0  0  0  0  0  0  0  0  0  0  0
  -27.1110  -18.1930   20.4881 C   0  0  0  0  0  0  0  0  0  0  0  0
  -21.0500  -25.5486   21.7957 C   0  0  1  0  0  0  0  0  0  0  0  0
  -23.5020  -23.5198   19.7224 C   0  0  1  0  0  0  0  0  0  0  0  0
  -28.5603  -18.3121   19.9825 C   0  0  2  0  0  0  0  0  0  0  0  0
  -19.4620  -12.4251   20.1138 C   0  0  0  0  0  0  0  0  0  0  0  0
  -20.2763  -14.2515   22.4510 C   0  0  0  0  0  0  0  0  0  0  0  0
  -26.0725  -22.0690   12.4641 C   0  0  0  0  0  0  0  0  0  0  0  0
  -20.8990  -24.8608   16.1466 C   0  0  0  0  0  0  0  0  0  0  0  0
  -21.8051  -24.2976   13.8816 C   0  0  0  0  0  0  0  0  0  0  0  0
  -22.8380  -26.1359   15.2145 C   0  0  0  0  0  0  0  0  0  0  0  0
  -22.8496  -12.3225   22.7410 C   0  0  0  0  0  0  0  0  0  0  0  0
  -23.9166  -10.7128   21.1402 C   0  0  0  0  0  0  0  0  0  0  0  0
  -27.5118  -22.1604   15.9850 C   0  0  0  0  0  0  0  0  0  0  0  0
  -23.7039  -13.1246   20.4681 C   0  0  0  0  0  0  0  0  0  0  0  0
  -21.1077  -15.0960   20.2250 C   0  0  0  0  0  0  0  0  0  0  0  0
  -24.8474  -13.8388   21.1883 C   0  0  0  0  0  0  0  0  0  0  0  0
  -21.8353  -16.3641   20.6591 C   0  0  0  0  0  0  0  0  0  1  0  0
  -21.2020  -13.9737   21.2678 C   0  0  2  0  0  0  0  0  0  0  0  0
  -23.2113  -23.7358   15.9158 C   0  0  1  0  0  0  0  0  0  0  0  0
  -26.1969  -22.5578   13.8988 C   0  0  2  0  0  0  0  0  0  0  0  0
  -22.1885  -24.7382   15.3105 C   0  0  0  0  0  0  0  0  0  0  0  0
  -23.0548  -11.9747   21.2650 C   0  0  0  0  0  0  0  0  0  0  0  0
  -28.7134  -20.7723   20.0621 N   0  0  0  0  0  0  0  0  0  0  0  0
  -21.7569  -11.6817   20.6778 N   0  0  0  0  0  0  0  0  0  0  0  0
  -29.2225  -19.5926   20.4562 N   0  0  0  0  0  0  0  0  0  0  0  0
  -23.3279  -23.1480   18.3168 N   0  0  0  0  0  0  0  0  0  0  0  0
  -26.4988  -16.9548   19.9949 N   0  0  0  0  0  0  0  0  0  0  0  0
  -30.9498  -18.6192   21.7522 N   0  0  0  0  0  0  0  0  0  0  0  0
  -31.6669  -23.0533   22.2225 N   0  0  0  0  0  0  0  0  0  0  0  0
  -22.2228  -24.9684   21.1795 N   0  0  0  0  0  0  0  0  0  0  0  0
  -24.4534  -23.6196   15.1595 N   0  0  0  0  0  0  0  0  0  0  0  0
  -25.4143  -14.8854   20.3672 N   0  0  0  0  0  0  0  0  0  0  0  0
  -27.2666  -21.7690   14.5730 N   0  3  0  0  0  0  0  0  0  0  0  0
  -32.4349  -20.9713   22.8007 O   0  0  0  0  0  0  0  0  0  0  0  0
  -21.1425  -23.4520   19.7810 O   0  0  0  0  0  0  0  0  0  0  0  0
  -24.1532  -25.1855   17.5399 O   0  0  0  0  0  0  0  0  0  0  0  0
  -24.2971  -21.3403   14.7624 O   0  0  0  0  0  0  0  0  0  0  0  0
  -26.0312  -16.2033   22.1384 O   0  0  0  0  0  0  0  0  0  0  0  0
  -28.6512  -27.1384   19.9307 O   0  0  0  0  0  0  0  0  0  0  0  0
  -21.7093  -17.3413   19.6268 O   0  0  0  0  0  0  0  0  0  1  0  0
  -23.4749  -28.9898   20.3580 F   0  0  0  0  0  0  0  0  0  0  0  0
  -27.9724  -29.0256   21.8334 F   0  0  0  0  0  0  0  0  0  0  0  0
  1  2  1  0  0  0  0
  1  5  2  0  0  0  0
  2  6  2  0  0  0  0
  3  8  2  0  0  0  0
  3 15  1  0  0  0  0
  4  9  1  0  0  0  0
  4 15  2  0  0  0  0
  5 17  1  0  0  0  0
  6 19  1  0  0  0  0
  7 10  2  0  0  0  0
  7 18  1  0  0  0  0
  8 21  1  0  0  0  0
  9 21  2  0  0  0  0
 10 22  1  0  0  0  0
 11 12  2  0  0  0  0
 11 23  1  0  0  0  0
 12 24  1  0  0  0  0
 13 20  1  0  0  0  0
 13 22  2  0  0  0  0
 14 24  2  0  0  0  0
 14 25  1  0  0  0  0
 15 26  1  0  0  0  0
 16 26  1  0  0  0  0
 16 27  2  0  0  0  0
 16 28  1  0  0  0  0
 17 19  2  0  0  0  0
 17 34  1  0  0  0  0
 18 20  2  0  0  0  0
 18 35  1  0  0  0  0
 19 43  1  0  0  0  0
 20 36  1  0  0  0  0
 21 80  1  0  0  0  0
 22 81  1  0  0  0  0
 23 25  2  0  0  0  0
 23 80  1  0  0  0  0
 24 82  1  0  0  0  0
 25 83  1  0  0  0  0
 26 64  2  0  0  0  0
 27 66  1  0  0  0  0
 27 69  1  0  0  0  0
 28 70  1  0  0  0  0
 28 75  2  0  0  0  0
 29 44  1  0  0  0  0
 29 71  1  0  0  0  0
 29 76  2  0  0  0  0
 30 46  1  0  0  0  0
 30 59  1  0  0  0  0
 30 65  2  0  0  0  0
 31 60  1  0  0  0  0
 31 67  1  0  0  0  0
 31 77  2  0  0  0  0
 32 61  1  0  0  0  0
 32 72  1  0  0  0  0
 32 78  2  0  0  0  0
 33 68  1  0  0  0  0
 33 73  1  0  0  0  0
 33 79  2  0  0  0  0
 34 37  1  0  0  0  0
 35 44  1  0  0  0  0
 36 67  1  0  0  0  0
 37 39  1  0  0  0  0
 38 40  1  0  0  0  0
 38 41  1  0  0  0  0
 39 43  1  0  0  0  0
 40 45  1  0  0  0  0
 41 68  1  0  0  0  0
 42 45  1  0  0  0  0
 42 68  1  0  0  0  0
 43 71  1  0  0  0  0
 44 67  1  0  0  0  0
 45 66  1  0  0  0  0
 47 59  1  0  0  0  0
 48 61  1  0  0  0  0
 49 62  1  0  0  0  0
 50 62  1  0  0  0  0
 51 62  1  0  0  0  0
 52 63  1  0  0  0  0
 53 63  1  0  0  0  0
 54 74  1  0  0  0  0
 55 57  1  0  0  0  0
 55 63  1  0  0  0  0
 56 58  1  0  0  0  0
 56 59  1  0  0  0  0
 57 73  1  0  0  0  0
 58 81  1  0  0  0  0
 60 62  1  0  0  0  0
 60 72  1  0  0  0  0
 61 74  1  0  0  0  0
 63 65  1  0  0  0  0
 64 66  1  0  0  0  0
M  CHG  1  74   1
M  ISO  4  33 100  58 101  73 100  81 101
M  END
> <Batch ID>
0078

> <Smiles>
C=C(NC(C)(C)CC[100NH:0][100C:0](=O)N1CCCC(n2nc(-c3ccc(Oc4ccc(F)cc4F)cc3)c(C(N)=O)c2N)C1)C(C)C[101CH2:1][101O:1]c1ccc2c(c1)CN(C(=O)C(NC(=O)C(C)NC)C(C)(C)C)C(C(=O)NC1CCCc3ccccc31)C2

> <Shape>
0.198

> <Color>
0.065

> <Negative vol penalty>
0.000

$$$$

  -OEChem-04052318393D

 84 92  0     1  0  0  0  0  0999 V2000
  -29.5499  -12.2555   19.8731 C   0  0  0  0  0  0  0  0  0  0  0  0
  -29.5894  -13.5384   20.4098 C   0  0  0  0  0  0  0  0  0  0  0  0
  -28.2643  -26.1560   20.2749 C   0  0  0  0  0  0  0  0  0  0  0  0
  -26.3533  -24.8051   19.6744 C   0  0  0  0  0  0  0  0  0  0  0  0
  -28.5121  -11.8912   19.0163 C   0  0  0  0  0  0  0  0  0  0  0  0
  -28.5915  -14.4581   20.0891 C   0  0  0  0  0  0  0  0  0  0  0  0
  -24.9570  -19.9572   22.8939 C   0  0  0  0  0  0  0  0  0  0  0  0
  -29.1176  -25.1609   19.7982 C   0  0  0  0  0  0  0  0  0  0  0  0
  -27.2066  -23.8100   19.1976 C   0  0  0  0  0  0  0  0  0  0  0  0
  -24.6192  -21.2803   22.6129 C   0  0  0  0  0  0  0  0  0  0  0  0
  -29.1152  -21.3359   20.4887 C   0  0  0  0  0  0  0  0  0  0  0  0
  -28.8339  -20.0165   20.8431 C   0  0  0  0  0  0  0  0  0  0  0  0
  -22.8322  -20.5146   21.1849 C   0  0  0  0  0  0  0  0  0  0  0  0
  -28.6040  -19.4385   18.5085 C   0  0  0  0  0  0  0  0  0  0  0  0
  -19.7960  -27.5351   21.2427 C   0  0  0  0  0  0  0  0  0  0  0  0
  -26.8821  -25.9781   20.2131 C   0  0  0  0  0  0  0  0  0  0  0  0
  -25.4643  -28.0859   19.9799 C   0  0  0  0  0  0  0  0  0  0  0  0
  -27.4958  -12.8039   18.6926 C   0  0  0  0  0  0  0  0  0  0  0  0
  -24.2406  -18.9010   22.3129 C   0  0  0  0  0  0  0  0  0  0  0  0
  -27.5399  -14.1061   19.2261 C   0  0  0  0  0  0  0  0  0  0  0  0
  -23.1612  -19.1790   21.4621 C   0  0  0  0  0  0  0  0  0  0  0  0
  -28.5888  -23.9879   19.2595 C   0  0  0  0  0  0  0  0  0  0  0  0
  -23.5586  -21.5592   21.7560 C   0  0  0  0  0  0  0  0  0  0  0  0
  -29.1409  -21.7066   19.1442 C   0  0  0  0  0  0  0  0  0  0  0  0
  -28.5783  -19.0678   19.8530 C   0  0  0  0  0  0  0  0  0  0  0  0
  -28.8853  -20.7579   18.1542 C   0  0  0  0  0  0  0  0  0  0  0  0
  -26.0002  -27.0054   20.7059 C   0  0  0  0  0  0  0  0  0  0  0  0
  -19.7337  -26.3237   21.8716 C   0  0  0  0  0  0  0  0  0  0  0  0
  -24.6958  -28.7656   20.8930 C   0  0  0  0  0  0  0  0  0  0  0  0
  -19.0470  -27.8704   23.2987 C   0  0  0  0  0  0  0  0  0  0  0  0
  -25.6449  -28.4431   18.6032 C   0  0  0  0  0  0  0  0  0  0  0  0
  -24.9680  -16.5096   20.3492 C   0  0  0  0  0  0  0  0  0  0  0  0
  -21.9143  -15.5989   20.9556 C   0  0  0  0  0  0  0  0  0  0  0  0
  -18.7635  -16.4868   21.9205 C   0  0  0  0  0  0  0  0  0  0  0  0
  -21.9425  -27.1058   25.9444 C   0  0  0  0  0  0  0  0  0  0  0  0
  -26.4200  -12.3792   17.7246 C   0  0  0  0  0  0  0  0  0  0  0  0
  -24.6005  -17.4793   22.6472 C   0  0  0  0  0  0  0  0  0  0  0  0
  -22.3475  -18.0811   20.8287 C   0  0  0  0  0  0  0  0  0  0  0  0
  -25.1984  -13.2945   17.7316 C   0  0  0  0  0  0  0  0  0  0  0  0
  -24.3779  -29.6772   25.5791 C   0  0  0  0  0  0  0  0  0  0  0  0
  -25.6274  -14.7577   17.6887 C   0  0  0  0  0  0  0  0  0  0  0  0
  -25.0215  -29.3816   24.2232 C   0  0  0  0  0  0  0  0  0  0  0  0
  -24.0234  -28.3941   26.3273 C   0  0  0  0  0  0  0  0  0  0  0  0
  -23.8364  -27.1468   24.2100 C   0  0  0  0  0  0  0  0  0  0  0  0
  -26.4624  -15.1242   18.9216 C   0  0  1  0  0  0  0  0  0  0  0  0
  -24.1286  -16.4803   21.5951 C   0  0  1  0  0  0  0  0  0  0  0  0
  -24.1606  -28.4098   23.3939 C   0  0  2  0  0  0  0  0  0  0  0  0
  -19.1031  -29.9638   24.6776 C   0  0  0  0  0  0  0  0  0  0  0  0
  -16.4718  -15.5311   22.2838 C   0  0  0  0  0  0  0  0  0  0  0  0
  -17.5639  -25.4811   24.5471 C   0  0  0  0  0  0  0  0  0  0  0  0
  -21.4700  -15.5232   17.9378 C   0  0  0  0  0  0  0  0  0  0  0  0
  -19.0043  -15.5074   18.3713 C   0  0  0  0  0  0  0  0  0  0  0  0
  -20.4255  -13.6296   19.1938 C   0  0  0  0  0  0  0  0  0  0  0  0
  -18.7857  -17.2200   24.7877 C   0  0  0  0  0  0  0  0  0  0  0  0
  -20.0805  -24.9439   21.3721 C   0  0  0  0  0  0  0  0  0  0  0  0
  -18.5419  -28.5502   24.5173 C   0  0  0  0  0  0  0  0  0  0  0  0
  -21.5376  -24.5475   21.6194 C   0  0  0  0  0  0  0  0  0  0  0  0
  -19.9132  -25.7805   25.4109 C   0  0  0  0  0  0  0  0  0  0  0  0
  -21.8566  -23.1205   21.1889 C   0  0  0  0  0  0  0  0  0  1  0  0
  -20.5698  -15.8832   20.3307 C   0  0  1  0  0  0  0  0  0  0  0  0
  -17.8073  -15.8719   22.9265 C   0  0  2  0  0  0  0  0  0  0  0  0
  -19.0455  -25.5537   24.1627 C   0  0  2  0  0  0  0  0  0  0  0  0
  -20.3837  -15.1567   18.9687 C   0  0  0  0  0  0  0  0  0  0  0  0
  -25.6057  -26.9953   21.9820 N   0  0  0  0  0  0  0  0  0  0  0  0
  -19.2676  -26.5610   23.1423 N   0  0  0  0  0  0  0  0  0  0  0  0
  -24.8137  -28.0779   22.0649 N   0  0  0  0  0  0  0  0  0  0  0  0
  -19.3651  -28.4738   22.1489 N   0  3  0  0  0  0  0  0  0  0  0  0
  -22.7424  -16.7074   21.1816 N   0  0  0  0  0  0  0  0  0  0  0  0
  -23.2051  -27.5171   25.4864 N   0  0  0  0  0  0  0  0  0  0  0  0
  -23.9374  -29.8785   20.7999 N   0  0  0  0  0  0  0  0  0  0  0  0
  -26.4673  -27.6356   17.8057 N   0  0  0  0  0  0  0  0  0  0  0  0
  -25.6066  -15.3158   20.0729 N   0  0  0  0  0  0  0  0  0  0  0  0
  -19.5708  -15.5345   21.3352 N   0  0  0  0  0  0  0  0  0  0  0  0
  -21.2296  -26.2808   25.0830 N   0  0  0  0  0  0  0  0  0  0  0  0
  -17.5598  -16.8179   24.0511 N   0  3  0  0  0  0  0  0  0  0  0  0
  -25.1065  -29.4579   18.0993 O   0  0  0  0  0  0  0  0  0  0  0  0
  -25.0303  -17.5387   19.6868 O   0  0  0  0  0  0  0  0  0  0  0  0
  -22.2156  -14.4369   21.2394 O   0  0  0  0  0  0  0  0  0  0  0  0
  -18.7889  -17.6909   21.6755 O   0  0  0  0  0  0  0  0  0  0  0  0
  -21.4822  -27.4528   27.0374 O   0  0  0  0  0  0  0  0  0  0  0  0
  -29.4211  -23.0168   18.7940 O   0  0  0  0  0  0  0  0  0  0  0  0
  -23.2272  -22.8498   21.4795 O   0  0  0  0  0  0  0  0  0  1  0  0
  -28.3097  -17.8004   20.1934 F   0  0  0  0  0  0  0  0  0  0  0  0
  -28.9097  -21.1079   16.8608 F   0  0  0  0  0  0  0  0  0  0  0  0
  1  2  1  0  0  0  0
  1  5  2  0  0  0  0
  2  6  2  0  0  0  0
  3  8  2  0  0  0  0
  3 16  1  0  0  0  0
  4  9  1  0  0  0  0
  4 16  2  0  0  0  0
  5 18  1  0  0  0  0
  6 20  1  0  0  0  0
  7 10  2  0  0  0  0
  7 19  1  0  0  0  0
  8 22  1  0  0  0  0
  9 22  2  0  0  0  0
 10 23  1  0  0  0  0
 11 12  2  0  0  0  0
 11 24  1  0  0  0  0
 12 25  1  0  0  0  0
 13 21  1  0  0  0  0
 13 23  2  0  0  0  0
 14 25  2  0  0  0  0
 14 26  1  0  0  0  0
 15 28  2  0  0  0  0
 15 67  1  0  0  0  0
 16 27  1  0  0  0  0
 17 27  1  0  0  0  0
 17 29  2  0  0  0  0
 17 31  1  0  0  0  0
 18 20  2  0  0  0  0
 18 36  1  0  0  0  0
 19 21  2  0  0  0  0
 19 37  1  0  0  0  0
 20 45  1  0  0  0  0
 21 38  1  0  0  0  0
 22 81  1  0  0  0  0
 23 82  1  0  0  0  0
 24 26  2  0  0  0  0
 24 81  1  0  0  0  0
 25 83  1  0  0  0  0
 26 84  1  0  0  0  0
 27 64  2  0  0  0  0
 28 55  1  0  0  0  0
 28 65  1  0  0  0  0
 29 66  1  0  0  0  0
 29 70  1  0  0  0  0
 30 56  1  0  0  0  0
 30 65  1  0  0  0  0
 30 67  2  0  0  0  0
 31 71  1  0  0  0  0
 31 76  2  0  0  0  0
 32 46  1  0  0  0  0
 32 72  1  0  0  0  0
 32 77  2  0  0  0  0
 33 60  1  0  0  0  0
 33 68  1  0  0  0  0
 33 78  2  0  0  0  0
 34 61  1  0  0  0  0
 34 73  1  0  0  0  0
 34 79  2  0  0  0  0
 35 69  1  0  0  0  0
 35 74  1  0  0  0  0
 35 80  2  0  0  0  0
 36 39  1  0  0  0  0
 37 46  1  0  0  0  0
 38 68  1  0  0  0  0
 39 41  1  0  0  0  0
 40 42  1  0  0  0  0
 40 43  1  0  0  0  0
 41 45  1  0  0  0  0
 42 47  1  0  0  0  0
 43 69  1  0  0  0  0
 44 47  1  0  0  0  0
 44 69  1  0  0  0  0
 45 72  1  0  0  0  0
 46 68  1  0  0  0  0
 47 66  1  0  0  0  0
 48 56  1  0  0  0  0
 49 61  1  0  0  0  0
 50 62  1  0  0  0  0
 51 63  1  0  0  0  0
 52 63  1  0  0  0  0
 53 63  1  0  0  0  0
 54 75  1  0  0  0  0
 55 57  1  0  0  0  0
 57 59  1  0  0  0  0
 58 62  1  0  0  0  0
 58 74  1  0  0  0  0
 59 82  1  0  0  0  0
 60 63  1  0  0  0  0
 60 73  1  0  0  0  0
 61 75  1  0  0  0  0
 62 65  1  0  0  0  0
 64 66  1  0  0  0  0
M  CHG  2  67   1  75   1
M  ISO  4  35 100  59 101  74 100  82 101
M  END
> <Batch ID>
0078

> <Smiles>
CCc1ncc(CC[101CH2:1][101O:1]c2ccc3c(c2)CN(C(=O)C(NC(=O)C(C)NC)C(C)(C)C)C(C(=O)NC2CCCc4ccccc42)C3)n1C(C)C[100NH:0][100C:0](=O)N1CCCC(n2nc(-c3ccc(Oc4ccc(F)cc4F)cc3)c(C(N)=O)c2N)C1

> <Shape>
0.194

> <Color>
0.077

> <Negative vol penalty>
0.000

$$$$

  -OEChem-04052318393D

 85 93  0     1  0  0  0  0  0999 V2000
  -17.5890  -32.6319   22.7275 C   0  0  0  0  0  0  0  0  0  0  0  0
  -18.7675  -32.7851   22.0042 C   0  0  0  0  0  0  0  0  0  0  0  0
  -26.2515  -17.6668   20.6986 C   0  0  0  0  0  0  0  0  0  0  0  0
  -28.4863  -17.3106   21.5448 C   0  0  0  0  0  0  0  0  0  0  0  0
  -17.5246  -31.7019   23.7642 C   0  0  0  0  0  0  0  0  0  0  0  0
  -19.8827  -32.0090   22.3180 C   0  0  0  0  0  0  0  0  0  0  0  0
  -25.5479  -28.8779   19.2491 C   0  0  0  0  0  0  0  0  0  0  0  0
  -26.0995  -16.2916   20.5213 C   0  0  0  0  0  0  0  0  0  0  0  0
  -28.3342  -15.9354   21.3675 C   0  0  0  0  0  0  0  0  0  0  0  0
  -26.9345  -28.8018   19.3724 C   0  0  0  0  0  0  0  0  0  0  0  0
  -28.6683  -12.3608   20.8012 C   0  0  0  0  0  0  0  0  0  0  0  0
  -29.7241  -11.6619   20.2160 C   0  0  0  0  0  0  0  0  0  0  0  0
  -26.6826  -27.1710   21.1319 C   0  0  0  0  0  0  0  0  0  0  0  0
  -29.5237  -13.0224   18.2296 C   0  0  0  0  0  0  0  0  0  0  0  0
  -32.4373  -26.4509   21.0720 C   0  0  0  0  0  0  0  0  0  0  0  0
  -27.4450  -18.1763   21.2103 C   0  0  0  0  0  0  0  0  0  0  0  0
  -27.2875  -20.3462   22.5423 C   0  0  0  0  0  0  0  0  0  0  0  0
  -18.6365  -30.9071   24.0845 C   0  0  0  0  0  0  0  0  0  0  0  0
  -24.7166  -28.1079   20.0752 C   0  0  0  0  0  0  0  0  0  0  0  0
  -19.8335  -31.0683   23.3609 C   0  0  0  0  0  0  0  0  0  0  0  0
  -25.2858  -27.2372   21.0154 C   0  0  0  0  0  0  0  0  0  0  0  0
  -27.1408  -15.4259   20.8558 C   0  0  0  0  0  0  0  0  0  0  0  0
  -27.5020  -27.9504   20.3158 C   0  0  0  0  0  0  0  0  0  0  0  0
  -28.0402  -13.3905   20.1005 C   0  0  0  0  0  0  0  0  0  0  0  0
  -30.1518  -11.9927   18.9302 C   0  0  0  0  0  0  0  0  0  0  0  0
  -28.4679  -13.7213   18.8147 C   0  0  0  0  0  0  0  0  0  0  0  0
  -27.6029  -19.5967   21.3931 C   0  0  0  0  0  0  0  0  0  0  0  0
  -31.7373  -27.6137   20.8226 C   0  0  0  0  0  0  0  0  0  0  0  0
  -33.2805  -26.0335   20.0626 C   0  0  0  0  0  0  0  0  0  0  0  0
  -27.6193  -21.6374   22.2119 C   0  0  0  0  0  0  0  0  0  0  0  0
  -32.6991  -27.8125   18.7726 C   0  0  0  0  0  0  0  0  0  0  0  0
  -26.7432  -19.9138   23.7963 C   0  0  0  0  0  0  0  0  0  0  0  0
  -22.4973  -28.7583   22.2559 C   0  0  0  0  0  0  0  0  0  0  0  0
  -22.0758  -25.5422   22.2203 C   0  0  0  0  0  0  0  0  0  0  0  0
  -23.3827  -22.4559   21.5774 C   0  0  0  0  0  0  0  0  0  0  0  0
  -31.4813  -23.9759   18.2791 C   0  0  0  0  0  0  0  0  0  0  0  0
  -18.5338  -29.9486   25.2444 C   0  0  0  0  0  0  0  0  0  0  0  0
  -23.2232  -28.1815   19.9114 C   0  0  0  0  0  0  0  0  0  0  0  0
  -24.4376  -26.3743   21.9124 C   0  0  0  0  0  0  0  0  0  0  0  0
  -19.6436  -28.9008   25.2688 C   0  0  0  0  0  0  0  0  0  0  0  0
  -27.9739  -24.5654   18.4447 C   0  0  0  0  0  0  0  0  0  0  0  0
  -21.0010  -29.5553   25.0322 C   0  0  0  0  0  0  0  0  0  0  0  0
  -27.4527  -23.4264   19.3228 C   0  0  0  0  0  0  0  0  0  0  0  0
  -29.1190  -24.1056   17.5449 C   0  0  0  0  0  0  0  0  0  0  0  0
  -29.7165  -22.3147   19.1290 C   0  0  0  0  0  0  0  0  0  0  0  0
  -21.0568  -30.2274   23.6550 C   0  0  1  0  0  0  0  0  0  0  0  0
  -22.4629  -27.7349   21.1563 C   0  0  1  0  0  0  0  0  0  0  0  0
  -28.5982  -22.7437   20.0941 C   0  0  2  0  0  0  0  0  0  0  0  0
  -32.8478  -28.5702   17.4968 C   0  0  0  0  0  0  0  0  0  0  0  0
  -30.7348  -29.6846   21.8415 C   0  0  0  0  0  0  0  0  0  0  0  0
  -22.8121  -20.0144   21.6813 C   0  0  0  0  0  0  0  0  0  0  0  0
  -33.8778  -24.0468   21.6096 C   0  0  0  0  0  0  0  0  0  0  0  0
  -35.6101  -25.1084   20.1855 C   0  0  0  0  0  0  0  0  0  0  0  0
  -22.4565  -25.5846   25.2474 C   0  0  0  0  0  0  0  0  0  0  0  0
  -22.8256  -23.1097   25.1656 C   0  0  0  0  0  0  0  0  0  0  0  0
  -20.6375  -24.0670   24.4459 C   0  0  0  0  0  0  0  0  0  0  0  0
  -23.7377  -22.1298   18.6573 C   0  0  0  0  0  0  0  0  0  0  0  0
  -33.8040  -23.7262   19.1168 C   0  0  0  0  0  0  0  0  0  0  0  0
  -29.3736  -27.5641   21.7314 C   0  0  0  0  0  0  0  0  0  1  0  0
  -30.7830  -28.1545   21.8758 C   0  0  1  0  0  0  0  0  0  0  0  0
  -22.6702  -24.3777   22.9750 C   0  0  1  0  0  0  0  0  0  0  0  0
  -22.8274  -21.2654   20.8167 C   0  0  2  0  0  0  0  0  0  0  0  0
  -34.0808  -24.7870   20.2419 C   0  0  0  0  0  0  0  0  0  0  0  0
  -22.1637  -24.3023   24.4431 C   0  0  0  0  0  0  0  0  0  0  0  0
  -28.0970  -20.3492   20.4064 N   0  0  0  0  0  0  0  0  0  0  0  0
  -31.8444  -28.3226   19.6797 N   0  0  0  0  0  0  0  0  0  0  0  0
  -33.4364  -26.6922   18.8955 N   0  0  0  0  0  0  0  0  0  0  0  0
  -28.0945  -21.5850   20.9346 N   0  0  0  0  0  0  0  0  0  0  0  0
  -22.9825  -26.4866   21.7185 N   0  0  0  0  0  0  0  0  0  0  0  0
  -30.1729  -23.4683   18.3381 N   0  0  0  0  0  0  0  0  0  0  0  0
  -27.5479  -22.8012   22.8923 N   0  0  0  0  0  0  0  0  0  0  0  0
  -26.4604  -18.5519   23.9679 N   0  0  0  0  0  0  0  0  0  0  0  0
  -21.2527  -29.2379   22.6173 N   0  0  0  0  0  0  0  0  0  0  0  0
  -22.3824  -23.1876   22.1818 N   0  0  0  0  0  0  0  0  0  0  0  0
  -32.4180  -23.3175   19.0664 N   0  0  0  0  0  0  0  0  0  0  0  0
  -23.6548  -20.9912   19.6079 N   0  3  0  0  0  0  0  0  0  0  0  0
  -26.4992  -20.7141   24.7310 O   0  0  0  0  0  0  0  0  0  0  0  0
  -23.5732  -29.0875   22.7415 O   0  0  0  0  0  0  0  0  0  0  0  0
  -20.8526  -25.6077   22.0750 O   0  0  0  0  0  0  0  0  0  0  0  0
  -24.5841  -22.7092   21.6331 O   0  0  0  0  0  0  0  0  0  0  0  0
  -31.7907  -24.9473   17.5808 O   0  0  0  0  0  0  0  0  0  0  0  0
  -26.9926  -14.0840   20.6832 O   0  0  0  0  0  0  0  0  0  0  0  0
  -28.8552  -27.8747   20.4387 O   0  0  0  0  0  0  0  0  0  1  0  0
  -31.1667  -11.3224   18.3690 F   0  0  0  0  0  0  0  0  0  0  0  0
  -27.8691  -14.7103   18.1372 F   0  0  0  0  0  0  0  0  0  0  0  0
  1  2  1  0  0  0  0
  1  5  2  0  0  0  0
  2  6  2  0  0  0  0
  3  8  2  0  0  0  0
  3 16  1  0  0  0  0
  4  9  1  0  0  0  0
  4 16  2  0  0  0  0
  5 18  1  0  0  0  0
  6 20  1  0  0  0  0
  7 10  2  0  0  0  0
  7 19  1  0  0  0  0
  8 22  1  0  0  0  0
  9 22  2  0  0  0  0
 10 23  1  0  0  0  0
 11 12  2  0  0  0  0
 11 24  1  0  0  0  0
 12 25  1  0  0  0  0
 13 21  1  0  0  0  0
 13 23  2  0  0  0  0
 14 25  2  0  0  0  0
 14 26  1  0  0  0  0
 15 28  1  0  0  0  0
 15 29  2  0  0  0  0
 16 27  1  0  0  0  0
 17 27  1  0  0  0  0
 17 30  2  0  0  0  0
 17 32  1  0  0  0  0
 18 20  2  0  0  0  0
 18 37  1  0  0  0  0
 19 21  2  0  0  0  0
 19 38  1  0  0  0  0
 20 46  1  0  0  0  0
 21 39  1  0  0  0  0
 22 82  1  0  0  0  0
 23 83  1  0  0  0  0
 24 26  2  0  0  0  0
 24 82  1  0  0  0  0
 25 84  1  0  0  0  0
 26 85  1  0  0  0  0
 27 65  2  0  0  0  0
 28 60  1  0  0  0  0
 28 66  2  0  0  0  0
 29 63  1  0  0  0  0
 29 67  1  0  0  0  0
 30 68  1  0  0  0  0
 30 71  1  0  0  0  0
 31 49  1  0  0  0  0
 31 66  1  0  0  0  0
 31 67  2  0  0  0  0
 32 72  1  0  0  0  0
 32 77  2  0  0  0  0
 33 47  1  0  0  0  0
 33 73  1  0  0  0  0
 33 78  2  0  0  0  0
 34 61  1  0  0  0  0
 34 69  1  0  0  0  0
 34 79  2  0  0  0  0
 35 62  1  0  0  0  0
 35 74  1  0  0  0  0
 35 80  2  0  0  0  0
 36 70  1  0  0  0  0
 36 75  1  0  0  0  0
 36 81  2  0  0  0  0
 37 40  1  0  0  0  0
 38 47  1  0  0  0  0
 39 69  1  0  0  0  0
 40 42  1  0  0  0  0
 41 43  1  0  0  0  0
 41 44  1  0  0  0  0
 42 46  1  0  0  0  0
 43 48  1  0  0  0  0
 44 70  1  0  0  0  0
 45 48  1  0  0  0  0
 45 70  1  0  0  0  0
 46 73  1  0  0  0  0
 47 69  1  0  0  0  0
 48 68  1  0  0  0  0
 50 60  1  0  0  0  0
 51 62  1  0  0  0  0
 52 63  1  0  0  0  0
 53 63  1  0  0  0  0
 54 64  1  0  0  0  0
 55 64  1  0  0  0  0
 56 64  1  0  0  0  0
 57 76  1  0  0  0  0
 58 63  1  0  0  0  0
 58 75  1  0  0  0  0
 59 60  1  0  0  0  0
 59 83  1  0  0  0  0
 61 64  1  0  0  0  0
 61 74  1  0  0  0  0
 62 76  1  0  0  0  0
 65 68  1  0  0  0  0
M  CHG  1  76   1
M  ISO  4  36 100  59 101  75 100  83 101
M  END
> <Batch ID>
0078

> <Smiles>
CNC(C)C(=O)NC(C(=O)N1Cc2cc([101O:1][101CH2:1]C(C)c3cc(C(C)(C)C[100NH:0][100C:0](=O)N4CCCC(n5nc(-c6ccc(Oc7ccc(F)cc7F)cc6)c(C(N)=O)c5N)C4)nc(C)n3)ccc2CC1C(=O)NC1CCCc2ccccc21)C(C)(C)C

> <Shape>
0.214

> <Color>
0.072

> <Negative vol penalty>
0.000

$$$$

  -OEChem-04052318393D

 84 92  0     1  0  0  0  0  0999 V2000
  -16.2121  -27.2400   21.4139 C   0  0  0  0  0  0  0  0  0  0  0  0
  -17.4404  -26.6030   21.5587 C   0  0  0  0  0  0  0  0  0  0  0  0
  -24.5296  -13.7399   20.9048 C   0  0  0  0  0  0  0  0  0  0  0  0
  -26.8177  -13.2240   20.3255 C   0  0  0  0  0  0  0  0  0  0  0  0
  -16.1650  -28.6012   21.1159 C   0  0  0  0  0  0  0  0  0  0  0  0
  -18.6223  -27.3267   21.4046 C   0  0  0  0  0  0  0  0  0  0  0  0
  -22.0194  -26.2904   25.0145 C   0  0  0  0  0  0  0  0  0  0  0  0
  -24.1454  -12.4509   20.5353 C   0  0  0  0  0  0  0  0  0  0  0  0
  -26.4335  -11.9349   19.9560 C   0  0  0  0  0  0  0  0  0  0  0  0
  -22.7388  -25.1027   24.8897 C   0  0  0  0  0  0  0  0  0  0  0  0
  -24.2536   -9.3427   21.8622 C   0  0  0  0  0  0  0  0  0  0  0  0
  -23.3938   -8.6526   22.7166 C   0  0  0  0  0  0  0  0  0  0  0  0
  -24.6105  -26.3370   23.9995 C   0  0  0  0  0  0  0  0  0  0  0  0
  -21.7622   -8.4887   20.9423 C   0  0  0  0  0  0  0  0  0  0  0  0
  -28.0965  -24.1830   25.8350 C   0  0  0  0  0  0  0  0  0  0  0  0
  -25.8657  -14.1264   20.7999 C   0  0  0  0  0  0  0  0  0  0  0  0
  -26.6827  -15.8884   22.4538 C   0  0  0  0  0  0  0  0  0  0  0  0
  -17.3469  -29.3440   20.9676 C   0  0  0  0  0  0  0  0  0  0  0  0
  -22.5871  -27.5110   24.6218 C   0  0  0  0  0  0  0  0  0  0  0  0
  -18.5910  -28.6988   21.1031 C   0  0  0  0  0  0  0  0  0  0  0  0
  -23.8972  -27.5391   24.1227 C   0  0  0  0  0  0  0  0  0  0  0  0
  -25.0973  -11.5484   20.0610 C   0  0  0  0  0  0  0  0  0  0  0  0
  -24.0335  -25.1255   24.3795 C   0  0  0  0  0  0  0  0  0  0  0  0
  -23.8677   -9.6059   20.5478 C   0  0  0  0  0  0  0  0  0  0  0  0
  -22.1481   -8.2256   22.2567 C   0  0  0  0  0  0  0  0  0  0  0  0
  -22.6220   -9.1789   20.0879 C   0  0  0  0  0  0  0  0  0  0  0  0
  -26.2631  -15.4580   21.1808 C   0  0  0  0  0  0  0  0  0  0  0  0
  -29.2884  -24.8512   25.8334 C   0  0  0  0  0  0  0  0  0  0  0  0
  -26.9451  -17.2271   22.2944 C   0  0  0  0  0  0  0  0  0  0  0  0
  -29.4019  -23.2478   24.3112 C   0  0  0  0  0  0  0  0  0  0  0  0
  -26.8229  -15.1446   23.6715 C   0  0  0  0  0  0  0  0  0  0  0  0
  -21.8793  -29.7172   22.4457 C   0  0  0  0  0  0  0  0  0  0  0  0
  -24.3120  -31.3321   23.8587 C   0  0  0  0  0  0  0  0  0  0  0  0
  -27.1772  -31.2164   25.7091 C   0  0  0  0  0  0  0  0  0  0  0  0
  -29.1709  -21.4375   19.3851 C   0  0  0  0  0  0  0  0  0  0  0  0
  -17.2459  -30.8030   20.5990 C   0  0  0  0  0  0  0  0  0  0  0  0
  -21.8077  -28.7867   24.7877 C   0  0  0  0  0  0  0  0  0  0  0  0
  -24.5596  -28.8259   23.7059 C   0  0  0  0  0  0  0  0  0  0  0  0
  -18.5418  -31.5786   20.8215 C   0  0  0  0  0  0  0  0  0  0  0  0
  -25.9118  -20.3497   18.4514 C   0  0  0  0  0  0  0  0  0  0  0  0
  -19.7302  -30.8050   20.2593 C   0  0  0  0  0  0  0  0  0  0  0  0
  -25.7501  -19.0133   19.1780 C   0  0  0  0  0  0  0  0  0  0  0  0
  -27.3438  -20.5568   17.9630 C   0  0  0  0  0  0  0  0  0  0  0  0
  -28.2180  -19.0775   19.7296 C   0  0  0  0  0  0  0  0  0  0  0  0
  -19.8948  -29.4551   20.9679 C   0  0  1  0  0  0  0  0  0  0  0  0
  -22.2965  -29.9084   23.8765 C   0  0  1  0  0  0  0  0  0  0  0  0
  -26.8038  -18.8484   20.2897 C   0  0  2  0  0  0  0  0  0  0  0  0
  -29.7621  -25.9875   26.6277 C   0  0  0  0  0  0  0  0  0  0  0  0
  -28.9616  -32.6951   26.6716 C   0  0  0  0  0  0  0  0  0  0  0  0
  -24.9864  -24.1366   21.8750 C   0  0  0  0  0  0  0  0  0  0  0  0
  -25.5606  -31.6233   21.0899 C   0  0  0  0  0  0  0  0  0  0  0  0
  -27.7186  -32.2324   22.2037 C   0  0  0  0  0  0  0  0  0  0  0  0
  -25.7047  -33.6700   22.5198 C   0  0  0  0  0  0  0  0  0  0  0  0
  -26.5247  -30.3982   28.4774 C   0  0  0  0  0  0  0  0  0  0  0  0
  -29.9184  -22.3626   23.2377 C   0  0  0  0  0  0  0  0  0  0  0  0
  -30.4187  -23.1015   21.9770 C   0  0  0  0  0  0  0  0  0  0  0  0
  -26.3778  -22.5259   23.2257 C   0  0  0  0  0  0  0  0  0  0  0  0
  -27.1059  -22.2114   24.5405 C   0  0  0  0  0  0  0  0  0  0  0  0
  -30.9906  -22.1832   20.8990 C   0  0  0  0  0  0  0  0  0  0  0  0
  -25.8052  -31.4114   23.6514 C   0  0  1  0  0  0  0  0  0  0  0  0
  -27.6261  -32.0120   26.9215 C   0  0  2  0  0  0  0  0  0  0  0  0
  -25.6969  -23.9000   23.2017 C   0  0  2  0  0  0  0  0  0  1  0  0
  -26.1844  -32.2096   22.3721 C   0  0  0  0  0  0  0  0  0  0  0  0
  -26.2576  -16.4434   20.2793 N   0  0  0  0  0  0  0  0  0  0  0  0
  -28.1946  -23.1967   24.8833 N   0  0  0  0  0  0  0  0  0  0  0  0
  -26.6768  -17.5064   20.9866 N   0  0  0  0  0  0  0  0  0  0  0  0
  -30.0769  -24.2512   24.8814 N   0  3  0  0  0  0  0  0  0  0  0  0
  -23.7543  -30.0459   23.8814 N   0  0  0  0  0  0  0  0  0  0  0  0
  -28.2933  -20.3883   19.0656 N   0  0  0  0  0  0  0  0  0  0  0  0
  -27.3767  -18.1809   23.1467 N   0  0  0  0  0  0  0  0  0  0  0  0
  -26.5110  -13.7782   23.6595 N   0  0  0  0  0  0  0  0  0  0  0  0
  -20.5118  -29.6367   22.2644 N   0  0  0  0  0  0  0  0  0  0  0  0
  -26.3599  -31.9599   24.8843 N   0  0  0  0  0  0  0  0  0  0  0  0
  -30.0337  -21.1977   20.4476 N   0  0  0  0  0  0  0  0  0  0  0  0
  -27.7701  -31.1169   28.1042 N   0  3  0  0  0  0  0  0  0  0  0  0
  -27.1974  -15.6794   24.7426 O   0  0  0  0  0  0  0  0  0  0  0  0
  -22.7347  -29.6494   21.5708 O   0  0  0  0  0  0  0  0  0  0  0  0
  -23.6653  -32.3726   24.0025 O   0  0  0  0  0  0  0  0  0  0  0  0
  -27.5205  -30.0529   25.5115 O   0  0  0  0  0  0  0  0  0  0  0  0
  -29.1809  -22.5106   18.7726 O   0  0  0  0  0  0  0  0  0  0  0  0
  -24.7228  -10.2905   19.7005 O   0  0  0  0  0  0  0  0  0  0  0  0
  -24.7377  -23.9676   24.2560 O   0  0  0  0  0  0  0  0  0  1  0  0
  -21.3232   -7.5615   23.0768 F   0  0  0  0  0  0  0  0  0  0  0  0
  -22.2463   -9.4277   18.8258 F   0  0  0  0  0  0  0  0  0  0  0  0
  1  2  1  0  0  0  0
  1  5  2  0  0  0  0
  2  6  2  0  0  0  0
  3  8  2  0  0  0  0
  3 16  1  0  0  0  0
  4  9  1  0  0  0  0
  4 16  2  0  0  0  0
  5 18  1  0  0  0  0
  6 20  1  0  0  0  0
  7 10  2  0  0  0  0
  7 19  1  0  0  0  0
  8 22  1  0  0  0  0
  9 22  2  0  0  0  0
 10 23  1  0  0  0  0
 11 12  2  0  0  0  0
 11 24  1  0  0  0  0
 12 25  1  0  0  0  0
 13 21  1  0  0  0  0
 13 23  2  0  0  0  0
 14 25  2  0  0  0  0
 14 26  1  0  0  0  0
 15 28  2  0  0  0  0
 15 65  1  0  0  0  0
 16 27  1  0  0  0  0
 17 27  1  0  0  0  0
 17 29  2  0  0  0  0
 17 31  1  0  0  0  0
 18 20  2  0  0  0  0
 18 36  1  0  0  0  0
 19 21  2  0  0  0  0
 19 37  1  0  0  0  0
 20 45  1  0  0  0  0
 21 38  1  0  0  0  0
 22 81  1  0  0  0  0
 23 82  1  0  0  0  0
 24 26  2  0  0  0  0
 24 81  1  0  0  0  0
 25 83  1  0  0  0  0
 26 84  1  0  0  0  0
 27 64  2  0  0  0  0
 28 48  1  0  0  0  0
 28 67  1  0  0  0  0
 29 66  1  0  0  0  0
 29 70  1  0  0  0  0
 30 55  1  0  0  0  0
 30 65  1  0  0  0  0
 30 67  2  0  0  0  0
 31 71  1  0  0  0  0
 31 76  2  0  0  0  0
 32 46  1  0  0  0  0
 32 72  1  0  0  0  0
 32 77  2  0  0  0  0
 33 60  1  0  0  0  0
 33 68  1  0  0  0  0
 33 78  2  0  0  0  0
 34 61  1  0  0  0  0
 34 73  1  0  0  0  0
 34 79  2  0  0  0  0
 35 69  1  0  0  0  0
 35 74  1  0  0  0  0
 35 80  2  0  0  0  0
 36 39  1  0  0  0  0
 37 46  1  0  0  0  0
 38 68  1  0  0  0  0
 39 41  1  0  0  0  0
 40 42  1  0  0  0  0
 40 43  1  0  0  0  0
 41 45  1  0  0  0  0
 42 47  1  0  0  0  0
 43 69  1  0  0  0  0
 44 47  1  0  0  0  0
 44 69  1  0  0  0  0
 45 72  1  0  0  0  0
 46 68  1  0  0  0  0
 47 66  1  0  0  0  0
 49 61  1  0  0  0  0
 50 62  1  0  0  0  0
 51 63  1  0  0  0  0
 52 63  1  0  0  0  0
 53 63  1  0  0  0  0
 54 75  1  0  0  0  0
 55 56  1  0  0  0  0
 56 59  1  0  0  0  0
 57 58  1  0  0  0  0
 57 62  1  0  0  0  0
 58 65  1  0  0  0  0
 59 74  1  0  0  0  0
 60 63  1  0  0  0  0
 60 73  1  0  0  0  0
 61 75  1  0  0  0  0
 62 82  1  0  0  0  0
 64 66  1  0  0  0  0
M  CHG  2  67   1  75   1
M  ISO  4  35 100  62 101  74 100  82 101
M  END
> <Batch ID>
0078

> <Smiles>
CNC(C)C(=O)NC(C(=O)N1Cc2cc([101O:1][101CH:1](C)CCn3cc(C)nc3CCC[100NH:0][100C:0](=O)N3CCCC(n4nc(-c5ccc(Oc6ccc(F)cc6F)cc5)c(C(N)=O)c4N)C3)ccc2CC1C(=O)NC1CCCc2ccccc21)C(C)(C)C

> <Shape>
0.230

> <Color>
0.075

> <Negative vol penalty>
0.000

$$$$

  -OEChem-04052318393D

 88 96  0     1  0  0  0  0  0999 V2000
  -28.6920  -23.6240   17.6620 C   0  0  0  0  0  0  0  0  0  0  0  0
  -27.5036  -23.8191   18.3584 C   0  0  0  0  0  0  0  0  0  0  0  0
  -24.4256  -12.8244   19.7470 C   0  0  0  0  0  0  0  0  0  0  0  0
  -25.8476  -13.6833   21.5013 C   0  0  0  0  0  0  0  0  0  0  0  0
  -29.8502  -24.2895   18.0616 C   0  0  0  0  0  0  0  0  0  0  0  0
  -27.4729  -24.6790   19.4557 C   0  0  0  0  0  0  0  0  0  0  0  0
  -23.4425  -27.7447   19.4095 C   0  0  0  0  0  0  0  0  0  0  0  0
  -25.0078  -11.5652   19.8916 C   0  0  0  0  0  0  0  0  0  0  0  0
  -26.4298  -12.4240   21.6459 C   0  0  0  0  0  0  0  0  0  0  0  0
  -22.2237  -27.2001   19.8113 C   0  0  0  0  0  0  0  0  0  0  0  0
  -25.8670   -8.0363   20.0466 C   0  0  0  0  0  0  0  0  0  0  0  0
  -25.0193   -6.9290   20.0718 C   0  0  0  0  0  0  0  0  0  0  0  0
  -22.4994  -28.2041   21.9874 C   0  0  0  0  0  0  0  0  0  0  0  0
  -20.9433  -22.2764   21.8390 C   0  0  0  0  0  0  0  0  0  0  0  0
  -23.9094   -7.8231   22.0226 C   0  0  0  0  0  0  0  0  0  0  0  0
  -24.8455  -13.8835   20.5518 C   0  0  0  0  0  0  0  0  0  0  0  0
  -22.8873  -15.5183   20.5674 C   0  0  0  0  0  0  0  0  0  0  0  0
  -29.8314  -25.1654   19.1585 C   0  0  0  0  0  0  0  0  0  0  0  0
  -24.2055  -28.5154   20.2986 C   0  0  0  0  0  0  0  0  0  0  0  0
  -28.6323  -25.3558   19.8713 C   0  0  0  0  0  0  0  0  0  0  0  0
  -23.7264  -28.7595   21.5935 C   0  0  0  0  0  0  0  0  0  0  0  0
  -19.9686  -22.6315   20.9132 C   0  0  0  0  0  0  0  0  0  0  0  0
  -20.0491  -22.1543   19.6097 C   0  0  0  0  0  0  0  0  0  0  0  0
  -26.0098  -11.3649   20.8411 C   0  0  0  0  0  0  0  0  0  0  0  0
  -21.7533  -27.4274   21.1014 C   0  0  0  0  0  0  0  0  0  0  0  0
  -25.7360   -9.0371   21.0094 C   0  0  0  0  0  0  0  0  0  0  0  0
  -24.0404   -6.8224   21.0598 C   0  0  0  0  0  0  0  0  0  0  0  0
  -24.7572   -8.9305   21.9974 C   0  0  0  0  0  0  0  0  0  0  0  0
  -24.2450  -15.1847   20.4025 C   0  0  0  0  0  0  0  0  0  0  0  0
  -21.9698  -21.4481   21.4147 C   0  0  0  0  0  0  0  0  0  0  0  0
  -21.1157  -21.3317   19.2851 C   0  0  0  0  0  0  0  0  0  0  0  0
  -22.8324  -16.8677   20.3169 C   0  0  0  0  0  0  0  0  0  0  0  0
  -21.7752  -14.6832   20.9158 C   0  0  0  0  0  0  0  0  0  0  0  0
  -27.0973  -28.2441   21.5900 C   0  0  0  0  0  0  0  0  0  0  0  0
  -26.4354  -31.2048   22.7383 C   0  0  0  0  0  0  0  0  0  0  0  0
  -24.9471  -21.9956   21.0395 C   0  0  0  0  0  0  0  0  0  0  0  0
  -24.0786  -33.5125   23.6141 C   0  0  0  0  0  0  0  0  0  0  0  0
  -31.1195  -25.8259   19.5820 C   0  0  0  0  0  0  0  0  0  0  0  0
  -25.5055  -29.1180   19.8411 C   0  0  0  0  0  0  0  0  0  0  0  0
  -24.4978  -29.5967   22.5797 C   0  0  0  0  0  0  0  0  0  0  0  0
  -30.9159  -27.0084   20.5257 C   0  0  0  0  0  0  0  0  0  0  0  0
  -26.2778  -20.0069   18.3722 C   0  0  0  0  0  0  0  0  0  0  0  0
  -29.9300  -26.6453   21.6316 C   0  0  0  0  0  0  0  0  0  0  0  0
  -25.7813  -18.5977   18.6928 C   0  0  0  0  0  0  0  0  0  0  0  0
  -26.5934  -20.7903   19.6425 C   0  0  0  0  0  0  0  0  0  0  0  0
  -24.9587  -19.4539   20.9323 C   0  0  0  0  0  0  0  0  0  0  0  0
  -28.5532  -26.2996   21.0515 C   0  0  1  0  0  0  0  0  0  0  0  0
  -26.4444  -29.4592   20.9941 C   0  0  1  0  0  0  0  0  0  0  0  0
  -24.5992  -18.6389   19.6774 C   0  0  2  0  0  0  0  0  0  0  0  0
  -21.2553  -20.7868   17.9012 C   0  0  0  0  0  0  0  0  0  0  0  0
  -16.6537  -22.1159   17.7726 C   0  0  0  0  0  0  0  0  0  0  0  0
  -22.4611  -20.8004   23.8049 C   0  0  0  0  0  0  0  0  0  0  0  0
  -23.1443  -35.7200   24.3567 C   0  0  0  0  0  0  0  0  0  0  0  0
  -25.3909  -21.5145   23.4065 C   0  0  0  0  0  0  0  0  0  0  0  0
  -23.9404  -23.4323   22.7094 C   0  0  0  0  0  0  0  0  0  0  0  0
  -27.0931  -30.1365   25.5197 C   0  0  0  0  0  0  0  0  0  0  0  0
  -25.9486  -32.1432   26.4849 C   0  0  0  0  0  0  0  0  0  0  0  0
  -27.9685  -32.4316   25.0498 C   0  0  0  0  0  0  0  0  0  0  0  0
  -23.9558  -34.5264   20.8364 C   0  0  0  0  0  0  0  0  0  0  0  0
  -18.8408  -23.5340   21.3458 C   0  0  0  0  0  0  0  0  0  0  0  0
  -19.0167  -22.5166   18.5957 C   0  0  0  0  0  0  0  0  0  0  0  0
  -17.7165  -21.7209   18.7857 C   0  0  0  0  0  0  0  0  0  0  0  0
  -19.3075  -24.8893   21.8816 C   0  0  0  0  0  0  0  0  0  0  0  0
  -20.1704  -25.6648   20.8929 C   0  0  0  0  0  0  0  0  0  1  0  0
  -23.0327  -21.0452   22.3815 C   0  0  2  0  0  0  0  0  0  0  0  0
  -25.7799  -31.7457   23.9860 C   0  0  1  0  0  0  0  0  0  0  0  0
  -23.9463  -34.9898   23.2908 C   0  0  2  0  0  0  0  0  0  0  0  0
  -24.3162  -21.9701   22.4089 C   0  0  0  0  0  0  0  0  0  0  0  0
  -26.6837  -31.5968   25.2424 C   0  0  0  0  0  0  0  0  0  0  0  0
  -24.9982  -16.2373   20.0727 N   0  0  0  0  0  0  0  0  0  0  0  0
  -22.0815  -20.9649   20.1571 N   0  0  0  0  0  0  0  0  0  0  0  0
  -24.1107  -17.2455   20.0281 N   0  0  0  0  0  0  0  0  0  0  0  0
  -25.7662  -30.1588   22.0872 N   0  0  0  0  0  0  0  0  0  0  0  0
  -25.4536  -20.7869   20.5612 N   0  0  0  0  0  0  0  0  0  0  0  0
  -21.8158  -17.7559   20.3176 N   0  0  0  0  0  0  0  0  0  0  0  0
  -21.4583  -14.5238   22.2718 N   0  0  0  0  0  0  0  0  0  0  0  0
  -27.8402  -27.5057   20.6888 N   0  0  0  0  0  0  0  0  0  0  0  0
  -25.3989  -33.1211   23.6836 N   0  0  0  0  0  0  0  0  0  0  0  0
  -23.2623  -35.1738   21.9796 N   0  3  0  0  0  0  0  0  0  0  0  0
  -21.0930  -14.0825   20.0513 O   0  0  0  0  0  0  0  0  0  0  0  0
  -26.9399  -27.9959   22.7796 O   0  0  0  0  0  0  0  0  0  0  0  0
  -27.4982  -31.6972   22.3516 O   0  0  0  0  0  0  0  0  0  0  0  0
  -24.9851  -23.0582   20.4138 O   0  0  0  0  0  0  0  0  0  0  0  0
  -23.1078  -32.7799   23.7913 O   0  0  0  0  0  0  0  0  0  0  0  0
  -26.5779  -10.1362   20.9826 O   0  0  0  0  0  0  0  0  0  0  0  0
  -20.5642  -26.8964   21.4964 O   0  0  0  0  0  0  0  0  0  1  0  0
  -23.2254   -5.7597   21.0829 F   0  0  0  0  0  0  0  0  0  0  0  0
  -24.6257   -9.8892   22.9244 F   0  0  0  0  0  0  0  0  0  0  0  0
  1  2  1  0  0  0  0
  1  5  2  0  0  0  0
  2  6  2  0  0  0  0
  3  8  2  0  0  0  0
  3 16  1  0  0  0  0
  4  9  1  0  0  0  0
  4 16  2  0  0  0  0
  5 18  1  0  0  0  0
  6 20  1  0  0  0  0
  7 10  2  0  0  0  0
  7 19  1  0  0  0  0
  8 24  1  0  0  0  0
  9 24  2  0  0  0  0
 10 25  1  0  0  0  0
 11 12  2  0  0  0  0
 11 26  1  0  0  0  0
 12 27  1  0  0  0  0
 13 21  1  0  0  0  0
 13 25  2  0  0  0  0
 14 22  2  0  0  0  0
 14 30  1  0  0  0  0
 15 27  2  0  0  0  0
 15 28  1  0  0  0  0
 16 29  1  0  0  0  0
 17 29  1  0  0  0  0
 17 32  2  0  0  0  0
 17 33  1  0  0  0  0
 18 20  2  0  0  0  0
 18 38  1  0  0  0  0
 19 21  2  0  0  0  0
 19 39  1  0  0  0  0
 20 47  1  0  0  0  0
 21 40  1  0  0  0  0
 22 23  1  0  0  0  0
 22 60  1  0  0  0  0
 23 31  2  0  0  0  0
 23 61  1  0  0  0  0
 24 85  1  0  0  0  0
 25 86  1  0  0  0  0
 26 28  2  0  0  0  0
 26 85  1  0  0  0  0
 27 87  1  0  0  0  0
 28 88  1  0  0  0  0
 29 70  2  0  0  0  0
 30 65  1  0  0  0  0
 30 71  2  0  0  0  0
 31 50  1  0  0  0  0
 31 71  1  0  0  0  0
 32 72  1  0  0  0  0
 32 75  1  0  0  0  0
 33 76  1  0  0  0  0
 33 80  2  0  0  0  0
 34 48  1  0  0  0  0
 34 77  1  0  0  0  0
 34 81  2  0  0  0  0
 35 66  1  0  0  0  0
 35 73  1  0  0  0  0
 35 82  2  0  0  0  0
 36 68  1  0  0  0  0
 36 74  1  0  0  0  0
 36 83  2  0  0  0  0
 37 67  1  0  0  0  0
 37 78  1  0  0  0  0
 37 84  2  0  0  0  0
 38 41  1  0  0  0  0
 39 48  1  0  0  0  0
 40 73  1  0  0  0  0
 41 43  1  0  0  0  0
 42 44  1  0  0  0  0
 42 45  1  0  0  0  0
 43 47  1  0  0  0  0
 44 49  1  0  0  0  0
 45 74  1  0  0  0  0
 46 49  1  0  0  0  0
 46 74  1  0  0  0  0
 47 77  1  0  0  0  0
 48 73  1  0  0  0  0
 49 72  1  0  0  0  0
 51 62  1  0  0  0  0
 52 65  1  0  0  0  0
 53 67  1  0  0  0  0
 54 68  1  0  0  0  0
 55 68  1  0  0  0  0
 56 69  1  0  0  0  0
 57 69  1  0  0  0  0
 58 69  1  0  0  0  0
 59 79  1  0  0  0  0
 60 63  1  0  0  0  0
 61 62  1  0  0  0  0
 63 64  1  0  0  0  0
 64 86  1  0  0  0  0
 65 68  1  0  0  0  0
 66 69  1  0  0  0  0
 66 78  1  0  0  0  0
 67 79  1  0  0  0  0
 70 72  1  0  0  0  0
M  CHG  1  79   1
M  ISO  4  36 100  64 101  68 100  86 101
M  END
> <Batch ID>
0078

> <Smiles>
CCCc1c(CC[101CH2:1][101O:1]c2ccc3c(c2)CN(C(=O)C(NC(=O)C(C)NC)C(C)(C)C)C(C(=O)NC2CCCc4ccccc42)C3)cc(C(C)[100C:0](C)(C)[100C:0](=O)N2CCCC(n3nc(-c4ccc(Oc5ccc(F)cc5F)cc4)c(C(N)=O)c3N)C2)nc1C

> <Shape>
0.237

> <Color>
0.069

> <Negative vol penalty>
0.000

$$$$

  -OEChem-04052318393D

 85 93  0     1  0  0  0  0  0999 V2000
  -27.6264   -2.0404   31.1113 C   0  0  0  0  0  0  0  0  0  0  0  0
  -26.8865   -3.1732   30.7878 C   0  0  0  0  0  0  0  0  0  0  0  0
  -23.0744   -9.8689   19.9417 C   0  0  0  0  0  0  0  0  0  0  0  0
  -23.8387   -9.8747   22.2336 C   0  0  0  0  0  0  0  0  0  0  0  0
  -28.9891   -1.9927   30.8206 C   0  0  0  0  0  0  0  0  0  0  0  0
  -27.5092   -4.2595   30.1742 C   0  0  0  0  0  0  0  0  0  0  0  0
  -26.2229   -9.5049   25.4680 C   0  0  0  0  0  0  0  0  0  0  0  0
  -22.3318   -8.7151   20.1922 C   0  0  0  0  0  0  0  0  0  0  0  0
  -23.0961   -8.7208   22.4842 C   0  0  0  0  0  0  0  0  0  0  0  0
  -26.3250  -10.8898   25.3442 C   0  0  0  0  0  0  0  0  0  0  0  0
  -19.8697   -7.9203   23.0923 C   0  0  0  0  0  0  0  0  0  0  0  0
  -19.1150   -7.8789   24.2647 C   0  0  0  0  0  0  0  0  0  0  0  0
  -28.6683  -10.6639   24.8176 C   0  0  0  0  0  0  0  0  0  0  0  0
  -20.3593   -5.9418   24.9972 C   0  0  0  0  0  0  0  0  0  0  0  0
  -27.8494  -18.2943   25.3440 C   0  0  0  0  0  0  0  0  0  0  0  0
  -23.8279  -10.4488   20.9624 C   0  0  0  0  0  0  0  0  0  0  0  0
  -24.1676  -12.9742   20.8437 C   0  0  0  0  0  0  0  0  0  0  0  0
  -29.6269   -3.0752   30.1944 C   0  0  0  0  0  0  0  0  0  0  0  0
  -27.3470   -8.6884   25.2779 C   0  0  0  0  0  0  0  0  0  0  0  0
  -28.8821   -4.2269   29.8760 C   0  0  0  0  0  0  0  0  0  0  0  0
  -28.5772   -9.2687   24.9370 C   0  0  0  0  0  0  0  0  0  0  0  0
  -22.3426   -8.1410   21.4634 C   0  0  0  0  0  0  0  0  0  0  0  0
  -27.5485  -11.4697   25.0218 C   0  0  0  0  0  0  0  0  0  0  0  0
  -20.8691   -6.9723   22.8724 C   0  0  0  0  0  0  0  0  0  0  0  0
  -19.3598   -6.8897   25.2171 C   0  0  0  0  0  0  0  0  0  0  0  0
  -21.1139   -5.9831   23.8248 C   0  0  0  0  0  0  0  0  0  0  0  0
  -24.5956  -11.6404   20.7041 C   0  0  0  0  0  0  0  0  0  0  0  0
  -28.8295  -19.2431   25.4218 C   0  0  0  0  0  0  0  0  0  0  0  0
  -25.2586  -13.7248   20.4788 C   0  0  0  0  0  0  0  0  0  0  0  0
  -29.7725  -17.3349   24.8136 C   0  0  0  0  0  0  0  0  0  0  0  0
  -22.8976  -13.4888   21.2654 C   0  0  0  0  0  0  0  0  0  0  0  0
  -28.9858   -6.6671   27.1034 C   0  0  0  0  0  0  0  0  0  0  0  0
  -30.5616   -6.0550   24.3349 C   0  0  0  0  0  0  0  0  0  0  0  0
  -31.4927   -7.1299   21.2325 C   0  0  0  0  0  0  0  0  0  0  0  0
  -30.7419  -14.7476   20.6574 C   0  0  0  0  0  0  0  0  0  0  0  0
  -31.1118   -2.9962   29.9428 C   0  0  0  0  0  0  0  0  0  0  0  0
  -27.2143   -7.1943   25.3888 C   0  0  0  0  0  0  0  0  0  0  0  0
  -29.8094   -8.4349   24.7028 C   0  0  0  0  0  0  0  0  0  0  0  0
  -31.6182   -4.0413   28.9520 C   0  0  0  0  0  0  0  0  0  0  0  0
  -29.6014  -12.3641   18.2710 C   0  0  0  0  0  0  0  0  0  0  0  0
  -31.0468   -5.4154   29.2869 C   0  0  0  0  0  0  0  0  0  0  0  0
  -28.1650  -12.0691   18.7065 C   0  0  0  0  0  0  0  0  0  0  0  0
  -30.5207  -12.5847   19.4702 C   0  0  0  0  0  0  0  0  0  0  0  0
  -28.6211  -13.3133   20.8611 C   0  0  0  0  0  0  0  0  0  0  0  0
  -29.5166   -5.4157   29.1874 C   0  0  1  0  0  0  0  0  0  0  0  0
  -28.5396   -6.4965   25.6788 C   0  0  1  0  0  0  0  0  0  0  0  0
  -27.6448  -13.1390   19.6852 C   0  0  2  0  0  0  0  0  0  0  0  0
  -28.7754  -20.6642   25.7742 C   0  0  0  0  0  0  0  0  0  0  0  0
  -32.8103   -6.4246   19.2166 C   0  0  0  0  0  0  0  0  0  0  0  0
  -33.1565   -6.6453   25.8274 C   0  0  0  0  0  0  0  0  0  0  0  0
  -34.3006   -6.8611   23.6109 C   0  0  0  0  0  0  0  0  0  0  0  0
  -33.2686   -4.6888   24.2736 C   0  0  0  0  0  0  0  0  0  0  0  0
  -28.7237  -14.7499   26.8030 C   0  0  0  0  0  0  0  0  0  0  0  0
  -26.4464  -15.7584   26.9520 C   0  0  0  0  0  0  0  0  0  0  0  0
  -29.1086   -7.2628   19.4840 C   0  0  0  0  0  0  0  0  0  0  0  0
  -30.7961  -16.3374   24.4132 C   0  0  0  0  0  0  0  0  0  0  0  0
  -31.6289  -16.7297   23.1730 C   0  0  0  0  0  0  0  0  0  0  0  0
  -27.7560  -15.8039   24.7535 C   0  0  0  0  0  0  0  0  0  0  0  0
  -30.8086  -16.8973   21.8958 C   0  0  0  0  0  0  0  0  0  0  0  0
  -26.7723  -13.6133   25.6990 C   0  0  0  0  0  0  0  0  0  1  0  0
  -31.7755   -6.6301   23.6460 C   0  0  1  0  0  0  0  0  0  0  0  0
  -31.4394   -6.4540   19.8743 C   0  0  2  0  0  0  0  0  0  0  0  0
  -33.1027   -6.2225   24.3457 C   0  0  0  0  0  0  0  0  0  0  0  0
  -27.4054  -14.9827   26.0303 C   0  0  0  0  0  0  0  0  0  0  0  0
  -25.8597  -11.5458   20.2833 N   0  0  0  0  0  0  0  0  0  0  0  0
  -28.4611  -17.1237   24.9652 N   0  0  0  0  0  0  0  0  0  0  0  0
  -26.2354  -12.8297   20.1552 N   0  0  0  0  0  0  0  0  0  0  0  0
  -30.0089  -18.6216   25.0888 N   0  3  0  0  0  0  0  0  0  0  0  0
  -29.6301   -6.9791   24.8291 N   0  0  0  0  0  0  0  0  0  0  0  0
  -29.9711  -13.6122   20.3581 N   0  0  0  0  0  0  0  0  0  0  0  0
  -25.4679  -15.0565   20.4064 N   0  0  0  0  0  0  0  0  0  0  0  0
  -21.8870  -12.5787   21.6040 N   0  0  0  0  0  0  0  0  0  0  0  0
  -29.1001   -5.4809   27.8029 N   0  0  0  0  0  0  0  0  0  0  0  0
  -31.6855   -6.2186   22.2492 N   0  0  0  0  0  0  0  0  0  0  0  0
  -30.1437  -15.6754   21.5013 N   0  0  0  0  0  0  0  0  0  0  0  0
  -30.5006   -7.1786   18.9717 N   0  3  0  0  0  0  0  0  0  0  0  0
  -22.6606  -14.7192   21.3242 O   0  0  0  0  0  0  0  0  0  0  0  0
  -29.2112   -7.7914   27.5354 O   0  0  0  0  0  0  0  0  0  0  0  0
  -30.4406   -4.8306   24.4247 O   0  0  0  0  0  0  0  0  0  0  0  0
  -31.3787   -8.3451   21.3768 O   0  0  0  0  0  0  0  0  0  0  0  0
  -31.8769  -14.9243   20.2017 O   0  0  0  0  0  0  0  0  0  0  0  0
  -21.6180   -7.0152   21.7083 O   0  0  0  0  0  0  0  0  0  0  0  0
  -27.6511  -12.8213   24.9010 O   0  0  0  0  0  0  0  0  0  1  0  0
  -18.6361   -6.8510   26.3436 F   0  0  0  0  0  0  0  0  0  0  0  0
  -22.0735   -5.0705   23.6196 F   0  0  0  0  0  0  0  0  0  0  0  0
  1  2  1  0  0  0  0
  1  5  2  0  0  0  0
  2  6  2  0  0  0  0
  3  8  2  0  0  0  0
  3 16  1  0  0  0  0
  4  9  1  0  0  0  0
  4 16  2  0  0  0  0
  5 18  1  0  0  0  0
  6 20  1  0  0  0  0
  7 10  2  0  0  0  0
  7 19  1  0  0  0  0
  8 22  1  0  0  0  0
  9 22  2  0  0  0  0
 10 23  1  0  0  0  0
 11 12  2  0  0  0  0
 11 24  1  0  0  0  0
 12 25  1  0  0  0  0
 13 21  1  0  0  0  0
 13 23  2  0  0  0  0
 14 25  2  0  0  0  0
 14 26  1  0  0  0  0
 15 28  2  0  0  0  0
 15 66  1  0  0  0  0
 16 27  1  0  0  0  0
 17 27  1  0  0  0  0
 17 29  2  0  0  0  0
 17 31  1  0  0  0  0
 18 20  2  0  0  0  0
 18 36  1  0  0  0  0
 19 21  2  0  0  0  0
 19 37  1  0  0  0  0
 20 45  1  0  0  0  0
 21 38  1  0  0  0  0
 22 82  1  0  0  0  0
 23 83  1  0  0  0  0
 24 26  2  0  0  0  0
 24 82  1  0  0  0  0
 25 84  1  0  0  0  0
 26 85  1  0  0  0  0
 27 65  2  0  0  0  0
 28 48  1  0  0  0  0
 28 68  1  0  0  0  0
 29 67  1  0  0  0  0
 29 71  1  0  0  0  0
 30 56  1  0  0  0  0
 30 66  1  0  0  0  0
 30 68  2  0  0  0  0
 31 72  1  0  0  0  0
 31 77  2  0  0  0  0
 32 46  1  0  0  0  0
 32 73  1  0  0  0  0
 32 78  2  0  0  0  0
 33 61  1  0  0  0  0
 33 69  1  0  0  0  0
 33 79  2  0  0  0  0
 34 62  1  0  0  0  0
 34 74  1  0  0  0  0
 34 80  2  0  0  0  0
 35 70  1  0  0  0  0
 35 75  1  0  0  0  0
 35 81  2  0  0  0  0
 36 39  1  0  0  0  0
 37 46  1  0  0  0  0
 38 69  1  0  0  0  0
 39 41  1  0  0  0  0
 40 42  1  0  0  0  0
 40 43  1  0  0  0  0
 41 45  1  0  0  0  0
 42 47  1  0  0  0  0
 43 70  1  0  0  0  0
 44 47  1  0  0  0  0
 44 70  1  0  0  0  0
 45 73  1  0  0  0  0
 46 69  1  0  0  0  0
 47 67  1  0  0  0  0
 49 62  1  0  0  0  0
 50 63  1  0  0  0  0
 51 63  1  0  0  0  0
 52 63  1  0  0  0  0
 53 64  1  0  0  0  0
 54 64  1  0  0  0  0
 55 76  1  0  0  0  0
 56 57  1  0  0  0  0
 57 59  1  0  0  0  0
 58 64  1  0  0  0  0
 58 66  1  0  0  0  0
 59 75  1  0  0  0  0
 60 64  1  0  0  0  0
 60 83  1  0  0  0  0
 61 63  1  0  0  0  0
 61 74  1  0  0  0  0
 62 76  1  0  0  0  0
 65 67  1  0  0  0  0
M  CHG  2  68   1  76   1
M  ISO  4  35 100  60 101  75 100  83 101
M  END
> <Batch ID>
0078

> <Smiles>
CNC(C)C(=O)NC(C(=O)N1Cc2cc([101O:1][101CH2:1]C(C)(C)Cn3cc(C)nc3CCC[100NH:0][100C:0](=O)N3CCCC(n4nc(-c5ccc(Oc6ccc(F)cc6F)cc5)c(C(N)=O)c4N)C3)ccc2CC1C(=O)NC1CCCc2ccccc21)C(C)(C)C

> <Shape>
0.162

> <Color>
0.187

> <Negative vol penalty>
0.000

$$$$

  -OEChem-04052318393D

 85 93  0     1  0  0  0  0  0999 V2000
  -24.4449  -29.9587   23.3703 C   0  0  0  0  0  0  0  0  0  0  0  0
  -24.7133  -28.6330   23.6916 C   0  0  0  0  0  0  0  0  0  0  0  0
  -20.5944  -22.8735   24.0141 C   0  0  0  0  0  0  0  0  0  0  0  0
  -22.0174  -22.2931   22.1499 C   0  0  0  0  0  0  0  0  0  0  0  0
  -24.6503  -30.4118   22.0688 C   0  0  0  0  0  0  0  0  0  0  0  0
  -25.1986  -27.7629   22.7147 C   0  0  0  0  0  0  0  0  0  0  0  0
  -26.3674  -21.7878   22.9591 C   0  0  0  0  0  0  0  0  0  0  0  0
  -26.2356  -11.6716   20.3946 C   0  0  0  0  0  0  0  0  0  0  0  0
  -20.8175  -24.2273   23.7629 C   0  0  0  0  0  0  0  0  0  0  0  0
  -22.2404  -23.6469   21.8986 C   0  0  0  0  0  0  0  0  0  0  0  0
  -25.6920  -20.5957   22.7014 C   0  0  0  0  0  0  0  0  0  0  0  0
  -19.7036  -26.5761   21.6007 C   0  0  0  0  0  0  0  0  0  0  0  0
  -18.6008  -27.4299   21.6229 C   0  0  0  0  0  0  0  0  0  0  0  0
  -26.5849  -12.9577   19.9981 C   0  0  0  0  0  0  0  0  0  0  0  0
  -26.6832  -20.5163   20.5035 C   0  0  0  0  0  0  0  0  0  0  0  0
  -19.6181  -28.6974   23.4105 C   0  0  0  0  0  0  0  0  0  0  0  0
  -21.1944  -21.9064   23.2076 C   0  0  0  0  0  0  0  0  0  0  0  0
  -19.9403  -19.7017   22.9357 C   0  0  0  0  0  0  0  0  0  0  0  0
  -25.1265  -29.5430   21.0731 C   0  0  0  0  0  0  0  0  0  0  0  0
  -27.1987  -22.3598   21.9853 C   0  0  0  0  0  0  0  0  0  0  0  0
  -25.4352  -28.2072   21.4012 C   0  0  0  0  0  0  0  0  0  0  0  0
  -27.3701  -21.7144   20.7523 C   0  0  0  0  0  0  0  0  0  0  0  0
  -25.0089  -11.4490   21.0103 C   0  0  0  0  0  0  0  0  0  0  0  0
  -21.6405  -24.6140   22.7051 C   0  0  0  0  0  0  0  0  0  0  0  0
  -25.8475  -19.9613   21.4724 C   0  0  0  0  0  0  0  0  0  0  0  0
  -20.7637  -26.7829   22.4834 C   0  0  0  0  0  0  0  0  0  0  0  0
  -18.5581  -28.4905   22.5278 C   0  0  0  0  0  0  0  0  0  0  0  0
  -20.7210  -27.8436   23.3883 C   0  0  0  0  0  0  0  0  0  0  0  0
  -20.9648  -20.5078   23.4670 C   0  0  0  0  0  0  0  0  0  0  0  0
  -25.6795  -13.9787   20.2380 C   0  0  0  0  0  0  0  0  0  0  0  0
  -24.1742  -12.5376   21.2051 C   0  0  0  0  0  0  0  0  0  0  0  0
  -20.1579  -18.4624   23.4865 C   0  0  0  0  0  0  0  0  0  0  0  0
  -18.8862  -20.0426   22.0255 C   0  0  0  0  0  0  0  0  0  0  0  0
  -27.2097  -25.0995   20.3736 C   0  0  0  0  0  0  0  0  0  0  0  0
  -30.0657  -24.0031   19.2949 C   0  0  0  0  0  0  0  0  0  0  0  0
  -32.0999  -21.3320   18.6833 C   0  0  0  0  0  0  0  0  0  0  0  0
  -23.6022  -14.3173   24.9354 C   0  0  0  0  0  0  0  0  0  0  0  0
  -25.3382  -30.0882   19.6827 C   0  0  0  0  0  0  0  0  0  0  0  0
  -27.9413  -23.6322   22.2887 C   0  0  0  0  0  0  0  0  0  0  0  0
  -28.2669  -22.2766   19.6808 C   0  0  0  0  0  0  0  0  0  0  0  0
  -25.4284  -28.9950   18.6229 C   0  0  0  0  0  0  0  0  0  0  0  0
  -23.2408  -17.0177   27.2275 C   0  0  0  0  0  0  0  0  0  0  0  0
  -26.4144  -27.9236   19.0638 C   0  0  0  0  0  0  0  0  0  0  0  0
  -22.5379  -18.1015   26.4081 C   0  0  0  0  0  0  0  0  0  0  0  0
  -24.2356  -16.2264   26.3813 C   0  0  0  0  0  0  0  0  0  0  0  0
  -22.9723  -16.7316   24.3264 C   0  0  0  0  0  0  0  0  0  0  0  0
  -25.9346  -27.2350   20.3478 C   0  0  1  0  0  0  0  0  0  0  0  0
  -28.3596  -24.3935   21.0346 C   0  0  1  0  0  0  0  0  0  0  0  0
  -21.9185  -17.5196   25.1231 C   0  0  2  0  0  0  0  0  0  0  0  0
  -24.1825   -9.2014   20.2673 C   0  0  0  0  0  0  0  0  0  0  0  0
  -34.3603  -20.7471   17.7636 C   0  0  0  0  0  0  0  0  0  0  0  0
  -21.6683  -11.8606   24.0470 C   0  0  0  0  0  0  0  0  0  0  0  0
  -29.0262  -24.4515   16.4615 C   0  0  0  0  0  0  0  0  0  0  0  0
  -30.8861  -22.9998   15.6241 C   0  0  0  0  0  0  0  0  0  0  0  0
  -31.4075  -25.1270   16.8181 C   0  0  0  0  0  0  0  0  0  0  0  0
  -32.9691  -20.1519   21.2545 C   0  0  0  0  0  0  0  0  0  0  0  0
  -24.6298  -10.0736   21.4385 C   0  0  0  0  0  0  0  0  0  0  0  0
  -26.0247  -15.3856   19.8195 C   0  0  0  0  0  0  0  0  0  0  0  0
  -22.8431  -12.3576   21.8584 C   0  0  0  0  0  0  0  0  0  0  0  0
  -25.3931  -16.4635   20.7031 C   0  0  0  0  0  0  0  0  0  0  0  0
  -25.8161  -17.8783   20.3251 C   0  0  0  0  0  0  0  0  0  1  0  0
  -30.5145  -23.1574   18.1277 C   0  0  1  0  0  0  0  0  0  0  0  0
  -33.5604  -21.0818   19.0130 C   0  0  2  0  0  0  0  0  0  0  0  0
  -22.8843  -12.5098   23.3937 C   0  0  1  0  0  0  0  0  0  0  0  0
  -30.4401  -23.9241   16.7771 C   0  0  0  0  0  0  0  0  0  0  0  0
  -21.7731  -19.8371   24.2921 N   0  0  0  0  0  0  0  0  0  0  0  0
  -24.4788  -13.8012   20.8334 N   0  0  0  0  0  0  0  0  0  0  0  0
  -21.2565  -18.5965   24.2835 N   0  0  0  0  0  0  0  0  0  0  0  0
  -28.9665  -23.5260   20.0229 N   0  0  0  0  0  0  0  0  0  0  0  0
  -23.5848  -15.7006   25.1789 N   0  0  0  0  0  0  0  0  0  0  0  0
  -19.5146  -17.2821   23.3622 N   0  0  0  0  0  0  0  0  0  0  0  0
  -18.8086  -21.3611   21.5567 N   0  0  0  0  0  0  0  0  0  0  0  0
  -26.9884  -26.3789   20.8464 N   0  0  0  0  0  0  0  0  0  0  0  0
  -31.8474  -22.6699   18.4655 N   0  0  0  0  0  0  0  0  0  0  0  0
  -22.9569  -13.9022   23.7770 N   0  0  0  0  0  0  0  0  0  0  0  0
  -33.6883  -19.9472   19.9708 N   0  3  0  0  0  0  0  0  0  0  0  0
  -18.0285  -19.2068   21.6523 O   0  0  0  0  0  0  0  0  0  0  0  0
  -26.5715  -24.5265   19.4983 O   0  0  0  0  0  0  0  0  0  0  0  0
  -30.6727  -25.0448   19.5557 O   0  0  0  0  0  0  0  0  0  0  0  0
  -31.2671  -20.4302   18.6214 O   0  0  0  0  0  0  0  0  0  0  0  0
  -24.1476  -13.5113   25.6970 O   0  0  0  0  0  0  0  0  0  0  0  0
  -21.8582  -25.9349   22.4595 O   0  0  0  0  0  0  0  0  0  0  0  0
  -25.1889  -18.7980   21.2180 O   0  0  0  0  0  0  0  0  0  1  0  0
  -17.4997  -29.3112   22.5480 F   0  0  0  0  0  0  0  0  0  0  0  0
  -21.7369  -28.0480   24.2379 F   0  0  0  0  0  0  0  0  0  0  0  0
  1  2  1  0  0  0  0
  1  5  2  0  0  0  0
  2  6  2  0  0  0  0
  3  9  2  0  0  0  0
  3 17  1  0  0  0  0
  4 10  1  0  0  0  0
  4 17  2  0  0  0  0
  5 19  1  0  0  0  0
  6 21  1  0  0  0  0
  7 11  2  0  0  0  0
  7 20  1  0  0  0  0
  8 14  2  0  0  0  0
  8 23  1  0  0  0  0
  9 24  1  0  0  0  0
 10 24  2  0  0  0  0
 11 25  1  0  0  0  0
 12 13  2  0  0  0  0
 12 26  1  0  0  0  0
 13 27  1  0  0  0  0
 14 30  1  0  0  0  0
 15 22  1  0  0  0  0
 15 25  2  0  0  0  0
 16 27  2  0  0  0  0
 16 28  1  0  0  0  0
 17 29  1  0  0  0  0
 18 29  1  0  0  0  0
 18 32  2  0  0  0  0
 18 33  1  0  0  0  0
 19 21  2  0  0  0  0
 19 38  1  0  0  0  0
 20 22  2  0  0  0  0
 20 39  1  0  0  0  0
 21 47  1  0  0  0  0
 22 40  1  0  0  0  0
 23 31  2  0  0  0  0
 23 57  1  0  0  0  0
 24 82  1  0  0  0  0
 25 83  1  0  0  0  0
 26 28  2  0  0  0  0
 26 82  1  0  0  0  0
 27 84  1  0  0  0  0
 28 85  1  0  0  0  0
 29 66  2  0  0  0  0
 30 58  1  0  0  0  0
 30 67  2  0  0  0  0
 31 59  1  0  0  0  0
 31 67  1  0  0  0  0
 32 68  1  0  0  0  0
 32 71  1  0  0  0  0
 33 72  1  0  0  0  0
 33 77  2  0  0  0  0
 34 48  1  0  0  0  0
 34 73  1  0  0  0  0
 34 78  2  0  0  0  0
 35 62  1  0  0  0  0
 35 69  1  0  0  0  0
 35 79  2  0  0  0  0
 36 63  1  0  0  0  0
 36 74  1  0  0  0  0
 36 80  2  0  0  0  0
 37 70  1  0  0  0  0
 37 75  1  0  0  0  0
 37 81  2  0  0  0  0
 38 41  1  0  0  0  0
 39 48  1  0  0  0  0
 40 69  1  0  0  0  0
 41 43  1  0  0  0  0
 42 44  1  0  0  0  0
 42 45  1  0  0  0  0
 43 47  1  0  0  0  0
 44 49  1  0  0  0  0
 45 70  1  0  0  0  0
 46 49  1  0  0  0  0
 46 70  1  0  0  0  0
 47 73  1  0  0  0  0
 48 69  1  0  0  0  0
 49 68  1  0  0  0  0
 50 57  1  0  0  0  0
 51 63  1  0  0  0  0
 52 64  1  0  0  0  0
 53 65  1  0  0  0  0
 54 65  1  0  0  0  0
 55 65  1  0  0  0  0
 56 76  1  0  0  0  0
 58 60  1  0  0  0  0
 59 64  1  0  0  0  0
 60 61  1  0  0  0  0
 61 83  1  0  0  0  0
 62 65  1  0  0  0  0
 62 74  1  0  0  0  0
 63 76  1  0  0  0  0
 64 75  1  0  0  0  0
 66 68  1  0  0  0  0
M  CHG  1  76   1
M  ISO  4  37 100  61 101  75 100  83 101
M  END
> <Batch ID>
0078

> <Smiles>
CCc1ccc(CC[101CH2:1][101O:1]c2ccc3c(c2)CN(C(=O)C(NC(=O)C(C)NC)C(C)(C)C)C(C(=O)NC2CCCc4ccccc42)C3)nc1CC(C)[100NH:0][100C:0](=O)N1CCCC(n2nc(-c3ccc(Oc4ccc(F)cc4F)cc3)c(C(N)=O)c2N)C1

> <Shape>
0.199

> <Color>
0.069

> <Negative vol penalty>
0.000

$$$$

  -OEChem-04052318393D

 87 95  0     1  0  0  0  0  0999 V2000
  -14.8057  -20.8165   26.1029 C   0  0  0  0  0  0  0  0  0  0  0  0
  -16.1533  -20.4851   26.2010 C   0  0  0  0  0  0  0  0  0  0  0  0
  -23.2863   -9.8004   19.9137 C   0  0  0  0  0  0  0  0  0  0  0  0
  -23.7351   -9.9423   22.2834 C   0  0  0  0  0  0  0  0  0  0  0  0
  -13.8556  -20.0852   26.8145 C   0  0  0  0  0  0  0  0  0  0  0  0
  -16.5517  -19.4229   27.0118 C   0  0  0  0  0  0  0  0  0  0  0  0
  -19.9533  -16.4260   24.7552 C   0  0  0  0  0  0  0  0  0  0  0  0
  -22.5589   -8.6285   20.1216 C   0  0  0  0  0  0  0  0  0  0  0  0
  -23.0076   -8.7704   22.4913 C   0  0  0  0  0  0  0  0  0  0  0  0
  -21.2714  -16.8783   24.7125 C   0  0  0  0  0  0  0  0  0  0  0  0
  -23.2097   -5.3541   20.6496 C   0  0  0  0  0  0  0  0  0  0  0  0
  -23.4382   -4.2876   19.7802 C   0  0  0  0  0  0  0  0  0  0  0  0
  -28.4573  -16.4689   23.8722 C   0  0  0  0  0  0  0  0  0  0  0  0
  -29.7981  -16.2818   23.4548 C   0  0  0  0  0  0  0  0  0  0  0  0
  -21.8127  -15.4590   26.5865 C   0  0  0  0  0  0  0  0  0  0  0  0
  -21.1167   -4.3345   19.1125 C   0  0  0  0  0  0  0  0  0  0  0  0
  -23.8744  -10.4573   20.9946 C   0  0  0  0  0  0  0  0  0  0  0  0
  -24.1357  -12.9870   20.7946 C   0  0  0  0  0  0  0  0  0  0  0  0
  -14.2416  -19.0074   27.6268 C   0  0  0  0  0  0  0  0  0  0  0  0
  -19.5518  -15.4934   25.7224 C   0  0  0  0  0  0  0  0  0  0  0  0
  -15.6060  -18.6773   27.7360 C   0  0  0  0  0  0  0  0  0  0  0  0
  -20.4896  -14.9946   26.6377 C   0  0  0  0  0  0  0  0  0  0  0  0
  -22.4196   -8.1135   21.4104 C   0  0  0  0  0  0  0  0  0  0  0  0
  -22.2007  -16.3970   25.6301 C   0  0  0  0  0  0  0  0  0  0  0  0
  -21.9347   -5.9108   20.7506 C   0  0  0  0  0  0  0  0  0  0  0  0
  -22.3917   -3.7778   19.0117 C   0  0  0  0  0  0  0  0  0  0  0  0
  -20.8882   -5.4011   19.9820 C   0  0  0  0  0  0  0  0  0  0  0  0
  -24.6264  -11.6675   20.7805 C   0  0  0  0  0  0  0  0  0  0  0  0
  -28.2045  -15.5510   24.8676 C   0  0  0  0  0  0  0  0  0  0  0  0
  -30.3238  -15.2551   24.2077 C   0  0  0  0  0  0  0  0  0  0  0  0
  -25.2380  -13.7659   20.5401 C   0  0  0  0  0  0  0  0  0  0  0  0
  -22.8028  -13.4656   21.0179 C   0  0  0  0  0  0  0  0  0  0  0  0
  -17.4578  -15.5023   28.1138 C   0  0  0  0  0  0  0  0  0  0  0  0
  -18.2781  -12.3712   28.3276 C   0  0  0  0  0  0  0  0  0  0  0  0
  -20.5880   -9.9334   27.7206 C   0  0  0  0  0  0  0  0  0  0  0  0
  -31.1076  -12.9194   21.3654 C   0  0  0  0  0  0  0  0  0  0  0  0
  -13.1831  -18.2762   28.4140 C   0  0  0  0  0  0  0  0  0  0  0  0
  -18.1326  -14.9954   25.7381 C   0  0  0  0  0  0  0  0  0  0  0  0
  -20.1140  -13.9773   27.6829 C   0  0  0  0  0  0  0  0  0  0  0  0
  -13.6505  -16.9285   28.9577 C   0  0  0  0  0  0  0  0  0  0  0  0
  -29.4620  -13.6579   18.2958 C   0  0  0  0  0  0  0  0  0  0  0  0
  -15.0246  -17.0622   29.6065 C   0  0  0  0  0  0  0  0  0  0  0  0
  -27.9918  -13.3506   18.5858 C   0  0  0  0  0  0  0  0  0  0  0  0
  -30.3939  -12.6783   19.0056 C   0  0  0  0  0  0  0  0  0  0  0  0
  -28.7055  -12.2513   20.7493 C   0  0  0  0  0  0  0  0  0  0  0  0
  -16.0749  -17.5162   28.5857 C   0  0  1  0  0  0  0  0  0  0  0  0
  -17.7125  -14.4308   27.0917 C   0  0  1  0  0  0  0  0  0  0  0  0
  -27.7288  -13.2467   20.1001 C   0  0  2  0  0  0  0  0  0  0  0  0
  -21.5557   -7.6213   27.5975 C   0  0  0  0  0  0  0  0  0  0  0  0
  -32.4909  -14.7398   25.5248 C   0  0  0  0  0  0  0  0  0  0  0  0
  -32.5868  -15.3827   23.1304 C   0  0  0  0  0  0  0  0  0  0  0  0
  -18.8866  -12.8612   31.2772 C   0  0  0  0  0  0  0  0  0  0  0  0
  -20.1522  -10.7012   31.3031 C   0  0  0  0  0  0  0  0  0  0  0  0
  -17.7092  -10.7073   30.7987 C   0  0  0  0  0  0  0  0  0  0  0  0
  -28.1361  -13.0485   26.2441 C   0  0  0  0  0  0  0  0  0  0  0  0
  -30.0088  -14.3186   27.3663 C   0  0  0  0  0  0  0  0  0  0  0  0
  -30.5005  -12.6501   25.5933 C   0  0  0  0  0  0  0  0  0  0  0  0
  -19.4978   -9.4962   25.0041 C   0  0  0  0  0  0  0  0  0  0  0  0
  -26.9458  -15.3091   25.6618 C   0  0  0  0  0  0  0  0  0  0  0  0
  -25.7906  -16.2385   25.2833 C   0  0  0  0  0  0  0  0  0  0  0  0
  -31.6675  -13.1343   23.7737 C   0  0  0  0  0  0  0  0  0  0  0  0
  -24.4981  -15.9303   26.0302 C   0  0  0  0  0  0  0  0  0  1  0  0
  -19.3331  -11.5910   29.0742 C   0  0  1  0  0  0  0  0  0  0  0  0
  -20.4560   -8.5507   27.1081 C   0  0  2  0  0  0  0  0  0  0  0  0
  -31.6747  -14.6573   24.1807 C   0  0  0  0  0  0  0  0  0  0  0  0
  -19.0272  -11.4858   30.5949 C   0  0  0  0  0  0  0  0  0  0  0  0
  -29.4964  -13.7473   26.0254 C   0  0  0  0  0  0  0  0  0  0  0  0
  -25.9381  -11.6078   20.5361 N   0  0  0  0  0  0  0  0  0  0  0  0
  -29.3461  -14.8184   25.0629 N   0  0  0  0  0  0  0  0  0  0  0  0
  -26.2811  -12.8995   20.3943 N   0  0  0  0  0  0  0  0  0  0  0  0
  -18.7127  -13.5260   27.6617 N   0  0  0  0  0  0  0  0  0  0  0  0
  -30.0933  -12.6281   20.4384 N   0  0  0  0  0  0  0  0  0  0  0  0
  -25.4069  -15.1006   20.4289 N   0  0  0  0  0  0  0  0  0  0  0  0
  -21.7894  -12.5296   21.2651 N   0  0  0  0  0  0  0  0  0  0  0  0
  -16.4789  -16.4068   27.7488 N   0  0  0  0  0  0  0  0  0  0  0  0
  -19.4447  -10.3038   28.3966 N   0  0  0  0  0  0  0  0  0  0  0  0
  -30.7367  -12.8549   22.7030 N   0  0  0  0  0  0  0  0  0  0  0  0
  -20.5365   -8.6326   25.6222 N   0  3  0  0  0  0  0  0  0  0  0  0
  -22.5158  -14.6863   20.9826 O   0  0  0  0  0  0  0  0  0  0  0  0
  -18.1007  -15.5072   29.1570 O   0  0  0  0  0  0  0  0  0  0  0  0
  -17.1127  -11.9669   28.3292 O   0  0  0  0  0  0  0  0  0  0  0  0
  -21.6050  -10.6151   27.6135 O   0  0  0  0  0  0  0  0  0  0  0  0
  -32.2571  -13.2201   21.0261 O   0  0  0  0  0  0  0  0  0  0  0  0
  -21.7097   -6.9702   21.6136 O   0  0  0  0  0  0  0  0  0  0  0  0
  -23.4877  -16.8373   25.5911 O   0  0  0  0  0  0  0  0  0  1  0  0
  -22.6116   -2.7546   18.1757 F   0  0  0  0  0  0  0  0  0  0  0  0
  -19.6615   -5.9326   20.0738 F   0  0  0  0  0  0  0  0  0  0  0  0
  1  2  1  0  0  0  0
  1  5  2  0  0  0  0
  2  6  2  0  0  0  0
  3  8  2  0  0  0  0
  3 17  1  0  0  0  0
  4  9  1  0  0  0  0
  4 17  2  0  0  0  0
  5 19  1  0  0  0  0
  6 21  1  0  0  0  0
  7 10  2  0  0  0  0
  7 20  1  0  0  0  0
  8 23  1  0  0  0  0
  9 23  2  0  0  0  0
 10 24  1  0  0  0  0
 11 12  2  0  0  0  0
 11 25  1  0  0  0  0
 12 26  1  0  0  0  0
 13 14  1  0  0  0  0
 13 29  2  0  0  0  0
 14 30  2  0  0  0  0
 15 22  1  0  0  0  0
 15 24  2  0  0  0  0
 16 26  2  0  0  0  0
 16 27  1  0  0  0  0
 17 28  1  0  0  0  0
 18 28  1  0  0  0  0
 18 31  2  0  0  0  0
 18 32  1  0  0  0  0
 19 21  2  0  0  0  0
 19 37  1  0  0  0  0
 20 22  2  0  0  0  0
 20 38  1  0  0  0  0
 21 46  1  0  0  0  0
 22 39  1  0  0  0  0
 23 84  1  0  0  0  0
 24 85  1  0  0  0  0
 25 27  2  0  0  0  0
 25 84  1  0  0  0  0
 26 86  1  0  0  0  0
 27 87  1  0  0  0  0
 28 68  2  0  0  0  0
 29 59  1  0  0  0  0
 29 69  1  0  0  0  0
 30 65  1  0  0  0  0
 30 69  1  0  0  0  0
 31 70  1  0  0  0  0
 31 73  1  0  0  0  0
 32 74  1  0  0  0  0
 32 79  2  0  0  0  0
 33 47  1  0  0  0  0
 33 75  1  0  0  0  0
 33 80  2  0  0  0  0
 34 63  1  0  0  0  0
 34 71  1  0  0  0  0
 34 81  2  0  0  0  0
 35 64  1  0  0  0  0
 35 76  1  0  0  0  0
 35 82  2  0  0  0  0
 36 72  1  0  0  0  0
 36 77  1  0  0  0  0
 36 83  2  0  0  0  0
 37 40  1  0  0  0  0
 38 47  1  0  0  0  0
 39 71  1  0  0  0  0
 40 42  1  0  0  0  0
 41 43  1  0  0  0  0
 41 44  1  0  0  0  0
 42 46  1  0  0  0  0
 43 48  1  0  0  0  0
 44 72  1  0  0  0  0
 45 48  1  0  0  0  0
 45 72  1  0  0  0  0
 46 75  1  0  0  0  0
 47 71  1  0  0  0  0
 48 70  1  0  0  0  0
 49 64  1  0  0  0  0
 50 65  1  0  0  0  0
 51 65  1  0  0  0  0
 52 66  1  0  0  0  0
 53 66  1  0  0  0  0
 54 66  1  0  0  0  0
 55 67  1  0  0  0  0
 56 67  1  0  0  0  0
 57 67  1  0  0  0  0
 58 78  1  0  0  0  0
 59 60  1  0  0  0  0
 60 62  1  0  0  0  0
 61 65  1  0  0  0  0
 61 77  1  0  0  0  0
 62 85  1  0  0  0  0
 63 66  1  0  0  0  0
 63 76  1  0  0  0  0
 64 78  1  0  0  0  0
 67 69  1  0  0  0  0
 68 70  1  0  0  0  0
M  CHG  1  78   1
M  ISO  4  36 100  62 101  77 100  85 101
M  END
> <Batch ID>
0078

> <Smiles>
CNC(C)C(=O)NC(C(=O)N1Cc2cc([101O:1][101CH2:1]CCc3ccc(C(C)(C)C[100NH:0][100C:0](=O)N4CCCC(n5nc(-c6ccc(Oc7ccc(F)cc7F)cc6)c(C(N)=O)c5N)C4)n3C(C)(C)C)ccc2CC1C(=O)NC1CCCc2ccccc21)C(C)(C)C

> <Shape>
0.125

> <Color>
0.174

> <Negative vol penalty>
0.000

$$$$

  -OEChem-04052318393D

 81 89  0     1  0  0  0  0  0999 V2000
  -27.1459  -20.7967   27.6626 C   0  0  0  0  0  0  0  0  0  0  0  0
  -27.3749  -21.3188   26.3935 C   0  0  0  0  0  0  0  0  0  0  0  0
  -26.1717  -12.9348   21.4645 C   0  0  0  0  0  0  0  0  0  0  0  0
  -25.8931  -13.4741   19.1260 C   0  0  0  0  0  0  0  0  0  0  0  0
  -25.8710  -20.8640   28.2231 C   0  0  0  0  0  0  0  0  0  0  0  0
  -26.3288  -21.9075   25.6839 C   0  0  0  0  0  0  0  0  0  0  0  0
  -27.6765  -26.2750   23.5036 C   0  0  0  0  0  0  0  0  0  0  0  0
  -25.0075  -12.1674   21.4262 C   0  0  0  0  0  0  0  0  0  0  0  0
  -24.7290  -12.7066   19.0877 C   0  0  0  0  0  0  0  0  0  0  0  0
  -28.4208  -26.1964   22.3273 C   0  0  0  0  0  0  0  0  0  0  0  0
  -24.0846   -9.0927   20.3643 C   0  0  0  0  0  0  0  0  0  0  0  0
  -24.1154   -7.8376   20.9718 C   0  0  0  0  0  0  0  0  0  0  0  0
  -26.4198  -26.5992   21.0415 C   0  0  0  0  0  0  0  0  0  0  0  0
  -22.3369   -8.5146   22.4604 C   0  0  0  0  0  0  0  0  0  0  0  0
  -25.9221  -21.8106   17.3410 C   0  0  0  0  0  0  0  0  0  0  0  0
  -25.7750  -23.8506   16.7519 C   0  0  0  0  0  0  0  0  0  0  0  0
  -26.6145  -13.5882   20.3144 C   0  0  0  0  0  0  0  0  0  0  0  0
  -29.1307  -13.9468   20.0965 C   0  0  0  0  0  0  0  0  0  0  0  0
  -24.8111  -21.4626   27.5239 C   0  0  0  0  0  0  0  0  0  0  0  0
  -26.2941  -26.5059   23.4571 C   0  0  0  0  0  0  0  0  0  0  0  0
  -25.0383  -21.9817   26.2351 C   0  0  0  0  0  0  0  0  0  0  0  0
  -25.6607  -26.6828   22.2188 C   0  0  0  0  0  0  0  0  0  0  0  0
  -24.2862  -12.0533   20.2378 C   0  0  0  0  0  0  0  0  0  0  0  0
  -27.7919  -26.3556   21.0959 C   0  0  0  0  0  0  0  0  0  0  0  0
  -23.1801  -10.0589   20.8048 C   0  0  0  0  0  0  0  0  0  0  0  0
  -23.2415   -7.5485   22.0199 C   0  0  0  0  0  0  0  0  0  0  0  0
  -22.3063   -9.7699   21.8529 C   0  0  0  0  0  0  0  0  0  0  0  0
  -27.8166  -14.3815   20.3535 C   0  0  0  0  0  0  0  0  0  0  0  0
  -27.2183  -22.2577   17.2379 C   0  0  0  0  0  0  0  0  0  0  0  0
  -29.9028  -15.0705   20.2628 C   0  0  0  0  0  0  0  0  0  0  0  0
  -29.6106  -12.6438   19.7394 C   0  0  0  0  0  0  0  0  0  0  0  0
  -23.7170  -24.8816   24.3648 C   0  0  0  0  0  0  0  0  0  0  0  0
  -22.1767  -27.6026   23.5010 C   0  0  0  0  0  0  0  0  0  0  0  0
  -22.1673  -30.4576   21.6314 C   0  0  0  0  0  0  0  0  0  0  0  0
  -28.7247  -20.9260   19.8420 C   0  0  0  0  0  0  0  0  0  0  0  0
  -23.4397  -21.4696   28.1516 C   0  0  0  0  0  0  0  0  0  0  0  0
  -25.5101  -26.6145   24.7362 C   0  0  0  0  0  0  0  0  0  0  0  0
  -24.1826  -26.9528   22.1155 C   0  0  0  0  0  0  0  0  0  0  0  0
  -22.4710  -22.4450   27.4877 C   0  0  0  0  0  0  0  0  0  0  0  0
  -30.0308  -19.2029   22.6707 C   0  0  0  0  0  0  0  0  0  0  0  0
  -22.5349  -22.3107   25.9696 C   0  0  0  0  0  0  0  0  0  0  0  0
  -29.7300  -17.7326   22.3744 C   0  0  0  0  0  0  0  0  0  0  0  0
  -28.9130  -20.1184   22.1763 C   0  0  0  0  0  0  0  0  0  0  0  0
  -28.2549  -18.4775   20.4592 C   0  0  0  0  0  0  0  0  0  0  0  0
  -23.9349  -22.6503   25.4441 C   0  0  1  0  0  0  0  0  0  0  0  0
  -24.0208  -26.3415   24.5491 C   0  0  1  0  0  0  0  0  0  0  0  0
  -29.3796  -17.5202   20.8894 C   0  0  2  0  0  0  0  0  0  0  0  0
  -29.0783  -20.9165   16.1876 C   0  0  0  0  0  0  0  0  0  0  0  0
  -20.7548  -32.4645   21.1074 C   0  0  0  0  0  0  0  0  0  0  0  0
  -20.3924  -25.8797   21.7240 C   0  0  0  0  0  0  0  0  0  0  0  0
  -19.6728  -27.9665   20.5426 C   0  0  0  0  0  0  0  0  0  0  0  0
  -19.1911  -27.6824   22.9736 C   0  0  0  0  0  0  0  0  0  0  0  0
  -24.2198  -32.3185   22.6722 C   0  0  0  0  0  0  0  0  0  0  0  0
  -28.8552  -25.1087   17.8792 C   0  0  0  0  0  0  0  0  0  0  0  0
  -28.2366  -24.5327   16.6035 C   0  0  0  0  0  0  0  0  0  0  0  0
  -27.8409  -25.7978   18.7845 C   0  0  0  0  0  0  0  0  0  1  0  0
  -28.5077  -21.5806   17.4580 C   0  0  2  0  0  0  0  0  0  0  0  0
  -21.5647  -28.1251   22.2238 C   0  0  1  0  0  0  0  0  0  0  0  0
  -21.8530  -31.8979   21.9937 C   0  0  2  0  0  0  0  0  0  0  0  0
  -20.2328  -27.4064   21.8675 C   0  0  0  0  0  0  0  0  0  0  0  0
  -25.0285  -22.8069   17.0369 N   0  0  0  0  0  0  0  0  0  0  0  0
  -27.7537  -15.6800   20.6599 N   0  0  0  0  0  0  0  0  0  0  0  0
  -27.1080  -23.5660   16.8593 N   0  0  0  0  0  0  0  0  0  0  0  0
  -29.0379  -16.0709   20.5966 N   0  0  0  0  0  0  0  0  0  0  0  0
  -23.4582  -27.0439   23.3940 N   0  0  0  0  0  0  0  0  0  0  0  0
  -28.6306  -19.8677   20.7609 N   0  0  0  0  0  0  0  0  0  0  0  0
  -31.2303  -15.2906   20.1547 N   0  0  0  0  0  0  0  0  0  0  0  0
  -28.6820  -11.6020   19.6105 N   0  0  0  0  0  0  0  0  0  0  0  0
  -24.1298  -24.0841   25.4151 N   0  0  0  0  0  0  0  0  0  0  0  0
  -21.4381  -29.5687   22.3926 N   0  0  0  0  0  0  0  0  0  0  0  0
  -28.4469  -20.6011   18.5199 N   0  0  0  0  0  0  0  0  0  0  0  0
  -23.0674  -32.7478   21.8387 N   0  3  0  0  0  0  0  0  0  0  0  0
  -30.8287  -12.4066   19.5564 O   0  0  0  0  0  0  0  0  0  0  0  0
  -23.1488  -24.5066   23.3459 O   0  0  0  0  0  0  0  0  0  0  0  0
  -21.5441  -27.6934   24.5561 O   0  0  0  0  0  0  0  0  0  0  0  0
  -22.9758  -30.1517   20.7577 O   0  0  0  0  0  0  0  0  0  0  0  0
  -29.0386  -22.0740   20.1744 O   0  0  0  0  0  0  0  0  0  0  0  0
  -23.1503  -11.3043   20.2000 O   0  0  0  0  0  0  0  0  0  0  0  0
  -28.5159  -26.2787   19.9461 O   0  0  0  0  0  0  0  0  0  1  0  0
  -23.2701   -6.3426   22.6022 F   0  0  0  0  0  0  0  0  0  0  0  0
  -21.4343  -10.6936   22.2796 F   0  0  0  0  0  0  0  0  0  0  0  0
  1  2  1  0  0  0  0
  1  5  2  0  0  0  0
  2  6  2  0  0  0  0
  3  8  2  0  0  0  0
  3 17  1  0  0  0  0
  4  9  1  0  0  0  0
  4 17  2  0  0  0  0
  5 19  1  0  0  0  0
  6 21  1  0  0  0  0
  7 10  2  0  0  0  0
  7 20  1  0  0  0  0
  8 23  1  0  0  0  0
  9 23  2  0  0  0  0
 10 24  1  0  0  0  0
 11 12  2  0  0  0  0
 11 25  1  0  0  0  0
 12 26  1  0  0  0  0
 13 22  1  0  0  0  0
 13 24  2  0  0  0  0
 14 26  2  0  0  0  0
 14 27  1  0  0  0  0
 15 29  2  0  0  0  0
 15 61  1  0  0  0  0
 16 61  2  0  0  0  0
 16 63  1  0  0  0  0
 17 28  1  0  0  0  0
 18 28  1  0  0  0  0
 18 30  2  0  0  0  0
 18 31  1  0  0  0  0
 19 21  2  0  0  0  0
 19 36  1  0  0  0  0
 20 22  2  0  0  0  0
 20 37  1  0  0  0  0
 21 45  1  0  0  0  0
 22 38  1  0  0  0  0
 23 78  1  0  0  0  0
 24 79  1  0  0  0  0
 25 27  2  0  0  0  0
 25 78  1  0  0  0  0
 26 80  1  0  0  0  0
 27 81  1  0  0  0  0
 28 62  2  0  0  0  0
 29 57  1  0  0  0  0
 29 63  1  0  0  0  0
 30 64  1  0  0  0  0
 30 67  1  0  0  0  0
 31 68  1  0  0  0  0
 31 73  2  0  0  0  0
 32 46  1  0  0  0  0
 32 69  1  0  0  0  0
 32 74  2  0  0  0  0
 33 58  1  0  0  0  0
 33 65  1  0  0  0  0
 33 75  2  0  0  0  0
 34 59  1  0  0  0  0
 34 70  1  0  0  0  0
 34 76  2  0  0  0  0
 35 66  1  0  0  0  0
 35 71  1  0  0  0  0
 35 77  2  0  0  0  0
 36 39  1  0  0  0  0
 37 46  1  0  0  0  0
 38 65  1  0  0  0  0
 39 41  1  0  0  0  0
 40 42  1  0  0  0  0
 40 43  1  0  0  0  0
 41 45  1  0  0  0  0
 42 47  1  0  0  0  0
 43 66  1  0  0  0  0
 44 47  1  0  0  0  0
 44 66  1  0  0  0  0
 45 69  1  0  0  0  0
 46 65  1  0  0  0  0
 47 64  1  0  0  0  0
 48 57  1  0  0  0  0
 49 59  1  0  0  0  0
 50 60  1  0  0  0  0
 51 60  1  0  0  0  0
 52 60  1  0  0  0  0
 53 72  1  0  0  0  0
 54 55  1  0  0  0  0
 54 56  1  0  0  0  0
 55 63  1  0  0  0  0
 56 79  1  0  0  0  0
 57 71  1  0  0  0  0
 58 60  1  0  0  0  0
 58 70  1  0  0  0  0
 59 72  1  0  0  0  0
 62 64  1  0  0  0  0
M  CHG  1  72   1
M  ISO  4  35 100  56 101  71 100  79 101
M  END
> <Batch ID>
0078

> <Smiles>
CNC(C)C(=O)NC(C(=O)N1Cc2cc([101O:1][101CH2:1]CCn3cncc3C(C)[100NH:0][100C:0](=O)N3CCCC(n4nc(-c5ccc(Oc6ccc(F)cc6F)cc5)c(C(N)=O)c4N)C3)ccc2CC1C(=O)NC1CCCc2ccccc21)C(C)(C)C

> <Shape>
0.235

> <Color>
0.077

> <Negative vol penalty>
0.000

$$$$

  -OEChem-04052318393D

 84 92  0     1  0  0  0  0  0999 V2000
  -16.9487  -30.1606   23.6055 C   0  0  0  0  0  0  0  0  0  0  0  0
  -18.2579  -30.6298   23.5717 C   0  0  0  0  0  0  0  0  0  0  0  0
  -25.5823  -15.1971   22.0827 C   0  0  0  0  0  0  0  0  0  0  0  0
  -27.7840  -14.6546   21.2490 C   0  0  0  0  0  0  0  0  0  0  0  0
  -16.6878  -28.8091   23.3831 C   0  0  0  0  0  0  0  0  0  0  0  0
  -19.3072  -29.7476   23.3166 C   0  0  0  0  0  0  0  0  0  0  0  0
  -25.7484  -29.4879   20.1924 C   0  0  0  0  0  0  0  0  0  0  0  0
  -25.1244  -13.9387   21.6925 C   0  0  0  0  0  0  0  0  0  0  0  0
  -27.3262  -13.3961   20.8588 C   0  0  0  0  0  0  0  0  0  0  0  0
  -27.0624  -29.1089   20.4634 C   0  0  0  0  0  0  0  0  0  0  0  0
  -25.2723  -10.7651   22.8497 C   0  0  0  0  0  0  0  0  0  0  0  0
  -24.4824  -10.0539   23.7530 C   0  0  0  0  0  0  0  0  0  0  0  0
  -26.4852  -26.8099   20.0154 C   0  0  0  0  0  0  0  0  0  0  0  0
  -22.6765  -10.0215   22.1483 C   0  0  0  0  0  0  0  0  0  0  0  0
  -32.0756  -24.1323   20.3284 C   0  0  0  0  0  0  0  0  0  0  0  0
  -26.9121  -15.5551   21.8610 C   0  0  0  0  0  0  0  0  0  0  0  0
  -27.9437  -17.2094   23.5062 C   0  0  0  0  0  0  0  0  0  0  0  0
  -17.7336  -27.9116   23.1156 C   0  0  0  0  0  0  0  0  0  0  0  0
  -24.7887  -28.5277   19.8409 C   0  0  0  0  0  0  0  0  0  0  0  0
  -19.0602  -28.3826   23.0918 C   0  0  0  0  0  0  0  0  0  0  0  0
  -25.1603  -27.1796   19.7380 C   0  0  0  0  0  0  0  0  0  0  0  0
  -31.7847  -25.4650   20.1682 C   0  0  0  0  0  0  0  0  0  0  0  0
  -25.9964  -13.0382   21.0805 C   0  0  0  0  0  0  0  0  0  0  0  0
  -27.4303  -27.7693   20.3777 C   0  0  0  0  0  0  0  0  0  0  0  0
  -24.7643  -11.1046   21.5958 C   0  0  0  0  0  0  0  0  0  0  0  0
  -23.1845   -9.6821   23.4023 C   0  0  0  0  0  0  0  0  0  0  0  0
  -23.4664  -10.7328   21.2450 C   0  0  0  0  0  0  0  0  0  0  0  0
  -27.3855  -16.8551   22.2633 C   0  0  0  0  0  0  0  0  0  0  0  0
  -31.8769  -25.6810   18.7801 C   0  0  0  0  0  0  0  0  0  0  0  0
  -28.2287  -18.5476   23.3857 C   0  0  0  0  0  0  0  0  0  0  0  0
  -28.1831  -16.4011   24.6660 C   0  0  0  0  0  0  0  0  0  0  0  0
  -22.0586  -27.5141   21.1147 C   0  0  0  0  0  0  0  0  0  0  0  0
  -21.8674  -25.7966   18.3696 C   0  0  0  0  0  0  0  0  0  0  0  0
  -23.4895  -24.3478   15.7396 C   0  0  0  0  0  0  0  0  0  0  0  0
  -29.3432  -22.0710   18.6746 C   0  0  0  0  0  0  0  0  0  0  0  0
  -17.4068  -26.4512   22.9283 C   0  0  0  0  0  0  0  0  0  0  0  0
  -23.3818  -28.9563   19.5256 C   0  0  0  0  0  0  0  0  0  0  0  0
  -24.1727  -26.1126   19.3448 C   0  0  0  0  0  0  0  0  0  0  0  0
  -18.5406  -25.6498   22.2939 C   0  0  0  0  0  0  0  0  0  0  0  0
  -26.7763  -22.4948   21.1052 C   0  0  0  0  0  0  0  0  0  0  0  0
  -19.8690  -25.9793   22.9674 C   0  0  0  0  0  0  0  0  0  0  0  0
  -26.6917  -21.1295   21.7898 C   0  0  0  0  0  0  0  0  0  0  0  0
  -27.0688  -22.3605   19.6125 C   0  0  0  0  0  0  0  0  0  0  0  0
  -28.1732  -20.1864   19.9692 C   0  0  0  0  0  0  0  0  0  0  0  0
  -20.2231  -27.4612   22.7937 C   0  0  1  0  0  0  0  0  0  0  0  0
  -22.3654  -27.8288   19.6779 C   0  0  1  0  0  0  0  0  0  0  0  0
  -27.9352  -20.2722   21.4865 C   0  0  2  0  0  0  0  0  0  0  0  0
  -31.6618  -26.9402   18.0458 C   0  0  0  0  0  0  0  0  0  0  0  0
  -32.6264  -26.6506   22.2117 C   0  0  0  0  0  0  0  0  0  0  0  0
  -23.0695  -22.9811   13.6773 C   0  0  0  0  0  0  0  0  0  0  0  0
  -34.0598  -22.2270   18.1035 C   0  0  0  0  0  0  0  0  0  0  0  0
  -21.4777  -23.3126   20.0981 C   0  0  0  0  0  0  0  0  0  0  0  0
  -22.0142  -21.9165   18.0903 C   0  0  0  0  0  0  0  0  0  0  0  0
  -20.0176  -23.4119   18.0701 C   0  0  0  0  0  0  0  0  0  0  0  0
  -24.5816  -26.4596   13.9770 C   0  0  0  0  0  0  0  0  0  0  0  0
  -30.1697  -26.0999   22.0407 C   0  0  0  0  0  0  0  0  0  0  0  0
  -31.6274  -21.6346   17.8078 C   0  0  0  0  0  0  0  0  0  0  0  0
  -28.9107  -26.0892   21.1788 C   0  0  0  0  0  0  0  0  0  1  0  0
  -31.4422  -26.4701   21.2543 C   0  0  2  0  0  0  0  0  0  0  0  0
  -22.3286  -24.4278   17.9306 C   0  0  1  0  0  0  0  0  0  0  0  0
  -23.2192  -24.3835   14.2462 C   0  0  2  0  0  0  0  0  0  0  0  0
  -32.6640  -22.2918   18.7328 C   0  0  2  0  0  0  0  0  0  0  0  0
  -21.4779  -23.2868   18.5566 C   0  0  0  0  0  0  0  0  0  0  0  0
  -27.3189  -17.8852   21.4156 N   0  0  0  0  0  0  0  0  0  0  0  0
  -32.2012  -24.5742   18.1065 N   0  0  0  0  0  0  0  0  0  0  0  0
  -32.3154  -23.6499   19.0754 N   0  0  0  0  0  0  0  0  0  0  0  0
  -27.8388  -18.8999   22.1271 N   0  0  0  0  0  0  0  0  0  0  0  0
  -22.8078  -26.5808   19.0526 N   0  0  0  0  0  0  0  0  0  0  0  0
  -28.2607  -21.5375   19.3934 N   0  0  0  0  0  0  0  0  0  0  0  0
  -28.7722  -19.4455   24.2347 N   0  0  0  0  0  0  0  0  0  0  0  0
  -27.8308  -15.0453   24.6198 N   0  0  0  0  0  0  0  0  0  0  0  0
  -20.7350  -27.7058   21.4624 N   0  0  0  0  0  0  0  0  0  0  0  0
  -22.3250  -24.4443   16.4718 N   0  0  0  0  0  0  0  0  0  0  0  0
  -30.4357  -21.2268   18.5179 N   0  0  0  0  0  0  0  0  0  0  0  0
  -24.3379  -25.0628   13.5335 N   0  3  0  0  0  0  0  0  0  0  0  0
  -28.6793  -16.8710   25.7179 O   0  0  0  0  0  0  0  0  0  0  0  0
  -22.9559  -27.1247   21.8529 O   0  0  0  0  0  0  0  0  0  0  0  0
  -20.7175  -26.1595   18.1096 O   0  0  0  0  0  0  0  0  0  0  0  0
  -24.6201  -24.2411   16.2096 O   0  0  0  0  0  0  0  0  0  0  0  0
  -29.3387  -23.2167   18.2117 O   0  0  0  0  0  0  0  0  0  0  0  0
  -25.5500  -11.8100   20.6998 O   0  0  0  0  0  0  0  0  0  0  0  0
  -28.7121  -27.3966   20.6424 O   0  0  0  0  0  0  0  0  0  1  0  0
  -22.4267   -8.9978   24.2692 F   0  0  0  0  0  0  0  0  0  0  0  0
  -22.9733  -11.0550   20.0414 F   0  0  0  0  0  0  0  0  0  0  0  0
  1  2  1  0  0  0  0
  1  5  2  0  0  0  0
  2  6  2  0  0  0  0
  3  8  2  0  0  0  0
  3 16  1  0  0  0  0
  4  9  1  0  0  0  0
  4 16  2  0  0  0  0
  5 18  1  0  0  0  0
  6 20  1  0  0  0  0
  7 10  2  0  0  0  0
  7 19  1  0  0  0  0
  8 23  1  0  0  0  0
  9 23  2  0  0  0  0
 10 24  1  0  0  0  0
 11 12  2  0  0  0  0
 11 25  1  0  0  0  0
 12 26  1  0  0  0  0
 13 21  1  0  0  0  0
 13 24  2  0  0  0  0
 14 26  2  0  0  0  0
 14 27  1  0  0  0  0
 15 22  2  0  0  0  0
 15 66  1  0  0  0  0
 16 28  1  0  0  0  0
 17 28  1  0  0  0  0
 17 30  2  0  0  0  0
 17 31  1  0  0  0  0
 18 20  2  0  0  0  0
 18 36  1  0  0  0  0
 19 21  2  0  0  0  0
 19 37  1  0  0  0  0
 20 45  1  0  0  0  0
 21 38  1  0  0  0  0
 22 29  1  0  0  0  0
 22 59  1  0  0  0  0
 23 81  1  0  0  0  0
 24 82  1  0  0  0  0
 25 27  2  0  0  0  0
 25 81  1  0  0  0  0
 26 83  1  0  0  0  0
 27 84  1  0  0  0  0
 28 64  2  0  0  0  0
 29 48  1  0  0  0  0
 29 65  2  0  0  0  0
 30 67  1  0  0  0  0
 30 70  1  0  0  0  0
 31 71  1  0  0  0  0
 31 76  2  0  0  0  0
 32 46  1  0  0  0  0
 32 72  1  0  0  0  0
 32 77  2  0  0  0  0
 33 60  1  0  0  0  0
 33 68  1  0  0  0  0
 33 78  2  0  0  0  0
 34 61  1  0  0  0  0
 34 73  1  0  0  0  0
 34 79  2  0  0  0  0
 35 69  1  0  0  0  0
 35 74  1  0  0  0  0
 35 80  2  0  0  0  0
 36 39  1  0  0  0  0
 37 46  1  0  0  0  0
 38 68  1  0  0  0  0
 39 41  1  0  0  0  0
 40 42  1  0  0  0  0
 40 43  1  0  0  0  0
 41 45  1  0  0  0  0
 42 47  1  0  0  0  0
 43 69  1  0  0  0  0
 44 47  1  0  0  0  0
 44 69  1  0  0  0  0
 45 72  1  0  0  0  0
 46 68  1  0  0  0  0
 47 67  1  0  0  0  0
 49 59  1  0  0  0  0
 50 61  1  0  0  0  0
 51 62  1  0  0  0  0
 52 63  1  0  0  0  0
 53 63  1  0  0  0  0
 54 63  1  0  0  0  0
 55 75  1  0  0  0  0
 56 58  1  0  0  0  0
 56 59  1  0  0  0  0
 57 62  1  0  0  0  0
 57 74  1  0  0  0  0
 58 82  1  0  0  0  0
 60 63  1  0  0  0  0
 60 73  1  0  0  0  0
 61 75  1  0  0  0  0
 62 66  1  0  0  0  0
 64 67  1  0  0  0  0
 65 66  1  0  0  0  0
M  CHG  1  75   1
M  ISO  4  35 100  58 101  74 100  82 101
M  END
> <Batch ID>
0078

> <Smiles>
CNC(C)C(=O)NC(C(=O)N1Cc2cc([101O:1][101CH2:1]CC(C)c3cn(C(C)C[100NH:0][100C:0](=O)N4CCCC(n5nc(-c6ccc(Oc7ccc(F)cc7F)cc6)c(C(N)=O)c5N)C4)nc3C)ccc2CC1C(=O)NC1CCCc2ccccc21)C(C)(C)C

> <Shape>
0.230

> <Color>
0.082

> <Negative vol penalty>
0.000

$$$$

  -OEChem-04052318393D

 94102  0     1  0  0  0  0  0999 V2000
  -30.4724  -32.2885   25.9584 C   0  0  0  0  0  0  0  0  0  0  0  0
  -30.1366  -30.9632   25.7014 C   0  0  0  0  0  0  0  0  0  0  0  0
  -23.4110   -9.6691   20.0390 C   0  0  0  0  0  0  0  0  0  0  0  0
  -23.7675  -10.0241   22.4021 C   0  0  0  0  0  0  0  0  0  0  0  0
  -29.5935  -33.3107   25.6027 C   0  0  0  0  0  0  0  0  0  0  0  0
  -28.9211  -30.6592   25.0895 C   0  0  0  0  0  0  0  0  0  0  0  0
  -27.8226  -26.1050   21.1450 C   0  0  0  0  0  0  0  0  0  0  0  0
  -22.7325   -8.4832   20.3195 C   0  0  0  0  0  0  0  0  0  0  0  0
  -23.0889   -8.8381   22.6826 C   0  0  0  0  0  0  0  0  0  0  0  0
  -27.2698  -24.8356   21.3083 C   0  0  0  0  0  0  0  0  0  0  0  0
  -19.8816   -7.7895   22.8682 C   0  0  0  0  0  0  0  0  0  0  0  0
  -18.9428   -7.8102   23.8996 C   0  0  0  0  0  0  0  0  0  0  0  0
  -25.1175  -25.6931   20.6364 C   0  0  0  0  0  0  0  0  0  0  0  0
  -20.1956   -6.1107   25.0741 C   0  0  0  0  0  0  0  0  0  0  0  0
  -28.1462  -17.1302   23.3520 C   0  0  0  0  0  0  0  0  0  0  0  0
  -23.9286  -10.4396   21.0803 C   0  0  0  0  0  0  0  0  0  0  0  0
  -24.0779  -12.9547   20.6809 C   0  0  0  0  0  0  0  0  0  0  0  0
  -28.3709  -33.0197   24.9773 C   0  0  0  0  0  0  0  0  0  0  0  0
  -27.0233  -27.1822   20.7360 C   0  0  0  0  0  0  0  0  0  0  0  0
  -28.0244  -31.6784   24.7262 C   0  0  0  0  0  0  0  0  0  0  0  0
  -25.6631  -26.9746   20.4662 C   0  0  0  0  0  0  0  0  0  0  0  0
  -22.5714   -8.0677   21.6412 C   0  0  0  0  0  0  0  0  0  0  0  0
  -25.9164  -24.6300   21.0568 C   0  0  0  0  0  0  0  0  0  0  0  0
  -20.9774   -6.9294   22.9397 C   0  0  0  0  0  0  0  0  0  0  0  0
  -19.0998   -6.9708   25.0025 C   0  0  0  0  0  0  0  0  0  0  0  0
  -21.1344   -6.0900   24.0426 C   0  0  0  0  0  0  0  0  0  0  0  0
  -24.6301  -11.6644   20.7912 C   0  0  0  0  0  0  0  0  0  0  0  0
  -28.6514  -16.8914   24.5988 C   0  0  0  0  0  0  0  0  0  0  0  0
  -25.1508  -13.7643   20.3983 C   0  0  0  0  0  0  0  0  0  0  0  0
  -26.8540  -18.1641   24.8222 C   0  0  0  0  0  0  0  0  0  0  0  0
  -22.7168  -13.3830   20.8214 C   0  0  0  0  0  0  0  0  0  0  0  0
  -26.1816  -29.9654   22.0202 C   0  0  0  0  0  0  0  0  0  0  0  0
  -24.8260  -30.4529   19.1138 C   0  0  0  0  0  0  0  0  0  0  0  0
  -23.5188  -29.1054   16.2639 C   0  0  0  0  0  0  0  0  0  0  0  0
  -31.0204  -13.2800   21.4772 C   0  0  0  0  0  0  0  0  0  0  0  0
  -27.4325  -34.1553   24.6540 C   0  0  0  0  0  0  0  0  0  0  0  0
  -27.6406  -28.5396   20.5388 C   0  0  0  0  0  0  0  0  0  0  0  0
  -24.7663  -28.0935   20.0054 C   0  0  0  0  0  0  0  0  0  0  0  0
  -26.3300  -33.7731   23.6697 C   0  0  0  0  0  0  0  0  0  0  0  0
  -29.4528  -13.6854   18.3062 C   0  0  0  0  0  0  0  0  0  0  0  0
  -25.6950  -32.4449   24.0689 C   0  0  0  0  0  0  0  0  0  0  0  0
  -27.9893  -13.3299   18.5735 C   0  0  0  0  0  0  0  0  0  0  0  0
  -30.4037  -12.8139   19.1237 C   0  0  0  0  0  0  0  0  0  0  0  0
  -28.6758  -12.4457   20.8420 C   0  0  0  0  0  0  0  0  0  0  0  0
  -26.7260  -31.3101   24.0416 C   0  0  1  0  0  0  0  0  0  0  0  0
  -26.6242  -29.6748   20.6140 C   0  0  1  0  0  0  0  0  0  0  0  0
  -27.6773  -13.3357   20.0822 C   0  0  2  0  0  0  0  0  0  0  0  0
  -22.4559  -29.7549   14.0854 C   0  0  0  0  0  0  0  0  0  0  0  0
  -28.7891  -14.4924   26.6872 C   0  0  0  0  0  0  0  0  0  0  0  0
  -24.3611  -18.3871   25.1079 C   0  0  0  0  0  0  0  0  0  0  0  0
  -25.7943  -20.4476   24.9180 C   0  0  0  0  0  0  0  0  0  0  0  0
  -25.8143  -19.0883   26.9996 C   0  0  0  0  0  0  0  0  0  0  0  0
  -22.2180  -31.0691   20.5728 C   0  0  0  0  0  0  0  0  0  0  0  0
  -21.0125  -30.7708   18.3989 C   0  0  0  0  0  0  0  0  0  0  0  0
  -22.7145  -32.5783   18.6415 C   0  0  0  0  0  0  0  0  0  0  0  0
  -27.1420  -20.0472   19.0191 C   0  0  0  0  0  0  0  0  0  0  0  0
  -25.1324  -18.7437   19.6997 C   0  0  0  0  0  0  0  0  0  0  0  0
  -31.8622  -14.1289   26.3454 C   0  0  0  0  0  0  0  0  0  0  0  0
  -30.4323  -12.2211   25.6350 C   0  0  0  0  0  0  0  0  0  0  0  0
  -25.6846  -27.8368   14.6957 C   0  0  0  0  0  0  0  0  0  0  0  0
  -29.8162  -16.1197   25.0398 C   0  0  0  0  0  0  0  0  0  0  0  0
  -26.9614  -19.2477   21.3870 C   0  0  0  0  0  0  0  0  0  0  0  0
  -25.3816  -21.1023   20.5057 C   0  0  0  0  0  0  0  0  0  0  0  0
  -26.1548  -18.4295   22.4043 C   0  0  0  0  0  0  0  0  0  0  0  0
  -31.4829  -13.7163   23.8761 C   0  0  0  0  0  0  0  0  0  0  0  0
  -26.2311  -22.2737   20.9902 C   0  0  0  0  0  0  0  0  0  1  0  0
  -23.4742  -30.1708   18.5038 C   0  0  1  0  0  0  0  0  0  0  0  0
  -23.7573  -29.4222   14.7985 C   0  0  2  0  0  0  0  0  0  0  0  0
  -29.5478  -14.6009   25.3500 C   0  0  1  0  0  0  0  0  0  0  0  0
  -25.7720  -18.9734   25.4364 C   0  0  0  0  0  0  0  0  0  0  0  0
  -22.3710  -31.1264   19.0398 C   0  0  0  0  0  0  0  0  0  0  0  0
  -26.1537  -19.7971   20.1783 C   0  0  0  0  0  0  0  0  0  0  0  0
  -30.8317  -13.6757   25.2833 C   0  0  0  0  0  0  0  0  0  0  0  0
  -25.9511  -11.6504   20.5945 N   0  0  0  0  0  0  0  0  0  0  0  0
  -27.0342  -17.9197   23.5202 N   0  0  0  0  0  0  0  0  0  0  0  0
  -26.2380  -12.9418   20.3577 N   0  0  0  0  0  0  0  0  0  0  0  0
  -27.8324  -17.5432   25.4890 N   0  3  0  0  0  0  0  0  0  0  0  0
  -25.4153  -29.4037   19.8333 N   0  0  0  0  0  0  0  0  0  0  0  0
  -30.0547  -12.8647   20.5455 N   0  0  0  0  0  0  0  0  0  0  0  0
  -25.2608  -15.0925   20.1829 N   0  0  0  0  0  0  0  0  0  0  0  0
  -21.7402  -12.4208   21.1125 N   0  0  0  0  0  0  0  0  0  0  0  0
  -26.9738  -30.8850   22.6806 N   0  0  0  0  0  0  0  0  0  0  0  0
  -23.6598  -30.2239   17.0577 N   0  0  0  0  0  0  0  0  0  0  0  0
  -30.6052  -13.3055   22.8030 N   0  0  0  0  0  0  0  0  0  0  0  0
  -24.3848  -28.2577   14.1122 N   0  3  0  0  0  0  0  0  0  0  0  0
  -22.3743  -14.5810   20.6764 O   0  0  0  0  0  0  0  0  0  0  0  0
  -25.1937  -29.3984   22.4720 O   0  0  0  0  0  0  0  0  0  0  0  0
  -25.3432  -31.5610   18.9518 O   0  0  0  0  0  0  0  0  0  0  0  0
  -23.2322  -27.9791   16.6638 O   0  0  0  0  0  0  0  0  0  0  0  0
  -32.1659  -13.6091   21.1510 O   0  0  0  0  0  0  0  0  0  0  0  0
  -21.9091   -6.9106   21.9153 O   0  0  0  0  0  0  0  0  0  0  0  0
  -25.3741  -23.3921   21.2160 O   0  0  0  0  0  0  0  0  0  1  0  0
  -18.1989   -6.9919   25.9936 F   0  0  0  0  0  0  0  0  0  0  0  0
  -22.1858   -5.2624   24.1175 F   0  0  0  0  0  0  0  0  0  0  0  0
  1  2  1  0  0  0  0
  1  5  2  0  0  0  0
  2  6  2  0  0  0  0
  3  8  2  0  0  0  0
  3 16  1  0  0  0  0
  4  9  1  0  0  0  0
  4 16  2  0  0  0  0
  5 18  1  0  0  0  0
  6 20  1  0  0  0  0
  7 10  2  0  0  0  0
  7 19  1  0  0  0  0
  8 22  1  0  0  0  0
  9 22  2  0  0  0  0
 10 23  1  0  0  0  0
 11 12  2  0  0  0  0
 11 24  1  0  0  0  0
 12 25  1  0  0  0  0
 13 21  1  0  0  0  0
 13 23  2  0  0  0  0
 14 25  2  0  0  0  0
 14 26  1  0  0  0  0
 15 28  2  0  0  0  0
 15 75  1  0  0  0  0
 16 27  1  0  0  0  0
 17 27  1  0  0  0  0
 17 29  2  0  0  0  0
 17 31  1  0  0  0  0
 18 20  2  0  0  0  0
 18 36  1  0  0  0  0
 19 21  2  0  0  0  0
 19 37  1  0  0  0  0
 20 45  1  0  0  0  0
 21 38  1  0  0  0  0
 22 91  1  0  0  0  0
 23 92  1  0  0  0  0
 24 26  2  0  0  0  0
 24 91  1  0  0  0  0
 25 93  1  0  0  0  0
 26 94  1  0  0  0  0
 27 74  2  0  0  0  0
 28 61  1  0  0  0  0
 28 77  1  0  0  0  0
 29 76  1  0  0  0  0
 29 80  1  0  0  0  0
 30 70  1  0  0  0  0
 30 75  1  0  0  0  0
 30 77  2  0  0  0  0
 31 81  1  0  0  0  0
 31 86  2  0  0  0  0
 32 46  1  0  0  0  0
 32 82  1  0  0  0  0
 32 87  2  0  0  0  0
 33 67  1  0  0  0  0
 33 78  1  0  0  0  0
 33 88  2  0  0  0  0
 34 68  1  0  0  0  0
 34 83  1  0  0  0  0
 34 89  2  0  0  0  0
 35 79  1  0  0  0  0
 35 84  1  0  0  0  0
 35 90  2  0  0  0  0
 36 39  1  0  0  0  0
 37 46  1  0  0  0  0
 38 78  1  0  0  0  0
 39 41  1  0  0  0  0
 40 42  1  0  0  0  0
 40 43  1  0  0  0  0
 41 45  1  0  0  0  0
 42 47  1  0  0  0  0
 43 79  1  0  0  0  0
 44 47  1  0  0  0  0
 44 79  1  0  0  0  0
 45 82  1  0  0  0  0
 46 78  1  0  0  0  0
 47 76  1  0  0  0  0
 48 68  1  0  0  0  0
 49 69  1  0  0  0  0
 50 70  1  0  0  0  0
 51 70  1  0  0  0  0
 52 70  1  0  0  0  0
 53 71  1  0  0  0  0
 54 71  1  0  0  0  0
 55 71  1  0  0  0  0
 56 72  1  0  0  0  0
 57 72  1  0  0  0  0
 58 73  1  0  0  0  0
 59 73  1  0  0  0  0
 60 85  1  0  0  0  0
 61 69  1  0  0  0  0
 62 64  1  0  0  0  0
 62 72  1  0  0  0  0
 63 66  1  0  0  0  0
 63 72  1  0  0  0  0
 64 75  1  0  0  0  0
 65 73  1  0  0  0  0
 65 84  1  0  0  0  0
 66 92  1  0  0  0  0
 67 71  1  0  0  0  0
 67 83  1  0  0  0  0
 68 85  1  0  0  0  0
 69 73  1  0  0  0  0
 74 76  1  0  0  0  0
M  CHG  2  77   1  85   1
M  ISO  4  35 100  66 101  84 100  92 101
M  END
> <Batch ID>
0078

> <Smiles>
CNC(C)C(=O)NC(C(=O)N1Cc2cc([101O:1][101CH2:1]CC(C)(C)CCn3cc(CC(C)C(C)(C)C[100NH:0][100C:0](=O)N4CCCC(n5nc(-c6ccc(Oc7ccc(F)cc7F)cc6)c(C(N)=O)c5N)C4)nc3C(C)(C)C)ccc2CC1C(=O)NC1CCCc2ccccc21)C(C)(C)C

> <Shape>
0.252

> <Color>
0.173

> <Negative vol penalty>
0.000

$$$$

  -OEChem-04052318393D

 84 92  0     1  0  0  0  0  0999 V2000
  -26.6762  -28.5254   16.3712 C   0  0  0  0  0  0  0  0  0  0  0  0
  -26.6482  -27.1388   16.2615 C   0  0  0  0  0  0  0  0  0  0  0  0
  -29.9409  -19.4762   20.2374 C   0  0  0  0  0  0  0  0  0  0  0  0
  -27.8225  -19.2732   21.3811 C   0  0  0  0  0  0  0  0  0  0  0  0
  -26.5440  -29.1274   17.6218 C   0  0  0  0  0  0  0  0  0  0  0  0
  -26.4891  -26.3533   17.4026 C   0  0  0  0  0  0  0  0  0  0  0  0
  -23.4888  -21.0307   17.8191 C   0  0  0  0  0  0  0  0  0  0  0  0
  -29.6222  -20.7860   19.8793 C   0  0  0  0  0  0  0  0  0  0  0  0
  -27.5037  -20.5832   21.0231 C   0  0  0  0  0  0  0  0  0  0  0  0
  -23.9228  -19.7058   17.8072 C   0  0  0  0  0  0  0  0  0  0  0  0
  -29.5205  -24.3046   18.9712 C   0  0  0  0  0  0  0  0  0  0  0  0
  -30.5078  -25.2776   19.1257 C   0  0  0  0  0  0  0  0  0  0  0  0
  -23.9180  -19.6889   20.2195 C   0  0  0  0  0  0  0  0  0  0  0  0
  -30.5986  -24.8096   21.4942 C   0  0  0  0  0  0  0  0  0  0  0  0
  -24.1179   -8.6321   21.2357 C   0  0  0  0  0  0  0  0  0  0  0  0
  -29.0411  -18.7197   20.9882 C   0  0  0  0  0  0  0  0  0  0  0  0
  -30.0383  -16.9415   22.5216 C   0  0  0  0  0  0  0  0  0  0  0  0
  -26.3735  -28.3492   18.7777 C   0  0  0  0  0  0  0  0  0  0  0  0
  -23.2762  -21.6991   19.0334 C   0  0  0  0  0  0  0  0  0  0  0  0
  -26.3558  -26.9454   18.6701 C   0  0  0  0  0  0  0  0  0  0  0  0
  -23.4788  -21.0214   20.2441 C   0  0  0  0  0  0  0  0  0  0  0  0
  -28.4036  -21.3395   20.2722 C   0  0  0  0  0  0  0  0  0  0  0  0
  -24.1403  -19.0356   19.0075 C   0  0  0  0  0  0  0  0  0  0  0  0
  -29.0721  -23.5840   20.0783 C   0  0  0  0  0  0  0  0  0  0  0  0
  -31.0469  -25.5301   20.3872 C   0  0  0  0  0  0  0  0  0  0  0  0
  -29.6111  -23.8366   21.3398 C   0  0  0  0  0  0  0  0  0  0  0  0
  -29.3695  -17.3664   21.3579 C   0  0  0  0  0  0  0  0  0  0  0  0
  -24.4837   -9.8648   21.6978 C   0  0  0  0  0  0  0  0  0  0  0  0
  -30.1030  -15.5748   22.4008 C   0  0  0  0  0  0  0  0  0  0  0  0
  -22.4802  -10.0483   20.7744 C   0  0  0  0  0  0  0  0  0  0  0  0
  -30.5547  -17.7131   23.6141 C   0  0  0  0  0  0  0  0  0  0  0  0
  -24.5377  -24.2571   20.4366 C   0  0  0  0  0  0  0  0  0  0  0  0
  -22.1979  -23.7306   22.6206 C   0  0  0  0  0  0  0  0  0  0  0  0
  -20.0416  -21.5256   24.0819 C   0  0  0  0  0  0  0  0  0  0  0  0
  -26.9912  -11.1103   20.4261 C   0  0  0  0  0  0  0  0  0  0  0  0
  -26.2821  -29.0436   20.1134 C   0  0  0  0  0  0  0  0  0  0  0  0
  -22.7823  -23.1198   19.0291 C   0  0  0  0  0  0  0  0  0  0  0  0
  -23.2456  -21.6877   21.5745 C   0  0  0  0  0  0  0  0  0  0  0  0
  -25.7416  -28.1515   21.2280 C   0  0  0  0  0  0  0  0  0  0  0  0
  -29.7866  -12.3914   18.6314 C   0  0  0  0  0  0  0  0  0  0  0  0
  -26.4293  -26.7902   21.2031 C   0  0  0  0  0  0  0  0  0  0  0  0
  -30.0262  -13.7654   19.2597 C   0  0  0  0  0  0  0  0  0  0  0  0
  -28.2981  -12.0606   18.5485 C   0  0  0  0  0  0  0  0  0  0  0  0
  -27.8066  -13.5457   20.4529 C   0  0  0  0  0  0  0  0  0  0  0  0
  -26.1601  -26.0601   19.8817 C   0  0  1  0  0  0  0  0  0  0  0  0
  -23.0919  -23.8640   20.3244 C   0  0  1  0  0  0  0  0  0  0  0  0
  -29.2953  -13.9001   20.6091 C   0  0  2  0  0  0  0  0  0  0  0  0
  -21.1921  -10.5950   20.2802 C   0  0  0  0  0  0  0  0  0  0  0  0
  -18.2803  -21.3798   25.8635 C   0  0  0  0  0  0  0  0  0  0  0  0
  -23.0378  -15.3468   18.5061 C   0  0  0  0  0  0  0  0  0  0  0  0
  -24.3688  -23.7449   24.7647 C   0  0  0  0  0  0  0  0  0  0  0  0
  -22.7333  -22.6741   26.3290 C   0  0  0  0  0  0  0  0  0  0  0  0
  -22.2669  -24.9418   25.4003 C   0  0  0  0  0  0  0  0  0  0  0  0
  -17.9630  -20.7437   22.1257 C   0  0  0  0  0  0  0  0  0  0  0  0
  -25.7048  -10.2989   22.3873 C   0  0  0  0  0  0  0  0  0  0  0  0
  -23.7028  -13.0510   20.4845 C   0  0  0  0  0  0  0  0  0  0  0  0
  -23.7031  -14.5426   20.8348 C   0  0  0  0  0  0  0  0  0  0  0  0
  -23.4125  -12.1939   21.7200 C   0  0  0  0  0  0  0  0  0  0  0  0
  -24.1637  -16.9201   20.0936 C   0  0  0  0  0  0  0  0  0  1  0  0
  -22.0829  -22.9223   23.8904 C   0  0  1  0  0  0  0  0  0  0  0  0
  -18.5577  -21.6204   24.3877 C   0  0  2  0  0  0  0  0  0  0  0  0
  -24.0568  -15.4566   19.6417 C   0  0  2  0  0  0  0  0  0  0  0  0
  -22.8694  -23.5585   25.0712 C   0  0  0  0  0  0  0  0  0  0  0  0
  -29.0335  -16.3519   20.5568 N   0  0  0  0  0  0  0  0  0  0  0  0
  -23.4521  -10.7217   21.3985 N   0  0  0  0  0  0  0  0  0  0  0  0
  -29.4931  -15.2759   21.2180 N   0  0  0  0  0  0  0  0  0  0  0  0
  -22.8741   -8.7750   20.6695 N   0  3  0  0  0  0  0  0  0  0  0  0
  -22.7689  -23.0795   21.5180 N   0  0  0  0  0  0  0  0  0  0  0  0
  -27.6645  -12.2060   19.8613 N   0  0  0  0  0  0  0  0  0  0  0  0
  -30.6215  -14.6117   23.1919 N   0  0  0  0  0  0  0  0  0  0  0  0
  -30.4031  -19.1060   23.5787 N   0  0  0  0  0  0  0  0  0  0  0  0
  -24.8306  -25.4884   19.8819 N   0  0  0  0  0  0  0  0  0  0  0  0
  -20.6553  -22.7589   24.1425 N   0  0  0  0  0  0  0  0  0  0  0  0
  -26.4245  -11.3314   21.6754 N   0  0  0  0  0  0  0  0  0  0  0  0
  -17.8002  -20.6100   23.5963 N   0  3  0  0  0  0  0  0  0  0  0  0
  -31.1480  -17.1846   24.5847 O   0  0  0  0  0  0  0  0  0  0  0  0
  -25.3288  -23.5001   20.9869 O   0  0  0  0  0  0  0  0  0  0  0  0
  -21.7893  -24.8944   22.6055 O   0  0  0  0  0  0  0  0  0  0  0  0
  -20.6011  -20.4633   23.8195 O   0  0  0  0  0  0  0  0  0  0  0  0
  -26.9062  -10.0145   19.8615 O   0  0  0  0  0  0  0  0  0  0  0  0
  -28.0923  -22.6178   19.9232 O   0  0  0  0  0  0  0  0  0  0  0  0
  -24.5646  -17.7427   18.9987 O   0  0  0  0  0  0  0  0  0  1  0  0
  -31.9962  -26.4635   20.5351 F   0  0  0  0  0  0  0  0  0  0  0  0
  -29.1852  -23.1468   22.4068 F   0  0  0  0  0  0  0  0  0  0  0  0
  1  2  1  0  0  0  0
  1  5  2  0  0  0  0
  2  6  2  0  0  0  0
  3  8  2  0  0  0  0
  3 16  1  0  0  0  0
  4  9  1  0  0  0  0
  4 16  2  0  0  0  0
  5 18  1  0  0  0  0
  6 20  1  0  0  0  0
  7 10  2  0  0  0  0
  7 19  1  0  0  0  0
  8 22  1  0  0  0  0
  9 22  2  0  0  0  0
 10 23  1  0  0  0  0
 11 12  2  0  0  0  0
 11 24  1  0  0  0  0
 12 25  1  0  0  0  0
 13 21  1  0  0  0  0
 13 23  2  0  0  0  0
 14 25  2  0  0  0  0
 14 26  1  0  0  0  0
 15 28  2  0  0  0  0
 15 67  1  0  0  0  0
 16 27  1  0  0  0  0
 17 27  1  0  0  0  0
 17 29  2  0  0  0  0
 17 31  1  0  0  0  0
 18 20  2  0  0  0  0
 18 36  1  0  0  0  0
 19 21  2  0  0  0  0
 19 37  1  0  0  0  0
 20 45  1  0  0  0  0
 21 38  1  0  0  0  0
 22 81  1  0  0  0  0
 23 82  1  0  0  0  0
 24 26  2  0  0  0  0
 24 81  1  0  0  0  0
 25 83  1  0  0  0  0
 26 84  1  0  0  0  0
 27 64  2  0  0  0  0
 28 55  1  0  0  0  0
 28 65  1  0  0  0  0
 29 66  1  0  0  0  0
 29 70  1  0  0  0  0
 30 48  1  0  0  0  0
 30 65  1  0  0  0  0
 30 67  2  0  0  0  0
 31 71  1  0  0  0  0
 31 76  2  0  0  0  0
 32 46  1  0  0  0  0
 32 72  1  0  0  0  0
 32 77  2  0  0  0  0
 33 60  1  0  0  0  0
 33 68  1  0  0  0  0
 33 78  2  0  0  0  0
 34 61  1  0  0  0  0
 34 73  1  0  0  0  0
 34 79  2  0  0  0  0
 35 69  1  0  0  0  0
 35 74  1  0  0  0  0
 35 80  2  0  0  0  0
 36 39  1  0  0  0  0
 37 46  1  0  0  0  0
 38 68  1  0  0  0  0
 39 41  1  0  0  0  0
 40 42  1  0  0  0  0
 40 43  1  0  0  0  0
 41 45  1  0  0  0  0
 42 47  1  0  0  0  0
 43 69  1  0  0  0  0
 44 47  1  0  0  0  0
 44 69  1  0  0  0  0
 45 72  1  0  0  0  0
 46 68  1  0  0  0  0
 47 66  1  0  0  0  0
 49 61  1  0  0  0  0
 50 62  1  0  0  0  0
 51 63  1  0  0  0  0
 52 63  1  0  0  0  0
 53 63  1  0  0  0  0
 54 75  1  0  0  0  0
 55 74  1  0  0  0  0
 56 57  1  0  0  0  0
 56 58  1  0  0  0  0
 57 62  1  0  0  0  0
 58 65  1  0  0  0  0
 59 62  1  0  0  0  0
 59 82  1  0  0  0  0
 60 63  1  0  0  0  0
 60 73  1  0  0  0  0
 61 75  1  0  0  0  0
 64 66  1  0  0  0  0
M  CHG  2  67   1  75   1
M  ISO  4  35 100  59 101  74 100  82 101
M  END
> <Batch ID>
0078

> <Smiles>
CNC(C)C(=O)NC(C(=O)N1Cc2cc([101O:1][101CH2:1]C(C)CCCn3c(C[100NH:0][100C:0](=O)N4CCCC(n5nc(-c6ccc(Oc7ccc(F)cc7F)cc6)c(C(N)=O)c5N)C4)cnc3C)ccc2CC1C(=O)NC1CCCc2ccccc21)C(C)(C)C

> <Shape>
0.216

> <Color>
0.045

> <Negative vol penalty>
0.000

$$$$

  -OEChem-04052318393D

 86 94  0     1  0  0  0  0  0999 V2000
  -21.2997  -30.9099   20.1358 C   0  0  0  0  0  0  0  0  0  0  0  0
  -21.3665  -29.5350   19.9338 C   0  0  0  0  0  0  0  0  0  0  0  0
  -26.3361  -12.7655   21.6759 C   0  0  0  0  0  0  0  0  0  0  0  0
  -26.1284  -13.5149   19.3885 C   0  0  0  0  0  0  0  0  0  0  0  0
  -22.4071  -31.5946   20.6346 C   0  0  0  0  0  0  0  0  0  0  0  0
  -22.5412  -28.8443   20.2295 C   0  0  0  0  0  0  0  0  0  0  0  0
  -23.0079  -23.1478   22.4291 C   0  0  0  0  0  0  0  0  0  0  0  0
  -25.1098  -12.1090   21.5722 C   0  0  0  0  0  0  0  0  0  0  0  0
  -24.9021  -12.8584   19.2847 C   0  0  0  0  0  0  0  0  0  0  0  0
  -23.2576  -21.9221   21.8134 C   0  0  0  0  0  0  0  0  0  0  0  0
  -23.9321   -9.2236   20.2605 C   0  0  0  0  0  0  0  0  0  0  0  0
  -23.8472   -7.9255   20.7637 C   0  0  0  0  0  0  0  0  0  0  0  0
  -25.5976  -22.1306   22.3611 C   0  0  0  0  0  0  0  0  0  0  0  0
  -22.1204   -8.6333   22.2981 C   0  0  0  0  0  0  0  0  0  0  0  0
  -26.8454  -13.4685   20.5840 C   0  0  0  0  0  0  0  0  0  0  0  0
  -29.3854  -13.6211   20.4025 C   0  0  0  0  0  0  0  0  0  0  0  0
  -23.5927  -30.9104   20.9456 C   0  0  0  0  0  0  0  0  0  0  0  0
  -24.0547  -23.8805   23.0068 C   0  0  0  0  0  0  0  0  0  0  0  0
  -23.6659  -29.5207   20.7316 C   0  0  0  0  0  0  0  0  0  0  0  0
  -25.3581  -23.3641   22.9857 C   0  0  0  0  0  0  0  0  0  0  0  0
  -24.3928  -12.1554   20.3766 C   0  0  0  0  0  0  0  0  0  0  0  0
  -24.5531  -21.4147   21.7768 C   0  0  0  0  0  0  0  0  0  0  0  0
  -23.1113  -10.2266   20.7761 C   0  0  0  0  0  0  0  0  0  0  0  0
  -22.9413   -7.6303   21.7825 C   0  0  0  0  0  0  0  0  0  0  0  0
  -22.2054   -9.9314   21.7949 C   0  0  0  0  0  0  0  0  0  0  0  0
  -28.1119  -14.1473   20.6907 C   0  0  0  0  0  0  0  0  0  0  0  0
  -30.2511  -14.6554   20.6619 C   0  0  0  0  0  0  0  0  0  0  0  0
  -27.5243  -21.4874   16.2482 C   0  0  0  0  0  0  0  0  0  0  0  0
  -27.8719  -22.5306   18.1190 C   0  0  0  0  0  0  0  0  0  0  0  0
  -29.7530  -12.3142   19.9414 C   0  0  0  0  0  0  0  0  0  0  0  0
  -25.3474  -26.7373   22.4860 C   0  0  0  0  0  0  0  0  0  0  0  0
  -27.0463  -26.0232   25.1555 C   0  0  0  0  0  0  0  0  0  0  0  0
  -28.2992  -23.6270   27.2377 C   0  0  0  0  0  0  0  0  0  0  0  0
  -29.5124  -20.5125   20.5990 C   0  0  0  0  0  0  0  0  0  0  0  0
  -24.7792  -31.7007   21.4379 C   0  0  0  0  0  0  0  0  0  0  0  0
  -23.7645  -25.1884   23.6906 C   0  0  0  0  0  0  0  0  0  0  0  0
  -26.5136  -24.1020   23.6093 C   0  0  0  0  0  0  0  0  0  0  0  0
  -25.8626  -30.8374   22.0791 C   0  0  0  0  0  0  0  0  0  0  0  0
  -30.7127  -18.5559   23.3969 C   0  0  0  0  0  0  0  0  0  0  0  0
  -26.1572  -29.6183   21.2108 C   0  0  0  0  0  0  0  0  0  0  0  0
  -30.2959  -17.1438   22.9816 C   0  0  0  0  0  0  0  0  0  0  0  0
  -29.6626  -19.5848   22.9885 C   0  0  0  0  0  0  0  0  0  0  0  0
  -28.9070  -18.1663   21.1201 C   0  0  0  0  0  0  0  0  0  0  0  0
  -24.9142  -28.7324   21.0638 C   0  0  1  0  0  0  0  0  0  0  0  0
  -24.9887  -26.0926   23.7950 C   0  0  1  0  0  0  0  0  0  0  0  0
  -29.9379  -17.0826   21.4849 C   0  0  2  0  0  0  0  0  0  0  0  0
  -26.8859  -20.6274   15.2360 C   0  0  0  0  0  0  0  0  0  0  0  0
  -29.6789  -23.3480   29.3151 C   0  0  0  0  0  0  0  0  0  0  0  0
  -29.5748  -26.6112   23.5522 C   0  0  0  0  0  0  0  0  0  0  0  0
  -30.8895  -25.4265   25.3231 C   0  0  0  0  0  0  0  0  0  0  0  0
  -29.5994  -27.4832   25.8960 C   0  0  0  0  0  0  0  0  0  0  0  0
  -23.7400  -18.5681   17.9360 C   0  0  0  0  0  0  0  0  0  0  0  0
  -25.0971  -17.6387   19.8156 C   0  0  0  0  0  0  0  0  0  0  0  0
  -26.0710  -22.3196   28.6816 C   0  0  0  0  0  0  0  0  0  0  0  0
  -27.6784  -23.0045   19.5009 C   0  0  0  0  0  0  0  0  0  0  0  0
  -28.8931  -23.7414   20.1178 C   0  0  0  0  0  0  0  0  0  0  0  0
  -25.9385  -19.6326   18.4717 C   0  0  0  0  0  0  0  0  0  0  0  0
  -25.7371  -21.0960   18.0566 C   0  0  0  0  0  0  0  0  0  0  0  0
  -30.1505  -22.8819   20.2306 C   0  0  0  0  0  0  0  0  0  0  0  0
  -23.9507  -19.8505   20.0896 C   0  0  0  0  0  0  0  0  0  1  0  0
  -28.3579  -25.3297   25.4344 C   0  0  1  0  0  0  0  0  0  0  0  0
  -28.2747  -23.4934   28.7496 C   0  0  2  0  0  0  0  0  0  0  0  0
  -29.5842  -26.1994   25.0379 C   0  0  0  0  0  0  0  0  0  0  0  0
  -24.6946  -18.9364   19.0925 C   0  0  0  0  0  0  0  0  0  0  0  0
  -28.1597  -15.4172   21.1019 N   0  0  0  0  0  0  0  0  0  0  0  0
  -28.6411  -22.1675   16.1193 N   0  0  0  0  0  0  0  0  0  0  0  0
  -28.8622  -22.8313   17.3095 N   0  0  0  0  0  0  0  0  0  0  0  0
  -29.4738  -15.6976   21.0740 N   0  0  0  0  0  0  0  0  0  0  0  0
  -27.0062  -21.6869   17.4918 N   0  0  0  0  0  0  0  0  0  0  0  0
  -26.1800  -25.3796   24.2604 N   0  0  0  0  0  0  0  0  0  0  0  0
  -29.3809  -19.4863   21.5494 N   0  0  0  0  0  0  0  0  0  0  0  0
  -31.5937  -14.7660   20.5754 N   0  0  0  0  0  0  0  0  0  0  0  0
  -28.7382  -11.3719   19.7256 N   0  0  0  0  0  0  0  0  0  0  0  0
  -24.7117  -27.9431   22.2598 N   0  0  0  0  0  0  0  0  0  0  0  0
  -28.3264  -24.9476   26.8420 N   0  0  0  0  0  0  0  0  0  0  0  0
  -29.9601  -21.7335   21.0884 N   0  0  0  0  0  0  0  0  0  0  0  0
  -27.4803  -22.2982   29.1512 N   0  3  0  0  0  0  0  0  0  0  0  0
  -30.9474  -11.9864   19.7428 O   0  0  0  0  0  0  0  0  0  0  0  0
  -26.1433  -26.1824   21.7373 O   0  0  0  0  0  0  0  0  0  0  0  0
  -26.7965  -27.0928   25.7168 O   0  0  0  0  0  0  0  0  0  0  0  0
  -28.2983  -22.6568   26.4831 O   0  0  0  0  0  0  0  0  0  0  0  0
  -29.2548  -20.3511   19.4012 O   0  0  0  0  0  0  0  0  0  0  0  0
  -23.1963  -11.5147   20.2750 O   0  0  0  0  0  0  0  0  0  0  0  0
  -24.7997  -20.2189   21.1759 O   0  0  0  0  0  0  0  0  0  1  0  0
  -22.8587   -6.3833   22.2645 F   0  0  0  0  0  0  0  0  0  0  0  0
  -21.4133  -10.8906   22.2935 F   0  0  0  0  0  0  0  0  0  0  0  0
  1  2  1  0  0  0  0
  1  5  2  0  0  0  0
  2  6  2  0  0  0  0
  3  8  2  0  0  0  0
  3 15  1  0  0  0  0
  4  9  1  0  0  0  0
  4 15  2  0  0  0  0
  5 17  1  0  0  0  0
  6 19  1  0  0  0  0
  7 10  2  0  0  0  0
  7 18  1  0  0  0  0
  8 21  1  0  0  0  0
  9 21  2  0  0  0  0
 10 22  1  0  0  0  0
 11 12  2  0  0  0  0
 11 23  1  0  0  0  0
 12 24  1  0  0  0  0
 13 20  1  0  0  0  0
 13 22  2  0  0  0  0
 14 24  2  0  0  0  0
 14 25  1  0  0  0  0
 15 26  1  0  0  0  0
 16 26  1  0  0  0  0
 16 27  2  0  0  0  0
 16 30  1  0  0  0  0
 17 19  2  0  0  0  0
 17 35  1  0  0  0  0
 18 20  2  0  0  0  0
 18 36  1  0  0  0  0
 19 44  1  0  0  0  0
 20 37  1  0  0  0  0
 21 83  1  0  0  0  0
 22 84  1  0  0  0  0
 23 25  2  0  0  0  0
 23 83  1  0  0  0  0
 24 85  1  0  0  0  0
 25 86  1  0  0  0  0
 26 65  2  0  0  0  0
 27 68  1  0  0  0  0
 27 72  1  0  0  0  0
 28 47  1  0  0  0  0
 28 66  2  0  0  0  0
 28 69  1  0  0  0  0
 29 55  1  0  0  0  0
 29 67  2  0  0  0  0
 29 69  1  0  0  0  0
 30 73  1  0  0  0  0
 30 78  2  0  0  0  0
 31 45  1  0  0  0  0
 31 74  1  0  0  0  0
 31 79  2  0  0  0  0
 32 61  1  0  0  0  0
 32 70  1  0  0  0  0
 32 80  2  0  0  0  0
 33 62  1  0  0  0  0
 33 75  1  0  0  0  0
 33 81  2  0  0  0  0
 34 71  1  0  0  0  0
 34 76  1  0  0  0  0
 34 82  2  0  0  0  0
 35 38  1  0  0  0  0
 36 45  1  0  0  0  0
 37 70  1  0  0  0  0
 38 40  1  0  0  0  0
 39 41  1  0  0  0  0
 39 42  1  0  0  0  0
 40 44  1  0  0  0  0
 41 46  1  0  0  0  0
 42 71  1  0  0  0  0
 43 46  1  0  0  0  0
 43 71  1  0  0  0  0
 44 74  1  0  0  0  0
 45 70  1  0  0  0  0
 46 68  1  0  0  0  0
 48 62  1  0  0  0  0
 49 63  1  0  0  0  0
 50 63  1  0  0  0  0
 51 63  1  0  0  0  0
 52 64  1  0  0  0  0
 53 64  1  0  0  0  0
 54 77  1  0  0  0  0
 55 56  1  0  0  0  0
 56 59  1  0  0  0  0
 57 58  1  0  0  0  0
 57 64  1  0  0  0  0
 58 69  1  0  0  0  0
 59 76  1  0  0  0  0
 60 64  1  0  0  0  0
 60 84  1  0  0  0  0
 61 63  1  0  0  0  0
 61 75  1  0  0  0  0
 62 77  1  0  0  0  0
 65 68  1  0  0  0  0
 66 67  1  0  0  0  0
M  CHG  1  77   1
M  ISO  4  34 100  60 101  76 100  84 101
M  END
> <Batch ID>
0078

> <Smiles>
CNC(C)C(=O)NC(C(=O)N1Cc2cc([101O:1][101CH2:1]C(C)(C)CCn3c(C)nnc3CCC[100NH:0][100C:0](=O)N3CCCC(n4nc(-c5ccc(Oc6ccc(F)cc6F)cc5)c(C(N)=O)c4N)C3)ccc2CC1C(=O)NC1CCCc2ccccc21)C(C)(C)C

> <Shape>
0.211

> <Color>
0.079

> <Negative vol penalty>
0.000

$$$$

  -OEChem-04052318393D

 85 93  0     1  0  0  0  0  0999 V2000
  -32.3608  -11.9540   20.8060 C   0  0  0  0  0  0  0  0  0  0  0  0
  -32.0817  -13.0581   21.6052 C   0  0  0  0  0  0  0  0  0  0  0  0
  -28.3587  -25.4311   20.9449 C   0  0  0  0  0  0  0  0  0  0  0  0
  -26.3059  -24.7401   19.8746 C   0  0  0  0  0  0  0  0  0  0  0  0
  -31.4602  -11.5671   19.8145 C   0  0  0  0  0  0  0  0  0  0  0  0
  -30.9022  -13.7765   21.4125 C   0  0  0  0  0  0  0  0  0  0  0  0
  -25.9996  -17.5360   25.0383 C   0  0  0  0  0  0  0  0  0  0  0  0
  -28.7345  -24.0953   21.0865 C   0  0  0  0  0  0  0  0  0  0  0  0
  -26.6817  -23.4043   20.0161 C   0  0  0  0  0  0  0  0  0  0  0  0
  -25.3645  -18.7770   25.0208 C   0  0  0  0  0  0  0  0  0  0  0  0
  -27.2655  -19.8241   19.7711 C   0  0  0  0  0  0  0  0  0  0  0  0
  -27.0933  -18.9814   18.6731 C   0  0  0  0  0  0  0  0  0  0  0  0
  -23.8455  -17.9690   23.3300 C   0  0  0  0  0  0  0  0  0  0  0  0
  -28.5745  -20.3762   17.3702 C   0  0  0  0  0  0  0  0  0  0  0  0
  -19.7792  -26.8944   23.7660 C   0  0  0  0  0  0  0  0  0  0  0  0
  -27.1443  -25.7535   20.3390 C   0  0  0  0  0  0  0  0  0  0  0  0
  -27.0344  -27.9847   19.1073 C   0  0  0  0  0  0  0  0  0  0  0  0
  -30.2646  -12.2754   19.6160 C   0  0  0  0  0  0  0  0  0  0  0  0
  -25.5686  -16.5039   24.1926 C   0  0  0  0  0  0  0  0  0  0  0  0
  -29.9854  -13.3995   20.4165 C   0  0  0  0  0  0  0  0  0  0  0  0
  -24.4751  -16.7150   23.3406 C   0  0  0  0  0  0  0  0  0  0  0  0
  -19.9247  -25.6638   23.1736 C   0  0  0  0  0  0  0  0  0  0  0  0
  -27.8961  -23.0819   20.6221 C   0  0  0  0  0  0  0  0  0  0  0  0
  -24.2891  -18.9946   24.1645 C   0  0  0  0  0  0  0  0  0  0  0  0
  -28.0921  -20.9431   19.6686 C   0  0  0  0  0  0  0  0  0  0  0  0
  -27.7478  -19.2573   17.4726 C   0  0  0  0  0  0  0  0  0  0  0  0
  -28.7466  -21.2190   18.4682 C   0  0  0  0  0  0  0  0  0  0  0  0
  -26.7553  -27.1331   20.1929 C   0  0  0  0  0  0  0  0  0  0  0  0
  -19.4669  -25.8514   21.8556 C   0  0  0  0  0  0  0  0  0  0  0  0
  -26.4521  -29.1805   19.4502 C   0  0  0  0  0  0  0  0  0  0  0  0
  -27.7555  -27.7187   17.8969 C   0  0  0  0  0  0  0  0  0  0  0  0
  -26.8902  -14.8437   21.8259 C   0  0  0  0  0  0  0  0  0  0  0  0
  -24.1259  -13.1541   21.9890 C   0  0  0  0  0  0  0  0  0  0  0  0
  -20.8320  -13.0667   22.8772 C   0  0  0  0  0  0  0  0  0  0  0  0
  -21.9044  -30.6101   23.0732 C   0  0  0  0  0  0  0  0  0  0  0  0
  -29.3442  -11.8477   18.5003 C   0  0  0  0  0  0  0  0  0  0  0  0
  -26.2473  -15.1625   24.2428 C   0  0  0  0  0  0  0  0  0  0  0  0
  -23.9608  -15.6332   22.4275 C   0  0  0  0  0  0  0  0  0  0  0  0
  -27.9404  -12.4377   18.6088 C   0  0  0  0  0  0  0  0  0  0  0  0
  -25.2535  -31.8026   23.2684 C   0  0  0  0  0  0  0  0  0  0  0  0
  -28.0109  -13.9310   18.9116 C   0  0  0  0  0  0  0  0  0  0  0  0
  -26.0433  -30.8180   22.4044 C   0  0  0  0  0  0  0  0  0  0  0  0
  -24.1322  -31.1061   24.0362 C   0  0  0  0  0  0  0  0  0  0  0  0
  -24.0029  -29.3243   22.3385 C   0  0  0  0  0  0  0  0  0  0  0  0
  -28.7049  -14.1895   20.2544 C   0  0  1  0  0  0  0  0  0  0  0  0
  -26.0517  -14.3459   22.9691 C   0  0  1  0  0  0  0  0  0  0  0  0
  -25.1093  -29.9895   21.5020 C   0  0  2  0  0  0  0  0  0  0  0  0
  -19.3982  -24.8543   20.7729 C   0  0  0  0  0  0  0  0  0  0  0  0
  -18.8243  -11.5614   22.8522 C   0  0  0  0  0  0  0  0  0  0  0  0
  -17.4335  -29.3443   22.7597 C   0  0  0  0  0  0  0  0  0  0  0  0
  -23.7859  -13.6613   18.9995 C   0  0  0  0  0  0  0  0  0  0  0  0
  -21.3845  -12.9917   19.2299 C   0  0  0  0  0  0  0  0  0  0  0  0
  -23.1902  -11.3479   19.7395 C   0  0  0  0  0  0  0  0  0  0  0  0
  -20.6098  -13.1213   25.8279 C   0  0  0  0  0  0  0  0  0  0  0  0
  -20.4569  -24.4021   23.8052 C   0  0  0  0  0  0  0  0  0  0  0  0
  -21.9110  -24.0894   23.4343 C   0  0  0  0  0  0  0  0  0  0  0  0
  -22.4572  -22.8474   24.1456 C   0  0  0  0  0  0  0  0  0  0  0  0
  -23.8964  -22.5563   23.7237 C   0  0  0  0  0  0  0  0  0  0  0  0
  -19.7458  -30.0083   22.0066 C   0  0  0  0  0  0  0  0  0  0  0  0
  -24.4630  -21.3484   24.4564 C   0  0  0  0  0  0  0  0  0  1  0  0
  -22.7680  -13.2605   21.3381 C   0  0  1  0  0  0  0  0  0  0  0  0
  -20.0247  -12.0414   23.6529 C   0  0  2  0  0  0  0  0  0  0  0  0
  -18.9353  -29.1100   22.9544 C   0  0  2  0  0  0  0  0  0  0  0  0
  -22.7928  -12.8365   19.8424 C   0  0  0  0  0  0  0  0  0  0  0  0
  -26.0506  -27.7366   21.1537 N   0  0  0  0  0  0  0  0  0  0  0  0
  -19.0607  -27.1025   21.6240 N   0  0  0  0  0  0  0  0  0  0  0  0
  -19.2628  -27.7123   22.8044 N   0  0  0  0  0  0  0  0  0  0  0  0
  -25.8821  -28.9803   20.6730 N   0  0  0  0  0  0  0  0  0  0  0  0
  -24.6617  -14.3410   22.5087 N   0  0  0  0  0  0  0  0  0  0  0  0
  -23.2818  -30.3393   23.1226 N   0  0  0  0  0  0  0  0  0  0  0  0
  -26.3773  -30.3731   18.8222 N   0  0  0  0  0  0  0  0  0  0  0  0
  -28.2882  -26.4367   17.7046 N   0  0  0  0  0  0  0  0  0  0  0  0
  -27.8004  -13.9187   21.3512 N   0  0  0  0  0  0  0  0  0  0  0  0
  -21.8562  -12.4783   22.1659 N   0  0  0  0  0  0  0  0  0  0  0  0
  -21.1722  -29.8423   22.1759 N   0  0  0  0  0  0  0  0  0  0  0  0
  -19.5326  -12.6290   24.9310 N   0  3  0  0  0  0  0  0  0  0  0  0
  -27.9367  -28.5967   17.0195 O   0  0  0  0  0  0  0  0  0  0  0  0
  -26.7227  -15.9822   21.4048 O   0  0  0  0  0  0  0  0  0  0  0  0
  -24.6874  -12.0570   22.0410 O   0  0  0  0  0  0  0  0  0  0  0  0
  -20.5769  -14.2688   22.8971 O   0  0  0  0  0  0  0  0  0  0  0  0
  -21.3678  -31.4759   23.7728 O   0  0  0  0  0  0  0  0  0  0  0  0
  -28.2626  -21.7784   20.7599 O   0  0  0  0  0  0  0  0  0  0  0  0
  -23.6679  -20.2052   24.1449 O   0  0  0  0  0  0  0  0  0  1  0  0
  -27.5836  -18.4471   16.4188 F   0  0  0  0  0  0  0  0  0  0  0  0
  -29.5430  -22.2918   18.3641 F   0  0  0  0  0  0  0  0  0  0  0  0
  1  2  1  0  0  0  0
  1  5  2  0  0  0  0
  2  6  2  0  0  0  0
  3  8  2  0  0  0  0
  3 16  1  0  0  0  0
  4  9  1  0  0  0  0
  4 16  2  0  0  0  0
  5 18  1  0  0  0  0
  6 20  1  0  0  0  0
  7 10  2  0  0  0  0
  7 19  1  0  0  0  0
  8 23  1  0  0  0  0
  9 23  2  0  0  0  0
 10 24  1  0  0  0  0
 11 12  2  0  0  0  0
 11 25  1  0  0  0  0
 12 26  1  0  0  0  0
 13 21  1  0  0  0  0
 13 24  2  0  0  0  0
 14 26  2  0  0  0  0
 14 27  1  0  0  0  0
 15 22  2  0  0  0  0
 15 67  1  0  0  0  0
 16 28  1  0  0  0  0
 17 28  1  0  0  0  0
 17 30  2  0  0  0  0
 17 31  1  0  0  0  0
 18 20  2  0  0  0  0
 18 36  1  0  0  0  0
 19 21  2  0  0  0  0
 19 37  1  0  0  0  0
 20 45  1  0  0  0  0
 21 38  1  0  0  0  0
 22 29  1  0  0  0  0
 22 55  1  0  0  0  0
 23 82  1  0  0  0  0
 24 83  1  0  0  0  0
 25 27  2  0  0  0  0
 25 82  1  0  0  0  0
 26 84  1  0  0  0  0
 27 85  1  0  0  0  0
 28 65  2  0  0  0  0
 29 48  1  0  0  0  0
 29 66  2  0  0  0  0
 30 68  1  0  0  0  0
 30 71  1  0  0  0  0
 31 72  1  0  0  0  0
 31 77  2  0  0  0  0
 32 46  1  0  0  0  0
 32 73  1  0  0  0  0
 32 78  2  0  0  0  0
 33 61  1  0  0  0  0
 33 69  1  0  0  0  0
 33 79  2  0  0  0  0
 34 62  1  0  0  0  0
 34 74  1  0  0  0  0
 34 80  2  0  0  0  0
 35 70  1  0  0  0  0
 35 75  1  0  0  0  0
 35 81  2  0  0  0  0
 36 39  1  0  0  0  0
 37 46  1  0  0  0  0
 38 69  1  0  0  0  0
 39 41  1  0  0  0  0
 40 42  1  0  0  0  0
 40 43  1  0  0  0  0
 41 45  1  0  0  0  0
 42 47  1  0  0  0  0
 43 70  1  0  0  0  0
 44 47  1  0  0  0  0
 44 70  1  0  0  0  0
 45 73  1  0  0  0  0
 46 69  1  0  0  0  0
 47 68  1  0  0  0  0
 49 62  1  0  0  0  0
 50 63  1  0  0  0  0
 51 64  1  0  0  0  0
 52 64  1  0  0  0  0
 53 64  1  0  0  0  0
 54 76  1  0  0  0  0
 55 56  1  0  0  0  0
 56 57  1  0  0  0  0
 57 58  1  0  0  0  0
 58 60  1  0  0  0  0
 59 63  1  0  0  0  0
 59 75  1  0  0  0  0
 60 83  1  0  0  0  0
 61 64  1  0  0  0  0
 61 74  1  0  0  0  0
 62 76  1  0  0  0  0
 63 67  1  0  0  0  0
 65 68  1  0  0  0  0
 66 67  1  0  0  0  0
M  CHG  1  76   1
M  ISO  4  35 100  60 101  75 100  83 101
M  END
> <Batch ID>
0078

> <Smiles>
CNC(C)C(=O)NC(C(=O)N1Cc2cc([101O:1][101CH2:1]CCCCc3cn(C(C)C[100NH:0][100C:0](=O)N4CCCC(n5nc(-c6ccc(Oc7ccc(F)cc7F)cc6)c(C(N)=O)c5N)C4)nc3C)ccc2CC1C(=O)NC1CCCc2ccccc21)C(C)(C)C

> <Shape>
0.249

> <Color>
0.073

> <Negative vol penalty>
0.000

$$$$

  -OEChem-04052318393D

 81 89  0     1  0  0  0  0  0999 V2000
  -18.0249  -25.6240   20.1556 C   0  0  0  0  0  0  0  0  0  0  0  0
  -19.2281  -25.9923   19.5623 C   0  0  0  0  0  0  0  0  0  0  0  0
  -26.9139  -15.5533   21.0366 C   0  0  0  0  0  0  0  0  0  0  0  0
  -27.0911  -15.9944   18.6678 C   0  0  0  0  0  0  0  0  0  0  0  0
  -17.7043  -26.0933   21.4287 C   0  0  0  0  0  0  0  0  0  0  0  0
  -20.1110  -26.8312   20.2414 C   0  0  0  0  0  0  0  0  0  0  0  0
  -24.9099  -25.2390   19.9584 C   0  0  0  0  0  0  0  0  0  0  0  0
  -25.7864  -14.7653   20.8055 C   0  0  0  0  0  0  0  0  0  0  0  0
  -25.9636  -15.2064   18.4368 C   0  0  0  0  0  0  0  0  0  0  0  0
  -25.5954  -25.4910   18.7708 C   0  0  0  0  0  0  0  0  0  0  0  0
  -25.2284  -11.9149   18.2233 C   0  0  0  0  0  0  0  0  0  0  0  0
  -25.2806  -11.0053   17.1671 C   0  0  0  0  0  0  0  0  0  0  0  0
  -26.6738  -27.3863   19.8024 C   0  0  0  0  0  0  0  0  0  0  0  0
  -23.3989  -12.1062   16.1259 C   0  0  0  0  0  0  0  0  0  0  0  0
  -28.1445  -23.9263   14.0714 C   0  0  0  0  0  0  0  0  0  0  0  0
  -27.5663  -16.1679   19.9678 C   0  0  0  0  0  0  0  0  0  0  0  0
  -30.0735  -16.5603   20.2275 C   0  0  0  0  0  0  0  0  0  0  0  0
  -18.5880  -26.9306   22.1277 C   0  0  0  0  0  0  0  0  0  0  0  0
  -25.0933  -26.0667   21.0755 C   0  0  0  0  0  0  0  0  0  0  0  0
  -19.8013  -27.3133   21.5245 C   0  0  0  0  0  0  0  0  0  0  0  0
  -25.9914  -27.1411   21.0038 C   0  0  0  0  0  0  0  0  0  0  0  0
  -25.3113  -14.5919   19.5056 C   0  0  0  0  0  0  0  0  0  0  0  0
  -26.4753  -26.5665   18.6918 C   0  0  0  0  0  0  0  0  0  0  0  0
  -24.2613  -12.9201   18.2308 C   0  0  0  0  0  0  0  0  0  0  0  0
  -24.3660  -11.1010   16.1184 C   0  0  0  0  0  0  0  0  0  0  0  0
  -23.3466  -13.0158   17.1821 C   0  0  0  0  0  0  0  0  0  0  0  0
  -28.7307  -16.9824   20.2059 C   0  0  0  0  0  0  0  0  0  0  0  0
  -30.7884  -17.7027   20.4929 C   0  0  0  0  0  0  0  0  0  0  0  0
  -29.2063  -23.7142   15.9520 C   0  0  0  0  0  0  0  0  0  0  0  0
  -30.6253  -15.2524   20.0256 C   0  0  0  0  0  0  0  0  0  0  0  0
  -23.2092  -27.9618   22.7966 C   0  0  0  0  0  0  0  0  0  0  0  0
  -25.8461  -28.2342   24.6661 C   0  0  0  0  0  0  0  0  0  0  0  0
  -29.2433  -28.0430   24.9293 C   0  0  0  0  0  0  0  0  0  0  0  0
  -29.6624  -23.5159   19.6043 C   0  0  0  0  0  0  0  0  0  0  0  0
  -18.1767  -27.4510   23.4822 C   0  0  0  0  0  0  0  0  0  0  0  0
  -24.3666  -25.7655   22.3575 C   0  0  0  0  0  0  0  0  0  0  0  0
  -26.2391  -28.0475   22.1809 C   0  0  0  0  0  0  0  0  0  0  0  0
  -19.3348  -28.0336   24.2883 C   0  0  0  0  0  0  0  0  0  0  0  0
  -30.4083  -21.9290   22.7030 C   0  0  0  0  0  0  0  0  0  0  0  0
  -20.1768  -28.9617   23.4186 C   0  0  0  0  0  0  0  0  0  0  0  0
  -30.1841  -20.4432   22.4163 C   0  0  0  0  0  0  0  0  0  0  0  0
  -29.4001  -22.8050   21.9627 C   0  0  0  0  0  0  0  0  0  0  0  0
  -29.1034  -21.0863   20.2215 C   0  0  0  0  0  0  0  0  0  0  0  0
  -20.7962  -28.2017   22.2395 C   0  0  1  0  0  0  0  0  0  0  0  0
  -24.2417  -26.9795   23.2729 C   0  0  1  0  0  0  0  0  0  0  0  0
  -30.1313  -20.1660   20.9019 C   0  0  2  0  0  0  0  0  0  0  0  0
  -31.4315  -24.2333   17.0202 C   0  0  0  0  0  0  0  0  0  0  0  0
  -31.4971  -28.0459   26.0329 C   0  0  0  0  0  0  0  0  0  0  0  0
  -25.5726  -31.2610   24.3945 C   0  0  0  0  0  0  0  0  0  0  0  0
  -27.9269  -31.4777   25.2182 C   0  0  0  0  0  0  0  0  0  0  0  0
  -26.1810  -30.4702   26.6877 C   0  0  0  0  0  0  0  0  0  0  0  0
  -29.0932  -25.1441   25.5066 C   0  0  0  0  0  0  0  0  0  0  0  0
  -27.4025  -26.8186   15.1482 C   0  0  0  0  0  0  0  0  0  0  0  0
  -28.7739  -26.1416   15.1988 C   0  0  0  0  0  0  0  0  0  0  0  0
  -26.4994  -26.4421   16.3169 C   0  0  0  0  0  0  0  0  0  1  0  0
  -29.9078  -24.0716   17.1980 C   0  0  2  0  0  0  0  0  0  0  0  0
  -27.0390  -29.1586   24.7038 C   0  0  1  0  0  0  0  0  0  0  0  0
  -30.1379  -27.3684   25.9537 C   0  0  2  0  0  0  0  0  0  0  0  0
  -26.6740  -30.5761   25.2281 C   0  0  0  0  0  0  0  0  0  0  0  0
  -28.2792  -22.6405   14.3059 N   0  0  0  0  0  0  0  0  0  0  0  0
  -28.5977  -18.2908   20.4391 N   0  0  0  0  0  0  0  0  0  0  0  0
  -28.9548  -22.5056   15.5023 N   0  0  0  0  0  0  0  0  0  0  0  0
  -28.7138  -24.6394   15.0824 N   0  0  0  0  0  0  0  0  0  0  0  0
  -29.8662  -18.7007   20.6099 N   0  0  0  0  0  0  0  0  0  0  0  0
  -25.5001  -27.7157   23.4103 N   0  0  0  0  0  0  0  0  0  0  0  0
  -29.4007  -22.4936   20.5313 N   0  0  0  0  0  0  0  0  0  0  0  0
  -32.1095  -17.9408   20.6353 N   0  0  0  0  0  0  0  0  0  0  0  0
  -29.7489  -14.1907   19.7631 N   0  0  0  0  0  0  0  0  0  0  0  0
  -21.9390  -27.4305   22.6796 N   0  0  0  0  0  0  0  0  0  0  0  0
  -28.0602  -28.4753   25.4903 N   0  0  0  0  0  0  0  0  0  0  0  0
  -29.6502  -23.1341   18.2683 N   0  0  0  0  0  0  0  0  0  0  0  0
  -30.3465  -25.9367   25.5964 N   0  3  0  0  0  0  0  0  0  0  0  0
  -31.8578  -15.0289   20.0928 O   0  0  0  0  0  0  0  0  0  0  0  0
  -23.5402  -29.1166   22.5548 O   0  0  0  0  0  0  0  0  0  0  0  0
  -25.2479  -27.9760   25.7135 O   0  0  0  0  0  0  0  0  0  0  0  0
  -29.5637  -28.1765   23.7503 O   0  0  0  0  0  0  0  0  0  0  0  0
  -29.8953  -24.6814   19.9424 O   0  0  0  0  0  0  0  0  0  0  0  0
  -24.2112  -13.8228   19.2798 O   0  0  0  0  0  0  0  0  0  0  0  0
  -27.1451  -26.8150   17.5336 O   0  0  0  0  0  0  0  0  0  1  0  0
  -24.4173  -10.2284   15.1034 F   0  0  0  0  0  0  0  0  0  0  0  0
  -22.4161  -13.9801   17.1832 F   0  0  0  0  0  0  0  0  0  0  0  0
  1  2  1  0  0  0  0
  1  5  2  0  0  0  0
  2  6  2  0  0  0  0
  3  8  2  0  0  0  0
  3 16  1  0  0  0  0
  4  9  1  0  0  0  0
  4 16  2  0  0  0  0
  5 18  1  0  0  0  0
  6 20  1  0  0  0  0
  7 10  2  0  0  0  0
  7 19  1  0  0  0  0
  8 22  1  0  0  0  0
  9 22  2  0  0  0  0
 10 23  1  0  0  0  0
 11 12  2  0  0  0  0
 11 24  1  0  0  0  0
 12 25  1  0  0  0  0
 13 21  1  0  0  0  0
 13 23  2  0  0  0  0
 14 25  2  0  0  0  0
 14 26  1  0  0  0  0
 15 60  2  0  0  0  0
 15 63  1  0  0  0  0
 16 27  1  0  0  0  0
 17 27  1  0  0  0  0
 17 28  2  0  0  0  0
 17 30  1  0  0  0  0
 18 20  2  0  0  0  0
 18 35  1  0  0  0  0
 19 21  2  0  0  0  0
 19 36  1  0  0  0  0
 20 44  1  0  0  0  0
 21 37  1  0  0  0  0
 22 78  1  0  0  0  0
 23 79  1  0  0  0  0
 24 26  2  0  0  0  0
 24 78  1  0  0  0  0
 25 80  1  0  0  0  0
 26 81  1  0  0  0  0
 27 61  2  0  0  0  0
 28 64  1  0  0  0  0
 28 67  1  0  0  0  0
 29 56  1  0  0  0  0
 29 62  2  0  0  0  0
 29 63  1  0  0  0  0
 30 68  1  0  0  0  0
 30 73  2  0  0  0  0
 31 45  1  0  0  0  0
 31 69  1  0  0  0  0
 31 74  2  0  0  0  0
 32 57  1  0  0  0  0
 32 65  1  0  0  0  0
 32 75  2  0  0  0  0
 33 58  1  0  0  0  0
 33 70  1  0  0  0  0
 33 76  2  0  0  0  0
 34 66  1  0  0  0  0
 34 71  1  0  0  0  0
 34 77  2  0  0  0  0
 35 38  1  0  0  0  0
 36 45  1  0  0  0  0
 37 65  1  0  0  0  0
 38 40  1  0  0  0  0
 39 41  1  0  0  0  0
 39 42  1  0  0  0  0
 40 44  1  0  0  0  0
 41 46  1  0  0  0  0
 42 66  1  0  0  0  0
 43 46  1  0  0  0  0
 43 66  1  0  0  0  0
 44 69  1  0  0  0  0
 45 65  1  0  0  0  0
 46 64  1  0  0  0  0
 47 56  1  0  0  0  0
 48 58  1  0  0  0  0
 49 59  1  0  0  0  0
 50 59  1  0  0  0  0
 51 59  1  0  0  0  0
 52 72  1  0  0  0  0
 53 54  1  0  0  0  0
 53 55  1  0  0  0  0
 54 63  1  0  0  0  0
 55 79  1  0  0  0  0
 56 71  1  0  0  0  0
 57 59  1  0  0  0  0
 57 70  1  0  0  0  0
 58 72  1  0  0  0  0
 60 62  1  0  0  0  0
 61 64  1  0  0  0  0
M  CHG  1  72   1
M  ISO  4  34 100  55 101  71 100  79 101
M  END
> <Batch ID>
0078

> <Smiles>
CNC(C)C(=O)NC(C(=O)N1Cc2cc([101O:1][101CH2:1]CCn3cnnc3C(C)[100NH:0][100C:0](=O)N3CCCC(n4nc(-c5ccc(Oc6ccc(F)cc6F)cc5)c(C(N)=O)c4N)C3)ccc2CC1C(=O)NC1CCCc2ccccc21)C(C)(C)C

> <Shape>
0.222

> <Color>
0.065

> <Negative vol penalty>
0.000

$$$$

  -OEChem-04052318393D

 86 94  0     1  0  0  0  0  0999 V2000
  -32.4132  -12.2498   21.3160 C   0  0  0  0  0  0  0  0  0  0  0  0
  -32.0514  -13.4785   21.8590 C   0  0  0  0  0  0  0  0  0  0  0  0
  -30.2069  -23.9519   19.8858 C   0  0  0  0  0  0  0  0  0  0  0  0
  -28.0234  -23.5845   18.9191 C   0  0  0  0  0  0  0  0  0  0  0  0
  -31.5804  -11.6271   20.3872 C   0  0  0  0  0  0  0  0  0  0  0  0
  -30.8572  -14.0858   21.4726 C   0  0  0  0  0  0  0  0  0  0  0  0
  -25.6344  -18.2650   24.0364 C   0  0  0  0  0  0  0  0  0  0  0  0
  -30.4175  -22.5739   19.9337 C   0  0  0  0  0  0  0  0  0  0  0  0
  -28.2341  -22.2065   18.9670 C   0  0  0  0  0  0  0  0  0  0  0  0
  -24.9545  -19.4449   23.7375 C   0  0  0  0  0  0  0  0  0  0  0  0
  -29.9107  -19.8811   17.1776 C   0  0  0  0  0  0  0  0  0  0  0  0
  -29.5694  -19.1353   16.0494 C   0  0  0  0  0  0  0  0  0  0  0  0
  -23.5568  -18.2389   22.1847 C   0  0  0  0  0  0  0  0  0  0  0  0
  -28.0009  -17.8566   17.3691 C   0  0  0  0  0  0  0  0  0  0  0  0
  -20.5662  -28.1053   23.6401 C   0  0  0  0  0  0  0  0  0  0  0  0
  -29.0098  -24.4572   19.3786 C   0  0  0  0  0  0  0  0  0  0  0  0
  -29.1120  -26.7538   18.2728 C   0  0  0  0  0  0  0  0  0  0  0  0
  -30.3707  -12.2225   19.9964 C   0  0  0  0  0  0  0  0  0  0  0  0
  -25.2872  -17.0633   23.4026 C   0  0  0  0  0  0  0  0  0  0  0  0
  -30.0081  -13.4711   20.5367 C   0  0  0  0  0  0  0  0  0  0  0  0
  -24.2321  -17.0447   22.4793 C   0  0  0  0  0  0  0  0  0  0  0  0
  -29.4312  -21.7012   19.4743 C   0  0  0  0  0  0  0  0  0  0  0  0
  -23.9174  -19.4326   22.8094 C   0  0  0  0  0  0  0  0  0  0  0  0
  -29.2971  -19.6146   18.4016 C   0  0  0  0  0  0  0  0  0  0  0  0
  -28.6145  -18.1231   16.1451 C   0  0  0  0  0  0  0  0  0  0  0  0
  -28.3422  -18.6024   18.4974 C   0  0  0  0  0  0  0  0  0  0  0  0
  -28.7913  -25.8806   19.3294 C   0  0  0  0  0  0  0  0  0  0  0  0
  -20.1835  -29.2533   23.0056 C   0  0  0  0  0  0  0  0  0  0  0  0
  -28.7076  -27.9900   18.7142 C   0  0  0  0  0  0  0  0  0  0  0  0
  -22.2868  -28.8371   22.4548 C   0  0  0  0  0  0  0  0  0  0  0  0
  -29.7209  -26.4727   17.0055 C   0  0  0  0  0  0  0  0  0  0  0  0
  -26.7915  -15.0222   21.4857 C   0  0  0  0  0  0  0  0  0  0  0  0
  -24.5930  -29.6559   22.7647 C   0  0  0  0  0  0  0  0  0  0  0  0
  -24.0886  -13.2711   21.8729 C   0  0  0  0  0  0  0  0  0  0  0  0
  -20.7587  -13.2088   22.6179 C   0  0  0  0  0  0  0  0  0  0  0  0
  -29.5262  -11.5339   18.9537 C   0  0  0  0  0  0  0  0  0  0  0  0
  -26.0128  -15.7940   23.7559 C   0  0  0  0  0  0  0  0  0  0  0  0
  -23.8071  -15.7768   21.7862 C   0  0  0  0  0  0  0  0  0  0  0  0
  -28.0974  -12.0659   18.8786 C   0  0  0  0  0  0  0  0  0  0  0  0
  -28.0697  -30.5219   22.7143 C   0  0  0  0  0  0  0  0  0  0  0  0
  -28.0954  -13.5913   18.8714 C   0  0  0  0  0  0  0  0  0  0  0  0
  -28.6826  -29.4915   21.7668 C   0  0  0  0  0  0  0  0  0  0  0  0
  -26.9292  -29.9213   23.5302 C   0  0  0  0  0  0  0  0  0  0  0  0
  -26.4659  -28.2622   21.7541 C   0  0  0  0  0  0  0  0  0  0  0  0
  -28.7087  -14.1498   20.1612 C   0  0  1  0  0  0  0  0  0  0  0  0
  -25.9145  -14.7274   22.6696 C   0  0  1  0  0  0  0  0  0  0  0  0
  -27.6018  -28.8362   20.8888 C   0  0  2  0  0  0  0  0  0  0  0  0
  -18.9136  -29.9842   23.0095 C   0  0  0  0  0  0  0  0  0  0  0  0
  -18.8135  -11.6358   22.8160 C   0  0  0  0  0  0  0  0  0  0  0  0
  -22.9594  -29.8640   18.0635 C   0  0  0  0  0  0  0  0  0  0  0  0
  -23.3227  -27.6040   19.0716 C   0  0  0  0  0  0  0  0  0  0  0  0
  -23.8848  -13.1439   18.8312 C   0  0  0  0  0  0  0  0  0  0  0  0
  -21.5018  -12.4213   19.0907 C   0  0  0  0  0  0  0  0  0  0  0  0
  -23.3397  -11.0032   20.0037 C   0  0  0  0  0  0  0  0  0  0  0  0
  -20.3822  -13.8507   25.4824 C   0  0  0  0  0  0  0  0  0  0  0  0
  -23.2174  -24.2482   23.4564 C   0  0  0  0  0  0  0  0  0  0  0  0
  -22.3387  -25.4169   23.0054 C   0  0  0  0  0  0  0  0  0  0  0  0
  -22.8254  -22.9512   22.7425 C   0  0  0  0  0  0  0  0  0  0  0  0
  -23.6574  -29.7128   20.4732 C   0  0  0  0  0  0  0  0  0  0  0  0
  -22.7032  -26.7041   23.7484 C   0  0  0  0  0  0  0  0  0  0  0  0
  -23.6700  -21.7662   23.1949 C   0  0  0  0  0  0  0  0  0  1  0  0
  -23.6289  -28.9640   21.8341 C   0  0  2  0  0  0  0  0  0  0  0  0
  -22.7631  -13.1782   21.1564 C   0  0  1  0  0  0  0  0  0  0  0  0
  -19.9518  -12.3251   23.5520 C   0  0  2  0  0  0  0  0  0  0  0  0
  -22.8525  -29.0331   19.3455 C   0  0  0  0  0  0  0  0  0  0  0  0
  -22.8814  -12.4611   19.7819 C   0  0  0  0  0  0  0  0  0  0  0  0
  -28.2269  -26.5087   20.3642 N   0  0  0  0  0  0  0  0  0  0  0  0
  -21.8717  -27.8712   23.2809 N   0  0  0  0  0  0  0  0  0  0  0  0
  -28.1898  -27.7899   19.9600 N   0  0  0  0  0  0  0  0  0  0  0  0
  -21.2676  -29.6844   22.2797 N   0  3  0  0  0  0  0  0  0  0  0  0
  -24.5513  -14.5629   22.1607 N   0  0  0  0  0  0  0  0  0  0  0  0
  -25.9349  -29.2891   22.6613 N   0  0  0  0  0  0  0  0  0  0  0  0
  -28.7481  -29.2178   18.1544 N   0  0  0  0  0  0  0  0  0  0  0  0
  -30.0740  -25.1483   16.7131 N   0  0  0  0  0  0  0  0  0  0  0  0
  -27.7595  -14.0645   21.2503 N   0  0  0  0  0  0  0  0  0  0  0  0
  -21.8400  -12.5377   22.0870 N   0  0  0  0  0  0  0  0  0  0  0  0
  -19.3723  -13.1358   24.6601 N   0  3  0  0  0  0  0  0  0  0  0  0
  -29.9601  -27.3719   16.1643 O   0  0  0  0  0  0  0  0  0  0  0  0
  -26.6030  -16.0422   20.8332 O   0  0  0  0  0  0  0  0  0  0  0  0
  -24.1646  -30.4991   23.5570 O   0  0  0  0  0  0  0  0  0  0  0  0
  -24.6877  -12.2354   22.1729 O   0  0  0  0  0  0  0  0  0  0  0  0
  -20.4576  -14.3764   22.3798 O   0  0  0  0  0  0  0  0  0  0  0  0
  -29.6365  -20.3565   19.5206 O   0  0  0  0  0  0  0  0  0  0  0  0
  -23.2526  -20.5829   22.5153 O   0  0  0  0  0  0  0  0  0  1  0  0
  -28.2857  -17.4080   15.0613 F   0  0  0  0  0  0  0  0  0  0  0  0
  -27.7485  -18.3426   19.6703 F   0  0  0  0  0  0  0  0  0  0  0  0
  1  2  1  0  0  0  0
  1  5  2  0  0  0  0
  2  6  2  0  0  0  0
  3  8  2  0  0  0  0
  3 16  1  0  0  0  0
  4  9  1  0  0  0  0
  4 16  2  0  0  0  0
  5 18  1  0  0  0  0
  6 20  1  0  0  0  0
  7 10  2  0  0  0  0
  7 19  1  0  0  0  0
  8 22  1  0  0  0  0
  9 22  2  0  0  0  0
 10 23  1  0  0  0  0
 11 12  2  0  0  0  0
 11 24  1  0  0  0  0
 12 25  1  0  0  0  0
 13 21  1  0  0  0  0
 13 23  2  0  0  0  0
 14 25  2  0  0  0  0
 14 26  1  0  0  0  0
 15 28  2  0  0  0  0
 15 68  1  0  0  0  0
 16 27  1  0  0  0  0
 17 27  1  0  0  0  0
 17 29  2  0  0  0  0
 17 31  1  0  0  0  0
 18 20  2  0  0  0  0
 18 36  1  0  0  0  0
 19 21  2  0  0  0  0
 19 37  1  0  0  0  0
 20 45  1  0  0  0  0
 21 38  1  0  0  0  0
 22 83  1  0  0  0  0
 23 84  1  0  0  0  0
 24 26  2  0  0  0  0
 24 83  1  0  0  0  0
 25 85  1  0  0  0  0
 26 86  1  0  0  0  0
 27 67  2  0  0  0  0
 28 48  1  0  0  0  0
 28 70  1  0  0  0  0
 29 69  1  0  0  0  0
 29 73  1  0  0  0  0
 30 62  1  0  0  0  0
 30 68  1  0  0  0  0
 30 70  2  0  0  0  0
 31 74  1  0  0  0  0
 31 78  2  0  0  0  0
 32 46  1  0  0  0  0
 32 75  1  0  0  0  0
 32 79  2  0  0  0  0
 33 62  1  0  0  0  0
 33 72  1  0  0  0  0
 33 80  2  0  0  0  0
 34 63  1  0  0  0  0
 34 71  1  0  0  0  0
 34 81  2  0  0  0  0
 35 64  1  0  0  0  0
 35 76  1  0  0  0  0
 35 82  2  0  0  0  0
 36 39  1  0  0  0  0
 37 46  1  0  0  0  0
 38 71  1  0  0  0  0
 39 41  1  0  0  0  0
 40 42  1  0  0  0  0
 40 43  1  0  0  0  0
 41 45  1  0  0  0  0
 42 47  1  0  0  0  0
 43 72  1  0  0  0  0
 44 47  1  0  0  0  0
 44 72  1  0  0  0  0
 45 75  1  0  0  0  0
 46 71  1  0  0  0  0
 47 69  1  0  0  0  0
 49 64  1  0  0  0  0
 50 65  1  0  0  0  0
 51 65  1  0  0  0  0
 52 66  1  0  0  0  0
 53 66  1  0  0  0  0
 54 66  1  0  0  0  0
 55 77  1  0  0  0  0
 56 57  1  0  0  0  0
 56 58  1  0  0  0  0
 57 60  1  0  0  0  0
 58 61  1  0  0  0  0
 59 62  1  0  0  0  0
 59 65  1  0  0  0  0
 60 68  1  0  0  0  0
 61 84  1  0  0  0  0
 63 66  1  0  0  0  0
 63 76  1  0  0  0  0
 64 77  1  0  0  0  0
 67 69  1  0  0  0  0
M  CHG  2  70   1  77   1
M  ISO  4  33 100  61 101  62 100  84 101
M  END
> <Batch ID>
0078

> <Smiles>
CNC(C)C(=O)NC(C(=O)N1Cc2cc([101O:1][101CH2:1]CCCCn3cc(C)nc3[100CH:0](CC(C)C)[100C:0](=O)N3CCCC(n4nc(-c5ccc(Oc6ccc(F)cc6F)cc5)c(C(N)=O)c4N)C3)ccc2CC1C(=O)NC1CCCc2ccccc21)C(C)(C)C

> <Shape>
0.258

> <Color>
0.088

> <Negative vol penalty>
0.000

$$$$

  -OEChem-04052318393D

 84 92  0     1  0  0  0  0  0999 V2000
  -17.0899  -29.6825   24.4583 C   0  0  0  0  0  0  0  0  0  0  0  0
  -17.5621  -28.4026   24.1857 C   0  0  0  0  0  0  0  0  0  0  0  0
  -26.6696  -12.3213   21.2378 C   0  0  0  0  0  0  0  0  0  0  0  0
  -25.5147  -13.6145   19.5553 C   0  0  0  0  0  0  0  0  0  0  0  0
  -17.5833  -30.7732   23.7436 C   0  0  0  0  0  0  0  0  0  0  0  0
  -18.5274  -28.2126   23.1975 C   0  0  0  0  0  0  0  0  0  0  0  0
  -23.0481  -24.0812   23.2128 C   0  0  0  0  0  0  0  0  0  0  0  0
  -25.4535  -12.0517   21.8654 C   0  0  0  0  0  0  0  0  0  0  0  0
  -24.2986  -13.3449   20.1829 C   0  0  0  0  0  0  0  0  0  0  0  0
  -23.1778  -22.8304   22.6106 C   0  0  0  0  0  0  0  0  0  0  0  0
  -22.6145  -10.7234   23.7068 C   0  0  0  0  0  0  0  0  0  0  0  0
  -22.3744   -9.4130   24.1199 C   0  0  0  0  0  0  0  0  0  0  0  0
  -24.3580  -23.8465   20.7684 C   0  0  0  0  0  0  0  0  0  0  0  0
  -22.5894   -8.6537   21.8364 C   0  0  0  0  0  0  0  0  0  0  0  0
  -26.5064  -20.2343   19.4297 C   0  0  0  0  0  0  0  0  0  0  0  0
  -26.7003  -13.1027   20.0828 C   0  0  0  0  0  0  0  0  0  0  0  0
  -28.5786  -12.6240   18.4243 C   0  0  0  0  0  0  0  0  0  0  0  0
  -18.5621  -30.5976   22.7528 C   0  0  0  0  0  0  0  0  0  0  0  0
  -23.5637  -25.2274   22.5910 C   0  0  0  0  0  0  0  0  0  0  0  0
  -19.0333  -29.3018   22.4680 C   0  0  0  0  0  0  0  0  0  0  0  0
  -24.2358  -25.1103   21.3660 C   0  0  0  0  0  0  0  0  0  0  0  0
  -24.2680  -12.5635   21.3380 C   0  0  0  0  0  0  0  0  0  0  0  0
  -23.8303  -22.7133   21.3868 C   0  0  0  0  0  0  0  0  0  0  0  0
  -22.8420  -10.9990   22.3585 C   0  0  0  0  0  0  0  0  0  0  0  0
  -22.3618   -8.3781   23.1848 C   0  0  0  0  0  0  0  0  0  0  0  0
  -22.8295   -9.9642   21.4233 C   0  0  0  0  0  0  0  0  0  0  0  0
  -27.9563  -13.3820   19.4343 C   0  0  0  0  0  0  0  0  0  0  0  0
  -26.2299  -19.6472   20.6476 C   0  0  0  0  0  0  0  0  0  0  0  0
  -27.8272  -20.5722   19.2161 C   0  0  0  0  0  0  0  0  0  0  0  0
  -29.7393  -13.3051   18.1498 C   0  0  0  0  0  0  0  0  0  0  0  0
  -28.4139  -19.7790   21.2640 C   0  0  0  0  0  0  0  0  0  0  0  0
  -28.1461  -11.4127   17.7908 C   0  0  0  0  0  0  0  0  0  0  0  0
  -22.3124  -27.9243   21.4663 C   0  0  0  0  0  0  0  0  0  0  0  0
  -25.4245  -28.7303   21.0338 C   0  0  0  0  0  0  0  0  0  0  0  0
  -28.6492  -27.7032   20.5938 C   0  0  0  0  0  0  0  0  0  0  0  0
  -31.3532  -19.0354   18.7897 C   0  0  0  0  0  0  0  0  0  0  0  0
  -19.0307  -31.8012   21.9740 C   0  0  0  0  0  0  0  0  0  0  0  0
  -23.4390  -26.5656   23.2665 C   0  0  0  0  0  0  0  0  0  0  0  0
  -24.8249  -26.3073   20.6670 C   0  0  0  0  0  0  0  0  0  0  0  0
  -20.3252  -31.5606   21.2015 C   0  0  0  0  0  0  0  0  0  0  0  0
  -32.9625  -16.1882   20.1967 C   0  0  0  0  0  0  0  0  0  0  0  0
  -20.2600  -30.2346   20.4503 C   0  0  0  0  0  0  0  0  0  0  0  0
  -31.9181  -15.0777   20.0697 C   0  0  0  0  0  0  0  0  0  0  0  0
  -32.3175  -17.5364   20.5100 C   0  0  0  0  0  0  0  0  0  0  0  0
  -30.2066  -16.8341   19.4496 C   0  0  0  0  0  0  0  0  0  0  0  0
  -20.0981  -29.0582   21.4205 C   0  0  1  0  0  0  0  0  0  0  0  0
  -23.5510  -27.7374   22.2961 C   0  0  1  0  0  0  0  0  0  0  0  0
  -30.8044  -15.4661   19.0788 C   0  0  2  0  0  0  0  0  0  0  0  0
  -29.4731  -19.5260   22.2824 C   0  0  0  0  0  0  0  0  0  0  0  0
  -30.9676  -28.5923   20.2308 C   0  0  0  0  0  0  0  0  0  0  0  0
  -24.7323  -29.3409   18.1256 C   0  0  0  0  0  0  0  0  0  0  0  0
  -27.1809  -29.2934   17.6056 C   0  0  0  0  0  0  0  0  0  0  0  0
  -26.2785  -30.9883   19.1980 C   0  0  0  0  0  0  0  0  0  0  0  0
  -27.1227  -21.4205   16.9925 C   0  0  0  0  0  0  0  0  0  0  0  0
  -29.6377  -26.4744   23.0982 C   0  0  0  0  0  0  0  0  0  0  0  0
  -24.8128  -19.2423   20.9737 C   0  0  0  0  0  0  0  0  0  0  0  0
  -30.2725  -20.4239   17.0394 C   0  0  0  0  0  0  0  0  0  0  0  0
  -29.5169  -21.5690   17.6957 C   0  0  0  0  0  0  0  0  0  0  0  0
  -24.0337  -20.3595   21.6591 C   0  0  0  0  0  0  0  0  0  1  0  0
  -26.4253  -28.5684   19.9153 C   0  0  1  0  0  0  0  0  0  0  0  0
  -29.9437  -28.1358   21.2583 C   0  0  2  0  0  0  0  0  0  0  0  0
  -26.1416  -29.5253   18.7231 C   0  0  0  0  0  0  0  0  0  0  0  0
  -28.6632  -14.4618   19.7782 N   0  0  0  0  0  0  0  0  0  0  0  0
  -27.1627  -19.4039   21.5915 N   0  0  0  0  0  0  0  0  0  0  0  0
  -28.8105  -20.3584   20.1148 N   0  0  0  0  0  0  0  0  0  0  0  0
  -29.7418  -14.3872   18.9800 N   0  0  0  0  0  0  0  0  0  0  0  0
  -24.6716  -27.5947   21.3645 N   0  0  0  0  0  0  0  0  0  0  0  0
  -31.2713  -17.8461   19.5325 N   0  0  0  0  0  0  0  0  0  0  0  0
  -30.7479  -13.0778   17.2818 N   0  0  0  0  0  0  0  0  0  0  0  0
  -26.9285  -10.8466   18.1925 N   0  0  0  0  0  0  0  0  0  0  0  0
  -21.3634  -28.7430   22.0483 N   0  0  0  0  0  0  0  0  0  0  0  0
  -27.7427  -28.7395   20.5183 N   0  0  0  0  0  0  0  0  0  0  0  0
  -30.3242  -19.2490   17.8807 N   0  0  0  0  0  0  0  0  0  0  0  0
  -28.1533  -21.1774   17.9776 N   0  0  3  0  0  0  0  0  0  0  0  0
  -30.5291  -27.0072   22.0359 N   0  3  0  0  0  0  0  0  0  0  0  0
  -28.8272  -10.8402   16.9067 O   0  0  0  0  0  0  0  0  0  0  0  0
  -22.2247  -27.3681   20.3779 O   0  0  0  0  0  0  0  0  0  0  0  0
  -25.3199  -29.8221   21.5984 O   0  0  0  0  0  0  0  0  0  0  0  0
  -28.4623  -26.5613   20.1795 O   0  0  0  0  0  0  0  0  0  0  0  0
  -32.2779  -19.8443   18.9226 O   0  0  0  0  0  0  0  0  0  0  0  0
  -23.0810  -12.3004   21.9500 O   0  0  0  0  0  0  0  0  0  0  0  0
  -23.9577  -21.4938   20.7966 O   0  0  0  0  0  0  0  0  0  1  0  0
  -22.1328   -7.1195   23.5818 F   0  0  0  0  0  0  0  0  0  0  0  0
  -23.0486  -10.2226   20.1268 F   0  0  0  0  0  0  0  0  0  0  0  0
  1  2  1  0  0  0  0
  1  5  2  0  0  0  0
  2  6  2  0  0  0  0
  3  8  2  0  0  0  0
  3 16  1  0  0  0  0
  4  9  1  0  0  0  0
  4 16  2  0  0  0  0
  5 18  1  0  0  0  0
  6 20  1  0  0  0  0
  7 10  2  0  0  0  0
  7 19  1  0  0  0  0
  8 22  1  0  0  0  0
  9 22  2  0  0  0  0
 10 23  1  0  0  0  0
 11 12  2  0  0  0  0
 11 24  1  0  0  0  0
 12 25  1  0  0  0  0
 13 21  1  0  0  0  0
 13 23  2  0  0  0  0
 14 25  2  0  0  0  0
 14 26  1  0  0  0  0
 15 28  1  0  0  0  0
 15 29  2  0  0  0  0
 16 27  1  0  0  0  0
 17 27  1  0  0  0  0
 17 30  2  0  0  0  0
 17 32  1  0  0  0  0
 18 20  2  0  0  0  0
 18 37  1  0  0  0  0
 19 21  2  0  0  0  0
 19 38  1  0  0  0  0
 20 46  1  0  0  0  0
 21 39  1  0  0  0  0
 22 81  1  0  0  0  0
 23 82  1  0  0  0  0
 24 26  2  0  0  0  0
 24 81  1  0  0  0  0
 25 83  1  0  0  0  0
 26 84  1  0  0  0  0
 27 63  2  0  0  0  0
 28 56  1  0  0  0  0
 28 64  2  0  0  0  0
 29 65  1  0  0  0  0
 29 74  1  0  0  0  0
 30 66  1  0  0  0  0
 30 69  1  0  0  0  0
 31 49  1  0  0  0  0
 31 64  1  0  0  0  0
 31 65  2  0  0  0  0
 32 70  1  0  0  0  0
 32 76  2  0  0  0  0
 33 47  1  0  0  0  0
 33 71  1  0  0  0  0
 33 77  2  0  0  0  0
 34 60  1  0  0  0  0
 34 67  1  0  0  0  0
 34 78  2  0  0  0  0
 35 61  1  0  0  0  0
 35 72  1  0  0  0  0
 35 79  2  0  0  0  0
 36 68  1  0  0  0  0
 36 73  1  0  0  0  0
 36 80  2  0  0  0  0
 37 40  1  0  0  0  0
 38 47  1  0  0  0  0
 39 67  1  0  0  0  0
 40 42  1  0  0  0  0
 41 43  1  0  0  0  0
 41 44  1  0  0  0  0
 42 46  1  0  0  0  0
 43 48  1  0  0  0  0
 44 68  1  0  0  0  0
 45 48  1  0  0  0  0
 45 68  1  0  0  0  0
 46 71  1  0  0  0  0
 47 67  1  0  0  0  0
 48 66  1  0  0  0  0
 50 61  1  0  0  0  0
 51 62  1  0  0  0  0
 52 62  1  0  0  0  0
 53 62  1  0  0  0  0
 54 74  1  0  0  0  0
 55 75  1  0  0  0  0
 56 59  1  0  0  0  0
 57 58  1  0  0  0  0
 57 73  1  0  0  0  0
 58 74  1  0  0  0  0
 59 82  1  0  0  0  0
 60 62  1  0  0  0  0
 60 72  1  0  0  0  0
 61 75  1  0  0  0  0
 63 66  1  0  0  0  0
M  CHG  1  75   1
M  ISO  4  36 100  59 101  73 100  82 101
M  END
> <Batch ID>
0078

> <Smiles>
CNC(C)C(=O)NC(C(=O)N1Cc2cc([101O:1][101CH2:1]Cc3cc(N(C)CC[100NH:0][100C:0](=O)N4CCCC(n5nc(-c6ccc(Oc7ccc(F)cc7F)cc6)c(C(N)=O)c5N)C4)nc(C)n3)ccc2CC1C(=O)NC1CCCc2ccccc21)C(C)(C)C

> <Shape>
0.248

> <Color>
0.087

> <Negative vol penalty>
0.000

$$$$

  -OEChem-04052318393D

 84 92  0     1  0  0  0  0  0999 V2000
  -33.1595  -25.0635   19.0383 C   0  0  0  0  0  0  0  0  0  0  0  0
  -31.9329  -25.4656   18.5218 C   0  0  0  0  0  0  0  0  0  0  0  0
  -26.0825  -12.9539   21.6839 C   0  0  0  0  0  0  0  0  0  0  0  0
  -25.4572  -13.9107   19.5554 C   0  0  0  0  0  0  0  0  0  0  0  0
  -33.3185  -24.9200   20.4150 C   0  0  0  0  0  0  0  0  0  0  0  0
  -30.8685  -25.7359   19.3825 C   0  0  0  0  0  0  0  0  0  0  0  0
  -26.8009  -27.6422   17.3765 C   0  0  0  0  0  0  0  0  0  0  0  0
  -24.9424  -12.1508   21.6579 C   0  0  0  0  0  0  0  0  0  0  0  0
  -24.3170  -13.1076   19.5294 C   0  0  0  0  0  0  0  0  0  0  0  0
  -25.9366  -26.8986   16.5740 C   0  0  0  0  0  0  0  0  0  0  0  0
  -22.3842   -9.5882   21.9797 C   0  0  0  0  0  0  0  0  0  0  0  0
  -22.5292   -8.2447   22.3256 C   0  0  0  0  0  0  0  0  0  0  0  0
  -24.3856  -26.7274   18.4137 C   0  0  0  0  0  0  0  0  0  0  0  0
  -24.0891   -7.9444   20.5052 C   0  0  0  0  0  0  0  0  0  0  0  0
  -25.4006  -22.8795   17.9694 C   0  0  0  0  0  0  0  0  0  0  0  0
  -26.3399  -13.8339   20.6327 C   0  0  0  0  0  0  0  0  0  0  0  0
  -28.7897  -14.3515   20.1447 C   0  0  0  0  0  0  0  0  0  0  0  0
  -32.2513  -25.1768   21.2914 C   0  0  0  0  0  0  0  0  0  0  0  0
  -26.4684  -27.9251   18.7091 C   0  0  0  0  0  0  0  0  0  0  0  0
  -31.0161  -25.6200   20.7765 C   0  0  0  0  0  0  0  0  0  0  0  0
  -25.2462  -27.4769   19.2302 C   0  0  0  0  0  0  0  0  0  0  0  0
  -24.0596  -12.2276   20.5807 C   0  0  0  0  0  0  0  0  0  0  0  0
  -24.7300  -26.4387   17.0934 C   0  0  0  0  0  0  0  0  0  0  0  0
  -23.0915  -10.1098   20.8965 C   0  0  0  0  0  0  0  0  0  0  0  0
  -23.3816   -7.4228   21.5884 C   0  0  0  0  0  0  0  0  0  0  0  0
  -23.9440   -9.2879   20.1593 C   0  0  0  0  0  0  0  0  0  0  0  0
  -27.5172  -14.6641   20.6593 C   0  0  0  0  0  0  0  0  0  0  0  0
  -26.5597  -22.1786   18.1488 C   0  0  0  0  0  0  0  0  0  0  0  0
  -29.5526  -15.4604   20.4181 C   0  0  0  0  0  0  0  0  0  0  0  0
  -25.5166  -21.3350   16.3879 C   0  0  0  0  0  0  0  0  0  0  0  0
  -29.2417  -13.1648   19.4790 C   0  0  0  0  0  0  0  0  0  0  0  0
  -27.7469  -27.2323   21.5356 C   0  0  0  0  0  0  0  0  0  0  0  0
  -25.4228  -29.2101   22.6350 C   0  0  0  0  0  0  0  0  0  0  0  0
  -22.3693  -30.6506   22.1368 C   0  0  0  0  0  0  0  0  0  0  0  0
  -28.1966  -21.2242   21.3074 C   0  0  0  0  0  0  0  0  0  0  0  0
  -32.4808  -25.0130   22.7733 C   0  0  0  0  0  0  0  0  0  0  0  0
  -27.3995  -28.7511   19.5536 C   0  0  0  0  0  0  0  0  0  0  0  0
  -24.8333  -27.7709   20.6484 C   0  0  0  0  0  0  0  0  0  0  0  0
  -31.1834  -24.8910   23.5659 C   0  0  0  0  0  0  0  0  0  0  0  0
  -29.9356  -19.0647   23.5411 C   0  0  0  0  0  0  0  0  0  0  0  0
  -30.2259  -26.0052   23.1703 C   0  0  0  0  0  0  0  0  0  0  0  0
  -29.6278  -17.6638   23.0094 C   0  0  0  0  0  0  0  0  0  0  0  0
  -28.7381  -20.0006   23.3921 C   0  0  0  0  0  0  0  0  0  0  0  0
  -27.8753  -18.6830   21.4965 C   0  0  0  0  0  0  0  0  0  0  0  0
  -29.8352  -25.8900   21.6914 C   0  0  1  0  0  0  0  0  0  0  0  0
  -27.1926  -28.5419   21.0505 C   0  0  1  0  0  0  0  0  0  0  0  0
  -29.0713  -17.7186   21.5739 C   0  0  2  0  0  0  0  0  0  0  0  0
  -24.0973  -18.6992   16.6405 C   0  0  0  0  0  0  0  0  0  0  0  0
  -29.0106  -22.6230   18.5452 C   0  0  0  0  0  0  0  0  0  0  0  0
  -20.7163  -32.1911   23.2285 C   0  0  0  0  0  0  0  0  0  0  0  0
  -24.5728  -26.9620   24.5147 C   0  0  0  0  0  0  0  0  0  0  0  0
  -22.4081  -28.1695   24.8674 C   0  0  0  0  0  0  0  0  0  0  0  0
  -24.5569  -29.2424   25.5415 C   0  0  0  0  0  0  0  0  0  0  0  0
  -22.5573  -32.6081   19.9250 C   0  0  0  0  0  0  0  0  0  0  0  0
  -25.2060  -20.4838   15.2124 C   0  0  0  0  0  0  0  0  0  0  0  0
  -25.1407  -18.9891   15.5733 C   0  0  0  0  0  0  0  0  0  0  0  0
  -23.5979  -23.6835   15.0641 C   0  0  0  0  0  0  0  0  0  0  0  0
  -23.4576  -22.8022   16.3072 C   0  0  0  0  0  0  0  0  0  0  0  0
  -24.4737  -24.9106   15.2892 C   0  0  0  0  0  0  0  0  0  1  0  0
  -27.6230  -22.3058   19.1487 C   0  0  2  0  0  0  0  0  0  0  0  0
  -23.9930  -29.0328   23.0859 C   0  0  1  0  0  0  0  0  0  0  0  0
  -21.8982  -32.0869   22.2772 C   0  0  2  0  0  0  0  0  0  0  0  0
  -23.8911  -28.3443   24.4762 C   0  0  0  0  0  0  0  0  0  0  0  0
  -27.4705  -15.8766   21.2175 N   0  0  0  0  0  0  0  0  0  0  0  0
  -24.7755  -22.3366   16.8728 N   0  0  0  0  0  0  0  0  0  0  0  0
  -28.7231  -16.3356   21.0553 N   0  0  0  0  0  0  0  0  0  0  0  0
  -26.6054  -21.2293   17.1564 N   0  3  0  0  0  0  0  0  0  0  0  0
  -25.7804  -28.5770   21.4363 N   0  0  0  0  0  0  0  0  0  0  0  0
  -28.2597  -20.0081   22.0076 N   0  0  0  0  0  0  0  0  0  0  0  0
  -30.8454  -15.7624   20.1733 N   0  0  0  0  0  0  0  0  0  0  0  0
  -28.3275  -12.1214   19.2793 N   0  0  0  0  0  0  0  0  0  0  0  0
  -29.0999  -27.0737   21.3039 N   0  0  0  0  0  0  0  0  0  0  0  0
  -23.3796  -30.3552   23.0275 N   0  0  0  0  0  0  0  0  0  0  0  0
  -27.7380  -21.1415   19.9984 N   0  0  0  0  0  0  0  0  0  0  0  0
  -21.4839  -32.6280   20.9518 N   0  3  0  0  0  0  0  0  0  0  0  0
  -30.4256  -13.0271   19.0878 O   0  0  0  0  0  0  0  0  0  0  0  0
  -27.0025  -26.4261   22.0810 O   0  0  0  0  0  0  0  0  0  0  0  0
  -26.1920  -29.8915   23.3175 O   0  0  0  0  0  0  0  0  0  0  0  0
  -21.8867  -29.8680   21.3213 O   0  0  0  0  0  0  0  0  0  0  0  0
  -28.5297  -22.3029   21.8098 O   0  0  0  0  0  0  0  0  0  0  0  0
  -22.9471  -11.4440   20.5548 O   0  0  0  0  0  0  0  0  0  0  0  0
  -23.8849  -25.7122   16.3125 O   0  0  0  0  0  0  0  0  0  1  0  0
  -23.5220   -6.1331   21.9216 F   0  0  0  0  0  0  0  0  0  0  0  0
  -24.6271   -9.7836   19.1184 F   0  0  0  0  0  0  0  0  0  0  0  0
  1  2  1  0  0  0  0
  1  5  2  0  0  0  0
  2  6  2  0  0  0  0
  3  8  2  0  0  0  0
  3 16  1  0  0  0  0
  4  9  1  0  0  0  0
  4 16  2  0  0  0  0
  5 18  1  0  0  0  0
  6 20  1  0  0  0  0
  7 10  2  0  0  0  0
  7 19  1  0  0  0  0
  8 22  1  0  0  0  0
  9 22  2  0  0  0  0
 10 23  1  0  0  0  0
 11 12  2  0  0  0  0
 11 24  1  0  0  0  0
 12 25  1  0  0  0  0
 13 21  1  0  0  0  0
 13 23  2  0  0  0  0
 14 25  2  0  0  0  0
 14 26  1  0  0  0  0
 15 28  2  0  0  0  0
 15 65  1  0  0  0  0
 16 27  1  0  0  0  0
 17 27  1  0  0  0  0
 17 29  2  0  0  0  0
 17 31  1  0  0  0  0
 18 20  2  0  0  0  0
 18 36  1  0  0  0  0
 19 21  2  0  0  0  0
 19 37  1  0  0  0  0
 20 45  1  0  0  0  0
 21 38  1  0  0  0  0
 22 81  1  0  0  0  0
 23 82  1  0  0  0  0
 24 26  2  0  0  0  0
 24 81  1  0  0  0  0
 25 83  1  0  0  0  0
 26 84  1  0  0  0  0
 27 64  2  0  0  0  0
 28 60  1  0  0  0  0
 28 67  1  0  0  0  0
 29 66  1  0  0  0  0
 29 70  1  0  0  0  0
 30 55  1  0  0  0  0
 30 65  1  0  0  0  0
 30 67  2  0  0  0  0
 31 71  1  0  0  0  0
 31 76  2  0  0  0  0
 32 46  1  0  0  0  0
 32 72  1  0  0  0  0
 32 77  2  0  0  0  0
 33 61  1  0  0  0  0
 33 68  1  0  0  0  0
 33 78  2  0  0  0  0
 34 62  1  0  0  0  0
 34 73  1  0  0  0  0
 34 79  2  0  0  0  0
 35 69  1  0  0  0  0
 35 74  1  0  0  0  0
 35 80  2  0  0  0  0
 36 39  1  0  0  0  0
 37 46  1  0  0  0  0
 38 68  1  0  0  0  0
 39 41  1  0  0  0  0
 40 42  1  0  0  0  0
 40 43  1  0  0  0  0
 41 45  1  0  0  0  0
 42 47  1  0  0  0  0
 43 69  1  0  0  0  0
 44 47  1  0  0  0  0
 44 69  1  0  0  0  0
 45 72  1  0  0  0  0
 46 68  1  0  0  0  0
 47 66  1  0  0  0  0
 48 56  1  0  0  0  0
 49 60  1  0  0  0  0
 50 62  1  0  0  0  0
 51 63  1  0  0  0  0
 52 63  1  0  0  0  0
 53 63  1  0  0  0  0
 54 75  1  0  0  0  0
 55 56  1  0  0  0  0
 57 58  1  0  0  0  0
 57 59  1  0  0  0  0
 58 65  1  0  0  0  0
 59 82  1  0  0  0  0
 60 74  1  0  0  0  0
 61 63  1  0  0  0  0
 61 73  1  0  0  0  0
 62 75  1  0  0  0  0
 64 66  1  0  0  0  0
M  CHG  2  67   1  75   1
M  ISO  4  35 100  59 101  74 100  82 101
M  END
> <Batch ID>
0078

> <Smiles>
CCCc1nc(C(C)[100NH:0][100C:0](=O)N2CCCC(n3nc(-c4ccc(Oc5ccc(F)cc5F)cc4)c(C(N)=O)c3N)C2)cn1CC[101CH2:1][101O:1]c1ccc2c(c1)CN(C(=O)C(NC(=O)C(C)NC)C(C)(C)C)C(C(=O)NC1CCCc3ccccc31)C2

> <Shape>
0.231

> <Color>
0.052

> <Negative vol penalty>
0.000

$$$$

  -OEChem-04052318393D

 87 95  0     1  0  0  0  0  0999 V2000
  -17.5929  -26.3871   23.3597 C   0  0  0  0  0  0  0  0  0  0  0  0
  -18.9212  -25.9736   23.3772 C   0  0  0  0  0  0  0  0  0  0  0  0
  -28.2313  -11.4838   22.5907 C   0  0  0  0  0  0  0  0  0  0  0  0
  -27.5514  -11.3758   20.2748 C   0  0  0  0  0  0  0  0  0  0  0  0
  -17.2438  -27.5805   22.7291 C   0  0  0  0  0  0  0  0  0  0  0  0
  -19.9009  -26.7529   22.7631 C   0  0  0  0  0  0  0  0  0  0  0  0
  -24.0530  -27.2585   25.6179 C   0  0  0  0  0  0  0  0  0  0  0  0
  -27.2581  -10.5406   22.9204 C   0  0  0  0  0  0  0  0  0  0  0  0
  -26.5782  -10.4326   20.6046 C   0  0  0  0  0  0  0  0  0  0  0  0
  -24.9389  -26.1824   25.6495 C   0  0  0  0  0  0  0  0  0  0  0  0
  -23.4891  -10.4161   21.9788 C   0  0  0  0  0  0  0  0  0  0  0  0
  -22.2153  -10.5821   21.4351 C   0  0  0  0  0  0  0  0  0  0  0  0
  -26.3516  -27.3063   24.0494 C   0  0  0  0  0  0  0  0  0  0  0  0
  -22.3986   -8.4315   20.3494 C   0  0  0  0  0  0  0  0  0  0  0  0
  -25.2036  -23.3712   21.7914 C   0  0  0  0  0  0  0  0  0  0  0  0
  -28.3780  -11.9015   21.2679 C   0  0  0  0  0  0  0  0  0  0  0  0
  -30.7151  -12.6265   20.5470 C   0  0  0  0  0  0  0  0  0  0  0  0
  -18.2212  -28.3797   22.1153 C   0  0  0  0  0  0  0  0  0  0  0  0
  -24.3046  -28.3636   24.7922 C   0  0  0  0  0  0  0  0  0  0  0  0
  -19.5644  -27.9575   22.1225 C   0  0  0  0  0  0  0  0  0  0  0  0
  -25.4686  -28.3963   24.0111 C   0  0  0  0  0  0  0  0  0  0  0  0
  -26.4315  -10.0150   21.9274 C   0  0  0  0  0  0  0  0  0  0  0  0
  -26.0869  -26.2049   24.8630 C   0  0  0  0  0  0  0  0  0  0  0  0
  -24.2177   -9.2580   21.7077 C   0  0  0  0  0  0  0  0  0  0  0  0
  -21.6701   -9.5898   20.6205 C   0  0  0  0  0  0  0  0  0  0  0  0
  -23.6724   -8.2657   20.8930 C   0  0  0  0  0  0  0  0  0  0  0  0
  -29.3827  -12.8762   20.9267 C   0  0  0  0  0  0  0  0  0  0  0  0
  -24.7003  -23.2292   20.5143 C   0  0  0  0  0  0  0  0  0  0  0  0
  -26.1556  -22.4445   22.1643 C   0  0  0  0  0  0  0  0  0  0  0  0
  -31.2500  -13.8730   20.3309 C   0  0  0  0  0  0  0  0  0  0  0  0
  -26.0235  -21.4192   20.1398 C   0  0  0  0  0  0  0  0  0  0  0  0
  -31.4074  -11.3793   20.4024 C   0  0  0  0  0  0  0  0  0  0  0  0
  -22.8076  -29.7151   22.3353 C   0  0  0  0  0  0  0  0  0  0  0  0
  -28.6705  -19.0109   18.8400 C   0  0  0  0  0  0  0  0  0  0  0  0
  -25.1305  -31.9566   22.6553 C   0  0  0  0  0  0  0  0  0  0  0  0
  -28.2678  -32.7427   23.7444 C   0  0  0  0  0  0  0  0  0  0  0  0
  -17.7890  -29.6381   21.4051 C   0  0  0  0  0  0  0  0  0  0  0  0
  -23.3527  -29.5282   24.7897 C   0  0  0  0  0  0  0  0  0  0  0  0
  -25.7950  -29.5680   23.1229 C   0  0  0  0  0  0  0  0  0  0  0  0
  -18.9409  -30.5930   21.1026 C   0  0  0  0  0  0  0  0  0  0  0  0
  -30.8278  -18.4277   21.7093 C   0  0  0  0  0  0  0  0  0  0  0  0
  -20.1210  -29.8335   20.5049 C   0  0  0  0  0  0  0  0  0  0  0  0
  -30.7955  -16.9034   21.8111 C   0  0  0  0  0  0  0  0  0  0  0  0
  -29.4849  -18.9880   21.2479 C   0  0  0  0  0  0  0  0  0  0  0  0
  -28.9653  -16.8794   20.0611 C   0  0  0  0  0  0  0  0  0  0  0  0
  -20.6595  -28.7878   21.4888 C   0  0  1  0  0  0  0  0  0  0  0  0
  -23.4475  -30.3747   23.5240 C   0  0  1  0  0  0  0  0  0  0  0  0
  -30.3102  -16.2724   20.4943 C   0  0  2  0  0  0  0  0  0  0  0  0
  -23.6663  -24.1851   20.0210 C   0  0  0  0  0  0  0  0  0  0  0  0
  -29.9042  -34.6432   23.8315 C   0  0  0  0  0  0  0  0  0  0  0  0
  -28.8787  -22.9705   24.8257 C   0  0  0  0  0  0  0  0  0  0  0  0
  -25.7958  -20.3394   17.8058 C   0  0  0  0  0  0  0  0  0  0  0  0
  -26.1060  -18.9380   19.8297 C   0  0  0  0  0  0  0  0  0  0  0  0
  -25.7560  -31.5503   19.6966 C   0  0  0  0  0  0  0  0  0  0  0  0
  -27.9393  -32.7175   20.0695 C   0  0  0  0  0  0  0  0  0  0  0  0
  -25.7954  -33.9336   20.4535 C   0  0  0  0  0  0  0  0  0  0  0  0
  -28.3129  -32.7209   26.7036 C   0  0  0  0  0  0  0  0  0  0  0  0
  -26.7665  -22.5196   23.5426 C   0  0  0  0  0  0  0  0  0  0  0  0
  -28.4791  -21.2580   17.8225 C   0  0  0  0  0  0  0  0  0  0  0  0
  -27.6903  -24.8895   23.6990 C   0  0  0  0  0  0  0  0  0  1  0  0
  -28.0623  -20.3801   19.0116 C   0  0  1  0  0  0  0  0  0  0  0  0
  -26.5174  -32.1471   22.0904 C   0  0  1  0  0  0  0  0  0  0  0  0
  -28.7870  -33.9128   24.5604 C   0  0  2  0  0  0  0  0  0  0  0  0
  -28.0332  -23.3952   23.6182 C   0  0  1  0  0  0  0  0  0  0  0  0
  -26.4820  -20.3371   19.2218 C   0  0  0  0  0  0  0  0  0  0  0  0
  -26.4952  -32.5640   20.5927 C   0  0  0  0  0  0  0  0  0  0  0  0
  -29.0892  -14.1790   20.9516 N   0  0  0  0  0  0  0  0  0  0  0  0
  -25.0891  -22.2612   19.6587 N   0  0  0  0  0  0  0  0  0  0  0  0
  -26.5904  -21.4515   21.3610 N   0  0  0  0  0  0  0  0  0  0  0  0
  -30.2447  -14.7591   20.5849 N   0  0  0  0  0  0  0  0  0  0  0  0
  -24.8301  -30.6797   23.1503 N   0  0  0  0  0  0  0  0  0  0  0  0
  -29.0445  -18.3419   20.0057 N   0  0  0  0  0  0  0  0  0  0  0  0
  -32.4774  -14.2866   19.9505 N   0  0  0  0  0  0  0  0  0  0  0  0
  -30.7084  -10.1929   20.6637 N   0  0  0  0  0  0  0  0  0  0  0  0
  -21.4683  -29.4219   22.5077 N   0  0  0  0  0  0  0  0  0  0  0  0
  -27.1874  -33.1019   22.9666 N   0  0  0  0  0  0  0  0  0  0  0  0
  -28.2623  -22.6922   18.1568 N   0  3  0  0  0  0  0  0  0  0  0  0
  -29.3133  -33.4373   25.8711 N   0  3  0  0  0  0  0  0  0  0  0  0
  -32.6148  -11.3194   20.0677 O   0  0  0  0  0  0  0  0  0  0  0  0
  -23.4789  -29.4902   21.3350 O   0  0  0  0  0  0  0  0  0  0  0  0
  -28.8108  -18.5527   17.7031 O   0  0  0  0  0  0  0  0  0  0  0  0
  -24.3450  -32.9077   22.6637 O   0  0  0  0  0  0  0  0  0  0  0  0
  -28.7725  -31.6230   23.7896 O   0  0  0  0  0  0  0  0  0  0  0  0
  -25.4819   -9.0944   22.2488 O   0  0  0  0  0  0  0  0  0  0  0  0
  -26.9530  -25.1556   24.8915 O   0  0  0  0  0  0  0  0  0  1  0  0
  -20.4462   -9.7485   20.0998 F   0  0  0  0  0  0  0  0  0  0  0  0
  -24.3671   -7.1503   20.6300 F   0  0  0  0  0  0  0  0  0  0  0  0
  1  2  1  0  0  0  0
  1  5  2  0  0  0  0
  2  6  2  0  0  0  0
  3  8  2  0  0  0  0
  3 16  1  0  0  0  0
  4  9  1  0  0  0  0
  4 16  2  0  0  0  0
  5 18  1  0  0  0  0
  6 20  1  0  0  0  0
  7 10  2  0  0  0  0
  7 19  1  0  0  0  0
  8 22  1  0  0  0  0
  9 22  2  0  0  0  0
 10 23  1  0  0  0  0
 11 12  2  0  0  0  0
 11 24  1  0  0  0  0
 12 25  1  0  0  0  0
 13 21  1  0  0  0  0
 13 23  2  0  0  0  0
 14 25  2  0  0  0  0
 14 26  1  0  0  0  0
 15 28  2  0  0  0  0
 15 29  1  0  0  0  0
 16 27  1  0  0  0  0
 17 27  1  0  0  0  0
 17 30  2  0  0  0  0
 17 32  1  0  0  0  0
 18 20  2  0  0  0  0
 18 37  1  0  0  0  0
 19 21  2  0  0  0  0
 19 38  1  0  0  0  0
 20 46  1  0  0  0  0
 21 39  1  0  0  0  0
 22 84  1  0  0  0  0
 23 85  1  0  0  0  0
 24 26  2  0  0  0  0
 24 84  1  0  0  0  0
 25 86  1  0  0  0  0
 26 87  1  0  0  0  0
 27 67  2  0  0  0  0
 28 49  1  0  0  0  0
 28 68  1  0  0  0  0
 29 58  1  0  0  0  0
 29 69  2  0  0  0  0
 30 70  1  0  0  0  0
 30 73  1  0  0  0  0
 31 65  1  0  0  0  0
 31 68  2  0  0  0  0
 31 69  1  0  0  0  0
 32 74  1  0  0  0  0
 32 79  2  0  0  0  0
 33 47  1  0  0  0  0
 33 75  1  0  0  0  0
 33 80  2  0  0  0  0
 34 61  1  0  0  0  0
 34 72  1  0  0  0  0
 34 81  2  0  0  0  0
 35 62  1  0  0  0  0
 35 71  1  0  0  0  0
 35 82  2  0  0  0  0
 36 63  1  0  0  0  0
 36 76  1  0  0  0  0
 36 83  2  0  0  0  0
 37 40  1  0  0  0  0
 38 47  1  0  0  0  0
 39 71  1  0  0  0  0
 40 42  1  0  0  0  0
 41 43  1  0  0  0  0
 41 44  1  0  0  0  0
 42 46  1  0  0  0  0
 43 48  1  0  0  0  0
 44 72  1  0  0  0  0
 45 48  1  0  0  0  0
 45 72  1  0  0  0  0
 46 75  1  0  0  0  0
 47 71  1  0  0  0  0
 48 70  1  0  0  0  0
 50 63  1  0  0  0  0
 51 64  1  0  0  0  0
 52 65  1  0  0  0  0
 53 65  1  0  0  0  0
 54 66  1  0  0  0  0
 55 66  1  0  0  0  0
 56 66  1  0  0  0  0
 57 78  1  0  0  0  0
 58 64  1  0  0  0  0
 59 61  1  0  0  0  0
 59 77  1  0  0  0  0
 60 64  1  0  0  0  0
 60 85  1  0  0  0  0
 61 65  1  0  0  0  0
 62 66  1  0  0  0  0
 62 76  1  0  0  0  0
 63 78  1  0  0  0  0
 67 70  1  0  0  0  0
M  CHG  2  77   1  78   1
M  ISO  4  34 100  60 101  61 100  85 101
M  END
> <Batch ID>
0078

> <Smiles>
CNC(C)C(=O)NC(C(=O)N1Cc2cc([101O:1][101CH2:1]C(C)Cc3cc(C)nc(C(C)(C)[100CH:0](CN)[100C:0](=O)N4CCCC(n5nc(-c6ccc(Oc7ccc(F)cc7F)cc6)c(C(N)=O)c5N)C4)n3)ccc2CC1C(=O)NC1CCCc2ccccc21)C(C)(C)C

> <Shape>
0.252

> <Color>
0.054

> <Negative vol penalty>
0.000

$$$$

  -OEChem-04052318393D

 85 93  0     1  0  0  0  0  0999 V2000
  -18.8443  -28.6685   22.4400 C   0  0  0  0  0  0  0  0  0  0  0  0
  -20.2305  -28.5714   22.3740 C   0  0  0  0  0  0  0  0  0  0  0  0
  -26.3878  -12.9025   21.6573 C   0  0  0  0  0  0  0  0  0  0  0  0
  -25.9363  -14.2909   19.7323 C   0  0  0  0  0  0  0  0  0  0  0  0
  -18.0732  -27.5188   22.6059 C   0  0  0  0  0  0  0  0  0  0  0  0
  -20.8465  -27.3245   22.4749 C   0  0  0  0  0  0  0  0  0  0  0  0
  -24.5005  -26.6782   19.0288 C   0  0  0  0  0  0  0  0  0  0  0  0
  -25.0644  -12.4619   21.6500 C   0  0  0  0  0  0  0  0  0  0  0  0
  -24.6128  -13.8503   19.7250 C   0  0  0  0  0  0  0  0  0  0  0  0
  -25.7258  -27.2955   19.2766 C   0  0  0  0  0  0  0  0  0  0  0  0
  -21.7110  -11.2461   22.3569 C   0  0  0  0  0  0  0  0  0  0  0  0
  -21.0354  -11.1971   23.5762 C   0  0  0  0  0  0  0  0  0  0  0  0
  -26.6148  -25.1985   20.0711 C   0  0  0  0  0  0  0  0  0  0  0  0
  -21.3693  -13.5734   23.8567 C   0  0  0  0  0  0  0  0  0  0  0  0
  -34.0723  -24.7018   19.3112 C   0  0  0  0  0  0  0  0  0  0  0  0
  -26.8237  -13.8171   20.6985 C   0  0  0  0  0  0  0  0  0  0  0  0
  -29.2832  -13.6949   20.0323 C   0  0  0  0  0  0  0  0  0  0  0  0
  -18.6795  -26.2562   22.6992 C   0  0  0  0  0  0  0  0  0  0  0  0
  -24.3196  -25.3166   19.3110 C   0  0  0  0  0  0  0  0  0  0  0  0
  -20.0828  -26.1569   22.6435 C   0  0  0  0  0  0  0  0  0  0  0  0
  -25.3870  -24.5657   19.8236 C   0  0  0  0  0  0  0  0  0  0  0  0
  -33.2697  -25.7737   18.9777 C   0  0  0  0  0  0  0  0  0  0  0  0
  -24.1769  -12.9358   20.6839 C   0  0  0  0  0  0  0  0  0  0  0  0
  -26.7823  -26.5563   19.8005 C   0  0  0  0  0  0  0  0  0  0  0  0
  -22.2158  -12.4587   21.8874 C   0  0  0  0  0  0  0  0  0  0  0  0
  -20.8646  -12.3607   24.3261 C   0  0  0  0  0  0  0  0  0  0  0  0
  -22.0449  -13.6224   22.6373 C   0  0  0  0  0  0  0  0  0  0  0  0
  -28.1905  -14.2730   20.7059 C   0  0  0  0  0  0  0  0  0  0  0  0
  -31.9110  -25.5592   19.0881 C   0  0  0  0  0  0  0  0  0  0  0  0
  -30.3504  -14.4957   20.3585 C   0  0  0  0  0  0  0  0  0  0  0  0
  -32.2539  -23.4241   19.7888 C   0  0  0  0  0  0  0  0  0  0  0  0
  -29.3294  -12.5375   19.1873 C   0  0  0  0  0  0  0  0  0  0  0  0
  -22.4277  -23.6610   21.2562 C   0  0  0  0  0  0  0  0  0  0  0  0
  -30.6728  -20.2357   22.1077 C   0  0  0  0  0  0  0  0  0  0  0  0
  -23.7377  -21.1161   19.7299 C   0  0  0  0  0  0  0  0  0  0  0  0
  -26.3483  -19.8408   17.9395 C   0  0  0  0  0  0  0  0  0  0  0  0
  -17.8070  -25.0469   22.9253 C   0  0  0  0  0  0  0  0  0  0  0  0
  -22.9998  -24.6594   19.0130 C   0  0  0  0  0  0  0  0  0  0  0  0
  -25.2504  -23.0963   20.1249 C   0  0  0  0  0  0  0  0  0  0  0  0
  -18.5161  -23.7238   22.6480 C   0  0  0  0  0  0  0  0  0  0  0  0
  -31.9690  -17.3656   23.8170 C   0  0  0  0  0  0  0  0  0  0  0  0
  -19.8959  -23.7111   23.2982 C   0  0  0  0  0  0  0  0  0  0  0  0
  -31.2254  -16.1971   23.1714 C   0  0  0  0  0  0  0  0  0  0  0  0
  -31.0831  -18.6032   23.9190 C   0  0  0  0  0  0  0  0  0  0  0  0
  -29.7485  -17.8697   21.9690 C   0  0  0  0  0  0  0  0  0  0  0  0
  -20.7865  -24.8196   22.7242 C   0  0  1  0  0  0  0  0  0  0  0  0
  -22.7713  -23.3849   19.8198 C   0  0  1  0  0  0  0  0  0  0  0  0
  -30.6174  -16.6084   21.8189 C   0  0  2  0  0  0  0  0  0  0  0  0
  -33.8555  -27.0637   18.5326 C   0  0  0  0  0  0  0  0  0  0  0  0
  -27.1506  -17.7195   16.8654 C   0  0  0  0  0  0  0  0  0  0  0  0
  -29.6073  -29.7152   20.8146 C   0  0  0  0  0  0  0  0  0  0  0  0
  -24.4740  -20.0072   22.4755 C   0  0  0  0  0  0  0  0  0  0  0  0
  -26.0583  -18.4366   21.3391 C   0  0  0  0  0  0  0  0  0  0  0  0
  -23.6140  -18.3039   20.8588 C   0  0  0  0  0  0  0  0  0  0  0  0
  -26.3945  -21.0818   15.2531 C   0  0  0  0  0  0  0  0  0  0  0  0
  -30.9360  -26.6602   18.7536 C   0  0  0  0  0  0  0  0  0  0  0  0
  -30.0541  -20.5145   20.7610 C   0  0  0  0  0  0  0  0  0  0  0  0
  -30.7596  -27.6982   19.8706 C   0  0  0  0  0  0  0  0  0  0  0  0
  -30.3157  -21.9511   20.3357 C   0  0  0  0  0  0  0  0  0  0  0  0
  -28.3367  -28.2556   19.2068 C   0  0  0  0  0  0  0  0  0  1  0  0
  -24.9522  -20.2468   19.9496 C   0  0  1  0  0  0  0  0  0  0  0  0
  -26.3888  -19.0201   16.6631 C   0  0  2  0  0  0  0  0  0  0  0  0
  -29.7191  -28.8039   19.5857 C   0  0  1  0  0  0  0  0  0  0  0  0
  -24.7769  -19.2767   21.1520 C   0  0  0  0  0  0  0  0  0  0  0  0
  -33.5963  -23.5081   19.7221 N   0  0  0  0  0  0  0  0  0  0  0  0
  -28.5322  -15.3573   21.4071 N   0  0  0  0  0  0  0  0  0  0  0  0
  -31.3665  -24.3926   19.4918 N   0  0  0  0  0  0  0  0  0  0  0  0
  -29.8515  -15.4667   21.1760 N   0  0  0  0  0  0  0  0  0  0  0  0
  -23.9385  -22.5007   19.8223 N   0  0  0  0  0  0  0  0  0  0  0  0
  -30.5068  -18.9481   22.6182 N   0  0  0  0  0  0  0  0  0  0  0  0
  -31.6574  -14.4568   20.0229 N   0  0  0  0  0  0  0  0  0  0  0  0
  -28.1413  -11.8305   18.9570 N   0  0  0  0  0  0  0  0  0  0  0  0
  -31.7199  -22.1886   20.2161 N   0  0  0  0  0  0  0  0  0  0  0  0
  -21.2965  -24.4364   21.4251 N   0  0  0  0  0  0  0  0  0  0  0  0
  -25.2132  -19.5811   18.6779 N   0  0  0  0  0  0  0  0  0  0  0  0
  -27.0534  -19.7894   15.5734 N   0  3  0  0  0  0  0  0  0  0  0  0
  -30.3958  -12.1325   18.6655 O   0  0  0  0  0  0  0  0  0  0  0  0
  -23.1357  -23.2031   22.1455 O   0  0  0  0  0  0  0  0  0  0  0  0
  -31.2873  -21.1359   22.6857 O   0  0  0  0  0  0  0  0  0  0  0  0
  -22.6525  -20.5865   19.4782 O   0  0  0  0  0  0  0  0  0  0  0  0
  -27.2367  -20.6305   18.2522 O   0  0  0  0  0  0  0  0  0  0  0  0
  -22.8855  -12.5059   20.6763 O   0  0  0  0  0  0  0  0  0  0  0  0
  -27.9791  -27.1566   20.0439 O   0  0  0  0  0  0  0  0  0  1  0  0
  -20.2145  -12.3138   25.4963 F   0  0  0  0  0  0  0  0  0  0  0  0
  -22.5266  -14.7905   22.1910 F   0  0  0  0  0  0  0  0  0  0  0  0
  1  2  1  0  0  0  0
  1  5  2  0  0  0  0
  2  6  2  0  0  0  0
  3  8  2  0  0  0  0
  3 16  1  0  0  0  0
  4  9  1  0  0  0  0
  4 16  2  0  0  0  0
  5 18  1  0  0  0  0
  6 20  1  0  0  0  0
  7 10  2  0  0  0  0
  7 19  1  0  0  0  0
  8 23  1  0  0  0  0
  9 23  2  0  0  0  0
 10 24  1  0  0  0  0
 11 12  2  0  0  0  0
 11 25  1  0  0  0  0
 12 26  1  0  0  0  0
 13 21  1  0  0  0  0
 13 24  2  0  0  0  0
 14 26  2  0  0  0  0
 14 27  1  0  0  0  0
 15 22  1  0  0  0  0
 15 65  2  0  0  0  0
 16 28  1  0  0  0  0
 17 28  1  0  0  0  0
 17 30  2  0  0  0  0
 17 32  1  0  0  0  0
 18 20  2  0  0  0  0
 18 37  1  0  0  0  0
 19 21  2  0  0  0  0
 19 38  1  0  0  0  0
 20 46  1  0  0  0  0
 21 39  1  0  0  0  0
 22 29  2  0  0  0  0
 22 49  1  0  0  0  0
 23 82  1  0  0  0  0
 24 83  1  0  0  0  0
 25 27  2  0  0  0  0
 25 82  1  0  0  0  0
 26 84  1  0  0  0  0
 27 85  1  0  0  0  0
 28 66  2  0  0  0  0
 29 56  1  0  0  0  0
 29 67  1  0  0  0  0
 30 68  1  0  0  0  0
 30 71  1  0  0  0  0
 31 65  1  0  0  0  0
 31 67  2  0  0  0  0
 31 73  1  0  0  0  0
 32 72  1  0  0  0  0
 32 77  2  0  0  0  0
 33 47  1  0  0  0  0
 33 74  1  0  0  0  0
 33 78  2  0  0  0  0
 34 57  1  0  0  0  0
 34 70  1  0  0  0  0
 34 79  2  0  0  0  0
 35 61  1  0  0  0  0
 35 69  1  0  0  0  0
 35 80  2  0  0  0  0
 36 62  1  0  0  0  0
 36 75  1  0  0  0  0
 36 81  2  0  0  0  0
 37 40  1  0  0  0  0
 38 47  1  0  0  0  0
 39 69  1  0  0  0  0
 40 42  1  0  0  0  0
 41 43  1  0  0  0  0
 41 44  1  0  0  0  0
 42 46  1  0  0  0  0
 43 48  1  0  0  0  0
 44 70  1  0  0  0  0
 45 48  1  0  0  0  0
 45 70  1  0  0  0  0
 46 74  1  0  0  0  0
 47 69  1  0  0  0  0
 48 68  1  0  0  0  0
 50 62  1  0  0  0  0
 51 63  1  0  0  0  0
 52 64  1  0  0  0  0
 53 64  1  0  0  0  0
 54 64  1  0  0  0  0
 55 76  1  0  0  0  0
 56 58  1  0  0  0  0
 57 59  1  0  0  0  0
 58 63  1  0  0  0  0
 59 73  1  0  0  0  0
 60 63  1  0  0  0  0
 60 83  1  0  0  0  0
 61 64  1  0  0  0  0
 61 75  1  0  0  0  0
 62 76  1  0  0  0  0
 66 68  1  0  0  0  0
M  CHG  1  76   1
M  ISO  4  34 100  57 100  60 101  83 101
M  END
> <Batch ID>
0078

> <Smiles>
CNC(C)C(=O)NC(C(=O)N1Cc2cc([101O:1][101CH2:1]C(C)CCc3nc(NC[100CH2:0][100C:0](=O)N4CCCC(n5nc(-c6ccc(Oc7ccc(F)cc7F)cc6)c(C(N)=O)c5N)C4)ncc3C)ccc2CC1C(=O)NC1CCCc2ccccc21)C(C)(C)C

> <Shape>
0.222

> <Color>
0.064

> <Negative vol penalty>
0.000

$$$$

  -OEChem-04052318393D

 83 91  0     1  0  0  0  0  0999 V2000
  -25.0170  -28.9716   20.3212 C   0  0  0  0  0  0  0  0  0  0  0  0
  -24.7623  -27.9137   19.4544 C   0  0  0  0  0  0  0  0  0  0  0  0
  -20.7781  -22.7976   21.7340 C   0  0  0  0  0  0  0  0  0  0  0  0
  -23.1749  -23.0834   21.6292 C   0  0  0  0  0  0  0  0  0  0  0  0
  -26.2146  -29.0144   21.0339 C   0  0  0  0  0  0  0  0  0  0  0  0
  -25.7055  -26.8985   19.2989 C   0  0  0  0  0  0  0  0  0  0  0  0
  -26.1787  -19.8630   18.0366 C   0  0  0  0  0  0  0  0  0  0  0  0
  -20.6601  -24.0259   22.3844 C   0  0  0  0  0  0  0  0  0  0  0  0
  -23.0568  -24.3118   22.2795 C   0  0  0  0  0  0  0  0  0  0  0  0
  -26.8114  -18.9624   17.1808 C   0  0  0  0  0  0  0  0  0  0  0  0
  -20.6844  -27.3013   21.5452 C   0  0  0  0  0  0  0  0  0  0  0  0
  -19.6830  -28.1704   21.1123 C   0  0  0  0  0  0  0  0  0  0  0  0
  -28.8108  -19.1006   18.5234 C   0  0  0  0  0  0  0  0  0  0  0  0
  -27.0315  -15.0398   18.4201 C   0  0  0  0  0  0  0  0  0  0  0  0
  -18.6913  -28.1250   23.3150 C   0  0  0  0  0  0  0  0  0  0  0  0
  -28.1872  -12.8838   19.6292 C   0  0  0  0  0  0  0  0  0  0  0  0
  -22.0355  -22.3264   21.3565 C   0  0  0  0  0  0  0  0  0  0  0  0
  -22.1256  -20.8232   19.2973 C   0  0  0  0  0  0  0  0  0  0  0  0
  -27.1688  -27.9943   20.8945 C   0  0  0  0  0  0  0  0  0  0  0  0
  -26.8620  -20.3984   19.1379 C   0  0  0  0  0  0  0  0  0  0  0  0
  -26.9175  -26.9285   20.0094 C   0  0  0  0  0  0  0  0  0  0  0  0
  -28.1836  -20.0058   19.3932 C   0  0  0  0  0  0  0  0  0  0  0  0
  -28.0386  -14.3455   17.7589 C   0  0  0  0  0  0  0  0  0  0  0  0
  -28.6326  -13.2458   18.3681 C   0  0  0  0  0  0  0  0  0  0  0  0
  -21.7994  -24.7830   22.6571 C   0  0  0  0  0  0  0  0  0  0  0  0
  -28.1286  -18.5833   17.4225 C   0  0  0  0  0  0  0  0  0  0  0  0
  -20.6892  -26.8439   22.8630 C   0  0  0  0  0  0  0  0  0  0  0  0
  -18.6865  -28.5823   21.9972 C   0  0  0  0  0  0  0  0  0  0  0  0
  -19.6927  -27.2558   23.7479 C   0  0  0  0  0  0  0  0  0  0  0  0
  -22.1582  -21.0574   20.6851 C   0  0  0  0  0  0  0  0  0  0  0  0
  -26.6576  -14.5973   19.6787 C   0  0  0  0  0  0  0  0  0  0  0  0
  -22.2832  -19.4643   19.1747 C   0  0  0  0  0  0  0  0  0  0  0  0
  -21.9672  -21.7510   18.2158 C   0  0  0  0  0  0  0  0  0  0  0  0
  -27.7239  -23.3226   20.0377 C   0  0  0  0  0  0  0  0  0  0  0  0
  -28.6594  -21.7931   22.7409 C   0  0  0  0  0  0  0  0  0  0  0  0
  -29.6468  -18.8858   24.2308 C   0  0  0  0  0  0  0  0  0  0  0  0
  -25.1006  -15.0478   21.6072 C   0  0  0  0  0  0  0  0  0  0  0  0
  -28.4690  -28.1083   21.6501 C   0  0  0  0  0  0  0  0  0  0  0  0
  -26.1566  -21.3482   20.0668 C   0  0  0  0  0  0  0  0  0  0  0  0
  -28.9545  -20.5361   20.5734 C   0  0  0  0  0  0  0  0  0  0  0  0
  -29.2543  -26.8007   21.7117 C   0  0  0  0  0  0  0  0  0  0  0  0
  -21.6306  -15.5943   22.1881 C   0  0  0  0  0  0  0  0  0  0  0  0
  -29.3110  -26.1466   20.3349 C   0  0  0  0  0  0  0  0  0  0  0  0
  -21.4079  -17.0357   21.7244 C   0  0  0  0  0  0  0  0  0  0  0  0
  -22.9893  -15.4194   22.8640 C   0  0  0  0  0  0  0  0  0  0  0  0
  -23.9156  -17.3306   21.6156 C   0  0  0  0  0  0  0  0  0  0  0  0
  -27.9053  -25.7957   19.8326 C   0  0  1  0  0  0  0  0  0  0  0  0
  -27.1155  -22.2259   20.8651 C   0  0  1  0  0  0  0  0  0  0  0  0
  -22.5873  -17.5415   20.8707 C   0  0  2  0  0  0  0  0  0  0  0  0
  -29.3145  -11.0015   17.4452 C   0  0  0  0  0  0  0  0  0  0  0  0
  -31.0414  -12.5128   18.4886 C   0  0  0  0  0  0  0  0  0  0  0  0
  -30.3800  -17.9564   26.4435 C   0  0  0  0  0  0  0  0  0  0  0  0
  -31.4022  -23.0771   22.3686 C   0  0  0  0  0  0  0  0  0  0  0  0
  -32.3249  -21.4129   23.9957 C   0  0  0  0  0  0  0  0  0  0  0  0
  -30.5806  -23.0378   24.7304 C   0  0  0  0  0  0  0  0  0  0  0  0
  -27.3603  -17.0094   24.3314 C   0  0  0  0  0  0  0  0  0  0  0  0
  -28.4688  -14.8004   16.3872 C   0  0  0  0  0  0  0  0  0  0  0  0
  -29.7984  -15.5578   16.3782 C   0  0  0  0  0  0  0  0  0  0  0  0
  -29.7530  -16.8665   17.1583 C   0  0  0  0  0  0  0  0  0  1  0  0
  -29.7152  -12.4668   17.7049 C   0  0  0  0  0  0  0  0  0  0  0  0
  -29.9317  -21.1274   23.2068 C   0  0  1  0  0  0  0  0  0  0  0  0
  -29.2021  -18.2109   25.5158 C   0  0  2  0  0  0  0  0  0  0  0  0
  -31.0462  -22.1551   23.5519 C   0  0  0  0  0  0  0  0  0  0  0  0
  -27.2115  -13.5335   20.3026 N   0  0  0  0  0  0  0  0  0  0  0  0
  -22.3233  -19.9370   21.3934 N   0  0  0  0  0  0  0  0  0  0  0  0
  -22.3958  -18.9857   20.4469 N   0  0  0  0  0  0  0  0  0  0  0  0
  -28.2234  -21.4669   21.4489 N   0  0  0  0  0  0  0  0  0  0  0  0
  -24.0585  -15.9163   21.9952 N   0  0  0  0  0  0  0  0  0  0  0  0
  -22.3349  -18.6440   18.1038 N   0  0  0  0  0  0  0  0  0  0  0  0
  -21.8175  -23.1112   18.5189 N   0  0  0  0  0  0  0  0  0  0  0  0
  -25.6317  -15.3122   20.3452 N   0  0  0  0  0  0  0  0  0  0  0  0
  -27.4216  -24.5959   20.4814 N   0  0  0  0  0  0  0  0  0  0  0  0
  -29.5552  -20.2590   24.3169 N   0  0  0  0  0  0  0  0  0  0  0  0
  -28.5492  -16.9052   25.2160 N   0  3  0  0  0  0  0  0  0  0  0  0
  -21.9423  -21.3828   17.0169 O   0  0  0  0  0  0  0  0  0  0  0  0
  -28.4175  -23.0350   19.0692 O   0  0  0  0  0  0  0  0  0  0  0  0
  -28.0702  -22.5683   23.4982 O   0  0  0  0  0  0  0  0  0  0  0  0
  -30.0398  -18.2579   23.2501 O   0  0  0  0  0  0  0  0  0  0  0  0
  -25.4745  -14.1197   22.3289 O   0  0  0  0  0  0  0  0  0  0  0  0
  -21.6845  -25.9817   23.2915 O   0  0  0  0  0  0  0  0  0  0  0  0
  -28.7488  -17.7050   16.5884 O   0  0  0  0  0  0  0  0  0  1  0  0
  -17.7258  -29.4181   21.5817 F   0  0  0  0  0  0  0  0  0  0  0  0
  -19.6928  -26.8207   25.0154 F   0  0  0  0  0  0  0  0  0  0  0  0
  1  2  1  0  0  0  0
  1  5  2  0  0  0  0
  2  6  2  0  0  0  0
  3  8  2  0  0  0  0
  3 17  1  0  0  0  0
  4  9  1  0  0  0  0
  4 17  2  0  0  0  0
  5 19  1  0  0  0  0
  6 21  1  0  0  0  0
  7 10  2  0  0  0  0
  7 20  1  0  0  0  0
  8 25  1  0  0  0  0
  9 25  2  0  0  0  0
 10 26  1  0  0  0  0
 11 12  2  0  0  0  0
 11 27  1  0  0  0  0
 12 28  1  0  0  0  0
 13 22  1  0  0  0  0
 13 26  2  0  0  0  0
 14 23  1  0  0  0  0
 14 31  2  0  0  0  0
 15 28  2  0  0  0  0
 15 29  1  0  0  0  0
 16 24  1  0  0  0  0
 16 64  2  0  0  0  0
 17 30  1  0  0  0  0
 18 30  1  0  0  0  0
 18 32  2  0  0  0  0
 18 33  1  0  0  0  0
 19 21  2  0  0  0  0
 19 38  1  0  0  0  0
 20 22  2  0  0  0  0
 20 39  1  0  0  0  0
 21 47  1  0  0  0  0
 22 40  1  0  0  0  0
 23 24  2  0  0  0  0
 23 57  1  0  0  0  0
 24 60  1  0  0  0  0
 25 80  1  0  0  0  0
 26 81  1  0  0  0  0
 27 29  2  0  0  0  0
 27 80  1  0  0  0  0
 28 82  1  0  0  0  0
 29 83  1  0  0  0  0
 30 65  2  0  0  0  0
 31 64  1  0  0  0  0
 31 71  1  0  0  0  0
 32 66  1  0  0  0  0
 32 69  1  0  0  0  0
 33 70  1  0  0  0  0
 33 75  2  0  0  0  0
 34 48  1  0  0  0  0
 34 72  1  0  0  0  0
 34 76  2  0  0  0  0
 35 61  1  0  0  0  0
 35 67  1  0  0  0  0
 35 77  2  0  0  0  0
 36 62  1  0  0  0  0
 36 73  1  0  0  0  0
 36 78  2  0  0  0  0
 37 68  1  0  0  0  0
 37 71  1  0  0  0  0
 37 79  2  0  0  0  0
 38 41  1  0  0  0  0
 39 48  1  0  0  0  0
 40 67  1  0  0  0  0
 41 43  1  0  0  0  0
 42 44  1  0  0  0  0
 42 45  1  0  0  0  0
 43 47  1  0  0  0  0
 44 49  1  0  0  0  0
 45 68  1  0  0  0  0
 46 49  1  0  0  0  0
 46 68  1  0  0  0  0
 47 72  1  0  0  0  0
 48 67  1  0  0  0  0
 49 66  1  0  0  0  0
 50 60  1  0  0  0  0
 51 60  1  0  0  0  0
 52 62  1  0  0  0  0
 53 63  1  0  0  0  0
 54 63  1  0  0  0  0
 55 63  1  0  0  0  0
 56 74  1  0  0  0  0
 57 58  1  0  0  0  0
 58 59  1  0  0  0  0
 59 81  1  0  0  0  0
 61 63  1  0  0  0  0
 61 73  1  0  0  0  0
 62 74  1  0  0  0  0
 65 66  1  0  0  0  0
M  CHG  1  74   1
M  ISO  4  37 100  59 101  71 100  81 101
M  END
> <Batch ID>
0078

> <Smiles>
CNC(C)C(=O)NC(C(=O)N1Cc2cc([101O:1][101CH2:1]CCc3cc([100NH:0][100C:0](=O)N4CCCC(n5nc(-c6ccc(Oc7ccc(F)cc7F)cc6)c(C(N)=O)c5N)C4)ncc3C(C)C)ccc2CC1C(=O)NC1CCCc2ccccc21)C(C)(C)C

> <Shape>
0.187

> <Color>
0.066

> <Negative vol penalty>
0.000

$$$$

  -OEChem-04052318393D

 88 96  0     1  0  0  0  0  0999 V2000
  -25.2150  -19.4645   27.5628 C   0  0  0  0  0  0  0  0  0  0  0  0
  -26.1019  -20.5141   27.3459 C   0  0  0  0  0  0  0  0  0  0  0  0
  -25.6520  -13.1585   22.0393 C   0  0  0  0  0  0  0  0  0  0  0  0
  -26.1315  -13.5486   19.7037 C   0  0  0  0  0  0  0  0  0  0  0  0
  -24.1344  -19.2772   26.7018 C   0  0  0  0  0  0  0  0  0  0  0  0
  -25.9094  -21.3764   26.2671 C   0  0  0  0  0  0  0  0  0  0  0  0
  -27.1305  -27.3749   26.0856 C   0  0  0  0  0  0  0  0  0  0  0  0
  -24.5440  -12.3895   21.6834 C   0  0  0  0  0  0  0  0  0  0  0  0
  -25.0235  -12.7795   19.3478 C   0  0  0  0  0  0  0  0  0  0  0  0
  -28.2115  -28.0973   25.5821 C   0  0  0  0  0  0  0  0  0  0  0  0
  -23.9416   -9.2533   20.5725 C   0  0  0  0  0  0  0  0  0  0  0  0
  -23.7560   -8.0391   21.2334 C   0  0  0  0  0  0  0  0  0  0  0  0
  -27.0005  -28.4666   23.5288 C   0  0  0  0  0  0  0  0  0  0  0  0
  -29.4394  -26.8647   18.4731 C   0  0  0  0  0  0  0  0  0  0  0  0
  -21.6138   -8.8078   22.0441 C   0  0  0  0  0  0  0  0  0  0  0  0
  -26.4457  -13.7381   21.0494 C   0  0  0  0  0  0  0  0  0  0  0  0
  -28.9098  -14.0837   21.6121 C   0  0  0  0  0  0  0  0  0  0  0  0
  -23.9231  -20.1434   25.6176 C   0  0  0  0  0  0  0  0  0  0  0  0
  -25.9787  -27.1834   25.3090 C   0  0  0  0  0  0  0  0  0  0  0  0
  -24.8258  -21.1997   25.3900 C   0  0  0  0  0  0  0  0  0  0  0  0
  -25.9053  -27.7436   24.0257 C   0  0  0  0  0  0  0  0  0  0  0  0
  -29.7397  -28.0653   19.1069 C   0  0  0  0  0  0  0  0  0  0  0  0
  -30.8680  -28.1555   19.9144 C   0  0  0  0  0  0  0  0  0  0  0  0
  -24.2298  -12.2000   20.3377 C   0  0  0  0  0  0  0  0  0  0  0  0
  -28.1477  -28.6408   24.3024 C   0  0  0  0  0  0  0  0  0  0  0  0
  -22.9634  -10.2448   20.6474 C   0  0  0  0  0  0  0  0  0  0  0  0
  -22.5921   -7.8163   21.9691 C   0  0  0  0  0  0  0  0  0  0  0  0
  -21.7995  -10.0221   21.3832 C   0  0  0  0  0  0  0  0  0  0  0  0
  -27.5900  -14.5330   21.4164 C   0  0  0  0  0  0  0  0  0  0  0  0
  -30.2925  -25.7923   18.6776 C   0  0  0  0  0  0  0  0  0  0  0  0
  -31.6570  -27.0252   20.0546 C   0  0  0  0  0  0  0  0  0  0  0  0
  -29.6122  -15.2162   21.9446 C   0  0  0  0  0  0  0  0  0  0  0  0
  -29.4522  -12.7610   21.5029 C   0  0  0  0  0  0  0  0  0  0  0  0
  -24.4723  -24.6506   24.1175 C   0  0  0  0  0  0  0  0  0  0  0  0
  -22.2674  -26.8621   23.2400 C   0  0  0  0  0  0  0  0  0  0  0  0
  -21.5665  -30.1189   22.4992 C   0  0  0  0  0  0  0  0  0  0  0  0
  -28.9173  -20.8447   20.7428 C   0  0  0  0  0  0  0  0  0  0  0  0
  -22.7679  -19.8727   24.6865 C   0  0  0  0  0  0  0  0  0  0  0  0
  -24.8108  -26.4244   25.8768 C   0  0  0  0  0  0  0  0  0  0  0  0
  -24.6836  -27.5838   23.1594 C   0  0  0  0  0  0  0  0  0  0  0  0
  -22.4219  -21.0552   23.7853 C   0  0  0  0  0  0  0  0  0  0  0  0
  -29.0822  -19.4939   24.0016 C   0  0  0  0  0  0  0  0  0  0  0  0
  -23.6861  -21.6413   23.1647 C   0  0  0  0  0  0  0  0  0  0  0  0
  -28.8360  -18.0110   23.7273 C   0  0  0  0  0  0  0  0  0  0  0  0
  -28.1988  -20.3930   23.1347 C   0  0  0  0  0  0  0  0  0  0  0  0
  -28.0484  -18.6241   21.4110 C   0  0  0  0  0  0  0  0  0  0  0  0
  -24.6365  -22.1712   24.2452 C   0  0  1  0  0  0  0  0  0  0  0  0
  -23.8896  -25.8542   24.8027 C   0  0  1  0  0  0  0  0  0  0  0  0
  -28.9663  -17.7001   22.2262 C   0  0  2  0  0  0  0  0  0  0  0  0
  -29.0459  -29.9049   17.5510 C   0  0  0  0  0  0  0  0  0  0  0  0
  -33.7764  -25.8444   20.6873 C   0  0  0  0  0  0  0  0  0  0  0  0
  -19.6840  -31.6144   21.7802 C   0  0  0  0  0  0  0  0  0  0  0  0
  -22.4969  -25.7798   20.3964 C   0  0  0  0  0  0  0  0  0  0  0  0
  -21.3668  -27.8621   19.5871 C   0  0  0  0  0  0  0  0  0  0  0  0
  -20.1642  -26.3100   21.1258 C   0  0  0  0  0  0  0  0  0  0  0  0
  -27.7501  -22.9080   21.6290 C   0  0  0  0  0  0  0  0  0  0  0  0
  -21.7681  -31.7500   24.9604 C   0  0  0  0  0  0  0  0  0  0  0  0
  -28.8365  -29.2373   18.9070 C   0  0  0  0  0  0  0  0  0  0  0  0
  -31.2201  -29.4449   20.6123 C   0  0  0  0  0  0  0  0  0  0  0  0
  -30.0022  -24.4885   18.0122 C   0  0  0  0  0  0  0  0  0  0  0  0
  -32.8828  -27.0610   20.9078 C   0  0  0  0  0  0  0  0  0  0  0  0
  -30.8898  -29.4466   22.1065 C   0  0  0  0  0  0  0  0  0  0  0  0
  -29.1158  -23.5354   18.8374 C   0  0  0  0  0  0  0  0  0  0  0  0
  -29.7281  -23.1008   20.1673 C   0  0  0  0  0  0  0  0  0  0  0  0
  -29.3990  -29.3141   22.3954 C   0  0  0  0  0  0  0  0  0  1  0  0
  -22.0508  -27.7324   22.0256 C   0  0  1  0  0  0  0  0  0  0  0  0
  -20.4510  -31.0393   22.9607 C   0  0  2  0  0  0  0  0  0  0  0  0
  -21.5436  -26.9226   20.7990 C   0  0  0  0  0  0  0  0  0  0  0  0
  -27.4592  -15.8483   21.6087 N   0  0  0  0  0  0  0  0  0  0  0  0
  -31.3976  -25.8418   19.4548 N   0  0  0  0  0  0  0  0  0  0  0  0
  -28.7058  -16.2352   21.9288 N   0  0  0  0  0  0  0  0  0  0  0  0
  -23.5703  -26.8281   23.7568 N   0  0  0  0  0  0  0  0  0  0  0  0
  -28.3170  -20.0317   21.7154 N   0  0  0  0  0  0  0  0  0  0  0  0
  -30.9106  -15.4298   22.2460 N   0  0  0  0  0  0  0  0  0  0  0  0
  -28.5909  -11.7126   21.1518 N   0  0  0  0  0  0  0  0  0  0  0  0
  -24.1772  -23.4519   24.7384 N   0  0  0  0  0  0  0  0  0  0  0  0
  -21.1546  -28.8041   22.4460 N   0  0  0  0  0  0  0  0  0  0  0  0
  -28.8425  -22.2330   20.9309 N   0  0  0  0  0  0  0  0  0  0  0  0
  -21.0081  -32.1705   23.7552 N   0  3  0  0  0  0  0  0  0  0  0  0
  -30.6614  -12.5135   21.7267 O   0  0  0  0  0  0  0  0  0  0  0  0
  -25.1390  -24.7984   23.1000 O   0  0  0  0  0  0  0  0  0  0  0  0
  -21.3142  -26.2412   23.7168 O   0  0  0  0  0  0  0  0  0  0  0  0
  -22.6897  -30.5261   22.2108 O   0  0  0  0  0  0  0  0  0  0  0  0
  -29.4828  -20.3582   19.7550 O   0  0  0  0  0  0  0  0  0  0  0  0
  -23.1488  -11.4495   19.9901 O   0  0  0  0  0  0  0  0  0  0  0  0
  -29.2016  -29.3457   23.8083 O   0  0  0  0  0  0  0  0  0  1  0  0
  -22.4133   -6.6497   22.6025 F   0  0  0  0  0  0  0  0  0  0  0  0
  -20.8556  -10.9704   21.4579 F   0  0  0  0  0  0  0  0  0  0  0  0
  1  2  1  0  0  0  0
  1  5  2  0  0  0  0
  2  6  2  0  0  0  0
  3  8  2  0  0  0  0
  3 16  1  0  0  0  0
  4  9  1  0  0  0  0
  4 16  2  0  0  0  0
  5 18  1  0  0  0  0
  6 20  1  0  0  0  0
  7 10  2  0  0  0  0
  7 19  1  0  0  0  0
  8 24  1  0  0  0  0
  9 24  2  0  0  0  0
 10 25  1  0  0  0  0
 11 12  2  0  0  0  0
 11 26  1  0  0  0  0
 12 27  1  0  0  0  0
 13 21  1  0  0  0  0
 13 25  2  0  0  0  0
 14 22  1  0  0  0  0
 14 30  2  0  0  0  0
 15 27  2  0  0  0  0
 15 28  1  0  0  0  0
 16 29  1  0  0  0  0
 17 29  1  0  0  0  0
 17 32  2  0  0  0  0
 17 33  1  0  0  0  0
 18 20  2  0  0  0  0
 18 38  1  0  0  0  0
 19 21  2  0  0  0  0
 19 39  1  0  0  0  0
 20 47  1  0  0  0  0
 21 40  1  0  0  0  0
 22 23  2  0  0  0  0
 22 58  1  0  0  0  0
 23 31  1  0  0  0  0
 23 59  1  0  0  0  0
 24 85  1  0  0  0  0
 25 86  1  0  0  0  0
 26 28  2  0  0  0  0
 26 85  1  0  0  0  0
 27 87  1  0  0  0  0
 28 88  1  0  0  0  0
 29 69  2  0  0  0  0
 30 60  1  0  0  0  0
 30 70  1  0  0  0  0
 31 61  1  0  0  0  0
 31 70  2  0  0  0  0
 32 71  1  0  0  0  0
 32 74  1  0  0  0  0
 33 75  1  0  0  0  0
 33 80  2  0  0  0  0
 34 48  1  0  0  0  0
 34 76  1  0  0  0  0
 34 81  2  0  0  0  0
 35 66  1  0  0  0  0
 35 72  1  0  0  0  0
 35 82  2  0  0  0  0
 36 67  1  0  0  0  0
 36 77  1  0  0  0  0
 36 83  2  0  0  0  0
 37 73  1  0  0  0  0
 37 78  1  0  0  0  0
 37 84  2  0  0  0  0
 38 41  1  0  0  0  0
 39 48  1  0  0  0  0
 40 72  1  0  0  0  0
 41 43  1  0  0  0  0
 42 44  1  0  0  0  0
 42 45  1  0  0  0  0
 43 47  1  0  0  0  0
 44 49  1  0  0  0  0
 45 73  1  0  0  0  0
 46 49  1  0  0  0  0
 46 73  1  0  0  0  0
 47 76  1  0  0  0  0
 48 72  1  0  0  0  0
 49 71  1  0  0  0  0
 50 58  1  0  0  0  0
 51 61  1  0  0  0  0
 52 67  1  0  0  0  0
 53 68  1  0  0  0  0
 54 68  1  0  0  0  0
 55 68  1  0  0  0  0
 56 78  1  0  0  0  0
 57 79  1  0  0  0  0
 59 62  1  0  0  0  0
 60 63  1  0  0  0  0
 62 65  1  0  0  0  0
 63 64  1  0  0  0  0
 64 78  1  0  0  0  0
 65 86  1  0  0  0  0
 66 68  1  0  0  0  0
 66 77  1  0  0  0  0
 67 79  1  0  0  0  0
 69 71  1  0  0  0  0
M  CHG  1  79   1
M  ISO  4  37 100  65 101  78 100  86 101
M  END
> <Batch ID>
0078

> <Smiles>
CCc1cc(CCC[100N:0](C)[100C:0](=O)N2CCCC(n3nc(-c4ccc(Oc5ccc(F)cc5F)cc4)c(C(N)=O)c3N)C2)nc(CC)c1CC[101CH2:1][101O:1]c1ccc2c(c1)CN(C(=O)C(NC(=O)C(C)NC)C(C)(C)C)C(C(=O)NC1CCCc3ccccc31)C2

> <Shape>
0.229

> <Color>
0.074

> <Negative vol penalty>
0.000

$$$$

  -OEChem-04052318393D

 83 91  0     1  0  0  0  0  0999 V2000
  -27.3825  -12.2016   23.3298 C   0  0  0  0  0  0  0  0  0  0  0  0
  -28.0507  -13.3757   22.9976 C   0  0  0  0  0  0  0  0  0  0  0  0
  -23.8408  -29.3393   22.2100 C   0  0  0  0  0  0  0  0  0  0  0  0
  -22.7873  -27.9878   20.5070 C   0  0  0  0  0  0  0  0  0  0  0  0
  -26.2646  -11.8058   22.5966 C   0  0  0  0  0  0  0  0  0  0  0  0
  -27.6021  -14.1541   21.9312 C   0  0  0  0  0  0  0  0  0  0  0  0
  -27.7627  -20.2615   21.5080 C   0  0  0  0  0  0  0  0  0  0  0  0
  -22.5894  -29.6307   22.7530 C   0  0  0  0  0  0  0  0  0  0  0  0
  -21.5359  -28.2791   21.0499 C   0  0  0  0  0  0  0  0  0  0  0  0
  -28.6464  -21.1350   20.8755 C   0  0  0  0  0  0  0  0  0  0  0  0
  -19.6552  -27.2500   23.6623 C   0  0  0  0  0  0  0  0  0  0  0  0
  -18.7560  -26.1950   23.8170 C   0  0  0  0  0  0  0  0  0  0  0  0
  -27.1805  -21.2226   18.9617 C   0  0  0  0  0  0  0  0  0  0  0  0
  -17.1897  -27.3161   22.3585 C   0  0  0  0  0  0  0  0  0  0  0  0
  -31.4680  -25.2997   18.3150 C   0  0  0  0  0  0  0  0  0  0  0  0
  -23.9397  -28.5179   21.0870 C   0  0  0  0  0  0  0  0  0  0  0  0
  -26.0741  -27.1395   20.8593 C   0  0  0  0  0  0  0  0  0  0  0  0
  -25.7963  -12.5847   21.5268 C   0  0  0  0  0  0  0  0  0  0  0  0
  -26.5847  -19.8527   20.8665 C   0  0  0  0  0  0  0  0  0  0  0  0
  -26.4777  -13.7676   21.1822 C   0  0  0  0  0  0  0  0  0  0  0  0
  -26.2824  -20.3458   19.5892 C   0  0  0  0  0  0  0  0  0  0  0  0
  -31.2197  -24.1109   17.6031 C   0  0  0  0  0  0  0  0  0  0  0  0
  -21.4370  -29.1006   22.1729 C   0  0  0  0  0  0  0  0  0  0  0  0
  -28.3568  -21.6134   19.6010 C   0  0  0  0  0  0  0  0  0  0  0  0
  -19.3216  -28.3382   22.8558 C   0  0  0  0  0  0  0  0  0  0  0  0
  -17.5233  -26.2280   23.1651 C   0  0  0  0  0  0  0  0  0  0  0  0
  -18.0889  -28.3712   22.2039 C   0  0  0  0  0  0  0  0  0  0  0  0
  -25.2321  -28.2170   20.5254 C   0  0  0  0  0  0  0  0  0  0  0  0
  -30.7236  -24.5323   16.3936 C   0  0  0  0  0  0  0  0  0  0  0  0
  -27.1732  -27.2994   20.0513 C   0  0  0  0  0  0  0  0  0  0  0  0
  -25.8801  -26.0879   21.8145 C   0  0  0  0  0  0  0  0  0  0  0  0
  -25.4122  -17.0628   19.8941 C   0  0  0  0  0  0  0  0  0  0  0  0
  -22.7842  -18.8429   19.2249 C   0  0  0  0  0  0  0  0  0  0  0  0
  -21.4672  -21.9083   18.5071 C   0  0  0  0  0  0  0  0  0  0  0  0
  -28.1057  -29.2298   14.5298 C   0  0  0  0  0  0  0  0  0  0  0  0
  -24.6120  -12.0917   20.7337 C   0  0  0  0  0  0  0  0  0  0  0  0
  -25.6288  -18.9310   21.5731 C   0  0  0  0  0  0  0  0  0  0  0  0
  -25.0210  -19.9535   18.8657 C   0  0  0  0  0  0  0  0  0  0  0  0
  -23.9774  -13.1665   19.8548 C   0  0  0  0  0  0  0  0  0  0  0  0
  -29.1703  -31.0650   17.5630 C   0  0  0  0  0  0  0  0  0  0  0  0
  -25.0514  -13.9319   19.0883 C   0  0  0  0  0  0  0  0  0  0  0  0
  -28.2825  -30.4583   18.6482 C   0  0  0  0  0  0  0  0  0  0  0  0
  -28.5058  -31.0111   16.1907 C   0  0  0  0  0  0  0  0  0  0  0  0
  -27.1763  -29.0413   16.8736 C   0  0  0  0  0  0  0  0  0  0  0  0
  -26.0068  -14.6517   20.0478 C   0  0  1  0  0  0  0  0  0  0  0  0
  -24.7095  -18.1767   20.6175 C   0  0  1  0  0  0  0  0  0  0  0  0
  -27.8358  -29.0378   18.2609 C   0  0  2  0  0  0  0  0  0  0  0  0
  -30.2726  -23.7767   15.2096 C   0  0  0  0  0  0  0  0  0  0  0  0
  -32.9353  -22.4288   18.3507 C   0  0  0  0  0  0  0  0  0  0  0  0
  -19.2932  -23.0422   17.9729 C   0  0  0  0  0  0  0  0  0  0  0  0
  -22.8925  -17.7111   16.3934 C   0  0  0  0  0  0  0  0  0  0  0  0
  -21.3468  -19.5453   15.6760 C   0  0  0  0  0  0  0  0  0  0  0  0
  -20.5939  -17.8716   17.3655 C   0  0  0  0  0  0  0  0  0  0  0  0
  -28.3894  -27.3700   12.9360 C   0  0  0  0  0  0  0  0  0  0  0  0
  -21.6479  -23.6387   20.9013 C   0  0  0  0  0  0  0  0  0  0  0  0
  -30.2648  -26.8027   15.4189 C   0  0  0  0  0  0  0  0  0  0  0  0
  -28.7450  -26.9177   15.3348 C   0  0  0  0  0  0  0  0  0  0  0  0
  -30.6020  -22.3391   19.3043 C   0  0  0  0  0  0  0  0  0  1  0  0
  -31.4511  -22.6834   18.0730 C   0  0  1  0  0  0  0  0  0  0  0  0
  -22.2963  -19.6201   18.0263 C   0  0  1  0  0  0  0  0  0  0  0  0
  -20.2669  -22.6463   19.0720 C   0  0  2  0  0  0  0  0  0  0  0  0
  -21.8072  -18.6931   16.8779 C   0  0  0  0  0  0  0  0  0  0  0  0
  -31.1556  -26.3942   17.6161 N   0  0  0  0  0  0  0  0  0  0  0  0
  -25.7517  -29.0035   19.5791 N   0  0  0  0  0  0  0  0  0  0  0  0
  -30.7059  -25.8948   16.4522 N   0  0  0  0  0  0  0  0  0  0  0  0
  -26.9322  -28.4196   19.3116 N   0  0  0  0  0  0  0  0  0  0  0  0
  -24.1212  -19.0451   19.5957 N   0  0  0  0  0  0  0  0  0  0  0  0
  -28.0524  -29.6581   15.8664 N   0  0  0  0  0  0  0  0  0  0  0  0
  -28.3127  -26.5897   19.9086 N   0  0  0  0  0  0  0  0  0  0  0  0
  -24.6938  -26.0736   22.5607 N   0  0  0  0  0  0  0  0  0  0  0  0
  -25.3917  -15.8551   20.5653 N   0  0  0  0  0  0  0  0  0  0  0  0
  -21.2809  -20.5422   18.5234 N   0  0  0  0  0  0  0  0  0  0  0  0
  -28.3150  -27.8608   14.3047 N   0  0  0  0  0  0  0  0  0  0  0  0
  -20.7048  -23.8825   19.7797 N   0  3  0  0  0  0  0  0  0  0  0  0
  -26.7407  -25.1969   22.0124 O   0  0  0  0  0  0  0  0  0  0  0  0
  -25.9331  -17.2825   18.8069 O   0  0  0  0  0  0  0  0  0  0  0  0
  -22.0058  -18.0896   19.8150 O   0  0  0  0  0  0  0  0  0  0  0  0
  -22.4683  -22.4861   18.0895 O   0  0  0  0  0  0  0  0  0  0  0  0
  -27.9832  -30.0272   13.5911 O   0  0  0  0  0  0  0  0  0  0  0  0
  -20.2157  -29.3845   22.7026 O   0  0  0  0  0  0  0  0  0  0  0  0
  -29.2178  -22.4656   18.9812 O   0  0  0  0  0  0  0  0  0  1  0  0
  -16.6605  -25.2141   23.3124 F   0  0  0  0  0  0  0  0  0  0  0  0
  -17.7634  -29.4133   21.4268 F   0  0  0  0  0  0  0  0  0  0  0  0
  1  2  1  0  0  0  0
  1  5  2  0  0  0  0
  2  6  2  0  0  0  0
  3  8  2  0  0  0  0
  3 16  1  0  0  0  0
  4  9  1  0  0  0  0
  4 16  2  0  0  0  0
  5 18  1  0  0  0  0
  6 20  1  0  0  0  0
  7 10  2  0  0  0  0
  7 19  1  0  0  0  0
  8 23  1  0  0  0  0
  9 23  2  0  0  0  0
 10 24  1  0  0  0  0
 11 12  2  0  0  0  0
 11 25  1  0  0  0  0
 12 26  1  0  0  0  0
 13 21  1  0  0  0  0
 13 24  2  0  0  0  0
 14 26  2  0  0  0  0
 14 27  1  0  0  0  0
 15 22  1  0  0  0  0
 15 63  2  0  0  0  0
 16 28  1  0  0  0  0
 17 28  1  0  0  0  0
 17 30  2  0  0  0  0
 17 31  1  0  0  0  0
 18 20  2  0  0  0  0
 18 36  1  0  0  0  0
 19 21  2  0  0  0  0
 19 37  1  0  0  0  0
 20 45  1  0  0  0  0
 21 38  1  0  0  0  0
 22 29  2  0  0  0  0
 22 59  1  0  0  0  0
 23 80  1  0  0  0  0
 24 81  1  0  0  0  0
 25 27  2  0  0  0  0
 25 80  1  0  0  0  0
 26 82  1  0  0  0  0
 27 83  1  0  0  0  0
 28 64  2  0  0  0  0
 29 48  1  0  0  0  0
 29 65  1  0  0  0  0
 30 66  1  0  0  0  0
 30 69  1  0  0  0  0
 31 70  1  0  0  0  0
 31 75  2  0  0  0  0
 32 46  1  0  0  0  0
 32 71  1  0  0  0  0
 32 76  2  0  0  0  0
 33 60  1  0  0  0  0
 33 67  1  0  0  0  0
 33 77  2  0  0  0  0
 34 61  1  0  0  0  0
 34 72  1  0  0  0  0
 34 78  2  0  0  0  0
 35 68  1  0  0  0  0
 35 73  1  0  0  0  0
 35 79  2  0  0  0  0
 36 39  1  0  0  0  0
 37 46  1  0  0  0  0
 38 67  1  0  0  0  0
 39 41  1  0  0  0  0
 40 42  1  0  0  0  0
 40 43  1  0  0  0  0
 41 45  1  0  0  0  0
 42 47  1  0  0  0  0
 43 68  1  0  0  0  0
 44 47  1  0  0  0  0
 44 68  1  0  0  0  0
 45 71  1  0  0  0  0
 46 67  1  0  0  0  0
 47 66  1  0  0  0  0
 49 59  1  0  0  0  0
 50 61  1  0  0  0  0
 51 62  1  0  0  0  0
 52 62  1  0  0  0  0
 53 62  1  0  0  0  0
 54 73  1  0  0  0  0
 55 74  1  0  0  0  0
 56 57  1  0  0  0  0
 56 65  1  0  0  0  0
 57 73  1  0  0  0  0
 58 59  1  0  0  0  0
 58 81  1  0  0  0  0
 60 62  1  0  0  0  0
 60 72  1  0  0  0  0
 61 74  1  0  0  0  0
 63 65  1  0  0  0  0
 64 66  1  0  0  0  0
M  CHG  1  74   1
M  ISO  4  35 100  58 101  73 100  81 101
M  END
> <Batch ID>
0078

> <Smiles>
CNC(C)C(=O)NC(C(=O)N1Cc2cc([101O:1][101CH2:1]C(C)c3cnn(CC[100N:0](C)[100C:0](=O)N4CCCC(n5nc(-c6ccc(Oc7ccc(F)cc7F)cc6)c(C(N)=O)c5N)C4)c3C)ccc2CC1C(=O)NC1CCCc2ccccc21)C(C)(C)C

> <Shape>
0.177

> <Color>
0.080

> <Negative vol penalty>
0.000

$$$$

  -OEChem-04052318393D

 86 94  0     1  0  0  0  0  0999 V2000
  -21.0783  -12.9998   21.8531 C   0  0  0  0  0  0  0  0  0  0  0  0
  -21.3366  -14.3646   21.9306 C   0  0  0  0  0  0  0  0  0  0  0  0
  -22.4838  -27.9787   20.9267 C   0  0  0  0  0  0  0  0  0  0  0  0
  -23.8341  -27.6733   22.9067 C   0  0  0  0  0  0  0  0  0  0  0  0
  -22.1258  -12.1040   21.6429 C   0  0  0  0  0  0  0  0  0  0  0  0
  -22.6430  -14.8343   21.7989 C   0  0  0  0  0  0  0  0  0  0  0  0
  -24.4231  -20.0811   19.1898 C   0  0  0  0  0  0  0  0  0  0  0  0
  -29.8939  -27.5529   23.8907 C   0  0  0  0  0  0  0  0  0  0  0  0
  -21.3381  -27.6711   21.6605 C   0  0  0  0  0  0  0  0  0  0  0  0
  -22.6885  -27.3658   23.6406 C   0  0  0  0  0  0  0  0  0  0  0  0
  -24.7628  -21.3247   19.7207 C   0  0  0  0  0  0  0  0  0  0  0  0
  -19.2866  -29.2337   23.8474 C   0  0  0  0  0  0  0  0  0  0  0  0
  -18.1670  -30.0471   23.6726 C   0  0  0  0  0  0  0  0  0  0  0  0
  -29.0904  -26.5679   24.4541 C   0  0  0  0  0  0  0  0  0  0  0  0
  -27.0946  -20.7106   19.6516 C   0  0  0  0  0  0  0  0  0  0  0  0
  -16.8953  -28.1351   22.9215 C   0  0  0  0  0  0  0  0  0  0  0  0
  -23.7318  -27.9797   21.5498 C   0  0  0  0  0  0  0  0  0  0  0  0
  -25.4862  -29.5693   20.5995 C   0  0  0  0  0  0  0  0  0  0  0  0
  -23.4444  -12.5638   21.4990 C   0  0  0  0  0  0  0  0  0  0  0  0
  -25.4176  -19.1372   18.8955 C   0  0  0  0  0  0  0  0  0  0  0  0
  -23.7093  -13.9437   21.5879 C   0  0  0  0  0  0  0  0  0  0  0  0
  -26.7652  -19.4567   19.1147 C   0  0  0  0  0  0  0  0  0  0  0  0
  -30.4155  -27.3711   22.6146 C   0  0  0  0  0  0  0  0  0  0  0  0
  -21.4405  -27.3647   23.0175 C   0  0  0  0  0  0  0  0  0  0  0  0
  -26.0984  -21.6386   19.9544 C   0  0  0  0  0  0  0  0  0  0  0  0
  -19.2106  -27.8711   23.5591 C   0  0  0  0  0  0  0  0  0  0  0  0
  -16.9714  -29.4978   23.2097 C   0  0  0  0  0  0  0  0  0  0  0  0
  -18.0149  -27.3218   23.0962 C   0  0  0  0  0  0  0  0  0  0  0  0
  -24.9156  -28.2968   20.7921 C   0  0  0  0  0  0  0  0  0  0  0  0
  -28.8403  -25.4287   23.7062 C   0  0  0  0  0  0  0  0  0  0  0  0
  -30.1063  -26.1957   21.9492 C   0  0  0  0  0  0  0  0  0  0  0  0
  -26.5879  -29.3361   19.8132 C   0  0  0  0  0  0  0  0  0  0  0  0
  -25.0586  -30.8477   21.0877 C   0  0  0  0  0  0  0  0  0  0  0  0
  -26.1078  -16.2106   19.9261 C   0  0  0  0  0  0  0  0  0  0  0  0
  -28.3375  -16.3295   17.5731 C   0  0  0  0  0  0  0  0  0  0  0  0
  -30.3121  -18.2376   15.5467 C   0  0  0  0  0  0  0  0  0  0  0  0
  -29.7144  -24.1167   19.0911 C   0  0  0  0  0  0  0  0  0  0  0  0
  -24.5500  -11.5536   21.3203 C   0  0  0  0  0  0  0  0  0  0  0  0
  -25.0368  -17.8103   18.2983 C   0  0  0  0  0  0  0  0  0  0  0  0
  -27.8721  -18.4861   18.7969 C   0  0  0  0  0  0  0  0  0  0  0  0
  -25.8561  -12.1628   20.8171 C   0  0  0  0  0  0  0  0  0  0  0  0
  -28.2703  -26.3312   16.5003 C   0  0  0  0  0  0  0  0  0  0  0  0
  -26.1945  -13.4250   21.6040 C   0  0  0  0  0  0  0  0  0  0  0  0
  -27.2436  -27.1417   17.2895 C   0  0  0  0  0  0  0  0  0  0  0  0
  -28.4973  -24.9527   17.1134 C   0  0  0  0  0  0  0  0  0  0  0  0
  -27.8433  -25.7985   19.3429 C   0  0  0  0  0  0  0  0  0  0  0  0
  -25.1096  -14.4939   21.4254 C   0  0  1  0  0  0  0  0  0  0  0  0
  -26.0931  -16.7315   18.5168 C   0  0  1  0  0  0  0  0  0  0  0  0
  -27.6258  -27.2104   18.7783 C   0  0  2  0  0  0  0  0  0  0  0  0
  -31.2780  -28.4221   22.0063 C   0  0  0  0  0  0  0  0  0  0  0  0
  -32.0573  -18.0501   13.7532 C   0  0  0  0  0  0  0  0  0  0  0  0
  -28.8631  -23.3251   25.0641 C   0  0  0  0  0  0  0  0  0  0  0  0
  -26.9097  -24.8288   25.3202 C   0  0  0  0  0  0  0  0  0  0  0  0
  -30.4171  -15.5849   19.6780 C   0  0  0  0  0  0  0  0  0  0  0  0
  -32.1967  -16.3342   18.0842 C   0  0  0  0  0  0  0  0  0  0  0  0
  -30.7015  -14.4320   17.4770 C   0  0  0  0  0  0  0  0  0  0  0  0
  -31.4510  -23.6275   20.7718 C   0  0  0  0  0  0  0  0  0  0  0  0
  -28.6161  -19.6643   13.5854 C   0  0  0  0  0  0  0  0  0  0  0  0
  -30.6359  -25.9475   20.5749 C   0  0  0  0  0  0  0  0  0  0  0  0
  -26.2245  -24.3491   22.3385 C   0  0  0  0  0  0  0  0  0  0  0  0
  -27.2113  -23.5257   23.1750 C   0  0  0  0  0  0  0  0  0  0  0  0
  -25.4817  -23.4727   21.3369 C   0  0  0  0  0  0  0  0  0  1  0  0
  -29.7742  -16.7840   17.4837 C   0  0  1  0  0  0  0  0  0  0  0  0
  -30.5721  -18.1829   14.0521 C   0  0  2  0  0  0  0  0  0  0  0  0
  -27.9533  -24.3180   24.2975 C   0  0  0  0  0  0  0  0  0  0  0  0
  -30.7516  -15.8016   18.1887 C   0  0  0  0  0  0  0  0  0  0  0  0
  -25.5984  -27.3272   20.1775 N   0  0  0  0  0  0  0  0  0  0  0  0
  -29.3293  -25.2164   22.4638 N   0  0  0  0  0  0  0  0  0  0  0  0
  -26.6093  -27.9906   19.5910 N   0  0  0  0  0  0  0  0  0  0  0  0
  -27.4486  -17.1994   18.2204 N   0  0  0  0  0  0  0  0  0  0  0  0
  -28.8166  -25.0447   18.5384 N   0  0  0  0  0  0  0  0  0  0  0  0
  -27.5308  -30.1528   19.2970 N   0  0  0  0  0  0  0  0  0  0  0  0
  -23.9056  -30.9079   21.8824 N   0  0  0  0  0  0  0  0  0  0  0  0
  -25.2511  -15.1481   20.1422 N   0  0  0  0  0  0  0  0  0  0  0  0
  -30.0506  -16.9872   16.0657 N   0  0  0  0  0  0  0  0  0  0  0  0
  -30.4971  -24.5497   20.1721 N   0  0  0  0  0  0  0  0  0  0  0  0
  -30.0689  -19.4212   13.3931 N   0  3  0  0  0  0  0  0  0  0  0  0
  -25.6712  -31.9074   20.8135 O   0  0  0  0  0  0  0  0  0  0  0  0
  -26.8431  -16.7329   20.7557 O   0  0  0  0  0  0  0  0  0  0  0  0
  -28.0143  -15.2458   17.0803 O   0  0  0  0  0  0  0  0  0  0  0  0
  -30.3420  -19.2844   16.1901 O   0  0  0  0  0  0  0  0  0  0  0  0
  -29.8178  -22.9697   18.6376 O   0  0  0  0  0  0  0  0  0  0  0  0
  -20.3228  -27.0647   23.7339 O   0  0  0  0  0  0  0  0  0  0  0  0
  -26.4326  -22.8515   20.4731 O   0  0  0  0  0  0  0  0  0  1  0  0
  -15.8959  -30.2787   23.0433 F   0  0  0  0  0  0  0  0  0  0  0  0
  -17.9354  -26.0131   22.8188 F   0  0  0  0  0  0  0  0  0  0  0  0
  1  2  1  0  0  0  0
  1  5  2  0  0  0  0
  2  6  2  0  0  0  0
  3  9  2  0  0  0  0
  3 17  1  0  0  0  0
  4 10  1  0  0  0  0
  4 17  2  0  0  0  0
  5 19  1  0  0  0  0
  6 21  1  0  0  0  0
  7 11  2  0  0  0  0
  7 20  1  0  0  0  0
  8 14  2  0  0  0  0
  8 23  1  0  0  0  0
  9 24  1  0  0  0  0
 10 24  2  0  0  0  0
 11 25  1  0  0  0  0
 12 13  2  0  0  0  0
 12 26  1  0  0  0  0
 13 27  1  0  0  0  0
 14 30  1  0  0  0  0
 15 22  1  0  0  0  0
 15 25  2  0  0  0  0
 16 27  2  0  0  0  0
 16 28  1  0  0  0  0
 17 29  1  0  0  0  0
 18 29  1  0  0  0  0
 18 32  2  0  0  0  0
 18 33  1  0  0  0  0
 19 21  2  0  0  0  0
 19 38  1  0  0  0  0
 20 22  2  0  0  0  0
 20 39  1  0  0  0  0
 21 47  1  0  0  0  0
 22 40  1  0  0  0  0
 23 31  2  0  0  0  0
 23 50  1  0  0  0  0
 24 83  1  0  0  0  0
 25 84  1  0  0  0  0
 26 28  2  0  0  0  0
 26 83  1  0  0  0  0
 27 85  1  0  0  0  0
 28 86  1  0  0  0  0
 29 67  2  0  0  0  0
 30 65  1  0  0  0  0
 30 68  2  0  0  0  0
 31 59  1  0  0  0  0
 31 68  1  0  0  0  0
 32 69  1  0  0  0  0
 32 72  1  0  0  0  0
 33 73  1  0  0  0  0
 33 78  2  0  0  0  0
 34 48  1  0  0  0  0
 34 74  1  0  0  0  0
 34 79  2  0  0  0  0
 35 63  1  0  0  0  0
 35 70  1  0  0  0  0
 35 80  2  0  0  0  0
 36 64  1  0  0  0  0
 36 75  1  0  0  0  0
 36 81  2  0  0  0  0
 37 71  1  0  0  0  0
 37 76  1  0  0  0  0
 37 82  2  0  0  0  0
 38 41  1  0  0  0  0
 39 48  1  0  0  0  0
 40 70  1  0  0  0  0
 41 43  1  0  0  0  0
 42 44  1  0  0  0  0
 42 45  1  0  0  0  0
 43 47  1  0  0  0  0
 44 49  1  0  0  0  0
 45 71  1  0  0  0  0
 46 49  1  0  0  0  0
 46 71  1  0  0  0  0
 47 74  1  0  0  0  0
 48 70  1  0  0  0  0
 49 69  1  0  0  0  0
 51 64  1  0  0  0  0
 52 65  1  0  0  0  0
 53 65  1  0  0  0  0
 54 66  1  0  0  0  0
 55 66  1  0  0  0  0
 56 66  1  0  0  0  0
 57 76  1  0  0  0  0
 58 77  1  0  0  0  0
 59 76  1  0  0  0  0
 60 61  1  0  0  0  0
 60 62  1  0  0  0  0
 61 65  1  0  0  0  0
 62 84  1  0  0  0  0
 63 66  1  0  0  0  0
 63 75  1  0  0  0  0
 64 77  1  0  0  0  0
 67 69  1  0  0  0  0
M  CHG  1  77   1
M  ISO  4  37 100  62 101  76 100  84 101
M  END
> <Batch ID>
0078

> <Smiles>
CNC(C)C(=O)NC(C(=O)N1Cc2cc([101O:1][101CH2:1]CCC(C)(C)c3ccc(C)c(C[100N:0](C)[100C:0](=O)N4CCCC(n5nc(-c6ccc(Oc7ccc(F)cc7F)cc6)c(C(N)=O)c5N)C4)n3)ccc2CC1C(=O)NC1CCCc2ccccc21)C(C)(C)C

> <Shape>
0.231

> <Color>
0.064

> <Negative vol penalty>
0.000

$$$$

  -OEChem-04052318393D

 82 90  0     1  0  0  0  0  0999 V2000
  -18.6776  -31.5670   18.9666 C   0  0  0  0  0  0  0  0  0  0  0  0
  -20.0160  -31.2289   18.7944 C   0  0  0  0  0  0  0  0  0  0  0  0
  -26.3852  -12.6215   21.7542 C   0  0  0  0  0  0  0  0  0  0  0  0
  -25.7705  -13.8793   19.7852 C   0  0  0  0  0  0  0  0  0  0  0  0
  -18.1331  -31.6220   20.2490 C   0  0  0  0  0  0  0  0  0  0  0  0
  -20.8111  -30.9466   19.9046 C   0  0  0  0  0  0  0  0  0  0  0  0
  -23.6873  -26.8321   19.2386 C   0  0  0  0  0  0  0  0  0  0  0  0
  -25.1851  -11.9149   21.6775 C   0  0  0  0  0  0  0  0  0  0  0  0
  -24.5704  -13.1726   19.7084 C   0  0  0  0  0  0  0  0  0  0  0  0
  -24.8359  -26.9771   18.4618 C   0  0  0  0  0  0  0  0  0  0  0  0
  -23.9179   -9.3452   19.8819 C   0  0  0  0  0  0  0  0  0  0  0  0
  -23.9682   -7.9617   20.0521 C   0  0  0  0  0  0  0  0  0  0  0  0
  -26.1663  -27.1288   20.4684 C   0  0  0  0  0  0  0  0  0  0  0  0
  -22.4950   -8.1427   21.9584 C   0  0  0  0  0  0  0  0  0  0  0  0
  -30.4521  -25.5999   18.4182 C   0  0  0  0  0  0  0  0  0  0  0  0
  -28.9387  -24.0786   17.9384 C   0  0  0  0  0  0  0  0  0  0  0  0
  -26.6779  -13.6038   20.8081 C   0  0  0  0  0  0  0  0  0  0  0  0
  -29.1443  -13.9946   20.2868 C   0  0  0  0  0  0  0  0  0  0  0  0
  -18.9195  -31.3308   21.3748 C   0  0  0  0  0  0  0  0  0  0  0  0
  -23.7683  -26.8453   20.6384 C   0  0  0  0  0  0  0  0  0  0  0  0
  -20.2770  -30.9990   21.2033 C   0  0  0  0  0  0  0  0  0  0  0  0
  -25.0175  -26.9812   21.2606 C   0  0  0  0  0  0  0  0  0  0  0  0
  -29.3150  -25.3614   17.6233 C   0  0  0  0  0  0  0  0  0  0  0  0
  -24.2777  -12.1904   20.6545 C   0  0  0  0  0  0  0  0  0  0  0  0
  -26.0753  -27.1284   19.0767 C   0  0  0  0  0  0  0  0  0  0  0  0
  -23.1562  -10.1275   20.7500 C   0  0  0  0  0  0  0  0  0  0  0  0
  -23.2568   -7.3605   21.0903 C   0  0  0  0  0  0  0  0  0  0  0  0
  -22.4447   -9.5262   21.7882 C   0  0  0  0  0  0  0  0  0  0  0  0
  -27.9172  -14.3345   20.8872 C   0  0  0  0  0  0  0  0  0  0  0  0
  -30.0004  -15.0012   20.6615 C   0  0  0  0  0  0  0  0  0  0  0  0
  -29.4803  -12.8696   19.4638 C   0  0  0  0  0  0  0  0  0  0  0  0
  -22.5987  -28.7051   22.9356 C   0  0  0  0  0  0  0  0  0  0  0  0
  -23.8978  -26.4570   24.8799 C   0  0  0  0  0  0  0  0  0  0  0  0
  -26.2143  -23.9883   25.3112 C   0  0  0  0  0  0  0  0  0  0  0  0
  -29.1312  -20.6944   22.2994 C   0  0  0  0  0  0  0  0  0  0  0  0
  -18.2988  -31.4495   22.7442 C   0  0  0  0  0  0  0  0  0  0  0  0
  -22.5232  -26.6609   21.4620 C   0  0  0  0  0  0  0  0  0  0  0  0
  -25.1609  -26.9816   22.7599 C   0  0  0  0  0  0  0  0  0  0  0  0
  -19.1129  -30.7709   23.8429 C   0  0  0  0  0  0  0  0  0  0  0  0
  -30.7641  -18.1508   24.1811 C   0  0  0  0  0  0  0  0  0  0  0  0
  -20.5879  -31.1393   23.7191 C   0  0  0  0  0  0  0  0  0  0  0  0
  -30.3303  -16.8536   23.4961 C   0  0  0  0  0  0  0  0  0  0  0  0
  -29.6399  -19.1843   24.1961 C   0  0  0  0  0  0  0  0  0  0  0  0
  -28.6169  -18.1804   22.1912 C   0  0  0  0  0  0  0  0  0  0  0  0
  -21.1654  -30.6619   22.3811 C   0  0  1  0  0  0  0  0  0  0  0  0
  -22.6593  -27.2048   22.8808 C   0  0  1  0  0  0  0  0  0  0  0  0
  -29.7350  -17.1277   22.1019 C   0  0  2  0  0  0  0  0  0  0  0  0
  -28.6992  -25.7492   15.2146 C   0  0  0  0  0  0  0  0  0  0  0  0
  -27.0603  -22.3576   27.0208 C   0  0  0  0  0  0  0  0  0  0  0  0
  -30.0810  -21.2361   18.4727 C   0  0  0  0  0  0  0  0  0  0  0  0
  -25.3612  -28.7200   26.3107 C   0  0  0  0  0  0  0  0  0  0  0  0
  -26.8703  -27.0039   27.3335 C   0  0  0  0  0  0  0  0  0  0  0  0
  -24.4247  -26.9626   27.8236 C   0  0  0  0  0  0  0  0  0  0  0  0
  -25.5004  -21.6669   23.6200 C   0  0  0  0  0  0  0  0  0  0  0  0
  -28.5770  -22.0756   20.3134 C   0  0  0  0  0  0  0  0  0  0  0  0
  -27.2051  -26.6367   17.0425 C   0  0  0  0  0  0  0  0  0  1  0  0
  -28.6493  -26.3098   16.6386 C   0  0  1  0  0  0  0  0  0  0  0  0
  -25.2426  -26.2597   25.5369 C   0  0  1  0  0  0  0  0  0  0  0  0
  -26.0947  -22.5808   25.8672 C   0  0  2  0  0  0  0  0  0  0  0  0
  -29.8539  -22.3480   19.5025 C   0  0  2  0  0  0  0  0  0  0  0  0
  -25.4721  -27.2385   26.7229 C   0  0  0  0  0  0  0  0  0  0  0  0
  -30.7767  -24.5527   19.1811 N   0  0  0  0  0  0  0  0  0  0  0  0
  -27.9837  -15.4683   21.5901 N   0  0  0  0  0  0  0  0  0  0  0  0
  -29.8380  -23.6438   18.8671 N   0  0  0  0  0  0  0  0  0  0  0  0
  -29.2629  -15.8496   21.4338 N   0  0  0  0  0  0  0  0  0  0  0  0
  -23.9136  -26.8045   23.5217 N   0  0  0  0  0  0  0  0  0  0  0  0
  -29.1203  -19.3994   22.8434 N   0  0  0  0  0  0  0  0  0  0  0  0
  -31.3046  -15.2344   20.4025 N   0  0  0  0  0  0  0  0  0  0  0  0
  -28.4809  -11.9299   19.1764 N   0  0  0  0  0  0  0  0  0  0  0  0
  -21.4318  -29.2401   22.4241 N   0  0  0  0  0  0  0  0  0  0  0  0
  -25.3148  -24.8494   25.9034 N   0  0  0  0  0  0  0  0  0  0  0  0
  -28.6266  -20.8094   21.0099 N   0  0  0  0  0  0  0  0  0  0  0  0
  -26.3909  -21.5776   24.8057 N   0  3  0  0  0  0  0  0  0  0  0  0
  -30.6367  -12.6940   19.0107 O   0  0  0  0  0  0  0  0  0  0  0  0
  -23.5402  -29.3310   23.4083 O   0  0  0  0  0  0  0  0  0  0  0  0
  -22.8710  -26.3013   25.5455 O   0  0  0  0  0  0  0  0  0  0  0  0
  -27.0270  -24.2941   24.4415 O   0  0  0  0  0  0  0  0  0  0  0  0
  -29.5639  -21.6745   22.9152 O   0  0  0  0  0  0  0  0  0  0  0  0
  -23.1066  -11.5008   20.5792 O   0  0  0  0  0  0  0  0  0  0  0  0
  -27.1980  -27.2708   18.3209 O   0  0  0  0  0  0  0  0  0  1  0  0
  -23.3040   -6.0317   21.2527 F   0  0  0  0  0  0  0  0  0  0  0  0
  -21.7103  -10.2724   22.6247 F   0  0  0  0  0  0  0  0  0  0  0  0
  1  2  1  0  0  0  0
  1  5  2  0  0  0  0
  2  6  2  0  0  0  0
  3  8  2  0  0  0  0
  3 17  1  0  0  0  0
  4  9  1  0  0  0  0
  4 17  2  0  0  0  0
  5 19  1  0  0  0  0
  6 21  1  0  0  0  0
  7 10  2  0  0  0  0
  7 20  1  0  0  0  0
  8 24  1  0  0  0  0
  9 24  2  0  0  0  0
 10 25  1  0  0  0  0
 11 12  2  0  0  0  0
 11 26  1  0  0  0  0
 12 27  1  0  0  0  0
 13 22  1  0  0  0  0
 13 25  2  0  0  0  0
 14 27  2  0  0  0  0
 14 28  1  0  0  0  0
 15 23  1  0  0  0  0
 15 62  2  0  0  0  0
 16 23  2  0  0  0  0
 16 64  1  0  0  0  0
 17 29  1  0  0  0  0
 18 29  1  0  0  0  0
 18 30  2  0  0  0  0
 18 31  1  0  0  0  0
 19 21  2  0  0  0  0
 19 36  1  0  0  0  0
 20 22  2  0  0  0  0
 20 37  1  0  0  0  0
 21 45  1  0  0  0  0
 22 38  1  0  0  0  0
 23 57  1  0  0  0  0
 24 79  1  0  0  0  0
 25 80  1  0  0  0  0
 26 28  2  0  0  0  0
 26 79  1  0  0  0  0
 27 81  1  0  0  0  0
 28 82  1  0  0  0  0
 29 63  2  0  0  0  0
 30 65  1  0  0  0  0
 30 68  1  0  0  0  0
 31 69  1  0  0  0  0
 31 74  2  0  0  0  0
 32 46  1  0  0  0  0
 32 70  1  0  0  0  0
 32 75  2  0  0  0  0
 33 58  1  0  0  0  0
 33 66  1  0  0  0  0
 33 76  2  0  0  0  0
 34 59  1  0  0  0  0
 34 71  1  0  0  0  0
 34 77  2  0  0  0  0
 35 67  1  0  0  0  0
 35 72  1  0  0  0  0
 35 78  2  0  0  0  0
 36 39  1  0  0  0  0
 37 46  1  0  0  0  0
 38 66  1  0  0  0  0
 39 41  1  0  0  0  0
 40 42  1  0  0  0  0
 40 43  1  0  0  0  0
 41 45  1  0  0  0  0
 42 47  1  0  0  0  0
 43 67  1  0  0  0  0
 44 47  1  0  0  0  0
 44 67  1  0  0  0  0
 45 70  1  0  0  0  0
 46 66  1  0  0  0  0
 47 65  1  0  0  0  0
 48 57  1  0  0  0  0
 49 59  1  0  0  0  0
 50 60  1  0  0  0  0
 51 61  1  0  0  0  0
 52 61  1  0  0  0  0
 53 61  1  0  0  0  0
 54 73  1  0  0  0  0
 55 60  1  0  0  0  0
 55 72  1  0  0  0  0
 56 57  1  0  0  0  0
 56 80  1  0  0  0  0
 58 61  1  0  0  0  0
 58 71  1  0  0  0  0
 59 73  1  0  0  0  0
 60 64  1  0  0  0  0
 62 64  1  0  0  0  0
 63 65  1  0  0  0  0
M  CHG  1  73   1
M  ISO  4  35 100  56 101  72 100  80 101
M  END
> <Batch ID>
0078

> <Smiles>
CNC(C)C(=O)NC(C(=O)N1Cc2cc([101O:1][101CH2:1]C(C)c3cnn(C(C)C[100NH:0][100C:0](=O)N4CCCC(n5nc(-c6ccc(Oc7ccc(F)cc7F)cc6)c(C(N)=O)c5N)C4)c3)ccc2CC1C(=O)NC1CCCc2ccccc21)C(C)(C)C

> <Shape>
0.236

> <Color>
0.087

> <Negative vol penalty>
0.000

$$$$

  -OEChem-04052318393D

 87 95  0     1  0  0  0  0  0999 V2000
  -24.3824  -36.9971   18.4098 C   0  0  0  0  0  0  0  0  0  0  0  0
  -25.1364  -35.8464   18.2028 C   0  0  0  0  0  0  0  0  0  0  0  0
  -26.2839  -13.4374   19.9827 C   0  0  0  0  0  0  0  0  0  0  0  0
  -25.5575  -14.8616   21.7941 C   0  0  0  0  0  0  0  0  0  0  0  0
  -23.8254  -37.2480   19.6630 C   0  0  0  0  0  0  0  0  0  0  0  0
  -25.3346  -34.9464   19.2493 C   0  0  0  0  0  0  0  0  0  0  0  0
  -25.7567  -28.8510   18.8329 C   0  0  0  0  0  0  0  0  0  0  0  0
  -25.7669  -12.3264   20.6489 C   0  0  0  0  0  0  0  0  0  0  0  0
  -25.0404  -13.7505   22.4603 C   0  0  0  0  0  0  0  0  0  0  0  0
  -26.8501  -27.9867   18.7979 C   0  0  0  0  0  0  0  0  0  0  0  0
  -22.7385  -10.9074   21.1474 C   0  0  0  0  0  0  0  0  0  0  0  0
  -21.9916   -9.9947   20.4026 C   0  0  0  0  0  0  0  0  0  0  0  0
  -26.6345  -27.6275   21.1736 C   0  0  0  0  0  0  0  0  0  0  0  0
  -23.5680   -8.2505   20.9594 C   0  0  0  0  0  0  0  0  0  0  0  0
  -27.1437  -20.4671   20.8477 C   0  0  0  0  0  0  0  0  0  0  0  0
  -26.1793  -14.7051   20.5554 C   0  0  0  0  0  0  0  0  0  0  0  0
  -26.0432  -16.6814   18.9482 C   0  0  0  0  0  0  0  0  0  0  0  0
  -24.0088  -36.3459   20.7228 C   0  0  0  0  0  0  0  0  0  0  0  0
  -25.0997  -29.1190   20.0424 C   0  0  0  0  0  0  0  0  0  0  0  0
  -24.7806  -35.1862   20.5183 C   0  0  0  0  0  0  0  0  0  0  0  0
  -25.5314  -28.4936   21.2208 C   0  0  0  0  0  0  0  0  0  0  0  0
  -25.1451  -12.4829   21.8876 C   0  0  0  0  0  0  0  0  0  0  0  0
  -27.2910  -27.3770   19.9688 C   0  0  0  0  0  0  0  0  0  0  0  0
  -23.9002  -10.4917   21.7981 C   0  0  0  0  0  0  0  0  0  0  0  0
  -22.4063   -8.6663   20.3087 C   0  0  0  0  0  0  0  0  0  0  0  0
  -24.3149   -9.1633   21.7041 C   0  0  0  0  0  0  0  0  0  0  0  0
  -26.7137  -15.8531   19.8681 C   0  0  0  0  0  0  0  0  0  0  0  0
  -28.0527  -21.4168   21.2200 C   0  0  0  0  0  0  0  0  0  0  0  0
  -26.9783  -17.6201   18.5864 C   0  0  0  0  0  0  0  0  0  0  0  0
  -27.1408  -20.5861   23.0582 C   0  0  0  0  0  0  0  0  0  0  0  0
  -24.6956  -16.6089   18.4641 C   0  0  0  0  0  0  0  0  0  0  0  0
  -24.6006  -31.7234   21.7949 C   0  0  0  0  0  0  0  0  0  0  0  0
  -22.7544  -29.7149   23.5498 C   0  0  0  0  0  0  0  0  0  0  0  0
  -22.0549  -26.5145   24.5063 C   0  0  0  0  0  0  0  0  0  0  0  0
  -31.8530  -19.7802   21.3108 C   0  0  0  0  0  0  0  0  0  0  0  0
  -23.4266  -36.6835   22.0725 C   0  0  0  0  0  0  0  0  0  0  0  0
  -23.9051  -30.0329   20.0587 C   0  0  0  0  0  0  0  0  0  0  0  0
  -24.8479  -28.7321   22.5415 C   0  0  0  0  0  0  0  0  0  0  0  0
  -23.3704  -35.4932   23.0266 C   0  0  0  0  0  0  0  0  0  0  0  0
  -31.7029  -18.2118   18.1179 C   0  0  0  0  0  0  0  0  0  0  0  0
  -24.6953  -34.7372   23.0156 C   0  0  0  0  0  0  0  0  0  0  0  0
  -30.3467  -17.5042   18.1214 C   0  0  0  0  0  0  0  0  0  0  0  0
  -32.3625  -18.1744   19.4947 C   0  0  0  0  0  0  0  0  0  0  0  0
  -30.1688  -17.9761   20.6002 C   0  0  0  0  0  0  0  0  0  0  0  0
  -24.9973  -34.1737   21.6218 C   0  0  1  0  0  0  0  0  0  0  0  0
  -23.6312  -30.6336   21.4340 C   0  0  1  0  0  0  0  0  0  0  0  0
  -29.4395  -18.0362   19.2471 C   0  0  2  0  0  0  0  0  0  0  0  0
  -25.4902  -22.4772   24.7609 C   0  0  0  0  0  0  0  0  0  0  0  0
  -20.5140  -25.1911   25.9799 C   0  0  0  0  0  0  0  0  0  0  0  0
  -30.5200  -22.4738   25.2880 C   0  0  0  0  0  0  0  0  0  0  0  0
  -24.3475  -30.5925   25.9997 C   0  0  0  0  0  0  0  0  0  0  0  0
  -23.4424  -28.5998   27.2156 C   0  0  0  0  0  0  0  0  0  0  0  0
  -21.8868  -30.3631   26.3828 C   0  0  0  0  0  0  0  0  0  0  0  0
  -20.9456  -25.0227   22.2035 C   0  0  0  0  0  0  0  0  0  0  0  0
  -28.9526  -22.2903   20.3827 C   0  0  0  0  0  0  0  0  0  0  0  0
  -26.8060  -20.3222   24.4797 C   0  0  0  0  0  0  0  0  0  0  0  0
  -25.4695  -20.9628   24.8947 C   0  0  0  0  0  0  0  0  0  0  0  0
  -28.3205  -23.6285   19.9843 C   0  0  0  0  0  0  0  0  0  0  0  0
  -29.2177  -24.4665   19.0724 C   0  0  0  0  0  0  0  0  0  0  0  0
  -28.8407  -22.3451   23.4184 C   0  0  0  0  0  0  0  0  0  0  0  0
  -31.1922  -21.3253   23.1371 C   0  0  0  0  0  0  0  0  0  0  0  0
  -28.5743  -25.8036   18.7306 C   0  0  0  0  0  0  0  0  0  1  0  0
  -22.9900  -28.8016   24.7285 C   0  0  1  0  0  0  0  0  0  0  0  0
  -20.7458  -25.7499   24.5847 C   0  0  2  0  0  0  0  0  0  0  0  0
  -30.0333  -21.6386   24.0983 C   0  0  1  0  0  0  0  0  0  0  0  0
  -23.1810  -29.5860   26.0573 C   0  0  0  0  0  0  0  0  0  0  0  0
  -27.9772  -16.2321   20.0775 N   0  0  0  0  0  0  0  0  0  0  0  0
  -28.0297  -21.4698   22.5929 N   0  0  0  0  0  0  0  0  0  0  0  0
  -28.1082  -17.3089   19.2840 N   0  0  0  0  0  0  0  0  0  0  0  0
  -26.5948  -19.9696   22.0049 N   0  3  0  0  0  0  0  0  0  0  0  0
  -23.6884  -29.6388   22.5069 N   0  0  0  0  0  0  0  0  0  0  0  0
  -31.4506  -18.6937   20.5168 N   0  0  0  0  0  0  0  0  0  0  0  0
  -26.9362  -18.6730   17.7426 N   0  0  0  0  0  0  0  0  0  0  0  0
  -23.8693  -15.5814   18.9395 N   0  0  0  0  0  0  0  0  0  0  0  0
  -24.2127  -32.9823   21.3775 N   0  0  0  0  0  0  0  0  0  0  0  0
  -21.8752  -27.8606   24.7450 N   0  0  0  0  0  0  0  0  0  0  0  0
  -30.9263  -20.2141   22.2509 N   0  0  0  0  0  0  0  0  0  0  0  0
  -20.7501  -24.6152   23.6187 N   0  3  0  0  0  0  0  0  0  0  0  0
  -24.2427  -17.4210   17.6222 O   0  0  0  0  0  0  0  0  0  0  0  0
  -25.6239  -31.4432   22.4080 O   0  0  0  0  0  0  0  0  0  0  0  0
  -21.7737  -30.4631   23.5512 O   0  0  0  0  0  0  0  0  0  0  0  0
  -23.1299  -25.9714   24.2618 O   0  0  0  0  0  0  0  0  0  0  0  0
  -32.9543  -20.3269   21.1872 O   0  0  0  0  0  0  0  0  0  0  0  0
  -24.6402  -11.3989   22.5378 O   0  0  0  0  0  0  0  0  0  0  0  0
  -28.3584  -26.5335   19.9376 O   0  0  0  0  0  0  0  0  0  1  0  0
  -21.6882   -7.7895   19.5947 F   0  0  0  0  0  0  0  0  0  0  0  0
  -25.4294   -8.7577   22.3281 F   0  0  0  0  0  0  0  0  0  0  0  0
  1  2  1  0  0  0  0
  1  5  2  0  0  0  0
  2  6  2  0  0  0  0
  3  8  2  0  0  0  0
  3 16  1  0  0  0  0
  4  9  1  0  0  0  0
  4 16  2  0  0  0  0
  5 18  1  0  0  0  0
  6 20  1  0  0  0  0
  7 10  2  0  0  0  0
  7 19  1  0  0  0  0
  8 22  1  0  0  0  0
  9 22  2  0  0  0  0
 10 23  1  0  0  0  0
 11 12  2  0  0  0  0
 11 24  1  0  0  0  0
 12 25  1  0  0  0  0
 13 21  1  0  0  0  0
 13 23  2  0  0  0  0
 14 25  2  0  0  0  0
 14 26  1  0  0  0  0
 15 28  2  0  0  0  0
 15 70  1  0  0  0  0
 16 27  1  0  0  0  0
 17 27  1  0  0  0  0
 17 29  2  0  0  0  0
 17 31  1  0  0  0  0
 18 20  2  0  0  0  0
 18 36  1  0  0  0  0
 19 21  2  0  0  0  0
 19 37  1  0  0  0  0
 20 45  1  0  0  0  0
 21 38  1  0  0  0  0
 22 84  1  0  0  0  0
 23 85  1  0  0  0  0
 24 26  2  0  0  0  0
 24 84  1  0  0  0  0
 25 86  1  0  0  0  0
 26 87  1  0  0  0  0
 27 67  2  0  0  0  0
 28 55  1  0  0  0  0
 28 68  1  0  0  0  0
 29 69  1  0  0  0  0
 29 73  1  0  0  0  0
 30 56  1  0  0  0  0
 30 68  1  0  0  0  0
 30 70  2  0  0  0  0
 31 74  1  0  0  0  0
 31 79  2  0  0  0  0
 32 46  1  0  0  0  0
 32 75  1  0  0  0  0
 32 80  2  0  0  0  0
 33 63  1  0  0  0  0
 33 71  1  0  0  0  0
 33 81  2  0  0  0  0
 34 64  1  0  0  0  0
 34 76  1  0  0  0  0
 34 82  2  0  0  0  0
 35 72  1  0  0  0  0
 35 77  1  0  0  0  0
 35 83  2  0  0  0  0
 36 39  1  0  0  0  0
 37 46  1  0  0  0  0
 38 71  1  0  0  0  0
 39 41  1  0  0  0  0
 40 42  1  0  0  0  0
 40 43  1  0  0  0  0
 41 45  1  0  0  0  0
 42 47  1  0  0  0  0
 43 72  1  0  0  0  0
 44 47  1  0  0  0  0
 44 72  1  0  0  0  0
 45 75  1  0  0  0  0
 46 71  1  0  0  0  0
 47 69  1  0  0  0  0
 48 57  1  0  0  0  0
 49 64  1  0  0  0  0
 50 65  1  0  0  0  0
 51 66  1  0  0  0  0
 52 66  1  0  0  0  0
 53 66  1  0  0  0  0
 54 78  1  0  0  0  0
 55 58  1  0  0  0  0
 56 57  1  0  0  0  0
 58 59  1  0  0  0  0
 59 62  1  0  0  0  0
 60 65  1  0  0  0  0
 60 68  1  0  0  0  0
 61 65  1  0  0  0  0
 61 77  1  0  0  0  0
 62 85  1  0  0  0  0
 63 66  1  0  0  0  0
 63 76  1  0  0  0  0
 64 78  1  0  0  0  0
 67 69  1  0  0  0  0
M  CHG  2  70   1  78   1
M  ISO  4  35 100  62 101  77 100  85 101
M  END
> <Batch ID>
0078

> <Smiles>
CCCc1ncc(CCC[101CH2:1][101O:1]c2ccc3c(c2)CN(C(=O)C(NC(=O)C(C)NC)C(C)(C)C)C(C(=O)NC2CCCc4ccccc42)C3)n1CC(C)C[100NH:0][100C:0](=O)N1CCCC(n2nc(-c3ccc(Oc4ccc(F)cc4F)cc3)c(C(N)=O)c2N)C1

> <Shape>
0.229

> <Color>
0.066

> <Negative vol penalty>
0.000

$$$$

  -OEChem-04052318393D

 83 91  0     1  0  0  0  0  0999 V2000
  -23.5961  -21.7097   17.1409 C   0  0  0  0  0  0  0  0  0  0  0  0
  -24.7220  -20.9332   16.8864 C   0  0  0  0  0  0  0  0  0  0  0  0
  -24.8116  -25.5004   19.9702 C   0  0  0  0  0  0  0  0  0  0  0  0
  -25.5432  -25.8360   22.2482 C   0  0  0  0  0  0  0  0  0  0  0  0
  -22.9318  -21.5936   18.3612 C   0  0  0  0  0  0  0  0  0  0  0  0
  -25.1849  -20.0407   17.8526 C   0  0  0  0  0  0  0  0  0  0  0  0
  -28.4145  -13.6778   18.4849 C   0  0  0  0  0  0  0  0  0  0  0  0
  -23.5509  -25.9965   20.3020 C   0  0  0  0  0  0  0  0  0  0  0  0
  -24.2825  -26.3322   22.5800 C   0  0  0  0  0  0  0  0  0  0  0  0
  -29.5077  -13.0825   19.1128 C   0  0  0  0  0  0  0  0  0  0  0  0
  -21.3670  -28.0238   23.9423 C   0  0  0  0  0  0  0  0  0  0  0  0
  -21.3084  -29.1822   24.7172 C   0  0  0  0  0  0  0  0  0  0  0  0
  -28.2334  -12.9090   21.1537 C   0  0  0  0  0  0  0  0  0  0  0  0
  -22.5153  -30.3877   23.0063 C   0  0  0  0  0  0  0  0  0  0  0  0
  -32.5606  -15.8531   21.8582 C   0  0  0  0  0  0  0  0  0  0  0  0
  -25.8078  -25.4201   20.9433 C   0  0  0  0  0  0  0  0  0  0  0  0
  -28.2180  -25.6414   20.1375 C   0  0  0  0  0  0  0  0  0  0  0  0
  -23.3812  -20.6922   19.3391 C   0  0  0  0  0  0  0  0  0  0  0  0
  -27.2242  -13.9035   19.1910 C   0  0  0  0  0  0  0  0  0  0  0  0
  -24.5268  -19.9133   19.0877 C   0  0  0  0  0  0  0  0  0  0  0  0
  -27.1257  -13.5050   20.5318 C   0  0  0  0  0  0  0  0  0  0  0  0
  -23.2864  -26.4124   21.6069 C   0  0  0  0  0  0  0  0  0  0  0  0
  -29.4183  -12.7006   20.4482 C   0  0  0  0  0  0  0  0  0  0  0  0
  -21.9998  -28.0474   22.6994 C   0  0  0  0  0  0  0  0  0  0  0  0
  -21.8825  -30.3641   24.2492 C   0  0  0  0  0  0  0  0  0  0  0  0
  -22.5738  -29.2294   22.2314 C   0  0  0  0  0  0  0  0  0  0  0  0
  -27.1101  -24.9072   20.6013 C   0  0  0  0  0  0  0  0  0  0  0  0
  -32.5123  -16.6775   22.9467 C   0  0  0  0  0  0  0  0  0  0  0  0
  -29.2034  -24.7011   19.9604 C   0  0  0  0  0  0  0  0  0  0  0  0
  -34.4759  -15.6554   22.9503 C   0  0  0  0  0  0  0  0  0  0  0  0
  -28.3452  -27.0478   19.8890 C   0  0  0  0  0  0  0  0  0  0  0  0
  -25.5497  -16.4817   19.9990 C   0  0  0  0  0  0  0  0  0  0  0  0
  -23.4204  -14.2833   21.0739 C   0  0  0  0  0  0  0  0  0  0  0  0
  -22.8482  -11.1120   22.1976 C   0  0  0  0  0  0  0  0  0  0  0  0
  -30.1297  -19.4496   22.4939 C   0  0  0  0  0  0  0  0  0  0  0  0
  -22.6581  -20.6359   20.6615 C   0  0  0  0  0  0  0  0  0  0  0  0
  -26.0450  -14.5224   18.4917 C   0  0  0  0  0  0  0  0  0  0  0  0
  -25.8634  -13.7067   21.3284 C   0  0  0  0  0  0  0  0  0  0  0  0
  -22.9925  -19.3956   21.4862 C   0  0  0  0  0  0  0  0  0  0  0  0
  -29.8158  -20.0649   18.9414 C   0  0  0  0  0  0  0  0  0  0  0  0
  -24.4998  -19.1627   21.5129 C   0  0  0  0  0  0  0  0  0  0  0  0
  -29.1862  -21.4591   18.9287 C   0  0  0  0  0  0  0  0  0  0  0  0
  -29.2657  -19.2204   20.0870 C   0  0  0  0  0  0  0  0  0  0  0  0
  -28.7825  -21.2335   21.4239 C   0  0  0  0  0  0  0  0  0  0  0  0
  -25.0450  -18.9160   20.1010 C   0  0  1  0  0  0  0  0  0  0  0  0
  -25.0543  -15.1726   19.4525 C   0  0  1  0  0  0  0  0  0  0  0  0
  -29.3141  -22.1442   20.3022 C   0  0  2  0  0  0  0  0  0  0  0  0
  -35.8423  -15.2371   23.3514 C   0  0  0  0  0  0  0  0  0  0  0  0
  -30.4779  -16.9156   24.4185 C   0  0  0  0  0  0  0  0  0  0  0  0
  -21.0125   -9.6203   23.0356 C   0  0  0  0  0  0  0  0  0  0  0  0
  -23.4813  -15.7233   23.7633 C   0  0  0  0  0  0  0  0  0  0  0  0
  -22.4212  -13.7014   24.7911 C   0  0  0  0  0  0  0  0  0  0  0  0
  -21.2086  -14.9829   23.0276 C   0  0  0  0  0  0  0  0  0  0  0  0
  -23.2286   -9.1991   19.9717 C   0  0  0  0  0  0  0  0  0  0  0  0
  -34.1806  -12.7768   21.3358 C   0  0  0  0  0  0  0  0  0  0  0  0
  -32.7669  -12.3748   21.7591 C   0  0  0  0  0  0  0  0  0  0  0  0
  -34.2754  -14.2334   20.8677 C   0  0  0  0  0  0  0  0  0  0  0  0
  -31.7823  -12.4929   20.6034 C   0  0  0  0  0  0  0  0  0  1  0  0
  -31.4651  -17.5802   23.4317 C   0  0  2  0  0  0  0  0  0  0  0  0
  -23.1968  -13.5614   22.3808 C   0  0  1  0  0  0  0  0  0  0  0  0
  -21.7983  -10.0832   21.8187 C   0  0  2  0  0  0  0  0  0  0  0  0
  -22.6015  -14.4901   23.4765 C   0  0  0  0  0  0  0  0  0  0  0  0
  -27.3668  -23.6010   20.7118 N   0  0  0  0  0  0  0  0  0  0  0  0
  -33.7868  -15.2336   21.8851 N   0  0  0  0  0  0  0  0  0  0  0  0
  -28.6473  -23.5072   20.3148 N   0  0  0  0  0  0  0  0  0  0  0  0
  -33.7103  -16.5349   23.6044 N   0  3  0  0  0  0  0  0  0  0  0  0
  -24.7402  -14.3216   20.6020 N   0  0  0  0  0  0  0  0  0  0  0  0
  -29.4349  -19.9211   21.3678 N   0  0  0  0  0  0  0  0  0  0  0  0
  -30.4825  -24.7873   19.5377 N   0  0  0  0  0  0  0  0  0  0  0  0
  -27.2352  -27.8707   20.1235 N   0  0  0  0  0  0  0  0  0  0  0  0
  -24.7534  -17.5637   19.6758 N   0  0  0  0  0  0  0  0  0  0  0  0
  -22.3715  -12.3995   22.0693 N   0  0  0  0  0  0  0  0  0  0  0  0
  -30.7127  -18.1953   22.3609 N   0  0  0  0  0  0  0  0  0  0  0  0
  -22.4414   -8.8928   21.1938 N   0  3  0  0  0  0  0  0  0  0  0  0
  -29.4065  -27.5571   19.4558 O   0  0  0  0  0  0  0  0  0  0  0  0
  -26.5775  -16.5079   20.6658 O   0  0  0  0  0  0  0  0  0  0  0  0
  -22.4585  -14.7882   20.4897 O   0  0  0  0  0  0  0  0  0  0  0  0
  -23.9771  -10.8043   22.5737 O   0  0  0  0  0  0  0  0  0  0  0  0
  -30.2281  -20.1008   23.5396 O   0  0  0  0  0  0  0  0  0  0  0  0
  -22.0564  -26.8968   21.9310 O   0  0  0  0  0  0  0  0  0  0  0  0
  -30.4841  -12.1200   21.0637 O   0  0  0  0  0  0  0  0  0  1  0  0
  -21.8249  -31.4767   24.9928 F   0  0  0  0  0  0  0  0  0  0  0  0
  -23.1820  -29.2585   21.0377 F   0  0  0  0  0  0  0  0  0  0  0  0
  1  2  1  0  0  0  0
  1  5  2  0  0  0  0
  2  6  2  0  0  0  0
  3  8  2  0  0  0  0
  3 16  1  0  0  0  0
  4  9  1  0  0  0  0
  4 16  2  0  0  0  0
  5 18  1  0  0  0  0
  6 20  1  0  0  0  0
  7 10  2  0  0  0  0
  7 19  1  0  0  0  0
  8 22  1  0  0  0  0
  9 22  2  0  0  0  0
 10 23  1  0  0  0  0
 11 12  2  0  0  0  0
 11 24  1  0  0  0  0
 12 25  1  0  0  0  0
 13 21  1  0  0  0  0
 13 23  2  0  0  0  0
 14 25  2  0  0  0  0
 14 26  1  0  0  0  0
 15 28  2  0  0  0  0
 15 64  1  0  0  0  0
 16 27  1  0  0  0  0
 17 27  1  0  0  0  0
 17 29  2  0  0  0  0
 17 31  1  0  0  0  0
 18 20  2  0  0  0  0
 18 36  1  0  0  0  0
 19 21  2  0  0  0  0
 19 37  1  0  0  0  0
 20 45  1  0  0  0  0
 21 38  1  0  0  0  0
 22 80  1  0  0  0  0
 23 81  1  0  0  0  0
 24 26  2  0  0  0  0
 24 80  1  0  0  0  0
 25 82  1  0  0  0  0
 26 83  1  0  0  0  0
 27 63  2  0  0  0  0
 28 59  1  0  0  0  0
 28 66  1  0  0  0  0
 29 65  1  0  0  0  0
 29 69  1  0  0  0  0
 30 48  1  0  0  0  0
 30 64  1  0  0  0  0
 30 66  2  0  0  0  0
 31 70  1  0  0  0  0
 31 75  2  0  0  0  0
 32 46  1  0  0  0  0
 32 71  1  0  0  0  0
 32 76  2  0  0  0  0
 33 60  1  0  0  0  0
 33 67  1  0  0  0  0
 33 77  2  0  0  0  0
 34 61  1  0  0  0  0
 34 72  1  0  0  0  0
 34 78  2  0  0  0  0
 35 68  1  0  0  0  0
 35 73  1  0  0  0  0
 35 79  2  0  0  0  0
 36 39  1  0  0  0  0
 37 46  1  0  0  0  0
 38 67  1  0  0  0  0
 39 41  1  0  0  0  0
 40 42  1  0  0  0  0
 40 43  1  0  0  0  0
 41 45  1  0  0  0  0
 42 47  1  0  0  0  0
 43 68  1  0  0  0  0
 44 47  1  0  0  0  0
 44 68  1  0  0  0  0
 45 71  1  0  0  0  0
 46 67  1  0  0  0  0
 47 65  1  0  0  0  0
 49 59  1  0  0  0  0
 50 61  1  0  0  0  0
 51 62  1  0  0  0  0
 52 62  1  0  0  0  0
 53 62  1  0  0  0  0
 54 74  1  0  0  0  0
 55 56  1  0  0  0  0
 55 57  1  0  0  0  0
 56 58  1  0  0  0  0
 57 64  1  0  0  0  0
 58 81  1  0  0  0  0
 59 73  1  0  0  0  0
 60 62  1  0  0  0  0
 60 72  1  0  0  0  0
 61 74  1  0  0  0  0
 63 65  1  0  0  0  0
M  CHG  2  66   1  74   1
M  ISO  4  35 100  58 101  73 100  81 101
M  END
> <Batch ID>
0078

> <Smiles>
CNC(C)C(=O)NC(C(=O)N1Cc2cc([101O:1][101CH2:1]CCCn3cc(C(C)[100NH:0][100C:0](=O)N4CCCC(n5nc(-c6ccc(Oc7ccc(F)cc7F)cc6)c(C(N)=O)c5N)C4)nc3C)ccc2CC1C(=O)NC1CCCc2ccccc21)C(C)(C)C

> <Shape>
0.222

> <Color>
0.057

> <Negative vol penalty>
0.000

$$$$

  -OEChem-04052318393D

 87 95  0     1  0  0  0  0  0999 V2000
  -30.4307  -24.2061   28.5793 C   0  0  0  0  0  0  0  0  0  0  0  0
  -30.3124  -24.3303   27.1987 C   0  0  0  0  0  0  0  0  0  0  0  0
  -26.2300  -12.2950   21.3340 C   0  0  0  0  0  0  0  0  0  0  0  0
  -25.6310  -14.2053   19.9815 C   0  0  0  0  0  0  0  0  0  0  0  0
  -29.2874  -24.0815   29.3674 C   0  0  0  0  0  0  0  0  0  0  0  0
  -29.0505  -24.3289   26.6053 C   0  0  0  0  0  0  0  0  0  0  0  0
  -28.5508  -27.9436   23.0940 C   0  0  0  0  0  0  0  0  0  0  0  0
  -25.0117  -11.6918   21.0216 C   0  0  0  0  0  0  0  0  0  0  0  0
  -24.4127  -13.6021   19.6691 C   0  0  0  0  0  0  0  0  0  0  0  0
  -29.1290  -27.7052   21.8480 C   0  0  0  0  0  0  0  0  0  0  0  0
  -21.7865  -11.9394   22.0020 C   0  0  0  0  0  0  0  0  0  0  0  0
  -21.0711  -11.3483   23.0433 C   0  0  0  0  0  0  0  0  0  0  0  0
  -26.9710  -27.0740   20.9740 C   0  0  0  0  0  0  0  0  0  0  0  0
  -21.1896   -9.2157   21.9141 C   0  0  0  0  0  0  0  0  0  0  0  0
  -27.2201  -22.3973   17.1024 C   0  0  0  0  0  0  0  0  0  0  0  0
  -26.5396  -13.5518   20.8139 C   0  0  0  0  0  0  0  0  0  0  0  0
  -29.0107  -14.0574   20.4320 C   0  0  0  0  0  0  0  0  0  0  0  0
  -28.0104  -24.0883   28.7843 C   0  0  0  0  0  0  0  0  0  0  0  0
  -27.1779  -27.7382   23.2926 C   0  0  0  0  0  0  0  0  0  0  0  0
  -27.8890  -24.2029   27.3863 C   0  0  0  0  0  0  0  0  0  0  0  0
  -26.3773  -27.3130   22.2228 C   0  0  0  0  0  0  0  0  0  0  0  0
  -24.1031  -12.3453   20.1892 C   0  0  0  0  0  0  0  0  0  0  0  0
  -28.3396  -27.2675   20.7885 C   0  0  0  0  0  0  0  0  0  0  0  0
  -22.2034  -11.1687   20.9167 C   0  0  0  0  0  0  0  0  0  0  0  0
  -20.7726   -9.9864   22.9994 C   0  0  0  0  0  0  0  0  0  0  0  0
  -21.9050   -9.8069   20.8727 C   0  0  0  0  0  0  0  0  0  0  0  0
  -27.7977  -14.1757   21.1366 C   0  0  0  0  0  0  0  0  0  0  0  0
  -26.7432  -21.3289   17.8341 C   0  0  0  0  0  0  0  0  0  0  0  0
  -28.2450  -23.1121   17.6880 C   0  0  0  0  0  0  0  0  0  0  0  0
  -29.8951  -14.8357   21.1380 C   0  0  0  0  0  0  0  0  0  0  0  0
  -28.2213  -21.7513   19.5087 C   0  0  0  0  0  0  0  0  0  0  0  0
  -29.3110  -13.3109   19.2454 C   0  0  0  0  0  0  0  0  0  0  0  0
  -25.4406  -25.8273   25.1458 C   0  0  0  0  0  0  0  0  0  0  0  0
  -22.9710  -27.5542   23.9454 C   0  0  0  0  0  0  0  0  0  0  0  0
  -21.7607  -29.5163   21.4290 C   0  0  0  0  0  0  0  0  0  0  0  0
  -29.1845  -19.5331   24.7823 C   0  0  0  0  0  0  0  0  0  0  0  0
  -26.8057  -23.9034   29.6727 C   0  0  0  0  0  0  0  0  0  0  0  0
  -26.5647  -28.0255   24.6357 C   0  0  0  0  0  0  0  0  0  0  0  0
  -24.8949  -27.0968   22.3787 C   0  0  0  0  0  0  0  0  0  0  0  0
  -25.4894  -24.2874   29.0017 C   0  0  0  0  0  0  0  0  0  0  0  0
  -30.7680  -16.4404   25.5600 C   0  0  0  0  0  0  0  0  0  0  0  0
  -25.4113  -23.6918   27.5996 C   0  0  0  0  0  0  0  0  0  0  0  0
  -30.2957  -15.4986   24.4510 C   0  0  0  0  0  0  0  0  0  0  0  0
  -29.6706  -17.4176   25.9759 C   0  0  0  0  0  0  0  0  0  0  0  0
  -28.6057  -17.2492   23.7598 C   0  0  0  0  0  0  0  0  0  0  0  0
  -26.5366  -24.2305   26.7079 C   0  0  1  0  0  0  0  0  0  0  0  0
  -25.2473  -27.2898   24.8608 C   0  0  1  0  0  0  0  0  0  0  0  0
  -29.6959  -16.2819   23.2678 C   0  0  2  0  0  0  0  0  0  0  0  0
  -25.6354  -20.4957   17.2822 C   0  0  0  0  0  0  0  0  0  0  0  0
  -30.3195  -21.5961   20.8986 C   0  0  0  0  0  0  0  0  0  0  0  0
  -19.6952  -30.7471   20.7106 C   0  0  0  0  0  0  0  0  0  0  0  0
  -21.6817  -24.9110   23.1322 C   0  0  0  0  0  0  0  0  0  0  0  0
  -20.1552  -26.1999   21.6233 C   0  0  0  0  0  0  0  0  0  0  0  0
  -20.0973  -26.5947   24.0858 C   0  0  0  0  0  0  0  0  0  0  0  0
  -28.0908  -23.5678   22.0968 C   0  0  0  0  0  0  0  0  0  0  0  0
  -26.5416  -21.6134   22.0901 C   0  0  0  0  0  0  0  0  0  0  0  0
  -23.1637  -32.1220   21.4555 C   0  0  0  0  0  0  0  0  0  0  0  0
  -28.8331  -24.2964   16.9634 C   0  0  0  0  0  0  0  0  0  0  0  0
  -29.3738  -25.3826   17.8958 C   0  0  0  0  0  0  0  0  0  0  0  0
  -28.6489  -21.5629   23.4587 C   0  0  0  0  0  0  0  0  0  0  0  0
  -28.2964  -26.0285   18.7590 C   0  0  0  0  0  0  0  0  0  1  0  0
  -28.7803  -21.3908   20.8434 C   0  0  1  0  0  0  0  0  0  0  0  0
  -22.0676  -27.4338   22.7419 C   0  0  1  0  0  0  0  0  0  0  0  0
  -21.0195  -30.8409   21.4522 C   0  0  2  0  0  0  0  0  0  0  0  0
  -21.0287  -26.2870   22.8930 C   0  0  0  0  0  0  0  0  0  0  0  0
  -28.0341  -22.0241   22.1056 C   0  0  0  0  0  0  0  0  0  0  0  0
  -27.8988  -14.9666   22.2081 N   0  0  0  0  0  0  0  0  0  0  0  0
  -27.2224  -20.9762   19.0451 N   0  0  0  0  0  0  0  0  0  0  0  0
  -28.7715  -22.8160   18.8944 N   0  0  0  0  0  0  0  0  0  0  0  0
  -29.1859  -15.3524   22.1821 N   0  0  0  0  0  0  0  0  0  0  0  0
  -24.3433  -27.3853   23.7128 N   0  0  0  0  0  0  0  0  0  0  0  0
  -29.1453  -18.1292   24.8082 N   0  0  0  0  0  0  0  0  0  0  0  0
  -31.2026  -15.1216   20.9614 N   0  0  0  0  0  0  0  0  0  0  0  0
  -28.2858  -12.5652   18.6477 N   0  0  0  0  0  0  0  0  0  0  0  0
  -26.2248  -25.5688   26.2538 N   0  0  0  0  0  0  0  0  0  0  0  0
  -21.4768  -28.7526   22.5414 N   0  0  0  0  0  0  0  0  0  0  0  0
  -28.6721  -20.1281   23.6359 N   0  0  0  0  0  0  0  0  0  0  0  0
  -21.8422  -31.9060   20.8122 N   0  3  0  0  0  0  0  0  0  0  0  0
  -30.4588  -13.2921   18.7396 O   0  0  0  0  0  0  0  0  0  0  0  0
  -24.9159  -24.9949   24.4154 O   0  0  0  0  0  0  0  0  0  0  0  0
  -22.4779  -27.7964   25.0498 O   0  0  0  0  0  0  0  0  0  0  0  0
  -22.5131  -29.1899   20.5136 O   0  0  0  0  0  0  0  0  0  0  0  0
  -29.6470  -20.2062   25.7097 O   0  0  0  0  0  0  0  0  0  0  0  0
  -22.9143  -11.7569   19.8840 O   0  0  0  0  0  0  0  0  0  0  0  0
  -28.9016  -27.0335   19.5715 O   0  0  0  0  0  0  0  0  0  1  0  0
  -20.0870   -9.4186   24.0001 F   0  0  0  0  0  0  0  0  0  0  0  0
  -22.3039   -9.0611   19.8332 F   0  0  0  0  0  0  0  0  0  0  0  0
  1  2  1  0  0  0  0
  1  5  2  0  0  0  0
  2  6  2  0  0  0  0
  3  8  2  0  0  0  0
  3 16  1  0  0  0  0
  4  9  1  0  0  0  0
  4 16  2  0  0  0  0
  5 18  1  0  0  0  0
  6 20  1  0  0  0  0
  7 10  2  0  0  0  0
  7 19  1  0  0  0  0
  8 22  1  0  0  0  0
  9 22  2  0  0  0  0
 10 23  1  0  0  0  0
 11 12  2  0  0  0  0
 11 24  1  0  0  0  0
 12 25  1  0  0  0  0
 13 21  1  0  0  0  0
 13 23  2  0  0  0  0
 14 25  2  0  0  0  0
 14 26  1  0  0  0  0
 15 28  2  0  0  0  0
 15 29  1  0  0  0  0
 16 27  1  0  0  0  0
 17 27  1  0  0  0  0
 17 30  2  0  0  0  0
 17 32  1  0  0  0  0
 18 20  2  0  0  0  0
 18 37  1  0  0  0  0
 19 21  2  0  0  0  0
 19 38  1  0  0  0  0
 20 46  1  0  0  0  0
 21 39  1  0  0  0  0
 22 84  1  0  0  0  0
 23 85  1  0  0  0  0
 24 26  2  0  0  0  0
 24 84  1  0  0  0  0
 25 86  1  0  0  0  0
 26 87  1  0  0  0  0
 27 67  2  0  0  0  0
 28 49  1  0  0  0  0
 28 68  1  0  0  0  0
 29 58  1  0  0  0  0
 29 69  2  0  0  0  0
 30 70  1  0  0  0  0
 30 73  1  0  0  0  0
 31 62  1  0  0  0  0
 31 68  2  0  0  0  0
 31 69  1  0  0  0  0
 32 74  1  0  0  0  0
 32 79  2  0  0  0  0
 33 47  1  0  0  0  0
 33 75  1  0  0  0  0
 33 80  2  0  0  0  0
 34 63  1  0  0  0  0
 34 71  1  0  0  0  0
 34 81  2  0  0  0  0
 35 64  1  0  0  0  0
 35 76  1  0  0  0  0
 35 82  2  0  0  0  0
 36 72  1  0  0  0  0
 36 77  1  0  0  0  0
 36 83  2  0  0  0  0
 37 40  1  0  0  0  0
 38 47  1  0  0  0  0
 39 71  1  0  0  0  0
 40 42  1  0  0  0  0
 41 43  1  0  0  0  0
 41 44  1  0  0  0  0
 42 46  1  0  0  0  0
 43 48  1  0  0  0  0
 44 72  1  0  0  0  0
 45 48  1  0  0  0  0
 45 72  1  0  0  0  0
 46 75  1  0  0  0  0
 47 71  1  0  0  0  0
 48 70  1  0  0  0  0
 50 62  1  0  0  0  0
 51 64  1  0  0  0  0
 52 65  1  0  0  0  0
 53 65  1  0  0  0  0
 54 65  1  0  0  0  0
 55 66  1  0  0  0  0
 56 66  1  0  0  0  0
 57 78  1  0  0  0  0
 58 59  1  0  0  0  0
 59 61  1  0  0  0  0
 60 66  1  0  0  0  0
 60 77  1  0  0  0  0
 61 85  1  0  0  0  0
 62 66  1  0  0  0  0
 63 65  1  0  0  0  0
 63 76  1  0  0  0  0
 64 78  1  0  0  0  0
 67 70  1  0  0  0  0
M  CHG  1  78   1
M  ISO  4  36 100  61 101  77 100  85 101
M  END
> <Batch ID>
0078

> <Smiles>
CNC(C)C(=O)NC(C(=O)N1Cc2cc([101O:1][101CH2:1]CCc3cc(C)nc(C(C)C(C)(C)C[100NH:0][100C:0](=O)N4CCCC(n5nc(-c6ccc(Oc7ccc(F)cc7F)cc6)c(C(N)=O)c5N)C4)n3)ccc2CC1C(=O)NC1CCCc2ccccc21)C(C)(C)C

> <Shape>
0.215

> <Color>
0.061

> <Negative vol penalty>
0.000

$$$$

  -OEChem-04052318393D

 84 92  0     1  0  0  0  0  0999 V2000
  -30.2098  -34.7116   17.3095 C   0  0  0  0  0  0  0  0  0  0  0  0
  -30.3525  -33.3421   17.1111 C   0  0  0  0  0  0  0  0  0  0  0  0
  -22.6846  -10.2776   20.9182 C   0  0  0  0  0  0  0  0  0  0  0  0
  -24.4632   -9.1466   22.0991 C   0  0  0  0  0  0  0  0  0  0  0  0
  -29.7457  -35.1930   18.5329 C   0  0  0  0  0  0  0  0  0  0  0  0
  -30.0321  -32.4531   18.1365 C   0  0  0  0  0  0  0  0  0  0  0  0
  -27.5904  -26.8686   17.5385 C   0  0  0  0  0  0  0  0  0  0  0  0
  -22.0065   -9.0666   20.7796 C   0  0  0  0  0  0  0  0  0  0  0  0
  -23.7852   -7.9356   21.9605 C   0  0  0  0  0  0  0  0  0  0  0  0
  -28.1536  -25.5933   17.5431 C   0  0  0  0  0  0  0  0  0  0  0  0
  -22.3513   -4.6058   22.2334 C   0  0  0  0  0  0  0  0  0  0  0  0
  -22.2683   -3.7764   23.3518 C   0  0  0  0  0  0  0  0  0  0  0  0
  -27.6250  -25.3748   19.8866 C   0  0  0  0  0  0  0  0  0  0  0  0
  -21.1082   -5.5190   24.5579 C   0  0  0  0  0  0  0  0  0  0  0  0
  -31.4796  -17.7979   19.4224 C   0  0  0  0  0  0  0  0  0  0  0  0
  -23.9130  -10.3177   21.5780 C   0  0  0  0  0  0  0  0  0  0  0  0
  -24.4995  -12.4911   22.7779 C   0  0  0  0  0  0  0  0  0  0  0  0
  -29.4102  -34.3090   19.5705 C   0  0  0  0  0  0  0  0  0  0  0  0
  -27.0492  -27.4119   18.7126 C   0  0  0  0  0  0  0  0  0  0  0  0
  -29.5643  -32.9232   19.3754 C   0  0  0  0  0  0  0  0  0  0  0  0
  -27.0533  -26.6562   19.8937 C   0  0  0  0  0  0  0  0  0  0  0  0
  -22.5568   -7.8956   21.3007 C   0  0  0  0  0  0  0  0  0  0  0  0
  -28.1736  -24.8473   18.7179 C   0  0  0  0  0  0  0  0  0  0  0  0
  -21.8128   -5.8918   22.2772 C   0  0  0  0  0  0  0  0  0  0  0  0
  -21.6467   -4.2330   24.5140 C   0  0  0  0  0  0  0  0  0  0  0  0
  -21.1913   -6.3484   23.4395 C   0  0  0  0  0  0  0  0  0  0  0  0
  -24.6141  -11.5683   21.7210 C   0  0  0  0  0  0  0  0  0  0  0  0
  -30.3256  -18.0446   20.1110 C   0  0  0  0  0  0  0  0  0  0  0  0
  -25.3656  -13.5037   22.4450 C   0  0  0  0  0  0  0  0  0  0  0  0
  -29.9228  -18.3806   17.9604 C   0  0  0  0  0  0  0  0  0  0  0  0
  -23.6831  -12.4376   23.9554 C   0  0  0  0  0  0  0  0  0  0  0  0
  -27.6982  -29.9459   20.5184 C   0  0  0  0  0  0  0  0  0  0  0  0
  -25.0074  -29.0330   22.0831 C   0  0  0  0  0  0  0  0  0  0  0  0
  -22.8288  -26.5308   22.8830 C   0  0  0  0  0  0  0  0  0  0  0  0
  -30.5918  -14.7824   20.6097 C   0  0  0  0  0  0  0  0  0  0  0  0
  -28.9574  -34.8787   20.8915 C   0  0  0  0  0  0  0  0  0  0  0  0
  -26.4213  -28.7784   18.6847 C   0  0  0  0  0  0  0  0  0  0  0  0
  -26.4670  -27.1858   21.1760 C   0  0  0  0  0  0  0  0  0  0  0  0
  -28.2840  -33.8522   21.7987 C   0  0  0  0  0  0  0  0  0  0  0  0
  -27.8432  -14.4627   18.1512 C   0  0  0  0  0  0  0  0  0  0  0  0
  -29.1000  -32.5643   21.8455 C   0  0  0  0  0  0  0  0  0  0  0  0
  -26.7822  -13.6930   18.9360 C   0  0  0  0  0  0  0  0  0  0  0  0
  -29.2530  -14.1414   18.6379 C   0  0  0  0  0  0  0  0  0  0  0  0
  -28.3862  -13.5769   20.8839 C   0  0  0  0  0  0  0  0  0  0  0  0
  -29.2035  -31.9260   20.4551 C   0  0  1  0  0  0  0  0  0  0  0  0
  -26.3612  -29.4364   20.0598 C   0  0  1  0  0  0  0  0  0  0  0  0
  -26.9518  -13.9132   20.4493 C   0  0  2  0  0  0  0  0  0  0  0  0
  -29.2481  -18.7009   16.6780 C   0  0  0  0  0  0  0  0  0  0  0  0
  -20.7469  -26.0809   24.2099 C   0  0  0  0  0  0  0  0  0  0  0  0
  -26.6450  -29.0613   24.6575 C   0  0  0  0  0  0  0  0  0  0  0  0
  -24.8300  -27.7226   25.7446 C   0  0  0  0  0  0  0  0  0  0  0  0
  -24.3412  -30.0094   24.8762 C   0  0  0  0  0  0  0  0  0  0  0  0
  -31.6563  -15.5113   22.7110 C   0  0  0  0  0  0  0  0  0  0  0  0
  -21.3206  -25.7331   20.4648 C   0  0  0  0  0  0  0  0  0  0  0  0
  -30.0418  -17.9726   21.5495 C   0  0  0  0  0  0  0  0  0  0  0  0
  -27.7695  -20.1958   20.0119 C   0  0  0  0  0  0  0  0  0  0  0  0
  -28.3455  -21.2582   19.0744 C   0  0  0  0  0  0  0  0  0  0  0  0
  -27.9472  -18.7683   19.4824 C   0  0  0  0  0  0  0  0  0  0  0  0
  -29.5458  -16.5940   22.0334 C   0  0  0  0  0  0  0  0  0  0  0  0
  -28.1822  -22.6589   19.6490 C   0  0  0  0  0  0  0  0  0  1  0  0
  -24.7042  -28.1145   23.2423 C   0  0  1  0  0  0  0  0  0  0  0  0
  -21.3124  -26.4674   22.8521 C   0  0  2  0  0  0  0  0  0  0  0  0
  -25.1430  -28.7175   24.6066 C   0  0  0  0  0  0  0  0  0  0  0  0
  -25.4843  -11.9601   20.7865 N   0  0  0  0  0  0  0  0  0  0  0  0
  -29.3792  -18.4036   19.1817 N   0  0  0  0  0  0  0  0  0  0  0  0
  -25.9243  -13.1403   21.2551 N   0  0  0  0  0  0  0  0  0  0  0  0
  -31.2013  -18.0132   18.0941 N   0  3  0  0  0  0  0  0  0  0  0  0
  -25.8703  -28.5295   21.0994 N   0  0  0  0  0  0  0  0  0  0  0  0
  -29.3745  -14.3175   20.0855 N   0  0  0  0  0  0  0  0  0  0  0  0
  -25.6960  -14.6608   23.0570 N   0  0  0  0  0  0  0  0  0  0  0  0
  -22.8511  -11.3252   24.1416 N   0  0  0  0  0  0  0  0  0  0  0  0
  -27.9737  -31.2403   20.1209 N   0  0  0  0  0  0  0  0  0  0  0  0
  -23.2813  -27.8044   23.1560 N   0  0  0  0  0  0  0  0  0  0  0  0
  -30.5320  -15.5443   21.7865 N   0  0  0  0  0  0  0  0  0  0  0  0
  -20.8563  -25.4632   21.8499 N   0  3  0  0  0  0  0  0  0  0  0  0
  -23.6790  -13.3570   24.8088 O   0  0  0  0  0  0  0  0  0  0  0  0
  -28.4255  -29.2190   21.1850 O   0  0  0  0  0  0  0  0  0  0  0  0
  -24.4918  -30.1530   22.0482 O   0  0  0  0  0  0  0  0  0  0  0  0
  -23.5407  -25.5480   22.6884 O   0  0  0  0  0  0  0  0  0  0  0  0
  -31.6697  -14.5389   20.0523 O   0  0  0  0  0  0  0  0  0  0  0  0
  -21.8953   -6.7137   21.1658 O   0  0  0  0  0  0  0  0  0  0  0  0
  -28.7233  -23.6024   18.7252 O   0  0  0  0  0  0  0  0  0  1  0  0
  -21.5658   -3.4359   25.5875 F   0  0  0  0  0  0  0  0  0  0  0  0
  -20.6710   -7.5824   23.4872 F   0  0  0  0  0  0  0  0  0  0  0  0
  1  2  1  0  0  0  0
  1  5  2  0  0  0  0
  2  6  2  0  0  0  0
  3  8  2  0  0  0  0
  3 16  1  0  0  0  0
  4  9  1  0  0  0  0
  4 16  2  0  0  0  0
  5 18  1  0  0  0  0
  6 20  1  0  0  0  0
  7 10  2  0  0  0  0
  7 19  1  0  0  0  0
  8 22  1  0  0  0  0
  9 22  2  0  0  0  0
 10 23  1  0  0  0  0
 11 12  2  0  0  0  0
 11 24  1  0  0  0  0
 12 25  1  0  0  0  0
 13 21  1  0  0  0  0
 13 23  2  0  0  0  0
 14 25  2  0  0  0  0
 14 26  1  0  0  0  0
 15 28  2  0  0  0  0
 15 67  1  0  0  0  0
 16 27  1  0  0  0  0
 17 27  1  0  0  0  0
 17 29  2  0  0  0  0
 17 31  1  0  0  0  0
 18 20  2  0  0  0  0
 18 36  1  0  0  0  0
 19 21  2  0  0  0  0
 19 37  1  0  0  0  0
 20 45  1  0  0  0  0
 21 38  1  0  0  0  0
 22 81  1  0  0  0  0
 23 82  1  0  0  0  0
 24 26  2  0  0  0  0
 24 81  1  0  0  0  0
 25 83  1  0  0  0  0
 26 84  1  0  0  0  0
 27 64  2  0  0  0  0
 28 55  1  0  0  0  0
 28 65  1  0  0  0  0
 29 66  1  0  0  0  0
 29 70  1  0  0  0  0
 30 48  1  0  0  0  0
 30 65  1  0  0  0  0
 30 67  2  0  0  0  0
 31 71  1  0  0  0  0
 31 76  2  0  0  0  0
 32 46  1  0  0  0  0
 32 72  1  0  0  0  0
 32 77  2  0  0  0  0
 33 61  1  0  0  0  0
 33 68  1  0  0  0  0
 33 78  2  0  0  0  0
 34 62  1  0  0  0  0
 34 73  1  0  0  0  0
 34 79  2  0  0  0  0
 35 69  1  0  0  0  0
 35 74  1  0  0  0  0
 35 80  2  0  0  0  0
 36 39  1  0  0  0  0
 37 46  1  0  0  0  0
 38 68  1  0  0  0  0
 39 41  1  0  0  0  0
 40 42  1  0  0  0  0
 40 43  1  0  0  0  0
 41 45  1  0  0  0  0
 42 47  1  0  0  0  0
 43 69  1  0  0  0  0
 44 47  1  0  0  0  0
 44 69  1  0  0  0  0
 45 72  1  0  0  0  0
 46 68  1  0  0  0  0
 47 66  1  0  0  0  0
 49 62  1  0  0  0  0
 50 63  1  0  0  0  0
 51 63  1  0  0  0  0
 52 63  1  0  0  0  0
 53 74  1  0  0  0  0
 54 75  1  0  0  0  0
 55 59  1  0  0  0  0
 56 57  1  0  0  0  0
 56 58  1  0  0  0  0
 57 60  1  0  0  0  0
 58 65  1  0  0  0  0
 59 74  1  0  0  0  0
 60 82  1  0  0  0  0
 61 63  1  0  0  0  0
 61 73  1  0  0  0  0
 62 75  1  0  0  0  0
 64 66  1  0  0  0  0
M  CHG  2  67   1  75   1
M  ISO  4  35 100  60 101  74 100  82 101
M  END
> <Batch ID>
0078

> <Smiles>
CNC(C)C(=O)NC(C(=O)N1Cc2cc([101O:1][101CH2:1]CCCn3c(CC[100N:0](C)[100C:0](=O)N4CCCC(n5nc(-c6ccc(Oc7ccc(F)cc7F)cc6)c(C(N)=O)c5N)C4)cnc3C)ccc2CC1C(=O)NC1CCCc2ccccc21)C(C)(C)C

> <Shape>
0.289

> <Color>
0.125

> <Negative vol penalty>
0.000

$$$$

  -OEChem-04052318393D

 85 93  0     1  0  0  0  0  0999 V2000
  -27.2879  -22.5185   24.7960 C   0  0  0  0  0  0  0  0  0  0  0  0
  -27.7020  -22.0098   23.5692 C   0  0  0  0  0  0  0  0  0  0  0  0
  -23.0698   -9.8816   19.9192 C   0  0  0  0  0  0  0  0  0  0  0  0
  -23.8456   -9.8537   22.2071 C   0  0  0  0  0  0  0  0  0  0  0  0
  -26.6011  -23.7306   24.8508 C   0  0  0  0  0  0  0  0  0  0  0  0
  -27.4286  -22.7125   22.3962 C   0  0  0  0  0  0  0  0  0  0  0  0
  -31.4203  -22.9315   19.2876 C   0  0  0  0  0  0  0  0  0  0  0  0
  -22.3276   -8.7248   20.1567 C   0  0  0  0  0  0  0  0  0  0  0  0
  -23.1034   -8.6968   22.4446 C   0  0  0  0  0  0  0  0  0  0  0  0
  -31.7021  -21.7942   18.5320 C   0  0  0  0  0  0  0  0  0  0  0  0
  -19.8794   -7.8899   23.0573 C   0  0  0  0  0  0  0  0  0  0  0  0
  -19.1306   -7.8321   24.2327 C   0  0  0  0  0  0  0  0  0  0  0  0
  -30.6273  -22.8036   16.6228 C   0  0  0  0  0  0  0  0  0  0  0  0
  -20.3769   -5.8837   24.9309 C   0  0  0  0  0  0  0  0  0  0  0  0
  -30.6718  -18.3064   19.0252 C   0  0  0  0  0  0  0  0  0  0  0  0
  -23.8289  -10.4461   20.9444 C   0  0  0  0  0  0  0  0  0  0  0  0
  -24.1702  -12.9727   20.8605 C   0  0  0  0  0  0  0  0  0  0  0  0
  -26.3276  -24.4533   23.6788 C   0  0  0  0  0  0  0  0  0  0  0  0
  -30.7291  -24.0108   18.7185 C   0  0  0  0  0  0  0  0  0  0  0  0
  -26.7364  -23.9348   22.4352 C   0  0  0  0  0  0  0  0  0  0  0  0
  -30.3402  -23.9545   17.3726 C   0  0  0  0  0  0  0  0  0  0  0  0
  -22.3443   -8.1324   21.4194 C   0  0  0  0  0  0  0  0  0  0  0  0
  -31.3030  -21.7289   17.2002 C   0  0  0  0  0  0  0  0  0  0  0  0
  -20.8769   -6.9445   22.8187 C   0  0  0  0  0  0  0  0  0  0  0  0
  -19.3794   -6.8291   25.1695 C   0  0  0  0  0  0  0  0  0  0  0  0
  -21.1257   -5.9415   23.7555 C   0  0  0  0  0  0  0  0  0  0  0  0
  -24.5963  -11.6407   20.6995 C   0  0  0  0  0  0  0  0  0  0  0  0
  -29.7939  -18.2769   20.0717 C   0  0  0  0  0  0  0  0  0  0  0  0
  -25.2598  -13.7277   20.5011 C   0  0  0  0  0  0  0  0  0  0  0  0
  -28.6225  -18.4576   18.2020 C   0  0  0  0  0  0  0  0  0  0  0  0
  -22.9027  -13.4821   21.2960 C   0  0  0  0  0  0  0  0  0  0  0  0
  -27.9562  -25.4536   19.2954 C   0  0  0  0  0  0  0  0  0  0  0  0
  -29.0059  -27.5224   17.0282 C   0  0  0  0  0  0  0  0  0  0  0  0
  -31.0118  -28.0849   14.3251 C   0  0  0  0  0  0  0  0  0  0  0  0
  -30.7449  -14.7437   20.6668 C   0  0  0  0  0  0  0  0  0  0  0  0
  -25.5408  -25.7357   23.7837 C   0  0  0  0  0  0  0  0  0  0  0  0
  -30.4564  -25.2414   19.5394 C   0  0  0  0  0  0  0  0  0  0  0  0
  -29.6135  -25.0946   16.7088 C   0  0  0  0  0  0  0  0  0  0  0  0
  -25.6195  -26.6028   22.5298 C   0  0  0  0  0  0  0  0  0  0  0  0
  -29.5905  -12.3959   18.2520 C   0  0  0  0  0  0  0  0  0  0  0  0
  -25.3969  -25.7564   21.2805 C   0  0  0  0  0  0  0  0  0  0  0  0
  -28.1560  -12.0956   18.6903 C   0  0  0  0  0  0  0  0  0  0  0  0
  -30.5159  -12.5984   19.4497 C   0  0  0  0  0  0  0  0  0  0  0  0
  -28.6239  -13.3082   20.8604 C   0  0  0  0  0  0  0  0  0  0  0  0
  -26.4803  -24.6799   21.1432 C   0  0  1  0  0  0  0  0  0  0  0  0
  -29.2942  -26.0717   19.0035 C   0  0  1  0  0  0  0  0  0  0  0  0
  -27.6416  -13.1516   19.6871 C   0  0  2  0  0  0  0  0  0  0  0  0
  -27.4753  -18.5740   17.2676 C   0  0  0  0  0  0  0  0  0  0  0  0
  -31.8282  -19.1766   13.8935 C   0  0  0  0  0  0  0  0  0  0  0  0
  -31.6249  -29.8621   12.6629 C   0  0  0  0  0  0  0  0  0  0  0  0
  -28.7190  -18.1685   22.4232 C   0  0  0  0  0  0  0  0  0  0  0  0
  -30.8508  -19.3848   22.0599 C   0  0  0  0  0  0  0  0  0  0  0  0
  -26.3718  -27.0553   15.5607 C   0  0  0  0  0  0  0  0  0  0  0  0
  -27.4115  -28.0630   13.5182 C   0  0  0  0  0  0  0  0  0  0  0  0
  -27.1448  -29.4336   15.5853 C   0  0  0  0  0  0  0  0  0  0  0  0
  -33.8433  -28.0764   15.1860 C   0  0  0  0  0  0  0  0  0  0  0  0
  -30.5740  -19.8879   14.3843 C   0  0  0  0  0  0  0  0  0  0  0  0
  -30.4769  -18.4854   16.4781 C   0  0  0  0  0  0  0  0  0  0  0  0
  -30.8195  -16.8752   21.9359 C   0  0  0  0  0  0  0  0  0  0  0  0
  -28.8935  -27.6086   15.5252 C   0  0  1  0  0  0  0  0  0  0  0  0
  -31.9666  -29.2187   13.9978 C   0  0  2  0  0  0  0  0  0  0  0  0
  -30.4633  -19.9132   15.9142 C   0  0  1  0  0  0  0  0  0  1  0  0
  -30.0130  -18.1692   21.5164 C   0  0  0  0  0  0  0  0  0  0  0  0
  -27.4674  -28.0177   15.0601 C   0  0  0  0  0  0  0  0  0  0  0  0
  -25.8582  -11.5513   20.2710 N   0  0  0  0  0  0  0  0  0  0  0  0
  -29.9197  -18.4182   17.8807 N   0  0  0  0  0  0  0  0  0  0  0  0
  -26.2344  -12.8367   20.1596 N   0  0  0  0  0  0  0  0  0  0  0  0
  -28.5333  -18.3723   19.5333 N   0  3  0  0  0  0  0  0  0  0  0  0
  -29.3644  -26.2734   17.5548 N   0  0  0  0  0  0  0  0  0  0  0  0
  -29.9716  -13.6133   20.3550 N   0  0  0  0  0  0  0  0  0  0  0  0
  -25.4699  -15.0601   20.4469 N   0  0  0  0  0  0  0  0  0  0  0  0
  -21.8930  -12.5679   21.6264 N   0  0  0  0  0  0  0  0  0  0  0  0
  -27.7076  -25.2593   20.6408 N   0  0  0  0  0  0  0  0  0  0  0  0
  -29.9480  -28.5172   15.0885 N   0  0  0  0  0  0  0  0  0  0  0  0
  -30.1517  -15.6596   21.5271 N   0  0  0  0  0  0  0  0  0  0  0  0
  -33.3671  -28.7137   13.9313 N   0  3  0  0  0  0  0  0  0  0  0  0
  -22.6670  -14.7117   21.3738 O   0  0  0  0  0  0  0  0  0  0  0  0
  -27.2042  -25.1750   18.3688 O   0  0  0  0  0  0  0  0  0  0  0  0
  -28.7908  -28.5280   17.7094 O   0  0  0  0  0  0  0  0  0  0  0  0
  -31.1897  -26.9318   13.9387 O   0  0  0  0  0  0  0  0  0  0  0  0
  -31.8777  -14.9261   20.2081 O   0  0  0  0  0  0  0  0  0  0  0  0
  -21.6200   -7.0037   21.6516 O   0  0  0  0  0  0  0  0  0  0  0  0
  -31.5762  -20.6197   16.4607 O   0  0  0  0  0  0  0  0  0  1  0  0
  -18.6613   -6.7746   26.2989 F   0  0  0  0  0  0  0  0  0  0  0  0
  -22.0835   -5.0312   23.5323 F   0  0  0  0  0  0  0  0  0  0  0  0
  1  2  1  0  0  0  0
  1  5  2  0  0  0  0
  2  6  2  0  0  0  0
  3  8  2  0  0  0  0
  3 16  1  0  0  0  0
  4  9  1  0  0  0  0
  4 16  2  0  0  0  0
  5 18  1  0  0  0  0
  6 20  1  0  0  0  0
  7 10  2  0  0  0  0
  7 19  1  0  0  0  0
  8 22  1  0  0  0  0
  9 22  2  0  0  0  0
 10 23  1  0  0  0  0
 11 12  2  0  0  0  0
 11 24  1  0  0  0  0
 12 25  1  0  0  0  0
 13 21  1  0  0  0  0
 13 23  2  0  0  0  0
 14 25  2  0  0  0  0
 14 26  1  0  0  0  0
 15 28  2  0  0  0  0
 15 66  1  0  0  0  0
 16 27  1  0  0  0  0
 17 27  1  0  0  0  0
 17 29  2  0  0  0  0
 17 31  1  0  0  0  0
 18 20  2  0  0  0  0
 18 36  1  0  0  0  0
 19 21  2  0  0  0  0
 19 37  1  0  0  0  0
 20 45  1  0  0  0  0
 21 38  1  0  0  0  0
 22 82  1  0  0  0  0
 23 83  1  0  0  0  0
 24 26  2  0  0  0  0
 24 82  1  0  0  0  0
 25 84  1  0  0  0  0
 26 85  1  0  0  0  0
 27 65  2  0  0  0  0
 28 63  1  0  0  0  0
 28 68  1  0  0  0  0
 29 67  1  0  0  0  0
 29 71  1  0  0  0  0
 30 48  1  0  0  0  0
 30 66  1  0  0  0  0
 30 68  2  0  0  0  0
 31 72  1  0  0  0  0
 31 77  2  0  0  0  0
 32 46  1  0  0  0  0
 32 73  1  0  0  0  0
 32 78  2  0  0  0  0
 33 60  1  0  0  0  0
 33 69  1  0  0  0  0
 33 79  2  0  0  0  0
 34 61  1  0  0  0  0
 34 74  1  0  0  0  0
 34 80  2  0  0  0  0
 35 70  1  0  0  0  0
 35 75  1  0  0  0  0
 35 81  2  0  0  0  0
 36 39  1  0  0  0  0
 37 46  1  0  0  0  0
 38 69  1  0  0  0  0
 39 41  1  0  0  0  0
 40 42  1  0  0  0  0
 40 43  1  0  0  0  0
 41 45  1  0  0  0  0
 42 47  1  0  0  0  0
 43 70  1  0  0  0  0
 44 47  1  0  0  0  0
 44 70  1  0  0  0  0
 45 73  1  0  0  0  0
 46 69  1  0  0  0  0
 47 67  1  0  0  0  0
 49 57  1  0  0  0  0
 50 61  1  0  0  0  0
 51 63  1  0  0  0  0
 52 63  1  0  0  0  0
 53 64  1  0  0  0  0
 54 64  1  0  0  0  0
 55 64  1  0  0  0  0
 56 76  1  0  0  0  0
 57 62  1  0  0  0  0
 58 62  1  0  0  0  0
 58 66  1  0  0  0  0
 59 63  1  0  0  0  0
 59 75  1  0  0  0  0
 60 64  1  0  0  0  0
 60 74  1  0  0  0  0
 61 76  1  0  0  0  0
 62 83  1  0  0  0  0
 65 67  1  0  0  0  0
M  CHG  2  68   1  76   1
M  ISO  4  35 100  62 101  75 100  83 101
M  END
> <Batch ID>
0078

> <Smiles>
CC[101CH:1](Cn1cc(C(C)(C)C[100NH:0][100C:0](=O)N2CCCC(n3nc(-c4ccc(Oc5ccc(F)cc5F)cc4)c(C(N)=O)c3N)C2)nc1C)[101O:1]c1ccc2c(c1)CN(C(=O)C(NC(=O)C(C)NC)C(C)(C)C)C(C(=O)NC1CCCc3ccccc31)C2

> <Shape>
0.256

> <Color>
0.184

> <Negative vol penalty>
0.000

$$$$

  -OEChem-04052318393D

 85 93  0     1  0  0  0  0  0999 V2000
  -25.2461  -29.5833   24.1600 C   0  0  0  0  0  0  0  0  0  0  0  0
  -25.1590  -28.2088   24.3566 C   0  0  0  0  0  0  0  0  0  0  0  0
  -26.1077  -11.9207   21.0560 C   0  0  0  0  0  0  0  0  0  0  0  0
  -21.0071  -25.2326   20.5670 C   0  0  0  0  0  0  0  0  0  0  0  0
  -19.5369  -24.5885   22.3727 C   0  0  0  0  0  0  0  0  0  0  0  0
  -25.6221  -30.0857   22.9149 C   0  0  0  0  0  0  0  0  0  0  0  0
  -25.4466  -27.3360   23.3079 C   0  0  0  0  0  0  0  0  0  0  0  0
  -28.0955  -21.8298   23.7223 C   0  0  0  0  0  0  0  0  0  0  0  0
  -20.2749  -26.4065   20.3895 C   0  0  0  0  0  0  0  0  0  0  0  0
  -18.8047  -25.7625   22.1953 C   0  0  0  0  0  0  0  0  0  0  0  0
  -27.5738  -20.5370   23.7417 C   0  0  0  0  0  0  0  0  0  0  0  0
  -16.7649  -28.7608   22.4556 C   0  0  0  0  0  0  0  0  0  0  0  0
  -16.4114  -29.4839   23.5948 C   0  0  0  0  0  0  0  0  0  0  0  0
  -26.6288  -13.1924   20.8451 C   0  0  0  0  0  0  0  0  0  0  0  0
  -24.7367  -11.7117   20.9552 C   0  0  0  0  0  0  0  0  0  0  0  0
  -27.9704  -20.3479   21.3698 C   0  0  0  0  0  0  0  0  0  0  0  0
  -18.7476  -29.7545   24.1481 C   0  0  0  0  0  0  0  0  0  0  0  0
  -20.6380  -24.3236   21.5586 C   0  0  0  0  0  0  0  0  0  0  0  0
  -22.5075  -22.9216   22.5818 C   0  0  0  0  0  0  0  0  0  0  0  0
  -25.9238  -29.2184   21.8532 C   0  0  0  0  0  0  0  0  0  0  0  0
  -28.5492  -22.3963   22.5224 C   0  0  0  0  0  0  0  0  0  0  0  0
  -25.8256  -27.8273   22.0471 C   0  0  0  0  0  0  0  0  0  0  0  0
  -28.4997  -21.6470   21.3383 C   0  0  0  0  0  0  0  0  0  0  0  0
  -19.1737  -26.6715   21.2037 C   0  0  0  0  0  0  0  0  0  0  0  0
  -27.5085  -19.7969   22.5649 C   0  0  0  0  0  0  0  0  0  0  0  0
  -18.1098  -28.5344   22.1627 C   0  0  0  0  0  0  0  0  0  0  0  0
  -17.4027  -29.9808   24.4410 C   0  0  0  0  0  0  0  0  0  0  0  0
  -19.1011  -29.0313   23.0089 C   0  0  0  0  0  0  0  0  0  0  0  0
  -21.3936  -23.1105   21.7420 C   0  0  0  0  0  0  0  0  0  0  0  0
  -25.7436  -14.2133   20.5385 C   0  0  0  0  0  0  0  0  0  0  0  0
  -23.9363  -12.7989   20.6438 C   0  0  0  0  0  0  0  0  0  0  0  0
  -22.8568  -21.6060   22.3981 C   0  0  0  0  0  0  0  0  0  0  0  0
  -23.1674  -23.8521   23.4504 C   0  0  0  0  0  0  0  0  0  0  0  0
  -27.7149  -24.9175   20.7757 C   0  0  0  0  0  0  0  0  0  0  0  0
  -30.3368  -24.0997   19.0496 C   0  0  0  0  0  0  0  0  0  0  0  0
  -32.5430  -21.6731   18.1057 C   0  0  0  0  0  0  0  0  0  0  0  0
  -19.8932  -16.8610   20.8786 C   0  0  0  0  0  0  0  0  0  0  0  0
  -26.2798  -29.8092   20.5119 C   0  0  0  0  0  0  0  0  0  0  0  0
  -29.1339  -23.7821   22.5231 C   0  0  0  0  0  0  0  0  0  0  0  0
  -28.9925  -22.2019   20.0276 C   0  0  0  0  0  0  0  0  0  0  0  0
  -26.9311  -28.8096   19.5596 C   0  0  0  0  0  0  0  0  0  0  0  0
  -22.7152  -18.1020   19.1558 C   0  0  0  0  0  0  0  0  0  0  0  0
  -26.1551  -27.4964   19.5516 C   0  0  0  0  0  0  0  0  0  0  0  0
  -22.8021  -19.5259   19.7034 C   0  0  0  0  0  0  0  0  0  0  0  0
  -21.2692  -17.6699   18.9053 C   0  0  0  0  0  0  0  0  0  0  0  0
  -20.4713  -19.2559   20.6288 C   0  0  0  0  0  0  0  0  0  0  0  0
  -26.1538  -26.8479   20.9412 C   0  0  1  0  0  0  0  0  0  0  0  0
  -29.0922  -24.4489   21.1516 C   0  0  1  0  0  0  0  0  0  0  0  0
  -21.9098  -19.6929   20.9456 C   0  0  2  0  0  0  0  0  0  0  0  0
  -34.5565  -21.2972   16.6560 C   0  0  0  0  0  0  0  0  0  0  0  0
  -28.5506  -24.0888   16.5758 C   0  0  0  0  0  0  0  0  0  0  0  0
  -30.3402  -22.8148   15.3749 C   0  0  0  0  0  0  0  0  0  0  0  0
  -30.8063  -25.1116   16.2293 C   0  0  0  0  0  0  0  0  0  0  0  0
  -19.1680  -15.5790   18.8205 C   0  0  0  0  0  0  0  0  0  0  0  0
  -34.2154  -20.9116   20.4257 C   0  0  0  0  0  0  0  0  0  0  0  0
  -26.2734  -15.6053   20.3032 C   0  0  0  0  0  0  0  0  0  0  0  0
  -26.3462  -16.4590   21.5710 C   0  0  0  0  0  0  0  0  0  0  0  0
  -20.3011  -13.3410   20.6660 C   0  0  0  0  0  0  0  0  0  0  0  0
  -19.3334  -14.4638   21.0149 C   0  0  0  0  0  0  0  0  0  0  0  0
  -26.9623  -17.8337   21.3387 C   0  0  0  0  0  0  0  0  0  1  0  0
  -21.7599  -13.7302   20.8718 C   0  0  0  0  0  0  0  0  0  0  0  0
  -30.6003  -23.1975   17.8682 C   0  0  1  0  0  0  0  0  0  0  0  0
  -34.0598  -21.6582   18.0473 C   0  0  2  0  0  0  0  0  0  0  0  0
  -30.0632  -23.7931   16.5362 C   0  0  0  0  0  0  0  0  0  0  0  0
  -21.0576  -22.0036   21.0743 N   0  0  0  0  0  0  0  0  0  0  0  0
  -24.4060  -14.0488   20.4320 N   0  0  0  0  0  0  0  0  0  0  0  0
  -21.9658  -21.1065   21.4944 N   0  0  0  0  0  0  0  0  0  0  0  0
  -29.5497  -23.5637   20.0786 N   0  0  0  0  0  0  0  0  0  0  0  0
  -20.4425  -17.8902   20.0998 N   0  0  0  0  0  0  0  0  0  0  0  0
  -23.8362  -20.8394   22.9230 N   0  0  0  0  0  0  0  0  0  0  0  0
  -22.6787  -25.1638   23.5194 N   0  0  0  0  0  0  0  0  0  0  0  0
  -27.4223  -26.2003   21.1979 N   0  0  0  0  0  0  0  0  0  0  0  0
  -32.0350  -22.9328   17.8688 N   0  0  0  0  0  0  0  0  0  0  0  0
  -19.5683  -15.6635   20.2237 N   0  0  0  0  0  0  0  0  0  0  0  0
  -34.6058  -20.6640   19.0139 N   0  3  0  0  0  0  0  0  0  0  0  0
  -24.1711  -23.5342   24.1324 O   0  0  0  0  0  0  0  0  0  0  0  0
  -26.9732  -24.1710   20.1477 O   0  0  0  0  0  0  0  0  0  0  0  0
  -30.8177  -25.2356   19.0622 O   0  0  0  0  0  0  0  0  0  0  0  0
  -31.8754  -20.6669   18.3348 O   0  0  0  0  0  0  0  0  0  0  0  0
  -19.6956  -17.0056   22.0919 O   0  0  0  0  0  0  0  0  0  0  0  0
  -18.4592  -27.8170   21.0310 O   0  0  0  0  0  0  0  0  0  0  0  0
  -26.9992  -18.5351   22.5809 O   0  0  0  0  0  0  0  0  0  1  0  0
  -22.5820  -12.6181   20.5383 O   0  0  0  0  0  0  0  0  0  0  0  0
  -17.0631  -30.6766   25.5340 F   0  0  0  0  0  0  0  0  0  0  0  0
  -20.3948  -28.8181   22.7321 F   0  0  0  0  0  0  0  0  0  0  0  0
  1  2  1  0  0  0  0
  1  6  2  0  0  0  0
  2  7  2  0  0  0  0
  3 14  2  0  0  0  0
  3 15  1  0  0  0  0
  4  9  2  0  0  0  0
  4 18  1  0  0  0  0
  5 10  1  0  0  0  0
  5 18  2  0  0  0  0
  6 20  1  0  0  0  0
  7 22  1  0  0  0  0
  8 11  2  0  0  0  0
  8 21  1  0  0  0  0
  9 24  1  0  0  0  0
 10 24  2  0  0  0  0
 11 25  1  0  0  0  0
 12 13  2  0  0  0  0
 12 26  1  0  0  0  0
 13 27  1  0  0  0  0
 14 30  1  0  0  0  0
 15 31  2  0  0  0  0
 16 23  1  0  0  0  0
 16 25  2  0  0  0  0
 17 27  2  0  0  0  0
 17 28  1  0  0  0  0
 18 29  1  0  0  0  0
 19 29  1  0  0  0  0
 19 32  2  0  0  0  0
 19 33  1  0  0  0  0
 20 22  2  0  0  0  0
 20 38  1  0  0  0  0
 21 23  2  0  0  0  0
 21 39  1  0  0  0  0
 22 47  1  0  0  0  0
 23 40  1  0  0  0  0
 24 81  1  0  0  0  0
 25 82  1  0  0  0  0
 26 28  2  0  0  0  0
 26 81  1  0  0  0  0
 27 84  1  0  0  0  0
 28 85  1  0  0  0  0
 29 65  2  0  0  0  0
 30 56  1  0  0  0  0
 30 66  2  0  0  0  0
 31 66  1  0  0  0  0
 31 83  1  0  0  0  0
 32 67  1  0  0  0  0
 32 70  1  0  0  0  0
 33 71  1  0  0  0  0
 33 76  2  0  0  0  0
 34 48  1  0  0  0  0
 34 72  1  0  0  0  0
 34 77  2  0  0  0  0
 35 62  1  0  0  0  0
 35 68  1  0  0  0  0
 35 78  2  0  0  0  0
 36 63  1  0  0  0  0
 36 73  1  0  0  0  0
 36 79  2  0  0  0  0
 37 69  1  0  0  0  0
 37 74  1  0  0  0  0
 37 80  2  0  0  0  0
 38 41  1  0  0  0  0
 39 48  1  0  0  0  0
 40 68  1  0  0  0  0
 41 43  1  0  0  0  0
 42 44  1  0  0  0  0
 42 45  1  0  0  0  0
 43 47  1  0  0  0  0
 44 49  1  0  0  0  0
 45 69  1  0  0  0  0
 46 49  1  0  0  0  0
 46 69  1  0  0  0  0
 47 72  1  0  0  0  0
 48 68  1  0  0  0  0
 49 67  1  0  0  0  0
 50 63  1  0  0  0  0
 51 64  1  0  0  0  0
 52 64  1  0  0  0  0
 53 64  1  0  0  0  0
 54 74  1  0  0  0  0
 55 75  1  0  0  0  0
 56 57  1  0  0  0  0
 57 60  1  0  0  0  0
 58 59  1  0  0  0  0
 58 61  1  0  0  0  0
 59 74  1  0  0  0  0
 60 82  1  0  0  0  0
 61 83  1  0  0  0  0
 62 64  1  0  0  0  0
 62 73  1  0  0  0  0
 63 75  1  0  0  0  0
 65 67  1  0  0  0  0
M  CHG  1  75   1
M  ISO  4  37 100  60 101  74 100  82 101
M  END
> <Batch ID>
0078

> <Smiles>
CNC(C)C(=O)NC(C(=O)N1Cc2cc([101O:1][101CH2:1]CCc3cccc(OCCC[100N:0](C)[100C:0](=O)N4CCCC(n5nc(-c6ccc(Oc7ccc(F)cc7F)cc6)c(C(N)=O)c5N)C4)n3)ccc2CC1C(=O)NC1CCCc2ccccc21)C(C)(C)C

> <Shape>
0.205

> <Color>
0.068

> <Negative vol penalty>
0.000

$$$$

  -OEChem-04052318393D

 87 95  0     1  0  0  0  0  0999 V2000
  -21.8155   -8.5381   21.3511 C   0  0  0  0  0  0  0  0  0  0  0  0
  -22.3108   -9.5936   22.1100 C   0  0  0  0  0  0  0  0  0  0  0  0
  -26.5421  -29.8055   19.6021 C   0  0  0  0  0  0  0  0  0  0  0  0
  -25.9940  -28.8821   21.7664 C   0  0  0  0  0  0  0  0  0  0  0  0
  -22.6531   -7.8686   20.4600 C   0  0  0  0  0  0  0  0  0  0  0  0
  -23.6444   -9.9795   21.9791 C   0  0  0  0  0  0  0  0  0  0  0  0
  -24.1928  -15.0054   21.6879 C   0  0  0  0  0  0  0  0  0  0  0  0
  -25.3586  -30.5436   19.6173 C   0  0  0  0  0  0  0  0  0  0  0  0
  -24.8105  -29.6202   21.7816 C   0  0  0  0  0  0  0  0  0  0  0  0
  -24.1091  -15.7251   22.8790 C   0  0  0  0  0  0  0  0  0  0  0  0
  -21.7263  -29.4112   20.4123 C   0  0  0  0  0  0  0  0  0  0  0  0
  -20.5604  -28.7582   20.8120 C   0  0  0  0  0  0  0  0  0  0  0  0
  -26.5169  -15.8390   22.9725 C   0  0  0  0  0  0  0  0  0  0  0  0
  -20.3032  -30.3297   22.6289 C   0  0  0  0  0  0  0  0  0  0  0  0
  -26.0865  -20.1620   25.8003 C   0  0  0  0  0  0  0  0  0  0  0  0
  -26.8598  -28.9747   20.6766 C   0  0  0  0  0  0  0  0  0  0  0  0
  -29.3399  -28.6114   21.1506 C   0  0  0  0  0  0  0  0  0  0  0  0
  -23.9951   -8.2527   20.3110 C   0  0  0  0  0  0  0  0  0  0  0  0
  -25.4416  -14.6871   21.1349 C   0  0  0  0  0  0  0  0  0  0  0  0
  -24.5010   -9.3136   21.0861 C   0  0  0  0  0  0  0  0  0  0  0  0
  -26.6137  -15.1174   21.7729 C   0  0  0  0  0  0  0  0  0  0  0  0
  -24.4928  -30.4509   20.7070 C   0  0  0  0  0  0  0  0  0  0  0  0
  -25.2712  -16.1395   23.5230 C   0  0  0  0  0  0  0  0  0  0  0  0
  -22.1807  -30.5235   21.1209 C   0  0  0  0  0  0  0  0  0  0  0  0
  -19.8488  -29.2174   21.9203 C   0  0  0  0  0  0  0  0  0  0  0  0
  -21.4691  -30.9827   22.2292 C   0  0  0  0  0  0  0  0  0  0  0  0
  -28.0819  -28.2116   20.6613 C   0  0  0  0  0  0  0  0  0  0  0  0
  -27.1058  -21.0641   25.9194 C   0  0  0  0  0  0  0  0  0  0  0  0
  -30.1615  -27.5391   20.9021 C   0  0  0  0  0  0  0  0  0  0  0  0
  -27.0748  -19.8225   27.7518 C   0  0  0  0  0  0  0  0  0  0  0  0
  -29.7308  -29.8419   21.7741 C   0  0  0  0  0  0  0  0  0  0  0  0
  -26.9802  -11.9848   20.4765 C   0  0  0  0  0  0  0  0  0  0  0  0
  -29.1340  -13.9975   19.1229 C   0  0  0  0  0  0  0  0  0  0  0  0
  -30.4752  -17.1322   18.9752 C   0  0  0  0  0  0  0  0  0  0  0  0
  -29.1249  -21.6831   20.2064 C   0  0  0  0  0  0  0  0  0  0  0  0
  -24.8744   -7.4683   19.3696 C   0  0  0  0  0  0  0  0  0  0  0  0
  -25.5144  -13.9332   19.8354 C   0  0  0  0  0  0  0  0  0  0  0  0
  -27.9784  -14.8189   21.2098 C   0  0  0  0  0  0  0  0  0  0  0  0
  -26.1770   -8.1815   19.0162 C   0  0  0  0  0  0  0  0  0  0  0  0
  -30.7156  -23.8661   17.8867 C   0  0  0  0  0  0  0  0  0  0  0  0
  -26.8369   -8.7413   20.2725 C   0  0  0  0  0  0  0  0  0  0  0  0
  -30.3345  -25.2634   18.3789 C   0  0  0  0  0  0  0  0  0  0  0  0
  -29.5746  -22.8695   18.0787 C   0  0  0  0  0  0  0  0  0  0  0  0
  -28.6583  -24.1950   19.9434 C   0  0  0  0  0  0  0  0  0  0  0  0
  -25.9354   -9.7777   20.9541 C   0  0  1  0  0  0  0  0  0  0  0  0
  -26.8478  -13.2205   19.6320 C   0  0  1  0  0  0  0  0  0  0  0  0
  -29.7968  -25.2223   19.8220 C   0  0  2  0  0  0  0  0  0  0  0  0
  -27.4264  -19.2776   29.0869 C   0  0  0  0  0  0  0  0  0  0  0  0
  -27.3659  -23.5226   25.6456 C   0  0  0  0  0  0  0  0  0  0  0  0
  -31.9033  -19.0166   18.1344 C   0  0  0  0  0  0  0  0  0  0  0  0
  -31.2744  -12.6585   20.8362 C   0  0  0  0  0  0  0  0  0  0  0  0
  -32.7795  -14.5990   20.3489 C   0  0  0  0  0  0  0  0  0  0  0  0
  -31.9750  -13.1482   18.4859 C   0  0  0  0  0  0  0  0  0  0  0  0
  -30.9789  -21.0173   23.2640 C   0  0  0  0  0  0  0  0  0  0  0  0
  -29.4427  -19.4879   24.4718 C   0  0  0  0  0  0  0  0  0  0  0  0
  -28.4083  -17.9880   17.0376 C   0  0  0  0  0  0  0  0  0  0  0  0
  -25.7253  -16.8898   27.0249 C   0  0  0  0  0  0  0  0  0  0  0  0
  -29.0775  -22.0287   24.5467 C   0  0  0  0  0  0  0  0  0  0  0  0
  -25.1320  -18.2824   27.2495 C   0  0  0  0  0  0  0  0  0  0  0  0
  -28.6359  -20.6391   22.4041 C   0  0  0  0  0  0  0  0  0  0  0  0
  -26.2646  -16.6833   25.6143 C   0  0  0  0  0  0  0  0  0  1  0  0
  -27.5780  -22.1161   25.0154 C   0  0  1  0  0  0  0  0  0  0  0  0
  -30.3583  -14.7361   19.6072 C   0  0  1  0  0  0  0  0  0  0  0  0
  -30.7865  -18.0403   17.7992 C   0  0  2  0  0  0  0  0  0  0  0  0
  -31.5713  -13.7896   19.8314 C   0  0  0  0  0  0  0  0  0  0  0  0
  -29.5015  -20.8046   23.6745 C   0  0  0  0  0  0  0  0  0  0  0  0
  -28.0981  -26.9815   20.1411 N   0  0  0  0  0  0  0  0  0  0  0  0
  -26.0908  -19.4064   26.9480 N   0  0  0  0  0  0  0  0  0  0  0  0
  -29.3763  -26.5991   20.3021 N   0  0  0  0  0  0  0  0  0  0  0  0
  -27.6999  -20.8314   27.1363 N   0  3  0  0  0  0  0  0  0  0  0  0
  -27.9974  -14.0735   19.9403 N   0  0  0  0  0  0  0  0  0  0  0  0
  -29.1118  -22.8783   19.4686 N   0  0  0  0  0  0  0  0  0  0  0  0
  -31.4717  -27.3182   21.1404 N   0  0  0  0  0  0  0  0  0  0  0  0
  -28.7611  -30.8379   21.9527 N   0  0  0  0  0  0  0  0  0  0  0  0
  -25.9963  -11.0411   20.2508 N   0  0  0  0  0  0  0  0  0  0  0  0
  -30.6020  -15.8007   18.6400 N   0  0  0  0  0  0  0  0  0  0  0  0
  -28.6760  -21.7808   21.5177 N   0  0  0  0  0  0  0  0  0  0  0  0
  -29.5778  -18.8228   17.4149 N   0  3  0  0  0  0  0  0  0  0  0  0
  -30.9090  -30.0582   22.1465 O   0  0  0  0  0  0  0  0  0  0  0  0
  -27.9072  -11.8935   21.2727 O   0  0  0  0  0  0  0  0  0  0  0  0
  -29.1820  -13.3820   18.0549 O   0  0  0  0  0  0  0  0  0  0  0  0
  -30.1555  -17.5612   20.0817 O   0  0  0  0  0  0  0  0  0  0  0  0
  -29.5133  -20.6097   19.7333 O   0  0  0  0  0  0  0  0  0  0  0  0
  -23.3380  -31.1712   20.7223 O   0  0  0  0  0  0  0  0  0  0  0  0
  -25.1923  -16.8416   24.6861 O   0  0  0  0  0  0  0  0  0  1  0  0
  -18.7284  -28.5912   22.3031 F   0  0  0  0  0  0  0  0  0  0  0  0
  -21.9001  -32.0515   22.9132 F   0  0  0  0  0  0  0  0  0  0  0  0
  1  2  1  0  0  0  0
  1  5  2  0  0  0  0
  2  6  2  0  0  0  0
  3  8  2  0  0  0  0
  3 16  1  0  0  0  0
  4  9  1  0  0  0  0
  4 16  2  0  0  0  0
  5 18  1  0  0  0  0
  6 20  1  0  0  0  0
  7 10  2  0  0  0  0
  7 19  1  0  0  0  0
  8 22  1  0  0  0  0
  9 22  2  0  0  0  0
 10 23  1  0  0  0  0
 11 12  2  0  0  0  0
 11 24  1  0  0  0  0
 12 25  1  0  0  0  0
 13 21  1  0  0  0  0
 13 23  2  0  0  0  0
 14 25  2  0  0  0  0
 14 26  1  0  0  0  0
 15 28  2  0  0  0  0
 15 68  1  0  0  0  0
 16 27  1  0  0  0  0
 17 27  1  0  0  0  0
 17 29  2  0  0  0  0
 17 31  1  0  0  0  0
 18 20  2  0  0  0  0
 18 36  1  0  0  0  0
 19 21  2  0  0  0  0
 19 37  1  0  0  0  0
 20 45  1  0  0  0  0
 21 38  1  0  0  0  0
 22 84  1  0  0  0  0
 23 85  1  0  0  0  0
 24 26  2  0  0  0  0
 24 84  1  0  0  0  0
 25 86  1  0  0  0  0
 26 87  1  0  0  0  0
 27 67  2  0  0  0  0
 28 62  1  0  0  0  0
 28 70  1  0  0  0  0
 29 69  1  0  0  0  0
 29 73  1  0  0  0  0
 30 48  1  0  0  0  0
 30 68  1  0  0  0  0
 30 70  2  0  0  0  0
 31 74  1  0  0  0  0
 31 79  2  0  0  0  0
 32 46  1  0  0  0  0
 32 75  1  0  0  0  0
 32 80  2  0  0  0  0
 33 63  1  0  0  0  0
 33 71  1  0  0  0  0
 33 81  2  0  0  0  0
 34 64  1  0  0  0  0
 34 76  1  0  0  0  0
 34 82  2  0  0  0  0
 35 72  1  0  0  0  0
 35 77  1  0  0  0  0
 35 83  2  0  0  0  0
 36 39  1  0  0  0  0
 37 46  1  0  0  0  0
 38 71  1  0  0  0  0
 39 41  1  0  0  0  0
 40 42  1  0  0  0  0
 40 43  1  0  0  0  0
 41 45  1  0  0  0  0
 42 47  1  0  0  0  0
 43 72  1  0  0  0  0
 44 47  1  0  0  0  0
 44 72  1  0  0  0  0
 45 75  1  0  0  0  0
 46 71  1  0  0  0  0
 47 69  1  0  0  0  0
 49 62  1  0  0  0  0
 50 64  1  0  0  0  0
 51 65  1  0  0  0  0
 52 65  1  0  0  0  0
 53 65  1  0  0  0  0
 54 66  1  0  0  0  0
 55 66  1  0  0  0  0
 56 78  1  0  0  0  0
 57 59  1  0  0  0  0
 57 61  1  0  0  0  0
 58 62  1  0  0  0  0
 58 66  1  0  0  0  0
 59 68  1  0  0  0  0
 60 66  1  0  0  0  0
 60 77  1  0  0  0  0
 61 85  1  0  0  0  0
 63 65  1  0  0  0  0
 63 76  1  0  0  0  0
 64 78  1  0  0  0  0
 67 69  1  0  0  0  0
M  CHG  2  70   1  78   1
M  ISO  4  35 100  61 101  77 100  85 101
M  END
> <Batch ID>
0078

> <Smiles>
CNC(C)C(=O)NC(C(=O)N1Cc2cc([101O:1][101CH2:1]CCn3cc(C(C)CC(C)(C)C[100NH:0][100C:0](=O)N4CCCC(n5nc(-c6ccc(Oc7ccc(F)cc7F)cc6)c(C(N)=O)c5N)C4)nc3C)ccc2CC1C(=O)NC1CCCc2ccccc21)C(C)(C)C

> <Shape>
0.269

> <Color>
0.074

> <Negative vol penalty>
0.000

$$$$

  -OEChem-04052318393D

 84 92  0     1  0  0  0  0  0999 V2000
  -35.1584  -29.4215   22.2199 C   0  0  0  0  0  0  0  0  0  0  0  0
  -35.2948  -28.1537   21.6635 C   0  0  0  0  0  0  0  0  0  0  0  0
  -23.1053   -9.8546   20.0583 C   0  0  0  0  0  0  0  0  0  0  0  0
  -23.8411  -10.0073   22.3544 C   0  0  0  0  0  0  0  0  0  0  0  0
  -33.8897  -29.9206   22.5117 C   0  0  0  0  0  0  0  0  0  0  0  0
  -34.1626  -27.3838   21.3997 C   0  0  0  0  0  0  0  0  0  0  0  0
  -31.6807  -22.5065   16.7770 C   0  0  0  0  0  0  0  0  0  0  0  0
  -22.3630   -8.7161   20.3718 C   0  0  0  0  0  0  0  0  0  0  0  0
  -23.0988   -8.8688   22.6680 C   0  0  0  0  0  0  0  0  0  0  0  0
  -31.0928  -21.2425   16.7572 C   0  0  0  0  0  0  0  0  0  0  0  0
  -19.8674   -8.0964   23.2860 C   0  0  0  0  0  0  0  0  0  0  0  0
  -19.0984   -8.1261   24.4493 C   0  0  0  0  0  0  0  0  0  0  0  0
  -28.9475  -22.2395   17.2294 C   0  0  0  0  0  0  0  0  0  0  0  0
  -27.0521  -18.5931   19.2127 C   0  0  0  0  0  0  0  0  0  0  0  0
  -20.3389   -6.2435   25.3175 C   0  0  0  0  0  0  0  0  0  0  0  0
  -23.8444  -10.5002   21.0495 C   0  0  0  0  0  0  0  0  0  0  0  0
  -24.1785  -13.0144   20.7761 C   0  0  0  0  0  0  0  0  0  0  0  0
  -32.7408  -29.1603   22.2424 C   0  0  0  0  0  0  0  0  0  0  0  0
  -30.9070  -23.6474   17.0344 C   0  0  0  0  0  0  0  0  0  0  0  0
  -32.8773  -27.8726   21.6894 C   0  0  0  0  0  0  0  0  0  0  0  0
  -29.5276  -23.5171   17.2494 C   0  0  0  0  0  0  0  0  0  0  0  0
  -26.4107  -19.0941   20.3400 C   0  0  0  0  0  0  0  0  0  0  0  0
  -28.4017  -18.2643   19.2761 C   0  0  0  0  0  0  0  0  0  0  0  0
  -22.3597   -8.2232   21.6767 C   0  0  0  0  0  0  0  0  0  0  0  0
  -29.7266  -21.1085   16.9863 C   0  0  0  0  0  0  0  0  0  0  0  0
  -20.8721   -7.1401   23.1384 C   0  0  0  0  0  0  0  0  0  0  0  0
  -19.3341   -7.1997   25.4651 C   0  0  0  0  0  0  0  0  0  0  0  0
  -21.1079   -6.2137   24.1541 C   0  0  0  0  0  0  0  0  0  0  0  0
  -24.6119  -11.6760   20.7261 C   0  0  0  0  0  0  0  0  0  0  0  0
  -27.1573  -19.2465   21.4971 C   0  0  0  0  0  0  0  0  0  0  0  0
  -29.0593  -18.4540   20.4809 C   0  0  0  0  0  0  0  0  0  0  0  0
  -25.2717  -13.7445   20.3781 C   0  0  0  0  0  0  0  0  0  0  0  0
  -22.9018  -13.5499   21.1491 C   0  0  0  0  0  0  0  0  0  0  0  0
  -30.8882  -25.8818   19.2951 C   0  0  0  0  0  0  0  0  0  0  0  0
  -28.6327  -27.2328   17.3952 C   0  0  0  0  0  0  0  0  0  0  0  0
  -26.2474  -26.8231   14.9891 C   0  0  0  0  0  0  0  0  0  0  0  0
  -30.7494  -14.7964   20.5587 C   0  0  0  0  0  0  0  0  0  0  0  0
  -31.3931  -29.7231   22.6188 C   0  0  0  0  0  0  0  0  0  0  0  0
  -31.5516  -25.0064   17.0258 C   0  0  0  0  0  0  0  0  0  0  0  0
  -28.6492  -24.7125   17.5102 C   0  0  0  0  0  0  0  0  0  0  0  0
  -30.2236  -28.9943   21.9619 C   0  0  0  0  0  0  0  0  0  0  0  0
  -29.6454  -12.2633   18.3134 C   0  0  0  0  0  0  0  0  0  0  0  0
  -30.3996  -27.4840   22.0837 C   0  0  0  0  0  0  0  0  0  0  0  0
  -28.2046  -11.9910   18.7491 C   0  0  0  0  0  0  0  0  0  0  0  0
  -30.5491  -12.5623   19.5076 C   0  0  0  0  0  0  0  0  0  0  0  0
  -28.6304  -13.3701   20.8265 C   0  0  0  0  0  0  0  0  0  0  0  0
  -31.6717  -27.0172   21.3658 C   0  0  1  0  0  0  0  0  0  0  0  0
  -30.7582  -26.0489   17.8076 C   0  0  1  0  0  0  0  0  0  0  0  0
  -27.6692  -13.1185   19.6521 C   0  0  2  0  0  0  0  0  0  0  0  0
  -24.9650  -19.4481   20.2785 C   0  0  0  0  0  0  0  0  0  0  0  0
  -26.5221  -19.7812   22.7387 C   0  0  0  0  0  0  0  0  0  0  0  0
  -31.3628  -19.3620   20.9207 C   0  0  0  0  0  0  0  0  0  0  0  0
  -24.5436  -28.1051   13.6658 C   0  0  0  0  0  0  0  0  0  0  0  0
  -26.8110  -27.3314   19.8409 C   0  0  0  0  0  0  0  0  0  0  0  0
  -24.8760  -27.7096   18.2978 C   0  0  0  0  0  0  0  0  0  0  0  0
  -26.7323  -29.3729   18.3985 C   0  0  0  0  0  0  0  0  0  0  0  0
  -27.5507  -26.1329   12.4232 C   0  0  0  0  0  0  0  0  0  0  0  0
  -29.1041  -17.7203   18.0560 C   0  0  0  0  0  0  0  0  0  0  0  0
  -30.7946  -17.0200   21.6601 C   0  0  0  0  0  0  0  0  0  0  0  0
  -29.9640  -18.7726   17.3645 C   0  0  0  0  0  0  0  0  0  1  0  0
  -30.5090  -18.1167   20.6069 C   0  0  1  0  0  0  0  0  0  0  0  0
  -27.1300  -27.1376   17.2862 C   0  0  1  0  0  0  0  0  0  0  0  0
  -25.9715  -27.5833   13.7044 C   0  0  2  0  0  0  0  0  0  0  0  0
  -26.4040  -27.8650   18.4529 C   0  0  0  0  0  0  0  0  0  0  0  0
  -25.8814  -11.5597   20.3275 N   0  0  0  0  0  0  0  0  0  0  0  0
  -28.4698  -18.9382   21.5970 N   0  0  0  0  0  0  0  0  0  0  0  0
  -26.2550  -12.8343   20.1234 N   0  0  0  0  0  0  0  0  0  0  0  0
  -29.3273  -26.0192   17.4980 N   0  0  0  0  0  0  0  0  0  0  0  0
  -29.9857  -13.6415   20.3222 N   0  0  0  0  0  0  0  0  0  0  0  0
  -25.4780  -15.0697   20.2246 N   0  0  0  0  0  0  0  0  0  0  0  0
  -21.8897  -12.6592   21.5320 N   0  0  0  0  0  0  0  0  0  0  0  0
  -31.4555  -26.9668   19.9357 N   0  0  0  0  0  0  0  0  0  0  0  0
  -26.7842  -27.6406   15.9611 N   0  0  0  0  0  0  0  0  0  0  0  0
  -30.1382  -15.7732   21.3352 N   0  0  0  0  0  0  0  0  0  0  0  0
  -26.1805  -26.6982   12.5238 N   0  3  0  0  0  0  0  0  0  0  0  0
  -22.6606  -14.7807   21.1274 O   0  0  0  0  0  0  0  0  0  0  0  0
  -30.5012  -24.8457   19.8228 O   0  0  0  0  0  0  0  0  0  0  0  0
  -29.1709  -28.3427   17.3822 O   0  0  0  0  0  0  0  0  0  0  0  0
  -26.0069  -25.6248   15.1188 O   0  0  0  0  0  0  0  0  0  0  0  0
  -31.8894  -14.9481   20.1067 O   0  0  0  0  0  0  0  0  0  0  0  0
  -21.6353   -7.1124   21.9832 O   0  0  0  0  0  0  0  0  0  0  0  0
  -29.1503  -19.8759   16.9681 O   0  0  0  0  0  0  0  0  0  1  0  0
  -18.5966   -7.2294   26.5828 F   0  0  0  0  0  0  0  0  0  0  0  0
  -22.0726   -5.2934   24.0186 F   0  0  0  0  0  0  0  0  0  0  0  0
  1  2  1  0  0  0  0
  1  5  2  0  0  0  0
  2  6  2  0  0  0  0
  3  8  2  0  0  0  0
  3 16  1  0  0  0  0
  4  9  1  0  0  0  0
  4 16  2  0  0  0  0
  5 18  1  0  0  0  0
  6 20  1  0  0  0  0
  7 10  2  0  0  0  0
  7 19  1  0  0  0  0
  8 24  1  0  0  0  0
  9 24  2  0  0  0  0
 10 25  1  0  0  0  0
 11 12  2  0  0  0  0
 11 26  1  0  0  0  0
 12 27  1  0  0  0  0
 13 21  1  0  0  0  0
 13 25  2  0  0  0  0
 14 22  2  0  0  0  0
 14 23  1  0  0  0  0
 15 27  2  0  0  0  0
 15 28  1  0  0  0  0
 16 29  1  0  0  0  0
 17 29  1  0  0  0  0
 17 32  2  0  0  0  0
 17 33  1  0  0  0  0
 18 20  2  0  0  0  0
 18 38  1  0  0  0  0
 19 21  2  0  0  0  0
 19 39  1  0  0  0  0
 20 47  1  0  0  0  0
 21 40  1  0  0  0  0
 22 30  1  0  0  0  0
 22 50  1  0  0  0  0
 23 31  2  0  0  0  0
 23 58  1  0  0  0  0
 24 81  1  0  0  0  0
 25 82  1  0  0  0  0
 26 28  2  0  0  0  0
 26 81  1  0  0  0  0
 27 83  1  0  0  0  0
 28 84  1  0  0  0  0
 29 65  2  0  0  0  0
 30 51  1  0  0  0  0
 30 66  2  0  0  0  0
 31 61  1  0  0  0  0
 31 66  1  0  0  0  0
 32 67  1  0  0  0  0
 32 70  1  0  0  0  0
 33 71  1  0  0  0  0
 33 76  2  0  0  0  0
 34 48  1  0  0  0  0
 34 72  1  0  0  0  0
 34 77  2  0  0  0  0
 35 62  1  0  0  0  0
 35 68  1  0  0  0  0
 35 78  2  0  0  0  0
 36 63  1  0  0  0  0
 36 73  1  0  0  0  0
 36 79  2  0  0  0  0
 37 69  1  0  0  0  0
 37 74  1  0  0  0  0
 37 80  2  0  0  0  0
 38 41  1  0  0  0  0
 39 48  1  0  0  0  0
 40 68  1  0  0  0  0
 41 43  1  0  0  0  0
 42 44  1  0  0  0  0
 42 45  1  0  0  0  0
 43 47  1  0  0  0  0
 44 49  1  0  0  0  0
 45 69  1  0  0  0  0
 46 49  1  0  0  0  0
 46 69  1  0  0  0  0
 47 72  1  0  0  0  0
 48 68  1  0  0  0  0
 49 67  1  0  0  0  0
 52 61  1  0  0  0  0
 53 63  1  0  0  0  0
 54 64  1  0  0  0  0
 55 64  1  0  0  0  0
 56 64  1  0  0  0  0
 57 75  1  0  0  0  0
 58 60  1  0  0  0  0
 59 61  1  0  0  0  0
 59 74  1  0  0  0  0
 60 82  1  0  0  0  0
 62 64  1  0  0  0  0
 62 73  1  0  0  0  0
 63 75  1  0  0  0  0
 65 67  1  0  0  0  0
M  CHG  1  75   1
M  ISO  4  37 100  60 101  74 100  82 101
M  END
> <Batch ID>
0078

> <Smiles>
CNC(C)C(=O)NC(C(=O)N1Cc2cc([101O:1][101CH2:1]Cc3cc(C)c(C)nc3C(C)C[100NH:0][100C:0](=O)N3CCCC(n4nc(-c5ccc(Oc6ccc(F)cc6F)cc5)c(C(N)=O)c4N)C3)ccc2CC1C(=O)NC1CCCc2ccccc21)C(C)(C)C

> <Shape>
0.278

> <Color>
0.204

> <Negative vol penalty>
0.000

$$$$

  -OEChem-04052318393D

 82 90  0     1  0  0  0  0  0999 V2000
  -32.4021  -12.6840   21.1619 C   0  0  0  0  0  0  0  0  0  0  0  0
  -32.0291  -13.8612   21.8025 C   0  0  0  0  0  0  0  0  0  0  0  0
  -28.9877  -25.4951   18.1115 C   0  0  0  0  0  0  0  0  0  0  0  0
  -27.1192  -23.9868   18.3785 C   0  0  0  0  0  0  0  0  0  0  0  0
  -31.5677  -12.1227   20.1962 C   0  0  0  0  0  0  0  0  0  0  0  0
  -30.8219  -14.4785   21.4769 C   0  0  0  0  0  0  0  0  0  0  0  0
  -25.5698  -18.3667   24.4118 C   0  0  0  0  0  0  0  0  0  0  0  0
  -21.6741  -23.4586   24.4252 C   0  0  0  0  0  0  0  0  0  0  0  0
  -29.8695  -24.4177   18.1966 C   0  0  0  0  0  0  0  0  0  0  0  0
  -28.0011  -22.9095   18.4637 C   0  0  0  0  0  0  0  0  0  0  0  0
  -24.8697  -19.5558   24.2126 C   0  0  0  0  0  0  0  0  0  0  0  0
  -29.7756  -19.8045   19.1120 C   0  0  0  0  0  0  0  0  0  0  0  0
  -29.5503  -18.8598   20.1132 C   0  0  0  0  0  0  0  0  0  0  0  0
  -20.8538  -24.5357   24.1087 C   0  0  0  0  0  0  0  0  0  0  0  0
  -23.4716  -18.4528   22.5854 C   0  0  0  0  0  0  0  0  0  0  0  0
  -29.8010  -20.5791   21.7919 C   0  0  0  0  0  0  0  0  0  0  0  0
  -27.6125  -25.2796   18.2025 C   0  0  0  0  0  0  0  0  0  0  0  0
  -26.1102  -26.9176   16.9504 C   0  0  0  0  0  0  0  0  0  0  0  0
  -30.3452  -12.7282   19.8655 C   0  0  0  0  0  0  0  0  0  0  0  0
  -25.2326  -17.2127   23.6902 C   0  0  0  0  0  0  0  0  0  0  0  0
  -29.9710  -13.9255   20.5048 C   0  0  0  0  0  0  0  0  0  0  0  0
  -24.1673  -17.2497   22.7792 C   0  0  0  0  0  0  0  0  0  0  0  0
  -22.6585  -23.0550   23.5300 C   0  0  0  0  0  0  0  0  0  0  0  0
  -29.3763  -23.1249   18.3727 C   0  0  0  0  0  0  0  0  0  0  0  0
  -23.8223  -19.5998   23.2971 C   0  0  0  0  0  0  0  0  0  0  0  0
  -30.0137  -21.1366   19.4508 C   0  0  0  0  0  0  0  0  0  0  0  0
  -29.5630  -19.2471   21.4531 C   0  0  0  0  0  0  0  0  0  0  0  0
  -30.0264  -21.5238   20.7907 C   0  0  0  0  0  0  0  0  0  0  0  0
  -26.7011  -26.3922   18.1151 C   0  0  0  0  0  0  0  0  0  0  0  0
  -21.0569  -25.1706   22.8940 C   0  0  0  0  0  0  0  0  0  0  0  0
  -22.7807  -23.7560   22.3411 C   0  0  0  0  0  0  0  0  0  0  0  0
  -25.3335  -27.9579   17.3988 C   0  0  0  0  0  0  0  0  0  0  0  0
  -26.2507  -26.5025   15.5853 C   0  0  0  0  0  0  0  0  0  0  0  0
  -26.7437  -15.3494   21.6049 C   0  0  0  0  0  0  0  0  0  0  0  0
  -24.0707  -13.5328   21.8829 C   0  0  0  0  0  0  0  0  0  0  0  0
  -20.7509  -13.3624   22.6553 C   0  0  0  0  0  0  0  0  0  0  0  0
  -22.7427  -29.1365   22.6666 C   0  0  0  0  0  0  0  0  0  0  0  0
  -29.4986  -12.1098   18.7812 C   0  0  0  0  0  0  0  0  0  0  0  0
  -25.9802  -15.9309   23.9362 C   0  0  0  0  0  0  0  0  0  0  0  0
  -23.7525  -16.0331   21.9941 C   0  0  0  0  0  0  0  0  0  0  0  0
  -28.0616  -12.6244   18.7625 C   0  0  0  0  0  0  0  0  0  0  0  0
  -25.0696  -31.1876   20.9188 C   0  0  0  0  0  0  0  0  0  0  0  0
  -28.0377  -14.1455   18.8739 C   0  0  0  0  0  0  0  0  0  0  0  0
  -25.6983  -30.2386   19.8970 C   0  0  0  0  0  0  0  0  0  0  0  0
  -24.7792  -30.4811   22.2411 C   0  0  0  0  0  0  0  0  0  0  0  0
  -24.6004  -28.3037   21.1008 C   0  0  0  0  0  0  0  0  0  0  0  0
  -28.6577  -14.6115   20.1968 C   0  0  1  0  0  0  0  0  0  0  0  0
  -25.8847  -14.9504   22.7713 C   0  0  1  0  0  0  0  0  0  0  0  0
  -24.8600  -28.9567   19.7324 C   0  0  2  0  0  0  0  0  0  0  0  0
  -23.2370  -22.5945   20.1665 C   0  0  0  0  0  0  0  0  0  0  0  0
  -18.8308  -11.7495   22.7507 C   0  0  0  0  0  0  0  0  0  0  0  0
  -23.8337  -13.6388   18.8428 C   0  0  0  0  0  0  0  0  0  0  0  0
  -21.4644  -12.8622   19.0700 C   0  0  0  0  0  0  0  0  0  0  0  0
  -23.3329  -11.4056   19.8509 C   0  0  0  0  0  0  0  0  0  0  0  0
  -20.3983  -13.7744   25.5648 C   0  0  0  0  0  0  0  0  0  0  0  0
  -23.5459  -21.8925   23.8654 C   0  0  0  0  0  0  0  0  0  1  0  0
  -20.1957  -26.3315   22.5228 C   0  0  0  0  0  0  0  0  0  0  0  0
  -23.8225  -23.3692   21.3432 C   0  0  0  0  0  0  0  0  0  0  0  0
  -20.7563  -27.6825   22.9817 C   0  0  0  0  0  0  0  0  0  0  0  0
  -22.7385  -13.4757   21.1751 C   0  0  1  0  0  0  0  0  0  0  0  0
  -19.9676  -12.3969   23.5262 C   0  0  2  0  0  0  0  0  0  0  0  0
  -22.8512  -12.8692   19.7479 C   0  0  0  0  0  0  0  0  0  0  0  0
  -26.3315  -27.0449   19.2203 N   0  0  0  0  0  0  0  0  0  0  0  0
  -22.0026  -24.8073   21.9989 N   0  0  0  0  0  0  0  0  0  0  0  0
  -25.5001  -27.9912   18.7521 N   0  0  0  0  0  0  0  0  0  0  0  0
  -24.5182  -14.8053   22.2654 N   0  0  0  0  0  0  0  0  0  0  0  0
  -23.9796  -29.2747   22.0154 N   0  0  0  0  0  0  0  0  0  0  0  0
  -24.5311  -28.8383   16.7636 N   0  0  0  0  0  0  0  0  0  0  0  0
  -27.0884  -25.4155   15.3004 N   0  0  0  0  0  0  0  0  0  0  0  0
  -27.7225  -14.4276   21.2858 N   0  0  0  0  0  0  0  0  0  0  0  0
  -21.8354  -12.7510   22.0627 N   0  0  0  0  0  0  0  0  0  0  0  0
  -22.0460  -27.9660   22.3925 N   0  0  0  0  0  0  0  0  0  0  0  0
  -19.3893  -13.1103   24.7000 N   0  3  0  0  0  0  0  0  0  0  0  0
  -25.6641  -27.0887   14.6442 O   0  0  0  0  0  0  0  0  0  0  0  0
  -26.5331  -16.4139   21.0356 O   0  0  0  0  0  0  0  0  0  0  0  0
  -24.6881  -12.4861   22.0952 O   0  0  0  0  0  0  0  0  0  0  0  0
  -20.4304  -14.5403   22.5119 O   0  0  0  0  0  0  0  0  0  0  0  0
  -22.2902  -29.9953   23.4313 O   0  0  0  0  0  0  0  0  0  0  0  0
  -30.2365  -22.0734   18.4556 O   0  0  0  0  0  0  0  0  0  0  0  0
  -23.1377  -20.7593   23.1002 O   0  0  0  0  0  0  0  0  0  1  0  0
  -29.3451  -18.3401   22.4144 F   0  0  0  0  0  0  0  0  0  0  0  0
  -30.2534  -22.8023   21.1223 F   0  0  0  0  0  0  0  0  0  0  0  0
  1  2  1  0  0  0  0
  1  5  2  0  0  0  0
  2  6  2  0  0  0  0
  3  9  2  0  0  0  0
  3 17  1  0  0  0  0
  4 10  1  0  0  0  0
  4 17  2  0  0  0  0
  5 19  1  0  0  0  0
  6 21  1  0  0  0  0
  7 11  2  0  0  0  0
  7 20  1  0  0  0  0
  8 14  2  0  0  0  0
  8 23  1  0  0  0  0
  9 24  1  0  0  0  0
 10 24  2  0  0  0  0
 11 25  1  0  0  0  0
 12 13  2  0  0  0  0
 12 26  1  0  0  0  0
 13 27  1  0  0  0  0
 14 30  1  0  0  0  0
 15 22  1  0  0  0  0
 15 25  2  0  0  0  0
 16 27  2  0  0  0  0
 16 28  1  0  0  0  0
 17 29  1  0  0  0  0
 18 29  1  0  0  0  0
 18 32  2  0  0  0  0
 18 33  1  0  0  0  0
 19 21  2  0  0  0  0
 19 38  1  0  0  0  0
 20 22  2  0  0  0  0
 20 39  1  0  0  0  0
 21 47  1  0  0  0  0
 22 40  1  0  0  0  0
 23 31  2  0  0  0  0
 23 56  1  0  0  0  0
 24 79  1  0  0  0  0
 25 80  1  0  0  0  0
 26 28  2  0  0  0  0
 26 79  1  0  0  0  0
 27 81  1  0  0  0  0
 28 82  1  0  0  0  0
 29 63  2  0  0  0  0
 30 57  1  0  0  0  0
 30 64  2  0  0  0  0
 31 58  1  0  0  0  0
 31 64  1  0  0  0  0
 32 65  1  0  0  0  0
 32 68  1  0  0  0  0
 33 69  1  0  0  0  0
 33 74  2  0  0  0  0
 34 48  1  0  0  0  0
 34 70  1  0  0  0  0
 34 75  2  0  0  0  0
 35 60  1  0  0  0  0
 35 66  1  0  0  0  0
 35 76  2  0  0  0  0
 36 61  1  0  0  0  0
 36 71  1  0  0  0  0
 36 77  2  0  0  0  0
 37 67  1  0  0  0  0
 37 72  1  0  0  0  0
 37 78  2  0  0  0  0
 38 41  1  0  0  0  0
 39 48  1  0  0  0  0
 40 66  1  0  0  0  0
 41 43  1  0  0  0  0
 42 44  1  0  0  0  0
 42 45  1  0  0  0  0
 43 47  1  0  0  0  0
 44 49  1  0  0  0  0
 45 67  1  0  0  0  0
 46 49  1  0  0  0  0
 46 67  1  0  0  0  0
 47 70  1  0  0  0  0
 48 66  1  0  0  0  0
 49 65  1  0  0  0  0
 50 58  1  0  0  0  0
 51 61  1  0  0  0  0
 52 62  1  0  0  0  0
 53 62  1  0  0  0  0
 54 62  1  0  0  0  0
 55 73  1  0  0  0  0
 56 80  1  0  0  0  0
 57 59  1  0  0  0  0
 59 72  1  0  0  0  0
 60 62  1  0  0  0  0
 60 71  1  0  0  0  0
 61 73  1  0  0  0  0
 63 65  1  0  0  0  0
M  CHG  1  73   1
M  ISO  4  37 100  56 101  72 100  80 101
M  END
> <Batch ID>
0078

> <Smiles>
CCc1nc(CC[100NH:0][100C:0](=O)N2CCCC(n3nc(-c4ccc(Oc5ccc(F)cc5F)cc4)c(C(N)=O)c3N)C2)ccc1[101CH2:1][101O:1]c1ccc2c(c1)CN(C(=O)C(NC(=O)C(C)NC)C(C)(C)C)C(C(=O)NC1CCCc3ccccc31)C2

> <Shape>
0.224

> <Color>
0.053

> <Negative vol penalty>
0.000

$$$$

  -OEChem-04052318393D

 86 94  0     1  0  0  0  0  0999 V2000
  -18.5809  -27.9579   23.3737 C   0  0  0  0  0  0  0  0  0  0  0  0
  -19.8301  -27.5707   23.8480 C   0  0  0  0  0  0  0  0  0  0  0  0
  -25.5474  -14.2857   21.0409 C   0  0  0  0  0  0  0  0  0  0  0  0
  -25.6233  -14.3971   18.6287 C   0  0  0  0  0  0  0  0  0  0  0  0
  -18.2701  -27.8019   22.0235 C   0  0  0  0  0  0  0  0  0  0  0  0
  -20.7689  -27.0261   22.9725 C   0  0  0  0  0  0  0  0  0  0  0  0
  -26.8478  -27.7384   23.1848 C   0  0  0  0  0  0  0  0  0  0  0  0
  -24.5761  -13.2875   20.9643 C   0  0  0  0  0  0  0  0  0  0  0  0
  -24.6520  -13.3989   18.5520 C   0  0  0  0  0  0  0  0  0  0  0  0
  -27.8696  -26.9336   23.6868 C   0  0  0  0  0  0  0  0  0  0  0  0
  -24.4633   -9.9629   20.3584 C   0  0  0  0  0  0  0  0  0  0  0  0
  -24.6118   -8.8491   21.1848 C   0  0  0  0  0  0  0  0  0  0  0  0
  -28.2349  -26.0309   21.4798 C   0  0  0  0  0  0  0  0  0  0  0  0
  -22.4879   -9.3392   22.2270 C   0  0  0  0  0  0  0  0  0  0  0  0
  -32.2087  -21.4230   20.4357 C   0  0  0  0  0  0  0  0  0  0  0  0
  -26.0710  -14.8405   19.8731 C   0  0  0  0  0  0  0  0  0  0  0  0
  -28.4705  -15.6988   19.9875 C   0  0  0  0  0  0  0  0  0  0  0  0
  -19.2091  -27.2641   21.1292 C   0  0  0  0  0  0  0  0  0  0  0  0
  -26.5041  -27.6874   21.8262 C   0  0  0  0  0  0  0  0  0  0  0  0
  -20.4700  -26.8615   21.6094 C   0  0  0  0  0  0  0  0  0  0  0  0
  -27.2101  -26.8379   20.9625 C   0  0  0  0  0  0  0  0  0  0  0  0
  -24.1284  -12.8441   19.7198 C   0  0  0  0  0  0  0  0  0  0  0  0
  -28.5614  -26.0775   22.8349 C   0  0  0  0  0  0  0  0  0  0  0  0
  -23.3272  -10.7649   20.4664 C   0  0  0  0  0  0  0  0  0  0  0  0
  -23.6241   -8.5372   22.1191 C   0  0  0  0  0  0  0  0  0  0  0  0
  -22.3395  -10.4530   21.4006 C   0  0  0  0  0  0  0  0  0  0  0  0
  -27.0739  -15.8720   19.9517 C   0  0  0  0  0  0  0  0  0  0  0  0
  -32.5382  -22.2788   19.4227 C   0  0  0  0  0  0  0  0  0  0  0  0
  -28.9730  -16.9750   20.0614 C   0  0  0  0  0  0  0  0  0  0  0  0
  -32.8125  -23.3515   21.3396 C   0  0  0  0  0  0  0  0  0  0  0  0
  -29.2445  -14.4923   19.9565 C   0  0  0  0  0  0  0  0  0  0  0  0
  -23.8865  -26.9026   20.2027 C   0  0  0  0  0  0  0  0  0  0  0  0
  -25.6183  -27.9463   17.6662 C   0  0  0  0  0  0  0  0  0  0  0  0
  -28.6896  -28.5528   16.3076 C   0  0  0  0  0  0  0  0  0  0  0  0
  -28.9908  -22.3023   18.3986 C   0  0  0  0  0  0  0  0  0  0  0  0
  -18.8107  -27.0709   19.6875 C   0  0  0  0  0  0  0  0  0  0  0  0
  -25.4174  -28.5815   21.2951 C   0  0  0  0  0  0  0  0  0  0  0  0
  -26.8933  -26.7607   19.4921 C   0  0  0  0  0  0  0  0  0  0  0  0
  -19.9954  -26.8326   18.7548 C   0  0  0  0  0  0  0  0  0  0  0  0
  -26.6471  -21.3846   20.9168 C   0  0  0  0  0  0  0  0  0  0  0  0
  -20.9463  -25.8005   19.3526 C   0  0  0  0  0  0  0  0  0  0  0  0
  -26.6600  -19.8552   20.8886 C   0  0  0  0  0  0  0  0  0  0  0  0
  -26.8051  -21.9762   19.5179 C   0  0  0  0  0  0  0  0  0  0  0  0
  -27.9920  -19.9609   18.7408 C   0  0  0  0  0  0  0  0  0  0  0  0
  -21.5239  -26.2897   20.6861 C   0  0  1  0  0  0  0  0  0  0  0  0
  -24.8070  -28.0716   19.9933 C   0  0  1  0  0  0  0  0  0  0  0  0
  -27.8918  -19.3186   20.1350 C   0  0  2  0  0  0  0  0  0  0  0  0
  -32.8918  -20.6236   17.5628 C   0  0  0  0  0  0  0  0  0  0  0  0
  -34.2946  -23.9850   23.2611 C   0  0  0  0  0  0  0  0  0  0  0  0
  -29.7865  -29.3689   14.2033 C   0  0  0  0  0  0  0  0  0  0  0  0
  -34.7810  -25.0333   19.6424 C   0  0  0  0  0  0  0  0  0  0  0  0
  -32.3816  -25.8324   19.5382 C   0  0  0  0  0  0  0  0  0  0  0  0
  -25.0421  -25.2649   16.3289 C   0  0  0  0  0  0  0  0  0  0  0  0
  -26.8934  -25.7509   14.7150 C   0  0  0  0  0  0  0  0  0  0  0  0
  -24.8963  -27.2430   14.8056 C   0  0  0  0  0  0  0  0  0  0  0  0
  -29.9500  -30.8334   17.7111 C   0  0  0  0  0  0  0  0  0  0  0  0
  -31.9069  -24.8013   23.2358 C   0  0  0  0  0  0  0  0  0  0  0  0
  -31.1964  -22.4664   17.2726 C   0  0  0  0  0  0  0  0  0  0  0  0
  -30.6216  -24.9610   22.4293 C   0  0  0  0  0  0  0  0  0  1  0  0
  -32.5347  -22.0783   17.9685 C   0  0  1  0  0  0  0  0  0  0  0  0
  -33.1247  -24.4218   22.3712 C   0  0  2  0  0  0  0  0  0  0  0  0
  -26.5786  -27.3078   16.6919 C   0  0  1  0  0  0  0  0  0  0  0  0
  -29.2446  -29.7579   15.5699 C   0  0  2  0  0  0  0  0  0  0  0  0
  -33.3358  -24.6591   19.3073 C   0  0  0  0  0  0  0  0  0  0  0  0
  -25.8575  -26.3915   15.6634 C   0  0  0  0  0  0  0  0  0  0  0  0
  -26.7123  -17.1569   19.9992 N   0  0  0  0  0  0  0  0  0  0  0  0
  -32.9075  -23.4645   20.0108 N   0  0  0  0  0  0  0  0  0  0  0  0
  -27.8890  -17.8027   20.0656 N   0  0  0  0  0  0  0  0  0  0  0  0
  -32.3880  -22.1130   21.6103 N   0  3  0  0  0  0  0  0  0  0  0  0
  -25.8183  -27.6500   19.0219 N   0  0  0  0  0  0  0  0  0  0  0  0
  -27.9923  -21.4276   18.8580 N   0  0  0  0  0  0  0  0  0  0  0  0
  -30.2319  -17.4586   20.1226 N   0  0  0  0  0  0  0  0  0  0  0  0
  -28.5687  -13.2668   19.8794 N   0  0  0  0  0  0  0  0  0  0  0  0
  -22.5754  -27.2574   20.4568 N   0  0  0  0  0  0  0  0  0  0  0  0
  -27.3365  -28.3999   16.0908 N   0  0  0  0  0  0  0  0  0  0  0  0
  -30.0853  -21.6996   17.7907 N   0  0  0  0  0  0  0  0  0  0  0  0
  -30.3485  -30.3816   16.3531 N   0  3  0  0  0  0  0  0  0  0  0  0
  -30.4976  -14.4998   20.0127 O   0  0  0  0  0  0  0  0  0  0  0  0
  -24.3324  -25.7631   20.1370 O   0  0  0  0  0  0  0  0  0  0  0  0
  -24.7280  -28.6865   17.2406 O   0  0  0  0  0  0  0  0  0  0  0  0
  -29.3874  -27.8183   17.0034 O   0  0  0  0  0  0  0  0  0  0  0  0
  -28.9151  -23.5291   18.5258 O   0  0  0  0  0  0  0  0  0  0  0  0
  -23.1808  -11.8700   19.6447 O   0  0  0  0  0  0  0  0  0  0  0  0
  -29.5586  -25.2904   23.3225 O   0  0  0  0  0  0  0  0  0  1  0  0
  -23.7661   -7.4667   22.9115 F   0  0  0  0  0  0  0  0  0  0  0  0
  -21.2452  -11.2191   21.5081 F   0  0  0  0  0  0  0  0  0  0  0  0
  1  2  1  0  0  0  0
  1  5  2  0  0  0  0
  2  6  2  0  0  0  0
  3  8  2  0  0  0  0
  3 16  1  0  0  0  0
  4  9  1  0  0  0  0
  4 16  2  0  0  0  0
  5 18  1  0  0  0  0
  6 20  1  0  0  0  0
  7 10  2  0  0  0  0
  7 19  1  0  0  0  0
  8 22  1  0  0  0  0
  9 22  2  0  0  0  0
 10 23  1  0  0  0  0
 11 12  2  0  0  0  0
 11 24  1  0  0  0  0
 12 25  1  0  0  0  0
 13 21  1  0  0  0  0
 13 23  2  0  0  0  0
 14 25  2  0  0  0  0
 14 26  1  0  0  0  0
 15 28  2  0  0  0  0
 15 69  1  0  0  0  0
 16 27  1  0  0  0  0
 17 27  1  0  0  0  0
 17 29  2  0  0  0  0
 17 31  1  0  0  0  0
 18 20  2  0  0  0  0
 18 36  1  0  0  0  0
 19 21  2  0  0  0  0
 19 37  1  0  0  0  0
 20 45  1  0  0  0  0
 21 38  1  0  0  0  0
 22 83  1  0  0  0  0
 23 84  1  0  0  0  0
 24 26  2  0  0  0  0
 24 83  1  0  0  0  0
 25 85  1  0  0  0  0
 26 86  1  0  0  0  0
 27 66  2  0  0  0  0
 28 60  1  0  0  0  0
 28 67  1  0  0  0  0
 29 68  1  0  0  0  0
 29 72  1  0  0  0  0
 30 61  1  0  0  0  0
 30 67  1  0  0  0  0
 30 69  2  0  0  0  0
 31 73  1  0  0  0  0
 31 78  2  0  0  0  0
 32 46  1  0  0  0  0
 32 74  1  0  0  0  0
 32 79  2  0  0  0  0
 33 62  1  0  0  0  0
 33 70  1  0  0  0  0
 33 80  2  0  0  0  0
 34 63  1  0  0  0  0
 34 75  1  0  0  0  0
 34 81  2  0  0  0  0
 35 71  1  0  0  0  0
 35 76  1  0  0  0  0
 35 82  2  0  0  0  0
 36 39  1  0  0  0  0
 37 46  1  0  0  0  0
 38 70  1  0  0  0  0
 39 41  1  0  0  0  0
 40 42  1  0  0  0  0
 40 43  1  0  0  0  0
 41 45  1  0  0  0  0
 42 47  1  0  0  0  0
 43 71  1  0  0  0  0
 44 47  1  0  0  0  0
 44 71  1  0  0  0  0
 45 74  1  0  0  0  0
 46 70  1  0  0  0  0
 47 68  1  0  0  0  0
 48 60  1  0  0  0  0
 49 61  1  0  0  0  0
 50 63  1  0  0  0  0
 51 64  1  0  0  0  0
 52 64  1  0  0  0  0
 53 65  1  0  0  0  0
 54 65  1  0  0  0  0
 55 65  1  0  0  0  0
 56 77  1  0  0  0  0
 57 59  1  0  0  0  0
 57 61  1  0  0  0  0
 58 60  1  0  0  0  0
 58 76  1  0  0  0  0
 59 84  1  0  0  0  0
 62 65  1  0  0  0  0
 62 75  1  0  0  0  0
 63 77  1  0  0  0  0
 64 67  1  0  0  0  0
 66 68  1  0  0  0  0
M  CHG  2  69   1  77   1
M  ISO  4  35 100  59 101  76 100  84 101
M  END
> <Batch ID>
0078

> <Smiles>
CNC(C)C(=O)NC(C(=O)N1Cc2cc([101O:1][101CH2:1]CC(C)c3ncc(C(C)C[100NH:0][100C:0](=O)N4CCCC(n5nc(-c6ccc(Oc7ccc(F)cc7F)cc6)c(C(N)=O)c5N)C4)n3C(C)C)ccc2CC1C(=O)NC1CCCc2ccccc21)C(C)(C)C

> <Shape>
0.207

> <Color>
0.076

> <Negative vol penalty>
0.000

$$$$

  -OEChem-04052318393D

 85 93  0     1  0  0  0  0  0999 V2000
  -23.5529  -24.1286   20.1595 C   0  0  0  0  0  0  0  0  0  0  0  0
  -24.6558  -23.3129   20.3911 C   0  0  0  0  0  0  0  0  0  0  0  0
  -23.4865  -28.8828   20.6652 C   0  0  0  0  0  0  0  0  0  0  0  0
  -24.9629  -27.9922   22.3576 C   0  0  0  0  0  0  0  0  0  0  0  0
  -22.2805  -23.7029   20.5384 C   0  0  0  0  0  0  0  0  0  0  0  0
  -24.4870  -22.0713   21.0029 C   0  0  0  0  0  0  0  0  0  0  0  0
  -27.1105  -18.4001   18.7041 C   0  0  0  0  0  0  0  0  0  0  0  0
  -22.4139  -28.7903   21.5521 C   0  0  0  0  0  0  0  0  0  0  0  0
  -23.8903  -27.8997   23.2446 C   0  0  0  0  0  0  0  0  0  0  0  0
  -28.4783  -18.3351   18.9662 C   0  0  0  0  0  0  0  0  0  0  0  0
  -20.3506  -26.3825   22.7224 C   0  0  0  0  0  0  0  0  0  0  0  0
  -19.1551  -25.8507   22.2393 C   0  0  0  0  0  0  0  0  0  0  0  0
  -28.0848  -16.5559   20.5469 C   0  0  0  0  0  0  0  0  0  0  0  0
  -18.0216  -27.9174   22.7692 C   0  0  0  0  0  0  0  0  0  0  0  0
  -31.3203  -22.1017   23.6711 C   0  0  0  0  0  0  0  0  0  0  0  0
  -24.7610  -28.4837   21.0679 C   0  0  0  0  0  0  0  0  0  0  0  0
  -26.7342  -29.6748   19.9746 C   0  0  0  0  0  0  0  0  0  0  0  0
  -22.0948  -22.4513   21.1464 C   0  0  0  0  0  0  0  0  0  0  0  0
  -26.2169  -17.5494   19.3706 C   0  0  0  0  0  0  0  0  0  0  0  0
  -23.2110  -21.6289   21.3915 C   0  0  0  0  0  0  0  0  0  0  0  0
  -26.7064  -16.6103   20.2896 C   0  0  0  0  0  0  0  0  0  0  0  0
  -22.6158  -28.2988   22.8418 C   0  0  0  0  0  0  0  0  0  0  0  0
  -28.9653  -17.4149   19.8898 C   0  0  0  0  0  0  0  0  0  0  0  0
  -20.3816  -27.6818   23.2290 C   0  0  0  0  0  0  0  0  0  0  0  0
  -17.9906  -26.6181   22.2626 C   0  0  0  0  0  0  0  0  0  0  0  0
  -19.2171  -28.4493   23.2524 C   0  0  0  0  0  0  0  0  0  0  0  0
  -25.8692  -28.5784   20.1519 C   0  0  0  0  0  0  0  0  0  0  0  0
  -27.6095  -29.2672   18.9978 C   0  0  0  0  0  0  0  0  0  0  0  0
  -30.3249  -22.0631   21.7432 C   0  0  0  0  0  0  0  0  0  0  0  0
  -26.7455  -30.9479   20.6341 C   0  0  0  0  0  0  0  0  0  0  0  0
  -23.7681  -17.9764   21.3517 C   0  0  0  0  0  0  0  0  0  0  0  0
  -23.4310  -14.7690   21.0033 C   0  0  0  0  0  0  0  0  0  0  0  0
  -24.8723  -11.7696   20.2463 C   0  0  0  0  0  0  0  0  0  0  0  0
  -29.4670  -23.8731   17.1800 C   0  0  0  0  0  0  0  0  0  0  0  0
  -20.7063  -22.0544   21.5813 C   0  0  0  0  0  0  0  0  0  0  0  0
  -24.7472  -17.6137   19.0570 C   0  0  0  0  0  0  0  0  0  0  0  0
  -25.7910  -15.6608   21.0169 C   0  0  0  0  0  0  0  0  0  0  0  0
  -20.5653  -20.5649   21.8843 C   0  0  0  0  0  0  0  0  0  0  0  0
  -27.8959  -26.3772   15.1956 C   0  0  0  0  0  0  0  0  0  0  0  0
  -21.7244  -20.0846   22.7519 C   0  0  0  0  0  0  0  0  0  0  0  0
  -27.2764  -27.3243   16.2248 C   0  0  0  0  0  0  0  0  0  0  0  0
  -27.8231  -24.9218   15.6521 C   0  0  0  0  0  0  0  0  0  0  0  0
  -27.7706  -25.6100   18.0180 C   0  0  0  0  0  0  0  0  0  0  0  0
  -23.0653  -20.2647   22.0302 C   0  0  1  0  0  0  0  0  0  0  0  0
  -23.8729  -17.0504   20.1731 C   0  0  1  0  0  0  0  0  0  0  0  0
  -27.8707  -27.0944   17.6274 C   0  0  2  0  0  0  0  0  0  0  0  0
  -24.3536   -9.3197   20.0851 C   0  0  0  0  0  0  0  0  0  0  0  0
  -23.4943  -14.5579   24.0466 C   0  0  0  0  0  0  0  0  0  0  0  0
  -23.9300  -12.1050   23.7978 C   0  0  0  0  0  0  0  0  0  0  0  0
  -21.8057  -13.0866   22.9337 C   0  0  0  0  0  0  0  0  0  0  0  0
  -33.1202  -17.2136   20.8756 C   0  0  0  0  0  0  0  0  0  0  0  0
  -32.4151  -17.0866   23.2683 C   0  0  0  0  0  0  0  0  0  0  0  0
  -25.5363  -11.7003   17.3630 C   0  0  0  0  0  0  0  0  0  0  0  0
  -29.6849  -21.5432   20.5216 C   0  0  0  0  0  0  0  0  0  0  0  0
  -30.5856  -21.5366   19.2615 C   0  0  0  0  0  0  0  0  0  0  0  0
  -31.9128  -19.1609   21.8774 C   0  0  0  0  0  0  0  0  0  0  0  0
  -30.8171  -19.7507   22.7752 C   0  0  0  0  0  0  0  0  0  0  0  0
  -31.0599  -22.9221   18.8284 C   0  0  0  0  0  0  0  0  0  0  0  0
  -30.6887  -16.9378   21.4577 C   0  0  0  0  0  0  0  0  0  1  0  0
  -23.9720  -13.5534   21.7166 C   0  0  1  0  0  0  0  0  0  0  0  0
  -24.4281  -10.6402   19.3345 C   0  0  2  0  0  0  0  0  0  0  0  0
  -23.3178  -13.3448   23.1116 C   0  0  0  0  0  0  0  0  0  0  0  0
  -32.0139  -17.6093   21.8774 C   0  0  0  0  0  0  0  0  0  0  0  0
  -31.1451  -23.3475   23.2923 N   0  0  0  0  0  0  0  0  0  0  0  0
  -26.1677  -27.5515   19.3518 N   0  0  0  0  0  0  0  0  0  0  0  0
  -30.5118  -23.3230   22.0657 N   0  0  0  0  0  0  0  0  0  0  0  0
  -30.8187  -21.2595   22.7256 N   0  0  0  0  0  0  0  0  0  0  0  0
  -27.2301  -28.0009   18.6622 N   0  0  0  0  0  0  0  0  0  0  0  0
  -24.3616  -15.7668   20.6806 N   0  0  0  0  0  0  0  0  0  0  0  0
  -28.4045  -24.7717   16.9883 N   0  0  0  0  0  0  0  0  0  0  0  0
  -28.6588  -29.8721   18.4017 N   0  0  0  0  0  0  0  0  0  0  0  0
  -25.7753  -31.2019   21.6131 N   0  0  0  0  0  0  0  0  0  0  0  0
  -23.2531  -19.2215   21.0450 N   0  0  0  0  0  0  0  0  0  0  0  0
  -23.7972  -12.4313   20.8008 N   0  0  0  0  0  0  0  0  0  0  0  0
  -29.9637  -23.7965   18.4754 N   0  0  0  0  0  0  0  0  0  0  0  0
  -25.3830  -10.4833   18.2011 N   0  3  0  0  0  0  0  0  0  0  0  0
  -27.5809  -31.8401   20.3515 O   0  0  0  0  0  0  0  0  0  0  0  0
  -24.1264  -17.5894   22.4578 O   0  0  0  0  0  0  0  0  0  0  0  0
  -22.2282  -14.8277   20.7358 O   0  0  0  0  0  0  0  0  0  0  0  0
  -26.0549  -12.0357   20.4494 O   0  0  0  0  0  0  0  0  0  0  0  0
  -29.9415  -23.1937   16.2634 O   0  0  0  0  0  0  0  0  0  0  0  0
  -21.5695  -28.2087   23.7076 O   0  0  0  0  0  0  0  0  0  0  0  0
  -30.2999  -17.3499   20.1480 O   0  0  0  0  0  0  0  0  0  1  0  0
  -16.8429  -26.1078   21.7972 F   0  0  0  0  0  0  0  0  0  0  0  0
  -19.2409  -29.6985   23.7368 F   0  0  0  0  0  0  0  0  0  0  0  0
  1  2  1  0  0  0  0
  1  5  2  0  0  0  0
  2  6  2  0  0  0  0
  3  8  2  0  0  0  0
  3 16  1  0  0  0  0
  4  9  1  0  0  0  0
  4 16  2  0  0  0  0
  5 18  1  0  0  0  0
  6 20  1  0  0  0  0
  7 10  2  0  0  0  0
  7 19  1  0  0  0  0
  8 22  1  0  0  0  0
  9 22  2  0  0  0  0
 10 23  1  0  0  0  0
 11 12  2  0  0  0  0
 11 24  1  0  0  0  0
 12 25  1  0  0  0  0
 13 21  1  0  0  0  0
 13 23  2  0  0  0  0
 14 25  2  0  0  0  0
 14 26  1  0  0  0  0
 15 64  2  0  0  0  0
 15 67  1  0  0  0  0
 16 27  1  0  0  0  0
 17 27  1  0  0  0  0
 17 28  2  0  0  0  0
 17 30  1  0  0  0  0
 18 20  2  0  0  0  0
 18 35  1  0  0  0  0
 19 21  2  0  0  0  0
 19 36  1  0  0  0  0
 20 44  1  0  0  0  0
 21 37  1  0  0  0  0
 22 82  1  0  0  0  0
 23 83  1  0  0  0  0
 24 26  2  0  0  0  0
 24 82  1  0  0  0  0
 25 84  1  0  0  0  0
 26 85  1  0  0  0  0
 27 65  2  0  0  0  0
 28 68  1  0  0  0  0
 28 71  1  0  0  0  0
 29 54  1  0  0  0  0
 29 66  2  0  0  0  0
 29 67  1  0  0  0  0
 30 72  1  0  0  0  0
 30 77  2  0  0  0  0
 31 45  1  0  0  0  0
 31 73  1  0  0  0  0
 31 78  2  0  0  0  0
 32 60  1  0  0  0  0
 32 69  1  0  0  0  0
 32 79  2  0  0  0  0
 33 61  1  0  0  0  0
 33 74  1  0  0  0  0
 33 80  2  0  0  0  0
 34 70  1  0  0  0  0
 34 75  1  0  0  0  0
 34 81  2  0  0  0  0
 35 38  1  0  0  0  0
 36 45  1  0  0  0  0
 37 69  1  0  0  0  0
 38 40  1  0  0  0  0
 39 41  1  0  0  0  0
 39 42  1  0  0  0  0
 40 44  1  0  0  0  0
 41 46  1  0  0  0  0
 42 70  1  0  0  0  0
 43 46  1  0  0  0  0
 43 70  1  0  0  0  0
 44 73  1  0  0  0  0
 45 69  1  0  0  0  0
 46 68  1  0  0  0  0
 47 61  1  0  0  0  0
 48 62  1  0  0  0  0
 49 62  1  0  0  0  0
 50 62  1  0  0  0  0
 51 63  1  0  0  0  0
 52 63  1  0  0  0  0
 53 76  1  0  0  0  0
 54 55  1  0  0  0  0
 55 58  1  0  0  0  0
 56 57  1  0  0  0  0
 56 63  1  0  0  0  0
 57 67  1  0  0  0  0
 58 75  1  0  0  0  0
 59 63  1  0  0  0  0
 59 83  1  0  0  0  0
 60 62  1  0  0  0  0
 60 74  1  0  0  0  0
 61 76  1  0  0  0  0
 64 66  1  0  0  0  0
 65 68  1  0  0  0  0
M  CHG  1  76   1
M  ISO  4  34 100  59 101  75 100  83 101
M  END
> <Batch ID>
0078

> <Smiles>
CNC(C)C(=O)NC(C(=O)N1Cc2cc([101O:1][101CH2:1]C(C)(C)CCn3cnnc3CCC[100NH:0][100C:0](=O)N3CCCC(n4nc(-c5ccc(Oc6ccc(F)cc6F)cc5)c(C(N)=O)c4N)C3)ccc2CC1C(=O)NC1CCCc2ccccc21)C(C)(C)C

> <Shape>
0.229

> <Color>
0.070

> <Negative vol penalty>
0.000

$$$$

  -OEChem-04052318393D

 82 90  0     1  0  0  0  0  0999 V2000
  -18.6919  -30.9487   21.0310 C   0  0  0  0  0  0  0  0  0  0  0  0
  -19.9122  -30.5901   20.4675 C   0  0  0  0  0  0  0  0  0  0  0  0
  -27.0646  -15.8794   21.8994 C   0  0  0  0  0  0  0  0  0  0  0  0
  -26.6751  -15.3444   19.5758 C   0  0  0  0  0  0  0  0  0  0  0  0
  -18.0507  -30.0803   21.9134 C   0  0  0  0  0  0  0  0  0  0  0  0
  -20.4927  -29.3631   20.7870 C   0  0  0  0  0  0  0  0  0  0  0  0
  -22.2915  -26.9463   16.7166 C   0  0  0  0  0  0  0  0  0  0  0  0
  -25.9718  -15.0929   22.2637 C   0  0  0  0  0  0  0  0  0  0  0  0
  -25.5822  -14.5579   19.9401 C   0  0  0  0  0  0  0  0  0  0  0  0
  -23.5128  -27.3827   16.2050 C   0  0  0  0  0  0  0  0  0  0  0  0
  -25.0492  -11.4694   21.2040 C   0  0  0  0  0  0  0  0  0  0  0  0
  -24.9267  -10.2156   20.6052 C   0  0  0  0  0  0  0  0  0  0  0  0
  -24.6261  -25.5575   17.3223 C   0  0  0  0  0  0  0  0  0  0  0  0
  -22.7874  -10.8627   19.6878 C   0  0  0  0  0  0  0  0  0  0  0  0
  -28.6906  -25.6694   20.5690 C   0  0  0  0  0  0  0  0  0  0  0  0
  -27.4163  -16.0052   20.5555 C   0  0  0  0  0  0  0  0  0  0  0  0
  -29.8843  -16.4049   20.0488 C   0  0  0  0  0  0  0  0  0  0  0  0
  -18.6190  -28.8379   22.2364 C   0  0  0  0  0  0  0  0  0  0  0  0
  -22.2297  -25.8166   17.5452 C   0  0  0  0  0  0  0  0  0  0  0  0
  -19.8592  -28.4778   21.6756 C   0  0  0  0  0  0  0  0  0  0  0  0
  -23.4025  -25.1073   17.8410 C   0  0  0  0  0  0  0  0  0  0  0  0
  -25.2306  -14.4322   21.2841 C   0  0  0  0  0  0  0  0  0  0  0  0
  -24.6807  -26.6900   16.5102 C   0  0  0  0  0  0  0  0  0  0  0  0
  -24.0408  -12.4199   21.0448 C   0  0  0  0  0  0  0  0  0  0  0  0
  -23.7959   -9.9122   19.8471 C   0  0  0  0  0  0  0  0  0  0  0  0
  -22.9099  -12.1165   20.2866 C   0  0  0  0  0  0  0  0  0  0  0  0
  -28.5447  -16.8179   20.1785 C   0  0  0  0  0  0  0  0  0  0  0  0
  -29.5229  -24.6667   20.1225 C   0  0  0  0  0  0  0  0  0  0  0  0
  -30.6906  -26.1898   18.8790 C   0  0  0  0  0  0  0  0  0  0  0  0
  -29.8581  -27.1925   19.3254 C   0  0  0  0  0  0  0  0  0  0  0  0
  -30.5590  -17.5408   19.6733 C   0  0  0  0  0  0  0  0  0  0  0  0
  -30.4666  -15.1102   20.2497 C   0  0  0  0  0  0  0  0  0  0  0  0
  -29.3442  -23.2749   20.5539 C   0  0  0  0  0  0  0  0  0  0  0  0
  -21.3381  -25.2845   20.5494 C   0  0  0  0  0  0  0  0  0  0  0  0
  -21.8228  -22.1827   19.7330 C   0  0  0  0  0  0  0  0  0  0  0  0
  -23.3856  -19.9327   17.6979 C   0  0  0  0  0  0  0  0  0  0  0  0
  -17.9116  -27.9530   23.2319 C   0  0  0  0  0  0  0  0  0  0  0  0
  -20.9009  -25.3432   18.0672 C   0  0  0  0  0  0  0  0  0  0  0  0
  -23.3873  -23.8768   18.7094 C   0  0  0  0  0  0  0  0  0  0  0  0
  -18.4116  -26.5107   23.2279 C   0  0  0  0  0  0  0  0  0  0  0  0
  -29.9423  -21.6755   17.3522 C   0  0  0  0  0  0  0  0  0  0  0  0
  -19.9366  -26.4743   23.2331 C   0  0  0  0  0  0  0  0  0  0  0  0
  -29.7547  -20.2006   17.7096 C   0  0  0  0  0  0  0  0  0  0  0  0
  -28.9799  -22.5639   18.1347 C   0  0  0  0  0  0  0  0  0  0  0  0
  -28.8734  -20.9177   19.9764 C   0  0  0  0  0  0  0  0  0  0  0  0
  -20.5087  -27.1449   21.9783 C   0  0  1  0  0  0  0  0  0  0  0  0
  -21.0239  -24.4806   19.3195 C   0  0  1  0  0  0  0  0  0  0  0  0
  -29.8402  -19.9810   19.2313 C   0  0  1  0  0  0  0  0  0  0  0  0
  -31.8086  -26.4705   17.9341 C   0  0  0  0  0  0  0  0  0  0  0  0
  -23.6139  -17.4660   17.2970 C   0  0  0  0  0  0  0  0  0  0  0  0
  -23.6552  -21.9599   22.1626 C   0  0  0  0  0  0  0  0  0  0  0  0
  -24.5702  -19.8417   21.1910 C   0  0  0  0  0  0  0  0  0  0  0  0
  -22.1563  -19.9907   21.8023 C   0  0  0  0  0  0  0  0  0  0  0  0
  -22.2863  -20.1584   14.9593 C   0  0  0  0  0  0  0  0  0  0  0  0
  -30.0385  -28.6216   18.8789 C   0  0  0  0  0  0  0  0  0  0  0  0
  -29.4855  -28.9075   17.4781 C   0  0  0  0  0  0  0  0  0  0  0  0
  -27.9993  -28.5629   17.3386 C   0  0  0  0  0  0  0  0  0  0  0  0
  -27.4842  -28.8918   15.9385 C   0  0  0  0  0  0  0  0  0  0  0  0
  -26.0186  -28.5141   15.7762 C   0  0  0  0  0  0  0  0  0  1  0  0
  -23.0000  -21.2384   19.7717 C   0  0  1  0  0  0  0  0  0  0  0  0
  -22.8589  -18.7340   16.9296 C   0  0  2  0  0  0  0  0  0  0  0  0
  -23.3463  -20.7820   21.2171 C   0  0  0  0  0  0  0  0  0  0  0  0
  -28.8432  -26.9504   20.1786 N   0  0  0  0  0  0  0  0  0  0  0  0
  -28.3765  -18.1150   19.9075 N   0  0  0  0  0  0  0  0  0  0  0  0
  -30.5379  -24.9088   19.2695 N   0  0  0  0  0  0  0  0  0  0  0  0
  -29.6192  -18.5268   19.6039 N   0  0  0  0  0  0  0  0  0  0  0  0
  -29.0943  -22.3088   19.5762 N   0  0  0  0  0  0  0  0  0  0  0  0
  -22.0644  -23.4572   19.2009 N   0  0  0  0  0  0  0  0  0  0  0  0
  -31.8585  -17.7824   19.3991 N   0  0  0  0  0  0  0  0  0  0  0  0
  -29.6299  -14.0536   20.6340 N   0  0  0  0  0  0  0  0  0  0  0  0
  -20.4023  -26.2592   20.8388 N   0  0  0  0  0  0  0  0  0  0  0  0
  -22.6766  -20.1454   18.8612 N   0  0  0  0  0  0  0  0  0  0  0  0
  -22.9996  -18.9564   15.4627 N   0  3  0  0  0  0  0  0  0  0  0  0
  -31.6953  -14.9004   20.1090 O   0  0  0  0  0  0  0  0  0  0  0  0
  -29.4406  -23.0649   21.7621 O   0  0  0  0  0  0  0  0  0  0  0  0
  -22.3536  -25.0377   21.1894 O   0  0  0  0  0  0  0  0  0  0  0  0
  -20.7274  -21.8011   20.1527 O   0  0  0  0  0  0  0  0  0  0  0  0
  -24.3336  -20.6102   17.3071 O   0  0  0  0  0  0  0  0  0  0  0  0
  -24.1642  -13.6644   21.6392 O   0  0  0  0  0  0  0  0  0  0  0  0
  -25.8742  -27.1142   16.0127 O   0  0  0  0  0  0  0  0  0  1  0  0
  -23.6791   -8.7087   19.2708 F   0  0  0  0  0  0  0  0  0  0  0  0
  -21.9384  -13.0260   20.1291 F   0  0  0  0  0  0  0  0  0  0  0  0
  1  2  1  0  0  0  0
  1  5  2  0  0  0  0
  2  6  2  0  0  0  0
  3  8  2  0  0  0  0
  3 16  1  0  0  0  0
  4  9  1  0  0  0  0
  4 16  2  0  0  0  0
  5 18  1  0  0  0  0
  6 20  1  0  0  0  0
  7 10  2  0  0  0  0
  7 19  1  0  0  0  0
  8 22  1  0  0  0  0
  9 22  2  0  0  0  0
 10 23  1  0  0  0  0
 11 12  2  0  0  0  0
 11 24  1  0  0  0  0
 12 25  1  0  0  0  0
 13 21  1  0  0  0  0
 13 23  2  0  0  0  0
 14 25  2  0  0  0  0
 14 26  1  0  0  0  0
 15 28  1  0  0  0  0
 15 63  2  0  0  0  0
 16 27  1  0  0  0  0
 17 27  1  0  0  0  0
 17 31  2  0  0  0  0
 17 32  1  0  0  0  0
 18 20  2  0  0  0  0
 18 37  1  0  0  0  0
 19 21  2  0  0  0  0
 19 38  1  0  0  0  0
 20 46  1  0  0  0  0
 21 39  1  0  0  0  0
 22 79  1  0  0  0  0
 23 80  1  0  0  0  0
 24 26  2  0  0  0  0
 24 79  1  0  0  0  0
 25 81  1  0  0  0  0
 26 82  1  0  0  0  0
 27 64  2  0  0  0  0
 28 33  1  0  0  0  0
 28 65  2  0  0  0  0
 29 30  2  0  0  0  0
 29 49  1  0  0  0  0
 29 65  1  0  0  0  0
 30 55  1  0  0  0  0
 30 63  1  0  0  0  0
 31 66  1  0  0  0  0
 31 69  1  0  0  0  0
 32 70  1  0  0  0  0
 32 74  2  0  0  0  0
 33 67  1  0  0  0  0
 33 75  2  0  0  0  0
 34 47  1  0  0  0  0
 34 71  1  0  0  0  0
 34 76  2  0  0  0  0
 35 60  1  0  0  0  0
 35 68  1  0  0  0  0
 35 77  2  0  0  0  0
 36 61  1  0  0  0  0
 36 72  1  0  0  0  0
 36 78  2  0  0  0  0
 37 40  1  0  0  0  0
 38 47  1  0  0  0  0
 39 68  1  0  0  0  0
 40 42  1  0  0  0  0
 41 43  1  0  0  0  0
 41 44  1  0  0  0  0
 42 46  1  0  0  0  0
 43 48  1  0  0  0  0
 44 67  1  0  0  0  0
 45 48  1  0  0  0  0
 45 67  1  0  0  0  0
 46 71  1  0  0  0  0
 47 68  1  0  0  0  0
 48 66  1  0  0  0  0
 50 61  1  0  0  0  0
 51 62  1  0  0  0  0
 52 62  1  0  0  0  0
 53 62  1  0  0  0  0
 54 73  1  0  0  0  0
 55 56  1  0  0  0  0
 56 57  1  0  0  0  0
 57 58  1  0  0  0  0
 58 59  1  0  0  0  0
 59 80  1  0  0  0  0
 60 62  1  0  0  0  0
 60 72  1  0  0  0  0
 61 73  1  0  0  0  0
 64 66  1  0  0  0  0
M  CHG  1  73   1
M  ISO  4  28 100  33 100  59 101  80 101
M  END
> <Batch ID>
0078

> <Smiles>
CNC(C)C(=O)NC(C(=O)N1Cc2cc([101O:1][101CH2:1]CCCCc3nc[100c:0]([100C:0](=O)N4CCCC(n5nc(-c6ccc(Oc7ccc(F)cc7F)cc6)c(C(N)=O)c5N)C4)nc3C)ccc2CC1C(=O)NC1CCCc2ccccc21)C(C)(C)C

> <Shape>
0.205

> <Color>
0.069

> <Negative vol penalty>
0.000

$$$$
