
  -OEChem-04052318413D

 87 95  0     1  0  0  0  0  0999 V2000
  -26.2834  -29.4240   24.8619 C   0  0  0  0  0  0  0  0  0  0  0  0
  -26.3918  -28.0652   24.5835 C   0  0  0  0  0  0  0  0  0  0  0  0
  -30.4383  -19.6485   19.0348 C   0  0  0  0  0  0  0  0  0  0  0  0
  -28.8624  -19.9577   20.8398 C   0  0  0  0  0  0  0  0  0  0  0  0
  -25.0256  -30.0211   24.9352 C   0  0  0  0  0  0  0  0  0  0  0  0
  -25.2424  -27.3026   24.3793 C   0  0  0  0  0  0  0  0  0  0  0  0
  -24.5934  -22.5782   20.5369 C   0  0  0  0  0  0  0  0  0  0  0  0
  -30.1687  -20.9387   18.5784 C   0  0  0  0  0  0  0  0  0  0  0  0
  -28.5928  -21.2479   20.3835 C   0  0  0  0  0  0  0  0  0  0  0  0
  -24.6411  -21.1983   20.7305 C   0  0  0  0  0  0  0  0  0  0  0  0
  -31.0383  -24.1024   19.3955 C   0  0  0  0  0  0  0  0  0  0  0  0
  -32.1228  -24.9035   19.0383 C   0  0  0  0  0  0  0  0  0  0  0  0
  -22.2361  -21.1466   20.9115 C   0  0  0  0  0  0  0  0  0  0  0  0
  -22.4094  -16.4631   22.7953 C   0  0  0  0  0  0  0  0  0  0  0  0
  -31.2495  -25.0846   16.7929 C   0  0  0  0  0  0  0  0  0  0  0  0
  -29.7851  -19.1580   20.1655 C   0  0  0  0  0  0  0  0  0  0  0  0
  -31.0493  -17.4397   21.5645 C   0  0  0  0  0  0  0  0  0  0  0  0
  -23.8606  -29.2675   24.7222 C   0  0  0  0  0  0  0  0  0  0  0  0
  -23.3654  -23.2553   20.5401 C   0  0  0  0  0  0  0  0  0  0  0  0
  -23.9678  -27.8900   24.4511 C   0  0  0  0  0  0  0  0  0  0  0  0
  -22.1754  -22.5348   20.7152 C   0  0  0  0  0  0  0  0  0  0  0  0
  -22.6508  -15.1082   22.9930 C   0  0  0  0  0  0  0  0  0  0  0  0
  -22.5195  -17.0043   21.5193 C   0  0  0  0  0  0  0  0  0  0  0  0
  -29.2460  -21.7384   19.2528 C   0  0  0  0  0  0  0  0  0  0  0  0
  -23.4626  -20.4827   20.9207 C   0  0  0  0  0  0  0  0  0  0  0  0
  -30.0594  -23.7924   18.4514 C   0  0  0  0  0  0  0  0  0  0  0  0
  -32.2284  -25.3946   17.7370 C   0  0  0  0  0  0  0  0  0  0  0  0
  -30.1649  -24.2835   17.1502 C   0  0  0  0  0  0  0  0  0  0  0  0
  -30.0628  -17.8251   20.6370 C   0  0  0  0  0  0  0  0  0  0  0  0
  -22.9964  -14.3434   21.8906 C   0  0  0  0  0  0  0  0  0  0  0  0
  -22.8713  -16.1547   20.4828 C   0  0  0  0  0  0  0  0  0  0  0  0
  -30.9053  -16.0781   21.6731 C   0  0  0  0  0  0  0  0  0  0  0  0
  -32.0098  -18.2410   22.2653 C   0  0  0  0  0  0  0  0  0  0  0  0
  -22.0647  -25.5334   22.3351 C   0  0  0  0  0  0  0  0  0  0  0  0
  -19.7018  -25.3900   20.1173 C   0  0  0  0  0  0  0  0  0  0  0  0
  -18.0755  -23.5728   17.7299 C   0  0  0  0  0  0  0  0  0  0  0  0
  -26.2874  -12.3799   20.7513 C   0  0  0  0  0  0  0  0  0  0  0  0
  -22.5212  -29.9473   24.8584 C   0  0  0  0  0  0  0  0  0  0  0  0
  -23.3290  -24.7402   20.3032 C   0  0  0  0  0  0  0  0  0  0  0  0
  -20.8299  -23.2117   20.7069 C   0  0  0  0  0  0  0  0  0  0  0  0
  -21.3680  -29.1465   24.2591 C   0  0  0  0  0  0  0  0  0  0  0  0
  -29.4790  -12.2528   19.1783 C   0  0  0  0  0  0  0  0  0  0  0  0
  -21.4488  -27.6867   24.6943 C   0  0  0  0  0  0  0  0  0  0  0  0
  -30.0796  -13.6317   19.4575 C   0  0  0  0  0  0  0  0  0  0  0  0
  -27.9732  -12.3314   18.9368 C   0  0  0  0  0  0  0  0  0  0  0  0
  -27.8110  -14.3927   20.2780 C   0  0  0  0  0  0  0  0  0  0  0  0
  -22.7453  -27.0344   24.1991 C   0  0  1  0  0  0  0  0  0  0  0  0
  -22.0617  -25.3998   20.8385 C   0  0  1  0  0  0  0  0  0  0  0  0
  -29.3183  -14.3574   20.5831 C   0  0  2  0  0  0  0  0  0  0  0  0
  -21.9973  -16.0342   18.1216 C   0  0  0  0  0  0  0  0  0  0  0  0
  -24.4328  -16.5321   18.5403 C   0  0  0  0  0  0  0  0  0  0  0  0
  -16.1596  -23.7095   16.1151 C   0  0  0  0  0  0  0  0  0  0  0  0
  -20.0521  -13.9724   24.1623 C   0  0  0  0  0  0  0  0  0  0  0  0
  -21.1319  -14.0847   26.4173 C   0  0  0  0  0  0  0  0  0  0  0  0
  -17.7374  -24.9942   22.4183 C   0  0  0  0  0  0  0  0  0  0  0  0
  -16.0489  -24.2015   20.7483 C   0  0  0  0  0  0  0  0  0  0  0  0
  -16.9353  -26.5294   20.6142 C   0  0  0  0  0  0  0  0  0  0  0  0
  -19.8608  -23.1939   15.4001 C   0  0  0  0  0  0  0  0  0  0  0  0
  -22.5343  -14.5223   24.3576 C   0  0  0  0  0  0  0  0  0  0  0  0
  -22.2607  -18.4658   21.2992 C   0  0  0  0  0  0  0  0  0  1  0  0
  -23.2684  -12.8826   22.0424 C   0  0  0  0  0  0  0  0  0  0  0  0
  -24.6572  -12.5747   22.6124 C   0  0  0  0  0  0  0  0  0  0  0  0
  -23.0029  -16.6813   19.0912 C   0  0  0  0  0  0  0  0  0  0  0  0
  -18.4276  -24.5953   19.9626 C   0  0  1  0  0  0  0  0  0  0  0  0
  -17.6525  -23.9199   16.3139 C   0  0  2  0  0  0  0  0  0  0  0  0
  -21.1314  -14.6629   24.9999 C   0  0  0  0  0  0  0  0  0  0  0  0
  -17.3126  -25.0673   20.9380 C   0  0  0  0  0  0  0  0  0  0  0  0
  -29.3453  -16.7917   20.1882 N   0  0  0  0  0  0  0  0  0  0  0  0
  -23.1133  -14.8335   20.6361 N   0  0  0  0  0  0  0  0  0  0  0  0
  -29.8814  -15.7436   20.8364 N   0  0  0  0  0  0  0  0  0  0  0  0
  -20.8470  -24.6659   20.4778 N   0  0  0  0  0  0  0  0  0  0  0  0
  -27.3105  -13.0295   20.0411 N   0  0  0  0  0  0  0  0  0  0  0  0
  -31.5559  -15.1463   22.4016 N   0  0  0  0  0  0  0  0  0  0  0  0
  -32.0204  -19.6237   22.0367 N   0  0  0  0  0  0  0  0  0  0  0  0
  -22.6397  -26.7030   22.7943 N   0  0  0  0  0  0  0  0  0  0  0  0
  -18.0629  -24.6793   18.5525 N   0  0  0  0  0  0  0  0  0  0  0  0
  -25.7167  -13.1100   21.7867 N   0  0  0  0  0  0  0  0  0  0  0  0
  -18.3820  -23.0687   15.3320 N   0  3  0  0  0  0  0  0  0  0  0  0
  -32.8451  -17.7433   23.0578 O   0  0  0  0  0  0  0  0  0  0  0  0
  -21.5798  -24.6421   23.0222 O   0  0  0  0  0  0  0  0  0  0  0  0
  -19.6832  -26.6073   19.9186 O   0  0  0  0  0  0  0  0  0  0  0  0
  -18.3826  -22.4332   18.0729 O   0  0  0  0  0  0  0  0  0  0  0  0
  -25.9142  -11.2322   20.4860 O   0  0  0  0  0  0  0  0  0  0  0  0
  -28.9828  -22.9976   18.8079 O   0  0  0  0  0  0  0  0  0  0  0  0
  -23.5063  -19.1359   21.1105 O   0  0  0  0  0  0  0  0  0  1  0  0
  -33.2692  -26.1652   17.3945 F   0  0  0  0  0  0  0  0  0  0  0  0
  -29.2270  -23.9900   16.2392 F   0  0  0  0  0  0  0  0  0  0  0  0
  1  2  1  0  0  0  0
  1  5  2  0  0  0  0
  2  6  2  0  0  0  0
  3  8  2  0  0  0  0
  3 16  1  0  0  0  0
  4  9  1  0  0  0  0
  4 16  2  0  0  0  0
  5 18  1  0  0  0  0
  6 20  1  0  0  0  0
  7 10  2  0  0  0  0
  7 19  1  0  0  0  0
  8 24  1  0  0  0  0
  9 24  2  0  0  0  0
 10 25  1  0  0  0  0
 11 12  2  0  0  0  0
 11 26  1  0  0  0  0
 12 27  1  0  0  0  0
 13 21  1  0  0  0  0
 13 25  2  0  0  0  0
 14 22  2  0  0  0  0
 14 23  1  0  0  0  0
 15 27  2  0  0  0  0
 15 28  1  0  0  0  0
 16 29  1  0  0  0  0
 17 29  1  0  0  0  0
 17 32  2  0  0  0  0
 17 33  1  0  0  0  0
 18 20  2  0  0  0  0
 18 38  1  0  0  0  0
 19 21  2  0  0  0  0
 19 39  1  0  0  0  0
 20 47  1  0  0  0  0
 21 40  1  0  0  0  0
 22 30  1  0  0  0  0
 22 59  1  0  0  0  0
 23 31  2  0  0  0  0
 23 60  1  0  0  0  0
 24 84  1  0  0  0  0
 25 85  1  0  0  0  0
 26 28  2  0  0  0  0
 26 84  1  0  0  0  0
 27 86  1  0  0  0  0
 28 87  1  0  0  0  0
 29 68  2  0  0  0  0
 30 61  1  0  0  0  0
 30 69  2  0  0  0  0
 31 63  1  0  0  0  0
 31 69  1  0  0  0  0
 32 70  1  0  0  0  0
 32 73  1  0  0  0  0
 33 74  1  0  0  0  0
 33 79  2  0  0  0  0
 34 48  1  0  0  0  0
 34 75  1  0  0  0  0
 34 80  2  0  0  0  0
 35 64  1  0  0  0  0
 35 71  1  0  0  0  0
 35 81  2  0  0  0  0
 36 65  1  0  0  0  0
 36 76  1  0  0  0  0
 36 82  2  0  0  0  0
 37 72  1  0  0  0  0
 37 77  1  0  0  0  0
 37 83  2  0  0  0  0
 38 41  1  0  0  0  0
 39 48  1  0  0  0  0
 40 71  1  0  0  0  0
 41 43  1  0  0  0  0
 42 44  1  0  0  0  0
 42 45  1  0  0  0  0
 43 47  1  0  0  0  0
 44 49  1  0  0  0  0
 45 72  1  0  0  0  0
 46 49  1  0  0  0  0
 46 72  1  0  0  0  0
 47 75  1  0  0  0  0
 48 71  1  0  0  0  0
 49 70  1  0  0  0  0
 50 63  1  0  0  0  0
 51 63  1  0  0  0  0
 52 65  1  0  0  0  0
 53 66  1  0  0  0  0
 54 66  1  0  0  0  0
 55 67  1  0  0  0  0
 56 67  1  0  0  0  0
 57 67  1  0  0  0  0
 58 78  1  0  0  0  0
 59 66  1  0  0  0  0
 60 85  1  0  0  0  0
 61 62  1  0  0  0  0
 62 77  1  0  0  0  0
 64 67  1  0  0  0  0
 64 76  1  0  0  0  0
 65 78  1  0  0  0  0
 68 70  1  0  0  0  0
M  CHG  1  78   1
M  ISO  4  37 100  60 101  77 100  85 101
M  END
> <Batch ID>
0079

> <Smiles>
CNC(C)C(=O)NC(C(=O)N1Cc2cc([101O:1][101CH2:1]c3cc(CC(C)C)c(CC[100NH:0][100C:0](=O)N4CCCC(n5nc(-c6ccc(Oc7ccc(F)cc7F)cc6)c(C(N)=O)c5N)C4)nc3C(C)C)ccc2CC1C(=O)NC1CCCc2ccccc21)C(C)(C)C

> <Shape>
0.191

> <Color>
0.058

> <Negative vol penalty>
0.000

$$$$

  -OEChem-04052318413D

 86 94  0     1  0  0  0  0  0999 V2000
  -24.7638  -23.7888   19.4003 C   0  0  0  0  0  0  0  0  0  0  0  0
  -25.5462  -22.7692   18.8701 C   0  0  0  0  0  0  0  0  0  0  0  0
  -26.3771  -28.6284   18.8664 C   0  0  0  0  0  0  0  0  0  0  0  0
  -26.4635  -28.7447   21.2781 C   0  0  0  0  0  0  0  0  0  0  0  0
  -24.1008  -23.5959   20.6105 C   0  0  0  0  0  0  0  0  0  0  0  0
  -25.6564  -21.5522   19.5438 C   0  0  0  0  0  0  0  0  0  0  0  0
  -29.0228  -16.6276   18.3019 C   0  0  0  0  0  0  0  0  0  0  0  0
  -25.1402  -29.2729   18.8796 C   0  0  0  0  0  0  0  0  0  0  0  0
  -25.2266  -29.3893   21.2913 C   0  0  0  0  0  0  0  0  0  0  0  0
  -30.2845  -16.1339   18.6307 C   0  0  0  0  0  0  0  0  0  0  0  0
  -21.9253  -30.7430   21.9831 C   0  0  0  0  0  0  0  0  0  0  0  0
  -20.9799  -30.3127   22.9139 C   0  0  0  0  0  0  0  0  0  0  0  0
  -29.2989  -14.7965   20.3797 C   0  0  0  0  0  0  0  0  0  0  0  0
  -31.7417  -17.3759   22.7302 C   0  0  0  0  0  0  0  0  0  0  0  0
  -21.0218  -28.1041   21.9354 C   0  0  0  0  0  0  0  0  0  0  0  0
  -27.0388  -28.3643   20.0656 C   0  0  0  0  0  0  0  0  0  0  0  0
  -29.5875  -28.2984   19.9784 C   0  0  0  0  0  0  0  0  0  0  0  0
  -24.2135  -22.3802   21.3049 C   0  0  0  0  0  0  0  0  0  0  0  0
  -27.8891  -16.2170   19.0179 C   0  0  0  0  0  0  0  0  0  0  0  0
  -24.9757  -21.3298   20.7545 C   0  0  0  0  0  0  0  0  0  0  0  0
  -28.0236  -15.2845   20.0564 C   0  0  0  0  0  0  0  0  0  0  0  0
  -33.0528  -16.8595   22.5835 C   0  0  0  0  0  0  0  0  0  0  0  0
  -24.5649  -29.6534   20.0920 C   0  0  0  0  0  0  0  0  0  0  0  0
  -30.4231  -15.2205   19.6716 C   0  0  0  0  0  0  0  0  0  0  0  0
  -22.4189  -29.8540   21.0283 C   0  0  0  0  0  0  0  0  0  0  0  0
  -20.5281  -28.9932   22.8901 C   0  0  0  0  0  0  0  0  0  0  0  0
  -21.9672  -28.5345   21.0045 C   0  0  0  0  0  0  0  0  0  0  0  0
  -28.3163  -27.6980   20.0527 C   0  0  0  0  0  0  0  0  0  0  0  0
  -31.8589  -18.7082   23.0597 C   0  0  0  0  0  0  0  0  0  0  0  0
  -33.9312  -17.8920   22.8280 C   0  0  0  0  0  0  0  0  0  0  0  0
  -30.4670  -27.2436   19.9986 C   0  0  0  0  0  0  0  0  0  0  0  0
  -29.9415  -29.6854   19.8984 C   0  0  0  0  0  0  0  0  0  0  0  0
  -25.7263  -17.6836   20.8276 C   0  0  0  0  0  0  0  0  0  0  0  0
  -24.3126  -14.7640   20.8222 C   0  0  0  0  0  0  0  0  0  0  0  0
  -24.6429  -11.3858   20.4679 C   0  0  0  0  0  0  0  0  0  0  0  0
  -30.0211  -21.7922   22.2209 C   0  0  0  0  0  0  0  0  0  0  0  0
  -23.4682  -22.2226   22.6068 C   0  0  0  0  0  0  0  0  0  0  0  0
  -26.5317  -16.7385   18.6335 C   0  0  0  0  0  0  0  0  0  0  0  0
  -26.8353  -14.7964   20.8427 C   0  0  0  0  0  0  0  0  0  0  0  0
  -23.9978  -21.0744   23.4597 C   0  0  0  0  0  0  0  0  0  0  0  0
  -30.8049  -22.6256   18.7874 C   0  0  0  0  0  0  0  0  0  0  0  0
  -24.1184  -19.8135   22.6170 C   0  0  0  0  0  0  0  0  0  0  0  0
  -30.3703  -24.0909   18.7233 C   0  0  0  0  0  0  0  0  0  0  0  0
  -29.8577  -21.8057   19.6585 C   0  0  0  0  0  0  0  0  0  0  0  0
  -29.2496  -23.7945   20.9807 C   0  0  0  0  0  0  0  0  0  0  0  0
  -25.1349  -20.0085   21.4848 C   0  0  1  0  0  0  0  0  0  0  0  0
  -25.5126  -16.6432   19.7647 C   0  0  1  0  0  0  0  0  0  0  0  0
  -30.1799  -24.6811   20.1331 C   0  0  2  0  0  0  0  0  0  0  0  0
  -35.4096  -17.9090   22.8116 C   0  0  0  0  0  0  0  0  0  0  0  0
  -29.5265  -19.1125   23.9305 C   0  0  0  0  0  0  0  0  0  0  0  0
  -23.3172   -9.2569   20.5562 C   0  0  0  0  0  0  0  0  0  0  0  0
  -34.3295  -22.0231   25.2254 C   0  0  0  0  0  0  0  0  0  0  0  0
  -34.5361  -19.5732   25.6961 C   0  0  0  0  0  0  0  0  0  0  0  0
  -24.2870  -14.9094   23.8699 C   0  0  0  0  0  0  0  0  0  0  0  0
  -23.8575  -12.4433   23.9144 C   0  0  0  0  0  0  0  0  0  0  0  0
  -22.2014  -13.9770   22.8524 C   0  0  0  0  0  0  0  0  0  0  0  0
  -25.2551  -10.7511   17.6427 C   0  0  0  0  0  0  0  0  0  0  0  0
  -33.4118  -15.4397   22.2246 C   0  0  0  0  0  0  0  0  0  0  0  0
  -33.8610  -15.2663   20.7722 C   0  0  0  0  0  0  0  0  0  0  0  0
  -33.7419  -20.3132   23.4334 C   0  0  0  0  0  0  0  0  0  0  0  0
  -32.7701  -15.5944   19.7595 C   0  0  0  0  0  0  0  0  0  1  0  0
  -30.8092  -19.7138   23.3237 C   0  0  2  0  0  0  0  0  0  0  0  0
  -24.4017  -13.5315   21.6894 C   0  0  1  0  0  0  0  0  0  0  0  0
  -23.8425  -10.3739   19.6679 C   0  0  2  0  0  0  0  0  0  0  0  0
  -33.7431  -20.6393   24.9374 C   0  0  0  0  0  0  0  0  0  0  0  0
  -23.7097  -13.7258   23.0682 C   0  0  0  0  0  0  0  0  0  0  0  0
  -28.3784  -26.3652   20.1152 N   0  0  0  0  0  0  0  0  0  0  0  0
  -33.1943  -19.0108   23.1167 N   0  0  0  0  0  0  0  0  0  0  0  0
  -29.6991  -26.1194   20.0802 N   0  0  0  0  0  0  0  0  0  0  0  0
  -25.5301  -15.3404   20.4330 N   0  0  0  0  0  0  0  0  0  0  0  0
  -29.7349  -22.4105   20.9924 N   0  0  0  0  0  0  0  0  0  0  0  0
  -31.8146  -27.1774   19.9542 N   0  0  0  0  0  0  0  0  0  0  0  0
  -28.9134  -30.6379   19.8885 N   0  0  0  0  0  0  0  0  0  0  0  0
  -25.0674  -18.8747   20.5894 N   0  0  0  0  0  0  0  0  0  0  0  0
  -23.8570  -12.4345   20.8968 N   0  0  0  0  0  0  0  0  0  0  0  0
  -30.4690  -20.4791   22.1448 N   0  0  0  0  0  0  0  0  0  0  0  0
  -24.6907   -9.7679   18.6029 N   0  3  0  0  0  0  0  0  0  0  0  0
  -31.1336  -30.0680   19.8208 O   0  0  0  0  0  0  0  0  0  0  0  0
  -26.4351  -17.4244   21.7930 O   0  0  0  0  0  0  0  0  0  0  0  0
  -23.2039  -15.1952   20.4961 O   0  0  0  0  0  0  0  0  0  0  0  0
  -25.8442  -11.2569   20.6931 O   0  0  0  0  0  0  0  0  0  0  0  0
  -29.8922  -22.3697   23.3058 O   0  0  0  0  0  0  0  0  0  0  0  0
  -23.3581  -30.2826   20.1053 O   0  0  0  0  0  0  0  0  0  0  0  0
  -31.6536  -14.7375   19.9950 O   0  0  0  0  0  0  0  0  0  1  0  0
  -19.6214  -28.5797   23.7851 F   0  0  0  0  0  0  0  0  0  0  0  0
  -22.4386  -27.6755   20.0903 F   0  0  0  0  0  0  0  0  0  0  0  0
  1  2  1  0  0  0  0
  1  5  2  0  0  0  0
  2  6  2  0  0  0  0
  3  8  2  0  0  0  0
  3 16  1  0  0  0  0
  4  9  1  0  0  0  0
  4 16  2  0  0  0  0
  5 18  1  0  0  0  0
  6 20  1  0  0  0  0
  7 10  2  0  0  0  0
  7 19  1  0  0  0  0
  8 23  1  0  0  0  0
  9 23  2  0  0  0  0
 10 24  1  0  0  0  0
 11 12  2  0  0  0  0
 11 25  1  0  0  0  0
 12 26  1  0  0  0  0
 13 21  1  0  0  0  0
 13 24  2  0  0  0  0
 14 22  1  0  0  0  0
 14 29  2  0  0  0  0
 15 26  2  0  0  0  0
 15 27  1  0  0  0  0
 16 28  1  0  0  0  0
 17 28  1  0  0  0  0
 17 31  2  0  0  0  0
 17 32  1  0  0  0  0
 18 20  2  0  0  0  0
 18 37  1  0  0  0  0
 19 21  2  0  0  0  0
 19 38  1  0  0  0  0
 20 46  1  0  0  0  0
 21 39  1  0  0  0  0
 22 30  2  0  0  0  0
 22 58  1  0  0  0  0
 23 83  1  0  0  0  0
 24 84  1  0  0  0  0
 25 27  2  0  0  0  0
 25 83  1  0  0  0  0
 26 85  1  0  0  0  0
 27 86  1  0  0  0  0
 28 67  2  0  0  0  0
 29 62  1  0  0  0  0
 29 68  1  0  0  0  0
 30 49  1  0  0  0  0
 30 68  1  0  0  0  0
 31 69  1  0  0  0  0
 31 72  1  0  0  0  0
 32 73  1  0  0  0  0
 32 78  2  0  0  0  0
 33 47  1  0  0  0  0
 33 74  1  0  0  0  0
 33 79  2  0  0  0  0
 34 63  1  0  0  0  0
 34 70  1  0  0  0  0
 34 80  2  0  0  0  0
 35 64  1  0  0  0  0
 35 75  1  0  0  0  0
 35 81  2  0  0  0  0
 36 71  1  0  0  0  0
 36 76  1  0  0  0  0
 36 82  2  0  0  0  0
 37 40  1  0  0  0  0
 38 47  1  0  0  0  0
 39 70  1  0  0  0  0
 40 42  1  0  0  0  0
 41 43  1  0  0  0  0
 41 44  1  0  0  0  0
 42 46  1  0  0  0  0
 43 48  1  0  0  0  0
 44 71  1  0  0  0  0
 45 48  1  0  0  0  0
 45 71  1  0  0  0  0
 46 74  1  0  0  0  0
 47 70  1  0  0  0  0
 48 69  1  0  0  0  0
 50 62  1  0  0  0  0
 51 64  1  0  0  0  0
 52 65  1  0  0  0  0
 53 65  1  0  0  0  0
 54 66  1  0  0  0  0
 55 66  1  0  0  0  0
 56 66  1  0  0  0  0
 57 77  1  0  0  0  0
 58 59  1  0  0  0  0
 59 61  1  0  0  0  0
 60 65  1  0  0  0  0
 60 68  1  0  0  0  0
 61 84  1  0  0  0  0
 62 76  1  0  0  0  0
 63 66  1  0  0  0  0
 63 75  1  0  0  0  0
 64 77  1  0  0  0  0
 67 69  1  0  0  0  0
M  CHG  1  77   1
M  ISO  4  36 100  61 101  76 100  84 101
M  END
> <Batch ID>
0079

> <Smiles>
CNC(C)C(=O)NC(C(=O)N1Cc2cc([101O:1][101CH2:1]CCc3cc(C(C)[100NH:0][100C:0](=O)N4CCCC(n5nc(-c6ccc(Oc7ccc(F)cc7F)cc6)c(C(N)=O)c5N)C4)n(CC(C)C)c3C)ccc2CC1C(=O)NC1CCCc2ccccc21)C(C)(C)C

> <Shape>
0.221

> <Color>
0.070

> <Negative vol penalty>
0.000

$$$$

  -OEChem-04052318413D

 86 94  0     1  0  0  0  0  0999 V2000
  -19.8120  -27.1121   20.0454 C   0  0  0  0  0  0  0  0  0  0  0  0
  -20.2371  -26.0146   19.3036 C   0  0  0  0  0  0  0  0  0  0  0  0
  -24.6731  -27.1476   20.4327 C   0  0  0  0  0  0  0  0  0  0  0  0
  -26.8500  -27.2918   19.3948 C   0  0  0  0  0  0  0  0  0  0  0  0
  -19.8569  -27.0702   21.4383 C   0  0  0  0  0  0  0  0  0  0  0  0
  -20.7083  -24.8749   19.9544 C   0  0  0  0  0  0  0  0  0  0  0  0
  -20.9231  -17.7467   19.2776 C   0  0  0  0  0  0  0  0  0  0  0  0
  -24.8293  -28.4376   20.9396 C   0  0  0  0  0  0  0  0  0  0  0  0
  -27.0062  -28.5819   19.9017 C   0  0  0  0  0  0  0  0  0  0  0  0
  -21.8325  -16.6900   19.2950 C   0  0  0  0  0  0  0  0  0  0  0  0
  -26.4497  -29.9259   23.5055 C   0  0  0  0  0  0  0  0  0  0  0  0
  -26.1020  -30.1441   24.8386 C   0  0  0  0  0  0  0  0  0  0  0  0
  -21.7903  -16.7012   21.7069 C   0  0  0  0  0  0  0  0  0  0  0  0
  -24.4603  -31.7747   24.1434 C   0  0  0  0  0  0  0  0  0  0  0  0
  -27.9718  -12.2452   19.0732 C   0  0  0  0  0  0  0  0  0  0  0  0
  -25.6835  -26.5746   19.6604 C   0  0  0  0  0  0  0  0  0  0  0  0
  -24.9578  -24.8765   17.9004 C   0  0  0  0  0  0  0  0  0  0  0  0
  -20.3199  -25.9258   22.1066 C   0  0  0  0  0  0  0  0  0  0  0  0
  -20.4481  -18.2966   20.4769 C   0  0  0  0  0  0  0  0  0  0  0  0
  -20.7607  -24.8182   21.3575 C   0  0  0  0  0  0  0  0  0  0  0  0
  -20.8730  -17.7631   21.7020 C   0  0  0  0  0  0  0  0  0  0  0  0
  -29.1880  -11.9617   19.6544 C   0  0  0  0  0  0  0  0  0  0  0  0
  -29.6465  -13.1489   20.2768 C   0  0  0  0  0  0  0  0  0  0  0  0
  -25.9959  -29.1548   20.6741 C   0  0  0  0  0  0  0  0  0  0  0  0
  -22.2685  -16.1690   20.5097 C   0  0  0  0  0  0  0  0  0  0  0  0
  -25.8028  -30.6321   22.4914 C   0  0  0  0  0  0  0  0  0  0  0  0
  -25.1073  -31.0685   25.1576 C   0  0  0  0  0  0  0  0  0  0  0  0
  -24.8080  -31.5565   22.8104 C   0  0  0  0  0  0  0  0  0  0  0  0
  -25.5229  -25.2418   19.1369 C   0  0  0  0  0  0  0  0  0  0  0  0
  -28.6963  -14.1217   20.0573 C   0  0  0  0  0  0  0  0  0  0  0  0
  -25.0387  -23.5055   17.8776 C   0  0  0  0  0  0  0  0  0  0  0  0
  -24.4090  -25.7025   16.8650 C   0  0  0  0  0  0  0  0  0  0  0  0
  -20.6054  -21.1594   21.8493 C   0  0  0  0  0  0  0  0  0  0  0  0
  -18.6071  -19.8007   24.0133 C   0  0  0  0  0  0  0  0  0  0  0  0
  -17.4356  -16.9543   25.4873 C   0  0  0  0  0  0  0  0  0  0  0  0
  -28.7150  -19.7372   20.5496 C   0  0  0  0  0  0  0  0  0  0  0  0
  -20.3942  -25.9451   23.6129 C   0  0  0  0  0  0  0  0  0  0  0  0
  -19.4469  -19.4186   20.4409 C   0  0  0  0  0  0  0  0  0  0  0  0
  -20.3776  -18.3045   23.0173 C   0  0  0  0  0  0  0  0  0  0  0  0
  -20.5556  -24.5593   24.2325 C   0  0  0  0  0  0  0  0  0  0  0  0
  -25.1042  -19.7091   20.7915 C   0  0  0  0  0  0  0  0  0  0  0  0
  -21.6334  -23.7684   23.4981 C   0  0  0  0  0  0  0  0  0  0  0  0
  -24.7536  -21.1043   20.2709 C   0  0  0  0  0  0  0  0  0  0  0  0
  -26.3828  -19.7348   21.6237 C   0  0  0  0  0  0  0  0  0  0  0  0
  -27.2158  -21.7050   20.3998 C   0  0  0  0  0  0  0  0  0  0  0  0
  -21.2552  -23.5546   22.0274 C   0  0  1  0  0  0  0  0  0  0  0  0
  -19.4234  -20.2399   21.7264 C   0  0  1  0  0  0  0  0  0  0  0  0
  -25.9448  -21.7422   19.5319 C   0  0  2  0  0  0  0  0  0  0  0  0
  -29.8776  -10.6564   19.6264 C   0  0  0  0  0  0  0  0  0  0  0  0
  -30.9102  -13.3156   21.0241 C   0  0  0  0  0  0  0  0  0  0  0  0
  -15.8327  -16.1645   27.2492 C   0  0  0  0  0  0  0  0  0  0  0  0
  -29.6372  -16.7657   18.4737 C   0  0  0  0  0  0  0  0  0  0  0  0
  -30.8200  -17.4182   22.1046 C   0  0  0  0  0  0  0  0  0  0  0  0
  -20.5665  -20.6730   26.1835 C   0  0  0  0  0  0  0  0  0  0  0  0
  -19.4388  -19.0750   27.7465 C   0  0  0  0  0  0  0  0  0  0  0  0
  -18.1550  -20.9786   26.7713 C   0  0  0  0  0  0  0  0  0  0  0  0
  -15.8525  -15.4110   23.5199 C   0  0  0  0  0  0  0  0  0  0  0  0
  -28.6648  -15.5374   20.4818 C   0  0  0  0  0  0  0  0  0  0  0  0
  -25.3724  -14.4252   19.9479 C   0  0  0  0  0  0  0  0  0  0  0  0
  -26.4346  -14.2665   18.8579 C   0  0  0  0  0  0  0  0  0  0  0  0
  -24.0789  -15.0545   19.4438 C   0  0  0  0  0  0  0  0  0  1  0  0
  -18.7878  -19.0254   25.2960 C   0  0  1  0  0  0  0  0  0  0  0  0
  -16.0236  -16.4756   25.7729 C   0  0  2  0  0  0  0  0  0  0  0  0
  -29.8474  -16.4082   19.9541 C   0  0  2  0  0  0  0  0  0  0  0  0
  -30.1039  -17.6943   20.7837 C   0  0  1  0  0  0  0  0  0  0  0  0
  -19.2481  -19.9288   26.4747 C   0  0  0  0  0  0  0  0  0  0  0  0
  -25.9324  -24.1880   19.8482 N   0  0  0  0  0  0  0  0  0  0  0  0
  -27.6828  -13.5610   19.3249 N   0  0  0  0  0  0  0  0  0  0  0  0
  -25.6242  -23.1470   19.0561 N   0  0  0  0  0  0  0  0  0  0  0  0
  -19.4044  -19.4058   22.9298 N   0  0  0  0  0  0  0  0  0  0  0  0
  -27.4822  -20.3368   20.8561 N   0  0  0  0  0  0  0  0  0  0  0  0
  -24.6652  -22.5838   16.9647 N   0  0  0  0  0  0  0  0  0  0  0  0
  -24.4045  -27.0917   17.0504 N   0  0  0  0  0  0  0  0  0  0  0  0
  -20.2723  -22.4992   21.9067 N   0  0  0  0  0  0  0  0  0  0  0  0
  -17.5278  -18.3293   25.5332 N   0  0  0  0  0  0  0  0  0  0  0  0
  -28.8905  -18.4431   21.0243 N   0  0  0  0  0  0  0  0  0  0  0  0
  -15.7266  -15.2425   24.9905 N   0  3  0  0  0  0  0  0  0  0  0  0
  -23.9215  -25.2218   15.8138 O   0  0  0  0  0  0  0  0  0  0  0  0
  -21.7358  -20.6881   21.8906 O   0  0  0  0  0  0  0  0  0  0  0  0
  -17.7835  -20.7182   23.9722 O   0  0  0  0  0  0  0  0  0  0  0  0
  -18.3647  -16.1852   25.2511 O   0  0  0  0  0  0  0  0  0  0  0  0
  -29.5931  -20.3109   19.8961 O   0  0  0  0  0  0  0  0  0  0  0  0
  -26.1485  -30.4137   21.1683 O   0  0  0  0  0  0  0  0  0  0  0  0
  -23.1566  -15.1381   20.5295 O   0  0  0  0  0  0  0  0  0  1  0  0
  -24.7725  -31.2768   26.4376 F   0  0  0  0  0  0  0  0  0  0  0  0
  -24.1822  -32.2370   21.8404 F   0  0  0  0  0  0  0  0  0  0  0  0
  1  2  1  0  0  0  0
  1  5  2  0  0  0  0
  2  6  2  0  0  0  0
  3  8  2  0  0  0  0
  3 16  1  0  0  0  0
  4  9  1  0  0  0  0
  4 16  2  0  0  0  0
  5 18  1  0  0  0  0
  6 20  1  0  0  0  0
  7 10  2  0  0  0  0
  7 19  1  0  0  0  0
  8 24  1  0  0  0  0
  9 24  2  0  0  0  0
 10 25  1  0  0  0  0
 11 12  2  0  0  0  0
 11 26  1  0  0  0  0
 12 27  1  0  0  0  0
 13 21  1  0  0  0  0
 13 25  2  0  0  0  0
 14 27  2  0  0  0  0
 14 28  1  0  0  0  0
 15 22  2  0  0  0  0
 15 68  1  0  0  0  0
 16 29  1  0  0  0  0
 17 29  1  0  0  0  0
 17 31  2  0  0  0  0
 17 32  1  0  0  0  0
 18 20  2  0  0  0  0
 18 37  1  0  0  0  0
 19 21  2  0  0  0  0
 19 38  1  0  0  0  0
 20 46  1  0  0  0  0
 21 39  1  0  0  0  0
 22 23  1  0  0  0  0
 22 49  1  0  0  0  0
 23 30  2  0  0  0  0
 23 50  1  0  0  0  0
 24 83  1  0  0  0  0
 25 84  1  0  0  0  0
 26 28  2  0  0  0  0
 26 83  1  0  0  0  0
 27 85  1  0  0  0  0
 28 86  1  0  0  0  0
 29 67  2  0  0  0  0
 30 58  1  0  0  0  0
 30 68  1  0  0  0  0
 31 69  1  0  0  0  0
 31 72  1  0  0  0  0
 32 73  1  0  0  0  0
 32 78  2  0  0  0  0
 33 47  1  0  0  0  0
 33 74  1  0  0  0  0
 33 79  2  0  0  0  0
 34 62  1  0  0  0  0
 34 70  1  0  0  0  0
 34 80  2  0  0  0  0
 35 63  1  0  0  0  0
 35 75  1  0  0  0  0
 35 81  2  0  0  0  0
 36 71  1  0  0  0  0
 36 76  1  0  0  0  0
 36 82  2  0  0  0  0
 37 40  1  0  0  0  0
 38 47  1  0  0  0  0
 39 70  1  0  0  0  0
 40 42  1  0  0  0  0
 41 43  1  0  0  0  0
 41 44  1  0  0  0  0
 42 46  1  0  0  0  0
 43 48  1  0  0  0  0
 44 71  1  0  0  0  0
 45 48  1  0  0  0  0
 45 71  1  0  0  0  0
 46 74  1  0  0  0  0
 47 70  1  0  0  0  0
 48 69  1  0  0  0  0
 51 63  1  0  0  0  0
 52 64  1  0  0  0  0
 53 65  1  0  0  0  0
 54 66  1  0  0  0  0
 55 66  1  0  0  0  0
 56 66  1  0  0  0  0
 57 77  1  0  0  0  0
 58 64  1  0  0  0  0
 59 60  1  0  0  0  0
 59 61  1  0  0  0  0
 60 68  1  0  0  0  0
 61 84  1  0  0  0  0
 62 66  1  0  0  0  0
 62 75  1  0  0  0  0
 63 77  1  0  0  0  0
 64 65  1  0  0  0  0
 65 76  1  0  0  0  0
 67 69  1  0  0  0  0
M  CHG  1  77   1
M  ISO  4  36 100  61 101  76 100  84 101
M  END
> <Batch ID>
0079

> <Smiles>
CNC(C)C(=O)NC(C(=O)N1Cc2cc([101O:1][101CH2:1]CCn3cc(C)c(C)c3CC(C)C(C)[100NH:0][100C:0](=O)N3CCCC(n4nc(-c5ccc(Oc6ccc(F)cc6F)cc5)c(C(N)=O)c4N)C3)ccc2CC1C(=O)NC1CCCc2ccccc21)C(C)(C)C

> <Shape>
0.203

> <Color>
0.057

> <Negative vol penalty>
0.000

$$$$

  -OEChem-04052318413D

 83 91  0     1  0  0  0  0  0999 V2000
  -19.2813  -11.7905   17.2848 C   0  0  0  0  0  0  0  0  0  0  0  0
  -19.2539  -13.1350   16.9288 C   0  0  0  0  0  0  0  0  0  0  0  0
  -28.6585  -26.2408   18.9611 C   0  0  0  0  0  0  0  0  0  0  0  0
  -26.4361  -25.3481   18.6430 C   0  0  0  0  0  0  0  0  0  0  0  0
  -19.7625  -11.4118   18.5374 C   0  0  0  0  0  0  0  0  0  0  0  0
  -19.7069  -14.1019   17.8257 C   0  0  0  0  0  0  0  0  0  0  0  0
  -22.9832  -20.4703   17.9854 C   0  0  0  0  0  0  0  0  0  0  0  0
  -18.2937  -27.1503   23.3877 C   0  0  0  0  0  0  0  0  0  0  0  0
  -29.1770  -24.9459   18.9729 C   0  0  0  0  0  0  0  0  0  0  0  0
  -26.9546  -24.0532   18.6547 C   0  0  0  0  0  0  0  0  0  0  0  0
  -22.8271  -21.7488   18.5191 C   0  0  0  0  0  0  0  0  0  0  0  0
  -31.0396  -21.8589   19.4465 C   0  0  0  0  0  0  0  0  0  0  0  0
  -31.9753  -21.5422   20.4313 C   0  0  0  0  0  0  0  0  0  0  0  0
  -18.7686  -26.3108   22.3862 C   0  0  0  0  0  0  0  0  0  0  0  0
  -23.7105  -20.9712   20.6248 C   0  0  0  0  0  0  0  0  0  0  0  0
  -30.3493  -22.0581   22.1422 C   0  0  0  0  0  0  0  0  0  0  0  0
  -27.2881  -26.4419   18.7962 C   0  0  0  0  0  0  0  0  0  0  0  0
  -26.5762  -28.6150   17.6654 C   0  0  0  0  0  0  0  0  0  0  0  0
  -20.2305  -12.3738   19.4464 C   0  0  0  0  0  0  0  0  0  0  0  0
  -23.4949  -19.4283   18.7721 C   0  0  0  0  0  0  0  0  0  0  0  0
  -20.1936  -13.7359   19.0921 C   0  0  0  0  0  0  0  0  0  0  0  0
  -23.8746  -19.6810   20.0980 C   0  0  0  0  0  0  0  0  0  0  0  0
  -18.8563  -28.4108   23.5553 C   0  0  0  0  0  0  0  0  0  0  0  0
  -28.3250  -23.8522   18.8196 C   0  0  0  0  0  0  0  0  0  0  0  0
  -23.1880  -21.9988   19.8398 C   0  0  0  0  0  0  0  0  0  0  0  0
  -29.7587  -22.2752   19.8096 C   0  0  0  0  0  0  0  0  0  0  0  0
  -31.6302  -21.6418   21.7791 C   0  0  0  0  0  0  0  0  0  0  0  0
  -29.4136  -22.3748   21.1574 C   0  0  0  0  0  0  0  0  0  0  0  0
  -26.7518  -27.7792   18.7846 C   0  0  0  0  0  0  0  0  0  0  0  0
  -19.7994  -26.7751   21.5853 C   0  0  0  0  0  0  0  0  0  0  0  0
  -19.8833  -28.7811   22.7021 C   0  0  0  0  0  0  0  0  0  0  0  0
  -26.0380  -29.7691   18.1799 C   0  0  0  0  0  0  0  0  0  0  0  0
  -26.8728  -28.3698   16.2843 C   0  0  0  0  0  0  0  0  0  0  0  0
  -22.3801  -16.6314   19.7910 C   0  0  0  0  0  0  0  0  0  0  0  0
  -25.4073  -16.2696   20.8988 C   0  0  0  0  0  0  0  0  0  0  0  0
  -28.3143  -17.7384   21.9183 C   0  0  0  0  0  0  0  0  0  0  0  0
  -22.8515  -30.9366   23.1129 C   0  0  0  0  0  0  0  0  0  0  0  0
  -20.6975  -11.9203   20.8069 C   0  0  0  0  0  0  0  0  0  0  0  0
  -23.6822  -18.0612   18.1735 C   0  0  0  0  0  0  0  0  0  0  0  0
  -24.4477  -18.6016   20.9783 C   0  0  0  0  0  0  0  0  0  0  0  0
  -21.5079  -12.9753   21.5556 C   0  0  0  0  0  0  0  0  0  0  0  0
  -25.9542  -32.4071   22.1706 C   0  0  0  0  0  0  0  0  0  0  0  0
  -20.8163  -14.3327   21.4800 C   0  0  0  0  0  0  0  0  0  0  0  0
  -26.4946  -31.4632   21.0949 C   0  0  0  0  0  0  0  0  0  0  0  0
  -25.2196  -31.6460   23.2720 C   0  0  0  0  0  0  0  0  0  0  0  0
  -24.6900  -29.8050   21.7216 C   0  0  0  0  0  0  0  0  0  0  0  0
  -20.6993  -14.8122   20.0281 C   0  0  1  0  0  0  0  0  0  0  0  0
  -23.7324  -16.9524   19.2201 C   0  0  1  0  0  0  0  0  0  0  0  0
  -25.3904  -30.5314   20.5605 C   0  0  2  0  0  0  0  0  0  0  0  0
  -18.3527  -29.3141   24.6272 C   0  0  0  0  0  0  0  0  0  0  0  0
  -19.8254  -31.2000   21.9900 C   0  0  0  0  0  0  0  0  0  0  0  0
  -30.7021  -17.8987   22.6733 C   0  0  0  0  0  0  0  0  0  0  0  0
  -24.2006  -15.6808   23.6388 C   0  0  0  0  0  0  0  0  0  0  0  0
  -26.4599  -16.0778   24.6418 C   0  0  0  0  0  0  0  0  0  0  0  0
  -26.1300  -14.2181   23.0124 C   0  0  0  0  0  0  0  0  0  0  0  0
  -29.3100  -17.8346   19.1329 C   0  0  0  0  0  0  0  0  0  0  0  0
  -20.3378  -25.8919   20.4882 C   0  0  0  0  0  0  0  0  0  0  0  0
  -21.4947  -24.9941   20.9322 C   0  0  0  0  0  0  0  0  0  0  0  0
  -21.9753  -24.0445   19.8410 C   0  0  0  0  0  0  0  0  0  1  0  0
  -20.5232  -30.1242   22.8335 C   0  0  2  0  0  0  0  0  0  0  0  0
  -26.1226  -16.6070   22.1847 C   0  0  1  0  0  0  0  0  0  0  0  0
  -29.7630  -17.4599   21.5605 C   0  0  2  0  0  0  0  0  0  0  0  0
  -25.7157  -15.6660   23.3537 C   0  0  0  0  0  0  0  0  0  0  0  0
  -26.3574  -28.3537   19.9241 N   0  0  0  0  0  0  0  0  0  0  0  0
  -20.3711  -27.9930   21.7179 N   0  0  0  0  0  0  0  0  0  0  0  0
  -25.9286  -29.5628   19.5237 N   0  0  0  0  0  0  0  0  0  0  0  0
  -24.6056  -17.2800   20.3491 N   0  0  0  0  0  0  0  0  0  0  0  0
  -24.1848  -30.7821   22.6987 N   0  0  0  0  0  0  0  0  0  0  0  0
  -25.6525  -30.9303   17.6095 N   0  0  0  0  0  0  0  0  0  0  0  0
  -27.4223  -27.1305   15.9287 N   0  0  0  0  0  0  0  0  0  0  0  0
  -21.9675  -15.3323   19.5639 N   0  0  0  0  0  0  0  0  0  0  0  0
  -27.5481  -16.5928   21.8747 N   0  0  0  0  0  0  0  0  0  0  0  0
  -21.9331  -30.0821   22.5154 N   0  0  0  0  0  0  0  0  0  0  0  0
  -30.1380  -18.1872   20.3149 N   0  3  0  0  0  0  0  0  0  0  0  0
  -26.6723  -29.2306   15.3941 O   0  0  0  0  0  0  0  0  0  0  0  0
  -21.7577  -17.4977   20.3941 O   0  0  0  0  0  0  0  0  0  0  0  0
  -25.5601  -15.1533   20.3968 O   0  0  0  0  0  0  0  0  0  0  0  0
  -27.9041  -18.8593   22.2110 O   0  0  0  0  0  0  0  0  0  0  0  0
  -22.5045  -31.7776   23.9491 O   0  0  0  0  0  0  0  0  0  0  0  0
  -28.8306  -22.5885   18.8308 O   0  0  0  0  0  0  0  0  0  0  0  0
  -23.0360  -23.2456   20.3634 O   0  0  0  0  0  0  0  0  0  1  0  0
  -32.5284  -21.3362   22.7246 F   0  0  0  0  0  0  0  0  0  0  0  0
  -28.1843  -22.7731   21.5124 F   0  0  0  0  0  0  0  0  0  0  0  0
  1  2  1  0  0  0  0
  1  5  2  0  0  0  0
  2  6  2  0  0  0  0
  3  9  2  0  0  0  0
  3 17  1  0  0  0  0
  4 10  1  0  0  0  0
  4 17  2  0  0  0  0
  5 19  1  0  0  0  0
  6 21  1  0  0  0  0
  7 11  2  0  0  0  0
  7 20  1  0  0  0  0
  8 14  2  0  0  0  0
  8 23  1  0  0  0  0
  9 24  1  0  0  0  0
 10 24  2  0  0  0  0
 11 25  1  0  0  0  0
 12 13  2  0  0  0  0
 12 26  1  0  0  0  0
 13 27  1  0  0  0  0
 14 30  1  0  0  0  0
 15 22  1  0  0  0  0
 15 25  2  0  0  0  0
 16 27  2  0  0  0  0
 16 28  1  0  0  0  0
 17 29  1  0  0  0  0
 18 29  1  0  0  0  0
 18 32  2  0  0  0  0
 18 33  1  0  0  0  0
 19 21  2  0  0  0  0
 19 38  1  0  0  0  0
 20 22  2  0  0  0  0
 20 39  1  0  0  0  0
 21 47  1  0  0  0  0
 22 40  1  0  0  0  0
 23 31  2  0  0  0  0
 23 50  1  0  0  0  0
 24 80  1  0  0  0  0
 25 81  1  0  0  0  0
 26 28  2  0  0  0  0
 26 80  1  0  0  0  0
 27 82  1  0  0  0  0
 28 83  1  0  0  0  0
 29 64  2  0  0  0  0
 30 57  1  0  0  0  0
 30 65  2  0  0  0  0
 31 60  1  0  0  0  0
 31 65  1  0  0  0  0
 32 66  1  0  0  0  0
 32 69  1  0  0  0  0
 33 70  1  0  0  0  0
 33 75  2  0  0  0  0
 34 48  1  0  0  0  0
 34 71  1  0  0  0  0
 34 76  2  0  0  0  0
 35 61  1  0  0  0  0
 35 67  1  0  0  0  0
 35 77  2  0  0  0  0
 36 62  1  0  0  0  0
 36 72  1  0  0  0  0
 36 78  2  0  0  0  0
 37 68  1  0  0  0  0
 37 73  1  0  0  0  0
 37 79  2  0  0  0  0
 38 41  1  0  0  0  0
 39 48  1  0  0  0  0
 40 67  1  0  0  0  0
 41 43  1  0  0  0  0
 42 44  1  0  0  0  0
 42 45  1  0  0  0  0
 43 47  1  0  0  0  0
 44 49  1  0  0  0  0
 45 68  1  0  0  0  0
 46 49  1  0  0  0  0
 46 68  1  0  0  0  0
 47 71  1  0  0  0  0
 48 67  1  0  0  0  0
 49 66  1  0  0  0  0
 51 60  1  0  0  0  0
 52 62  1  0  0  0  0
 53 63  1  0  0  0  0
 54 63  1  0  0  0  0
 55 63  1  0  0  0  0
 56 74  1  0  0  0  0
 57 58  1  0  0  0  0
 58 59  1  0  0  0  0
 59 81  1  0  0  0  0
 60 73  1  0  0  0  0
 61 63  1  0  0  0  0
 61 72  1  0  0  0  0
 62 74  1  0  0  0  0
 64 66  1  0  0  0  0
M  CHG  1  74   1
M  ISO  4  37 100  59 101  73 100  81 101
M  END
> <Batch ID>
0079

> <Smiles>
CNC(C)C(=O)NC(C(=O)N1Cc2cc([101O:1][101CH2:1]CCc3ccc(C)c(C(C)[100NH:0][100C:0](=O)N4CCCC(n5nc(-c6ccc(Oc7ccc(F)cc7F)cc6)c(C(N)=O)c5N)C4)n3)ccc2CC1C(=O)NC1CCCc2ccccc21)C(C)(C)C

> <Shape>
0.202

> <Color>
0.074

> <Negative vol penalty>
0.000

$$$$

  -OEChem-04052318413D

 84 92  0     1  0  0  0  0  0999 V2000
  -33.3270  -21.6442   13.7274 C   0  0  0  0  0  0  0  0  0  0  0  0
  -32.4827  -21.3573   14.7952 C   0  0  0  0  0  0  0  0  0  0  0  0
  -23.0684   -9.8424   19.9065 C   0  0  0  0  0  0  0  0  0  0  0  0
  -23.8231   -9.8123   22.2014 C   0  0  0  0  0  0  0  0  0  0  0  0
  -34.0444  -22.8396   13.7092 C   0  0  0  0  0  0  0  0  0  0  0  0
  -32.3561  -22.2651   15.8461 C   0  0  0  0  0  0  0  0  0  0  0  0
  -27.5380  -22.9641   17.2397 C   0  0  0  0  0  0  0  0  0  0  0  0
  -22.3464   -8.6698   20.1285 C   0  0  0  0  0  0  0  0  0  0  0  0
  -23.1010   -8.6397   22.4234 C   0  0  0  0  0  0  0  0  0  0  0  0
  -26.9548  -21.9764   18.0323 C   0  0  0  0  0  0  0  0  0  0  0  0
  -23.4572   -5.3374   21.7923 C   0  0  0  0  0  0  0  0  0  0  0  0
  -24.0909   -4.3082   22.4886 C   0  0  0  0  0  0  0  0  0  0  0  0
  -27.3309  -23.3341   19.9905 C   0  0  0  0  0  0  0  0  0  0  0  0
  -22.3827   -4.4105   24.1942 C   0  0  0  0  0  0  0  0  0  0  0  0
  -23.8068  -10.4137   20.9429 C   0  0  0  0  0  0  0  0  0  0  0  0
  -24.1001  -12.9470   20.8806 C   0  0  0  0  0  0  0  0  0  0  0  0
  -33.9192  -23.7669   14.7557 C   0  0  0  0  0  0  0  0  0  0  0  0
  -28.0328  -24.1414   17.8190 C   0  0  0  0  0  0  0  0  0  0  0  0
  -33.0735  -23.4734   15.8425 C   0  0  0  0  0  0  0  0  0  0  0  0
  -27.9177  -24.3363   19.2028 C   0  0  0  0  0  0  0  0  0  0  0  0
  -25.5876  -20.2703   22.2670 C   0  0  0  0  0  0  0  0  0  0  0  0
  -22.3627   -8.0685   21.3870 C   0  0  0  0  0  0  0  0  0  0  0  0
  -26.8538  -22.1601   19.4082 C   0  0  0  0  0  0  0  0  0  0  0  0
  -22.2864   -5.9032   22.2969 C   0  0  0  0  0  0  0  0  0  0  0  0
  -23.5536   -3.8447   23.6895 C   0  0  0  0  0  0  0  0  0  0  0  0
  -21.7491   -5.4398   23.4978 C   0  0  0  0  0  0  0  0  0  0  0  0
  -24.5533  -11.6246   20.7140 C   0  0  0  0  0  0  0  0  0  0  0  0
  -24.2296  -19.8995   22.2782 C   0  0  0  0  0  0  0  0  0  0  0  0
  -26.2128  -19.3072   23.0208 C   0  0  0  0  0  0  0  0  0  0  0  0
  -25.1784  -13.7253   20.5371 C   0  0  0  0  0  0  0  0  0  0  0  0
  -22.8190  -13.4287   21.3077 C   0  0  0  0  0  0  0  0  0  0  0  0
  -30.8945  -25.5097   18.0239 C   0  0  0  0  0  0  0  0  0  0  0  0
  -29.2085  -27.9328   19.3685 C   0  0  0  0  0  0  0  0  0  0  0  0
  -26.4050  -28.9347   21.0369 C   0  0  0  0  0  0  0  0  0  0  0  0
  -30.6410  -14.8453   20.7626 C   0  0  0  0  0  0  0  0  0  0  0  0
  -34.7510  -25.0244   14.7148 C   0  0  0  0  0  0  0  0  0  0  0  0
  -28.6350  -25.2088   16.9469 C   0  0  0  0  0  0  0  0  0  0  0  0
  -28.4150  -25.5911   19.8710 C   0  0  0  0  0  0  0  0  0  0  0  0
  -34.2745  -26.1017   15.6857 C   0  0  0  0  0  0  0  0  0  0  0  0
  -29.5548  -12.4937   18.3198 C   0  0  0  0  0  0  0  0  0  0  0  0
  -34.0015  -25.4988   17.0600 C   0  0  0  0  0  0  0  0  0  0  0  0
  -28.1224  -12.1627   18.7423 C   0  0  0  0  0  0  0  0  0  0  0  0
  -30.4649  -12.7050   19.5277 C   0  0  0  0  0  0  0  0  0  0  0  0
  -28.5464  -13.3679   20.9255 C   0  0  0  0  0  0  0  0  0  0  0  0
  -32.8906  -24.4441   16.9890 C   0  0  1  0  0  0  0  0  0  0  0  0
  -29.5700  -26.1444   17.7071 C   0  0  1  0  0  0  0  0  0  0  0  0
  -27.5784  -13.2012   19.7417 C   0  0  2  0  0  0  0  0  0  0  0  0
  -23.1006  -20.5835   21.6234 C   0  0  0  0  0  0  0  0  0  0  0  0
  -25.3271  -30.9704   22.0327 C   0  0  0  0  0  0  0  0  0  0  0  0
  -31.1289  -27.7888   21.7353 C   0  0  0  0  0  0  0  0  0  0  0  0
  -29.4823  -29.1281   23.0632 C   0  0  0  0  0  0  0  0  0  0  0  0
  -30.5260  -30.1084   21.0206 C   0  0  0  0  0  0  0  0  0  0  0  0
  -25.3861  -17.2712   24.2402 C   0  0  0  0  0  0  0  0  0  0  0  0
  -24.0635  -28.7165   19.2400 C   0  0  0  0  0  0  0  0  0  0  0  0
  -26.2146  -21.4515   21.5866 C   0  0  0  0  0  0  0  0  0  1  0  0
  -27.6295  -19.1269   23.3901 C   0  0  0  0  0  0  0  0  0  0  0  0
  -29.7851  -17.7887   22.9924 C   0  0  0  0  0  0  0  0  0  0  0  0
  -30.6627  -16.9683   22.0477 C   0  0  0  0  0  0  0  0  0  0  0  0
  -28.7862  -28.2908   20.7730 C   0  0  1  0  0  0  0  0  0  0  0  0
  -25.4500  -30.0904   20.7985 C   0  0  2  0  0  0  0  0  0  0  0  0
  -28.4534  -18.2721   22.3916 C   0  0  2  0  0  0  0  0  0  0  0  0
  -29.9731  -28.8044   21.6360 C   0  0  0  0  0  0  0  0  0  0  0  0
  -25.8207  -11.5626   20.2969 N   0  0  0  0  0  0  0  0  0  0  0  0
  -24.0046  -18.7874   22.9830 N   0  0  0  0  0  0  0  0  0  0  0  0
  -25.2296  -18.4512   23.4217 N   0  0  0  0  0  0  0  0  0  0  0  0
  -26.1730  -12.8558   20.1985 N   0  0  0  0  0  0  0  0  0  0  0  0
  -29.0016  -26.6026   18.9764 N   0  0  0  0  0  0  0  0  0  0  0  0
  -29.8927  -13.7025   20.4352 N   0  0  0  0  0  0  0  0  0  0  0  0
  -25.3632  -15.0619   20.4946 N   0  0  0  0  0  0  0  0  0  0  0  0
  -21.8241  -12.4928   21.6218 N   0  0  0  0  0  0  0  0  0  0  0  0
  -31.5933  -25.0808   16.9116 N   0  0  0  0  0  0  0  0  0  0  0  0
  -27.6888  -29.2427   20.6392 N   0  0  0  0  0  0  0  0  0  0  0  0
  -30.0222  -15.7432   21.6237 N   0  0  0  0  0  0  0  0  0  0  0  0
  -28.7340  -19.1019   21.1805 N   0  3  0  0  0  0  0  0  0  0  0  0
  -24.0945  -29.5786   20.4494 N   0  3  0  0  0  0  0  0  0  0  0  0
  -22.5589  -14.6529   21.3921 O   0  0  0  0  0  0  0  0  0  0  0  0
  -31.2565  -25.4173   19.1910 O   0  0  0  0  0  0  0  0  0  0  0  0
  -29.6971  -28.8030   18.6436 O   0  0  0  0  0  0  0  0  0  0  0  0
  -26.0486  -27.8670   21.5303 O   0  0  0  0  0  0  0  0  0  0  0  0
  -31.7743  -15.0527   20.3159 O   0  0  0  0  0  0  0  0  0  0  0  0
  -21.6581   -6.9244   21.6041 O   0  0  0  0  0  0  0  0  0  0  0  0
  -26.2855  -21.1974   20.1842 O   0  0  0  0  0  0  0  0  0  1  0  0
  -24.1613   -2.8553   24.3573 F   0  0  0  0  0  0  0  0  0  0  0  0
  -20.6239   -5.9786   23.9870 F   0  0  0  0  0  0  0  0  0  0  0  0
  1  2  1  0  0  0  0
  1  5  2  0  0  0  0
  2  6  2  0  0  0  0
  3  8  2  0  0  0  0
  3 15  1  0  0  0  0
  4  9  1  0  0  0  0
  4 15  2  0  0  0  0
  5 17  1  0  0  0  0
  6 19  1  0  0  0  0
  7 10  2  0  0  0  0
  7 18  1  0  0  0  0
  8 22  1  0  0  0  0
  9 22  2  0  0  0  0
 10 23  1  0  0  0  0
 11 12  2  0  0  0  0
 11 24  1  0  0  0  0
 12 25  1  0  0  0  0
 13 20  1  0  0  0  0
 13 23  2  0  0  0  0
 14 25  2  0  0  0  0
 14 26  1  0  0  0  0
 15 27  1  0  0  0  0
 16 27  1  0  0  0  0
 16 30  2  0  0  0  0
 16 31  1  0  0  0  0
 17 19  2  0  0  0  0
 17 36  1  0  0  0  0
 18 20  2  0  0  0  0
 18 37  1  0  0  0  0
 19 45  1  0  0  0  0
 20 38  1  0  0  0  0
 21 28  1  0  0  0  0
 21 29  2  0  0  0  0
 21 55  1  0  0  0  0
 22 81  1  0  0  0  0
 23 82  1  0  0  0  0
 24 26  2  0  0  0  0
 24 81  1  0  0  0  0
 25 83  1  0  0  0  0
 26 84  1  0  0  0  0
 27 63  2  0  0  0  0
 28 48  1  0  0  0  0
 28 64  2  0  0  0  0
 29 56  1  0  0  0  0
 29 65  1  0  0  0  0
 30 66  1  0  0  0  0
 30 69  1  0  0  0  0
 31 70  1  0  0  0  0
 31 76  2  0  0  0  0
 32 46  1  0  0  0  0
 32 71  1  0  0  0  0
 32 77  2  0  0  0  0
 33 59  1  0  0  0  0
 33 67  1  0  0  0  0
 33 78  2  0  0  0  0
 34 60  1  0  0  0  0
 34 72  1  0  0  0  0
 34 79  2  0  0  0  0
 35 68  1  0  0  0  0
 35 73  1  0  0  0  0
 35 80  2  0  0  0  0
 36 39  1  0  0  0  0
 37 46  1  0  0  0  0
 38 67  1  0  0  0  0
 39 41  1  0  0  0  0
 40 42  1  0  0  0  0
 40 43  1  0  0  0  0
 41 45  1  0  0  0  0
 42 47  1  0  0  0  0
 43 68  1  0  0  0  0
 44 47  1  0  0  0  0
 44 68  1  0  0  0  0
 45 71  1  0  0  0  0
 46 67  1  0  0  0  0
 47 66  1  0  0  0  0
 49 60  1  0  0  0  0
 50 62  1  0  0  0  0
 51 62  1  0  0  0  0
 52 62  1  0  0  0  0
 53 65  1  0  0  0  0
 54 75  1  0  0  0  0
 55 82  1  0  0  0  0
 56 61  1  0  0  0  0
 57 58  1  0  0  0  0
 57 61  1  0  0  0  0
 58 73  1  0  0  0  0
 59 62  1  0  0  0  0
 59 72  1  0  0  0  0
 60 75  1  0  0  0  0
 61 74  1  0  0  0  0
 63 66  1  0  0  0  0
 64 65  1  0  0  0  0
M  CHG  2  74   1  75   1
M  ISO  4  35 100  55 101  73 100  82 101
M  END
> <Batch ID>
0079

> <Smiles>
CNC(C)C(=O)NC(C(=O)N1Cc2cc([101O:1][101CH2:1]c3c(C)nn(C)c3CC(N)CC[100NH:0][100C:0](=O)N3CCCC(n4nc(-c5ccc(Oc6ccc(F)cc6F)cc5)c(C(N)=O)c4N)C3)ccc2CC1C(=O)NC1CCCc2ccccc21)C(C)(C)C

> <Shape>
0.285

> <Color>
0.206

> <Negative vol penalty>
0.000

$$$$

  -OEChem-04052318413D

 84 92  0     1  0  0  0  0  0999 V2000
  -16.4412  -20.1014   28.3690 C   0  0  0  0  0  0  0  0  0  0  0  0
  -17.8306  -20.1691   28.3835 C   0  0  0  0  0  0  0  0  0  0  0  0
  -23.1019   -9.8724   19.9313 C   0  0  0  0  0  0  0  0  0  0  0  0
  -23.8174   -9.9191   22.2385 C   0  0  0  0  0  0  0  0  0  0  0  0
  -15.7304  -20.6206   27.2877 C   0  0  0  0  0  0  0  0  0  0  0  0
  -18.5102  -20.7550   27.3162 C   0  0  0  0  0  0  0  0  0  0  0  0
  -23.6878  -24.0142   27.5923 C   0  0  0  0  0  0  0  0  0  0  0  0
  -22.3676   -8.7134   20.1824 C   0  0  0  0  0  0  0  0  0  0  0  0
  -23.0830   -8.7601   22.4896 C   0  0  0  0  0  0  0  0  0  0  0  0
  -25.0208  -23.6788   27.3594 C   0  0  0  0  0  0  0  0  0  0  0  0
  -19.8539   -7.9298   23.0410 C   0  0  0  0  0  0  0  0  0  0  0  0
  -19.0751   -7.8957   24.1976 C   0  0  0  0  0  0  0  0  0  0  0  0
  -24.8304  -24.5128   25.1039 C   0  0  0  0  0  0  0  0  0  0  0  0
  -20.3259   -5.9839   24.9835 C   0  0  0  0  0  0  0  0  0  0  0  0
  -27.9969  -20.0619   22.5923 C   0  0  0  0  0  0  0  0  0  0  0  0
  -23.8269  -10.4753   20.9593 C   0  0  0  0  0  0  0  0  0  0  0  0
  -24.1398  -13.0027   20.8121 C   0  0  0  0  0  0  0  0  0  0  0  0
  -16.4011  -21.2218   26.2110 C   0  0  0  0  0  0  0  0  0  0  0  0
  -22.9116  -24.5924   26.5776 C   0  0  0  0  0  0  0  0  0  0  0  0
  -17.8078  -21.2815   26.2188 C   0  0  0  0  0  0  0  0  0  0  0  0
  -23.4885  -24.8570   25.3272 C   0  0  0  0  0  0  0  0  0  0  0  0
  -22.3581   -8.1572   21.4615 C   0  0  0  0  0  0  0  0  0  0  0  0
  -25.5915  -23.9254   26.1142 C   0  0  0  0  0  0  0  0  0  0  0  0
  -20.8687   -6.9908   22.8555 C   0  0  0  0  0  0  0  0  0  0  0  0
  -19.3111   -6.9228   25.1689 C   0  0  0  0  0  0  0  0  0  0  0  0
  -21.1047   -6.0179   23.8268 C   0  0  0  0  0  0  0  0  0  0  0  0
  -24.5860  -11.6722   20.7004 C   0  0  0  0  0  0  0  0  0  0  0  0
  -28.2098  -18.8470   22.0045 C   0  0  0  0  0  0  0  0  0  0  0  0
  -25.2295  -13.7610   20.4597 C   0  0  0  0  0  0  0  0  0  0  0  0
  -27.0189  -18.5180   23.8414 C   0  0  0  0  0  0  0  0  0  0  0  0
  -22.8553  -13.5080   21.1997 C   0  0  0  0  0  0  0  0  0  0  0  0
  -20.2804  -23.7459   25.0080 C   0  0  0  0  0  0  0  0  0  0  0  0
  -20.5490  -26.7195   23.7401 C   0  0  0  0  0  0  0  0  0  0  0  0
  -22.5566  -29.3686   22.9661 C   0  0  0  0  0  0  0  0  0  0  0  0
  -30.6956  -14.8513   20.7391 C   0  0  0  0  0  0  0  0  0  0  0  0
  -15.5922  -21.7266   25.0425 C   0  0  0  0  0  0  0  0  0  0  0  0
  -21.4827  -24.9730   26.8531 C   0  0  0  0  0  0  0  0  0  0  0  0
  -22.7038  -25.4945   24.2108 C   0  0  0  0  0  0  0  0  0  0  0  0
  -16.3691  -22.6670   24.1247 C   0  0  0  0  0  0  0  0  0  0  0  0
  -29.6336  -12.4215   18.3632 C   0  0  0  0  0  0  0  0  0  0  0  0
  -17.7470  -22.0914   23.8134 C   0  0  0  0  0  0  0  0  0  0  0  0
  -28.1918  -12.1155   18.7725 C   0  0  0  0  0  0  0  0  0  0  0  0
  -30.5247  -12.6696   19.5783 C   0  0  0  0  0  0  0  0  0  0  0  0
  -28.5877  -13.3949   20.9184 C   0  0  0  0  0  0  0  0  0  0  0  0
  -18.5797  -21.9316   25.0911 C   0  0  1  0  0  0  0  0  0  0  0  0
  -20.6394  -25.0852   25.5867 C   0  0  1  0  0  0  0  0  0  0  0  0
  -27.6386  -13.1926   19.7248 C   0  0  2  0  0  0  0  0  0  0  0  0
  -26.2573  -17.8412   24.9206 C   0  0  0  0  0  0  0  0  0  0  0  0
  -22.4974  -31.6399   21.9008 C   0  0  0  0  0  0  0  0  0  0  0  0
  -28.5703  -22.9718   27.4813 C   0  0  0  0  0  0  0  0  0  0  0  0
  -20.4139  -25.4200   20.9827 C   0  0  0  0  0  0  0  0  0  0  0  0
  -21.2982  -27.5515   20.0116 C   0  0  0  0  0  0  0  0  0  0  0  0
  -19.1060  -27.5404   21.2019 C   0  0  0  0  0  0  0  0  0  0  0  0
  -23.4428  -30.6898   25.4616 C   0  0  0  0  0  0  0  0  0  0  0  0
  -28.9269  -18.4753   20.7821 C   0  0  0  0  0  0  0  0  0  0  0  0
  -30.4350  -18.1564   20.9676 C   0  0  0  0  0  0  0  0  0  0  0  0
  -27.8940  -21.4180   25.6151 C   0  0  0  0  0  0  0  0  0  0  0  0
  -26.7884  -20.8900   24.6895 C   0  0  0  0  0  0  0  0  0  0  0  0
  -30.7111  -17.0186   21.9482 C   0  0  0  0  0  0  0  0  0  0  0  0
  -21.2416  -27.3095   22.5354 C   0  0  1  0  0  0  0  0  0  0  0  0
  -22.3927  -30.8592   23.2017 C   0  0  2  0  0  0  0  0  0  0  0  0
  -27.4204  -22.4874   26.6072 C   0  0  2  0  0  0  0  0  0  1  0  0
  -20.5294  -26.9416   21.2031 C   0  0  0  0  0  0  0  0  0  0  0  0
  -25.8598  -11.5868   20.3077 N   0  0  0  0  0  0  0  0  0  0  0  0
  -27.2571  -19.8286   23.7265 N   0  0  0  0  0  0  0  0  0  0  0  0
  -26.2233  -12.8732   20.1694 N   0  0  0  0  0  0  0  0  0  0  0  0
  -27.5939  -17.9100   22.7988 N   0  3  0  0  0  0  0  0  0  0  0  0
  -21.3088  -25.8426   24.5273 N   0  0  0  0  0  0  0  0  0  0  0  0
  -29.9445  -13.7027   20.4398 N   0  0  0  0  0  0  0  0  0  0  0  0
  -25.4248  -15.0940   20.3729 N   0  0  0  0  0  0  0  0  0  0  0  0
  -21.8483  -12.5907   21.5297 N   0  0  0  0  0  0  0  0  0  0  0  0
  -19.1103  -23.2106   25.5119 N   0  0  0  0  0  0  0  0  0  0  0  0
  -21.3410  -28.7437   22.7835 N   0  0  0  0  0  0  0  0  0  0  0  0
  -30.0690  -15.7835   21.5571 N   0  0  0  0  0  0  0  0  0  0  0  0
  -23.4449  -31.3551   24.1333 N   0  3  0  0  0  0  0  0  0  0  0  0
  -22.6028  -14.7362   21.2361 O   0  0  0  0  0  0  0  0  0  0  0  0
  -21.0100  -23.2365   24.1654 O   0  0  0  0  0  0  0  0  0  0  0  0
  -19.3794  -27.0309   23.9780 O   0  0  0  0  0  0  0  0  0  0  0  0
  -23.6534  -28.8145   22.9424 O   0  0  0  0  0  0  0  0  0  0  0  0
  -31.8378  -15.0350   20.3050 O   0  0  0  0  0  0  0  0  0  0  0  0
  -21.6415   -7.0264   21.7070 O   0  0  0  0  0  0  0  0  0  0  0  0
  -26.8923  -23.5984   25.8840 O   0  0  0  0  0  0  0  0  0  1  0  0
  -18.5641   -6.8912   26.2803 F   0  0  0  0  0  0  0  0  0  0  0  0
  -22.0789   -5.1139   23.6548 F   0  0  0  0  0  0  0  0  0  0  0  0
  1  2  1  0  0  0  0
  1  5  2  0  0  0  0
  2  6  2  0  0  0  0
  3  8  2  0  0  0  0
  3 16  1  0  0  0  0
  4  9  1  0  0  0  0
  4 16  2  0  0  0  0
  5 18  1  0  0  0  0
  6 20  1  0  0  0  0
  7 10  2  0  0  0  0
  7 19  1  0  0  0  0
  8 22  1  0  0  0  0
  9 22  2  0  0  0  0
 10 23  1  0  0  0  0
 11 12  2  0  0  0  0
 11 24  1  0  0  0  0
 12 25  1  0  0  0  0
 13 21  1  0  0  0  0
 13 23  2  0  0  0  0
 14 25  2  0  0  0  0
 14 26  1  0  0  0  0
 15 28  2  0  0  0  0
 15 65  1  0  0  0  0
 16 27  1  0  0  0  0
 17 27  1  0  0  0  0
 17 29  2  0  0  0  0
 17 31  1  0  0  0  0
 18 20  2  0  0  0  0
 18 36  1  0  0  0  0
 19 21  2  0  0  0  0
 19 37  1  0  0  0  0
 20 45  1  0  0  0  0
 21 38  1  0  0  0  0
 22 81  1  0  0  0  0
 23 82  1  0  0  0  0
 24 26  2  0  0  0  0
 24 81  1  0  0  0  0
 25 83  1  0  0  0  0
 26 84  1  0  0  0  0
 27 64  2  0  0  0  0
 28 55  1  0  0  0  0
 28 67  1  0  0  0  0
 29 66  1  0  0  0  0
 29 70  1  0  0  0  0
 30 48  1  0  0  0  0
 30 65  1  0  0  0  0
 30 67  2  0  0  0  0
 31 71  1  0  0  0  0
 31 76  2  0  0  0  0
 32 46  1  0  0  0  0
 32 72  1  0  0  0  0
 32 77  2  0  0  0  0
 33 60  1  0  0  0  0
 33 68  1  0  0  0  0
 33 78  2  0  0  0  0
 34 61  1  0  0  0  0
 34 73  1  0  0  0  0
 34 79  2  0  0  0  0
 35 69  1  0  0  0  0
 35 74  1  0  0  0  0
 35 80  2  0  0  0  0
 36 39  1  0  0  0  0
 37 46  1  0  0  0  0
 38 68  1  0  0  0  0
 39 41  1  0  0  0  0
 40 42  1  0  0  0  0
 40 43  1  0  0  0  0
 41 45  1  0  0  0  0
 42 47  1  0  0  0  0
 43 69  1  0  0  0  0
 44 47  1  0  0  0  0
 44 69  1  0  0  0  0
 45 72  1  0  0  0  0
 46 68  1  0  0  0  0
 47 66  1  0  0  0  0
 49 61  1  0  0  0  0
 50 62  1  0  0  0  0
 51 63  1  0  0  0  0
 52 63  1  0  0  0  0
 53 63  1  0  0  0  0
 54 75  1  0  0  0  0
 55 56  1  0  0  0  0
 56 59  1  0  0  0  0
 57 58  1  0  0  0  0
 57 62  1  0  0  0  0
 58 65  1  0  0  0  0
 59 74  1  0  0  0  0
 60 63  1  0  0  0  0
 60 73  1  0  0  0  0
 61 75  1  0  0  0  0
 62 82  1  0  0  0  0
 64 66  1  0  0  0  0
M  CHG  2  67   1  75   1
M  ISO  4  35 100  62 101  74 100  82 101
M  END
> <Batch ID>
0079

> <Smiles>
CNC(C)C(=O)NC(C(=O)N1Cc2cc([101O:1][101CH:1](C)CCn3cc(CCC[100NH:0][100C:0](=O)N4CCCC(n5nc(-c6ccc(Oc7ccc(F)cc7F)cc6)c(C(N)=O)c5N)C4)nc3C)ccc2CC1C(=O)NC1CCCc2ccccc21)C(C)(C)C

> <Shape>
0.246

> <Color>
0.228

> <Negative vol penalty>
0.000

$$$$

  -OEChem-04052318413D

 83 91  0     1  0  0  0  0  0999 V2000
  -29.6610  -24.1828   17.4479 C   0  0  0  0  0  0  0  0  0  0  0  0
  -28.4511  -24.2305   18.1330 C   0  0  0  0  0  0  0  0  0  0  0  0
  -28.1476  -14.4556   19.5969 C   0  0  0  0  0  0  0  0  0  0  0  0
  -25.9972  -15.3572   20.2295 C   0  0  0  0  0  0  0  0  0  0  0  0
  -30.7386  -24.9524   17.8842 C   0  0  0  0  0  0  0  0  0  0  0  0
  -28.3185  -25.0469   19.2556 C   0  0  0  0  0  0  0  0  0  0  0  0
  -23.9900  -27.6753   19.2459 C   0  0  0  0  0  0  0  0  0  0  0  0
  -27.6788  -13.1651   19.8429 C   0  0  0  0  0  0  0  0  0  0  0  0
  -25.5285  -14.0667   20.4754 C   0  0  0  0  0  0  0  0  0  0  0  0
  -22.8305  -26.9939   19.6135 C   0  0  0  0  0  0  0  0  0  0  0  0
  -23.8766  -11.0363   21.6148 C   0  0  0  0  0  0  0  0  0  0  0  0
  -23.1488  -10.8230   22.7854 C   0  0  0  0  0  0  0  0  0  0  0  0
  -22.9757  -27.9510   21.8230 C   0  0  0  0  0  0  0  0  0  0  0  0
  -23.3695  -23.9469   22.5236 C   0  0  0  0  0  0  0  0  0  0  0  0
  -25.0487  -11.5361   24.0966 C   0  0  0  0  0  0  0  0  0  0  0  0
  -22.1879  -21.9072   22.7516 C   0  0  0  0  0  0  0  0  0  0  0  0
  -27.3068  -15.5517   19.7903 C   0  0  0  0  0  0  0  0  0  0  0  0
  -27.7307  -17.5947   18.3226 C   0  0  0  0  0  0  0  0  0  0  0  0
  -30.6162  -25.7861   19.0070 C   0  0  0  0  0  0  0  0  0  0  0  0
  -24.6582  -28.4925   20.1690 C   0  0  0  0  0  0  0  0  0  0  0  0
  -29.3960  -25.8274   19.7081 C   0  0  0  0  0  0  0  0  0  0  0  0
  -24.1420  -28.6437   21.4639 C   0  0  0  0  0  0  0  0  0  0  0  0
  -22.1688  -23.2871   22.7177 C   0  0  0  0  0  0  0  0  0  0  0  0
  -26.3693  -12.9706   20.2821 C   0  0  0  0  0  0  0  0  0  0  0  0
  -22.3248  -27.1294   20.9031 C   0  0  0  0  0  0  0  0  0  0  0  0
  -25.1905  -11.4994   21.6850 C   0  0  0  0  0  0  0  0  0  0  0  0
  -23.7348  -11.0729   24.0263 C   0  0  0  0  0  0  0  0  0  0  0  0
  -25.7765  -11.7493   22.9259 C   0  0  0  0  0  0  0  0  0  0  0  0
  -27.7905  -16.8850   19.5369 C   0  0  0  0  0  0  0  0  0  0  0  0
  -24.5100  -23.1831   22.3765 C   0  0  0  0  0  0  0  0  0  0  0  0
  -28.3190  -18.8039   18.6021 C   0  0  0  0  0  0  0  0  0  0  0  0
  -27.1914  -17.1964   17.0552 C   0  0  0  0  0  0  0  0  0  0  0  0
  -27.5482  -28.4833   21.4926 C   0  0  0  0  0  0  0  0  0  0  0  0
  -26.5672  -31.3205   22.7216 C   0  0  0  0  0  0  0  0  0  0  0  0
  -23.9722  -33.3405   23.6341 C   0  0  0  0  0  0  0  0  0  0  0  0
  -29.0350  -21.9158   23.6672 C   0  0  0  0  0  0  0  0  0  0  0  0
  -31.8233  -26.5635   19.4689 C   0  0  0  0  0  0  0  0  0  0  0  0
  -25.8929  -29.2418   19.7488 C   0  0  0  0  0  0  0  0  0  0  0  0
  -24.8106  -29.5249   22.4862 C   0  0  0  0  0  0  0  0  0  0  0  0
  -31.4867  -27.6875   20.4454 C   0  0  0  0  0  0  0  0  0  0  0  0
  -31.5960  -20.8023   21.4585 C   0  0  0  0  0  0  0  0  0  0  0  0
  -30.5321  -27.1884   21.5254 C   0  0  0  0  0  0  0  0  0  0  0  0
  -30.9057  -19.7361   20.6060 C   0  0  0  0  0  0  0  0  0  0  0  0
  -31.0989  -20.7793   22.9023 C   0  0  0  0  0  0  0  0  0  0  0  0
  -28.9448  -19.8080   22.2024 C   0  0  0  0  0  0  0  0  0  0  0  0
  -29.2056  -26.7196   20.9155 C   0  0  1  0  0  0  0  0  0  0  0  0
  -26.7782  -29.6421   20.9250 C   0  0  1  0  0  0  0  0  0  0  0  0
  -29.3726  -19.8291   20.7249 C   0  0  2  0  0  0  0  0  0  0  0  0
  -23.4840  -35.5855   24.6436 C   0  0  0  0  0  0  0  0  0  0  0  0
  -27.3027  -30.2383   25.4780 C   0  0  0  0  0  0  0  0  0  0  0  0
  -25.9438  -32.0827   26.4879 C   0  0  0  0  0  0  0  0  0  0  0  0
  -27.9379  -32.6260   25.0912 C   0  0  0  0  0  0  0  0  0  0  0  0
  -22.5357  -34.2471   21.2106 C   0  0  0  0  0  0  0  0  0  0  0  0
  -20.8799  -24.0511   22.8866 C   0  0  0  0  0  0  0  0  0  0  0  0
  -25.8287  -23.8445   22.1657 C   0  0  0  0  0  0  0  0  0  0  0  0
  -20.1499  -24.3263   21.5702 C   0  0  0  0  0  0  0  0  0  0  0  0
  -26.5976  -24.1655   23.4632 C   0  0  0  0  0  0  0  0  0  0  0  0
  -26.8819  -22.9492   24.3419 C   0  0  0  0  0  0  0  0  0  0  0  0
  -20.9376  -25.2188   20.6182 C   0  0  0  0  0  0  0  0  0  1  0  0
  -25.8450  -31.7498   23.9758 C   0  0  1  0  0  0  0  0  0  0  0  0
  -23.6895  -34.8055   23.3543 C   0  0  2  0  0  0  0  0  0  0  0  0
  -26.7456  -31.6560   25.2398 C   0  0  0  0  0  0  0  0  0  0  0  0
  -23.3191  -21.1854   22.6047 N   0  0  0  0  0  0  0  0  0  0  0  0
  -28.3712  -17.5850   20.5151 N   0  0  0  0  0  0  0  0  0  0  0  0
  -24.4993  -21.8339   22.4144 N   0  0  0  0  0  0  0  0  0  0  0  0
  -28.6817  -18.7471   19.9157 N   0  0  0  0  0  0  0  0  0  0  0  0
  -26.0185  -30.2318   22.0292 N   0  0  0  0  0  0  0  0  0  0  0  0
  -29.6376  -20.8724   22.9452 N   0  0  0  0  0  0  0  0  0  0  0  0
  -28.5563  -19.8995   17.8500 N   0  0  0  0  0  0  0  0  0  0  0  0
  -26.6237  -15.9200   16.9420 N   0  0  0  0  0  0  0  0  0  0  0  0
  -28.3742  -27.8556   20.5798 N   0  0  0  0  0  0  0  0  0  0  0  0
  -25.3254  -33.0869   23.7103 N   0  0  0  0  0  0  0  0  0  0  0  0
  -27.6457  -21.9343   23.6510 N   0  0  0  0  0  0  0  0  0  0  0  0
  -22.4631  -34.9461   22.5194 N   0  3  0  0  0  0  0  0  0  0  0  0
  -27.2270  -17.9440   16.0485 O   0  0  0  0  0  0  0  0  0  0  0  0
  -27.4046  -28.1821   22.6717 O   0  0  0  0  0  0  0  0  0  0  0  0
  -27.5768  -31.9333   22.3653 O   0  0  0  0  0  0  0  0  0  0  0  0
  -23.0816  -32.5053   23.7749 O   0  0  0  0  0  0  0  0  0  0  0  0
  -29.6869  -22.7708   24.2762 O   0  0  0  0  0  0  0  0  0  0  0  0
  -25.9115  -11.7115   20.5219 O   0  0  0  0  0  0  0  0  0  0  0  0
  -21.1936  -26.4649   21.2647 O   0  0  0  0  0  0  0  0  0  1  0  0
  -23.0352  -10.8695   25.1503 F   0  0  0  0  0  0  0  0  0  0  0  0
  -27.0380  -12.1955   22.9997 F   0  0  0  0  0  0  0  0  0  0  0  0
  1  2  1  0  0  0  0
  1  5  2  0  0  0  0
  2  6  2  0  0  0  0
  3  8  2  0  0  0  0
  3 17  1  0  0  0  0
  4  9  1  0  0  0  0
  4 17  2  0  0  0  0
  5 19  1  0  0  0  0
  6 21  1  0  0  0  0
  7 10  2  0  0  0  0
  7 20  1  0  0  0  0
  8 24  1  0  0  0  0
  9 24  2  0  0  0  0
 10 25  1  0  0  0  0
 11 12  2  0  0  0  0
 11 26  1  0  0  0  0
 12 27  1  0  0  0  0
 13 22  1  0  0  0  0
 13 25  2  0  0  0  0
 14 23  2  0  0  0  0
 14 30  1  0  0  0  0
 15 27  2  0  0  0  0
 15 28  1  0  0  0  0
 16 23  1  0  0  0  0
 16 63  2  0  0  0  0
 17 29  1  0  0  0  0
 18 29  1  0  0  0  0
 18 31  2  0  0  0  0
 18 32  1  0  0  0  0
 19 21  2  0  0  0  0
 19 37  1  0  0  0  0
 20 22  2  0  0  0  0
 20 38  1  0  0  0  0
 21 46  1  0  0  0  0
 22 39  1  0  0  0  0
 23 54  1  0  0  0  0
 24 80  1  0  0  0  0
 25 81  1  0  0  0  0
 26 28  2  0  0  0  0
 26 80  1  0  0  0  0
 27 82  1  0  0  0  0
 28 83  1  0  0  0  0
 29 64  2  0  0  0  0
 30 55  1  0  0  0  0
 30 65  2  0  0  0  0
 31 66  1  0  0  0  0
 31 69  1  0  0  0  0
 32 70  1  0  0  0  0
 32 75  2  0  0  0  0
 33 47  1  0  0  0  0
 33 71  1  0  0  0  0
 33 76  2  0  0  0  0
 34 60  1  0  0  0  0
 34 67  1  0  0  0  0
 34 77  2  0  0  0  0
 35 61  1  0  0  0  0
 35 72  1  0  0  0  0
 35 78  2  0  0  0  0
 36 68  1  0  0  0  0
 36 73  1  0  0  0  0
 36 79  2  0  0  0  0
 37 40  1  0  0  0  0
 38 47  1  0  0  0  0
 39 67  1  0  0  0  0
 40 42  1  0  0  0  0
 41 43  1  0  0  0  0
 41 44  1  0  0  0  0
 42 46  1  0  0  0  0
 43 48  1  0  0  0  0
 44 68  1  0  0  0  0
 45 48  1  0  0  0  0
 45 68  1  0  0  0  0
 46 71  1  0  0  0  0
 47 67  1  0  0  0  0
 48 66  1  0  0  0  0
 49 61  1  0  0  0  0
 50 62  1  0  0  0  0
 51 62  1  0  0  0  0
 52 62  1  0  0  0  0
 53 74  1  0  0  0  0
 54 56  1  0  0  0  0
 55 57  1  0  0  0  0
 56 59  1  0  0  0  0
 57 58  1  0  0  0  0
 58 73  1  0  0  0  0
 59 81  1  0  0  0  0
 60 62  1  0  0  0  0
 60 72  1  0  0  0  0
 61 74  1  0  0  0  0
 63 65  1  0  0  0  0
 64 66  1  0  0  0  0
M  CHG  1  74   1
M  ISO  4  36 100  59 101  73 100  81 101
M  END
> <Batch ID>
0079

> <Smiles>
CNC(C)C(=O)NC(C(=O)N1Cc2cc([101O:1][101CH2:1]CCc3cnnc(CCC[100NH:0][100C:0](=O)N4CCCC(n5nc(-c6ccc(Oc7ccc(F)cc7F)cc6)c(C(N)=O)c5N)C4)c3)ccc2CC1C(=O)NC1CCCc2ccccc21)C(C)(C)C

> <Shape>
0.264

> <Color>
0.063

> <Negative vol penalty>
0.000

$$$$

  -OEChem-04052318413D

 84 92  0     1  0  0  0  0  0999 V2000
  -27.7681  -34.2932   24.1517 C   0  0  0  0  0  0  0  0  0  0  0  0
  -28.0045  -32.9274   24.2702 C   0  0  0  0  0  0  0  0  0  0  0  0
  -23.4908   -9.9537   22.2807 C   0  0  0  0  0  0  0  0  0  0  0  0
  -22.3456  -10.2950   20.1809 C   0  0  0  0  0  0  0  0  0  0  0  0
  -26.4862  -34.7545   23.8552 C   0  0  0  0  0  0  0  0  0  0  0  0
  -26.9588  -32.0220   24.0933 C   0  0  0  0  0  0  0  0  0  0  0  0
  -28.2725  -28.0775   21.2019 C   0  0  0  0  0  0  0  0  0  0  0  0
  -23.0170   -8.6425   22.3260 C   0  0  0  0  0  0  0  0  0  0  0  0
  -21.8719   -8.9838   20.2261 C   0  0  0  0  0  0  0  0  0  0  0  0
  -29.0310  -27.0731   21.8016 C   0  0  0  0  0  0  0  0  0  0  0  0
  -23.7801   -5.6680   20.9108 C   0  0  0  0  0  0  0  0  0  0  0  0
  -24.6838   -4.6638   21.2578 C   0  0  0  0  0  0  0  0  0  0  0  0
  -27.0396  -25.7388   22.0718 C   0  0  0  0  0  0  0  0  0  0  0  0
  -23.3114   -4.0861   23.1604 C   0  0  0  0  0  0  0  0  0  0  0  0
  -23.1550  -10.7799   21.2082 C   0  0  0  0  0  0  0  0  0  0  0  0
  -24.8437  -12.5857   20.5797 C   0  0  0  0  0  0  0  0  0  0  0  0
  -25.4263  -33.8539   23.6650 C   0  0  0  0  0  0  0  0  0  0  0  0
  -26.8878  -27.9244   21.0422 C   0  0  0  0  0  0  0  0  0  0  0  0
  -25.6612  -32.4717   23.7952 C   0  0  0  0  0  0  0  0  0  0  0  0
  -26.2662  -26.7416   21.4674 C   0  0  0  0  0  0  0  0  0  0  0  0
  -22.2076   -8.1576   21.2987 C   0  0  0  0  0  0  0  0  0  0  0  0
  -28.4142  -25.9048   22.2392 C   0  0  0  0  0  0  0  0  0  0  0  0
  -22.6420   -5.8813   21.6887 C   0  0  0  0  0  0  0  0  0  0  0  0
  -24.4495   -3.8728   22.3826 C   0  0  0  0  0  0  0  0  0  0  0  0
  -22.4077   -5.0903   22.8134 C   0  0  0  0  0  0  0  0  0  0  0  0
  -23.6436  -12.1346   21.1611 C   0  0  0  0  0  0  0  0  0  0  0  0
  -24.8433  -13.9415   20.7993 C   0  0  0  0  0  0  0  0  0  0  0  0
  -27.1865  -20.2473   19.9041 C   0  0  0  0  0  0  0  0  0  0  0  0
  -28.7683  -20.8949   21.2411 C   0  0  0  0  0  0  0  0  0  0  0  0
  -25.8674  -11.8454   19.9016 C   0  0  0  0  0  0  0  0  0  0  0  0
  -24.3225  -29.4692   22.1084 C   0  0  0  0  0  0  0  0  0  0  0  0
  -22.7558  -27.4412   20.1197 C   0  0  0  0  0  0  0  0  0  0  0  0
  -22.7294  -24.4650   18.4499 C   0  0  0  0  0  0  0  0  0  0  0  0
  -22.2146  -18.8643   20.8395 C   0  0  0  0  0  0  0  0  0  0  0  0
  -24.0479  -34.4020   23.3927 C   0  0  0  0  0  0  0  0  0  0  0  0
  -26.0879  -29.0059   20.3692 C   0  0  0  0  0  0  0  0  0  0  0  0
  -24.7858  -26.5197   21.3009 C   0  0  0  0  0  0  0  0  0  0  0  0
  -23.0739  -33.3592   22.8504 C   0  0  0  0  0  0  0  0  0  0  0  0
  -21.8657  -16.8023   23.7211 C   0  0  0  0  0  0  0  0  0  0  0  0
  -23.1568  -32.0747   23.6688 C   0  0  0  0  0  0  0  0  0  0  0  0
  -22.3901  -15.4406   23.2621 C   0  0  0  0  0  0  0  0  0  0  0  0
  -21.1114  -17.5220   22.6052 C   0  0  0  0  0  0  0  0  0  0  0  0
  -22.3849  -16.3020   20.8837 C   0  0  0  0  0  0  0  0  0  0  0  0
  -24.5580  -31.4572   23.5859 C   0  0  1  0  0  0  0  0  0  0  0  0
  -24.6046  -28.9601   20.7231 C   0  0  1  0  0  0  0  0  0  0  0  0
  -23.2009  -15.5625   21.9578 C   0  0  2  0  0  0  0  0  0  0  0  0
  -27.2151  -18.5992   22.9347 C   0  0  0  0  0  0  0  0  0  0  0  0
  -21.2962  -23.0685   16.9356 C   0  0  0  0  0  0  0  0  0  0  0  0
  -21.0150  -26.6528   22.4983 C   0  0  0  0  0  0  0  0  0  0  0  0
  -20.2810  -24.6389   21.2046 C   0  0  0  0  0  0  0  0  0  0  0  0
  -19.7756  -26.9248   20.3433 C   0  0  0  0  0  0  0  0  0  0  0  0
  -24.7448  -24.5375   16.2838 C   0  0  0  0  0  0  0  0  0  0  0  0
  -25.9037  -19.6919   19.4373 C   0  0  0  0  0  0  0  0  0  0  0  0
  -29.5268  -21.1733   22.5142 C   0  0  0  0  0  0  0  0  0  0  0  0
  -24.6952  -20.6551   19.5420 C   0  0  0  0  0  0  0  0  0  0  0  0
  -29.8978  -22.6461   22.7005 C   0  0  0  0  0  0  0  0  0  0  0  0
  -26.7378  -19.9193   22.3542 C   0  0  0  0  0  0  0  0  0  0  0  0
  -23.3864  -20.0708   19.0146 C   0  0  0  0  0  0  0  0  0  0  0  0
  -28.6947  -23.5813   22.6621 C   0  0  0  0  0  0  0  0  0  1  0  0
  -22.1514  -26.0646   20.2559 C   0  0  1  0  0  0  0  0  0  0  0  0
  -22.3918  -24.1205   17.0105 C   0  0  2  0  0  0  0  0  0  0  0  0
  -20.8333  -26.0750   21.0806 C   0  0  0  0  0  0  0  0  0  0  0  0
  -22.9325  -13.1236   21.7091 N   0  0  0  0  0  0  0  0  0  0  0  0
  -28.1595  -20.7255   19.1618 N   0  0  0  0  0  0  0  0  0  0  0  0
  -29.1659  -21.1375   20.0125 N   0  0  0  0  0  0  0  0  0  0  0  0
  -23.6881  -14.2096   21.4730 N   0  0  0  0  0  0  0  0  0  0  0  0
  -27.5273  -20.3344   21.2198 N   0  0  0  0  0  0  0  0  0  0  0  0
  -24.0458  -27.6090   20.6427 N   0  0  0  0  0  0  0  0  0  0  0  0
  -21.9359  -17.6056   21.3973 N   0  0  0  0  0  0  0  0  0  0  0  0
  -25.7184  -14.9186   20.4801 N   0  0  0  0  0  0  0  0  0  0  0  0
  -25.7094  -10.4597   19.7634 N   0  0  0  0  0  0  0  0  0  0  0  0
  -24.7340  -30.7706   22.3242 N   0  0  0  0  0  0  0  0  0  0  0  0
  -22.0036  -25.5476   18.8996 N   0  0  0  0  0  0  0  0  0  0  0  0
  -23.0083  -18.8546   19.6991 N   0  0  0  0  0  0  0  0  0  0  0  0
  -23.5963  -23.5955   16.3073 N   0  3  0  0  0  0  0  0  0  0  0  0
  -26.8996  -12.3941   19.4466 O   0  0  0  0  0  0  0  0  0  0  0  0
  -23.7709  -28.7361   22.9208 O   0  0  0  0  0  0  0  0  0  0  0  0
  -22.1101  -28.3328   19.5632 O   0  0  0  0  0  0  0  0  0  0  0  0
  -23.5518  -23.8342   19.1104 O   0  0  0  0  0  0  0  0  0  0  0  0
  -21.7920  -19.9191   21.3252 O   0  0  0  0  0  0  0  0  0  0  0  0
  -21.7453   -6.8782   21.3424 O   0  0  0  0  0  0  0  0  0  0  0  0
  -29.1521  -24.9231   22.8255 O   0  0  0  0  0  0  0  0  0  1  0  0
  -25.3167   -2.9075   22.7148 F   0  0  0  0  0  0  0  0  0  0  0  0
  -21.3155   -5.2898   23.5639 F   0  0  0  0  0  0  0  0  0  0  0  0
  1  2  1  0  0  0  0
  1  5  2  0  0  0  0
  2  6  2  0  0  0  0
  3  8  2  0  0  0  0
  3 15  1  0  0  0  0
  4  9  1  0  0  0  0
  4 15  2  0  0  0  0
  5 17  1  0  0  0  0
  6 19  1  0  0  0  0
  7 10  2  0  0  0  0
  7 18  1  0  0  0  0
  8 21  1  0  0  0  0
  9 21  2  0  0  0  0
 10 22  1  0  0  0  0
 11 12  2  0  0  0  0
 11 23  1  0  0  0  0
 12 24  1  0  0  0  0
 13 20  1  0  0  0  0
 13 22  2  0  0  0  0
 14 24  2  0  0  0  0
 14 25  1  0  0  0  0
 15 26  1  0  0  0  0
 16 26  1  0  0  0  0
 16 27  2  0  0  0  0
 16 30  1  0  0  0  0
 17 19  2  0  0  0  0
 17 35  1  0  0  0  0
 18 20  2  0  0  0  0
 18 36  1  0  0  0  0
 19 44  1  0  0  0  0
 20 37  1  0  0  0  0
 21 81  1  0  0  0  0
 22 82  1  0  0  0  0
 23 25  2  0  0  0  0
 23 81  1  0  0  0  0
 24 83  1  0  0  0  0
 25 84  1  0  0  0  0
 26 63  2  0  0  0  0
 27 66  1  0  0  0  0
 27 70  1  0  0  0  0
 28 53  1  0  0  0  0
 28 64  2  0  0  0  0
 28 67  1  0  0  0  0
 29 54  1  0  0  0  0
 29 65  2  0  0  0  0
 29 67  1  0  0  0  0
 30 71  1  0  0  0  0
 30 76  2  0  0  0  0
 31 45  1  0  0  0  0
 31 72  1  0  0  0  0
 31 77  2  0  0  0  0
 32 60  1  0  0  0  0
 32 68  1  0  0  0  0
 32 78  2  0  0  0  0
 33 61  1  0  0  0  0
 33 73  1  0  0  0  0
 33 79  2  0  0  0  0
 34 69  1  0  0  0  0
 34 74  1  0  0  0  0
 34 80  2  0  0  0  0
 35 38  1  0  0  0  0
 36 45  1  0  0  0  0
 37 68  1  0  0  0  0
 38 40  1  0  0  0  0
 39 41  1  0  0  0  0
 39 42  1  0  0  0  0
 40 44  1  0  0  0  0
 41 46  1  0  0  0  0
 42 69  1  0  0  0  0
 43 46  1  0  0  0  0
 43 69  1  0  0  0  0
 44 72  1  0  0  0  0
 45 68  1  0  0  0  0
 46 66  1  0  0  0  0
 47 57  1  0  0  0  0
 48 61  1  0  0  0  0
 49 62  1  0  0  0  0
 50 62  1  0  0  0  0
 51 62  1  0  0  0  0
 52 75  1  0  0  0  0
 53 55  1  0  0  0  0
 54 56  1  0  0  0  0
 55 58  1  0  0  0  0
 56 59  1  0  0  0  0
 57 67  1  0  0  0  0
 58 74  1  0  0  0  0
 59 82  1  0  0  0  0
 60 62  1  0  0  0  0
 60 73  1  0  0  0  0
 61 75  1  0  0  0  0
 63 66  1  0  0  0  0
 64 65  1  0  0  0  0
M  CHG  1  75   1
M  ISO  4  34 100  59 101  74 100  82 101
M  END
> <Batch ID>
0079

> <Smiles>
CCn1c(CCC[100NH:0][100C:0](=O)N2CCCC(n3nc(-c4ccc(Oc5ccc(F)cc5F)cc4)c(C(N)=O)c3N)C2)nnc1CC[101CH2:1][101O:1]c1ccc2c(c1)CN(C(=O)C(NC(=O)C(C)NC)C(C)(C)C)C(C(=O)NC1CCCc3ccccc31)C2

> <Shape>
0.247

> <Color>
0.106

> <Negative vol penalty>
0.000

$$$$

  -OEChem-04052318413D

 87 95  0     1  0  0  0  0  0999 V2000
  -18.1012  -24.5827   22.1764 C   0  0  0  0  0  0  0  0  0  0  0  0
  -19.4641  -24.3096   22.2336 C   0  0  0  0  0  0  0  0  0  0  0  0
  -22.0785  -13.8684   23.2860 C   0  0  0  0  0  0  0  0  0  0  0  0
  -23.7577  -13.5785   21.5734 C   0  0  0  0  0  0  0  0  0  0  0  0
  -17.6501  -25.8980   22.2784 C   0  0  0  0  0  0  0  0  0  0  0  0
  -20.3768  -25.3518   22.3918 C   0  0  0  0  0  0  0  0  0  0  0  0
  -23.9515  -24.2999   25.8210 C   0  0  0  0  0  0  0  0  0  0  0  0
  -21.4880  -12.6615   22.9114 C   0  0  0  0  0  0  0  0  0  0  0  0
  -23.1673  -12.3716   21.1987 C   0  0  0  0  0  0  0  0  0  0  0  0
  -24.9903  -23.4605   25.4210 C   0  0  0  0  0  0  0  0  0  0  0  0
  -23.1066   -9.1800   22.3082 C   0  0  0  0  0  0  0  0  0  0  0  0
  -23.9481   -8.0901   22.0858 C   0  0  0  0  0  0  0  0  0  0  0  0
  -26.4054  -25.3841   25.0800 C   0  0  0  0  0  0  0  0  0  0  0  0
  -23.1585   -7.9453   19.8071 C   0  0  0  0  0  0  0  0  0  0  0  0
  -29.6422  -19.7368   20.5957 C   0  0  0  0  0  0  0  0  0  0  0  0
  -23.2133  -14.3269   22.6170 C   0  0  0  0  0  0  0  0  0  0  0  0
  -24.8355  -15.7636   23.9631 C   0  0  0  0  0  0  0  0  0  0  0  0
  -18.5572  -26.9560   22.4476 C   0  0  0  0  0  0  0  0  0  0  0  0
  -24.1287  -25.6907   25.8432 C   0  0  0  0  0  0  0  0  0  0  0  0
  -19.9376  -26.6827   22.4948 C   0  0  0  0  0  0  0  0  0  0  0  0
  -25.3681  -26.2388   25.4832 C   0  0  0  0  0  0  0  0  0  0  0  0
  -22.0324  -11.9131   21.8677 C   0  0  0  0  0  0  0  0  0  0  0  0
  -26.2166  -24.0027   25.0476 C   0  0  0  0  0  0  0  0  0  0  0  0
  -22.2909   -9.6526   21.2800 C   0  0  0  0  0  0  0  0  0  0  0  0
  -23.9741   -7.4727   20.8353 C   0  0  0  0  0  0  0  0  0  0  0  0
  -22.3169   -9.0352   20.0294 C   0  0  0  0  0  0  0  0  0  0  0  0
  -23.8234  -15.5738   23.0032 C   0  0  0  0  0  0  0  0  0  0  0  0
  -29.1409  -18.7991   19.7376 C   0  0  0  0  0  0  0  0  0  0  0  0
  -25.0646  -17.1179   23.9573 C   0  0  0  0  0  0  0  0  0  0  0  0
  -28.1839  -20.7386   19.2654 C   0  0  0  0  0  0  0  0  0  0  0  0
  -25.5084  -14.8018   24.7863 C   0  0  0  0  0  0  0  0  0  0  0  0
  -22.7838  -28.1476   24.3402 C   0  0  0  0  0  0  0  0  0  0  0  0
  -24.6364  -29.8907   26.3531 C   0  0  0  0  0  0  0  0  0  0  0  0
  -27.4186  -30.0505   28.3231 C   0  0  0  0  0  0  0  0  0  0  0  0
  -24.2473  -21.3738   19.8257 C   0  0  0  0  0  0  0  0  0  0  0  0
  -18.0253  -28.3660   22.5056 C   0  0  0  0  0  0  0  0  0  0  0  0
  -23.0068  -26.5809   26.3028 C   0  0  0  0  0  0  0  0  0  0  0  0
  -25.6159  -27.7242   25.5092 C   0  0  0  0  0  0  0  0  0  0  0  0
  -19.0338  -29.3757   23.0476 C   0  0  0  0  0  0  0  0  0  0  0  0
  -22.8694  -21.2832   23.1074 C   0  0  0  0  0  0  0  0  0  0  0  0
  -20.3947  -29.1777   22.3876 C   0  0  0  0  0  0  0  0  0  0  0  0
  -23.0490  -19.8268   23.5395 C   0  0  0  0  0  0  0  0  0  0  0  0
  -22.5400  -21.3942   21.6204 C   0  0  0  0  0  0  0  0  0  0  0  0
  -23.6691  -19.2536   21.1550 C   0  0  0  0  0  0  0  0  0  0  0  0
  -20.9572  -27.7837   22.6905 C   0  0  1  0  0  0  0  0  0  0  0  0
  -23.1347  -28.0138   25.7951 C   0  0  1  0  0  0  0  0  0  0  0  0
  -24.0578  -19.0939   22.6348 C   0  0  2  0  0  0  0  0  0  0  0  0
  -28.0629  -22.5080   17.4825 C   0  0  0  0  0  0  0  0  0  0  0  0
  -28.6897  -31.6192   29.8133 C   0  0  0  0  0  0  0  0  0  0  0  0
  -29.0816  -16.5712   20.9117 C   0  0  0  0  0  0  0  0  0  0  0  0
  -30.9265  -17.0826   19.2774 C   0  0  0  0  0  0  0  0  0  0  0  0
  -28.6238  -16.6090   18.4682 C   0  0  0  0  0  0  0  0  0  0  0  0
  -25.7245  -31.3382   23.8973 C   0  0  0  0  0  0  0  0  0  0  0  0
  -27.6114  -32.1762   25.3134 C   0  0  0  0  0  0  0  0  0  0  0  0
  -25.2635  -32.8169   25.8607 C   0  0  0  0  0  0  0  0  0  0  0  0
  -27.0562  -28.2932   30.6767 C   0  0  0  0  0  0  0  0  0  0  0  0
  -28.2028  -22.6262   21.9888 C   0  0  0  0  0  0  0  0  0  0  0  0
  -27.9773  -21.5568   23.0588 C   0  0  0  0  0  0  0  0  0  0  0  0
  -29.2867  -22.2417   20.9753 C   0  0  0  0  0  0  0  0  0  0  0  0
  -25.9901  -21.1982   18.0676 C   0  0  0  0  0  0  0  0  0  0  0  0
  -26.8710  -21.9575   24.0255 C   0  0  0  0  0  0  0  0  0  1  0  0
  -27.3258  -21.7622   18.6181 C   0  0  1  0  0  0  0  0  0  0  0  0
  -26.0374  -30.4508   26.3016 C   0  0  1  0  0  0  0  0  0  0  0  0
  -27.6188  -30.5416   29.7455 C   0  0  2  0  0  0  0  0  0  0  0  0
  -29.4166  -17.3667   19.6004 C   0  0  0  0  0  0  0  0  0  0  0  0
  -26.1543  -31.6676   25.3408 C   0  0  0  0  0  0  0  0  0  0  0  0
  -23.4361  -16.7161   22.4294 N   0  0  0  0  0  0  0  0  0  0  0  0
  -29.0330  -20.9275   20.2806 N   0  0  0  0  0  0  0  0  0  0  0  0
  -24.2088  -17.6367   23.0306 N   0  0  0  0  0  0  0  0  0  0  0  0
  -28.2408  -19.4467   18.9261 N   0  3  0  0  0  0  0  0  0  0  0  0
  -24.4859  -28.5534   25.9599 N   0  0  0  0  0  0  0  0  0  0  0  0
  -23.5355  -20.6796   20.8179 N   0  0  0  0  0  0  0  0  0  0  0  0
  -25.9124  -17.9036   24.6546 N   0  0  0  0  0  0  0  0  0  0  0  0
  -25.1509  -13.4521   24.6653 N   0  0  0  0  0  0  0  0  0  0  0  0
  -21.5008  -27.7383   24.0310 N   0  0  0  0  0  0  0  0  0  0  0  0
  -26.4121  -30.7407   27.6814 N   0  0  0  0  0  0  0  0  0  0  0  0
  -25.1763  -20.6233   19.1154 N   0  0  0  0  0  0  0  0  0  0  0  0
  -28.0297  -29.4144   30.6296 N   0  3  0  0  0  0  0  0  0  0  0  0
  -26.3889  -15.1316   25.6168 O   0  0  0  0  0  0  0  0  0  0  0  0
  -23.6152  -28.5907   23.5565 O   0  0  0  0  0  0  0  0  0  0  0  0
  -23.7109  -30.6112   26.7352 O   0  0  0  0  0  0  0  0  0  0  0  0
  -28.0906  -29.1476   27.8293 O   0  0  0  0  0  0  0  0  0  0  0  0
  -24.0720  -22.5748   19.5939 O   0  0  0  0  0  0  0  0  0  0  0  0
  -21.4566  -10.7353   21.5020 O   0  0  0  0  0  0  0  0  0  0  0  0
  -27.2320  -23.1857   24.6561 O   0  0  0  0  0  0  0  0  0  1  0  0
  -24.7834   -6.4270   20.6215 F   0  0  0  0  0  0  0  0  0  0  0  0
  -21.5365   -9.4854   19.0374 F   0  0  0  0  0  0  0  0  0  0  0  0
  1  2  1  0  0  0  0
  1  5  2  0  0  0  0
  2  6  2  0  0  0  0
  3  8  2  0  0  0  0
  3 16  1  0  0  0  0
  4  9  1  0  0  0  0
  4 16  2  0  0  0  0
  5 18  1  0  0  0  0
  6 20  1  0  0  0  0
  7 10  2  0  0  0  0
  7 19  1  0  0  0  0
  8 22  1  0  0  0  0
  9 22  2  0  0  0  0
 10 23  1  0  0  0  0
 11 12  2  0  0  0  0
 11 24  1  0  0  0  0
 12 25  1  0  0  0  0
 13 21  1  0  0  0  0
 13 23  2  0  0  0  0
 14 25  2  0  0  0  0
 14 26  1  0  0  0  0
 15 28  2  0  0  0  0
 15 68  1  0  0  0  0
 16 27  1  0  0  0  0
 17 27  1  0  0  0  0
 17 29  2  0  0  0  0
 17 31  1  0  0  0  0
 18 20  2  0  0  0  0
 18 36  1  0  0  0  0
 19 21  2  0  0  0  0
 19 37  1  0  0  0  0
 20 45  1  0  0  0  0
 21 38  1  0  0  0  0
 22 84  1  0  0  0  0
 23 85  1  0  0  0  0
 24 26  2  0  0  0  0
 24 84  1  0  0  0  0
 25 86  1  0  0  0  0
 26 87  1  0  0  0  0
 27 67  2  0  0  0  0
 28 65  1  0  0  0  0
 28 70  1  0  0  0  0
 29 69  1  0  0  0  0
 29 73  1  0  0  0  0
 30 62  1  0  0  0  0
 30 68  1  0  0  0  0
 30 70  2  0  0  0  0
 31 74  1  0  0  0  0
 31 79  2  0  0  0  0
 32 46  1  0  0  0  0
 32 75  1  0  0  0  0
 32 80  2  0  0  0  0
 33 63  1  0  0  0  0
 33 71  1  0  0  0  0
 33 81  2  0  0  0  0
 34 64  1  0  0  0  0
 34 76  1  0  0  0  0
 34 82  2  0  0  0  0
 35 72  1  0  0  0  0
 35 77  1  0  0  0  0
 35 83  2  0  0  0  0
 36 39  1  0  0  0  0
 37 46  1  0  0  0  0
 38 71  1  0  0  0  0
 39 41  1  0  0  0  0
 40 42  1  0  0  0  0
 40 43  1  0  0  0  0
 41 45  1  0  0  0  0
 42 47  1  0  0  0  0
 43 72  1  0  0  0  0
 44 47  1  0  0  0  0
 44 72  1  0  0  0  0
 45 75  1  0  0  0  0
 46 71  1  0  0  0  0
 47 69  1  0  0  0  0
 48 62  1  0  0  0  0
 49 64  1  0  0  0  0
 50 65  1  0  0  0  0
 51 65  1  0  0  0  0
 52 65  1  0  0  0  0
 53 66  1  0  0  0  0
 54 66  1  0  0  0  0
 55 66  1  0  0  0  0
 56 78  1  0  0  0  0
 57 58  1  0  0  0  0
 57 59  1  0  0  0  0
 58 61  1  0  0  0  0
 59 68  1  0  0  0  0
 60 62  1  0  0  0  0
 60 77  1  0  0  0  0
 61 85  1  0  0  0  0
 63 66  1  0  0  0  0
 63 76  1  0  0  0  0
 64 78  1  0  0  0  0
 67 69  1  0  0  0  0
M  CHG  2  70   1  78   1
M  ISO  4  35 100  61 101  77 100  85 101
M  END
> <Batch ID>
0079

> <Smiles>
CNC(C)C(=O)NC(C(=O)N1Cc2cc([101O:1][101CH2:1]CCCn3cc(C(C)(C)C)nc3C(C)C[100NH:0][100C:0](=O)N3CCCC(n4nc(-c5ccc(Oc6ccc(F)cc6F)cc5)c(C(N)=O)c4N)C3)ccc2CC1C(=O)NC1CCCc2ccccc21)C(C)(C)C

> <Shape>
0.203

> <Color>
0.052

> <Negative vol penalty>
0.000

$$$$

  -OEChem-04052318413D

 82 90  0     1  0  0  0  0  0999 V2000
  -29.2861  -24.0258   17.7483 C   0  0  0  0  0  0  0  0  0  0  0  0
  -28.0697  -24.1527   18.4115 C   0  0  0  0  0  0  0  0  0  0  0  0
  -25.0164  -17.0197   19.9084 C   0  0  0  0  0  0  0  0  0  0  0  0
  -26.6304  -16.6858   21.6750 C   0  0  0  0  0  0  0  0  0  0  0  0
  -30.3961  -24.7469   18.1862 C   0  0  0  0  0  0  0  0  0  0  0  0
  -27.9631  -25.0001   19.5138 C   0  0  0  0  0  0  0  0  0  0  0  0
  -23.7812  -27.8527   19.3737 C   0  0  0  0  0  0  0  0  0  0  0  0
  -25.2344  -15.7161   19.4628 C   0  0  0  0  0  0  0  0  0  0  0  0
  -26.8484  -15.3821   21.2294 C   0  0  0  0  0  0  0  0  0  0  0  0
  -22.5814  -27.2420   19.7362 C   0  0  0  0  0  0  0  0  0  0  0  0
  -28.0951  -12.0862   20.3395 C   0  0  0  0  0  0  0  0  0  0  0  0
  -29.4151  -11.6450   20.2464 C   0  0  0  0  0  0  0  0  0  0  0  0
  -22.7424  -28.2396   21.9266 C   0  0  0  0  0  0  0  0  0  0  0  0
  -29.8925  -13.4073   18.6641 C   0  0  0  0  0  0  0  0  0  0  0  0
  -25.7144  -17.5046   21.0145 C   0  0  0  0  0  0  0  0  0  0  0  0
  -25.6902  -20.0418   20.7507 C   0  0  0  0  0  0  0  0  0  0  0  0
  -30.3005  -25.6109   19.2885 C   0  0  0  0  0  0  0  0  0  0  0  0
  -24.4773  -28.6540   20.2902 C   0  0  0  0  0  0  0  0  0  0  0  0
  -29.0732  -25.7324   19.9677 C   0  0  0  0  0  0  0  0  0  0  0  0
  -23.9494  -28.8614   21.5725 C   0  0  0  0  0  0  0  0  0  0  0  0
  -26.1504  -14.8973   20.1233 C   0  0  0  0  0  0  0  0  0  0  0  0
  -22.0633  -27.4330   21.0137 C   0  0  0  0  0  0  0  0  0  0  0  0
  -27.6738  -13.1878   19.5948 C   0  0  0  0  0  0  0  0  0  0  0  0
  -30.3138  -12.3056   19.4087 C   0  0  0  0  0  0  0  0  0  0  0  0
  -28.5724  -13.8484   18.7571 C   0  0  0  0  0  0  0  0  0  0  0  0
  -25.4901  -18.8514   21.4749 C   0  0  0  0  0  0  0  0  0  0  0  0
  -25.3359  -21.0397   21.6255 C   0  0  0  0  0  0  0  0  0  0  0  0
  -26.1546  -20.2290   19.4072 C   0  0  0  0  0  0  0  0  0  0  0  0
  -27.3413  -28.5218   21.6626 C   0  0  0  0  0  0  0  0  0  0  0  0
  -26.4934  -31.4338   22.8131 C   0  0  0  0  0  0  0  0  0  0  0  0
  -23.9955  -33.6082   23.6374 C   0  0  0  0  0  0  0  0  0  0  0  0
  -21.6946  -21.1943   26.3761 C   0  0  0  0  0  0  0  0  0  0  0  0
  -31.5397  -26.3337   19.7539 C   0  0  0  0  0  0  0  0  0  0  0  0
  -25.7566  -29.3273   19.8749 C   0  0  0  0  0  0  0  0  0  0  0  0
  -24.6477  -29.7287   22.5867 C   0  0  0  0  0  0  0  0  0  0  0  0
  -31.2480  -27.4956   20.7001 C   0  0  0  0  0  0  0  0  0  0  0  0
  -25.1551  -22.0287   26.3031 C   0  0  0  0  0  0  0  0  0  0  0  0
  -30.2512  -27.0720   21.7742 C   0  0  0  0  0  0  0  0  0  0  0  0
  -19.3910  -23.3979   21.0761 C   0  0  0  0  0  0  0  0  0  0  0  0
  -20.5152  -24.5346   23.0308 C   0  0  0  0  0  0  0  0  0  0  0  0
  -18.6087  -22.5101   22.0424 C   0  0  0  0  0  0  0  0  0  0  0  0
  -19.7330  -23.6467   23.9970 C   0  0  0  0  0  0  0  0  0  0  0  0
  -25.6514  -21.4164   24.9921 C   0  0  0  0  0  0  0  0  0  0  0  0
  -24.0988  -21.1514   26.9714 C   0  0  0  0  0  0  0  0  0  0  0  0
  -23.4518  -20.1822   24.7998 C   0  0  0  0  0  0  0  0  0  0  0  0
  -28.9114  -26.6604   21.1521 C   0  0  1  0  0  0  0  0  0  0  0  0
  -26.6432  -29.7066   21.0571 C   0  0  1  0  0  0  0  0  0  0  0  0
  -19.7575  -24.7440   21.7136 C   0  0  0  0  0  0  0  0  0  0  0  0
  -19.3664  -22.3006   23.3595 C   0  0  0  0  0  0  0  0  0  0  0  0
  -24.4777  -21.0583   24.0607 C   0  0  2  0  0  0  0  0  0  0  0  0
  -23.6116  -35.8979   24.5897 C   0  0  0  0  0  0  0  0  0  0  0  0
  -18.2297  -20.0935   23.6649 C   0  0  0  0  0  0  0  0  0  0  0  0
  -17.2073  -22.1582   24.6324 C   0  0  0  0  0  0  0  0  0  0  0  0
  -27.1265  -30.3765   25.6044 C   0  0  0  0  0  0  0  0  0  0  0  0
  -25.8519  -32.3124   26.5509 C   0  0  0  0  0  0  0  0  0  0  0  0
  -27.8940  -32.7180   25.1769 C   0  0  0  0  0  0  0  0  0  0  0  0
  -22.6479  -34.5347   21.1708 C   0  0  0  0  0  0  0  0  0  0  0  0
  -20.5810  -25.5925   20.7466 C   0  0  0  0  0  0  0  0  0  1  0  0
  -19.3266  -21.1765   25.6335 C   0  0  0  0  0  0  0  0  0  0  0  0
  -25.7753  -31.9288   24.0453 C   0  0  1  0  0  0  0  0  0  0  0  0
  -23.7956  -35.0794   23.3213 C   0  0  2  0  0  0  0  0  0  0  0  0
  -18.5430  -21.4520   24.3265 C   0  0  0  0  0  0  0  0  0  0  0  0
  -26.6495  -31.8159   25.3262 C   0  0  0  0  0  0  0  0  0  0  0  0
  -25.0435  -19.0708   22.7145 N   0  0  0  0  0  0  0  0  0  0  0  0
  -24.9601  -20.4107   22.7759 N   0  0  0  0  0  0  0  0  0  0  0  0
  -25.8986  -30.3603   22.1352 N   0  0  0  0  0  0  0  0  0  0  0  0
  -23.0130  -20.8496   26.0355 N   0  0  0  0  0  0  0  0  0  0  0  0
  -25.3123  -22.3849   21.5152 N   0  0  0  0  0  0  0  0  0  0  0  0
  -27.5321  -20.3698   19.1900 N   0  0  0  0  0  0  0  0  0  0  0  0
  -28.1471  -27.8310   20.7778 N   0  0  0  0  0  0  0  0  0  0  0  0
  -25.3319  -33.2852   23.7421 N   0  0  0  0  0  0  0  0  0  0  0  0
  -20.7269  -20.8788   25.4302 N   0  0  0  0  0  0  0  0  0  0  0  0
  -22.5918  -35.2659   22.4628 N   0  3  0  0  0  0  0  0  0  0  0  0
  -25.3700  -20.2865   18.4301 O   0  0  0  0  0  0  0  0  0  0  0  0
  -27.1633  -28.2552   22.8453 O   0  0  0  0  0  0  0  0  0  0  0  0
  -27.5397  -31.9842   22.4609 O   0  0  0  0  0  0  0  0  0  0  0  0
  -23.0596  -32.8246   23.7811 O   0  0  0  0  0  0  0  0  0  0  0  0
  -21.4023  -21.7473   27.4418 O   0  0  0  0  0  0  0  0  0  0  0  0
  -26.3632  -13.6250   19.6889 O   0  0  0  0  0  0  0  0  0  0  0  0
  -20.8927  -26.8376   21.3703 O   0  0  0  0  0  0  0  0  0  1  0  0
  -31.5817  -11.8828   19.3206 F   0  0  0  0  0  0  0  0  0  0  0  0
  -28.1738  -14.9081   18.0402 F   0  0  0  0  0  0  0  0  0  0  0  0
  1  2  1  0  0  0  0
  1  5  2  0  0  0  0
  2  6  2  0  0  0  0
  3  8  2  0  0  0  0
  3 15  1  0  0  0  0
  4  9  1  0  0  0  0
  4 15  2  0  0  0  0
  5 17  1  0  0  0  0
  6 19  1  0  0  0  0
  7 10  2  0  0  0  0
  7 18  1  0  0  0  0
  8 21  1  0  0  0  0
  9 21  2  0  0  0  0
 10 22  1  0  0  0  0
 11 12  2  0  0  0  0
 11 23  1  0  0  0  0
 12 24  1  0  0  0  0
 13 20  1  0  0  0  0
 13 22  2  0  0  0  0
 14 24  2  0  0  0  0
 14 25  1  0  0  0  0
 15 26  1  0  0  0  0
 16 26  1  0  0  0  0
 16 27  2  0  0  0  0
 16 28  1  0  0  0  0
 17 19  2  0  0  0  0
 17 33  1  0  0  0  0
 18 20  2  0  0  0  0
 18 34  1  0  0  0  0
 19 46  1  0  0  0  0
 20 35  1  0  0  0  0
 21 79  1  0  0  0  0
 22 80  1  0  0  0  0
 23 25  2  0  0  0  0
 23 79  1  0  0  0  0
 24 81  1  0  0  0  0
 25 82  1  0  0  0  0
 26 64  2  0  0  0  0
 27 65  1  0  0  0  0
 27 68  1  0  0  0  0
 28 69  1  0  0  0  0
 28 74  2  0  0  0  0
 29 47  1  0  0  0  0
 29 70  1  0  0  0  0
 29 75  2  0  0  0  0
 30 60  1  0  0  0  0
 30 66  1  0  0  0  0
 30 76  2  0  0  0  0
 31 61  1  0  0  0  0
 31 71  1  0  0  0  0
 31 77  2  0  0  0  0
 32 67  1  0  0  0  0
 32 72  1  0  0  0  0
 32 78  2  0  0  0  0
 33 36  1  0  0  0  0
 34 47  1  0  0  0  0
 35 66  1  0  0  0  0
 36 38  1  0  0  0  0
 37 43  1  0  0  0  0
 37 44  1  0  0  0  0
 38 46  1  0  0  0  0
 39 41  1  0  0  0  0
 39 48  1  0  0  0  0
 40 42  1  0  0  0  0
 40 48  1  0  0  0  0
 41 49  1  0  0  0  0
 42 49  1  0  0  0  0
 43 50  1  0  0  0  0
 44 67  1  0  0  0  0
 45 50  1  0  0  0  0
 45 67  1  0  0  0  0
 46 70  1  0  0  0  0
 47 66  1  0  0  0  0
 48 58  1  0  0  0  0
 49 62  1  0  0  0  0
 50 65  1  0  0  0  0
 51 61  1  0  0  0  0
 52 62  1  0  0  0  0
 53 62  1  0  0  0  0
 54 63  1  0  0  0  0
 55 63  1  0  0  0  0
 56 63  1  0  0  0  0
 57 73  1  0  0  0  0
 58 80  1  0  0  0  0
 59 62  1  0  0  0  0
 59 72  1  0  0  0  0
 60 63  1  0  0  0  0
 60 71  1  0  0  0  0
 61 73  1  0  0  0  0
 64 65  1  0  0  0  0
M  CHG  1  73   1
M  ISO  4  32 100  58 101  72 100  80 101
M  END
> <Batch ID>
0079

> <Smiles>
CNC(C)C(=O)NC(C(=O)N1Cc2cc([101O:1][101CH2:1]C3CCC(C(C)(C)C[100NH:0][100C:0](=O)N4CCCC(n5nc(-c6ccc(Oc7ccc(F)cc7F)cc6)c(C(N)=O)c5N)C4)CC3)ccc2CC1C(=O)NC1CCCc2ccccc21)C(C)(C)C

> <Shape>
0.249

> <Color>
0.064

> <Negative vol penalty>
0.000

$$$$

  -OEChem-04052318413D

 83 91  0     1  0  0  0  0  0999 V2000
  -18.0528  -26.9953   26.3591 C   0  0  0  0  0  0  0  0  0  0  0  0
  -18.9066  -25.9105   26.5315 C   0  0  0  0  0  0  0  0  0  0  0  0
  -23.5667   -9.6201   21.7018 C   0  0  0  0  0  0  0  0  0  0  0  0
  -23.5992  -11.4141   23.3196 C   0  0  0  0  0  0  0  0  0  0  0  0
  -18.0057  -27.6557   25.1320 C   0  0  0  0  0  0  0  0  0  0  0  0
  -19.7129  -25.4847   25.4765 C   0  0  0  0  0  0  0  0  0  0  0  0
  -26.1236  -22.5646   24.1757 C   0  0  0  0  0  0  0  0  0  0  0  0
  -22.9593   -8.7852   22.6397 C   0  0  0  0  0  0  0  0  0  0  0  0
  -22.9918  -10.5793   24.2576 C   0  0  0  0  0  0  0  0  0  0  0  0
  -26.7018  -21.4972   23.4900 C   0  0  0  0  0  0  0  0  0  0  0  0
  -19.8839   -9.4325   24.9261 C   0  0  0  0  0  0  0  0  0  0  0  0
  -18.8269   -9.9569   25.6698 C   0  0  0  0  0  0  0  0  0  0  0  0
  -26.5942  -22.7638   21.4398 C   0  0  0  0  0  0  0  0  0  0  0  0
  -20.0621   -9.5569   27.7073 C   0  0  0  0  0  0  0  0  0  0  0  0
  -23.8867  -10.9345   22.0417 C   0  0  0  0  0  0  0  0  0  0  0  0
  -23.8752  -12.6437   20.1480 C   0  0  0  0  0  0  0  0  0  0  0  0
  -18.8189  -27.2438   24.0645 C   0  0  0  0  0  0  0  0  0  0  0  0
  -25.7657  -23.7374   23.4954 C   0  0  0  0  0  0  0  0  0  0  0  0
  -19.6756  -26.1393   24.2336 C   0  0  0  0  0  0  0  0  0  0  0  0
  -26.0140  -23.8456   22.1196 C   0  0  0  0  0  0  0  0  0  0  0  0
  -22.6718   -9.2648   23.9176 C   0  0  0  0  0  0  0  0  0  0  0  0
  -26.9345  -21.5956   22.1213 C   0  0  0  0  0  0  0  0  0  0  0  0
  -21.0301   -8.9702   25.5729 C   0  0  0  0  0  0  0  0  0  0  0  0
  -18.9160  -10.0192   27.0605 C   0  0  0  0  0  0  0  0  0  0  0  0
  -21.1192   -9.0324   26.9635 C   0  0  0  0  0  0  0  0  0  0  0  0
  -24.5146  -11.7972   21.0735 C   0  0  0  0  0  0  0  0  0  0  0  0
  -24.9040  -13.2434   19.4635 C   0  0  0  0  0  0  0  0  0  0  0  0
  -30.3954  -18.3939   18.9149 C   0  0  0  0  0  0  0  0  0  0  0  0
  -28.7380  -18.2265   20.1729 C   0  0  0  0  0  0  0  0  0  0  0  0
  -22.4765  -12.8678   19.9268 C   0  0  0  0  0  0  0  0  0  0  0  0
  -23.0369  -25.2784   22.9636 C   0  0  0  0  0  0  0  0  0  0  0  0
  -25.0010  -27.5045   21.6563 C   0  0  0  0  0  0  0  0  0  0  0  0
  -28.0027  -28.2225   20.1998 C   0  0  0  0  0  0  0  0  0  0  0  0
  -30.6161  -14.3743   20.8577 C   0  0  0  0  0  0  0  0  0  0  0  0
  -18.6985  -27.9592   22.7422 C   0  0  0  0  0  0  0  0  0  0  0  0
  -25.1674  -24.8900   24.2544 C   0  0  0  0  0  0  0  0  0  0  0  0
  -25.6668  -25.0907   21.3466 C   0  0  0  0  0  0  0  0  0  0  0  0
  -19.8590  -27.6798   21.7906 C   0  0  0  0  0  0  0  0  0  0  0  0
  -29.4223  -12.4913   18.0817 C   0  0  0  0  0  0  0  0  0  0  0  0
  -20.1616  -26.1855   21.7422 C   0  0  0  0  0  0  0  0  0  0  0  0
  -27.9715  -12.1763   18.4502 C   0  0  0  0  0  0  0  0  0  0  0  0
  -30.3343  -12.4637   19.3063 C   0  0  0  0  0  0  0  0  0  0  0  0
  -28.4447  -13.0042   20.7931 C   0  0  0  0  0  0  0  0  0  0  0  0
  -20.5837  -25.6631   23.1207 C   0  0  1  0  0  0  0  0  0  0  0  0
  -24.3707  -25.8409   23.3664 C   0  0  1  0  0  0  0  0  0  0  0  0
  -27.4770  -13.0751   19.5994 C   0  0  2  0  0  0  0  0  0  0  0  0
  -31.1906  -18.6271   17.7037 C   0  0  0  0  0  0  0  0  0  0  0  0
  -29.3046  -30.1227   19.2040 C   0  0  0  0  0  0  0  0  0  0  0  0
  -26.9527  -16.8136   21.3957 C   0  0  0  0  0  0  0  0  0  0  0  0
  -26.2822  -18.5361   19.7340 C   0  0  0  0  0  0  0  0  0  0  0  0
  -23.2878  -27.3543   19.1359 C   0  0  0  0  0  0  0  0  0  0  0  0
  -25.1342  -28.5043   17.8963 C   0  0  0  0  0  0  0  0  0  0  0  0
  -23.9895  -29.6655   19.7841 C   0  0  0  0  0  0  0  0  0  0  0  0
  -30.1580  -27.9518   22.2099 C   0  0  0  0  0  0  0  0  0  0  0  0
  -30.0173  -17.5962   22.2536 C   0  0  0  0  0  0  0  0  0  0  0  0
  -30.7424  -16.2683   22.4564 C   0  0  0  0  0  0  0  0  0  0  0  0
  -27.2407  -19.2434   21.9494 C   0  0  0  0  0  0  0  0  0  1  0  0
  -25.5679  -27.7536   20.2795 C   0  0  1  0  0  0  0  0  0  0  0  0
  -29.0131  -29.3240   20.4649 C   0  0  2  0  0  0  0  0  0  0  0  0
  -27.3369  -18.1944   20.8116 C   0  0  0  0  0  0  0  0  0  0  0  0
  -24.4997  -28.2951   19.2879 C   0  0  0  0  0  0  0  0  0  0  0  0
  -25.8464  -11.8515   20.9873 N   0  0  0  0  0  0  0  0  0  0  0  0
  -29.0348  -18.5100   18.9259 N   0  0  0  0  0  0  0  0  0  0  0  0
  -30.9590  -18.0563   20.0767 N   0  0  0  0  0  0  0  0  0  0  0  0
  -26.0522  -12.7391   19.9995 N   0  0  0  0  0  0  0  0  0  0  0  0
  -29.8774  -17.9554   20.8642 N   0  0  0  0  0  0  0  0  0  0  0  0
  -25.0781  -26.1879   22.1322 N   0  0  0  0  0  0  0  0  0  0  0  0
  -29.8101  -13.3379   20.3584 N   0  0  0  0  0  0  0  0  0  0  0  0
  -24.9293  -14.1476   18.4614 N   0  0  0  0  0  0  0  0  0  0  0  0
  -21.5545  -12.1696   20.7185 N   0  0  0  0  0  0  0  0  0  0  0  0
  -21.9575  -26.0233   23.3988 N   0  0  0  0  0  0  0  0  0  0  0  0
  -26.7143  -28.6369   20.4638 N   0  0  0  0  0  0  0  0  0  0  0  0
  -30.0404  -15.1599   21.8487 N   0  0  0  0  0  0  0  0  0  0  0  0
  -30.2933  -28.7442   20.9606 N   0  3  0  0  0  0  0  0  0  0  0  0
  -22.0564  -13.6515   19.0420 O   0  0  0  0  0  0  0  0  0  0  0  0
  -22.9906  -24.2458   22.3054 O   0  0  0  0  0  0  0  0  0  0  0  0
  -24.5144  -28.4448   22.2892 O   0  0  0  0  0  0  0  0  0  0  0  0
  -28.3238  -27.1073   19.7953 O   0  0  0  0  0  0  0  0  0  0  0  0
  -31.7618  -14.5872   20.4467 O   0  0  0  0  0  0  0  0  0  0  0  0
  -22.0790   -8.4505   24.8330 O   0  0  0  0  0  0  0  0  0  0  0  0
  -27.4982  -20.5549   21.4495 O   0  0  0  0  0  0  0  0  0  1  0  0
  -17.9015  -10.5242   27.7745 F   0  0  0  0  0  0  0  0  0  0  0  0
  -22.2182   -8.5909   27.5905 F   0  0  0  0  0  0  0  0  0  0  0  0
  1  2  1  0  0  0  0
  1  5  2  0  0  0  0
  2  6  2  0  0  0  0
  3  8  2  0  0  0  0
  3 15  1  0  0  0  0
  4  9  1  0  0  0  0
  4 15  2  0  0  0  0
  5 17  1  0  0  0  0
  6 19  1  0  0  0  0
  7 10  2  0  0  0  0
  7 18  1  0  0  0  0
  8 21  1  0  0  0  0
  9 21  2  0  0  0  0
 10 22  1  0  0  0  0
 11 12  2  0  0  0  0
 11 23  1  0  0  0  0
 12 24  1  0  0  0  0
 13 20  1  0  0  0  0
 13 22  2  0  0  0  0
 14 24  2  0  0  0  0
 14 25  1  0  0  0  0
 15 26  1  0  0  0  0
 16 26  1  0  0  0  0
 16 27  2  0  0  0  0
 16 30  1  0  0  0  0
 17 19  2  0  0  0  0
 17 35  1  0  0  0  0
 18 20  2  0  0  0  0
 18 36  1  0  0  0  0
 19 44  1  0  0  0  0
 20 37  1  0  0  0  0
 21 80  1  0  0  0  0
 22 81  1  0  0  0  0
 23 25  2  0  0  0  0
 23 80  1  0  0  0  0
 24 82  1  0  0  0  0
 25 83  1  0  0  0  0
 26 62  2  0  0  0  0
 27 65  1  0  0  0  0
 27 69  1  0  0  0  0
 28 47  1  0  0  0  0
 28 63  1  0  0  0  0
 28 64  2  0  0  0  0
 29 60  1  0  0  0  0
 29 63  2  0  0  0  0
 29 66  1  0  0  0  0
 30 70  1  0  0  0  0
 30 75  2  0  0  0  0
 31 45  1  0  0  0  0
 31 71  1  0  0  0  0
 31 76  2  0  0  0  0
 32 58  1  0  0  0  0
 32 67  1  0  0  0  0
 32 77  2  0  0  0  0
 33 59  1  0  0  0  0
 33 72  1  0  0  0  0
 33 78  2  0  0  0  0
 34 68  1  0  0  0  0
 34 73  1  0  0  0  0
 34 79  2  0  0  0  0
 35 38  1  0  0  0  0
 36 45  1  0  0  0  0
 37 67  1  0  0  0  0
 38 40  1  0  0  0  0
 39 41  1  0  0  0  0
 39 42  1  0  0  0  0
 40 44  1  0  0  0  0
 41 46  1  0  0  0  0
 42 68  1  0  0  0  0
 43 46  1  0  0  0  0
 43 68  1  0  0  0  0
 44 71  1  0  0  0  0
 45 67  1  0  0  0  0
 46 65  1  0  0  0  0
 48 59  1  0  0  0  0
 49 60  1  0  0  0  0
 50 60  1  0  0  0  0
 51 61  1  0  0  0  0
 52 61  1  0  0  0  0
 53 61  1  0  0  0  0
 54 74  1  0  0  0  0
 55 56  1  0  0  0  0
 55 66  1  0  0  0  0
 56 73  1  0  0  0  0
 57 60  1  0  0  0  0
 57 81  1  0  0  0  0
 58 61  1  0  0  0  0
 58 72  1  0  0  0  0
 59 74  1  0  0  0  0
 62 65  1  0  0  0  0
 64 66  1  0  0  0  0
M  CHG  1  74   1
M  ISO  4  34 100  57 101  73 100  81 101
M  END
> <Batch ID>
0079

> <Smiles>
CNC(C)C(=O)NC(C(=O)N1Cc2cc([101O:1][101CH2:1]C(C)(C)c3nc(C)nn3CC[100NH:0][100C:0](=O)N3CCCC(n4nc(-c5ccc(Oc6ccc(F)cc6F)cc5)c(C(N)=O)c4N)C3)ccc2CC1C(=O)NC1CCCc2ccccc21)C(C)(C)C

> <Shape>
0.244

> <Color>
0.109

> <Negative vol penalty>
0.000

$$$$

  -OEChem-04052318413D

 86 94  0     1  0  0  0  0  0999 V2000
  -28.7508  -33.7118   25.8636 C   0  0  0  0  0  0  0  0  0  0  0  0
  -28.7231  -32.4454   25.2883 C   0  0  0  0  0  0  0  0  0  0  0  0
  -25.0248  -10.2626   23.1663 C   0  0  0  0  0  0  0  0  0  0  0  0
  -23.5064  -12.1386   23.2768 C   0  0  0  0  0  0  0  0  0  0  0  0
  -27.5567  -34.3664   26.1631 C   0  0  0  0  0  0  0  0  0  0  0  0
  -27.5012  -31.8324   25.0131 C   0  0  0  0  0  0  0  0  0  0  0  0
  -27.3923  -29.6896   20.4260 C   0  0  0  0  0  0  0  0  0  0  0  0
  -24.4946   -9.7634   24.3560 C   0  0  0  0  0  0  0  0  0  0  0  0
  -22.9762  -11.6393   24.4665 C   0  0  0  0  0  0  0  0  0  0  0  0
  -28.0334  -28.4599   20.2823 C   0  0  0  0  0  0  0  0  0  0  0  0
  -21.7446   -8.0569   25.3349 C   0  0  0  0  0  0  0  0  0  0  0  0
  -21.4524   -6.6943   25.3930 C   0  0  0  0  0  0  0  0  0  0  0  0
  -25.9048  -27.3374   20.4505 C   0  0  0  0  0  0  0  0  0  0  0  0
  -22.9992   -6.4409   27.2316 C   0  0  0  0  0  0  0  0  0  0  0  0
  -28.1136  -22.9447   19.8901 C   0  0  0  0  0  0  0  0  0  0  0  0
  -24.5307  -11.4502   22.6267 C   0  0  0  0  0  0  0  0  0  0  0  0
  -24.6402  -11.6894   20.0893 C   0  0  0  0  0  0  0  0  0  0  0  0
  -26.3196  -33.7652   25.8825 C   0  0  0  0  0  0  0  0  0  0  0  0
  -26.0015  -29.7519   20.5943 C   0  0  0  0  0  0  0  0  0  0  0  0
  -26.2895  -32.4791   25.3103 C   0  0  0  0  0  0  0  0  0  0  0  0
  -25.2482  -28.5693   20.5936 C   0  0  0  0  0  0  0  0  0  0  0  0
  -23.4703  -10.4517   25.0060 C   0  0  0  0  0  0  0  0  0  0  0  0
  -27.2900  -27.2834   20.2974 C   0  0  0  0  0  0  0  0  0  0  0  0
  -22.6642   -8.6116   26.2252 C   0  0  0  0  0  0  0  0  0  0  0  0
  -22.0797   -5.8863   26.3413 C   0  0  0  0  0  0  0  0  0  0  0  0
  -23.2914   -7.8036   27.1735 C   0  0  0  0  0  0  0  0  0  0  0  0
  -25.0783  -11.9667   21.3981 C   0  0  0  0  0  0  0  0  0  0  0  0
  -29.3485  -23.5262   20.0933 C   0  0  0  0  0  0  0  0  0  0  0  0
  -28.0579  -21.9956   18.8899 C   0  0  0  0  0  0  0  0  0  0  0  0
  -25.4809  -12.4184   19.2842 C   0  0  0  0  0  0  0  0  0  0  0  0
  -30.2676  -22.2730   18.4344 C   0  0  0  0  0  0  0  0  0  0  0  0
  -23.5690  -10.8482   19.6414 C   0  0  0  0  0  0  0  0  0  0  0  0
  -24.0640  -30.7981   22.8867 C   0  0  0  0  0  0  0  0  0  0  0  0
  -21.7587  -30.1312   20.7042 C   0  0  0  0  0  0  0  0  0  0  0  0
  -20.8006  -28.3529   17.9534 C   0  0  0  0  0  0  0  0  0  0  0  0
  -28.7214  -17.3702   20.1954 C   0  0  0  0  0  0  0  0  0  0  0  0
  -25.0554  -34.4919   26.2676 C   0  0  0  0  0  0  0  0  0  0  0  0
  -25.3221  -31.0878   20.7212 C   0  0  0  0  0  0  0  0  0  0  0  0
  -23.7503  -28.5831   20.7508 C   0  0  0  0  0  0  0  0  0  0  0  0
  -23.8027  -33.9304   25.6000 C   0  0  0  0  0  0  0  0  0  0  0  0
  -29.9231  -14.1897   19.1386 C   0  0  0  0  0  0  0  0  0  0  0  0
  -23.7816  -32.4084   25.6990 C   0  0  0  0  0  0  0  0  0  0  0  0
  -28.7782  -13.2343   19.4798 C   0  0  0  0  0  0  0  0  0  0  0  0
  -30.0693  -15.2918   20.1854 C   0  0  0  0  0  0  0  0  0  0  0  0
  -27.6910  -15.0970   20.8015 C   0  0  0  0  0  0  0  0  0  0  0  0
  -24.9840  -31.7917   24.9741 C   0  0  1  0  0  0  0  0  0  0  0  0
  -23.9594  -31.0028   21.4018 C   0  0  1  0  0  0  0  0  0  0  0  0
  -27.4685  -14.0008   19.7455 C   0  0  2  0  0  0  0  0  0  0  0  0
  -32.0623  -20.5618   18.0640 C   0  0  0  0  0  0  0  0  0  0  0  0
  -26.2748  -21.6769   17.1769 C   0  0  0  0  0  0  0  0  0  0  0  0
  -18.8448  -27.9942   16.4226 C   0  0  0  0  0  0  0  0  0  0  0  0
  -25.4949  -19.0527   18.4487 C   0  0  0  0  0  0  0  0  0  0  0  0
  -20.3951  -28.4398   22.8467 C   0  0  0  0  0  0  0  0  0  0  0  0
  -19.0277  -27.3771   21.0386 C   0  0  0  0  0  0  0  0  0  0  0  0
  -18.8387  -29.8275   21.4659 C   0  0  0  0  0  0  0  0  0  0  0  0
  -22.3238  -29.2947   15.5972 C   0  0  0  0  0  0  0  0  0  0  0  0
  -29.5090  -24.5755   21.1664 C   0  0  0  0  0  0  0  0  0  0  0  0
  -31.4643  -21.8969   17.6280 C   0  0  0  0  0  0  0  0  0  0  0  0
  -27.2396  -19.3606   20.2370 C   0  0  0  0  0  0  0  0  0  0  0  0
  -29.2518  -25.9843   20.6428 C   0  0  0  0  0  0  0  0  0  1  0  0
  -26.7650  -21.3104   18.5981 C   0  0  1  0  0  0  0  0  0  0  0  0
  -20.9257  -28.9185   20.3657 C   0  0  1  0  0  0  0  0  0  0  0  0
  -20.1244  -28.7800   16.6632 C   0  0  2  0  0  0  0  0  0  0  0  0
  -26.8157  -19.7514   18.8056 C   0  0  2  0  0  0  0  0  0  0  0  0
  -19.8253  -28.6400   21.4282 C   0  0  0  0  0  0  0  0  0  0  0  0
  -26.1168  -12.8061   21.4273 N   0  0  0  0  0  0  0  0  0  0  0  0
  -30.4508  -23.2130   19.3811 N   0  0  0  0  0  0  0  0  0  0  0  0
  -29.1193  -21.6341   18.1396 N   0  0  0  0  0  0  0  0  0  0  0  0
  -26.3383  -13.0626   20.1268 N   0  0  0  0  0  0  0  0  0  0  0  0
  -23.1328  -29.9136   20.8778 N   0  0  0  0  0  0  0  0  0  0  0  0
  -28.7927  -15.9808   20.3893 N   0  0  0  0  0  0  0  0  0  0  0  0
  -25.5631  -12.5647   17.9447 N   0  0  0  0  0  0  0  0  0  0  0  0
  -22.8044  -10.1718   20.6017 N   0  0  0  0  0  0  0  0  0  0  0  0
  -24.7656  -31.7910   23.5434 N   0  0  0  0  0  0  0  0  0  0  0  0
  -20.4128  -29.1390   19.0178 N   0  0  0  0  0  0  0  0  0  0  0  0
  -27.4728  -17.9433   20.4034 N   0  0  0  0  0  0  0  0  0  0  0  0
  -21.0352  -28.5614   15.5040 N   0  3  0  0  0  0  0  0  0  0  0  0
  -23.3084  -10.6879   18.4249 O   0  0  0  0  0  0  0  0  0  0  0  0
  -23.5452  -29.8131   23.3988 O   0  0  0  0  0  0  0  0  0  0  0  0
  -21.2114  -31.2322   20.8038 O   0  0  0  0  0  0  0  0  0  0  0  0
  -21.5909  -27.4134   18.0120 O   0  0  0  0  0  0  0  0  0  0  0  0
  -29.6969  -18.0488   19.8565 O   0  0  0  0  0  0  0  0  0  0  0  0
  -22.9526   -9.9648   26.1668 O   0  0  0  0  0  0  0  0  0  0  0  0
  -27.9132  -26.0818   20.1580 O   0  0  0  0  0  0  0  0  0  1  0  0
  -21.7979   -4.5780   26.3979 F   0  0  0  0  0  0  0  0  0  0  0  0
  -24.1748   -8.3310   28.0322 F   0  0  0  0  0  0  0  0  0  0  0  0
  1  2  1  0  0  0  0
  1  5  2  0  0  0  0
  2  6  2  0  0  0  0
  3  8  2  0  0  0  0
  3 16  1  0  0  0  0
  4  9  1  0  0  0  0
  4 16  2  0  0  0  0
  5 18  1  0  0  0  0
  6 20  1  0  0  0  0
  7 10  2  0  0  0  0
  7 19  1  0  0  0  0
  8 22  1  0  0  0  0
  9 22  2  0  0  0  0
 10 23  1  0  0  0  0
 11 12  2  0  0  0  0
 11 24  1  0  0  0  0
 12 25  1  0  0  0  0
 13 21  1  0  0  0  0
 13 23  2  0  0  0  0
 14 25  2  0  0  0  0
 14 26  1  0  0  0  0
 15 28  1  0  0  0  0
 15 29  2  0  0  0  0
 16 27  1  0  0  0  0
 17 27  1  0  0  0  0
 17 30  2  0  0  0  0
 17 32  1  0  0  0  0
 18 20  2  0  0  0  0
 18 37  1  0  0  0  0
 19 21  2  0  0  0  0
 19 38  1  0  0  0  0
 20 46  1  0  0  0  0
 21 39  1  0  0  0  0
 22 83  1  0  0  0  0
 23 84  1  0  0  0  0
 24 26  2  0  0  0  0
 24 83  1  0  0  0  0
 25 85  1  0  0  0  0
 26 86  1  0  0  0  0
 27 66  2  0  0  0  0
 28 57  1  0  0  0  0
 28 67  2  0  0  0  0
 29 61  1  0  0  0  0
 29 68  1  0  0  0  0
 30 69  1  0  0  0  0
 30 72  1  0  0  0  0
 31 58  1  0  0  0  0
 31 67  1  0  0  0  0
 31 68  2  0  0  0  0
 32 73  1  0  0  0  0
 32 78  2  0  0  0  0
 33 47  1  0  0  0  0
 33 74  1  0  0  0  0
 33 79  2  0  0  0  0
 34 62  1  0  0  0  0
 34 70  1  0  0  0  0
 34 80  2  0  0  0  0
 35 63  1  0  0  0  0
 35 75  1  0  0  0  0
 35 81  2  0  0  0  0
 36 71  1  0  0  0  0
 36 76  1  0  0  0  0
 36 82  2  0  0  0  0
 37 40  1  0  0  0  0
 38 47  1  0  0  0  0
 39 70  1  0  0  0  0
 40 42  1  0  0  0  0
 41 43  1  0  0  0  0
 41 44  1  0  0  0  0
 42 46  1  0  0  0  0
 43 48  1  0  0  0  0
 44 71  1  0  0  0  0
 45 48  1  0  0  0  0
 45 71  1  0  0  0  0
 46 74  1  0  0  0  0
 47 70  1  0  0  0  0
 48 69  1  0  0  0  0
 49 58  1  0  0  0  0
 50 61  1  0  0  0  0
 51 63  1  0  0  0  0
 52 64  1  0  0  0  0
 53 65  1  0  0  0  0
 54 65  1  0  0  0  0
 55 65  1  0  0  0  0
 56 77  1  0  0  0  0
 57 60  1  0  0  0  0
 59 64  1  0  0  0  0
 59 76  1  0  0  0  0
 60 84  1  0  0  0  0
 61 64  1  0  0  0  0
 62 65  1  0  0  0  0
 62 75  1  0  0  0  0
 63 77  1  0  0  0  0
 66 69  1  0  0  0  0
M  CHG  1  77   1
M  ISO  4  36 100  60 101  76 100  84 101
M  END
> <Batch ID>
0079

> <Smiles>
CCc1nc(C[101CH2:1][101O:1]c2ccc3c(c2)CN(C(=O)C(NC(=O)C(C)NC)C(C)(C)C)C(C(=O)NC2CCCc4ccccc42)C3)cc(C(C)C(C)C[100NH:0][100C:0](=O)N2CCCC(n3nc(-c4ccc(Oc5ccc(F)cc5F)cc4)c(C(N)=O)c3N)C2)n1

> <Shape>
0.289

> <Color>
0.074

> <Negative vol penalty>
0.000

$$$$

  -OEChem-04052318413D

 86 94  0     1  0  0  0  0  0999 V2000
  -27.6984  -37.0210   19.0065 C   0  0  0  0  0  0  0  0  0  0  0  0
  -27.2568  -35.9417   18.2479 C   0  0  0  0  0  0  0  0  0  0  0  0
  -27.0595  -12.3180   21.9647 C   0  0  0  0  0  0  0  0  0  0  0  0
  -26.3149  -14.2749   20.7593 C   0  0  0  0  0  0  0  0  0  0  0  0
  -28.0901  -36.8272   20.3304 C   0  0  0  0  0  0  0  0  0  0  0  0
  -27.2078  -34.6676   18.8125 C   0  0  0  0  0  0  0  0  0  0  0  0
  -23.4178  -28.5937   18.5658 C   0  0  0  0  0  0  0  0  0  0  0  0
  -25.7394  -11.8801   22.0694 C   0  0  0  0  0  0  0  0  0  0  0  0
  -24.9947  -13.8370   20.8639 C   0  0  0  0  0  0  0  0  0  0  0  0
  -23.5929  -27.2211   18.3956 C   0  0  0  0  0  0  0  0  0  0  0  0
  -23.4585  -10.3503   20.0970 C   0  0  0  0  0  0  0  0  0  0  0  0
  -23.1976   -9.0073   19.8254 C   0  0  0  0  0  0  0  0  0  0  0  0
  -24.2194  -27.0193   20.7164 C   0  0  0  0  0  0  0  0  0  0  0  0
  -22.3386   -8.7211   22.0653 C   0  0  0  0  0  0  0  0  0  0  0  0
  -28.3106  -20.9391   18.7920 C   0  0  0  0  0  0  0  0  0  0  0  0
  -28.9662  -22.5206   17.4042 C   0  0  0  0  0  0  0  0  0  0  0  0
  -27.3473  -13.5154   21.3097 C   0  0  0  0  0  0  0  0  0  0  0  0
  -29.6233  -13.6800   20.1693 C   0  0  0  0  0  0  0  0  0  0  0  0
  -28.0367  -35.5519   20.9146 C   0  0  0  0  0  0  0  0  0  0  0  0
  -23.6531  -29.1922   19.8120 C   0  0  0  0  0  0  0  0  0  0  0  0
  -27.6004  -34.4564   20.1452 C   0  0  0  0  0  0  0  0  0  0  0  0
  -24.0440  -28.3993   20.9004 C   0  0  0  0  0  0  0  0  0  0  0  0
  -24.7069  -12.6395   21.5190 C   0  0  0  0  0  0  0  0  0  0  0  0
  -23.9966  -26.4341   19.4702 C   0  0  0  0  0  0  0  0  0  0  0  0
  -23.1596  -10.8787   21.3529 C   0  0  0  0  0  0  0  0  0  0  0  0
  -22.6376   -8.1927   20.8095 C   0  0  0  0  0  0  0  0  0  0  0  0
  -22.5997  -10.0641   22.3370 C   0  0  0  0  0  0  0  0  0  0  0  0
  -28.7108  -13.9686   21.2017 C   0  0  0  0  0  0  0  0  0  0  0  0
  -29.5599  -21.4102   19.1204 C   0  0  0  0  0  0  0  0  0  0  0  0
  -30.7716  -14.3410   20.5312 C   0  0  0  0  0  0  0  0  0  0  0  0
  -29.4485  -12.8856   18.9885 C   0  0  0  0  0  0  0  0  0  0  0  0
  -25.6695  -31.3970   20.8966 C   0  0  0  0  0  0  0  0  0  0  0  0
  -23.9310  -31.0885   23.6178 C   0  0  0  0  0  0  0  0  0  0  0  0
  -21.8809  -29.1546   25.5425 C   0  0  0  0  0  0  0  0  0  0  0  0
  -31.8064  -19.1349   23.9661 C   0  0  0  0  0  0  0  0  0  0  0  0
  -28.5153  -35.3833   22.3349 C   0  0  0  0  0  0  0  0  0  0  0  0
  -23.4339  -30.6700   19.9859 C   0  0  0  0  0  0  0  0  0  0  0  0
  -24.2899  -28.9900   22.2639 C   0  0  0  0  0  0  0  0  0  0  0  0
  -28.0785  -34.0670   22.9727 C   0  0  0  0  0  0  0  0  0  0  0  0
  -33.1560  -15.8673   24.3881 C   0  0  0  0  0  0  0  0  0  0  0  0
  -28.3258  -32.9033   22.0180 C   0  0  0  0  0  0  0  0  0  0  0  0
  -32.2521  -14.9841   23.5262 C   0  0  0  0  0  0  0  0  0  0  0  0
  -32.3702  -16.9879   25.0655 C   0  0  0  0  0  0  0  0  0  0  0  0
  -30.6622  -16.9373   23.2896 C   0  0  0  0  0  0  0  0  0  0  0  0
  -27.5096  -33.0635   20.7297 C   0  0  1  0  0  0  0  0  0  0  0  0
  -24.1992  -31.2523   21.1702 C   0  0  1  0  0  0  0  0  0  0  0  0
  -31.4190  -15.8265   22.5415 C   0  0  2  0  0  0  0  0  0  0  0  0
  -31.9386  -20.9620   19.8271 C   0  0  0  0  0  0  0  0  0  0  0  0
  -20.6526  -29.1583   27.7307 C   0  0  0  0  0  0  0  0  0  0  0  0
  -26.5564  -30.5868   25.0896 C   0  0  0  0  0  0  0  0  0  0  0  0
  -25.2273  -29.6768   27.0063 C   0  0  0  0  0  0  0  0  0  0  0  0
  -24.9405  -32.0548   26.3096 C   0  0  0  0  0  0  0  0  0  0  0  0
  -30.4481  -23.2473   21.5307 C   0  0  0  0  0  0  0  0  0  0  0  0
  -28.7423  -21.5186   22.0979 C   0  0  0  0  0  0  0  0  0  0  0  0
  -19.2572  -28.8717   24.2028 C   0  0  0  0  0  0  0  0  0  0  0  0
  -25.8588  -22.8351   16.8145 C   0  0  0  0  0  0  0  0  0  0  0  0
  -25.3817  -23.3644   18.1679 C   0  0  0  0  0  0  0  0  0  0  0  0
  -26.6498  -21.5269   16.9269 C   0  0  0  0  0  0  0  0  0  0  0  0
  -31.1454  -21.2022   22.7625 C   0  0  0  0  0  0  0  0  0  0  0  0
  -24.5709  -24.6441   18.0135 C   0  0  0  0  0  0  0  0  0  1  0  0
  -30.4297  -20.9876   20.2286 C   0  0  1  0  0  0  0  0  0  0  0  0
  -24.0132  -30.2139   24.8456 C   0  0  1  0  0  0  0  0  0  0  0  0
  -20.5703  -29.4639   26.2433 C   0  0  2  0  0  0  0  0  0  0  0  0
  -25.1817  -30.6219   25.7867 C   0  0  0  0  0  0  0  0  0  0  0  0
  -30.2059  -21.7253   21.6377 C   0  0  0  0  0  0  0  0  0  0  0  0
  -29.9621  -22.3947   18.2529 N   0  0  0  0  0  0  0  0  0  0  0  0
  -29.2343  -14.7517   22.1486 N   0  0  0  0  0  0  0  0  0  0  0  0
  -27.9431  -21.6602   17.6910 N   0  0  0  0  0  0  0  0  0  0  0  0
  -30.4882  -14.9608   21.7126 N   0  0  0  0  0  0  0  0  0  0  0  0
  -24.0682  -30.4407   22.3820 N   0  0  0  0  0  0  0  0  0  0  0  0
  -31.6033  -17.7494   24.0767 N   0  0  0  0  0  0  0  0  0  0  0  0
  -31.9859  -14.4466   19.9511 N   0  0  0  0  0  0  0  0  0  0  0  0
  -28.2048  -12.2772   18.7707 N   0  0  0  0  0  0  0  0  0  0  0  0
  -26.1277  -32.6992   20.9583 N   0  0  0  0  0  0  0  0  0  0  0  0
  -22.6964  -30.2642   25.4715 N   0  0  0  0  0  0  0  0  0  0  0  0
  -31.0439  -19.7794   22.9997 N   0  0  0  0  0  0  0  0  0  0  0  0
  -19.4657  -28.6531   25.6573 N   0  3  0  0  0  0  0  0  0  0  0  0
  -30.3730  -12.7068   18.1598 O   0  0  0  0  0  0  0  0  0  0  0  0
  -26.3390  -30.4009   20.6494 O   0  0  0  0  0  0  0  0  0  0  0  0
  -23.7446  -32.3006   23.7502 O   0  0  0  0  0  0  0  0  0  0  0  0
  -22.1555  -28.0393   25.1053 O   0  0  0  0  0  0  0  0  0  0  0  0
  -32.6119  -19.7510   24.6723 O   0  0  0  0  0  0  0  0  0  0  0  0
  -23.4186  -12.2124   21.6208 O   0  0  0  0  0  0  0  0  0  0  0  0
  -24.1688  -25.0942   19.3066 O   0  0  0  0  0  0  0  0  0  1  0  0
  -22.3856   -6.9034   20.5480 F   0  0  0  0  0  0  0  0  0  0  0  0
  -22.3093  -10.5664   23.5450 F   0  0  0  0  0  0  0  0  0  0  0  0
  1  2  1  0  0  0  0
  1  5  2  0  0  0  0
  2  6  2  0  0  0  0
  3  8  2  0  0  0  0
  3 17  1  0  0  0  0
  4  9  1  0  0  0  0
  4 17  2  0  0  0  0
  5 19  1  0  0  0  0
  6 21  1  0  0  0  0
  7 10  2  0  0  0  0
  7 20  1  0  0  0  0
  8 23  1  0  0  0  0
  9 23  2  0  0  0  0
 10 24  1  0  0  0  0
 11 12  2  0  0  0  0
 11 25  1  0  0  0  0
 12 26  1  0  0  0  0
 13 22  1  0  0  0  0
 13 24  2  0  0  0  0
 14 26  2  0  0  0  0
 14 27  1  0  0  0  0
 15 29  2  0  0  0  0
 15 68  1  0  0  0  0
 16 66  2  0  0  0  0
 16 68  1  0  0  0  0
 17 28  1  0  0  0  0
 18 28  1  0  0  0  0
 18 30  2  0  0  0  0
 18 31  1  0  0  0  0
 19 21  2  0  0  0  0
 19 36  1  0  0  0  0
 20 22  2  0  0  0  0
 20 37  1  0  0  0  0
 21 45  1  0  0  0  0
 22 38  1  0  0  0  0
 23 83  1  0  0  0  0
 24 84  1  0  0  0  0
 25 27  2  0  0  0  0
 25 83  1  0  0  0  0
 26 85  1  0  0  0  0
 27 86  1  0  0  0  0
 28 67  2  0  0  0  0
 29 61  1  0  0  0  0
 29 66  1  0  0  0  0
 30 69  1  0  0  0  0
 30 72  1  0  0  0  0
 31 73  1  0  0  0  0
 31 78  2  0  0  0  0
 32 46  1  0  0  0  0
 32 74  1  0  0  0  0
 32 79  2  0  0  0  0
 33 62  1  0  0  0  0
 33 70  1  0  0  0  0
 33 80  2  0  0  0  0
 34 63  1  0  0  0  0
 34 75  1  0  0  0  0
 34 81  2  0  0  0  0
 35 71  1  0  0  0  0
 35 76  1  0  0  0  0
 35 82  2  0  0  0  0
 36 39  1  0  0  0  0
 37 46  1  0  0  0  0
 38 70  1  0  0  0  0
 39 41  1  0  0  0  0
 40 42  1  0  0  0  0
 40 43  1  0  0  0  0
 41 45  1  0  0  0  0
 42 47  1  0  0  0  0
 43 71  1  0  0  0  0
 44 47  1  0  0  0  0
 44 71  1  0  0  0  0
 45 74  1  0  0  0  0
 46 70  1  0  0  0  0
 47 69  1  0  0  0  0
 48 61  1  0  0  0  0
 49 63  1  0  0  0  0
 50 64  1  0  0  0  0
 51 64  1  0  0  0  0
 52 64  1  0  0  0  0
 53 65  1  0  0  0  0
 54 65  1  0  0  0  0
 55 77  1  0  0  0  0
 56 57  1  0  0  0  0
 56 58  1  0  0  0  0
 57 60  1  0  0  0  0
 58 68  1  0  0  0  0
 59 65  1  0  0  0  0
 59 76  1  0  0  0  0
 60 84  1  0  0  0  0
 61 65  1  0  0  0  0
 62 64  1  0  0  0  0
 62 75  1  0  0  0  0
 63 77  1  0  0  0  0
 67 69  1  0  0  0  0
M  CHG  1  77   1
M  ISO  4  35 100  60 101  76 100  84 101
M  END
> <Batch ID>
0079

> <Smiles>
CNC(C)C(=O)NC(C(=O)N1Cc2cc([101O:1][101CH2:1]CCCn3cnc(C(C)C(C)(C)C[100NH:0][100C:0](=O)N4CCCC(n5nc(-c6ccc(Oc7ccc(F)cc7F)cc6)c(C(N)=O)c5N)C4)c3)ccc2CC1C(=O)NC1CCCc2ccccc21)C(C)(C)C

> <Shape>
0.256

> <Color>
0.069

> <Negative vol penalty>
0.000

$$$$

  -OEChem-04052318413D

 81 89  0     1  0  0  0  0  0999 V2000
  -36.8833  -26.6010   21.8315 C   0  0  0  0  0  0  0  0  0  0  0  0
  -36.3034  -25.4523   21.3026 C   0  0  0  0  0  0  0  0  0  0  0  0
  -23.0733   -9.8550   20.1923 C   0  0  0  0  0  0  0  0  0  0  0  0
  -23.8111  -10.0953   22.4803 C   0  0  0  0  0  0  0  0  0  0  0  0
  -36.0793  -27.6748   22.2114 C   0  0  0  0  0  0  0  0  0  0  0  0
  -34.9190  -25.3764   21.1544 C   0  0  0  0  0  0  0  0  0  0  0  0
  -31.8451  -22.5252   16.6903 C   0  0  0  0  0  0  0  0  0  0  0  0
  -22.3156   -8.7411   20.5535 C   0  0  0  0  0  0  0  0  0  0  0  0
  -23.0533   -8.9814   22.8416 C   0  0  0  0  0  0  0  0  0  0  0  0
  -31.2286  -21.2764   16.6257 C   0  0  0  0  0  0  0  0  0  0  0  0
  -20.4707   -5.6175   20.8058 C   0  0  0  0  0  0  0  0  0  0  0  0
  -20.5328   -4.4940   19.9815 C   0  0  0  0  0  0  0  0  0  0  0  0
  -29.1148  -22.2980   17.1801 C   0  0  0  0  0  0  0  0  0  0  0  0
  -22.9123   -4.3400   20.3706 C   0  0  0  0  0  0  0  0  0  0  0  0
  -27.1987  -18.6138   19.0807 C   0  0  0  0  0  0  0  0  0  0  0  0
  -23.8211  -10.5321   21.1556 C   0  0  0  0  0  0  0  0  0  0  0  0
  -24.1893  -13.0277   20.7757 C   0  0  0  0  0  0  0  0  0  0  0  0
  -34.6851  -27.6158   22.0588 C   0  0  0  0  0  0  0  0  0  0  0  0
  -31.1020  -23.6701   17.0116 C   0  0  0  0  0  0  0  0  0  0  0  0
  -34.0954  -26.4500   21.5339 C   0  0  0  0  0  0  0  0  0  0  0  0
  -29.7238  -23.5605   17.2457 C   0  0  0  0  0  0  0  0  0  0  0  0
  -28.5146  -18.2489   19.0598 C   0  0  0  0  0  0  0  0  0  0  0  0
  -22.3056   -8.3042   21.8782 C   0  0  0  0  0  0  0  0  0  0  0  0
  -29.8638  -21.1622   16.8734 C   0  0  0  0  0  0  0  0  0  0  0  0
  -21.6295   -6.1024   21.4124 C   0  0  0  0  0  0  0  0  0  0  0  0
  -21.7535   -3.8553   19.7639 C   0  0  0  0  0  0  0  0  0  0  0  0
  -22.8502   -5.4636   21.1948 C   0  0  0  0  0  0  0  0  0  0  0  0
  -24.6045  -11.6826   20.7829 C   0  0  0  0  0  0  0  0  0  0  0  0
  -29.1522  -18.3823   20.2602 C   0  0  0  0  0  0  0  0  0  0  0  0
  -25.2923  -13.7252   20.3477 C   0  0  0  0  0  0  0  0  0  0  0  0
  -22.9200  -13.5958   21.1249 C   0  0  0  0  0  0  0  0  0  0  0  0
  -31.1726  -25.8019   19.3684 C   0  0  0  0  0  0  0  0  0  0  0  0
  -28.9158  -27.2847   17.5710 C   0  0  0  0  0  0  0  0  0  0  0  0
  -26.4808  -27.0343   15.1930 C   0  0  0  0  0  0  0  0  0  0  0  0
  -30.7839  -14.7095   20.4868 C   0  0  0  0  0  0  0  0  0  0  0  0
  -33.8534  -28.7833   22.5278 C   0  0  0  0  0  0  0  0  0  0  0  0
  -31.7769  -25.0138   17.0511 C   0  0  0  0  0  0  0  0  0  0  0  0
  -28.8773  -24.7621   17.5747 C   0  0  0  0  0  0  0  0  0  0  0  0
  -32.4249  -28.7686   21.9899 C   0  0  0  0  0  0  0  0  0  0  0  0
  -29.6456  -12.0984   18.3506 C   0  0  0  0  0  0  0  0  0  0  0  0
  -31.8121  -27.3798   22.1402 C   0  0  0  0  0  0  0  0  0  0  0  0
  -28.2012  -11.8644   18.7965 C   0  0  0  0  0  0  0  0  0  0  0  0
  -30.5533  -12.4355   19.5315 C   0  0  0  0  0  0  0  0  0  0  0  0
  -28.6456  -13.3247   20.8137 C   0  0  0  0  0  0  0  0  0  0  0  0
  -32.5994  -26.3393   21.3346 C   0  0  1  0  0  0  0  0  0  0  0  0
  -31.0208  -26.0377   17.8922 C   0  0  1  0  0  0  0  0  0  0  0  0
  -27.6812  -13.0365   19.6505 C   0  0  2  0  0  0  0  0  0  0  0  0
  -24.7839  -28.4106   13.9586 C   0  0  0  0  0  0  0  0  0  0  0  0
  -27.1391  -27.3146   20.0514 C   0  0  0  0  0  0  0  0  0  0  0  0
  -25.1869  -27.8029   18.5618 C   0  0  0  0  0  0  0  0  0  0  0  0
  -27.0818  -29.4192   18.7018 C   0  0  0  0  0  0  0  0  0  0  0  0
  -27.7238  -26.4303   12.5760 C   0  0  0  0  0  0  0  0  0  0  0  0
  -29.1834  -17.7442   17.8043 C   0  0  0  0  0  0  0  0  0  0  0  0
  -30.5933  -18.0249   20.4054 C   0  0  0  0  0  0  0  0  0  0  0  0
  -30.8593  -16.9770   21.4926 C   0  0  0  0  0  0  0  0  0  0  0  0
  -30.0549  -18.8072   17.1442 C   0  0  0  0  0  0  0  0  0  1  0  0
  -27.4097  -27.2273   17.4852 C   0  0  1  0  0  0  0  0  0  0  0  0
  -26.2001  -27.8565   13.9482 C   0  0  2  0  0  0  0  0  0  0  0  0
  -26.7204  -27.9179   18.6958 C   0  0  0  0  0  0  0  0  0  0  0  0
  -26.5801  -19.0670   20.1895 N   0  0  0  0  0  0  0  0  0  0  0  0
  -25.8723  -11.5322   20.3904 N   0  0  0  0  0  0  0  0  0  0  0  0
  -28.5378  -18.8349   21.3715 N   0  0  0  0  0  0  0  0  0  0  0  0
  -27.2682  -19.1646   21.3041 N   0  0  0  0  0  0  0  0  0  0  0  0
  -26.2632  -12.7919   20.1326 N   0  0  0  0  0  0  0  0  0  0  0  0
  -29.5845  -26.0529   17.6077 N   0  0  0  0  0  0  0  0  0  0  0  0
  -30.0045  -13.5560   20.2991 N   0  0  0  0  0  0  0  0  0  0  0  0
  -25.5167  -15.0398   20.1381 N   0  0  0  0  0  0  0  0  0  0  0  0
  -21.8959  -12.7360   21.5446 N   0  0  0  0  0  0  0  0  0  0  0  0
  -32.2674  -26.4315   19.9290 N   0  0  0  0  0  0  0  0  0  0  0  0
  -27.0526  -27.7960   16.1901 N   0  0  0  0  0  0  0  0  0  0  0  0
  -30.1859  -15.7266   21.2206 N   0  0  0  0  0  0  0  0  0  0  0  0
  -26.3687  -27.0204   12.7262 N   0  3  0  0  0  0  0  0  0  0  0  0
  -22.6955  -14.8278   21.0506 O   0  0  0  0  0  0  0  0  0  0  0  0
  -30.3559  -25.1019   19.9555 O   0  0  0  0  0  0  0  0  0  0  0  0
  -29.4786  -28.3821   17.5970 O   0  0  0  0  0  0  0  0  0  0  0  0
  -26.2156  -25.8370   15.2742 O   0  0  0  0  0  0  0  0  0  0  0  0
  -31.9259  -14.8263   20.0294 O   0  0  0  0  0  0  0  0  0  0  0  0
  -21.5661   -7.2174   22.2312 O   0  0  0  0  0  0  0  0  0  0  0  0
  -29.2596  -19.9445   16.8116 O   0  0  0  0  0  0  0  0  0  1  0  0
  -21.8127   -2.7754   18.9735 F   0  0  0  0  0  0  0  0  0  0  0  0
  -23.9666   -5.9240   21.7758 F   0  0  0  0  0  0  0  0  0  0  0  0
  1  2  1  0  0  0  0
  1  5  2  0  0  0  0
  2  6  2  0  0  0  0
  3  8  2  0  0  0  0
  3 16  1  0  0  0  0
  4  9  1  0  0  0  0
  4 16  2  0  0  0  0
  5 18  1  0  0  0  0
  6 20  1  0  0  0  0
  7 10  2  0  0  0  0
  7 19  1  0  0  0  0
  8 23  1  0  0  0  0
  9 23  2  0  0  0  0
 10 24  1  0  0  0  0
 11 12  2  0  0  0  0
 11 25  1  0  0  0  0
 12 26  1  0  0  0  0
 13 21  1  0  0  0  0
 13 24  2  0  0  0  0
 14 26  2  0  0  0  0
 14 27  1  0  0  0  0
 15 22  1  0  0  0  0
 15 60  2  0  0  0  0
 16 28  1  0  0  0  0
 17 28  1  0  0  0  0
 17 30  2  0  0  0  0
 17 31  1  0  0  0  0
 18 20  2  0  0  0  0
 18 36  1  0  0  0  0
 19 21  2  0  0  0  0
 19 37  1  0  0  0  0
 20 45  1  0  0  0  0
 21 38  1  0  0  0  0
 22 29  2  0  0  0  0
 22 53  1  0  0  0  0
 23 78  1  0  0  0  0
 24 79  1  0  0  0  0
 25 27  2  0  0  0  0
 25 78  1  0  0  0  0
 26 80  1  0  0  0  0
 27 81  1  0  0  0  0
 28 61  2  0  0  0  0
 29 54  1  0  0  0  0
 29 62  1  0  0  0  0
 30 64  1  0  0  0  0
 30 67  1  0  0  0  0
 31 68  1  0  0  0  0
 31 73  2  0  0  0  0
 32 46  1  0  0  0  0
 32 69  1  0  0  0  0
 32 74  2  0  0  0  0
 33 57  1  0  0  0  0
 33 65  1  0  0  0  0
 33 75  2  0  0  0  0
 34 58  1  0  0  0  0
 34 70  1  0  0  0  0
 34 76  2  0  0  0  0
 35 66  1  0  0  0  0
 35 71  1  0  0  0  0
 35 77  2  0  0  0  0
 36 39  1  0  0  0  0
 37 46  1  0  0  0  0
 38 65  1  0  0  0  0
 39 41  1  0  0  0  0
 40 42  1  0  0  0  0
 40 43  1  0  0  0  0
 41 45  1  0  0  0  0
 42 47  1  0  0  0  0
 43 66  1  0  0  0  0
 44 47  1  0  0  0  0
 44 66  1  0  0  0  0
 45 69  1  0  0  0  0
 46 65  1  0  0  0  0
 47 64  1  0  0  0  0
 48 58  1  0  0  0  0
 49 59  1  0  0  0  0
 50 59  1  0  0  0  0
 51 59  1  0  0  0  0
 52 72  1  0  0  0  0
 53 56  1  0  0  0  0
 54 55  1  0  0  0  0
 55 71  1  0  0  0  0
 56 79  1  0  0  0  0
 57 59  1  0  0  0  0
 57 70  1  0  0  0  0
 58 72  1  0  0  0  0
 60 63  1  0  0  0  0
 61 64  1  0  0  0  0
 62 63  2  0  0  0  0
M  CHG  1  72   1
M  ISO  4  35 100  56 101  71 100  79 101
M  END
> <Batch ID>
0079

> <Smiles>
CNC(C)C(=O)NC(C(=O)N1Cc2cc([101O:1][101CH2:1]Cc3cnnnc3CC[100NH:0][100C:0](=O)N3CCCC(n4nc(-c5ccc(Oc6ccc(F)cc6F)cc5)c(C(N)=O)c4N)C3)ccc2CC1C(=O)NC1CCCc2ccccc21)C(C)(C)C

> <Shape>
0.260

> <Color>
0.188

> <Negative vol penalty>
0.000

$$$$

  -OEChem-04052318413D

 85 93  0     1  0  0  0  0  0999 V2000
  -18.8223  -33.4337   24.3772 C   0  0  0  0  0  0  0  0  0  0  0  0
  -20.0888  -33.4978   23.8052 C   0  0  0  0  0  0  0  0  0  0  0  0
  -24.3685  -14.6587   19.4963 C   0  0  0  0  0  0  0  0  0  0  0  0
  -25.9112  -15.1679   21.2846 C   0  0  0  0  0  0  0  0  0  0  0  0
  -18.3436  -32.2221   24.8740 C   0  0  0  0  0  0  0  0  0  0  0  0
  -20.8779  -32.3505   23.7307 C   0  0  0  0  0  0  0  0  0  0  0  0
  -25.8052  -29.2238   19.5761 C   0  0  0  0  0  0  0  0  0  0  0  0
  -24.6042  -13.2964   19.6808 C   0  0  0  0  0  0  0  0  0  0  0  0
  -26.1468  -13.8056   21.4692 C   0  0  0  0  0  0  0  0  0  0  0  0
  -27.0788  -28.6617   19.6524 C   0  0  0  0  0  0  0  0  0  0  0  0
  -24.5260   -9.6700   19.9214 C   0  0  0  0  0  0  0  0  0  0  0  0
  -23.4225   -8.8169   19.9350 C   0  0  0  0  0  0  0  0  0  0  0  0
  -26.1164  -26.6070   20.4716 C   0  0  0  0  0  0  0  0  0  0  0  0
  -22.5220  -10.0119   21.8319 C   0  0  0  0  0  0  0  0  0  0  0  0
  -25.0221  -15.5945   20.2981 C   0  0  0  0  0  0  0  0  0  0  0  0
  -23.7936  -17.7872   20.7347 C   0  0  0  0  0  0  0  0  0  0  0  0
  -19.1233  -31.0573   24.7968 C   0  0  0  0  0  0  0  0  0  0  0  0
  -24.6767  -28.4841   19.9579 C   0  0  0  0  0  0  0  0  0  0  0  0
  -20.4097  -31.1225   24.2282 C   0  0  0  0  0  0  0  0  0  0  0  0
  -24.8293  -27.1611   20.3967 C   0  0  0  0  0  0  0  0  0  0  0  0
  -30.8554  -24.5755   20.9063 C   0  0  0  0  0  0  0  0  0  0  0  0
  -31.1918  -25.7510   20.2582 C   0  0  0  0  0  0  0  0  0  0  0  0
  -25.4933  -12.8698   20.6673 C   0  0  0  0  0  0  0  0  0  0  0  0
  -27.2348  -27.3542   20.1030 C   0  0  0  0  0  0  0  0  0  0  0  0
  -24.6276  -10.6939   20.8631 C   0  0  0  0  0  0  0  0  0  0  0  0
  -22.4205   -8.9879   20.8902 C   0  0  0  0  0  0  0  0  0  0  0  0
  -23.6256  -10.8649   21.8184 C   0  0  0  0  0  0  0  0  0  0  0  0
  -24.7795  -17.0020   20.1076 C   0  0  0  0  0  0  0  0  0  0  0  0
  -31.5438  -24.2533   22.0586 C   0  0  0  0  0  0  0  0  0  0  0  0
  -32.1941  -26.5266   20.8055 C   0  0  0  0  0  0  0  0  0  0  0  0
  -23.9779  -19.0465   20.2183 C   0  0  0  0  0  0  0  0  0  0  0  0
  -22.8001  -17.4119   21.6979 C   0  0  0  0  0  0  0  0  0  0  0  0
  -22.4382  -28.8001   22.1923 C   0  0  0  0  0  0  0  0  0  0  0  0
  -21.1286  -26.2407   20.6901 C   0  0  0  0  0  0  0  0  0  0  0  0
  -21.5827  -23.4993   18.7088 C   0  0  0  0  0  0  0  0  0  0  0  0
  -28.7183  -21.8238   17.8379 C   0  0  0  0  0  0  0  0  0  0  0  0
  -18.5820  -29.7807   25.3901 C   0  0  0  0  0  0  0  0  0  0  0  0
  -23.3073  -29.0958   19.8443 C   0  0  0  0  0  0  0  0  0  0  0  0
  -23.6480  -26.3178   20.7992 C   0  0  0  0  0  0  0  0  0  0  0  0
  -19.3314  -28.5314   24.9341 C   0  0  0  0  0  0  0  0  0  0  0  0
  -25.5523  -21.2926   16.2981 C   0  0  0  0  0  0  0  0  0  0  0  0
  -20.8383  -28.7501   25.0243 C   0  0  0  0  0  0  0  0  0  0  0  0
  -24.9063  -20.2036   17.1564 C   0  0  0  0  0  0  0  0  0  0  0  0
  -27.0579  -21.0805   16.1565 C   0  0  0  0  0  0  0  0  0  0  0  0
  -27.1398  -19.8487   18.2895 C   0  0  0  0  0  0  0  0  0  0  0  0
  -21.2856  -29.8945   24.1067 C   0  0  1  0  0  0  0  0  0  0  0  0
  -22.2763  -28.4245   20.7465 C   0  0  1  0  0  0  0  0  0  0  0  0
  -25.6306  -20.0511   18.5075 C   0  0  2  0  0  0  0  0  0  0  0  0
  -31.8726  -22.9911   24.1999 C   0  0  0  0  0  0  0  0  0  0  0  0
  -33.9229  -28.3411   20.7337 C   0  0  0  0  0  0  0  0  0  0  0  0
  -20.3319  -21.5800   17.6846 C   0  0  0  0  0  0  0  0  0  0  0  0
  -21.0549  -24.8446   23.4022 C   0  0  0  0  0  0  0  0  0  0  0  0
  -20.7120  -22.6762   22.1985 C   0  0  0  0  0  0  0  0  0  0  0  0
  -19.0180  -24.4959   21.9936 C   0  0  0  0  0  0  0  0  0  0  0  0
  -22.2567  -24.3742   15.9631 C   0  0  0  0  0  0  0  0  0  0  0  0
  -29.7828  -23.6849   20.3753 C   0  0  0  0  0  0  0  0  0  0  0  0
  -30.4837  -26.1717   18.9934 C   0  0  0  0  0  0  0  0  0  0  0  0
  -31.2378  -23.0025   22.8119 C   0  0  0  0  0  0  0  0  0  0  0  0
  -32.6107  -27.8077   20.1649 C   0  0  0  0  0  0  0  0  0  0  0  0
  -30.3180  -22.4591   19.6257 C   0  0  0  0  0  0  0  0  0  0  0  0
  -29.4505  -27.2649   19.2435 C   0  0  0  0  0  0  0  0  0  1  0  0
  -21.2488  -24.7424   20.8296 C   0  0  1  0  0  0  0  0  0  0  0  0
  -20.8299  -23.0034   17.4875 C   0  0  2  0  0  0  0  0  0  0  0  0
  -20.5311  -24.2060   22.1003 C   0  0  0  0  0  0  0  0  0  0  0  0
  -25.5340  -17.7036   19.2576 N   0  0  0  0  0  0  0  0  0  0  0  0
  -32.5204  -25.0312   22.5716 N   0  0  0  0  0  0  0  0  0  0  0  0
  -32.8507  -26.1867   21.9348 N   0  0  0  0  0  0  0  0  0  0  0  0
  -25.0220  -18.9430   19.3469 N   0  0  0  0  0  0  0  0  0  0  0  0
  -22.3303  -26.9629   20.6765 N   0  0  0  0  0  0  0  0  0  0  0  0
  -27.6849  -20.9450   17.4735 N   0  0  0  0  0  0  0  0  0  0  0  0
  -23.3470  -20.2212   20.4290 N   0  0  0  0  0  0  0  0  0  0  0  0
  -22.7500  -16.0765   22.1204 N   0  0  0  0  0  0  0  0  0  0  0  0
  -21.3426  -29.4468   22.7316 N   0  0  0  0  0  0  0  0  0  0  0  0
  -20.7544  -24.1750   19.5798 N   0  0  0  0  0  0  0  0  0  0  0  0
  -29.2532  -21.6306   19.1057 N   0  0  0  0  0  0  0  0  0  0  0  0
  -21.7139  -23.0300   16.2880 N   0  3  0  0  0  0  0  0  0  0  0  0
  -21.9705  -18.2328   22.1577 O   0  0  0  0  0  0  0  0  0  0  0  0
  -23.4794  -28.5224   22.7758 O   0  0  0  0  0  0  0  0  0  0  0  0
  -20.0100  -26.7509   20.5895 O   0  0  0  0  0  0  0  0  0  0  0  0
  -22.7845  -23.3034   18.8755 O   0  0  0  0  0  0  0  0  0  0  0  0
  -29.1299  -22.7181   17.0909 O   0  0  0  0  0  0  0  0  0  0  0  0
  -25.7234  -11.5405   20.8479 O   0  0  0  0  0  0  0  0  0  0  0  0
  -28.4769  -26.8034   20.1791 O   0  0  0  0  0  0  0  0  0  1  0  0
  -21.3601   -8.1696   20.9021 F   0  0  0  0  0  0  0  0  0  0  0  0
  -23.7171  -11.8476   22.7249 F   0  0  0  0  0  0  0  0  0  0  0  0
  1  2  1  0  0  0  0
  1  5  2  0  0  0  0
  2  6  2  0  0  0  0
  3  8  2  0  0  0  0
  3 15  1  0  0  0  0
  4  9  1  0  0  0  0
  4 15  2  0  0  0  0
  5 17  1  0  0  0  0
  6 19  1  0  0  0  0
  7 10  2  0  0  0  0
  7 18  1  0  0  0  0
  8 23  1  0  0  0  0
  9 23  2  0  0  0  0
 10 24  1  0  0  0  0
 11 12  2  0  0  0  0
 11 25  1  0  0  0  0
 12 26  1  0  0  0  0
 13 20  1  0  0  0  0
 13 24  2  0  0  0  0
 14 26  2  0  0  0  0
 14 27  1  0  0  0  0
 15 28  1  0  0  0  0
 16 28  1  0  0  0  0
 16 31  2  0  0  0  0
 16 32  1  0  0  0  0
 17 19  2  0  0  0  0
 17 37  1  0  0  0  0
 18 20  2  0  0  0  0
 18 38  1  0  0  0  0
 19 46  1  0  0  0  0
 20 39  1  0  0  0  0
 21 22  1  0  0  0  0
 21 29  2  0  0  0  0
 21 56  1  0  0  0  0
 22 30  2  0  0  0  0
 22 57  1  0  0  0  0
 23 82  1  0  0  0  0
 24 83  1  0  0  0  0
 25 27  2  0  0  0  0
 25 82  1  0  0  0  0
 26 84  1  0  0  0  0
 27 85  1  0  0  0  0
 28 65  2  0  0  0  0
 29 58  1  0  0  0  0
 29 66  1  0  0  0  0
 30 59  1  0  0  0  0
 30 67  1  0  0  0  0
 31 68  1  0  0  0  0
 31 71  1  0  0  0  0
 32 72  1  0  0  0  0
 32 77  2  0  0  0  0
 33 47  1  0  0  0  0
 33 73  1  0  0  0  0
 33 78  2  0  0  0  0
 34 62  1  0  0  0  0
 34 69  1  0  0  0  0
 34 79  2  0  0  0  0
 35 63  1  0  0  0  0
 35 74  1  0  0  0  0
 35 80  2  0  0  0  0
 36 70  1  0  0  0  0
 36 75  1  0  0  0  0
 36 81  2  0  0  0  0
 37 40  1  0  0  0  0
 38 47  1  0  0  0  0
 39 69  1  0  0  0  0
 40 42  1  0  0  0  0
 41 43  1  0  0  0  0
 41 44  1  0  0  0  0
 42 46  1  0  0  0  0
 43 48  1  0  0  0  0
 44 70  1  0  0  0  0
 45 48  1  0  0  0  0
 45 70  1  0  0  0  0
 46 73  1  0  0  0  0
 47 69  1  0  0  0  0
 48 68  1  0  0  0  0
 49 58  1  0  0  0  0
 50 59  1  0  0  0  0
 51 63  1  0  0  0  0
 52 64  1  0  0  0  0
 53 64  1  0  0  0  0
 54 64  1  0  0  0  0
 55 76  1  0  0  0  0
 56 60  1  0  0  0  0
 57 61  1  0  0  0  0
 60 75  1  0  0  0  0
 61 83  1  0  0  0  0
 62 64  1  0  0  0  0
 62 74  1  0  0  0  0
 63 76  1  0  0  0  0
 65 68  1  0  0  0  0
 66 67  2  0  0  0  0
M  CHG  1  76   1
M  ISO  4  36 100  61 101  75 100  83 101
M  END
> <Batch ID>
0079

> <Smiles>
CCc1nnc(CC)c(C[101CH2:1][101O:1]c2ccc3c(c2)CN(C(=O)C(NC(=O)C(C)NC)C(C)(C)C)C(C(=O)NC2CCCc4ccccc42)C3)c1CC[100NH:0][100C:0](=O)N1CCCC(n2nc(-c3ccc(Oc4ccc(F)cc4F)cc3)c(C(N)=O)c2N)C1

> <Shape>
0.200

> <Color>
0.093

> <Negative vol penalty>
0.000

$$$$

  -OEChem-04052318413D

 87 95  0     1  0  0  0  0  0999 V2000
  -23.6815  -15.6411   19.0090 C   0  0  0  0  0  0  0  0  0  0  0  0
  -23.8740  -16.4597   20.1161 C   0  0  0  0  0  0  0  0  0  0  0  0
  -26.7491  -14.1115   21.6451 C   0  0  0  0  0  0  0  0  0  0  0  0
  -26.5797  -13.9542   19.2402 C   0  0  0  0  0  0  0  0  0  0  0  0
  -23.4162  -16.2090   17.7647 C   0  0  0  0  0  0  0  0  0  0  0  0
  -23.7895  -17.8459   19.9818 C   0  0  0  0  0  0  0  0  0  0  0  0
  -24.7747  -22.2860   24.0367 C   0  0  0  0  0  0  0  0  0  0  0  0
  -25.8492  -13.0540   21.7777 C   0  0  0  0  0  0  0  0  0  0  0  0
  -25.6799  -12.8966   19.3727 C   0  0  0  0  0  0  0  0  0  0  0  0
  -25.8403  -23.0844   24.4500 C   0  0  0  0  0  0  0  0  0  0  0  0
  -22.5061  -12.5910   21.5948 C   0  0  0  0  0  0  0  0  0  0  0  0
  -21.4844  -12.7243   22.5350 C   0  0  0  0  0  0  0  0  0  0  0  0
  -25.0862  -24.8416   22.9794 C   0  0  0  0  0  0  0  0  0  0  0  0
  -28.7712  -27.4254   20.3562 C   0  0  0  0  0  0  0  0  0  0  0  0
  -22.2957  -10.7660   23.6943 C   0  0  0  0  0  0  0  0  0  0  0  0
  -27.1143  -14.5617   20.3763 C   0  0  0  0  0  0  0  0  0  0  0  0
  -29.4455  -15.5714   20.1452 C   0  0  0  0  0  0  0  0  0  0  0  0
  -23.3409  -17.6034   17.6135 C   0  0  0  0  0  0  0  0  0  0  0  0
  -23.8615  -22.7561   23.0820 C   0  0  0  0  0  0  0  0  0  0  0  0
  -23.4990  -18.4374   18.7391 C   0  0  0  0  0  0  0  0  0  0  0  0
  -24.0084  -24.0482   22.5576 C   0  0  0  0  0  0  0  0  0  0  0  0
  -29.6758  -26.8494   21.2411 C   0  0  0  0  0  0  0  0  0  0  0  0
  -28.7584  -27.0245   19.0248 C   0  0  0  0  0  0  0  0  0  0  0  0
  -25.3147  -12.4466   20.6415 C   0  0  0  0  0  0  0  0  0  0  0  0
  -25.9979  -24.3613   23.9191 C   0  0  0  0  0  0  0  0  0  0  0  0
  -23.4226  -11.5451   21.7043 C   0  0  0  0  0  0  0  0  0  0  0  0
  -21.3792  -11.8119   23.5848 C   0  0  0  0  0  0  0  0  0  0  0  0
  -23.3173  -10.6326   22.7541 C   0  0  0  0  0  0  0  0  0  0  0  0
  -28.0433  -15.6544   20.2387 C   0  0  0  0  0  0  0  0  0  0  0  0
  -30.5399  -25.8846   20.7489 C   0  0  0  0  0  0  0  0  0  0  0  0
  -29.6637  -26.0520   18.6318 C   0  0  0  0  0  0  0  0  0  0  0  0
  -29.8597  -16.8759   20.0298 C   0  0  0  0  0  0  0  0  0  0  0  0
  -30.2974  -14.4183   20.1611 C   0  0  0  0  0  0  0  0  0  0  0  0
  -22.9972  -21.8407   20.1633 C   0  0  0  0  0  0  0  0  0  0  0  0
  -20.7836  -24.1870   20.5058 C   0  0  0  0  0  0  0  0  0  0  0  0
  -19.8589  -27.0978   22.0286 C   0  0  0  0  0  0  0  0  0  0  0  0
  -29.3973  -21.8296   17.7508 C   0  0  0  0  0  0  0  0  0  0  0  0
  -23.0433  -18.1646   16.2453 C   0  0  0  0  0  0  0  0  0  0  0  0
  -22.7020  -21.8927   22.6665 C   0  0  0  0  0  0  0  0  0  0  0  0
  -23.0438  -24.6075   21.5450 C   0  0  0  0  0  0  0  0  0  0  0  0
  -23.4116  -19.6389   16.1144 C   0  0  0  0  0  0  0  0  0  0  0  0
  -27.3185  -21.2063   20.6470 C   0  0  0  0  0  0  0  0  0  0  0  0
  -22.8368  -20.4240   17.2839 C   0  0  0  0  0  0  0  0  0  0  0  0
  -27.4415  -19.6881   20.7886 C   0  0  0  0  0  0  0  0  0  0  0  0
  -27.2741  -21.6229   19.1798 C   0  0  0  0  0  0  0  0  0  0  0  0
  -28.5525  -19.6260   18.5079 C   0  0  0  0  0  0  0  0  0  0  0  0
  -23.4421  -19.9489   18.6109 C   0  0  1  0  0  0  0  0  0  0  0  0
  -22.1268  -22.2783   21.3072 C   0  0  1  0  0  0  0  0  0  0  0  0
  -28.6252  -19.1428   19.9678 C   0  0  2  0  0  0  0  0  0  0  0  0
  -26.3792  -27.0817   18.2359 C   0  0  0  0  0  0  0  0  0  0  0  0
  -32.5899  -24.4471   20.8804 C   0  0  0  0  0  0  0  0  0  0  0  0
  -30.6019  -26.4664   16.3357 C   0  0  0  0  0  0  0  0  0  0  0  0
  -18.0122  -28.7962   22.0754 C   0  0  0  0  0  0  0  0  0  0  0  0
  -21.7836  -25.3436   17.8652 C   0  0  0  0  0  0  0  0  0  0  0  0
  -20.6093  -27.4797   18.4363 C   0  0  0  0  0  0  0  0  0  0  0  0
  -19.2986  -25.3775   18.1444 C   0  0  0  0  0  0  0  0  0  0  0  0
  -19.2916  -26.5730   24.8855 C   0  0  0  0  0  0  0  0  0  0  0  0
  -27.7919  -27.6379   18.0715 C   0  0  0  0  0  0  0  0  0  0  0  0
  -29.6947  -27.2796   22.6862 C   0  0  0  0  0  0  0  0  0  0  0  0
  -31.5340  -25.2320   21.6527 C   0  0  0  0  0  0  0  0  0  0  0  0
  -29.0387  -26.2754   23.6364 C   0  0  0  0  0  0  0  0  0  0  0  0
  -30.1204  -24.1025   17.0667 C   0  0  0  0  0  0  0  0  0  0  0  0
  -27.5505  -26.0778   23.3726 C   0  0  0  0  0  0  0  0  0  1  0  0
  -29.6937  -25.5823   17.2141 C   0  0  1  0  0  0  0  0  0  0  0  0
  -20.7372  -25.6653   20.2035 C   0  0  1  0  0  0  0  0  0  0  0  0
  -18.5603  -27.5189   22.6925 C   0  0  2  0  0  0  0  0  0  0  0  0
  -20.6266  -25.9555   18.6800 C   0  0  0  0  0  0  0  0  0  0  0  0
  -27.5966  -16.9121   20.1874 N   0  0  0  0  0  0  0  0  0  0  0  0
  -30.5572  -25.4696   19.4625 N   0  0  0  0  0  0  0  0  0  0  0  0
  -28.7247  -17.6315   20.0604 N   0  0  0  0  0  0  0  0  0  0  0  0
  -21.9300  -23.7225   21.1659 N   0  0  0  0  0  0  0  0  0  0  0  0
  -28.4378  -21.0874   18.4593 N   0  0  0  0  0  0  0  0  0  0  0  0
  -31.0805  -17.4388   19.9063 N   0  0  0  0  0  0  0  0  0  0  0  0
  -29.7072  -13.1533   20.2862 N   0  0  0  0  0  0  0  0  0  0  0  0
  -22.7247  -20.5660   19.7047 N   0  0  0  0  0  0  0  0  0  0  0  0
  -19.6404  -26.2099   20.9966 N   0  0  0  0  0  0  0  0  0  0  0  0
  -29.2123  -23.2067   17.7478 N   0  0  0  0  0  0  0  0  0  0  0  0
  -18.7755  -27.7549   24.1482 N   0  3  0  0  0  0  0  0  0  0  0  0
  -31.5462  -14.5082   20.0837 O   0  0  0  0  0  0  0  0  0  0  0  0
  -23.8516  -22.6036   19.7279 O   0  0  0  0  0  0  0  0  0  0  0  0
  -19.8344  -23.4720   20.1750 O   0  0  0  0  0  0  0  0  0  0  0  0
  -20.9570  -27.5176   22.3871 O   0  0  0  0  0  0  0  0  0  0  0  0
  -30.3519  -21.3041   17.1681 O   0  0  0  0  0  0  0  0  0  0  0  0
  -24.4368  -11.4144   20.7705 O   0  0  0  0  0  0  0  0  0  0  0  0
  -27.0375  -25.1424   24.3203 O   0  0  0  0  0  0  0  0  0  1  0  0
  -20.3990  -11.9410   24.4884 F   0  0  0  0  0  0  0  0  0  0  0  0
  -24.1955   -9.6265   22.8652 F   0  0  0  0  0  0  0  0  0  0  0  0
  1  2  1  0  0  0  0
  1  5  2  0  0  0  0
  2  6  2  0  0  0  0
  3  8  2  0  0  0  0
  3 16  1  0  0  0  0
  4  9  1  0  0  0  0
  4 16  2  0  0  0  0
  5 18  1  0  0  0  0
  6 20  1  0  0  0  0
  7 10  2  0  0  0  0
  7 19  1  0  0  0  0
  8 24  1  0  0  0  0
  9 24  2  0  0  0  0
 10 25  1  0  0  0  0
 11 12  2  0  0  0  0
 11 26  1  0  0  0  0
 12 27  1  0  0  0  0
 13 21  1  0  0  0  0
 13 25  2  0  0  0  0
 14 22  2  0  0  0  0
 14 23  1  0  0  0  0
 15 27  2  0  0  0  0
 15 28  1  0  0  0  0
 16 29  1  0  0  0  0
 17 29  1  0  0  0  0
 17 32  2  0  0  0  0
 17 33  1  0  0  0  0
 18 20  2  0  0  0  0
 18 38  1  0  0  0  0
 19 21  2  0  0  0  0
 19 39  1  0  0  0  0
 20 47  1  0  0  0  0
 21 40  1  0  0  0  0
 22 30  1  0  0  0  0
 22 59  1  0  0  0  0
 23 31  2  0  0  0  0
 23 58  1  0  0  0  0
 24 84  1  0  0  0  0
 25 85  1  0  0  0  0
 26 28  2  0  0  0  0
 26 84  1  0  0  0  0
 27 86  1  0  0  0  0
 28 87  1  0  0  0  0
 29 68  2  0  0  0  0
 30 60  1  0  0  0  0
 30 69  2  0  0  0  0
 31 64  1  0  0  0  0
 31 69  1  0  0  0  0
 32 70  1  0  0  0  0
 32 73  1  0  0  0  0
 33 74  1  0  0  0  0
 33 79  2  0  0  0  0
 34 48  1  0  0  0  0
 34 75  1  0  0  0  0
 34 80  2  0  0  0  0
 35 65  1  0  0  0  0
 35 71  1  0  0  0  0
 35 81  2  0  0  0  0
 36 66  1  0  0  0  0
 36 76  1  0  0  0  0
 36 82  2  0  0  0  0
 37 72  1  0  0  0  0
 37 77  1  0  0  0  0
 37 83  2  0  0  0  0
 38 41  1  0  0  0  0
 39 48  1  0  0  0  0
 40 71  1  0  0  0  0
 41 43  1  0  0  0  0
 42 44  1  0  0  0  0
 42 45  1  0  0  0  0
 43 47  1  0  0  0  0
 44 49  1  0  0  0  0
 45 72  1  0  0  0  0
 46 49  1  0  0  0  0
 46 72  1  0  0  0  0
 47 75  1  0  0  0  0
 48 71  1  0  0  0  0
 49 70  1  0  0  0  0
 50 58  1  0  0  0  0
 51 60  1  0  0  0  0
 52 64  1  0  0  0  0
 53 66  1  0  0  0  0
 54 67  1  0  0  0  0
 55 67  1  0  0  0  0
 56 67  1  0  0  0  0
 57 78  1  0  0  0  0
 59 61  1  0  0  0  0
 61 63  1  0  0  0  0
 62 64  1  0  0  0  0
 62 77  1  0  0  0  0
 63 85  1  0  0  0  0
 65 67  1  0  0  0  0
 65 76  1  0  0  0  0
 66 78  1  0  0  0  0
 68 70  1  0  0  0  0
M  CHG  1  78   1
M  ISO  4  37 100  63 101  77 100  85 101
M  END
> <Batch ID>
0079

> <Smiles>
CCc1cc(CC[101CH2:1][101O:1]c2ccc3c(c2)CN(C(=O)C(NC(=O)C(C)NC)C(C)(C)C)C(C(=O)NC2CCCc4ccccc42)C3)c(CC)nc1C(C)C[100NH:0][100C:0](=O)N1CCCC(n2nc(-c3ccc(Oc4ccc(F)cc4F)cc3)c(C(N)=O)c2N)C1

> <Shape>
0.213

> <Color>
0.048

> <Negative vol penalty>
0.000

$$$$

  -OEChem-04052318413D

 89 97  0     1  0  0  0  0  0999 V2000
  -17.0475  -30.5210   23.6683 C   0  0  0  0  0  0  0  0  0  0  0  0
  -18.3702  -30.9438   23.5836 C   0  0  0  0  0  0  0  0  0  0  0  0
  -26.5879  -13.6973   21.6244 C   0  0  0  0  0  0  0  0  0  0  0  0
  -26.4936  -13.4399   19.2240 C   0  0  0  0  0  0  0  0  0  0  0  0
  -16.7330  -29.1764   23.4760 C   0  0  0  0  0  0  0  0  0  0  0  0
  -19.3793  -30.0219   23.3076 C   0  0  0  0  0  0  0  0  0  0  0  0
  -25.6984  -29.4921   19.9750 C   0  0  0  0  0  0  0  0  0  0  0  0
  -25.8132  -12.5476   21.7782 C   0  0  0  0  0  0  0  0  0  0  0  0
  -25.7189  -12.2901   19.3778 C   0  0  0  0  0  0  0  0  0  0  0  0
  -27.0070  -29.0715   20.2081 C   0  0  0  0  0  0  0  0  0  0  0  0
  -22.5510  -11.6936   21.5485 C   0  0  0  0  0  0  0  0  0  0  0  0
  -21.4992  -11.7393   22.4635 C   0  0  0  0  0  0  0  0  0  0  0  0
  -27.9101  -24.0041   14.3981 C   0  0  0  0  0  0  0  0  0  0  0  0
  -28.2082  -25.2712   14.9574 C   0  0  0  0  0  0  0  0  0  0  0  0
  -26.3363  -26.7877   19.8158 C   0  0  0  0  0  0  0  0  0  0  0  0
  -22.5038   -9.9289   23.7087 C   0  0  0  0  0  0  0  0  0  0  0  0
  -26.9280  -14.1435   20.3473 C   0  0  0  0  0  0  0  0  0  0  0  0
  -29.1319  -15.4086   20.1242 C   0  0  0  0  0  0  0  0  0  0  0  0
  -17.7376  -28.2392   23.1880 C   0  0  0  0  0  0  0  0  0  0  0  0
  -24.6949  -28.5610   19.6709 C   0  0  0  0  0  0  0  0  0  0  0  0
  -19.0781  -28.6632   23.1126 C   0  0  0  0  0  0  0  0  0  0  0  0
  -25.0163  -27.1994   19.5768 C   0  0  0  0  0  0  0  0  0  0  0  0
  -25.3788  -11.8440   20.6549 C   0  0  0  0  0  0  0  0  0  0  0  0
  -27.3256  -27.7188   20.1313 C   0  0  0  0  0  0  0  0  0  0  0  0
  -23.5791  -10.7655   21.7135 C   0  0  0  0  0  0  0  0  0  0  0  0
  -21.4756  -10.8570   23.5436 C   0  0  0  0  0  0  0  0  0  0  0  0
  -23.5556   -9.8832   22.7936 C   0  0  0  0  0  0  0  0  0  0  0  0
  -27.7277  -15.3314   20.1878 C   0  0  0  0  0  0  0  0  0  0  0  0
  -28.6074  -23.0613   15.1206 C   0  0  0  0  0  0  0  0  0  0  0  0
  -29.0789  -25.0641   16.0045 C   0  0  0  0  0  0  0  0  0  0  0  0
  -29.3955  -16.7477   19.9693 C   0  0  0  0  0  0  0  0  0  0  0  0
  -30.1106  -14.3634   20.1983 C   0  0  0  0  0  0  0  0  0  0  0  0
  -21.9762  -27.6619   21.0507 C   0  0  0  0  0  0  0  0  0  0  0  0
  -21.6334  -25.9122   18.3408 C   0  0  0  0  0  0  0  0  0  0  0  0
  -23.1148  -24.3696   15.6814 C   0  0  0  0  0  0  0  0  0  0  0  0
  -26.2061  -21.3004   17.7441 C   0  0  0  0  0  0  0  0  0  0  0  0
  -17.3547  -26.7885   23.0347 C   0  0  0  0  0  0  0  0  0  0  0  0
  -23.2937  -29.0337   19.3959 C   0  0  0  0  0  0  0  0  0  0  0  0
  -23.9799  -26.1618   19.2337 C   0  0  0  0  0  0  0  0  0  0  0  0
  -18.4382  -25.9389   22.3756 C   0  0  0  0  0  0  0  0  0  0  0  0
  -27.6053  -21.0610   21.0093 C   0  0  0  0  0  0  0  0  0  0  0  0
  -19.7992  -26.2315   22.9992 C   0  0  0  0  0  0  0  0  0  0  0  0
  -27.9221  -19.5724   21.1632 C   0  0  0  0  0  0  0  0  0  0  0  0
  -26.3182  -21.2853   20.2187 C   0  0  0  0  0  0  0  0  0  0  0  0
  -26.5906  -19.1279   19.0589 C   0  0  0  0  0  0  0  0  0  0  0  0
  -20.1978  -27.6975   22.7905 C   0  0  1  0  0  0  0  0  0  0  0  0
  -22.2450  -27.9447   19.5997 C   0  0  1  0  0  0  0  0  0  0  0  0
  -27.9095  -18.8526   19.8012 C   0  0  2  0  0  0  0  0  0  0  0  0
  -22.5786  -22.9883   13.6561 C   0  0  0  0  0  0  0  0  0  0  0  0
  -32.7989  -22.9219   18.6583 C   0  0  0  0  0  0  0  0  0  0  0  0
  -33.7649  -21.5888   16.7740 C   0  0  0  0  0  0  0  0  0  0  0  0
  -21.2172  -23.4688   20.1203 C   0  0  0  0  0  0  0  0  0  0  0  0
  -21.6372  -22.0257   18.1180 C   0  0  0  0  0  0  0  0  0  0  0  0
  -19.6937  -23.5894   18.1407 C   0  0  0  0  0  0  0  0  0  0  0  0
  -30.8462  -26.7570   19.7068 C   0  0  0  0  0  0  0  0  0  0  0  0
  -29.5915  -28.6510   18.6450 C   0  0  0  0  0  0  0  0  0  0  0  0
  -24.2186  -26.4160   13.8504 C   0  0  0  0  0  0  0  0  0  0  0  0
  -28.6566  -21.5932   14.9620 C   0  0  0  0  0  0  0  0  0  0  0  0
  -29.7161  -26.0592   16.9430 C   0  0  0  0  0  0  0  0  0  0  0  0
  -27.3672  -20.9554   14.3919 C   0  0  0  0  0  0  0  0  0  0  0  0
  -28.8470  -26.2958   18.1863 C   0  0  0  0  0  0  0  0  0  0  0  0
  -31.5249  -22.6826   16.4627 C   0  0  0  0  0  0  0  0  0  0  0  0
  -30.1784  -23.0839   17.0685 C   0  0  0  0  0  0  0  0  0  0  0  0
  -26.1323  -21.1567   15.2676 C   0  0  0  0  0  0  0  0  0  0  0  0
  -22.0321  -24.5219   17.9083 C   0  0  1  0  0  0  0  0  0  0  0  0
  -22.7956  -24.3928   14.1975 C   0  0  2  0  0  0  0  0  0  0  0  0
  -32.4711  -22.0113   17.4742 C   0  0  0  0  0  0  0  0  0  0  0  0
  -21.1644  -23.4206   18.5802 C   0  0  0  0  0  0  0  0  0  0  0  0
  -29.4744  -27.2403   19.2316 C   0  0  0  0  0  0  0  0  0  1  0  0
  -27.1403  -16.5263   20.0822 N   0  0  0  0  0  0  0  0  0  0  0  0
  -29.3147  -23.7171   16.0942 N   0  0  0  0  0  0  0  0  0  0  0  0
  -28.1805  -17.3670   19.9507 N   0  0  0  0  0  0  0  0  0  0  0  0
  -22.6228  -26.6730   18.9797 N   0  0  0  0  0  0  0  0  0  0  0  0
  -26.3713  -20.5777   18.9371 N   0  0  0  0  0  0  0  0  0  0  0  0
  -30.5457  -17.4440   19.8487 N   0  0  0  0  0  0  0  0  0  0  0  0
  -29.6675  -13.0434   20.3580 N   0  0  0  0  0  0  0  0  0  0  0  0
  -20.6725  -27.9047   21.4392 N   0  0  0  0  0  0  0  0  0  0  0  0
  -21.9798  -24.5173   16.4504 N   0  0  0  0  0  0  0  0  0  0  0  0
  -26.2766  -20.5542   16.5740 N   0  0  0  0  0  0  0  0  0  0  0  0
  -23.9122  -25.0223   13.4373 N   0  3  0  0  0  0  0  0  0  0  0  0
  -31.3421  -14.5950   20.1415 O   0  0  0  0  0  0  0  0  0  0  0  0
  -22.8841  -27.2523   21.7647 O   0  0  0  0  0  0  0  0  0  0  0  0
  -20.4885  -26.3112   18.1136 O   0  0  0  0  0  0  0  0  0  0  0  0
  -24.2563  -24.2303   16.1151 O   0  0  0  0  0  0  0  0  0  0  0  0
  -26.0155  -22.5211   17.7229 O   0  0  0  0  0  0  0  0  0  0  0  0
  -24.6230  -10.7219   20.8046 O   0  0  0  0  0  0  0  0  0  0  0  0
  -28.6020  -27.3054   20.3589 O   0  0  0  0  0  0  0  0  0  1  0  0
  -20.4663  -10.9020   24.4231 F   0  0  0  0  0  0  0  0  0  0  0  0
  -24.5411   -8.9902   22.9580 F   0  0  0  0  0  0  0  0  0  0  0  0
  1  2  1  0  0  0  0
  1  5  2  0  0  0  0
  2  6  2  0  0  0  0
  3  8  2  0  0  0  0
  3 17  1  0  0  0  0
  4  9  1  0  0  0  0
  4 17  2  0  0  0  0
  5 19  1  0  0  0  0
  6 21  1  0  0  0  0
  7 10  2  0  0  0  0
  7 20  1  0  0  0  0
  8 23  1  0  0  0  0
  9 23  2  0  0  0  0
 10 24  1  0  0  0  0
 11 12  2  0  0  0  0
 11 25  1  0  0  0  0
 12 26  1  0  0  0  0
 13 14  1  0  0  0  0
 13 29  2  0  0  0  0
 14 30  2  0  0  0  0
 15 22  1  0  0  0  0
 15 24  2  0  0  0  0
 16 26  2  0  0  0  0
 16 27  1  0  0  0  0
 17 28  1  0  0  0  0
 18 28  1  0  0  0  0
 18 31  2  0  0  0  0
 18 32  1  0  0  0  0
 19 21  2  0  0  0  0
 19 37  1  0  0  0  0
 20 22  2  0  0  0  0
 20 38  1  0  0  0  0
 21 46  1  0  0  0  0
 22 39  1  0  0  0  0
 23 86  1  0  0  0  0
 24 87  1  0  0  0  0
 25 27  2  0  0  0  0
 25 86  1  0  0  0  0
 26 88  1  0  0  0  0
 27 89  1  0  0  0  0
 28 70  2  0  0  0  0
 29 58  1  0  0  0  0
 29 71  1  0  0  0  0
 30 59  1  0  0  0  0
 30 71  1  0  0  0  0
 31 72  1  0  0  0  0
 31 75  1  0  0  0  0
 32 76  1  0  0  0  0
 32 81  2  0  0  0  0
 33 47  1  0  0  0  0
 33 77  1  0  0  0  0
 33 82  2  0  0  0  0
 34 65  1  0  0  0  0
 34 73  1  0  0  0  0
 34 83  2  0  0  0  0
 35 66  1  0  0  0  0
 35 78  1  0  0  0  0
 35 84  2  0  0  0  0
 36 74  1  0  0  0  0
 36 79  1  0  0  0  0
 36 85  2  0  0  0  0
 37 40  1  0  0  0  0
 38 47  1  0  0  0  0
 39 73  1  0  0  0  0
 40 42  1  0  0  0  0
 41 43  1  0  0  0  0
 41 44  1  0  0  0  0
 42 46  1  0  0  0  0
 43 48  1  0  0  0  0
 44 74  1  0  0  0  0
 45 48  1  0  0  0  0
 45 74  1  0  0  0  0
 46 77  1  0  0  0  0
 47 73  1  0  0  0  0
 48 72  1  0  0  0  0
 49 66  1  0  0  0  0
 50 67  1  0  0  0  0
 51 67  1  0  0  0  0
 52 68  1  0  0  0  0
 53 68  1  0  0  0  0
 54 68  1  0  0  0  0
 55 69  1  0  0  0  0
 56 69  1  0  0  0  0
 57 80  1  0  0  0  0
 58 60  1  0  0  0  0
 59 61  1  0  0  0  0
 60 64  1  0  0  0  0
 61 69  1  0  0  0  0
 62 63  1  0  0  0  0
 62 67  1  0  0  0  0
 63 71  1  0  0  0  0
 64 79  1  0  0  0  0
 65 68  1  0  0  0  0
 65 78  1  0  0  0  0
 66 80  1  0  0  0  0
 69 87  1  0  0  0  0
 70 72  1  0  0  0  0
M  CHG  1  80   1
M  ISO  4  36 100  69 101  79 100  87 101
M  END
> <Batch ID>
0079

> <Smiles>
CNC(C)C(=O)NC(C(=O)N1Cc2cc([101O:1][101C:1](C)(C)CCc3ccc(CCC[100NH:0][100C:0](=O)N4CCCC(n5nc(-c6ccc(Oc7ccc(F)cc7F)cc6)c(C(N)=O)c5N)C4)n3CCC(C)C)ccc2CC1C(=O)NC1CCCc2ccccc21)C(C)(C)C

> <Shape>
0.254

> <Color>
0.103

> <Negative vol penalty>
0.000

$$$$

  -OEChem-04052318413D

 85 93  0     1  0  0  0  0  0999 V2000
  -28.7610  -26.9938   17.4577 C   0  0  0  0  0  0  0  0  0  0  0  0
  -28.5945  -25.7458   16.8659 C   0  0  0  0  0  0  0  0  0  0  0  0
  -20.8654  -26.1525   21.0481 C   0  0  0  0  0  0  0  0  0  0  0  0
  -21.8454  -25.1956   23.0383 C   0  0  0  0  0  0  0  0  0  0  0  0
  -29.3002  -27.0897   18.7399 C   0  0  0  0  0  0  0  0  0  0  0  0
  -28.9682  -24.5929   17.5556 C   0  0  0  0  0  0  0  0  0  0  0  0
  -27.1204  -17.7178   18.3521 C   0  0  0  0  0  0  0  0  0  0  0  0
  -20.4646  -27.2688   21.7821 C   0  0  0  0  0  0  0  0  0  0  0  0
  -21.4446  -26.3119   23.7723 C   0  0  0  0  0  0  0  0  0  0  0  0
  -27.6759  -16.4401   18.2992 C   0  0  0  0  0  0  0  0  0  0  0  0
  -17.9854  -28.0759   23.9331 C   0  0  0  0  0  0  0  0  0  0  0  0
  -16.6867  -28.5461   23.7390 C   0  0  0  0  0  0  0  0  0  0  0  0
  -28.5232  -16.7223   20.5401 C   0  0  0  0  0  0  0  0  0  0  0  0
  -25.5821  -11.3013   20.4286 C   0  0  0  0  0  0  0  0  0  0  0  0
  -23.7516  -12.8254   20.7617 C   0  0  0  0  0  0  0  0  0  0  0  0
  -17.5661  -30.6768   23.0153 C   0  0  0  0  0  0  0  0  0  0  0  0
  -21.5558  -25.1158   21.6761 C   0  0  0  0  0  0  0  0  0  0  0  0
  -23.1874  -23.7865   20.2346 C   0  0  0  0  0  0  0  0  0  0  0  0
  -29.6717  -25.9368   19.4494 C   0  0  0  0  0  0  0  0  0  0  0  0
  -27.2717  -18.5129   19.4972 C   0  0  0  0  0  0  0  0  0  0  0  0
  -29.5142  -24.6736   18.8480 C   0  0  0  0  0  0  0  0  0  0  0  0
  -27.9665  -18.0087   20.6059 C   0  0  0  0  0  0  0  0  0  0  0  0
  -24.2146  -11.5381   20.5127 C   0  0  0  0  0  0  0  0  0  0  0  0
  -20.7542  -27.3485   23.1442 C   0  0  0  0  0  0  0  0  0  0  0  0
  -28.3799  -15.9433   19.3922 C   0  0  0  0  0  0  0  0  0  0  0  0
  -19.0746  -28.9062   23.6683 C   0  0  0  0  0  0  0  0  0  0  0  0
  -16.4770  -29.8465   23.2801 C   0  0  0  0  0  0  0  0  0  0  0  0
  -18.8649  -30.2066   23.2094 C   0  0  0  0  0  0  0  0  0  0  0  0
  -21.9696  -23.9622   20.9185 C   0  0  0  0  0  0  0  0  0  0  0  0
  -26.4384  -12.3771   20.5996 C   0  0  0  0  0  0  0  0  0  0  0  0
  -24.6898  -13.8329   20.9180 C   0  0  0  0  0  0  0  0  0  0  0  0
  -23.0921  -22.5335   19.6801 C   0  0  0  0  0  0  0  0  0  0  0  0
  -24.3050  -24.6762   20.1115 C   0  0  0  0  0  0  0  0  0  0  0  0
  -28.6347  -21.3167   20.1172 C   0  0  0  0  0  0  0  0  0  0  0  0
  -27.2941  -20.8822   23.0389 C   0  0  0  0  0  0  0  0  0  0  0  0
  -26.0677  -18.7124   25.3701 C   0  0  0  0  0  0  0  0  0  0  0  0
  -21.7414  -17.1321   20.0626 C   0  0  0  0  0  0  0  0  0  0  0  0
  -30.2942  -26.0935   20.8142 C   0  0  0  0  0  0  0  0  0  0  0  0
  -26.6437  -19.8786   19.5484 C   0  0  0  0  0  0  0  0  0  0  0  0
  -28.1399  -18.8145   21.8666 C   0  0  0  0  0  0  0  0  0  0  0  0
  -30.3170  -24.8006   21.6254 C   0  0  0  0  0  0  0  0  0  0  0  0
  -19.1323  -19.4152   19.2521 C   0  0  0  0  0  0  0  0  0  0  0  0
  -30.8152  -23.6413   20.7682 C   0  0  0  0  0  0  0  0  0  0  0  0
  -19.7361  -20.7859   19.5628 C   0  0  0  0  0  0  0  0  0  0  0  0
  -19.5954  -18.3554   20.2492 C   0  0  0  0  0  0  0  0  0  0  0  0
  -21.6621  -19.6158   20.7118 C   0  0  0  0  0  0  0  0  0  0  0  0
  -29.8845  -23.3985   19.5739 C   0  0  1  0  0  0  0  0  0  0  0  0
  -27.2994  -20.7998   20.5726 C   0  0  1  0  0  0  0  0  0  0  0  0
  -21.2684  -20.7056   19.7001 C   0  0  2  0  0  0  0  0  0  0  0  0
  -23.2483  -10.4163   20.3355 C   0  0  0  0  0  0  0  0  0  0  0  0
  -25.2139  -15.9932   22.0937 C   0  0  0  0  0  0  0  0  0  0  0  0
  -24.9481  -17.9542   27.4841 C   0  0  0  0  0  0  0  0  0  0  0  0
  -30.0045  -12.0017   19.1061 C   0  0  0  0  0  0  0  0  0  0  0  0
  -30.0631  -21.3338   24.2383 C   0  0  0  0  0  0  0  0  0  0  0  0
  -29.2224  -20.3397   26.3768 C   0  0  0  0  0  0  0  0  0  0  0  0
  -28.1941  -22.4307   25.4864 C   0  0  0  0  0  0  0  0  0  0  0  0
  -23.3884  -18.7882   24.1155 C   0  0  0  0  0  0  0  0  0  0  0  0
  -27.9293  -12.1582   20.5134 C   0  0  0  0  0  0  0  0  0  0  0  0
  -23.9682  -16.0482   19.9029 C   0  0  0  0  0  0  0  0  0  0  0  0
  -28.2571  -13.7289   18.5335 C   0  0  0  0  0  0  0  0  0  1  0  0
  -24.2284  -15.2261   21.1882 C   0  0  1  0  0  0  0  0  0  0  0  0
  -27.7303  -20.2312   24.3292 C   0  0  1  0  0  0  0  0  0  0  0  0
  -24.7866  -18.7269   26.1843 C   0  0  2  0  0  0  0  0  0  0  0  0
  -28.5040  -12.3202   19.0919 C   0  0  1  0  0  0  0  0  0  0  0  0
  -28.8010  -21.0692   25.0833 C   0  0  0  0  0  0  0  0  0  0  0  0
  -21.1600  -22.9055   20.8097 N   0  0  0  0  0  0  0  0  0  0  0  0
  -26.0260  -13.6414   20.8430 N   0  0  0  0  0  0  0  0  0  0  0  0
  -21.8704  -22.0537   20.0509 N   0  0  0  0  0  0  0  0  0  0  0  0
  -27.5128  -20.1465   21.8656 N   0  0  0  0  0  0  0  0  0  0  0  0
  -21.0578  -18.3295   20.3310 N   0  0  0  0  0  0  0  0  0  0  0  0
  -23.9349  -21.8064   18.9163 N   0  0  0  0  0  0  0  0  0  0  0  0
  -24.2375  -25.9250   20.7442 N   0  0  0  0  0  0  0  0  0  0  0  0
  -28.6942  -22.6920   19.9963 N   0  0  0  0  0  0  0  0  0  0  0  0
  -26.5129  -19.9882   25.0957 N   0  0  0  0  0  0  0  0  0  0  0  0
  -23.1263  -17.1961   20.1563 N   0  0  0  0  0  0  0  0  0  0  0  0
  -23.6724  -18.1130   25.4079 N   0  3  0  0  0  0  0  0  0  0  0  0
  -25.3261  -24.3794   19.4462 O   0  0  0  0  0  0  0  0  0  0  0  0
  -29.5442  -20.5265   19.8936 O   0  0  0  0  0  0  0  0  0  0  0  0
  -26.7718  -21.9993   23.0715 O   0  0  0  0  0  0  0  0  0  0  0  0
  -26.6204  -17.6732   25.0164 O   0  0  0  0  0  0  0  0  0  0  0  0
  -21.1609  -16.0851   19.7567 O   0  0  0  0  0  0  0  0  0  0  0  0
  -20.3634  -28.4377   23.8608 O   0  0  0  0  0  0  0  0  0  0  0  0
  -28.9236  -14.6968   19.3430 O   0  0  0  0  0  0  0  0  0  1  0  0
  -15.2297  -30.2973   23.0923 F   0  0  0  0  0  0  0  0  0  0  0  0
  -19.9073  -31.0085   22.9522 F   0  0  0  0  0  0  0  0  0  0  0  0
  1  2  1  0  0  0  0
  1  5  2  0  0  0  0
  2  6  2  0  0  0  0
  3  8  2  0  0  0  0
  3 17  1  0  0  0  0
  4  9  1  0  0  0  0
  4 17  2  0  0  0  0
  5 19  1  0  0  0  0
  6 21  1  0  0  0  0
  7 10  2  0  0  0  0
  7 20  1  0  0  0  0
  8 24  1  0  0  0  0
  9 24  2  0  0  0  0
 10 25  1  0  0  0  0
 11 12  2  0  0  0  0
 11 26  1  0  0  0  0
 12 27  1  0  0  0  0
 13 22  1  0  0  0  0
 13 25  2  0  0  0  0
 14 23  2  0  0  0  0
 14 30  1  0  0  0  0
 15 23  1  0  0  0  0
 15 31  2  0  0  0  0
 16 27  2  0  0  0  0
 16 28  1  0  0  0  0
 17 29  1  0  0  0  0
 18 29  1  0  0  0  0
 18 32  2  0  0  0  0
 18 33  1  0  0  0  0
 19 21  2  0  0  0  0
 19 38  1  0  0  0  0
 20 22  2  0  0  0  0
 20 39  1  0  0  0  0
 21 47  1  0  0  0  0
 22 40  1  0  0  0  0
 23 50  1  0  0  0  0
 24 82  1  0  0  0  0
 25 83  1  0  0  0  0
 26 28  2  0  0  0  0
 26 82  1  0  0  0  0
 27 84  1  0  0  0  0
 28 85  1  0  0  0  0
 29 66  2  0  0  0  0
 30 58  1  0  0  0  0
 30 67  2  0  0  0  0
 31 61  1  0  0  0  0
 31 67  1  0  0  0  0
 32 68  1  0  0  0  0
 32 71  1  0  0  0  0
 33 72  1  0  0  0  0
 33 77  2  0  0  0  0
 34 48  1  0  0  0  0
 34 73  1  0  0  0  0
 34 78  2  0  0  0  0
 35 62  1  0  0  0  0
 35 69  1  0  0  0  0
 35 79  2  0  0  0  0
 36 63  1  0  0  0  0
 36 74  1  0  0  0  0
 36 80  2  0  0  0  0
 37 70  1  0  0  0  0
 37 75  1  0  0  0  0
 37 81  2  0  0  0  0
 38 41  1  0  0  0  0
 39 48  1  0  0  0  0
 40 69  1  0  0  0  0
 41 43  1  0  0  0  0
 42 44  1  0  0  0  0
 42 45  1  0  0  0  0
 43 47  1  0  0  0  0
 44 49  1  0  0  0  0
 45 70  1  0  0  0  0
 46 49  1  0  0  0  0
 46 70  1  0  0  0  0
 47 73  1  0  0  0  0
 48 69  1  0  0  0  0
 49 68  1  0  0  0  0
 51 61  1  0  0  0  0
 52 63  1  0  0  0  0
 53 64  1  0  0  0  0
 54 65  1  0  0  0  0
 55 65  1  0  0  0  0
 56 65  1  0  0  0  0
 57 76  1  0  0  0  0
 58 64  1  0  0  0  0
 59 61  1  0  0  0  0
 59 75  1  0  0  0  0
 60 64  1  0  0  0  0
 60 83  1  0  0  0  0
 62 65  1  0  0  0  0
 62 74  1  0  0  0  0
 63 76  1  0  0  0  0
 66 68  1  0  0  0  0
M  CHG  1  76   1
M  ISO  4  37 100  60 101  75 100  83 101
M  END
> <Batch ID>
0079

> <Smiles>
CNC(C)C(=O)NC(C(=O)N1Cc2cc([101O:1][101CH2:1]C(C)Cc3cc(C)cc(C(C)C[100NH:0][100C:0](=O)N4CCCC(n5nc(-c6ccc(Oc7ccc(F)cc7F)cc6)c(C(N)=O)c5N)C4)n3)ccc2CC1C(=O)NC1CCCc2ccccc21)C(C)(C)C

> <Shape>
0.222

> <Color>
0.056

> <Negative vol penalty>
0.000

$$$$

  -OEChem-04052318413D

 91100  0     1  0  0  0  0  0999 V2000
  -32.2817  -26.0561   21.7545 C   0  0  0  0  0  0  0  0  0  0  0  0
  -31.2124  -25.2538   21.3694 C   0  0  0  0  0  0  0  0  0  0  0  0
  -23.7557  -10.0075   22.2500 C   0  0  0  0  0  0  0  0  0  0  0  0
  -24.3172  -11.5013   24.0639 C   0  0  0  0  0  0  0  0  0  0  0  0
  -32.1258  -26.9717   22.7943 C   0  0  0  0  0  0  0  0  0  0  0  0
  -29.9867  -25.3659   22.0248 C   0  0  0  0  0  0  0  0  0  0  0  0
  -26.0692  -25.4516   18.8169 C   0  0  0  0  0  0  0  0  0  0  0  0
  -27.7683  -18.6984   20.9948 C   0  0  0  0  0  0  0  0  0  0  0  0
  -23.2144   -9.1024   23.1629 C   0  0  0  0  0  0  0  0  0  0  0  0
  -23.7759  -10.5962   24.9768 C   0  0  0  0  0  0  0  0  0  0  0  0
  -25.6611  -24.2325   18.2775 C   0  0  0  0  0  0  0  0  0  0  0  0
  -20.3523   -8.7574   24.9298 C   0  0  0  0  0  0  0  0  0  0  0  0
  -19.1179   -8.1857   24.6216 C   0  0  0  0  0  0  0  0  0  0  0  0
  -26.6198  -18.6103   20.2159 C   0  0  0  0  0  0  0  0  0  0  0  0
  -23.8658  -24.1290   19.8855 C   0  0  0  0  0  0  0  0  0  0  0  0
  -30.5679  -17.8144   22.4808 C   0  0  0  0  0  0  0  0  0  0  0  0
  -20.1220   -5.9889   24.6751 C   0  0  0  0  0  0  0  0  0  0  0  0
  -32.5069  -17.5840   21.1229 C   0  0  0  0  0  0  0  0  0  0  0  0
  -24.3071  -11.2070   22.7005 C   0  0  0  0  0  0  0  0  0  0  0  0
  -24.1966  -13.1916   21.1015 C   0  0  0  0  0  0  0  0  0  0  0  0
  -30.8947  -27.1020   23.4563 C   0  0  0  0  0  0  0  0  0  0  0  0
  -25.3841  -26.0142   19.9034 C   0  0  0  0  0  0  0  0  0  0  0  0
  -29.8145  -26.2832   23.0753 C   0  0  0  0  0  0  0  0  0  0  0  0
  -24.2657  -25.3566   20.4351 C   0  0  0  0  0  0  0  0  0  0  0  0
  -28.0574  -19.8814   21.6658 C   0  0  0  0  0  0  0  0  0  0  0  0
  -31.6213  -17.0262   22.0308 C   0  0  0  0  0  0  0  0  0  0  0  0
  -30.4342  -19.1179   22.0156 C   0  0  0  0  0  0  0  0  0  0  0  0
  -23.2245   -9.3968   24.5263 C   0  0  0  0  0  0  0  0  0  0  0  0
  -24.5610  -23.5695   18.8137 C   0  0  0  0  0  0  0  0  0  0  0  0
  -21.4716   -7.9449   25.1106 C   0  0  0  0  0  0  0  0  0  0  0  0
  -19.0027   -6.8015   24.4942 C   0  0  0  0  0  0  0  0  0  0  0  0
  -21.3564   -6.5606   24.9833 C   0  0  0  0  0  0  0  0  0  0  0  0
  -24.8669  -12.1421   21.7580 C   0  0  0  0  0  0  0  0  0  0  0  0
  -25.7997  -19.7246   20.1413 C   0  0  0  0  0  0  0  0  0  0  0  0
  -27.1730  -20.9389   21.5261 C   0  0  0  0  0  0  0  0  0  0  0  0
  -31.3731  -19.5821   21.1084 C   0  0  0  0  0  0  0  0  0  0  0  0
  -25.1611  -13.7794   20.3200 C   0  0  0  0  0  0  0  0  0  0  0  0
  -22.8247  -13.5988   21.1903 C   0  0  0  0  0  0  0  0  0  0  0  0
  -26.1575  -26.7783   22.8903 C   0  0  0  0  0  0  0  0  0  0  0  0
  -23.1711  -28.0441   22.9266 C   0  0  0  0  0  0  0  0  0  0  0  0
  -20.0157  -28.0614   21.6266 C   0  0  0  0  0  0  0  0  0  0  0  0
  -31.1295  -14.0438   20.7187 C   0  0  0  0  0  0  0  0  0  0  0  0
  -30.7878  -28.0724   24.6059 C   0  0  0  0  0  0  0  0  0  0  0  0
  -25.8207  -27.3431   20.4565 C   0  0  0  0  0  0  0  0  0  0  0  0
  -23.4837  -25.9282   21.5885 C   0  0  0  0  0  0  0  0  0  0  0  0
  -29.3484  -28.3935   25.0000 C   0  0  0  0  0  0  0  0  0  0  0  0
  -29.2200  -12.7763   17.9941 C   0  0  0  0  0  0  0  0  0  0  0  0
  -28.5235  -27.1141   25.0974 C   0  0  0  0  0  0  0  0  0  0  0  0
  -27.8273  -12.5647   18.5905 C   0  0  0  0  0  0  0  0  0  0  0  0
  -30.3207  -12.4520   19.0017 C   0  0  0  0  0  0  0  0  0  0  0  0
  -28.8139  -12.9457   20.8884 C   0  0  0  0  0  0  0  0  0  0  0  0
  -28.4621  -26.3930   23.7455 C   0  0  1  0  0  0  0  0  0  0  0  0
  -25.3617  -27.5722   21.8933 C   0  0  1  0  0  0  0  0  0  0  0  0
  -27.6703  -13.3136   19.9276 C   0  0  2  0  0  0  0  0  0  0  0  0
  -27.4308  -22.2328   22.2262 C   0  0  0  0  0  0  0  0  0  0  0  0
  -32.1923  -21.1952   19.3725 C   0  0  0  0  0  0  0  0  0  0  0  0
  -17.7841  -29.1795   21.8866 C   0  0  0  0  0  0  0  0  0  0  0  0
  -22.6322  -26.3817   25.4277 C   0  0  0  0  0  0  0  0  0  0  0  0
  -20.1853  -26.7864   25.0848 C   0  0  0  0  0  0  0  0  0  0  0  0
  -21.7188  -28.7085   25.5049 C   0  0  0  0  0  0  0  0  0  0  0  0
  -20.0977  -29.1262   18.8665 C   0  0  0  0  0  0  0  0  0  0  0  0
  -29.2869  -19.9823   22.5006 C   0  0  0  0  0  0  0  0  0  0  0  0
  -31.7928  -15.6286   22.5097 C   0  0  0  0  0  0  0  0  0  0  0  0
  -24.5451  -19.6638   19.3072 C   0  0  0  0  0  0  0  0  0  0  0  0
  -31.2800  -20.9744   20.5752 C   0  0  0  0  0  0  0  0  0  0  0  0
  -24.7505  -20.0947   17.8533 C   0  0  0  0  0  0  0  0  0  0  0  0
  -25.1696  -21.5531   17.7093 C   0  0  0  0  0  0  0  0  0  1  0  0
  -21.7950  -27.5275   23.2708 C   0  0  1  0  0  0  0  0  0  0  0  0
  -19.1227  -29.1988   21.1649 C   0  0  2  0  0  0  0  0  0  0  0  0
  -21.5985  -27.3390   24.8016 C   0  0  0  0  0  0  0  0  0  0  0  0
  -32.4096  -18.8461   20.6484 N   0  0  0  0  0  0  0  0  0  0  0  0
  -26.1575  -12.0650   21.4226 N   0  0  0  0  0  0  0  0  0  0  0  0
  -26.0476  -20.8908   20.7786 N   0  0  0  0  0  0  0  0  0  0  0  0
  -26.3058  -13.0735   20.5468 N   0  0  0  0  0  0  0  0  0  0  0  0
  -23.9536  -27.2269   22.0986 N   0  0  0  0  0  0  0  0  0  0  0  0
  -30.1142  -13.1956   20.2468 N   0  0  0  0  0  0  0  0  0  0  0  0
  -25.1331  -14.8260   19.4678 N   0  0  0  0  0  0  0  0  0  0  0  0
  -21.9697  -12.8855   22.0414 N   0  0  0  0  0  0  0  0  0  0  0  0
  -27.5133  -27.0443   22.8680 N   0  0  0  0  0  0  0  0  0  0  0  0
  -20.8469  -28.4501   22.6558 N   0  0  0  0  0  0  0  0  0  0  0  0
  -30.8499  -14.7160   21.9023 N   0  0  0  0  0  0  0  0  0  0  0  0
  -18.8684  -29.0959   19.7001 N   0  3  0  0  0  0  0  0  0  0  0  0
  -22.3667  -14.5564   20.5218 O   0  0  0  0  0  0  0  0  0  0  0  0
  -25.5837  -25.9843   23.6266 O   0  0  0  0  0  0  0  0  0  0  0  0
  -23.5354  -29.1361   23.3700 O   0  0  0  0  0  0  0  0  0  0  0  0
  -19.9769  -26.9391   21.1270 O   0  0  0  0  0  0  0  0  0  0  0  0
  -32.2033  -14.1952   20.1263 O   0  0  0  0  0  0  0  0  0  0  0  0
  -22.6962   -8.5139   25.4174 O   0  0  0  0  0  0  0  0  0  0  0  0
  -24.1610  -22.3791   18.2896 O   0  0  0  0  0  0  0  0  0  1  0  0
  -17.8169   -6.2525   24.1998 F   0  0  0  0  0  0  0  0  0  0  0  0
  -22.4279   -5.7748   25.1570 F   0  0  0  0  0  0  0  0  0  0  0  0
  1  2  1  0  0  0  0
  1  5  2  0  0  0  0
  2  6  2  0  0  0  0
  3  9  2  0  0  0  0
  3 19  1  0  0  0  0
  4 10  1  0  0  0  0
  4 19  2  0  0  0  0
  5 21  1  0  0  0  0
  6 23  1  0  0  0  0
  7 11  2  0  0  0  0
  7 22  1  0  0  0  0
  8 14  2  0  0  0  0
  8 25  1  0  0  0  0
  9 28  1  0  0  0  0
 10 28  2  0  0  0  0
 11 29  1  0  0  0  0
 12 13  2  0  0  0  0
 12 30  1  0  0  0  0
 13 31  1  0  0  0  0
 14 34  1  0  0  0  0
 15 24  1  0  0  0  0
 15 29  2  0  0  0  0
 16 26  2  0  0  0  0
 16 27  1  0  0  0  0
 17 31  2  0  0  0  0
 17 32  1  0  0  0  0
 18 26  1  0  0  0  0
 18 71  2  0  0  0  0
 19 33  1  0  0  0  0
 20 33  1  0  0  0  0
 20 37  2  0  0  0  0
 20 38  1  0  0  0  0
 21 23  2  0  0  0  0
 21 43  1  0  0  0  0
 22 24  2  0  0  0  0
 22 44  1  0  0  0  0
 23 52  1  0  0  0  0
 24 45  1  0  0  0  0
 25 35  2  0  0  0  0
 25 62  1  0  0  0  0
 26 63  1  0  0  0  0
 27 36  2  0  0  0  0
 27 62  1  0  0  0  0
 28 88  1  0  0  0  0
 29 89  1  0  0  0  0
 30 32  2  0  0  0  0
 30 88  1  0  0  0  0
 31 90  1  0  0  0  0
 32 91  1  0  0  0  0
 33 72  2  0  0  0  0
 34 64  1  0  0  0  0
 34 73  2  0  0  0  0
 35 55  1  0  0  0  0
 35 73  1  0  0  0  0
 36 65  1  0  0  0  0
 36 71  1  0  0  0  0
 37 74  1  0  0  0  0
 37 77  1  0  0  0  0
 38 78  1  0  0  0  0
 38 83  2  0  0  0  0
 39 53  1  0  0  0  0
 39 79  1  0  0  0  0
 39 84  2  0  0  0  0
 40 68  1  0  0  0  0
 40 75  1  0  0  0  0
 40 85  2  0  0  0  0
 41 69  1  0  0  0  0
 41 80  1  0  0  0  0
 41 86  2  0  0  0  0
 42 76  1  0  0  0  0
 42 81  1  0  0  0  0
 42 87  2  0  0  0  0
 43 46  1  0  0  0  0
 44 53  1  0  0  0  0
 45 75  1  0  0  0  0
 46 48  1  0  0  0  0
 47 49  1  0  0  0  0
 47 50  1  0  0  0  0
 48 52  1  0  0  0  0
 49 54  1  0  0  0  0
 50 76  1  0  0  0  0
 51 54  1  0  0  0  0
 51 76  1  0  0  0  0
 52 79  1  0  0  0  0
 53 75  1  0  0  0  0
 54 74  1  0  0  0  0
 56 65  1  0  0  0  0
 57 69  1  0  0  0  0
 58 70  1  0  0  0  0
 59 70  1  0  0  0  0
 60 70  1  0  0  0  0
 61 82  1  0  0  0  0
 63 81  1  0  0  0  0
 64 66  1  0  0  0  0
 66 67  1  0  0  0  0
 67 89  1  0  0  0  0
 68 70  1  0  0  0  0
 68 80  1  0  0  0  0
 69 82  1  0  0  0  0
 72 74  1  0  0  0  0
M  CHG  1  82   1
M  ISO  4  42 100  67 101  81 100  89 101
M  END
> <Batch ID>
0079

> <Smiles>
CCc1ncc(C[100NH:0][100C:0](=O)N2CCCC(n3nc(-c4ccc(Oc5ccc(F)cc5F)cc4)c(C(N)=O)c3N)C2)cc1Cc1ccc(CC[101CH2:1][101O:1]c2ccc3c(c2)CN(C(=O)C(NC(=O)C(C)NC)C(C)(C)C)C(C(=O)NC2CCCc4ccccc42)C3)nc1C

> <Shape>
0.213

> <Color>
0.130

> <Negative vol penalty>
0.000

$$$$

  -OEChem-04052318413D

 85 93  0     1  0  0  0  0  0999 V2000
  -33.2772  -29.1969   16.7739 C   0  0  0  0  0  0  0  0  0  0  0  0
  -32.2748  -28.2347   16.8430 C   0  0  0  0  0  0  0  0  0  0  0  0
  -24.4392   -8.6584   21.3596 C   0  0  0  0  0  0  0  0  0  0  0  0
  -23.2003  -10.7325   21.3777 C   0  0  0  0  0  0  0  0  0  0  0  0
  -33.5030  -30.0457   17.8566 C   0  0  0  0  0  0  0  0  0  0  0  0
  -31.4983  -28.1201   17.9956 C   0  0  0  0  0  0  0  0  0  0  0  0
  -25.5724  -26.6059   18.3067 C   0  0  0  0  0  0  0  0  0  0  0  0
  -23.6156   -8.1577   22.3678 C   0  0  0  0  0  0  0  0  0  0  0  0
  -22.3767  -10.2317   22.3860 C   0  0  0  0  0  0  0  0  0  0  0  0
  -24.9250  -25.4022   18.5820 C   0  0  0  0  0  0  0  0  0  0  0  0
  -20.5177   -6.8268   22.6224 C   0  0  0  0  0  0  0  0  0  0  0  0
  -20.0368   -5.5253   22.4799 C   0  0  0  0  0  0  0  0  0  0  0  0
  -24.6900  -26.0634   20.8899 C   0  0  0  0  0  0  0  0  0  0  0  0
  -21.1290   -4.8961   24.5411 C   0  0  0  0  0  0  0  0  0  0  0  0
  -27.4045  -19.2715   21.3038 C   0  0  0  0  0  0  0  0  0  0  0  0
  -24.2316   -9.9459   20.8646 C   0  0  0  0  0  0  0  0  0  0  0  0
  -24.8853  -10.3587   18.4336 C   0  0  0  0  0  0  0  0  0  0  0  0
  -32.7225  -29.9479   19.0193 C   0  0  0  0  0  0  0  0  0  0  0  0
  -25.7935  -27.5443   19.3250 C   0  0  0  0  0  0  0  0  0  0  0  0
  -31.7148  -28.9675   19.0954 C   0  0  0  0  0  0  0  0  0  0  0  0
  -25.3382  -27.2794   20.6244 C   0  0  0  0  0  0  0  0  0  0  0  0
  -22.5844   -8.9443   22.8810 C   0  0  0  0  0  0  0  0  0  0  0  0
  -24.4863  -25.1295   19.8744 C   0  0  0  0  0  0  0  0  0  0  0  0
  -21.3043   -7.1630   23.7242 C   0  0  0  0  0  0  0  0  0  0  0  0
  -20.3424   -4.5600   23.4393 C   0  0  0  0  0  0  0  0  0  0  0  0
  -21.6099   -6.1977   24.6836 C   0  0  0  0  0  0  0  0  0  0  0  0
  -25.0823  -10.4640   19.8235 C   0  0  0  0  0  0  0  0  0  0  0  0
  -27.2709  -18.0795   20.6264 C   0  0  0  0  0  0  0  0  0  0  0  0
  -25.0885  -17.9436   21.2962 C   0  0  0  0  0  0  0  0  0  0  0  0
  -25.2225  -19.1352   21.9742 C   0  0  0  0  0  0  0  0  0  0  0  0
  -25.9633  -11.0084   17.8838 C   0  0  0  0  0  0  0  0  0  0  0  0
  -23.8228   -9.7299   17.7046 C   0  0  0  0  0  0  0  0  0  0  0  0
  -28.3707  -28.8384   20.6618 C   0  0  0  0  0  0  0  0  0  0  0  0
  -26.1757  -30.6585   22.2083 C   0  0  0  0  0  0  0  0  0  0  0  0
  -22.9715  -31.0037   23.3311 C   0  0  0  0  0  0  0  0  0  0  0  0
  -29.5957  -15.3156   19.9098 C   0  0  0  0  0  0  0  0  0  0  0  0
  -33.0350  -30.8562   20.1821 C   0  0  0  0  0  0  0  0  0  0  0  0
  -26.4696  -28.8495   19.0060 C   0  0  0  0  0  0  0  0  0  0  0  0
  -25.5329  -28.2624   21.7488 C   0  0  0  0  0  0  0  0  0  0  0  0
  -31.9207  -30.9178   21.2235 C   0  0  0  0  0  0  0  0  0  0  0  0
  -30.5417  -12.0778   18.7703 C   0  0  0  0  0  0  0  0  0  0  0  0
  -31.4239  -29.5147   21.5575 C   0  0  0  0  0  0  0  0  0  0  0  0
  -29.2320  -11.2875   18.7855 C   0  0  0  0  0  0  0  0  0  0  0  0
  -30.6213  -13.0608   19.9362 C   0  0  0  0  0  0  0  0  0  0  0  0
  -28.1636  -13.1893   20.0664 C   0  0  0  0  0  0  0  0  0  0  0  0
  -30.8351  -28.8286   20.3190 C   0  0  1  0  0  0  0  0  0  0  0  0
  -27.0988  -29.5109   20.2283 C   0  0  1  0  0  0  0  0  0  0  0  0
  -28.0128  -12.2246   18.8777 C   0  0  2  0  0  0  0  0  0  0  0  0
  -23.7991  -17.1960   21.2861 C   0  0  0  0  0  0  0  0  0  0  0  0
  -27.2259  -17.6579   17.6120 C   0  0  0  0  0  0  0  0  0  0  0  0
  -21.4862  -32.5837   24.5940 C   0  0  0  0  0  0  0  0  0  0  0  0
  -27.4930  -29.8024   24.8240 C   0  0  0  0  0  0  0  0  0  0  0  0
  -25.4521  -30.6032   26.0330 C   0  0  0  0  0  0  0  0  0  0  0  0
  -26.8380  -32.2140   24.7262 C   0  0  0  0  0  0  0  0  0  0  0  0
  -21.1512  -31.3235   21.0196 C   0  0  0  0  0  0  0  0  0  0  0  0
  -24.0710  -19.7391   22.7379 C   0  0  0  0  0  0  0  0  0  0  0  0
  -28.4810  -17.9874   18.4107 C   0  0  0  0  0  0  0  0  0  0  0  0
  -24.0881  -21.2713   22.7747 C   0  0  0  0  0  0  0  0  0  0  0  0
  -23.9463  -21.9050   21.3901 C   0  0  0  0  0  0  0  0  0  0  0  0
  -24.0075  -23.4247   21.4619 C   0  0  0  0  0  0  0  0  0  1  0  0
  -28.4219  -17.5019   19.8797 C   0  0  2  0  0  0  0  0  0  0  0  0
  -25.4017  -30.5342   23.4985 C   0  0  1  0  0  0  0  0  0  0  0  0
  -21.9847  -32.1522   23.2236 C   0  0  2  0  0  0  0  0  0  0  0  0
  -26.2941  -30.7689   24.7499 C   0  0  0  0  0  0  0  0  0  0  0  0
  -26.3828  -19.8207   21.9899 N   0  0  0  0  0  0  0  0  0  0  0  0
  -26.1979  -11.1282   20.1373 N   0  0  0  0  0  0  0  0  0  0  0  0
  -26.1104  -17.3942   20.6104 N   0  0  0  0  0  0  0  0  0  0  0  0
  -26.7116  -11.4460   18.9368 N   0  0  0  0  0  0  0  0  0  0  0  0
  -26.2049  -29.5217   21.3881 N   0  0  0  0  0  0  0  0  0  0  0  0
  -29.4361  -13.9212   19.9660 N   0  0  0  0  0  0  0  0  0  0  0  0
  -26.3348  -11.2422   16.6072 N   0  0  0  0  0  0  0  0  0  0  0  0
  -22.7943   -9.1083   18.4258 N   0  0  0  0  0  0  0  0  0  0  0  0
  -29.5056  -29.3315   20.0467 N   0  0  0  0  0  0  0  0  0  0  0  0
  -24.2739  -31.4530   23.3880 N   0  0  0  0  0  0  0  0  0  0  0  0
  -28.4210  -16.0571   19.9367 N   0  0  0  0  0  0  0  0  0  0  0  0
  -20.8090  -31.7496   22.4011 N   0  3  0  0  0  0  0  0  0  0  0  0
  -23.7951   -9.7052   16.4507 O   0  0  0  0  0  0  0  0  0  0  0  0
  -28.3259  -27.9398   21.4938 O   0  0  0  0  0  0  0  0  0  0  0  0
  -26.7278  -31.7271   21.9349 O   0  0  0  0  0  0  0  0  0  0  0  0
  -22.6217  -29.8260   23.3653 O   0  0  0  0  0  0  0  0  0  0  0  0
  -30.7029  -15.8592   19.8354 O   0  0  0  0  0  0  0  0  0  0  0  0
  -21.7804   -8.4558   23.8647 O   0  0  0  0  0  0  0  0  0  0  0  0
  -23.8548  -23.9551   20.1460 O   0  0  0  0  0  0  0  0  0  1  0  0
  -19.8792   -3.3105   23.3031 F   0  0  0  0  0  0  0  0  0  0  0  0
  -22.3641   -6.5150   25.7448 F   0  0  0  0  0  0  0  0  0  0  0  0
  1  2  1  0  0  0  0
  1  5  2  0  0  0  0
  2  6  2  0  0  0  0
  3  8  2  0  0  0  0
  3 16  1  0  0  0  0
  4  9  1  0  0  0  0
  4 16  2  0  0  0  0
  5 18  1  0  0  0  0
  6 20  1  0  0  0  0
  7 10  2  0  0  0  0
  7 19  1  0  0  0  0
  8 22  1  0  0  0  0
  9 22  2  0  0  0  0
 10 23  1  0  0  0  0
 11 12  2  0  0  0  0
 11 24  1  0  0  0  0
 12 25  1  0  0  0  0
 13 21  1  0  0  0  0
 13 23  2  0  0  0  0
 14 25  2  0  0  0  0
 14 26  1  0  0  0  0
 15 28  1  0  0  0  0
 15 65  2  0  0  0  0
 16 27  1  0  0  0  0
 17 27  1  0  0  0  0
 17 31  2  0  0  0  0
 17 32  1  0  0  0  0
 18 20  2  0  0  0  0
 18 37  1  0  0  0  0
 19 21  2  0  0  0  0
 19 38  1  0  0  0  0
 20 46  1  0  0  0  0
 21 39  1  0  0  0  0
 22 82  1  0  0  0  0
 23 83  1  0  0  0  0
 24 26  2  0  0  0  0
 24 82  1  0  0  0  0
 25 84  1  0  0  0  0
 26 85  1  0  0  0  0
 27 66  2  0  0  0  0
 28 61  1  0  0  0  0
 28 67  2  0  0  0  0
 29 30  2  0  0  0  0
 29 49  1  0  0  0  0
 29 67  1  0  0  0  0
 30 56  1  0  0  0  0
 30 65  1  0  0  0  0
 31 68  1  0  0  0  0
 31 71  1  0  0  0  0
 32 72  1  0  0  0  0
 32 77  2  0  0  0  0
 33 47  1  0  0  0  0
 33 73  1  0  0  0  0
 33 78  2  0  0  0  0
 34 62  1  0  0  0  0
 34 69  1  0  0  0  0
 34 79  2  0  0  0  0
 35 63  1  0  0  0  0
 35 74  1  0  0  0  0
 35 80  2  0  0  0  0
 36 70  1  0  0  0  0
 36 75  1  0  0  0  0
 36 81  2  0  0  0  0
 37 40  1  0  0  0  0
 38 47  1  0  0  0  0
 39 69  1  0  0  0  0
 40 42  1  0  0  0  0
 41 43  1  0  0  0  0
 41 44  1  0  0  0  0
 42 46  1  0  0  0  0
 43 48  1  0  0  0  0
 44 70  1  0  0  0  0
 45 48  1  0  0  0  0
 45 70  1  0  0  0  0
 46 73  1  0  0  0  0
 47 69  1  0  0  0  0
 48 68  1  0  0  0  0
 50 57  1  0  0  0  0
 51 63  1  0  0  0  0
 52 64  1  0  0  0  0
 53 64  1  0  0  0  0
 54 64  1  0  0  0  0
 55 76  1  0  0  0  0
 56 58  1  0  0  0  0
 57 61  1  0  0  0  0
 58 59  1  0  0  0  0
 59 60  1  0  0  0  0
 60 83  1  0  0  0  0
 61 75  1  0  0  0  0
 62 64  1  0  0  0  0
 62 74  1  0  0  0  0
 63 76  1  0  0  0  0
 66 68  1  0  0  0  0
M  CHG  1  76   1
M  ISO  4  36 100  60 101  75 100  83 101
M  END
> <Batch ID>
0079

> <Smiles>
CCC([100NH:0][100C:0](=O)N1CCCC(n2nc(-c3ccc(Oc4ccc(F)cc4F)cc3)c(C(N)=O)c2N)C1)c1cnc(CCC[101CH2:1][101O:1]c2ccc3c(c2)CN(C(=O)C(NC(=O)C(C)NC)C(C)(C)C)C(C(=O)NC2CCCc4ccccc42)C3)c(C)n1

> <Shape>
0.240

> <Color>
0.080

> <Negative vol penalty>
0.000

$$$$

  -OEChem-04052318413D

 88 96  0     1  0  0  0  0  0999 V2000
  -24.9753  -19.9343   25.3249 C   0  0  0  0  0  0  0  0  0  0  0  0
  -25.4264  -20.7609   24.3008 C   0  0  0  0  0  0  0  0  0  0  0  0
  -26.5231  -12.1367   21.0277 C   0  0  0  0  0  0  0  0  0  0  0  0
  -26.1176  -14.3778   20.2213 C   0  0  0  0  0  0  0  0  0  0  0  0
  -23.7787  -20.2257   25.9784 C   0  0  0  0  0  0  0  0  0  0  0  0
  -24.6805  -21.8789   23.9290 C   0  0  0  0  0  0  0  0  0  0  0  0
  -27.5484  -26.0037   23.2921 C   0  0  0  0  0  0  0  0  0  0  0  0
  -25.1681  -11.8392   20.8822 C   0  0  0  0  0  0  0  0  0  0  0  0
  -24.7626  -14.0803   20.0758 C   0  0  0  0  0  0  0  0  0  0  0  0
  -28.2711  -26.0995   22.1036 C   0  0  0  0  0  0  0  0  0  0  0  0
  -22.2976  -12.4098   22.5731 C   0  0  0  0  0  0  0  0  0  0  0  0
  -21.6684  -11.7302   23.6161 C   0  0  0  0  0  0  0  0  0  0  0  0
  -26.5912  -27.5816   21.2087 C   0  0  0  0  0  0  0  0  0  0  0  0
  -21.1242   -9.9216   22.1094 C   0  0  0  0  0  0  0  0  0  0  0  0
  -30.7463  -22.3754   20.0499 C   0  0  0  0  0  0  0  0  0  0  0  0
  -26.9978  -13.4060   20.6973 C   0  0  0  0  0  0  0  0  0  0  0  0
  -29.4119  -13.5516   19.8856 C   0  0  0  0  0  0  0  0  0  0  0  0
  -23.0226  -21.3532   25.6208 C   0  0  0  0  0  0  0  0  0  0  0  0
  -26.3343  -26.6887   23.4440 C   0  0  0  0  0  0  0  0  0  0  0  0
  -23.4720  -22.1849   24.5774 C   0  0  0  0  0  0  0  0  0  0  0  0
  -25.8564  -27.4949   22.4010 C   0  0  0  0  0  0  0  0  0  0  0  0
  -24.2879  -12.8109   20.4062 C   0  0  0  0  0  0  0  0  0  0  0  0
  -27.7911  -26.8862   21.0606 C   0  0  0  0  0  0  0  0  0  0  0  0
  -22.3400  -11.8453   21.2982 C   0  0  0  0  0  0  0  0  0  0  0  0
  -21.0818  -10.4861   23.3843 C   0  0  0  0  0  0  0  0  0  0  0  0
  -21.7534  -10.6012   21.0664 C   0  0  0  0  0  0  0  0  0  0  0  0
  -28.3973  -13.7142   20.8479 C   0  0  0  0  0  0  0  0  0  0  0  0
  -30.0319  -23.0019   19.0492 C   0  0  0  0  0  0  0  0  0  0  0  0
  -30.1404  -21.2718   20.6148 C   0  0  0  0  0  0  0  0  0  0  0  0
  -30.5537  -13.9852   20.5140 C   0  0  0  0  0  0  0  0  0  0  0  0
  -28.3346  -21.5038   19.2537 C   0  0  0  0  0  0  0  0  0  0  0  0
  -29.3296  -13.0534   18.5437 C   0  0  0  0  0  0  0  0  0  0  0  0
  -23.3173  -25.8220   23.9446 C   0  0  0  0  0  0  0  0  0  0  0  0
  -22.8511  -29.0212   24.2085 C   0  0  0  0  0  0  0  0  0  0  0  0
  -23.9108  -32.1757   23.4512 C   0  0  0  0  0  0  0  0  0  0  0  0
  -31.5259  -17.7840   25.0389 C   0  0  0  0  0  0  0  0  0  0  0  0
  -21.7116  -21.6009   26.3241 C   0  0  0  0  0  0  0  0  0  0  0  0
  -25.5802  -26.5962   24.7421 C   0  0  0  0  0  0  0  0  0  0  0  0
  -24.5685  -28.2664   22.5214 C   0  0  0  0  0  0  0  0  0  0  0  0
  -21.1697  -23.0137   26.1225 C   0  0  0  0  0  0  0  0  0  0  0  0
  -32.5211  -14.3703   24.8581 C   0  0  0  0  0  0  0  0  0  0  0  0
  -21.2505  -23.4117   24.6522 C   0  0  0  0  0  0  0  0  0  0  0  0
  -31.6686  -13.8004   23.7230 C   0  0  0  0  0  0  0  0  0  0  0  0
  -31.7506  -15.4016   25.6795 C   0  0  0  0  0  0  0  0  0  0  0  0
  -30.2984  -15.9264   23.7587 C   0  0  0  0  0  0  0  0  0  0  0  0
  -22.7035  -23.4206   24.1620 C   0  0  1  0  0  0  0  0  0  0  0  0
  -24.0981  -26.9276   24.5971 C   0  0  1  0  0  0  0  0  0  0  0  0
  -31.0506  -14.9229   22.8679 C   0  0  2  0  0  0  0  0  0  0  0  0
  -26.9969  -21.0170   18.8095 C   0  0  0  0  0  0  0  0  0  0  0  0
  -32.3695  -20.4477   21.4575 C   0  0  0  0  0  0  0  0  0  0  0  0
  -23.3027  -34.5888   23.7746 C   0  0  0  0  0  0  0  0  0  0  0  0
  -28.0658  -25.8787   17.8109 C   0  0  0  0  0  0  0  0  0  0  0  0
  -20.6622  -28.7497   22.1002 C   0  0  0  0  0  0  0  0  0  0  0  0
  -20.7603  -31.2308   21.7792 C   0  0  0  0  0  0  0  0  0  0  0  0
  -20.1031  -30.2863   23.9925 C   0  0  0  0  0  0  0  0  0  0  0  0
  -30.8646  -22.4491   23.4620 C   0  0  0  0  0  0  0  0  0  0  0  0
  -28.9561  -20.8441   23.4286 C   0  0  0  0  0  0  0  0  0  0  0  0
  -26.4314  -32.7372   24.8969 C   0  0  0  0  0  0  0  0  0  0  0  0
  -30.6125  -24.2169   18.3706 C   0  0  0  0  0  0  0  0  0  0  0  0
  -30.2366  -25.5431   19.0475 C   0  0  0  0  0  0  0  0  0  0  0  0
  -31.2121  -20.1222   24.2687 C   0  0  0  0  0  0  0  0  0  0  0  0
  -30.8377  -20.5274   21.7038 C   0  0  1  0  0  0  0  0  0  0  0  0
  -22.5143  -30.1354   23.2471 C   0  0  1  0  0  0  0  0  0  0  0  0
  -24.0974  -33.4101   24.3148 C   0  0  2  0  0  0  0  0  0  0  0  0
  -28.7257  -25.7706   19.1797 C   0  0  1  0  0  0  0  0  0  1  0  0
  -21.0333  -30.0846   22.7764 C   0  0  0  0  0  0  0  0  0  0  0  0
  -30.4805  -20.9771   23.1937 C   0  0  0  0  0  0  0  0  0  0  0  0
  -28.8543  -14.2120   22.0000 N   0  0  0  0  0  0  0  0  0  0  0  0
  -28.8189  -22.5915   18.6245 N   0  0  0  0  0  0  0  0  0  0  0  0
  -28.9306  -20.8067   20.2398 N   0  0  0  0  0  0  0  0  0  0  0  0
  -30.1686  -14.3659   21.7658 N   0  0  0  0  0  0  0  0  0  0  0  0
  -23.8643  -28.1387   23.8080 N   0  0  0  0  0  0  0  0  0  0  0  0
  -31.1916  -16.4391   24.8094 N   0  0  0  0  0  0  0  0  0  0  0  0
  -31.8394  -14.0741   20.1123 N   0  0  0  0  0  0  0  0  0  0  0  0
  -28.0788  -12.6508   18.0560 N   0  0  0  0  0  0  0  0  0  0  0  0
  -23.3824  -24.6156   24.6153 N   0  0  0  0  0  0  0  0  0  0  0  0
  -22.8866  -31.3776   23.9154 N   0  0  0  0  0  0  0  0  0  0  0  0
  -30.9580  -18.7026   24.1646 N   0  0  0  0  0  0  0  0  0  0  0  0
  -25.5361  -33.7958   24.3630 N   0  3  0  0  0  0  0  0  0  0  0  0
  -30.3382  -12.9524   17.8048 O   0  0  0  0  0  0  0  0  0  0  0  0
  -22.7003  -26.0472   22.9101 O   0  0  0  0  0  0  0  0  0  0  0  0
  -22.2427  -28.9413   25.2786 O   0  0  0  0  0  0  0  0  0  0  0  0
  -24.6017  -31.9445   22.4614 O   0  0  0  0  0  0  0  0  0  0  0  0
  -32.2791  -18.1392   25.9518 O   0  0  0  0  0  0  0  0  0  0  0  0
  -22.9657  -12.5209   20.2639 O   0  0  0  0  0  0  0  0  0  0  0  0
  -28.4941  -26.9809   19.8993 O   0  0  0  0  0  0  0  0  0  1  0  0
  -20.4790   -9.8329   24.3864 F   0  0  0  0  0  0  0  0  0  0  0  0
  -21.7920  -10.0534   19.8440 F   0  0  0  0  0  0  0  0  0  0  0  0
  1  2  1  0  0  0  0
  1  5  2  0  0  0  0
  2  6  2  0  0  0  0
  3  8  2  0  0  0  0
  3 16  1  0  0  0  0
  4  9  1  0  0  0  0
  4 16  2  0  0  0  0
  5 18  1  0  0  0  0
  6 20  1  0  0  0  0
  7 10  2  0  0  0  0
  7 19  1  0  0  0  0
  8 22  1  0  0  0  0
  9 22  2  0  0  0  0
 10 23  1  0  0  0  0
 11 12  2  0  0  0  0
 11 24  1  0  0  0  0
 12 25  1  0  0  0  0
 13 21  1  0  0  0  0
 13 23  2  0  0  0  0
 14 25  2  0  0  0  0
 14 26  1  0  0  0  0
 15 28  1  0  0  0  0
 15 29  2  0  0  0  0
 16 27  1  0  0  0  0
 17 27  1  0  0  0  0
 17 30  2  0  0  0  0
 17 32  1  0  0  0  0
 18 20  2  0  0  0  0
 18 37  1  0  0  0  0
 19 21  2  0  0  0  0
 19 38  1  0  0  0  0
 20 46  1  0  0  0  0
 21 39  1  0  0  0  0
 22 85  1  0  0  0  0
 23 86  1  0  0  0  0
 24 26  2  0  0  0  0
 24 85  1  0  0  0  0
 25 87  1  0  0  0  0
 26 88  1  0  0  0  0
 27 68  2  0  0  0  0
 28 59  1  0  0  0  0
 28 69  2  0  0  0  0
 29 62  1  0  0  0  0
 29 70  1  0  0  0  0
 30 71  1  0  0  0  0
 30 74  1  0  0  0  0
 31 49  1  0  0  0  0
 31 69  1  0  0  0  0
 31 70  2  0  0  0  0
 32 75  1  0  0  0  0
 32 80  2  0  0  0  0
 33 47  1  0  0  0  0
 33 76  1  0  0  0  0
 33 81  2  0  0  0  0
 34 63  1  0  0  0  0
 34 72  1  0  0  0  0
 34 82  2  0  0  0  0
 35 64  1  0  0  0  0
 35 77  1  0  0  0  0
 35 83  2  0  0  0  0
 36 73  1  0  0  0  0
 36 78  1  0  0  0  0
 36 84  2  0  0  0  0
 37 40  1  0  0  0  0
 38 47  1  0  0  0  0
 39 72  1  0  0  0  0
 40 42  1  0  0  0  0
 41 43  1  0  0  0  0
 41 44  1  0  0  0  0
 42 46  1  0  0  0  0
 43 48  1  0  0  0  0
 44 73  1  0  0  0  0
 45 48  1  0  0  0  0
 45 73  1  0  0  0  0
 46 76  1  0  0  0  0
 47 72  1  0  0  0  0
 48 71  1  0  0  0  0
 50 62  1  0  0  0  0
 51 64  1  0  0  0  0
 52 65  1  0  0  0  0
 53 66  1  0  0  0  0
 54 66  1  0  0  0  0
 55 66  1  0  0  0  0
 56 67  1  0  0  0  0
 57 67  1  0  0  0  0
 58 79  1  0  0  0  0
 59 60  1  0  0  0  0
 60 65  1  0  0  0  0
 61 67  1  0  0  0  0
 61 78  1  0  0  0  0
 62 67  1  0  0  0  0
 63 66  1  0  0  0  0
 63 77  1  0  0  0  0
 64 79  1  0  0  0  0
 65 86  1  0  0  0  0
 68 71  1  0  0  0  0
M  CHG  1  79   1
M  ISO  4  36 100  65 101  78 100  86 101
M  END
> <Batch ID>
0079

> <Smiles>
CNC(C)C(=O)NC(C(=O)N1Cc2cc([101O:1][101CH:1](C)CCc3cc(C(C)C(C)(C)C[100NH:0][100C:0](=O)N4CCCC(n5nc(-c6ccc(Oc7ccc(F)cc7F)cc6)c(C(N)=O)c5N)C4)nc(C)n3)ccc2CC1C(=O)NC1CCCc2ccccc21)C(C)(C)C

> <Shape>
0.242

> <Color>
0.090

> <Negative vol penalty>
0.000

$$$$

  -OEChem-04052318413D

 84 92  0     1  0  0  0  0  0999 V2000
  -19.4061   -8.4743   20.9370 C   0  0  0  0  0  0  0  0  0  0  0  0
  -19.5468   -9.8235   21.2458 C   0  0  0  0  0  0  0  0  0  0  0  0
  -26.1479  -27.9775   18.9393 C   0  0  0  0  0  0  0  0  0  0  0  0
  -26.7976  -28.5490   21.1950 C   0  0  0  0  0  0  0  0  0  0  0  0
  -20.5362   -7.6673   20.8123 C   0  0  0  0  0  0  0  0  0  0  0  0
  -20.8178  -10.3662   21.4312 C   0  0  0  0  0  0  0  0  0  0  0  0
  -22.6623  -16.0132   19.9428 C   0  0  0  0  0  0  0  0  0  0  0  0
  -25.0365  -28.8133   19.0476 C   0  0  0  0  0  0  0  0  0  0  0  0
  -25.6862  -29.3848   21.3033 C   0  0  0  0  0  0  0  0  0  0  0  0
  -22.8085  -17.1801   20.6917 C   0  0  0  0  0  0  0  0  0  0  0  0
  -22.3680  -29.0575   21.8631 C   0  0  0  0  0  0  0  0  0  0  0  0
  -21.6129  -28.9833   23.0335 C   0  0  0  0  0  0  0  0  0  0  0  0
  -25.1517  -16.6893   20.9880 C   0  0  0  0  0  0  0  0  0  0  0  0
  -25.8636  -16.4601   27.0711 C   0  0  0  0  0  0  0  0  0  0  0  0
  -22.0669  -31.3149   23.4744 C   0  0  0  0  0  0  0  0  0  0  0  0
  -27.0285  -27.8453   20.0130 C   0  0  0  0  0  0  0  0  0  0  0  0
  -29.4612  -27.3300   19.4438 C   0  0  0  0  0  0  0  0  0  0  0  0
  -21.8222   -8.2026   20.9867 C   0  0  0  0  0  0  0  0  0  0  0  0
  -23.7593  -15.1686   19.7198 C   0  0  0  0  0  0  0  0  0  0  0  0
  -21.9661   -9.5654   21.3100 C   0  0  0  0  0  0  0  0  0  0  0  0
  -25.0174  -15.5136   20.2338 C   0  0  0  0  0  0  0  0  0  0  0  0
  -27.0885  -16.4062   26.3612 C   0  0  0  0  0  0  0  0  0  0  0  0
  -24.8056  -29.5170   20.2296 C   0  0  0  0  0  0  0  0  0  0  0  0
  -24.0526  -17.5168   21.2168 C   0  0  0  0  0  0  0  0  0  0  0  0
  -22.9726  -30.2605   21.4983 C   0  0  0  0  0  0  0  0  0  0  0  0
  -21.4623  -30.1119   23.8392 C   0  0  0  0  0  0  0  0  0  0  0  0
  -22.8221  -31.3892   22.3040 C   0  0  0  0  0  0  0  0  0  0  0  0
  -28.1764  -26.9816   19.9019 C   0  0  0  0  0  0  0  0  0  0  0  0
  -25.2487  -17.6475   26.7407 C   0  0  0  0  0  0  0  0  0  0  0  0
  -27.1848  -17.5624   25.6188 C   0  0  0  0  0  0  0  0  0  0  0  0
  -30.1844  -26.1656   19.5314 C   0  0  0  0  0  0  0  0  0  0  0  0
  -29.9566  -28.5932   18.9806 C   0  0  0  0  0  0  0  0  0  0  0  0
  -24.4584  -12.1572   20.4591 C   0  0  0  0  0  0  0  0  0  0  0  0
  -27.0666  -12.7196   18.6143 C   0  0  0  0  0  0  0  0  0  0  0  0
  -29.2359  -14.9909   17.2794 C   0  0  0  0  0  0  0  0  0  0  0  0
  -29.5869  -21.4146   22.9848 C   0  0  0  0  0  0  0  0  0  0  0  0
  -23.0117   -7.2807   20.8884 C   0  0  0  0  0  0  0  0  0  0  0  0
  -23.5909  -13.9272   18.8873 C   0  0  0  0  0  0  0  0  0  0  0  0
  -26.2309  -14.6511   20.0058 C   0  0  0  0  0  0  0  0  0  0  0  0
  -24.3405   -8.0155   20.7313 C   0  0  0  0  0  0  0  0  0  0  0  0
  -29.6612  -21.4110   19.3666 C   0  0  0  0  0  0  0  0  0  0  0  0
  -24.4373   -9.1633   21.7312 C   0  0  0  0  0  0  0  0  0  0  0  0
  -29.4085  -22.8873   19.0557 C   0  0  0  0  0  0  0  0  0  0  0  0
  -28.8444  -20.9519   20.5708 C   0  0  0  0  0  0  0  0  0  0  0  0
  -28.8062  -23.2358   21.4961 C   0  0  0  0  0  0  0  0  0  0  0  0
  -23.3292  -10.1965   21.4941 C   0  0  1  0  0  0  0  0  0  0  0  0
  -24.6643  -12.8771   19.1564 C   0  0  1  0  0  0  0  0  0  0  0  0
  -29.6204  -23.7667   20.3022 C   0  0  2  0  0  0  0  0  0  0  0  0
  -28.0746  -15.3085   26.4128 C   0  0  0  0  0  0  0  0  0  0  0  0
  -23.9566  -18.2024   27.1939 C   0  0  0  0  0  0  0  0  0  0  0  0
  -31.2887  -15.1468   15.8445 C   0  0  0  0  0  0  0  0  0  0  0  0
  -28.7741  -11.7709   20.9582 C   0  0  0  0  0  0  0  0  0  0  0  0
  -30.7565  -12.8250   19.8504 C   0  0  0  0  0  0  0  0  0  0  0  0
  -29.5388  -10.9659   18.7174 C   0  0  0  0  0  0  0  0  0  0  0  0
  -27.8290  -16.6102   15.2404 C   0  0  0  0  0  0  0  0  0  0  0  0
  -28.2511  -18.0199   24.7023 C   0  0  0  0  0  0  0  0  0  0  0  0
  -29.2230  -19.0624   25.3034 C   0  0  0  0  0  0  0  0  0  0  0  0
  -24.7681  -19.5934   24.0819 C   0  0  0  0  0  0  0  0  0  0  0  0
  -25.7631  -19.6538   25.2429 C   0  0  0  0  0  0  0  0  0  0  0  0
  -30.3426  -19.4901   24.3568 C   0  0  0  0  0  0  0  0  0  0  0  0
  -25.1996  -18.6500   22.9651 C   0  0  0  0  0  0  0  0  0  1  0  0
  -28.4589  -13.2472   18.8637 C   0  0  1  0  0  0  0  0  0  0  0  0
  -29.7683  -15.1669   15.8687 C   0  0  2  0  0  0  0  0  0  0  0  0
  -29.3590  -12.2177   19.6035 C   0  0  0  0  0  0  0  0  0  0  0  0
  -28.0855  -25.6965   20.2542 N   0  0  0  0  0  0  0  0  0  0  0  0
  -26.0610  -18.3095   25.8575 N   0  0  0  0  0  0  0  0  0  0  0  0
  -29.3223  -25.2270   20.0173 N   0  0  0  0  0  0  0  0  0  0  0  0
  -26.0139  -13.4444   19.1908 N   0  0  0  0  0  0  0  0  0  0  0  0
  -29.1060  -21.8190   21.7284 N   0  0  0  0  0  0  0  0  0  0  0  0
  -31.4672  -25.8632   19.2392 N   0  0  0  0  0  0  0  0  0  0  0  0
  -29.0797  -29.6862   18.9554 N   0  0  0  0  0  0  0  0  0  0  0  0
  -23.6555  -11.0368   20.3619 N   0  0  0  0  0  0  0  0  0  0  0  0
  -28.9747  -13.6676   17.5654 N   0  0  0  0  0  0  0  0  0  0  0  0
  -29.8392  -20.0554   23.1247 N   0  0  0  0  0  0  0  0  0  0  0  0
  -29.3062  -16.4640   15.2987 N   0  3  0  0  0  0  0  0  0  0  0  0
  -31.1373  -28.7441   18.5848 O   0  0  0  0  0  0  0  0  0  0  0  0
  -24.9899  -12.5857   21.4768 O   0  0  0  0  0  0  0  0  0  0  0  0
  -26.9180  -11.7060   17.9271 O   0  0  0  0  0  0  0  0  0  0  0  0
  -29.0719  -15.9328   18.0518 O   0  0  0  0  0  0  0  0  0  0  0  0
  -29.7822  -22.2074   23.9124 O   0  0  0  0  0  0  0  0  0  0  0  0
  -23.7213  -30.3328   20.3356 O   0  0  0  0  0  0  0  0  0  0  0  0
  -24.1979  -18.6549   21.9487 O   0  0  0  0  0  0  0  0  0  1  0  0
  -20.7359  -30.0408   24.9623 F   0  0  0  0  0  0  0  0  0  0  0  0
  -23.3995  -32.5479   21.9581 F   0  0  0  0  0  0  0  0  0  0  0  0
  1  2  1  0  0  0  0
  1  5  2  0  0  0  0
  2  6  2  0  0  0  0
  3  8  2  0  0  0  0
  3 16  1  0  0  0  0
  4  9  1  0  0  0  0
  4 16  2  0  0  0  0
  5 18  1  0  0  0  0
  6 20  1  0  0  0  0
  7 10  2  0  0  0  0
  7 19  1  0  0  0  0
  8 23  1  0  0  0  0
  9 23  2  0  0  0  0
 10 24  1  0  0  0  0
 11 12  2  0  0  0  0
 11 25  1  0  0  0  0
 12 26  1  0  0  0  0
 13 21  1  0  0  0  0
 13 24  2  0  0  0  0
 14 22  1  0  0  0  0
 14 29  2  0  0  0  0
 15 26  2  0  0  0  0
 15 27  1  0  0  0  0
 16 28  1  0  0  0  0
 17 28  1  0  0  0  0
 17 31  2  0  0  0  0
 17 32  1  0  0  0  0
 18 20  2  0  0  0  0
 18 37  1  0  0  0  0
 19 21  2  0  0  0  0
 19 38  1  0  0  0  0
 20 46  1  0  0  0  0
 21 39  1  0  0  0  0
 22 30  2  0  0  0  0
 22 49  1  0  0  0  0
 23 81  1  0  0  0  0
 24 82  1  0  0  0  0
 25 27  2  0  0  0  0
 25 81  1  0  0  0  0
 26 83  1  0  0  0  0
 27 84  1  0  0  0  0
 28 65  2  0  0  0  0
 29 50  1  0  0  0  0
 29 66  1  0  0  0  0
 30 56  1  0  0  0  0
 30 66  1  0  0  0  0
 31 67  1  0  0  0  0
 31 70  1  0  0  0  0
 32 71  1  0  0  0  0
 32 76  2  0  0  0  0
 33 47  1  0  0  0  0
 33 72  1  0  0  0  0
 33 77  2  0  0  0  0
 34 62  1  0  0  0  0
 34 68  1  0  0  0  0
 34 78  2  0  0  0  0
 35 63  1  0  0  0  0
 35 73  1  0  0  0  0
 35 79  2  0  0  0  0
 36 69  1  0  0  0  0
 36 74  1  0  0  0  0
 36 80  2  0  0  0  0
 37 40  1  0  0  0  0
 38 47  1  0  0  0  0
 39 68  1  0  0  0  0
 40 42  1  0  0  0  0
 41 43  1  0  0  0  0
 41 44  1  0  0  0  0
 42 46  1  0  0  0  0
 43 48  1  0  0  0  0
 44 69  1  0  0  0  0
 45 48  1  0  0  0  0
 45 69  1  0  0  0  0
 46 72  1  0  0  0  0
 47 68  1  0  0  0  0
 48 67  1  0  0  0  0
 51 63  1  0  0  0  0
 52 64  1  0  0  0  0
 53 64  1  0  0  0  0
 54 64  1  0  0  0  0
 55 75  1  0  0  0  0
 56 57  1  0  0  0  0
 57 60  1  0  0  0  0
 58 59  1  0  0  0  0
 58 61  1  0  0  0  0
 59 66  1  0  0  0  0
 60 74  1  0  0  0  0
 61 82  1  0  0  0  0
 62 64  1  0  0  0  0
 62 73  1  0  0  0  0
 63 75  1  0  0  0  0
 65 67  1  0  0  0  0
M  CHG  1  75   1
M  ISO  4  36 100  61 101  74 100  82 101
M  END
> <Batch ID>
0079

> <Smiles>
CNC(C)C(=O)NC(C(=O)N1Cc2cc([101O:1][101CH2:1]CCn3c(C)cc(C)c3CCC[100NH:0][100C:0](=O)N3CCCC(n4nc(-c5ccc(Oc6ccc(F)cc6F)cc5)c(C(N)=O)c4N)C3)ccc2CC1C(=O)NC1CCCc2ccccc21)C(C)(C)C

> <Shape>
0.257

> <Color>
0.047

> <Negative vol penalty>
0.000

$$$$

  -OEChem-04052318413D

 88 96  0     1  0  0  0  0  0999 V2000
  -29.2804  -11.3466   18.6970 C   0  0  0  0  0  0  0  0  0  0  0  0
  -28.6805  -11.1545   19.9364 C   0  0  0  0  0  0  0  0  0  0  0  0
  -26.7084  -29.4608   20.2480 C   0  0  0  0  0  0  0  0  0  0  0  0
  -25.9194  -27.8182   21.8344 C   0  0  0  0  0  0  0  0  0  0  0  0
  -30.0207  -12.5022   18.4568 C   0  0  0  0  0  0  0  0  0  0  0  0
  -28.8109  -12.1233   20.9321 C   0  0  0  0  0  0  0  0  0  0  0  0
  -26.0052  -19.0155   22.9025 C   0  0  0  0  0  0  0  0  0  0  0  0
  -25.5201  -30.1758   20.3974 C   0  0  0  0  0  0  0  0  0  0  0  0
  -24.7311  -28.5332   21.9838 C   0  0  0  0  0  0  0  0  0  0  0  0
  -25.5809  -20.0553   22.0764 C   0  0  0  0  0  0  0  0  0  0  0  0
  -21.8371  -28.9389   20.2835 C   0  0  0  0  0  0  0  0  0  0  0  0
  -20.6421  -28.2196   20.2726 C   0  0  0  0  0  0  0  0  0  0  0  0
  -24.4570  -18.4611   20.6571 C   0  0  0  0  0  0  0  0  0  0  0  0
  -20.1440  -29.0132   22.4995 C   0  0  0  0  0  0  0  0  0  0  0  0
  -23.1758  -23.9732   19.7682 C   0  0  0  0  0  0  0  0  0  0  0  0
  -26.9080  -28.2819   20.9665 C   0  0  0  0  0  0  0  0  0  0  0  0
  -29.3188  -27.6947   21.5587 C   0  0  0  0  0  0  0  0  0  0  0  0
  -30.1701  -13.4794   19.4547 C   0  0  0  0  0  0  0  0  0  0  0  0
  -25.6672  -17.6873   22.6055 C   0  0  0  0  0  0  0  0  0  0  0  0
  -29.5341  -13.3075   20.7010 C   0  0  0  0  0  0  0  0  0  0  0  0
  -24.8762  -17.4064   21.4824 C   0  0  0  0  0  0  0  0  0  0  0  0
  -24.5315  -29.7121   21.2653 C   0  0  0  0  0  0  0  0  0  0  0  0
  -24.8091  -19.7780   20.9519 C   0  0  0  0  0  0  0  0  0  0  0  0
  -22.1856  -29.6954   21.4025 C   0  0  0  0  0  0  0  0  0  0  0  0
  -19.7956  -28.2567   21.3806 C   0  0  0  0  0  0  0  0  0  0  0  0
  -21.3391  -29.7325   22.5104 C   0  0  0  0  0  0  0  0  0  0  0  0
  -28.1351  -27.5426   20.8122 C   0  0  0  0  0  0  0  0  0  0  0  0
  -24.2156  -23.1036   19.5963 C   0  0  0  0  0  0  0  0  0  0  0  0
  -30.1811  -26.7667   21.0279 C   0  0  0  0  0  0  0  0  0  0  0  0
  -23.9736  -24.2581   17.7230 C   0  0  0  0  0  0  0  0  0  0  0  0
  -29.6127  -28.5943   22.6357 C   0  0  0  0  0  0  0  0  0  0  0  0
  -27.3099  -15.0565   21.9099 C   0  0  0  0  0  0  0  0  0  0  0  0
  -29.1340  -21.6707   18.1627 C   0  0  0  0  0  0  0  0  0  0  0  0
  -24.3870  -13.6587   22.0682 C   0  0  0  0  0  0  0  0  0  0  0  0
  -20.9979  -13.9977   21.8538 C   0  0  0  0  0  0  0  0  0  0  0  0
  -30.9758  -14.7147   19.1384 C   0  0  0  0  0  0  0  0  0  0  0  0
  -26.1103  -16.5795   23.5215 C   0  0  0  0  0  0  0  0  0  0  0  0
  -24.4691  -15.9996   21.1309 C   0  0  0  0  0  0  0  0  0  0  0  0
  -31.4256  -15.4669   20.3866 C   0  0  0  0  0  0  0  0  0  0  0  0
  -31.1608  -24.4446   16.9693 C   0  0  0  0  0  0  0  0  0  0  0  0
  -30.2435  -15.6771   21.3210 C   0  0  0  0  0  0  0  0  0  0  0  0
  -30.6932  -25.5789   17.8803 C   0  0  0  0  0  0  0  0  0  0  0  0
  -30.0178  -23.4928   16.6263 C   0  0  0  0  0  0  0  0  0  0  0  0
  -28.8552  -24.0614   18.7357 C   0  0  0  0  0  0  0  0  0  0  0  0
  -29.6877  -14.3334   21.8093 C   0  0  1  0  0  0  0  0  0  0  0  0
  -26.1397  -15.2156   22.8388 C   0  0  1  0  0  0  0  0  0  0  0  0
  -29.9853  -25.0269   19.1300 C   0  0  2  0  0  0  0  0  0  0  0  0
  -24.1553  -24.7773   16.3447 C   0  0  0  0  0  0  0  0  0  0  0  0
  -18.8727  -12.6704   21.9920 C   0  0  0  0  0  0  0  0  0  0  0  0
  -26.4441  -18.2678   17.3985 C   0  0  0  0  0  0  0  0  0  0  0  0
  -24.9159  -12.5265   19.2846 C   0  0  0  0  0  0  0  0  0  0  0  0
  -22.4676  -12.0393   19.0936 C   0  0  0  0  0  0  0  0  0  0  0  0
  -23.8233  -10.9303   20.8697 C   0  0  0  0  0  0  0  0  0  0  0  0
  -29.2865  -18.4480   18.3565 C   0  0  0  0  0  0  0  0  0  0  0  0
  -29.1420  -18.5261   15.8846 C   0  0  0  0  0  0  0  0  0  0  0  0
  -26.0091  -19.7742   14.9712 C   0  0  0  0  0  0  0  0  0  0  0  0
  -20.0227  -15.5803   24.1567 C   0  0  0  0  0  0  0  0  0  0  0  0
  -24.7924  -22.1159   20.5165 C   0  0  0  0  0  0  0  0  0  1  0  0
  -29.6313  -20.6489   17.1714 C   0  0  0  0  0  0  0  0  0  0  0  0
  -25.4465  -21.4044   16.7525 C   0  0  0  0  0  0  0  0  0  0  0  0
  -25.8399  -22.5595   17.6883 C   0  0  0  0  0  0  0  0  0  0  0  0
  -23.2759  -13.3894   21.0824 C   0  0  1  0  0  0  0  0  0  0  0  0
  -19.8781  -13.5157   22.7583 C   0  0  2  0  0  0  0  0  0  0  0  0
  -27.2463  -19.5795   17.2663 C   0  0  1  0  0  0  0  0  0  0  0  0
  -23.6298  -12.2478   20.0879 C   0  0  0  0  0  0  0  0  0  0  0  0
  -28.8216  -19.3324   17.1717 C   0  0  0  0  0  0  0  0  0  0  0  0
  -26.5926  -20.5164   16.1850 C   0  0  1  0  0  0  0  0  0  0  0  0
  -28.2330  -26.5928   19.8781 N   0  0  0  0  0  0  0  0  0  0  0  0
  -24.6901  -23.3012   18.3219 N   0  0  0  0  0  0  0  0  0  0  0  0
  -29.4885  -26.1398   20.0342 N   0  0  0  0  0  0  0  0  0  0  0  0
  -23.0486  -24.6749   18.5937 N   0  3  0  0  0  0  0  0  0  0  0  0
  -24.9323  -14.9503   22.0539 N   0  0  0  0  0  0  0  0  0  0  0  0
  -29.3519  -23.0109   17.8423 N   0  0  0  0  0  0  0  0  0  0  0  0
  -31.4567  -26.4340   21.3189 N   0  0  0  0  0  0  0  0  0  0  0  0
  -28.6130  -29.4819   23.0565 N   0  0  0  0  0  0  0  0  0  0  0  0
  -28.4487  -14.5647   22.5188 N   0  0  0  0  0  0  0  0  0  0  0  0
  -22.0774  -13.1402   21.8761 N   0  0  0  0  0  0  0  0  0  0  0  0
  -19.1584  -14.6763   23.3550 N   0  3  0  0  0  0  0  0  0  0  0  0
  -30.7341  -28.6219   23.1971 O   0  0  0  0  0  0  0  0  0  0  0  0
  -27.1882  -15.3562   20.7279 O   0  0  0  0  0  0  0  0  0  0  0  0
  -28.5714  -21.2871   19.1915 O   0  0  0  0  0  0  0  0  0  0  0  0
  -24.7526  -12.7584   22.8281 O   0  0  0  0  0  0  0  0  0  0  0  0
  -20.9211  -15.0297   21.1906 O   0  0  0  0  0  0  0  0  0  0  0  0
  -23.3719  -30.4097   21.4115 O   0  0  0  0  0  0  0  0  0  0  0  0
  -24.3924  -20.7953   20.1401 O   0  0  0  0  0  0  0  0  0  1  0  0
  -18.6473  -27.5671   21.3693 F   0  0  0  0  0  0  0  0  0  0  0  0
  -21.6679  -30.4584   23.5878 F   0  0  0  0  0  0  0  0  0  0  0  0
  -27.5406  -21.3688   15.6992 F   0  0  0  0  0  0  0  0  0  0  0  0
  1  2  1  0  0  0  0
  1  5  2  0  0  0  0
  2  6  2  0  0  0  0
  3  8  2  0  0  0  0
  3 16  1  0  0  0  0
  4  9  1  0  0  0  0
  4 16  2  0  0  0  0
  5 18  1  0  0  0  0
  6 20  1  0  0  0  0
  7 10  2  0  0  0  0
  7 19  1  0  0  0  0
  8 22  1  0  0  0  0
  9 22  2  0  0  0  0
 10 23  1  0  0  0  0
 11 12  2  0  0  0  0
 11 24  1  0  0  0  0
 12 25  1  0  0  0  0
 13 21  1  0  0  0  0
 13 23  2  0  0  0  0
 14 25  2  0  0  0  0
 14 26  1  0  0  0  0
 15 28  2  0  0  0  0
 15 71  1  0  0  0  0
 16 27  1  0  0  0  0
 17 27  1  0  0  0  0
 17 29  2  0  0  0  0
 17 31  1  0  0  0  0
 18 20  2  0  0  0  0
 18 36  1  0  0  0  0
 19 21  2  0  0  0  0
 19 37  1  0  0  0  0
 20 45  1  0  0  0  0
 21 38  1  0  0  0  0
 22 84  1  0  0  0  0
 23 85  1  0  0  0  0
 24 26  2  0  0  0  0
 24 84  1  0  0  0  0
 25 86  1  0  0  0  0
 26 87  1  0  0  0  0
 27 68  2  0  0  0  0
 28 58  1  0  0  0  0
 28 69  1  0  0  0  0
 29 70  1  0  0  0  0
 29 74  1  0  0  0  0
 30 48  1  0  0  0  0
 30 69  1  0  0  0  0
 30 71  2  0  0  0  0
 31 75  1  0  0  0  0
 31 79  2  0  0  0  0
 32 46  1  0  0  0  0
 32 76  1  0  0  0  0
 32 80  2  0  0  0  0
 33 59  1  0  0  0  0
 33 73  1  0  0  0  0
 33 81  2  0  0  0  0
 34 62  1  0  0  0  0
 34 72  1  0  0  0  0
 34 82  2  0  0  0  0
 35 63  1  0  0  0  0
 35 77  1  0  0  0  0
 35 83  2  0  0  0  0
 36 39  1  0  0  0  0
 37 46  1  0  0  0  0
 38 72  1  0  0  0  0
 39 41  1  0  0  0  0
 40 42  1  0  0  0  0
 40 43  1  0  0  0  0
 41 45  1  0  0  0  0
 42 47  1  0  0  0  0
 43 73  1  0  0  0  0
 44 47  1  0  0  0  0
 44 73  1  0  0  0  0
 45 76  1  0  0  0  0
 46 72  1  0  0  0  0
 47 70  1  0  0  0  0
 49 63  1  0  0  0  0
 50 64  1  0  0  0  0
 51 65  1  0  0  0  0
 52 65  1  0  0  0  0
 53 65  1  0  0  0  0
 54 66  1  0  0  0  0
 55 66  1  0  0  0  0
 56 67  1  0  0  0  0
 57 78  1  0  0  0  0
 58 85  1  0  0  0  0
 59 66  1  0  0  0  0
 60 61  1  0  0  0  0
 60 67  1  0  0  0  0
 61 69  1  0  0  0  0
 62 65  1  0  0  0  0
 62 77  1  0  0  0  0
 63 78  1  0  0  0  0
 64 66  1  0  0  0  0
 64 67  1  0  0  0  0
 67 88  1  0  0  0  0
 68 70  1  0  0  0  0
M  CHG  2  71   1  78   1
M  ISO  4  33 100  58 101  59 100  85 101
M  END
> <Batch ID>
0079

> <Smiles>
CNC(C)C(=O)NC(C(=O)N1Cc2cc([101O:1][101CH2:1]c3cnc(C)n3CCC(C)(F)C(C)C(C)(C)[100CH2:0][100C:0](=O)N3CCCC(n4nc(-c5ccc(Oc6ccc(F)cc6F)cc5)c(C(N)=O)c4N)C3)ccc2CC1C(=O)NC1CCCc2ccccc21)C(C)(C)C

> <Shape>
0.250

> <Color>
0.058

> <Negative vol penalty>
0.000

$$$$

  -OEChem-04052318413D

 83 91  0     1  0  0  0  0  0999 V2000
  -31.3875  -26.0933   14.2191 C   0  0  0  0  0  0  0  0  0  0  0  0
  -30.0372  -26.0188   14.5457 C   0  0  0  0  0  0  0  0  0  0  0  0
  -26.3727  -12.8396   19.2162 C   0  0  0  0  0  0  0  0  0  0  0  0
  -25.1051  -13.3202   21.2161 C   0  0  0  0  0  0  0  0  0  0  0  0
  -32.3423  -26.2085   15.2286 C   0  0  0  0  0  0  0  0  0  0  0  0
  -29.6410  -26.0584   15.8820 C   0  0  0  0  0  0  0  0  0  0  0  0
  -24.5519  -28.6103   18.1390 C   0  0  0  0  0  0  0  0  0  0  0  0
  -26.1950  -11.4731   19.4320 C   0  0  0  0  0  0  0  0  0  0  0  0
  -24.9273  -11.9536   21.4318 C   0  0  0  0  0  0  0  0  0  0  0  0
  -23.3177  -28.0756   18.5058 C   0  0  0  0  0  0  0  0  0  0  0  0
  -22.9570   -9.4809   20.2386 C   0  0  0  0  0  0  0  0  0  0  0  0
  -21.6802   -9.0424   20.5897 C   0  0  0  0  0  0  0  0  0  0  0  0
  -24.0572  -27.9570   20.7989 C   0  0  0  0  0  0  0  0  0  0  0  0
  -22.5527   -8.1625   22.6637 C   0  0  0  0  0  0  0  0  0  0  0  0
  -22.7935  -23.7698   23.4829 C   0  0  0  0  0  0  0  0  0  0  0  0
  -25.8278  -13.7632   20.1083 C   0  0  0  0  0  0  0  0  0  0  0  0
  -25.1756  -16.0356   19.1499 C   0  0  0  0  0  0  0  0  0  0  0  0
  -31.9570  -26.2593   16.5775 C   0  0  0  0  0  0  0  0  0  0  0  0
  -25.5536  -28.8126   19.0993 C   0  0  0  0  0  0  0  0  0  0  0  0
  -30.5917  -26.1730   16.9106 C   0  0  0  0  0  0  0  0  0  0  0  0
  -25.3024  -28.4968   20.4422 C   0  0  0  0  0  0  0  0  0  0  0  0
  -25.4723  -11.0300   20.5397 C   0  0  0  0  0  0  0  0  0  0  0  0
  -23.0712  -27.7462   19.8354 C   0  0  0  0  0  0  0  0  0  0  0  0
  -24.0316   -9.2601   21.1000 C   0  0  0  0  0  0  0  0  0  0  0  0
  -21.4781   -8.3833   21.8022 C   0  0  0  0  0  0  0  0  0  0  0  0
  -23.8295   -8.6009   22.3126 C   0  0  0  0  0  0  0  0  0  0  0  0
  -26.0116  -15.1749   19.8863 C   0  0  0  0  0  0  0  0  0  0  0  0
  -23.7903  -22.8472   23.3349 C   0  0  0  0  0  0  0  0  0  0  0  0
  -25.7827  -17.2643   19.2404 C   0  0  0  0  0  0  0  0  0  0  0  0
  -22.2939  -22.4978   21.7414 C   0  0  0  0  0  0  0  0  0  0  0  0
  -23.9591  -15.7499   18.4469 C   0  0  0  0  0  0  0  0  0  0  0  0
  -28.4913  -27.6846   19.5481 C   0  0  0  0  0  0  0  0  0  0  0  0
  -28.5404  -29.8629   21.9512 C   0  0  0  0  0  0  0  0  0  0  0  0
  -26.7829  -31.7643   24.1744 C   0  0  0  0  0  0  0  0  0  0  0  0
  -28.3592  -21.2114   22.2283 C   0  0  0  0  0  0  0  0  0  0  0  0
  -33.0284  -26.3367   17.6362 C   0  0  0  0  0  0  0  0  0  0  0  0
  -26.8702  -29.4152   18.6919 C   0  0  0  0  0  0  0  0  0  0  0  0
  -26.3373  -28.7136   21.5148 C   0  0  0  0  0  0  0  0  0  0  0  0
  -32.5006  -26.7491   19.0079 C   0  0  0  0  0  0  0  0  0  0  0  0
  -30.3618  -18.5556   20.9582 C   0  0  0  0  0  0  0  0  0  0  0  0
  -31.2425  -25.9596   19.3553 C   0  0  0  0  0  0  0  0  0  0  0  0
  -29.3401  -17.5085   20.5115 C   0  0  0  0  0  0  0  0  0  0  0  0
  -29.9105  -19.2801   22.2245 C   0  0  0  0  0  0  0  0  0  0  0  0
  -27.5439  -18.8335   21.7017 C   0  0  0  0  0  0  0  0  0  0  0  0
  -30.1208  -26.2377   18.3473 C   0  0  1  0  0  0  0  0  0  0  0  0
  -27.9994  -29.0993   19.6679 C   0  0  1  0  0  0  0  0  0  0  0  0
  -27.9287  -18.1152   20.3970 C   0  0  2  0  0  0  0  0  0  0  0  0
  -21.6043  -21.9138   20.5640 C   0  0  0  0  0  0  0  0  0  0  0  0
  -27.1005  -33.4166   26.0362 C   0  0  0  0  0  0  0  0  0  0  0  0
  -29.3521  -27.5940   23.8229 C   0  0  0  0  0  0  0  0  0  0  0  0
  -28.7322  -29.0599   25.7556 C   0  0  0  0  0  0  0  0  0  0  0  0
  -30.5636  -29.7478   24.2078 C   0  0  0  0  0  0  0  0  0  0  0  0
  -25.3078  -33.8721   22.7114 C   0  0  0  0  0  0  0  0  0  0  0  0
  -25.0179  -22.6170   24.1009 C   0  0  0  0  0  0  0  0  0  0  0  0
  -26.2663  -23.3952   23.6047 C   0  0  0  0  0  0  0  0  0  0  0  0
  -20.7120  -25.3390   21.1286 C   0  0  0  0  0  0  0  0  0  0  0  0
  -20.6128  -24.3150   22.2615 C   0  0  0  0  0  0  0  0  0  0  0  0
  -26.6878  -23.0453   22.1792 C   0  0  0  0  0  0  0  0  0  0  0  0
  -21.8542  -26.3319   21.3101 C   0  0  0  0  0  0  0  0  0  1  0  0
  -28.1655  -29.8502   23.4135 C   0  0  1  0  0  0  0  0  0  0  0  0
  -26.8822  -33.2337   24.5424 C   0  0  2  0  0  0  0  0  0  0  0  0
  -29.1843  -29.0570   24.2797 C   0  0  0  0  0  0  0  0  0  0  0  0
  -27.0691  -15.8036   20.4062 N   0  0  0  0  0  0  0  0  0  0  0  0
  -21.8814  -23.5307   22.4834 N   0  0  0  0  0  0  0  0  0  0  0  0
  -26.9019  -17.0724   19.9958 N   0  0  0  0  0  0  0  0  0  0  0  0
  -23.4550  -22.0733   22.2501 N   0  3  0  0  0  0  0  0  0  0  0  0
  -27.6110  -29.2994   21.0655 N   0  0  0  0  0  0  0  0  0  0  0  0
  -28.5655  -19.8335   22.0494 N   0  0  0  0  0  0  0  0  0  0  0  0
  -25.4630  -18.4794   18.7466 N   0  0  0  0  0  0  0  0  0  0  0  0
  -23.4756  -14.4344   18.4556 N   0  0  0  0  0  0  0  0  0  0  0  0
  -29.5016  -27.5169   18.6204 N   0  0  0  0  0  0  0  0  0  0  0  0
  -28.0065  -31.2462   23.8063 N   0  0  0  0  0  0  0  0  0  0  0  0
  -27.0561  -21.6543   22.0371 N   0  0  0  0  0  0  0  0  0  0  0  0
  -25.6324  -33.9493   24.1590 N   0  3  0  0  0  0  0  0  0  0  0  0
  -23.3286  -16.6316   17.8156 O   0  0  0  0  0  0  0  0  0  0  0  0
  -27.9922  -26.8102   20.2467 O   0  0  0  0  0  0  0  0  0  0  0  0
  -29.6151  -30.3610   21.6068 O   0  0  0  0  0  0  0  0  0  0  0  0
  -25.7263  -31.1378   24.2134 O   0  0  0  0  0  0  0  0  0  0  0  0
  -29.2699  -21.9900   22.5305 O   0  0  0  0  0  0  0  0  0  0  0  0
  -25.2985   -9.6966   20.7504 O   0  0  0  0  0  0  0  0  0  0  0  0
  -21.8676  -27.2235   20.1960 O   0  0  0  0  0  0  0  0  0  1  0  0
  -20.2517   -7.9637   22.1400 F   0  0  0  0  0  0  0  0  0  0  0  0
  -24.8579   -8.3870   23.1448 F   0  0  0  0  0  0  0  0  0  0  0  0
  1  2  1  0  0  0  0
  1  5  2  0  0  0  0
  2  6  2  0  0  0  0
  3  8  2  0  0  0  0
  3 16  1  0  0  0  0
  4  9  1  0  0  0  0
  4 16  2  0  0  0  0
  5 18  1  0  0  0  0
  6 20  1  0  0  0  0
  7 10  2  0  0  0  0
  7 19  1  0  0  0  0
  8 22  1  0  0  0  0
  9 22  2  0  0  0  0
 10 23  1  0  0  0  0
 11 12  2  0  0  0  0
 11 24  1  0  0  0  0
 12 25  1  0  0  0  0
 13 21  1  0  0  0  0
 13 23  2  0  0  0  0
 14 25  2  0  0  0  0
 14 26  1  0  0  0  0
 15 28  2  0  0  0  0
 15 64  1  0  0  0  0
 16 27  1  0  0  0  0
 17 27  1  0  0  0  0
 17 29  2  0  0  0  0
 17 31  1  0  0  0  0
 18 20  2  0  0  0  0
 18 36  1  0  0  0  0
 19 21  2  0  0  0  0
 19 37  1  0  0  0  0
 20 45  1  0  0  0  0
 21 38  1  0  0  0  0
 22 80  1  0  0  0  0
 23 81  1  0  0  0  0
 24 26  2  0  0  0  0
 24 80  1  0  0  0  0
 25 82  1  0  0  0  0
 26 83  1  0  0  0  0
 27 63  2  0  0  0  0
 28 54  1  0  0  0  0
 28 66  1  0  0  0  0
 29 65  1  0  0  0  0
 29 69  1  0  0  0  0
 30 48  1  0  0  0  0
 30 64  1  0  0  0  0
 30 66  2  0  0  0  0
 31 70  1  0  0  0  0
 31 75  2  0  0  0  0
 32 46  1  0  0  0  0
 32 71  1  0  0  0  0
 32 76  2  0  0  0  0
 33 60  1  0  0  0  0
 33 67  1  0  0  0  0
 33 77  2  0  0  0  0
 34 61  1  0  0  0  0
 34 72  1  0  0  0  0
 34 78  2  0  0  0  0
 35 68  1  0  0  0  0
 35 73  1  0  0  0  0
 35 79  2  0  0  0  0
 36 39  1  0  0  0  0
 37 46  1  0  0  0  0
 38 67  1  0  0  0  0
 39 41  1  0  0  0  0
 40 42  1  0  0  0  0
 40 43  1  0  0  0  0
 41 45  1  0  0  0  0
 42 47  1  0  0  0  0
 43 68  1  0  0  0  0
 44 47  1  0  0  0  0
 44 68  1  0  0  0  0
 45 71  1  0  0  0  0
 46 67  1  0  0  0  0
 47 65  1  0  0  0  0
 49 61  1  0  0  0  0
 50 62  1  0  0  0  0
 51 62  1  0  0  0  0
 52 62  1  0  0  0  0
 53 74  1  0  0  0  0
 54 55  1  0  0  0  0
 55 58  1  0  0  0  0
 56 57  1  0  0  0  0
 56 59  1  0  0  0  0
 57 64  1  0  0  0  0
 58 73  1  0  0  0  0
 59 81  1  0  0  0  0
 60 62  1  0  0  0  0
 60 72  1  0  0  0  0
 61 74  1  0  0  0  0
 63 65  1  0  0  0  0
M  CHG  2  66   1  74   1
M  ISO  4  35 100  59 101  73 100  81 101
M  END
> <Batch ID>
0079

> <Smiles>
CNC(C)C(=O)NC(C(=O)N1Cc2cc([101O:1][101CH2:1]CCn3cc(CCC[100NH:0][100C:0](=O)N4CCCC(n5nc(-c6ccc(Oc7ccc(F)cc7F)cc6)c(C(N)=O)c5N)C4)nc3C)ccc2CC1C(=O)NC1CCCc2ccccc21)C(C)(C)C

> <Shape>
0.231

> <Color>
0.071

> <Negative vol penalty>
0.000

$$$$

  -OEChem-04052318413D

 85 93  0     1  0  0  0  0  0999 V2000
  -22.1513  -14.6720   25.8992 C   0  0  0  0  0  0  0  0  0  0  0  0
  -23.5228  -14.9049   25.8811 C   0  0  0  0  0  0  0  0  0  0  0  0
  -23.0008   -9.8938   19.9814 C   0  0  0  0  0  0  0  0  0  0  0  0
  -23.7310   -9.9436   22.2839 C   0  0  0  0  0  0  0  0  0  0  0  0
  -21.2648  -15.7152   25.6354 C   0  0  0  0  0  0  0  0  0  0  0  0
  -24.0085  -16.1810   25.5980 C   0  0  0  0  0  0  0  0  0  0  0  0
  -27.7158  -17.5912   28.7463 C   0  0  0  0  0  0  0  0  0  0  0  0
  -22.2362   -8.7582   20.2484 C   0  0  0  0  0  0  0  0  0  0  0  0
  -22.9663   -8.8079   22.5509 C   0  0  0  0  0  0  0  0  0  0  0  0
  -28.9850  -17.0640   28.5121 C   0  0  0  0  0  0  0  0  0  0  0  0
  -23.2135   -5.4697   22.0754 C   0  0  0  0  0  0  0  0  0  0  0  0
  -23.8039   -4.4525   22.8253 C   0  0  0  0  0  0  0  0  0  0  0  0
  -29.6308  -19.1180   27.4242 C   0  0  0  0  0  0  0  0  0  0  0  0
  -31.3140  -15.9505   24.2584 C   0  0  0  0  0  0  0  0  0  0  0  0
  -22.0834   -4.6919   24.5046 C   0  0  0  0  0  0  0  0  0  0  0  0
  -33.2576  -17.0385   24.5875 C   0  0  0  0  0  0  0  0  0  0  0  0
  -23.7483  -10.4865   20.9992 C   0  0  0  0  0  0  0  0  0  0  0  0
  -24.1303  -13.0027   20.8246 C   0  0  0  0  0  0  0  0  0  0  0  0
  -21.7396  -17.0069   25.3585 C   0  0  0  0  0  0  0  0  0  0  0  0
  -27.3905  -18.8839   28.3109 C   0  0  0  0  0  0  0  0  0  0  0  0
  -23.1275  -17.2421   25.3289 C   0  0  0  0  0  0  0  0  0  0  0  0
  -28.3576  -19.6602   27.6565 C   0  0  0  0  0  0  0  0  0  0  0  0
  -32.3714  -16.1640   25.1767 C   0  0  0  0  0  0  0  0  0  0  0  0
  -22.2189   -8.2153   21.5332 C   0  0  0  0  0  0  0  0  0  0  0  0
  -29.9418  -17.8263   27.8484 C   0  0  0  0  0  0  0  0  0  0  0  0
  -22.0581   -6.0981   22.5401 C   0  0  0  0  0  0  0  0  0  0  0  0
  -23.2388   -4.0636   24.0399 C   0  0  0  0  0  0  0  0  0  0  0  0
  -21.4931   -5.7092   23.7547 C   0  0  0  0  0  0  0  0  0  0  0  0
  -24.5388  -11.6593   20.7239 C   0  0  0  0  0  0  0  0  0  0  0  0
  -31.5862  -16.7010   23.1359 C   0  0  0  0  0  0  0  0  0  0  0  0
  -25.2384  -13.7269   20.4584 C   0  0  0  0  0  0  0  0  0  0  0  0
  -22.8625  -13.5473   21.2144 C   0  0  0  0  0  0  0  0  0  0  0  0
  -25.2687  -20.0993   26.2800 C   0  0  0  0  0  0  0  0  0  0  0  0
  -26.3817  -22.9262   27.4167 C   0  0  0  0  0  0  0  0  0  0  0  0
  -28.9234  -24.6529   28.9016 C   0  0  0  0  0  0  0  0  0  0  0  0
  -30.7342  -14.6677   20.6957 C   0  0  0  0  0  0  0  0  0  0  0  0
  -20.7440  -18.0920   25.0329 C   0  0  0  0  0  0  0  0  0  0  0  0
  -26.0254  -19.4480   28.5950 C   0  0  0  0  0  0  0  0  0  0  0  0
  -28.0650  -21.0610   27.1868 C   0  0  0  0  0  0  0  0  0  0  0  0
  -21.3299  -19.4995   25.1107 C   0  0  0  0  0  0  0  0  0  0  0  0
  -29.5912  -12.2448   18.3505 C   0  0  0  0  0  0  0  0  0  0  0  0
  -22.6747  -19.5584   24.3932 C   0  0  0  0  0  0  0  0  0  0  0  0
  -28.1439  -11.9830   18.7711 C   0  0  0  0  0  0  0  0  0  0  0  0
  -30.4960  -12.4801   19.5580 C   0  0  0  0  0  0  0  0  0  0  0  0
  -28.5879  -13.2722   20.9017 C   0  0  0  0  0  0  0  0  0  0  0  0
  -23.6923  -18.6182   25.0504 C   0  0  1  0  0  0  0  0  0  0  0  0
  -25.6405  -20.5843   27.6527 C   0  0  1  0  0  0  0  0  0  0  0  0
  -27.6265  -13.0845   19.7156 C   0  0  2  0  0  0  0  0  0  0  0  0
  -29.8017  -18.0043   21.9199 C   0  0  0  0  0  0  0  0  0  0  0  0
  -29.5552  -26.9576   29.6676 C   0  0  0  0  0  0  0  0  0  0  0  0
  -34.7838  -17.7251   21.9688 C   0  0  0  0  0  0  0  0  0  0  0  0
  -33.5210  -19.6778   22.9680 C   0  0  0  0  0  0  0  0  0  0  0  0
  -33.7835  -15.9732   27.3328 C   0  0  0  0  0  0  0  0  0  0  0  0
  -32.5727  -13.9970   26.4350 C   0  0  0  0  0  0  0  0  0  0  0  0
  -26.8949  -23.7449   24.5225 C   0  0  0  0  0  0  0  0  0  0  0  0
  -28.3610  -25.5860   25.3764 C   0  0  0  0  0  0  0  0  0  0  0  0
  -25.9367  -25.5506   25.9632 C   0  0  0  0  0  0  0  0  0  0  0  0
  -29.1988  -23.7690   31.7126 C   0  0  0  0  0  0  0  0  0  0  0  0
  -31.2787  -15.9001   27.4501 C   0  0  0  0  0  0  0  0  0  1  0  0
  -30.8170  -16.8456   21.8827 C   0  0  2  0  0  0  0  0  0  0  0  0
  -27.4949  -23.8700   27.0306 C   0  0  1  0  0  0  0  0  0  0  0  0
  -28.9338  -25.6277   30.0653 C   0  0  2  0  0  0  0  0  0  0  0  0
  -33.4199  -18.2545   22.4162 C   0  0  0  0  0  0  0  0  0  0  0  0
  -32.5064  -15.5351   26.5762 C   0  0  0  0  0  0  0  0  0  0  0  0
  -27.1771  -24.6608   25.7302 C   0  0  0  0  0  0  0  0  0  0  0  0
  -25.8073  -11.5346   20.3248 N   0  0  0  0  0  0  0  0  0  0  0  0
  -32.7703  -17.3580   23.3471 N   0  0  0  0  0  0  0  0  0  0  0  0
  -26.2055  -12.8090   20.1714 N   0  0  0  0  0  0  0  0  0  0  0  0
  -26.7139  -21.5657   27.4825 N   0  0  0  0  0  0  0  0  0  0  0  0
  -29.9498  -13.5374   20.4122 N   0  0  0  0  0  0  0  0  0  0  0  0
  -25.4701  -15.0530   20.3570 N   0  0  0  0  0  0  0  0  0  0  0  0
  -21.8325  -12.6616   21.5594 N   0  0  0  0  0  0  0  0  0  0  0  0
  -24.2135  -19.2072   26.2652 N   0  0  0  0  0  0  0  0  0  0  0  0
  -27.7396  -24.7114   28.1969 N   0  0  0  0  0  0  0  0  0  0  0  0
  -30.1385  -15.6250   21.5077 N   0  0  0  0  0  0  0  0  0  0  0  0
  -29.7140  -25.0664   31.2042 N   0  3  0  0  0  0  0  0  0  0  0  0
  -22.6444  -14.7823   21.2398 O   0  0  0  0  0  0  0  0  0  0  0  0
  -25.8921  -20.5055   25.3063 O   0  0  0  0  0  0  0  0  0  0  0  0
  -25.2605  -23.3803   27.6582 O   0  0  0  0  0  0  0  0  0  0  0  0
  -29.8721  -23.9162   28.6413 O   0  0  0  0  0  0  0  0  0  0  0  0
  -31.8785  -14.8153   20.2532 O   0  0  0  0  0  0  0  0  0  0  0  0
  -21.4727   -7.1073   21.7941 O   0  0  0  0  0  0  0  0  0  0  0  0
  -31.1813  -17.3139   27.6179 O   0  0  0  0  0  0  0  0  0  1  0  0
  -23.8050   -3.0857   24.7591 F   0  0  0  0  0  0  0  0  0  0  0  0
  -20.3825   -6.3083   24.2057 F   0  0  0  0  0  0  0  0  0  0  0  0
  1  2  1  0  0  0  0
  1  5  2  0  0  0  0
  2  6  2  0  0  0  0
  3  8  2  0  0  0  0
  3 17  1  0  0  0  0
  4  9  1  0  0  0  0
  4 17  2  0  0  0  0
  5 19  1  0  0  0  0
  6 21  1  0  0  0  0
  7 10  2  0  0  0  0
  7 20  1  0  0  0  0
  8 24  1  0  0  0  0
  9 24  2  0  0  0  0
 10 25  1  0  0  0  0
 11 12  2  0  0  0  0
 11 26  1  0  0  0  0
 12 27  1  0  0  0  0
 13 22  1  0  0  0  0
 13 25  2  0  0  0  0
 14 23  1  0  0  0  0
 14 30  2  0  0  0  0
 15 27  2  0  0  0  0
 15 28  1  0  0  0  0
 16 23  2  0  0  0  0
 16 67  1  0  0  0  0
 17 29  1  0  0  0  0
 18 29  1  0  0  0  0
 18 31  2  0  0  0  0
 18 32  1  0  0  0  0
 19 21  2  0  0  0  0
 19 37  1  0  0  0  0
 20 22  2  0  0  0  0
 20 38  1  0  0  0  0
 21 46  1  0  0  0  0
 22 39  1  0  0  0  0
 23 64  1  0  0  0  0
 24 82  1  0  0  0  0
 25 83  1  0  0  0  0
 26 28  2  0  0  0  0
 26 82  1  0  0  0  0
 27 84  1  0  0  0  0
 28 85  1  0  0  0  0
 29 66  2  0  0  0  0
 30 60  1  0  0  0  0
 30 67  1  0  0  0  0
 31 68  1  0  0  0  0
 31 71  1  0  0  0  0
 32 72  1  0  0  0  0
 32 77  2  0  0  0  0
 33 47  1  0  0  0  0
 33 73  1  0  0  0  0
 33 78  2  0  0  0  0
 34 61  1  0  0  0  0
 34 69  1  0  0  0  0
 34 79  2  0  0  0  0
 35 62  1  0  0  0  0
 35 74  1  0  0  0  0
 35 80  2  0  0  0  0
 36 70  1  0  0  0  0
 36 75  1  0  0  0  0
 36 81  2  0  0  0  0
 37 40  1  0  0  0  0
 38 47  1  0  0  0  0
 39 69  1  0  0  0  0
 40 42  1  0  0  0  0
 41 43  1  0  0  0  0
 41 44  1  0  0  0  0
 42 46  1  0  0  0  0
 43 48  1  0  0  0  0
 44 70  1  0  0  0  0
 45 48  1  0  0  0  0
 45 70  1  0  0  0  0
 46 73  1  0  0  0  0
 47 69  1  0  0  0  0
 48 68  1  0  0  0  0
 49 60  1  0  0  0  0
 50 62  1  0  0  0  0
 51 63  1  0  0  0  0
 52 63  1  0  0  0  0
 53 64  1  0  0  0  0
 54 64  1  0  0  0  0
 55 65  1  0  0  0  0
 56 65  1  0  0  0  0
 57 65  1  0  0  0  0
 58 76  1  0  0  0  0
 59 64  1  0  0  0  0
 59 83  1  0  0  0  0
 60 75  1  0  0  0  0
 61 65  1  0  0  0  0
 61 74  1  0  0  0  0
 62 76  1  0  0  0  0
 63 67  1  0  0  0  0
 66 68  1  0  0  0  0
M  CHG  1  76   1
M  ISO  4  36 100  59 101  75 100  83 101
M  END
> <Batch ID>
0079

> <Smiles>
CNC(C)C(=O)NC(C(=O)N1Cc2cc([101O:1][101CH2:1]C(C)(C)c3cc(C(C)[100NH:0][100C:0](=O)N4CCCC(n5nc(-c6ccc(Oc7ccc(F)cc7F)cc6)c(C(N)=O)c5N)C4)n(C(C)C)c3)ccc2CC1C(=O)NC1CCCc2ccccc21)C(C)(C)C

> <Shape>
0.174

> <Color>
0.197

> <Negative vol penalty>
0.000

$$$$

  -OEChem-04052318413D

 87 95  0     1  0  0  0  0  0999 V2000
  -26.8967  -19.2935   26.9713 C   0  0  0  0  0  0  0  0  0  0  0  0
  -27.2543  -20.3716   26.1696 C   0  0  0  0  0  0  0  0  0  0  0  0
  -24.4149   -9.8714   21.9877 C   0  0  0  0  0  0  0  0  0  0  0  0
  -23.2538  -10.7656   20.0669 C   0  0  0  0  0  0  0  0  0  0  0  0
  -25.5536  -18.9520   27.1150 C   0  0  0  0  0  0  0  0  0  0  0  0
  -26.2684  -21.1158   25.5209 C   0  0  0  0  0  0  0  0  0  0  0  0
  -27.7234  -25.1864   23.1721 C   0  0  0  0  0  0  0  0  0  0  0  0
  -23.4842   -8.8356   22.0681 C   0  0  0  0  0  0  0  0  0  0  0  0
  -22.3231   -9.7297   20.1472 C   0  0  0  0  0  0  0  0  0  0  0  0
  -28.4505  -25.1513   21.9831 C   0  0  0  0  0  0  0  0  0  0  0  0
  -20.3325   -8.4023   23.2098 C   0  0  0  0  0  0  0  0  0  0  0  0
  -19.8225   -8.0866   24.4691 C   0  0  0  0  0  0  0  0  0  0  0  0
  -26.4544  -25.7180   20.7528 C   0  0  0  0  0  0  0  0  0  0  0  0
  -20.6952   -5.8434   24.2600 C   0  0  0  0  0  0  0  0  0  0  0  0
  -30.5125  -20.9284   19.0981 C   0  0  0  0  0  0  0  0  0  0  0  0
  -24.2996  -10.8365   20.9871 C   0  0  0  0  0  0  0  0  0  0  0  0
  -26.4662  -11.9127   20.1774 C   0  0  0  0  0  0  0  0  0  0  0  0
  -24.5522  -19.6852   26.4574 C   0  0  0  0  0  0  0  0  0  0  0  0
  -26.3517  -25.4773   23.1593 C   0  0  0  0  0  0  0  0  0  0  0  0
  -24.9057  -20.8016   25.6724 C   0  0  0  0  0  0  0  0  0  0  0  0
  -25.7127  -25.7587   21.9433 C   0  0  0  0  0  0  0  0  0  0  0  0
  -22.4384   -8.7647   21.1478 C   0  0  0  0  0  0  0  0  0  0  0  0
  -27.8154  -25.4143   20.7729 C   0  0  0  0  0  0  0  0  0  0  0  0
  -21.0238   -7.4386   22.4756 C   0  0  0  0  0  0  0  0  0  0  0  0
  -20.0039   -6.8071   24.9942 C   0  0  0  0  0  0  0  0  0  0  0  0
  -21.2052   -6.1591   23.0007 C   0  0  0  0  0  0  0  0  0  0  0  0
  -25.2604  -11.9071   20.9039 C   0  0  0  0  0  0  0  0  0  0  0  0
  -30.7200  -22.7570   17.7407 C   0  0  0  0  0  0  0  0  0  0  0  0
  -29.4215  -23.1170   18.0269 C   0  0  0  0  0  0  0  0  0  0  0  0
  -29.2142  -21.2887   19.3850 C   0  0  0  0  0  0  0  0  0  0  0  0
  -27.0097  -13.1498   20.4237 C   0  0  0  0  0  0  0  0  0  0  0  0
  -27.0433  -10.8910   19.3535 C   0  0  0  0  0  0  0  0  0  0  0  0
  -23.7179  -23.9081   23.9986 C   0  0  0  0  0  0  0  0  0  0  0  0
  -26.3967  -18.6089   20.7399 C   0  0  0  0  0  0  0  0  0  0  0  0
  -22.2855  -26.7403   23.3286 C   0  0  0  0  0  0  0  0  0  0  0  0
  -22.3770  -29.7059   21.6421 C   0  0  0  0  0  0  0  0  0  0  0  0
  -23.1135  -19.2767   26.6541 C   0  0  0  0  0  0  0  0  0  0  0  0
  -25.5872  -25.5375   24.4533 C   0  0  0  0  0  0  0  0  0  0  0  0
  -24.2463  -26.0962   21.8775 C   0  0  0  0  0  0  0  0  0  0  0  0
  -22.1838  -19.8406   25.5846 C   0  0  0  0  0  0  0  0  0  0  0  0
  -25.7341  -16.7105   23.7704 C   0  0  0  0  0  0  0  0  0  0  0  0
  -22.4245  -21.3339   25.4215 C   0  0  0  0  0  0  0  0  0  0  0  0
  -25.6216  -15.2887   23.2219 C   0  0  0  0  0  0  0  0  0  0  0  0
  -25.1724  -17.7365   22.7897 C   0  0  0  0  0  0  0  0  0  0  0  0
  -25.6740  -16.2467   20.8783 C   0  0  0  0  0  0  0  0  0  0  0  0
  -23.8526  -21.6067   24.9327 C   0  0  1  0  0  0  0  0  0  0  0  0
  -24.0857  -25.3394   24.2700 C   0  0  1  0  0  0  0  0  0  0  0  0
  -26.2575  -15.1842   21.8246 C   0  0  2  0  0  0  0  0  0  0  0  0
  -33.6900  -23.6436   15.4388 C   0  0  0  0  0  0  0  0  0  0  0  0
  -21.0456  -31.7992   21.2646 C   0  0  0  0  0  0  0  0  0  0  0  0
  -26.7498  -23.4066   16.1793 C   0  0  0  0  0  0  0  0  0  0  0  0
  -27.9611  -25.3511   15.2052 C   0  0  0  0  0  0  0  0  0  0  0  0
  -20.4097  -25.2096   21.4716 C   0  0  0  0  0  0  0  0  0  0  0  0
  -19.7666  -27.3952   20.4335 C   0  0  0  0  0  0  0  0  0  0  0  0
  -19.3003  -26.9783   22.8484 C   0  0  0  0  0  0  0  0  0  0  0  0
  -24.5184  -31.4096   22.7693 C   0  0  0  0  0  0  0  0  0  0  0  0
  -31.5681  -23.5710   16.8243 C   0  0  0  0  0  0  0  0  0  0  0  0
  -26.4283  -19.9704   21.3874 C   0  0  0  0  0  0  0  0  0  0  0  0
  -32.8432  -22.8253   16.4007 C   0  0  0  0  0  0  0  0  0  0  0  0
  -27.1258  -20.9640   20.4752 C   0  0  0  0  0  0  0  0  0  0  0  0
  -27.8149  -25.0023   18.4306 C   0  0  0  0  0  0  0  0  0  1  0  0
  -28.7887  -24.3672   17.4185 C   0  0  2  0  0  0  0  0  0  0  0  0
  -21.6821  -27.3678   22.0952 C   0  0  1  0  0  0  0  0  0  0  0  0
  -22.1285  -31.1322   22.0984 C   0  0  2  0  0  0  0  0  0  0  0  0
  -28.1257  -24.0699   16.0377 C   0  0  0  0  0  0  0  0  0  0  0  0
  -20.3169  -26.7295   21.7129 C   0  0  0  0  0  0  0  0  0  0  0  0
  -31.2887  -21.6562   18.2708 N   0  0  0  0  0  0  0  0  0  0  0  0
  -25.0499  -13.0499   21.5625 N   0  0  0  0  0  0  0  0  0  0  0  0
  -28.6454  -22.3894   18.8545 N   0  0  0  0  0  0  0  0  0  0  0  0
  -26.1308  -13.7851   21.2508 N   0  0  0  0  0  0  0  0  0  0  0  0
  -23.5407  -26.1364   23.1690 N   0  0  0  0  0  0  0  0  0  0  0  0
  -25.7835  -17.5860   21.4637 N   0  0  0  0  0  0  0  0  0  0  0  0
  -28.1489  -13.7452   20.0113 N   0  0  0  0  0  0  0  0  0  0  0  0
  -26.3525   -9.6802   19.2084 N   0  0  0  0  0  0  0  0  0  0  0  0
  -24.1079  -23.0292   24.9910 N   0  0  0  0  0  0  0  0  0  0  0  0
  -21.6191  -28.8019   22.3560 N   0  0  0  0  0  0  0  0  0  0  0  0
  -23.3761  -31.9386   21.9804 N   0  3  0  0  0  0  0  0  0  0  0  0
  -28.1471  -11.0410   18.7767 O   0  0  0  0  0  0  0  0  0  0  0  0
  -23.1229  -23.6225   22.9661 O   0  0  0  0  0  0  0  0  0  0  0  0
  -26.9047  -18.4604   19.6254 O   0  0  0  0  0  0  0  0  0  0  0  0
  -21.6691  -26.7906   24.3959 O   0  0  0  0  0  0  0  0  0  0  0  0
  -23.1620  -29.4223   20.7399 O   0  0  0  0  0  0  0  0  0  0  0  0
  -21.5302   -7.7539   21.2258 O   0  0  0  0  0  0  0  0  0  0  0  0
  -28.5226  -25.3801   19.6107 O   0  0  0  0  0  0  0  0  0  1  0  0
  -28.4583  -20.5251   20.2288 O   0  0  0  0  0  0  0  0  0  0  0  0
  -19.5154   -6.5045   26.2041 F   0  0  0  0  0  0  0  0  0  0  0  0
  -21.8694   -5.2295   22.3005 F   0  0  0  0  0  0  0  0  0  0  0  0
  1  2  1  0  0  0  0
  1  5  2  0  0  0  0
  2  6  2  0  0  0  0
  3  8  2  0  0  0  0
  3 16  1  0  0  0  0
  4  9  1  0  0  0  0
  4 16  2  0  0  0  0
  5 18  1  0  0  0  0
  6 20  1  0  0  0  0
  7 10  2  0  0  0  0
  7 19  1  0  0  0  0
  8 22  1  0  0  0  0
  9 22  2  0  0  0  0
 10 23  1  0  0  0  0
 11 12  2  0  0  0  0
 11 24  1  0  0  0  0
 12 25  1  0  0  0  0
 13 21  1  0  0  0  0
 13 23  2  0  0  0  0
 14 25  2  0  0  0  0
 14 26  1  0  0  0  0
 15 30  1  0  0  0  0
 15 67  2  0  0  0  0
 16 27  1  0  0  0  0
 17 27  1  0  0  0  0
 17 31  2  0  0  0  0
 17 32  1  0  0  0  0
 18 20  2  0  0  0  0
 18 37  1  0  0  0  0
 19 21  2  0  0  0  0
 19 38  1  0  0  0  0
 20 46  1  0  0  0  0
 21 39  1  0  0  0  0
 22 83  1  0  0  0  0
 23 84  1  0  0  0  0
 24 26  2  0  0  0  0
 24 83  1  0  0  0  0
 25 86  1  0  0  0  0
 26 87  1  0  0  0  0
 27 68  2  0  0  0  0
 28 29  2  0  0  0  0
 28 57  1  0  0  0  0
 28 67  1  0  0  0  0
 29 62  1  0  0  0  0
 29 69  1  0  0  0  0
 30 69  2  0  0  0  0
 30 85  1  0  0  0  0
 31 70  1  0  0  0  0
 31 73  1  0  0  0  0
 32 74  1  0  0  0  0
 32 78  2  0  0  0  0
 33 47  1  0  0  0  0
 33 75  1  0  0  0  0
 33 79  2  0  0  0  0
 34 58  1  0  0  0  0
 34 72  1  0  0  0  0
 34 80  2  0  0  0  0
 35 63  1  0  0  0  0
 35 71  1  0  0  0  0
 35 81  2  0  0  0  0
 36 64  1  0  0  0  0
 36 76  1  0  0  0  0
 36 82  2  0  0  0  0
 37 40  1  0  0  0  0
 38 47  1  0  0  0  0
 39 71  1  0  0  0  0
 40 42  1  0  0  0  0
 41 43  1  0  0  0  0
 41 44  1  0  0  0  0
 42 46  1  0  0  0  0
 43 48  1  0  0  0  0
 44 72  1  0  0  0  0
 45 48  1  0  0  0  0
 45 72  1  0  0  0  0
 46 75  1  0  0  0  0
 47 71  1  0  0  0  0
 48 70  1  0  0  0  0
 49 59  1  0  0  0  0
 50 64  1  0  0  0  0
 51 65  1  0  0  0  0
 52 65  1  0  0  0  0
 53 66  1  0  0  0  0
 54 66  1  0  0  0  0
 55 66  1  0  0  0  0
 56 77  1  0  0  0  0
 57 59  1  0  0  0  0
 58 60  1  0  0  0  0
 60 85  1  0  0  0  0
 61 62  1  0  0  0  0
 61 84  1  0  0  0  0
 62 65  1  0  0  0  0
 63 66  1  0  0  0  0
 63 76  1  0  0  0  0
 64 77  1  0  0  0  0
 68 70  1  0  0  0  0
M  CHG  1  77   1
M  ISO  4  34 100  58 100  61 101  84 101
M  END
> <Batch ID>
0079

> <Smiles>
CCCc1ncc(OC[100CH2:0][100C:0](=O)N2CCCC(n3nc(-c4ccc(Oc5ccc(F)cc5F)cc4)c(C(N)=O)c3N)C2)nc1C(C(C)C)[101CH2:1][101O:1]c1ccc2c(c1)CN(C(=O)C(NC(=O)C(C)NC)C(C)(C)C)C(C(=O)NC1CCCc3ccccc31)C2

> <Shape>
0.227

> <Color>
0.066

> <Negative vol penalty>
0.000

$$$$

  -OEChem-04052318413D

 86 94  0     1  0  0  0  0  0999 V2000
  -21.7646  -11.5314   18.9929 C   0  0  0  0  0  0  0  0  0  0  0  0
  -21.7346  -12.9113   18.8179 C   0  0  0  0  0  0  0  0  0  0  0  0
  -21.9806  -27.6905   26.1576 C   0  0  0  0  0  0  0  0  0  0  0  0
  -23.7722  -26.2170   25.4823 C   0  0  0  0  0  0  0  0  0  0  0  0
  -22.7643  -10.9502   19.7717 C   0  0  0  0  0  0  0  0  0  0  0  0
  -22.7038  -13.7108   19.4228 C   0  0  0  0  0  0  0  0  0  0  0  0
  -26.3987  -19.7584   18.3784 C   0  0  0  0  0  0  0  0  0  0  0  0
  -21.4180  -26.6608   26.9118 C   0  0  0  0  0  0  0  0  0  0  0  0
  -23.2096  -25.1873   26.2366 C   0  0  0  0  0  0  0  0  0  0  0  0
  -26.7054  -20.9576   19.0199 C   0  0  0  0  0  0  0  0  0  0  0  0
  -20.6715  -22.9748   25.9302 C   0  0  0  0  0  0  0  0  0  0  0  0
  -20.5879  -21.7124   25.3430 C   0  0  0  0  0  0  0  0  0  0  0  0
  -28.4309  -19.8361   20.2785 C   0  0  0  0  0  0  0  0  0  0  0  0
  -28.7459  -25.4116   20.5479 C   0  0  0  0  0  0  0  0  0  0  0  0
  -21.9664  -20.8013   27.1056 C   0  0  0  0  0  0  0  0  0  0  0  0
  -23.1577  -27.4685   25.4428 C   0  0  0  0  0  0  0  0  0  0  0  0
  -24.6837  -29.4827   25.0932 C   0  0  0  0  0  0  0  0  0  0  0  0
  -23.7519  -11.7422   20.3785 C   0  0  0  0  0  0  0  0  0  0  0  0
  -27.0997  -18.5847   18.6906 C   0  0  0  0  0  0  0  0  0  0  0  0
  -23.7169  -13.1398   20.2116 C   0  0  0  0  0  0  0  0  0  0  0  0
  -28.1329  -18.6238   19.6377 C   0  0  0  0  0  0  0  0  0  0  0  0
  -29.6868  -24.5162   21.0253 C   0  0  0  0  0  0  0  0  0  0  0  0
  -22.0325  -25.4092   26.9513 C   0  0  0  0  0  0  0  0  0  0  0  0
  -27.7196  -20.9960   19.9722 C   0  0  0  0  0  0  0  0  0  0  0  0
  -21.4025  -23.1505   27.1052 C   0  0  0  0  0  0  0  0  0  0  0  0
  -21.2354  -20.6256   25.9306 C   0  0  0  0  0  0  0  0  0  0  0  0
  -22.0500  -22.0637   27.6928 C   0  0  0  0  0  0  0  0  0  0  0  0
  -23.7391  -28.5316   24.6631 C   0  0  0  0  0  0  0  0  0  0  0  0
  -29.1339  -26.2884   19.5549 C   0  0  0  0  0  0  0  0  0  0  0  0
  -30.9533  -24.5567   20.4777 C   0  0  0  0  0  0  0  0  0  0  0  0
  -24.9113  -30.2649   23.9873 C   0  0  0  0  0  0  0  0  0  0  0  0
  -25.3003  -29.6446   26.3774 C   0  0  0  0  0  0  0  0  0  0  0  0
  -26.3089  -15.7549   19.9033 C   0  0  0  0  0  0  0  0  0  0  0  0
  -29.3999  -15.0383   19.2291 C   0  0  0  0  0  0  0  0  0  0  0  0
  -32.5820  -16.1506   18.6962 C   0  0  0  0  0  0  0  0  0  0  0  0
  -24.3715  -29.2695   18.1078 C   0  0  0  0  0  0  0  0  0  0  0  0
  -24.7849  -11.0729   21.2501 C   0  0  0  0  0  0  0  0  0  0  0  0
  -26.7748  -17.3048   17.9703 C   0  0  0  0  0  0  0  0  0  0  0  0
  -28.9291  -17.3960   19.9940 C   0  0  0  0  0  0  0  0  0  0  0  0
  -25.9935  -11.9560   21.5496 C   0  0  0  0  0  0  0  0  0  0  0  0
  -22.7747  -31.8269   20.0016 C   0  0  0  0  0  0  0  0  0  0  0  0
  -25.5441  -13.3544   21.9611 C   0  0  0  0  0  0  0  0  0  0  0  0
  -22.9260  -31.3582   21.4498 C   0  0  0  0  0  0  0  0  0  0  0  0
  -22.5466  -30.6547   19.0499 C   0  0  0  0  0  0  0  0  0  0  0  0
  -23.7067  -29.1134   20.5837 C   0  0  0  0  0  0  0  0  0  0  0  0
  -24.7651  -14.0383   20.8311 C   0  0  1  0  0  0  0  0  0  0  0  0
  -27.2079  -16.0602   18.7387 C   0  0  1  0  0  0  0  0  0  0  0  0
  -23.9944  -30.2553   21.5735 C   0  0  2  0  0  0  0  0  0  0  0  0
  -32.0193  -23.6229   20.9427 C   0  0  0  0  0  0  0  0  0  0  0  0
  -28.8296  -28.6416   18.7013 C   0  0  0  0  0  0  0  0  0  0  0  0
  -34.9008  -15.3259   18.2056 C   0  0  0  0  0  0  0  0  0  0  0  0
  -29.6984  -14.1563   22.1348 C   0  0  0  0  0  0  0  0  0  0  0  0
  -32.1823  -14.2559   21.8370 C   0  0  0  0  0  0  0  0  0  0  0  0
  -30.8269  -12.6680   20.4716 C   0  0  0  0  0  0  0  0  0  0  0  0
  -28.0943  -26.3618   16.5671 C   0  0  0  0  0  0  0  0  0  0  0  0
  -26.4576  -25.5024   18.2412 C   0  0  0  0  0  0  0  0  0  0  0  0
  -32.6892  -17.6254   16.1326 C   0  0  0  0  0  0  0  0  0  0  0  0
  -29.3145  -23.5354   22.1104 C   0  0  0  0  0  0  0  0  0  0  0  0
  -26.2295  -27.8277   17.3152 C   0  0  0  0  0  0  0  0  0  0  0  0
  -29.0714  -22.1322   21.5653 C   0  0  0  0  0  0  0  0  0  1  0  0
  -28.1589  -27.2732   19.0067 C   0  0  1  0  0  0  0  0  0  0  0  0
  -30.7088  -15.1440   19.9738 C   0  0  1  0  0  0  0  0  0  0  0  0
  -33.5937  -15.8273   17.6116 C   0  0  2  0  0  0  0  0  0  0  0  0
  -30.8380  -14.0789   21.0992 C   0  0  0  0  0  0  0  0  0  0  0  0
  -27.2497  -26.7568   17.7988 C   0  0  0  0  0  0  0  0  0  0  0  0
  -23.3904  -28.6931   23.3839 N   0  0  0  0  0  0  0  0  0  0  0  0
  -30.3806  -26.3058   19.0375 N   0  0  0  0  0  0  0  0  0  0  0  0
  -31.3052  -25.4254   19.5065 N   0  0  0  0  0  0  0  0  0  0  0  0
  -24.1198  -29.7549   23.0007 N   0  0  0  0  0  0  0  0  0  0  0  0
  -28.5695  -16.1673   19.2669 N   0  0  0  0  0  0  0  0  0  0  0  0
  -23.5948  -29.6450   19.2163 N   0  0  0  0  0  0  0  0  0  0  0  0
  -25.7092  -31.3324   23.7725 N   0  0  0  0  0  0  0  0  0  0  0  0
  -24.9530  -28.7539   27.4023 N   0  0  0  0  0  0  0  0  0  0  0  0
  -25.6731  -14.5311   19.8176 N   0  0  0  0  0  0  0  0  0  0  0  0
  -31.7596  -15.0767   18.9640 N   0  0  0  0  0  0  0  0  0  0  0  0
  -25.3471  -28.3112   18.3537 N   0  0  0  0  0  0  0  0  0  0  0  0
  -33.8831  -17.0400   16.7951 N   0  3  0  0  0  0  0  0  0  0  0  0
  -26.1221  -30.5623   26.6138 O   0  0  0  0  0  0  0  0  0  0  0  0
  -26.2014  -16.5688   20.8131 O   0  0  0  0  0  0  0  0  0  0  0  0
  -29.1277  -13.9951   18.6297 O   0  0  0  0  0  0  0  0  0  0  0  0
  -32.5292  -17.2449   19.2531 O   0  0  0  0  0  0  0  0  0  0  0  0
  -24.2111  -29.7564   16.9835 O   0  0  0  0  0  0  0  0  0  0  0  0
  -21.4839  -24.4043   27.6874 O   0  0  0  0  0  0  0  0  0  0  0  0
  -28.0206  -22.1651   20.6004 O   0  0  0  0  0  0  0  0  0  1  0  0
  -21.1538  -19.4131   25.3674 F   0  0  0  0  0  0  0  0  0  0  0  0
  -22.7528  -22.2261   28.8222 F   0  0  0  0  0  0  0  0  0  0  0  0
  1  2  1  0  0  0  0
  1  5  2  0  0  0  0
  2  6  2  0  0  0  0
  3  8  2  0  0  0  0
  3 16  1  0  0  0  0
  4  9  1  0  0  0  0
  4 16  2  0  0  0  0
  5 18  1  0  0  0  0
  6 20  1  0  0  0  0
  7 10  2  0  0  0  0
  7 19  1  0  0  0  0
  8 23  1  0  0  0  0
  9 23  2  0  0  0  0
 10 24  1  0  0  0  0
 11 12  2  0  0  0  0
 11 25  1  0  0  0  0
 12 26  1  0  0  0  0
 13 21  1  0  0  0  0
 13 24  2  0  0  0  0
 14 22  1  0  0  0  0
 14 29  2  0  0  0  0
 15 26  2  0  0  0  0
 15 27  1  0  0  0  0
 16 28  1  0  0  0  0
 17 28  1  0  0  0  0
 17 31  2  0  0  0  0
 17 32  1  0  0  0  0
 18 20  2  0  0  0  0
 18 37  1  0  0  0  0
 19 21  2  0  0  0  0
 19 38  1  0  0  0  0
 20 46  1  0  0  0  0
 21 39  1  0  0  0  0
 22 30  2  0  0  0  0
 22 58  1  0  0  0  0
 23 83  1  0  0  0  0
 24 84  1  0  0  0  0
 25 27  2  0  0  0  0
 25 83  1  0  0  0  0
 26 85  1  0  0  0  0
 27 86  1  0  0  0  0
 28 66  2  0  0  0  0
 29 61  1  0  0  0  0
 29 67  1  0  0  0  0
 30 49  1  0  0  0  0
 30 68  1  0  0  0  0
 31 69  1  0  0  0  0
 31 72  1  0  0  0  0
 32 73  1  0  0  0  0
 32 78  2  0  0  0  0
 33 47  1  0  0  0  0
 33 74  1  0  0  0  0
 33 79  2  0  0  0  0
 34 62  1  0  0  0  0
 34 70  1  0  0  0  0
 34 80  2  0  0  0  0
 35 63  1  0  0  0  0
 35 75  1  0  0  0  0
 35 81  2  0  0  0  0
 36 71  1  0  0  0  0
 36 76  1  0  0  0  0
 36 82  2  0  0  0  0
 37 40  1  0  0  0  0
 38 47  1  0  0  0  0
 39 70  1  0  0  0  0
 40 42  1  0  0  0  0
 41 43  1  0  0  0  0
 41 44  1  0  0  0  0
 42 46  1  0  0  0  0
 43 48  1  0  0  0  0
 44 71  1  0  0  0  0
 45 48  1  0  0  0  0
 45 71  1  0  0  0  0
 46 74  1  0  0  0  0
 47 70  1  0  0  0  0
 48 69  1  0  0  0  0
 50 61  1  0  0  0  0
 51 63  1  0  0  0  0
 52 64  1  0  0  0  0
 53 64  1  0  0  0  0
 54 64  1  0  0  0  0
 55 65  1  0  0  0  0
 56 65  1  0  0  0  0
 57 77  1  0  0  0  0
 58 60  1  0  0  0  0
 59 65  1  0  0  0  0
 59 76  1  0  0  0  0
 60 84  1  0  0  0  0
 61 65  1  0  0  0  0
 62 64  1  0  0  0  0
 62 75  1  0  0  0  0
 63 77  1  0  0  0  0
 66 69  1  0  0  0  0
 67 68  2  0  0  0  0
M  CHG  1  77   1
M  ISO  4  36 100  60 101  76 100  84 101
M  END
> <Batch ID>
0079

> <Smiles>
CNC(C)C(=O)NC(C(=O)N1Cc2cc([101O:1][101CH2:1]Cc3cc(C(C)C(C)(C)C[100NH:0][100C:0](=O)N4CCCC(n5nc(-c6ccc(Oc7ccc(F)cc7F)cc6)c(C(N)=O)c5N)C4)nnc3C)ccc2CC1C(=O)NC1CCCc2ccccc21)C(C)(C)C

> <Shape>
0.213

> <Color>
0.059

> <Negative vol penalty>
0.000

$$$$

  -OEChem-04052318413D

 88 96  0     1  0  0  0  0  0999 V2000
  -24.8739  -35.5871   22.0124 C   0  0  0  0  0  0  0  0  0  0  0  0
  -25.6060  -34.4052   21.9612 C   0  0  0  0  0  0  0  0  0  0  0  0
  -26.9554  -12.4144   20.5332 C   0  0  0  0  0  0  0  0  0  0  0  0
  -25.7838  -13.8568   18.9892 C   0  0  0  0  0  0  0  0  0  0  0  0
  -23.5861  -35.5855   22.5466 C   0  0  0  0  0  0  0  0  0  0  0  0
  -25.0510  -33.2211   22.4454 C   0  0  0  0  0  0  0  0  0  0  0  0
  -25.8197  -29.3005   19.3337 C   0  0  0  0  0  0  0  0  0  0  0  0
  -26.0153  -11.4090   20.3074 C   0  0  0  0  0  0  0  0  0  0  0  0
  -24.8437  -12.8514   18.7633 C   0  0  0  0  0  0  0  0  0  0  0  0
  -27.0820  -28.7090   19.3547 C   0  0  0  0  0  0  0  0  0  0  0  0
  -23.7201   -8.5903   20.4096 C   0  0  0  0  0  0  0  0  0  0  0  0
  -23.2197   -7.9074   21.5181 C   0  0  0  0  0  0  0  0  0  0  0  0
  -26.2265  -26.9474   20.7632 C   0  0  0  0  0  0  0  0  0  0  0  0
  -26.8919  -21.5892   18.6750 C   0  0  0  0  0  0  0  0  0  0  0  0
  -22.3695   -9.9840   22.4136 C   0  0  0  0  0  0  0  0  0  0  0  0
  -26.8396  -13.6383   19.8742 C   0  0  0  0  0  0  0  0  0  0  0  0
  -29.0084  -14.8955   19.4016 C   0  0  0  0  0  0  0  0  0  0  0  0
  -23.0114  -34.3989   23.0288 C   0  0  0  0  0  0  0  0  0  0  0  0
  -24.7521  -28.7249   20.0375 C   0  0  0  0  0  0  0  0  0  0  0  0
  -23.7548  -33.2039   22.9879 C   0  0  0  0  0  0  0  0  0  0  0  0
  -24.9510  -27.5322   20.7475 C   0  0  0  0  0  0  0  0  0  0  0  0
  -27.7638  -21.3014   17.5961 C   0  0  0  0  0  0  0  0  0  0  0  0
  -24.9595  -11.6274   19.4224 C   0  0  0  0  0  0  0  0  0  0  0  0
  -27.2863  -27.5338   20.0718 C   0  0  0  0  0  0  0  0  0  0  0  0
  -23.5454   -9.9701   20.3031 C   0  0  0  0  0  0  0  0  0  0  0  0
  -22.5444   -8.6042   22.5201 C   0  0  0  0  0  0  0  0  0  0  0  0
  -22.8701  -10.6669   21.3051 C   0  0  0  0  0  0  0  0  0  0  0  0
  -27.8101  -14.6775   20.1075 C   0  0  0  0  0  0  0  0  0  0  0  0
  -27.5831  -22.3855   19.5612 C   0  0  0  0  0  0  0  0  0  0  0  0
  -28.9614  -21.9304   17.8560 C   0  0  0  0  0  0  0  0  0  0  0  0
  -29.5668  -15.9960   20.0047 C   0  0  0  0  0  0  0  0  0  0  0  0
  -29.5669  -14.1684   18.2993 C   0  0  0  0  0  0  0  0  0  0  0  0
  -22.8844  -29.6557   22.4352 C   0  0  0  0  0  0  0  0  0  0  0  0
  -21.3254  -26.8874   21.7807 C   0  0  0  0  0  0  0  0  0  0  0  0
  -21.4338  -23.7453   20.4534 C   0  0  0  0  0  0  0  0  0  0  0  0
  -27.2494  -20.5514   23.1238 C   0  0  0  0  0  0  0  0  0  0  0  0
  -21.6340  -34.4558   23.6406 C   0  0  0  0  0  0  0  0  0  0  0  0
  -23.3902  -29.3609   19.9830 C   0  0  0  0  0  0  0  0  0  0  0  0
  -23.8329  -26.8632   21.5031 C   0  0  0  0  0  0  0  0  0  0  0  0
  -20.9765  -33.0862   23.7893 C   0  0  0  0  0  0  0  0  0  0  0  0
  -29.7560  -18.2684   24.2108 C   0  0  0  0  0  0  0  0  0  0  0  0
  -21.9582  -32.0852   24.3902 C   0  0  0  0  0  0  0  0  0  0  0  0
  -29.6496  -17.1089   23.2187 C   0  0  0  0  0  0  0  0  0  0  0  0
  -28.3866  -18.8619   24.5340 C   0  0  0  0  0  0  0  0  0  0  0  0
  -27.4882  -18.1090   22.3661 C   0  0  0  0  0  0  0  0  0  0  0  0
  -23.1779  -31.8945   23.4805 C   0  0  1  0  0  0  0  0  0  0  0  0
  -22.4991  -28.9665   21.1568 C   0  0  1  0  0  0  0  0  0  0  0  0
  -28.8493  -17.5141   21.9663 C   0  0  2  0  0  0  0  0  0  0  0  0
  -30.2112  -21.9632   17.0666 C   0  0  0  0  0  0  0  0  0  0  0  0
  -20.0146  -21.7061   20.0998 C   0  0  0  0  0  0  0  0  0  0  0  0
  -25.9748  -19.9302   16.4714 C   0  0  0  0  0  0  0  0  0  0  0  0
  -28.3883  -19.2380   16.2925 C   0  0  0  0  0  0  0  0  0  0  0  0
  -27.5452  -21.2027   15.0235 C   0  0  0  0  0  0  0  0  0  0  0  0
  -21.6455  -26.1570   24.7259 C   0  0  0  0  0  0  0  0  0  0  0  0
  -21.0927  -23.7897   24.1270 C   0  0  0  0  0  0  0  0  0  0  0  0
  -19.4132  -25.5949   23.7483 C   0  0  0  0  0  0  0  0  0  0  0  0
  -31.0787  -25.5607   20.2339 C   0  0  0  0  0  0  0  0  0  0  0  0
  -29.8333  -25.3739   18.0800 C   0  0  0  0  0  0  0  0  0  0  0  0
  -21.6944  -23.9317   17.5112 C   0  0  0  0  0  0  0  0  0  0  0  0
  -27.1482  -22.9695   20.8467 C   0  0  0  0  0  0  0  0  0  0  0  0
  -29.9254  -23.4052   19.7129 C   0  0  0  0  0  0  0  0  0  0  0  0
  -26.0970  -22.1301   21.5944 C   0  0  0  0  0  0  0  0  0  0  0  0
  -28.5652  -25.5354   20.2349 C   0  0  0  0  0  0  0  0  0  1  0  0
  -21.4442  -25.4571   22.2489 C   0  0  1  0  0  0  0  0  0  0  0  0
  -20.4970  -23.0197   19.5045 C   0  0  2  0  0  0  0  0  0  0  0  0
  -27.4403  -20.4782   16.4138 C   0  0  0  0  0  0  0  0  0  0  0  0
  -20.9206  -25.2631   23.7000 C   0  0  0  0  0  0  0  0  0  0  0  0
  -29.8271  -24.9527   19.5610 C   0  0  0  0  0  0  0  0  0  0  0  0
  -27.6178  -15.5678   21.0844 N   0  0  0  0  0  0  0  0  0  0  0  0
  -28.8401  -22.5861   19.0532 N   0  0  0  0  0  0  0  0  0  0  0  0
  -28.7028  -16.3559   20.9967 N   0  0  0  0  0  0  0  0  0  0  0  0
  -22.5211  -27.5270   21.4244 N   0  0  0  0  0  0  0  0  0  0  0  0
  -27.6801  -19.2266   23.3037 N   0  0  0  0  0  0  0  0  0  0  0  0
  -30.7076  -16.6812   19.7779 N   0  0  0  0  0  0  0  0  0  0  0  0
  -28.8626  -13.0632   17.8024 N   0  0  0  0  0  0  0  0  0  0  0  0
  -22.8463  -31.0352   22.3641 N   0  0  0  0  0  0  0  0  0  0  0  0
  -20.7574  -24.6430   21.2520 N   0  0  0  0  0  0  0  0  0  0  0  0
  -26.5935  -20.8135   21.9271 N   0  0  0  0  0  0  0  0  0  0  0  0
  -21.1884  -22.7266   18.2173 N   0  3  0  0  0  0  0  0  0  0  0  0
  -30.6662  -14.4794   17.7811 O   0  0  0  0  0  0  0  0  0  0  0  0
  -23.1919  -28.9856   23.4139 O   0  0  0  0  0  0  0  0  0  0  0  0
  -20.2119  -27.4154   21.7262 O   0  0  0  0  0  0  0  0  0  0  0  0
  -22.6441  -23.5339   20.4857 O   0  0  0  0  0  0  0  0  0  0  0  0
  -27.4402  -21.4364   23.9648 O   0  0  0  0  0  0  0  0  0  0  0  0
  -24.0421  -10.6465   19.2016 O   0  0  0  0  0  0  0  0  0  0  0  0
  -28.5175  -26.9547   20.0945 O   0  0  0  0  0  0  0  0  0  1  0  0
  -22.0625   -7.9480   23.5837 F   0  0  0  0  0  0  0  0  0  0  0  0
  -22.6980  -11.9924   21.2078 F   0  0  0  0  0  0  0  0  0  0  0  0
  1  2  1  0  0  0  0
  1  5  2  0  0  0  0
  2  6  2  0  0  0  0
  3  8  2  0  0  0  0
  3 16  1  0  0  0  0
  4  9  1  0  0  0  0
  4 16  2  0  0  0  0
  5 18  1  0  0  0  0
  6 20  1  0  0  0  0
  7 10  2  0  0  0  0
  7 19  1  0  0  0  0
  8 23  1  0  0  0  0
  9 23  2  0  0  0  0
 10 24  1  0  0  0  0
 11 12  2  0  0  0  0
 11 25  1  0  0  0  0
 12 26  1  0  0  0  0
 13 21  1  0  0  0  0
 13 24  2  0  0  0  0
 14 22  1  0  0  0  0
 14 29  2  0  0  0  0
 15 26  2  0  0  0  0
 15 27  1  0  0  0  0
 16 28  1  0  0  0  0
 17 28  1  0  0  0  0
 17 31  2  0  0  0  0
 17 32  1  0  0  0  0
 18 20  2  0  0  0  0
 18 37  1  0  0  0  0
 19 21  2  0  0  0  0
 19 38  1  0  0  0  0
 20 46  1  0  0  0  0
 21 39  1  0  0  0  0
 22 30  2  0  0  0  0
 22 66  1  0  0  0  0
 23 85  1  0  0  0  0
 24 86  1  0  0  0  0
 25 27  2  0  0  0  0
 25 85  1  0  0  0  0
 26 87  1  0  0  0  0
 27 88  1  0  0  0  0
 28 69  2  0  0  0  0
 29 60  1  0  0  0  0
 29 70  1  0  0  0  0
 30 49  1  0  0  0  0
 30 70  1  0  0  0  0
 31 71  1  0  0  0  0
 31 74  1  0  0  0  0
 32 75  1  0  0  0  0
 32 80  2  0  0  0  0
 33 47  1  0  0  0  0
 33 76  1  0  0  0  0
 33 81  2  0  0  0  0
 34 64  1  0  0  0  0
 34 72  1  0  0  0  0
 34 82  2  0  0  0  0
 35 65  1  0  0  0  0
 35 77  1  0  0  0  0
 35 83  2  0  0  0  0
 36 73  1  0  0  0  0
 36 78  1  0  0  0  0
 36 84  2  0  0  0  0
 37 40  1  0  0  0  0
 38 47  1  0  0  0  0
 39 72  1  0  0  0  0
 40 42  1  0  0  0  0
 41 43  1  0  0  0  0
 41 44  1  0  0  0  0
 42 46  1  0  0  0  0
 43 48  1  0  0  0  0
 44 73  1  0  0  0  0
 45 48  1  0  0  0  0
 45 73  1  0  0  0  0
 46 76  1  0  0  0  0
 47 72  1  0  0  0  0
 48 71  1  0  0  0  0
 50 65  1  0  0  0  0
 51 66  1  0  0  0  0
 52 66  1  0  0  0  0
 53 66  1  0  0  0  0
 54 67  1  0  0  0  0
 55 67  1  0  0  0  0
 56 67  1  0  0  0  0
 57 68  1  0  0  0  0
 58 68  1  0  0  0  0
 59 79  1  0  0  0  0
 60 62  1  0  0  0  0
 61 68  1  0  0  0  0
 61 70  1  0  0  0  0
 62 78  1  0  0  0  0
 63 68  1  0  0  0  0
 63 86  1  0  0  0  0
 64 67  1  0  0  0  0
 64 77  1  0  0  0  0
 65 79  1  0  0  0  0
 69 71  1  0  0  0  0
M  CHG  1  79   1
M  ISO  4  36 100  63 101  78 100  86 101
M  END
> <Batch ID>
0079

> <Smiles>
CNC(C)C(=O)NC(C(=O)N1Cc2cc([101O:1][101CH2:1]C(C)(C)Cn3c(CC[100NH:0][100C:0](=O)N4CCCC(n5nc(-c6ccc(Oc7ccc(F)cc7F)cc6)c(C(N)=O)c5N)C4)cc(C(C)(C)C)c3C)ccc2CC1C(=O)NC1CCCc2ccccc21)C(C)(C)C

> <Shape>
0.248

> <Color>
0.084

> <Negative vol penalty>
0.000

$$$$

  -OEChem-04052318413D

 85 93  0     1  0  0  0  0  0999 V2000
  -20.3509  -28.3252   18.8966 C   0  0  0  0  0  0  0  0  0  0  0  0
  -21.0598  -27.1283   18.9066 C   0  0  0  0  0  0  0  0  0  0  0  0
  -28.1130  -23.8600   20.6606 C   0  0  0  0  0  0  0  0  0  0  0  0
  -26.7852  -22.6961   19.0116 C   0  0  0  0  0  0  0  0  0  0  0  0
  -19.7159  -28.7677   20.0563 C   0  0  0  0  0  0  0  0  0  0  0  0
  -21.1351  -26.3736   20.0767 C   0  0  0  0  0  0  0  0  0  0  0  0
  -21.2827  -20.2670   20.5159 C   0  0  0  0  0  0  0  0  0  0  0  0
  -27.7852  -25.0779   20.0650 C   0  0  0  0  0  0  0  0  0  0  0  0
  -26.4573  -23.9140   18.4160 C   0  0  0  0  0  0  0  0  0  0  0  0
  -22.3313  -19.3638   20.6846 C   0  0  0  0  0  0  0  0  0  0  0  0
  -25.1560  -27.2036   20.0253 C   0  0  0  0  0  0  0  0  0  0  0  0
  -24.7814  -28.2546   20.8624 C   0  0  0  0  0  0  0  0  0  0  0  0
  -21.9231  -19.3432   23.0620 C   0  0  0  0  0  0  0  0  0  0  0  0
  -24.2042  -12.6731   21.6748 C   0  0  0  0  0  0  0  0  0  0  0  0
  -25.6300  -14.0482   20.3108 C   0  0  0  0  0  0  0  0  0  0  0  0
  -26.6286  -29.5730   20.0336 C   0  0  0  0  0  0  0  0  0  0  0  0
  -27.6131  -22.6691   20.1339 C   0  0  0  0  0  0  0  0  0  0  0  0
  -27.2524  -20.7512   21.7768 C   0  0  0  0  0  0  0  0  0  0  0  0
  -19.7754  -28.0133   21.2386 C   0  0  0  0  0  0  0  0  0  0  0  0
  -20.5523  -20.7242   21.6221 C   0  0  0  0  0  0  0  0  0  0  0  0
  -20.5015  -26.8071   21.2537 C   0  0  0  0  0  0  0  0  0  0  0  0
  -20.8641  -20.2502   22.9044 C   0  0  0  0  0  0  0  0  0  0  0  0
  -24.5557  -13.9260   21.1851 C   0  0  0  0  0  0  0  0  0  0  0  0
  -26.9573  -25.1049   18.9427 C   0  0  0  0  0  0  0  0  0  0  0  0
  -22.6535  -18.9040   21.9581 C   0  0  0  0  0  0  0  0  0  0  0  0
  -26.2669  -27.3373   19.1924 C   0  0  0  0  0  0  0  0  0  0  0  0
  -25.5177  -29.4393   20.8666 C   0  0  0  0  0  0  0  0  0  0  0  0
  -27.0032  -28.5220   19.1966 C   0  0  0  0  0  0  0  0  0  0  0  0
  -27.9519  -21.4106   20.7484 C   0  0  0  0  0  0  0  0  0  0  0  0
  -24.9528  -11.5823   21.2629 C   0  0  0  0  0  0  0  0  0  0  0  0
  -26.3149  -12.8960   19.9601 C   0  0  0  0  0  0  0  0  0  0  0  0
  -27.9746  -19.6050   22.0031 C   0  0  0  0  0  0  0  0  0  0  0  0
  -26.0567  -21.1399   22.4659 C   0  0  0  0  0  0  0  0  0  0  0  0
  -20.0554  -23.5624   22.9643 C   0  0  0  0  0  0  0  0  0  0  0  0
  -17.9868  -21.8883   24.8191 C   0  0  0  0  0  0  0  0  0  0  0  0
  -17.0600  -18.8797   26.1368 C   0  0  0  0  0  0  0  0  0  0  0  0
  -30.7578  -15.1532   20.1108 C   0  0  0  0  0  0  0  0  0  0  0  0
  -19.1126  -28.5559   22.4800 C   0  0  0  0  0  0  0  0  0  0  0  0
  -19.4068  -21.6779   21.4202 C   0  0  0  0  0  0  0  0  0  0  0  0
  -20.0975  -20.6947   24.1223 C   0  0  0  0  0  0  0  0  0  0  0  0
  -18.9268  -27.5111   23.5774 C   0  0  0  0  0  0  0  0  0  0  0  0
  -32.5519  -18.2188   20.3561 C   0  0  0  0  0  0  0  0  0  0  0  0
  -20.2096  -26.7093   23.7738 C   0  0  0  0  0  0  0  0  0  0  0  0
  -31.4573  -19.2680   20.5584 C   0  0  0  0  0  0  0  0  0  0  0  0
  -32.1027  -17.1106   19.4063 C   0  0  0  0  0  0  0  0  0  0  0  0
  -29.7379  -17.5065   19.9759 C   0  0  0  0  0  0  0  0  0  0  0  0
  -20.5853  -25.9481   22.4968 C   0  0  1  0  0  0  0  0  0  0  0  0
  -19.0622  -22.4723   22.6763 C   0  0  1  0  0  0  0  0  0  0  0  0
  -30.1240  -18.6152   20.9699 C   0  0  2  0  0  0  0  0  0  0  0  0
  -24.6033  -10.2220   21.7668 C   0  0  0  0  0  0  0  0  0  0  0  0
  -27.2011  -12.2298   17.7100 C   0  0  0  0  0  0  0  0  0  0  0  0
  -15.3504  -17.8330   27.6464 C   0  0  0  0  0  0  0  0  0  0  0  0
  -19.4362  -23.0309   27.2489 C   0  0  0  0  0  0  0  0  0  0  0  0
  -18.3456  -21.2614   28.6444 C   0  0  0  0  0  0  0  0  0  0  0  0
  -16.9456  -22.9532   27.4611 C   0  0  0  0  0  0  0  0  0  0  0  0
  -16.0510  -17.1303   23.9733 C   0  0  0  0  0  0  0  0  0  0  0  0
  -23.7744  -15.1472   21.5996 C   0  0  0  0  0  0  0  0  0  0  0  0
  -24.3193  -15.8297   22.8562 C   0  0  0  0  0  0  0  0  0  0  0  0
  -28.8194  -12.4951   19.6310 C   0  0  0  0  0  0  0  0  0  0  0  0
  -29.2870  -13.2949   20.8472 C   0  0  0  0  0  0  0  0  0  0  0  0
  -23.5761  -17.1103   23.2181 C   0  0  0  0  0  0  0  0  0  1  0  0
  -27.4742  -12.9904   19.0253 C   0  0  2  0  0  0  0  0  0  0  0  0
  -18.0889  -21.1370   26.1246 C   0  0  1  0  0  0  0  0  0  0  0  0
  -15.7122  -18.1852   26.2119 C   0  0  2  0  0  0  0  0  0  0  0  0
  -18.2200  -22.0886   27.3472 C   0  0  0  0  0  0  0  0  0  0  0  0
  -29.0353  -20.7393   20.3490 N   0  0  0  0  0  0  0  0  0  0  0  0
  -26.0028  -11.6618   20.4151 N   0  0  0  0  0  0  0  0  0  0  0  0
  -29.0221  -19.6461   21.1306 N   0  0  0  0  0  0  0  0  0  0  0  0
  -18.9904  -21.6329   23.8739 N   0  0  0  0  0  0  0  0  0  0  0  0
  -30.8335  -16.5321   19.8538 N   0  0  0  0  0  0  0  0  0  0  0  0
  -27.8094  -18.5761   22.8613 N   0  0  0  0  0  0  0  0  0  0  0  0
  -25.4425  -22.3480   22.1088 N   0  0  0  0  0  0  0  0  0  0  0  0
  -19.7626  -24.7663   22.3523 N   0  0  0  0  0  0  0  0  0  0  0  0
  -16.9305  -20.2518   26.1778 N   0  0  0  0  0  0  0  0  0  0  0  0
  -29.5199  -14.6879   20.5372 N   0  0  0  0  0  0  0  0  0  0  0  0
  -15.7314  -16.9291   25.4101 N   0  3  0  0  0  0  0  0  0  0  0  0
  -25.5571  -20.4447   23.3828 O   0  0  0  0  0  0  0  0  0  0  0  0
  -21.0154  -23.3291   23.6893 O   0  0  0  0  0  0  0  0  0  0  0  0
  -17.0471  -22.6675   24.6418 O   0  0  0  0  0  0  0  0  0  0  0  0
  -18.1218  -18.2662   26.0540 O   0  0  0  0  0  0  0  0  0  0  0  0
  -31.7234  -14.3941   19.9758 O   0  0  0  0  0  0  0  0  0  0  0  0
  -26.6370  -26.2932   18.3613 O   0  0  0  0  0  0  0  0  0  0  0  0
  -23.6770  -18.0229   22.1257 O   0  0  0  0  0  0  0  0  0  1  0  0
  -25.1570  -30.4490   21.6694 F   0  0  0  0  0  0  0  0  0  0  0  0
  -28.0707  -28.6567   18.3977 F   0  0  0  0  0  0  0  0  0  0  0  0
  1  2  1  0  0  0  0
  1  5  2  0  0  0  0
  2  6  2  0  0  0  0
  3  8  2  0  0  0  0
  3 17  1  0  0  0  0
  4  9  1  0  0  0  0
  4 17  2  0  0  0  0
  5 19  1  0  0  0  0
  6 21  1  0  0  0  0
  7 10  2  0  0  0  0
  7 20  1  0  0  0  0
  8 24  1  0  0  0  0
  9 24  2  0  0  0  0
 10 25  1  0  0  0  0
 11 12  2  0  0  0  0
 11 26  1  0  0  0  0
 12 27  1  0  0  0  0
 13 22  1  0  0  0  0
 13 25  2  0  0  0  0
 14 23  1  0  0  0  0
 14 30  2  0  0  0  0
 15 23  2  0  0  0  0
 15 31  1  0  0  0  0
 16 27  2  0  0  0  0
 16 28  1  0  0  0  0
 17 29  1  0  0  0  0
 18 29  1  0  0  0  0
 18 32  2  0  0  0  0
 18 33  1  0  0  0  0
 19 21  2  0  0  0  0
 19 38  1  0  0  0  0
 20 22  2  0  0  0  0
 20 39  1  0  0  0  0
 21 47  1  0  0  0  0
 22 40  1  0  0  0  0
 23 57  1  0  0  0  0
 24 82  1  0  0  0  0
 25 83  1  0  0  0  0
 26 28  2  0  0  0  0
 26 82  1  0  0  0  0
 27 84  1  0  0  0  0
 28 85  1  0  0  0  0
 29 66  2  0  0  0  0
 30 50  1  0  0  0  0
 30 67  1  0  0  0  0
 31 62  1  0  0  0  0
 31 67  2  0  0  0  0
 32 68  1  0  0  0  0
 32 71  1  0  0  0  0
 33 72  1  0  0  0  0
 33 77  2  0  0  0  0
 34 48  1  0  0  0  0
 34 73  1  0  0  0  0
 34 78  2  0  0  0  0
 35 63  1  0  0  0  0
 35 69  1  0  0  0  0
 35 79  2  0  0  0  0
 36 64  1  0  0  0  0
 36 74  1  0  0  0  0
 36 80  2  0  0  0  0
 37 70  1  0  0  0  0
 37 75  1  0  0  0  0
 37 81  2  0  0  0  0
 38 41  1  0  0  0  0
 39 48  1  0  0  0  0
 40 69  1  0  0  0  0
 41 43  1  0  0  0  0
 42 44  1  0  0  0  0
 42 45  1  0  0  0  0
 43 47  1  0  0  0  0
 44 49  1  0  0  0  0
 45 70  1  0  0  0  0
 46 49  1  0  0  0  0
 46 70  1  0  0  0  0
 47 73  1  0  0  0  0
 48 69  1  0  0  0  0
 49 68  1  0  0  0  0
 51 62  1  0  0  0  0
 52 64  1  0  0  0  0
 53 65  1  0  0  0  0
 54 65  1  0  0  0  0
 55 65  1  0  0  0  0
 56 76  1  0  0  0  0
 57 58  1  0  0  0  0
 58 61  1  0  0  0  0
 59 60  1  0  0  0  0
 59 62  1  0  0  0  0
 60 75  1  0  0  0  0
 61 83  1  0  0  0  0
 63 65  1  0  0  0  0
 63 74  1  0  0  0  0
 64 76  1  0  0  0  0
 66 68  1  0  0  0  0
M  CHG  1  76   1
M  ISO  4  37 100  61 101  75 100  83 101
M  END
> <Batch ID>
0079

> <Smiles>
CNC(C)C(=O)NC(C(=O)N1Cc2cc([101O:1][101CH2:1]CCc3cc(C)nc(C(C)CC[100NH:0][100C:0](=O)N4CCCC(n5nc(-c6ccc(Oc7ccc(F)cc7F)cc6)c(C(N)=O)c5N)C4)c3)ccc2CC1C(=O)NC1CCCc2ccccc21)C(C)(C)C

> <Shape>
0.197

> <Color>
0.101

> <Negative vol penalty>
0.000

$$$$

  -OEChem-04052318413D

 86 94  0     1  0  0  0  0  0999 V2000
  -16.6148  -28.8910   23.4956 C   0  0  0  0  0  0  0  0  0  0  0  0
  -17.4533  -28.2885   22.5632 C   0  0  0  0  0  0  0  0  0  0  0  0
  -26.8487  -11.0318   21.2767 C   0  0  0  0  0  0  0  0  0  0  0  0
  -25.6482  -12.5450   19.8255 C   0  0  0  0  0  0  0  0  0  0  0  0
  -16.9874  -30.0954   24.0908 C   0  0  0  0  0  0  0  0  0  0  0  0
  -18.6645  -28.8909   22.2247 C   0  0  0  0  0  0  0  0  0  0  0  0
  -23.9121  -26.0674   20.8118 C   0  0  0  0  0  0  0  0  0  0  0  0
  -25.6385  -10.5489   21.7744 C   0  0  0  0  0  0  0  0  0  0  0  0
  -24.4379  -12.0621   20.3232 C   0  0  0  0  0  0  0  0  0  0  0  0
  -24.5140  -25.7620   19.5918 C   0  0  0  0  0  0  0  0  0  0  0  0
  -23.2198   -8.4010   20.7897 C   0  0  0  0  0  0  0  0  0  0  0  0
  -23.0770   -7.0195   20.9187 C   0  0  0  0  0  0  0  0  0  0  0  0
  -25.8474  -27.7656   19.7549 C   0  0  0  0  0  0  0  0  0  0  0  0
  -22.7158   -7.2786   23.2935 C   0  0  0  0  0  0  0  0  0  0  0  0
  -28.8110  -24.1343   18.4105 C   0  0  0  0  0  0  0  0  0  0  0  0
  -27.7393  -22.1907   16.9268 C   0  0  0  0  0  0  0  0  0  0  0  0
  -26.8536  -12.0300   20.3023 C   0  0  0  0  0  0  0  0  0  0  0  0
  -28.8239  -12.0407   18.6821 C   0  0  0  0  0  0  0  0  0  0  0  0
  -18.2082  -30.7079   23.7666 C   0  0  0  0  0  0  0  0  0  0  0  0
  -24.2661  -27.2318   21.5083 C   0  0  0  0  0  0  0  0  0  0  0  0
  -19.0532  -30.1054   22.8152 C   0  0  0  0  0  0  0  0  0  0  0  0
  -25.2504  -28.0823   20.9847 C   0  0  0  0  0  0  0  0  0  0  0  0
  -24.4331  -11.0640   21.2976 C   0  0  0  0  0  0  0  0  0  0  0  0
  -25.4797  -26.6126   19.0618 C   0  0  0  0  0  0  0  0  0  0  0  0
  -23.1107   -9.2214   21.9126 C   0  0  0  0  0  0  0  0  0  0  0  0
  -22.8250   -6.4583   22.1706 C   0  0  0  0  0  0  0  0  0  0  0  0
  -22.8587   -8.6601   23.1645 C   0  0  0  0  0  0  0  0  0  0  0  0
  -28.1034  -12.5296   19.7883 C   0  0  0  0  0  0  0  0  0  0  0  0
  -28.2159  -24.4106   17.1993 C   0  0  0  0  0  0  0  0  0  0  0  0
  -28.3350  -21.9141   18.1376 C   0  0  0  0  0  0  0  0  0  0  0  0
  -29.9312  -12.8501   18.6086 C   0  0  0  0  0  0  0  0  0  0  0  0
  -28.5195  -10.9524   17.7998 C   0  0  0  0  0  0  0  0  0  0  0  0
  -22.7194  -29.8505   22.4324 C   0  0  0  0  0  0  0  0  0  0  0  0
  -25.5203  -30.5041   23.9326 C   0  0  0  0  0  0  0  0  0  0  0  0
  -28.8952  -30.0274   24.1040 C   0  0  0  0  0  0  0  0  0  0  0  0
  -31.0250  -18.4405   20.4530 C   0  0  0  0  0  0  0  0  0  0  0  0
  -18.5463  -32.0337   24.4012 C   0  0  0  0  0  0  0  0  0  0  0  0
  -23.6268  -27.5333   22.8360 C   0  0  0  0  0  0  0  0  0  0  0  0
  -25.6805  -29.3343   21.7030 C   0  0  0  0  0  0  0  0  0  0  0  0
  -20.0180  -32.4160   24.2659 C   0  0  0  0  0  0  0  0  0  0  0  0
  -32.8208  -15.5001   21.3506 C   0  0  0  0  0  0  0  0  0  0  0  0
  -20.4982  -32.1927   22.8354 C   0  0  0  0  0  0  0  0  0  0  0  0
  -31.8805  -14.3613   20.9522 C   0  0  0  0  0  0  0  0  0  0  0  0
  -32.0521  -16.7041   21.8905 C   0  0  0  0  0  0  0  0  0  0  0  0
  -30.0481  -16.0700   20.6036 C   0  0  0  0  0  0  0  0  0  0  0  0
  -20.3864  -30.7153   22.4403 C   0  0  1  0  0  0  0  0  0  0  0  0
  -23.6935  -29.0109   23.2095 C   0  0  1  0  0  0  0  0  0  0  0  0
  -30.7737  -14.8548   20.0010 C   0  0  2  0  0  0  0  0  0  0  0  0
  -30.9191  -30.7242   25.4138 C   0  0  0  0  0  0  0  0  0  0  0  0
  -30.8157  -20.1426   17.7387 C   0  0  0  0  0  0  0  0  0  0  0  0
  -27.4516  -25.9841   15.2968 C   0  0  0  0  0  0  0  0  0  0  0  0
  -29.5934  -26.3905   16.4906 C   0  0  0  0  0  0  0  0  0  0  0  0
  -27.7373  -19.4402   17.7081 C   0  0  0  0  0  0  0  0  0  0  0  0
  -27.5755  -20.4026   19.9865 C   0  0  0  0  0  0  0  0  0  0  0  0
  -25.5059  -33.2051   22.5133 C   0  0  0  0  0  0  0  0  0  0  0  0
  -27.9318  -33.4404   23.0856 C   0  0  0  0  0  0  0  0  0  0  0  0
  -26.2321  -33.2873   24.9050 C   0  0  0  0  0  0  0  0  0  0  0  0
  -29.4513  -27.2452   24.9462 C   0  0  0  0  0  0  0  0  0  0  0  0
  -27.4091  -26.7665   17.6800 C   0  0  0  0  0  0  0  0  0  1  0  0
  -26.7924  -31.2240   23.5555 C   0  0  1  0  0  0  0  0  0  0  0  0
  -29.8077  -29.6960   25.2710 C   0  0  2  0  0  0  0  0  0  0  0  0
  -29.8927  -20.0661   18.9582 C   0  0  1  0  0  0  0  0  0  0  0  0
  -28.1539  -25.8558   16.6700 C   0  0  0  0  0  0  0  0  0  0  0  0
  -28.3945  -20.5174   18.6493 C   0  0  0  0  0  0  0  0  0  0  0  0
  -26.6063  -32.7667   23.5001 C   0  0  0  0  0  0  0  0  0  0  0  0
  -27.6691  -23.4439   16.4358 N   0  0  0  0  0  0  0  0  0  0  0  0
  -28.8815  -22.8810   18.9012 N   0  0  0  0  0  0  0  0  0  0  0  0
  -28.7027  -13.5689   20.3754 N   0  0  0  0  0  0  0  0  0  0  0  0
  -29.8115  -13.7397   19.6355 N   0  0  0  0  0  0  0  0  0  0  0  0
  -25.0217  -29.5889   22.9948 N   0  0  0  0  0  0  0  0  0  0  0  0
  -31.0187  -17.1232   20.9405 N   0  0  0  0  0  0  0  0  0  0  0  0
  -30.9859  -12.8804   17.7665 N   0  0  0  0  0  0  0  0  0  0  0  0
  -27.3413  -10.2253   18.0175 N   0  0  0  0  0  0  0  0  0  0  0  0
  -21.4725  -29.9538   23.0189 N   0  0  0  0  0  0  0  0  0  0  0  0
  -27.8095  -30.7785   24.5018 N   0  0  0  0  0  0  0  0  0  0  0  0
  -30.0147  -18.7533   19.5518 N   0  0  0  0  0  0  0  0  0  0  0  0
  -30.4296  -28.3555   25.0779 N   0  3  0  0  0  0  0  0  0  0  0  0
  -29.2783  -10.6237   16.8565 O   0  0  0  0  0  0  0  0  0  0  0  0
  -23.0734  -30.3677   21.3793 O   0  0  0  0  0  0  0  0  0  0  0  0
  -24.9923  -30.7397   25.0223 O   0  0  0  0  0  0  0  0  0  0  0  0
  -29.1247  -29.6600   22.9538 O   0  0  0  0  0  0  0  0  0  0  0  0
  -31.8718  -19.2745   20.7913 O   0  0  0  0  0  0  0  0  0  0  0  0
  -23.2519  -10.5928   21.7828 O   0  0  0  0  0  0  0  0  0  0  0  0
  -26.0683  -26.3172   17.8709 O   0  0  0  0  0  0  0  0  0  1  0  0
  -22.6863   -5.1318   22.2940 F   0  0  0  0  0  0  0  0  0  0  0  0
  -22.7516   -9.4432   24.2467 F   0  0  0  0  0  0  0  0  0  0  0  0
  1  2  1  0  0  0  0
  1  5  2  0  0  0  0
  2  6  2  0  0  0  0
  3  8  2  0  0  0  0
  3 17  1  0  0  0  0
  4  9  1  0  0  0  0
  4 17  2  0  0  0  0
  5 19  1  0  0  0  0
  6 21  1  0  0  0  0
  7 10  2  0  0  0  0
  7 20  1  0  0  0  0
  8 23  1  0  0  0  0
  9 23  2  0  0  0  0
 10 24  1  0  0  0  0
 11 12  2  0  0  0  0
 11 25  1  0  0  0  0
 12 26  1  0  0  0  0
 13 22  1  0  0  0  0
 13 24  2  0  0  0  0
 14 26  2  0  0  0  0
 14 27  1  0  0  0  0
 15 29  1  0  0  0  0
 15 67  2  0  0  0  0
 16 30  2  0  0  0  0
 16 66  1  0  0  0  0
 17 28  1  0  0  0  0
 18 28  1  0  0  0  0
 18 31  2  0  0  0  0
 18 32  1  0  0  0  0
 19 21  2  0  0  0  0
 19 37  1  0  0  0  0
 20 22  2  0  0  0  0
 20 38  1  0  0  0  0
 21 46  1  0  0  0  0
 22 39  1  0  0  0  0
 23 83  1  0  0  0  0
 24 84  1  0  0  0  0
 25 27  2  0  0  0  0
 25 83  1  0  0  0  0
 26 85  1  0  0  0  0
 27 86  1  0  0  0  0
 28 68  2  0  0  0  0
 29 63  1  0  0  0  0
 29 66  2  0  0  0  0
 30 64  1  0  0  0  0
 30 67  1  0  0  0  0
 31 69  1  0  0  0  0
 31 72  1  0  0  0  0
 32 73  1  0  0  0  0
 32 78  2  0  0  0  0
 33 47  1  0  0  0  0
 33 74  1  0  0  0  0
 33 79  2  0  0  0  0
 34 60  1  0  0  0  0
 34 70  1  0  0  0  0
 34 80  2  0  0  0  0
 35 61  1  0  0  0  0
 35 75  1  0  0  0  0
 35 81  2  0  0  0  0
 36 71  1  0  0  0  0
 36 76  1  0  0  0  0
 36 82  2  0  0  0  0
 37 40  1  0  0  0  0
 38 47  1  0  0  0  0
 39 70  1  0  0  0  0
 40 42  1  0  0  0  0
 41 43  1  0  0  0  0
 41 44  1  0  0  0  0
 42 46  1  0  0  0  0
 43 48  1  0  0  0  0
 44 71  1  0  0  0  0
 45 48  1  0  0  0  0
 45 71  1  0  0  0  0
 46 74  1  0  0  0  0
 47 70  1  0  0  0  0
 48 69  1  0  0  0  0
 49 61  1  0  0  0  0
 50 62  1  0  0  0  0
 51 63  1  0  0  0  0
 52 63  1  0  0  0  0
 53 64  1  0  0  0  0
 54 64  1  0  0  0  0
 55 65  1  0  0  0  0
 56 65  1  0  0  0  0
 57 65  1  0  0  0  0
 58 77  1  0  0  0  0
 59 63  1  0  0  0  0
 59 84  1  0  0  0  0
 60 65  1  0  0  0  0
 60 75  1  0  0  0  0
 61 77  1  0  0  0  0
 62 64  1  0  0  0  0
 62 76  1  0  0  0  0
 68 69  1  0  0  0  0
M  CHG  1  77   1
M  ISO  4  36 100  59 101  76 100  84 101
M  END
> <Batch ID>
0079

> <Smiles>
CNC(C)C(=O)NC(C(=O)N1Cc2cc([101O:1][101CH2:1]C(C)(C)c3cnc(C(C)(C)C(C)[100NH:0][100C:0](=O)N4CCCC(n5nc(-c6ccc(Oc7ccc(F)cc7F)cc6)c(C(N)=O)c5N)C4)cn3)ccc2CC1C(=O)NC1CCCc2ccccc21)C(C)(C)C

> <Shape>
0.324

> <Color>
0.068

> <Negative vol penalty>
0.000

$$$$

  -OEChem-04052318413D

 87 95  0     1  0  0  0  0  0999 V2000
  -16.7065  -28.6768   23.7273 C   0  0  0  0  0  0  0  0  0  0  0  0
  -17.3960  -28.1457   22.6420 C   0  0  0  0  0  0  0  0  0  0  0  0
  -26.5497  -12.0528   21.7016 C   0  0  0  0  0  0  0  0  0  0  0  0
  -25.7830  -13.3631   19.8222 C   0  0  0  0  0  0  0  0  0  0  0  0
  -17.1744  -29.8327   24.3510 C   0  0  0  0  0  0  0  0  0  0  0  0
  -18.5532  -28.7709   22.1789 C   0  0  0  0  0  0  0  0  0  0  0  0
  -22.2868  -25.4857   21.2238 C   0  0  0  0  0  0  0  0  0  0  0  0
  -25.3372  -11.3634   21.7157 C   0  0  0  0  0  0  0  0  0  0  0  0
  -24.5704  -12.6737   19.8363 C   0  0  0  0  0  0  0  0  0  0  0  0
  -22.2100  -24.7628   20.0341 C   0  0  0  0  0  0  0  0  0  0  0  0
  -22.5822   -9.0110   22.0174 C   0  0  0  0  0  0  0  0  0  0  0  0
  -22.6265   -7.6238   22.1561 C   0  0  0  0  0  0  0  0  0  0  0  0
  -23.7851  -26.2806   19.0171 C   0  0  0  0  0  0  0  0  0  0  0  0
  -23.9238   -7.4620   20.1243 C   0  0  0  0  0  0  0  0  0  0  0  0
  -26.7726  -13.0527   20.7549 C   0  0  0  0  0  0  0  0  0  0  0  0
  -29.1891  -13.4239   20.0267 C   0  0  0  0  0  0  0  0  0  0  0  0
  -18.3433  -30.4670   23.9014 C   0  0  0  0  0  0  0  0  0  0  0  0
  -23.1064  -26.6198   21.3158 C   0  0  0  0  0  0  0  0  0  0  0  0
  -19.0364  -29.9372   22.7963 C   0  0  0  0  0  0  0  0  0  0  0  0
  -23.8725  -27.0147   20.2098 C   0  0  0  0  0  0  0  0  0  0  0  0
  -24.3476  -11.6738   20.7830 C   0  0  0  0  0  0  0  0  0  0  0  0
  -22.9569  -25.1618   18.9296 C   0  0  0  0  0  0  0  0  0  0  0  0
  -23.2086   -9.6238   20.9321 C   0  0  0  0  0  0  0  0  0  0  0  0
  -23.2973   -6.8493   21.2096 C   0  0  0  0  0  0  0  0  0  0  0  0
  -23.8794   -8.8493   19.9856 C   0  0  0  0  0  0  0  0  0  0  0  0
  -28.0246  -13.7656   20.7403 C   0  0  0  0  0  0  0  0  0  0  0  0
  -26.5491  -21.3956   17.3750 C   0  0  0  0  0  0  0  0  0  0  0  0
  -25.3413  -21.7937   17.9043 C   0  0  0  0  0  0  0  0  0  0  0  0
  -26.3147  -22.0119   19.9620 C   0  0  0  0  0  0  0  0  0  0  0  0
  -27.5225  -21.6131   19.4330 C   0  0  0  0  0  0  0  0  0  0  0  0
  -30.0895  -14.4106   20.3463 C   0  0  0  0  0  0  0  0  0  0  0  0
  -29.4348  -12.3139   19.1531 C   0  0  0  0  0  0  0  0  0  0  0  0
  -22.6069  -29.7090   21.8732 C   0  0  0  0  0  0  0  0  0  0  0  0
  -25.8484  -29.8328   21.8779 C   0  0  0  0  0  0  0  0  0  0  0  0
  -28.8020  -28.4488   20.8740 C   0  0  0  0  0  0  0  0  0  0  0  0
  -29.4514  -20.0754   22.1778 C   0  0  0  0  0  0  0  0  0  0  0  0
  -18.7840  -31.7409   24.5777 C   0  0  0  0  0  0  0  0  0  0  0  0
  -23.1987  -27.3731   22.6144 C   0  0  0  0  0  0  0  0  0  0  0  0
  -24.7832  -28.2131   20.2632 C   0  0  0  0  0  0  0  0  0  0  0  0
  -20.2255  -32.1312   24.2615 C   0  0  0  0  0  0  0  0  0  0  0  0
  -31.2058  -17.4687   23.8524 C   0  0  0  0  0  0  0  0  0  0  0  0
  -20.4936  -32.0159   22.7642 C   0  0  0  0  0  0  0  0  0  0  0  0
  -30.6945  -16.1932   23.1803 C   0  0  0  0  0  0  0  0  0  0  0  0
  -30.1026  -18.5158   23.9889 C   0  0  0  0  0  0  0  0  0  0  0  0
  -28.8927  -17.5713   22.0608 C   0  0  0  0  0  0  0  0  0  0  0  0
  -20.3092  -30.5726   22.2803 C   0  0  1  0  0  0  0  0  0  0  0  0
  -23.6724  -28.8125   22.4378 C   0  0  1  0  0  0  0  0  0  0  0  0
  -29.9830  -16.5067   21.8504 C   0  0  2  0  0  0  0  0  0  0  0  0
  -28.0072  -20.3420   15.6285 C   0  0  0  0  0  0  0  0  0  0  0  0
  -25.9402  -24.2268   23.1019 C   0  0  0  0  0  0  0  0  0  0  0  0
  -30.0378  -21.7884   19.4977 C   0  0  0  0  0  0  0  0  0  0  0  0
  -31.2849  -28.1210   20.7153 C   0  0  0  0  0  0  0  0  0  0  0  0
  -25.6421  -32.0483   19.7902 C   0  0  0  0  0  0  0  0  0  0  0  0
  -28.0651  -31.6896   19.2716 C   0  0  0  0  0  0  0  0  0  0  0  0
  -27.3759  -32.4324   21.5511 C   0  0  0  0  0  0  0  0  0  0  0  0
  -28.8339  -26.6631   23.2339 C   0  0  0  0  0  0  0  0  0  0  0  0
  -26.6893  -21.0508   15.9317 C   0  0  0  0  0  0  0  0  0  0  0  0
  -24.1040  -21.8991   17.0489 C   0  0  0  0  0  0  0  0  0  0  0  0
  -26.1747  -22.3580   21.4050 C   0  0  0  0  0  0  0  0  0  0  0  0
  -26.1176  -23.8765   21.6330 C   0  0  0  0  0  0  0  0  0  0  0  0
  -24.0768  -23.1412   16.1556 C   0  0  0  0  0  0  0  0  0  0  0  0
  -24.0457  -24.4481   16.9394 C   0  0  0  0  0  0  0  0  0  1  0  0
  -28.7452  -21.5087   20.2789 C   0  0  2  0  0  0  0  0  0  0  0  0
  -26.9113  -30.0544   20.8291 C   0  0  1  0  0  0  0  0  0  0  0  0
  -30.0749  -28.1284   21.6365 C   0  0  2  0  0  0  0  0  0  0  0  0
  -26.9801  -31.5347   20.3586 C   0  0  0  0  0  0  0  0  0  0  0  0
  -28.1693  -14.8820   21.4590 N   0  0  0  0  0  0  0  0  0  0  0  0
  -25.2024  -22.1091   19.2073 N   0  0  0  0  0  0  0  0  0  0  0  0
  -27.6614  -21.2981   18.1299 N   0  0  0  0  0  0  0  0  0  0  0  0
  -29.4352  -15.2504   21.1989 N   0  0  0  0  0  0  0  0  0  0  0  0
  -24.8343  -28.9206   21.5532 N   0  0  0  0  0  0  0  0  0  0  0  0
  -29.4694  -18.7685   22.6924 N   0  0  0  0  0  0  0  0  0  0  0  0
  -31.3692  -14.6331   19.9784 N   0  0  0  0  0  0  0  0  0  0  0  0
  -28.4004  -11.3938   18.9346 N   0  0  0  0  0  0  0  0  0  0  0  0
  -21.4581  -29.7687   22.6387 N   0  0  0  0  0  0  0  0  0  0  0  0
  -28.1567  -29.5494   21.3970 N   0  0  0  0  0  0  0  0  0  0  0  0
  -28.8372  -20.2264   20.9406 N   0  0  0  0  0  0  0  0  0  0  0  0
  -29.9683  -26.7899   22.2831 N   0  3  0  0  0  0  0  0  0  0  0  0
  -30.5443  -12.1340   18.5961 O   0  0  0  0  0  0  0  0  0  0  0  0
  -22.8126  -30.3038   20.8217 O   0  0  0  0  0  0  0  0  0  0  0  0
  -25.9193  -30.4410   22.9488 O   0  0  0  0  0  0  0  0  0  0  0  0
  -28.4204  -27.7910   19.9085 O   0  0  0  0  0  0  0  0  0  0  0  0
  -29.9509  -21.0355   22.7741 O   0  0  0  0  0  0  0  0  0  0  0  0
  -23.1644  -11.0012   20.7963 O   0  0  0  0  0  0  0  0  0  0  0  0
  -22.8833  -24.4584   17.7671 O   0  0  0  0  0  0  0  0  0  1  0  0
  -23.3411   -5.5173   21.3438 F   0  0  0  0  0  0  0  0  0  0  0  0
  -24.4841   -9.4324   18.9415 F   0  0  0  0  0  0  0  0  0  0  0  0
  1  2  1  0  0  0  0
  1  5  2  0  0  0  0
  2  6  2  0  0  0  0
  3  8  2  0  0  0  0
  3 15  1  0  0  0  0
  4  9  1  0  0  0  0
  4 15  2  0  0  0  0
  5 17  1  0  0  0  0
  6 19  1  0  0  0  0
  7 10  2  0  0  0  0
  7 18  1  0  0  0  0
  8 21  1  0  0  0  0
  9 21  2  0  0  0  0
 10 22  1  0  0  0  0
 11 12  2  0  0  0  0
 11 23  1  0  0  0  0
 12 24  1  0  0  0  0
 13 20  1  0  0  0  0
 13 22  2  0  0  0  0
 14 24  2  0  0  0  0
 14 25  1  0  0  0  0
 15 26  1  0  0  0  0
 16 26  1  0  0  0  0
 16 31  2  0  0  0  0
 16 32  1  0  0  0  0
 17 19  2  0  0  0  0
 17 37  1  0  0  0  0
 18 20  2  0  0  0  0
 18 38  1  0  0  0  0
 19 46  1  0  0  0  0
 20 39  1  0  0  0  0
 21 84  1  0  0  0  0
 22 85  1  0  0  0  0
 23 25  2  0  0  0  0
 23 84  1  0  0  0  0
 24 86  1  0  0  0  0
 25 87  1  0  0  0  0
 26 67  2  0  0  0  0
 27 28  1  0  0  0  0
 27 57  1  0  0  0  0
 27 69  2  0  0  0  0
 28 58  1  0  0  0  0
 28 68  2  0  0  0  0
 29 30  2  0  0  0  0
 29 59  1  0  0  0  0
 29 68  1  0  0  0  0
 30 63  1  0  0  0  0
 30 69  1  0  0  0  0
 31 70  1  0  0  0  0
 31 73  1  0  0  0  0
 32 74  1  0  0  0  0
 32 79  2  0  0  0  0
 33 47  1  0  0  0  0
 33 75  1  0  0  0  0
 33 80  2  0  0  0  0
 34 64  1  0  0  0  0
 34 71  1  0  0  0  0
 34 81  2  0  0  0  0
 35 65  1  0  0  0  0
 35 76  1  0  0  0  0
 35 82  2  0  0  0  0
 36 72  1  0  0  0  0
 36 77  1  0  0  0  0
 36 83  2  0  0  0  0
 37 40  1  0  0  0  0
 38 47  1  0  0  0  0
 39 71  1  0  0  0  0
 40 42  1  0  0  0  0
 41 43  1  0  0  0  0
 41 44  1  0  0  0  0
 42 46  1  0  0  0  0
 43 48  1  0  0  0  0
 44 72  1  0  0  0  0
 45 48  1  0  0  0  0
 45 72  1  0  0  0  0
 46 75  1  0  0  0  0
 47 71  1  0  0  0  0
 48 70  1  0  0  0  0
 49 57  1  0  0  0  0
 50 60  1  0  0  0  0
 51 63  1  0  0  0  0
 52 65  1  0  0  0  0
 53 66  1  0  0  0  0
 54 66  1  0  0  0  0
 55 66  1  0  0  0  0
 56 78  1  0  0  0  0
 58 61  1  0  0  0  0
 59 60  1  0  0  0  0
 61 62  1  0  0  0  0
 62 85  1  0  0  0  0
 63 77  1  0  0  0  0
 64 66  1  0  0  0  0
 64 76  1  0  0  0  0
 65 78  1  0  0  0  0
 67 70  1  0  0  0  0
M  CHG  1  78   1
M  ISO  4  36 100  62 101  77 100  85 101
M  END
> <Batch ID>
0079

> <Smiles>
CCCc1nc(CC[101CH2:1][101O:1]c2ccc3c(c2)CN(C(=O)C(NC(=O)C(C)NC)C(C)(C)C)C(C(=O)NC2CCCc4ccccc42)C3)c(CC)nc1C(C)[100NH:0][100C:0](=O)N1CCCC(n2nc(-c3ccc(Oc4ccc(F)cc4F)cc3)c(C(N)=O)c2N)C1

> <Shape>
0.291

> <Color>
0.077

> <Negative vol penalty>
0.000

$$$$

  -OEChem-04052318413D

 84 92  0     1  0  0  0  0  0999 V2000
  -21.7577  -12.4245   19.8247 C   0  0  0  0  0  0  0  0  0  0  0  0
  -21.6785  -13.7885   20.0870 C   0  0  0  0  0  0  0  0  0  0  0  0
  -29.5131  -27.0068   24.2034 C   0  0  0  0  0  0  0  0  0  0  0  0
  -27.7562  -25.3734   24.4904 C   0  0  0  0  0  0  0  0  0  0  0  0
  -22.9562  -11.7439   20.0346 C   0  0  0  0  0  0  0  0  0  0  0  0
  -22.7977  -14.4724   20.5603 C   0  0  0  0  0  0  0  0  0  0  0  0
  -23.5146  -18.8945   18.1989 C   0  0  0  0  0  0  0  0  0  0  0  0
  -30.1402  -26.5350   25.3565 C   0  0  0  0  0  0  0  0  0  0  0  0
  -28.3832  -24.9015   25.6435 C   0  0  0  0  0  0  0  0  0  0  0  0
  -22.7067  -19.9622   18.5876 C   0  0  0  0  0  0  0  0  0  0  0  0
  -29.3312  -23.5041   28.8620 C   0  0  0  0  0  0  0  0  0  0  0  0
  -28.5343  -23.2642   29.9813 C   0  0  0  0  0  0  0  0  0  0  0  0
  -24.5046  -20.8194   19.9484 C   0  0  0  0  0  0  0  0  0  0  0  0
  -27.8668  -25.5860   30.0038 C   0  0  0  0  0  0  0  0  0  0  0  0
  -20.6702  -26.1954   23.8605 C   0  0  0  0  0  0  0  0  0  0  0  0
  -28.3211  -26.4261   23.7703 C   0  0  0  0  0  0  0  0  0  0  0  0
  -27.8720  -26.4667   21.2595 C   0  0  0  0  0  0  0  0  0  0  0  0
  -24.0934  -12.4217   20.5016 C   0  0  0  0  0  0  0  0  0  0  0  0
  -24.8221  -18.7751   18.6914 C   0  0  0  0  0  0  0  0  0  0  0  0
  -24.0122  -13.7999   20.7779 C   0  0  0  0  0  0  0  0  0  0  0  0
  -25.3279  -19.7506   19.5625 C   0  0  0  0  0  0  0  0  0  0  0  0
  -29.5753  -25.4823   26.0766 C   0  0  0  0  0  0  0  0  0  0  0  0
  -23.2006  -20.9233   19.4647 C   0  0  0  0  0  0  0  0  0  0  0  0
  -29.3960  -24.7850   28.3135 C   0  0  0  0  0  0  0  0  0  0  0  0
  -27.8021  -24.3051   30.5522 C   0  0  0  0  0  0  0  0  0  0  0  0
  -28.6638  -25.8260   28.8845 C   0  0  0  0  0  0  0  0  0  0  0  0
  -27.6726  -26.9134   22.5795 C   0  0  0  0  0  0  0  0  0  0  0  0
  -20.4395  -26.1187   22.5160 C   0  0  0  0  0  0  0  0  0  0  0  0
  -27.0269  -27.2417   20.5034 C   0  0  0  0  0  0  0  0  0  0  0  0
  -21.3643  -24.2134   23.1602 C   0  0  0  0  0  0  0  0  0  0  0  0
  -28.7432  -25.4428   20.7613 C   0  0  0  0  0  0  0  0  0  0  0  0
  -26.3685  -16.6274   20.4521 C   0  0  0  0  0  0  0  0  0  0  0  0
  -28.9339  -18.4932   19.7739 C   0  0  0  0  0  0  0  0  0  0  0  0
  -30.1291  -21.5640   18.8859 C   0  0  0  0  0  0  0  0  0  0  0  0
  -21.9617  -30.1751   21.7647 C   0  0  0  0  0  0  0  0  0  0  0  0
  -25.3537  -11.6340   20.7583 C   0  0  0  0  0  0  0  0  0  0  0  0
  -25.6899  -17.6319   18.2415 C   0  0  0  0  0  0  0  0  0  0  0  0
  -26.7316  -19.6792   20.1038 C   0  0  0  0  0  0  0  0  0  0  0  0
  -26.5978  -12.5063   20.9053 C   0  0  0  0  0  0  0  0  0  0  0  0
  -24.9609  -31.5566   20.4332 C   0  0  0  0  0  0  0  0  0  0  0  0
  -26.3178  -13.6832   21.8345 C   0  0  0  0  0  0  0  0  0  0  0  0
  -26.0140  -30.4829   20.7132 C   0  0  0  0  0  0  0  0  0  0  0  0
  -23.9392  -31.6534   21.5640 C   0  0  0  0  0  0  0  0  0  0  0  0
  -24.3392  -29.3061   22.1994 C   0  0  0  0  0  0  0  0  0  0  0  0
  -25.2114  -14.5817   21.2688 C   0  0  1  0  0  0  0  0  0  0  0  0
  -26.8313  -17.3318   19.2082 C   0  0  1  0  0  0  0  0  0  0  0  0
  -25.3592  -29.1326   21.0611 C   0  0  2  0  0  0  0  0  0  0  0  0
  -21.9377  -22.8446   23.1589 C   0  0  0  0  0  0  0  0  0  0  0  0
  -32.2732  -22.7915   18.4460 C   0  0  0  0  0  0  0  0  0  0  0  0
  -29.4621  -18.6412   22.7754 C   0  0  0  0  0  0  0  0  0  0  0  0
  -30.9742  -20.5892   22.3427 C   0  0  0  0  0  0  0  0  0  0  0  0
  -31.5100  -18.3561   21.3685 C   0  0  0  0  0  0  0  0  0  0  0  0
  -21.7647  -24.3978   18.3791 C   0  0  0  0  0  0  0  0  0  0  0  0
  -22.9360  -25.6962   20.1588 C   0  0  0  0  0  0  0  0  0  0  0  0
  -29.3575  -22.1456   16.0885 C   0  0  0  0  0  0  0  0  0  0  0  0
  -19.8492  -27.0970   21.5943 C   0  0  0  0  0  0  0  0  0  0  0  0
  -20.8261  -24.3507   20.6953 C   0  0  0  0  0  0  0  0  0  0  0  0
  -20.0830  -28.5694   21.9917 C   0  0  0  0  0  0  0  0  0  0  0  0
  -23.0700  -23.1943   20.1585 C   0  0  0  0  0  0  0  0  0  1  0  0
  -29.5845  -19.6923   20.4203 C   0  0  1  0  0  0  0  0  0  0  0  0
  -31.1379  -21.9864   17.8331 C   0  0  2  0  0  0  0  0  0  0  0  0
  -30.3556  -19.3203   21.7182 C   0  0  0  0  0  0  0  0  0  0  0  0
  -22.1503  -24.4027   19.8759 C   0  0  0  0  0  0  0  0  0  0  0  0
  -26.7716  -27.8961   22.6608 N   0  0  0  0  0  0  0  0  0  0  0  0
  -20.8790  -24.8820   22.1090 N   0  0  0  0  0  0  0  0  0  0  0  0
  -26.3974  -28.0734   21.3822 N   0  0  0  0  0  0  0  0  0  0  0  0
  -21.2426  -25.0028   24.2323 N   0  3  0  0  0  0  0  0  0  0  0  0
  -27.5390  -18.5391   19.6394 N   0  0  0  0  0  0  0  0  0  0  0  0
  -23.3544  -30.3397   21.8434 N   0  0  0  0  0  0  0  0  0  0  0  0
  -26.7683  -27.2862   19.1792 N   0  0  0  0  0  0  0  0  0  0  0  0
  -29.5435  -24.7436   21.6751 N   0  0  0  0  0  0  0  0  0  0  0  0
  -25.7339  -15.4233   20.2137 N   0  0  0  0  0  0  0  0  0  0  0  0
  -30.4116  -20.3124   19.3909 N   0  0  0  0  0  0  0  0  0  0  0  0
  -21.4907  -28.8968   22.0383 N   0  0  0  0  0  0  0  0  0  0  0  0
  -30.4789  -22.8221   16.7899 N   0  3  0  0  0  0  0  0  0  0  0  0
  -28.8220  -25.1675   19.5400 O   0  0  0  0  0  0  0  0  0  0  0  0
  -26.5733  -17.1379   21.5472 O   0  0  0  0  0  0  0  0  0  0  0  0
  -29.6380  -17.5538   19.3955 O   0  0  0  0  0  0  0  0  0  0  0  0
  -29.1871  -22.2749   19.2289 O   0  0  0  0  0  0  0  0  0  0  0  0
  -21.1953  -31.0975   21.4670 O   0  0  0  0  0  0  0  0  0  0  0  0
  -30.1870  -25.0215   27.2018 O   0  0  0  0  0  0  0  0  0  0  0  0
  -22.4140  -21.9661   19.8462 O   0  0  0  0  0  0  0  0  0  1  0  0
  -27.0357  -24.0742   31.6262 F   0  0  0  0  0  0  0  0  0  0  0  0
  -28.7210  -27.0584   28.3613 F   0  0  0  0  0  0  0  0  0  0  0  0
  1  2  1  0  0  0  0
  1  5  2  0  0  0  0
  2  6  2  0  0  0  0
  3  8  2  0  0  0  0
  3 16  1  0  0  0  0
  4  9  1  0  0  0  0
  4 16  2  0  0  0  0
  5 18  1  0  0  0  0
  6 20  1  0  0  0  0
  7 10  2  0  0  0  0
  7 19  1  0  0  0  0
  8 22  1  0  0  0  0
  9 22  2  0  0  0  0
 10 23  1  0  0  0  0
 11 12  2  0  0  0  0
 11 24  1  0  0  0  0
 12 25  1  0  0  0  0
 13 21  1  0  0  0  0
 13 23  2  0  0  0  0
 14 25  2  0  0  0  0
 14 26  1  0  0  0  0
 15 28  2  0  0  0  0
 15 67  1  0  0  0  0
 16 27  1  0  0  0  0
 17 27  1  0  0  0  0
 17 29  2  0  0  0  0
 17 31  1  0  0  0  0
 18 20  2  0  0  0  0
 18 36  1  0  0  0  0
 19 21  2  0  0  0  0
 19 37  1  0  0  0  0
 20 45  1  0  0  0  0
 21 38  1  0  0  0  0
 22 81  1  0  0  0  0
 23 82  1  0  0  0  0
 24 26  2  0  0  0  0
 24 81  1  0  0  0  0
 25 83  1  0  0  0  0
 26 84  1  0  0  0  0
 27 64  2  0  0  0  0
 28 56  1  0  0  0  0
 28 65  1  0  0  0  0
 29 66  1  0  0  0  0
 29 70  1  0  0  0  0
 30 48  1  0  0  0  0
 30 65  1  0  0  0  0
 30 67  2  0  0  0  0
 31 71  1  0  0  0  0
 31 76  2  0  0  0  0
 32 46  1  0  0  0  0
 32 72  1  0  0  0  0
 32 77  2  0  0  0  0
 33 60  1  0  0  0  0
 33 68  1  0  0  0  0
 33 78  2  0  0  0  0
 34 61  1  0  0  0  0
 34 73  1  0  0  0  0
 34 79  2  0  0  0  0
 35 69  1  0  0  0  0
 35 74  1  0  0  0  0
 35 80  2  0  0  0  0
 36 39  1  0  0  0  0
 37 46  1  0  0  0  0
 38 68  1  0  0  0  0
 39 41  1  0  0  0  0
 40 42  1  0  0  0  0
 40 43  1  0  0  0  0
 41 45  1  0  0  0  0
 42 47  1  0  0  0  0
 43 69  1  0  0  0  0
 44 47  1  0  0  0  0
 44 69  1  0  0  0  0
 45 72  1  0  0  0  0
 46 68  1  0  0  0  0
 47 66  1  0  0  0  0
 49 61  1  0  0  0  0
 50 62  1  0  0  0  0
 51 62  1  0  0  0  0
 52 62  1  0  0  0  0
 53 63  1  0  0  0  0
 54 63  1  0  0  0  0
 55 75  1  0  0  0  0
 56 58  1  0  0  0  0
 57 63  1  0  0  0  0
 57 65  1  0  0  0  0
 58 74  1  0  0  0  0
 59 63  1  0  0  0  0
 59 82  1  0  0  0  0
 60 62  1  0  0  0  0
 60 73  1  0  0  0  0
 61 75  1  0  0  0  0
 64 66  1  0  0  0  0
M  CHG  2  67   1  75   1
M  ISO  4  35 100  59 101  74 100  82 101
M  END
> <Batch ID>
0079

> <Smiles>
CNC(C)C(=O)NC(C(=O)N1Cc2cc([101O:1][101CH2:1]C(C)(C)Cn3c(CC[100NH:0][100C:0](=O)N4CCCC(n5nc(-c6ccc(Oc7ccc(F)cc7F)cc6)c(C(N)=O)c5N)C4)cnc3C)ccc2CC1C(=O)NC1CCCc2ccccc21)C(C)(C)C

> <Shape>
0.199

> <Color>
0.079

> <Negative vol penalty>
0.000

$$$$

  -OEChem-04052318413D

 84 92  0     1  0  0  0  0  0999 V2000
  -16.6652  -29.9806   23.8119 C   0  0  0  0  0  0  0  0  0  0  0  0
  -17.7928  -30.5842   24.3592 C   0  0  0  0  0  0  0  0  0  0  0  0
  -29.3392  -17.4656   19.5476 C   0  0  0  0  0  0  0  0  0  0  0  0
  -31.2483  -18.3317   20.7486 C   0  0  0  0  0  0  0  0  0  0  0  0
  -16.7980  -28.8238   23.0450 C   0  0  0  0  0  0  0  0  0  0  0  0
  -19.0539  -30.0307   24.1408 C   0  0  0  0  0  0  0  0  0  0  0  0
  -25.9121  -31.9222   23.3025 C   0  0  0  0  0  0  0  0  0  0  0  0
  -29.8769  -16.1806   19.6195 C   0  0  0  0  0  0  0  0  0  0  0  0
  -31.7860  -17.0467   20.8205 C   0  0  0  0  0  0  0  0  0  0  0  0
  -27.1783  -31.6359   23.8111 C   0  0  0  0  0  0  0  0  0  0  0  0
  -30.9213  -12.7262   19.1728 C   0  0  0  0  0  0  0  0  0  0  0  0
  -30.8971  -11.9458   18.0169 C   0  0  0  0  0  0  0  0  0  0  0  0
  -27.2948  -29.6800   22.4040 C   0  0  0  0  0  0  0  0  0  0  0  0
  -32.2332  -13.6010   16.8714 C   0  0  0  0  0  0  0  0  0  0  0  0
  -32.7912  -26.5911   20.3834 C   0  0  0  0  0  0  0  0  0  0  0  0
  -30.0249  -18.5412   20.1121 C   0  0  0  0  0  0  0  0  0  0  0  0
  -28.6080  -20.4833   20.9656 C   0  0  0  0  0  0  0  0  0  0  0  0
  -18.0623  -28.2613   22.8091 C   0  0  0  0  0  0  0  0  0  0  0  0
  -25.3222  -31.0821   22.3471 C   0  0  0  0  0  0  0  0  0  0  0  0
  -19.2036  -28.8645   23.3712 C   0  0  0  0  0  0  0  0  0  0  0  0
  -26.0221  -29.9593   21.8829 C   0  0  0  0  0  0  0  0  0  0  0  0
  -31.1003  -15.9711   20.2559 C   0  0  0  0  0  0  0  0  0  0  0  0
  -27.8686  -30.5131   23.3640 C   0  0  0  0  0  0  0  0  0  0  0  0
  -31.6014  -13.9440   19.1779 C   0  0  0  0  0  0  0  0  0  0  0  0
  -31.5531  -12.3832   16.8662 C   0  0  0  0  0  0  0  0  0  0  0  0
  -32.2574  -14.3814   18.0273 C   0  0  0  0  0  0  0  0  0  0  0  0
  -29.4702  -19.8690   20.0377 C   0  0  0  0  0  0  0  0  0  0  0  0
  -32.9027  -27.7420   21.1863 C   0  0  0  0  0  0  0  0  0  0  0  0
  -33.2665  -26.9817   19.1554 C   0  0  0  0  0  0  0  0  0  0  0  0
  -28.3726  -21.7310   20.4417 C   0  0  0  0  0  0  0  0  0  0  0  0
  -28.0683  -19.9720   22.1915 C   0  0  0  0  0  0  0  0  0  0  0  0
  -22.6987  -29.2901   22.2504 C   0  0  0  0  0  0  0  0  0  0  0  0
  -23.5738  -28.8646   19.1560 C   0  0  0  0  0  0  0  0  0  0  0  0
  -26.0651  -28.8644   16.8235 C   0  0  0  0  0  0  0  0  0  0  0  0
  -31.4732  -25.2364   16.7069 C   0  0  0  0  0  0  0  0  0  0  0  0
  -18.1511  -26.9833   22.0130 C   0  0  0  0  0  0  0  0  0  0  0  0
  -23.9670  -31.4195   21.7887 C   0  0  0  0  0  0  0  0  0  0  0  0
  -25.4415  -29.0368   20.8435 C   0  0  0  0  0  0  0  0  0  0  0  0
  -19.5607  -26.6715   21.5170 C   0  0  0  0  0  0  0  0  0  0  0  0
  -28.1428  -24.0568   16.2670 C   0  0  0  0  0  0  0  0  0  0  0  0
  -20.5753  -26.8568   22.6409 C   0  0  0  0  0  0  0  0  0  0  0  0
  -28.0276  -22.9052   17.2672 C   0  0  0  0  0  0  0  0  0  0  0  0
  -29.5340  -24.1233   15.6407 C   0  0  0  0  0  0  0  0  0  0  0  0
  -30.5313  -23.0234   17.6077 C   0  0  0  0  0  0  0  0  0  0  0  0
  -20.5911  -28.3080   23.1361 C   0  0  1  0  0  0  0  0  0  0  0  0
  -23.2467  -30.2115   21.1976 C   0  0  1  0  0  0  0  0  0  0  0  0
  -29.1632  -22.9500   18.3072 C   0  0  2  0  0  0  0  0  0  0  0  0
  -33.1442  -30.1091   17.7030 C   0  0  0  0  0  0  0  0  0  0  0  0
  -26.4808  -28.4406   14.3853 C   0  0  0  0  0  0  0  0  0  0  0  0
  -28.9374  -29.1637   26.0023 C   0  0  0  0  0  0  0  0  0  0  0  0
  -23.4041  -25.8587   19.6520 C   0  0  0  0  0  0  0  0  0  0  0  0
  -24.7150  -25.5079   17.5481 C   0  0  0  0  0  0  0  0  0  0  0  0
  -22.4777  -26.6071   17.4529 C   0  0  0  0  0  0  0  0  0  0  0  0
  -26.9944  -31.6392   16.3806 C   0  0  0  0  0  0  0  0  0  0  0  0
  -32.5213  -27.8904   22.6377 C   0  0  0  0  0  0  0  0  0  0  0  0
  -33.4111  -26.2369   17.8913 C   0  0  0  0  0  0  0  0  0  0  0  0
  -31.0709  -28.3385   22.8537 C   0  0  0  0  0  0  0  0  0  0  0  0
  -30.7063  -28.4925   24.3367 C   0  0  0  0  0  0  0  0  0  0  0  0
  -34.1764  -29.1516   18.2734 C   0  0  0  0  0  0  0  0  0  0  0  0
  -24.4414  -27.8747   18.4168 C   0  0  1  0  0  0  0  0  0  0  0  0
  -26.1502  -29.4846   15.4405 C   0  0  2  0  0  0  0  0  0  0  0  0
  -29.2665  -28.9802   24.5268 C   0  0  2  0  0  0  0  0  0  1  0  0
  -23.7700  -26.4782   18.2885 C   0  0  0  0  0  0  0  0  0  0  0  0
  -29.7626  -20.6610   19.0027 N   0  0  0  0  0  0  0  0  0  0  0  0
  -33.4093  -28.7856   20.5242 N   0  0  0  0  0  0  0  0  0  0  0  0
  -33.6204  -28.2918   19.2922 N   0  0  0  0  0  0  0  0  0  0  0  0
  -29.0803  -21.7858   19.2771 N   0  0  0  0  0  0  0  0  0  0  0  0
  -24.1108  -29.4056   20.3327 N   0  0  0  0  0  0  0  0  0  0  0  0
  -30.5651  -24.1651   16.6804 N   0  0  0  0  0  0  0  0  0  0  0  0
  -27.6314  -22.7755   20.8683 N   0  0  0  0  0  0  0  0  0  0  0  0
  -28.4124  -18.6705   22.5816 N   0  0  0  0  0  0  0  0  0  0  0  0
  -21.3246  -29.1487   22.2143 N   0  0  0  0  0  0  0  0  0  0  0  0
  -24.7743  -28.4973   17.1401 N   0  0  0  0  0  0  0  0  0  0  0  0
  -32.4142  -25.2023   17.7287 N   0  0  0  0  0  0  0  0  0  0  0  0
  -27.2058  -30.5360   15.4084 N   0  3  0  0  0  0  0  0  0  0  0  0
  -27.2904  -20.6431   22.9112 O   0  0  0  0  0  0  0  0  0  0  0  0
  -23.4658  -28.7465   23.0363 O   0  0  0  0  0  0  0  0  0  0  0  0
  -22.4636  -29.1527   18.7021 O   0  0  0  0  0  0  0  0  0  0  0  0
  -27.0462  -28.7168   17.5488 O   0  0  0  0  0  0  0  0  0  0  0  0
  -31.4440  -26.1580   15.8842 O   0  0  0  0  0  0  0  0  0  0  0  0
  -31.6252  -14.7173   20.3265 O   0  0  0  0  0  0  0  0  0  0  0  0
  -29.1043  -30.2311   23.8594 O   0  0  0  0  0  0  0  0  0  1  0  0
  -31.5310  -11.6329   15.7568 F   0  0  0  0  0  0  0  0  0  0  0  0
  -32.9134  -15.5500   18.0265 F   0  0  0  0  0  0  0  0  0  0  0  0
  1  2  1  0  0  0  0
  1  5  2  0  0  0  0
  2  6  2  0  0  0  0
  3  8  2  0  0  0  0
  3 16  1  0  0  0  0
  4  9  1  0  0  0  0
  4 16  2  0  0  0  0
  5 18  1  0  0  0  0
  6 20  1  0  0  0  0
  7 10  2  0  0  0  0
  7 19  1  0  0  0  0
  8 22  1  0  0  0  0
  9 22  2  0  0  0  0
 10 23  1  0  0  0  0
 11 12  2  0  0  0  0
 11 24  1  0  0  0  0
 12 25  1  0  0  0  0
 13 21  1  0  0  0  0
 13 23  2  0  0  0  0
 14 25  2  0  0  0  0
 14 26  1  0  0  0  0
 15 28  1  0  0  0  0
 15 29  2  0  0  0  0
 16 27  1  0  0  0  0
 17 27  1  0  0  0  0
 17 30  2  0  0  0  0
 17 31  1  0  0  0  0
 18 20  2  0  0  0  0
 18 36  1  0  0  0  0
 19 21  2  0  0  0  0
 19 37  1  0  0  0  0
 20 45  1  0  0  0  0
 21 38  1  0  0  0  0
 22 81  1  0  0  0  0
 23 82  1  0  0  0  0
 24 26  2  0  0  0  0
 24 81  1  0  0  0  0
 25 83  1  0  0  0  0
 26 84  1  0  0  0  0
 27 64  2  0  0  0  0
 28 55  1  0  0  0  0
 28 65  2  0  0  0  0
 29 56  1  0  0  0  0
 29 66  1  0  0  0  0
 30 67  1  0  0  0  0
 30 70  1  0  0  0  0
 31 71  1  0  0  0  0
 31 76  2  0  0  0  0
 32 46  1  0  0  0  0
 32 72  1  0  0  0  0
 32 77  2  0  0  0  0
 33 60  1  0  0  0  0
 33 68  1  0  0  0  0
 33 78  2  0  0  0  0
 34 61  1  0  0  0  0
 34 73  1  0  0  0  0
 34 79  2  0  0  0  0
 35 69  1  0  0  0  0
 35 74  1  0  0  0  0
 35 80  2  0  0  0  0
 36 39  1  0  0  0  0
 37 46  1  0  0  0  0
 38 68  1  0  0  0  0
 39 41  1  0  0  0  0
 40 42  1  0  0  0  0
 40 43  1  0  0  0  0
 41 45  1  0  0  0  0
 42 47  1  0  0  0  0
 43 69  1  0  0  0  0
 44 47  1  0  0  0  0
 44 69  1  0  0  0  0
 45 72  1  0  0  0  0
 46 68  1  0  0  0  0
 47 67  1  0  0  0  0
 48 59  1  0  0  0  0
 49 61  1  0  0  0  0
 50 62  1  0  0  0  0
 51 63  1  0  0  0  0
 52 63  1  0  0  0  0
 53 63  1  0  0  0  0
 54 75  1  0  0  0  0
 55 57  1  0  0  0  0
 56 74  1  0  0  0  0
 57 58  1  0  0  0  0
 58 62  1  0  0  0  0
 59 66  1  0  0  0  0
 60 63  1  0  0  0  0
 60 73  1  0  0  0  0
 61 75  1  0  0  0  0
 62 82  1  0  0  0  0
 64 67  1  0  0  0  0
 65 66  1  0  0  0  0
M  CHG  1  75   1
M  ISO  4  35 100  62 101  74 100  82 101
M  END
> <Batch ID>
0079

> <Smiles>
CCn1nc(CCC[101CH:1](C)[101O:1]c2ccc3c(c2)CN(C(=O)C(NC(=O)C(C)NC)C(C)(C)C)C(C(=O)NC2CCCc4ccccc42)C3)cc1C[100NH:0][100C:0](=O)N1CCCC(n2nc(-c3ccc(Oc4ccc(F)cc4F)cc3)c(C(N)=O)c2N)C1

> <Shape>
0.265

> <Color>
0.121

> <Negative vol penalty>
0.000

$$$$

  -OEChem-04052318413D

 88 96  0     1  0  0  0  0  0999 V2000
  -29.4360  -23.2571   16.2818 C   0  0  0  0  0  0  0  0  0  0  0  0
  -28.3467  -23.0084   17.1091 C   0  0  0  0  0  0  0  0  0  0  0  0
  -24.2994  -12.1562   19.4671 C   0  0  0  0  0  0  0  0  0  0  0  0
  -25.5488  -12.1167   21.5346 C   0  0  0  0  0  0  0  0  0  0  0  0
  -30.0415  -24.5118   16.2914 C   0  0  0  0  0  0  0  0  0  0  0  0
  -27.8550  -24.0178   17.9375 C   0  0  0  0  0  0  0  0  0  0  0  0
  -23.6880  -23.0757   20.3770 C   0  0  0  0  0  0  0  0  0  0  0  0
  -24.5375  -10.7924   19.2972 C   0  0  0  0  0  0  0  0  0  0  0  0
  -25.7868  -10.7528   21.3647 C   0  0  0  0  0  0  0  0  0  0  0  0
  -23.6281  -22.1915   21.4533 C   0  0  0  0  0  0  0  0  0  0  0  0
  -26.4182   -7.1845   21.6588 C   0  0  0  0  0  0  0  0  0  0  0  0
  -26.2494   -6.3531   22.7660 C   0  0  0  0  0  0  0  0  0  0  0  0
  -23.5472  -24.0605   22.9764 C   0  0  0  0  0  0  0  0  0  0  0  0
  -27.2596  -18.7837   24.4611 C   0  0  0  0  0  0  0  0  0  0  0  0
  -23.9331   -7.0233   22.9161 C   0  0  0  0  0  0  0  0  0  0  0  0
  -24.8051  -12.8184   20.5858 C   0  0  0  0  0  0  0  0  0  0  0  0
  -23.4741  -14.8244   21.4295 C   0  0  0  0  0  0  0  0  0  0  0  0
  -29.5642  -25.5328   17.1297 C   0  0  0  0  0  0  0  0  0  0  0  0
  -23.6889  -24.4613   20.5933 C   0  0  0  0  0  0  0  0  0  0  0  0
  -28.4375  -25.2982   17.9439 C   0  0  0  0  0  0  0  0  0  0  0  0
  -23.6046  -24.9601   21.9010 C   0  0  0  0  0  0  0  0  0  0  0  0
  -26.0140  -19.2359   24.8820 C   0  0  0  0  0  0  0  0  0  0  0  0
  -25.8830  -20.5242   25.3885 C   0  0  0  0  0  0  0  0  0  0  0  0
  -25.2812  -10.0907   20.2459 C   0  0  0  0  0  0  0  0  0  0  0  0
  -23.5606  -22.6838   22.7534 C   0  0  0  0  0  0  0  0  0  0  0  0
  -25.3444   -7.9354   21.1803 C   0  0  0  0  0  0  0  0  0  0  0  0
  -25.0068   -6.2724   23.3946 C   0  0  0  0  0  0  0  0  0  0  0  0
  -24.1019   -7.8548   21.8090 C   0  0  0  0  0  0  0  0  0  0  0  0
  -24.5600  -14.2273   20.7617 C   0  0  0  0  0  0  0  0  0  0  0  0
  -28.3344  -19.6517   24.5668 C   0  0  0  0  0  0  0  0  0  0  0  0
  -27.0195  -21.3142   25.4529 C   0  0  0  0  0  0  0  0  0  0  0  0
  -23.7027  -16.1742   21.3182 C   0  0  0  0  0  0  0  0  0  0  0  0
  -22.3585  -14.2136   22.0914 C   0  0  0  0  0  0  0  0  0  0  0  0
  -25.7285  -26.8240   19.9923 C   0  0  0  0  0  0  0  0  0  0  0  0
  -23.2903  -28.6780   21.0601 C   0  0  0  0  0  0  0  0  0  0  0  0
  -20.4542  -28.9340   22.9411 C   0  0  0  0  0  0  0  0  0  0  0  0
  -28.6753  -19.4167   20.5373 C   0  0  0  0  0  0  0  0  0  0  0  0
  -30.2524  -26.8746   17.0943 C   0  0  0  0  0  0  0  0  0  0  0  0
  -23.7269  -25.4019   19.4202 C   0  0  0  0  0  0  0  0  0  0  0  0
  -23.5821  -26.4389   22.1857 C   0  0  0  0  0  0  0  0  0  0  0  0
  -29.9453  -27.7327   18.3173 C   0  0  0  0  0  0  0  0  0  0  0  0
  -25.7847  -19.3960   18.4588 C   0  0  0  0  0  0  0  0  0  0  0  0
  -28.4441  -27.7725   18.5607 C   0  0  0  0  0  0  0  0  0  0  0  0
  -25.0450  -18.1229   18.8735 C   0  0  0  0  0  0  0  0  0  0  0  0
  -27.2993  -19.2038   18.4885 C   0  0  0  0  0  0  0  0  0  0  0  0
  -27.0947  -17.4240   20.1808 C   0  0  0  0  0  0  0  0  0  0  0  0
  -27.9046  -26.3715   18.8757 C   0  0  1  0  0  0  0  0  0  0  0  0
  -24.2407  -26.7913   19.7848 C   0  0  1  0  0  0  0  0  0  0  0  0
  -25.5655  -17.5855   20.2203 C   0  0  2  0  0  0  0  0  0  0  0  0
  -27.4226  -23.7420   24.9736 C   0  0  0  0  0  0  0  0  0  0  0  0
  -24.5568  -21.3780   27.3491 C   0  0  0  0  0  0  0  0  0  0  0  0
  -18.7031  -30.5857   23.6500 C   0  0  0  0  0  0  0  0  0  0  0  0
  -23.3830  -16.5334   25.8713 C   0  0  0  0  0  0  0  0  0  0  0  0
  -25.8407  -16.6016   26.3391 C   0  0  0  0  0  0  0  0  0  0  0  0
  -25.2637  -29.9226   23.0265 C   0  0  0  0  0  0  0  0  0  0  0  0
  -23.3111  -30.8297   24.3043 C   0  0  0  0  0  0  0  0  0  0  0  0
  -23.7000  -31.5490   21.9476 C   0  0  0  0  0  0  0  0  0  0  0  0
  -18.2915  -27.3605   21.6740 C   0  0  0  0  0  0  0  0  0  0  0  0
  -24.8381  -18.3213   24.7824 C   0  0  0  0  0  0  0  0  0  0  0  0
  -29.6861  -19.2008   24.1235 C   0  0  0  0  0  0  0  0  0  0  0  0
  -26.9414  -22.7074   25.9862 C   0  0  0  0  0  0  0  0  0  0  0  0
  -29.9782  -19.4974   22.6480 C   0  0  0  0  0  0  0  0  0  0  0  0
  -24.0750  -22.2627   25.0368 C   0  0  0  0  0  0  0  0  0  1  0  0
  -24.5332  -21.0472   25.8542 C   0  0  1  0  0  0  0  0  0  0  0  0
  -22.8612  -29.2086   22.4067 C   0  0  1  0  0  0  0  0  0  0  0  0
  -19.0904  -29.5245   22.6319 C   0  0  2  0  0  0  0  0  0  0  0  0
  -24.6005  -17.4465   26.0371 C   0  0  0  0  0  0  0  0  0  0  0  0
  -23.7864  -30.3495   22.9164 C   0  0  0  0  0  0  0  0  0  0  0  0
  -25.4149  -15.1242   20.2628 N   0  0  0  0  0  0  0  0  0  0  0  0
  -28.2461  -20.9098   25.0536 N   0  0  0  0  0  0  0  0  0  0  0  0
  -24.8661  -16.2987   20.6174 N   0  0  0  0  0  0  0  0  0  0  0  0
  -23.6276  -27.3182   21.0057 N   0  0  0  0  0  0  0  0  0  0  0  0
  -27.7281  -18.6942   19.7932 N   0  0  0  0  0  0  0  0  0  0  0  0
  -23.0199  -17.2549   21.7522 N   0  0  0  0  0  0  0  0  0  0  0  0
  -22.2783  -12.8145   22.1123 N   0  0  0  0  0  0  0  0  0  0  0  0
  -26.4590  -26.4152   18.8929 N   0  0  0  0  0  0  0  0  0  0  0  0
  -21.4607  -29.5925   22.2668 N   0  0  0  0  0  0  0  0  0  0  0  0
  -29.0217  -18.8671   21.7656 N   0  0  0  0  0  0  0  0  0  0  0  0
  -18.0492  -28.4583   22.6451 N   0  3  0  0  0  0  0  0  0  0  0  0
  -21.4510  -14.8888   22.6336 O   0  0  0  0  0  0  0  0  0  0  0  0
  -26.1803  -27.1942   21.0696 O   0  0  0  0  0  0  0  0  0  0  0  0
  -23.3181  -29.4403   20.0907 O   0  0  0  0  0  0  0  0  0  0  0  0
  -20.6115  -27.9859   23.7073 O   0  0  0  0  0  0  0  0  0  0  0  0
  -29.1713  -20.4762   20.1391 O   0  0  0  0  0  0  0  0  0  0  0  0
  -25.5134   -8.7598   20.0806 O   0  0  0  0  0  0  0  0  0  0  0  0
  -23.5028  -21.8230   23.8057 O   0  0  0  0  0  0  0  0  0  1  0  0
  -24.8445   -5.4728   24.4568 F   0  0  0  0  0  0  0  0  0  0  0  0
  -23.0663   -8.5728   21.3531 F   0  0  0  0  0  0  0  0  0  0  0  0
  1  2  1  0  0  0  0
  1  5  2  0  0  0  0
  2  6  2  0  0  0  0
  3  8  2  0  0  0  0
  3 16  1  0  0  0  0
  4  9  1  0  0  0  0
  4 16  2  0  0  0  0
  5 18  1  0  0  0  0
  6 20  1  0  0  0  0
  7 10  2  0  0  0  0
  7 19  1  0  0  0  0
  8 24  1  0  0  0  0
  9 24  2  0  0  0  0
 10 25  1  0  0  0  0
 11 12  2  0  0  0  0
 11 26  1  0  0  0  0
 12 27  1  0  0  0  0
 13 21  1  0  0  0  0
 13 25  2  0  0  0  0
 14 22  2  0  0  0  0
 14 30  1  0  0  0  0
 15 27  2  0  0  0  0
 15 28  1  0  0  0  0
 16 29  1  0  0  0  0
 17 29  1  0  0  0  0
 17 32  2  0  0  0  0
 17 33  1  0  0  0  0
 18 20  2  0  0  0  0
 18 38  1  0  0  0  0
 19 21  2  0  0  0  0
 19 39  1  0  0  0  0
 20 47  1  0  0  0  0
 21 40  1  0  0  0  0
 22 23  1  0  0  0  0
 22 59  1  0  0  0  0
 23 31  2  0  0  0  0
 23 64  1  0  0  0  0
 24 85  1  0  0  0  0
 25 86  1  0  0  0  0
 26 28  2  0  0  0  0
 26 85  1  0  0  0  0
 27 87  1  0  0  0  0
 28 88  1  0  0  0  0
 29 69  2  0  0  0  0
 30 60  1  0  0  0  0
 30 70  2  0  0  0  0
 31 61  1  0  0  0  0
 31 70  1  0  0  0  0
 32 71  1  0  0  0  0
 32 74  1  0  0  0  0
 33 75  1  0  0  0  0
 33 80  2  0  0  0  0
 34 48  1  0  0  0  0
 34 76  1  0  0  0  0
 34 81  2  0  0  0  0
 35 65  1  0  0  0  0
 35 72  1  0  0  0  0
 35 82  2  0  0  0  0
 36 66  1  0  0  0  0
 36 77  1  0  0  0  0
 36 83  2  0  0  0  0
 37 73  1  0  0  0  0
 37 78  1  0  0  0  0
 37 84  2  0  0  0  0
 38 41  1  0  0  0  0
 39 48  1  0  0  0  0
 40 72  1  0  0  0  0
 41 43  1  0  0  0  0
 42 44  1  0  0  0  0
 42 45  1  0  0  0  0
 43 47  1  0  0  0  0
 44 49  1  0  0  0  0
 45 73  1  0  0  0  0
 46 49  1  0  0  0  0
 46 73  1  0  0  0  0
 47 76  1  0  0  0  0
 48 72  1  0  0  0  0
 49 71  1  0  0  0  0
 50 61  1  0  0  0  0
 51 64  1  0  0  0  0
 52 66  1  0  0  0  0
 53 67  1  0  0  0  0
 54 67  1  0  0  0  0
 55 68  1  0  0  0  0
 56 68  1  0  0  0  0
 57 68  1  0  0  0  0
 58 79  1  0  0  0  0
 59 67  1  0  0  0  0
 60 62  1  0  0  0  0
 62 78  1  0  0  0  0
 63 64  1  0  0  0  0
 63 86  1  0  0  0  0
 65 68  1  0  0  0  0
 65 77  1  0  0  0  0
 66 79  1  0  0  0  0
 69 71  1  0  0  0  0
M  CHG  1  79   1
M  ISO  4  37 100  63 101  78 100  86 101
M  END
> <Batch ID>
0079

> <Smiles>
CCc1nc(CC[100NH:0][100C:0](=O)N2CCCC(n3nc(-c4ccc(Oc5ccc(F)cc5F)cc4)c(C(N)=O)c3N)C2)cc(CC(C)C)c1C(C)[101CH2:1][101O:1]c1ccc2c(c1)CN(C(=O)C(NC(=O)C(C)NC)C(C)(C)C)C(C(=O)NC1CCCc3ccccc31)C2

> <Shape>
0.209

> <Color>
0.074

> <Negative vol penalty>
0.000

$$$$

  -OEChem-04052318413D

 88 96  0     1  0  0  0  0  0999 V2000
  -29.9497  -20.5543   25.0686 C   0  0  0  0  0  0  0  0  0  0  0  0
  -29.4805  -19.4062   25.6989 C   0  0  0  0  0  0  0  0  0  0  0  0
  -23.1909   -9.8192   19.9317 C   0  0  0  0  0  0  0  0  0  0  0  0
  -23.5685   -9.9996   22.3111 C   0  0  0  0  0  0  0  0  0  0  0  0
  -30.0223  -21.7550   25.7735 C   0  0  0  0  0  0  0  0  0  0  0  0
  -29.0846  -19.4580   27.0349 C   0  0  0  0  0  0  0  0  0  0  0  0
  -24.7169  -17.0322   27.8621 C   0  0  0  0  0  0  0  0  0  0  0  0
  -22.4247   -8.6725   20.1401 C   0  0  0  0  0  0  0  0  0  0  0  0
  -22.8023   -8.8528   22.5196 C   0  0  0  0  0  0  0  0  0  0  0  0
  -24.7658  -15.6410   27.9380 C   0  0  0  0  0  0  0  0  0  0  0  0
  -23.2038   -5.5062   22.2555 C   0  0  0  0  0  0  0  0  0  0  0  0
  -23.7021   -4.5449   23.1348 C   0  0  0  0  0  0  0  0  0  0  0  0
  -24.7193  -15.7767   30.3460 C   0  0  0  0  0  0  0  0  0  0  0  0
  -27.6309  -13.7767   29.2597 C   0  0  0  0  0  0  0  0  0  0  0  0
  -27.5791  -13.4429   26.8784 C   0  0  0  0  0  0  0  0  0  0  0  0
  -21.7451   -4.8046   24.5277 C   0  0  0  0  0  0  0  0  0  0  0  0
  -23.7629  -10.4828   21.0172 C   0  0  0  0  0  0  0  0  0  0  0  0
  -24.1014  -12.9995   20.7736 C   0  0  0  0  0  0  0  0  0  0  0  0
  -29.6179  -21.8237   27.1161 C   0  0  0  0  0  0  0  0  0  0  0  0
  -24.6798  -17.8079   29.0298 C   0  0  0  0  0  0  0  0  0  0  0  0
  -29.1530  -20.6604   27.7589 C   0  0  0  0  0  0  0  0  0  0  0  0
  -24.6674  -17.1775   30.2822 C   0  0  0  0  0  0  0  0  0  0  0  0
  -26.9383  -13.4076   28.1119 C   0  0  0  0  0  0  0  0  0  0  0  0
  -22.2304   -8.1893   21.4341 C   0  0  0  0  0  0  0  0  0  0  0  0
  -24.7698  -15.0131   29.1801 C   0  0  0  0  0  0  0  0  0  0  0  0
  -21.9762   -6.1168   22.5123 C   0  0  0  0  0  0  0  0  0  0  0  0
  -22.9727   -4.1941   24.2709 C   0  0  0  0  0  0  0  0  0  0  0  0
  -21.2469   -5.7660   23.6483 C   0  0  0  0  0  0  0  0  0  0  0  0
  -24.5550  -11.6671   20.8024 C   0  0  0  0  0  0  0  0  0  0  0  0
  -28.9521  -14.1703   29.1215 C   0  0  0  0  0  0  0  0  0  0  0  0
  -28.9026  -13.8516   26.8468 C   0  0  0  0  0  0  0  0  0  0  0  0
  -25.2325  -13.7423   20.5386 C   0  0  0  0  0  0  0  0  0  0  0  0
  -22.7761  -13.5192   20.9441 C   0  0  0  0  0  0  0  0  0  0  0  0
  -26.5809  -19.9997   30.3280 C   0  0  0  0  0  0  0  0  0  0  0  0
  -24.1536  -20.2782   32.4617 C   0  0  0  0  0  0  0  0  0  0  0  0
  -21.4471  -18.8513   33.9735 C   0  0  0  0  0  0  0  0  0  0  0  0
  -31.0472  -12.7529   21.5694 C   0  0  0  0  0  0  0  0  0  0  0  0
  -29.7591  -23.1333   27.8506 C   0  0  0  0  0  0  0  0  0  0  0  0
  -24.6004  -19.3066   28.9305 C   0  0  0  0  0  0  0  0  0  0  0  0
  -24.6082  -17.9641   31.5653 C   0  0  0  0  0  0  0  0  0  0  0  0
  -28.9675  -23.1886   29.1547 C   0  0  0  0  0  0  0  0  0  0  0  0
  -29.5205  -13.4703   18.4339 C   0  0  0  0  0  0  0  0  0  0  0  0
  -29.1851  -21.9152   29.9657 C   0  0  0  0  0  0  0  0  0  0  0  0
  -28.0339  -13.2097   18.6827 C   0  0  0  0  0  0  0  0  0  0  0  0
  -30.4018  -12.4809   19.1933 C   0  0  0  0  0  0  0  0  0  0  0  0
  -28.6478  -12.1379   20.8903 C   0  0  0  0  0  0  0  0  0  0  0  0
  -28.6909  -20.6821   29.1997 C   0  0  1  0  0  0  0  0  0  0  0  0
  -25.0847  -20.0155   30.1916 C   0  0  1  0  0  0  0  0  0  0  0  0
  -27.7204  -13.1456   20.1897 C   0  0  2  0  0  0  0  0  0  0  0  0
  -25.3640  -11.4697   28.4425 C   0  0  0  0  0  0  0  0  0  0  0  0
  -30.1908  -16.0391   30.2733 C   0  0  0  0  0  0  0  0  0  0  0  0
  -30.9349  -13.6513   30.5890 C   0  0  0  0  0  0  0  0  0  0  0  0
  -29.9553  -15.3622   25.1238 C   0  0  0  0  0  0  0  0  0  0  0  0
  -19.6874  -19.3098   35.7029 C   0  0  0  0  0  0  0  0  0  0  0  0
  -26.2096  -19.8255   34.6703 C   0  0  0  0  0  0  0  0  0  0  0  0
  -24.3170  -19.3486   36.2384 C   0  0  0  0  0  0  0  0  0  0  0  0
  -24.5137  -21.5943   35.1703 C   0  0  0  0  0  0  0  0  0  0  0  0
  -31.9796  -13.2417   26.4253 C   0  0  0  0  0  0  0  0  0  0  0  0
  -30.4236  -11.4614   25.6319 C   0  0  0  0  0  0  0  0  0  0  0  0
  -19.2634  -18.5540   31.9981 C   0  0  0  0  0  0  0  0  0  0  0  0
  -31.5366  -13.0040   23.9894 C   0  0  0  0  0  0  0  0  0  0  0  0
  -25.4948  -12.9688   28.2048 C   0  0  1  0  0  0  0  0  0  1  0  0
  -29.7270  -14.5717   30.3319 C   0  0  0  0  0  0  0  0  0  0  0  0
  -29.6209  -13.9033   25.5398 C   0  0  1  0  0  0  0  0  0  0  0  0
  -23.7989  -19.6142   33.7702 C   0  0  1  0  0  0  0  0  0  0  0  0
  -20.0435  -19.3716   34.2257 C   0  0  2  0  0  0  0  0  0  0  0  0
  -24.7129  -20.0806   34.9384 C   0  0  0  0  0  0  0  0  0  0  0  0
  -30.8734  -12.9236   25.3949 C   0  0  0  0  0  0  0  0  0  0  0  0
  -25.8716  -11.5662   20.6016 N   0  0  0  0  0  0  0  0  0  0  0  0
  -29.6082  -14.2174   27.9404 N   0  0  0  0  0  0  0  0  0  0  0  0
  -26.2550  -12.8446   20.4443 N   0  0  0  0  0  0  0  0  0  0  0  0
  -24.5380  -19.4271   31.4160 N   0  0  0  0  0  0  0  0  0  0  0  0
  -30.0548  -12.4697   20.6165 N   0  0  0  0  0  0  0  0  0  0  0  0
  -25.4424  -15.0692   20.4055 N   0  0  0  0  0  0  0  0  0  0  0  0
  -21.7294  -12.6169   21.1778 N   0  0  0  0  0  0  0  0  0  0  0  0
  -27.2486  -20.5876   29.2706 N   0  0  0  0  0  0  0  0  0  0  0  0
  -22.3784  -19.8680   33.9850 N   0  0  0  0  0  0  0  0  0  0  0  0
  -30.6326  -12.7274   22.8954 N   0  0  0  0  0  0  0  0  0  0  0  0
  -19.0473  -18.5627   33.4679 N   0  3  0  0  0  0  0  0  0  0  0  0
  -22.5247  -14.7462   20.8744 O   0  0  0  0  0  0  0  0  0  0  0  0
  -27.0919  -19.4930   31.3200 O   0  0  0  0  0  0  0  0  0  0  0  0
  -24.0849  -21.5063   32.3686 O   0  0  0  0  0  0  0  0  0  0  0  0
  -21.6932  -17.6614   33.7889 O   0  0  0  0  0  0  0  0  0  0  0  0
  -32.2148  -13.0147   21.2611 O   0  0  0  0  0  0  0  0  0  0  0  0
  -21.4826   -7.0705   21.6379 O   0  0  0  0  0  0  0  0  0  0  0  0
  -24.8181  -13.6553   29.2570 O   0  0  0  0  0  0  0  0  0  1  0  0
  -23.4506   -3.2698   25.1144 F   0  0  0  0  0  0  0  0  0  0  0  0
  -20.0664   -6.3483   23.8997 F   0  0  0  0  0  0  0  0  0  0  0  0
  1  2  1  0  0  0  0
  1  5  2  0  0  0  0
  2  6  2  0  0  0  0
  3  8  2  0  0  0  0
  3 17  1  0  0  0  0
  4  9  1  0  0  0  0
  4 17  2  0  0  0  0
  5 19  1  0  0  0  0
  6 21  1  0  0  0  0
  7 10  2  0  0  0  0
  7 20  1  0  0  0  0
  8 24  1  0  0  0  0
  9 24  2  0  0  0  0
 10 25  1  0  0  0  0
 11 12  2  0  0  0  0
 11 26  1  0  0  0  0
 12 27  1  0  0  0  0
 13 22  1  0  0  0  0
 13 25  2  0  0  0  0
 14 23  1  0  0  0  0
 14 30  2  0  0  0  0
 15 23  2  0  0  0  0
 15 31  1  0  0  0  0
 16 27  2  0  0  0  0
 16 28  1  0  0  0  0
 17 29  1  0  0  0  0
 18 29  1  0  0  0  0
 18 32  2  0  0  0  0
 18 33  1  0  0  0  0
 19 21  2  0  0  0  0
 19 38  1  0  0  0  0
 20 22  2  0  0  0  0
 20 39  1  0  0  0  0
 21 47  1  0  0  0  0
 22 40  1  0  0  0  0
 23 62  1  0  0  0  0
 24 85  1  0  0  0  0
 25 86  1  0  0  0  0
 26 28  2  0  0  0  0
 26 85  1  0  0  0  0
 27 87  1  0  0  0  0
 28 88  1  0  0  0  0
 29 69  2  0  0  0  0
 30 63  1  0  0  0  0
 30 70  1  0  0  0  0
 31 64  1  0  0  0  0
 31 70  2  0  0  0  0
 32 71  1  0  0  0  0
 32 74  1  0  0  0  0
 33 75  1  0  0  0  0
 33 80  2  0  0  0  0
 34 48  1  0  0  0  0
 34 76  1  0  0  0  0
 34 81  2  0  0  0  0
 35 65  1  0  0  0  0
 35 72  1  0  0  0  0
 35 82  2  0  0  0  0
 36 66  1  0  0  0  0
 36 77  1  0  0  0  0
 36 83  2  0  0  0  0
 37 73  1  0  0  0  0
 37 78  1  0  0  0  0
 37 84  2  0  0  0  0
 38 41  1  0  0  0  0
 39 48  1  0  0  0  0
 40 72  1  0  0  0  0
 41 43  1  0  0  0  0
 42 44  1  0  0  0  0
 42 45  1  0  0  0  0
 43 47  1  0  0  0  0
 44 49  1  0  0  0  0
 45 73  1  0  0  0  0
 46 49  1  0  0  0  0
 46 73  1  0  0  0  0
 47 76  1  0  0  0  0
 48 72  1  0  0  0  0
 49 71  1  0  0  0  0
 50 62  1  0  0  0  0
 51 63  1  0  0  0  0
 52 63  1  0  0  0  0
 53 64  1  0  0  0  0
 54 66  1  0  0  0  0
 55 67  1  0  0  0  0
 56 67  1  0  0  0  0
 57 67  1  0  0  0  0
 58 68  1  0  0  0  0
 59 68  1  0  0  0  0
 60 79  1  0  0  0  0
 61 68  1  0  0  0  0
 61 78  1  0  0  0  0
 62 86  1  0  0  0  0
 64 68  1  0  0  0  0
 65 67  1  0  0  0  0
 65 77  1  0  0  0  0
 66 79  1  0  0  0  0
 69 71  1  0  0  0  0
M  CHG  1  79   1
M  ISO  4  37 100  62 101  78 100  86 101
M  END
> <Batch ID>
0079

> <Smiles>
CNC(C)C(=O)NC(C(=O)N1Cc2cc([101O:1][101CH:1](C)c3cc(C(C)C)nc(C(C)C(C)(C)C[100NH:0][100C:0](=O)N4CCCC(n5nc(-c6ccc(Oc7ccc(F)cc7F)cc6)c(C(N)=O)c5N)C4)c3)ccc2CC1C(=O)NC1CCCc2ccccc21)C(C)(C)C

> <Shape>
0.138

> <Color>
0.175

> <Negative vol penalty>
0.000

$$$$

  -OEChem-04052318413D

 88 96  0     1  0  0  0  0  0999 V2000
  -18.0474  -24.9693   22.6314 C   0  0  0  0  0  0  0  0  0  0  0  0
  -19.3491  -24.8056   23.0941 C   0  0  0  0  0  0  0  0  0  0  0  0
  -24.5288   -9.6170   21.0744 C   0  0  0  0  0  0  0  0  0  0  0  0
  -25.0171  -10.4655   23.2831 C   0  0  0  0  0  0  0  0  0  0  0  0
  -17.7267  -26.0626   21.8278 C   0  0  0  0  0  0  0  0  0  0  0  0
  -20.3312  -25.7347   22.7526 C   0  0  0  0  0  0  0  0  0  0  0  0
  -23.2078  -27.0618   26.7034 C   0  0  0  0  0  0  0  0  0  0  0  0
  -24.2875   -8.3533   21.6132 C   0  0  0  0  0  0  0  0  0  0  0  0
  -24.7757   -9.2018   23.8220 C   0  0  0  0  0  0  0  0  0  0  0  0
  -24.2017  -26.1666   27.0966 C   0  0  0  0  0  0  0  0  0  0  0  0
  -21.7857   -6.7835   23.2593 C   0  0  0  0  0  0  0  0  0  0  0  0
  -20.6541   -6.0967   22.8197 C   0  0  0  0  0  0  0  0  0  0  0  0
  -25.8464  -27.4884   25.9274 C   0  0  0  0  0  0  0  0  0  0  0  0
  -25.9616  -23.9372   23.9598 C   0  0  0  0  0  0  0  0  0  0  0  0
  -26.8139  -21.6892   24.0280 C   0  0  0  0  0  0  0  0  0  0  0  0
  -22.0565   -4.3026   22.0124 C   0  0  0  0  0  0  0  0  0  0  0  0
  -24.8937  -10.6731   21.9094 C   0  0  0  0  0  0  0  0  0  0  0  0
  -24.2095  -13.0143   21.1622 C   0  0  0  0  0  0  0  0  0  0  0  0
  -18.7032  -27.0108   21.4843 C   0  0  0  0  0  0  0  0  0  0  0  0
  -23.5246  -28.1730   25.9088 C   0  0  0  0  0  0  0  0  0  0  0  0
  -20.0236  -26.8411   21.9426 C   0  0  0  0  0  0  0  0  0  0  0  0
  -24.8552  -28.3976   25.5276 C   0  0  0  0  0  0  0  0  0  0  0  0
  -26.8446  -23.0014   24.4870 C   0  0  0  0  0  0  0  0  0  0  0  0
  -24.4109   -8.1456   22.9869 C   0  0  0  0  0  0  0  0  0  0  0  0
  -25.5207  -26.3782   26.7062 C   0  0  0  0  0  0  0  0  0  0  0  0
  -23.0528   -6.2299   23.0754 C   0  0  0  0  0  0  0  0  0  0  0  0
  -20.7895   -4.8563   22.1963 C   0  0  0  0  0  0  0  0  0  0  0  0
  -23.1882   -4.9895   22.4520 C   0  0  0  0  0  0  0  0  0  0  0  0
  -25.1437  -11.9787   21.3533 C   0  0  0  0  0  0  0  0  0  0  0  0
  -25.0745  -23.5138   22.9834 C   0  0  0  0  0  0  0  0  0  0  0  0
  -25.8884  -21.3664   23.0486 C   0  0  0  0  0  0  0  0  0  0  0  0
  -24.9397  -14.0375   20.6086 C   0  0  0  0  0  0  0  0  0  0  0  0
  -22.8071  -13.0485   21.4586 C   0  0  0  0  0  0  0  0  0  0  0  0
  -22.6914  -29.1657   23.0064 C   0  0  0  0  0  0  0  0  0  0  0  0
  -24.3865  -31.8008   23.8463 C   0  0  0  0  0  0  0  0  0  0  0  0
  -26.8352  -33.1736   25.7870 C   0  0  0  0  0  0  0  0  0  0  0  0
  -29.5224  -17.2190   20.4587 C   0  0  0  0  0  0  0  0  0  0  0  0
  -18.3197  -28.1507   20.5742 C   0  0  0  0  0  0  0  0  0  0  0  0
  -22.4453  -29.1439   25.5153 C   0  0  0  0  0  0  0  0  0  0  0  0
  -25.2507  -29.5863   24.6915 C   0  0  0  0  0  0  0  0  0  0  0  0
  -19.3337  -29.2918   20.5668 C   0  0  0  0  0  0  0  0  0  0  0  0
  -29.6455  -14.0955   18.7543 C   0  0  0  0  0  0  0  0  0  0  0  0
  -20.7512  -28.7454   20.4293 C   0  0  0  0  0  0  0  0  0  0  0  0
  -28.4123  -13.3499   19.2674 C   0  0  0  0  0  0  0  0  0  0  0  0
  -30.2886  -14.9434   19.8495 C   0  0  0  0  0  0  0  0  0  0  0  0
  -28.1387  -15.1346   21.0391 C   0  0  0  0  0  0  0  0  0  0  0  0
  -21.1111  -27.8409   21.6142 C   0  0  1  0  0  0  0  0  0  0  0  0
  -22.7992  -29.9610   24.2766 C   0  0  1  0  0  0  0  0  0  0  0  0
  -27.4231  -14.3095   19.9558 C   0  0  2  0  0  0  0  0  0  0  0  0
  -24.1134  -24.4911   22.3937 C   0  0  0  0  0  0  0  0  0  0  0  0
  -24.4680  -19.3293   22.9077 C   0  0  0  0  0  0  0  0  0  0  0  0
  -28.0206  -35.3423   26.2213 C   0  0  0  0  0  0  0  0  0  0  0  0
  -25.9839  -31.4405   21.2717 C   0  0  0  0  0  0  0  0  0  0  0  0
  -27.7090  -32.9955   22.2067 C   0  0  0  0  0  0  0  0  0  0  0  0
  -25.3854  -33.8094   21.8052 C   0  0  0  0  0  0  0  0  0  0  0  0
  -27.4431  -19.7722   18.9136 C   0  0  0  0  0  0  0  0  0  0  0  0
  -27.7202  -21.6761   20.4807 C   0  0  0  0  0  0  0  0  0  0  0  0
  -25.9339  -33.2355   28.6053 C   0  0  0  0  0  0  0  0  0  0  0  0
  -27.8322  -23.4081   25.5513 C   0  0  0  0  0  0  0  0  0  0  0  0
  -27.3009  -23.2493   26.9775 C   0  0  0  0  0  0  0  0  0  0  0  0
  -26.0525  -19.7934   20.9990 C   0  0  0  0  0  0  0  0  0  0  0  0
  -28.6158  -19.4317   21.1228 C   0  0  0  0  0  0  0  0  0  0  0  0
  -26.1056  -24.1455   27.2798 C   0  0  0  0  0  0  0  0  0  1  0  0
  -25.8264  -19.9670   22.5342 C   0  0  1  0  0  0  0  0  0  0  0  0
  -25.8298  -32.2268   23.7261 C   0  0  1  0  0  0  0  0  0  0  0  0
  -26.8656  -34.4391   26.6248 C   0  0  2  0  0  0  0  0  0  0  0  0
  -26.2196  -32.5945   22.2666 C   0  0  0  0  0  0  0  0  0  0  0  0
  -27.4522  -20.1608   20.4120 C   0  0  0  0  0  0  0  0  0  0  0  0
  -26.3734  -12.3132   20.9535 N   0  0  0  0  0  0  0  0  0  0  0  0
  -25.0149  -22.2480   22.5125 N   0  0  0  0  0  0  0  0  0  0  0  0
  -26.2170  -13.5706   20.5055 N   0  0  0  0  0  0  0  0  0  0  0  0
  -24.1584  -30.5035   24.3267 N   0  0  0  0  0  0  0  0  0  0  0  0
  -29.2977  -15.8325   20.4608 N   0  0  0  0  0  0  0  0  0  0  0  0
  -24.6073  -15.2820   20.2048 N   0  0  0  0  0  0  0  0  0  0  0  0
  -22.2161  -11.9110   22.0254 N   0  0  0  0  0  0  0  0  0  0  0  0
  -21.4351  -28.6376   22.7781 N   0  0  0  0  0  0  0  0  0  0  0  0
  -26.0170  -33.3098   24.6855 N   0  0  0  0  0  0  0  0  0  0  0  0
  -28.5308  -17.9900   21.0529 N   0  0  0  0  0  0  0  0  0  0  0  0
  -27.0155  -34.1011   28.0685 N   0  3  0  0  0  0  0  0  0  0  0  0
  -22.0957  -14.0519   21.2125 O   0  0  0  0  0  0  0  0  0  0  0  0
  -23.6749  -29.0417   22.2859 O   0  0  0  0  0  0  0  0  0  0  0  0
  -23.4941  -32.5926   23.5324 O   0  0  0  0  0  0  0  0  0  0  0  0
  -27.4763  -32.1663   26.0783 O   0  0  0  0  0  0  0  0  0  0  0  0
  -30.5294  -17.7323   19.9593 O   0  0  0  0  0  0  0  0  0  0  0  0
  -24.1753   -6.9127   23.5131 O   0  0  0  0  0  0  0  0  0  0  0  0
  -26.4926  -25.5056   27.0881 O   0  0  0  0  0  0  0  0  0  1  0  0
  -19.7025   -4.1961   21.7756 F   0  0  0  0  0  0  0  0  0  0  0  0
  -24.4027   -4.4521   22.2736 F   0  0  0  0  0  0  0  0  0  0  0  0
  1  2  1  0  0  0  0
  1  5  2  0  0  0  0
  2  6  2  0  0  0  0
  3  8  2  0  0  0  0
  3 17  1  0  0  0  0
  4  9  1  0  0  0  0
  4 17  2  0  0  0  0
  5 19  1  0  0  0  0
  6 21  1  0  0  0  0
  7 10  2  0  0  0  0
  7 20  1  0  0  0  0
  8 24  1  0  0  0  0
  9 24  2  0  0  0  0
 10 25  1  0  0  0  0
 11 12  2  0  0  0  0
 11 26  1  0  0  0  0
 12 27  1  0  0  0  0
 13 22  1  0  0  0  0
 13 25  2  0  0  0  0
 14 23  1  0  0  0  0
 14 30  2  0  0  0  0
 15 23  2  0  0  0  0
 15 31  1  0  0  0  0
 16 27  2  0  0  0  0
 16 28  1  0  0  0  0
 17 29  1  0  0  0  0
 18 29  1  0  0  0  0
 18 32  2  0  0  0  0
 18 33  1  0  0  0  0
 19 21  2  0  0  0  0
 19 38  1  0  0  0  0
 20 22  2  0  0  0  0
 20 39  1  0  0  0  0
 21 47  1  0  0  0  0
 22 40  1  0  0  0  0
 23 59  1  0  0  0  0
 24 85  1  0  0  0  0
 25 86  1  0  0  0  0
 26 28  2  0  0  0  0
 26 85  1  0  0  0  0
 27 87  1  0  0  0  0
 28 88  1  0  0  0  0
 29 69  2  0  0  0  0
 30 50  1  0  0  0  0
 30 70  1  0  0  0  0
 31 64  1  0  0  0  0
 31 70  2  0  0  0  0
 32 71  1  0  0  0  0
 32 74  1  0  0  0  0
 33 75  1  0  0  0  0
 33 80  2  0  0  0  0
 34 48  1  0  0  0  0
 34 76  1  0  0  0  0
 34 81  2  0  0  0  0
 35 65  1  0  0  0  0
 35 72  1  0  0  0  0
 35 82  2  0  0  0  0
 36 66  1  0  0  0  0
 36 77  1  0  0  0  0
 36 83  2  0  0  0  0
 37 73  1  0  0  0  0
 37 78  1  0  0  0  0
 37 84  2  0  0  0  0
 38 41  1  0  0  0  0
 39 48  1  0  0  0  0
 40 72  1  0  0  0  0
 41 43  1  0  0  0  0
 42 44  1  0  0  0  0
 42 45  1  0  0  0  0
 43 47  1  0  0  0  0
 44 49  1  0  0  0  0
 45 73  1  0  0  0  0
 46 49  1  0  0  0  0
 46 73  1  0  0  0  0
 47 76  1  0  0  0  0
 48 72  1  0  0  0  0
 49 71  1  0  0  0  0
 51 64  1  0  0  0  0
 52 66  1  0  0  0  0
 53 67  1  0  0  0  0
 54 67  1  0  0  0  0
 55 67  1  0  0  0  0
 56 68  1  0  0  0  0
 57 68  1  0  0  0  0
 58 79  1  0  0  0  0
 59 60  1  0  0  0  0
 60 63  1  0  0  0  0
 61 64  1  0  0  0  0
 61 68  1  0  0  0  0
 62 68  1  0  0  0  0
 62 78  1  0  0  0  0
 63 86  1  0  0  0  0
 65 67  1  0  0  0  0
 65 77  1  0  0  0  0
 66 79  1  0  0  0  0
 69 71  1  0  0  0  0
M  CHG  1  79   1
M  ISO  4  37 100  63 101  78 100  86 101
M  END
> <Batch ID>
0079

> <Smiles>
CNC(C)C(=O)NC(C(=O)N1Cc2cc([101O:1][101CH2:1]CCc3cc(C)nc(C(C)CC(C)(C)C[100NH:0][100C:0](=O)N4CCCC(n5nc(-c6ccc(Oc7ccc(F)cc7F)cc6)c(C(N)=O)c5N)C4)c3)ccc2CC1C(=O)NC1CCCc2ccccc21)C(C)(C)C

> <Shape>
0.282

> <Color>
0.135

> <Negative vol penalty>
0.000

$$$$

  -OEChem-04052318413D

 80 88  0     1  0  0  0  0  0999 V2000
  -22.3207  -20.2320   24.2908 C   0  0  0  0  0  0  0  0  0  0  0  0
  -23.4551  -21.0137   24.4784 C   0  0  0  0  0  0  0  0  0  0  0  0
  -24.0056  -14.4269   20.7585 C   0  0  0  0  0  0  0  0  0  0  0  0
  -25.8388  -14.4036   19.1851 C   0  0  0  0  0  0  0  0  0  0  0  0
  -21.3632  -20.6137   23.3534 C   0  0  0  0  0  0  0  0  0  0  0  0
  -23.6265  -22.1834   23.7374 C   0  0  0  0  0  0  0  0  0  0  0  0
  -28.2942  -26.0948   23.5333 C   0  0  0  0  0  0  0  0  0  0  0  0
  -24.3048  -13.1153   21.1267 C   0  0  0  0  0  0  0  0  0  0  0  0
  -26.1381  -13.0919   19.5533 C   0  0  0  0  0  0  0  0  0  0  0  0
  -29.4567  -26.2716   22.7843 C   0  0  0  0  0  0  0  0  0  0  0  0
  -23.7997  -10.0070   19.8987 C   0  0  0  0  0  0  0  0  0  0  0  0
  -22.7385   -9.1095   20.0159 C   0  0  0  0  0  0  0  0  0  0  0  0
  -28.5587  -23.8044   17.5236 C   0  0  0  0  0  0  0  0  0  0  0  0
  -28.3025  -27.8558   21.3781 C   0  0  0  0  0  0  0  0  0  0  0  0
  -23.2993   -8.7498   22.3383 C   0  0  0  0  0  0  0  0  0  0  0  0
  -30.4236  -22.7198   18.5250 C   0  0  0  0  0  0  0  0  0  0  0  0
  -24.7726  -15.0711   19.7876 C   0  0  0  0  0  0  0  0  0  0  0  0
  -29.1539  -22.6324   17.9771 C   0  0  0  0  0  0  0  0  0  0  0  0
  -23.2580  -16.8999   18.8554 C   0  0  0  0  0  0  0  0  0  0  0  0
  -21.5298  -21.7823   22.5921 C   0  0  0  0  0  0  0  0  0  0  0  0
  -27.1221  -26.7902   23.2032 C   0  0  0  0  0  0  0  0  0  0  0  0
  -22.6598  -22.5982   22.8036 C   0  0  0  0  0  0  0  0  0  0  0  0
  -27.1272  -27.6880   22.1261 C   0  0  0  0  0  0  0  0  0  0  0  0
  -29.2418  -25.0109   17.6304 C   0  0  0  0  0  0  0  0  0  0  0  0
  -25.3711  -12.4478   20.5242 C   0  0  0  0  0  0  0  0  0  0  0  0
  -29.4602  -27.1500   21.7047 C   0  0  0  0  0  0  0  0  0  0  0  0
  -24.6108  -10.2760   21.0012 C   0  0  0  0  0  0  0  0  0  0  0  0
  -22.4883   -8.4809   21.2357 C   0  0  0  0  0  0  0  0  0  0  0  0
  -24.3606   -9.6474   22.2210 C   0  0  0  0  0  0  0  0  0  0  0  0
  -24.4636  -16.4258   19.4064 C   0  0  0  0  0  0  0  0  0  0  0  0
  -30.5076  -24.9919   18.1938 C   0  0  0  0  0  0  0  0  0  0  0  0
  -23.4690  -18.2450   18.6741 C   0  0  0  0  0  0  0  0  0  0  0  0
  -28.4594  -21.3427   17.8797 C   0  0  0  0  0  0  0  0  0  0  0  0
  -22.0551  -16.1882   18.5360 C   0  0  0  0  0  0  0  0  0  0  0  0
  -24.1984  -25.9485   22.2827 C   0  0  0  0  0  0  0  0  0  0  0  0
  -23.6120  -29.1249   22.5815 C   0  0  0  0  0  0  0  0  0  0  0  0
  -24.8431  -32.3076   22.6161 C   0  0  0  0  0  0  0  0  0  0  0  0
  -20.4585  -22.1525   21.5969 C   0  0  0  0  0  0  0  0  0  0  0  0
  -25.8838  -26.6085   24.0376 C   0  0  0  0  0  0  0  0  0  0  0  0
  -25.9007  -28.4738   21.7430 C   0  0  0  0  0  0  0  0  0  0  0  0
  -20.9374  -23.1573   20.5541 C   0  0  0  0  0  0  0  0  0  0  0  0
  -25.9587  -21.9236   20.4441 C   0  0  0  0  0  0  0  0  0  0  0  0
  -21.6284  -24.3272   21.2385 C   0  0  0  0  0  0  0  0  0  0  0  0
  -25.1899  -20.6019   20.4236 C   0  0  0  0  0  0  0  0  0  0  0  0
  -27.4470  -21.7049   20.1894 C   0  0  0  0  0  0  0  0  0  0  0  0
  -26.9788  -19.6469   18.9015 C   0  0  0  0  0  0  0  0  0  0  0  0
  -22.8825  -23.8585   21.9872 C   0  0  1  0  0  0  0  0  0  0  0  0
  -24.6037  -26.9812   23.2961 C   0  0  1  0  0  0  0  0  0  0  0  0
  -25.4665  -19.8166   19.1283 C   0  0  1  0  0  0  0  0  0  0  0  0
  -28.6100  -26.2697   17.1463 C   0  0  0  0  0  0  0  0  0  0  0  0
  -24.1158  -34.6987   22.8429 C   0  0  0  0  0  0  0  0  0  0  0  0
  -22.5497  -29.0705   19.7217 C   0  0  0  0  0  0  0  0  0  0  0  0
  -22.7363  -31.5668   19.6790 C   0  0  0  0  0  0  0  0  0  0  0  0
  -21.2050  -30.4600   21.3078 C   0  0  0  0  0  0  0  0  0  0  0  0
  -26.4853  -32.6978   25.0471 C   0  0  0  0  0  0  0  0  0  0  0  0
  -31.2952  -26.2699   18.3348 C   0  0  0  0  0  0  0  0  0  0  0  0
  -32.2255  -26.2893   19.5495 C   0  0  0  0  0  0  0  0  0  0  0  0
  -31.4841  -26.2129   20.8791 C   0  0  0  0  0  0  0  0  0  1  0  0
  -23.7042  -30.3200   21.6639 C   0  0  1  0  0  0  0  0  0  0  0  0
  -24.6193  -33.4638   23.5740 C   0  0  2  0  0  0  0  0  0  0  0  0
  -22.5715  -30.3382   20.5989 C   0  0  0  0  0  0  0  0  0  0  0  0
  -31.1182  -23.8735   18.6455 N   0  0  0  0  0  0  0  0  0  0  0  0
  -25.3730  -17.3912   19.5647 N   0  0  0  0  0  0  0  0  0  0  0  0
  -24.7387  -18.4853   19.1103 N   0  0  0  0  0  0  0  0  0  0  0  0
  -27.6550  -20.9447   18.9504 N   0  0  0  0  0  0  0  0  0  0  0  0
  -24.7130  -28.2569   22.5855 N   0  0  0  0  0  0  0  0  0  0  0  0
  -22.6904  -19.2337   18.1856 N   0  0  0  0  0  0  0  0  0  0  0  0
  -21.9257  -15.6361   17.2543 N   0  0  0  0  0  0  0  0  0  0  0  0
  -23.3887  -24.9501   22.7897 N   0  0  0  0  0  0  0  0  0  0  0  0
  -23.7319  -31.4960   22.5268 N   0  0  0  0  0  0  0  0  0  0  0  0
  -25.8903  -33.8145   24.2686 N   0  3  0  0  0  0  0  0  0  0  0  0
  -28.6360  -20.7086   16.8405 O   0  0  0  0  0  0  0  0  0  0  0  0
  -21.1157  -16.0601   19.3573 O   0  0  0  0  0  0  0  0  0  0  0  0
  -24.5899  -26.0508   21.1260 O   0  0  0  0  0  0  0  0  0  0  0  0
  -22.6033  -28.9711   23.2747 O   0  0  0  0  0  0  0  0  0  0  0  0
  -25.8967  -32.1432   22.0052 O   0  0  0  0  0  0  0  0  0  0  0  0
  -25.6635  -11.1679   20.8834 O   0  0  0  0  0  0  0  0  0  0  0  0
  -30.5933  -27.3239   20.9715 O   0  0  0  0  0  0  0  0  0  1  0  0
  -21.4682   -7.6201   21.3486 F   0  0  0  0  0  0  0  0  0  0  0  0
  -25.1356   -9.9026   23.2840 F   0  0  0  0  0  0  0  0  0  0  0  0
  1  2  1  0  0  0  0
  1  5  2  0  0  0  0
  2  6  2  0  0  0  0
  3  8  2  0  0  0  0
  3 17  1  0  0  0  0
  4  9  1  0  0  0  0
  4 17  2  0  0  0  0
  5 20  1  0  0  0  0
  6 22  1  0  0  0  0
  7 10  2  0  0  0  0
  7 21  1  0  0  0  0
  8 25  1  0  0  0  0
  9 25  2  0  0  0  0
 10 26  1  0  0  0  0
 11 12  2  0  0  0  0
 11 27  1  0  0  0  0
 12 28  1  0  0  0  0
 13 18  2  0  0  0  0
 13 24  1  0  0  0  0
 14 23  1  0  0  0  0
 14 26  2  0  0  0  0
 15 28  2  0  0  0  0
 15 29  1  0  0  0  0
 16 18  1  0  0  0  0
 16 62  2  0  0  0  0
 17 30  1  0  0  0  0
 18 33  1  0  0  0  0
 19 30  1  0  0  0  0
 19 32  2  0  0  0  0
 19 34  1  0  0  0  0
 20 22  2  0  0  0  0
 20 38  1  0  0  0  0
 21 23  2  0  0  0  0
 21 39  1  0  0  0  0
 22 47  1  0  0  0  0
 23 40  1  0  0  0  0
 24 31  2  0  0  0  0
 24 50  1  0  0  0  0
 25 77  1  0  0  0  0
 26 78  1  0  0  0  0
 27 29  2  0  0  0  0
 27 77  1  0  0  0  0
 28 79  1  0  0  0  0
 29 80  1  0  0  0  0
 30 63  2  0  0  0  0
 31 56  1  0  0  0  0
 31 62  1  0  0  0  0
 32 64  1  0  0  0  0
 32 67  1  0  0  0  0
 33 65  1  0  0  0  0
 33 72  2  0  0  0  0
 34 68  1  0  0  0  0
 34 73  2  0  0  0  0
 35 48  1  0  0  0  0
 35 69  1  0  0  0  0
 35 74  2  0  0  0  0
 36 59  1  0  0  0  0
 36 66  1  0  0  0  0
 36 75  2  0  0  0  0
 37 60  1  0  0  0  0
 37 70  1  0  0  0  0
 37 76  2  0  0  0  0
 38 41  1  0  0  0  0
 39 48  1  0  0  0  0
 40 66  1  0  0  0  0
 41 43  1  0  0  0  0
 42 44  1  0  0  0  0
 42 45  1  0  0  0  0
 43 47  1  0  0  0  0
 44 49  1  0  0  0  0
 45 65  1  0  0  0  0
 46 49  1  0  0  0  0
 46 65  1  0  0  0  0
 47 69  1  0  0  0  0
 48 66  1  0  0  0  0
 49 64  1  0  0  0  0
 51 60  1  0  0  0  0
 52 61  1  0  0  0  0
 53 61  1  0  0  0  0
 54 61  1  0  0  0  0
 55 71  1  0  0  0  0
 56 57  1  0  0  0  0
 57 58  1  0  0  0  0
 58 78  1  0  0  0  0
 59 61  1  0  0  0  0
 59 70  1  0  0  0  0
 60 71  1  0  0  0  0
 63 64  1  0  0  0  0
M  CHG  1  71   1
M  ISO  4  18 100  33 100  58 101  78 101
M  END
> <Batch ID>
0079

> <Smiles>
CNC(C)C(=O)NC(C(=O)N1Cc2cc([101O:1][101CH2:1]CCc3nc[100c:0]([100C:0](=O)N4CCCC(n5nc(-c6ccc(Oc7ccc(F)cc7F)cc6)c(C(N)=O)c5N)C4)cc3C)ccc2CC1C(=O)NC1CCCc2ccccc21)C(C)(C)C

> <Shape>
0.224

> <Color>
0.063

> <Negative vol penalty>
0.000

$$$$

  -OEChem-04052318413D

 84 92  0     1  0  0  0  0  0999 V2000
  -31.0037  -28.2242   15.8933 C   0  0  0  0  0  0  0  0  0  0  0  0
  -29.6890  -27.8116   16.0847 C   0  0  0  0  0  0  0  0  0  0  0  0
  -29.4688  -17.6849   20.5249 C   0  0  0  0  0  0  0  0  0  0  0  0
  -27.1065  -18.1870   20.5901 C   0  0  0  0  0  0  0  0  0  0  0  0
  -31.7440  -28.7112   16.9697 C   0  0  0  0  0  0  0  0  0  0  0  0
  -29.1141  -27.8847   17.3530 C   0  0  0  0  0  0  0  0  0  0  0  0
  -23.2694  -29.1440   18.6791 C   0  0  0  0  0  0  0  0  0  0  0  0
  -29.1909  -16.3434   20.7869 C   0  0  0  0  0  0  0  0  0  0  0  0
  -26.8285  -16.8455   20.8521 C   0  0  0  0  0  0  0  0  0  0  0  0
  -22.1811  -28.3292   18.9881 C   0  0  0  0  0  0  0  0  0  0  0  0
  -28.1108  -13.6410   19.0655 C   0  0  0  0  0  0  0  0  0  0  0  0
  -28.7773  -12.6804   18.3048 C   0  0  0  0  0  0  0  0  0  0  0  0
  -22.5987  -28.6732   21.3389 C   0  0  0  0  0  0  0  0  0  0  0  0
  -29.7464  -11.7592   20.3172 C   0  0  0  0  0  0  0  0  0  0  0  0
  -22.1221  -24.6190   24.4486 C   0  0  0  0  0  0  0  0  0  0  0  0
  -28.4266  -18.6068   20.4265 C   0  0  0  0  0  0  0  0  0  0  0  0
  -28.8094  -20.6109   18.8953 C   0  0  0  0  0  0  0  0  0  0  0  0
  -31.1749  -28.7993   18.2499 C   0  0  0  0  0  0  0  0  0  0  0  0
  -24.0384  -29.7217   19.6995 C   0  0  0  0  0  0  0  0  0  0  0  0
  -29.8480  -28.3720   18.4479 C   0  0  0  0  0  0  0  0  0  0  0  0
  -23.6947  -29.4970   21.0402 C   0  0  0  0  0  0  0  0  0  0  0  0
  -27.8708  -15.9237   20.9505 C   0  0  0  0  0  0  0  0  0  0  0  0
  -21.8474  -28.0913   20.3182 C   0  0  0  0  0  0  0  0  0  0  0  0
  -28.2622  -13.6608   20.4520 C   0  0  0  0  0  0  0  0  0  0  0  0
  -29.5950  -11.7395   18.9306 C   0  0  0  0  0  0  0  0  0  0  0  0
  -29.0799  -12.7199   21.0778 C   0  0  0  0  0  0  0  0  0  0  0  0
  -28.7130  -19.9928   20.1564 C   0  0  0  0  0  0  0  0  0  0  0  0
  -23.3374  -24.0011   24.5388 C   0  0  0  0  0  0  0  0  0  0  0  0
  -29.0954  -21.9243   19.1775 C   0  0  0  0  0  0  0  0  0  0  0  0
  -22.2231  -23.0757   22.8648 C   0  0  0  0  0  0  0  0  0  0  0  0
  -28.6541  -20.0481   17.5857 C   0  0  0  0  0  0  0  0  0  0  0  0
  -27.0773  -29.5153   20.6086 C   0  0  0  0  0  0  0  0  0  0  0  0
  -26.2152  -31.8696   22.6669 C   0  0  0  0  0  0  0  0  0  0  0  0
  -23.7267  -33.4353   24.3997 C   0  0  0  0  0  0  0  0  0  0  0  0
  -28.0707  -25.3848   23.9551 C   0  0  0  0  0  0  0  0  0  0  0  0
  -32.0297  -29.2881   19.3923 C   0  0  0  0  0  0  0  0  0  0  0  0
  -25.1930  -30.6198   19.3493 C   0  0  0  0  0  0  0  0  0  0  0  0
  -24.4760  -30.1100   22.1726 C   0  0  0  0  0  0  0  0  0  0  0  0
  -31.2261  -29.6839   20.6284 C   0  0  0  0  0  0  0  0  0  0  0  0
  -31.2250  -24.6693   22.4670 C   0  0  0  0  0  0  0  0  0  0  0  0
  -30.1849  -28.6173   20.9523 C   0  0  0  0  0  0  0  0  0  0  0  0
  -30.9476  -23.4454   21.5923 C   0  0  0  0  0  0  0  0  0  0  0  0
  -30.4220  -24.6288   23.7652 C   0  0  0  0  0  0  0  0  0  0  0  0
  -28.6916  -23.2233   22.7146 C   0  0  0  0  0  0  0  0  0  0  0  0
  -29.1814  -28.4591   19.8037 C   0  0  1  0  0  0  0  0  0  0  0  0
  -26.2182  -30.7405   20.4727 C   0  0  1  0  0  0  0  0  0  0  0  0
  -29.4364  -23.2468   21.3688 C   0  0  2  0  0  0  0  0  0  0  0  0
  -21.8829  -22.1973   21.7178 C   0  0  0  0  0  0  0  0  0  0  0  0
  -24.0929  -23.8874   26.9281 C   0  0  0  0  0  0  0  0  0  0  0  0
  -23.3350  -35.3037   26.0286 C   0  0  0  0  0  0  0  0  0  0  0  0
  -27.3272  -30.1364   24.9185 C   0  0  0  0  0  0  0  0  0  0  0  0
  -26.0799  -31.5728   26.5461 C   0  0  0  0  0  0  0  0  0  0  0  0
  -27.8623  -32.5715   25.1150 C   0  0  0  0  0  0  0  0  0  0  0  0
  -21.9670  -34.8741   22.5044 C   0  0  0  0  0  0  0  0  0  0  0  0
  -20.0498  -25.2772   21.6900 C   0  0  0  0  0  0  0  0  0  0  0  0
  -25.0935  -25.6426   25.4124 C   0  0  0  0  0  0  0  0  0  0  0  0
  -20.0672  -24.3965   22.9414 C   0  0  0  0  0  0  0  0  0  0  0  0
  -25.6728  -26.0178   24.0481 C   0  0  0  0  0  0  0  0  0  0  0  0
  -20.8530  -26.5633   21.8454 C   0  0  0  0  0  0  0  0  0  1  0  0
  -24.4631  -24.2081   25.4535 C   0  0  2  0  0  0  0  0  0  0  0  0
  -25.6570  -31.9125   24.0689 C   0  0  1  0  0  0  0  0  0  0  0  0
  -23.3829  -34.9050   24.5618 C   0  0  2  0  0  0  0  0  0  0  0  0
  -26.7178  -31.5350   25.1410 C   0  0  0  0  0  0  0  0  0  0  0  0
  -28.9212  -20.8436   21.1648 N   0  0  0  0  0  0  0  0  0  0  0  0
  -21.4538  -24.0269   23.4042 N   0  0  0  0  0  0  0  0  0  0  0  0
  -29.1512  -22.0096   20.5376 N   0  0  0  0  0  0  0  0  0  0  0  0
  -23.3725  -23.0507   23.5471 N   0  3  0  0  0  0  0  0  0  0  0  0
  -25.6000  -30.9757   21.7791 N   0  0  0  0  0  0  0  0  0  0  0  0
  -28.9969  -24.4400   23.4834 N   0  0  0  0  0  0  0  0  0  0  0  0
  -29.3023  -23.0029   18.3925 N   0  0  0  0  0  0  0  0  0  0  0  0
  -28.3614  -18.6819   17.4761 N   0  0  0  0  0  0  0  0  0  0  0  0
  -28.2151  -29.5363   19.8248 N   0  0  0  0  0  0  0  0  0  0  0  0
  -25.0826  -33.2427   24.2390 N   0  0  0  0  0  0  0  0  0  0  0  0
  -26.7412  -25.1337   23.6386 N   0  0  0  0  0  0  0  0  0  0  0  0
  -22.0548  -35.1966   23.9519 N   0  3  0  0  0  0  0  0  0  0  0  0
  -28.7875  -20.7330   16.5433 O   0  0  0  0  0  0  0  0  0  0  0  0
  -26.7340  -28.6181   21.3694 O   0  0  0  0  0  0  0  0  0  0  0  0
  -27.1577  -32.6074   22.3685 O   0  0  0  0  0  0  0  0  0  0  0  0
  -22.8778  -32.5467   24.4178 O   0  0  0  0  0  0  0  0  0  0  0  0
  -28.4043  -26.3812   24.6053 O   0  0  0  0  0  0  0  0  0  0  0  0
  -27.5993  -14.6146   21.2059 O   0  0  0  0  0  0  0  0  0  0  0  0
  -20.7860  -27.2958   20.6226 O   0  0  0  0  0  0  0  0  0  1  0  0
  -30.2337  -10.8161   18.2001 F   0  0  0  0  0  0  0  0  0  0  0  0
  -29.2283  -12.7331   22.4096 F   0  0  0  0  0  0  0  0  0  0  0  0
  1  2  1  0  0  0  0
  1  5  2  0  0  0  0
  2  6  2  0  0  0  0
  3  8  2  0  0  0  0
  3 16  1  0  0  0  0
  4  9  1  0  0  0  0
  4 16  2  0  0  0  0
  5 18  1  0  0  0  0
  6 20  1  0  0  0  0
  7 10  2  0  0  0  0
  7 19  1  0  0  0  0
  8 22  1  0  0  0  0
  9 22  2  0  0  0  0
 10 23  1  0  0  0  0
 11 12  2  0  0  0  0
 11 24  1  0  0  0  0
 12 25  1  0  0  0  0
 13 21  1  0  0  0  0
 13 23  2  0  0  0  0
 14 25  2  0  0  0  0
 14 26  1  0  0  0  0
 15 28  2  0  0  0  0
 15 65  1  0  0  0  0
 16 27  1  0  0  0  0
 17 27  1  0  0  0  0
 17 29  2  0  0  0  0
 17 31  1  0  0  0  0
 18 20  2  0  0  0  0
 18 36  1  0  0  0  0
 19 21  2  0  0  0  0
 19 37  1  0  0  0  0
 20 45  1  0  0  0  0
 21 38  1  0  0  0  0
 22 81  1  0  0  0  0
 23 82  1  0  0  0  0
 24 26  2  0  0  0  0
 24 81  1  0  0  0  0
 25 83  1  0  0  0  0
 26 84  1  0  0  0  0
 27 64  2  0  0  0  0
 28 60  1  0  0  0  0
 28 67  1  0  0  0  0
 29 66  1  0  0  0  0
 29 70  1  0  0  0  0
 30 48  1  0  0  0  0
 30 65  1  0  0  0  0
 30 67  2  0  0  0  0
 31 71  1  0  0  0  0
 31 76  2  0  0  0  0
 32 46  1  0  0  0  0
 32 72  1  0  0  0  0
 32 77  2  0  0  0  0
 33 61  1  0  0  0  0
 33 68  1  0  0  0  0
 33 78  2  0  0  0  0
 34 62  1  0  0  0  0
 34 73  1  0  0  0  0
 34 79  2  0  0  0  0
 35 69  1  0  0  0  0
 35 74  1  0  0  0  0
 35 80  2  0  0  0  0
 36 39  1  0  0  0  0
 37 46  1  0  0  0  0
 38 68  1  0  0  0  0
 39 41  1  0  0  0  0
 40 42  1  0  0  0  0
 40 43  1  0  0  0  0
 41 45  1  0  0  0  0
 42 47  1  0  0  0  0
 43 69  1  0  0  0  0
 44 47  1  0  0  0  0
 44 69  1  0  0  0  0
 45 72  1  0  0  0  0
 46 68  1  0  0  0  0
 47 66  1  0  0  0  0
 49 60  1  0  0  0  0
 50 62  1  0  0  0  0
 51 63  1  0  0  0  0
 52 63  1  0  0  0  0
 53 63  1  0  0  0  0
 54 75  1  0  0  0  0
 55 57  1  0  0  0  0
 55 59  1  0  0  0  0
 56 58  1  0  0  0  0
 56 60  1  0  0  0  0
 57 65  1  0  0  0  0
 58 74  1  0  0  0  0
 59 82  1  0  0  0  0
 61 63  1  0  0  0  0
 61 73  1  0  0  0  0
 62 75  1  0  0  0  0
 64 66  1  0  0  0  0
M  CHG  2  67   1  75   1
M  ISO  4  35 100  59 101  74 100  82 101
M  END
> <Batch ID>
0079

> <Smiles>
CNC(C)C(=O)NC(C(=O)N1Cc2cc([101O:1][101CH2:1]CCn3cc(C(C)CC[100NH:0][100C:0](=O)N4CCCC(n5nc(-c6ccc(Oc7ccc(F)cc7F)cc6)c(C(N)=O)c5N)C4)nc3C)ccc2CC1C(=O)NC1CCCc2ccccc21)C(C)(C)C

> <Shape>
0.263

> <Color>
0.086

> <Negative vol penalty>
0.000

$$$$

  -OEChem-04052318413D

 88 96  0     1  0  0  0  0  0999 V2000
  -33.0151  -31.4522   16.6854 C   0  0  0  0  0  0  0  0  0  0  0  0
  -32.2095  -30.4280   16.1982 C   0  0  0  0  0  0  0  0  0  0  0  0
  -26.0925  -11.1537   20.4337 C   0  0  0  0  0  0  0  0  0  0  0  0
  -25.4806  -13.4713   20.1316 C   0  0  0  0  0  0  0  0  0  0  0  0
  -33.1265  -31.6559   18.0602 C   0  0  0  0  0  0  0  0  0  0  0  0
  -31.5157  -29.6061   17.0856 C   0  0  0  0  0  0  0  0  0  0  0  0
  -25.3976  -25.9250   17.6652 C   0  0  0  0  0  0  0  0  0  0  0  0
  -24.7465  -10.8170   20.5766 C   0  0  0  0  0  0  0  0  0  0  0  0
  -24.1346  -13.1346   20.2745 C   0  0  0  0  0  0  0  0  0  0  0  0
  -24.9351  -24.6460   17.9716 C   0  0  0  0  0  0  0  0  0  0  0  0
  -21.9964  -12.4329   22.7977 C   0  0  0  0  0  0  0  0  0  0  0  0
  -21.2097  -13.2413   23.6182 C   0  0  0  0  0  0  0  0  0  0  0  0
  -25.1411  -25.1415   20.3234 C   0  0  0  0  0  0  0  0  0  0  0  0
  -27.7140  -22.0323   19.2849 C   0  0  0  0  0  0  0  0  0  0  0  0
  -28.1083  -19.9873   20.4877 C   0  0  0  0  0  0  0  0  0  0  0  0
  -19.7749  -13.7493   21.7419 C   0  0  0  0  0  0  0  0  0  0  0  0
  -26.4596  -12.4809   20.2112 C   0  0  0  0  0  0  0  0  0  0  0  0
  -28.5942  -12.8705   18.8698 C   0  0  0  0  0  0  0  0  0  0  0  0
  -32.4261  -30.8422   18.9646 C   0  0  0  0  0  0  0  0  0  0  0  0
  -25.7463  -26.8196   18.6872 C   0  0  0  0  0  0  0  0  0  0  0  0
  -31.6189  -29.7982   18.4738 C   0  0  0  0  0  0  0  0  0  0  0  0
  -25.6054  -26.4322   20.0274 C   0  0  0  0  0  0  0  0  0  0  0  0
  -27.2466  -20.8221   19.7850 C   0  0  0  0  0  0  0  0  0  0  0  0
  -23.7675  -11.8074   20.4970 C   0  0  0  0  0  0  0  0  0  0  0  0
  -24.8095  -24.2530   19.3008 C   0  0  0  0  0  0  0  0  0  0  0  0
  -21.6724  -12.2827   21.4493 C   0  0  0  0  0  0  0  0  0  0  0  0
  -20.0989  -13.8995   23.0903 C   0  0  0  0  0  0  0  0  0  0  0  0
  -20.5616  -12.9409   20.9214 C   0  0  0  0  0  0  0  0  0  0  0  0
  -27.8499  -12.8295   20.0640 C   0  0  0  0  0  0  0  0  0  0  0  0
  -29.0411  -22.3590   19.5126 C   0  0  0  0  0  0  0  0  0  0  0  0
  -29.4178  -20.4054   20.6614 C   0  0  0  0  0  0  0  0  0  0  0  0
  -29.8529  -13.2549   19.2628 C   0  0  0  0  0  0  0  0  0  0  0  0
  -28.1844  -12.5866   17.5255 C   0  0  0  0  0  0  0  0  0  0  0  0
  -28.4229  -28.2953   19.5601 C   0  0  0  0  0  0  0  0  0  0  0  0
  -26.4553  -29.7809   21.6682 C   0  0  0  0  0  0  0  0  0  0  0  0
  -23.5479  -29.7216   23.4544 C   0  0  0  0  0  0  0  0  0  0  0  0
  -31.8900  -16.3357   23.9755 C   0  0  0  0  0  0  0  0  0  0  0  0
  -32.6151  -31.0707   20.4434 C   0  0  0  0  0  0  0  0  0  0  0  0
  -26.2183  -28.2051   18.3404 C   0  0  0  0  0  0  0  0  0  0  0  0
  -25.9471  -27.3621   21.1619 C   0  0  0  0  0  0  0  0  0  0  0  0
  -31.5525  -30.3934   21.3051 C   0  0  0  0  0  0  0  0  0  0  0  0
  -32.8369  -13.0460   22.9968 C   0  0  0  0  0  0  0  0  0  0  0  0
  -31.3353  -28.9534   20.8512 C   0  0  0  0  0  0  0  0  0  0  0  0
  -31.7333  -12.6211   22.0264 C   0  0  0  0  0  0  0  0  0  0  0  0
  -32.2868  -13.8960   24.1400 C   0  0  0  0  0  0  0  0  0  0  0  0
  -30.3977  -14.6454   22.7458 C   0  0  0  0  0  0  0  0  0  0  0  0
  -30.8310  -28.9013   19.4039 C   0  0  1  0  0  0  0  0  0  0  0  0
  -27.0325  -28.8553   19.4547 C   0  0  1  0  0  0  0  0  0  0  0  0
  -30.9126  -13.8329   21.5454 C   0  0  2  0  0  0  0  0  0  0  0  0
  -29.5771  -23.6506   18.9920 C   0  0  0  0  0  0  0  0  0  0  0  0
  -31.7934  -19.5689   20.7862 C   0  0  0  0  0  0  0  0  0  0  0  0
  -22.2314  -31.0600   25.1196 C   0  0  0  0  0  0  0  0  0  0  0  0
  -23.4390  -20.3575   20.3982 C   0  0  0  0  0  0  0  0  0  0  0  0
  -28.3734  -28.9145   23.8772 C   0  0  0  0  0  0  0  0  0  0  0  0
  -26.5750  -29.4243   25.5428 C   0  0  0  0  0  0  0  0  0  0  0  0
  -27.4985  -31.2457   24.1103 C   0  0  0  0  0  0  0  0  0  0  0  0
  -30.8187  -21.1531   23.3993 C   0  0  0  0  0  0  0  0  0  0  0  0
  -28.9752  -19.4820   23.5690 C   0  0  0  0  0  0  0  0  0  0  0  0
  -21.2538  -29.9850   21.6032 C   0  0  0  0  0  0  0  0  0  0  0  0
  -25.8090  -20.4167   19.5669 C   0  0  0  0  0  0  0  0  0  0  0  0
  -31.3752  -18.7480   23.7016 C   0  0  0  0  0  0  0  0  0  0  0  0
  -24.8368  -22.4166   20.8117 C   0  0  0  0  0  0  0  0  0  1  0  0
  -30.3706  -19.5335   21.4090 C   0  0  1  0  0  0  0  0  0  0  0  0
  -25.9898  -29.5002   23.0765 C   0  0  1  0  0  0  0  0  0  0  0  0
  -22.4618  -30.7648   23.6457 C   0  0  2  0  0  0  0  0  0  0  0  0
  -24.8510  -20.8871   20.6796 C   0  0  1  0  0  0  0  0  0  0  0  0
  -27.1045  -29.7528   24.1306 C   0  0  0  0  0  0  0  0  0  0  0  0
  -30.3919  -19.7248   22.9941 C   0  0  0  0  0  0  0  0  0  0  0  0
  -28.5753  -13.1611   21.1354 N   0  0  0  0  0  0  0  0  0  0  0  0
  -29.9082  -21.5739   20.1904 N   0  0  0  0  0  0  0  0  0  0  0  0
  -29.7886  -13.4142   20.6158 N   0  0  0  0  0  0  0  0  0  0  0  0
  -26.4103  -28.7039   20.7716 N   0  0  0  0  0  0  0  0  0  0  0  0
  -31.5202  -15.0291   23.6162 N   0  0  0  0  0  0  0  0  0  0  0  0
  -30.9973  -13.4687   18.5795 N   0  0  0  0  0  0  0  0  0  0  0  0
  -26.8550  -12.2053   17.2987 N   0  0  0  0  0  0  0  0  0  0  0  0
  -29.4219  -29.2261   19.3477 N   0  0  0  0  0  0  0  0  0  0  0  0
  -24.7865  -30.3007   23.2759 N   0  0  0  0  0  0  0  0  0  0  0  0
  -31.1148  -17.3518   23.4302 N   0  0  0  0  0  0  0  0  0  0  0  0
  -21.1783  -30.2906   23.0551 N   0  3  0  0  0  0  0  0  0  0  0  0
  -28.9780  -12.6528   16.5563 O   0  0  0  0  0  0  0  0  0  0  0  0
  -28.5779  -27.1071   19.8167 O   0  0  0  0  0  0  0  0  0  0  0  0
  -26.8377  -30.9158   21.3725 O   0  0  0  0  0  0  0  0  0  0  0  0
  -23.3209  -28.5138   23.4661 O   0  0  0  0  0  0  0  0  0  0  0  0
  -32.8439  -16.5789   24.7224 O   0  0  0  0  0  0  0  0  0  0  0  0
  -22.4540  -11.4791   20.6362 O   0  0  0  0  0  0  0  0  0  0  0  0
  -24.3589  -23.0049   19.6026 O   0  0  0  0  0  0  0  0  0  1  0  0
  -19.3427  -14.6745   23.8786 F   0  0  0  0  0  0  0  0  0  0  0  0
  -20.2447  -12.7995   19.6270 F   0  0  0  0  0  0  0  0  0  0  0  0
  1  2  1  0  0  0  0
  1  5  2  0  0  0  0
  2  6  2  0  0  0  0
  3  8  2  0  0  0  0
  3 17  1  0  0  0  0
  4  9  1  0  0  0  0
  4 17  2  0  0  0  0
  5 19  1  0  0  0  0
  6 21  1  0  0  0  0
  7 10  2  0  0  0  0
  7 20  1  0  0  0  0
  8 24  1  0  0  0  0
  9 24  2  0  0  0  0
 10 25  1  0  0  0  0
 11 12  2  0  0  0  0
 11 26  1  0  0  0  0
 12 27  1  0  0  0  0
 13 22  1  0  0  0  0
 13 25  2  0  0  0  0
 14 23  1  0  0  0  0
 14 30  2  0  0  0  0
 15 23  2  0  0  0  0
 15 31  1  0  0  0  0
 16 27  2  0  0  0  0
 16 28  1  0  0  0  0
 17 29  1  0  0  0  0
 18 29  1  0  0  0  0
 18 32  2  0  0  0  0
 18 33  1  0  0  0  0
 19 21  2  0  0  0  0
 19 38  1  0  0  0  0
 20 22  2  0  0  0  0
 20 39  1  0  0  0  0
 21 47  1  0  0  0  0
 22 40  1  0  0  0  0
 23 60  1  0  0  0  0
 24 85  1  0  0  0  0
 25 86  1  0  0  0  0
 26 28  2  0  0  0  0
 26 85  1  0  0  0  0
 27 87  1  0  0  0  0
 28 88  1  0  0  0  0
 29 69  2  0  0  0  0
 30 50  1  0  0  0  0
 30 70  1  0  0  0  0
 31 63  1  0  0  0  0
 31 70  2  0  0  0  0
 32 71  1  0  0  0  0
 32 74  1  0  0  0  0
 33 75  1  0  0  0  0
 33 80  2  0  0  0  0
 34 48  1  0  0  0  0
 34 76  1  0  0  0  0
 34 81  2  0  0  0  0
 35 64  1  0  0  0  0
 35 72  1  0  0  0  0
 35 82  2  0  0  0  0
 36 65  1  0  0  0  0
 36 77  1  0  0  0  0
 36 83  2  0  0  0  0
 37 73  1  0  0  0  0
 37 78  1  0  0  0  0
 37 84  2  0  0  0  0
 38 41  1  0  0  0  0
 39 48  1  0  0  0  0
 40 72  1  0  0  0  0
 41 43  1  0  0  0  0
 42 44  1  0  0  0  0
 42 45  1  0  0  0  0
 43 47  1  0  0  0  0
 44 49  1  0  0  0  0
 45 73  1  0  0  0  0
 46 49  1  0  0  0  0
 46 73  1  0  0  0  0
 47 76  1  0  0  0  0
 48 72  1  0  0  0  0
 49 71  1  0  0  0  0
 51 63  1  0  0  0  0
 52 65  1  0  0  0  0
 53 66  1  0  0  0  0
 54 67  1  0  0  0  0
 55 67  1  0  0  0  0
 56 67  1  0  0  0  0
 57 68  1  0  0  0  0
 58 68  1  0  0  0  0
 59 79  1  0  0  0  0
 60 66  1  0  0  0  0
 61 68  1  0  0  0  0
 61 78  1  0  0  0  0
 62 66  1  0  0  0  0
 62 86  1  0  0  0  0
 63 68  1  0  0  0  0
 64 67  1  0  0  0  0
 64 77  1  0  0  0  0
 65 79  1  0  0  0  0
 69 71  1  0  0  0  0
M  CHG  1  79   1
M  ISO  4  37 100  62 101  78 100  86 101
M  END
> <Batch ID>
0079

> <Smiles>
CNC(C)C(=O)NC(C(=O)N1Cc2cc([101O:1][101CH2:1]C(C)Cc3cc(C)nc(C(C)C(C)(C)C[100NH:0][100C:0](=O)N4CCCC(n5nc(-c6ccc(Oc7ccc(F)cc7F)cc6)c(C(N)=O)c5N)C4)c3)ccc2CC1C(=O)NC1CCCc2ccccc21)C(C)(C)C

> <Shape>
0.247

> <Color>
0.079

> <Negative vol penalty>
0.000

$$$$

  -OEChem-04052318413D

 85 93  0     1  0  0  0  0  0999 V2000
  -25.2999  -20.9041   10.1346 C   0  0  0  0  0  0  0  0  0  0  0  0
  -25.0265  -20.8533   11.4977 C   0  0  0  0  0  0  0  0  0  0  0  0
  -22.9864   -9.8104   20.0487 C   0  0  0  0  0  0  0  0  0  0  0  0
  -23.6580  -10.0057   22.3612 C   0  0  0  0  0  0  0  0  0  0  0  0
  -26.5499  -21.3339    9.6911 C   0  0  0  0  0  0  0  0  0  0  0  0
  -26.0033  -21.2312   12.4182 C   0  0  0  0  0  0  0  0  0  0  0  0
  -24.1691  -24.1976   16.0898 C   0  0  0  0  0  0  0  0  0  0  0  0
  -28.4698  -18.0925   19.2125 C   0  0  0  0  0  0  0  0  0  0  0  0
  -22.2113   -8.6956   20.3679 C   0  0  0  0  0  0  0  0  0  0  0  0
  -22.8828   -8.8909   22.6805 C   0  0  0  0  0  0  0  0  0  0  0  0
  -23.4552  -23.5761   17.1135 C   0  0  0  0  0  0  0  0  0  0  0  0
  -23.1304   -5.5287   22.4254 C   0  0  0  0  0  0  0  0  0  0  0  0
  -23.6980   -4.5604   23.2535 C   0  0  0  0  0  0  0  0  0  0  0  0
  -27.1313  -18.4419   19.0724 C   0  0  0  0  0  0  0  0  0  0  0  0
  -25.4099  -23.6677   18.5241 C   0  0  0  0  0  0  0  0  0  0  0  0
  -21.9363   -4.9097   24.8694 C   0  0  0  0  0  0  0  0  0  0  0  0
  -28.3758  -18.8429   21.4674 C   0  0  0  0  0  0  0  0  0  0  0  0
  -23.7098  -10.4655   21.0453 C   0  0  0  0  0  0  0  0  0  0  0  0
  -24.1048  -12.9647   20.7204 C   0  0  0  0  0  0  0  0  0  0  0  0
  -27.5394  -21.7265   10.6063 C   0  0  0  0  0  0  0  0  0  0  0  0
  -25.5142  -24.5495   16.2722 C   0  0  0  0  0  0  0  0  0  0  0  0
  -27.2682  -21.6653   11.9866 C   0  0  0  0  0  0  0  0  0  0  0  0
  -26.1379  -24.2959   17.5021 C   0  0  0  0  0  0  0  0  0  0  0  0
  -29.1114  -18.2936   20.4296 C   0  0  0  0  0  0  0  0  0  0  0  0
  -22.1595   -8.2358   21.6838 C   0  0  0  0  0  0  0  0  0  0  0  0
  -24.0764  -23.3085   18.3299 C   0  0  0  0  0  0  0  0  0  0  0  0
  -21.9658   -6.1876   22.8193 C   0  0  0  0  0  0  0  0  0  0  0  0
  -23.1010   -4.2508   24.4755 C   0  0  0  0  0  0  0  0  0  0  0  0
  -21.3687   -5.8780   24.0413 C   0  0  0  0  0  0  0  0  0  0  0  0
  -24.5111  -11.6169   20.7161 C   0  0  0  0  0  0  0  0  0  0  0  0
  -26.4844  -18.9843   20.1710 C   0  0  0  0  0  0  0  0  0  0  0  0
  -25.2244  -13.6620   20.3373 C   0  0  0  0  0  0  0  0  0  0  0  0
  -22.8294  -13.5354   21.0421 C   0  0  0  0  0  0  0  0  0  0  0  0
  -28.2558  -23.7245   14.8913 C   0  0  0  0  0  0  0  0  0  0  0  0
  -29.4690  -26.0428   16.8087 C   0  0  0  0  0  0  0  0  0  0  0  0
  -29.1596  -27.9096   19.6487 C   0  0  0  0  0  0  0  0  0  0  0  0
  -30.7156  -14.6060   20.6546 C   0  0  0  0  0  0  0  0  0  0  0  0
  -28.8916  -22.1389   10.0810 C   0  0  0  0  0  0  0  0  0  0  0  0
  -26.2626  -25.2435   15.1674 C   0  0  0  0  0  0  0  0  0  0  0  0
  -27.5741  -24.6722   17.7555 C   0  0  0  0  0  0  0  0  0  0  0  0
  -29.7446  -22.8784   11.1086 C   0  0  0  0  0  0  0  0  0  0  0  0
  -29.6242  -12.0404   18.4403 C   0  0  0  0  0  0  0  0  0  0  0  0
  -29.7172  -22.1500   12.4485 C   0  0  0  0  0  0  0  0  0  0  0  0
  -28.1658  -11.8086   18.8395 C   0  0  0  0  0  0  0  0  0  0  0  0
  -30.4988  -12.3507   19.6530 C   0  0  0  0  0  0  0  0  0  0  0  0
  -28.5599  -13.2304   20.8942 C   0  0  0  0  0  0  0  0  0  0  0  0
  -28.2935  -22.0907   13.0152 C   0  0  1  0  0  0  0  0  0  0  0  0
  -27.7762  -25.0931   15.2848 C   0  0  1  0  0  0  0  0  0  0  0  0
  -27.6283  -12.9691   19.6983 C   0  0  2  0  0  0  0  0  0  0  0  0
  -31.4189  -19.1640   20.9211 C   0  0  0  0  0  0  0  0  0  0  0  0
  -30.3274  -29.6961   20.9688 C   0  0  0  0  0  0  0  0  0  0  0  0
  -31.4706  -23.9777   17.8280 C   0  0  0  0  0  0  0  0  0  0  0  0
  -31.9496  -25.4977   19.7590 C   0  0  0  0  0  0  0  0  0  0  0  0
  -32.4300  -26.2528   17.4305 C   0  0  0  0  0  0  0  0  0  0  0  0
  -22.8324  -20.7381   18.0630 C   0  0  0  0  0  0  0  0  0  0  0  0
  -22.5544  -20.8186   20.5540 C   0  0  0  0  0  0  0  0  0  0  0  0
  -26.8848  -29.7792   19.3507 C   0  0  0  0  0  0  0  0  0  0  0  0
  -25.0314  -19.3747   20.0553 C   0  0  0  0  0  0  0  0  0  0  0  0
  -24.8754  -20.8302   19.5924 C   0  0  0  0  0  0  0  0  0  0  0  0
  -30.7757  -16.8551   21.7020 C   0  0  0  0  0  0  0  0  0  0  0  0
  -30.5424  -17.9307   20.6111 C   0  0  1  0  0  0  0  0  0  0  0  0
  -30.0304  -26.0864   18.2093 C   0  0  1  0  0  0  0  0  0  0  0  0
  -29.2937  -29.4019   19.8928 C   0  0  2  0  0  0  0  0  0  0  0  0
  -31.4436  -25.4447   18.3016 C   0  0  0  0  0  0  0  0  0  0  0  0
  -23.4154  -21.2753   19.3717 C   0  0  0  0  0  0  0  0  0  1  0  0
  -27.0742  -19.1947   21.3692 N   0  0  0  0  0  0  0  0  0  0  0  0
  -25.7889  -11.4646   20.3583 N   0  0  0  0  0  0  0  0  0  0  0  0
  -26.1952  -12.7259   20.1343 N   0  0  0  0  0  0  0  0  0  0  0  0
  -28.2654  -25.3430   16.6421 N   0  0  0  0  0  0  0  0  0  0  0  0
  -29.9348  -13.4614   20.4239 N   0  0  0  0  0  0  0  0  0  0  0  0
  -25.4632  -14.9785   20.1575 N   0  0  0  0  0  0  0  0  0  0  0  0
  -21.7879  -12.6755   21.4164 N   0  0  0  0  0  0  0  0  0  0  0  0
  -27.9281  -23.3638   13.5982 N   0  0  0  0  0  0  0  0  0  0  0  0
  -29.9803  -27.4837   18.6259 N   0  0  0  0  0  0  0  0  0  0  0  0
  -30.1028  -15.6143   21.3884 N   0  0  0  0  0  0  0  0  0  0  0  0
  -27.9881  -29.9753   20.3261 N   0  3  0  0  0  0  0  0  0  0  0  0
  -22.6151  -14.7699   20.9831 O   0  0  0  0  0  0  0  0  0  0  0  0
  -28.8783  -23.0467   15.7004 O   0  0  0  0  0  0  0  0  0  0  0  0
  -30.0722  -26.6147   15.8973 O   0  0  0  0  0  0  0  0  0  0  0  0
  -28.4053  -27.1928   20.3027 O   0  0  0  0  0  0  0  0  0  0  0  0
  -31.8713  -14.7229   20.2331 O   0  0  0  0  0  0  0  0  0  0  0  0
  -21.4031   -7.1481   21.9957 O   0  0  0  0  0  0  0  0  0  0  0  0
  -23.3821  -22.7014   19.3305 O   0  0  0  0  0  0  0  0  0  1  0  0
  -23.6453   -3.3198   25.2699 F   0  0  0  0  0  0  0  0  0  0  0  0
  -20.2491   -6.5068   24.4246 F   0  0  0  0  0  0  0  0  0  0  0  0
  1  2  1  0  0  0  0
  1  5  2  0  0  0  0
  2  6  2  0  0  0  0
  3  9  2  0  0  0  0
  3 18  1  0  0  0  0
  4 10  1  0  0  0  0
  4 18  2  0  0  0  0
  5 20  1  0  0  0  0
  6 22  1  0  0  0  0
  7 11  2  0  0  0  0
  7 21  1  0  0  0  0
  8 14  2  0  0  0  0
  8 24  1  0  0  0  0
  9 25  1  0  0  0  0
 10 25  2  0  0  0  0
 11 26  1  0  0  0  0
 12 13  2  0  0  0  0
 12 27  1  0  0  0  0
 13 28  1  0  0  0  0
 14 31  1  0  0  0  0
 15 23  1  0  0  0  0
 15 26  2  0  0  0  0
 16 28  2  0  0  0  0
 16 29  1  0  0  0  0
 17 24  2  0  0  0  0
 17 66  1  0  0  0  0
 18 30  1  0  0  0  0
 19 30  1  0  0  0  0
 19 32  2  0  0  0  0
 19 33  1  0  0  0  0
 20 22  2  0  0  0  0
 20 38  1  0  0  0  0
 21 23  2  0  0  0  0
 21 39  1  0  0  0  0
 22 47  1  0  0  0  0
 23 40  1  0  0  0  0
 24 61  1  0  0  0  0
 25 82  1  0  0  0  0
 26 83  1  0  0  0  0
 27 29  2  0  0  0  0
 27 82  1  0  0  0  0
 28 84  1  0  0  0  0
 29 85  1  0  0  0  0
 30 67  2  0  0  0  0
 31 58  1  0  0  0  0
 31 66  2  0  0  0  0
 32 68  1  0  0  0  0
 32 71  1  0  0  0  0
 33 72  1  0  0  0  0
 33 77  2  0  0  0  0
 34 48  1  0  0  0  0
 34 73  1  0  0  0  0
 34 78  2  0  0  0  0
 35 62  1  0  0  0  0
 35 69  1  0  0  0  0
 35 79  2  0  0  0  0
 36 63  1  0  0  0  0
 36 74  1  0  0  0  0
 36 80  2  0  0  0  0
 37 70  1  0  0  0  0
 37 75  1  0  0  0  0
 37 81  2  0  0  0  0
 38 41  1  0  0  0  0
 39 48  1  0  0  0  0
 40 69  1  0  0  0  0
 41 43  1  0  0  0  0
 42 44  1  0  0  0  0
 42 45  1  0  0  0  0
 43 47  1  0  0  0  0
 44 49  1  0  0  0  0
 45 70  1  0  0  0  0
 46 49  1  0  0  0  0
 46 70  1  0  0  0  0
 47 73  1  0  0  0  0
 48 69  1  0  0  0  0
 49 68  1  0  0  0  0
 50 61  1  0  0  0  0
 51 63  1  0  0  0  0
 52 64  1  0  0  0  0
 53 64  1  0  0  0  0
 54 64  1  0  0  0  0
 55 65  1  0  0  0  0
 56 65  1  0  0  0  0
 57 76  1  0  0  0  0
 58 59  1  0  0  0  0
 59 65  1  0  0  0  0
 60 61  1  0  0  0  0
 60 75  1  0  0  0  0
 62 64  1  0  0  0  0
 62 74  1  0  0  0  0
 63 76  1  0  0  0  0
 65 83  1  0  0  0  0
 67 68  1  0  0  0  0
M  CHG  1  76   1
M  ISO  4  37 100  65 101  75 100  83 101
M  END
> <Batch ID>
0079

> <Smiles>
CNC(C)C(=O)NC(C(=O)N1Cc2cc([101O:1][101C:1](C)(C)CCc3ccc(C(C)C[100NH:0][100C:0](=O)N4CCCC(n5nc(-c6ccc(Oc7ccc(F)cc7F)cc6)c(C(N)=O)c5N)C4)cn3)ccc2CC1C(=O)NC1CCCc2ccccc21)C(C)(C)C

> <Shape>
0.250

> <Color>
0.207

> <Negative vol penalty>
0.000

$$$$

  -OEChem-04052318413D

 86 94  0     1  0  0  0  0  0999 V2000
  -20.2470  -26.1585   25.6485 C   0  0  0  0  0  0  0  0  0  0  0  0
  -21.2862  -25.9478   24.7479 C   0  0  0  0  0  0  0  0  0  0  0  0
  -24.7808   -8.3647   21.4006 C   0  0  0  0  0  0  0  0  0  0  0  0
  -23.2150  -10.1360   20.9028 C   0  0  0  0  0  0  0  0  0  0  0  0
  -19.2618  -27.1037   25.3657 C   0  0  0  0  0  0  0  0  0  0  0  0
  -21.3402  -26.6814   23.5633 C   0  0  0  0  0  0  0  0  0  0  0  0
  -25.9883  -28.4294   22.5711 C   0  0  0  0  0  0  0  0  0  0  0  0
  -23.9034   -7.8585   22.3595 C   0  0  0  0  0  0  0  0  0  0  0  0
  -22.3376   -9.6298   21.8617 C   0  0  0  0  0  0  0  0  0  0  0  0
  -26.9097  -27.5251   22.0446 C   0  0  0  0  0  0  0  0  0  0  0  0
  -21.0837   -5.9935   22.4183 C   0  0  0  0  0  0  0  0  0  0  0  0
  -20.8654   -4.6159   22.4344 C   0  0  0  0  0  0  0  0  0  0  0  0
  -26.5071  -28.4096   19.8367 C   0  0  0  0  0  0  0  0  0  0  0  0
  -30.4403  -21.5707   19.1143 C   0  0  0  0  0  0  0  0  0  0  0  0
  -28.0918  -21.1502   18.8108 C   0  0  0  0  0  0  0  0  0  0  0  0
  -21.6994   -4.5102   24.6994 C   0  0  0  0  0  0  0  0  0  0  0  0
  -24.4367   -9.5034   20.6722 C   0  0  0  0  0  0  0  0  0  0  0  0
  -25.3963   -9.6907   18.3160 C   0  0  0  0  0  0  0  0  0  0  0  0
  -19.3091  -27.8562   24.1815 C   0  0  0  0  0  0  0  0  0  0  0  0
  -25.3102  -29.3247   21.7314 C   0  0  0  0  0  0  0  0  0  0  0  0
  -20.3540  -27.6366   23.2637 C   0  0  0  0  0  0  0  0  0  0  0  0
  -25.5795  -29.3260   20.3553 C   0  0  0  0  0  0  0  0  0  0  0  0
  -29.1167  -21.8576   19.4291 C   0  0  0  0  0  0  0  0  0  0  0  0
  -22.6818   -8.4910   22.5901 C   0  0  0  0  0  0  0  0  0  0  0  0
  -27.1671  -27.5132   20.6769 C   0  0  0  0  0  0  0  0  0  0  0  0
  -21.6099   -6.6294   23.5428 C   0  0  0  0  0  0  0  0  0  0  0  0
  -21.1732   -3.8743   23.5749 C   0  0  0  0  0  0  0  0  0  0  0  0
  -21.9177   -5.8878   24.6833 C   0  0  0  0  0  0  0  0  0  0  0  0
  -25.3429  -10.0271   19.6819 C   0  0  0  0  0  0  0  0  0  0  0  0
  -30.6840  -20.5750   18.1821 C   0  0  0  0  0  0  0  0  0  0  0  0
  -28.4406  -20.1734   17.8920 C   0  0  0  0  0  0  0  0  0  0  0  0
  -26.4203  -10.4559   17.8137 C   0  0  0  0  0  0  0  0  0  0  0  0
  -24.5920   -8.7690   17.5681 C   0  0  0  0  0  0  0  0  0  0  0  0
  -22.2630  -29.8208   20.9751 C   0  0  0  0  0  0  0  0  0  0  0  0
  -23.4791  -32.3696   19.3791 C   0  0  0  0  0  0  0  0  0  0  0  0
  -26.1649  -33.8191   17.8520 C   0  0  0  0  0  0  0  0  0  0  0  0
  -28.8717  -15.6348   19.5515 C   0  0  0  0  0  0  0  0  0  0  0  0
  -18.1957  -28.8330   23.8972 C   0  0  0  0  0  0  0  0  0  0  0  0
  -24.3391  -30.3120   22.3185 C   0  0  0  0  0  0  0  0  0  0  0  0
  -24.8932  -30.2804   19.4139 C   0  0  0  0  0  0  0  0  0  0  0  0
  -18.5308  -29.8345   22.7950 C   0  0  0  0  0  0  0  0  0  0  0  0
  -30.5374  -12.5190   19.1113 C   0  0  0  0  0  0  0  0  0  0  0  0
  -19.1471  -29.1218   21.5954 C   0  0  0  0  0  0  0  0  0  0  0  0
  -29.3998  -11.4967   19.0844 C   0  0  0  0  0  0  0  0  0  0  0  0
  -30.2544  -13.6525   20.0947 C   0  0  0  0  0  0  0  0  0  0  0  0
  -27.8237  -13.3119   19.8716 C   0  0  0  0  0  0  0  0  0  0  0  0
  -20.4608  -28.4303   21.9797 C   0  0  1  0  0  0  0  0  0  0  0  0
  -23.3265  -30.8306   21.3021 C   0  0  1  0  0  0  0  0  0  0  0  0
  -28.0381  -12.1790   18.8533 C   0  0  2  0  0  0  0  0  0  0  0  0
  -32.0923  -20.2389   17.8208 C   0  0  0  0  0  0  0  0  0  0  0  0
  -27.3736  -19.6956   15.6900 C   0  0  0  0  0  0  0  0  0  0  0  0
  -26.8424  -35.8898   16.6066 C   0  0  0  0  0  0  0  0  0  0  0  0
  -26.3518  -17.0549   16.7363 C   0  0  0  0  0  0  0  0  0  0  0  0
  -22.0309  -31.3470   16.8958 C   0  0  0  0  0  0  0  0  0  0  0  0
  -23.4748  -32.8577   15.5169 C   0  0  0  0  0  0  0  0  0  0  0  0
  -21.9272  -33.8249   17.2176 C   0  0  0  0  0  0  0  0  0  0  0  0
  -28.1911  -34.5227   19.8912 C   0  0  0  0  0  0  0  0  0  0  0  0
  -28.7942  -22.9311   20.4377 C   0  0  0  0  0  0  0  0  0  0  0  0
  -28.6239  -24.3222   19.8235 C   0  0  0  0  0  0  0  0  0  0  0  0
  -27.3574  -17.5211   18.9964 C   0  0  0  0  0  0  0  0  0  0  0  0
  -28.2142  -25.3839   20.8376 C   0  0  0  0  0  0  0  0  0  1  0  0
  -27.3662  -19.3959   17.2080 C   0  0  1  0  0  0  0  0  0  0  0  0
  -24.0052  -32.6056   17.9839 C   0  0  1  0  0  0  0  0  0  0  0  0
  -26.7576  -35.2121   17.9654 C   0  0  2  0  0  0  0  0  0  0  0  0
  -27.4292  -17.8492   17.4902 C   0  0  2  0  0  0  0  0  0  0  0  0
  -22.8712  -32.6394   16.9208 C   0  0  0  0  0  0  0  0  0  0  0  0
  -26.2601  -10.9352   20.0256 N   0  0  0  0  0  0  0  0  0  0  0  0
  -29.7148  -19.8664   17.5606 N   0  0  0  0  0  0  0  0  0  0  0  0
  -26.8996  -11.1758   18.8683 N   0  0  0  0  0  0  0  0  0  0  0  0
  -23.9474  -31.2223   20.0351 N   0  0  0  0  0  0  0  0  0  0  0  0
  -28.9491  -14.2583   19.8202 N   0  0  0  0  0  0  0  0  0  0  0  0
  -26.9485  -10.5763   16.5772 N   0  0  0  0  0  0  0  0  0  0  0  0
  -23.5832   -8.0649   18.2397 N   0  0  0  0  0  0  0  0  0  0  0  0
  -21.5336  -29.3975   22.0697 N   0  0  0  0  0  0  0  0  0  0  0  0
  -24.8002  -33.8272   18.0486 N   0  0  0  0  0  0  0  0  0  0  0  0
  -27.5977  -16.1270   19.2957 N   0  0  0  0  0  0  0  0  0  0  0  0
  -28.1294  -35.1458   18.5440 N   0  3  0  0  0  0  0  0  0  0  0  0
  -24.7737   -8.5633   16.3441 O   0  0  0  0  0  0  0  0  0  0  0  0
  -22.1142  -29.4541   19.8153 O   0  0  0  0  0  0  0  0  0  0  0  0
  -22.6875  -33.1774   19.8716 O   0  0  0  0  0  0  0  0  0  0  0  0
  -26.8441  -32.8240   17.6092 O   0  0  0  0  0  0  0  0  0  0  0  0
  -29.8650  -16.3697   19.5353 O   0  0  0  0  0  0  0  0  0  0  0  0
  -21.8253   -7.9973   23.5255 O   0  0  0  0  0  0  0  0  0  0  0  0
  -28.0654  -26.6311   20.1603 O   0  0  0  0  0  0  0  0  0  1  0  0
  -20.9621   -2.5516   23.5907 F   0  0  0  0  0  0  0  0  0  0  0  0
  -22.4223   -6.4933   25.7670 F   0  0  0  0  0  0  0  0  0  0  0  0
  1  2  1  0  0  0  0
  1  5  2  0  0  0  0
  2  6  2  0  0  0  0
  3  8  2  0  0  0  0
  3 17  1  0  0  0  0
  4  9  1  0  0  0  0
  4 17  2  0  0  0  0
  5 19  1  0  0  0  0
  6 21  1  0  0  0  0
  7 10  2  0  0  0  0
  7 20  1  0  0  0  0
  8 24  1  0  0  0  0
  9 24  2  0  0  0  0
 10 25  1  0  0  0  0
 11 12  2  0  0  0  0
 11 26  1  0  0  0  0
 12 27  1  0  0  0  0
 13 22  1  0  0  0  0
 13 25  2  0  0  0  0
 14 23  1  0  0  0  0
 14 30  2  0  0  0  0
 15 23  2  0  0  0  0
 15 31  1  0  0  0  0
 16 27  2  0  0  0  0
 16 28  1  0  0  0  0
 17 29  1  0  0  0  0
 18 29  1  0  0  0  0
 18 32  2  0  0  0  0
 18 33  1  0  0  0  0
 19 21  2  0  0  0  0
 19 38  1  0  0  0  0
 20 22  2  0  0  0  0
 20 39  1  0  0  0  0
 21 47  1  0  0  0  0
 22 40  1  0  0  0  0
 23 58  1  0  0  0  0
 24 83  1  0  0  0  0
 25 84  1  0  0  0  0
 26 28  2  0  0  0  0
 26 83  1  0  0  0  0
 27 85  1  0  0  0  0
 28 86  1  0  0  0  0
 29 67  2  0  0  0  0
 30 50  1  0  0  0  0
 30 68  1  0  0  0  0
 31 62  1  0  0  0  0
 31 68  2  0  0  0  0
 32 69  1  0  0  0  0
 32 72  1  0  0  0  0
 33 73  1  0  0  0  0
 33 78  2  0  0  0  0
 34 48  1  0  0  0  0
 34 74  1  0  0  0  0
 34 79  2  0  0  0  0
 35 63  1  0  0  0  0
 35 70  1  0  0  0  0
 35 80  2  0  0  0  0
 36 64  1  0  0  0  0
 36 75  1  0  0  0  0
 36 81  2  0  0  0  0
 37 71  1  0  0  0  0
 37 76  1  0  0  0  0
 37 82  2  0  0  0  0
 38 41  1  0  0  0  0
 39 48  1  0  0  0  0
 40 70  1  0  0  0  0
 41 43  1  0  0  0  0
 42 44  1  0  0  0  0
 42 45  1  0  0  0  0
 43 47  1  0  0  0  0
 44 49  1  0  0  0  0
 45 71  1  0  0  0  0
 46 49  1  0  0  0  0
 46 71  1  0  0  0  0
 47 74  1  0  0  0  0
 48 70  1  0  0  0  0
 49 69  1  0  0  0  0
 51 62  1  0  0  0  0
 52 64  1  0  0  0  0
 53 65  1  0  0  0  0
 54 66  1  0  0  0  0
 55 66  1  0  0  0  0
 56 66  1  0  0  0  0
 57 77  1  0  0  0  0
 58 59  1  0  0  0  0
 59 61  1  0  0  0  0
 60 65  1  0  0  0  0
 60 76  1  0  0  0  0
 61 84  1  0  0  0  0
 62 65  1  0  0  0  0
 63 66  1  0  0  0  0
 63 75  1  0  0  0  0
 64 77  1  0  0  0  0
 67 69  1  0  0  0  0
M  CHG  1  77   1
M  ISO  4  37 100  61 101  76 100  84 101
M  END
> <Batch ID>
0079

> <Smiles>
CNC(C)C(=O)NC(C(=O)N1Cc2cc([101O:1][101CH2:1]CCc3cc(C)nc(C(C)C(C)C[100NH:0][100C:0](=O)N4CCCC(n5nc(-c6ccc(Oc7ccc(F)cc7F)cc6)c(C(N)=O)c5N)C4)c3)ccc2CC1C(=O)NC1CCCc2ccccc21)C(C)(C)C

> <Shape>
0.255

> <Color>
0.128

> <Negative vol penalty>
0.000

$$$$

  -OEChem-04052318413D

 87 95  0     1  0  0  0  0  0999 V2000
  -17.9623  -27.5944   22.9660 C   0  0  0  0  0  0  0  0  0  0  0  0
  -18.2866  -27.1665   21.6826 C   0  0  0  0  0  0  0  0  0  0  0  0
  -21.6102  -14.6252   21.8164 C   0  0  0  0  0  0  0  0  0  0  0  0
  -21.7363  -14.8595   19.4151 C   0  0  0  0  0  0  0  0  0  0  0  0
  -18.9529  -28.1170   23.7964 C   0  0  0  0  0  0  0  0  0  0  0  0
  -19.6015  -27.2619   21.2285 C   0  0  0  0  0  0  0  0  0  0  0  0
  -22.4894  -23.3826   17.4712 C   0  0  0  0  0  0  0  0  0  0  0  0
  -20.3058  -15.1189   21.7961 C   0  0  0  0  0  0  0  0  0  0  0  0
  -20.4318  -15.3531   19.3947 C   0  0  0  0  0  0  0  0  0  0  0  0
  -22.7420  -23.4174   16.1005 C   0  0  0  0  0  0  0  0  0  0  0  0
  -18.8639  -18.2766   20.0475 C   0  0  0  0  0  0  0  0  0  0  0  0
  -18.6098  -19.4041   19.2666 C   0  0  0  0  0  0  0  0  0  0  0  0
  -24.9284  -24.3402   16.5330 C   0  0  0  0  0  0  0  0  0  0  0  0
  -17.0093  -18.1438   17.9677 C   0  0  0  0  0  0  0  0  0  0  0  0
  -22.3255  -14.4956   20.6259 C   0  0  0  0  0  0  0  0  0  0  0  0
  -24.0756  -12.6418   20.5361 C   0  0  0  0  0  0  0  0  0  0  0  0
  -20.2825  -28.2099   23.3557 C   0  0  0  0  0  0  0  0  0  0  0  0
  -23.4519  -23.8373   18.3841 C   0  0  0  0  0  0  0  0  0  0  0  0
  -20.6106  -27.7874   22.0533 C   0  0  0  0  0  0  0  0  0  0  0  0
  -24.6866  -24.3078   17.9149 C   0  0  0  0  0  0  0  0  0  0  0  0
  -19.7166  -15.4828   20.5852 C   0  0  0  0  0  0  0  0  0  0  0  0
  -23.9605  -23.8990   15.6311 C   0  0  0  0  0  0  0  0  0  0  0  0
  -18.1908  -17.0826   19.7884 C   0  0  0  0  0  0  0  0  0  0  0  0
  -17.6825  -19.3377   18.2268 C   0  0  0  0  0  0  0  0  0  0  0  0
  -17.2635  -17.0163   18.7485 C   0  0  0  0  0  0  0  0  0  0  0  0
  -23.6732  -13.9863   20.6463 C   0  0  0  0  0  0  0  0  0  0  0  0
  -25.6796  -19.5010   15.2137 C   0  0  0  0  0  0  0  0  0  0  0  0
  -26.8458  -18.9282   14.7751 C   0  0  0  0  0  0  0  0  0  0  0  0
  -25.4463  -12.6863   20.6116 C   0  0  0  0  0  0  0  0  0  0  0  0
  -25.6102  -20.7324   13.3220 C   0  0  0  0  0  0  0  0  0  0  0  0
  -23.2814  -11.4584   20.3793 C   0  0  0  0  0  0  0  0  0  0  0  0
  -23.5681  -26.1612   20.5497 C   0  0  0  0  0  0  0  0  0  0  0  0
  -26.4162  -24.7968   21.2909 C   0  0  0  0  0  0  0  0  0  0  0  0
  -29.0570  -22.8791   20.2932 C   0  0  0  0  0  0  0  0  0  0  0  0
  -29.4613  -16.9533   19.3773 C   0  0  0  0  0  0  0  0  0  0  0  0
  -21.3098  -28.8256   24.2724 C   0  0  0  0  0  0  0  0  0  0  0  0
  -23.1743  -23.7682   19.8608 C   0  0  0  0  0  0  0  0  0  0  0  0
  -25.7610  -24.7885   18.8545 C   0  0  0  0  0  0  0  0  0  0  0  0
  -22.7495  -28.5455   23.8492 C   0  0  0  0  0  0  0  0  0  0  0  0
  -29.0113  -15.2710   22.4827 C   0  0  0  0  0  0  0  0  0  0  0  0
  -22.9235  -28.7903   22.3536 C   0  0  0  0  0  0  0  0  0  0  0  0
  -27.6285  -14.6297   22.3543 C   0  0  0  0  0  0  0  0  0  0  0  0
  -29.0653  -16.6369   21.8020 C   0  0  0  0  0  0  0  0  0  0  0  0
  -27.2463  -16.0031   20.2647 C   0  0  0  0  0  0  0  0  0  0  0  0
  -22.0303  -27.8518   21.5334 C   0  0  1  0  0  0  0  0  0  0  0  0
  -24.0274  -24.7360   20.6750 C   0  0  1  0  0  0  0  0  0  0  0  0
  -27.1585  -14.5993   20.8875 C   0  0  2  0  0  0  0  0  0  0  0  0
  -25.0726  -19.1248   16.5218 C   0  0  0  0  0  0  0  0  0  0  0  0
  -27.5371  -16.5060   14.8902 C   0  0  0  0  0  0  0  0  0  0  0  0
  -31.1996  -21.5868   20.4838 C   0  0  0  0  0  0  0  0  0  0  0  0
  -27.6844  -27.5497   20.9395 C   0  0  0  0  0  0  0  0  0  0  0  0
  -29.9194  -26.4278   20.8194 C   0  0  0  0  0  0  0  0  0  0  0  0
  -28.5446  -26.2465   22.8930 C   0  0  0  0  0  0  0  0  0  0  0  0
  -29.9885  -18.5768   14.8686 C   0  0  0  0  0  0  0  0  0  0  0  0
  -28.9735  -19.6001   16.9039 C   0  0  0  0  0  0  0  0  0  0  0  0
  -27.6314  -20.4064   21.0758 C   0  0  0  0  0  0  0  0  0  0  0  0
  -24.9232  -21.7658   12.4654 C   0  0  0  0  0  0  0  0  0  0  0  0
  -25.5938  -23.1408   12.5022 C   0  0  0  0  0  0  0  0  0  0  0  0
  -29.7138  -17.1984   16.9206 C   0  0  0  0  0  0  0  0  0  0  0  0
  -25.5678  -23.7886   13.8817 C   0  0  0  0  0  0  0  0  0  1  0  0
  -27.5723  -17.9028   15.5725 C   0  0  1  0  0  0  0  0  0  0  0  0
  -27.8408  -24.9751   20.8241 C   0  0  1  0  0  0  0  0  0  0  0  0
  -29.7595  -21.7086   20.9571 C   0  0  2  0  0  0  0  0  0  0  0  0
  -28.4765  -26.2926   21.3510 C   0  0  0  0  0  0  0  0  0  0  0  0
  -29.0410  -18.3052   16.0581 C   0  0  0  0  0  0  0  0  0  0  0  0
  -24.7048  -14.8238   20.7817 N   0  0  0  0  0  0  0  0  0  0  0  0
  -25.0285  -20.4248   14.4908 N   0  0  0  0  0  0  0  0  0  0  0  0
  -27.3829  -19.2773   13.5920 N   0  0  0  0  0  0  0  0  0  0  0  0
  -26.7527  -20.2040   12.8407 N   0  0  0  0  0  0  0  0  0  0  0  0
  -25.7690  -14.0035   20.7571 N   0  0  0  0  0  0  0  0  0  0  0  0
  -25.4396  -24.7070   20.2889 N   0  0  0  0  0  0  0  0  0  0  0  0
  -28.6086  -16.5386   20.4136 N   0  0  0  0  0  0  0  0  0  0  0  0
  -26.3949  -11.7269   20.5671 N   0  0  0  0  0  0  0  0  0  0  0  0
  -21.8875  -11.5922   20.3199 N   0  0  0  0  0  0  0  0  0  0  0  0
  -22.6089  -26.5266   21.4747 N   0  0  0  0  0  0  0  0  0  0  0  0
  -28.5548  -23.7665   21.2214 N   0  0  0  0  0  0  0  0  0  0  0  0
  -28.9532  -16.8205   18.0908 N   0  0  0  0  0  0  0  0  0  0  0  0
  -29.0525  -20.4347   20.6437 N   0  3  0  0  0  0  0  0  0  0  0  0
  -23.7918  -10.3146   20.3110 O   0  0  0  0  0  0  0  0  0  0  0  0
  -24.0496  -26.8768   19.6791 O   0  0  0  0  0  0  0  0  0  0  0  0
  -26.1796  -24.7323   22.4998 O   0  0  0  0  0  0  0  0  0  0  0  0
  -28.9663  -22.9965   19.0731 O   0  0  0  0  0  0  0  0  0  0  0  0
  -30.5936  -17.4033   19.5829 O   0  0  0  0  0  0  0  0  0  0  0  0
  -18.4437  -15.9643   20.5650 O   0  0  0  0  0  0  0  0  0  0  0  0
  -24.2094  -23.9346   14.2937 O   0  0  0  0  0  0  0  0  0  1  0  0
  -17.4374  -20.4210   17.4780 F   0  0  0  0  0  0  0  0  0  0  0  0
  -16.6129  -15.8724   18.4956 F   0  0  0  0  0  0  0  0  0  0  0  0
  1  2  1  0  0  0  0
  1  5  2  0  0  0  0
  2  6  2  0  0  0  0
  3  8  2  0  0  0  0
  3 15  1  0  0  0  0
  4  9  1  0  0  0  0
  4 15  2  0  0  0  0
  5 17  1  0  0  0  0
  6 19  1  0  0  0  0
  7 10  2  0  0  0  0
  7 18  1  0  0  0  0
  8 21  1  0  0  0  0
  9 21  2  0  0  0  0
 10 22  1  0  0  0  0
 11 12  2  0  0  0  0
 11 23  1  0  0  0  0
 12 24  1  0  0  0  0
 13 20  1  0  0  0  0
 13 22  2  0  0  0  0
 14 24  2  0  0  0  0
 14 25  1  0  0  0  0
 15 26  1  0  0  0  0
 16 26  1  0  0  0  0
 16 29  2  0  0  0  0
 16 31  1  0  0  0  0
 17 19  2  0  0  0  0
 17 36  1  0  0  0  0
 18 20  2  0  0  0  0
 18 37  1  0  0  0  0
 19 45  1  0  0  0  0
 20 38  1  0  0  0  0
 21 84  1  0  0  0  0
 22 85  1  0  0  0  0
 23 25  2  0  0  0  0
 23 84  1  0  0  0  0
 24 86  1  0  0  0  0
 25 87  1  0  0  0  0
 26 66  2  0  0  0  0
 27 28  2  0  0  0  0
 27 48  1  0  0  0  0
 27 67  1  0  0  0  0
 28 61  1  0  0  0  0
 28 68  1  0  0  0  0
 29 70  1  0  0  0  0
 29 73  1  0  0  0  0
 30 57  1  0  0  0  0
 30 67  2  0  0  0  0
 30 69  1  0  0  0  0
 31 74  1  0  0  0  0
 31 79  2  0  0  0  0
 32 46  1  0  0  0  0
 32 75  1  0  0  0  0
 32 80  2  0  0  0  0
 33 62  1  0  0  0  0
 33 71  1  0  0  0  0
 33 81  2  0  0  0  0
 34 63  1  0  0  0  0
 34 76  1  0  0  0  0
 34 82  2  0  0  0  0
 35 72  1  0  0  0  0
 35 77  1  0  0  0  0
 35 83  2  0  0  0  0
 36 39  1  0  0  0  0
 37 46  1  0  0  0  0
 38 71  1  0  0  0  0
 39 41  1  0  0  0  0
 40 42  1  0  0  0  0
 40 43  1  0  0  0  0
 41 45  1  0  0  0  0
 42 47  1  0  0  0  0
 43 72  1  0  0  0  0
 44 47  1  0  0  0  0
 44 72  1  0  0  0  0
 45 75  1  0  0  0  0
 46 71  1  0  0  0  0
 47 70  1  0  0  0  0
 49 61  1  0  0  0  0
 50 63  1  0  0  0  0
 51 64  1  0  0  0  0
 52 64  1  0  0  0  0
 53 64  1  0  0  0  0
 54 65  1  0  0  0  0
 55 65  1  0  0  0  0
 56 78  1  0  0  0  0
 57 58  1  0  0  0  0
 58 60  1  0  0  0  0
 59 65  1  0  0  0  0
 59 77  1  0  0  0  0
 60 85  1  0  0  0  0
 61 65  1  0  0  0  0
 62 64  1  0  0  0  0
 62 76  1  0  0  0  0
 63 78  1  0  0  0  0
 66 70  1  0  0  0  0
 68 69  2  0  0  0  0
M  CHG  1  78   1
M  ISO  4  35 100  60 101  77 100  85 101
M  END
> <Batch ID>
0079

> <Smiles>
CNC(C)C(=O)NC(C(=O)N1Cc2cc([101O:1][101CH2:1]CCc3nnc(C(C)C(C)(C)C[100NH:0][100C:0](=O)N4CCCC(n5nc(-c6ccc(Oc7ccc(F)cc7F)cc6)c(C(N)=O)c5N)C4)c(C)n3)ccc2CC1C(=O)NC1CCCc2ccccc21)C(C)(C)C

> <Shape>
0.187

> <Color>
0.078

> <Negative vol penalty>
0.000

$$$$

  -OEChem-04052318413D

 85 93  0     1  0  0  0  0  0999 V2000
  -31.9101  -13.2986   21.7126 C   0  0  0  0  0  0  0  0  0  0  0  0
  -31.4237  -14.6020   21.7228 C   0  0  0  0  0  0  0  0  0  0  0  0
  -24.9805  -30.7938   20.9458 C   0  0  0  0  0  0  0  0  0  0  0  0
  -24.6330  -29.1971   22.7253 C   0  0  0  0  0  0  0  0  0  0  0  0
  -31.2119  -12.3005   21.0344 C   0  0  0  0  0  0  0  0  0  0  0  0
  -30.2392  -14.9081   21.0538 C   0  0  0  0  0  0  0  0  0  0  0  0
  -27.1614  -17.8470   23.7988 C   0  0  0  0  0  0  0  0  0  0  0  0
  -24.4589  -31.8057   21.7518 C   0  0  0  0  0  0  0  0  0  0  0  0
  -24.1114  -30.2089   23.5314 C   0  0  0  0  0  0  0  0  0  0  0  0
  -27.4680  -19.2056   23.8627 C   0  0  0  0  0  0  0  0  0  0  0  0
  -23.5527  -34.8791   23.4688 C   0  0  0  0  0  0  0  0  0  0  0  0
  -24.2350  -36.0951   23.5061 C   0  0  0  0  0  0  0  0  0  0  0  0
  -25.7948  -19.6559   22.1843 C   0  0  0  0  0  0  0  0  0  0  0  0
  -26.1998  -34.9670   24.3453 C   0  0  0  0  0  0  0  0  0  0  0  0
  -30.6938  -21.1086   20.8229 C   0  0  0  0  0  0  0  0  0  0  0  0
  -25.0675  -29.4895   21.4325 C   0  0  0  0  0  0  0  0  0  0  0  0
  -26.9516  -28.0424   20.5032 C   0  0  0  0  0  0  0  0  0  0  0  0
  -30.0131  -12.5926   20.3648 C   0  0  0  0  0  0  0  0  0  0  0  0
  -26.1751  -17.3806   22.9178 C   0  0  0  0  0  0  0  0  0  0  0  0
  -29.5249  -13.9132   20.3648 C   0  0  0  0  0  0  0  0  0  0  0  0
  -25.4758  -18.2912   22.1130 C   0  0  0  0  0  0  0  0  0  0  0  0
  -24.0243  -31.5133   23.0446 C   0  0  0  0  0  0  0  0  0  0  0  0
  -26.7867  -20.1099   23.0533 C   0  0  0  0  0  0  0  0  0  0  0  0
  -24.1939  -33.7070   23.8698 C   0  0  0  0  0  0  0  0  0  0  0  0
  -25.5585  -36.1391   23.9443 C   0  0  0  0  0  0  0  0  0  0  0  0
  -25.5175  -33.7509   24.3080 C   0  0  0  0  0  0  0  0  0  0  0  0
  -25.6058  -28.4438   20.6002 C   0  0  0  0  0  0  0  0  0  0  0  0
  -30.9626  -20.3786   19.6830 C   0  0  0  0  0  0  0  0  0  0  0  0
  -29.7119  -22.0701   20.6983 C   0  0  0  0  0  0  0  0  0  0  0  0
  -26.9399  -27.0207   19.5853 C   0  0  0  0  0  0  0  0  0  0  0  0
  -29.3909  -21.5314   18.5134 C   0  0  0  0  0  0  0  0  0  0  0  0
  -28.1089  -28.5479   21.1821 C   0  0  0  0  0  0  0  0  0  0  0  0
  -26.1433  -15.4009   20.4311 C   0  0  0  0  0  0  0  0  0  0  0  0
  -22.9371  -15.8632   20.6004 C   0  0  0  0  0  0  0  0  0  0  0  0
  -20.3446  -17.8502   21.5892 C   0  0  0  0  0  0  0  0  0  0  0  0
  -24.6863  -22.3440   17.5372 C   0  0  0  0  0  0  0  0  0  0  0  0
  -29.3183  -11.4900   19.6057 C   0  0  0  0  0  0  0  0  0  0  0  0
  -25.8376  -15.9153   22.8802 C   0  0  0  0  0  0  0  0  0  0  0  0
  -24.3942  -17.8439   21.1651 C   0  0  0  0  0  0  0  0  0  0  0  0
  -27.8746  -11.8209   19.2363 C   0  0  0  0  0  0  0  0  0  0  0  0
  -23.2845  -25.4373   16.4680 C   0  0  0  0  0  0  0  0  0  0  0  0
  -27.7821  -13.2265   18.6511 C   0  0  0  0  0  0  0  0  0  0  0  0
  -23.8694  -26.4605   17.4432 C   0  0  0  0  0  0  0  0  0  0  0  0
  -22.9881  -24.1068   17.1564 C   0  0  0  0  0  0  0  0  0  0  0  0
  -24.7118  -24.5437   18.8628 C   0  0  0  0  0  0  0  0  0  0  0  0
  -28.2306  -14.2796   19.6716 C   0  0  1  0  0  0  0  0  0  0  0  0
  -25.1730  -15.4885   21.5750 C   0  0  1  0  0  0  0  0  0  0  0  0
  -25.0794  -25.8835   18.2024 C   0  0  2  0  0  0  0  0  0  0  0  0
  -32.0087  -19.3154   19.7204 C   0  0  0  0  0  0  0  0  0  0  0  0
  -17.8388  -17.9811   21.5554 C   0  0  0  0  0  0  0  0  0  0  0  0
  -27.6358  -24.2971   23.1106 C   0  0  0  0  0  0  0  0  0  0  0  0
  -23.0201  -16.6439   17.6519 C   0  0  0  0  0  0  0  0  0  0  0  0
  -20.7451  -17.6524   17.9267 C   0  0  0  0  0  0  0  0  0  0  0  0
  -21.0768  -15.2078   18.2965 C   0  0  0  0  0  0  0  0  0  0  0  0
  -20.1895  -17.8619   24.5447 C   0  0  0  0  0  0  0  0  0  0  0  0
  -29.3463  -22.9184   21.8921 C   0  0  0  0  0  0  0  0  0  0  0  0
  -28.6644  -21.7643   17.2321 C   0  0  0  0  0  0  0  0  0  0  0  0
  -27.5406  -20.7496   16.9421 C   0  0  0  0  0  0  0  0  0  0  0  0
  -26.4627  -20.6801   18.0217 C   0  0  0  0  0  0  0  0  0  0  0  0
  -26.9020  -22.1975   21.9199 C   0  0  0  0  0  0  0  0  0  1  0  0
  -21.9662  -16.8509   19.9998 C   0  0  1  0  0  0  0  0  0  0  0  0
  -19.0631  -17.5350   22.3394 C   0  0  2  0  0  0  0  0  0  0  0  0
  -27.8764  -23.3839   21.9018 C   0  0  1  0  0  0  0  0  0  0  0  0
  -21.7237  -16.5973   18.4851 C   0  0  0  0  0  0  0  0  0  0  0  0
  -24.7979  -27.7350   19.8071 N   0  0  0  0  0  0  0  0  0  0  0  0
  -30.3279  -20.5642   18.5070 N   0  0  0  0  0  0  0  0  0  0  0  0
  -29.0377  -22.3094   19.5544 N   0  0  0  0  0  0  0  0  0  0  0  0
  -25.6385  -26.8780   19.2029 N   0  0  0  0  0  0  0  0  0  0  0  0
  -24.1050  -16.4004   21.1601 N   0  0  0  0  0  0  0  0  0  0  0  0
  -24.1765  -23.6134   17.8564 N   0  0  0  0  0  0  0  0  0  0  0  0
  -27.9160  -26.2396   19.0759 N   0  0  0  0  0  0  0  0  0  0  0  0
  -27.9428  -29.6001   22.0928 N   0  0  0  0  0  0  0  0  0  0  0  0
  -27.1854  -14.5186   20.6437 N   0  0  0  0  0  0  0  0  0  0  0  0
  -20.7595  -16.7858   20.8172 N   0  0  0  0  0  0  0  0  0  0  0  0
  -25.8185  -21.9556   18.2428 N   0  0  0  0  0  0  0  0  0  0  0  0
  -19.0528  -18.2255   23.6600 N   0  3  0  0  0  0  0  0  0  0  0  0
  -29.2587  -28.0912   20.9747 O   0  0  0  0  0  0  0  0  0  0  0  0
  -25.9594  -16.0821   19.4293 O   0  0  0  0  0  0  0  0  0  0  0  0
  -22.6658  -14.6600   20.5803 O   0  0  0  0  0  0  0  0  0  0  0  0
  -20.9181  -18.9338   21.6763 O   0  0  0  0  0  0  0  0  0  0  0  0
  -24.1737  -21.6133   16.6826 O   0  0  0  0  0  0  0  0  0  0  0  0
  -23.5155  -32.5004   23.8315 O   0  0  0  0  0  0  0  0  0  0  0  0
  -27.0844  -21.4364   23.1132 O   0  0  0  0  0  0  0  0  0  1  0  0
  -26.2141  -37.3066   23.9786 F   0  0  0  0  0  0  0  0  0  0  0  0
  -26.1391  -32.6281   24.6934 F   0  0  0  0  0  0  0  0  0  0  0  0
  1  2  1  0  0  0  0
  1  5  2  0  0  0  0
  2  6  2  0  0  0  0
  3  8  2  0  0  0  0
  3 16  1  0  0  0  0
  4  9  1  0  0  0  0
  4 16  2  0  0  0  0
  5 18  1  0  0  0  0
  6 20  1  0  0  0  0
  7 10  2  0  0  0  0
  7 19  1  0  0  0  0
  8 22  1  0  0  0  0
  9 22  2  0  0  0  0
 10 23  1  0  0  0  0
 11 12  2  0  0  0  0
 11 24  1  0  0  0  0
 12 25  1  0  0  0  0
 13 21  1  0  0  0  0
 13 23  2  0  0  0  0
 14 25  2  0  0  0  0
 14 26  1  0  0  0  0
 15 28  2  0  0  0  0
 15 29  1  0  0  0  0
 16 27  1  0  0  0  0
 17 27  1  0  0  0  0
 17 30  2  0  0  0  0
 17 32  1  0  0  0  0
 18 20  2  0  0  0  0
 18 37  1  0  0  0  0
 19 21  2  0  0  0  0
 19 38  1  0  0  0  0
 20 46  1  0  0  0  0
 21 39  1  0  0  0  0
 22 82  1  0  0  0  0
 23 83  1  0  0  0  0
 24 26  2  0  0  0  0
 24 82  1  0  0  0  0
 25 84  1  0  0  0  0
 26 85  1  0  0  0  0
 27 65  2  0  0  0  0
 28 49  1  0  0  0  0
 28 66  1  0  0  0  0
 29 56  1  0  0  0  0
 29 67  2  0  0  0  0
 30 68  1  0  0  0  0
 30 71  1  0  0  0  0
 31 57  1  0  0  0  0
 31 66  2  0  0  0  0
 31 67  1  0  0  0  0
 32 72  1  0  0  0  0
 32 77  2  0  0  0  0
 33 47  1  0  0  0  0
 33 73  1  0  0  0  0
 33 78  2  0  0  0  0
 34 61  1  0  0  0  0
 34 69  1  0  0  0  0
 34 79  2  0  0  0  0
 35 62  1  0  0  0  0
 35 74  1  0  0  0  0
 35 80  2  0  0  0  0
 36 70  1  0  0  0  0
 36 75  1  0  0  0  0
 36 81  2  0  0  0  0
 37 40  1  0  0  0  0
 38 47  1  0  0  0  0
 39 69  1  0  0  0  0
 40 42  1  0  0  0  0
 41 43  1  0  0  0  0
 41 44  1  0  0  0  0
 42 46  1  0  0  0  0
 43 48  1  0  0  0  0
 44 70  1  0  0  0  0
 45 48  1  0  0  0  0
 45 70  1  0  0  0  0
 46 73  1  0  0  0  0
 47 69  1  0  0  0  0
 48 68  1  0  0  0  0
 50 62  1  0  0  0  0
 51 63  1  0  0  0  0
 52 64  1  0  0  0  0
 53 64  1  0  0  0  0
 54 64  1  0  0  0  0
 55 76  1  0  0  0  0
 56 63  1  0  0  0  0
 57 58  1  0  0  0  0
 58 59  1  0  0  0  0
 59 75  1  0  0  0  0
 60 63  1  0  0  0  0
 60 83  1  0  0  0  0
 61 64  1  0  0  0  0
 61 74  1  0  0  0  0
 62 76  1  0  0  0  0
 65 68  1  0  0  0  0
M  CHG  1  76   1
M  ISO  4  36 100  60 101  75 100  83 101
M  END
> <Batch ID>
0079

> <Smiles>
CNC(C)C(=O)NC(C(=O)N1Cc2cc([101O:1][101CH2:1]C(C)Cc3cc(C)nc(CCC[100NH:0][100C:0](=O)N4CCCC(n5nc(-c6ccc(Oc7ccc(F)cc7F)cc6)c(C(N)=O)c5N)C4)n3)ccc2CC1C(=O)NC1CCCc2ccccc21)C(C)(C)C

> <Shape>
0.226

> <Color>
0.084

> <Negative vol penalty>
0.000

$$$$

  -OEChem-04052318413D

 83 91  0     1  0  0  0  0  0999 V2000
  -32.2516  -14.8477   21.1712 C   0  0  0  0  0  0  0  0  0  0  0  0
  -31.3496  -15.9067   21.1464 C   0  0  0  0  0  0  0  0  0  0  0  0
  -29.0133  -25.3915   20.8375 C   0  0  0  0  0  0  0  0  0  0  0  0
  -27.0065  -24.0807   21.1401 C   0  0  0  0  0  0  0  0  0  0  0  0
  -31.8475  -13.5795   20.7562 C   0  0  0  0  0  0  0  0  0  0  0  0
  -30.0433  -15.6982   20.7054 C   0  0  0  0  0  0  0  0  0  0  0  0
  -24.9748  -18.4356   22.7845 C   0  0  0  0  0  0  0  0  0  0  0  0
  -29.7571  -24.4010   21.4788 C   0  0  0  0  0  0  0  0  0  0  0  0
  -27.7503  -23.0901   21.7814 C   0  0  0  0  0  0  0  0  0  0  0  0
  -24.2294  -19.5141   22.3102 C   0  0  0  0  0  0  0  0  0  0  0  0
  -29.0903  -22.5693   24.8415 C   0  0  0  0  0  0  0  0  0  0  0  0
  -28.5710  -22.0283   26.0176 C   0  0  0  0  0  0  0  0  0  0  0  0
  -22.7295  -17.9830   21.2032 C   0  0  0  0  0  0  0  0  0  0  0  0
  -19.8602  -26.7119   22.4856 C   0  0  0  0  0  0  0  0  0  0  0  0
  -28.5408  -19.8386   24.9971 C   0  0  0  0  0  0  0  0  0  0  0  0
  -19.0505  -25.5671   24.3940 C   0  0  0  0  0  0  0  0  0  0  0  0
  -27.6380  -25.2314   20.6682 C   0  0  0  0  0  0  0  0  0  0  0  0
  -26.5955  -26.3551   18.6290 C   0  0  0  0  0  0  0  0  0  0  0  0
  -30.5328  -13.3533   20.3190 C   0  0  0  0  0  0  0  0  0  0  0  0
  -24.6088  -17.1208   22.4621 C   0  0  0  0  0  0  0  0  0  0  0  0
  -29.6216  -14.4260   20.2828 C   0  0  0  0  0  0  0  0  0  0  0  0
  -23.4705  -16.8895   21.6767 C   0  0  0  0  0  0  0  0  0  0  0  0
  -19.4933  -25.5211   23.0874 C   0  0  0  0  0  0  0  0  0  0  0  0
  -29.1256  -23.2503   21.9508 C   0  0  0  0  0  0  0  0  0  0  0  0
  -23.1083  -19.2881   21.5171 C   0  0  0  0  0  0  0  0  0  0  0  0
  -29.3347  -21.7450   23.7431 C   0  0  0  0  0  0  0  0  0  0  0  0
  -28.2963  -20.6630   26.0954 C   0  0  0  0  0  0  0  0  0  0  0  0
  -29.0600  -20.3796   23.8209 C   0  0  0  0  0  0  0  0  0  0  0  0
  -26.8691  -26.2545   20.0063 C   0  0  0  0  0  0  0  0  0  0  0  0
  -19.7597  -27.8700   23.2301 C   0  0  0  0  0  0  0  0  0  0  0  0
  -25.8341  -27.4923   18.5124 C   0  0  0  0  0  0  0  0  0  0  0  0
  -26.9939  -25.4973   17.5515 C   0  0  0  0  0  0  0  0  0  0  0  0
  -25.9888  -14.7310   20.8847 C   0  0  0  0  0  0  0  0  0  0  0  0
  -23.3971  -13.0727   21.9122 C   0  0  0  0  0  0  0  0  0  0  0  0
  -20.1592  -13.1328   22.9887 C   0  0  0  0  0  0  0  0  0  0  0  0
  -22.2689  -30.4214   22.3281 C   0  0  0  0  0  0  0  0  0  0  0  0
  -30.1557  -11.9754   19.8353 C   0  0  0  0  0  0  0  0  0  0  0  0
  -25.4079  -15.9673   23.0036 C   0  0  0  0  0  0  0  0  0  0  0  0
  -23.0236  -15.4963   21.3189 C   0  0  0  0  0  0  0  0  0  0  0  0
  -28.6482  -11.7561   19.7363 C   0  0  0  0  0  0  0  0  0  0  0  0
  -25.0926  -31.7326   20.6006 C   0  0  0  0  0  0  0  0  0  0  0  0
  -27.9812  -12.9386   19.0409 C   0  0  0  0  0  0  0  0  0  0  0  0
  -25.8434  -30.4864   20.1281 C   0  0  0  0  0  0  0  0  0  0  0  0
  -24.4593  -31.5229   21.9743 C   0  0  0  0  0  0  0  0  0  0  0  0
  -24.3432  -29.0884   21.6093 C   0  0  0  0  0  0  0  0  0  0  0  0
  -28.1890  -14.2341   19.8345 C   0  0  1  0  0  0  0  0  0  0  0  0
  -25.2411  -14.6894   22.1873 C   0  0  1  0  0  0  0  0  0  0  0  0
  -24.9519  -29.2323   20.2039 C   0  0  2  0  0  0  0  0  0  0  0  0
  -19.3018  -29.5370   21.3936 C   0  0  0  0  0  0  0  0  0  0  0  0
  -18.2969  -11.6166   23.7169 C   0  0  0  0  0  0  0  0  0  0  0  0
  -22.9040  -12.2863   19.0056 C   0  0  0  0  0  0  0  0  0  0  0  0
  -20.5833  -11.6081   19.6556 C   0  0  0  0  0  0  0  0  0  0  0  0
  -22.5482  -10.4444   20.6594 C   0  0  0  0  0  0  0  0  0  0  0  0
  -20.0404  -14.3761   25.6718 C   0  0  0  0  0  0  0  0  0  0  0  0
  -19.5746  -24.2141   22.3396 C   0  0  0  0  0  0  0  0  0  0  0  0
  -20.9235  -23.5008   22.4846 C   0  0  0  0  0  0  0  0  0  0  0  0
  -21.0138  -22.2172   21.6581 C   0  0  0  0  0  0  0  0  0  0  0  0
  -22.3508  -21.5165   21.8580 C   0  0  0  0  0  0  0  0  0  1  0  0
  -20.1417  -29.1789   22.6288 C   0  0  2  0  0  0  0  0  0  0  0  0
  -22.0124  -12.8104   21.3712 C   0  0  1  0  0  0  0  0  0  0  0  0
  -19.4771  -12.4631   24.1679 C   0  0  2  0  0  0  0  0  0  0  0  0
  -22.0212  -11.8137   20.1779 C   0  0  0  0  0  0  0  0  0  0  0  0
  -18.9625  -26.7151   25.0988 N   0  0  0  0  0  0  0  0  0  0  0  0
  -26.3259  -27.2487   20.7138 N   0  0  0  0  0  0  0  0  0  0  0  0
  -19.3227  -27.8855   24.5071 N   0  0  0  0  0  0  0  0  0  0  0  0
  -25.7034  -27.9847   19.7775 N   0  0  0  0  0  0  0  0  0  0  0  0
  -23.8414  -14.4018   21.8673 N   0  0  0  0  0  0  0  0  0  0  0  0
  -23.6254  -30.3186   21.9784 N   0  0  0  0  0  0  0  0  0  0  0  0
  -25.2705  -28.1091   17.4520 N   0  0  0  0  0  0  0  0  0  0  0  0
  -27.7747  -24.3716   17.8474 N   0  0  0  0  0  0  0  0  0  0  0  0
  -27.2925  -14.2809   20.9696 N   0  0  0  0  0  0  0  0  0  0  0  0
  -21.2061  -12.3759   22.5067 N   0  0  0  0  0  0  0  0  0  0  0  0
  -21.5487  -29.2334   22.3003 N   0  0  0  0  0  0  0  0  0  0  0  0
  -18.9805  -13.4877   25.1294 N   0  3  0  0  0  0  0  0  0  0  0  0
  -26.6810  -25.7313   16.3595 O   0  0  0  0  0  0  0  0  0  0  0  0
  -25.4242  -15.1398   19.8768 O   0  0  0  0  0  0  0  0  0  0  0  0
  -24.0574  -12.1341   22.3646 O   0  0  0  0  0  0  0  0  0  0  0  0
  -19.7970  -14.2172   22.5376 O   0  0  0  0  0  0  0  0  0  0  0  0
  -21.7375  -31.4935   22.6368 O   0  0  0  0  0  0  0  0  0  0  0  0
  -29.8510  -22.2834   22.5764 O   0  0  0  0  0  0  0  0  0  0  0  0
  -22.3793  -20.3390   21.0523 O   0  0  0  0  0  0  0  0  0  1  0  0
  -27.7991  -20.1433   27.2254 F   0  0  0  0  0  0  0  0  0  0  0  0
  -29.2940  -19.5825   22.7694 F   0  0  0  0  0  0  0  0  0  0  0  0
  1  2  1  0  0  0  0
  1  5  2  0  0  0  0
  2  6  2  0  0  0  0
  3  8  2  0  0  0  0
  3 17  1  0  0  0  0
  4  9  1  0  0  0  0
  4 17  2  0  0  0  0
  5 19  1  0  0  0  0
  6 21  1  0  0  0  0
  7 10  2  0  0  0  0
  7 20  1  0  0  0  0
  8 24  1  0  0  0  0
  9 24  2  0  0  0  0
 10 25  1  0  0  0  0
 11 12  2  0  0  0  0
 11 26  1  0  0  0  0
 12 27  1  0  0  0  0
 13 22  1  0  0  0  0
 13 25  2  0  0  0  0
 14 23  2  0  0  0  0
 14 30  1  0  0  0  0
 15 27  2  0  0  0  0
 15 28  1  0  0  0  0
 16 23  1  0  0  0  0
 16 63  2  0  0  0  0
 17 29  1  0  0  0  0
 18 29  1  0  0  0  0
 18 31  2  0  0  0  0
 18 32  1  0  0  0  0
 19 21  2  0  0  0  0
 19 37  1  0  0  0  0
 20 22  2  0  0  0  0
 20 38  1  0  0  0  0
 21 46  1  0  0  0  0
 22 39  1  0  0  0  0
 23 55  1  0  0  0  0
 24 80  1  0  0  0  0
 25 81  1  0  0  0  0
 26 28  2  0  0  0  0
 26 80  1  0  0  0  0
 27 82  1  0  0  0  0
 28 83  1  0  0  0  0
 29 64  2  0  0  0  0
 30 59  1  0  0  0  0
 30 65  2  0  0  0  0
 31 66  1  0  0  0  0
 31 69  1  0  0  0  0
 32 70  1  0  0  0  0
 32 75  2  0  0  0  0
 33 47  1  0  0  0  0
 33 71  1  0  0  0  0
 33 76  2  0  0  0  0
 34 60  1  0  0  0  0
 34 67  1  0  0  0  0
 34 77  2  0  0  0  0
 35 61  1  0  0  0  0
 35 72  1  0  0  0  0
 35 78  2  0  0  0  0
 36 68  1  0  0  0  0
 36 73  1  0  0  0  0
 36 79  2  0  0  0  0
 37 40  1  0  0  0  0
 38 47  1  0  0  0  0
 39 67  1  0  0  0  0
 40 42  1  0  0  0  0
 41 43  1  0  0  0  0
 41 44  1  0  0  0  0
 42 46  1  0  0  0  0
 43 48  1  0  0  0  0
 44 68  1  0  0  0  0
 45 48  1  0  0  0  0
 45 68  1  0  0  0  0
 46 71  1  0  0  0  0
 47 67  1  0  0  0  0
 48 66  1  0  0  0  0
 49 59  1  0  0  0  0
 50 61  1  0  0  0  0
 51 62  1  0  0  0  0
 52 62  1  0  0  0  0
 53 62  1  0  0  0  0
 54 74  1  0  0  0  0
 55 56  1  0  0  0  0
 56 57  1  0  0  0  0
 57 58  1  0  0  0  0
 58 81  1  0  0  0  0
 59 73  1  0  0  0  0
 60 62  1  0  0  0  0
 60 72  1  0  0  0  0
 61 74  1  0  0  0  0
 63 65  1  0  0  0  0
 64 66  1  0  0  0  0
M  CHG  1  74   1
M  ISO  4  36 100  58 101  73 100  81 101
M  END
> <Batch ID>
0079

> <Smiles>
CNC(C)C(=O)NC(C(=O)N1Cc2cc([101O:1][101CH2:1]CCCc3cnnc(C(C)[100NH:0][100C:0](=O)N4CCCC(n5nc(-c6ccc(Oc7ccc(F)cc7F)cc6)c(C(N)=O)c5N)C4)c3)ccc2CC1C(=O)NC1CCCc2ccccc21)C(C)(C)C

> <Shape>
0.221

> <Color>
0.077

> <Negative vol penalty>
0.000

$$$$

  -OEChem-04052318413D

 86 94  0     1  0  0  0  0  0999 V2000
  -27.2768  -34.2253   25.4279 C   0  0  0  0  0  0  0  0  0  0  0  0
  -27.6447  -32.9577   24.9883 C   0  0  0  0  0  0  0  0  0  0  0  0
  -23.1460   -9.7852   20.0561 C   0  0  0  0  0  0  0  0  0  0  0  0
  -23.7905  -10.0238   22.3722 C   0  0  0  0  0  0  0  0  0  0  0  0
  -25.9347  -34.5160   25.6690 C   0  0  0  0  0  0  0  0  0  0  0  0
  -26.6707  -31.9796   24.7906 C   0  0  0  0  0  0  0  0  0  0  0  0
  -26.6573  -27.6121   20.4976 C   0  0  0  0  0  0  0  0  0  0  0  0
  -22.4115   -8.6440   20.3780 C   0  0  0  0  0  0  0  0  0  0  0  0
  -23.0560   -8.8826   22.6942 C   0  0  0  0  0  0  0  0  0  0  0  0
  -27.0193  -26.2660   20.5278 C   0  0  0  0  0  0  0  0  0  0  0  0
  -19.8167   -8.0718   23.2142 C   0  0  0  0  0  0  0  0  0  0  0  0
  -19.0033   -8.1244   24.3461 C   0  0  0  0  0  0  0  0  0  0  0  0
  -24.7131  -25.6602   20.8930 C   0  0  0  0  0  0  0  0  0  0  0  0
  -20.2412   -6.2929   25.3209 C   0  0  0  0  0  0  0  0  0  0  0  0
  -28.3189  -18.8778   19.2017 C   0  0  0  0  0  0  0  0  0  0  0  0
  -23.8355  -10.4752   21.0532 C   0  0  0  0  0  0  0  0  0  0  0  0
  -24.1374  -12.9851   20.7115 C   0  0  0  0  0  0  0  0  0  0  0  0
  -24.9427  -33.5439   25.4649 C   0  0  0  0  0  0  0  0  0  0  0  0
  -25.3198  -27.9936   20.6760 C   0  0  0  0  0  0  0  0  0  0  0  0
  -25.3142  -32.2571   25.0305 C   0  0  0  0  0  0  0  0  0  0  0  0
  -24.3363  -27.0115   20.8620 C   0  0  0  0  0  0  0  0  0  0  0  0
  -22.3664   -8.1927   21.6971 C   0  0  0  0  0  0  0  0  0  0  0  0
  -26.0476  -25.2900   20.7284 C   0  0  0  0  0  0  0  0  0  0  0  0
  -20.8424   -7.1297   23.1356 C   0  0  0  0  0  0  0  0  0  0  0  0
  -19.2155   -7.2350   25.3994 C   0  0  0  0  0  0  0  0  0  0  0  0
  -21.0546   -6.2403   24.1890 C   0  0  0  0  0  0  0  0  0  0  0  0
  -24.5949  -11.6538   20.7212 C   0  0  0  0  0  0  0  0  0  0  0  0
  -28.9508  -18.4982   20.4010 C   0  0  0  0  0  0  0  0  0  0  0  0
  -26.9990  -19.0396   19.5453 C   0  0  0  0  0  0  0  0  0  0  0  0
  -25.2326  -13.7218   20.3318 C   0  0  0  0  0  0  0  0  0  0  0  0
  -22.8385  -13.5090   21.0186 C   0  0  0  0  0  0  0  0  0  0  0  0
  -23.7529  -29.7435   22.8176 C   0  0  0  0  0  0  0  0  0  0  0  0
  -21.2601  -29.2833   20.7936 C   0  0  0  0  0  0  0  0  0  0  0  0
  -19.8242  -27.3803   18.3515 C   0  0  0  0  0  0  0  0  0  0  0  0
  -30.6809  -14.8778   20.6852 C   0  0  0  0  0  0  0  0  0  0  0  0
  -23.5100  -33.8905   25.7843 C   0  0  0  0  0  0  0  0  0  0  0  0
  -24.9417  -29.4481   20.6141 C   0  0  0  0  0  0  0  0  0  0  0  0
  -22.8835  -27.3675   21.0384 C   0  0  0  0  0  0  0  0  0  0  0  0
  -22.4998  -32.9116   25.1913 C   0  0  0  0  0  0  0  0  0  0  0  0
  -29.7067  -12.2554   18.4828 C   0  0  0  0  0  0  0  0  0  0  0  0
  -22.9361  -31.4728   25.4490 C   0  0  0  0  0  0  0  0  0  0  0  0
  -28.2550  -11.9710   18.8722 C   0  0  0  0  0  0  0  0  0  0  0  0
  -30.5588  -12.6083   19.6999 C   0  0  0  0  0  0  0  0  0  0  0  0
  -28.5775  -13.4226   20.9186 C   0  0  0  0  0  0  0  0  0  0  0  0
  -24.2841  -31.1770   24.7807 C   0  0  1  0  0  0  0  0  0  0  0  0
  -23.6245  -29.7537   21.3206 C   0  0  1  0  0  0  0  0  0  0  0  0
  -27.6664  -13.1167   19.7175 C   0  0  2  0  0  0  0  0  0  0  0  0
  -31.2172  -19.4578   20.9177 C   0  0  0  0  0  0  0  0  0  0  0  0
  -17.7676  -27.2354   16.9208 C   0  0  0  0  0  0  0  0  0  0  0  0
  -26.2487  -19.6838   17.2449 C   0  0  0  0  0  0  0  0  0  0  0  0
  -24.6767  -18.3602   18.6303 C   0  0  0  0  0  0  0  0  0  0  0  0
  -19.6738  -28.2432   23.1835 C   0  0  0  0  0  0  0  0  0  0  0  0
  -18.0317  -27.2528   21.5740 C   0  0  0  0  0  0  0  0  0  0  0  0
  -18.3800  -29.7221   21.6365 C   0  0  0  0  0  0  0  0  0  0  0  0
  -25.7402  -18.7892   21.7056 C   0  0  0  0  0  0  0  0  0  0  0  0
  -21.3996  -27.6315   15.8587 C   0  0  0  0  0  0  0  0  0  0  0  0
  -26.1400  -21.8178   19.7375 C   0  0  0  0  0  0  0  0  0  0  0  0
  -25.1411  -20.7727   19.2261 C   0  0  0  0  0  0  0  0  0  0  0  0
  -30.6463  -17.1355   21.7151 C   0  0  0  0  0  0  0  0  0  0  0  0
  -25.4235  -23.0327   20.3148 C   0  0  0  0  0  0  0  0  0  1  0  0
  -30.3767  -18.1930   20.6064 C   0  0  1  0  0  0  0  0  0  0  0  0
  -20.1769  -28.2415   20.6512 C   0  0  1  0  0  0  0  0  0  0  0  0
  -19.1931  -27.7553   17.0227 C   0  0  2  0  0  0  0  0  0  0  0  0
  -25.7771  -19.4465   18.7018 C   0  0  0  0  0  0  0  0  0  0  0  0
  -19.0932  -28.3580   21.7599 C   0  0  0  0  0  0  0  0  0  0  0  0
  -25.8806  -11.5479   20.3748 N   0  0  0  0  0  0  0  0  0  0  0  0
  -28.1022  -18.4236   21.4297 N   0  0  0  0  0  0  0  0  0  0  0  0
  -26.9235  -18.7585   20.8777 N   0  0  0  0  0  0  0  0  0  0  0  0
  -26.2402  -12.8220   20.1440 N   0  0  0  0  0  0  0  0  0  0  0  0
  -22.5648  -28.8035   20.9764 N   0  0  0  0  0  0  0  0  0  0  0  0
  -29.9463  -13.7024   20.4574 N   0  0  0  0  0  0  0  0  0  0  0  0
  -25.4223  -15.0451   20.1434 N   0  0  0  0  0  0  0  0  0  0  0  0
  -21.8276  -12.6127   21.3914 N   0  0  0  0  0  0  0  0  0  0  0  0
  -24.1080  -30.9637   23.3602 N   0  0  0  0  0  0  0  0  0  0  0  0
  -19.6594  -28.3736   19.2936 N   0  0  0  0  0  0  0  0  0  0  0  0
  -30.0239  -15.8675   21.4061 N   0  0  0  0  0  0  0  0  0  0  0  0
  -19.9831  -27.1852   15.8949 N   0  3  0  0  0  0  0  0  0  0  0  0
  -22.5776  -14.7339   20.9480 O   0  0  0  0  0  0  0  0  0  0  0  0
  -23.5437  -28.7058   23.4349 O   0  0  0  0  0  0  0  0  0  0  0  0
  -20.9607  -30.4786   20.7373 O   0  0  0  0  0  0  0  0  0  0  0  0
  -20.4021  -26.3115   18.5364 O   0  0  0  0  0  0  0  0  0  0  0  0
  -31.8347  -15.0357   20.2719 O   0  0  0  0  0  0  0  0  0  0  0  0
  -21.6496   -7.0792   22.0116 O   0  0  0  0  0  0  0  0  0  0  0  0
  -26.3983  -23.9755   20.7589 O   0  0  0  0  0  0  0  0  0  1  0  0
  -18.4353   -7.2867   26.4870 F   0  0  0  0  0  0  0  0  0  0  0  0
  -22.0391   -5.3338   24.1198 F   0  0  0  0  0  0  0  0  0  0  0  0
  1  2  1  0  0  0  0
  1  5  2  0  0  0  0
  2  6  2  0  0  0  0
  3  8  2  0  0  0  0
  3 16  1  0  0  0  0
  4  9  1  0  0  0  0
  4 16  2  0  0  0  0
  5 18  1  0  0  0  0
  6 20  1  0  0  0  0
  7 10  2  0  0  0  0
  7 19  1  0  0  0  0
  8 22  1  0  0  0  0
  9 22  2  0  0  0  0
 10 23  1  0  0  0  0
 11 12  2  0  0  0  0
 11 24  1  0  0  0  0
 12 25  1  0  0  0  0
 13 21  1  0  0  0  0
 13 23  2  0  0  0  0
 14 25  2  0  0  0  0
 14 26  1  0  0  0  0
 15 28  1  0  0  0  0
 15 29  2  0  0  0  0
 16 27  1  0  0  0  0
 17 27  1  0  0  0  0
 17 30  2  0  0  0  0
 17 31  1  0  0  0  0
 18 20  2  0  0  0  0
 18 36  1  0  0  0  0
 19 21  2  0  0  0  0
 19 37  1  0  0  0  0
 20 45  1  0  0  0  0
 21 38  1  0  0  0  0
 22 83  1  0  0  0  0
 23 84  1  0  0  0  0
 24 26  2  0  0  0  0
 24 83  1  0  0  0  0
 25 85  1  0  0  0  0
 26 86  1  0  0  0  0
 27 66  2  0  0  0  0
 28 61  1  0  0  0  0
 28 67  2  0  0  0  0
 29 64  1  0  0  0  0
 29 68  1  0  0  0  0
 30 69  1  0  0  0  0
 30 72  1  0  0  0  0
 31 73  1  0  0  0  0
 31 78  2  0  0  0  0
 32 46  1  0  0  0  0
 32 74  1  0  0  0  0
 32 79  2  0  0  0  0
 33 62  1  0  0  0  0
 33 70  1  0  0  0  0
 33 80  2  0  0  0  0
 34 63  1  0  0  0  0
 34 75  1  0  0  0  0
 34 81  2  0  0  0  0
 35 71  1  0  0  0  0
 35 76  1  0  0  0  0
 35 82  2  0  0  0  0
 36 39  1  0  0  0  0
 37 46  1  0  0  0  0
 38 70  1  0  0  0  0
 39 41  1  0  0  0  0
 40 42  1  0  0  0  0
 40 43  1  0  0  0  0
 41 45  1  0  0  0  0
 42 47  1  0  0  0  0
 43 71  1  0  0  0  0
 44 47  1  0  0  0  0
 44 71  1  0  0  0  0
 45 74  1  0  0  0  0
 46 70  1  0  0  0  0
 47 69  1  0  0  0  0
 48 61  1  0  0  0  0
 49 63  1  0  0  0  0
 50 64  1  0  0  0  0
 51 64  1  0  0  0  0
 52 65  1  0  0  0  0
 53 65  1  0  0  0  0
 54 65  1  0  0  0  0
 55 68  1  0  0  0  0
 56 77  1  0  0  0  0
 57 58  1  0  0  0  0
 57 60  1  0  0  0  0
 58 64  1  0  0  0  0
 59 61  1  0  0  0  0
 59 76  1  0  0  0  0
 60 84  1  0  0  0  0
 62 65  1  0  0  0  0
 62 75  1  0  0  0  0
 63 77  1  0  0  0  0
 66 69  1  0  0  0  0
 67 68  1  0  0  0  0
M  CHG  1  77   1
M  ISO  4  35 100  60 101  76 100  84 101
M  END
> <Batch ID>
0079

> <Smiles>
CNC(C)C(=O)NC(C(=O)N1Cc2cc([101O:1][101CH2:1]CCC(C)(C)c3cc(C(C)C[100NH:0][100C:0](=O)N4CCCC(n5nc(-c6ccc(Oc7ccc(F)cc7F)cc6)c(C(N)=O)c5N)C4)nn3C)ccc2CC1C(=O)NC1CCCc2ccccc21)C(C)(C)C

> <Shape>
0.335

> <Color>
0.205

> <Negative vol penalty>
0.000

$$$$

  -OEChem-04052318413D

 89 96  0     1  0  0  0  0  0999 V2000
  -29.9357  -22.0729   16.7685 C   0  0  0  0  0  0  0  0  0  0  0  0
  -28.8583  -21.5254   17.4576 C   0  0  0  0  0  0  0  0  0  0  0  0
  -23.6188  -10.1797   22.4668 C   0  0  0  0  0  0  0  0  0  0  0  0
  -24.2371  -11.8292   24.1203 C   0  0  0  0  0  0  0  0  0  0  0  0
  -30.6261  -23.1586   17.3055 C   0  0  0  0  0  0  0  0  0  0  0  0
  -28.4714  -22.0628   18.6848 C   0  0  0  0  0  0  0  0  0  0  0  0
  -23.4533  -22.6300   19.0617 C   0  0  0  0  0  0  0  0  0  0  0  0
  -23.0328   -9.3999   23.4639 C   0  0  0  0  0  0  0  0  0  0  0  0
  -23.6510  -11.0494   25.1173 C   0  0  0  0  0  0  0  0  0  0  0  0
  -22.7020  -21.4874   19.3333 C   0  0  0  0  0  0  0  0  0  0  0  0
  -20.5394  -10.4082   26.2693 C   0  0  0  0  0  0  0  0  0  0  0  0
  -19.7298  -11.0545   27.2034 C   0  0  0  0  0  0  0  0  0  0  0  0
  -22.5771  -22.1289   21.6554 C   0  0  0  0  0  0  0  0  0  0  0  0
  -21.1890  -10.3135   28.9807 C   0  0  0  0  0  0  0  0  0  0  0  0
  -24.2210  -11.3944   22.7950 C   0  0  0  0  0  0  0  0  0  0  0  0
  -24.2077  -13.2035   20.9965 C   0  0  0  0  0  0  0  0  0  0  0  0
  -30.2414  -23.7157   18.5353 C   0  0  0  0  0  0  0  0  0  0  0  0
  -23.7820  -23.5265   20.0887 C   0  0  0  0  0  0  0  0  0  0  0  0
  -29.1582  -23.1561   19.2394 C   0  0  0  0  0  0  0  0  0  0  0  0
  -23.3305  -23.2834   21.3937 C   0  0  0  0  0  0  0  0  0  0  0  0
  -23.0489   -9.8348   24.7891 C   0  0  0  0  0  0  0  0  0  0  0  0
  -22.2662  -21.2352   20.6308 C   0  0  0  0  0  0  0  0  0  0  0  0
  -21.6738   -9.7146   26.6909 C   0  0  0  0  0  0  0  0  0  0  0  0
  -20.0546  -11.0071   28.5591 C   0  0  0  0  0  0  0  0  0  0  0  0
  -21.9986   -9.6673   28.0466 C   0  0  0  0  0  0  0  0  0  0  0  0
  -24.8270  -12.2001   21.7656 C   0  0  0  0  0  0  0  0  0  0  0  0
  -25.2016  -13.6632   20.1675 C   0  0  0  0  0  0  0  0  0  0  0  0
  -22.8550  -13.6776   21.0287 C   0  0  0  0  0  0  0  0  0  0  0  0
  -26.4957  -24.5522   21.3877 C   0  0  0  0  0  0  0  0  0  0  0  0
  -24.5126  -26.5427   23.0088 C   0  0  0  0  0  0  0  0  0  0  0  0
  -21.3783  -27.1661   24.2065 C   0  0  0  0  0  0  0  0  0  0  0  0
  -30.8963  -14.7047   20.1677 C   0  0  0  0  0  0  0  0  0  0  0  0
  -31.0478  -24.8591   19.0983 C   0  0  0  0  0  0  0  0  0  0  0  0
  -24.5705  -24.7682   19.7744 C   0  0  0  0  0  0  0  0  0  0  0  0
  -23.6393  -24.2250   22.5280 C   0  0  0  0  0  0  0  0  0  0  0  0
  -30.3398  -25.6071   20.2250 C   0  0  0  0  0  0  0  0  0  0  0  0
  -29.5088  -11.8505   18.5537 C   0  0  0  0  0  0  0  0  0  0  0  0
  -29.7439  -24.6233   21.2269 C   0  0  0  0  0  0  0  0  0  0  0  0
  -28.1025  -11.7429   19.1460 C   0  0  0  0  0  0  0  0  0  0  0  0
  -30.5236  -12.3244   19.5918 C   0  0  0  0  0  0  0  0  0  0  0  0
  -28.7580  -13.4698   20.8743 C   0  0  0  0  0  0  0  0  0  0  0  0
  -28.6927  -23.7269   20.5615 C   0  0  1  0  0  0  0  0  0  0  0  0
  -25.2837  -25.3474   20.9922 C   0  0  1  0  0  0  0  0  0  0  0  0
  -27.6895  -13.0491   19.8507 C   0  0  2  0  0  0  0  0  0  0  0  0
  -20.0734  -28.8562   25.5249 C   0  0  0  0  0  0  0  0  0  0  0  0
  -24.5426  -16.1221   23.7907 C   0  0  0  0  0  0  0  0  0  0  0  0
  -26.6060  -19.9384   22.7260 C   0  0  0  0  0  0  0  0  0  0  0  0
  -28.3239  -17.7529   20.0533 C   0  0  0  0  0  0  0  0  0  0  0  0
  -25.7973  -25.5238   25.5820 C   0  0  0  0  0  0  0  0  0  0  0  0
  -23.8653  -26.4909   26.8471 C   0  0  0  0  0  0  0  0  0  0  0  0
  -25.3687  -27.9872   25.5343 C   0  0  0  0  0  0  0  0  0  0  0  0
  -31.6963  -17.4435   23.2166 C   0  0  0  0  0  0  0  0  0  0  0  0
  -31.3468  -19.4177   21.7746 C   0  0  0  0  0  0  0  0  0  0  0  0
  -19.5490  -27.6929   21.9405 C   0  0  0  0  0  0  0  0  0  0  0  0
  -22.3842  -17.6034   22.1291 C   0  0  0  0  0  0  0  0  0  0  0  0
  -21.5021  -17.7005   20.8803 C   0  0  0  0  0  0  0  0  0  0  0  0
  -23.8855  -17.5823   21.8115 C   0  0  0  0  0  0  0  0  0  0  0  0
  -26.3215  -17.4133   22.5889 C   0  0  0  0  0  0  0  0  0  0  0  0
  -31.1185  -17.0925   20.8068 C   0  0  0  0  0  0  0  0  0  0  0  0
  -21.7704  -18.9739   20.0863 C   0  0  0  0  0  0  0  0  0  1  0  0
  -23.7569  -26.4694   24.3136 C   0  0  1  0  0  0  0  0  0  0  0  0
  -20.5013  -28.4032   24.1376 C   0  0  2  0  0  0  0  0  0  0  0  0
  -24.8320  -17.4169   23.0192 C   0  0  2  0  0  0  0  0  0  0  0  0
  -26.8258  -18.6848   21.8676 C   0  0  2  0  0  0  0  0  0  0  0  0
  -28.3083  -18.5733   21.3498 C   0  0  1  0  0  0  0  0  0  0  0  0
  -24.6927  -26.5989   25.5485 C   0  0  0  0  0  0  0  0  0  0  0  0
  -30.8421  -17.9761   22.0467 C   0  0  0  0  0  0  0  0  0  0  0  0
  -29.3238  -18.0589   22.4052 C   0  0  0  0  0  0  0  0  0  0  0  0
  -26.1146  -12.0317   21.4529 N   0  0  0  0  0  0  0  0  0  0  0  0
  -26.3124  -12.9353   20.4781 N   0  0  0  0  0  0  0  0  0  0  0  0
  -24.4186  -25.4221   22.1713 N   0  0  0  0  0  0  0  0  0  0  0  0
  -30.0731  -13.5679   20.2218 N   0  0  0  0  0  0  0  0  0  0  0  0
  -25.2249  -14.6149   19.2103 N   0  0  0  0  0  0  0  0  0  0  0  0
  -21.9645  -13.0956   21.9412 N   0  0  0  0  0  0  0  0  0  0  0  0
  -27.4486  -24.4467   20.3926 N   0  0  0  0  0  0  0  0  0  0  0  0
  -22.7179  -27.4910   24.2415 N   0  0  0  0  0  0  0  0  0  0  0  0
  -30.3912  -15.8430   20.7841 N   0  0  0  0  0  0  0  0  0  0  0  0
  -19.2765  -28.1258   23.3352 N   0  3  0  0  0  0  0  0  0  0  0  0
  -22.4437  -14.5790   20.2593 O   0  0  0  0  0  0  0  0  0  0  0  0
  -26.5621  -24.0714   22.5129 O   0  0  0  0  0  0  0  0  0  0  0  0
  -25.1566  -27.5597   22.7392 O   0  0  0  0  0  0  0  0  0  0  0  0
  -20.9208  -26.0257   24.2309 O   0  0  0  0  0  0  0  0  0  0  0  0
  -31.9973  -14.7068   19.6066 O   0  0  0  0  0  0  0  0  0  0  0  0
  -22.4770   -9.0742   25.7622 O   0  0  0  0  0  0  0  0  0  0  0  0
  -21.5278  -20.1119   20.9008 O   0  0  0  0  0  0  0  0  0  1  0  0
  -19.2779  -11.6291   29.4558 F   0  0  0  0  0  0  0  0  0  0  0  0
  -23.0878   -9.0035   28.4575 F   0  0  0  0  0  0  0  0  0  0  0  0
  -29.2227  -18.8798   23.4952 F   0  0  0  0  0  0  0  0  0  0  0  0
  -28.9293  -16.8291   22.8425 F   0  0  0  0  0  0  0  0  0  0  0  0
  1  2  1  0  0  0  0
  1  5  2  0  0  0  0
  2  6  2  0  0  0  0
  3  8  2  0  0  0  0
  3 15  1  0  0  0  0
  4  9  1  0  0  0  0
  4 15  2  0  0  0  0
  5 17  1  0  0  0  0
  6 19  1  0  0  0  0
  7 10  2  0  0  0  0
  7 18  1  0  0  0  0
  8 21  1  0  0  0  0
  9 21  2  0  0  0  0
 10 22  1  0  0  0  0
 11 12  2  0  0  0  0
 11 23  1  0  0  0  0
 12 24  1  0  0  0  0
 13 20  1  0  0  0  0
 13 22  2  0  0  0  0
 14 24  2  0  0  0  0
 14 25  1  0  0  0  0
 15 26  1  0  0  0  0
 16 26  1  0  0  0  0
 16 27  2  0  0  0  0
 16 28  1  0  0  0  0
 17 19  2  0  0  0  0
 17 33  1  0  0  0  0
 18 20  2  0  0  0  0
 18 34  1  0  0  0  0
 19 42  1  0  0  0  0
 20 35  1  0  0  0  0
 21 84  1  0  0  0  0
 22 85  1  0  0  0  0
 23 25  2  0  0  0  0
 23 84  1  0  0  0  0
 24 86  1  0  0  0  0
 25 87  1  0  0  0  0
 26 69  2  0  0  0  0
 27 70  1  0  0  0  0
 27 73  1  0  0  0  0
 28 74  1  0  0  0  0
 28 79  2  0  0  0  0
 29 43  1  0  0  0  0
 29 75  1  0  0  0  0
 29 80  2  0  0  0  0
 30 61  1  0  0  0  0
 30 71  1  0  0  0  0
 30 81  2  0  0  0  0
 31 62  1  0  0  0  0
 31 76  1  0  0  0  0
 31 82  2  0  0  0  0
 32 72  1  0  0  0  0
 32 77  1  0  0  0  0
 32 83  2  0  0  0  0
 33 36  1  0  0  0  0
 34 43  1  0  0  0  0
 35 71  1  0  0  0  0
 36 38  1  0  0  0  0
 37 39  1  0  0  0  0
 37 40  1  0  0  0  0
 38 42  1  0  0  0  0
 39 44  1  0  0  0  0
 40 72  1  0  0  0  0
 41 44  1  0  0  0  0
 41 72  1  0  0  0  0
 42 75  1  0  0  0  0
 43 71  1  0  0  0  0
 44 70  1  0  0  0  0
 45 62  1  0  0  0  0
 46 63  1  0  0  0  0
 47 64  1  0  0  0  0
 48 65  1  0  0  0  0
 49 66  1  0  0  0  0
 50 66  1  0  0  0  0
 51 66  1  0  0  0  0
 52 67  1  0  0  0  0
 53 67  1  0  0  0  0
 54 78  1  0  0  0  0
 55 56  1  0  0  0  0
 55 57  1  0  0  0  0
 56 60  1  0  0  0  0
 57 63  1  0  0  0  0
 58 63  1  0  0  0  0
 58 64  1  0  0  0  0
 59 67  1  0  0  0  0
 59 77  1  0  0  0  0
 60 85  1  0  0  0  0
 61 66  1  0  0  0  0
 61 76  1  0  0  0  0
 62 78  1  0  0  0  0
 64 65  1  0  0  0  0
 65 68  1  0  0  0  0
 67 68  1  0  0  0  0
 68 88  1  0  0  0  0
 68 89  1  0  0  0  0
 69 70  1  0  0  0  0
M  CHG  1  78   1
M  ISO  4  32 100  60 101  77 100  85 101
M  END
> <Batch ID>
0079

> <Smiles>
CNC(C)C(=O)NC(C(=O)N1Cc2cc([101O:1][101CH2:1]CCCC(C)CC(C)C(C)C(F)(F)C(C)(C)C[100NH:0][100C:0](=O)N3CCCC(n4nc(-c5ccc(Oc6ccc(F)cc6F)cc5)c(C(N)=O)c4N)C3)ccc2CC1C(=O)NC1CCCc2ccccc21)C(C)(C)C

> <Shape>
0.198

> <Color>
0.099

> <Negative vol penalty>
0.000

$$$$

  -OEChem-04052318413D

 81 88  0     1  0  0  0  0  0999 V2000
  -16.9705  -30.0352   24.5118 C   0  0  0  0  0  0  0  0  0  0  0  0
  -18.2171  -30.2516   25.0902 C   0  0  0  0  0  0  0  0  0  0  0  0
  -27.5193  -13.1756   23.0169 C   0  0  0  0  0  0  0  0  0  0  0  0
  -25.7655  -13.9312   21.5368 C   0  0  0  0  0  0  0  0  0  0  0  0
  -16.8574  -29.2195   23.3867 C   0  0  0  0  0  0  0  0  0  0  0  0
  -19.3514  -29.6516   24.5443 C   0  0  0  0  0  0  0  0  0  0  0  0
  -26.3547  -30.8016   23.5707 C   0  0  0  0  0  0  0  0  0  0  0  0
  -26.7330  -12.0865   23.3925 C   0  0  0  0  0  0  0  0  0  0  0  0
  -24.9793  -12.8420   21.9124 C   0  0  0  0  0  0  0  0  0  0  0  0
  -27.5877  -30.1900   23.7931 C   0  0  0  0  0  0  0  0  0  0  0  0
  -22.6535  -10.0635   22.2107 C   0  0  0  0  0  0  0  0  0  0  0  0
  -21.9970   -9.3582   21.2022 C   0  0  0  0  0  0  0  0  0  0  0  0
  -27.2827  -28.8645   21.8008 C   0  0  0  0  0  0  0  0  0  0  0  0
  -24.1239   -8.8393   20.1805 C   0  0  0  0  0  0  0  0  0  0  0  0
  -27.0355  -14.0981   22.0890 C   0  0  0  0  0  0  0  0  0  0  0  0
  -28.7684  -15.2812   20.6383 C   0  0  0  0  0  0  0  0  0  0  0  0
  -17.9921  -28.6170   22.8210 C   0  0  0  0  0  0  0  0  0  0  0  0
  -25.5701  -30.4407   22.4659 C   0  0  0  0  0  0  0  0  0  0  0  0
  -19.2532  -28.8261   23.4113 C   0  0  0  0  0  0  0  0  0  0  0  0
  -26.0412  -29.4747   21.5653 C   0  0  0  0  0  0  0  0  0  0  0  0
  -25.4630  -11.9196   22.8403 C   0  0  0  0  0  0  0  0  0  0  0  0
  -28.0506  -29.2193   22.9097 C   0  0  0  0  0  0  0  0  0  0  0  0
  -24.0452  -10.1569   22.2041 C   0  0  0  0  0  0  0  0  0  0  0  0
  -22.7322   -8.7461   20.1871 C   0  0  0  0  0  0  0  0  0  0  0  0
  -24.7805   -9.5447   21.1890 C   0  0  0  0  0  0  0  0  0  0  0  0
  -27.8470  -15.2237   21.7010 C   0  0  0  0  0  0  0  0  0  0  0  0
  -29.2733  -16.5575   20.6903 C   0  0  0  0  0  0  0  0  0  0  0  0
  -29.1352  -14.2713   19.6889 C   0  0  0  0  0  0  0  0  0  0  0  0
  -22.6858  -29.1603   22.0853 C   0  0  0  0  0  0  0  0  0  0  0  0
  -23.2653  -29.7511   18.9488 C   0  0  0  0  0  0  0  0  0  0  0  0
  -25.5571  -30.2532   16.4705 C   0  0  0  0  0  0  0  0  0  0  0  0
  -28.7293  -21.8910   21.1576 C   0  0  0  0  0  0  0  0  0  0  0  0
  -17.8138  -27.7054   21.6328 C   0  0  0  0  0  0  0  0  0  0  0  0
  -24.2544  -31.1289   22.2254 C   0  0  0  0  0  0  0  0  0  0  0  0
  -25.2464  -29.0662   20.3529 C   0  0  0  0  0  0  0  0  0  0  0  0
  -19.1152  -27.4083   20.8923 C   0  0  0  0  0  0  0  0  0  0  0  0
  -28.8434  -20.1397   24.2222 C   0  0  0  0  0  0  0  0  0  0  0  0
  -20.2207  -27.0476   21.8795 C   0  0  0  0  0  0  0  0  0  0  0  0
  -28.6594  -18.6971   23.7533 C   0  0  0  0  0  0  0  0  0  0  0  0
  -27.9550  -21.1138   23.4463 C   0  0  0  0  0  0  0  0  0  0  0  0
  -27.9211  -19.5766   21.5077 C   0  0  0  0  0  0  0  0  0  0  0  0
  -20.5102  -28.2128   22.8335 C   0  0  1  0  0  0  0  0  0  0  0  0
  -23.3056  -30.3153   21.3508 C   0  0  1  0  0  0  0  0  0  0  0  0
  -28.8464  -18.5855   22.2303 C   0  0  2  0  0  0  0  0  0  0  0  0
  -25.7296  -30.6727   14.0023 C   0  0  0  0  0  0  0  0  0  0  0  0
  -22.6348  -26.8151   18.4082 C   0  0  0  0  0  0  0  0  0  0  0  0
  -23.7230  -27.0661   16.1674 C   0  0  0  0  0  0  0  0  0  0  0  0
  -21.6972  -28.4104   16.7258 C   0  0  0  0  0  0  0  0  0  0  0  0
  -31.5391  -23.1118   21.7871 C   0  0  0  0  0  0  0  0  0  0  0  0
  -31.6828  -25.3900   20.8161 C   0  0  0  0  0  0  0  0  0  0  0  0
  -31.7992  -27.2653   23.4024 C   0  0  0  0  0  0  0  0  0  0  0  0
  -30.0227  -26.5698   24.9858 C   0  0  0  0  0  0  0  0  0  0  0  0
  -27.4619  -23.7854   22.2576 C   0  0  0  0  0  0  0  0  0  0  0  0
  -26.9003  -32.8569   16.8893 C   0  0  0  0  0  0  0  0  0  0  0  0
  -30.5986  -25.0026   23.1314 C   0  0  0  0  0  0  0  0  0  0  0  0
  -29.4753  -24.2269   20.9020 C   0  0  0  0  0  0  0  0  0  0  0  0
  -29.4048  -27.2794   22.6667 C   0  0  0  0  0  0  0  0  0  1  0  0
  -23.9046  -28.9839   17.8167 C   0  0  1  0  0  0  0  0  0  0  0  0
  -25.6491  -31.3074   15.3820 C   0  0  2  0  0  0  0  0  0  0  0  0
  -23.0042  -27.8249   17.3033 C   0  0  0  0  0  0  0  0  0  0  0  0
  -30.7975  -24.4713   21.6718 C   0  0  0  0  0  0  0  0  0  0  0  0
  -30.4541  -26.5180   23.4946 C   0  0  0  0  0  0  0  0  0  0  0  0
  -27.7691  -16.3720   22.3787 N   0  0  0  0  0  0  0  0  0  0  0  0
  -28.6482  -17.1631   21.7403 N   0  0  0  0  0  0  0  0  0  0  0  0
  -23.9634  -29.7635   20.1646 N   0  0  0  0  0  0  0  0  0  0  0  0
  -28.1293  -20.9413   21.9976 N   0  0  0  0  0  0  0  0  0  0  0  0
  -30.1866  -17.2095   19.9398 N   0  0  0  0  0  0  0  0  0  0  0  0
  -28.5197  -13.0153   19.7782 N   0  0  0  0  0  0  0  0  0  0  0  0
  -21.3080  -29.2222   22.1709 N   0  0  0  0  0  0  0  0  0  0  0  0
  -24.2480  -29.9701   16.7979 N   0  0  0  0  0  0  0  0  0  0  0  0
  -28.5987  -23.2407   21.5179 N   0  0  0  0  0  0  0  0  0  0  0  0
  -26.8595  -32.1536   15.5814 N   0  3  0  0  0  0  0  0  0  0  0  0
  -29.9955  -14.4714   18.7983 O   0  0  0  0  0  0  0  0  0  0  0  0
  -23.4042  -28.2775   22.5393 O   0  0  0  0  0  0  0  0  0  0  0  0
  -22.1897  -30.3244   18.7592 O   0  0  0  0  0  0  0  0  0  0  0  0
  -26.5475  -29.7304   16.9767 O   0  0  0  0  0  0  0  0  0  0  0  0
  -29.3418  -21.5534   20.1364 O   0  0  0  0  0  0  0  0  0  0  0  0
  -24.6956  -10.8568   23.2064 O   0  0  0  0  0  0  0  0  0  0  0  0
  -29.2625  -28.6158   23.1263 O   0  0  0  0  0  0  0  0  0  1  0  0
  -22.1017   -8.0675   19.2196 F   0  0  0  0  0  0  0  0  0  0  0  0
  -26.1178   -9.6299   21.1779 F   0  0  0  0  0  0  0  0  0  0  0  0
  1  2  1  0  0  0  0
  1  5  2  0  0  0  0
  2  6  2  0  0  0  0
  3  8  2  0  0  0  0
  3 15  1  0  0  0  0
  4  9  1  0  0  0  0
  4 15  2  0  0  0  0
  5 17  1  0  0  0  0
  6 19  1  0  0  0  0
  7 10  2  0  0  0  0
  7 18  1  0  0  0  0
  8 21  1  0  0  0  0
  9 21  2  0  0  0  0
 10 22  1  0  0  0  0
 11 12  2  0  0  0  0
 11 23  1  0  0  0  0
 12 24  1  0  0  0  0
 13 20  1  0  0  0  0
 13 22  2  0  0  0  0
 14 24  2  0  0  0  0
 14 25  1  0  0  0  0
 15 26  1  0  0  0  0
 16 26  1  0  0  0  0
 16 27  2  0  0  0  0
 16 28  1  0  0  0  0
 17 19  2  0  0  0  0
 17 33  1  0  0  0  0
 18 20  2  0  0  0  0
 18 34  1  0  0  0  0
 19 42  1  0  0  0  0
 20 35  1  0  0  0  0
 21 78  1  0  0  0  0
 22 79  1  0  0  0  0
 23 25  2  0  0  0  0
 23 78  1  0  0  0  0
 24 80  1  0  0  0  0
 25 81  1  0  0  0  0
 26 63  2  0  0  0  0
 27 64  1  0  0  0  0
 27 67  1  0  0  0  0
 28 68  1  0  0  0  0
 28 73  2  0  0  0  0
 29 43  1  0  0  0  0
 29 69  1  0  0  0  0
 29 74  2  0  0  0  0
 30 58  1  0  0  0  0
 30 65  1  0  0  0  0
 30 75  2  0  0  0  0
 31 59  1  0  0  0  0
 31 70  1  0  0  0  0
 31 76  2  0  0  0  0
 32 66  1  0  0  0  0
 32 71  1  0  0  0  0
 32 77  2  0  0  0  0
 33 36  1  0  0  0  0
 34 43  1  0  0  0  0
 35 65  1  0  0  0  0
 36 38  1  0  0  0  0
 37 39  1  0  0  0  0
 37 40  1  0  0  0  0
 38 42  1  0  0  0  0
 39 44  1  0  0  0  0
 40 66  1  0  0  0  0
 41 44  1  0  0  0  0
 41 66  1  0  0  0  0
 42 69  1  0  0  0  0
 43 65  1  0  0  0  0
 44 64  1  0  0  0  0
 45 59  1  0  0  0  0
 46 60  1  0  0  0  0
 47 60  1  0  0  0  0
 48 60  1  0  0  0  0
 49 61  1  0  0  0  0
 50 61  1  0  0  0  0
 51 62  1  0  0  0  0
 52 62  1  0  0  0  0
 53 71  1  0  0  0  0
 54 72  1  0  0  0  0
 55 61  1  0  0  0  0
 55 62  1  0  0  0  0
 56 61  1  0  0  0  0
 56 71  1  0  0  0  0
 57 62  1  0  0  0  0
 57 79  1  0  0  0  0
 58 60  1  0  0  0  0
 58 70  1  0  0  0  0
 59 72  1  0  0  0  0
 63 64  1  0  0  0  0
M  CHG  1  72   1
M  ISO  4  32 100  57 101  71 100  79 101
M  END
> <Batch ID>
0079

> <Smiles>
CNC(C)C(=O)NC(C(=O)N1Cc2cc([101O:1][101CH2:1]C(C)(C)CC(C)(C)C[100N:0](C)[100C:0](=O)N3CCCC(n4nc(-c5ccc(Oc6ccc(F)cc6F)cc5)c(C(N)=O)c4N)C3)ccc2CC1C(=O)NC1CCCc2ccccc21)C(C)(C)C

> <Shape>
0.255

> <Color>
0.118

> <Negative vol penalty>
0.000

$$$$

  -OEChem-04052318413D

 86 94  0     1  0  0  0  0  0999 V2000
  -31.2191  -24.3637   18.5596 C   0  0  0  0  0  0  0  0  0  0  0  0
  -30.7426  -23.6311   19.6409 C   0  0  0  0  0  0  0  0  0  0  0  0
  -24.8982  -29.9275   19.9113 C   0  0  0  0  0  0  0  0  0  0  0  0
  -24.5072  -28.7159   21.9646 C   0  0  0  0  0  0  0  0  0  0  0  0
  -31.4356  -23.7329   17.3364 C   0  0  0  0  0  0  0  0  0  0  0  0
  -30.4937  -22.2651   19.5026 C   0  0  0  0  0  0  0  0  0  0  0  0
  -29.3193  -19.7829   23.5846 C   0  0  0  0  0  0  0  0  0  0  0  0
  -24.6289  -31.1280   20.5684 C   0  0  0  0  0  0  0  0  0  0  0  0
  -24.2380  -29.9165   22.6217 C   0  0  0  0  0  0  0  0  0  0  0  0
  -28.0877  -19.9218   24.2231 C   0  0  0  0  0  0  0  0  0  0  0  0
  -23.8002  -32.6941   24.9263 C   0  0  0  0  0  0  0  0  0  0  0  0
  -24.3775  -32.8913   26.1807 C   0  0  0  0  0  0  0  0  0  0  0  0
  -27.3761  -17.8113   23.2965 C   0  0  0  0  0  0  0  0  0  0  0  0
  -23.5016  -20.4605   22.3697 C   0  0  0  0  0  0  0  0  0  0  0  0
  -26.5762  -32.6780   25.2024 C   0  0  0  0  0  0  0  0  0  0  0  0
  -22.4336  -18.8373   23.5073 C   0  0  0  0  0  0  0  0  0  0  0  0
  -24.8373  -28.7214   20.6094 C   0  0  0  0  0  0  0  0  0  0  0  0
  -26.3645  -26.8472   19.7953 C   0  0  0  0  0  0  0  0  0  0  0  0
  -31.1773  -22.3611   17.1804 C   0  0  0  0  0  0  0  0  0  0  0  0
  -29.5850  -18.6605   22.7870 C   0  0  0  0  0  0  0  0  0  0  0  0
  -30.7288  -21.6054   18.2827 C   0  0  0  0  0  0  0  0  0  0  0  0
  -28.6127  -17.6593   22.6510 C   0  0  0  0  0  0  0  0  0  0  0  0
  -23.2833  -19.9109   23.6571 C   0  0  0  0  0  0  0  0  0  0  0  0
  -24.2989  -31.1225   21.9236 C   0  0  0  0  0  0  0  0  0  0  0  0
  -27.1148  -18.9374   24.0768 C   0  0  0  0  0  0  0  0  0  0  0  0
  -24.6109  -32.4887   23.8100 C   0  0  0  0  0  0  0  0  0  0  0  0
  -25.7655  -32.8833   26.3187 C   0  0  0  0  0  0  0  0  0  0  0  0
  -25.9989  -32.4807   23.9480 C   0  0  0  0  0  0  0  0  0  0  0  0
  -25.1147  -27.4809   19.9310 C   0  0  0  0  0  0  0  0  0  0  0  0
  -22.7785  -19.7061   21.4724 C   0  0  0  0  0  0  0  0  0  0  0  0
  -26.0962  -25.7096   19.0740 C   0  0  0  0  0  0  0  0  0  0  0  0
  -27.6528  -27.2508   20.2782 C   0  0  0  0  0  0  0  0  0  0  0  0
  -30.2612  -18.2007   19.7154 C   0  0  0  0  0  0  0  0  0  0  0  0
  -30.6898  -15.1306   20.6711 C   0  0  0  0  0  0  0  0  0  0  0  0
  -29.9910  -12.6778   22.9387 C   0  0  0  0  0  0  0  0  0  0  0  0
  -21.9954  -21.6695   18.4609 C   0  0  0  0  0  0  0  0  0  0  0  0
  -31.4366  -21.7275   15.8364 C   0  0  0  0  0  0  0  0  0  0  0  0
  -30.9282  -18.5127   22.1266 C   0  0  0  0  0  0  0  0  0  0  0  0
  -28.8557  -16.4253   21.8223 C   0  0  0  0  0  0  0  0  0  0  0  0
  -30.7285  -20.3876   15.6642 C   0  0  0  0  0  0  0  0  0  0  0  0
  -22.4432  -24.2694   16.0700 C   0  0  0  0  0  0  0  0  0  0  0  0
  -30.9965  -19.4994   16.8700 C   0  0  0  0  0  0  0  0  0  0  0  0
  -23.2939  -25.3037   16.8092 C   0  0  0  0  0  0  0  0  0  0  0  0
  -21.4404  -23.5932   17.0022 C   0  0  0  0  0  0  0  0  0  0  0  0
  -22.8791  -24.0299   18.9550 C   0  0  0  0  0  0  0  0  0  0  0  0
  -30.4220  -20.1248   18.1474 C   0  0  1  0  0  0  0  0  0  0  0  0
  -30.9022  -17.5763   20.9224 C   0  0  1  0  0  0  0  0  0  0  0  0
  -23.9435  -24.6987   18.0684 C   0  0  2  0  0  0  0  0  0  0  0  0
  -25.1532  -19.3976   19.5816 C   0  0  0  0  0  0  0  0  0  0  0  0
  -30.4564  -10.2621   23.4337 C   0  0  0  0  0  0  0  0  0  0  0  0
  -19.8322  -17.8314   22.1363 C   0  0  0  0  0  0  0  0  0  0  0  0
  -21.8227  -16.3004   21.8194 C   0  0  0  0  0  0  0  0  0  0  0  0
  -23.4483  -19.5963   26.2169 C   0  0  0  0  0  0  0  0  0  0  0  0
  -23.4203  -21.8737   25.2218 C   0  0  0  0  0  0  0  0  0  0  0  0
  -28.7321  -14.3071   18.4804 C   0  0  0  0  0  0  0  0  0  0  0  0
  -28.5081  -12.0853   19.6125 C   0  0  0  0  0  0  0  0  0  0  0  0
  -30.7213  -12.8101   18.7185 C   0  0  0  0  0  0  0  0  0  0  0  0
  -31.2770  -13.3348   25.5220 C   0  0  0  0  0  0  0  0  0  0  0  0
  -23.7181  -19.0274   19.2277 C   0  0  0  0  0  0  0  0  0  0  0  0
  -25.4337  -20.3986   24.9102 C   0  0  0  0  0  0  0  0  0  1  0  0
  -22.6501  -19.8416   20.0067 C   0  0  2  0  0  0  0  0  0  0  0  0
  -29.8017  -13.9164   20.7976 C   0  0  1  0  0  0  0  0  0  0  0  0
  -30.8897  -11.6999   23.6738 C   0  0  2  0  0  0  0  0  0  0  0  0
  -21.2652  -17.7102   21.6141 C   0  0  0  0  0  0  0  0  0  0  0  0
  -23.8849  -20.4189   24.9809 C   0  0  0  0  0  0  0  0  0  0  0  0
  -29.4352  -13.3038   19.4164 C   0  0  0  0  0  0  0  0  0  0  0  0
  -24.1260  -26.8022   19.3429 N   0  0  0  0  0  0  0  0  0  0  0  0
  -22.1330  -18.7224   22.1751 N   0  0  0  0  0  0  0  0  0  0  0  0
  -24.7543  -25.7304   18.8306 N   0  0  0  0  0  0  0  0  0  0  0  0
  -30.1824  -16.3297   21.1913 N   0  0  0  0  0  0  0  0  0  0  0  0
  -22.1207  -23.0391   18.1753 N   0  0  0  0  0  0  0  0  0  0  0  0
  -26.8795  -24.7036   18.6303 N   0  0  0  0  0  0  0  0  0  0  0  0
  -27.7503  -28.4472   21.0018 N   0  0  0  0  0  0  0  0  0  0  0  0
  -30.8750  -19.3636   19.2907 N   0  0  0  0  0  0  0  0  0  0  0  0
  -30.4930  -12.9968   21.6947 N   0  0  0  0  0  0  0  0  0  0  0  0
  -22.6772  -21.2251   19.5871 N   0  0  0  0  0  0  0  0  0  0  0  0
  -30.8521  -11.9635   25.1401 N   0  3  0  0  0  0  0  0  0  0  0  0
  -28.6894  -26.5790   20.0600 O   0  0  0  0  0  0  0  0  0  0  0  0
  -29.2831  -17.6662   19.2061 O   0  0  0  0  0  0  0  0  0  0  0  0
  -31.7960  -15.0178   20.1370 O   0  0  0  0  0  0  0  0  0  0  0  0
  -28.9461  -13.1122   23.4184 O   0  0  0  0  0  0  0  0  0  0  0  0
  -21.3300  -20.8988   17.7608 O   0  0  0  0  0  0  0  0  0  0  0  0
  -24.0363  -32.2939   22.5652 O   0  0  0  0  0  0  0  0  0  0  0  0
  -25.9117  -19.0708   24.6984 O   0  0  0  0  0  0  0  0  0  1  0  0
  -26.3197  -33.0742   27.5231 F   0  0  0  0  0  0  0  0  0  0  0  0
  -26.7830  -32.2851   22.8790 F   0  0  0  0  0  0  0  0  0  0  0  0
  1  2  1  0  0  0  0
  1  5  2  0  0  0  0
  2  6  2  0  0  0  0
  3  8  2  0  0  0  0
  3 17  1  0  0  0  0
  4  9  1  0  0  0  0
  4 17  2  0  0  0  0
  5 19  1  0  0  0  0
  6 21  1  0  0  0  0
  7 10  2  0  0  0  0
  7 20  1  0  0  0  0
  8 24  1  0  0  0  0
  9 24  2  0  0  0  0
 10 25  1  0  0  0  0
 11 12  2  0  0  0  0
 11 26  1  0  0  0  0
 12 27  1  0  0  0  0
 13 22  1  0  0  0  0
 13 25  2  0  0  0  0
 14 23  1  0  0  0  0
 14 30  2  0  0  0  0
 15 27  2  0  0  0  0
 15 28  1  0  0  0  0
 16 23  2  0  0  0  0
 16 68  1  0  0  0  0
 17 29  1  0  0  0  0
 18 29  1  0  0  0  0
 18 31  2  0  0  0  0
 18 32  1  0  0  0  0
 19 21  2  0  0  0  0
 19 37  1  0  0  0  0
 20 22  2  0  0  0  0
 20 38  1  0  0  0  0
 21 46  1  0  0  0  0
 22 39  1  0  0  0  0
 23 65  1  0  0  0  0
 24 83  1  0  0  0  0
 25 84  1  0  0  0  0
 26 28  2  0  0  0  0
 26 83  1  0  0  0  0
 27 85  1  0  0  0  0
 28 86  1  0  0  0  0
 29 67  2  0  0  0  0
 30 61  1  0  0  0  0
 30 68  1  0  0  0  0
 31 69  1  0  0  0  0
 31 72  1  0  0  0  0
 32 73  1  0  0  0  0
 32 78  2  0  0  0  0
 33 47  1  0  0  0  0
 33 74  1  0  0  0  0
 33 79  2  0  0  0  0
 34 62  1  0  0  0  0
 34 70  1  0  0  0  0
 34 80  2  0  0  0  0
 35 63  1  0  0  0  0
 35 75  1  0  0  0  0
 35 81  2  0  0  0  0
 36 71  1  0  0  0  0
 36 76  1  0  0  0  0
 36 82  2  0  0  0  0
 37 40  1  0  0  0  0
 38 47  1  0  0  0  0
 39 70  1  0  0  0  0
 40 42  1  0  0  0  0
 41 43  1  0  0  0  0
 41 44  1  0  0  0  0
 42 46  1  0  0  0  0
 43 48  1  0  0  0  0
 44 71  1  0  0  0  0
 45 48  1  0  0  0  0
 45 71  1  0  0  0  0
 46 74  1  0  0  0  0
 47 70  1  0  0  0  0
 48 69  1  0  0  0  0
 49 59  1  0  0  0  0
 50 63  1  0  0  0  0
 51 64  1  0  0  0  0
 52 64  1  0  0  0  0
 53 65  1  0  0  0  0
 54 65  1  0  0  0  0
 55 66  1  0  0  0  0
 56 66  1  0  0  0  0
 57 66  1  0  0  0  0
 58 77  1  0  0  0  0
 59 61  1  0  0  0  0
 60 65  1  0  0  0  0
 60 84  1  0  0  0  0
 61 76  1  0  0  0  0
 62 66  1  0  0  0  0
 62 75  1  0  0  0  0
 63 77  1  0  0  0  0
 64 68  1  0  0  0  0
 67 69  1  0  0  0  0
M  CHG  1  77   1
M  ISO  4  36 100  60 101  76 100  84 101
M  END
> <Batch ID>
0079

> <Smiles>
CCC([100NH:0][100C:0](=O)N1CCCC(n2nc(-c3ccc(Oc4ccc(F)cc4F)cc3)c(C(N)=O)c2N)C1)c1cc(C(C)(C)[101CH2:1][101O:1]c2ccc3c(c2)CN(C(=O)C(NC(=O)C(C)NC)C(C)(C)C)C(C(=O)NC2CCCc4ccccc42)C3)cn1C(C)C

> <Shape>
0.209

> <Color>
0.056

> <Negative vol penalty>
0.000

$$$$

  -OEChem-04052318413D

 82 90  0     1  0  0  0  0  0999 V2000
  -16.0413  -18.0861   18.8542 C   0  0  0  0  0  0  0  0  0  0  0  0
  -17.0979  -17.1896   18.7304 C   0  0  0  0  0  0  0  0  0  0  0  0
  -27.3494  -23.4692   20.2091 C   0  0  0  0  0  0  0  0  0  0  0  0
  -29.3232  -23.6718   18.8307 C   0  0  0  0  0  0  0  0  0  0  0  0
  -16.2598  -19.3473   19.4070 C   0  0  0  0  0  0  0  0  0  0  0  0
  -18.3740  -17.5543   19.1583 C   0  0  0  0  0  0  0  0  0  0  0  0
  -22.5935  -13.9036   21.6829 C   0  0  0  0  0  0  0  0  0  0  0  0
  -29.8213  -11.1399   20.1952 C   0  0  0  0  0  0  0  0  0  0  0  0
  -27.3945  -24.8377   20.4749 C   0  0  0  0  0  0  0  0  0  0  0  0
  -29.3683  -25.0403   19.0964 C   0  0  0  0  0  0  0  0  0  0  0  0
  -23.7074  -13.2524   21.1549 C   0  0  0  0  0  0  0  0  0  0  0  0
  -26.5501  -27.7096   18.9026 C   0  0  0  0  0  0  0  0  0  0  0  0
  -25.3551  -28.4248   18.8246 C   0  0  0  0  0  0  0  0  0  0  0  0
  -30.3043  -11.5654   18.9628 C   0  0  0  0  0  0  0  0  0  0  0  0
  -25.1105  -15.0743   21.8836 C   0  0  0  0  0  0  0  0  0  0  0  0
  -25.5828  -29.0583   21.1449 C   0  0  0  0  0  0  0  0  0  0  0  0
  -28.3138  -22.8862   19.3871 C   0  0  0  0  0  0  0  0  0  0  0  0
  -27.5949  -20.8332   18.0543 C   0  0  0  0  0  0  0  0  0  0  0  0
  -17.5372  -19.7241   19.8507 C   0  0  0  0  0  0  0  0  0  0  0  0
  -22.7284  -15.1522   22.3067 C   0  0  0  0  0  0  0  0  0  0  0  0
  -18.6101  -18.8222   19.7163 C   0  0  0  0  0  0  0  0  0  0  0  0
  -23.9972  -15.7381   22.4211 C   0  0  0  0  0  0  0  0  0  0  0  0
  -28.8384  -11.8796   20.8434 C   0  0  0  0  0  0  0  0  0  0  0  0
  -28.4039  -25.6233   19.9185 C   0  0  0  0  0  0  0  0  0  0  0  0
  -24.9657  -13.8390   21.2526 C   0  0  0  0  0  0  0  0  0  0  0  0
  -27.2614  -27.6687   20.1018 C   0  0  0  0  0  0  0  0  0  0  0  0
  -24.8715  -29.0992   19.9457 C   0  0  0  0  0  0  0  0  0  0  0  0
  -26.7778  -28.3430   21.2229 C   0  0  0  0  0  0  0  0  0  0  0  0
  -28.2681  -21.4724   19.1126 C   0  0  0  0  0  0  0  0  0  0  0  0
  -29.7758  -12.7279   18.4253 C   0  0  0  0  0  0  0  0  0  0  0  0
  -28.3756  -13.0282   20.2218 C   0  0  0  0  0  0  0  0  0  0  0  0
  -27.8597  -19.4977   18.2358 C   0  0  0  0  0  0  0  0  0  0  0  0
  -26.8012  -21.3963   17.0014 C   0  0  0  0  0  0  0  0  0  0  0  0
  -21.6045  -18.0724   21.7471 C   0  0  0  0  0  0  0  0  0  0  0  0
  -23.0313  -18.7423   24.5821 C   0  0  0  0  0  0  0  0  0  0  0  0
  -25.4212  -17.9423   26.8833 C   0  0  0  0  0  0  0  0  0  0  0  0
  -31.4178  -15.3534   19.3801 C   0  0  0  0  0  0  0  0  0  0  0  0
  -17.7345  -21.1155   20.3981 C   0  0  0  0  0  0  0  0  0  0  0  0
  -21.5209  -15.8294   22.8949 C   0  0  0  0  0  0  0  0  0  0  0  0
  -24.1985  -17.0678   23.0992 C   0  0  0  0  0  0  0  0  0  0  0  0
  -19.0395  -21.2866   21.1713 C   0  0  0  0  0  0  0  0  0  0  0  0
  -29.9517  -17.0571   22.1414 C   0  0  0  0  0  0  0  0  0  0  0  0
  -20.2034  -20.6785   20.3953 C   0  0  0  0  0  0  0  0  0  0  0  0
  -29.3333  -18.3073   21.5132 C   0  0  0  0  0  0  0  0  0  0  0  0
  -31.2688  -16.6794   21.4672 C   0  0  0  0  0  0  0  0  0  0  0  0
  -30.5755  -17.7797   19.3738 C   0  0  0  0  0  0  0  0  0  0  0  0
  -20.0036  -19.1718   20.1917 C   0  0  1  0  0  0  0  0  0  0  0  0
  -21.6988  -17.3362   23.0535 C   0  0  1  0  0  0  0  0  0  0  0  0
  -29.2175  -18.1676   19.9834 C   0  0  2  0  0  0  0  0  0  0  0  0
  -28.3179  -11.4295   22.1645 C   0  0  0  0  0  0  0  0  0  0  0  0
  -29.1592  -13.9167   16.2967 C   0  0  0  0  0  0  0  0  0  0  0  0
  -26.3715  -18.6965   29.0800 C   0  0  0  0  0  0  0  0  0  0  0  0
  -24.4946  -21.0147   23.1662 C   0  0  0  0  0  0  0  0  0  0  0  0
  -26.0827  -21.1036   25.0996 C   0  0  0  0  0  0  0  0  0  0  0  0
  -23.6597  -21.5780   25.4553 C   0  0  0  0  0  0  0  0  0  0  0  0
  -24.6980  -15.3939   28.2032 C   0  0  0  0  0  0  0  0  0  0  0  0
  -27.3133  -13.8643   20.8728 C   0  0  0  0  0  0  0  0  0  1  0  0
  -31.4967  -14.1500   17.2111 C   0  0  0  0  0  0  0  0  0  0  0  0
  -30.2699  -13.2127   17.1032 C   0  0  1  0  0  0  0  0  0  0  0  0
  -24.4049  -19.2044   25.0049 C   0  0  1  0  0  0  0  0  0  0  0  0
  -25.3569  -17.7957   28.3929 C   0  0  2  0  0  0  0  0  0  0  0  0
  -24.6567  -20.7010   24.6669 C   0  0  0  0  0  0  0  0  0  0  0  0
  -28.9120  -20.6137   19.9076 N   0  0  0  0  0  0  0  0  0  0  0  0
  -28.8204  -13.4729   19.0252 N   0  0  0  0  0  0  0  0  0  0  0  0
  -28.6445  -19.4212   19.3486 N   0  0  0  0  0  0  0  0  0  0  0  0
  -22.9862  -17.6934   23.6529 N   0  0  0  0  0  0  0  0  0  0  0  0
  -31.0901  -16.5611   20.0181 N   0  0  0  0  0  0  0  0  0  0  0  0
  -27.4954  -18.3932   17.5504 N   0  0  0  0  0  0  0  0  0  0  0  0
  -26.6311  -22.7869   16.9635 N   0  0  0  0  0  0  0  0  0  0  0  0
  -20.3201  -18.4514   21.4063 N   0  0  0  0  0  0  0  0  0  0  0  0
  -24.5250  -18.8837   26.4230 N   0  0  0  0  0  0  0  0  0  0  0  0
  -31.2124  -15.3238   18.0062 N   0  0  0  0  0  0  0  0  0  0  0  0
  -25.6357  -16.3863   28.7888 N   0  3  0  0  0  0  0  0  0  0  0  0
  -26.2455  -20.6858   16.1297 O   0  0  0  0  0  0  0  0  0  0  0  0
  -22.6219  -18.2825   21.0971 O   0  0  0  0  0  0  0  0  0  0  0  0
  -22.0351  -19.2870   25.0642 O   0  0  0  0  0  0  0  0  0  0  0  0
  -26.1920  -17.2898   26.1829 O   0  0  0  0  0  0  0  0  0  0  0  0
  -31.8557  -14.3723   19.9906 O   0  0  0  0  0  0  0  0  0  0  0  0
  -28.4480  -26.9588   20.1774 O   0  0  0  0  0  0  0  0  0  0  0  0
  -26.0546  -13.2058   20.7374 O   0  0  0  0  0  0  0  0  0  1  0  0
  -23.7247  -29.7872   19.8702 F   0  0  0  0  0  0  0  0  0  0  0  0
  -27.4573  -28.3083   22.3774 F   0  0  0  0  0  0  0  0  0  0  0  0
  1  2  1  0  0  0  0
  1  5  2  0  0  0  0
  2  6  2  0  0  0  0
  3  9  2  0  0  0  0
  3 17  1  0  0  0  0
  4 10  1  0  0  0  0
  4 17  2  0  0  0  0
  5 19  1  0  0  0  0
  6 21  1  0  0  0  0
  7 11  2  0  0  0  0
  7 20  1  0  0  0  0
  8 14  2  0  0  0  0
  8 23  1  0  0  0  0
  9 24  1  0  0  0  0
 10 24  2  0  0  0  0
 11 25  1  0  0  0  0
 12 13  2  0  0  0  0
 12 26  1  0  0  0  0
 13 27  1  0  0  0  0
 14 30  1  0  0  0  0
 15 22  1  0  0  0  0
 15 25  2  0  0  0  0
 16 27  2  0  0  0  0
 16 28  1  0  0  0  0
 17 29  1  0  0  0  0
 18 29  1  0  0  0  0
 18 32  2  0  0  0  0
 18 33  1  0  0  0  0
 19 21  2  0  0  0  0
 19 38  1  0  0  0  0
 20 22  2  0  0  0  0
 20 39  1  0  0  0  0
 21 47  1  0  0  0  0
 22 40  1  0  0  0  0
 23 31  2  0  0  0  0
 23 50  1  0  0  0  0
 24 79  1  0  0  0  0
 25 80  1  0  0  0  0
 26 28  2  0  0  0  0
 26 79  1  0  0  0  0
 27 81  1  0  0  0  0
 28 82  1  0  0  0  0
 29 63  2  0  0  0  0
 30 59  1  0  0  0  0
 30 64  2  0  0  0  0
 31 57  1  0  0  0  0
 31 64  1  0  0  0  0
 32 65  1  0  0  0  0
 32 68  1  0  0  0  0
 33 69  1  0  0  0  0
 33 74  2  0  0  0  0
 34 48  1  0  0  0  0
 34 70  1  0  0  0  0
 34 75  2  0  0  0  0
 35 60  1  0  0  0  0
 35 66  1  0  0  0  0
 35 76  2  0  0  0  0
 36 61  1  0  0  0  0
 36 71  1  0  0  0  0
 36 77  2  0  0  0  0
 37 67  1  0  0  0  0
 37 72  1  0  0  0  0
 37 78  2  0  0  0  0
 38 41  1  0  0  0  0
 39 48  1  0  0  0  0
 40 66  1  0  0  0  0
 41 43  1  0  0  0  0
 42 44  1  0  0  0  0
 42 45  1  0  0  0  0
 43 47  1  0  0  0  0
 44 49  1  0  0  0  0
 45 67  1  0  0  0  0
 46 49  1  0  0  0  0
 46 67  1  0  0  0  0
 47 70  1  0  0  0  0
 48 66  1  0  0  0  0
 49 65  1  0  0  0  0
 51 59  1  0  0  0  0
 52 61  1  0  0  0  0
 53 62  1  0  0  0  0
 54 62  1  0  0  0  0
 55 62  1  0  0  0  0
 56 73  1  0  0  0  0
 57 80  1  0  0  0  0
 58 59  1  0  0  0  0
 58 72  1  0  0  0  0
 60 62  1  0  0  0  0
 60 71  1  0  0  0  0
 61 73  1  0  0  0  0
 63 65  1  0  0  0  0
M  CHG  1  73   1
M  ISO  4  37 100  57 101  72 100  80 101
M  END
> <Batch ID>
0079

> <Smiles>
CNC(C)C(=O)NC(C(=O)N1Cc2cc([101O:1][101CH2:1]c3nc(C(C)C[100NH:0][100C:0](=O)N4CCCC(n5nc(-c6ccc(Oc7ccc(F)cc7F)cc6)c(C(N)=O)c5N)C4)ccc3C)ccc2CC1C(=O)NC1CCCc2ccccc21)C(C)(C)C

> <Shape>
0.198

> <Color>
0.086

> <Negative vol penalty>
0.000

$$$$

  -OEChem-04052318413D

 85 93  0     1  0  0  0  0  0999 V2000
  -31.0130  -24.5066   17.0508 C   0  0  0  0  0  0  0  0  0  0  0  0
  -29.8378  -23.9767   17.5714 C   0  0  0  0  0  0  0  0  0  0  0  0
  -27.6326  -17.2239   18.9671 C   0  0  0  0  0  0  0  0  0  0  0  0
  -28.0536  -17.2254   21.3461 C   0  0  0  0  0  0  0  0  0  0  0  0
  -31.4213  -25.7856   17.4231 C   0  0  0  0  0  0  0  0  0  0  0  0
  -29.0644  -24.7302   18.4551 C   0  0  0  0  0  0  0  0  0  0  0  0
  -24.6998  -22.8672   19.7524 C   0  0  0  0  0  0  0  0  0  0  0  0
  -18.7346  -18.3362   25.7738 C   0  0  0  0  0  0  0  0  0  0  0  0
  -28.4084  -18.3748   18.8290 C   0  0  0  0  0  0  0  0  0  0  0  0
  -28.8295  -18.3763   21.2080 C   0  0  0  0  0  0  0  0  0  0  0  0
  -24.5712  -21.7722   20.6057 C   0  0  0  0  0  0  0  0  0  0  0  0
  -30.6254  -21.5191   21.5358 C   0  0  0  0  0  0  0  0  0  0  0  0
  -30.4300  -22.5472   22.4579 C   0  0  0  0  0  0  0  0  0  0  0  0
  -19.3229  -17.2115   26.3415 C   0  0  0  0  0  0  0  0  0  0  0  0
  -23.9480  -23.2543   22.4040 C   0  0  0  0  0  0  0  0  0  0  0  0
  -28.1217  -22.7275   21.7679 C   0  0  0  0  0  0  0  0  0  0  0  0
  -27.4551  -16.6492   20.2257 C   0  0  0  0  0  0  0  0  0  0  0  0
  -27.0917  -14.1251   20.2925 C   0  0  0  0  0  0  0  0  0  0  0  0
  -30.6583  -26.5496   18.3215 C   0  0  0  0  0  0  0  0  0  0  0  0
  -24.4635  -24.1672   20.2222 C   0  0  0  0  0  0  0  0  0  0  0  0
  -29.4472  -26.0324   18.8245 C   0  0  0  0  0  0  0  0  0  0  0  0
  -24.0717  -24.3639   21.5540 C   0  0  0  0  0  0  0  0  0  0  0  0
  -19.4649  -19.1259   24.8926 C   0  0  0  0  0  0  0  0  0  0  0  0
  -29.0069  -18.9510   19.9495 C   0  0  0  0  0  0  0  0  0  0  0  0
  -24.1981  -21.9658   21.9325 C   0  0  0  0  0  0  0  0  0  0  0  0
  -29.5689  -21.0952   20.7296 C   0  0  0  0  0  0  0  0  0  0  0  0
  -29.1782  -23.1514   22.5740 C   0  0  0  0  0  0  0  0  0  0  0  0
  -28.3171  -21.6994   20.8456 C   0  0  0  0  0  0  0  0  0  0  0  0
  -26.6533  -15.4607   20.3690 C   0  0  0  0  0  0  0  0  0  0  0  0
  -20.6337  -16.9221   25.9983 C   0  0  0  0  0  0  0  0  0  0  0  0
  -20.7694  -18.7509   24.6144 C   0  0  0  0  0  0  0  0  0  0  0  0
  -25.9564  -13.3789   20.4947 C   0  0  0  0  0  0  0  0  0  0  0  0
  -28.4075  -13.6054   20.0595 C   0  0  0  0  0  0  0  0  0  0  0  0
  -26.2203  -26.7999   20.5160 C   0  0  0  0  0  0  0  0  0  0  0  0
  -23.3891  -28.1234   21.3848 C   0  0  0  0  0  0  0  0  0  0  0  0
  -20.2504  -27.6800   22.6491 C   0  0  0  0  0  0  0  0  0  0  0  0
  -20.7816  -14.5041   23.2887 C   0  0  0  0  0  0  0  0  0  0  0  0
  -31.1429  -27.9312   18.6843 C   0  0  0  0  0  0  0  0  0  0  0  0
  -24.5805  -25.3355   19.2821 C   0  0  0  0  0  0  0  0  0  0  0  0
  -23.7869  -25.7375   22.1022 C   0  0  0  0  0  0  0  0  0  0  0  0
  -30.4986  -28.4722   19.9565 C   0  0  0  0  0  0  0  0  0  0  0  0
  -21.2132  -13.5389   19.8888 C   0  0  0  0  0  0  0  0  0  0  0  0
  -28.9881  -28.3052   19.8857 C   0  0  0  0  0  0  0  0  0  0  0  0
  -22.6959  -13.8015   19.6195 C   0  0  0  0  0  0  0  0  0  0  0  0
  -20.6135  -14.5914   20.8187 C   0  0  0  0  0  0  0  0  0  0  0  0
  -22.8196  -15.0413   21.8209 C   0  0  0  0  0  0  0  0  0  0  0  0
  -28.6056  -26.8216   19.8109 C   0  0  1  0  0  0  0  0  0  0  0  0
  -24.8155  -26.6601   20.0015 C   0  0  1  0  0  0  0  0  0  0  0  0
  -23.4824  -13.9743   20.9328 C   0  0  2  0  0  0  0  0  0  0  0  0
  -17.8809  -19.9813   23.1473 C   0  0  0  0  0  0  0  0  0  0  0  0
  -18.1818  -28.9540   23.2779 C   0  0  0  0  0  0  0  0  0  0  0  0
  -21.8123  -13.2480   26.3926 C   0  0  0  0  0  0  0  0  0  0  0  0
  -24.7724  -29.1146   23.9173 C   0  0  0  0  0  0  0  0  0  0  0  0
  -22.5103  -29.5230   24.9095 C   0  0  0  0  0  0  0  0  0  0  0  0
  -23.2162  -30.7651   22.8646 C   0  0  0  0  0  0  0  0  0  0  0  0
  -18.6021  -26.2005   20.6861 C   0  0  0  0  0  0  0  0  0  0  0  0
  -18.8405  -20.3327   24.2823 C   0  0  0  0  0  0  0  0  0  0  0  0
  -21.2957  -15.7214   26.5877 C   0  0  0  0  0  0  0  0  0  0  0  0
  -21.6081  -19.5674   23.6639 C   0  0  0  0  0  0  0  0  0  0  0  0
  -22.8860  -18.8603   23.2072 C   0  0  0  0  0  0  0  0  0  0  0  0
  -23.6834  -19.6573   22.1814 C   0  0  0  0  0  0  0  0  0  1  0  0
  -22.6502  -28.3074   22.6883 C   0  0  1  0  0  0  0  0  0  0  0  0
  -18.8958  -28.1801   22.1806 C   0  0  2  0  0  0  0  0  0  0  0  0
  -21.1110  -14.4393   25.7476 C   0  0  1  0  0  0  0  0  0  0  0  0
  -23.2945  -29.4017   23.5854 C   0  0  0  0  0  0  0  0  0  0  0  0
  -25.3418  -15.5603   20.6015 N   0  0  0  0  0  0  0  0  0  0  0  0
  -21.3748  -17.6654   25.1463 N   0  0  0  0  0  0  0  0  0  0  0  0
  -24.9463  -14.2779   20.6728 N   0  0  0  0  0  0  0  0  0  0  0  0
  -23.9211  -26.8485   21.1455 N   0  0  0  0  0  0  0  0  0  0  0  0
  -21.4051  -14.7050   22.0461 N   0  0  0  0  0  0  0  0  0  0  0  0
  -25.7336  -12.0481   20.5358 N   0  0  0  0  0  0  0  0  0  0  0  0
  -29.4602  -14.5115   19.8719 N   0  0  0  0  0  0  0  0  0  0  0  0
  -27.1900  -26.7124   19.5353 N   0  0  0  0  0  0  0  0  0  0  0  0
  -21.2586  -28.5668   22.3356 N   0  0  0  0  0  0  0  0  0  0  0  0
  -21.6052  -14.6240   24.4013 N   0  0  0  0  0  0  0  0  0  0  0  0
  -18.0326  -27.0348   21.7754 N   0  3  0  0  0  0  0  0  0  0  0  0
  -28.6399  -12.3741   20.0026 O   0  0  0  0  0  0  0  0  0  0  0  0
  -26.4104  -26.9757   21.7137 O   0  0  0  0  0  0  0  0  0  0  0  0
  -23.4844  -29.0739   20.6043 O   0  0  0  0  0  0  0  0  0  0  0  0
  -20.3987  -26.6114   23.2378 O   0  0  0  0  0  0  0  0  0  0  0  0
  -19.5811  -14.2325   23.3981 O   0  0  0  0  0  0  0  0  0  0  0  0
  -29.7643  -20.0739   19.8151 O   0  0  0  0  0  0  0  0  0  0  0  0
  -24.0725  -20.8988   22.7677 O   0  0  0  0  0  0  0  0  0  1  0  0
  -28.9903  -24.1376   23.4607 F   0  0  0  0  0  0  0  0  0  0  0  0
  -27.2980  -21.2956   20.0747 F   0  0  0  0  0  0  0  0  0  0  0  0
  1  2  1  0  0  0  0
  1  5  2  0  0  0  0
  2  6  2  0  0  0  0
  3  9  2  0  0  0  0
  3 17  1  0  0  0  0
  4 10  1  0  0  0  0
  4 17  2  0  0  0  0
  5 19  1  0  0  0  0
  6 21  1  0  0  0  0
  7 11  2  0  0  0  0
  7 20  1  0  0  0  0
  8 14  2  0  0  0  0
  8 23  1  0  0  0  0
  9 24  1  0  0  0  0
 10 24  2  0  0  0  0
 11 25  1  0  0  0  0
 12 13  2  0  0  0  0
 12 26  1  0  0  0  0
 13 27  1  0  0  0  0
 14 30  1  0  0  0  0
 15 22  1  0  0  0  0
 15 25  2  0  0  0  0
 16 27  2  0  0  0  0
 16 28  1  0  0  0  0
 17 29  1  0  0  0  0
 18 29  1  0  0  0  0
 18 32  2  0  0  0  0
 18 33  1  0  0  0  0
 19 21  2  0  0  0  0
 19 38  1  0  0  0  0
 20 22  2  0  0  0  0
 20 39  1  0  0  0  0
 21 47  1  0  0  0  0
 22 40  1  0  0  0  0
 23 31  2  0  0  0  0
 23 57  1  0  0  0  0
 24 82  1  0  0  0  0
 25 83  1  0  0  0  0
 26 28  2  0  0  0  0
 26 82  1  0  0  0  0
 27 84  1  0  0  0  0
 28 85  1  0  0  0  0
 29 66  2  0  0  0  0
 30 58  1  0  0  0  0
 30 67  2  0  0  0  0
 31 59  1  0  0  0  0
 31 67  1  0  0  0  0
 32 68  1  0  0  0  0
 32 71  1  0  0  0  0
 33 72  1  0  0  0  0
 33 77  2  0  0  0  0
 34 48  1  0  0  0  0
 34 73  1  0  0  0  0
 34 78  2  0  0  0  0
 35 62  1  0  0  0  0
 35 69  1  0  0  0  0
 35 79  2  0  0  0  0
 36 63  1  0  0  0  0
 36 74  1  0  0  0  0
 36 80  2  0  0  0  0
 37 70  1  0  0  0  0
 37 75  1  0  0  0  0
 37 81  2  0  0  0  0
 38 41  1  0  0  0  0
 39 48  1  0  0  0  0
 40 69  1  0  0  0  0
 41 43  1  0  0  0  0
 42 44  1  0  0  0  0
 42 45  1  0  0  0  0
 43 47  1  0  0  0  0
 44 49  1  0  0  0  0
 45 70  1  0  0  0  0
 46 49  1  0  0  0  0
 46 70  1  0  0  0  0
 47 73  1  0  0  0  0
 48 69  1  0  0  0  0
 49 68  1  0  0  0  0
 50 57  1  0  0  0  0
 51 63  1  0  0  0  0
 52 64  1  0  0  0  0
 53 65  1  0  0  0  0
 54 65  1  0  0  0  0
 55 65  1  0  0  0  0
 56 76  1  0  0  0  0
 58 64  1  0  0  0  0
 59 60  1  0  0  0  0
 60 61  1  0  0  0  0
 61 83  1  0  0  0  0
 62 65  1  0  0  0  0
 62 74  1  0  0  0  0
 63 76  1  0  0  0  0
 64 75  1  0  0  0  0
 66 68  1  0  0  0  0
M  CHG  1  76   1
M  ISO  4  37 100  61 101  75 100  83 101
M  END
> <Batch ID>
0079

> <Smiles>
CCc1ccc(CC(C)[100NH:0][100C:0](=O)N2CCCC(n3nc(-c4ccc(Oc5ccc(F)cc5F)cc4)c(C(N)=O)c3N)C2)nc1CC[101CH2:1][101O:1]c1ccc2c(c1)CN(C(=O)C(NC(=O)C(C)NC)C(C)(C)C)C(C(=O)NC1CCCc3ccccc31)C2

> <Shape>
0.248

> <Color>
0.056

> <Negative vol penalty>
0.000

$$$$

  -OEChem-04052318413D

 85 93  0     1  0  0  0  0  0999 V2000
  -28.9155  -20.8358   14.9759 C   0  0  0  0  0  0  0  0  0  0  0  0
  -27.8800  -20.7861   15.9022 C   0  0  0  0  0  0  0  0  0  0  0  0
  -23.7145  -12.1279   20.0749 C   0  0  0  0  0  0  0  0  0  0  0  0
  -24.7474  -12.3292   22.2496 C   0  0  0  0  0  0  0  0  0  0  0  0
  -29.8992  -21.8161   15.0878 C   0  0  0  0  0  0  0  0  0  0  0  0
  -27.8211  -21.7240   16.9336 C   0  0  0  0  0  0  0  0  0  0  0  0
  -23.9767  -22.2040   21.6365 C   0  0  0  0  0  0  0  0  0  0  0  0
  -23.5587  -10.7565   20.2758 C   0  0  0  0  0  0  0  0  0  0  0  0
  -24.5916  -10.9578   22.4506 C   0  0  0  0  0  0  0  0  0  0  0  0
  -23.9100  -21.7696   22.9596 C   0  0  0  0  0  0  0  0  0  0  0  0
  -24.7926   -7.4520   23.3881 C   0  0  0  0  0  0  0  0  0  0  0  0
  -25.8762   -6.7460   23.9105 C   0  0  0  0  0  0  0  0  0  0  0  0
  -24.7889  -23.8924   23.6946 C   0  0  0  0  0  0  0  0  0  0  0  0
  -27.2182   -7.4003   22.0109 C   0  0  0  0  0  0  0  0  0  0  0  0
  -29.0104  -19.0845   25.5257 C   0  0  0  0  0  0  0  0  0  0  0  0
  -24.3089  -12.9143   21.0618 C   0  0  0  0  0  0  0  0  0  0  0  0
  -23.5595  -15.3492   21.1933 C   0  0  0  0  0  0  0  0  0  0  0  0
  -29.8585  -22.7584   16.1286 C   0  0  0  0  0  0  0  0  0  0  0  0
  -24.4611  -23.4840   21.3312 C   0  0  0  0  0  0  0  0  0  0  0  0
  -28.7913  -22.7359   17.0495 C   0  0  0  0  0  0  0  0  0  0  0  0
  -24.8584  -24.3416   22.3670 C   0  0  0  0  0  0  0  0  0  0  0  0
  -28.0503  -19.5015   26.4249 C   0  0  0  0  0  0  0  0  0  0  0  0
  -23.9972  -10.1714   21.4637 C   0  0  0  0  0  0  0  0  0  0  0  0
  -24.3188  -22.6128   23.9887 C   0  0  0  0  0  0  0  0  0  0  0  0
  -24.9216   -8.1321   22.1771 C   0  0  0  0  0  0  0  0  0  0  0  0
  -27.0890   -6.7202   23.2219 C   0  0  0  0  0  0  0  0  0  0  0  0
  -26.1344   -8.1063   21.4885 C   0  0  0  0  0  0  0  0  0  0  0  0
  -24.4707  -14.3310   20.8546 C   0  0  0  0  0  0  0  0  0  0  0  0
  -27.4548  -20.7140   26.1430 C   0  0  0  0  0  0  0  0  0  0  0  0
  -24.1767  -16.5093   20.7937 C   0  0  0  0  0  0  0  0  0  0  0  0
  -28.7160  -20.9545   24.2673 C   0  0  0  0  0  0  0  0  0  0  0  0
  -22.2704  -15.2548   21.8138 C   0  0  0  0  0  0  0  0  0  0  0  0
  -26.9219  -24.6129   19.6658 C   0  0  0  0  0  0  0  0  0  0  0  0
  -25.5198  -27.4740   20.2744 C   0  0  0  0  0  0  0  0  0  0  0  0
  -23.4543  -29.3232   22.2647 C   0  0  0  0  0  0  0  0  0  0  0  0
  -28.7139  -19.7414   20.4575 C   0  0  0  0  0  0  0  0  0  0  0  0
  -30.9448  -23.8026   16.1978 C   0  0  0  0  0  0  0  0  0  0  0  0
  -24.5016  -23.9474   19.9008 C   0  0  0  0  0  0  0  0  0  0  0  0
  -25.3670  -25.7327   22.0937 C   0  0  0  0  0  0  0  0  0  0  0  0
  -31.0433  -24.4682   17.5667 C   0  0  0  0  0  0  0  0  0  0  0  0
  -28.3047  -17.2353   17.9618 C   0  0  0  0  0  0  0  0  0  0  0  0
  -29.6656  -24.9246   18.0231 C   0  0  0  0  0  0  0  0  0  0  0  0
  -27.2005  -16.3374   18.5227 C   0  0  0  0  0  0  0  0  0  0  0  0
  -29.2228  -17.7569   19.0650 C   0  0  0  0  0  0  0  0  0  0  0  0
  -27.4270  -17.5365   20.7384 C   0  0  0  0  0  0  0  0  0  0  0  0
  -28.7235  -23.7267   18.1976 C   0  0  1  0  0  0  0  0  0  0  0  0
  -25.4945  -25.0821   19.6682 C   0  0  1  0  0  0  0  0  0  0  0  0
  -26.4422  -17.0314   19.6701 C   0  0  2  0  0  0  0  0  0  0  0  0
  -28.8893  -18.4881   28.5750 C   0  0  0  0  0  0  0  0  0  0  0  0
  -27.1156  -17.3036   27.2310 C   0  0  0  0  0  0  0  0  0  0  0  0
  -22.5326  -31.6419   22.5316 C   0  0  0  0  0  0  0  0  0  0  0  0
  -28.2000  -28.4078   21.3947 C   0  0  0  0  0  0  0  0  0  0  0  0
  -27.0009  -30.3174   22.4827 C   0  0  0  0  0  0  0  0  0  0  0  0
  -27.0056  -30.1035   19.9974 C   0  0  0  0  0  0  0  0  0  0  0  0
  -20.6690  -28.3793   21.9330 C   0  0  0  0  0  0  0  0  0  0  0  0
  -26.3911  -21.2708   27.0552 C   0  0  0  0  0  0  0  0  0  0  0  0
  -29.0851  -21.7613   23.0686 C   0  0  0  0  0  0  0  0  0  0  0  0
  -25.0278  -20.5942   26.8965 C   0  0  0  0  0  0  0  0  0  0  0  0
  -28.0793  -21.6458   21.9169 C   0  0  0  0  0  0  0  0  0  0  0  0
  -24.4124  -20.7923   25.5161 C   0  0  0  0  0  0  0  0  0  1  0  0
  -27.6997  -18.6801   27.6114 C   0  0  0  0  0  0  0  0  0  0  0  0
  -25.6198  -28.5006   21.3767 C   0  0  1  0  0  0  0  0  0  0  0  0
  -22.3096  -30.2627   21.9310 C   0  0  2  0  0  0  0  0  0  0  0  0
  -26.9488  -29.3055   21.3182 C   0  0  0  0  0  0  0  0  0  0  0  0
  -29.3694  -19.7886   24.4322 N   0  0  0  0  0  0  0  0  0  0  0  0
  -25.5822  -14.8028   20.2835 N   0  0  0  0  0  0  0  0  0  0  0  0
  -27.7646  -21.4697   25.0692 N   0  0  0  0  0  0  0  0  0  0  0  0
  -25.3734  -16.1302   20.2603 N   0  0  0  0  0  0  0  0  0  0  0  0
  -25.3936  -26.1374   20.6784 N   0  0  0  0  0  0  0  0  0  0  0  0
  -28.4416  -18.4051   20.1212 N   0  0  0  0  0  0  0  0  0  0  0  0
  -23.8072  -17.8065   20.8499 N   0  0  0  0  0  0  0  0  0  0  0  0
  -21.7869  -13.9857   22.1601 N   0  0  0  0  0  0  0  0  0  0  0  0
  -27.3802  -24.2118   18.4254 N   0  0  0  0  0  0  0  0  0  0  0  0
  -24.4186  -29.3228   21.2790 N   0  0  0  0  0  0  0  0  0  0  0  0
  -27.9233  -20.2813   21.4646 N   0  0  0  0  0  0  0  0  0  0  0  0
  -21.0251  -29.7222   22.4591 N   0  3  0  0  0  0  0  0  0  0  0  0
  -21.5610  -16.2646   22.0391 O   0  0  0  0  0  0  0  0  0  0  0  0
  -27.5607  -24.6160   20.7116 O   0  0  0  0  0  0  0  0  0  0  0  0
  -25.5454  -27.8451   19.0983 O   0  0  0  0  0  0  0  0  0  0  0  0
  -23.4914  -28.6591   23.2982 O   0  0  0  0  0  0  0  0  0  0  0  0
  -29.5926  -20.4059   19.8978 O   0  0  0  0  0  0  0  0  0  0  0  0
  -23.8451   -8.8332   21.6602 O   0  0  0  0  0  0  0  0  0  0  0  0
  -24.2554  -22.1910   25.2810 O   0  0  0  0  0  0  0  0  0  1  0  0
  -28.1300   -6.0435   23.7244 F   0  0  0  0  0  0  0  0  0  0  0  0
  -26.2648   -8.7587   20.3253 F   0  0  0  0  0  0  0  0  0  0  0  0
  1  2  1  0  0  0  0
  1  5  2  0  0  0  0
  2  6  2  0  0  0  0
  3  8  2  0  0  0  0
  3 16  1  0  0  0  0
  4  9  1  0  0  0  0
  4 16  2  0  0  0  0
  5 18  1  0  0  0  0
  6 20  1  0  0  0  0
  7 10  2  0  0  0  0
  7 19  1  0  0  0  0
  8 23  1  0  0  0  0
  9 23  2  0  0  0  0
 10 24  1  0  0  0  0
 11 12  2  0  0  0  0
 11 25  1  0  0  0  0
 12 26  1  0  0  0  0
 13 21  1  0  0  0  0
 13 24  2  0  0  0  0
 14 26  2  0  0  0  0
 14 27  1  0  0  0  0
 15 22  1  0  0  0  0
 15 65  2  0  0  0  0
 16 28  1  0  0  0  0
 17 28  1  0  0  0  0
 17 30  2  0  0  0  0
 17 32  1  0  0  0  0
 18 20  2  0  0  0  0
 18 37  1  0  0  0  0
 19 21  2  0  0  0  0
 19 38  1  0  0  0  0
 20 46  1  0  0  0  0
 21 39  1  0  0  0  0
 22 29  2  0  0  0  0
 22 61  1  0  0  0  0
 23 82  1  0  0  0  0
 24 83  1  0  0  0  0
 25 27  2  0  0  0  0
 25 82  1  0  0  0  0
 26 84  1  0  0  0  0
 27 85  1  0  0  0  0
 28 66  2  0  0  0  0
 29 56  1  0  0  0  0
 29 67  1  0  0  0  0
 30 68  1  0  0  0  0
 30 71  1  0  0  0  0
 31 57  1  0  0  0  0
 31 65  1  0  0  0  0
 31 67  2  0  0  0  0
 32 72  1  0  0  0  0
 32 77  2  0  0  0  0
 33 47  1  0  0  0  0
 33 73  1  0  0  0  0
 33 78  2  0  0  0  0
 34 62  1  0  0  0  0
 34 69  1  0  0  0  0
 34 79  2  0  0  0  0
 35 63  1  0  0  0  0
 35 74  1  0  0  0  0
 35 80  2  0  0  0  0
 36 70  1  0  0  0  0
 36 75  1  0  0  0  0
 36 81  2  0  0  0  0
 37 40  1  0  0  0  0
 38 47  1  0  0  0  0
 39 69  1  0  0  0  0
 40 42  1  0  0  0  0
 41 43  1  0  0  0  0
 41 44  1  0  0  0  0
 42 46  1  0  0  0  0
 43 48  1  0  0  0  0
 44 70  1  0  0  0  0
 45 48  1  0  0  0  0
 45 70  1  0  0  0  0
 46 73  1  0  0  0  0
 47 69  1  0  0  0  0
 48 68  1  0  0  0  0
 49 61  1  0  0  0  0
 50 61  1  0  0  0  0
 51 63  1  0  0  0  0
 52 64  1  0  0  0  0
 53 64  1  0  0  0  0
 54 64  1  0  0  0  0
 55 76  1  0  0  0  0
 56 58  1  0  0  0  0
 57 59  1  0  0  0  0
 58 60  1  0  0  0  0
 59 75  1  0  0  0  0
 60 83  1  0  0  0  0
 62 64  1  0  0  0  0
 62 74  1  0  0  0  0
 63 76  1  0  0  0  0
 66 68  1  0  0  0  0
M  CHG  1  76   1
M  ISO  4  36 100  60 101  75 100  83 101
M  END
> <Batch ID>
0079

> <Smiles>
CNC(C)C(=O)NC(C(=O)N1Cc2cc([101O:1][101CH2:1]CCc3nc(CC[100NH:0][100C:0](=O)N4CCCC(n5nc(-c6ccc(Oc7ccc(F)cc7F)cc6)c(C(N)=O)c5N)C4)ncc3C(C)C)ccc2CC1C(=O)NC1CCCc2ccccc21)C(C)(C)C

> <Shape>
0.197

> <Color>
0.071

> <Negative vol penalty>
0.000

$$$$

  -OEChem-04052318413D

 86 94  0     1  0  0  0  0  0999 V2000
  -22.7305  -11.1997   21.2459 C   0  0  0  0  0  0  0  0  0  0  0  0
  -22.5585  -12.2900   22.0927 C   0  0  0  0  0  0  0  0  0  0  0  0
  -29.0924  -17.7729   19.3179 C   0  0  0  0  0  0  0  0  0  0  0  0
  -30.4767  -18.2028   21.2508 C   0  0  0  0  0  0  0  0  0  0  0  0
  -23.2030  -11.3939   19.9486 C   0  0  0  0  0  0  0  0  0  0  0  0
  -22.8600  -13.5750   21.6431 C   0  0  0  0  0  0  0  0  0  0  0  0
  -20.7664  -20.3851   22.3888 C   0  0  0  0  0  0  0  0  0  0  0  0
  -29.6092  -16.4800   19.2354 C   0  0  0  0  0  0  0  0  0  0  0  0
  -30.9934  -16.9098   21.1683 C   0  0  0  0  0  0  0  0  0  0  0  0
  -21.2852  -21.6454   22.6823 C   0  0  0  0  0  0  0  0  0  0  0  0
  -30.2973  -12.9459   18.7334 C   0  0  0  0  0  0  0  0  0  0  0  0
  -29.3991  -11.9012   18.5162 C   0  0  0  0  0  0  0  0  0  0  0  0
  -22.0195  -21.8689   20.3953 C   0  0  0  0  0  0  0  0  0  0  0  0
  -28.2496  -12.4634   20.5656 C   0  0  0  0  0  0  0  0  0  0  0  0
  -29.5262  -18.6344   20.3256 C   0  0  0  0  0  0  0  0  0  0  0  0
  -27.8581  -20.3883   21.1312 C   0  0  0  0  0  0  0  0  0  0  0  0
  -23.5012  -12.6830   19.4796 C   0  0  0  0  0  0  0  0  0  0  0  0
  -20.8800  -19.8517   21.0969 C   0  0  0  0  0  0  0  0  0  0  0  0
  -23.3382  -13.7865   20.3387 C   0  0  0  0  0  0  0  0  0  0  0  0
  -21.4990  -20.6027   20.0875 C   0  0  0  0  0  0  0  0  0  0  0  0
  -30.5597  -16.0484   20.1606 C   0  0  0  0  0  0  0  0  0  0  0  0
  -21.9145  -22.3864   21.6862 C   0  0  0  0  0  0  0  0  0  0  0  0
  -30.1718  -13.7494   19.8667 C   0  0  0  0  0  0  0  0  0  0  0  0
  -28.3752  -11.6599   19.4322 C   0  0  0  0  0  0  0  0  0  0  0  0
  -29.1480  -13.5081   20.7828 C   0  0  0  0  0  0  0  0  0  0  0  0
  -28.9932  -19.9703   20.4110 C   0  0  0  0  0  0  0  0  0  0  0  0
  -27.7765  -21.7380   20.8905 C   0  0  0  0  0  0  0  0  0  0  0  0
  -25.9423  -26.7173   21.4556 C   0  0  0  0  0  0  0  0  0  0  0  0
  -27.1123  -28.2823   20.1414 C   0  0  0  0  0  0  0  0  0  0  0  0
  -26.8838  -27.6643   21.4590 C   0  0  0  0  0  0  0  0  0  0  0  0
  -25.5222  -26.9927   19.0770 C   0  0  0  0  0  0  0  0  0  0  0  0
  -26.9580  -19.6247   21.9451 C   0  0  0  0  0  0  0  0  0  0  0  0
  -22.2916  -17.2951   19.8419 C   0  0  0  0  0  0  0  0  0  0  0  0
  -20.7841  -18.2716   17.1407 C   0  0  0  0  0  0  0  0  0  0  0  0
  -19.3701  -20.8263   15.3741 C   0  0  0  0  0  0  0  0  0  0  0  0
  -30.1793  -26.7547   20.4370 C   0  0  0  0  0  0  0  0  0  0  0  0
  -24.0542  -12.8382   18.0850 C   0  0  0  0  0  0  0  0  0  0  0  0
  -20.2915  -18.5020   20.7900 C   0  0  0  0  0  0  0  0  0  0  0  0
  -21.6288  -20.0837   18.6795 C   0  0  0  0  0  0  0  0  0  0  0  0
  -23.9947  -14.2712   17.5622 C   0  0  0  0  0  0  0  0  0  0  0  0
  -30.2476  -24.6452   17.5696 C   0  0  0  0  0  0  0  0  0  0  0  0
  -24.5030  -15.2466   18.6191 C   0  0  0  0  0  0  0  0  0  0  0  0
  -29.8400  -23.2749   18.1137 C   0  0  0  0  0  0  0  0  0  0  0  0
  -31.1060  -25.4169   18.5694 C   0  0  0  0  0  0  0  0  0  0  0  0
  -30.1080  -24.1874   20.4577 C   0  0  0  0  0  0  0  0  0  0  0  0
  -23.6307  -15.1984   19.8793 C   0  0  1  0  0  0  0  0  0  0  0  0
  -20.9189  -17.8407   19.5667 C   0  0  1  0  0  0  0  0  0  0  0  0
  -29.1945  -23.3944   19.5074 C   0  0  2  0  0  0  0  0  0  0  0  0
  -18.2563  -21.3251   13.1814 C   0  0  0  0  0  0  0  0  0  0  0  0
  -20.6652  -25.2477   21.9637 C   0  0  0  0  0  0  0  0  0  0  0  0
  -27.2631  -27.3310   23.8958 C   0  0  0  0  0  0  0  0  0  0  0  0
  -27.3964  -29.6158   22.8941 C   0  0  0  0  0  0  0  0  0  0  0  0
  -23.4973  -18.1914   15.7472 C   0  0  0  0  0  0  0  0  0  0  0  0
  -22.5139  -19.5726   13.9050 C   0  0  0  0  0  0  0  0  0  0  0  0
  -21.5980  -17.3024   14.3845 C   0  0  0  0  0  0  0  0  0  0  0  0
  -16.8660  -21.6717   16.7060 C   0  0  0  0  0  0  0  0  0  0  0  0
  -22.9648  -25.8112   21.0844 C   0  0  0  0  0  0  0  0  0  0  0  0
  -24.2477  -25.3160   20.4194 C   0  0  0  0  0  0  0  0  0  0  0  0
  -29.1973  -27.9554   22.3744 C   0  0  0  0  0  0  0  0  0  0  0  0
  -21.1308  -19.1933   15.9965 C   0  0  1  0  0  0  0  0  0  0  0  0
  -18.0482  -20.9290   14.6348 C   0  0  2  0  0  0  0  0  0  0  0  0
  -21.8958  -24.7216   21.2366 C   0  0  1  0  0  0  0  0  0  1  0  0
  -27.6767  -28.1183   22.6320 C   0  0  0  0  0  0  0  0  0  0  0  0
  -22.1844  -18.5742   15.0352 C   0  0  0  0  0  0  0  0  0  0  0  0
  -29.5898  -20.9733   19.7613 N   0  0  0  0  0  0  0  0  0  0  0  0
  -26.4937  -27.9803   19.0480 N   0  0  0  0  0  0  0  0  0  0  0  0
  -28.8266  -22.0349   20.0723 N   0  0  0  0  0  0  0  0  0  0  0  0
  -25.2414  -26.3481   20.3124 N   0  0  0  0  0  0  0  0  0  0  0  0
  -21.0430  -18.7562   18.4307 N   0  0  0  0  0  0  0  0  0  0  0  0
  -30.4364  -25.4956   19.8699 N   0  0  0  0  0  0  0  0  0  0  0  0
  -26.9096  -22.6880   21.3009 N   0  0  0  0  0  0  0  0  0  0  0  0
  -27.1876  -18.2492   22.0856 N   0  0  0  0  0  0  0  0  0  0  0  0
  -22.3987  -15.9283   19.6695 N   0  0  0  0  0  0  0  0  0  0  0  0
  -19.8675  -19.5404   15.3547 N   0  0  0  0  0  0  0  0  0  0  0  0
  -29.5355  -26.7397   21.6683 N   0  0  0  0  0  0  0  0  0  0  0  0
  -17.1723  -21.9484   15.2789 N   0  3  0  0  0  0  0  0  0  0  0  0
  -24.9176  -26.6848   18.0483 O   0  0  0  0  0  0  0  0  0  0  0  0
  -25.9696  -20.1437   22.5171 O   0  0  0  0  0  0  0  0  0  0  0  0
  -23.1876  -18.0580   20.1837 O   0  0  0  0  0  0  0  0  0  0  0  0
  -20.2946  -17.1654   16.8992 O   0  0  0  0  0  0  0  0  0  0  0  0
  -19.9094  -21.7911   15.9116 O   0  0  0  0  0  0  0  0  0  0  0  0
  -30.4950  -27.8138   19.8844 O   0  0  0  0  0  0  0  0  0  0  0  0
  -31.0639  -14.7867   20.0805 O   0  0  0  0  0  0  0  0  0  0  0  0
  -22.4224  -23.6165   21.9700 O   0  0  0  0  0  0  0  0  0  1  0  0
  -27.5117  -10.6576   19.2227 F   0  0  0  0  0  0  0  0  0  0  0  0
  -29.0216  -14.2774   21.8728 F   0  0  0  0  0  0  0  0  0  0  0  0
  1  2  1  0  0  0  0
  1  5  2  0  0  0  0
  2  6  2  0  0  0  0
  3  8  2  0  0  0  0
  3 15  1  0  0  0  0
  4  9  1  0  0  0  0
  4 15  2  0  0  0  0
  5 17  1  0  0  0  0
  6 19  1  0  0  0  0
  7 10  2  0  0  0  0
  7 18  1  0  0  0  0
  8 21  1  0  0  0  0
  9 21  2  0  0  0  0
 10 22  1  0  0  0  0
 11 12  2  0  0  0  0
 11 23  1  0  0  0  0
 12 24  1  0  0  0  0
 13 20  1  0  0  0  0
 13 22  2  0  0  0  0
 14 24  2  0  0  0  0
 14 25  1  0  0  0  0
 15 26  1  0  0  0  0
 16 26  1  0  0  0  0
 16 27  2  0  0  0  0
 16 32  1  0  0  0  0
 17 19  2  0  0  0  0
 17 37  1  0  0  0  0
 18 20  2  0  0  0  0
 18 38  1  0  0  0  0
 19 46  1  0  0  0  0
 20 39  1  0  0  0  0
 21 83  1  0  0  0  0
 22 84  1  0  0  0  0
 23 25  2  0  0  0  0
 23 83  1  0  0  0  0
 24 85  1  0  0  0  0
 25 86  1  0  0  0  0
 26 65  2  0  0  0  0
 27 67  1  0  0  0  0
 27 71  1  0  0  0  0
 28 30  2  0  0  0  0
 28 68  1  0  0  0  0
 29 30  1  0  0  0  0
 29 66  2  0  0  0  0
 30 63  1  0  0  0  0
 31 66  1  0  0  0  0
 31 68  1  0  0  0  0
 31 77  2  0  0  0  0
 32 72  1  0  0  0  0
 32 78  2  0  0  0  0
 33 47  1  0  0  0  0
 33 73  1  0  0  0  0
 33 79  2  0  0  0  0
 34 60  1  0  0  0  0
 34 69  1  0  0  0  0
 34 80  2  0  0  0  0
 35 61  1  0  0  0  0
 35 74  1  0  0  0  0
 35 81  2  0  0  0  0
 36 70  1  0  0  0  0
 36 75  1  0  0  0  0
 36 82  2  0  0  0  0
 37 40  1  0  0  0  0
 38 47  1  0  0  0  0
 39 69  1  0  0  0  0
 40 42  1  0  0  0  0
 41 43  1  0  0  0  0
 41 44  1  0  0  0  0
 42 46  1  0  0  0  0
 43 48  1  0  0  0  0
 44 70  1  0  0  0  0
 45 48  1  0  0  0  0
 45 70  1  0  0  0  0
 46 73  1  0  0  0  0
 47 69  1  0  0  0  0
 48 67  1  0  0  0  0
 49 61  1  0  0  0  0
 50 62  1  0  0  0  0
 51 63  1  0  0  0  0
 52 63  1  0  0  0  0
 53 64  1  0  0  0  0
 54 64  1  0  0  0  0
 55 64  1  0  0  0  0
 56 76  1  0  0  0  0
 57 58  1  0  0  0  0
 57 62  1  0  0  0  0
 58 68  1  0  0  0  0
 59 63  1  0  0  0  0
 59 75  1  0  0  0  0
 60 64  1  0  0  0  0
 60 74  1  0  0  0  0
 61 76  1  0  0  0  0
 62 84  1  0  0  0  0
 65 67  1  0  0  0  0
M  CHG  1  76   1
M  ISO  4  36 100  62 101  75 100  84 101
M  END
> <Batch ID>
0079

> <Smiles>
CNC(C)C(=O)NC(C(=O)N1Cc2cc([101O:1][101CH:1](C)CCn3cc(C(C)(C)C[100NH:0][100C:0](=O)N4CCCC(n5nc(-c6ccc(Oc7ccc(F)cc7F)cc6)c(C(N)=O)c5N)C4)cnc3=O)ccc2CC1C(=O)NC1CCCc2ccccc21)C(C)(C)C

> <Shape>
0.230

> <Color>
0.048

> <Negative vol penalty>
0.000

$$$$

  -OEChem-04052318413D

 83 91  0     1  0  0  0  0  0999 V2000
  -23.3953   -8.1271   21.5804 C   0  0  0  0  0  0  0  0  0  0  0  0
  -23.9929   -9.0449   20.7227 C   0  0  0  0  0  0  0  0  0  0  0  0
  -22.4226  -28.1713   20.7094 C   0  0  0  0  0  0  0  0  0  0  0  0
  -23.3245  -26.4347   22.1263 C   0  0  0  0  0  0  0  0  0  0  0  0
  -22.2687   -8.4931   22.3158 C   0  0  0  0  0  0  0  0  0  0  0  0
  -23.4636  -10.3290   20.5990 C   0  0  0  0  0  0  0  0  0  0  0  0
  -26.5773  -15.5212   19.6757 C   0  0  0  0  0  0  0  0  0  0  0  0
  -21.1428  -27.9026   21.1946 C   0  0  0  0  0  0  0  0  0  0  0  0
  -22.0447  -26.1660   22.6116 C   0  0  0  0  0  0  0  0  0  0  0  0
  -26.8409  -16.2651   18.5264 C   0  0  0  0  0  0  0  0  0  0  0  0
  -19.3318  -28.5984   23.9639 C   0  0  0  0  0  0  0  0  0  0  0  0
  -18.5315  -29.6845   24.3180 C   0  0  0  0  0  0  0  0  0  0  0  0
  -24.9631  -17.6940   19.0279 C   0  0  0  0  0  0  0  0  0  0  0  0
  -16.8871  -29.0058   22.6833 C   0  0  0  0  0  0  0  0  0  0  0  0
  -28.6458  -19.4851   20.1650 C   0  0  0  0  0  0  0  0  0  0  0  0
  -23.5135  -27.4373   21.1752 C   0  0  0  0  0  0  0  0  0  0  0  0
  -25.7699  -28.6271   21.1987 C   0  0  0  0  0  0  0  0  0  0  0  0
  -21.7310   -9.7854   22.2083 C   0  0  0  0  0  0  0  0  0  0  0  0
  -25.4962  -15.8520   20.5053 C   0  0  0  0  0  0  0  0  0  0  0  0
  -22.3280  -10.7122   21.3326 C   0  0  0  0  0  0  0  0  0  0  0  0
  -24.6895  -16.9543   20.1885 C   0  0  0  0  0  0  0  0  0  0  0  0
  -20.9538  -26.9000   22.1457 C   0  0  0  0  0  0  0  0  0  0  0  0
  -26.0320  -17.3500   18.2008 C   0  0  0  0  0  0  0  0  0  0  0  0
  -18.9098  -27.7160   22.9694 C   0  0  0  0  0  0  0  0  0  0  0  0
  -17.3092  -29.8882   23.6777 C   0  0  0  0  0  0  0  0  0  0  0  0
  -17.6875  -27.9196   22.3291 C   0  0  0  0  0  0  0  0  0  0  0  0
  -24.8357  -27.7141   20.6739 C   0  0  0  0  0  0  0  0  0  0  0  0
  -28.7438  -20.4424   21.1349 C   0  0  0  0  0  0  0  0  0  0  0  0
  -26.8603  -28.5167   20.3708 C   0  0  0  0  0  0  0  0  0  0  0  0
  -29.4001  -21.3396   19.2205 C   0  0  0  0  0  0  0  0  0  0  0  0
  -25.6618  -29.4972   22.3331 C   0  0  0  0  0  0  0  0  0  0  0  0
  -22.8380  -14.3707   21.4236 C   0  0  0  0  0  0  0  0  0  0  0  0
  -22.5117  -16.9730   23.3326 C   0  0  0  0  0  0  0  0  0  0  0  0
  -23.2593  -20.2516   23.9141 C   0  0  0  0  0  0  0  0  0  0  0  0
  -28.8756  -24.1148   16.8476 C   0  0  0  0  0  0  0  0  0  0  0  0
  -20.4839  -10.1199   22.9877 C   0  0  0  0  0  0  0  0  0  0  0  0
  -25.2414  -15.0559   21.7557 C   0  0  0  0  0  0  0  0  0  0  0  0
  -23.5289  -17.3631   21.0570 C   0  0  0  0  0  0  0  0  0  0  0  0
  -20.2080  -11.6183   23.0817 C   0  0  0  0  0  0  0  0  0  0  0  0
  -28.0451  -27.4342   15.8635 C   0  0  0  0  0  0  0  0  0  0  0  0
  -20.3655  -12.2769   21.7148 C   0  0  0  0  0  0  0  0  0  0  0  0
  -27.2127  -27.9647   17.0321 C   0  0  0  0  0  0  0  0  0  0  0  0
  -27.7753  -25.9535   15.6048 C   0  0  0  0  0  0  0  0  0  0  0  0
  -27.1029  -25.6104   17.9508 C   0  0  0  0  0  0  0  0  0  0  0  0
  -21.7980  -12.1225   21.1898 C   0  0  1  0  0  0  0  0  0  0  0  0
  -23.8037  -15.1687   22.2533 C   0  0  1  0  0  0  0  0  0  0  0  0
  -27.3820  -27.0856   18.2858 C   0  0  2  0  0  0  0  0  0  0  0  0
  -28.4447  -20.4020   22.5686 C   0  0  0  0  0  0  0  0  0  0  0  0
  -31.3052  -22.8523   18.5541 C   0  0  0  0  0  0  0  0  0  0  0  0
  -23.3472  -22.4370   25.1444 C   0  0  0  0  0  0  0  0  0  0  0  0
  -25.5077  -20.2798   16.5298 C   0  0  0  0  0  0  0  0  0  0  0  0
  -19.7236  -17.3371   22.1477 C   0  0  0  0  0  0  0  0  0  0  0  0
  -19.7182  -19.6701   23.0562 C   0  0  0  0  0  0  0  0  0  0  0  0
  -19.8682  -17.7274   24.6137 C   0  0  0  0  0  0  0  0  0  0  0  0
  -25.7526  -19.4942   25.3171 C   0  0  0  0  0  0  0  0  0  0  0  0
  -27.9697  -19.7678   16.7050 C   0  0  0  0  0  0  0  0  0  0  0  0
  -29.1129  -19.3759   17.6522 C   0  0  0  0  0  0  0  0  0  0  0  0
  -29.8984  -22.3227   18.2265 C   0  0  2  0  0  0  0  0  0  0  0  0
  -21.8674  -18.3306   23.1884 C   0  0  1  0  0  0  0  0  0  0  0  0
  -23.7425  -20.9686   25.1618 C   0  0  2  0  0  0  0  0  0  0  0  0
  -26.5706  -19.4647   17.2554 C   0  0  2  0  0  0  0  0  0  1  0  0
  -20.3150  -18.2577   23.2339 C   0  0  0  0  0  0  0  0  0  0  0  0
  -25.2926  -27.0711   19.5960 N   0  0  0  0  0  0  0  0  0  0  0  0
  -29.0577  -20.0678   18.9908 N   0  0  0  0  0  0  0  0  0  0  0  0
  -26.5258  -27.5809   19.4366 N   0  0  0  0  0  0  0  0  0  0  0  0
  -29.2132  -21.5793   20.5225 N   0  3  0  0  0  0  0  0  0  0  0  0
  -23.3165  -16.5496   22.2655 N   0  0  0  0  0  0  0  0  0  0  0  0
  -27.9547  -25.1753   16.8328 N   0  0  0  0  0  0  0  0  0  0  0  0
  -28.0629  -29.1298   20.3579 N   0  0  0  0  0  0  0  0  0  0  0  0
  -24.4720  -29.4847   23.0738 N   0  0  0  0  0  0  0  0  0  0  0  0
  -22.6806  -13.0641   21.8448 N   0  0  0  0  0  0  0  0  0  0  0  0
  -22.4565  -19.1739   24.2229 N   0  0  0  0  0  0  0  0  0  0  0  0
  -28.9887  -23.4331   18.0531 N   0  0  0  0  0  0  0  0  0  0  0  0
  -25.2266  -20.8826   25.2668 N   0  3  0  0  0  0  0  0  0  0  0  0
  -26.5865  -30.2750   22.6700 O   0  0  0  0  0  0  0  0  0  0  0  0
  -22.2762  -14.9016   20.4727 O   0  0  0  0  0  0  0  0  0  0  0  0
  -22.3140  -16.3155   24.3575 O   0  0  0  0  0  0  0  0  0  0  0  0
  -23.5606  -20.6138   22.7789 O   0  0  0  0  0  0  0  0  0  0  0  0
  -29.5511  -23.8022   15.8612 O   0  0  0  0  0  0  0  0  0  0  0  0
  -19.7051  -26.6377   22.6196 O   0  0  0  0  0  0  0  0  0  0  0  0
  -26.2867  -18.0774   17.0792 O   0  0  0  0  0  0  0  0  0  1  0  0
  -16.5400  -30.9304   24.0189 F   0  0  0  0  0  0  0  0  0  0  0  0
  -17.2762  -27.0746   21.3738 F   0  0  0  0  0  0  0  0  0  0  0  0
  1  2  1  0  0  0  0
  1  5  2  0  0  0  0
  2  6  2  0  0  0  0
  3  8  2  0  0  0  0
  3 16  1  0  0  0  0
  4  9  1  0  0  0  0
  4 16  2  0  0  0  0
  5 18  1  0  0  0  0
  6 20  1  0  0  0  0
  7 10  2  0  0  0  0
  7 19  1  0  0  0  0
  8 22  1  0  0  0  0
  9 22  2  0  0  0  0
 10 23  1  0  0  0  0
 11 12  2  0  0  0  0
 11 24  1  0  0  0  0
 12 25  1  0  0  0  0
 13 21  1  0  0  0  0
 13 23  2  0  0  0  0
 14 25  2  0  0  0  0
 14 26  1  0  0  0  0
 15 28  2  0  0  0  0
 15 64  1  0  0  0  0
 16 27  1  0  0  0  0
 17 27  1  0  0  0  0
 17 29  2  0  0  0  0
 17 31  1  0  0  0  0
 18 20  2  0  0  0  0
 18 36  1  0  0  0  0
 19 21  2  0  0  0  0
 19 37  1  0  0  0  0
 20 45  1  0  0  0  0
 21 38  1  0  0  0  0
 22 80  1  0  0  0  0
 23 81  1  0  0  0  0
 24 26  2  0  0  0  0
 24 80  1  0  0  0  0
 25 82  1  0  0  0  0
 26 83  1  0  0  0  0
 27 63  2  0  0  0  0
 28 48  1  0  0  0  0
 28 66  1  0  0  0  0
 29 65  1  0  0  0  0
 29 69  1  0  0  0  0
 30 58  1  0  0  0  0
 30 64  1  0  0  0  0
 30 66  2  0  0  0  0
 31 70  1  0  0  0  0
 31 75  2  0  0  0  0
 32 46  1  0  0  0  0
 32 71  1  0  0  0  0
 32 76  2  0  0  0  0
 33 59  1  0  0  0  0
 33 67  1  0  0  0  0
 33 77  2  0  0  0  0
 34 60  1  0  0  0  0
 34 72  1  0  0  0  0
 34 78  2  0  0  0  0
 35 68  1  0  0  0  0
 35 73  1  0  0  0  0
 35 79  2  0  0  0  0
 36 39  1  0  0  0  0
 37 46  1  0  0  0  0
 38 67  1  0  0  0  0
 39 41  1  0  0  0  0
 40 42  1  0  0  0  0
 40 43  1  0  0  0  0
 41 45  1  0  0  0  0
 42 47  1  0  0  0  0
 43 68  1  0  0  0  0
 44 47  1  0  0  0  0
 44 68  1  0  0  0  0
 45 71  1  0  0  0  0
 46 67  1  0  0  0  0
 47 65  1  0  0  0  0
 49 58  1  0  0  0  0
 50 60  1  0  0  0  0
 51 61  1  0  0  0  0
 52 62  1  0  0  0  0
 53 62  1  0  0  0  0
 54 62  1  0  0  0  0
 55 74  1  0  0  0  0
 56 57  1  0  0  0  0
 56 61  1  0  0  0  0
 57 64  1  0  0  0  0
 58 73  1  0  0  0  0
 59 62  1  0  0  0  0
 59 72  1  0  0  0  0
 60 74  1  0  0  0  0
 61 81  1  0  0  0  0
 63 65  1  0  0  0  0
M  CHG  2  66   1  74   1
M  ISO  4  35 100  61 101  73 100  81 101
M  END
> <Batch ID>
0079

> <Smiles>
CNC(C)C(=O)NC(C(=O)N1Cc2cc([101O:1][101CH:1](C)CCn3cc(C)nc3C(C)[100NH:0][100C:0](=O)N3CCCC(n4nc(-c5ccc(Oc6ccc(F)cc6F)cc5)c(C(N)=O)c4N)C3)ccc2CC1C(=O)NC1CCCc2ccccc21)C(C)(C)C

> <Shape>
0.229

> <Color>
0.073

> <Negative vol penalty>
0.000

$$$$

  -OEChem-04052318413D

 89 97  0     1  0  0  0  0  0999 V2000
  -22.6248   -8.9394   20.6071 C   0  0  0  0  0  0  0  0  0  0  0  0
  -22.2779  -10.2105   21.0537 C   0  0  0  0  0  0  0  0  0  0  0  0
  -29.4761  -27.5647   21.1615 C   0  0  0  0  0  0  0  0  0  0  0  0
  -28.0864  -25.9206   22.2582 C   0  0  0  0  0  0  0  0  0  0  0  0
  -23.9668   -8.5671   20.5412 C   0  0  0  0  0  0  0  0  0  0  0  0
  -23.2729  -11.1097   21.4358 C   0  0  0  0  0  0  0  0  0  0  0  0
  -22.5010  -15.7614   19.5889 C   0  0  0  0  0  0  0  0  0  0  0  0
  -30.5660  -27.1561   21.9300 C   0  0  0  0  0  0  0  0  0  0  0  0
  -29.1763  -25.5120   23.0267 C   0  0  0  0  0  0  0  0  0  0  0  0
  -21.5496  -16.5520   20.2320 C   0  0  0  0  0  0  0  0  0  0  0  0
  -33.8024  -26.3011   23.3478 C   0  0  0  0  0  0  0  0  0  0  0  0
  -35.0230  -26.1203   22.6975 C   0  0  0  0  0  0  0  0  0  0  0  0
  -23.3123  -17.7104   21.4025 C   0  0  0  0  0  0  0  0  0  0  0  0
  -34.0209  -24.4362   21.2845 C   0  0  0  0  0  0  0  0  0  0  0  0
  -28.2362  -26.9470   21.3256 C   0  0  0  0  0  0  0  0  0  0  0  0
  -26.7165  -26.8647   19.2783 C   0  0  0  0  0  0  0  0  0  0  0  0
  -24.9792   -9.4655   20.9135 C   0  0  0  0  0  0  0  0  0  0  0  0
  -23.8669  -15.9322   19.8564 C   0  0  0  0  0  0  0  0  0  0  0  0
  -24.6296  -10.7486   21.3761 C   0  0  0  0  0  0  0  0  0  0  0  0
  -24.2792  -16.9223   20.7596 C   0  0  0  0  0  0  0  0  0  0  0  0
  -30.4162  -26.1297   22.8626 C   0  0  0  0  0  0  0  0  0  0  0  0
  -21.9550  -17.5247   21.1411 C   0  0  0  0  0  0  0  0  0  0  0  0
  -32.6909  -25.5493   22.9665 C   0  0  0  0  0  0  0  0  0  0  0  0
  -35.1323  -25.1879   21.6659 C   0  0  0  0  0  0  0  0  0  0  0  0
  -32.8002  -24.6169   21.9348 C   0  0  0  0  0  0  0  0  0  0  0  0
  -27.1098  -27.3691   20.5324 C   0  0  0  0  0  0  0  0  0  0  0  0
  -17.7424  -23.7821   21.5507 C   0  0  0  0  0  0  0  0  0  0  0  0
  -20.1454  -24.6525   20.7790 C   0  0  0  0  0  0  0  0  0  0  0  0
  -18.6452  -22.9348   20.9469 C   0  0  0  0  0  0  0  0  0  0  0  0
  -19.2425  -25.5001   21.3821 C   0  0  0  0  0  0  0  0  0  0  0  0
  -25.5977  -27.5913   18.9516 C   0  0  0  0  0  0  0  0  0  0  0  0
  -27.3095  -25.8317   18.4802 C   0  0  0  0  0  0  0  0  0  0  0  0
  -26.1626  -14.0962   21.0656 C   0  0  0  0  0  0  0  0  0  0  0  0
  -28.0565  -16.6011   20.2528 C   0  0  0  0  0  0  0  0  0  0  0  0
  -28.3222  -19.9404   19.6004 C   0  0  0  0  0  0  0  0  0  0  0  0
  -21.5255  -30.5049   22.2347 C   0  0  0  0  0  0  0  0  0  0  0  0
  -26.4136   -9.0014   20.8701 C   0  0  0  0  0  0  0  0  0  0  0  0
  -24.8821  -15.0894   19.1343 C   0  0  0  0  0  0  0  0  0  0  0  0
  -25.7345  -17.1594   21.0665 C   0  0  0  0  0  0  0  0  0  0  0  0
  -27.4253  -10.1425   20.9379 C   0  0  0  0  0  0  0  0  0  0  0  0
  -23.5713  -31.8673   19.6589 C   0  0  0  0  0  0  0  0  0  0  0  0
  -27.0501  -11.1235   22.0442 C   0  0  0  0  0  0  0  0  0  0  0  0
  -24.6747  -30.8235   19.4775 C   0  0  0  0  0  0  0  0  0  0  0  0
  -23.1563  -32.0014   21.1224 C   0  0  0  0  0  0  0  0  0  0  0  0
  -23.8762  -29.6921   21.5944 C   0  0  0  0  0  0  0  0  0  0  0  0
  -25.6813  -11.7606   21.7758 C   0  0  1  0  0  0  0  0  0  0  0  0
  -26.2168  -15.0021   19.8681 C   0  0  1  0  0  0  0  0  0  0  0  0
  -24.2890  -29.4811   20.1276 C   0  0  2  0  0  0  0  0  0  0  0  0
  -16.3990  -23.3050   21.9854 C   0  0  0  0  0  0  0  0  0  0  0  0
  -21.4890  -25.1292   20.3445 C   0  0  0  0  0  0  0  0  0  0  0  0
  -18.6994  -27.8807   20.7526 C   0  0  0  0  0  0  0  0  0  0  0  0
  -30.0054  -21.7028   19.0022 C   0  0  0  0  0  0  0  0  0  0  0  0
  -29.0666  -16.6102   23.1320 C   0  0  0  0  0  0  0  0  0  0  0  0
  -29.9790  -18.9070   22.7311 C   0  0  0  0  0  0  0  0  0  0  0  0
  -30.8371  -16.9768   21.4041 C   0  0  0  0  0  0  0  0  0  0  0  0
  -18.2426  -27.2028   23.8549 C   0  0  0  0  0  0  0  0  0  0  0  0
  -20.6427  -26.5291   23.9289 C   0  0  0  0  0  0  0  0  0  0  0  0
  -26.9460  -20.5547   17.0534 C   0  0  0  0  0  0  0  0  0  0  0  0
  -18.3164  -21.4845   20.6970 C   0  0  0  0  0  0  0  0  0  0  0  0
  -19.5339  -20.5551   20.7528 C   0  0  0  0  0  0  0  0  0  0  0  0
  -20.1976  -20.5199   22.1301 C   0  0  0  0  0  0  0  0  0  0  0  0
  -19.9992  -28.8839   23.3311 C   0  0  0  0  0  0  0  0  0  0  0  0
  -21.4248  -19.6185   22.1365 C   0  0  0  0  0  0  0  0  0  1  0  0
  -19.5671  -26.9340   21.6278 C   0  0  1  0  0  0  0  0  0  0  0  0
  -28.5146  -17.8631   20.9430 C   0  0  1  0  0  0  0  0  0  0  0  0
  -28.9983  -20.6952   18.4701 C   0  0  2  0  0  0  0  0  0  0  0  0
  -29.5717  -17.5838   22.0484 C   0  0  0  0  0  0  0  0  0  0  0  0
  -19.6095  -27.3872   23.1591 C   0  0  0  0  0  0  0  0  0  0  0  0
  -26.3063  -28.3411   20.9723 N   0  0  0  0  0  0  0  0  0  0  0  0
  -19.8630  -23.3546   20.5505 N   0  0  0  0  0  0  0  0  0  0  0  0
  -18.0248  -25.0801   21.7788 N   0  0  0  0  0  0  0  0  0  0  0  0
  -25.3969  -28.4534   19.9892 N   0  0  0  0  0  0  0  0  0  0  0  0
  -26.6887  -16.3056   20.3398 N   0  0  0  0  0  0  0  0  0  0  0  0
  -22.8015  -30.6935   21.6787 N   0  0  0  0  0  0  0  0  0  0  0  0
  -24.7759  -27.5706   17.8807 N   0  0  0  0  0  0  0  0  0  0  0  0
  -28.4557  -25.1875   18.9653 N   0  0  0  0  0  0  0  0  0  0  0  0
  -25.7944  -12.7971   20.7721 N   0  0  0  0  0  0  0  0  0  0  0  0
  -28.9751  -18.7607   19.8891 N   0  0  0  0  0  0  0  0  0  0  0  0
  -21.2687  -29.2338   22.7340 N   0  0  0  0  0  0  0  0  0  0  0  0
  -27.9858  -21.4270   17.6575 N   0  3  0  0  0  0  0  0  0  0  0  0
  -26.8464  -25.5014   17.3622 O   0  0  0  0  0  0  0  0  0  0  0  0
  -26.4361  -14.5424   22.1737 O   0  0  0  0  0  0  0  0  0  0  0  0
  -28.8807  -15.9069   19.6523 O   0  0  0  0  0  0  0  0  0  0  0  0
  -27.3177  -20.3574   20.1727 O   0  0  0  0  0  0  0  0  0  0  0  0
  -20.6759  -31.4011   22.2778 O   0  0  0  0  0  0  0  0  0  0  0  0
  -31.4796  -25.7305   23.6125 O   0  0  0  0  0  0  0  0  0  0  0  0
  -21.0285  -18.2973   21.7707 O   0  0  0  0  0  0  0  0  0  1  0  0
  -36.3042  -25.0155   21.0405 F   0  0  0  0  0  0  0  0  0  0  0  0
  -31.7357  -23.8927   21.5633 F   0  0  0  0  0  0  0  0  0  0  0  0
  1  2  1  0  0  0  0
  1  5  2  0  0  0  0
  2  6  2  0  0  0  0
  3  8  2  0  0  0  0
  3 15  1  0  0  0  0
  4  9  1  0  0  0  0
  4 15  2  0  0  0  0
  5 17  1  0  0  0  0
  6 19  1  0  0  0  0
  7 10  2  0  0  0  0
  7 18  1  0  0  0  0
  8 21  1  0  0  0  0
  9 21  2  0  0  0  0
 10 22  1  0  0  0  0
 11 12  2  0  0  0  0
 11 23  1  0  0  0  0
 12 24  1  0  0  0  0
 13 20  1  0  0  0  0
 13 22  2  0  0  0  0
 14 24  2  0  0  0  0
 14 25  1  0  0  0  0
 15 26  1  0  0  0  0
 16 26  1  0  0  0  0
 16 31  2  0  0  0  0
 16 32  1  0  0  0  0
 17 19  2  0  0  0  0
 17 37  1  0  0  0  0
 18 20  2  0  0  0  0
 18 38  1  0  0  0  0
 19 46  1  0  0  0  0
 20 39  1  0  0  0  0
 21 86  1  0  0  0  0
 22 87  1  0  0  0  0
 23 25  2  0  0  0  0
 23 86  1  0  0  0  0
 24 88  1  0  0  0  0
 25 89  1  0  0  0  0
 26 69  2  0  0  0  0
 27 29  2  0  0  0  0
 27 49  1  0  0  0  0
 27 71  1  0  0  0  0
 28 30  1  0  0  0  0
 28 50  1  0  0  0  0
 28 70  2  0  0  0  0
 29 59  1  0  0  0  0
 29 70  1  0  0  0  0
 30 64  1  0  0  0  0
 30 71  2  0  0  0  0
 31 72  1  0  0  0  0
 31 75  1  0  0  0  0
 32 76  1  0  0  0  0
 32 81  2  0  0  0  0
 33 47  1  0  0  0  0
 33 77  1  0  0  0  0
 33 82  2  0  0  0  0
 34 65  1  0  0  0  0
 34 73  1  0  0  0  0
 34 83  2  0  0  0  0
 35 66  1  0  0  0  0
 35 78  1  0  0  0  0
 35 84  2  0  0  0  0
 36 74  1  0  0  0  0
 36 79  1  0  0  0  0
 36 85  2  0  0  0  0
 37 40  1  0  0  0  0
 38 47  1  0  0  0  0
 39 73  1  0  0  0  0
 40 42  1  0  0  0  0
 41 43  1  0  0  0  0
 41 44  1  0  0  0  0
 42 46  1  0  0  0  0
 43 48  1  0  0  0  0
 44 74  1  0  0  0  0
 45 48  1  0  0  0  0
 45 74  1  0  0  0  0
 46 77  1  0  0  0  0
 47 73  1  0  0  0  0
 48 72  1  0  0  0  0
 51 64  1  0  0  0  0
 52 66  1  0  0  0  0
 53 67  1  0  0  0  0
 54 67  1  0  0  0  0
 55 67  1  0  0  0  0
 56 68  1  0  0  0  0
 57 68  1  0  0  0  0
 58 80  1  0  0  0  0
 59 60  1  0  0  0  0
 60 61  1  0  0  0  0
 61 63  1  0  0  0  0
 62 68  1  0  0  0  0
 62 79  1  0  0  0  0
 63 87  1  0  0  0  0
 64 68  1  0  0  0  0
 65 67  1  0  0  0  0
 65 78  1  0  0  0  0
 66 80  1  0  0  0  0
 69 72  1  0  0  0  0
M  CHG  1  80   1
M  ISO  4  36 100  63 101  79 100  87 101
M  END
> <Batch ID>
0079

> <Smiles>
CNC(C)C(=O)NC(C(=O)N1Cc2cc([101O:1][101CH2:1]CCCc3nc(C)c(C(C)C(C)(C)C[100NH:0][100C:0](=O)N4CCCC(n5nc(-c6ccc(Oc7ccc(F)cc7F)cc6)c(C(N)=O)c5N)C4)nc3C)ccc2CC1C(=O)NC1CCCc2ccccc21)C(C)(C)C

> <Shape>
0.247

> <Color>
0.042

> <Negative vol penalty>
0.000

$$$$

  -OEChem-04052318413D

 85 93  0     1  0  0  0  0  0999 V2000
  -21.5567  -23.6371   21.4128 C   0  0  0  0  0  0  0  0  0  0  0  0
  -22.8712  -23.2603   21.1571 C   0  0  0  0  0  0  0  0  0  0  0  0
  -23.4823  -28.0100   20.4346 C   0  0  0  0  0  0  0  0  0  0  0  0
  -24.7192  -28.3262   22.4857 C   0  0  0  0  0  0  0  0  0  0  0  0
  -20.7228  -22.7972   22.1498 C   0  0  0  0  0  0  0  0  0  0  0  0
  -23.3530  -22.0438   21.6392 C   0  0  0  0  0  0  0  0  0  0  0  0
  -27.4079  -18.3502   18.9150 C   0  0  0  0  0  0  0  0  0  0  0  0
  -22.3110  -28.4070   21.0797 C   0  0  0  0  0  0  0  0  0  0  0  0
  -23.5479  -28.7233   23.1308 C   0  0  0  0  0  0  0  0  0  0  0  0
  -28.7802  -18.1745   19.0872 C   0  0  0  0  0  0  0  0  0  0  0  0
  -20.0425  -27.0461   23.1835 C   0  0  0  0  0  0  0  0  0  0  0  0
  -18.8937  -26.2857   22.9653 C   0  0  0  0  0  0  0  0  0  0  0  0
  -28.3508  -16.3148   20.5625 C   0  0  0  0  0  0  0  0  0  0  0  0
  -17.7789  -28.2295   22.0618 C   0  0  0  0  0  0  0  0  0  0  0  0
  -34.1424  -21.5951   21.3465 C   0  0  0  0  0  0  0  0  0  0  0  0
  -24.6864  -27.9695   21.1376 C   0  0  0  0  0  0  0  0  0  0  0  0
  -26.8140  -28.3821   19.7920 C   0  0  0  0  0  0  0  0  0  0  0  0
  -21.1917  -21.5654   22.6329 C   0  0  0  0  0  0  0  0  0  0  0  0
  -26.4950  -17.5150   19.5750 C   0  0  0  0  0  0  0  0  0  0  0  0
  -22.5250  -21.1873   22.3845 C   0  0  0  0  0  0  0  0  0  0  0  0
  -26.9675  -16.4803   20.3949 C   0  0  0  0  0  0  0  0  0  0  0  0
  -33.7385  -20.6377   22.2447 C   0  0  0  0  0  0  0  0  0  0  0  0
  -22.3438  -28.7637   22.4277 C   0  0  0  0  0  0  0  0  0  0  0  0
  -29.2518  -17.1585   19.9133 C   0  0  0  0  0  0  0  0  0  0  0  0
  -20.0596  -28.3981   22.8409 C   0  0  0  0  0  0  0  0  0  0  0  0
  -17.7619  -26.8774   22.4044 C   0  0  0  0  0  0  0  0  0  0  0  0
  -18.9278  -28.9898   22.2801 C   0  0  0  0  0  0  0  0  0  0  0  0
  -25.8965  -27.5589   20.4720 C   0  0  0  0  0  0  0  0  0  0  0  0
  -33.3103  -21.3685   23.3692 C   0  0  0  0  0  0  0  0  0  0  0  0
  -27.7824  -27.5183   19.3421 C   0  0  0  0  0  0  0  0  0  0  0  0
  -26.7928  -29.8008   19.5856 C   0  0  0  0  0  0  0  0  0  0  0  0
  -24.1991  -17.9594   21.7279 C   0  0  0  0  0  0  0  0  0  0  0  0
  -23.6146  -14.8160   21.1801 C   0  0  0  0  0  0  0  0  0  0  0  0
  -24.7928  -11.7901   20.1302 C   0  0  0  0  0  0  0  0  0  0  0  0
  -31.2258  -23.2063   20.1760 C   0  0  0  0  0  0  0  0  0  0  0  0
  -20.2672  -20.7126   23.4652 C   0  0  0  0  0  0  0  0  0  0  0  0
  -25.0183  -17.7007   19.3576 C   0  0  0  0  0  0  0  0  0  0  0  0
  -26.0293  -15.5438   21.1099 C   0  0  0  0  0  0  0  0  0  0  0  0
  -20.7437  -19.2707   23.6206 C   0  0  0  0  0  0  0  0  0  0  0  0
  -27.8807  -22.4626   19.2097 C   0  0  0  0  0  0  0  0  0  0  0  0
  -22.2260  -19.2339   23.9784 C   0  0  0  0  0  0  0  0  0  0  0  0
  -27.1413  -23.7879   19.4018 C   0  0  0  0  0  0  0  0  0  0  0  0
  -28.9439  -22.2486   20.2848 C   0  0  0  0  0  0  0  0  0  0  0  0
  -29.1698  -24.6794   20.6221 C   0  0  0  0  0  0  0  0  0  0  0  0
  -23.0770  -19.8643   22.8694 C   0  0  1  0  0  0  0  0  0  0  0  0
  -24.1705  -17.1172   20.4838 C   0  0  1  0  0  0  0  0  0  0  0  0
  -28.1257  -24.9659   19.5293 C   0  0  2  0  0  0  0  0  0  0  0  0
  -32.7736  -20.8432   24.6368 C   0  0  0  0  0  0  0  0  0  0  0  0
  -24.0922   -9.3989   19.8324 C   0  0  0  0  0  0  0  0  0  0  0  0
  -23.8349  -14.3789   24.1918 C   0  0  0  0  0  0  0  0  0  0  0  0
  -24.0796  -11.9271   23.7477 C   0  0  0  0  0  0  0  0  0  0  0  0
  -21.9853  -13.1098   23.0860 C   0  0  0  0  0  0  0  0  0  0  0  0
  -33.8755  -25.2682   22.3679 C   0  0  0  0  0  0  0  0  0  0  0  0
  -35.7325  -24.2016   21.1149 C   0  0  0  0  0  0  0  0  0  0  0  0
  -25.2857  -11.8876   17.2137 C   0  0  0  0  0  0  0  0  0  0  0  0
  -33.7555  -19.1417   22.0561 C   0  0  0  0  0  0  0  0  0  0  0  0
  -32.3760  -18.5380   21.7703 C   0  0  0  0  0  0  0  0  0  0  0  0
  -32.4014  -17.0129   21.6585 C   0  0  0  0  0  0  0  0  0  0  0  0
  -33.4447  -24.3140   20.0819 C   0  0  0  0  0  0  0  0  0  0  0  0
  -31.0227  -16.4531   21.3353 C   0  0  0  0  0  0  0  0  0  1  0  0
  -24.1069  -13.5179   21.7730 C   0  0  1  0  0  0  0  0  0  0  0  0
  -24.2181  -10.7628   19.1717 C   0  0  2  0  0  0  0  0  0  0  0  0
  -23.5196  -13.2521   23.1878 C   0  0  0  0  0  0  0  0  0  0  0  0
  -34.2171  -24.0990   21.4120 C   0  0  0  0  0  0  0  0  0  0  0  0
  -26.2503  -26.2710   20.4577 N   0  0  0  0  0  0  0  0  0  0  0  0
  -33.4311  -22.6883   23.2030 N   0  0  0  0  0  0  0  0  0  0  0  0
  -33.9398  -22.7943   21.9637 N   0  0  0  0  0  0  0  0  0  0  0  0
  -27.4008  -26.2784   19.7633 N   0  0  0  0  0  0  0  0  0  0  0  0
  -24.5943  -15.7699   20.8704 N   0  0  0  0  0  0  0  0  0  0  0  0
  -29.8460  -23.4007   20.3533 N   0  0  0  0  0  0  0  0  0  0  0  0
  -28.9146  -27.7059   18.6313 N   0  0  0  0  0  0  0  0  0  0  0  0
  -25.7244  -30.5371   20.1154 N   0  0  0  0  0  0  0  0  0  0  0  0
  -23.2293  -18.9431   21.7637 N   0  0  0  0  0  0  0  0  0  0  0  0
  -23.8008  -12.4801   20.7943 N   0  0  0  0  0  0  0  0  0  0  0  0
  -32.0090  -24.3517   20.2498 N   0  0  0  0  0  0  0  0  0  0  0  0
  -25.0936  -10.6256   17.9735 N   0  3  0  0  0  0  0  0  0  0  0  0
  -27.6860  -30.3955   18.9360 O   0  0  0  0  0  0  0  0  0  0  0  0
  -25.0378  -17.7325   22.5920 O   0  0  0  0  0  0  0  0  0  0  0  0
  -22.4059  -14.9749   20.9919 O   0  0  0  0  0  0  0  0  0  0  0  0
  -26.0010  -11.9605   20.2781 O   0  0  0  0  0  0  0  0  0  0  0  0
  -31.7224  -22.0951   19.9621 O   0  0  0  0  0  0  0  0  0  0  0  0
  -21.2012  -29.1515   23.0575 O   0  0  0  0  0  0  0  0  0  0  0  0
  -30.5908  -16.9852   20.0837 O   0  0  0  0  0  0  0  0  0  1  0  0
  -16.6592  -26.1468   22.1935 F   0  0  0  0  0  0  0  0  0  0  0  0
  -18.9385  -30.2880   21.9478 F   0  0  0  0  0  0  0  0  0  0  0  0
  1  2  1  0  0  0  0
  1  5  2  0  0  0  0
  2  6  2  0  0  0  0
  3  8  2  0  0  0  0
  3 16  1  0  0  0  0
  4  9  1  0  0  0  0
  4 16  2  0  0  0  0
  5 18  1  0  0  0  0
  6 20  1  0  0  0  0
  7 10  2  0  0  0  0
  7 19  1  0  0  0  0
  8 23  1  0  0  0  0
  9 23  2  0  0  0  0
 10 24  1  0  0  0  0
 11 12  2  0  0  0  0
 11 25  1  0  0  0  0
 12 26  1  0  0  0  0
 13 21  1  0  0  0  0
 13 24  2  0  0  0  0
 14 26  2  0  0  0  0
 14 27  1  0  0  0  0
 15 22  2  0  0  0  0
 15 67  1  0  0  0  0
 16 28  1  0  0  0  0
 17 28  1  0  0  0  0
 17 30  2  0  0  0  0
 17 31  1  0  0  0  0
 18 20  2  0  0  0  0
 18 36  1  0  0  0  0
 19 21  2  0  0  0  0
 19 37  1  0  0  0  0
 20 45  1  0  0  0  0
 21 38  1  0  0  0  0
 22 29  1  0  0  0  0
 22 56  1  0  0  0  0
 23 82  1  0  0  0  0
 24 83  1  0  0  0  0
 25 27  2  0  0  0  0
 25 82  1  0  0  0  0
 26 84  1  0  0  0  0
 27 85  1  0  0  0  0
 28 65  2  0  0  0  0
 29 48  1  0  0  0  0
 29 66  2  0  0  0  0
 30 68  1  0  0  0  0
 30 71  1  0  0  0  0
 31 72  1  0  0  0  0
 31 77  2  0  0  0  0
 32 46  1  0  0  0  0
 32 73  1  0  0  0  0
 32 78  2  0  0  0  0
 33 61  1  0  0  0  0
 33 69  1  0  0  0  0
 33 79  2  0  0  0  0
 34 62  1  0  0  0  0
 34 74  1  0  0  0  0
 34 80  2  0  0  0  0
 35 70  1  0  0  0  0
 35 75  1  0  0  0  0
 35 81  2  0  0  0  0
 36 39  1  0  0  0  0
 37 46  1  0  0  0  0
 38 69  1  0  0  0  0
 39 41  1  0  0  0  0
 40 42  1  0  0  0  0
 40 43  1  0  0  0  0
 41 45  1  0  0  0  0
 42 47  1  0  0  0  0
 43 70  1  0  0  0  0
 44 47  1  0  0  0  0
 44 70  1  0  0  0  0
 45 73  1  0  0  0  0
 46 69  1  0  0  0  0
 47 68  1  0  0  0  0
 49 62  1  0  0  0  0
 50 63  1  0  0  0  0
 51 63  1  0  0  0  0
 52 63  1  0  0  0  0
 53 64  1  0  0  0  0
 54 64  1  0  0  0  0
 55 76  1  0  0  0  0
 56 57  1  0  0  0  0
 57 58  1  0  0  0  0
 58 60  1  0  0  0  0
 59 64  1  0  0  0  0
 59 75  1  0  0  0  0
 60 83  1  0  0  0  0
 61 63  1  0  0  0  0
 61 74  1  0  0  0  0
 62 76  1  0  0  0  0
 64 67  1  0  0  0  0
 65 68  1  0  0  0  0
 66 67  1  0  0  0  0
M  CHG  1  76   1
M  ISO  4  35 100  60 101  75 100  83 101
M  END
> <Batch ID>
0079

> <Smiles>
CNC(C)C(=O)NC(C(=O)N1Cc2cc([101O:1][101CH2:1]CCCc3cn(C(C)(C)C[100NH:0][100C:0](=O)N4CCCC(n5nc(-c6ccc(Oc7ccc(F)cc7F)cc6)c(C(N)=O)c5N)C4)nc3C)ccc2CC1C(=O)NC1CCCc2ccccc21)C(C)(C)C

> <Shape>
0.205

> <Color>
0.061

> <Negative vol penalty>
0.000

$$$$

  -OEChem-04052318413D

 87 95  0     1  0  0  0  0  0999 V2000
  -27.6761  -29.6907   31.7817 C   0  0  0  0  0  0  0  0  0  0  0  0
  -27.0152  -29.2730   30.6310 C   0  0  0  0  0  0  0  0  0  0  0  0
  -23.1534   -9.8630   19.9572 C   0  0  0  0  0  0  0  0  0  0  0  0
  -23.7947   -9.9681   22.2841 C   0  0  0  0  0  0  0  0  0  0  0  0
  -28.9545  -29.2107   32.0630 C   0  0  0  0  0  0  0  0  0  0  0  0
  -27.6328  -28.3759   29.7603 C   0  0  0  0  0  0  0  0  0  0  0  0
  -26.1084  -23.0059   25.2709 C   0  0  0  0  0  0  0  0  0  0  0  0
  -22.4315   -8.6963   20.2088 C   0  0  0  0  0  0  0  0  0  0  0  0
  -23.0728   -8.8014   22.5358 C   0  0  0  0  0  0  0  0  0  0  0  0
  -26.3333  -22.6059   23.9544 C   0  0  0  0  0  0  0  0  0  0  0  0
  -23.4881   -5.4735   22.1074 C   0  0  0  0  0  0  0  0  0  0  0  0
  -24.0956   -4.4915   22.8898 C   0  0  0  0  0  0  0  0  0  0  0  0
  -28.5117  -21.7823   24.5832 C   0  0  0  0  0  0  0  0  0  0  0  0
  -26.0509  -16.3254   23.8277 C   0  0  0  0  0  0  0  0  0  0  0  0
  -22.3050   -4.6684   24.5022 C   0  0  0  0  0  0  0  0  0  0  0  0
  -23.8350  -10.4989   20.9948 C   0  0  0  0  0  0  0  0  0  0  0  0
  -24.1091  -13.0281   20.8059 C   0  0  0  0  0  0  0  0  0  0  0  0
  -29.5843  -28.2999   31.2003 C   0  0  0  0  0  0  0  0  0  0  0  0
  -27.0894  -22.8066   26.2528 C   0  0  0  0  0  0  0  0  0  0  0  0
  -28.9214  -27.8844   30.0296 C   0  0  0  0  0  0  0  0  0  0  0  0
  -28.2957  -22.1783   25.9119 C   0  0  0  0  0  0  0  0  0  0  0  0
  -25.0122  -17.1880   23.4959 C   0  0  0  0  0  0  0  0  0  0  0  0
  -25.2113  -18.1676   22.5295 C   0  0  0  0  0  0  0  0  0  0  0  0
  -22.3912   -8.1655   21.4981 C   0  0  0  0  0  0  0  0  0  0  0  0
  -27.5362  -21.9966   23.6097 C   0  0  0  0  0  0  0  0  0  0  0  0
  -22.2890   -6.0530   22.5224 C   0  0  0  0  0  0  0  0  0  0  0  0
  -23.5041   -4.0890   24.0872 C   0  0  0  0  0  0  0  0  0  0  0  0
  -21.6975   -5.6504   23.7197 C   0  0  0  0  0  0  0  0  0  0  0  0
  -24.5814  -11.7038   20.7354 C   0  0  0  0  0  0  0  0  0  0  0  0
  -27.2599  -16.4825   23.1693 C   0  0  0  0  0  0  0  0  0  0  0  0
  -26.4578  -18.2424   21.9293 C   0  0  0  0  0  0  0  0  0  0  0  0
  -25.1962  -13.7985   20.4724 C   0  0  0  0  0  0  0  0  0  0  0  0
  -22.8045  -13.5180   21.1429 C   0  0  0  0  0  0  0  0  0  0  0  0
  -28.7980  -24.7138   28.1361 C   0  0  0  0  0  0  0  0  0  0  0  0
  -29.7936  -21.9065   29.4206 C   0  0  0  0  0  0  0  0  0  0  0  0
  -30.9609  -13.8355   21.1891 C   0  0  0  0  0  0  0  0  0  0  0  0
  -30.2783  -18.5512   29.0282 C   0  0  0  0  0  0  0  0  0  0  0  0
  -30.9859  -27.8453   31.5221 C   0  0  0  0  0  0  0  0  0  0  0  0
  -26.8207  -23.2197   27.6739 C   0  0  0  0  0  0  0  0  0  0  0  0
  -29.3731  -21.9231   26.9330 C   0  0  0  0  0  0  0  0  0  0  0  0
  -31.4195  -26.6080   30.7403 C   0  0  0  0  0  0  0  0  0  0  0  0
  -29.4277  -13.0106   18.0572 C   0  0  0  0  0  0  0  0  0  0  0  0
  -31.0638  -26.7571   29.2645 C   0  0  0  0  0  0  0  0  0  0  0  0
  -27.9837  -12.6871   18.4386 C   0  0  0  0  0  0  0  0  0  0  0  0
  -30.4045  -12.5661   19.1414 C   0  0  0  0  0  0  0  0  0  0  0  0
  -28.6588  -12.7982   20.8793 C   0  0  0  0  0  0  0  0  0  0  0  0
  -29.5484  -26.8932   29.0733 C   0  0  1  0  0  0  0  0  0  0  0  0
  -28.0949  -23.4327   28.4854 C   0  0  1  0  0  0  0  0  0  0  0  0
  -27.6368  -13.2585   19.8248 C   0  0  2  0  0  0  0  0  0  0  0  0
  -24.1145  -19.1054   22.1513 C   0  0  0  0  0  0  0  0  0  0  0  0
  -23.4918  -18.1088   25.2643 C   0  0  0  0  0  0  0  0  0  0  0  0
  -31.1424  -16.5307   30.2399 C   0  0  0  0  0  0  0  0  0  0  0  0
  -31.6768  -15.1263   23.1516 C   0  0  0  0  0  0  0  0  0  0  0  0
  -30.1109  -13.1938   23.4254 C   0  0  0  0  0  0  0  0  0  0  0  0
  -32.6566  -22.8468   28.9421 C   0  0  0  0  0  0  0  0  0  0  0  0
  -33.4133  -20.4823   29.2656 C   0  0  0  0  0  0  0  0  0  0  0  0
  -32.2886  -21.6966   31.1320 C   0  0  0  0  0  0  0  0  0  0  0  0
  -27.6537  -17.1924   28.8734 C   0  0  0  0  0  0  0  0  0  0  0  0
  -23.6989  -17.0438   24.1913 C   0  0  0  0  0  0  0  0  0  0  0  0
  -28.3967  -15.5737   23.4988 C   0  0  0  0  0  0  0  0  0  0  0  0
  -26.7341  -19.2825   20.8731 C   0  0  0  0  0  0  0  0  0  0  0  0
  -29.3280  -15.3513   22.2904 C   0  0  0  0  0  0  0  0  0  0  0  0
  -28.1863  -19.7642   20.8481 C   0  0  0  0  0  0  0  0  0  0  0  0
  -28.6084  -20.4765   22.1279 C   0  0  0  0  0  0  0  0  0  1  0  0
  -30.9228  -20.9441   29.1419 C   0  0  1  0  0  0  0  0  0  0  0  0
  -29.9180  -17.3712   29.9126 C   0  0  2  0  0  0  0  0  0  0  0  0
  -30.4982  -14.3686   22.5217 C   0  0  0  0  0  0  0  0  0  0  0  0
  -32.3010  -21.4989   29.6005 C   0  0  0  0  0  0  0  0  0  0  0  0
  -25.8682  -11.6332   20.3844 N   0  0  0  0  0  0  0  0  0  0  0  0
  -27.4909  -17.4222   22.2252 N   0  0  0  0  0  0  0  0  0  0  0  0
  -26.2137  -12.9229   20.2314 N   0  0  0  0  0  0  0  0  0  0  0  0
  -29.0656  -22.3508   28.3078 N   0  0  0  0  0  0  0  0  0  0  0  0
  -30.0278  -13.1115   20.4467 N   0  0  0  0  0  0  0  0  0  0  0  0
  -25.3713  -15.1327   20.3646 N   0  0  0  0  0  0  0  0  0  0  0  0
  -21.8035  -12.5897   21.4600 N   0  0  0  0  0  0  0  0  0  0  0  0
  -28.9063  -25.6014   29.1897 N   0  0  0  0  0  0  0  0  0  0  0  0
  -30.5478  -19.6819   29.7700 N   0  0  0  0  0  0  0  0  0  0  0  0
  -28.9183  -16.5002   29.2322 N   0  3  0  0  0  0  0  0  0  0  0  0
  -22.5300  -14.7420   21.1463 O   0  0  0  0  0  0  0  0  0  0  0  0
  -29.2129  -24.8839   26.9957 O   0  0  0  0  0  0  0  0  0  0  0  0
  -29.5613  -22.2457   30.5836 O   0  0  0  0  0  0  0  0  0  0  0  0
  -32.1165  -14.0594   20.8195 O   0  0  0  0  0  0  0  0  0  0  0  0
  -30.3204  -18.4764   27.8022 O   0  0  0  0  0  0  0  0  0  0  0  0
  -21.6867   -7.0272   21.7441 O   0  0  0  0  0  0  0  0  0  0  0  0
  -27.7586  -21.6058   22.3253 O   0  0  0  0  0  0  0  0  0  1  0  0
  -24.0869   -3.1449   24.8377 F   0  0  0  0  0  0  0  0  0  0  0  0
  -20.5450   -6.2026   24.1230 F   0  0  0  0  0  0  0  0  0  0  0  0
  1  2  1  0  0  0  0
  1  5  2  0  0  0  0
  2  6  2  0  0  0  0
  3  8  2  0  0  0  0
  3 16  1  0  0  0  0
  4  9  1  0  0  0  0
  4 16  2  0  0  0  0
  5 18  1  0  0  0  0
  6 20  1  0  0  0  0
  7 10  2  0  0  0  0
  7 19  1  0  0  0  0
  8 24  1  0  0  0  0
  9 24  2  0  0  0  0
 10 25  1  0  0  0  0
 11 12  2  0  0  0  0
 11 26  1  0  0  0  0
 12 27  1  0  0  0  0
 13 21  1  0  0  0  0
 13 25  2  0  0  0  0
 14 22  1  0  0  0  0
 14 30  2  0  0  0  0
 15 27  2  0  0  0  0
 15 28  1  0  0  0  0
 16 29  1  0  0  0  0
 17 29  1  0  0  0  0
 17 32  2  0  0  0  0
 17 33  1  0  0  0  0
 18 20  2  0  0  0  0
 18 38  1  0  0  0  0
 19 21  2  0  0  0  0
 19 39  1  0  0  0  0
 20 47  1  0  0  0  0
 21 40  1  0  0  0  0
 22 23  2  0  0  0  0
 22 59  1  0  0  0  0
 23 31  1  0  0  0  0
 23 50  1  0  0  0  0
 24 84  1  0  0  0  0
 25 85  1  0  0  0  0
 26 28  2  0  0  0  0
 26 84  1  0  0  0  0
 27 86  1  0  0  0  0
 28 87  1  0  0  0  0
 29 69  2  0  0  0  0
 30 60  1  0  0  0  0
 30 70  1  0  0  0  0
 31 61  1  0  0  0  0
 31 70  2  0  0  0  0
 32 71  1  0  0  0  0
 32 74  1  0  0  0  0
 33 75  1  0  0  0  0
 33 79  2  0  0  0  0
 34 48  1  0  0  0  0
 34 76  1  0  0  0  0
 34 80  2  0  0  0  0
 35 65  1  0  0  0  0
 35 72  1  0  0  0  0
 35 81  2  0  0  0  0
 36 67  1  0  0  0  0
 36 73  1  0  0  0  0
 36 82  2  0  0  0  0
 37 66  1  0  0  0  0
 37 77  1  0  0  0  0
 37 83  2  0  0  0  0
 38 41  1  0  0  0  0
 39 48  1  0  0  0  0
 40 72  1  0  0  0  0
 41 43  1  0  0  0  0
 42 44  1  0  0  0  0
 42 45  1  0  0  0  0
 43 47  1  0  0  0  0
 44 49  1  0  0  0  0
 45 73  1  0  0  0  0
 46 49  1  0  0  0  0
 46 73  1  0  0  0  0
 47 76  1  0  0  0  0
 48 72  1  0  0  0  0
 49 71  1  0  0  0  0
 51 59  1  0  0  0  0
 52 66  1  0  0  0  0
 53 67  1  0  0  0  0
 54 67  1  0  0  0  0
 55 68  1  0  0  0  0
 56 68  1  0  0  0  0
 57 68  1  0  0  0  0
 58 78  1  0  0  0  0
 60 62  1  0  0  0  0
 61 63  1  0  0  0  0
 62 67  1  0  0  0  0
 63 64  1  0  0  0  0
 64 85  1  0  0  0  0
 65 68  1  0  0  0  0
 65 77  1  0  0  0  0
 66 78  1  0  0  0  0
 69 71  1  0  0  0  0
M  CHG  1  78   1
M  ISO  4  36 100  64 101  67 100  85 101
M  END
> <Batch ID>
0079

> <Smiles>
CCc1cc(CC[100C:0](C)(C)[100C:0](=O)N2CCCC(n3nc(-c4ccc(Oc5ccc(F)cc5F)cc4)c(C(N)=O)c3N)C2)nc(CC[101CH2:1][101O:1]c2ccc3c(c2)CN(C(=O)C(NC(=O)C(C)NC)C(C)(C)C)C(C(=O)NC2CCCc4ccccc42)C3)c1C

> <Shape>
0.169

> <Color>
0.184

> <Negative vol penalty>
0.000

$$$$

  -OEChem-04052318413D

 80 87  0     1  0  0  0  0  0999 V2000
  -30.7820  -24.4435   17.7630 C   0  0  0  0  0  0  0  0  0  0  0  0
  -29.4462  -24.5138   18.1451 C   0  0  0  0  0  0  0  0  0  0  0  0
  -27.9290  -15.2264   21.5136 C   0  0  0  0  0  0  0  0  0  0  0  0
  -26.1329  -15.7167   19.9739 C   0  0  0  0  0  0  0  0  0  0  0  0
  -31.7620  -25.0573   18.5420 C   0  0  0  0  0  0  0  0  0  0  0  0
  -29.0896  -25.1973   19.3071 C   0  0  0  0  0  0  0  0  0  0  0  0
  -25.0484  -28.1766   18.6462 C   0  0  0  0  0  0  0  0  0  0  0  0
  -27.4732  -13.9131   21.6272 C   0  0  0  0  0  0  0  0  0  0  0  0
  -25.6770  -14.4034   20.0875 C   0  0  0  0  0  0  0  0  0  0  0  0
  -23.7980  -27.5600   18.6338 C   0  0  0  0  0  0  0  0  0  0  0  0
  -23.8275  -11.2788   20.2494 C   0  0  0  0  0  0  0  0  0  0  0  0
  -22.4566  -11.0802   20.4130 C   0  0  0  0  0  0  0  0  0  0  0  0
  -23.4531  -28.2270   20.9262 C   0  0  0  0  0  0  0  0  0  0  0  0
  -22.5133  -12.3703   22.4549 C   0  0  0  0  0  0  0  0  0  0  0  0
  -27.2589  -16.1283   20.6870 C   0  0  0  0  0  0  0  0  0  0  0  0
  -28.6614  -17.9846   19.6406 C   0  0  0  0  0  0  0  0  0  0  0  0
  -31.4162  -25.7568   19.7090 C   0  0  0  0  0  0  0  0  0  0  0  0
  -25.5159  -28.8146   19.8041 C   0  0  0  0  0  0  0  0  0  0  0  0
  -30.0660  -25.8199   20.1032 C   0  0  0  0  0  0  0  0  0  0  0  0
  -24.7086  -28.8531   20.9499 C   0  0  0  0  0  0  0  0  0  0  0  0
  -26.3472  -13.5015   20.9141 C   0  0  0  0  0  0  0  0  0  0  0  0
  -23.0013  -27.5826   19.7748 C   0  0  0  0  0  0  0  0  0  0  0  0
  -24.5413  -12.0231   21.1887 C   0  0  0  0  0  0  0  0  0  0  0  0
  -21.7995  -11.6260   21.5157 C   0  0  0  0  0  0  0  0  0  0  0  0
  -23.8842  -12.5689   22.2914 C   0  0  0  0  0  0  0  0  0  0  0  0
  -27.7289  -17.4852   20.5697 C   0  0  0  0  0  0  0  0  0  0  0  0
  -28.7657  -19.3203   19.9430 C   0  0  0  0  0  0  0  0  0  0  0  0
  -29.3698  -17.3020   18.5976 C   0  0  0  0  0  0  0  0  0  0  0  0
  -27.9903  -28.3926   21.7541 C   0  0  0  0  0  0  0  0  0  0  0  0
  -26.8996  -31.1356   23.0989 C   0  0  0  0  0  0  0  0  0  0  0  0
  -24.2777  -33.2502   23.6477 C   0  0  0  0  0  0  0  0  0  0  0  0
  -25.0597  -23.2012   22.5991 C   0  0  0  0  0  0  0  0  0  0  0  0
  -32.5156  -26.3641   20.5440 C   0  0  0  0  0  0  0  0  0  0  0  0
  -26.8557  -29.4981   19.7929 C   0  0  0  0  0  0  0  0  0  0  0  0
  -25.1558  -29.5424   22.2122 C   0  0  0  0  0  0  0  0  0  0  0  0
  -32.0144  -27.3871   21.5601 C   0  0  0  0  0  0  0  0  0  0  0  0
  -28.3723  -22.3720   23.6068 C   0  0  0  0  0  0  0  0  0  0  0  0
  -30.7988  -26.8468   22.3065 C   0  0  0  0  0  0  0  0  0  0  0  0
  -28.6672  -21.0706   22.8588 C   0  0  0  0  0  0  0  0  0  0  0  0
  -26.9149  -22.4465   24.0568 C   0  0  0  0  0  0  0  0  0  0  0  0
  -26.2191  -20.9384   22.2360 C   0  0  0  0  0  0  0  0  0  0  0  0
  -29.6370  -26.5731   21.3437 C   0  0  1  0  0  0  0  0  0  0  0  0
  -27.4482  -29.6744   21.1876 C   0  0  1  0  0  0  0  0  0  0  0  0
  -27.6627  -20.8422   21.7134 C   0  0  2  0  0  0  0  0  0  0  0  0
  -23.6844  -35.3909   24.8150 C   0  0  0  0  0  0  0  0  0  0  0  0
  -26.8786  -29.6683   25.7741 C   0  0  0  0  0  0  0  0  0  0  0  0
  -25.4198  -31.4892   26.6822 C   0  0  0  0  0  0  0  0  0  0  0  0
  -27.7216  -32.0204   25.8810 C   0  0  0  0  0  0  0  0  0  0  0  0
  -22.5204  -22.3810   19.1222 C   0  0  0  0  0  0  0  0  0  0  0  0
  -21.4828  -22.0630   21.3530 C   0  0  0  0  0  0  0  0  0  0  0  0
  -19.8203  -24.7898   22.1424 C   0  0  0  0  0  0  0  0  0  0  0  0
  -19.0882  -25.8359   20.0172 C   0  0  0  0  0  0  0  0  0  0  0  0
  -23.5290  -34.5651   21.1042 C   0  0  0  0  0  0  0  0  0  0  0  0
  -20.8958  -24.1197   19.8998 C   0  0  0  0  0  0  0  0  0  0  0  0
  -23.2259  -23.8242   21.0473 C   0  0  0  0  0  0  0  0  0  0  0  0
  -21.3052  -26.4531   21.0008 C   0  0  0  0  0  0  0  0  0  1  0  0
  -25.9184  -31.4720   24.1958 C   0  0  1  0  0  0  0  0  0  0  0  0
  -24.1543  -34.7573   23.5147 C   0  0  2  0  0  0  0  0  0  0  0  0
  -26.4767  -31.1477   25.6102 C   0  0  0  0  0  0  0  0  0  0  0  0
  -22.0101  -23.1310   20.3826 C   0  0  0  0  0  0  0  0  0  0  0  0
  -20.3282  -25.2867   20.7744 C   0  0  0  0  0  0  0  0  0  0  0  0
  -27.2735  -18.4270   21.4001 N   0  0  0  0  0  0  0  0  0  0  0  0
  -27.9226  -19.5315   20.9940 N   0  0  0  0  0  0  0  0  0  0  0  0
  -26.4763  -30.1908   22.1535 N   0  0  0  0  0  0  0  0  0  0  0  0
  -26.0141  -22.2230   22.9234 N   0  0  0  0  0  0  0  0  0  0  0  0
  -29.4956  -20.3230   19.4097 N   0  0  0  0  0  0  0  0  0  0  0  0
  -29.1446  -15.9296   18.4243 N   0  0  0  0  0  0  0  0  0  0  0  0
  -28.9777  -27.8098   20.9828 N   0  0  0  0  0  0  0  0  0  0  0  0
  -25.5550  -32.8717   24.0033 N   0  0  0  0  0  0  0  0  0  0  0  0
  -24.2502  -22.9132   21.5071 N   0  0  0  0  0  0  0  0  0  0  0  0
  -23.1785  -35.1046   22.4432 N   0  3  0  0  0  0  0  0  0  0  0  0
  -30.1908  -17.8884   17.8521 O   0  0  0  0  0  0  0  0  0  0  0  0
  -27.5468  -27.9650   22.8134 O   0  0  0  0  0  0  0  0  0  0  0  0
  -27.9983  -31.6961   23.0775 O   0  0  0  0  0  0  0  0  0  0  0  0
  -23.3343  -32.4854   23.4588 O   0  0  0  0  0  0  0  0  0  0  0  0
  -24.9415  -24.2558   23.2323 O   0  0  0  0  0  0  0  0  0  0  0  0
  -25.9022  -12.2200   21.0245 O   0  0  0  0  0  0  0  0  0  0  0  0
  -21.7715  -26.9765   19.7655 O   0  0  0  0  0  0  0  0  0  1  0  0
  -20.4827  -11.4365   21.6718 F   0  0  0  0  0  0  0  0  0  0  0  0
  -24.5645  -13.2858   23.1964 F   0  0  0  0  0  0  0  0  0  0  0  0
  1  2  1  0  0  0  0
  1  5  2  0  0  0  0
  2  6  2  0  0  0  0
  3  8  2  0  0  0  0
  3 15  1  0  0  0  0
  4  9  1  0  0  0  0
  4 15  2  0  0  0  0
  5 17  1  0  0  0  0
  6 19  1  0  0  0  0
  7 10  2  0  0  0  0
  7 18  1  0  0  0  0
  8 21  1  0  0  0  0
  9 21  2  0  0  0  0
 10 22  1  0  0  0  0
 11 12  2  0  0  0  0
 11 23  1  0  0  0  0
 12 24  1  0  0  0  0
 13 20  1  0  0  0  0
 13 22  2  0  0  0  0
 14 24  2  0  0  0  0
 14 25  1  0  0  0  0
 15 26  1  0  0  0  0
 16 26  1  0  0  0  0
 16 27  2  0  0  0  0
 16 28  1  0  0  0  0
 17 19  2  0  0  0  0
 17 33  1  0  0  0  0
 18 20  2  0  0  0  0
 18 34  1  0  0  0  0
 19 42  1  0  0  0  0
 20 35  1  0  0  0  0
 21 77  1  0  0  0  0
 22 78  1  0  0  0  0
 23 25  2  0  0  0  0
 23 77  1  0  0  0  0
 24 79  1  0  0  0  0
 25 80  1  0  0  0  0
 26 62  2  0  0  0  0
 27 63  1  0  0  0  0
 27 66  1  0  0  0  0
 28 67  1  0  0  0  0
 28 72  2  0  0  0  0
 29 43  1  0  0  0  0
 29 68  1  0  0  0  0
 29 73  2  0  0  0  0
 30 57  1  0  0  0  0
 30 64  1  0  0  0  0
 30 74  2  0  0  0  0
 31 58  1  0  0  0  0
 31 69  1  0  0  0  0
 31 75  2  0  0  0  0
 32 65  1  0  0  0  0
 32 70  1  0  0  0  0
 32 76  2  0  0  0  0
 33 36  1  0  0  0  0
 34 43  1  0  0  0  0
 35 64  1  0  0  0  0
 36 38  1  0  0  0  0
 37 39  1  0  0  0  0
 37 40  1  0  0  0  0
 38 42  1  0  0  0  0
 39 44  1  0  0  0  0
 40 65  1  0  0  0  0
 41 44  1  0  0  0  0
 41 65  1  0  0  0  0
 42 68  1  0  0  0  0
 43 64  1  0  0  0  0
 44 63  1  0  0  0  0
 45 58  1  0  0  0  0
 46 59  1  0  0  0  0
 47 59  1  0  0  0  0
 48 59  1  0  0  0  0
 49 60  1  0  0  0  0
 50 60  1  0  0  0  0
 51 61  1  0  0  0  0
 52 61  1  0  0  0  0
 53 71  1  0  0  0  0
 54 60  1  0  0  0  0
 54 61  1  0  0  0  0
 55 60  1  0  0  0  0
 55 70  1  0  0  0  0
 56 61  1  0  0  0  0
 56 78  1  0  0  0  0
 57 59  1  0  0  0  0
 57 69  1  0  0  0  0
 58 71  1  0  0  0  0
 62 63  1  0  0  0  0
M  CHG  1  71   1
M  ISO  4  32 100  56 101  70 100  78 101
M  END
> <Batch ID>
0079

> <Smiles>
CNC(C)C(=O)NC(C(=O)N1Cc2cc([101O:1][101CH2:1]C(C)(C)CC(C)(C)C[100NH:0][100C:0](=O)N3CCCC(n4nc(-c5ccc(Oc6ccc(F)cc6F)cc5)c(C(N)=O)c4N)C3)ccc2CC1C(=O)NC1CCCc2ccccc21)C(C)(C)C

> <Shape>
0.284

> <Color>
0.065

> <Negative vol penalty>
0.000

$$$$

  -OEChem-04052318413D

 84 92  0     1  0  0  0  0  0999 V2000
  -19.0229  -22.4216   23.9734 C   0  0  0  0  0  0  0  0  0  0  0  0
  -20.3761  -22.2953   24.2710 C   0  0  0  0  0  0  0  0  0  0  0  0
  -26.1854  -13.6132   21.7098 C   0  0  0  0  0  0  0  0  0  0  0  0
  -24.9288  -14.9158   20.1094 C   0  0  0  0  0  0  0  0  0  0  0  0
  -18.6099  -23.2951   22.9684 C   0  0  0  0  0  0  0  0  0  0  0  0
  -21.3171  -23.0419   23.5628 C   0  0  0  0  0  0  0  0  0  0  0  0
  -27.6547  -26.2747   24.3997 C   0  0  0  0  0  0  0  0  0  0  0  0
  -25.1295  -12.7063   21.8008 C   0  0  0  0  0  0  0  0  0  0  0  0
  -23.8729  -14.0089   20.2004 C   0  0  0  0  0  0  0  0  0  0  0  0
  -28.9208  -26.3297   23.8186 C   0  0  0  0  0  0  0  0  0  0  0  0
  -23.8976  -10.1280   19.9931 C   0  0  0  0  0  0  0  0  0  0  0  0
  -24.2063   -8.7682   19.9600 C   0  0  0  0  0  0  0  0  0  0  0  0
  -28.0849  -27.8661   22.1572 C   0  0  0  0  0  0  0  0  0  0  0  0
  -29.1470  -24.7463   19.6816 C   0  0  0  0  0  0  0  0  0  0  0  0
  -23.2184   -8.4906   22.1473 C   0  0  0  0  0  0  0  0  0  0  0  0
  -26.0850  -14.7180   20.8642 C   0  0  0  0  0  0  0  0  0  0  0  0
  -28.2626  -15.6079   19.8774 C   0  0  0  0  0  0  0  0  0  0  0  0
  -19.5456  -24.0599   22.2541 C   0  0  0  0  0  0  0  0  0  0  0  0
  -26.5898  -27.0077   23.8565 C   0  0  0  0  0  0  0  0  0  0  0  0
  -20.9163  -23.9255   22.5463 C   0  0  0  0  0  0  0  0  0  0  0  0
  -26.8069  -27.8207   22.7349 C   0  0  0  0  0  0  0  0  0  0  0  0
  -30.5255  -24.6531   19.5258 C   0  0  0  0  0  0  0  0  0  0  0  0
  -31.1036  -23.4260   19.2202 C   0  0  0  0  0  0  0  0  0  0  0  0
  -23.9733  -12.9041   21.0461 C   0  0  0  0  0  0  0  0  0  0  0  0
  -29.1354  -27.1232   22.6955 C   0  0  0  0  0  0  0  0  0  0  0  0
  -23.2493  -10.6692   21.1034 C   0  0  0  0  0  0  0  0  0  0  0  0
  -23.8667   -7.9495   21.0371 C   0  0  0  0  0  0  0  0  0  0  0  0
  -22.9097   -9.8505   22.1804 C   0  0  0  0  0  0  0  0  0  0  0  0
  -27.1752  -15.6554   20.7702 C   0  0  0  0  0  0  0  0  0  0  0  0
  -28.3968  -23.5923   19.5227 C   0  0  0  0  0  0  0  0  0  0  0  0
  -30.2658  -22.3310   19.0822 C   0  0  0  0  0  0  0  0  0  0  0  0
  -29.0118  -16.7159   20.1897 C   0  0  0  0  0  0  0  0  0  0  0  0
  -28.5681  -14.6482   18.8570 C   0  0  0  0  0  0  0  0  0  0  0  0
  -23.7771  -26.2639   22.5762 C   0  0  0  0  0  0  0  0  0  0  0  0
  -23.3653  -29.4815   22.5755 C   0  0  0  0  0  0  0  0  0  0  0  0
  -24.7864  -32.5842   22.5793 C   0  0  0  0  0  0  0  0  0  0  0  0
  -27.6622  -21.9670   22.7304 C   0  0  0  0  0  0  0  0  0  0  0  0
  -19.0553  -24.9557   21.1442 C   0  0  0  0  0  0  0  0  0  0  0  0
  -25.2364  -26.9585   24.5111 C   0  0  0  0  0  0  0  0  0  0  0  0
  -25.7018  -28.6427   22.1254 C   0  0  0  0  0  0  0  0  0  0  0  0
  -20.0853  -25.9891   20.6955 C   0  0  0  0  0  0  0  0  0  0  0  0
  -30.0783  -19.6044   23.8517 C   0  0  0  0  0  0  0  0  0  0  0  0
  -21.4494  -25.3343   20.5026 C   0  0  0  0  0  0  0  0  0  0  0  0
  -29.7063  -18.3202   23.1085 C   0  0  0  0  0  0  0  0  0  0  0  0
  -28.8402  -20.4048   24.2497 C   0  0  0  0  0  0  0  0  0  0  0  0
  -27.5435  -19.4230   22.3981 C   0  0  0  0  0  0  0  0  0  0  0  0
  -21.9654  -24.7367   21.8172 C   0  0  1  0  0  0  0  0  0  0  0  0
  -24.1019  -27.3454   23.5675 C   0  0  1  0  0  0  0  0  0  0  0  0
  -28.7612  -18.6097   21.9269 C   0  0  2  0  0  0  0  0  0  0  0  0
  -32.5793  -23.2963   19.0449 C   0  0  0  0  0  0  0  0  0  0  0  0
  -30.8281  -20.9867   18.7529 C   0  0  0  0  0  0  0  0  0  0  0  0
  -24.1939  -35.0224   22.5388 C   0  0  0  0  0  0  0  0  0  0  0  0
  -22.7182  -29.2724   19.6010 C   0  0  0  0  0  0  0  0  0  0  0  0
  -23.0734  -31.7442   19.4212 C   0  0  0  0  0  0  0  0  0  0  0  0
  -21.2569  -30.8496   20.8782 C   0  0  0  0  0  0  0  0  0  0  0  0
  -26.0893  -33.0632   25.1931 C   0  0  0  0  0  0  0  0  0  0  0  0
  -31.3678  -25.8921   19.6956 C   0  0  0  0  0  0  0  0  0  0  0  0
  -26.9143  -23.6550   19.6813 C   0  0  0  0  0  0  0  0  0  0  0  0
  -32.1156  -25.9505   21.0294 C   0  0  0  0  0  0  0  0  0  0  0  0
  -26.4398  -23.4031   21.1172 C   0  0  0  0  0  0  0  0  0  0  0  0
  -31.1896  -26.0154   22.2384 C   0  0  0  0  0  0  0  0  0  1  0  0
  -23.6654  -30.5975   21.6042 C   0  0  1  0  0  0  0  0  0  0  0  0
  -24.5059  -33.8196   23.4157 C   0  0  2  0  0  0  0  0  0  0  0  0
  -22.6991  -30.5991   20.3862 C   0  0  0  0  0  0  0  0  0  0  0  0
  -27.2254  -16.7100   21.5883 N   0  0  0  0  0  0  0  0  0  0  0  0
  -28.9226  -22.3827   19.2260 N   0  0  0  0  0  0  0  0  0  0  0  0
  -28.3535  -17.3354   21.2110 N   0  0  0  0  0  0  0  0  0  0  0  0
  -24.3949  -28.5561   22.7978 N   0  0  0  0  0  0  0  0  0  0  0  0
  -27.9869  -20.6469   23.0839 N   0  0  0  0  0  0  0  0  0  0  0  0
  -30.1630  -17.2109   19.6876 N   0  0  0  0  0  0  0  0  0  0  0  0
  -27.6917  -13.5707   18.6693 N   0  0  0  0  0  0  0  0  0  0  0  0
  -22.4871  -25.7785   22.6755 N   0  0  0  0  0  0  0  0  0  0  0  0
  -23.6481  -31.8315   22.3823 N   0  0  0  0  0  0  0  0  0  0  0  0
  -26.8541  -22.1080   21.6088 N   0  0  0  0  0  0  0  0  0  0  0  0
  -25.6859  -34.1498   24.2639 N   0  3  0  0  0  0  0  0  0  0  0  0
  -29.5967  -14.7343   18.1442 O   0  0  0  0  0  0  0  0  0  0  0  0
  -24.6330  -25.8980   21.7791 O   0  0  0  0  0  0  0  0  0  0  0  0
  -22.2605  -29.4366   23.1224 O   0  0  0  0  0  0  0  0  0  0  0  0
  -25.9029  -32.3159   22.1412 O   0  0  0  0  0  0  0  0  0  0  0  0
  -28.0670  -22.9476   23.3641 O   0  0  0  0  0  0  0  0  0  0  0  0
  -22.9428  -12.0193   21.1344 O   0  0  0  0  0  0  0  0  0  0  0  0
  -30.3701  -27.1782   22.1259 O   0  0  0  0  0  0  0  0  0  1  0  0
  -24.1619   -6.6433   21.0045 F   0  0  0  0  0  0  0  0  0  0  0  0
  -22.2858  -10.3645   23.2492 F   0  0  0  0  0  0  0  0  0  0  0  0
  1  2  1  0  0  0  0
  1  5  2  0  0  0  0
  2  6  2  0  0  0  0
  3  8  2  0  0  0  0
  3 16  1  0  0  0  0
  4  9  1  0  0  0  0
  4 16  2  0  0  0  0
  5 18  1  0  0  0  0
  6 20  1  0  0  0  0
  7 10  2  0  0  0  0
  7 19  1  0  0  0  0
  8 24  1  0  0  0  0
  9 24  2  0  0  0  0
 10 25  1  0  0  0  0
 11 12  2  0  0  0  0
 11 26  1  0  0  0  0
 12 27  1  0  0  0  0
 13 21  1  0  0  0  0
 13 25  2  0  0  0  0
 14 22  1  0  0  0  0
 14 30  2  0  0  0  0
 15 27  2  0  0  0  0
 15 28  1  0  0  0  0
 16 29  1  0  0  0  0
 17 29  1  0  0  0  0
 17 32  2  0  0  0  0
 17 33  1  0  0  0  0
 18 20  2  0  0  0  0
 18 38  1  0  0  0  0
 19 21  2  0  0  0  0
 19 39  1  0  0  0  0
 20 47  1  0  0  0  0
 21 40  1  0  0  0  0
 22 23  2  0  0  0  0
 22 57  1  0  0  0  0
 23 31  1  0  0  0  0
 23 50  1  0  0  0  0
 24 81  1  0  0  0  0
 25 82  1  0  0  0  0
 26 28  2  0  0  0  0
 26 81  1  0  0  0  0
 27 83  1  0  0  0  0
 28 84  1  0  0  0  0
 29 65  2  0  0  0  0
 30 58  1  0  0  0  0
 30 66  1  0  0  0  0
 31 51  1  0  0  0  0
 31 66  2  0  0  0  0
 32 67  1  0  0  0  0
 32 70  1  0  0  0  0
 33 71  1  0  0  0  0
 33 76  2  0  0  0  0
 34 48  1  0  0  0  0
 34 72  1  0  0  0  0
 34 77  2  0  0  0  0
 35 62  1  0  0  0  0
 35 68  1  0  0  0  0
 35 78  2  0  0  0  0
 36 63  1  0  0  0  0
 36 73  1  0  0  0  0
 36 79  2  0  0  0  0
 37 69  1  0  0  0  0
 37 74  1  0  0  0  0
 37 80  2  0  0  0  0
 38 41  1  0  0  0  0
 39 48  1  0  0  0  0
 40 68  1  0  0  0  0
 41 43  1  0  0  0  0
 42 44  1  0  0  0  0
 42 45  1  0  0  0  0
 43 47  1  0  0  0  0
 44 49  1  0  0  0  0
 45 69  1  0  0  0  0
 46 49  1  0  0  0  0
 46 69  1  0  0  0  0
 47 72  1  0  0  0  0
 48 68  1  0  0  0  0
 49 67  1  0  0  0  0
 52 63  1  0  0  0  0
 53 64  1  0  0  0  0
 54 64  1  0  0  0  0
 55 64  1  0  0  0  0
 56 75  1  0  0  0  0
 57 59  1  0  0  0  0
 58 60  1  0  0  0  0
 59 61  1  0  0  0  0
 60 74  1  0  0  0  0
 61 82  1  0  0  0  0
 62 64  1  0  0  0  0
 62 73  1  0  0  0  0
 63 75  1  0  0  0  0
 65 67  1  0  0  0  0
M  CHG  1  75   1
M  ISO  4  37 100  61 101  74 100  82 101
M  END
> <Batch ID>
0079

> <Smiles>
CNC(C)C(=O)NC(C(=O)N1Cc2cc([101O:1][101CH2:1]CCc3cc(CC[100NH:0][100C:0](=O)N4CCCC(n5nc(-c6ccc(Oc7ccc(F)cc7F)cc6)c(C(N)=O)c5N)C4)nc(C)c3C)ccc2CC1C(=O)NC1CCCc2ccccc21)C(C)(C)C

> <Shape>
0.234

> <Color>
0.068

> <Negative vol penalty>
0.000

$$$$

  -OEChem-04052318413D

 84 92  0     1  0  0  0  0  0999 V2000
  -27.1817  -24.4688   30.9444 C   0  0  0  0  0  0  0  0  0  0  0  0
  -27.8150  -24.5392   29.7078 C   0  0  0  0  0  0  0  0  0  0  0  0
  -25.8634  -15.8446   20.5408 C   0  0  0  0  0  0  0  0  0  0  0  0
  -26.0226  -16.1413   18.1484 C   0  0  0  0  0  0  0  0  0  0  0  0
  -25.7912  -24.3915   31.0108 C   0  0  0  0  0  0  0  0  0  0  0  0
  -27.0582  -24.5313   28.5366 C   0  0  0  0  0  0  0  0  0  0  0  0
  -28.2879  -27.5261   23.3381 C   0  0  0  0  0  0  0  0  0  0  0  0
  -25.3473  -14.5633   20.3476 C   0  0  0  0  0  0  0  0  0  0  0  0
  -25.5065  -14.8599   17.9551 C   0  0  0  0  0  0  0  0  0  0  0  0
  -28.8787  -27.1237   22.1411 C   0  0  0  0  0  0  0  0  0  0  0  0
  -26.5328  -11.4880   19.5926 C   0  0  0  0  0  0  0  0  0  0  0  0
  -27.0462  -10.4569   20.3793 C   0  0  0  0  0  0  0  0  0  0  0  0
  -26.6916  -26.7493   21.1946 C   0  0  0  0  0  0  0  0  0  0  0  0
  -31.1224  -24.7035   17.5496 C   0  0  0  0  0  0  0  0  0  0  0  0
  -24.8414  -10.0439   21.2768 C   0  0  0  0  0  0  0  0  0  0  0  0
  -26.2011  -16.6337   19.4412 C   0  0  0  0  0  0  0  0  0  0  0  0
  -28.0880  -18.3177   19.7746 C   0  0  0  0  0  0  0  0  0  0  0  0
  -25.0164  -24.3924   29.8402 C   0  0  0  0  0  0  0  0  0  0  0  0
  -26.8925  -27.5326   23.4762 C   0  0  0  0  0  0  0  0  0  0  0  0
  -25.6560  -24.4526   28.5874 C   0  0  0  0  0  0  0  0  0  0  0  0
  -26.0856  -27.1546   22.3936 C   0  0  0  0  0  0  0  0  0  0  0  0
  -31.0593  -23.4288   16.9977 C   0  0  0  0  0  0  0  0  0  0  0  0
  -30.0247  -25.5516   17.4538 C   0  0  0  0  0  0  0  0  0  0  0  0
  -25.1688  -14.0709   19.0548 C   0  0  0  0  0  0  0  0  0  0  0  0
  -28.0806  -26.7325   21.0701 C   0  0  0  0  0  0  0  0  0  0  0  0
  -25.1737  -11.7971   19.6481 C   0  0  0  0  0  0  0  0  0  0  0  0
  -26.2005   -9.7348   21.2214 C   0  0  0  0  0  0  0  0  0  0  0  0
  -24.3280  -11.0751   20.4901 C   0  0  0  0  0  0  0  0  0  0  0  0
  -26.7337  -17.9576   19.6401 C   0  0  0  0  0  0  0  0  0  0  0  0
  -29.8850  -23.0532   16.3655 C   0  0  0  0  0  0  0  0  0  0  0  0
  -28.8968  -25.0811   16.8010 C   0  0  0  0  0  0  0  0  0  0  0  0
  -28.0659  -19.6808   19.9414 C   0  0  0  0  0  0  0  0  0  0  0  0
  -29.2611  -17.4936   19.7509 C   0  0  0  0  0  0  0  0  0  0  0  0
  -24.8165  -26.0192   25.3480 C   0  0  0  0  0  0  0  0  0  0  0  0
  -22.6794  -27.9956   23.9165 C   0  0  0  0  0  0  0  0  0  0  0  0
  -21.8784  -29.9354   21.2253 C   0  0  0  0  0  0  0  0  0  0  0  0
  -25.1691  -24.3577   18.1387 C   0  0  0  0  0  0  0  0  0  0  0  0
  -23.5189  -24.2596   29.9608 C   0  0  0  0  0  0  0  0  0  0  0  0
  -26.2701  -27.9949   24.7652 C   0  0  0  0  0  0  0  0  0  0  0  0
  -24.5822  -27.1632   22.4840 C   0  0  0  0  0  0  0  0  0  0  0  0
  -22.7695  -24.6344   28.6848 C   0  0  0  0  0  0  0  0  0  0  0  0
  -24.6554  -22.9611   21.3732 C   0  0  0  0  0  0  0  0  0  0  0  0
  -23.4247  -23.9843   27.4703 C   0  0  0  0  0  0  0  0  0  0  0  0
  -25.2648  -21.5619   21.2686 C   0  0  0  0  0  0  0  0  0  0  0  0
  -23.9714  -23.3774   20.0729 C   0  0  0  0  0  0  0  0  0  0  0  0
  -25.4272  -21.8801   18.7643 C   0  0  0  0  0  0  0  0  0  0  0  0
  -24.8682  -24.4714   27.2955 C   0  0  1  0  0  0  0  0  0  0  0  0
  -24.8510  -27.4717   24.9649 C   0  0  1  0  0  0  0  0  0  0  0  0
  -26.1767  -21.4385   20.0330 C   0  0  2  0  0  0  0  0  0  0  0  0
  -29.7596  -21.6966   15.7532 C   0  0  0  0  0  0  0  0  0  0  0  0
  -32.0453  -21.4428   18.1682 C   0  0  0  0  0  0  0  0  0  0  0  0
  -20.0476  -31.3969   20.3256 C   0  0  0  0  0  0  0  0  0  0  0  0
  -21.0549  -25.5146   23.1987 C   0  0  0  0  0  0  0  0  0  0  0  0
  -19.7995  -26.9030   21.5360 C   0  0  0  0  0  0  0  0  0  0  0  0
  -19.6932  -27.4679   23.9634 C   0  0  0  0  0  0  0  0  0  0  0  0
  -23.6440  -32.3099   21.1674 C   0  0  0  0  0  0  0  0  0  0  0  0
  -32.2317  -22.5154   17.0971 C   0  0  0  0  0  0  0  0  0  0  0  0
  -30.0868  -26.9367   18.0505 C   0  0  0  0  0  0  0  0  0  0  0  0
  -27.6879  -25.9486   16.6694 C   0  0  0  0  0  0  0  0  0  0  0  0
  -26.4450  -25.1962   16.1821 C   0  0  0  0  0  0  0  0  0  0  0  0
  -29.9122  -26.9238   19.5652 C   0  0  0  0  0  0  0  0  0  1  0  0
  -21.8211  -27.9242   22.6767 C   0  0  1  0  0  0  0  0  0  0  0  0
  -21.3380  -31.3507   21.1289 C   0  0  2  0  0  0  0  0  0  0  0  0
  -20.6205  -26.9503   22.8423 C   0  0  0  0  0  0  0  0  0  0  0  0
  -25.9112  -19.0073   19.7151 N   0  0  0  0  0  0  0  0  0  0  0  0
  -28.7982  -23.8494   16.2525 N   0  0  0  0  0  0  0  0  0  0  0  0
  -26.7510  -20.0403   19.8986 N   0  0  0  0  0  0  0  0  0  0  0  0
  -24.0212  -27.6172   23.7672 N   0  0  0  0  0  0  0  0  0  0  0  0
  -24.8903  -23.2386   18.9405 N   0  0  0  0  0  0  0  0  0  0  0  0
  -29.0432  -20.5950   20.1190 N   0  0  0  0  0  0  0  0  0  0  0  0
  -29.1040  -16.1127   19.5700 N   0  0  0  0  0  0  0  0  0  0  0  0
  -24.8876  -25.7946   26.7096 N   0  0  0  0  0  0  0  0  0  0  0  0
  -21.4383  -29.2972   22.3656 N   0  0  0  0  0  0  0  0  0  0  0  0
  -26.0551  -24.1409   17.0905 N   0  0  0  0  0  0  0  0  0  0  0  0
  -22.3342  -32.2417   20.4696 N   0  3  0  0  0  0  0  0  0  0  0  0
  -30.4133  -17.9658   19.9026 O   0  0  0  0  0  0  0  0  0  0  0  0
  -24.7301  -25.1655   24.4731 O   0  0  0  0  0  0  0  0  0  0  0  0
  -22.1796  -28.3800   24.9767 O   0  0  0  0  0  0  0  0  0  0  0  0
  -22.6141  -29.4437   20.3723 O   0  0  0  0  0  0  0  0  0  0  0  0
  -24.6698  -25.4690   18.3451 O   0  0  0  0  0  0  0  0  0  0  0  0
  -24.6654  -12.8206   18.8658 O   0  0  0  0  0  0  0  0  0  0  0  0
  -28.6546  -26.3387   19.9007 O   0  0  0  0  0  0  0  0  0  1  0  0
  -26.6934   -8.7437   21.9756 F   0  0  0  0  0  0  0  0  0  0  0  0
  -23.0213  -11.3666   20.5468 F   0  0  0  0  0  0  0  0  0  0  0  0
  1  2  1  0  0  0  0
  1  5  2  0  0  0  0
  2  6  2  0  0  0  0
  3  8  2  0  0  0  0
  3 16  1  0  0  0  0
  4  9  1  0  0  0  0
  4 16  2  0  0  0  0
  5 18  1  0  0  0  0
  6 20  1  0  0  0  0
  7 10  2  0  0  0  0
  7 19  1  0  0  0  0
  8 24  1  0  0  0  0
  9 24  2  0  0  0  0
 10 25  1  0  0  0  0
 11 12  2  0  0  0  0
 11 26  1  0  0  0  0
 12 27  1  0  0  0  0
 13 21  1  0  0  0  0
 13 25  2  0  0  0  0
 14 22  1  0  0  0  0
 14 23  2  0  0  0  0
 15 27  2  0  0  0  0
 15 28  1  0  0  0  0
 16 29  1  0  0  0  0
 17 29  1  0  0  0  0
 17 32  2  0  0  0  0
 17 33  1  0  0  0  0
 18 20  2  0  0  0  0
 18 38  1  0  0  0  0
 19 21  2  0  0  0  0
 19 39  1  0  0  0  0
 20 47  1  0  0  0  0
 21 40  1  0  0  0  0
 22 30  2  0  0  0  0
 22 57  1  0  0  0  0
 23 31  1  0  0  0  0
 23 58  1  0  0  0  0
 24 81  1  0  0  0  0
 25 82  1  0  0  0  0
 26 28  2  0  0  0  0
 26 81  1  0  0  0  0
 27 83  1  0  0  0  0
 28 84  1  0  0  0  0
 29 65  2  0  0  0  0
 30 50  1  0  0  0  0
 30 66  1  0  0  0  0
 31 59  1  0  0  0  0
 31 66  2  0  0  0  0
 32 67  1  0  0  0  0
 32 70  1  0  0  0  0
 33 71  1  0  0  0  0
 33 76  2  0  0  0  0
 34 48  1  0  0  0  0
 34 72  1  0  0  0  0
 34 77  2  0  0  0  0
 35 62  1  0  0  0  0
 35 68  1  0  0  0  0
 35 78  2  0  0  0  0
 36 63  1  0  0  0  0
 36 73  1  0  0  0  0
 36 79  2  0  0  0  0
 37 69  1  0  0  0  0
 37 74  1  0  0  0  0
 37 80  2  0  0  0  0
 38 41  1  0  0  0  0
 39 48  1  0  0  0  0
 40 68  1  0  0  0  0
 41 43  1  0  0  0  0
 42 44  1  0  0  0  0
 42 45  1  0  0  0  0
 43 47  1  0  0  0  0
 44 49  1  0  0  0  0
 45 69  1  0  0  0  0
 46 49  1  0  0  0  0
 46 69  1  0  0  0  0
 47 72  1  0  0  0  0
 48 68  1  0  0  0  0
 49 67  1  0  0  0  0
 51 57  1  0  0  0  0
 52 63  1  0  0  0  0
 53 64  1  0  0  0  0
 54 64  1  0  0  0  0
 55 64  1  0  0  0  0
 56 75  1  0  0  0  0
 58 61  1  0  0  0  0
 59 60  1  0  0  0  0
 60 74  1  0  0  0  0
 61 82  1  0  0  0  0
 62 64  1  0  0  0  0
 62 73  1  0  0  0  0
 63 75  1  0  0  0  0
 65 67  1  0  0  0  0
M  CHG  1  75   1
M  ISO  4  37 100  61 101  74 100  82 101
M  END
> <Batch ID>
0079

> <Smiles>
CCc1cc(C[101CH2:1][101O:1]c2ccc3c(c2)CN(C(=O)C(NC(=O)C(C)NC)C(C)(C)C)C(C(=O)NC2CCCc4ccccc42)C3)c(CC[100NH:0][100C:0](=O)N2CCCC(n3nc(-c4ccc(Oc5ccc(F)cc5F)cc4)c(C(N)=O)c3N)C2)nc1C

> <Shape>
0.183

> <Color>
0.069

> <Negative vol penalty>
0.000

$$$$

  -OEChem-04052318413D

 82 90  0     1  0  0  0  0  0999 V2000
  -16.6302  -29.1815   23.5739 C   0  0  0  0  0  0  0  0  0  0  0  0
  -17.2454  -28.6707   22.4355 C   0  0  0  0  0  0  0  0  0  0  0  0
  -28.6441  -18.2957   21.2823 C   0  0  0  0  0  0  0  0  0  0  0  0
  -28.3083  -17.7587   18.9508 C   0  0  0  0  0  0  0  0  0  0  0  0
  -17.2949  -30.1194   24.3628 C   0  0  0  0  0  0  0  0  0  0  0  0
  -18.5254  -29.0985   22.0846 C   0  0  0  0  0  0  0  0  0  0  0  0
  -21.5513  -25.2693   20.7334 C   0  0  0  0  0  0  0  0  0  0  0  0
  -29.5209  -17.2177   21.4043 C   0  0  0  0  0  0  0  0  0  0  0  0
  -29.1851  -16.6807   19.0728 C   0  0  0  0  0  0  0  0  0  0  0  0
  -21.3828  -24.7462   19.4521 C   0  0  0  0  0  0  0  0  0  0  0  0
  -29.0981  -13.5224   20.2761 C   0  0  0  0  0  0  0  0  0  0  0  0
  -28.7150  -12.3078   19.7073 C   0  0  0  0  0  0  0  0  0  0  0  0
  -23.2782  -26.0269   18.6865 C   0  0  0  0  0  0  0  0  0  0  0  0
  -30.6712  -12.3544   18.2902 C   0  0  0  0  0  0  0  0  0  0  0  0
  -20.6720  -23.9841   12.8277 C   0  0  0  0  0  0  0  0  0  0  0  0
  -28.0378  -18.5661   20.0555 C   0  0  0  0  0  0  0  0  0  0  0  0
  -27.4553  -21.0032   19.5772 C   0  0  0  0  0  0  0  0  0  0  0  0
  -18.5875  -30.5517   24.0268 C   0  0  0  0  0  0  0  0  0  0  0  0
  -22.5796  -26.1850   20.9988 C   0  0  0  0  0  0  0  0  0  0  0  0
  -19.2075  -30.0441   22.8691 C   0  0  0  0  0  0  0  0  0  0  0  0
  -23.4593  -26.5581   19.9726 C   0  0  0  0  0  0  0  0  0  0  0  0
  -29.7914  -16.4103   20.2996 C   0  0  0  0  0  0  0  0  0  0  0  0
  -22.2445  -25.1272   18.4277 C   0  0  0  0  0  0  0  0  0  0  0  0
  -30.2677  -14.1531   19.8519 C   0  0  0  0  0  0  0  0  0  0  0  0
  -29.5015  -11.7238   18.7144 C   0  0  0  0  0  0  0  0  0  0  0  0
  -31.0543  -13.5691   18.8590 C   0  0  0  0  0  0  0  0  0  0  0  0
  -27.1315  -19.6791   19.9290 C   0  0  0  0  0  0  0  0  0  0  0  0
  -21.9069  -24.1602   13.3853 C   0  0  0  0  0  0  0  0  0  0  0  0
  -26.2532  -21.6673   19.5965 C   0  0  0  0  0  0  0  0  0  0  0  0
  -20.7751  -22.7507   14.6631 C   0  0  0  0  0  0  0  0  0  0  0  0
  -28.7288  -21.5812   19.2611 C   0  0  0  0  0  0  0  0  0  0  0  0
  -22.6949  -29.2059   21.9810 C   0  0  0  0  0  0  0  0  0  0  0  0
  -25.8900  -28.6511   22.0558 C   0  0  0  0  0  0  0  0  0  0  0  0
  -28.5423  -26.8325   20.9135 C   0  0  0  0  0  0  0  0  0  0  0  0
  -20.5857  -19.8612   18.9116 C   0  0  0  0  0  0  0  0  0  0  0  0
  -19.2474  -31.6024   24.8843 C   0  0  0  0  0  0  0  0  0  0  0  0
  -22.7645  -26.7196   22.3925 C   0  0  0  0  0  0  0  0  0  0  0  0
  -24.5915  -27.5225   20.2103 C   0  0  0  0  0  0  0  0  0  0  0  0
  -20.7509  -31.7237   24.6500 C   0  0  0  0  0  0  0  0  0  0  0  0
  -21.9613  -21.5812   21.7091 C   0  0  0  0  0  0  0  0  0  0  0  0
  -21.0573  -31.7592   23.1561 C   0  0  0  0  0  0  0  0  0  0  0  0
  -23.4715  -21.4082   21.5384 C   0  0  0  0  0  0  0  0  0  0  0  0
  -21.1968  -20.3361   21.2647 C   0  0  0  0  0  0  0  0  0  0  0  0
  -23.0158  -19.7017   19.7276 C   0  0  0  0  0  0  0  0  0  0  0  0
  -20.6051  -30.4649   22.4692 C   0  0  1  0  0  0  0  0  0  0  0  0
  -23.5288  -28.0393   22.4298 C   0  0  1  0  0  0  0  0  0  0  0  0
  -23.8258  -20.9523   20.1101 C   0  0  2  0  0  0  0  0  0  0  0  0
  -23.0401  -24.9843   12.9475 C   0  0  0  0  0  0  0  0  0  0  0  0
  -30.9110  -26.0201   20.7502 C   0  0  0  0  0  0  0  0  0  0  0  0
  -26.2338  -31.1232   20.3006 C   0  0  0  0  0  0  0  0  0  0  0  0
  -28.5539  -30.3423   19.7757 C   0  0  0  0  0  0  0  0  0  0  0  0
  -27.9280  -30.8961   22.1261 C   0  0  0  0  0  0  0  0  0  0  0  0
  -28.1032  -24.7761   22.9962 C   0  0  0  0  0  0  0  0  0  0  0  0
  -20.3957  -21.8169   15.7523 C   0  0  0  0  0  0  0  0  0  0  0  0
  -20.4806  -20.3206   15.3786 C   0  0  0  0  0  0  0  0  0  0  0  0
  -23.1141  -23.2639   15.4640 C   0  0  0  0  0  0  0  0  0  0  0  0
  -20.1328  -19.3694   16.5216 C   0  0  0  0  0  0  0  0  0  0  0  0
  -23.2540  -24.4792   16.3742 C   0  0  0  0  0  0  0  0  0  1  0  0
  -27.0221  -28.7870   21.0664 C   0  0  1  0  0  0  0  0  0  0  0  0
  -29.6875  -26.1540   21.6434 C   0  0  2  0  0  0  0  0  0  0  0  0
  -27.4120  -30.2704   20.8120 C   0  0  0  0  0  0  0  0  0  0  0  0
  -25.8261  -19.5103   20.1554 N   0  0  0  0  0  0  0  0  0  0  0  0
  -21.9428  -23.3858   14.5198 N   0  0  0  0  0  0  0  0  0  0  0  0
  -25.3189  -20.7370   19.9454 N   0  0  0  0  0  0  0  0  0  0  0  0
  -19.9931  -23.1070   13.6389 N   0  3  0  0  0  0  0  0  0  0  0  0
  -24.7272  -28.0224   21.5885 N   0  0  0  0  0  0  0  0  0  0  0  0
  -21.5773  -19.9576   19.9017 N   0  0  0  0  0  0  0  0  0  0  0  0
  -25.9147  -22.9505   19.3489 N   0  0  0  0  0  0  0  0  0  0  0  0
  -29.8619  -20.7569   19.2885 N   0  0  0  0  0  0  0  0  0  0  0  0
  -21.5488  -29.3988   22.7285 N   0  0  0  0  0  0  0  0  0  0  0  0
  -28.1116  -27.9619   21.5769 N   0  0  0  0  0  0  0  0  0  0  0  0
  -21.0326  -19.5032   17.6455 N   0  0  0  0  0  0  0  0  0  0  0  0
  -29.2815  -24.7919   22.0916 N   0  3  0  0  0  0  0  0  0  0  0  0
  -28.8603  -22.7964   18.9792 O   0  0  0  0  0  0  0  0  0  0  0  0
  -23.0646  -29.8818   21.0281 O   0  0  0  0  0  0  0  0  0  0  0  0
  -26.0348  -29.0804   23.2031 O   0  0  0  0  0  0  0  0  0  0  0  0
  -28.0788  -26.4054   19.8584 O   0  0  0  0  0  0  0  0  0  0  0  0
  -19.3914  -20.0835   19.1377 O   0  0  0  0  0  0  0  0  0  0  0  0
  -30.6471  -15.3585   20.4182 O   0  0  0  0  0  0  0  0  0  0  0  0
  -22.0818  -24.6186   17.1760 O   0  0  0  0  0  0  0  0  0  1  0  0
  -29.1343  -10.5566   18.1693 F   0  0  0  0  0  0  0  0  0  0  0  0
  -32.1796  -14.1696   18.4482 F   0  0  0  0  0  0  0  0  0  0  0  0
  1  2  1  0  0  0  0
  1  5  2  0  0  0  0
  2  6  2  0  0  0  0
  3  8  2  0  0  0  0
  3 16  1  0  0  0  0
  4  9  1  0  0  0  0
  4 16  2  0  0  0  0
  5 18  1  0  0  0  0
  6 20  1  0  0  0  0
  7 10  2  0  0  0  0
  7 19  1  0  0  0  0
  8 22  1  0  0  0  0
  9 22  2  0  0  0  0
 10 23  1  0  0  0  0
 11 12  2  0  0  0  0
 11 24  1  0  0  0  0
 12 25  1  0  0  0  0
 13 21  1  0  0  0  0
 13 23  2  0  0  0  0
 14 25  2  0  0  0  0
 14 26  1  0  0  0  0
 15 28  2  0  0  0  0
 15 65  1  0  0  0  0
 16 27  1  0  0  0  0
 17 27  1  0  0  0  0
 17 29  2  0  0  0  0
 17 31  1  0  0  0  0
 18 20  2  0  0  0  0
 18 36  1  0  0  0  0
 19 21  2  0  0  0  0
 19 37  1  0  0  0  0
 20 45  1  0  0  0  0
 21 38  1  0  0  0  0
 22 79  1  0  0  0  0
 23 80  1  0  0  0  0
 24 26  2  0  0  0  0
 24 79  1  0  0  0  0
 25 81  1  0  0  0  0
 26 82  1  0  0  0  0
 27 62  2  0  0  0  0
 28 48  1  0  0  0  0
 28 63  1  0  0  0  0
 29 64  1  0  0  0  0
 29 68  1  0  0  0  0
 30 54  1  0  0  0  0
 30 63  1  0  0  0  0
 30 65  2  0  0  0  0
 31 69  1  0  0  0  0
 31 74  2  0  0  0  0
 32 46  1  0  0  0  0
 32 70  1  0  0  0  0
 32 75  2  0  0  0  0
 33 59  1  0  0  0  0
 33 66  1  0  0  0  0
 33 76  2  0  0  0  0
 34 60  1  0  0  0  0
 34 71  1  0  0  0  0
 34 77  2  0  0  0  0
 35 67  1  0  0  0  0
 35 72  1  0  0  0  0
 35 78  2  0  0  0  0
 36 39  1  0  0  0  0
 37 46  1  0  0  0  0
 38 66  1  0  0  0  0
 39 41  1  0  0  0  0
 40 42  1  0  0  0  0
 40 43  1  0  0  0  0
 41 45  1  0  0  0  0
 42 47  1  0  0  0  0
 43 67  1  0  0  0  0
 44 47  1  0  0  0  0
 44 67  1  0  0  0  0
 45 70  1  0  0  0  0
 46 66  1  0  0  0  0
 47 64  1  0  0  0  0
 49 60  1  0  0  0  0
 50 61  1  0  0  0  0
 51 61  1  0  0  0  0
 52 61  1  0  0  0  0
 53 73  1  0  0  0  0
 54 55  1  0  0  0  0
 55 57  1  0  0  0  0
 56 58  1  0  0  0  0
 56 63  1  0  0  0  0
 57 72  1  0  0  0  0
 58 80  1  0  0  0  0
 59 61  1  0  0  0  0
 59 71  1  0  0  0  0
 60 73  1  0  0  0  0
 62 64  1  0  0  0  0
M  CHG  2  65   1  73   1
M  ISO  4  35 100  58 101  72 100  80 101
M  END
> <Batch ID>
0079

> <Smiles>
CNC(C)C(=O)NC(C(=O)N1Cc2cc([101O:1][101CH2:1]Cn3c(C)cnc3CCC[100NH:0][100C:0](=O)N3CCCC(n4nc(-c5ccc(Oc6ccc(F)cc6F)cc5)c(C(N)=O)c4N)C3)ccc2CC1C(=O)NC1CCCc2ccccc21)C(C)(C)C

> <Shape>
0.216

> <Color>
0.079

> <Negative vol penalty>
0.000

$$$$

  -OEChem-04052318413D

 86 94  0     1  0  0  0  0  0999 V2000
  -16.6217  -25.3732   23.4503 C   0  0  0  0  0  0  0  0  0  0  0  0
  -17.6745  -24.4846   23.6431 C   0  0  0  0  0  0  0  0  0  0  0  0
  -24.2606  -13.8662   21.4208 C   0  0  0  0  0  0  0  0  0  0  0  0
  -26.6589  -13.6027   21.2949 C   0  0  0  0  0  0  0  0  0  0  0  0
  -16.8790  -26.6744   23.0206 C   0  0  0  0  0  0  0  0  0  0  0  0
  -18.9854  -24.8963   23.4052 C   0  0  0  0  0  0  0  0  0  0  0  0
  -25.6750  -23.8596   25.7483 C   0  0  0  0  0  0  0  0  0  0  0  0
  -24.0920  -12.6111   20.8361 C   0  0  0  0  0  0  0  0  0  0  0  0
  -26.4903  -12.3475   20.7103 C   0  0  0  0  0  0  0  0  0  0  0  0
  -26.9448  -23.5353   25.2725 C   0  0  0  0  0  0  0  0  0  0  0  0
  -24.2383   -9.3738   21.8011 C   0  0  0  0  0  0  0  0  0  0  0  0
  -23.2955   -8.5161   22.3678 C   0  0  0  0  0  0  0  0  0  0  0  0
  -27.2757  -25.8308   24.6087 C   0  0  0  0  0  0  0  0  0  0  0  0
  -22.0872   -8.4624   20.2763 C   0  0  0  0  0  0  0  0  0  0  0  0
  -29.5717  -26.6863   20.0998 C   0  0  0  0  0  0  0  0  0  0  0  0
  -25.5440  -14.3621   21.6501 C   0  0  0  0  0  0  0  0  0  0  0  0
  -25.8231  -15.9503   23.6268 C   0  0  0  0  0  0  0  0  0  0  0  0
  -18.1944  -27.1052   22.7866 C   0  0  0  0  0  0  0  0  0  0  0  0
  -25.1910  -25.1719   25.6478 C   0  0  0  0  0  0  0  0  0  0  0  0
  -19.2604  -26.2041   22.9706 C   0  0  0  0  0  0  0  0  0  0  0  0
  -26.0005  -26.1697   25.0863 C   0  0  0  0  0  0  0  0  0  0  0  0
  -25.2068  -11.8517   20.4809 C   0  0  0  0  0  0  0  0  0  0  0  0
  -27.7442  -24.5203   24.7000 C   0  0  0  0  0  0  0  0  0  0  0  0
  -24.1055   -9.7759   20.4720 C   0  0  0  0  0  0  0  0  0  0  0  0
  -22.2200   -8.0603   21.6054 C   0  0  0  0  0  0  0  0  0  0  0  0
  -23.0299   -9.3202   19.7097 C   0  0  0  0  0  0  0  0  0  0  0  0
  -25.7188  -15.6588   22.2535 C   0  0  0  0  0  0  0  0  0  0  0  0
  -28.6077  -26.7673   19.1350 C   0  0  0  0  0  0  0  0  0  0  0  0
  -25.9765  -17.3143   23.6775 C   0  0  0  0  0  0  0  0  0  0  0  0
  -29.2616  -24.6568   19.2722 C   0  0  0  0  0  0  0  0  0  0  0  0
  -25.7849  -15.0672   24.7556 C   0  0  0  0  0  0  0  0  0  0  0  0
  -22.7383  -26.5510   24.1692 C   0  0  0  0  0  0  0  0  0  0  0  0
  -23.7439  -29.1775   25.7857 C   0  0  0  0  0  0  0  0  0  0  0  0
  -26.2975  -30.8172   27.3470 C   0  0  0  0  0  0  0  0  0  0  0  0
  -28.1503  -21.1759   19.7765 C   0  0  0  0  0  0  0  0  0  0  0  0
  -18.4194  -28.5070   22.2775 C   0  0  0  0  0  0  0  0  0  0  0  0
  -23.8296  -25.5110   26.1900 C   0  0  0  0  0  0  0  0  0  0  0  0
  -25.5355  -27.5978   24.9733 C   0  0  0  0  0  0  0  0  0  0  0  0
  -19.8657  -28.9775   22.4080 C   0  0  0  0  0  0  0  0  0  0  0  0
  -24.8587  -21.3003   21.2756 C   0  0  0  0  0  0  0  0  0  0  0  0
  -20.8245  -27.9002   21.9111 C   0  0  0  0  0  0  0  0  0  0  0  0
  -24.7227  -19.8807   21.8291 C   0  0  0  0  0  0  0  0  0  0  0  0
  -25.5909  -21.3039   19.9369 C   0  0  0  0  0  0  0  0  0  0  0  0
  -26.7984  -19.2360   20.5193 C   0  0  0  0  0  0  0  0  0  0  0  0
  -20.6979  -26.6209   22.7470 C   0  0  1  0  0  0  0  0  0  0  0  0
  -23.2365  -26.7722   25.5694 C   0  0  1  0  0  0  0  0  0  0  0  0
  -26.0865  -19.1671   21.8826 C   0  0  2  0  0  0  0  0  0  0  0  0
  -29.7874  -22.8691   17.5723 C   0  0  0  0  0  0  0  0  0  0  0  0
  -26.8247  -32.9623   28.5376 C   0  0  0  0  0  0  0  0  0  0  0  0
  -24.2558  -27.2961   20.1396 C   0  0  0  0  0  0  0  0  0  0  0  0
  -25.1300  -26.6011   17.9006 C   0  0  0  0  0  0  0  0  0  0  0  0
  -23.8219  -30.6408   23.1095 C   0  0  0  0  0  0  0  0  0  0  0  0
  -25.2238  -32.4080   24.1957 C   0  0  0  0  0  0  0  0  0  0  0  0
  -22.9031  -31.9856   25.0073 C   0  0  0  0  0  0  0  0  0  0  0  0
  -26.9942  -29.3939   29.8465 C   0  0  0  0  0  0  0  0  0  0  0  0
  -27.8349  -27.9058   18.6318 C   0  0  0  0  0  0  0  0  0  0  0  0
  -26.5114  -28.1270   19.4079 C   0  0  0  0  0  0  0  0  0  0  0  0
  -30.4257  -24.1015   22.3195 C   0  0  0  0  0  0  0  0  0  0  0  0
  -31.0054  -24.8172   21.0975 C   0  0  0  0  0  0  0  0  0  0  0  0
  -29.4783  -24.9723   23.1365 C   0  0  0  0  0  0  0  0  0  1  0  0
  -29.3692  -23.1989   19.0156 C   0  0  2  0  0  0  0  0  0  0  0  0
  -24.7174  -30.2970   25.5065 C   0  0  1  0  0  0  0  0  0  0  0  0
  -26.3713  -31.5189   28.6911 C   0  0  2  0  0  0  0  0  0  0  0  0
  -25.5145  -26.9553   19.3378 C   0  0  0  0  0  0  0  0  0  0  0  0
  -24.1748  -31.3056   24.4550 C   0  0  0  0  0  0  0  0  0  0  0  0
  -25.7990  -16.7498   21.4872 N   0  0  0  0  0  0  0  0  0  0  0  0
  -29.9579  -25.3692   20.1638 N   0  0  0  0  0  0  0  0  0  0  0  0
  -25.9552  -17.7403   22.3820 N   0  0  0  0  0  0  0  0  0  0  0  0
  -28.4362  -25.4971   18.6397 N   0  3  0  0  0  0  0  0  0  0  0  0
  -24.1944  -27.8782   25.5121 N   0  0  0  0  0  0  0  0  0  0  0  0
  -26.8892  -20.6263   20.0608 N   0  0  0  0  0  0  0  0  0  0  0  0
  -26.1260  -18.1789   24.7035 N   0  0  0  0  0  0  0  0  0  0  0  0
  -25.6212  -13.6945   24.5247 N   0  0  0  0  0  0  0  0  0  0  0  0
  -21.3837  -26.7739   24.0122 N   0  0  0  0  0  0  0  0  0  0  0  0
  -25.0344  -30.8942   26.7993 N   0  0  0  0  0  0  0  0  0  0  0  0
  -28.1485  -22.4954   19.3411 N   0  0  0  0  0  0  0  0  0  0  0  0
  -27.3316  -30.8176   29.5894 N   0  3  0  0  0  0  0  0  0  0  0  0
  -25.8762  -15.4848   25.9349 O   0  0  0  0  0  0  0  0  0  0  0  0
  -23.5251  -26.2053   23.2956 O   0  0  0  0  0  0  0  0  0  0  0  0
  -22.6275  -29.4453   26.2369 O   0  0  0  0  0  0  0  0  0  0  0  0
  -27.2645  -30.2599   26.8325 O   0  0  0  0  0  0  0  0  0  0  0  0
  -29.2015  -20.5392   19.9063 O   0  0  0  0  0  0  0  0  0  0  0  0
  -25.0427  -10.6268   19.9107 O   0  0  0  0  0  0  0  0  0  0  0  0
  -28.9837  -24.2064   24.2342 O   0  0  0  0  0  0  0  0  0  1  0  0
  -21.3156   -7.2355   22.1493 F   0  0  0  0  0  0  0  0  0  0  0  0
  -22.8977   -9.7020   18.4320 F   0  0  0  0  0  0  0  0  0  0  0  0
  1  2  1  0  0  0  0
  1  5  2  0  0  0  0
  2  6  2  0  0  0  0
  3  8  2  0  0  0  0
  3 16  1  0  0  0  0
  4  9  1  0  0  0  0
  4 16  2  0  0  0  0
  5 18  1  0  0  0  0
  6 20  1  0  0  0  0
  7 10  2  0  0  0  0
  7 19  1  0  0  0  0
  8 22  1  0  0  0  0
  9 22  2  0  0  0  0
 10 23  1  0  0  0  0
 11 12  2  0  0  0  0
 11 24  1  0  0  0  0
 12 25  1  0  0  0  0
 13 21  1  0  0  0  0
 13 23  2  0  0  0  0
 14 25  2  0  0  0  0
 14 26  1  0  0  0  0
 15 28  2  0  0  0  0
 15 67  1  0  0  0  0
 16 27  1  0  0  0  0
 17 27  1  0  0  0  0
 17 29  2  0  0  0  0
 17 31  1  0  0  0  0
 18 20  2  0  0  0  0
 18 36  1  0  0  0  0
 19 21  2  0  0  0  0
 19 37  1  0  0  0  0
 20 45  1  0  0  0  0
 21 38  1  0  0  0  0
 22 83  1  0  0  0  0
 23 84  1  0  0  0  0
 24 26  2  0  0  0  0
 24 83  1  0  0  0  0
 25 85  1  0  0  0  0
 26 86  1  0  0  0  0
 27 66  2  0  0  0  0
 28 56  1  0  0  0  0
 28 69  1  0  0  0  0
 29 68  1  0  0  0  0
 29 72  1  0  0  0  0
 30 61  1  0  0  0  0
 30 67  1  0  0  0  0
 30 69  2  0  0  0  0
 31 73  1  0  0  0  0
 31 78  2  0  0  0  0
 32 46  1  0  0  0  0
 32 74  1  0  0  0  0
 32 79  2  0  0  0  0
 33 62  1  0  0  0  0
 33 70  1  0  0  0  0
 33 80  2  0  0  0  0
 34 63  1  0  0  0  0
 34 75  1  0  0  0  0
 34 81  2  0  0  0  0
 35 71  1  0  0  0  0
 35 76  1  0  0  0  0
 35 82  2  0  0  0  0
 36 39  1  0  0  0  0
 37 46  1  0  0  0  0
 38 70  1  0  0  0  0
 39 41  1  0  0  0  0
 40 42  1  0  0  0  0
 40 43  1  0  0  0  0
 41 45  1  0  0  0  0
 42 47  1  0  0  0  0
 43 71  1  0  0  0  0
 44 47  1  0  0  0  0
 44 71  1  0  0  0  0
 45 74  1  0  0  0  0
 46 70  1  0  0  0  0
 47 68  1  0  0  0  0
 48 61  1  0  0  0  0
 49 63  1  0  0  0  0
 50 64  1  0  0  0  0
 51 64  1  0  0  0  0
 52 65  1  0  0  0  0
 53 65  1  0  0  0  0
 54 65  1  0  0  0  0
 55 77  1  0  0  0  0
 56 57  1  0  0  0  0
 57 64  1  0  0  0  0
 58 59  1  0  0  0  0
 58 60  1  0  0  0  0
 59 67  1  0  0  0  0
 60 84  1  0  0  0  0
 61 76  1  0  0  0  0
 62 65  1  0  0  0  0
 62 75  1  0  0  0  0
 63 77  1  0  0  0  0
 66 68  1  0  0  0  0
M  CHG  2  69   1  77   1
M  ISO  4  35 100  60 101  76 100  84 101
M  END
> <Batch ID>
0079

> <Smiles>
CNC(C)C(=O)NC(C(=O)N1Cc2cc([101O:1][101CH2:1]CCn3cc(CCC(C)C)nc3C(C)[100NH:0][100C:0](=O)N3CCCC(n4nc(-c5ccc(Oc6ccc(F)cc6F)cc5)c(C(N)=O)c4N)C3)ccc2CC1C(=O)NC1CCCc2ccccc21)C(C)(C)C

> <Shape>
0.231

> <Color>
0.068

> <Negative vol penalty>
0.000

$$$$

  -OEChem-04052318413D

 85 93  0     1  0  0  0  0  0999 V2000
  -31.9381  -20.4293   12.9141 C   0  0  0  0  0  0  0  0  0  0  0  0
  -30.6307  -20.4734   13.3877 C   0  0  0  0  0  0  0  0  0  0  0  0
  -24.5102   -9.6599   21.3870 C   0  0  0  0  0  0  0  0  0  0  0  0
  -24.8929  -10.6976   23.5349 C   0  0  0  0  0  0  0  0  0  0  0  0
  -32.9949  -20.7763   13.7547 C   0  0  0  0  0  0  0  0  0  0  0  0
  -30.3795  -20.8635   14.7027 C   0  0  0  0  0  0  0  0  0  0  0  0
  -25.4964  -24.2819   18.6759 C   0  0  0  0  0  0  0  0  0  0  0  0
  -24.2282   -8.4502   22.0216 C   0  0  0  0  0  0  0  0  0  0  0  0
  -24.6108   -9.4880   24.1696 C   0  0  0  0  0  0  0  0  0  0  0  0
  -24.7366  -24.1097   19.8321 C   0  0  0  0  0  0  0  0  0  0  0  0
  -23.0553   -5.1809   23.0944 C   0  0  0  0  0  0  0  0  0  0  0  0
  -21.9428   -4.4626   22.6561 C   0  0  0  0  0  0  0  0  0  0  0  0
  -26.6348  -24.7632   21.1696 C   0  0  0  0  0  0  0  0  0  0  0  0
  -20.5149   -6.3263   23.2261 C   0  0  0  0  0  0  0  0  0  0  0  0
  -24.5995  -19.5354   23.7383 C   0  0  0  0  0  0  0  0  0  0  0  0
  -24.8426  -10.7836   22.1436 C   0  0  0  0  0  0  0  0  0  0  0  0
  -24.2225  -13.0535   21.1584 C   0  0  0  0  0  0  0  0  0  0  0  0
  -32.7558  -21.1801   15.0777 C   0  0  0  0  0  0  0  0  0  0  0  0
  -26.8366  -24.6861   18.7586 C   0  0  0  0  0  0  0  0  0  0  0  0
  -31.4342  -21.2149   15.5622 C   0  0  0  0  0  0  0  0  0  0  0  0
  -27.4087  -24.9422   20.0129 C   0  0  0  0  0  0  0  0  0  0  0  0
  -24.2785   -8.3643   23.4129 C   0  0  0  0  0  0  0  0  0  0  0  0
  -25.3066  -24.3475   21.0794 C   0  0  0  0  0  0  0  0  0  0  0  0
  -22.8975   -6.4719   23.5985 C   0  0  0  0  0  0  0  0  0  0  0  0
  -20.6726   -5.0353   22.7220 C   0  0  0  0  0  0  0  0  0  0  0  0
  -21.6274   -7.0446   23.6643 C   0  0  0  0  0  0  0  0  0  0  0  0
  -25.1346  -12.0333   21.4886 C   0  0  0  0  0  0  0  0  0  0  0  0
  -25.0827  -18.4855   22.9842 C   0  0  0  0  0  0  0  0  0  0  0  0
  -25.0676  -20.7858   23.3897 C   0  0  0  0  0  0  0  0  0  0  0  0
  -24.9910  -14.0194   20.5559 C   0  0  0  0  0  0  0  0  0  0  0  0
  -26.3369  -19.9018   21.7240 C   0  0  0  0  0  0  0  0  0  0  0  0
  -22.8071  -13.1220   21.3769 C   0  0  0  0  0  0  0  0  0  0  0  0
  -29.6225  -23.4017   17.9262 C   0  0  0  0  0  0  0  0  0  0  0  0
  -30.7814  -26.2962   18.8213 C   0  0  0  0  0  0  0  0  0  0  0  0
  -30.3783  -29.1296   20.6802 C   0  0  0  0  0  0  0  0  0  0  0  0
  -29.6084  -17.1480   20.3662 C   0  0  0  0  0  0  0  0  0  0  0  0
  -33.9340  -21.5003   15.9632 C   0  0  0  0  0  0  0  0  0  0  0  0
  -27.6349  -24.8932   17.5007 C   0  0  0  0  0  0  0  0  0  0  0  0
  -28.8374  -25.3975   20.1548 C   0  0  0  0  0  0  0  0  0  0  0  0
  -33.5544  -22.2629   17.2300 C   0  0  0  0  0  0  0  0  0  0  0  0
  -29.7865  -13.8852   18.9523 C   0  0  0  0  0  0  0  0  0  0  0  0
  -32.3435  -21.6192   17.8979 C   0  0  0  0  0  0  0  0  0  0  0  0
  -28.5207  -13.1953   19.4639 C   0  0  0  0  0  0  0  0  0  0  0  0
  -30.3811  -14.8230   20.0007 C   0  0  0  0  0  0  0  0  0  0  0  0
  -28.1748  -15.1313   21.0548 C   0  0  0  0  0  0  0  0  0  0  0  0
  -31.1195  -21.6567   16.9750 C   0  0  1  0  0  0  0  0  0  0  0  0
  -29.1411  -24.8113   17.7286 C   0  0  1  0  0  0  0  0  0  0  0  0
  -27.5074  -14.2179   20.0124 C   0  0  2  0  0  0  0  0  0  0  0  0
  -24.6330  -17.0952   23.2862 C   0  0  0  0  0  0  0  0  0  0  0  0
  -26.6992  -19.7467   19.2213 C   0  0  0  0  0  0  0  0  0  0  0  0
  -31.5102  -31.2996   21.2347 C   0  0  0  0  0  0  0  0  0  0  0  0
  -29.4430  -19.9358   22.0102 C   0  0  0  0  0  0  0  0  0  0  0  0
  -32.7210  -24.8138   20.6517 C   0  0  0  0  0  0  0  0  0  0  0  0
  -33.1381  -26.9752   21.8445 C   0  0  0  0  0  0  0  0  0  0  0  0
  -33.7174  -26.7541   19.4283 C   0  0  0  0  0  0  0  0  0  0  0  0
  -28.1353  -30.7150   19.5781 C   0  0  0  0  0  0  0  0  0  0  0  0
  -24.5949  -21.9958   24.1553 C   0  0  0  0  0  0  0  0  0  0  0  0
  -23.3340  -22.6388   23.5737 C   0  0  0  0  0  0  0  0  0  0  0  0
  -23.5336  -23.1968   22.1693 C   0  0  0  0  0  0  0  0  0  1  0  0
  -27.2989  -20.1064   20.6031 C   0  0  2  0  0  0  0  0  0  0  0  0
  -31.2875  -26.8924   20.1126 C   0  0  1  0  0  0  0  0  0  0  0  0
  -30.5170  -30.5981   20.3213 C   0  0  2  0  0  0  0  0  0  0  0  0
  -28.6921  -19.4161   20.7846 C   0  0  2  0  0  0  0  0  0  0  0  0
  -32.6896  -26.3484   20.5070 C   0  0  0  0  0  0  0  0  0  0  0  0
  -26.3868  -12.3239   21.1257 N   0  0  0  0  0  0  0  0  0  0  0  0
  -25.9555  -18.6332   21.9661 N   0  0  0  0  0  0  0  0  0  0  0  0
  -25.9401  -21.0063   22.3845 N   0  0  0  0  0  0  0  0  0  0  0  0
  -26.2669  -13.5376   20.5612 N   0  0  0  0  0  0  0  0  0  0  0  0
  -29.5787  -25.5795   18.8959 N   0  0  0  0  0  0  0  0  0  0  0  0
  -29.3694  -15.7684   20.4787 N   0  0  0  0  0  0  0  0  0  0  0  0
  -24.6930  -15.2252   20.0272 N   0  0  0  0  0  0  0  0  0  0  0  0
  -22.1758  -12.0427   22.0100 N   0  0  0  0  0  0  0  0  0  0  0  0
  -30.5284  -22.9778   16.9728 N   0  0  0  0  0  0  0  0  0  0  0  0
  -31.2346  -28.3403   19.9421 N   0  0  0  0  0  0  0  0  0  0  0  0
  -28.5956  -17.9744   20.8375 N   0  0  0  0  0  0  0  0  0  0  0  0
  -29.2010  -31.2871   20.4407 N   0  3  0  0  0  0  0  0  0  0  0  0
  -22.1200  -14.1039   21.0066 O   0  0  0  0  0  0  0  0  0  0  0  0
  -29.2041  -22.7477   18.8743 O   0  0  0  0  0  0  0  0  0  0  0  0
  -31.4258  -26.4664   17.7832 O   0  0  0  0  0  0  0  0  0  0  0  0
  -29.5917  -28.7238   21.5330 O   0  0  0  0  0  0  0  0  0  0  0  0
  -30.6452  -17.6091   19.8769 O   0  0  0  0  0  0  0  0  0  0  0  0
  -24.0031   -7.1841   24.0325 O   0  0  0  0  0  0  0  0  0  0  0  0
  -24.5674  -24.1796   22.2095 O   0  0  0  0  0  0  0  0  0  1  0  0
  -19.6046   -4.3459   22.2996 F   0  0  0  0  0  0  0  0  0  0  0  0
  -21.4697   -8.2849   24.1466 F   0  0  0  0  0  0  0  0  0  0  0  0
  1  2  1  0  0  0  0
  1  5  2  0  0  0  0
  2  6  2  0  0  0  0
  3  8  2  0  0  0  0
  3 16  1  0  0  0  0
  4  9  1  0  0  0  0
  4 16  2  0  0  0  0
  5 18  1  0  0  0  0
  6 20  1  0  0  0  0
  7 10  2  0  0  0  0
  7 19  1  0  0  0  0
  8 22  1  0  0  0  0
  9 22  2  0  0  0  0
 10 23  1  0  0  0  0
 11 12  2  0  0  0  0
 11 24  1  0  0  0  0
 12 25  1  0  0  0  0
 13 21  1  0  0  0  0
 13 23  2  0  0  0  0
 14 25  2  0  0  0  0
 14 26  1  0  0  0  0
 15 28  2  0  0  0  0
 15 29  1  0  0  0  0
 16 27  1  0  0  0  0
 17 27  1  0  0  0  0
 17 30  2  0  0  0  0
 17 32  1  0  0  0  0
 18 20  2  0  0  0  0
 18 37  1  0  0  0  0
 19 21  2  0  0  0  0
 19 38  1  0  0  0  0
 20 46  1  0  0  0  0
 21 39  1  0  0  0  0
 22 82  1  0  0  0  0
 23 83  1  0  0  0  0
 24 26  2  0  0  0  0
 24 82  1  0  0  0  0
 25 84  1  0  0  0  0
 26 85  1  0  0  0  0
 27 65  2  0  0  0  0
 28 49  1  0  0  0  0
 28 66  1  0  0  0  0
 29 57  1  0  0  0  0
 29 67  2  0  0  0  0
 30 68  1  0  0  0  0
 30 71  1  0  0  0  0
 31 60  1  0  0  0  0
 31 66  2  0  0  0  0
 31 67  1  0  0  0  0
 32 72  1  0  0  0  0
 32 77  2  0  0  0  0
 33 47  1  0  0  0  0
 33 73  1  0  0  0  0
 33 78  2  0  0  0  0
 34 61  1  0  0  0  0
 34 69  1  0  0  0  0
 34 79  2  0  0  0  0
 35 62  1  0  0  0  0
 35 74  1  0  0  0  0
 35 80  2  0  0  0  0
 36 70  1  0  0  0  0
 36 75  1  0  0  0  0
 36 81  2  0  0  0  0
 37 40  1  0  0  0  0
 38 47  1  0  0  0  0
 39 69  1  0  0  0  0
 40 42  1  0  0  0  0
 41 43  1  0  0  0  0
 41 44  1  0  0  0  0
 42 46  1  0  0  0  0
 43 48  1  0  0  0  0
 44 70  1  0  0  0  0
 45 48  1  0  0  0  0
 45 70  1  0  0  0  0
 46 73  1  0  0  0  0
 47 69  1  0  0  0  0
 48 68  1  0  0  0  0
 50 60  1  0  0  0  0
 51 62  1  0  0  0  0
 52 63  1  0  0  0  0
 53 64  1  0  0  0  0
 54 64  1  0  0  0  0
 55 64  1  0  0  0  0
 56 76  1  0  0  0  0
 57 58  1  0  0  0  0
 58 59  1  0  0  0  0
 59 83  1  0  0  0  0
 60 63  1  0  0  0  0
 61 64  1  0  0  0  0
 61 74  1  0  0  0  0
 62 76  1  0  0  0  0
 63 75  1  0  0  0  0
 65 68  1  0  0  0  0
M  CHG  1  76   1
M  ISO  4  36 100  59 101  75 100  83 101
M  END
> <Batch ID>
0079

> <Smiles>
CNC(C)C(=O)NC(C(=O)N1Cc2cc([101O:1][101CH2:1]CCc3cc(C)nc(C(C)C(C)[100NH:0][100C:0](=O)N4CCCC(n5nc(-c6ccc(Oc7ccc(F)cc7F)cc6)c(C(N)=O)c5N)C4)n3)ccc2CC1C(=O)NC1CCCc2ccccc21)C(C)(C)C

> <Shape>
0.215

> <Color>
0.115

> <Negative vol penalty>
0.000

$$$$

  -OEChem-04052318413D

 82 89  0     1  0  0  0  0  0999 V2000
  -21.8723  -29.1603   18.5533 C   0  0  0  0  0  0  0  0  0  0  0  0
  -22.2779  -27.8541   18.8074 C   0  0  0  0  0  0  0  0  0  0  0  0
  -23.1538   -9.9059   19.9252 C   0  0  0  0  0  0  0  0  0  0  0  0
  -23.5509  -10.0169   22.3058 C   0  0  0  0  0  0  0  0  0  0  0  0
  -22.6721  -29.9990   17.7781 C   0  0  0  0  0  0  0  0  0  0  0  0
  -23.4831  -27.3854   18.2856 C   0  0  0  0  0  0  0  0  0  0  0  0
  -27.3344  -23.4128   20.9108 C   0  0  0  0  0  0  0  0  0  0  0  0
  -22.3481   -8.7827   20.1120 C   0  0  0  0  0  0  0  0  0  0  0  0
  -22.7450   -8.8938   22.4926 C   0  0  0  0  0  0  0  0  0  0  0  0
  -27.5244  -22.0416   20.7453 C   0  0  0  0  0  0  0  0  0  0  0  0
  -23.0245   -5.5420   22.1485 C   0  0  0  0  0  0  0  0  0  0  0  0
  -23.4927   -4.5432   23.0021 C   0  0  0  0  0  0  0  0  0  0  0  0
  -29.3223  -22.4834   19.1988 C   0  0  0  0  0  0  0  0  0  0  0  0
  -21.5540   -4.8402   24.4130 C   0  0  0  0  0  0  0  0  0  0  0  0
  -23.7553  -10.5229   21.0222 C   0  0  0  0  0  0  0  0  0  0  0  0
  -24.1827  -13.0309   20.8348 C   0  0  0  0  0  0  0  0  0  0  0  0
  -23.8923  -29.5434   17.2546 C   0  0  0  0  0  0  0  0  0  0  0  0
  -28.1311  -24.3312   20.2120 C   0  0  0  0  0  0  0  0  0  0  0  0
  -24.2993  -28.2184   17.5016 C   0  0  0  0  0  0  0  0  0  0  0  0
  -29.1421  -23.8658   19.3592 C   0  0  0  0  0  0  0  0  0  0  0  0
  -22.1436   -8.2767   21.3956 C   0  0  0  0  0  0  0  0  0  0  0  0
  -28.5165  -21.5767   19.8870 C   0  0  0  0  0  0  0  0  0  0  0  0
  -21.8211   -6.1900   22.4271 C   0  0  0  0  0  0  0  0  0  0  0  0
  -22.7575   -4.1922   24.1344 C   0  0  0  0  0  0  0  0  0  0  0  0
  -21.0859   -5.8391   23.5594 C   0  0  0  0  0  0  0  0  0  0  0  0
  -24.5883  -11.6828   20.8299 C   0  0  0  0  0  0  0  0  0  0  0  0
  -25.3386  -13.7380   20.6099 C   0  0  0  0  0  0  0  0  0  0  0  0
  -22.8779  -13.5937   21.0257 C   0  0  0  0  0  0  0  0  0  0  0  0
  -27.5739  -26.5986   18.0552 C   0  0  0  0  0  0  0  0  0  0  0  0
  -31.1155  -12.3978   21.5811 C   0  0  0  0  0  0  0  0  0  0  0  0
  -30.7260  -27.2347   18.4817 C   0  0  0  0  0  0  0  0  0  0  0  0
  -33.8057  -26.1117   19.4310 C   0  0  0  0  0  0  0  0  0  0  0  0
  -24.7002  -30.4720   16.3829 C   0  0  0  0  0  0  0  0  0  0  0  0
  -27.9313  -25.8071   20.4220 C   0  0  0  0  0  0  0  0  0  0  0  0
  -30.0377  -24.8104   18.6015 C   0  0  0  0  0  0  0  0  0  0  0  0
  -26.1424  -30.0153   16.1792 C   0  0  0  0  0  0  0  0  0  0  0  0
  -29.6022  -13.3815   18.4856 C   0  0  0  0  0  0  0  0  0  0  0  0
  -26.1884  -28.5301   15.8344 C   0  0  0  0  0  0  0  0  0  0  0  0
  -28.1106  -13.1529   18.7266 C   0  0  0  0  0  0  0  0  0  0  0  0
  -30.4502  -12.3341   19.2004 C   0  0  0  0  0  0  0  0  0  0  0  0
  -28.6929  -12.0064   20.9110 C   0  0  0  0  0  0  0  0  0  0  0  0
  -25.6118  -27.6810   16.9737 C   0  0  1  0  0  0  0  0  0  0  0  0
  -28.4604  -26.6520   19.2672 C   0  0  1  0  0  0  0  0  0  0  0  0
  -27.8015  -13.0609   20.2314 C   0  0  2  0  0  0  0  0  0  0  0  0
  -30.7185  -10.8533   23.4548 C   0  0  0  0  0  0  0  0  0  0  0  0
  -36.1953  -26.8503   19.6343 C   0  0  0  0  0  0  0  0  0  0  0  0
  -31.0561  -26.9907   15.4583 C   0  0  0  0  0  0  0  0  0  0  0  0
  -33.5258  -26.7866   15.8144 C   0  0  0  0  0  0  0  0  0  0  0  0
  -32.3367  -28.8698   16.4992 C   0  0  0  0  0  0  0  0  0  0  0  0
  -31.0098  -17.3709   24.3338 C   0  0  0  0  0  0  0  0  0  0  0  0
  -28.5805  -16.9804   23.8279 C   0  0  0  0  0  0  0  0  0  0  0  0
  -33.8222  -25.6467   22.3538 C   0  0  0  0  0  0  0  0  0  0  0  0
  -30.0605  -18.2880   21.4564 C   0  0  0  0  0  0  0  0  0  0  0  0
  -30.2373  -18.3826   19.9359 C   0  0  0  0  0  0  0  0  0  0  0  0
  -30.2459  -16.8440   21.9423 C   0  0  0  0  0  0  0  0  0  0  0  0
  -31.6155  -13.1669   23.9004 C   0  0  0  0  0  0  0  0  0  0  0  0
  -31.5611  -14.6443   23.5270 C   0  0  0  0  0  0  0  0  0  0  0  0
  -30.0270  -19.8005   19.4182 C   0  0  0  0  0  0  0  0  0  1  0  0
  -30.6884  -12.3159   23.0250 C   0  0  1  0  0  0  0  0  0  0  0  0
  -32.0088  -26.7556   17.8464 C   0  0  1  0  0  0  0  0  0  0  0  0
  -34.8585  -26.7110   20.3458 C   0  0  2  0  0  0  0  0  0  0  0  0
  -32.2139  -27.3326   16.4172 C   0  0  0  0  0  0  0  0  0  0  0  0
  -30.0195  -16.6081   23.4514 C   0  0  0  0  0  0  0  0  0  0  0  0
  -25.8993  -11.5395   20.6184 N   0  0  0  0  0  0  0  0  0  0  0  0
  -26.3276  -12.8067   20.4883 N   0  0  0  0  0  0  0  0  0  0  0  0
  -29.7989  -26.2442   18.8355 N   0  0  0  0  0  0  0  0  0  0  0  0
  -30.1110  -12.2618   20.6227 N   0  0  0  0  0  0  0  0  0  0  0  0
  -25.5952  -15.0592   20.5062 N   0  0  0  0  0  0  0  0  0  0  0  0
  -21.8008  -12.7242   21.2451 N   0  0  0  0  0  0  0  0  0  0  0  0
  -26.5750  -27.5535   18.0463 N   0  0  0  0  0  0  0  0  0  0  0  0
  -33.0769  -27.0867   18.7833 N   0  0  0  0  0  0  0  0  0  0  0  0
  -35.0526  -25.8497   21.5463 N   0  3  0  0  0  0  0  0  0  0  0  0
  -30.1845  -15.1483   23.7465 N   0  3  0  0  0  0  0  0  0  0  0  0
  -22.6705  -14.8302   20.9861 O   0  0  0  0  0  0  0  0  0  0  0  0
  -27.7817  -25.7547   17.1914 O   0  0  0  0  0  0  0  0  0  0  0  0
  -32.3063  -12.5803   21.3150 O   0  0  0  0  0  0  0  0  0  0  0  0
  -30.5559  -28.4428   18.6642 O   0  0  0  0  0  0  0  0  0  0  0  0
  -33.6481  -24.8997   19.3010 O   0  0  0  0  0  0  0  0  0  0  0  0
  -21.3572   -7.1809   21.5783 O   0  0  0  0  0  0  0  0  0  0  0  0
  -28.7036  -20.2388   19.7231 O   0  0  0  0  0  0  0  0  0  1  0  0
  -23.2064   -3.2320   24.9532 F   0  0  0  0  0  0  0  0  0  0  0  0
  -19.9285   -6.4573   23.8316 F   0  0  0  0  0  0  0  0  0  0  0  0
  1  2  1  0  0  0  0
  1  5  2  0  0  0  0
  2  6  2  0  0  0  0
  3  8  2  0  0  0  0
  3 15  1  0  0  0  0
  4  9  1  0  0  0  0
  4 15  2  0  0  0  0
  5 17  1  0  0  0  0
  6 19  1  0  0  0  0
  7 10  2  0  0  0  0
  7 18  1  0  0  0  0
  8 21  1  0  0  0  0
  9 21  2  0  0  0  0
 10 22  1  0  0  0  0
 11 12  2  0  0  0  0
 11 23  1  0  0  0  0
 12 24  1  0  0  0  0
 13 20  1  0  0  0  0
 13 22  2  0  0  0  0
 14 24  2  0  0  0  0
 14 25  1  0  0  0  0
 15 26  1  0  0  0  0
 16 26  1  0  0  0  0
 16 27  2  0  0  0  0
 16 28  1  0  0  0  0
 17 19  2  0  0  0  0
 17 33  1  0  0  0  0
 18 20  2  0  0  0  0
 18 34  1  0  0  0  0
 19 42  1  0  0  0  0
 20 35  1  0  0  0  0
 21 79  1  0  0  0  0
 22 80  1  0  0  0  0
 23 25  2  0  0  0  0
 23 79  1  0  0  0  0
 24 81  1  0  0  0  0
 25 82  1  0  0  0  0
 26 64  2  0  0  0  0
 27 65  1  0  0  0  0
 27 68  1  0  0  0  0
 28 69  1  0  0  0  0
 28 74  2  0  0  0  0
 29 43  1  0  0  0  0
 29 70  1  0  0  0  0
 29 75  2  0  0  0  0
 30 59  1  0  0  0  0
 30 67  1  0  0  0  0
 30 76  2  0  0  0  0
 31 60  1  0  0  0  0
 31 66  1  0  0  0  0
 31 77  2  0  0  0  0
 32 61  1  0  0  0  0
 32 71  1  0  0  0  0
 32 78  2  0  0  0  0
 33 36  1  0  0  0  0
 34 43  1  0  0  0  0
 35 66  1  0  0  0  0
 36 38  1  0  0  0  0
 37 39  1  0  0  0  0
 37 40  1  0  0  0  0
 38 42  1  0  0  0  0
 39 44  1  0  0  0  0
 40 67  1  0  0  0  0
 41 44  1  0  0  0  0
 41 67  1  0  0  0  0
 42 70  1  0  0  0  0
 43 66  1  0  0  0  0
 44 65  1  0  0  0  0
 45 59  1  0  0  0  0
 46 61  1  0  0  0  0
 47 62  1  0  0  0  0
 48 62  1  0  0  0  0
 49 62  1  0  0  0  0
 50 63  1  0  0  0  0
 51 63  1  0  0  0  0
 52 72  1  0  0  0  0
 53 54  1  0  0  0  0
 53 55  1  0  0  0  0
 54 58  1  0  0  0  0
 55 63  1  0  0  0  0
 56 57  1  0  0  0  0
 56 59  1  0  0  0  0
 57 73  1  0  0  0  0
 58 80  1  0  0  0  0
 60 62  1  0  0  0  0
 60 71  1  0  0  0  0
 61 72  1  0  0  0  0
 63 73  1  0  0  0  0
 64 65  1  0  0  0  0
M  CHG  2  72   1  73   1
M  ISO  4  30 100  58 101  59 100  80 101
M  END
> <Batch ID>
0079

> <Smiles>
CNC(C)C(=O)NC(C(=O)N1Cc2cc([101O:1][101CH2:1]CCCC(C)(C)NCC[100CH:0](C)[100C:0](=O)N3CCCC(n4nc(-c5ccc(Oc6ccc(F)cc6F)cc5)c(C(N)=O)c4N)C3)ccc2CC1C(=O)NC1CCCc2ccccc21)C(C)(C)C

> <Shape>
0.262

> <Color>
0.193

> <Negative vol penalty>
0.000

$$$$

  -OEChem-04052318413D

 86 94  0     1  0  0  0  0  0999 V2000
  -16.8663  -29.0182   24.3338 C   0  0  0  0  0  0  0  0  0  0  0  0
  -17.2991  -28.0455   23.4383 C   0  0  0  0  0  0  0  0  0  0  0  0
  -27.0212  -10.3905   21.3952 C   0  0  0  0  0  0  0  0  0  0  0  0
  -25.5553  -12.2029   20.7602 C   0  0  0  0  0  0  0  0  0  0  0  0
  -17.5207  -30.2478   24.3957 C   0  0  0  0  0  0  0  0  0  0  0  0
  -18.3861  -28.3023   22.6034 C   0  0  0  0  0  0  0  0  0  0  0  0
  -22.6114  -24.2886   20.7211 C   0  0  0  0  0  0  0  0  0  0  0  0
  -25.9572   -9.7537   22.0339 C   0  0  0  0  0  0  0  0  0  0  0  0
  -24.4913  -11.5661   21.3988 C   0  0  0  0  0  0  0  0  0  0  0  0
  -22.7558  -23.5639   19.5389 C   0  0  0  0  0  0  0  0  0  0  0  0
  -23.2841   -7.8801   21.1524 C   0  0  0  0  0  0  0  0  0  0  0  0
  -23.1230   -6.5117   20.9354 C   0  0  0  0  0  0  0  0  0  0  0  0
  -24.2491  -25.2576   18.6901 C   0  0  0  0  0  0  0  0  0  0  0  0
  -24.2659  -20.2595   17.2353 C   0  0  0  0  0  0  0  0  0  0  0  0
  -25.6320  -18.9293   18.7012 C   0  0  0  0  0  0  0  0  0  0  0  0
  -23.3832   -6.1056   23.3028 C   0  0  0  0  0  0  0  0  0  0  0  0
  -26.8203  -11.6152   20.7584 C   0  0  0  0  0  0  0  0  0  0  0  0
  -28.3171  -12.1257   18.7568 C   0  0  0  0  0  0  0  0  0  0  0  0
  -18.6222  -30.5162   23.5679 C   0  0  0  0  0  0  0  0  0  0  0  0
  -23.2773  -25.5107   20.8926 C   0  0  0  0  0  0  0  0  0  0  0  0
  -19.0550  -29.5371   22.6533 C   0  0  0  0  0  0  0  0  0  0  0  0
  -24.1135  -25.9947   19.8764 C   0  0  0  0  0  0  0  0  0  0  0  0
  -24.3939  -19.2037   18.1310 C   0  0  0  0  0  0  0  0  0  0  0  0
  -24.6922  -10.3414   22.0357 C   0  0  0  0  0  0  0  0  0  0  0  0
  -23.5725  -24.0497   18.5220 C   0  0  0  0  0  0  0  0  0  0  0  0
  -23.4948   -8.3613   22.4447 C   0  0  0  0  0  0  0  0  0  0  0  0
  -23.1726   -5.6244   22.0106 C   0  0  0  0  0  0  0  0  0  0  0  0
  -23.5443   -7.4740   23.5198 C   0  0  0  0  0  0  0  0  0  0  0  0
  -27.9192  -12.2738   20.0990 C   0  0  0  0  0  0  0  0  0  0  0  0
  -25.3974  -21.0047   16.9453 C   0  0  0  0  0  0  0  0  0  0  0  0
  -26.7024  -19.7340   18.3454 C   0  0  0  0  0  0  0  0  0  0  0  0
  -29.4017  -12.9583   18.6264 C   0  0  0  0  0  0  0  0  0  0  0  0
  -27.7565  -11.3086   17.7205 C   0  0  0  0  0  0  0  0  0  0  0  0
  -22.3608  -28.5192   21.3539 C   0  0  0  0  0  0  0  0  0  0  0  0
  -25.5438  -29.0217   21.7257 C   0  0  0  0  0  0  0  0  0  0  0  0
  -28.7338  -27.9951   21.0802 C   0  0  0  0  0  0  0  0  0  0  0  0
  -31.1490  -17.8698   21.5718 C   0  0  0  0  0  0  0  0  0  0  0  0
  -19.2680  -31.8774   23.6375 C   0  0  0  0  0  0  0  0  0  0  0  0
  -23.1321  -26.2673   22.1845 C   0  0  0  0  0  0  0  0  0  0  0  0
  -24.8662  -27.2914   20.0191 C   0  0  0  0  0  0  0  0  0  0  0  0
  -20.6456  -31.9322   22.9822 C   0  0  0  0  0  0  0  0  0  0  0  0
  -32.9935  -14.8528   21.1563 C   0  0  0  0  0  0  0  0  0  0  0  0
  -20.6150  -31.2514   21.6175 C   0  0  0  0  0  0  0  0  0  0  0  0
  -31.9381  -13.8364   20.7171 C   0  0  0  0  0  0  0  0  0  0  0  0
  -32.4348  -15.8409   22.1778 C   0  0  0  0  0  0  0  0  0  0  0  0
  -30.1472  -15.5183   21.3193 C   0  0  0  0  0  0  0  0  0  0  0  0
  -20.2457  -29.7689   21.7487 C   0  0  1  0  0  0  0  0  0  0  0  0
  -23.4519  -27.7526   22.0463 C   0  0  1  0  0  0  0  0  0  0  0  0
  -30.6479  -14.5351   20.2475 C   0  0  2  0  0  0  0  0  0  0  0  0
  -23.2079  -18.3697   18.4794 C   0  0  0  0  0  0  0  0  0  0  0  0
  -29.1850  -19.6952   17.9051 C   0  0  0  0  0  0  0  0  0  0  0  0
  -31.1275  -28.6308   21.4843 C   0  0  0  0  0  0  0  0  0  0  0  0
  -25.3206  -31.2017   19.6026 C   0  0  0  0  0  0  0  0  0  0  0  0
  -27.8121  -31.1302   19.3671 C   0  0  0  0  0  0  0  0  0  0  0  0
  -26.7852  -31.7829   21.5447 C   0  0  0  0  0  0  0  0  0  0  0  0
  -28.2947  -21.7110   20.2357 C   0  0  0  0  0  0  0  0  0  0  0  0
  -27.2736  -19.7413   21.3746 C   0  0  0  0  0  0  0  0  0  0  0  0
  -29.2732  -25.4848   22.5522 C   0  0  0  0  0  0  0  0  0  0  0  0
  -25.2961  -22.1596   15.9786 C   0  0  0  0  0  0  0  0  0  0  0  0
  -29.7425  -19.8042   20.9093 C   0  0  0  0  0  0  0  0  0  0  0  0
  -24.9573  -23.4721   16.6768 C   0  0  0  0  0  0  0  0  0  1  0  0
  -28.0462  -19.4669   18.9368 C   0  0  1  0  0  0  0  0  0  0  0  0
  -26.6865  -29.3682   20.8021 C   0  0  1  0  0  0  0  0  0  0  0  0
  -29.9398  -27.8245   21.9862 C   0  0  2  0  0  0  0  0  0  0  0  0
  -26.6355  -30.8473   20.3253 C   0  0  0  0  0  0  0  0  0  0  0  0
  -28.3416  -20.1704   20.3394 C   0  0  0  0  0  0  0  0  0  0  0  0
  -28.6884  -13.1328   20.7731 N   0  0  0  0  0  0  0  0  0  0  0  0
  -26.6167  -20.7684   17.4792 N   0  0  0  0  0  0  0  0  0  0  0  0
  -29.5806  -13.5319   19.8508 N   0  0  0  0  0  0  0  0  0  0  0  0
  -24.6867  -27.9977   21.2984 N   0  0  0  0  0  0  0  0  0  0  0  0
  -31.2129  -16.4700   21.6705 N   0  0  0  0  0  0  0  0  0  0  0  0
  -30.2102  -13.2484   17.5850 N   0  0  0  0  0  0  0  0  0  0  0  0
  -26.6431  -10.5138   18.0251 N   0  0  0  0  0  0  0  0  0  0  0  0
  -21.3855  -29.0026   22.2051 N   0  0  0  0  0  0  0  0  0  0  0  0
  -27.9091  -29.0116   21.5137 N   0  0  0  0  0  0  0  0  0  0  0  0
  -29.9575  -18.3840   21.0754 N   0  0  0  0  0  0  0  0  0  0  0  0
  -30.3395  -26.3903   22.0521 N   0  3  0  0  0  0  0  0  0  0  0  0
  -28.2391  -11.2717   16.5632 O   0  0  0  0  0  0  0  0  0  0  0  0
  -22.4015  -28.6629   20.1375 O   0  0  0  0  0  0  0  0  0  0  0  0
  -25.4205  -29.6321   22.7905 O   0  0  0  0  0  0  0  0  0  0  0  0
  -28.5443  -27.2989   20.0853 O   0  0  0  0  0  0  0  0  0  0  0  0
  -32.0865  -18.6063   21.8966 O   0  0  0  0  0  0  0  0  0  0  0  0
  -23.6537   -9.7202   22.6586 O   0  0  0  0  0  0  0  0  0  0  0  0
  -23.7147  -23.3446   17.3668 O   0  0  0  0  0  0  0  0  0  1  0  0
  -23.0164   -4.3105   21.8022 F   0  0  0  0  0  0  0  0  0  0  0  0
  -23.7452   -7.9305   24.7636 F   0  0  0  0  0  0  0  0  0  0  0  0
  1  2  1  0  0  0  0
  1  5  2  0  0  0  0
  2  6  2  0  0  0  0
  3  8  2  0  0  0  0
  3 17  1  0  0  0  0
  4  9  1  0  0  0  0
  4 17  2  0  0  0  0
  5 19  1  0  0  0  0
  6 21  1  0  0  0  0
  7 10  2  0  0  0  0
  7 20  1  0  0  0  0
  8 24  1  0  0  0  0
  9 24  2  0  0  0  0
 10 25  1  0  0  0  0
 11 12  2  0  0  0  0
 11 26  1  0  0  0  0
 12 27  1  0  0  0  0
 13 22  1  0  0  0  0
 13 25  2  0  0  0  0
 14 23  2  0  0  0  0
 14 30  1  0  0  0  0
 15 23  1  0  0  0  0
 15 31  2  0  0  0  0
 16 27  2  0  0  0  0
 16 28  1  0  0  0  0
 17 29  1  0  0  0  0
 18 29  1  0  0  0  0
 18 32  2  0  0  0  0
 18 33  1  0  0  0  0
 19 21  2  0  0  0  0
 19 38  1  0  0  0  0
 20 22  2  0  0  0  0
 20 39  1  0  0  0  0
 21 47  1  0  0  0  0
 22 40  1  0  0  0  0
 23 50  1  0  0  0  0
 24 83  1  0  0  0  0
 25 84  1  0  0  0  0
 26 28  2  0  0  0  0
 26 83  1  0  0  0  0
 27 85  1  0  0  0  0
 28 86  1  0  0  0  0
 29 67  2  0  0  0  0
 30 59  1  0  0  0  0
 30 68  2  0  0  0  0
 31 62  1  0  0  0  0
 31 68  1  0  0  0  0
 32 69  1  0  0  0  0
 32 72  1  0  0  0  0
 33 73  1  0  0  0  0
 33 78  2  0  0  0  0
 34 48  1  0  0  0  0
 34 74  1  0  0  0  0
 34 79  2  0  0  0  0
 35 63  1  0  0  0  0
 35 70  1  0  0  0  0
 35 80  2  0  0  0  0
 36 64  1  0  0  0  0
 36 75  1  0  0  0  0
 36 81  2  0  0  0  0
 37 71  1  0  0  0  0
 37 76  1  0  0  0  0
 37 82  2  0  0  0  0
 38 41  1  0  0  0  0
 39 48  1  0  0  0  0
 40 70  1  0  0  0  0
 41 43  1  0  0  0  0
 42 44  1  0  0  0  0
 42 45  1  0  0  0  0
 43 47  1  0  0  0  0
 44 49  1  0  0  0  0
 45 71  1  0  0  0  0
 46 49  1  0  0  0  0
 46 71  1  0  0  0  0
 47 74  1  0  0  0  0
 48 70  1  0  0  0  0
 49 69  1  0  0  0  0
 51 62  1  0  0  0  0
 52 64  1  0  0  0  0
 53 65  1  0  0  0  0
 54 65  1  0  0  0  0
 55 65  1  0  0  0  0
 56 66  1  0  0  0  0
 57 66  1  0  0  0  0
 58 77  1  0  0  0  0
 59 61  1  0  0  0  0
 60 66  1  0  0  0  0
 60 76  1  0  0  0  0
 61 84  1  0  0  0  0
 62 66  1  0  0  0  0
 63 65  1  0  0  0  0
 63 75  1  0  0  0  0
 64 77  1  0  0  0  0
 67 69  1  0  0  0  0
M  CHG  1  77   1
M  ISO  4  37 100  61 101  76 100  84 101
M  END
> <Batch ID>
0079

> <Smiles>
CNC(C)C(=O)NC(C(=O)N1Cc2cc([101O:1][101CH2:1]Cc3cc(C)cc(C(C)C(C)(C)C[100NH:0][100C:0](=O)N4CCCC(n5nc(-c6ccc(Oc7ccc(F)cc7F)cc6)c(C(N)=O)c5N)C4)n3)ccc2CC1C(=O)NC1CCCc2ccccc21)C(C)(C)C

> <Shape>
0.288

> <Color>
0.066

> <Negative vol penalty>
0.000

$$$$

  -OEChem-04052318413D

 85 93  0     1  0  0  0  0  0999 V2000
  -16.2515  -30.2779   26.8861 C   0  0  0  0  0  0  0  0  0  0  0  0
  -17.1902  -29.2913   27.1704 C   0  0  0  0  0  0  0  0  0  0  0  0
  -22.9749   -9.9333   19.9778 C   0  0  0  0  0  0  0  0  0  0  0  0
  -23.7662   -9.8961   22.2602 C   0  0  0  0  0  0  0  0  0  0  0  0
  -16.0933  -30.7315   25.5772 C   0  0  0  0  0  0  0  0  0  0  0  0
  -17.9705  -28.7569   26.1458 C   0  0  0  0  0  0  0  0  0  0  0  0
  -24.5033  -26.0874   24.9158 C   0  0  0  0  0  0  0  0  0  0  0  0
  -22.1995   -8.8012   20.2281 C   0  0  0  0  0  0  0  0  0  0  0  0
  -22.9907   -8.7640   22.5106 C   0  0  0  0  0  0  0  0  0  0  0  0
  -25.1225  -24.9646   24.3684 C   0  0  0  0  0  0  0  0  0  0  0  0
  -23.1718   -5.4399   21.9203 C   0  0  0  0  0  0  0  0  0  0  0  0
  -23.7653   -4.3897   22.6205 C   0  0  0  0  0  0  0  0  0  0  0  0
  -24.8176  -25.8815   22.1580 C   0  0  0  0  0  0  0  0  0  0  0  0
  -28.2674  -18.2182   21.8037 C   0  0  0  0  0  0  0  0  0  0  0  0
  -22.0937   -4.5997   24.3522 C   0  0  0  0  0  0  0  0  0  0  0  0
  -23.7583  -10.4807   20.9939 C   0  0  0  0  0  0  0  0  0  0  0  0
  -24.1758  -12.9952   20.8911 C   0  0  0  0  0  0  0  0  0  0  0  0
  -16.8788  -30.2093   24.5376 C   0  0  0  0  0  0  0  0  0  0  0  0
  -24.0261  -27.1124   24.0863 C   0  0  0  0  0  0  0  0  0  0  0  0
  -17.8218  -29.2030   24.8215 C   0  0  0  0  0  0  0  0  0  0  0  0
  -24.1950  -27.0175   22.6976 C   0  0  0  0  0  0  0  0  0  0  0  0
  -27.0770  -18.7160   21.2187 C   0  0  0  0  0  0  0  0  0  0  0  0
  -22.2074   -8.2166   21.4945 C   0  0  0  0  0  0  0  0  0  0  0  0
  -25.2771  -24.8601   22.9891 C   0  0  0  0  0  0  0  0  0  0  0  0
  -22.0392   -6.0700   22.4360 C   0  0  0  0  0  0  0  0  0  0  0  0
  -23.2263   -3.9696   23.8365 C   0  0  0  0  0  0  0  0  0  0  0  0
  -21.5002   -5.6499   23.6519 C   0  0  0  0  0  0  0  0  0  0  0  0
  -24.5600  -11.6498   20.7357 C   0  0  0  0  0  0  0  0  0  0  0  0
  -29.2523  -18.2727   20.8423 C   0  0  0  0  0  0  0  0  0  0  0  0
  -27.3707  -19.0594   19.9174 C   0  0  0  0  0  0  0  0  0  0  0  0
  -25.2854  -13.7143   20.5191 C   0  0  0  0  0  0  0  0  0  0  0  0
  -22.9277  -13.5458   21.3323 C   0  0  0  0  0  0  0  0  0  0  0  0
  -21.1679  -28.3707   23.4935 C   0  0  0  0  0  0  0  0  0  0  0  0
  -22.8939  -30.4841   21.7394 C   0  0  0  0  0  0  0  0  0  0  0  0
  -25.7563  -31.1548   20.0064 C   0  0  0  0  0  0  0  0  0  0  0  0
  -30.7999  -14.5634   20.6393 C   0  0  0  0  0  0  0  0  0  0  0  0
  -16.6388  -30.6974   23.1308 C   0  0  0  0  0  0  0  0  0  0  0  0
  -23.3844  -28.3295   24.6941 C   0  0  0  0  0  0  0  0  0  0  0  0
  -23.7183  -28.0997   21.7649 C   0  0  0  0  0  0  0  0  0  0  0  0
  -17.7665  -30.3464   22.1636 C   0  0  0  0  0  0  0  0  0  0  0  0
  -29.5569  -12.2367   18.2480 C   0  0  0  0  0  0  0  0  0  0  0  0
  -18.1751  -28.8859   22.3275 C   0  0  0  0  0  0  0  0  0  0  0  0
  -28.1172  -11.9832   18.6985 C   0  0  0  0  0  0  0  0  0  0  0  0
  -30.4968  -12.4184   19.4378 C   0  0  0  0  0  0  0  0  0  0  0  0
  -28.6376  -13.1946   20.8573 C   0  0  0  0  0  0  0  0  0  0  0  0
  -18.7043  -28.6164   23.7412 C   0  0  1  0  0  0  0  0  0  0  0  0
  -22.4757  -29.0746   23.7213 C   0  0  1  0  0  0  0  0  0  0  0  0
  -27.6425  -13.0606   19.6920 C   0  0  2  0  0  0  0  0  0  0  0  0
  -26.5029  -19.6251   18.8625 C   0  0  0  0  0  0  0  0  0  0  0  0
  -31.5943  -19.0637   21.3037 C   0  0  0  0  0  0  0  0  0  0  0  0
  -26.8626  -32.9536   18.6507 C   0  0  0  0  0  0  0  0  0  0  0  0
  -21.0696  -29.8271   19.3834 C   0  0  0  0  0  0  0  0  0  0  0  0
  -22.7608  -30.8832   17.8693 C   0  0  0  0  0  0  0  0  0  0  0  0
  -21.6321  -32.2521   19.6228 C   0  0  0  0  0  0  0  0  0  0  0  0
  -29.4003  -19.0038   18.4538 C   0  0  0  0  0  0  0  0  0  0  0  0
  -28.0257  -31.3449   21.8965 C   0  0  0  0  0  0  0  0  0  0  0  0
  -25.7389  -18.8438   21.9021 C   0  0  0  0  0  0  0  0  0  0  0  0
  -25.6474  -20.0311   22.8670 C   0  0  0  0  0  0  0  0  0  0  0  0
  -25.8024  -21.3831   22.1692 C   0  0  0  0  0  0  0  0  0  0  0  0
  -30.9487  -16.6996   21.8939 C   0  0  0  0  0  0  0  0  0  0  0  0
  -25.7459  -22.5351   23.1633 C   0  0  0  0  0  0  0  0  0  1  0  0
  -30.6741  -17.8790   20.9205 C   0  0  1  0  0  0  0  0  0  0  0  0
  -23.3698  -30.5484   20.3082 C   0  0  1  0  0  0  0  0  0  0  0  0
  -26.6953  -32.3472   20.0353 C   0  0  2  0  0  0  0  0  0  0  0  0
  -22.2154  -30.8563   19.3131 C   0  0  0  0  0  0  0  0  0  0  0  0
  -25.8154  -11.5192   20.2989 N   0  0  0  0  0  0  0  0  0  0  0  0
  -28.6957  -18.7853   19.6997 N   0  0  0  0  0  0  0  0  0  0  0  0
  -26.2297  -12.7918   20.1765 N   0  0  0  0  0  0  0  0  0  0  0  0
  -23.0916  -29.2670   22.4069 N   0  0  0  0  0  0  0  0  0  0  0  0
  -29.9903  -13.4551   20.3404 N   0  0  0  0  0  0  0  0  0  0  0  0
  -25.5355  -15.0393   20.4547 N   0  0  0  0  0  0  0  0  0  0  0  0
  -21.8930  -12.6650   21.6758 N   0  0  0  0  0  0  0  0  0  0  0  0
  -20.0604  -29.1039   23.8747 N   0  0  0  0  0  0  0  0  0  0  0  0
  -24.4562  -31.5218   20.2826 N   0  0  0  0  0  0  0  0  0  0  0  0
  -30.2412  -15.5024   21.4977 N   0  0  0  0  0  0  0  0  0  0  0  0
  -28.0384  -31.9369   20.5341 N   0  3  0  0  0  0  0  0  0  0  0  0
  -22.7301  -14.7825   21.4037 O   0  0  0  0  0  0  0  0  0  0  0  0
  -21.1638  -27.2462   23.0065 O   0  0  0  0  0  0  0  0  0  0  0  0
  -22.3725  -31.4793   22.2487 O   0  0  0  0  0  0  0  0  0  0  0  0
  -26.1373  -30.0127   19.7594 O   0  0  0  0  0  0  0  0  0  0  0  0
  -31.9343  -14.7082   20.1713 O   0  0  0  0  0  0  0  0  0  0  0  0
  -21.4507   -7.1120   21.7392 O   0  0  0  0  0  0  0  0  0  0  0  0
  -25.8805  -23.7649   22.4522 O   0  0  0  0  0  0  0  0  0  1  0  0
  -23.7955   -2.9600   24.5081 F   0  0  0  0  0  0  0  0  0  0  0  0
  -20.4116   -6.2506   24.1519 F   0  0  0  0  0  0  0  0  0  0  0  0
  1  2  1  0  0  0  0
  1  5  2  0  0  0  0
  2  6  2  0  0  0  0
  3  8  2  0  0  0  0
  3 16  1  0  0  0  0
  4  9  1  0  0  0  0
  4 16  2  0  0  0  0
  5 18  1  0  0  0  0
  6 20  1  0  0  0  0
  7 10  2  0  0  0  0
  7 19  1  0  0  0  0
  8 23  1  0  0  0  0
  9 23  2  0  0  0  0
 10 24  1  0  0  0  0
 11 12  2  0  0  0  0
 11 25  1  0  0  0  0
 12 26  1  0  0  0  0
 13 21  1  0  0  0  0
 13 24  2  0  0  0  0
 14 22  1  0  0  0  0
 14 29  2  0  0  0  0
 15 26  2  0  0  0  0
 15 27  1  0  0  0  0
 16 28  1  0  0  0  0
 17 28  1  0  0  0  0
 17 31  2  0  0  0  0
 17 32  1  0  0  0  0
 18 20  2  0  0  0  0
 18 37  1  0  0  0  0
 19 21  2  0  0  0  0
 19 38  1  0  0  0  0
 20 46  1  0  0  0  0
 21 39  1  0  0  0  0
 22 30  2  0  0  0  0
 22 57  1  0  0  0  0
 23 82  1  0  0  0  0
 24 83  1  0  0  0  0
 25 27  2  0  0  0  0
 25 82  1  0  0  0  0
 26 84  1  0  0  0  0
 27 85  1  0  0  0  0
 28 66  2  0  0  0  0
 29 62  1  0  0  0  0
 29 67  1  0  0  0  0
 30 49  1  0  0  0  0
 30 67  1  0  0  0  0
 31 68  1  0  0  0  0
 31 71  1  0  0  0  0
 32 72  1  0  0  0  0
 32 77  2  0  0  0  0
 33 47  1  0  0  0  0
 33 73  1  0  0  0  0
 33 78  2  0  0  0  0
 34 63  1  0  0  0  0
 34 69  1  0  0  0  0
 34 79  2  0  0  0  0
 35 64  1  0  0  0  0
 35 74  1  0  0  0  0
 35 80  2  0  0  0  0
 36 70  1  0  0  0  0
 36 75  1  0  0  0  0
 36 81  2  0  0  0  0
 37 40  1  0  0  0  0
 38 47  1  0  0  0  0
 39 69  1  0  0  0  0
 40 42  1  0  0  0  0
 41 43  1  0  0  0  0
 41 44  1  0  0  0  0
 42 46  1  0  0  0  0
 43 48  1  0  0  0  0
 44 70  1  0  0  0  0
 45 48  1  0  0  0  0
 45 70  1  0  0  0  0
 46 73  1  0  0  0  0
 47 69  1  0  0  0  0
 48 68  1  0  0  0  0
 50 62  1  0  0  0  0
 51 64  1  0  0  0  0
 52 65  1  0  0  0  0
 53 65  1  0  0  0  0
 54 65  1  0  0  0  0
 55 67  1  0  0  0  0
 56 76  1  0  0  0  0
 57 58  1  0  0  0  0
 58 59  1  0  0  0  0
 59 61  1  0  0  0  0
 60 62  1  0  0  0  0
 60 75  1  0  0  0  0
 61 83  1  0  0  0  0
 63 65  1  0  0  0  0
 63 74  1  0  0  0  0
 64 76  1  0  0  0  0
 66 68  1  0  0  0  0
M  CHG  1  76   1
M  ISO  4  36 100  61 101  75 100  83 101
M  END
> <Batch ID>
0079

> <Smiles>
CNC(C)C(=O)NC(C(=O)N1Cc2cc([101O:1][101CH2:1]CCCc3cc(C(C)C[100NH:0][100C:0](=O)N4CCCC(n5nc(-c6ccc(Oc7ccc(F)cc7F)cc6)c(C(N)=O)c5N)C4)n(C)c3C)ccc2CC1C(=O)NC1CCCc2ccccc21)C(C)(C)C

> <Shape>
0.329

> <Color>
0.225

> <Negative vol penalty>
0.000

$$$$

  -OEChem-04052318413D

 84 92  0     1  0  0  0  0  0999 V2000
  -16.2121  -27.2400   21.4139 C   0  0  0  0  0  0  0  0  0  0  0  0
  -17.4404  -26.6030   21.5587 C   0  0  0  0  0  0  0  0  0  0  0  0
  -24.5296  -13.7399   20.9048 C   0  0  0  0  0  0  0  0  0  0  0  0
  -26.8177  -13.2240   20.3255 C   0  0  0  0  0  0  0  0  0  0  0  0
  -16.1650  -28.6012   21.1159 C   0  0  0  0  0  0  0  0  0  0  0  0
  -18.6223  -27.3267   21.4046 C   0  0  0  0  0  0  0  0  0  0  0  0
  -22.0194  -26.2904   25.0145 C   0  0  0  0  0  0  0  0  0  0  0  0
  -24.1454  -12.4509   20.5353 C   0  0  0  0  0  0  0  0  0  0  0  0
  -26.4335  -11.9349   19.9560 C   0  0  0  0  0  0  0  0  0  0  0  0
  -22.7388  -25.1027   24.8897 C   0  0  0  0  0  0  0  0  0  0  0  0
  -24.2536   -9.3427   21.8622 C   0  0  0  0  0  0  0  0  0  0  0  0
  -23.3938   -8.6526   22.7166 C   0  0  0  0  0  0  0  0  0  0  0  0
  -24.6105  -26.3370   23.9995 C   0  0  0  0  0  0  0  0  0  0  0  0
  -21.7622   -8.4887   20.9423 C   0  0  0  0  0  0  0  0  0  0  0  0
  -28.0965  -24.1830   25.8350 C   0  0  0  0  0  0  0  0  0  0  0  0
  -25.8657  -14.1264   20.7999 C   0  0  0  0  0  0  0  0  0  0  0  0
  -26.6827  -15.8884   22.4538 C   0  0  0  0  0  0  0  0  0  0  0  0
  -17.3469  -29.3440   20.9676 C   0  0  0  0  0  0  0  0  0  0  0  0
  -22.5871  -27.5110   24.6218 C   0  0  0  0  0  0  0  0  0  0  0  0
  -18.5910  -28.6988   21.1031 C   0  0  0  0  0  0  0  0  0  0  0  0
  -23.8972  -27.5391   24.1227 C   0  0  0  0  0  0  0  0  0  0  0  0
  -25.0973  -11.5484   20.0610 C   0  0  0  0  0  0  0  0  0  0  0  0
  -24.0335  -25.1255   24.3795 C   0  0  0  0  0  0  0  0  0  0  0  0
  -23.8677   -9.6059   20.5478 C   0  0  0  0  0  0  0  0  0  0  0  0
  -22.1481   -8.2256   22.2567 C   0  0  0  0  0  0  0  0  0  0  0  0
  -22.6220   -9.1789   20.0879 C   0  0  0  0  0  0  0  0  0  0  0  0
  -26.2631  -15.4580   21.1808 C   0  0  0  0  0  0  0  0  0  0  0  0
  -29.2884  -24.8512   25.8334 C   0  0  0  0  0  0  0  0  0  0  0  0
  -26.9451  -17.2271   22.2944 C   0  0  0  0  0  0  0  0  0  0  0  0
  -29.4019  -23.2478   24.3112 C   0  0  0  0  0  0  0  0  0  0  0  0
  -26.8229  -15.1446   23.6715 C   0  0  0  0  0  0  0  0  0  0  0  0
  -21.8793  -29.7172   22.4457 C   0  0  0  0  0  0  0  0  0  0  0  0
  -24.3120  -31.3321   23.8587 C   0  0  0  0  0  0  0  0  0  0  0  0
  -27.1772  -31.2164   25.7091 C   0  0  0  0  0  0  0  0  0  0  0  0
  -29.1709  -21.4375   19.3851 C   0  0  0  0  0  0  0  0  0  0  0  0
  -17.2459  -30.8030   20.5990 C   0  0  0  0  0  0  0  0  0  0  0  0
  -21.8077  -28.7867   24.7877 C   0  0  0  0  0  0  0  0  0  0  0  0
  -24.5596  -28.8259   23.7059 C   0  0  0  0  0  0  0  0  0  0  0  0
  -18.5418  -31.5786   20.8215 C   0  0  0  0  0  0  0  0  0  0  0  0
  -25.9118  -20.3497   18.4514 C   0  0  0  0  0  0  0  0  0  0  0  0
  -19.7302  -30.8050   20.2593 C   0  0  0  0  0  0  0  0  0  0  0  0
  -25.7501  -19.0133   19.1780 C   0  0  0  0  0  0  0  0  0  0  0  0
  -27.3438  -20.5568   17.9630 C   0  0  0  0  0  0  0  0  0  0  0  0
  -28.2180  -19.0775   19.7296 C   0  0  0  0  0  0  0  0  0  0  0  0
  -19.8948  -29.4551   20.9679 C   0  0  1  0  0  0  0  0  0  0  0  0
  -22.2965  -29.9084   23.8765 C   0  0  1  0  0  0  0  0  0  0  0  0
  -26.8038  -18.8484   20.2897 C   0  0  2  0  0  0  0  0  0  0  0  0
  -29.7621  -25.9875   26.6277 C   0  0  0  0  0  0  0  0  0  0  0  0
  -28.9616  -32.6951   26.6716 C   0  0  0  0  0  0  0  0  0  0  0  0
  -24.9864  -24.1366   21.8750 C   0  0  0  0  0  0  0  0  0  0  0  0
  -25.5606  -31.6233   21.0899 C   0  0  0  0  0  0  0  0  0  0  0  0
  -27.7186  -32.2324   22.2037 C   0  0  0  0  0  0  0  0  0  0  0  0
  -25.7047  -33.6700   22.5198 C   0  0  0  0  0  0  0  0  0  0  0  0
  -26.5247  -30.3982   28.4774 C   0  0  0  0  0  0  0  0  0  0  0  0
  -29.9184  -22.3626   23.2377 C   0  0  0  0  0  0  0  0  0  0  0  0
  -30.4187  -23.1015   21.9770 C   0  0  0  0  0  0  0  0  0  0  0  0
  -26.3778  -22.5259   23.2257 C   0  0  0  0  0  0  0  0  0  0  0  0
  -27.1059  -22.2114   24.5405 C   0  0  0  0  0  0  0  0  0  0  0  0
  -30.9906  -22.1832   20.8990 C   0  0  0  0  0  0  0  0  0  0  0  0
  -25.8052  -31.4114   23.6514 C   0  0  1  0  0  0  0  0  0  0  0  0
  -27.6261  -32.0120   26.9215 C   0  0  2  0  0  0  0  0  0  0  0  0
  -25.6969  -23.9000   23.2017 C   0  0  2  0  0  0  0  0  0  1  0  0
  -26.1844  -32.2096   22.3721 C   0  0  0  0  0  0  0  0  0  0  0  0
  -26.2576  -16.4434   20.2793 N   0  0  0  0  0  0  0  0  0  0  0  0
  -28.1946  -23.1967   24.8833 N   0  0  0  0  0  0  0  0  0  0  0  0
  -26.6768  -17.5064   20.9866 N   0  0  0  0  0  0  0  0  0  0  0  0
  -30.0769  -24.2512   24.8814 N   0  3  0  0  0  0  0  0  0  0  0  0
  -23.7543  -30.0459   23.8814 N   0  0  0  0  0  0  0  0  0  0  0  0
  -28.2933  -20.3883   19.0656 N   0  0  0  0  0  0  0  0  0  0  0  0
  -27.3767  -18.1809   23.1467 N   0  0  0  0  0  0  0  0  0  0  0  0
  -26.5110  -13.7782   23.6595 N   0  0  0  0  0  0  0  0  0  0  0  0
  -20.5118  -29.6367   22.2644 N   0  0  0  0  0  0  0  0  0  0  0  0
  -26.3599  -31.9599   24.8843 N   0  0  0  0  0  0  0  0  0  0  0  0
  -30.0337  -21.1977   20.4476 N   0  0  0  0  0  0  0  0  0  0  0  0
  -27.7701  -31.1169   28.1042 N   0  3  0  0  0  0  0  0  0  0  0  0
  -27.1974  -15.6794   24.7426 O   0  0  0  0  0  0  0  0  0  0  0  0
  -22.7347  -29.6494   21.5708 O   0  0  0  0  0  0  0  0  0  0  0  0
  -23.6653  -32.3726   24.0025 O   0  0  0  0  0  0  0  0  0  0  0  0
  -27.5205  -30.0529   25.5115 O   0  0  0  0  0  0  0  0  0  0  0  0
  -29.1809  -22.5106   18.7726 O   0  0  0  0  0  0  0  0  0  0  0  0
  -24.7228  -10.2905   19.7005 O   0  0  0  0  0  0  0  0  0  0  0  0
  -24.7377  -23.9676   24.2560 O   0  0  0  0  0  0  0  0  0  1  0  0
  -21.3232   -7.5615   23.0768 F   0  0  0  0  0  0  0  0  0  0  0  0
  -22.2463   -9.4277   18.8258 F   0  0  0  0  0  0  0  0  0  0  0  0
  1  2  1  0  0  0  0
  1  5  2  0  0  0  0
  2  6  2  0  0  0  0
  3  8  2  0  0  0  0
  3 16  1  0  0  0  0
  4  9  1  0  0  0  0
  4 16  2  0  0  0  0
  5 18  1  0  0  0  0
  6 20  1  0  0  0  0
  7 10  2  0  0  0  0
  7 19  1  0  0  0  0
  8 22  1  0  0  0  0
  9 22  2  0  0  0  0
 10 23  1  0  0  0  0
 11 12  2  0  0  0  0
 11 24  1  0  0  0  0
 12 25  1  0  0  0  0
 13 21  1  0  0  0  0
 13 23  2  0  0  0  0
 14 25  2  0  0  0  0
 14 26  1  0  0  0  0
 15 28  2  0  0  0  0
 15 65  1  0  0  0  0
 16 27  1  0  0  0  0
 17 27  1  0  0  0  0
 17 29  2  0  0  0  0
 17 31  1  0  0  0  0
 18 20  2  0  0  0  0
 18 36  1  0  0  0  0
 19 21  2  0  0  0  0
 19 37  1  0  0  0  0
 20 45  1  0  0  0  0
 21 38  1  0  0  0  0
 22 81  1  0  0  0  0
 23 82  1  0  0  0  0
 24 26  2  0  0  0  0
 24 81  1  0  0  0  0
 25 83  1  0  0  0  0
 26 84  1  0  0  0  0
 27 64  2  0  0  0  0
 28 48  1  0  0  0  0
 28 67  1  0  0  0  0
 29 66  1  0  0  0  0
 29 70  1  0  0  0  0
 30 55  1  0  0  0  0
 30 65  1  0  0  0  0
 30 67  2  0  0  0  0
 31 71  1  0  0  0  0
 31 76  2  0  0  0  0
 32 46  1  0  0  0  0
 32 72  1  0  0  0  0
 32 77  2  0  0  0  0
 33 60  1  0  0  0  0
 33 68  1  0  0  0  0
 33 78  2  0  0  0  0
 34 61  1  0  0  0  0
 34 73  1  0  0  0  0
 34 79  2  0  0  0  0
 35 69  1  0  0  0  0
 35 74  1  0  0  0  0
 35 80  2  0  0  0  0
 36 39  1  0  0  0  0
 37 46  1  0  0  0  0
 38 68  1  0  0  0  0
 39 41  1  0  0  0  0
 40 42  1  0  0  0  0
 40 43  1  0  0  0  0
 41 45  1  0  0  0  0
 42 47  1  0  0  0  0
 43 69  1  0  0  0  0
 44 47  1  0  0  0  0
 44 69  1  0  0  0  0
 45 72  1  0  0  0  0
 46 68  1  0  0  0  0
 47 66  1  0  0  0  0
 49 61  1  0  0  0  0
 50 62  1  0  0  0  0
 51 63  1  0  0  0  0
 52 63  1  0  0  0  0
 53 63  1  0  0  0  0
 54 75  1  0  0  0  0
 55 56  1  0  0  0  0
 56 59  1  0  0  0  0
 57 58  1  0  0  0  0
 57 62  1  0  0  0  0
 58 65  1  0  0  0  0
 59 74  1  0  0  0  0
 60 63  1  0  0  0  0
 60 73  1  0  0  0  0
 61 75  1  0  0  0  0
 62 82  1  0  0  0  0
 64 66  1  0  0  0  0
M  CHG  2  67   1  75   1
M  ISO  4  35 100  62 101  74 100  82 101
M  END
> <Batch ID>
0079

> <Smiles>
CNC(C)C(=O)NC(C(=O)N1Cc2cc([101O:1][101CH:1](C)CCn3cc(C)nc3CCC[100NH:0][100C:0](=O)N3CCCC(n4nc(-c5ccc(Oc6ccc(F)cc6F)cc5)c(C(N)=O)c4N)C3)ccc2CC1C(=O)NC1CCCc2ccccc21)C(C)(C)C

> <Shape>
0.230

> <Color>
0.075

> <Negative vol penalty>
0.000

$$$$

  -OEChem-04052318413D

 85 93  0     1  0  0  0  0  0999 V2000
  -16.4990  -30.0462   23.5419 C   0  0  0  0  0  0  0  0  0  0  0  0
  -16.8816  -29.3454   22.4027 C   0  0  0  0  0  0  0  0  0  0  0  0
  -25.5262  -13.4444   20.0404 C   0  0  0  0  0  0  0  0  0  0  0  0
  -26.3123  -13.7421   22.3055 C   0  0  0  0  0  0  0  0  0  0  0  0
  -17.3685  -30.1366   24.6281 C   0  0  0  0  0  0  0  0  0  0  0  0
  -18.1343  -28.7354   22.3485 C   0  0  0  0  0  0  0  0  0  0  0  0
  -21.4410  -23.0087   19.5941 C   0  0  0  0  0  0  0  0  0  0  0  0
  -31.0692  -24.4545   17.6988 C   0  0  0  0  0  0  0  0  0  0  0  0
  -25.3040  -12.0912   20.2954 C   0  0  0  0  0  0  0  0  0  0  0  0
  -26.0900  -12.3889   22.5605 C   0  0  0  0  0  0  0  0  0  0  0  0
  -22.5573  -22.6740   18.8289 C   0  0  0  0  0  0  0  0  0  0  0  0
  -22.9629  -10.1982   21.8345 C   0  0  0  0  0  0  0  0  0  0  0  0
  -21.7605   -9.6447   21.3946 C   0  0  0  0  0  0  0  0  0  0  0  0
  -30.4023  -23.5522   16.8775 C   0  0  0  0  0  0  0  0  0  0  0  0
  -23.9449  -22.8295   20.7961 C   0  0  0  0  0  0  0  0  0  0  0  0
  -22.9841   -8.0805   20.0186 C   0  0  0  0  0  0  0  0  0  0  0  0
  -26.0305  -14.2699   21.0455 C   0  0  0  0  0  0  0  0  0  0  0  0
  -25.3509  -16.7272   20.9593 C   0  0  0  0  0  0  0  0  0  0  0  0
  -18.6287  -29.5193   24.5910 C   0  0  0  0  0  0  0  0  0  0  0  0
  -21.5702  -23.2674   20.9662 C   0  0  0  0  0  0  0  0  0  0  0  0
  -19.0220  -28.8187   23.4347 C   0  0  0  0  0  0  0  0  0  0  0  0
  -22.8282  -23.1647   21.5769 C   0  0  0  0  0  0  0  0  0  0  0  0
  -30.6912  -24.5844   19.0306 C   0  0  0  0  0  0  0  0  0  0  0  0
  -25.5858  -11.5635   21.5554 C   0  0  0  0  0  0  0  0  0  0  0  0
  -23.8100  -22.5872   19.4292 C   0  0  0  0  0  0  0  0  0  0  0  0
  -24.1759   -9.6930   21.3664 C   0  0  0  0  0  0  0  0  0  0  0  0
  -21.7711   -8.5858   20.4867 C   0  0  0  0  0  0  0  0  0  0  0  0
  -24.1865   -8.6341   20.4585 C   0  0  0  0  0  0  0  0  0  0  0  0
  -26.2609  -15.6677   20.7825 C   0  0  0  0  0  0  0  0  0  0  0  0
  -29.3725  -22.8093   17.4319 C   0  0  0  0  0  0  0  0  0  0  0  0
  -29.6484  -23.7954   19.4885 C   0  0  0  0  0  0  0  0  0  0  0  0
  -26.0470  -17.8460   20.5716 C   0  0  0  0  0  0  0  0  0  0  0  0
  -23.9975  -16.7023   21.4318 C   0  0  0  0  0  0  0  0  0  0  0  0
  -21.0447  -25.7856   22.8333 C   0  0  0  0  0  0  0  0  0  0  0  0
  -21.7307  -23.6808   25.2043 C   0  0  0  0  0  0  0  0  0  0  0  0
  -23.2800  -20.7927   26.1559 C   0  0  0  0  0  0  0  0  0  0  0  0
  -30.6963  -20.9330   20.5859 C   0  0  0  0  0  0  0  0  0  0  0  0
  -19.5530  -29.6844   25.7713 C   0  0  0  0  0  0  0  0  0  0  0  0
  -20.3519  -23.6010   21.7829 C   0  0  0  0  0  0  0  0  0  0  0  0
  -23.0170  -23.4130   23.0504 C   0  0  0  0  0  0  0  0  0  0  0  0
  -20.7139  -28.6932   25.7792 C   0  0  0  0  0  0  0  0  0  0  0  0
  -30.4905  -18.3003   18.1977 C   0  0  0  0  0  0  0  0  0  0  0  0
  -21.3616  -28.6188   24.4001 C   0  0  0  0  0  0  0  0  0  0  0  0
  -29.3012  -17.4653   18.6754 C   0  0  0  0  0  0  0  0  0  0  0  0
  -31.2944  -18.8596   19.3695 C   0  0  0  0  0  0  0  0  0  0  0  0
  -29.3144  -18.7824   20.8349 C   0  0  0  0  0  0  0  0  0  0  0  0
  -20.3629  -28.1226   23.3476 C   0  0  1  0  0  0  0  0  0  0  0  0
  -20.6826  -24.3470   23.0719 C   0  0  1  0  0  0  0  0  0  0  0  0
  -28.4410  -18.2433   19.6892 C   0  0  2  0  0  0  0  0  0  0  0  0
  -31.4010  -25.5502   19.9149 C   0  0  0  0  0  0  0  0  0  0  0  0
  -27.6847  -23.6506   21.0528 C   0  0  0  0  0  0  0  0  0  0  0  0
  -23.6953  -19.3505   28.1671 C   0  0  0  0  0  0  0  0  0  0  0  0
  -23.8151  -25.6741   26.2002 C   0  0  0  0  0  0  0  0  0  0  0  0
  -24.8196  -23.8337   27.5686 C   0  0  0  0  0  0  0  0  0  0  0  0
  -22.4777  -24.5742   28.0046 C   0  0  0  0  0  0  0  0  0  0  0  0
  -21.8897  -18.4845   24.9320 C   0  0  0  0  0  0  0  0  0  0  0  0
  -28.6287  -21.8199   16.5707 C   0  0  0  0  0  0  0  0  0  0  0  0
  -27.1677  -21.6134   16.9856 C   0  0  0  0  0  0  0  0  0  0  0  0
  -26.3228  -22.8812   16.8529 C   0  0  0  0  0  0  0  0  0  0  0  0
  -29.9631  -22.9336   21.8585 C   0  0  0  0  0  0  0  0  0  0  0  0
  -24.8894  -22.6482   17.3110 C   0  0  0  0  0  0  0  0  0  1  0  0
  -29.2015  -23.8902   20.9106 C   0  0  1  0  0  0  0  0  0  0  0  0
  -22.9887  -23.2446   25.9158 C   0  0  1  0  0  0  0  0  0  0  0  0
  -22.7916  -19.6093   26.9716 C   0  0  2  0  0  0  0  0  0  0  0  0
  -23.5224  -24.3288   26.8941 C   0  0  0  0  0  0  0  0  0  0  0  0
  -27.4447  -16.0767   20.3185 N   0  0  0  0  0  0  0  0  0  0  0  0
  -28.9770  -22.9080   18.7209 N   0  0  0  0  0  0  0  0  0  0  0  0
  -27.2833  -17.4057   20.2003 N   0  0  0  0  0  0  0  0  0  0  0  0
  -21.7965  -23.7422   23.8051 N   0  0  0  0  0  0  0  0  0  0  0  0
  -30.4203  -19.5873   20.2927 N   0  0  0  0  0  0  0  0  0  0  0  0
  -25.7161  -19.1535   20.5153 N   0  0  0  0  0  0  0  0  0  0  0  0
  -23.4367  -15.4682   21.7878 N   0  0  0  0  0  0  0  0  0  0  0  0
  -20.1963  -26.6883   23.4455 N   0  0  0  0  0  0  0  0  0  0  0  0
  -22.6772  -21.9684   26.5504 N   0  0  0  0  0  0  0  0  0  0  0  0
  -29.8148  -21.5501   21.4651 N   0  0  0  0  0  0  0  0  0  0  0  0
  -22.7599  -18.3788   26.1314 N   0  3  0  0  0  0  0  0  0  0  0  0
  -23.3005  -17.7416   21.5196 O   0  0  0  0  0  0  0  0  0  0  0  0
  -22.0224  -26.0566   22.1460 O   0  0  0  0  0  0  0  0  0  0  0  0
  -20.7245  -23.9499   25.8652 O   0  0  0  0  0  0  0  0  0  0  0  0
  -24.1156  -20.6856   25.2611 O   0  0  0  0  0  0  0  0  0  0  0  0
  -31.6539  -21.5411   20.0960 O   0  0  0  0  0  0  0  0  0  0  0  0
  -25.3688  -10.2431   21.8046 O   0  0  0  0  0  0  0  0  0  0  0  0
  -24.9014  -22.2614   18.6845 O   0  0  0  0  0  0  0  0  0  1  0  0
  -20.6164   -8.0533   20.0656 F   0  0  0  0  0  0  0  0  0  0  0  0
  -25.3486   -8.1437   20.0061 F   0  0  0  0  0  0  0  0  0  0  0  0
  1  2  1  0  0  0  0
  1  5  2  0  0  0  0
  2  6  2  0  0  0  0
  3  9  2  0  0  0  0
  3 17  1  0  0  0  0
  4 10  1  0  0  0  0
  4 17  2  0  0  0  0
  5 19  1  0  0  0  0
  6 21  1  0  0  0  0
  7 11  2  0  0  0  0
  7 20  1  0  0  0  0
  8 14  2  0  0  0  0
  8 23  1  0  0  0  0
  9 24  1  0  0  0  0
 10 24  2  0  0  0  0
 11 25  1  0  0  0  0
 12 13  2  0  0  0  0
 12 26  1  0  0  0  0
 13 27  1  0  0  0  0
 14 30  1  0  0  0  0
 15 22  1  0  0  0  0
 15 25  2  0  0  0  0
 16 27  2  0  0  0  0
 16 28  1  0  0  0  0
 17 29  1  0  0  0  0
 18 29  1  0  0  0  0
 18 32  2  0  0  0  0
 18 33  1  0  0  0  0
 19 21  2  0  0  0  0
 19 38  1  0  0  0  0
 20 22  2  0  0  0  0
 20 39  1  0  0  0  0
 21 47  1  0  0  0  0
 22 40  1  0  0  0  0
 23 31  2  0  0  0  0
 23 50  1  0  0  0  0
 24 82  1  0  0  0  0
 25 83  1  0  0  0  0
 26 28  2  0  0  0  0
 26 82  1  0  0  0  0
 27 84  1  0  0  0  0
 28 85  1  0  0  0  0
 29 66  2  0  0  0  0
 30 57  1  0  0  0  0
 30 67  2  0  0  0  0
 31 62  1  0  0  0  0
 31 67  1  0  0  0  0
 32 68  1  0  0  0  0
 32 71  1  0  0  0  0
 33 72  1  0  0  0  0
 33 77  2  0  0  0  0
 34 48  1  0  0  0  0
 34 73  1  0  0  0  0
 34 78  2  0  0  0  0
 35 63  1  0  0  0  0
 35 69  1  0  0  0  0
 35 79  2  0  0  0  0
 36 64  1  0  0  0  0
 36 74  1  0  0  0  0
 36 80  2  0  0  0  0
 37 70  1  0  0  0  0
 37 75  1  0  0  0  0
 37 81  2  0  0  0  0
 38 41  1  0  0  0  0
 39 48  1  0  0  0  0
 40 69  1  0  0  0  0
 41 43  1  0  0  0  0
 42 44  1  0  0  0  0
 42 45  1  0  0  0  0
 43 47  1  0  0  0  0
 44 49  1  0  0  0  0
 45 70  1  0  0  0  0
 46 49  1  0  0  0  0
 46 70  1  0  0  0  0
 47 73  1  0  0  0  0
 48 69  1  0  0  0  0
 49 68  1  0  0  0  0
 51 62  1  0  0  0  0
 52 64  1  0  0  0  0
 53 65  1  0  0  0  0
 54 65  1  0  0  0  0
 55 65  1  0  0  0  0
 56 76  1  0  0  0  0
 57 58  1  0  0  0  0
 58 59  1  0  0  0  0
 59 61  1  0  0  0  0
 60 62  1  0  0  0  0
 60 75  1  0  0  0  0
 61 83  1  0  0  0  0
 63 65  1  0  0  0  0
 63 74  1  0  0  0  0
 64 76  1  0  0  0  0
 66 68  1  0  0  0  0
M  CHG  1  76   1
M  ISO  4  37 100  61 101  75 100  83 101
M  END
> <Batch ID>
0079

> <Smiles>
CNC(C)C(=O)NC(C(=O)N1Cc2cc([101O:1][101CH2:1]CCCc3ccc(C)c(C(C)C[100NH:0][100C:0](=O)N4CCCC(n5nc(-c6ccc(Oc7ccc(F)cc7F)cc6)c(C(N)=O)c5N)C4)n3)ccc2CC1C(=O)NC1CCCc2ccccc21)C(C)(C)C

> <Shape>
0.197

> <Color>
0.064

> <Negative vol penalty>
0.000

$$$$

  -OEChem-04052318413D

 88 96  0     1  0  0  0  0  0999 V2000
  -29.1327  -30.5768   20.5382 C   0  0  0  0  0  0  0  0  0  0  0  0
  -28.6744  -29.8216   21.6129 C   0  0  0  0  0  0  0  0  0  0  0  0
  -23.1991   -9.8510   19.9566 C   0  0  0  0  0  0  0  0  0  0  0  0
  -23.9060   -9.9363   22.2652 C   0  0  0  0  0  0  0  0  0  0  0  0
  -29.9360  -29.9852   19.5642 C   0  0  0  0  0  0  0  0  0  0  0  0
  -29.0183  -28.4740   21.7137 C   0  0  0  0  0  0  0  0  0  0  0  0
  -30.4230  -23.4204   26.5927 C   0  0  0  0  0  0  0  0  0  0  0  0
  -22.5063   -8.6677   20.2124 C   0  0  0  0  0  0  0  0  0  0  0  0
  -23.2132   -8.7530   22.5211 C   0  0  0  0  0  0  0  0  0  0  0  0
  -30.0370  -22.1284   26.9470 C   0  0  0  0  0  0  0  0  0  0  0  0
  -20.2539   -5.8173   20.3416 C   0  0  0  0  0  0  0  0  0  0  0  0
  -18.9634   -5.6970   19.8263 C   0  0  0  0  0  0  0  0  0  0  0  0
  -31.4956  -21.2330   25.2469 C   0  0  0  0  0  0  0  0  0  0  0  0
  -29.1312  -17.7911   21.3413 C   0  0  0  0  0  0  0  0  0  0  0  0
  -18.2756   -7.6335   21.0967 C   0  0  0  0  0  0  0  0  0  0  0  0
  -23.8990  -10.4853   20.9830 C   0  0  0  0  0  0  0  0  0  0  0  0
  -24.1211  -13.0215   20.8221 C   0  0  0  0  0  0  0  0  0  0  0  0
  -30.2979  -28.6321   19.6581 C   0  0  0  0  0  0  0  0  0  0  0  0
  -31.3415  -23.6292   25.5539 C   0  0  0  0  0  0  0  0  0  0  0  0
  -29.8261  -27.8634   20.7393 C   0  0  0  0  0  0  0  0  0  0  0  0
  -31.8935  -22.5286   24.8831 C   0  0  0  0  0  0  0  0  0  0  0  0
  -27.7600  -17.9650   21.6523 C   0  0  0  0  0  0  0  0  0  0  0  0
  -22.5133   -8.1187   21.4947 C   0  0  0  0  0  0  0  0  0  0  0  0
  -30.5712  -21.0346   26.2721 C   0  0  0  0  0  0  0  0  0  0  0  0
  -20.5553   -6.8457   21.2346 C   0  0  0  0  0  0  0  0  0  0  0  0
  -17.9742   -6.6051   20.2038 C   0  0  0  0  0  0  0  0  0  0  0  0
  -19.5661   -7.7538   21.6120 C   0  0  0  0  0  0  0  0  0  0  0  0
  -24.6153  -11.7074   20.7192 C   0  0  0  0  0  0  0  0  0  0  0  0
  -29.7478  -17.2896   22.4663 C   0  0  0  0  0  0  0  0  0  0  0  0
  -27.5804  -17.5647   22.9580 C   0  0  0  0  0  0  0  0  0  0  0  0
  -25.1837  -13.8166   20.4683 C   0  0  0  0  0  0  0  0  0  0  0  0
  -22.8181  -13.4824   21.2036 C   0  0  0  0  0  0  0  0  0  0  0  0
  -31.2454  -25.0975   22.7363 C   0  0  0  0  0  0  0  0  0  0  0  0
  -34.4152  -24.4090   22.7075 C   0  0  0  0  0  0  0  0  0  0  0  0
  -36.9612  -22.4334   23.8308 C   0  0  0  0  0  0  0  0  0  0  0  0
  -30.9466  -14.0563   20.9642 C   0  0  0  0  0  0  0  0  0  0  0  0
  -31.1292  -28.0248   18.5560 C   0  0  0  0  0  0  0  0  0  0  0  0
  -31.7677  -25.0281   25.2017 C   0  0  0  0  0  0  0  0  0  0  0  0
  -32.8985  -22.6982   23.7742 C   0  0  0  0  0  0  0  0  0  0  0  0
  -31.7570  -26.6857   18.9340 C   0  0  0  0  0  0  0  0  0  0  0  0
  -29.3608  -13.1178   17.9177 C   0  0  0  0  0  0  0  0  0  0  0  0
  -30.7246  -25.7807   19.5988 C   0  0  0  0  0  0  0  0  0  0  0  0
  -27.9295  -12.7806   18.3391 C   0  0  0  0  0  0  0  0  0  0  0  0
  -30.3759  -12.6926   18.9764 C   0  0  0  0  0  0  0  0  0  0  0  0
  -28.6779  -12.8709   20.7537 C   0  0  0  0  0  0  0  0  0  0  0  0
  -30.1981  -26.4050   20.8967 C   0  0  1  0  0  0  0  0  0  0  0  0
  -32.3207  -25.1453   23.7847 C   0  0  1  0  0  0  0  0  0  0  0  0
  -27.6138  -13.3313   19.7428 C   0  0  2  0  0  0  0  0  0  0  0  0
  -26.3567  -17.5351   23.7885 C   0  0  0  0  0  0  0  0  0  0  0  0
  -39.4364  -22.0898   23.6012 C   0  0  0  0  0  0  0  0  0  0  0  0
  -27.6462  -20.2476   19.4292 C   0  0  0  0  0  0  0  0  0  0  0  0
  -25.7143  -18.8130   18.6838 C   0  0  0  0  0  0  0  0  0  0  0  0
  -31.9010  -17.7107   23.8385 C   0  0  0  0  0  0  0  0  0  0  0  0
  -32.0227  -17.2209   21.4093 C   0  0  0  0  0  0  0  0  0  0  0  0
  -33.9784  -23.0986   19.9869 C   0  0  0  0  0  0  0  0  0  0  0  0
  -36.1993  -21.9733   20.2501 C   0  0  0  0  0  0  0  0  0  0  0  0
  -36.0669  -24.4628   20.1644 C   0  0  0  0  0  0  0  0  0  0  0  0
  -37.4188  -22.9636   26.7063 C   0  0  0  0  0  0  0  0  0  0  0  0
  -29.1420  -17.7410   25.8946 C   0  0  0  0  0  0  0  0  0  0  0  0
  -29.0469  -16.6393   24.8368 C   0  0  0  0  0  0  0  0  0  0  0  0
  -31.3660  -15.3980   23.0094 C   0  0  0  0  0  0  0  0  0  0  0  0
  -30.2043  -18.7884   25.5820 C   0  0  0  0  0  0  0  0  0  1  0  0
  -35.2529  -23.2486   22.2272 C   0  0  1  0  0  0  0  0  0  0  0  0
  -38.3309  -22.7757   24.3887 C   0  0  2  0  0  0  0  0  0  0  0  0
  -27.0366  -18.8532   19.4357 C   0  0  0  0  0  0  0  0  0  0  0  0
  -31.1630  -16.9281   22.6885 C   0  0  0  0  0  0  0  0  0  0  0  0
  -35.3540  -23.1924   20.6767 C   0  0  0  0  0  0  0  0  0  0  0  0
  -25.8924  -11.6657   20.3302 N   0  0  0  0  0  0  0  0  0  0  0  0
  -28.7955  -17.1564   23.4429 N   0  0  0  0  0  0  0  0  0  0  0  0
  -26.2097  -12.9636   20.1855 N   0  0  0  0  0  0  0  0  0  0  0  0
  -33.2788  -24.0858   23.4624 N   0  0  0  0  0  0  0  0  0  0  0  0
  -30.0198  -13.2493   20.2838 N   0  0  0  0  0  0  0  0  0  0  0  0
  -25.3312  -15.1552   20.3744 N   0  0  0  0  0  0  0  0  0  0  0  0
  -21.8440  -12.5312   21.5363 N   0  0  0  0  0  0  0  0  0  0  0  0
  -26.8074  -18.4366   20.8203 N   0  0  0  0  0  0  0  0  0  0  0  0
  -31.1615  -26.2402   21.9639 N   0  0  0  0  0  0  0  0  0  0  0  0
  -36.5390  -23.3650   22.9061 N   0  0  0  0  0  0  0  0  0  0  0  0
  -30.5270  -14.5484   22.1939 N   0  0  0  0  0  0  0  0  0  0  0  0
  -38.4324  -22.3469   25.8123 N   0  3  0  0  0  0  0  0  0  0  0  0
  -22.5215  -14.7009   21.2323 O   0  0  0  0  0  0  0  0  0  0  0  0
  -30.5448  -24.0972   22.6345 O   0  0  0  0  0  0  0  0  0  0  0  0
  -34.7606  -25.5601   22.4294 O   0  0  0  0  0  0  0  0  0  0  0  0
  -36.3306  -21.4372   24.1778 O   0  0  0  0  0  0  0  0  0  0  0  0
  -32.0632  -14.3230   20.5069 O   0  0  0  0  0  0  0  0  0  0  0  0
  -21.8372   -6.9642   21.7447 O   0  0  0  0  0  0  0  0  0  0  0  0
  -30.1957  -19.7724   26.6155 O   0  0  0  0  0  0  0  0  0  1  0  0
  -16.7353   -6.4904   19.7076 F   0  0  0  0  0  0  0  0  0  0  0  0
  -19.8500   -8.7445   22.4686 F   0  0  0  0  0  0  0  0  0  0  0  0
  1  2  1  0  0  0  0
  1  5  2  0  0  0  0
  2  6  2  0  0  0  0
  3  8  2  0  0  0  0
  3 16  1  0  0  0  0
  4  9  1  0  0  0  0
  4 16  2  0  0  0  0
  5 18  1  0  0  0  0
  6 20  1  0  0  0  0
  7 10  2  0  0  0  0
  7 19  1  0  0  0  0
  8 23  1  0  0  0  0
  9 23  2  0  0  0  0
 10 24  1  0  0  0  0
 11 12  2  0  0  0  0
 11 25  1  0  0  0  0
 12 26  1  0  0  0  0
 13 21  1  0  0  0  0
 13 24  2  0  0  0  0
 14 22  1  0  0  0  0
 14 29  2  0  0  0  0
 15 26  2  0  0  0  0
 15 27  1  0  0  0  0
 16 28  1  0  0  0  0
 17 28  1  0  0  0  0
 17 31  2  0  0  0  0
 17 32  1  0  0  0  0
 18 20  2  0  0  0  0
 18 37  1  0  0  0  0
 19 21  2  0  0  0  0
 19 38  1  0  0  0  0
 20 46  1  0  0  0  0
 21 39  1  0  0  0  0
 22 30  2  0  0  0  0
 22 75  1  0  0  0  0
 23 85  1  0  0  0  0
 24 86  1  0  0  0  0
 25 27  2  0  0  0  0
 25 85  1  0  0  0  0
 26 87  1  0  0  0  0
 27 88  1  0  0  0  0
 28 68  2  0  0  0  0
 29 66  1  0  0  0  0
 29 69  1  0  0  0  0
 30 49  1  0  0  0  0
 30 69  1  0  0  0  0
 31 70  1  0  0  0  0
 31 73  1  0  0  0  0
 32 74  1  0  0  0  0
 32 80  2  0  0  0  0
 33 47  1  0  0  0  0
 33 76  1  0  0  0  0
 33 81  2  0  0  0  0
 34 63  1  0  0  0  0
 34 71  1  0  0  0  0
 34 82  2  0  0  0  0
 35 64  1  0  0  0  0
 35 77  1  0  0  0  0
 35 83  2  0  0  0  0
 36 72  1  0  0  0  0
 36 78  1  0  0  0  0
 36 84  2  0  0  0  0
 37 40  1  0  0  0  0
 38 47  1  0  0  0  0
 39 71  1  0  0  0  0
 40 42  1  0  0  0  0
 41 43  1  0  0  0  0
 41 44  1  0  0  0  0
 42 46  1  0  0  0  0
 43 48  1  0  0  0  0
 44 72  1  0  0  0  0
 45 48  1  0  0  0  0
 45 72  1  0  0  0  0
 46 76  1  0  0  0  0
 47 71  1  0  0  0  0
 48 70  1  0  0  0  0
 50 64  1  0  0  0  0
 51 65  1  0  0  0  0
 52 65  1  0  0  0  0
 53 66  1  0  0  0  0
 54 66  1  0  0  0  0
 55 67  1  0  0  0  0
 56 67  1  0  0  0  0
 57 67  1  0  0  0  0
 58 79  1  0  0  0  0
 59 60  1  0  0  0  0
 59 62  1  0  0  0  0
 60 69  1  0  0  0  0
 61 66  1  0  0  0  0
 61 78  1  0  0  0  0
 62 86  1  0  0  0  0
 63 67  1  0  0  0  0
 63 77  1  0  0  0  0
 64 79  1  0  0  0  0
 65 75  1  0  0  0  0
 68 70  1  0  0  0  0
M  CHG  1  79   1
M  ISO  4  36 100  62 101  78 100  86 101
M  END
> <Batch ID>
0079

> <Smiles>
CNC(C)C(=O)NC(C(=O)N1Cc2cc([101O:1][101CH2:1]CCn3c(C(C)(C)C[100NH:0][100C:0](=O)N4CCCC(n5nc(-c6ccc(Oc7ccc(F)cc7F)cc6)c(C(N)=O)c5N)C4)cc(NC(C)C)c3C)ccc2CC1C(=O)NC1CCCc2ccccc21)C(C)(C)C

> <Shape>
0.208

> <Color>
0.181

> <Negative vol penalty>
0.000

$$$$

  -OEChem-04052318413D

 87 94  0     1  0  0  0  0  0999 V2000
  -32.9448   -5.2037   34.5785 C   0  0  0  0  0  0  0  0  0  0  0  0
  -32.1186   -5.8869   33.6919 C   0  0  0  0  0  0  0  0  0  0  0  0
  -23.2269   -9.8318   19.9121 C   0  0  0  0  0  0  0  0  0  0  0  0
  -23.8005   -9.9246   22.2572 C   0  0  0  0  0  0  0  0  0  0  0  0
  -32.6575   -5.2095   35.9428 C   0  0  0  0  0  0  0  0  0  0  0  0
  -31.0039   -6.5755   34.1691 C   0  0  0  0  0  0  0  0  0  0  0  0
  -30.5366  -11.1791   32.1115 C   0  0  0  0  0  0  0  0  0  0  0  0
  -22.5049   -8.6594   20.1351 C   0  0  0  0  0  0  0  0  0  0  0  0
  -23.0784   -8.7522   22.4802 C   0  0  0  0  0  0  0  0  0  0  0  0
  -30.0178  -11.2493   30.8193 C   0  0  0  0  0  0  0  0  0  0  0  0
  -19.8413   -7.8545   22.8484 C   0  0  0  0  0  0  0  0  0  0  0  0
  -18.9950   -7.8172   23.9565 C   0  0  0  0  0  0  0  0  0  0  0  0
  -27.8609  -11.8400   31.7239 C   0  0  0  0  0  0  0  0  0  0  0  0
  -20.2384   -5.9451   24.8431 C   0  0  0  0  0  0  0  0  0  0  0  0
  -23.8748  -10.4644   20.9732 C   0  0  0  0  0  0  0  0  0  0  0  0
  -24.1396  -12.9963   20.8092 C   0  0  0  0  0  0  0  0  0  0  0  0
  -31.5442   -5.9066   36.4381 C   0  0  0  0  0  0  0  0  0  0  0  0
  -29.7174  -11.4286   33.2219 C   0  0  0  0  0  0  0  0  0  0  0  0
  -30.7007   -6.5896   35.5412 C   0  0  0  0  0  0  0  0  0  0  0  0
  -28.3724  -11.7748   33.0290 C   0  0  0  0  0  0  0  0  0  0  0  0
  -22.4306   -8.1196   21.4191 C   0  0  0  0  0  0  0  0  0  0  0  0
  -28.6791  -11.5769   30.6255 C   0  0  0  0  0  0  0  0  0  0  0  0
  -20.8861   -6.9370   22.7375 C   0  0  0  0  0  0  0  0  0  0  0  0
  -19.1936   -6.8626   24.9539 C   0  0  0  0  0  0  0  0  0  0  0  0
  -21.0847   -5.9823   23.7349 C   0  0  0  0  0  0  0  0  0  0  0  0
  -24.6213  -11.6752   20.7434 C   0  0  0  0  0  0  0  0  0  0  0  0
  -25.2313  -13.7750   20.5122 C   0  0  0  0  0  0  0  0  0  0  0  0
  -22.8230  -13.4766   21.1118 C   0  0  0  0  0  0  0  0  0  0  0  0
  -28.7554   -9.7255   35.7275 C   0  0  0  0  0  0  0  0  0  0  0  0
  -27.4702  -12.5530   36.6634 C   0  0  0  0  0  0  0  0  0  0  0  0
  -26.2872  -15.6306   35.7826 C   0  0  0  0  0  0  0  0  0  0  0  0
  -31.0493  -13.4673   21.5797 C   0  0  0  0  0  0  0  0  0  0  0  0
  -31.2474   -5.8448   37.9155 C   0  0  0  0  0  0  0  0  0  0  0  0
  -30.2988  -11.3749   34.6081 C   0  0  0  0  0  0  0  0  0  0  0  0
  -27.4560  -12.0716   34.1868 C   0  0  0  0  0  0  0  0  0  0  0  0
  -30.2587   -6.9097   38.3832 C   0  0  0  0  0  0  0  0  0  0  0  0
  -29.5425  -13.0333   18.2267 C   0  0  0  0  0  0  0  0  0  0  0  0
  -29.0613   -6.9771   37.4407 C   0  0  0  0  0  0  0  0  0  0  0  0
  -28.0905  -12.6907   18.5558 C   0  0  0  0  0  0  0  0  0  0  0  0
  -30.4937  -12.5983   19.3374 C   0  0  0  0  0  0  0  0  0  0  0  0
  -28.6819  -12.7863   21.0097 C   0  0  0  0  0  0  0  0  0  0  0  0
  -29.4962   -7.3687   36.0233 C   0  0  1  0  0  0  0  0  0  0  0  0
  -29.2469  -11.1448   35.6888 C   0  0  1  0  0  0  0  0  0  0  0  0
  -27.6925  -13.2531   19.9315 C   0  0  2  0  0  0  0  0  0  0  0  0
  -26.6257   -5.1347   26.8228 C   0  0  0  0  0  0  0  0  0  0  0  0
  -25.2686  -17.7040   36.7629 C   0  0  0  0  0  0  0  0  0  0  0  0
  -26.1061  -11.5539   24.7892 C   0  0  0  0  0  0  0  0  0  0  0  0
  -24.8038  -11.0998   36.9602 C   0  0  0  0  0  0  0  0  0  0  0  0
  -23.6712  -13.3322   37.0022 C   0  0  0  0  0  0  0  0  0  0  0  0
  -25.3102  -12.7335   38.7848 C   0  0  0  0  0  0  0  0  0  0  0  0
  -27.6608   -9.1012   23.5938 C   0  0  0  0  0  0  0  0  0  0  0  0
  -29.5012   -9.5589   25.2132 C   0  0  0  0  0  0  0  0  0  0  0  0
  -31.5827  -14.3592   23.8157 C   0  0  0  0  0  0  0  0  0  0  0  0
  -28.5347  -17.3154   34.8503 C   0  0  0  0  0  0  0  0  0  0  0  0
  -26.2929   -6.6176   26.7630 C   0  0  0  0  0  0  0  0  0  0  0  0
  -28.5581  -13.5967   24.2011 C   0  0  0  0  0  0  0  0  0  0  0  0
  -26.5370  -10.7804   27.8049 C   0  0  0  0  0  0  0  0  0  0  0  0
  -27.4301   -7.4197   26.1159 C   0  0  0  0  0  0  0  0  0  0  0  0
  -28.4109  -12.0913   23.9195 C   0  0  0  0  0  0  0  0  0  0  0  0
  -27.3486   -9.5073   27.5466 C   0  0  0  0  0  0  0  0  0  0  0  0
  -29.2288  -14.3857   23.0780 C   0  0  0  0  0  0  0  0  0  0  0  0
  -26.7888  -11.3305   29.2034 C   0  0  0  0  0  0  0  0  0  1  0  0
  -26.1458  -13.2467   36.4544 C   0  0  1  0  0  0  0  0  0  0  0  0
  -26.5583  -17.0134   36.3474 C   0  0  2  0  0  0  0  0  0  0  0  0
  -27.6129  -11.2788   24.9766 C   0  0  2  0  0  0  0  0  0  0  0  0
  -27.1457   -8.9499   26.1039 C   0  0  1  0  0  0  0  0  0  0  0  0
  -24.9993  -12.5956   37.2785 C   0  0  0  0  0  0  0  0  0  0  0  0
  -27.9788   -9.7222   24.9784 C   0  0  0  0  0  0  0  0  0  0  0  0
  -25.9181  -11.6142   20.4291 N   0  0  0  0  0  0  0  0  0  0  0  0
  -26.2604  -12.9068   20.2947 N   0  0  0  0  0  0  0  0  0  0  0  0
  -28.0699  -12.0000   35.5230 N   0  0  0  0  0  0  0  0  0  0  0  0
  -30.0679  -13.1108   20.6402 N   0  0  0  0  0  0  0  0  0  0  0  0
  -25.4017  -15.1109   20.4184 N   0  0  0  0  0  0  0  0  0  0  0  0
  -21.8187  -12.5406   21.3937 N   0  0  0  0  0  0  0  0  0  0  0  0
  -29.7498   -8.7915   35.9474 N   0  0  0  0  0  0  0  0  0  0  0  0
  -26.3714  -14.6564   36.7548 N   0  0  0  0  0  0  0  0  0  0  0  0
  -30.6030  -13.9652   22.8132 N   0  0  0  0  0  0  0  0  0  0  0  0
  -27.2402  -17.8635   35.3309 N   0  3  0  0  0  0  0  0  0  0  0  0
  -22.5414  -14.6990   21.1155 O   0  0  0  0  0  0  0  0  0  0  0  0
  -27.5620   -9.4949   35.5710 O   0  0  0  0  0  0  0  0  0  0  0  0
  -27.9583  -12.5098   37.7954 O   0  0  0  0  0  0  0  0  0  0  0  0
  -26.0233  -15.4348   34.5984 O   0  0  0  0  0  0  0  0  0  0  0  0
  -32.2558  -13.3564   21.3265 O   0  0  0  0  0  0  0  0  0  0  0  0
  -21.7259   -6.9757   21.6371 O   0  0  0  0  0  0  0  0  0  0  0  0
  -28.1663  -11.6460   29.3562 O   0  0  0  0  0  0  0  0  0  1  0  0
  -18.3818   -6.8279   26.0188 F   0  0  0  0  0  0  0  0  0  0  0  0
  -22.0874   -5.0990   23.6345 F   0  0  0  0  0  0  0  0  0  0  0  0
  1  2  1  0  0  0  0
  1  5  2  0  0  0  0
  2  6  2  0  0  0  0
  3  8  2  0  0  0  0
  3 15  1  0  0  0  0
  4  9  1  0  0  0  0
  4 15  2  0  0  0  0
  5 17  1  0  0  0  0
  6 19  1  0  0  0  0
  7 10  2  0  0  0  0
  7 18  1  0  0  0  0
  8 21  1  0  0  0  0
  9 21  2  0  0  0  0
 10 22  1  0  0  0  0
 11 12  2  0  0  0  0
 11 23  1  0  0  0  0
 12 24  1  0  0  0  0
 13 20  1  0  0  0  0
 13 22  2  0  0  0  0
 14 24  2  0  0  0  0
 14 25  1  0  0  0  0
 15 26  1  0  0  0  0
 16 26  1  0  0  0  0
 16 27  2  0  0  0  0
 16 28  1  0  0  0  0
 17 19  2  0  0  0  0
 17 33  1  0  0  0  0
 18 20  2  0  0  0  0
 18 34  1  0  0  0  0
 19 42  1  0  0  0  0
 20 35  1  0  0  0  0
 21 84  1  0  0  0  0
 22 85  1  0  0  0  0
 23 25  2  0  0  0  0
 23 84  1  0  0  0  0
 24 86  1  0  0  0  0
 25 87  1  0  0  0  0
 26 69  2  0  0  0  0
 27 70  1  0  0  0  0
 27 73  1  0  0  0  0
 28 74  1  0  0  0  0
 28 79  2  0  0  0  0
 29 43  1  0  0  0  0
 29 75  1  0  0  0  0
 29 80  2  0  0  0  0
 30 63  1  0  0  0  0
 30 71  1  0  0  0  0
 30 81  2  0  0  0  0
 31 64  1  0  0  0  0
 31 76  1  0  0  0  0
 31 82  2  0  0  0  0
 32 72  1  0  0  0  0
 32 77  1  0  0  0  0
 32 83  2  0  0  0  0
 33 36  1  0  0  0  0
 34 43  1  0  0  0  0
 35 71  1  0  0  0  0
 36 38  1  0  0  0  0
 37 39  1  0  0  0  0
 37 40  1  0  0  0  0
 38 42  1  0  0  0  0
 39 44  1  0  0  0  0
 40 72  1  0  0  0  0
 41 44  1  0  0  0  0
 41 72  1  0  0  0  0
 42 75  1  0  0  0  0
 43 71  1  0  0  0  0
 44 70  1  0  0  0  0
 45 55  1  0  0  0  0
 46 64  1  0  0  0  0
 47 65  1  0  0  0  0
 48 67  1  0  0  0  0
 49 67  1  0  0  0  0
 50 67  1  0  0  0  0
 51 68  1  0  0  0  0
 52 68  1  0  0  0  0
 53 77  1  0  0  0  0
 54 78  1  0  0  0  0
 55 58  1  0  0  0  0
 56 59  1  0  0  0  0
 56 61  1  0  0  0  0
 57 60  1  0  0  0  0
 57 62  1  0  0  0  0
 58 66  1  0  0  0  0
 59 65  1  0  0  0  0
 60 66  1  0  0  0  0
 61 77  1  0  0  0  0
 62 85  1  0  0  0  0
 63 67  1  0  0  0  0
 63 76  1  0  0  0  0
 64 78  1  0  0  0  0
 65 68  1  0  0  0  0
 66 68  1  0  0  0  0
 69 70  1  0  0  0  0
M  CHG  1  78   1
M  ISO  4  32 100  62 101  77 100  85 101
M  END
> <Batch ID>
0079

> <Smiles>
CCCC(CC[101CH2:1][101O:1]c1ccc2c(c1)CN(C(=O)C(NC(=O)C(C)NC)C(C)(C)C)C(C(=O)NC1CCCc3ccccc31)C2)C(C)(C)C(C)CCC[100N:0](C)[100C:0](=O)N1CCCC(n2nc(-c3ccc(Oc4ccc(F)cc4F)cc3)c(C(N)=O)c2N)C1

> <Shape>
0.141

> <Color>
0.174

> <Negative vol penalty>
0.000

$$$$

  -OEChem-04052318413D

 90 98  0     1  0  0  0  0  0999 V2000
  -31.8216  -31.5116   18.5082 C   0  0  0  0  0  0  0  0  0  0  0  0
  -31.2337  -30.2644   18.3233 C   0  0  0  0  0  0  0  0  0  0  0  0
  -23.7629   -9.7396   21.6024 C   0  0  0  0  0  0  0  0  0  0  0  0
  -24.3879  -10.8648   23.6470 C   0  0  0  0  0  0  0  0  0  0  0  0
  -33.0554  -31.6112   19.1500 C   0  0  0  0  0  0  0  0  0  0  0  0
  -31.8798  -29.1158   18.7791 C   0  0  0  0  0  0  0  0  0  0  0  0
  -29.2539  -24.0693   21.0470 C   0  0  0  0  0  0  0  0  0  0  0  0
  -28.0811  -17.3749   23.4790 C   0  0  0  0  0  0  0  0  0  0  0  0
  -23.2460   -8.6778   22.3448 C   0  0  0  0  0  0  0  0  0  0  0  0
  -23.8710   -9.8031   24.3894 C   0  0  0  0  0  0  0  0  0  0  0  0
  -28.9453  -22.8352   20.4764 C   0  0  0  0  0  0  0  0  0  0  0  0
  -20.8334   -8.7126   25.3915 C   0  0  0  0  0  0  0  0  0  0  0  0
  -20.0395   -9.0219   26.4959 C   0  0  0  0  0  0  0  0  0  0  0  0
  -27.5942  -17.9443   22.3077 C   0  0  0  0  0  0  0  0  0  0  0  0
  -31.0086  -21.9284   21.3366 C   0  0  0  0  0  0  0  0  0  0  0  0
  -21.5950   -7.8651   27.9380 C   0  0  0  0  0  0  0  0  0  0  0  0
  -24.3339  -10.8331   22.2535 C   0  0  0  0  0  0  0  0  0  0  0  0
  -24.1832  -13.0836   21.0620 C   0  0  0  0  0  0  0  0  0  0  0  0
  -33.7123  -30.4642   19.6225 C   0  0  0  0  0  0  0  0  0  0  0  0
  -30.4494  -24.2455   21.7585 C   0  0  0  0  0  0  0  0  0  0  0  0
  -33.1241  -29.2000   19.4266 C   0  0  0  0  0  0  0  0  0  0  0  0
  -31.3288  -23.1650   21.9173 C   0  0  0  0  0  0  0  0  0  0  0  0
  -29.4116  -16.9775   23.5514 C   0  0  0  0  0  0  0  0  0  0  0  0
  -23.3000   -8.7096   23.7383 C   0  0  0  0  0  0  0  0  0  0  0  0
  -29.8240  -21.7653   20.6187 C   0  0  0  0  0  0  0  0  0  0  0  0
  -22.0080   -7.9795   25.5603 C   0  0  0  0  0  0  0  0  0  0  0  0
  -20.4203   -8.5982   27.7691 C   0  0  0  0  0  0  0  0  0  0  0  0
  -22.3888   -7.5557   26.8335 C   0  0  0  0  0  0  0  0  0  0  0  0
  -24.8686  -11.9299   21.4872 C   0  0  0  0  0  0  0  0  0  0  0  0
  -28.4714  -18.0933   21.2456 C   0  0  0  0  0  0  0  0  0  0  0  0
  -30.2074  -17.1697   22.4336 C   0  0  0  0  0  0  0  0  0  0  0  0
  -25.1256  -13.8094   20.3753 C   0  0  0  0  0  0  0  0  0  0  0  0
  -22.8167  -13.4652   21.2691 C   0  0  0  0  0  0  0  0  0  0  0  0
  -33.0200  -26.0816   21.4058 C   0  0  0  0  0  0  0  0  0  0  0  0
  -33.8314  -24.8264   24.2848 C   0  0  0  0  0  0  0  0  0  0  0  0
  -33.5065  -22.2757   26.5287 C   0  0  0  0  0  0  0  0  0  0  0  0
  -31.1048  -14.0007   20.6285 C   0  0  0  0  0  0  0  0  0  0  0  0
  -35.0667  -30.6175   20.2682 C   0  0  0  0  0  0  0  0  0  0  0  0
  -30.7550  -25.5757   22.3907 C   0  0  0  0  0  0  0  0  0  0  0  0
  -32.6155  -23.2966   22.6890 C   0  0  0  0  0  0  0  0  0  0  0  0
  -35.5094  -29.3863   21.0547 C   0  0  0  0  0  0  0  0  0  0  0  0
  -29.1052  -13.2679   17.7752 C   0  0  0  0  0  0  0  0  0  0  0  0
  -35.2723  -28.1187   20.2400 C   0  0  0  0  0  0  0  0  0  0  0  0
  -27.7308  -12.9460   18.3646 C   0  0  0  0  0  0  0  0  0  0  0  0
  -30.2352  -12.7606   18.6683 C   0  0  0  0  0  0  0  0  0  0  0  0
  -28.7904  -12.8877   20.6608 C   0  0  0  0  0  0  0  0  0  0  0  0
  -33.7822  -27.9333   19.9291 C   0  0  1  0  0  0  0  0  0  0  0  0
  -32.2429  -25.7830   22.6567 C   0  0  1  0  0  0  0  0  0  0  0  0
  -27.6192  -13.4289   19.8232 C   0  0  2  0  0  0  0  0  0  0  0  0
  -29.1042  -18.6387   28.7753 C   0  0  0  0  0  0  0  0  0  0  0  0
  -34.3226  -21.5129   28.7758 C   0  0  0  0  0  0  0  0  0  0  0  0
  -32.5262  -17.4713   23.5421 C   0  0  0  0  0  0  0  0  0  0  0  0
  -32.3290  -17.1176   21.0943 C   0  0  0  0  0  0  0  0  0  0  0  0
  -36.4937  -24.0096   23.0379 C   0  0  0  0  0  0  0  0  0  0  0  0
  -36.8484  -22.4654   24.9765 C   0  0  0  0  0  0  0  0  0  0  0  0
  -36.6659  -24.9236   25.3594 C   0  0  0  0  0  0  0  0  0  0  0  0
  -31.5414  -15.9778   27.2599 C   0  0  0  0  0  0  0  0  0  0  0  0
  -29.1366  -15.6726   27.8296 C   0  0  0  0  0  0  0  0  0  0  0  0
  -30.7726  -22.3084   27.6618 C   0  0  0  0  0  0  0  0  0  0  0  0
  -29.9386  -16.3658   24.8031 C   0  0  0  0  0  0  0  0  0  0  0  0
  -27.9772  -18.7093   19.9593 C   0  0  0  0  0  0  0  0  0  0  0  0
  -30.3458  -17.8003   28.4954 C   0  0  0  0  0  0  0  0  0  0  0  0
  -29.7568  -17.2929   26.0218 C   0  0  0  0  0  0  0  0  0  0  0  0
  -31.8312  -15.2198   22.6644 C   0  0  0  0  0  0  0  0  0  0  0  0
  -28.1437  -20.2249   19.9407 C   0  0  0  0  0  0  0  0  0  1  0  0
  -34.5967  -23.6083   24.7426 C   0  0  1  0  0  0  0  0  0  0  0  0
  -33.2438  -22.2768   28.0239 C   0  0  2  0  0  0  0  0  0  0  0  0
  -31.6449  -16.7649   22.4549 C   0  0  0  0  0  0  0  0  0  0  0  0
  -36.1279  -23.7495   24.5128 C   0  0  0  0  0  0  0  0  0  0  0  0
  -30.1916  -16.7136   27.3970 C   0  0  0  0  0  0  0  0  0  0  0  0
  -26.1477  -11.9189   21.1028 N   0  0  0  0  0  0  0  0  0  0  0  0
  -29.7701  -17.7194   21.2785 N   0  0  0  0  0  0  0  0  0  0  0  0
  -26.2735  -13.0747   20.4287 N   0  0  0  0  0  0  0  0  0  0  0  0
  -32.8727  -24.6189   23.2830 N   0  0  0  0  0  0  0  0  0  0  0  0
  -30.0712  -13.2556   20.0372 N   0  0  0  0  0  0  0  0  0  0  0  0
  -25.0762  -14.9980   19.7371 N   0  0  0  0  0  0  0  0  0  0  0  0
  -21.9853  -12.6031   21.9970 N   0  0  0  0  0  0  0  0  0  0  0  0
  -33.0831  -27.4253   21.0899 N   0  0  0  0  0  0  0  0  0  0  0  0
  -34.2191  -23.3884   26.1346 N   0  0  0  0  0  0  0  0  0  0  0  0
  -30.8655  -14.4372   21.9258 N   0  0  0  0  0  0  0  0  0  0  0  0
  -31.9274  -21.6437   28.3189 N   0  3  0  0  0  0  0  0  0  0  0  0
  -22.3427  -14.5312   20.8081 O   0  0  0  0  0  0  0  0  0  0  0  0
  -33.5262  -25.1611   20.7749 O   0  0  0  0  0  0  0  0  0  0  0  0
  -34.0704  -25.9205   24.8022 O   0  0  0  0  0  0  0  0  0  0  0  0
  -33.1215  -21.3758   25.7854 O   0  0  0  0  0  0  0  0  0  0  0  0
  -32.1603  -14.2624   20.0417 O   0  0  0  0  0  0  0  0  0  0  0  0
  -22.7955   -7.6738   24.4630 O   0  0  0  0  0  0  0  0  0  0  0  0
  -29.5255  -20.5598   20.0623 O   0  0  0  0  0  0  0  0  0  1  0  0
  -19.6587   -8.8967   28.8298 F   0  0  0  0  0  0  0  0  0  0  0  0
  -23.5168   -6.8521   27.0021 F   0  0  0  0  0  0  0  0  0  0  0  0
  1  2  1  0  0  0  0
  1  5  2  0  0  0  0
  2  6  2  0  0  0  0
  3  9  2  0  0  0  0
  3 17  1  0  0  0  0
  4 10  1  0  0  0  0
  4 17  2  0  0  0  0
  5 19  1  0  0  0  0
  6 21  1  0  0  0  0
  7 11  2  0  0  0  0
  7 20  1  0  0  0  0
  8 14  2  0  0  0  0
  8 23  1  0  0  0  0
  9 24  1  0  0  0  0
 10 24  2  0  0  0  0
 11 25  1  0  0  0  0
 12 13  2  0  0  0  0
 12 26  1  0  0  0  0
 13 27  1  0  0  0  0
 14 30  1  0  0  0  0
 15 22  1  0  0  0  0
 15 25  2  0  0  0  0
 16 27  2  0  0  0  0
 16 28  1  0  0  0  0
 17 29  1  0  0  0  0
 18 29  1  0  0  0  0
 18 32  2  0  0  0  0
 18 33  1  0  0  0  0
 19 21  2  0  0  0  0
 19 38  1  0  0  0  0
 20 22  2  0  0  0  0
 20 39  1  0  0  0  0
 21 47  1  0  0  0  0
 22 40  1  0  0  0  0
 23 31  2  0  0  0  0
 23 60  1  0  0  0  0
 24 87  1  0  0  0  0
 25 88  1  0  0  0  0
 26 28  2  0  0  0  0
 26 87  1  0  0  0  0
 27 89  1  0  0  0  0
 28 90  1  0  0  0  0
 29 71  2  0  0  0  0
 30 61  1  0  0  0  0
 30 72  2  0  0  0  0
 31 68  1  0  0  0  0
 31 72  1  0  0  0  0
 32 73  1  0  0  0  0
 32 76  1  0  0  0  0
 33 77  1  0  0  0  0
 33 82  2  0  0  0  0
 34 48  1  0  0  0  0
 34 78  1  0  0  0  0
 34 83  2  0  0  0  0
 35 66  1  0  0  0  0
 35 74  1  0  0  0  0
 35 84  2  0  0  0  0
 36 67  1  0  0  0  0
 36 79  1  0  0  0  0
 36 85  2  0  0  0  0
 37 75  1  0  0  0  0
 37 80  1  0  0  0  0
 37 86  2  0  0  0  0
 38 41  1  0  0  0  0
 39 48  1  0  0  0  0
 40 74  1  0  0  0  0
 41 43  1  0  0  0  0
 42 44  1  0  0  0  0
 42 45  1  0  0  0  0
 43 47  1  0  0  0  0
 44 49  1  0  0  0  0
 45 75  1  0  0  0  0
 46 49  1  0  0  0  0
 46 75  1  0  0  0  0
 47 78  1  0  0  0  0
 48 74  1  0  0  0  0
 49 73  1  0  0  0  0
 50 62  1  0  0  0  0
 51 67  1  0  0  0  0
 52 68  1  0  0  0  0
 53 68  1  0  0  0  0
 54 69  1  0  0  0  0
 55 69  1  0  0  0  0
 56 69  1  0  0  0  0
 57 70  1  0  0  0  0
 58 70  1  0  0  0  0
 59 81  1  0  0  0  0
 60 63  1  0  0  0  0
 61 65  1  0  0  0  0
 62 70  1  0  0  0  0
 63 70  1  0  0  0  0
 64 68  1  0  0  0  0
 64 80  1  0  0  0  0
 65 88  1  0  0  0  0
 66 69  1  0  0  0  0
 66 79  1  0  0  0  0
 67 81  1  0  0  0  0
 71 73  1  0  0  0  0
M  CHG  1  81   1
M  ISO  4  37 100  65 101  80 100  88 101
M  END
> <Batch ID>
0079

> <Smiles>
CCC(C)(C)CCc1ccc(C[101CH2:1][101O:1]c2ccc3c(c2)CN(C(=O)C(NC(=O)C(C)NC)C(C)(C)C)C(C(=O)NC2CCCc4ccccc42)C3)nc1C(C)(C)C[100NH:0][100C:0](=O)N1CCCC(n2nc(-c3ccc(Oc4ccc(F)cc4F)cc3)c(C(N)=O)c2N)C1

> <Shape>
0.180

> <Color>
0.139

> <Negative vol penalty>
0.000

$$$$

  -OEChem-04052318413D

 86 94  0     1  0  0  0  0  0999 V2000
  -26.3450  -10.8217   17.9478 C   0  0  0  0  0  0  0  0  0  0  0  0
  -25.6730  -11.9617   18.3770 C   0  0  0  0  0  0  0  0  0  0  0  0
  -26.0294  -30.0419   20.5745 C   0  0  0  0  0  0  0  0  0  0  0  0
  -23.7967  -29.1969   20.9463 C   0  0  0  0  0  0  0  0  0  0  0  0
  -27.7182  -10.7029   18.1578 C   0  0  0  0  0  0  0  0  0  0  0  0
  -26.3736  -12.9832   19.0174 C   0  0  0  0  0  0  0  0  0  0  0  0
  -25.1056  -17.5777   17.3064 C   0  0  0  0  0  0  0  0  0  0  0  0
  -25.7232  -31.1796   21.3212 C   0  0  0  0  0  0  0  0  0  0  0  0
  -23.4905  -30.3346   21.6930 C   0  0  0  0  0  0  0  0  0  0  0  0
  -23.9071  -18.1205   17.7676 C   0  0  0  0  0  0  0  0  0  0  0  0
  -25.6434  -34.1381   23.4321 C   0  0  0  0  0  0  0  0  0  0  0  0
  -26.5817  -34.5708   24.3690 C   0  0  0  0  0  0  0  0  0  0  0  0
  -25.1319  -19.4572   19.3590 C   0  0  0  0  0  0  0  0  0  0  0  0
  -26.4046  -32.4558   25.5233 C   0  0  0  0  0  0  0  0  0  0  0  0
  -25.0661  -29.0506   20.3870 C   0  0  0  0  0  0  0  0  0  0  0  0
  -25.9190  -26.6646   20.0916 C   0  0  0  0  0  0  0  0  0  0  0  0
  -28.4378  -11.7277   18.7924 C   0  0  0  0  0  0  0  0  0  0  0  0
  -26.3275  -17.9631   17.8764 C   0  0  0  0  0  0  0  0  0  0  0  0
  -27.7575  -12.8774   19.2372 C   0  0  0  0  0  0  0  0  0  0  0  0
  -26.3447  -18.9197   18.9014 C   0  0  0  0  0  0  0  0  0  0  0  0
  -24.4537  -31.3259   21.8805 C   0  0  0  0  0  0  0  0  0  0  0  0
  -23.9199  -19.0582   18.7960 C   0  0  0  0  0  0  0  0  0  0  0  0
  -25.0856  -32.8642   23.5408 C   0  0  0  0  0  0  0  0  0  0  0  0
  -26.9624  -33.7297   25.4146 C   0  0  0  0  0  0  0  0  0  0  0  0
  -25.4662  -32.0231   24.5864 C   0  0  0  0  0  0  0  0  0  0  0  0
  -25.3816  -27.8754   19.6153 C   0  0  0  0  0  0  0  0  0  0  0  0
  -21.8065  -21.7498   15.8745 C   0  0  0  0  0  0  0  0  0  0  0  0
  -20.6268  -23.2276   17.7592 C   0  0  0  0  0  0  0  0  0  0  0  0
  -21.1098  -22.8928   15.5492 C   0  0  0  0  0  0  0  0  0  0  0  0
  -21.3228  -22.0843   18.0846 C   0  0  0  0  0  0  0  0  0  0  0  0
  -26.0307  -25.8750   18.9733 C   0  0  0  0  0  0  0  0  0  0  0  0
  -26.2844  -26.2873   21.4257 C   0  0  0  0  0  0  0  0  0  0  0  0
  -28.6391  -16.4589   19.4567 C   0  0  0  0  0  0  0  0  0  0  0  0
  -30.1342  -19.3279   19.2196 C   0  0  0  0  0  0  0  0  0  0  0  0
  -29.8721  -22.7078   18.8273 C   0  0  0  0  0  0  0  0  0  0  0  0
  -23.1707  -25.8277   13.7132 C   0  0  0  0  0  0  0  0  0  0  0  0
  -29.9129  -11.5334   19.0394 C   0  0  0  0  0  0  0  0  0  0  0  0
  -27.6137  -17.3882   17.3494 C   0  0  0  0  0  0  0  0  0  0  0  0
  -27.6314  -19.3821   19.5331 C   0  0  0  0  0  0  0  0  0  0  0  0
  -30.6469  -12.8249   19.3908 C   0  0  0  0  0  0  0  0  0  0  0  0
  -26.6765  -26.1554   14.2410 C   0  0  0  0  0  0  0  0  0  0  0  0
  -29.8689  -13.6125   20.4403 C   0  0  0  0  0  0  0  0  0  0  0  0
  -26.7907  -26.5241   15.7212 C   0  0  0  0  0  0  0  0  0  0  0  0
  -25.4490  -26.7928   13.5937 C   0  0  0  0  0  0  0  0  0  0  0  0
  -24.2885  -26.8930   15.7655 C   0  0  0  0  0  0  0  0  0  0  0  0
  -28.4870  -14.0178   19.9135 C   0  0  1  0  0  0  0  0  0  0  0  0
  -28.7602  -17.4706   18.3524 C   0  0  1  0  0  0  0  0  0  0  0  0
  -25.4804  -26.2283   16.4754 C   0  0  2  0  0  0  0  0  0  0  0  0
  -22.4687  -20.9190   14.8292 C   0  0  0  0  0  0  0  0  0  0  0  0
  -19.9647  -24.0588   18.8043 C   0  0  0  0  0  0  0  0  0  0  0  0
  -20.3893  -20.2299   21.4023 C   0  0  0  0  0  0  0  0  0  0  0  0
  -19.7838  -22.6987   13.4213 C   0  0  0  0  0  0  0  0  0  0  0  0
  -30.6249  -25.0795   18.5020 C   0  0  0  0  0  0  0  0  0  0  0  0
  -30.5106  -19.2410   22.2462 C   0  0  0  0  0  0  0  0  0  0  0  0
  -31.0203  -21.6914   22.1832 C   0  0  0  0  0  0  0  0  0  0  0  0
  -32.4917  -20.0817   20.9724 C   0  0  0  0  0  0  0  0  0  0  0  0
  -29.8774  -22.4244   15.8813 C   0  0  0  0  0  0  0  0  0  0  0  0
  -20.2901  -20.6883   19.9522 C   0  0  0  0  0  0  0  0  0  0  0  0
  -20.8899  -24.8904   13.9937 C   0  0  0  0  0  0  0  0  0  0  0  0
  -22.7990  -20.9185   19.7649 C   0  0  0  0  0  0  0  0  0  1  0  0
  -20.9855  -23.3516   14.1365 C   0  0  1  0  0  0  0  0  0  0  0  0
  -21.4485  -21.6150   19.5274 C   0  0  1  0  0  0  0  0  0  0  0  0
  -30.1861  -20.5793   20.0623 C   0  0  1  0  0  0  0  0  0  0  0  0
  -30.6053  -23.6761   17.9166 C   0  0  2  0  0  0  0  0  0  0  0  0
  -31.0276  -20.3884   21.3557 C   0  0  0  0  0  0  0  0  0  0  0  0
  -25.1670  -27.8611   18.2970 N   0  0  0  0  0  0  0  0  0  0  0  0
  -20.5077  -23.6524   16.4857 N   0  0  0  0  0  0  0  0  0  0  0  0
  -21.9252  -21.3249   17.1480 N   0  0  0  0  0  0  0  0  0  0  0  0
  -25.5717  -26.6316   17.9355 N   0  0  0  0  0  0  0  0  0  0  0  0
  -28.8621  -18.7860   18.9876 N   0  0  0  0  0  0  0  0  0  0  0  0
  -24.2401  -26.4725   14.3564 N   0  0  0  0  0  0  0  0  0  0  0  0
  -26.4759  -24.6144   18.7863 N   0  0  0  0  0  0  0  0  0  0  0  0
  -26.1042  -27.2193   22.4568 N   0  0  0  0  0  0  0  0  0  0  0  0
  -28.5994  -15.1492   19.0181 N   0  0  0  0  0  0  0  0  0  0  0  0
  -30.6690  -21.6415   19.1865 N   0  0  0  0  0  0  0  0  0  0  0  0
  -22.0656  -25.5551   14.5102 N   0  0  0  0  0  0  0  0  0  0  0  0
  -29.9450  -23.7328   16.5818 N   0  3  0  0  0  0  0  0  0  0  0  0
  -26.7721  -25.1629   21.6929 O   0  0  0  0  0  0  0  0  0  0  0  0
  -28.5872  -16.8385   20.6208 O   0  0  0  0  0  0  0  0  0  0  0  0
  -31.1832  -18.8528   18.7773 O   0  0  0  0  0  0  0  0  0  0  0  0
  -28.7100  -22.8821   19.1872 O   0  0  0  0  0  0  0  0  0  0  0  0
  -23.2008  -25.5131   12.5186 O   0  0  0  0  0  0  0  0  0  0  0  0
  -24.1547  -32.4358   22.6094 O   0  0  0  0  0  0  0  0  0  0  0  0
  -22.7515  -19.5891   19.2485 O   0  0  0  0  0  0  0  0  0  1  0  0
  -27.8646  -34.1448   26.3133 F   0  0  0  0  0  0  0  0  0  0  0  0
  -24.9346  -30.7978   24.6953 F   0  0  0  0  0  0  0  0  0  0  0  0
  1  2  1  0  0  0  0
  1  5  2  0  0  0  0
  2  6  2  0  0  0  0
  3  8  2  0  0  0  0
  3 15  1  0  0  0  0
  4  9  1  0  0  0  0
  4 15  2  0  0  0  0
  5 17  1  0  0  0  0
  6 19  1  0  0  0  0
  7 10  2  0  0  0  0
  7 18  1  0  0  0  0
  8 21  1  0  0  0  0
  9 21  2  0  0  0  0
 10 22  1  0  0  0  0
 11 12  2  0  0  0  0
 11 23  1  0  0  0  0
 12 24  1  0  0  0  0
 13 20  1  0  0  0  0
 13 22  2  0  0  0  0
 14 24  2  0  0  0  0
 14 25  1  0  0  0  0
 15 26  1  0  0  0  0
 16 26  1  0  0  0  0
 16 31  2  0  0  0  0
 16 32  1  0  0  0  0
 17 19  2  0  0  0  0
 17 37  1  0  0  0  0
 18 20  2  0  0  0  0
 18 38  1  0  0  0  0
 19 46  1  0  0  0  0
 20 39  1  0  0  0  0
 21 83  1  0  0  0  0
 22 84  1  0  0  0  0
 23 25  2  0  0  0  0
 23 83  1  0  0  0  0
 24 85  1  0  0  0  0
 25 86  1  0  0  0  0
 26 66  2  0  0  0  0
 27 29  1  0  0  0  0
 27 49  1  0  0  0  0
 27 68  2  0  0  0  0
 28 30  2  0  0  0  0
 28 50  1  0  0  0  0
 28 67  1  0  0  0  0
 29 61  1  0  0  0  0
 29 67  2  0  0  0  0
 30 62  1  0  0  0  0
 30 68  1  0  0  0  0
 31 69  1  0  0  0  0
 31 72  1  0  0  0  0
 32 73  1  0  0  0  0
 32 78  2  0  0  0  0
 33 47  1  0  0  0  0
 33 74  1  0  0  0  0
 33 79  2  0  0  0  0
 34 63  1  0  0  0  0
 34 70  1  0  0  0  0
 34 80  2  0  0  0  0
 35 64  1  0  0  0  0
 35 75  1  0  0  0  0
 35 81  2  0  0  0  0
 36 71  1  0  0  0  0
 36 76  1  0  0  0  0
 36 82  2  0  0  0  0
 37 40  1  0  0  0  0
 38 47  1  0  0  0  0
 39 70  1  0  0  0  0
 40 42  1  0  0  0  0
 41 43  1  0  0  0  0
 41 44  1  0  0  0  0
 42 46  1  0  0  0  0
 43 48  1  0  0  0  0
 44 71  1  0  0  0  0
 45 48  1  0  0  0  0
 45 71  1  0  0  0  0
 46 74  1  0  0  0  0
 47 70  1  0  0  0  0
 48 69  1  0  0  0  0
 51 58  1  0  0  0  0
 52 61  1  0  0  0  0
 53 64  1  0  0  0  0
 54 65  1  0  0  0  0
 55 65  1  0  0  0  0
 56 65  1  0  0  0  0
 57 77  1  0  0  0  0
 58 62  1  0  0  0  0
 59 61  1  0  0  0  0
 59 76  1  0  0  0  0
 60 62  1  0  0  0  0
 60 84  1  0  0  0  0
 63 65  1  0  0  0  0
 63 75  1  0  0  0  0
 64 77  1  0  0  0  0
 66 69  1  0  0  0  0
M  CHG  1  77   1
M  ISO  4  36 100  60 101  76 100  84 101
M  END
> <Batch ID>
0079

> <Smiles>
CCC(c1nc(C)c(C(C)C[100NH:0][100C:0](=O)N2CCCC(n3nc(-c4ccc(Oc5ccc(F)cc5F)cc4)c(C(N)=O)c3N)C2)nc1C)[101CH2:1][101O:1]c1ccc2c(c1)CN(C(=O)C(NC(=O)C(C)NC)C(C)(C)C)C(C(=O)NC1CCCc3ccccc31)C2

> <Shape>
0.224

> <Color>
0.055

> <Negative vol penalty>
0.000

$$$$

  -OEChem-04052318413D

 81 89  0     1  0  0  0  0  0999 V2000
  -24.9191  -14.1646   28.2342 C   0  0  0  0  0  0  0  0  0  0  0  0
  -25.8127  -14.9900   27.5593 C   0  0  0  0  0  0  0  0  0  0  0  0
  -23.0757   -9.8655   19.9423 C   0  0  0  0  0  0  0  0  0  0  0  0
  -23.8355   -9.8754   22.2357 C   0  0  0  0  0  0  0  0  0  0  0  0
  -23.9425  -14.7227   29.0582 C   0  0  0  0  0  0  0  0  0  0  0  0
  -25.7297  -16.3741   27.7071 C   0  0  0  0  0  0  0  0  0  0  0  0
  -30.2592  -18.5287   28.4045 C   0  0  0  0  0  0  0  0  0  0  0  0
  -30.2219  -18.9501   23.1429 C   0  0  0  0  0  0  0  0  0  0  0  0
  -22.3324   -8.7122   20.1935 C   0  0  0  0  0  0  0  0  0  0  0  0
  -23.0922   -8.7221   22.4869 C   0  0  0  0  0  0  0  0  0  0  0  0
  -31.0609  -18.7044   27.2775 C   0  0  0  0  0  0  0  0  0  0  0  0
  -21.1087   -5.9854   23.8265 C   0  0  0  0  0  0  0  0  0  0  0  0
  -20.3525   -5.9427   24.9977 C   0  0  0  0  0  0  0  0  0  0  0  0
  -29.7481  -17.7152   22.7142 C   0  0  0  0  0  0  0  0  0  0  0  0
  -30.3889  -21.0186   27.1678 C   0  0  0  0  0  0  0  0  0  0  0  0
  -19.1069   -7.8785   24.2640 C   0  0  0  0  0  0  0  0  0  0  0  0
  -23.8273  -10.4471   20.9634 C   0  0  0  0  0  0  0  0  0  0  0  0
  -24.1677  -12.9723   20.8406 C   0  0  0  0  0  0  0  0  0  0  0  0
  -23.8536  -16.1138   29.2238 C   0  0  0  0  0  0  0  0  0  0  0  0
  -29.5065  -19.5956   28.9160 C   0  0  0  0  0  0  0  0  0  0  0  0
  -24.7502  -16.9513   28.5330 C   0  0  0  0  0  0  0  0  0  0  0  0
  -29.5804  -20.8545   28.3028 C   0  0  0  0  0  0  0  0  0  0  0  0
  -31.4845  -19.3790   22.7489 C   0  0  0  0  0  0  0  0  0  0  0  0
  -22.3407   -8.1406   21.4658 C   0  0  0  0  0  0  0  0  0  0  0  0
  -31.1237  -19.9488   26.6573 C   0  0  0  0  0  0  0  0  0  0  0  0
  -20.8642   -6.9747   22.8740 C   0  0  0  0  0  0  0  0  0  0  0  0
  -19.3515   -6.8892   25.2165 C   0  0  0  0  0  0  0  0  0  0  0  0
  -19.8632   -7.9212   23.0928 C   0  0  0  0  0  0  0  0  0  0  0  0
  -24.5957  -11.6381   20.7044 C   0  0  0  0  0  0  0  0  0  0  0  0
  -32.2280  -18.5424   21.9322 C   0  0  0  0  0  0  0  0  0  0  0  0
  -30.5693  -16.9531   21.8989 C   0  0  0  0  0  0  0  0  0  0  0  0
  -25.2595  -13.7220   20.4765 C   0  0  0  0  0  0  0  0  0  0  0  0
  -22.8970  -13.4879   21.2589 C   0  0  0  0  0  0  0  0  0  0  0  0
  -26.4057  -20.1563   29.3334 C   0  0  0  0  0  0  0  0  0  0  0  0
  -27.4872  -22.8263   30.8245 C   0  0  0  0  0  0  0  0  0  0  0  0
  -29.9885  -25.1150   31.2148 C   0  0  0  0  0  0  0  0  0  0  0  0
  -30.7251  -14.7707   20.6502 C   0  0  0  0  0  0  0  0  0  0  0  0
  -22.7512  -16.6730   30.0879 C   0  0  0  0  0  0  0  0  0  0  0  0
  -28.6673  -19.3966   30.1482 C   0  0  0  0  0  0  0  0  0  0  0  0
  -28.8077  -22.0373   28.8247 C   0  0  0  0  0  0  0  0  0  0  0  0
  -22.9684  -18.1310   30.4846 C   0  0  0  0  0  0  0  0  0  0  0  0
  -29.6121  -12.3537   18.2846 C   0  0  0  0  0  0  0  0  0  0  0  0
  -23.3819  -18.9584   29.2716 C   0  0  0  0  0  0  0  0  0  0  0  0
  -28.1726  -12.0618   18.7144 C   0  0  0  0  0  0  0  0  0  0  0  0
  -30.5270  -12.5843   19.4860 C   0  0  0  0  0  0  0  0  0  0  0  0
  -28.6196  -13.3093   20.8664 C   0  0  0  0  0  0  0  0  0  0  0  0
  -24.7077  -18.4562   28.6873 C   0  0  1  0  0  0  0  0  0  0  0  0
  -27.5439  -20.4206   30.2779 C   0  0  1  0  0  0  0  0  0  0  0  0
  -27.6469  -13.1342   19.6888 C   0  0  2  0  0  0  0  0  0  0  0  0
  -33.5914  -18.9515   21.4794 C   0  0  0  0  0  0  0  0  0  0  0  0
  -31.6823  -21.8268   22.2004 C   0  0  0  0  0  0  0  0  0  0  0  0
  -30.5671  -27.2046   32.4781 C   0  0  0  0  0  0  0  0  0  0  0  0
  -25.6660  -24.4405   28.9839 C   0  0  0  0  0  0  0  0  0  0  0  0
  -26.9618  -26.4883   29.6127 C   0  0  0  0  0  0  0  0  0  0  0  0
  -25.7073  -25.2232   31.3587 C   0  0  0  0  0  0  0  0  0  0  0  0
  -32.3066  -23.8211   32.5229 C   0  0  0  0  0  0  0  0  0  0  0  0
  -31.4809  -21.1001   24.6072 C   0  0  0  0  0  0  0  0  0  1  0  0
  -32.0095  -20.7278   23.2152 C   0  0  1  0  0  0  0  0  0  0  0  0
  -27.8218  -24.2326   30.3893 C   0  0  1  0  0  0  0  0  0  0  0  0
  -30.6463  -25.6861   32.4580 C   0  0  2  0  0  0  0  0  0  0  0  0
  -26.5524  -25.0736   30.0749 C   0  0  0  0  0  0  0  0  0  0  0  0
  -25.8606  -11.5425   20.2862 N   0  0  0  0  0  0  0  0  0  0  0  0
  -31.8015  -17.3362   21.4955 N   0  0  0  0  0  0  0  0  0  0  0  0
  -26.2368  -12.8261   20.1565 N   0  0  0  0  0  0  0  0  0  0  0  0
  -27.9965  -21.7907   30.0283 N   0  0  0  0  0  0  0  0  0  0  0  0
  -29.9675  -13.6158   20.3622 N   0  0  0  0  0  0  0  0  0  0  0  0
  -25.4692  -15.0535   20.4021 N   0  0  0  0  0  0  0  0  0  0  0  0
  -21.8855  -12.5785   21.5972 N   0  0  0  0  0  0  0  0  0  0  0  0
  -30.0772  -15.6963   21.4676 N   0  0  0  0  0  0  0  0  0  0  0  0
  -25.8203  -18.9146   29.4913 N   0  0  0  0  0  0  0  0  0  0  0  0
  -28.6661  -24.7944   31.4381 N   0  0  0  0  0  0  0  0  0  0  0  0
  -32.0818  -25.2896   32.5131 N   0  3  0  0  0  0  0  0  0  0  0  0
  -22.6600  -14.7184   21.3149 O   0  0  0  0  0  0  0  0  0  0  0  0
  -26.0815  -21.0159   28.5224 O   0  0  0  0  0  0  0  0  0  0  0  0
  -26.8052  -22.6530   31.8376 O   0  0  0  0  0  0  0  0  0  0  0  0
  -30.5868  -24.9714   30.1509 O   0  0  0  0  0  0  0  0  0  0  0  0
  -31.8541  -14.9396   20.1825 O   0  0  0  0  0  0  0  0  0  0  0  0
  -21.6153   -7.0153   21.7114 O   0  0  0  0  0  0  0  0  0  0  0  0
  -31.9050  -20.1229   25.5568 O   0  0  0  0  0  0  0  0  0  1  0  0
  -18.6243   -6.8472   26.3406 F   0  0  0  0  0  0  0  0  0  0  0  0
  -19.6228   -8.8733   22.1809 F   0  0  0  0  0  0  0  0  0  0  0  0
  1  2  1  0  0  0  0
  1  5  2  0  0  0  0
  2  6  2  0  0  0  0
  3  9  2  0  0  0  0
  3 17  1  0  0  0  0
  4 10  1  0  0  0  0
  4 17  2  0  0  0  0
  5 19  1  0  0  0  0
  6 21  1  0  0  0  0
  7 11  2  0  0  0  0
  7 20  1  0  0  0  0
  8 14  2  0  0  0  0
  8 23  1  0  0  0  0
  9 24  1  0  0  0  0
 10 24  2  0  0  0  0
 11 25  1  0  0  0  0
 12 13  2  0  0  0  0
 12 26  1  0  0  0  0
 13 27  1  0  0  0  0
 14 31  1  0  0  0  0
 15 22  1  0  0  0  0
 15 25  2  0  0  0  0
 16 27  2  0  0  0  0
 16 28  1  0  0  0  0
 17 29  1  0  0  0  0
 18 29  1  0  0  0  0
 18 32  2  0  0  0  0
 18 33  1  0  0  0  0
 19 21  2  0  0  0  0
 19 38  1  0  0  0  0
 20 22  2  0  0  0  0
 20 39  1  0  0  0  0
 21 47  1  0  0  0  0
 22 40  1  0  0  0  0
 23 30  2  0  0  0  0
 23 58  1  0  0  0  0
 24 78  1  0  0  0  0
 25 79  1  0  0  0  0
 26 28  2  0  0  0  0
 26 78  1  0  0  0  0
 27 80  1  0  0  0  0
 28 81  1  0  0  0  0
 29 62  2  0  0  0  0
 30 50  1  0  0  0  0
 30 63  1  0  0  0  0
 31 63  2  0  0  0  0
 31 69  1  0  0  0  0
 32 64  1  0  0  0  0
 32 67  1  0  0  0  0
 33 68  1  0  0  0  0
 33 73  2  0  0  0  0
 34 48  1  0  0  0  0
 34 70  1  0  0  0  0
 34 74  2  0  0  0  0
 35 59  1  0  0  0  0
 35 65  1  0  0  0  0
 35 75  2  0  0  0  0
 36 60  1  0  0  0  0
 36 71  1  0  0  0  0
 36 76  2  0  0  0  0
 37 66  1  0  0  0  0
 37 69  1  0  0  0  0
 37 77  2  0  0  0  0
 38 41  1  0  0  0  0
 39 48  1  0  0  0  0
 40 65  1  0  0  0  0
 41 43  1  0  0  0  0
 42 44  1  0  0  0  0
 42 45  1  0  0  0  0
 43 47  1  0  0  0  0
 44 49  1  0  0  0  0
 45 66  1  0  0  0  0
 46 49  1  0  0  0  0
 46 66  1  0  0  0  0
 47 70  1  0  0  0  0
 48 65  1  0  0  0  0
 49 64  1  0  0  0  0
 51 58  1  0  0  0  0
 52 60  1  0  0  0  0
 53 61  1  0  0  0  0
 54 61  1  0  0  0  0
 55 61  1  0  0  0  0
 56 72  1  0  0  0  0
 57 58  1  0  0  0  0
 57 79  1  0  0  0  0
 59 61  1  0  0  0  0
 59 71  1  0  0  0  0
 60 72  1  0  0  0  0
 62 64  1  0  0  0  0
M  CHG  1  72   1
M  ISO  4  37 100  57 101  69 100  79 101
M  END
> <Batch ID>
0079

> <Smiles>
CNC(C)C(=O)NC(C(=O)N1Cc2cc([101O:1][101CH2:1]C(C)c3ccc([100NH:0][100C:0](=O)N4CCCC(n5nc(-c6ccc(Oc7ccc(F)cc7F)cc6)c(C(N)=O)c5N)C4)nc3C)ccc2CC1C(=O)NC1CCCc2ccccc21)C(C)(C)C

> <Shape>
0.166

> <Color>
0.192

> <Negative vol penalty>
0.000

$$$$

  -OEChem-04052318413D

 89 97  0     1  0  0  0  0  0999 V2000
  -17.9956  -27.4234   22.9825 C   0  0  0  0  0  0  0  0  0  0  0  0
  -18.3210  -27.0137   21.6934 C   0  0  0  0  0  0  0  0  0  0  0  0
  -21.4635  -14.7826   21.6820 C   0  0  0  0  0  0  0  0  0  0  0  0
  -21.6631  -14.9817   19.2826 C   0  0  0  0  0  0  0  0  0  0  0  0
  -18.9818  -27.9514   23.8147 C   0  0  0  0  0  0  0  0  0  0  0  0
  -19.6327  -27.1327   21.2355 C   0  0  0  0  0  0  0  0  0  0  0  0
  -22.5613  -23.3349   17.4268 C   0  0  0  0  0  0  0  0  0  0  0  0
  -20.1642  -15.2855   21.6157 C   0  0  0  0  0  0  0  0  0  0  0  0
  -20.3638  -15.4845   19.2162 C   0  0  0  0  0  0  0  0  0  0  0  0
  -22.8081  -23.3878   16.0557 C   0  0  0  0  0  0  0  0  0  0  0  0
  -17.2292  -17.1580   18.4522 C   0  0  0  0  0  0  0  0  0  0  0  0
  -17.0063  -18.2739   17.6456 C   0  0  0  0  0  0  0  0  0  0  0  0
  -24.9828  -24.3373   16.4898 C   0  0  0  0  0  0  0  0  0  0  0  0
  -18.5761  -19.5455   18.9707 C   0  0  0  0  0  0  0  0  0  0  0  0
  -22.2131  -14.6307   20.5155 C   0  0  0  0  0  0  0  0  0  0  0  0
  -23.9506  -12.7630   20.5042 C   0  0  0  0  0  0  0  0  0  0  0  0
  -20.3082  -28.0680   23.3701 C   0  0  0  0  0  0  0  0  0  0  0  0
  -23.5207  -23.7938   18.3409 C   0  0  0  0  0  0  0  0  0  0  0  0
  -20.6373  -27.6640   22.0620 C   0  0  0  0  0  0  0  0  0  0  0  0
  -24.7467  -24.2868   17.8721 C   0  0  0  0  0  0  0  0  0  0  0  0
  -19.6143  -15.6364   20.3828 C   0  0  0  0  0  0  0  0  0  0  0  0
  -24.0178  -23.8917   15.5868 C   0  0  0  0  0  0  0  0  0  0  0  0
  -18.1255  -17.2359   19.5182 C   0  0  0  0  0  0  0  0  0  0  0  0
  -17.6797  -19.4676   17.9048 C   0  0  0  0  0  0  0  0  0  0  0  0
  -18.7990  -18.4296   19.7774 C   0  0  0  0  0  0  0  0  0  0  0  0
  -23.5555  -14.1119   20.5834 C   0  0  0  0  0  0  0  0  0  0  0  0
  -25.7602  -19.5269   15.1547 C   0  0  0  0  0  0  0  0  0  0  0  0
  -26.8836  -20.1940   12.8265 C   0  0  0  0  0  0  0  0  0  0  0  0
  -25.7038  -20.7736   13.2384 C   0  0  0  0  0  0  0  0  0  0  0  0
  -26.9397  -18.9467   14.7426 C   0  0  0  0  0  0  0  0  0  0  0  0
  -25.3187  -12.7985   20.6201 C   0  0  0  0  0  0  0  0  0  0  0  0
  -23.1522  -11.5834   20.3404 C   0  0  0  0  0  0  0  0  0  0  0  0
  -23.6120  -26.0962   20.5305 C   0  0  0  0  0  0  0  0  0  0  0  0
  -26.4821  -24.7652   21.2467 C   0  0  0  0  0  0  0  0  0  0  0  0
  -29.1462  -22.8961   20.2191 C   0  0  0  0  0  0  0  0  0  0  0  0
  -29.4019  -17.0178   19.4469 C   0  0  0  0  0  0  0  0  0  0  0  0
  -21.3301  -28.6887   24.2894 C   0  0  0  0  0  0  0  0  0  0  0  0
  -23.2498  -23.7052   19.8178 C   0  0  0  0  0  0  0  0  0  0  0  0
  -25.8178  -24.7731   18.8128 C   0  0  0  0  0  0  0  0  0  0  0  0
  -22.7720  -28.4337   23.8579 C   0  0  0  0  0  0  0  0  0  0  0  0
  -28.8463  -15.3833   22.5608 C   0  0  0  0  0  0  0  0  0  0  0  0
  -22.9368  -28.6967   22.3645 C   0  0  0  0  0  0  0  0  0  0  0  0
  -27.4630  -14.7504   22.3999 C   0  0  0  0  0  0  0  0  0  0  0  0
  -28.9312  -16.7390   21.8629 C   0  0  0  0  0  0  0  0  0  0  0  0
  -27.1541  -16.0967   20.2808 C   0  0  0  0  0  0  0  0  0  0  0  0
  -22.0539  -27.7542   21.5376 C   0  0  1  0  0  0  0  0  0  0  0  0
  -24.0921  -24.6766   20.6390 C   0  0  1  0  0  0  0  0  0  0  0  0
  -27.0368  -14.7026   20.9203 C   0  0  2  0  0  0  0  0  0  0  0  0
  -25.1254  -19.1608   16.4525 C   0  0  0  0  0  0  0  0  0  0  0  0
  -28.6248  -19.5881   11.1272 C   0  0  0  0  0  0  0  0  0  0  0  0
  -27.6096  -16.5215   14.9090 C   0  0  0  0  0  0  0  0  0  0  0  0
  -31.3079  -21.6328   20.3881 C   0  0  0  0  0  0  0  0  0  0  0  0
  -27.7095  -27.5395   20.9197 C   0  0  0  0  0  0  0  0  0  0  0  0
  -29.9598  -26.4511   20.7796 C   0  0  0  0  0  0  0  0  0  0  0  0
  -28.5957  -26.2283   22.8562 C   0  0  0  0  0  0  0  0  0  0  0  0
  -30.0761  -18.5729   14.9337 C   0  0  0  0  0  0  0  0  0  0  0  0
  -29.0087  -19.6325   16.9231 C   0  0  0  0  0  0  0  0  0  0  0  0
  -27.7592  -20.3952   20.9808 C   0  0  0  0  0  0  0  0  0  0  0  0
  -27.5184  -20.5606   11.5287 C   0  0  0  0  0  0  0  0  0  0  0  0
  -24.9988  -21.8059   12.3953 C   0  0  0  0  0  0  0  0  0  0  0  0
  -25.6498  -23.1899   12.4441 C   0  0  0  0  0  0  0  0  0  0  0  0
  -29.7296  -17.2260   16.9957 C   0  0  0  0  0  0  0  0  0  0  0  0
  -25.6198  -23.8228   13.8305 C   0  0  0  0  0  0  0  0  0  1  0  0
  -27.6358  -17.9253   15.5754 C   0  0  1  0  0  0  0  0  0  0  0  0
  -27.9022  -24.9688   20.7766 C   0  0  1  0  0  0  0  0  0  0  0  0
  -29.8680  -21.7289   20.8680 C   0  0  2  0  0  0  0  0  0  0  0  0
  -28.5210  -26.2896   21.3150 C   0  0  0  0  0  0  0  0  0  0  0  0
  -29.0914  -18.3253   16.0979 C   0  0  0  0  0  0  0  0  0  0  0  0
  -24.5891  -14.9436   20.7379 N   0  0  0  0  0  0  0  0  0  0  0  0
  -25.1211  -20.4507   14.4099 N   0  0  0  0  0  0  0  0  0  0  0  0
  -27.5226  -19.2699   13.5711 N   0  0  0  0  0  0  0  0  0  0  0  0
  -25.6471  -14.1152   20.7567 N   0  0  0  0  0  0  0  0  0  0  0  0
  -25.5031  -24.6718   20.2475 N   0  0  0  0  0  0  0  0  0  0  0  0
  -28.5155  -16.6242   20.4629 N   0  0  0  0  0  0  0  0  0  0  0  0
  -26.2608  -11.8316   20.6175 N   0  0  0  0  0  0  0  0  0  0  0  0
  -21.7618  -11.7266   20.2373 N   0  0  0  0  0  0  0  0  0  0  0  0
  -22.6511  -26.4381   21.4628 N   0  0  0  0  0  0  0  0  0  0  0  0
  -28.6349  -23.7664   21.1584 N   0  0  0  0  0  0  0  0  0  0  0  0
  -28.9314  -16.8704   18.1478 N   0  0  0  0  0  0  0  0  0  0  0  0
  -29.1781  -20.4484   20.5438 N   0  3  0  0  0  0  0  0  0  0  0  0
  -23.6555  -10.4349   20.3034 O   0  0  0  0  0  0  0  0  0  0  0  0
  -24.0798  -26.8278   19.6658 O   0  0  0  0  0  0  0  0  0  0  0  0
  -26.2511  -24.6845   22.4558 O   0  0  0  0  0  0  0  0  0  0  0  0
  -29.0492  -23.0251   19.0007 O   0  0  0  0  0  0  0  0  0  0  0  0
  -30.5310  -17.4623   19.6800 O   0  0  0  0  0  0  0  0  0  0  0  0
  -18.3463  -16.1269   20.3177 O   0  0  0  0  0  0  0  0  0  0  0  0
  -24.2610  -23.9450   14.2490 O   0  0  0  0  0  0  0  0  0  1  0  0
  -17.4667  -20.5387   17.1291 F   0  0  0  0  0  0  0  0  0  0  0  0
  -19.6622  -18.5101   20.7993 F   0  0  0  0  0  0  0  0  0  0  0  0
  1  2  1  0  0  0  0
  1  5  2  0  0  0  0
  2  6  2  0  0  0  0
  3  8  2  0  0  0  0
  3 15  1  0  0  0  0
  4  9  1  0  0  0  0
  4 15  2  0  0  0  0
  5 17  1  0  0  0  0
  6 19  1  0  0  0  0
  7 10  2  0  0  0  0
  7 18  1  0  0  0  0
  8 21  1  0  0  0  0
  9 21  2  0  0  0  0
 10 22  1  0  0  0  0
 11 12  2  0  0  0  0
 11 23  1  0  0  0  0
 12 24  1  0  0  0  0
 13 20  1  0  0  0  0
 13 22  2  0  0  0  0
 14 24  2  0  0  0  0
 14 25  1  0  0  0  0
 15 26  1  0  0  0  0
 16 26  1  0  0  0  0
 16 31  2  0  0  0  0
 16 32  1  0  0  0  0
 17 19  2  0  0  0  0
 17 37  1  0  0  0  0
 18 20  2  0  0  0  0
 18 38  1  0  0  0  0
 19 46  1  0  0  0  0
 20 39  1  0  0  0  0
 21 86  1  0  0  0  0
 22 87  1  0  0  0  0
 23 25  2  0  0  0  0
 23 86  1  0  0  0  0
 24 88  1  0  0  0  0
 25 89  1  0  0  0  0
 26 69  2  0  0  0  0
 27 30  1  0  0  0  0
 27 49  1  0  0  0  0
 27 70  2  0  0  0  0
 28 29  2  0  0  0  0
 28 59  1  0  0  0  0
 28 71  1  0  0  0  0
 29 60  1  0  0  0  0
 29 70  1  0  0  0  0
 30 64  1  0  0  0  0
 30 71  2  0  0  0  0
 31 72  1  0  0  0  0
 31 75  1  0  0  0  0
 32 76  1  0  0  0  0
 32 81  2  0  0  0  0
 33 47  1  0  0  0  0
 33 77  1  0  0  0  0
 33 82  2  0  0  0  0
 34 65  1  0  0  0  0
 34 73  1  0  0  0  0
 34 83  2  0  0  0  0
 35 66  1  0  0  0  0
 35 78  1  0  0  0  0
 35 84  2  0  0  0  0
 36 74  1  0  0  0  0
 36 79  1  0  0  0  0
 36 85  2  0  0  0  0
 37 40  1  0  0  0  0
 38 47  1  0  0  0  0
 39 73  1  0  0  0  0
 40 42  1  0  0  0  0
 41 43  1  0  0  0  0
 41 44  1  0  0  0  0
 42 46  1  0  0  0  0
 43 48  1  0  0  0  0
 44 74  1  0  0  0  0
 45 48  1  0  0  0  0
 45 74  1  0  0  0  0
 46 77  1  0  0  0  0
 47 73  1  0  0  0  0
 48 72  1  0  0  0  0
 50 59  1  0  0  0  0
 51 64  1  0  0  0  0
 52 66  1  0  0  0  0
 53 67  1  0  0  0  0
 54 67  1  0  0  0  0
 55 67  1  0  0  0  0
 56 68  1  0  0  0  0
 57 68  1  0  0  0  0
 58 80  1  0  0  0  0
 60 61  1  0  0  0  0
 61 63  1  0  0  0  0
 62 68  1  0  0  0  0
 62 79  1  0  0  0  0
 63 87  1  0  0  0  0
 64 68  1  0  0  0  0
 65 67  1  0  0  0  0
 65 78  1  0  0  0  0
 66 80  1  0  0  0  0
 69 72  1  0  0  0  0
M  CHG  1  80   1
M  ISO  4  36 100  63 101  79 100  87 101
M  END
> <Batch ID>
0079

> <Smiles>
CCc1nc(C(C)C(C)(C)C[100NH:0][100C:0](=O)N2CCCC(n3nc(-c4ccc(Oc5ccc(F)cc5F)cc4)c(C(N)=O)c3N)C2)c(C)nc1CC[101CH2:1][101O:1]c1ccc2c(c1)CN(C(=O)C(NC(=O)C(C)NC)C(C)(C)C)C(C(=O)NC1CCCc3ccccc31)C2

> <Shape>
0.184

> <Color>
0.079

> <Negative vol penalty>
0.000

$$$$

  -OEChem-04052318413D

 84 92  0     1  0  0  0  0  0999 V2000
  -32.0963  -14.9693   19.5165 C   0  0  0  0  0  0  0  0  0  0  0  0
  -31.1849  -15.9928   19.7554 C   0  0  0  0  0  0  0  0  0  0  0  0
  -28.9243  -26.5315   18.5524 C   0  0  0  0  0  0  0  0  0  0  0  0
  -26.9521  -25.1770   18.2168 C   0  0  0  0  0  0  0  0  0  0  0  0
  -31.6449  -13.6613   19.3452 C   0  0  0  0  0  0  0  0  0  0  0  0
  -29.8213  -15.7091   19.8221 C   0  0  0  0  0  0  0  0  0  0  0  0
  -25.6682  -18.4203   23.4148 C   0  0  0  0  0  0  0  0  0  0  0  0
  -29.7118  -25.3804   18.5710 C   0  0  0  0  0  0  0  0  0  0  0  0
  -27.7396  -24.0258   18.2353 C   0  0  0  0  0  0  0  0  0  0  0  0
  -24.7429  -19.4358   23.1776 C   0  0  0  0  0  0  0  0  0  0  0  0
  -29.2374  -22.0690   20.5502 C   0  0  0  0  0  0  0  0  0  0  0  0
  -28.7846  -20.9861   21.3037 C   0  0  0  0  0  0  0  0  0  0  0  0
  -23.0386  -17.7786   22.7670 C   0  0  0  0  0  0  0  0  0  0  0  0
  -28.7315  -19.6215   19.3106 C   0  0  0  0  0  0  0  0  0  0  0  0
  -19.4874  -25.5039   21.0817 C   0  0  0  0  0  0  0  0  0  0  0  0
  -27.5445  -26.4298   18.3754 C   0  0  0  0  0  0  0  0  0  0  0  0
  -26.3870  -28.3961   17.2345 C   0  0  0  0  0  0  0  0  0  0  0  0
  -30.2759  -13.3599   19.4195 C   0  0  0  0  0  0  0  0  0  0  0  0
  -25.2878  -17.0740   23.3189 C   0  0  0  0  0  0  0  0  0  0  0  0
  -29.3510  -14.3961   19.6503 C   0  0  0  0  0  0  0  0  0  0  0  0
  -23.9605  -16.7480   23.0059 C   0  0  0  0  0  0  0  0  0  0  0  0
  -29.1195  -24.1275   18.4124 C   0  0  0  0  0  0  0  0  0  0  0  0
  -23.4285  -19.1150   22.8508 C   0  0  0  0  0  0  0  0  0  0  0  0
  -29.4373  -21.9282   19.1768 C   0  0  0  0  0  0  0  0  0  0  0  0
  -28.5317  -19.7623   20.6839 C   0  0  0  0  0  0  0  0  0  0  0  0
  -29.1844  -20.7045   18.5571 C   0  0  0  0  0  0  0  0  0  0  0  0
  -26.7304  -27.6185   18.3566 C   0  0  0  0  0  0  0  0  0  0  0  0
  -20.3448  -26.0569   21.9979 C   0  0  0  0  0  0  0  0  0  0  0  0
  -25.6062  -29.4056   17.7422 C   0  0  0  0  0  0  0  0  0  0  0  0
  -21.1530  -24.1443   20.3910 C   0  0  0  0  0  0  0  0  0  0  0  0
  -26.7421  -28.2215   15.8564 C   0  0  0  0  0  0  0  0  0  0  0  0
  -26.1549  -14.6227   21.4905 C   0  0  0  0  0  0  0  0  0  0  0  0
  -24.1938  -12.9583   23.4670 C   0  0  0  0  0  0  0  0  0  0  0  0
  -21.5483  -12.9888   25.6227 C   0  0  0  0  0  0  0  0  0  0  0  0
  -22.1988  -29.8518   22.6454 C   0  0  0  0  0  0  0  0  0  0  0  0
  -29.8315  -11.9385   19.1808 C   0  0  0  0  0  0  0  0  0  0  0  0
  -26.2914  -15.9906   23.6039 C   0  0  0  0  0  0  0  0  0  0  0  0
  -23.4965  -15.3183   22.9103 C   0  0  0  0  0  0  0  0  0  0  0  0
  -28.4017  -11.6623   19.6388 C   0  0  0  0  0  0  0  0  0  0  0  0
  -24.9156  -31.9619   21.7271 C   0  0  0  0  0  0  0  0  0  0  0  0
  -27.4653  -12.7678   19.1616 C   0  0  0  0  0  0  0  0  0  0  0  0
  -25.6578  -31.1582   20.6579 C   0  0  0  0  0  0  0  0  0  0  0  0
  -24.3545  -31.0592   22.8236 C   0  0  0  0  0  0  0  0  0  0  0  0
  -24.2515  -29.1472   21.2720 C   0  0  0  0  0  0  0  0  0  0  0  0
  -27.8659  -14.1242   19.7543 C   0  0  1  0  0  0  0  0  0  0  0  0
  -25.9201  -14.6515   22.9744 C   0  0  1  0  0  0  0  0  0  0  0  0
  -24.7874  -30.0085   20.1156 C   0  0  2  0  0  0  0  0  0  0  0  0
  -22.7645  -23.5614   18.5607 C   0  0  0  0  0  0  0  0  0  0  0  0
  -20.1542  -11.4685   27.0519 C   0  0  0  0  0  0  0  0  0  0  0  0
  -22.7502  -11.9454   20.9770 C   0  0  0  0  0  0  0  0  0  0  0  0
  -20.8524  -11.2395   22.4495 C   0  0  0  0  0  0  0  0  0  0  0  0
  -23.1085  -10.2185   22.7501 C   0  0  0  0  0  0  0  0  0  0  0  0
  -22.3155  -14.4203   28.0969 C   0  0  0  0  0  0  0  0  0  0  0  0
  -19.8992  -27.1404   22.9134 C   0  0  0  0  0  0  0  0  0  0  0  0
  -21.0000  -21.1024   21.0289 C   0  0  0  0  0  0  0  0  0  0  0  0
  -22.1263  -21.7848   20.2389 C   0  0  0  0  0  0  0  0  0  0  0  0
  -20.1054  -28.5525   22.3474 C   0  0  0  0  0  0  0  0  0  0  0  0
  -21.4685  -19.8169   21.7012 C   0  0  0  0  0  0  0  0  0  1  0  0
  -21.6495  -23.0391   19.4750 C   0  0  1  0  0  0  0  0  0  0  0  0
  -22.7247  -12.6111   23.4715 C   0  0  1  0  0  0  0  0  0  0  0  0
  -21.3671  -12.3846   27.0035 C   0  0  2  0  0  0  0  0  0  0  0  0
  -22.3678  -11.5306   22.4118 C   0  0  0  0  0  0  0  0  0  0  0  0
  -19.8748  -24.5257   20.2492 N   0  0  0  0  0  0  0  0  0  0  0  0
  -26.2105  -28.0933   19.4916 N   0  0  0  0  0  0  0  0  0  0  0  0
  -21.6179  -25.6329   22.0942 N   0  0  0  0  0  0  0  0  0  0  0  0
  -22.0393  -24.6503   21.2710 N   0  0  0  0  0  0  0  0  0  0  0  0
  -25.5325  -29.1803   19.0853 N   0  0  0  0  0  0  0  0  0  0  0  0
  -24.5166  -14.2946   23.1916 N   0  0  0  0  0  0  0  0  0  0  0  0
  -23.5373  -29.9909   22.2430 N   0  0  0  0  0  0  0  0  0  0  0  0
  -24.9825  -30.4552   17.1663 N   0  0  0  0  0  0  0  0  0  0  0  0
  -27.5510  -27.1314   15.5078 N   0  0  0  0  0  0  0  0  0  0  0  0
  -27.4278  -14.2238   21.1300 N   0  0  0  0  0  0  0  0  0  0  0  0
  -22.3985  -12.2340   24.8425 N   0  0  0  0  0  0  0  0  0  0  0  0
  -21.4935  -28.8180   22.0416 N   0  0  0  0  0  0  0  0  0  0  0  0
  -21.1849  -13.4596   28.0195 N   0  3  0  0  0  0  0  0  0  0  0  0
  -26.3670  -29.0181   14.9630 O   0  0  0  0  0  0  0  0  0  0  0  0
  -25.2478  -14.9376   20.7291 O   0  0  0  0  0  0  0  0  0  0  0  0
  -25.0240  -12.0779   23.7063 O   0  0  0  0  0  0  0  0  0  0  0  0
  -20.9885  -14.0246   25.2702 O   0  0  0  0  0  0  0  0  0  0  0  0
  -21.6698  -30.5971   23.4770 O   0  0  0  0  0  0  0  0  0  0  0  0
  -29.8877  -23.0041   18.4303 O   0  0  0  0  0  0  0  0  0  0  0  0
  -22.5234  -20.1042   22.6182 O   0  0  0  0  0  0  0  0  0  1  0  0
  -28.0982  -18.7221   21.4079 F   0  0  0  0  0  0  0  0  0  0  0  0
  -29.3756  -20.5628   17.2383 F   0  0  0  0  0  0  0  0  0  0  0  0
  1  2  1  0  0  0  0
  1  5  2  0  0  0  0
  2  6  2  0  0  0  0
  3  8  2  0  0  0  0
  3 16  1  0  0  0  0
  4  9  1  0  0  0  0
  4 16  2  0  0  0  0
  5 18  1  0  0  0  0
  6 20  1  0  0  0  0
  7 10  2  0  0  0  0
  7 19  1  0  0  0  0
  8 22  1  0  0  0  0
  9 22  2  0  0  0  0
 10 23  1  0  0  0  0
 11 12  2  0  0  0  0
 11 24  1  0  0  0  0
 12 25  1  0  0  0  0
 13 21  1  0  0  0  0
 13 23  2  0  0  0  0
 14 25  2  0  0  0  0
 14 26  1  0  0  0  0
 15 28  1  0  0  0  0
 15 63  2  0  0  0  0
 16 27  1  0  0  0  0
 17 27  1  0  0  0  0
 17 29  2  0  0  0  0
 17 31  1  0  0  0  0
 18 20  2  0  0  0  0
 18 36  1  0  0  0  0
 19 21  2  0  0  0  0
 19 37  1  0  0  0  0
 20 45  1  0  0  0  0
 21 38  1  0  0  0  0
 22 81  1  0  0  0  0
 23 82  1  0  0  0  0
 24 26  2  0  0  0  0
 24 81  1  0  0  0  0
 25 83  1  0  0  0  0
 26 84  1  0  0  0  0
 27 64  2  0  0  0  0
 28 54  1  0  0  0  0
 28 65  2  0  0  0  0
 29 67  1  0  0  0  0
 29 70  1  0  0  0  0
 30 59  1  0  0  0  0
 30 63  1  0  0  0  0
 30 66  2  0  0  0  0
 31 71  1  0  0  0  0
 31 76  2  0  0  0  0
 32 46  1  0  0  0  0
 32 72  1  0  0  0  0
 32 77  2  0  0  0  0
 33 60  1  0  0  0  0
 33 68  1  0  0  0  0
 33 78  2  0  0  0  0
 34 61  1  0  0  0  0
 34 73  1  0  0  0  0
 34 79  2  0  0  0  0
 35 69  1  0  0  0  0
 35 74  1  0  0  0  0
 35 80  2  0  0  0  0
 36 39  1  0  0  0  0
 37 46  1  0  0  0  0
 38 68  1  0  0  0  0
 39 41  1  0  0  0  0
 40 42  1  0  0  0  0
 40 43  1  0  0  0  0
 41 45  1  0  0  0  0
 42 47  1  0  0  0  0
 43 69  1  0  0  0  0
 44 47  1  0  0  0  0
 44 69  1  0  0  0  0
 45 72  1  0  0  0  0
 46 68  1  0  0  0  0
 47 67  1  0  0  0  0
 48 59  1  0  0  0  0
 49 61  1  0  0  0  0
 50 62  1  0  0  0  0
 51 62  1  0  0  0  0
 52 62  1  0  0  0  0
 53 75  1  0  0  0  0
 54 57  1  0  0  0  0
 55 56  1  0  0  0  0
 55 58  1  0  0  0  0
 56 59  1  0  0  0  0
 57 74  1  0  0  0  0
 58 82  1  0  0  0  0
 60 62  1  0  0  0  0
 60 73  1  0  0  0  0
 61 75  1  0  0  0  0
 64 67  1  0  0  0  0
 65 66  1  0  0  0  0
M  CHG  1  75   1
M  ISO  4  35 100  58 101  74 100  82 101
M  END
> <Batch ID>
0079

> <Smiles>
CNC(C)C(=O)NC(C(=O)N1Cc2cc([101O:1][101CH2:1]CCC(C)c3ncc(CC[100NH:0][100C:0](=O)N4CCCC(n5nc(-c6ccc(Oc7ccc(F)cc7F)cc6)c(C(N)=O)c5N)C4)nn3)ccc2CC1C(=O)NC1CCCc2ccccc21)C(C)(C)C

> <Shape>
0.230

> <Color>
0.063

> <Negative vol penalty>
0.000

$$$$

  -OEChem-04052318413D

 85 93  0     1  0  0  0  0  0999 V2000
  -30.2452  -32.2298   25.3970 C   0  0  0  0  0  0  0  0  0  0  0  0
  -29.8624  -31.0897   24.6977 C   0  0  0  0  0  0  0  0  0  0  0  0
  -30.2265  -10.6924   17.6897 C   0  0  0  0  0  0  0  0  0  0  0  0
  -30.8143  -10.1266   19.9638 C   0  0  0  0  0  0  0  0  0  0  0  0
  -29.2821  -33.0135   26.0311 C   0  0  0  0  0  0  0  0  0  0  0  0
  -28.5161  -30.7321   24.6329 C   0  0  0  0  0  0  0  0  0  0  0  0
  -27.0885  -29.3760   19.9674 C   0  0  0  0  0  0  0  0  0  0  0  0
  -30.9314   -9.5798   17.2306 C   0  0  0  0  0  0  0  0  0  0  0  0
  -31.5192   -9.0139   19.5047 C   0  0  0  0  0  0  0  0  0  0  0  0
  -27.4414  -28.0966   19.5401 C   0  0  0  0  0  0  0  0  0  0  0  0
  -30.4430   -6.2418   17.0023 C   0  0  0  0  0  0  0  0  0  0  0  0
  -29.8342   -5.4428   16.0346 C   0  0  0  0  0  0  0  0  0  0  0  0
  -25.2147  -27.3196   20.0475 C   0  0  0  0  0  0  0  0  0  0  0  0
  -31.6634   -5.8843   14.5192 C   0  0  0  0  0  0  0  0  0  0  0  0
  -29.3912  -21.6828   22.4066 C   0  0  0  0  0  0  0  0  0  0  0  0
  -28.1968  -20.3846   21.0940 C   0  0  0  0  0  0  0  0  0  0  0  0
  -30.1680  -10.9659   19.0563 C   0  0  0  0  0  0  0  0  0  0  0  0
  -28.0820  -12.1704   19.8961 C   0  0  0  0  0  0  0  0  0  0  0  0
  -27.9224  -32.6707   25.9660 C   0  0  0  0  0  0  0  0  0  0  0  0
  -25.7971  -29.6346   20.4489 C   0  0  0  0  0  0  0  0  0  0  0  0
  -27.5340  -31.5113   25.2679 C   0  0  0  0  0  0  0  0  0  0  0  0
  -24.8472  -28.6036   20.4778 C   0  0  0  0  0  0  0  0  0  0  0  0
  -29.1861  -21.3366   21.0576 C   0  0  0  0  0  0  0  0  0  0  0  0
  -31.5777   -8.7405   18.1381 C   0  0  0  0  0  0  0  0  0  0  0  0
  -26.5054  -27.0675   19.5829 C   0  0  0  0  0  0  0  0  0  0  0  0
  -31.6620   -6.8622   16.7285 C   0  0  0  0  0  0  0  0  0  0  0  0
  -30.4444   -5.2640   14.7931 C   0  0  0  0  0  0  0  0  0  0  0  0
  -32.2722   -6.6834   15.4870 C   0  0  0  0  0  0  0  0  0  0  0  0
  -29.4405  -12.1154   19.5311 C   0  0  0  0  0  0  0  0  0  0  0  0
  -27.8805  -13.4755   20.2738 C   0  0  0  0  0  0  0  0  0  0  0  0
  -27.0908  -11.1344   19.8940 C   0  0  0  0  0  0  0  0  0  0  0  0
  -24.5912  -30.6094   23.2236 C   0  0  0  0  0  0  0  0  0  0  0  0
  -21.8132  -30.6709   21.5499 C   0  0  0  0  0  0  0  0  0  0  0  0
  -20.0049  -29.5209   18.8939 C   0  0  0  0  0  0  0  0  0  0  0  0
  -29.8803  -17.8260   23.3382 C   0  0  0  0  0  0  0  0  0  0  0  0
  -26.9226  -33.5227   26.7071 C   0  0  0  0  0  0  0  0  0  0  0  0
  -25.4242  -31.0263   20.8809 C   0  0  0  0  0  0  0  0  0  0  0  0
  -23.4415  -28.8340   20.9669 C   0  0  0  0  0  0  0  0  0  0  0  0
  -25.4783  -33.2814   26.2757 C   0  0  0  0  0  0  0  0  0  0  0  0
  -30.8073  -17.5583   19.7646 C   0  0  0  0  0  0  0  0  0  0  0  0
  -25.1874  -31.7861   26.1972 C   0  0  0  0  0  0  0  0  0  0  0  0
  -30.4851  -16.0994   19.4453 C   0  0  0  0  0  0  0  0  0  0  0  0
  -31.1685  -17.7509   21.2343 C   0  0  0  0  0  0  0  0  0  0  0  0
  -29.8197  -15.7753   21.8604 C   0  0  0  0  0  0  0  0  0  0  0  0
  -26.0810  -31.1042   25.1540 C   0  0  1  0  0  0  0  0  0  0  0  0
  -24.2338  -31.0570   21.8345 C   0  0  1  0  0  0  0  0  0  0  0  0
  -29.4063  -15.5548   20.3975 C   0  0  2  0  0  0  0  0  0  0  0  0
  -17.7515  -29.7249   17.8085 C   0  0  0  0  0  0  0  0  0  0  0  0
  -31.4199  -21.6032   19.9583 C   0  0  0  0  0  0  0  0  0  0  0  0
  -29.4576  -21.2494   18.4865 C   0  0  0  0  0  0  0  0  0  0  0  0
  -20.6067  -28.9086   23.7290 C   0  0  0  0  0  0  0  0  0  0  0  0
  -18.7294  -28.3750   22.1609 C   0  0  0  0  0  0  0  0  0  0  0  0
  -19.1004  -30.7269   22.9049 C   0  0  0  0  0  0  0  0  0  0  0  0
  -28.3590  -17.7659   25.2776 C   0  0  0  0  0  0  0  0  0  0  0  0
  -21.1792  -30.5602   16.3840 C   0  0  0  0  0  0  0  0  0  0  0  0
  -28.2778  -23.9210   19.5165 C   0  0  0  0  0  0  0  0  0  0  0  0
  -29.7231  -23.4461   19.7090 C   0  0  0  0  0  0  0  0  0  0  0  0
  -26.8898  -19.3261   22.9515 C   0  0  0  0  0  0  0  0  0  0  0  0
  -27.3706  -17.8790   23.0202 C   0  0  0  0  0  0  0  0  0  0  0  0
  -28.2120  -25.4315   19.3249 C   0  0  0  0  0  0  0  0  0  1  0  0
  -20.7137  -29.6761   21.2662 C   0  0  1  0  0  0  0  0  0  0  0  0
  -19.1793  -30.2471   17.8472 C   0  0  2  0  0  0  0  0  0  0  0  0
  -29.9053  -21.8991   19.8181 C   0  0  0  0  0  0  0  0  0  0  0  0
  -19.8145  -29.4166   22.5078 C   0  0  0  0  0  0  0  0  0  0  0  0
  -28.5960  -21.0059   23.2393 N   0  0  0  0  0  0  0  0  0  0  0  0
  -30.0583  -13.2920   19.6647 N   0  0  0  0  0  0  0  0  0  0  0  0
  -27.8815  -20.2249   22.4113 N   0  0  0  0  0  0  0  0  0  0  0  0
  -29.0836  -14.0986   20.1178 N   0  0  0  0  0  0  0  0  0  0  0  0
  -23.1271  -30.2103   21.3845 N   0  0  0  0  0  0  0  0  0  0  0  0
  -30.1472  -17.1859   22.1168 N   0  0  0  0  0  0  0  0  0  0  0  0
  -26.7933  -14.1393   20.7207 N   0  0  0  0  0  0  0  0  0  0  0  0
  -27.4672   -9.8505   19.4765 N   0  0  0  0  0  0  0  0  0  0  0  0
  -25.5859  -31.3616   23.8187 N   0  0  0  0  0  0  0  0  0  0  0  0
  -19.9942  -30.1836   20.1030 N   0  0  0  0  0  0  0  0  0  0  0  0
  -28.5727  -17.7309   23.8378 N   0  0  0  0  0  0  0  0  0  0  0  0
  -19.7821  -30.0678   16.4961 N   0  3  0  0  0  0  0  0  0  0  0  0
  -25.9025  -11.3449   20.2362 O   0  0  0  0  0  0  0  0  0  0  0  0
  -24.0066  -29.6532   23.7194 O   0  0  0  0  0  0  0  0  0  0  0  0
  -21.5170  -31.8166   21.8982 O   0  0  0  0  0  0  0  0  0  0  0  0
  -20.5969  -28.4688   18.6631 O   0  0  0  0  0  0  0  0  0  0  0  0
  -30.7583  -18.4552   23.9425 O   0  0  0  0  0  0  0  0  0  0  0  0
  -32.2655   -7.6546   17.6905 O   0  0  0  0  0  0  0  0  0  0  0  0
  -26.8474  -25.8177   19.1671 O   0  0  0  0  0  0  0  0  0  1  0  0
  -29.8605   -4.4953   13.8644 F   0  0  0  0  0  0  0  0  0  0  0  0
  -33.4438   -7.2759   15.2185 F   0  0  0  0  0  0  0  0  0  0  0  0
  1  2  1  0  0  0  0
  1  5  2  0  0  0  0
  2  6  2  0  0  0  0
  3  8  2  0  0  0  0
  3 17  1  0  0  0  0
  4  9  1  0  0  0  0
  4 17  2  0  0  0  0
  5 19  1  0  0  0  0
  6 21  1  0  0  0  0
  7 10  2  0  0  0  0
  7 20  1  0  0  0  0
  8 24  1  0  0  0  0
  9 24  2  0  0  0  0
 10 25  1  0  0  0  0
 11 12  2  0  0  0  0
 11 26  1  0  0  0  0
 12 27  1  0  0  0  0
 13 22  1  0  0  0  0
 13 25  2  0  0  0  0
 14 27  2  0  0  0  0
 14 28  1  0  0  0  0
 15 23  1  0  0  0  0
 15 65  2  0  0  0  0
 16 23  2  0  0  0  0
 16 67  1  0  0  0  0
 17 29  1  0  0  0  0
 18 29  1  0  0  0  0
 18 30  2  0  0  0  0
 18 31  1  0  0  0  0
 19 21  2  0  0  0  0
 19 36  1  0  0  0  0
 20 22  2  0  0  0  0
 20 37  1  0  0  0  0
 21 45  1  0  0  0  0
 22 38  1  0  0  0  0
 23 63  1  0  0  0  0
 24 82  1  0  0  0  0
 25 83  1  0  0  0  0
 26 28  2  0  0  0  0
 26 82  1  0  0  0  0
 27 84  1  0  0  0  0
 28 85  1  0  0  0  0
 29 66  2  0  0  0  0
 30 68  1  0  0  0  0
 30 71  1  0  0  0  0
 31 72  1  0  0  0  0
 31 77  2  0  0  0  0
 32 46  1  0  0  0  0
 32 73  1  0  0  0  0
 32 78  2  0  0  0  0
 33 61  1  0  0  0  0
 33 69  1  0  0  0  0
 33 79  2  0  0  0  0
 34 62  1  0  0  0  0
 34 74  1  0  0  0  0
 34 80  2  0  0  0  0
 35 70  1  0  0  0  0
 35 75  1  0  0  0  0
 35 81  2  0  0  0  0
 36 39  1  0  0  0  0
 37 46  1  0  0  0  0
 38 69  1  0  0  0  0
 39 41  1  0  0  0  0
 40 42  1  0  0  0  0
 40 43  1  0  0  0  0
 41 45  1  0  0  0  0
 42 47  1  0  0  0  0
 43 70  1  0  0  0  0
 44 47  1  0  0  0  0
 44 70  1  0  0  0  0
 45 73  1  0  0  0  0
 46 69  1  0  0  0  0
 47 68  1  0  0  0  0
 48 62  1  0  0  0  0
 49 63  1  0  0  0  0
 50 63  1  0  0  0  0
 51 64  1  0  0  0  0
 52 64  1  0  0  0  0
 53 64  1  0  0  0  0
 54 75  1  0  0  0  0
 55 76  1  0  0  0  0
 56 57  1  0  0  0  0
 56 60  1  0  0  0  0
 57 63  1  0  0  0  0
 58 59  1  0  0  0  0
 58 67  1  0  0  0  0
 59 75  1  0  0  0  0
 60 83  1  0  0  0  0
 61 64  1  0  0  0  0
 61 74  1  0  0  0  0
 62 76  1  0  0  0  0
 65 67  1  0  0  0  0
 66 68  1  0  0  0  0
M  CHG  1  76   1
M  ISO  4  35 100  60 101  75 100  83 101
M  END
> <Batch ID>
0079

> <Smiles>
CNC(C)C(=O)NC(C(=O)N1Cc2cc([101O:1][101CH2:1]CCC(C)(C)c3cnn(CC[100N:0](C)[100C:0](=O)N4CCCC(n5nc(-c6ccc(Oc7ccc(F)cc7F)cc6)c(C(N)=O)c5N)C4)c3)ccc2CC1C(=O)NC1CCCc2ccccc21)C(C)(C)C

> <Shape>
0.275

> <Color>
0.076

> <Negative vol penalty>
0.000

$$$$

  -OEChem-04052318413D

 82 90  0     1  0  0  0  0  0999 V2000
  -20.3584  -34.3791   21.7032 C   0  0  0  0  0  0  0  0  0  0  0  0
  -21.5777  -33.8260   21.3254 C   0  0  0  0  0  0  0  0  0  0  0  0
  -25.5796  -15.4448   22.1832 C   0  0  0  0  0  0  0  0  0  0  0  0
  -25.5898  -14.5578   19.9360 C   0  0  0  0  0  0  0  0  0  0  0  0
  -19.5631  -33.7314   22.6475 C   0  0  0  0  0  0  0  0  0  0  0  0
  -22.0029  -32.6252   21.8927 C   0  0  0  0  0  0  0  0  0  0  0  0
  -25.2310  -28.1997   19.1542 C   0  0  0  0  0  0  0  0  0  0  0  0
  -24.5964  -14.5231   22.5427 C   0  0  0  0  0  0  0  0  0  0  0  0
  -24.6066  -13.6359   20.2955 C   0  0  0  0  0  0  0  0  0  0  0  0
  -26.5897  -27.8872   19.1630 C   0  0  0  0  0  0  0  0  0  0  0  0
  -24.4403  -10.6872   21.9379 C   0  0  0  0  0  0  0  0  0  0  0  0
  -24.6086   -9.3668   21.5210 C   0  0  0  0  0  0  0  0  0  0  0  0
  -26.2005  -26.2710   20.9110 C   0  0  0  0  0  0  0  0  0  0  0  0
  -22.5281   -9.4876   20.2986 C   0  0  0  0  0  0  0  0  0  0  0  0
  -30.0205  -26.1974   15.1431 C   0  0  0  0  0  0  0  0  0  0  0  0
  -29.6792  -24.2141   16.0290 C   0  0  0  0  0  0  0  0  0  0  0  0
  -26.0763  -15.4622   20.8798 C   0  0  0  0  0  0  0  0  0  0  0  0
  -28.4868  -16.2423   20.5819 C   0  0  0  0  0  0  0  0  0  0  0  0
  -19.9743  -32.5171   23.2195 C   0  0  0  0  0  0  0  0  0  0  0  0
  -24.3471  -27.5568   20.0327 C   0  0  0  0  0  0  0  0  0  0  0  0
  -21.2130  -31.9613   22.8465 C   0  0  0  0  0  0  0  0  0  0  0  0
  -24.8306  -26.5752   20.9095 C   0  0  0  0  0  0  0  0  0  0  0  0
  -30.2949  -25.4157   16.2813 C   0  0  0  0  0  0  0  0  0  0  0  0
  -24.1099  -13.6186   21.5988 C   0  0  0  0  0  0  0  0  0  0  0  0
  -27.0751  -26.9248   20.0436 C   0  0  0  0  0  0  0  0  0  0  0  0
  -23.3159  -11.4078   21.5352 C   0  0  0  0  0  0  0  0  0  0  0  0
  -23.6526   -8.7670   20.7014 C   0  0  0  0  0  0  0  0  0  0  0  0
  -22.3599  -10.8080   20.7156 C   0  0  0  0  0  0  0  0  0  0  0  0
  -27.0915  -16.4146   20.5078 C   0  0  0  0  0  0  0  0  0  0  0  0
  -29.0041  -17.4262   20.1159 C   0  0  0  0  0  0  0  0  0  0  0  0
  -29.2471  -15.1130   21.0315 C   0  0  0  0  0  0  0  0  0  0  0  0
  -22.4468  -28.5075   22.3967 C   0  0  0  0  0  0  0  0  0  0  0  0
  -21.4818  -25.4110   22.3443 C   0  0  0  0  0  0  0  0  0  0  0  0
  -22.1898  -22.1688   21.5480 C   0  0  0  0  0  0  0  0  0  0  0  0
  -26.8311  -21.4839   16.4188 C   0  0  0  0  0  0  0  0  0  0  0  0
  -19.1024  -31.8779   24.2711 C   0  0  0  0  0  0  0  0  0  0  0  0
  -22.8800  -27.8860   19.9921 C   0  0  0  0  0  0  0  0  0  0  0  0
  -23.9199  -25.8417   21.8587 C   0  0  0  0  0  0  0  0  0  0  0  0
  -19.4523  -30.4179   24.5474 C   0  0  0  0  0  0  0  0  0  0  0  0
  -27.9823  -22.0911   19.7957 C   0  0  0  0  0  0  0  0  0  0  0  0
  -20.9602  -30.2511   24.7059 C   0  0  0  0  0  0  0  0  0  0  0  0
  -28.0148  -20.6719   20.3658 C   0  0  0  0  0  0  0  0  0  0  0  0
  -26.7936  -22.2833   18.8586 C   0  0  0  0  0  0  0  0  0  0  0  0
  -26.7576  -19.8814   18.3080 C   0  0  0  0  0  0  0  0  0  0  0  0
  -21.6972  -30.6476   23.4209 C   0  0  1  0  0  0  0  0  0  0  0  0
  -22.1534  -27.5374   21.2874 C   0  0  1  0  0  0  0  0  0  0  0  0
  -27.9494  -19.6166   19.2459 C   0  0  2  0  0  0  0  0  0  0  0  0
  -32.3435  -24.9297   17.6440 C   0  0  0  0  0  0  0  0  0  0  0  0
  -21.2212  -19.8565   21.6591 C   0  0  0  0  0  0  0  0  0  0  0  0
  -22.0974  -25.2992   25.3307 C   0  0  0  0  0  0  0  0  0  0  0  0
  -22.0318  -22.8010   25.1797 C   0  0  0  0  0  0  0  0  0  0  0  0
  -19.9897  -24.1344   24.6556 C   0  0  0  0  0  0  0  0  0  0  0  0
  -22.2568  -21.8739   18.6040 C   0  0  0  0  0  0  0  0  0  0  0  0
  -30.2664  -25.7621   18.8105 C   0  0  0  0  0  0  0  0  0  0  0  0
  -28.3304  -23.3374   14.1079 C   0  0  0  0  0  0  0  0  0  0  0  0
  -26.9034  -23.2055   14.6333 C   0  0  0  0  0  0  0  0  0  0  0  0
  -29.1102  -26.7576   18.8243 C   0  0  0  0  0  0  0  0  0  1  0  0
  -31.0942  -25.8090   17.5116 C   0  0  2  0  0  0  0  0  0  0  0  0
  -21.9256  -24.1412   23.0295 C   0  0  1  0  0  0  0  0  0  0  0  0
  -21.3824  -21.1120   20.8162 C   0  0  2  0  0  0  0  0  0  0  0  0
  -21.5289  -24.1089   24.5325 C   0  0  0  0  0  0  0  0  0  0  0  0
  -29.2878  -25.5471   14.2353 N   0  0  0  0  0  0  0  0  0  0  0  0
  -26.7446  -17.6136   20.0324 N   0  0  0  0  0  0  0  0  0  0  0  0
  -29.0965  -24.3440   14.8028 N   0  0  0  0  0  0  0  0  0  0  0  0
  -27.9292  -18.2055   19.8036 N   0  0  0  0  0  0  0  0  0  0  0  0
  -22.4946  -26.2034   21.7855 N   0  0  0  0  0  0  0  0  0  0  0  0
  -26.8004  -21.2585   17.8051 N   0  0  0  0  0  0  0  0  0  0  0  0
  -30.2691  -17.8664   19.9471 N   0  0  0  0  0  0  0  0  0  0  0  0
  -28.5570  -13.9776   21.4774 N   0  0  0  0  0  0  0  0  0  0  0  0
  -21.5943  -29.5944   22.4337 N   0  0  0  0  0  0  0  0  0  0  0  0
  -21.3787  -23.0406   22.2434 N   0  0  0  0  0  0  0  0  0  0  0  0
  -26.8635  -22.8162   16.0254 N   0  0  0  0  0  0  0  0  0  0  0  0
  -22.0550  -20.7380   19.5399 N   0  3  0  0  0  0  0  0  0  0  0  0
  -30.5013  -15.1170   21.0532 O   0  0  0  0  0  0  0  0  0  0  0  0
  -23.3767  -28.2856   23.1632 O   0  0  0  0  0  0  0  0  0  0  0  0
  -20.2801  -25.6860   22.3000 O   0  0  0  0  0  0  0  0  0  0  0  0
  -23.4174  -22.2142   21.5100 O   0  0  0  0  0  0  0  0  0  0  0  0
  -26.8348  -20.5653   15.5923 O   0  0  0  0  0  0  0  0  0  0  0  0
  -23.1507  -12.7188   21.9493 O   0  0  0  0  0  0  0  0  0  0  0  0
  -28.4010  -26.6184   20.0548 O   0  0  0  0  0  0  0  0  0  1  0  0
  -23.8151   -7.4995   20.2998 F   0  0  0  0  0  0  0  0  0  0  0  0
  -21.2782  -11.4956   20.3245 F   0  0  0  0  0  0  0  0  0  0  0  0
  1  2  1  0  0  0  0
  1  5  2  0  0  0  0
  2  6  2  0  0  0  0
  3  8  2  0  0  0  0
  3 17  1  0  0  0  0
  4  9  1  0  0  0  0
  4 17  2  0  0  0  0
  5 19  1  0  0  0  0
  6 21  1  0  0  0  0
  7 10  2  0  0  0  0
  7 20  1  0  0  0  0
  8 24  1  0  0  0  0
  9 24  2  0  0  0  0
 10 25  1  0  0  0  0
 11 12  2  0  0  0  0
 11 26  1  0  0  0  0
 12 27  1  0  0  0  0
 13 22  1  0  0  0  0
 13 25  2  0  0  0  0
 14 27  2  0  0  0  0
 14 28  1  0  0  0  0
 15 23  1  0  0  0  0
 15 62  2  0  0  0  0
 16 23  2  0  0  0  0
 16 64  1  0  0  0  0
 17 29  1  0  0  0  0
 18 29  1  0  0  0  0
 18 30  2  0  0  0  0
 18 31  1  0  0  0  0
 19 21  2  0  0  0  0
 19 36  1  0  0  0  0
 20 22  2  0  0  0  0
 20 37  1  0  0  0  0
 21 45  1  0  0  0  0
 22 38  1  0  0  0  0
 23 58  1  0  0  0  0
 24 79  1  0  0  0  0
 25 80  1  0  0  0  0
 26 28  2  0  0  0  0
 26 79  1  0  0  0  0
 27 81  1  0  0  0  0
 28 82  1  0  0  0  0
 29 63  2  0  0  0  0
 30 65  1  0  0  0  0
 30 68  1  0  0  0  0
 31 69  1  0  0  0  0
 31 74  2  0  0  0  0
 32 46  1  0  0  0  0
 32 70  1  0  0  0  0
 32 75  2  0  0  0  0
 33 59  1  0  0  0  0
 33 66  1  0  0  0  0
 33 76  2  0  0  0  0
 34 60  1  0  0  0  0
 34 71  1  0  0  0  0
 34 77  2  0  0  0  0
 35 67  1  0  0  0  0
 35 72  1  0  0  0  0
 35 78  2  0  0  0  0
 36 39  1  0  0  0  0
 37 46  1  0  0  0  0
 38 66  1  0  0  0  0
 39 41  1  0  0  0  0
 40 42  1  0  0  0  0
 40 43  1  0  0  0  0
 41 45  1  0  0  0  0
 42 47  1  0  0  0  0
 43 67  1  0  0  0  0
 44 47  1  0  0  0  0
 44 67  1  0  0  0  0
 45 70  1  0  0  0  0
 46 66  1  0  0  0  0
 47 65  1  0  0  0  0
 48 58  1  0  0  0  0
 49 60  1  0  0  0  0
 50 61  1  0  0  0  0
 51 61  1  0  0  0  0
 52 61  1  0  0  0  0
 53 73  1  0  0  0  0
 54 57  1  0  0  0  0
 54 58  1  0  0  0  0
 55 56  1  0  0  0  0
 55 64  1  0  0  0  0
 56 72  1  0  0  0  0
 57 80  1  0  0  0  0
 59 61  1  0  0  0  0
 59 71  1  0  0  0  0
 60 73  1  0  0  0  0
 62 64  1  0  0  0  0
 63 65  1  0  0  0  0
M  CHG  1  73   1
M  ISO  4  35 100  57 101  72 100  80 101
M  END
> <Batch ID>
0079

> <Smiles>
CNC(C)C(=O)NC(C(=O)N1Cc2cc([101O:1][101CH2:1]CC(C)c3cnn(CC[100NH:0][100C:0](=O)N4CCCC(n5nc(-c6ccc(Oc7ccc(F)cc7F)cc6)c(C(N)=O)c5N)C4)c3)ccc2CC1C(=O)NC1CCCc2ccccc21)C(C)(C)C

> <Shape>
0.211

> <Color>
0.086

> <Negative vol penalty>
0.000

$$$$

  -OEChem-04052318413D

 85 93  0     1  0  0  0  0  0999 V2000
  -15.4697  -26.9700   25.3336 C   0  0  0  0  0  0  0  0  0  0  0  0
  -16.1296  -25.9800   24.6126 C   0  0  0  0  0  0  0  0  0  0  0  0
  -30.0741  -22.2506   18.5808 C   0  0  0  0  0  0  0  0  0  0  0  0
  -27.7151  -21.7470   18.4445 C   0  0  0  0  0  0  0  0  0  0  0  0
  -15.8139  -28.3090   25.1528 C   0  0  0  0  0  0  0  0  0  0  0  0
  -17.1334  -26.3284   23.7096 C   0  0  0  0  0  0  0  0  0  0  0  0
  -22.2075  -23.1444   22.4365 C   0  0  0  0  0  0  0  0  0  0  0  0
  -29.8991  -23.3112   17.6920 C   0  0  0  0  0  0  0  0  0  0  0  0
  -27.5401  -22.8077   17.5557 C   0  0  0  0  0  0  0  0  0  0  0  0
  -22.5315  -22.2714   21.3988 C   0  0  0  0  0  0  0  0  0  0  0  0
  -30.0094  -26.3754   15.7391 C   0  0  0  0  0  0  0  0  0  0  0  0
  -30.6285  -27.5872   16.0455 C   0  0  0  0  0  0  0  0  0  0  0  0
  -23.5902  -24.0850   20.2117 C   0  0  0  0  0  0  0  0  0  0  0  0
  -29.3770  -27.7048   18.1088 C   0  0  0  0  0  0  0  0  0  0  0  0
  -21.7058  -16.4221   19.5067 C   0  0  0  0  0  0  0  0  0  0  0  0
  -28.9821  -21.4684   18.9570 C   0  0  0  0  0  0  0  0  0  0  0  0
  -29.6461  -20.4398   21.1950 C   0  0  0  0  0  0  0  0  0  0  0  0
  -16.8290  -28.6733   24.2543 C   0  0  0  0  0  0  0  0  0  0  0  0
  -22.5635  -24.4988   22.3645 C   0  0  0  0  0  0  0  0  0  0  0  0
  -17.4905  -27.6736   23.5157 C   0  0  0  0  0  0  0  0  0  0  0  0
  -23.2719  -24.9725   21.2509 C   0  0  0  0  0  0  0  0  0  0  0  0
  -28.6321  -23.5898   17.1794 C   0  0  0  0  0  0  0  0  0  0  0  0
  -23.2204  -22.7422   20.2849 C   0  0  0  0  0  0  0  0  0  0  0  0
  -29.0740  -25.8283   16.6175 C   0  0  0  0  0  0  0  0  0  0  0  0
  -30.3123  -28.2519   17.2304 C   0  0  0  0  0  0  0  0  0  0  0  0
  -28.7579  -26.4930   17.8023 C   0  0  0  0  0  0  0  0  0  0  0  0
  -29.1624  -20.3723   19.8747 C   0  0  0  0  0  0  0  0  0  0  0  0
  -22.7690  -15.6619   19.0718 C   0  0  0  0  0  0  0  0  0  0  0  0
  -22.1385  -17.9623   17.8727 C   0  0  0  0  0  0  0  0  0  0  0  0
  -23.2022  -17.2025   17.4381 C   0  0  0  0  0  0  0  0  0  0  0  0
  -29.6265  -19.1387   21.6348 C   0  0  0  0  0  0  0  0  0  0  0  0
  -30.0747  -21.5768   21.9560 C   0  0  0  0  0  0  0  0  0  0  0  0
  -20.9564  -27.2408   22.3103 C   0  0  0  0  0  0  0  0  0  0  0  0
  -23.9262  -28.5346   22.4804 C   0  0  0  0  0  0  0  0  0  0  0  0
  -27.2750  -28.1851   21.9235 C   0  0  0  0  0  0  0  0  0  0  0  0
  -26.4181  -14.3425   20.0369 C   0  0  0  0  0  0  0  0  0  0  0  0
  -17.1336  -30.1373   24.0578 C   0  0  0  0  0  0  0  0  0  0  0  0
  -22.2302  -25.4220   23.5043 C   0  0  0  0  0  0  0  0  0  0  0  0
  -23.6949  -26.4133   21.1343 C   0  0  0  0  0  0  0  0  0  0  0  0
  -18.4658  -30.3937   23.3579 C   0  0  0  0  0  0  0  0  0  0  0  0
  -29.9660  -14.6412   20.0386 C   0  0  0  0  0  0  0  0  0  0  0  0
  -18.6112  -29.4885   22.1387 C   0  0  0  0  0  0  0  0  0  0  0  0
  -30.2060  -16.1499   20.1159 C   0  0  0  0  0  0  0  0  0  0  0  0
  -28.7441  -14.3071   19.1856 C   0  0  0  0  0  0  0  0  0  0  0  0
  -27.7441  -16.5093   19.6588 C   0  0  0  0  0  0  0  0  0  0  0  0
  -18.6019  -28.0099   22.5451 C   0  0  1  0  0  0  0  0  0  0  0  0
  -22.1908  -26.8903   23.0921 C   0  0  1  0  0  0  0  0  0  0  0  0
  -28.9329  -16.8985   20.5542 C   0  0  2  0  0  0  0  0  0  0  0  0
  -23.9820  -16.6368   15.1088 C   0  0  0  0  0  0  0  0  0  0  0  0
  -25.5109  -17.8767   16.6837 C   0  0  0  0  0  0  0  0  0  0  0  0
  -29.4461  -29.4269   22.1277 C   0  0  0  0  0  0  0  0  0  0  0  0
  -23.2153  -30.1786   20.0102 C   0  0  0  0  0  0  0  0  0  0  0  0
  -25.6553  -30.6518   19.7087 C   0  0  0  0  0  0  0  0  0  0  0  0
  -24.4807  -31.4298   21.7673 C   0  0  0  0  0  0  0  0  0  0  0  0
  -28.3779  -26.1816   23.8021 C   0  0  0  0  0  0  0  0  0  0  0  0
  -23.1086  -14.3807   19.7493 C   0  0  0  0  0  0  0  0  0  0  0  0
  -21.7752  -19.2629   17.2018 C   0  0  0  0  0  0  0  0  0  0  0  0
  -22.7026  -20.4241   17.5663 C   0  0  0  0  0  0  0  0  0  0  0  0
  -24.1025  -14.5398   20.9076 C   0  0  0  0  0  0  0  0  0  0  0  0
  -22.6555  -20.7934   19.0444 C   0  0  0  0  0  0  0  0  0  1  0  0
  -24.0432  -17.6308   16.2845 C   0  0  0  0  0  0  0  0  0  0  0  0
  -24.9639  -28.9658   21.4723 C   0  0  1  0  0  0  0  0  0  0  0  0
  -28.4778  -28.4695   22.8049 C   0  0  2  0  0  0  0  0  0  0  0  0
  -24.5693  -30.2797   20.7407 C   0  0  0  0  0  0  0  0  0  0  0  0
  -21.3714  -17.5860   18.9150 N   0  0  0  0  0  0  0  0  0  0  0  0
  -28.8579  -19.1269   19.5001 N   0  0  0  0  0  0  0  0  0  0  0  0
  -23.5363  -16.0385   18.0296 N   0  0  0  0  0  0  0  0  0  0  0  0
  -29.1511  -18.3998   20.5916 N   0  0  0  0  0  0  0  0  0  0  0  0
  -23.3402  -27.2781   22.2718 N   0  0  0  0  0  0  0  0  0  0  0  0
  -27.5708  -15.0482   19.6544 N   0  0  0  0  0  0  0  0  0  0  0  0
  -29.9698  -18.5661   22.8081 N   0  0  0  0  0  0  0  0  0  0  0  0
  -29.1244  -22.2636   22.7239 N   0  0  0  0  0  0  0  0  0  0  0  0
  -19.8858  -27.6283   23.0932 N   0  0  0  0  0  0  0  0  0  0  0  0
  -26.2288  -29.0411   22.1953 N   0  0  0  0  0  0  0  0  0  0  0  0
  -25.3537  -15.1210   20.4748 N   0  0  0  0  0  0  0  0  0  0  0  0
  -29.2047  -27.2056   23.1130 N   0  3  0  0  0  0  0  0  0  0  0  0
  -31.2618  -21.9820   21.9421 O   0  0  0  0  0  0  0  0  0  0  0  0
  -20.9746  -27.1666   21.0872 O   0  0  0  0  0  0  0  0  0  0  0  0
  -23.6510  -29.2820   23.4224 O   0  0  0  0  0  0  0  0  0  0  0  0
  -27.2659  -27.2950   21.0760 O   0  0  0  0  0  0  0  0  0  0  0  0
  -26.3449  -13.1096   19.9965 O   0  0  0  0  0  0  0  0  0  0  0  0
  -28.4609  -24.6248   16.3123 O   0  0  0  0  0  0  0  0  0  0  0  0
  -23.5372  -21.8924   19.2704 O   0  0  0  0  0  0  0  0  0  1  0  0
  -30.9080  -29.4148   17.5252 F   0  0  0  0  0  0  0  0  0  0  0  0
  -27.8609  -25.9718   18.6507 F   0  0  0  0  0  0  0  0  0  0  0  0
  1  2  1  0  0  0  0
  1  5  2  0  0  0  0
  2  6  2  0  0  0  0
  3  8  2  0  0  0  0
  3 16  1  0  0  0  0
  4  9  1  0  0  0  0
  4 16  2  0  0  0  0
  5 18  1  0  0  0  0
  6 20  1  0  0  0  0
  7 10  2  0  0  0  0
  7 19  1  0  0  0  0
  8 22  1  0  0  0  0
  9 22  2  0  0  0  0
 10 23  1  0  0  0  0
 11 12  2  0  0  0  0
 11 24  1  0  0  0  0
 12 25  1  0  0  0  0
 13 21  1  0  0  0  0
 13 23  2  0  0  0  0
 14 25  2  0  0  0  0
 14 26  1  0  0  0  0
 15 28  1  0  0  0  0
 15 65  2  0  0  0  0
 16 27  1  0  0  0  0
 17 27  1  0  0  0  0
 17 31  2  0  0  0  0
 17 32  1  0  0  0  0
 18 20  2  0  0  0  0
 18 37  1  0  0  0  0
 19 21  2  0  0  0  0
 19 38  1  0  0  0  0
 20 46  1  0  0  0  0
 21 39  1  0  0  0  0
 22 82  1  0  0  0  0
 23 83  1  0  0  0  0
 24 26  2  0  0  0  0
 24 82  1  0  0  0  0
 25 84  1  0  0  0  0
 26 85  1  0  0  0  0
 27 66  2  0  0  0  0
 28 56  1  0  0  0  0
 28 67  2  0  0  0  0
 29 30  2  0  0  0  0
 29 57  1  0  0  0  0
 29 65  1  0  0  0  0
 30 61  1  0  0  0  0
 30 67  1  0  0  0  0
 31 68  1  0  0  0  0
 31 71  1  0  0  0  0
 32 72  1  0  0  0  0
 32 77  2  0  0  0  0
 33 47  1  0  0  0  0
 33 73  1  0  0  0  0
 33 78  2  0  0  0  0
 34 62  1  0  0  0  0
 34 69  1  0  0  0  0
 34 79  2  0  0  0  0
 35 63  1  0  0  0  0
 35 74  1  0  0  0  0
 35 80  2  0  0  0  0
 36 70  1  0  0  0  0
 36 75  1  0  0  0  0
 36 81  2  0  0  0  0
 37 40  1  0  0  0  0
 38 47  1  0  0  0  0
 39 69  1  0  0  0  0
 40 42  1  0  0  0  0
 41 43  1  0  0  0  0
 41 44  1  0  0  0  0
 42 46  1  0  0  0  0
 43 48  1  0  0  0  0
 44 70  1  0  0  0  0
 45 48  1  0  0  0  0
 45 70  1  0  0  0  0
 46 73  1  0  0  0  0
 47 69  1  0  0  0  0
 48 68  1  0  0  0  0
 49 61  1  0  0  0  0
 50 61  1  0  0  0  0
 51 63  1  0  0  0  0
 52 64  1  0  0  0  0
 53 64  1  0  0  0  0
 54 64  1  0  0  0  0
 55 76  1  0  0  0  0
 56 59  1  0  0  0  0
 57 58  1  0  0  0  0
 58 60  1  0  0  0  0
 59 75  1  0  0  0  0
 60 83  1  0  0  0  0
 62 64  1  0  0  0  0
 62 74  1  0  0  0  0
 63 76  1  0  0  0  0
 66 68  1  0  0  0  0
M  CHG  1  76   1
M  ISO  4  36 100  60 101  75 100  83 101
M  END
> <Batch ID>
0079

> <Smiles>
CNC(C)C(=O)NC(C(=O)N1Cc2cc([101O:1][101CH2:1]CCc3ncc(CC[100NH:0][100C:0](=O)N4CCCC(n5nc(-c6ccc(Oc7ccc(F)cc7F)cc6)c(C(N)=O)c5N)C4)nc3C(C)C)ccc2CC1C(=O)NC1CCCc2ccccc21)C(C)(C)C

> <Shape>
0.215

> <Color>
0.054

> <Negative vol penalty>
0.000

$$$$

  -OEChem-04052318413D

 90 98  0     1  0  0  0  0  0999 V2000
  -29.7819  -33.7298   20.7118 C   0  0  0  0  0  0  0  0  0  0  0  0
  -30.6060  -32.7193   21.1968 C   0  0  0  0  0  0  0  0  0  0  0  0
  -23.2835   -9.8006   19.9113 C   0  0  0  0  0  0  0  0  0  0  0  0
  -23.7298   -9.9401   22.2816 C   0  0  0  0  0  0  0  0  0  0  0  0
  -28.4008  -33.5429   20.6727 C   0  0  0  0  0  0  0  0  0  0  0  0
  -30.0492  -31.5217   21.6441 C   0  0  0  0  0  0  0  0  0  0  0  0
  -31.4482  -24.5052   22.0022 C   0  0  0  0  0  0  0  0  0  0  0  0
  -22.5530   -8.6304   20.1176 C   0  0  0  0  0  0  0  0  0  0  0  0
  -22.9992   -8.7699   22.4880 C   0  0  0  0  0  0  0  0  0  0  0  0
  -31.4845  -23.4598   22.9240 C   0  0  0  0  0  0  0  0  0  0  0  0
  -19.7489   -7.8690   22.6987 C   0  0  0  0  0  0  0  0  0  0  0  0
  -18.8443   -7.8502   23.7602 C   0  0  0  0  0  0  0  0  0  0  0  0
  -29.0917  -23.2184   22.7354 C   0  0  0  0  0  0  0  0  0  0  0  0
  -20.0422   -5.9994   24.7484 C   0  0  0  0  0  0  0  0  0  0  0  0
  -30.7687  -16.0693   23.9082 C   0  0  0  0  0  0  0  0  0  0  0  0
  -23.8719  -10.4555   20.9933 C   0  0  0  0  0  0  0  0  0  0  0  0
  -24.1396  -12.9846   20.7950 C   0  0  0  0  0  0  0  0  0  0  0  0
  -27.8276  -32.3386   21.1108 C   0  0  0  0  0  0  0  0  0  0  0  0
  -30.2299  -24.9229   21.4474 C   0  0  0  0  0  0  0  0  0  0  0  0
  -28.6591  -31.3190   21.6122 C   0  0  0  0  0  0  0  0  0  0  0  0
  -29.0429  -24.2676   21.8049 C   0  0  0  0  0  0  0  0  0  0  0  0
  -22.4109   -8.1150   21.4060 C   0  0  0  0  0  0  0  0  0  0  0  0
  -30.3058  -22.8182   23.2929 C   0  0  0  0  0  0  0  0  0  0  0  0
  -20.8002   -6.9529   22.6619 C   0  0  0  0  0  0  0  0  0  0  0  0
  -18.9909   -6.9155   24.7850 C   0  0  0  0  0  0  0  0  0  0  0  0
  -20.9468   -6.0181   23.6868 C   0  0  0  0  0  0  0  0  0  0  0  0
  -24.6271  -11.6640   20.7807 C   0  0  0  0  0  0  0  0  0  0  0  0
  -30.1634  -15.2054   23.0397 C   0  0  0  0  0  0  0  0  0  0  0  0
  -25.2441  -13.7610   20.5422 C   0  0  0  0  0  0  0  0  0  0  0  0
  -30.5403  -17.1033   21.9643 C   0  0  0  0  0  0  0  0  0  0  0  0
  -22.8076  -13.4664   21.0170 C   0  0  0  0  0  0  0  0  0  0  0  0
  -28.5605  -27.6277   21.4800 C   0  0  0  0  0  0  0  0  0  0  0  0
  -26.6769  -26.0342   19.3740 C   0  0  0  0  0  0  0  0  0  0  0  0
  -31.1141  -12.7804   21.3750 C   0  0  0  0  0  0  0  0  0  0  0  0
  -25.5818  -23.0400   18.1564 C   0  0  0  0  0  0  0  0  0  0  0  0
  -26.3258  -32.2009   21.0934 C   0  0  0  0  0  0  0  0  0  0  0  0
  -30.2109  -26.0344   20.4342 C   0  0  0  0  0  0  0  0  0  0  0  0
  -27.7117  -24.6646   21.2229 C   0  0  0  0  0  0  0  0  0  0  0  0
  -25.8447  -30.7593   21.2369 C   0  0  0  0  0  0  0  0  0  0  0  0
  -29.4695  -13.6636   18.3163 C   0  0  0  0  0  0  0  0  0  0  0  0
  -26.5893  -30.0581   22.3685 C   0  0  0  0  0  0  0  0  0  0  0  0
  -28.0010  -13.3442   18.5931 C   0  0  0  0  0  0  0  0  0  0  0  0
  -30.3972  -12.6717   19.0109 C   0  0  0  0  0  0  0  0  0  0  0  0
  -28.7048  -12.2395   20.7632 C   0  0  0  0  0  0  0  0  0  0  0  0
  -28.0947  -29.9962   22.0833 C   0  0  1  0  0  0  0  0  0  0  0  0
  -28.8511  -26.7166   20.3210 C   0  0  1  0  0  0  0  0  0  0  0  0
  -27.7343  -13.2360   20.1050 C   0  0  2  0  0  0  0  0  0  0  0  0
  -29.0738  -13.5695   24.6241 C   0  0  0  0  0  0  0  0  0  0  0  0
  -24.0139  -22.0576   16.4612 C   0  0  0  0  0  0  0  0  0  0  0  0
  -32.0519  -18.5557   20.5674 C   0  0  0  0  0  0  0  0  0  0  0  0
  -29.7986  -19.4145   21.2896 C   0  0  0  0  0  0  0  0  0  0  0  0
  -29.9758  -17.6861   19.5112 C   0  0  0  0  0  0  0  0  0  0  0  0
  -30.1828  -11.2583   23.0624 C   0  0  0  0  0  0  0  0  0  0  0  0
  -32.0426  -12.8419   23.6111 C   0  0  0  0  0  0  0  0  0  0  0  0
  -24.3110  -26.6905   21.1855 C   0  0  0  0  0  0  0  0  0  0  0  0
  -22.9951  -24.9288   19.9882 C   0  0  0  0  0  0  0  0  0  0  0  0
  -23.8447  -26.9136   18.7386 C   0  0  0  0  0  0  0  0  0  0  0  0
  -30.5610  -20.6436   26.8613 C   0  0  0  0  0  0  0  0  0  0  0  0
  -32.8845  -19.9384   26.2760 C   0  0  0  0  0  0  0  0  0  0  0  0
  -27.7929  -21.6982   16.7179 C   0  0  0  0  0  0  0  0  0  0  0  0
  -30.8853  -18.9879   25.0154 C   0  0  0  0  0  0  0  0  0  0  0  0
  -31.6436  -18.4717   23.7854 C   0  0  0  0  0  0  0  0  0  0  0  0
  -31.6146  -21.4368   24.7194 C   0  0  0  0  0  0  0  0  0  1  0  0
  -29.6958  -13.8278   23.2130 C   0  0  2  0  0  0  0  0  0  0  0  0
  -25.4730  -25.1305   19.4878 C   0  0  1  0  0  0  0  0  0  0  0  0
  -25.4353  -22.5228   16.7367 C   0  0  2  0  0  0  0  0  0  0  0  0
  -30.5844  -18.1245   20.8881 C   0  0  0  0  0  0  0  0  0  0  0  0
  -30.7275  -12.6749   22.8287 C   0  0  0  0  0  0  0  0  0  0  0  0
  -24.1806  -25.9094   19.8626 C   0  0  0  0  0  0  0  0  0  0  0  0
  -31.4929  -20.2471   25.6956 C   0  0  0  0  0  0  0  0  0  0  0  0
  -25.9390  -11.6012   20.5379 N   0  0  0  0  0  0  0  0  0  0  0  0
  -30.9909  -17.2353   23.2161 N   0  0  0  0  0  0  0  0  0  0  0  0
  -26.2853  -12.8921   20.3972 N   0  0  0  0  0  0  0  0  0  0  0  0
  -30.0342  -15.8716   21.8449 N   0  3  0  0  0  0  0  0  0  0  0  0
  -27.7443  -25.7611   20.2411 N   0  0  0  0  0  0  0  0  0  0  0  0
  -30.0972  -12.5812   20.4410 N   0  0  0  0  0  0  0  0  0  0  0  0
  -25.4164  -15.0954   20.4320 N   0  0  0  0  0  0  0  0  0  0  0  0
  -21.7916  -12.5327   21.2624 N   0  0  0  0  0  0  0  0  0  0  0  0
  -28.3850  -28.9515   21.1248 N   0  0  0  0  0  0  0  0  0  0  0  0
  -25.3877  -24.4034   18.2259 N   0  0  0  0  0  0  0  0  0  0  0  0
  -26.3583  -21.3759   16.5054 N   0  3  0  0  0  0  0  0  0  0  0  0
  -22.5236  -14.6878   20.9820 O   0  0  0  0  0  0  0  0  0  0  0  0
  -28.4986  -27.1637   22.6125 O   0  0  0  0  0  0  0  0  0  0  0  0
  -26.6733  -26.9443   18.5413 O   0  0  0  0  0  0  0  0  0  0  0  0
  -32.2847  -13.0352   21.0803 O   0  0  0  0  0  0  0  0  0  0  0  0
  -25.8388  -22.3073   19.1091 O   0  0  0  0  0  0  0  0  0  0  0  0
  -21.6979   -6.9733   21.6077 O   0  0  0  0  0  0  0  0  0  0  0  0
  -30.3384  -21.7980   24.1929 O   0  0  0  0  0  0  0  0  0  1  0  0
  -18.1230   -6.8986   25.8052 F   0  0  0  0  0  0  0  0  0  0  0  0
  -21.9554   -5.1363   23.6576 F   0  0  0  0  0  0  0  0  0  0  0  0
  1  2  1  0  0  0  0
  1  5  2  0  0  0  0
  2  6  2  0  0  0  0
  3  8  2  0  0  0  0
  3 16  1  0  0  0  0
  4  9  1  0  0  0  0
  4 16  2  0  0  0  0
  5 18  1  0  0  0  0
  6 20  1  0  0  0  0
  7 10  2  0  0  0  0
  7 19  1  0  0  0  0
  8 22  1  0  0  0  0
  9 22  2  0  0  0  0
 10 23  1  0  0  0  0
 11 12  2  0  0  0  0
 11 24  1  0  0  0  0
 12 25  1  0  0  0  0
 13 21  1  0  0  0  0
 13 23  2  0  0  0  0
 14 25  2  0  0  0  0
 14 26  1  0  0  0  0
 15 28  2  0  0  0  0
 15 72  1  0  0  0  0
 16 27  1  0  0  0  0
 17 27  1  0  0  0  0
 17 29  2  0  0  0  0
 17 31  1  0  0  0  0
 18 20  2  0  0  0  0
 18 36  1  0  0  0  0
 19 21  2  0  0  0  0
 19 37  1  0  0  0  0
 20 45  1  0  0  0  0
 21 38  1  0  0  0  0
 22 87  1  0  0  0  0
 23 88  1  0  0  0  0
 24 26  2  0  0  0  0
 24 87  1  0  0  0  0
 25 89  1  0  0  0  0
 26 90  1  0  0  0  0
 27 71  2  0  0  0  0
 28 64  1  0  0  0  0
 28 74  1  0  0  0  0
 29 73  1  0  0  0  0
 29 77  1  0  0  0  0
 30 67  1  0  0  0  0
 30 72  1  0  0  0  0
 30 74  2  0  0  0  0
 31 78  1  0  0  0  0
 31 82  2  0  0  0  0
 32 46  1  0  0  0  0
 32 79  1  0  0  0  0
 32 83  2  0  0  0  0
 33 65  1  0  0  0  0
 33 75  1  0  0  0  0
 33 84  2  0  0  0  0
 34 68  1  0  0  0  0
 34 76  1  0  0  0  0
 34 85  2  0  0  0  0
 35 66  1  0  0  0  0
 35 80  1  0  0  0  0
 35 86  2  0  0  0  0
 36 39  1  0  0  0  0
 37 46  1  0  0  0  0
 38 75  1  0  0  0  0
 39 41  1  0  0  0  0
 40 42  1  0  0  0  0
 40 43  1  0  0  0  0
 41 45  1  0  0  0  0
 42 47  1  0  0  0  0
 43 76  1  0  0  0  0
 44 47  1  0  0  0  0
 44 76  1  0  0  0  0
 45 79  1  0  0  0  0
 46 75  1  0  0  0  0
 47 73  1  0  0  0  0
 48 64  1  0  0  0  0
 49 66  1  0  0  0  0
 50 67  1  0  0  0  0
 51 67  1  0  0  0  0
 52 67  1  0  0  0  0
 53 68  1  0  0  0  0
 54 68  1  0  0  0  0
 55 69  1  0  0  0  0
 56 69  1  0  0  0  0
 57 69  1  0  0  0  0
 58 70  1  0  0  0  0
 59 70  1  0  0  0  0
 60 81  1  0  0  0  0
 61 62  1  0  0  0  0
 61 70  1  0  0  0  0
 62 72  1  0  0  0  0
 63 70  1  0  0  0  0
 63 88  1  0  0  0  0
 64 68  1  0  0  0  0
 65 69  1  0  0  0  0
 65 80  1  0  0  0  0
 66 81  1  0  0  0  0
 71 73  1  0  0  0  0
M  CHG  2  74   1  81   1
M  ISO  4  34 100  63 101  68 100  88 101
M  END
> <Batch ID>
0079

> <Smiles>
CNC(C)C(=O)NC(C(=O)N1Cc2cc([101O:1][101CH2:1]C(C)(C)CCn3cc(C(C)[100C:0](C)(C)[100C:0](=O)N4CCCC(n5nc(-c6ccc(Oc7ccc(F)cc7F)cc6)c(C(N)=O)c5N)C4)nc3C(C)(C)C)ccc2CC1C(=O)NC1CCCc2ccccc21)C(C)(C)C

> <Shape>
0.252

> <Color>
0.163

> <Negative vol penalty>
0.000

$$$$

  -OEChem-04052318413D

 83 91  0     1  0  0  0  0  0999 V2000
  -26.7451  -28.6737   13.7620 C   0  0  0  0  0  0  0  0  0  0  0  0
  -26.9258  -28.0927   15.0130 C   0  0  0  0  0  0  0  0  0  0  0  0
  -24.7951  -12.6961   19.7178 C   0  0  0  0  0  0  0  0  0  0  0  0
  -25.4881  -12.9999   22.0122 C   0  0  0  0  0  0  0  0  0  0  0  0
  -26.9163  -30.0481   13.6017 C   0  0  0  0  0  0  0  0  0  0  0  0
  -27.2788  -28.8856   16.1044 C   0  0  0  0  0  0  0  0  0  0  0  0
  -24.6010  -27.7779   20.2574 C   0  0  0  0  0  0  0  0  0  0  0  0
  -25.0940  -11.3367   19.8075 C   0  0  0  0  0  0  0  0  0  0  0  0
  -25.7870  -11.6404   22.1020 C   0  0  0  0  0  0  0  0  0  0  0  0
  -24.9753  -26.6406   20.9718 C   0  0  0  0  0  0  0  0  0  0  0  0
  -24.0992   -8.7435   22.5260 C   0  0  0  0  0  0  0  0  0  0  0  0
  -23.6716   -8.0613   23.6650 C   0  0  0  0  0  0  0  0  0  0  0  0
  -26.1555  -28.0292   22.5524 C   0  0  0  0  0  0  0  0  0  0  0  0
  -29.3517  -25.8473   21.0711 C   0  0  0  0  0  0  0  0  0  0  0  0
  -25.9624   -7.5000   24.1888 C   0  0  0  0  0  0  0  0  0  0  0  0
  -24.9923  -13.5278   20.8201 C   0  0  0  0  0  0  0  0  0  0  0  0
  -23.4546  -15.5538   21.0172 C   0  0  0  0  0  0  0  0  0  0  0  0
  -27.2621  -30.8597   14.6937 C   0  0  0  0  0  0  0  0  0  0  0  0
  -25.0110  -29.0507   20.6798 C   0  0  0  0  0  0  0  0  0  0  0  0
  -27.4560  -30.2719   15.9583 C   0  0  0  0  0  0  0  0  0  0  0  0
  -25.7829  -29.1812   21.8430 C   0  0  0  0  0  0  0  0  0  0  0  0
  -29.3472  -24.5572   21.5716 C   0  0  0  0  0  0  0  0  0  0  0  0
  -25.5899  -10.8088   20.9996 C   0  0  0  0  0  0  0  0  0  0  0  0
  -25.7550  -26.7659   22.1178 C   0  0  0  0  0  0  0  0  0  0  0  0
  -25.4584   -8.8039   22.2183 C   0  0  0  0  0  0  0  0  0  0  0  0
  -24.6031   -7.4396   24.4964 C   0  0  0  0  0  0  0  0  0  0  0  0
  -26.3900   -8.1821   23.0497 C   0  0  0  0  0  0  0  0  0  0  0  0
  -24.6842  -14.9323   20.7279 C   0  0  0  0  0  0  0  0  0  0  0  0
  -29.9627  -26.0654   19.8526 C   0  0  0  0  0  0  0  0  0  0  0  0
  -29.9536  -23.5705   20.8203 C   0  0  0  0  0  0  0  0  0  0  0  0
  -23.6781  -16.8870   20.7740 C   0  0  0  0  0  0  0  0  0  0  0  0
  -22.2208  -14.9775   21.4657 C   0  0  0  0  0  0  0  0  0  0  0  0
  -26.7952  -31.3634   19.4260 C   0  0  0  0  0  0  0  0  0  0  0  0
  -25.8298  -32.9998   22.0552 C   0  0  0  0  0  0  0  0  0  0  0  0
  -24.6721  -32.9041   25.2641 C   0  0  0  0  0  0  0  0  0  0  0  0
  -28.6062  -20.1357   20.8981 C   0  0  0  0  0  0  0  0  0  0  0  0
  -27.4824  -32.3336   14.4618 C   0  0  0  0  0  0  0  0  0  0  0  0
  -24.5765  -30.2696   19.9131 C   0  0  0  0  0  0  0  0  0  0  0  0
  -26.2320  -30.5266   22.3499 C   0  0  0  0  0  0  0  0  0  0  0  0
  -27.4902  -33.1579   15.7466 C   0  0  0  0  0  0  0  0  0  0  0  0
  -26.3532  -19.8061   18.0851 C   0  0  0  0  0  0  0  0  0  0  0  0
  -28.3603  -32.4879   16.8053 C   0  0  0  0  0  0  0  0  0  0  0  0
  -25.5500  -18.5663   18.4824 C   0  0  0  0  0  0  0  0  0  0  0  0
  -27.8157  -19.6734   18.4993 C   0  0  0  0  0  0  0  0  0  0  0  0
  -27.2210  -18.1557   20.3476 C   0  0  0  0  0  0  0  0  0  0  0  0
  -27.8149  -31.1023   17.1715 C   0  0  1  0  0  0  0  0  0  0  0  0
  -25.4811  -31.4758   20.1459 C   0  0  1  0  0  0  0  0  0  0  0  0
  -25.7291  -18.2376   19.9764 C   0  0  2  0  0  0  0  0  0  0  0  0
  -29.9955  -27.4366   19.2696 C   0  0  0  0  0  0  0  0  0  0  0  0
  -31.4170  -21.6265   21.4840 C   0  0  0  0  0  0  0  0  0  0  0  0
  -24.0125  -34.4028   27.1658 C   0  0  0  0  0  0  0  0  0  0  0  0
  -28.7737  -33.5474   22.6415 C   0  0  0  0  0  0  0  0  0  0  0  0
  -28.1186  -34.1885   24.9713 C   0  0  0  0  0  0  0  0  0  0  0  0
  -27.2529  -35.4943   23.0301 C   0  0  0  0  0  0  0  0  0  0  0  0
  -21.9019  -31.8625   25.2769 C   0  0  0  0  0  0  0  0  0  0  0  0
  -28.6929  -24.2642   22.8981 C   0  0  0  0  0  0  0  0  0  0  0  0
  -27.3279  -23.5836   22.7745 C   0  0  0  0  0  0  0  0  0  0  0  0
  -26.2833  -24.4475   22.0775 C   0  0  0  0  0  0  0  0  0  1  0  0
  -29.9885  -22.1575   21.2964 C   0  0  2  0  0  0  0  0  0  0  0  0
  -26.3543  -33.1706   23.4605 C   0  0  1  0  0  0  0  0  0  0  0  0
  -23.5293  -33.6356   25.9449 C   0  0  2  0  0  0  0  0  0  0  0  0
  -27.6182  -34.0746   23.5155 C   0  0  0  0  0  0  0  0  0  0  0  0
  -25.6195  -15.7995   20.3311 N   0  0  0  0  0  0  0  0  0  0  0  0
  -30.5485  -25.0807   19.1389 N   0  0  0  0  0  0  0  0  0  0  0  0
  -30.5437  -23.8127   19.6307 N   0  0  0  0  0  0  0  0  0  0  0  0
  -24.9773  -16.9794   20.3693 N   0  0  0  0  0  0  0  0  0  0  0  0
  -25.7869  -31.6880   21.5622 N   0  0  0  0  0  0  0  0  0  0  0  0
  -27.9171  -19.3791   19.9357 N   0  0  0  0  0  0  0  0  0  0  0  0
  -22.8881  -17.9775   20.8690 N   0  0  0  0  0  0  0  0  0  0  0  0
  -22.1644  -13.5914   21.6654 N   0  0  0  0  0  0  0  0  0  0  0  0
  -26.6762  -31.2249   18.0563 N   0  0  0  0  0  0  0  0  0  0  0  0
  -25.2346  -33.6600   24.2574 N   0  0  0  0  0  0  0  0  0  0  0  0
  -29.2445  -21.2756   20.4248 N   0  0  0  0  0  0  0  0  0  0  0  0
  -22.4824  -32.6690   26.3812 N   0  3  0  0  0  0  0  0  0  0  0  0
  -21.1938  -15.6690   21.6671 O   0  0  0  0  0  0  0  0  0  0  0  0
  -27.8397  -31.4010   20.0657 O   0  0  0  0  0  0  0  0  0  0  0  0
  -25.4648  -33.9929   21.4211 O   0  0  0  0  0  0  0  0  0  0  0  0
  -25.0323  -31.7766   25.5950 O   0  0  0  0  0  0  0  0  0  0  0  0
  -28.6453  -19.8215   22.0926 O   0  0  0  0  0  0  0  0  0  0  0  0
  -25.8814   -9.4822   21.0876 O   0  0  0  0  0  0  0  0  0  0  0  0
  -26.1223  -25.6575   22.8166 O   0  0  0  0  0  0  0  0  0  1  0  0
  -24.1925   -6.7859   25.5911 F   0  0  0  0  0  0  0  0  0  0  0  0
  -27.6972   -8.2377   22.7600 F   0  0  0  0  0  0  0  0  0  0  0  0
  1  2  1  0  0  0  0
  1  5  2  0  0  0  0
  2  6  2  0  0  0  0
  3  8  2  0  0  0  0
  3 16  1  0  0  0  0
  4  9  1  0  0  0  0
  4 16  2  0  0  0  0
  5 18  1  0  0  0  0
  6 20  1  0  0  0  0
  7 10  2  0  0  0  0
  7 19  1  0  0  0  0
  8 23  1  0  0  0  0
  9 23  2  0  0  0  0
 10 24  1  0  0  0  0
 11 12  2  0  0  0  0
 11 25  1  0  0  0  0
 12 26  1  0  0  0  0
 13 21  1  0  0  0  0
 13 24  2  0  0  0  0
 14 22  1  0  0  0  0
 14 29  2  0  0  0  0
 15 26  2  0  0  0  0
 15 27  1  0  0  0  0
 16 28  1  0  0  0  0
 17 28  1  0  0  0  0
 17 31  2  0  0  0  0
 17 32  1  0  0  0  0
 18 20  2  0  0  0  0
 18 37  1  0  0  0  0
 19 21  2  0  0  0  0
 19 38  1  0  0  0  0
 20 46  1  0  0  0  0
 21 39  1  0  0  0  0
 22 30  2  0  0  0  0
 22 56  1  0  0  0  0
 23 80  1  0  0  0  0
 24 81  1  0  0  0  0
 25 27  2  0  0  0  0
 25 80  1  0  0  0  0
 26 82  1  0  0  0  0
 27 83  1  0  0  0  0
 28 63  2  0  0  0  0
 29 49  1  0  0  0  0
 29 64  1  0  0  0  0
 30 59  1  0  0  0  0
 30 65  1  0  0  0  0
 31 66  1  0  0  0  0
 31 69  1  0  0  0  0
 32 70  1  0  0  0  0
 32 75  2  0  0  0  0
 33 47  1  0  0  0  0
 33 71  1  0  0  0  0
 33 76  2  0  0  0  0
 34 60  1  0  0  0  0
 34 67  1  0  0  0  0
 34 77  2  0  0  0  0
 35 61  1  0  0  0  0
 35 72  1  0  0  0  0
 35 78  2  0  0  0  0
 36 68  1  0  0  0  0
 36 73  1  0  0  0  0
 36 79  2  0  0  0  0
 37 40  1  0  0  0  0
 38 47  1  0  0  0  0
 39 67  1  0  0  0  0
 40 42  1  0  0  0  0
 41 43  1  0  0  0  0
 41 44  1  0  0  0  0
 42 46  1  0  0  0  0
 43 48  1  0  0  0  0
 44 68  1  0  0  0  0
 45 48  1  0  0  0  0
 45 68  1  0  0  0  0
 46 71  1  0  0  0  0
 47 67  1  0  0  0  0
 48 66  1  0  0  0  0
 50 59  1  0  0  0  0
 51 61  1  0  0  0  0
 52 62  1  0  0  0  0
 53 62  1  0  0  0  0
 54 62  1  0  0  0  0
 55 74  1  0  0  0  0
 56 57  1  0  0  0  0
 57 58  1  0  0  0  0
 58 81  1  0  0  0  0
 59 73  1  0  0  0  0
 60 62  1  0  0  0  0
 60 72  1  0  0  0  0
 61 74  1  0  0  0  0
 63 66  1  0  0  0  0
 64 65  2  0  0  0  0
M  CHG  1  74   1
M  ISO  4  36 100  58 101  73 100  81 101
M  END
> <Batch ID>
0079

> <Smiles>
CNC(C)C(=O)NC(C(=O)N1Cc2cc([101O:1][101CH2:1]CCc3cc(C)nnc3C(C)[100NH:0][100C:0](=O)N3CCCC(n4nc(-c5ccc(Oc6ccc(F)cc6F)cc5)c(C(N)=O)c4N)C3)ccc2CC1C(=O)NC1CCCc2ccccc21)C(C)(C)C

> <Shape>
0.208

> <Color>
0.085

> <Negative vol penalty>
0.000

$$$$

  -OEChem-04052318413D

 87 95  0     1  0  0  0  0  0999 V2000
  -31.9788  -16.9037   21.7199 C   0  0  0  0  0  0  0  0  0  0  0  0
  -30.7348  -17.4489   22.0212 C   0  0  0  0  0  0  0  0  0  0  0  0
  -28.4426  -26.4130   20.1438 C   0  0  0  0  0  0  0  0  0  0  0  0
  -26.4979  -25.6871   18.9076 C   0  0  0  0  0  0  0  0  0  0  0  0
  -32.0727  -15.8329   20.8319 C   0  0  0  0  0  0  0  0  0  0  0  0
  -29.5841  -16.9242   21.4338 C   0  0  0  0  0  0  0  0  0  0  0  0
  -24.0341  -16.4603   23.9810 C   0  0  0  0  0  0  0  0  0  0  0  0
  -29.0748  -25.2024   19.8602 C   0  0  0  0  0  0  0  0  0  0  0  0
  -27.1301  -24.4765   18.6240 C   0  0  0  0  0  0  0  0  0  0  0  0
  -22.8895  -17.2507   23.8862 C   0  0  0  0  0  0  0  0  0  0  0  0
  -27.7607  -21.5619   20.2173 C   0  0  0  0  0  0  0  0  0  0  0  0
  -27.0175  -20.3915   20.3693 C   0  0  0  0  0  0  0  0  0  0  0  0
  -22.0267  -15.7856   22.1750 C   0  0  0  0  0  0  0  0  0  0  0  0
  -27.3468  -19.8787   18.0314 C   0  0  0  0  0  0  0  0  0  0  0  0
  -19.9029  -25.6057   21.7566 C   0  0  0  0  0  0  0  0  0  0  0  0
  -27.1541  -26.6553   19.6676 C   0  0  0  0  0  0  0  0  0  0  0  0
  -26.5443  -29.0873   19.1971 C   0  0  0  0  0  0  0  0  0  0  0  0
  -30.9217  -15.2885   20.2408 C   0  0  0  0  0  0  0  0  0  0  0  0
  -24.1887  -15.3309   23.1644 C   0  0  0  0  0  0  0  0  0  0  0  0
  -29.6629  -15.8459   20.5361 C   0  0  0  0  0  0  0  0  0  0  0  0
  -23.1731  -14.9811   22.2631 C   0  0  0  0  0  0  0  0  0  0  0  0
  -28.4186  -24.2342   19.1003 C   0  0  0  0  0  0  0  0  0  0  0  0
  -21.8869  -16.9151   22.9811 C   0  0  0  0  0  0  0  0  0  0  0  0
  -28.2969  -21.8909   18.9723 C   0  0  0  0  0  0  0  0  0  0  0  0
  -26.8105  -19.5498   19.2764 C   0  0  0  0  0  0  0  0  0  0  0  0
  -28.0900  -21.0492   17.8794 C   0  0  0  0  0  0  0  0  0  0  0  0
  -26.5003  -27.9054   19.9607 C   0  0  0  0  0  0  0  0  0  0  0  0
  -19.0778  -23.6651   22.0461 C   0  0  0  0  0  0  0  0  0  0  0  0
  -18.3196  -24.5068   22.8253 C   0  0  0  0  0  0  0  0  0  0  0  0
  -25.7664  -29.9772   19.8967 C   0  0  0  0  0  0  0  0  0  0  0  0
  -27.2272  -29.3566   17.9656 C   0  0  0  0  0  0  0  0  0  0  0  0
  -26.2634  -14.4506   20.9228 C   0  0  0  0  0  0  0  0  0  0  0  0
  -24.6229  -11.6552   21.0527 C   0  0  0  0  0  0  0  0  0  0  0  0
  -21.7197  -10.0326   21.8179 C   0  0  0  0  0  0  0  0  0  0  0  0
  -21.2741  -29.1761   23.6428 C   0  0  0  0  0  0  0  0  0  0  0  0
  -31.0778  -14.1616   19.2506 C   0  0  0  0  0  0  0  0  0  0  0  0
  -25.4174  -14.4735   23.2976 C   0  0  0  0  0  0  0  0  0  0  0  0
  -23.2815  -13.7671   21.3783 C   0  0  0  0  0  0  0  0  0  0  0  0
  -29.7747  -13.4215   18.9598 C   0  0  0  0  0  0  0  0  0  0  0  0
  -24.3216  -30.9978   24.3440 C   0  0  0  0  0  0  0  0  0  0  0  0
  -28.6433  -14.4124   18.7054 C   0  0  0  0  0  0  0  0  0  0  0  0
  -25.2318  -30.5145   23.2135 C   0  0  0  0  0  0  0  0  0  0  0  0
  -23.4285  -29.8710   24.8547 C   0  0  0  0  0  0  0  0  0  0  0  0
  -23.5103  -28.7306   22.6714 C   0  0  0  0  0  0  0  0  0  0  0  0
  -28.3894  -15.2883   19.9383 C   0  0  1  0  0  0  0  0  0  0  0  0
  -25.7001  -13.6370   22.0535 C   0  0  1  0  0  0  0  0  0  0  0  0
  -24.4224  -29.8294   22.0965 C   0  0  2  0  0  0  0  0  0  0  0  0
  -17.1670  -24.2565   23.7090 C   0  0  0  0  0  0  0  0  0  0  0  0
  -20.6675   -7.7547   21.7810 C   0  0  0  0  0  0  0  0  0  0  0  0
  -24.2446  -11.8815   18.0335 C   0  0  0  0  0  0  0  0  0  0  0  0
  -22.4371  -10.1572   18.2008 C   0  0  0  0  0  0  0  0  0  0  0  0
  -24.7753   -9.5775   18.8486 C   0  0  0  0  0  0  0  0  0  0  0  0
  -18.9997  -28.3309   26.8660 C   0  0  0  0  0  0  0  0  0  0  0  0
  -16.9747  -28.5814   25.4330 C   0  0  0  0  0  0  0  0  0  0  0  0
  -21.3399  -10.0331   24.7530 C   0  0  0  0  0  0  0  0  0  0  0  0
  -18.9393  -22.1743   21.8662 C   0  0  0  0  0  0  0  0  0  0  0  0
  -19.9885  -21.3585   22.6297 C   0  0  0  0  0  0  0  0  0  0  0  0
  -19.8799  -19.8546   22.3738 C   0  0  0  0  0  0  0  0  0  0  0  0
  -18.9000  -27.1084   24.6780 C   0  0  0  0  0  0  0  0  0  0  0  0
  -18.4230  -26.9871   23.2247 C   0  0  0  0  0  0  0  0  0  0  0  0
  -19.1078  -29.6876   24.7394 C   0  0  0  0  0  0  0  0  0  0  0  0
  -20.9108  -19.0747   23.1785 C   0  0  0  0  0  0  0  0  0  1  0  0
  -23.4133  -11.0917   20.3467 C   0  0  1  0  0  0  0  0  0  0  0  0
  -21.4531   -8.7625   22.6056 C   0  0  2  0  0  0  0  0  0  0  0  0
  -23.7161  -10.7010   18.8726 C   0  0  0  0  0  0  0  0  0  0  0  0
  -18.5088  -28.4263   25.4051 C   0  0  0  0  0  0  0  0  0  0  0  0
  -20.0619  -24.3552   21.3836 N   0  0  0  0  0  0  0  0  0  0  0  0
  -25.7537  -28.0300   21.0612 N   0  0  0  0  0  0  0  0  0  0  0  0
  -18.8604  -25.7463   22.6299 N   0  0  0  0  0  0  0  0  0  0  0  0
  -25.3214  -29.3007   20.9942 N   0  0  0  0  0  0  0  0  0  0  0  0
  -24.5047  -12.9641   21.5412 N   0  0  0  0  0  0  0  0  0  0  0  0
  -22.6718  -29.2737   23.7452 N   0  0  0  0  0  0  0  0  0  0  0  0
  -25.4265  -31.2645   19.6740 N   0  0  0  0  0  0  0  0  0  0  0  0
  -27.9823  -28.3301   17.3820 N   0  0  0  0  0  0  0  0  0  0  0  0
  -27.6414  -14.5529   20.9353 N   0  0  0  0  0  0  0  0  0  0  0  0
  -22.9370   -9.9868   21.1719 N   0  0  0  0  0  0  0  0  0  0  0  0
  -20.5533  -29.7084   24.7047 N   0  0  0  0  0  0  0  0  0  0  0  0
  -20.6737   -9.0712   23.8377 N   0  3  0  0  0  0  0  0  0  0  0  0
  -27.1829  -30.4793   17.4079 O   0  0  0  0  0  0  0  0  0  0  0  0
  -25.5042  -14.9474   20.0992 O   0  0  0  0  0  0  0  0  0  0  0  0
  -25.6328  -10.9571   21.1729 O   0  0  0  0  0  0  0  0  0  0  0  0
  -20.9258  -10.9699   21.7767 O   0  0  0  0  0  0  0  0  0  0  0  0
  -20.7097  -28.6574   22.6735 O   0  0  0  0  0  0  0  0  0  0  0  0
  -29.0353  -23.0529   18.8231 O   0  0  0  0  0  0  0  0  0  0  0  0
  -20.7690  -17.6852   22.8862 O   0  0  0  0  0  0  0  0  0  1  0  0
  -26.0980  -18.4250   19.4229 F   0  0  0  0  0  0  0  0  0  0  0  0
  -28.6036  -21.3593   16.6811 F   0  0  0  0  0  0  0  0  0  0  0  0
  1  2  1  0  0  0  0
  1  5  2  0  0  0  0
  2  6  2  0  0  0  0
  3  8  2  0  0  0  0
  3 16  1  0  0  0  0
  4  9  1  0  0  0  0
  4 16  2  0  0  0  0
  5 18  1  0  0  0  0
  6 20  1  0  0  0  0
  7 10  2  0  0  0  0
  7 19  1  0  0  0  0
  8 22  1  0  0  0  0
  9 22  2  0  0  0  0
 10 23  1  0  0  0  0
 11 12  2  0  0  0  0
 11 24  1  0  0  0  0
 12 25  1  0  0  0  0
 13 21  1  0  0  0  0
 13 23  2  0  0  0  0
 14 25  2  0  0  0  0
 14 26  1  0  0  0  0
 15 67  2  0  0  0  0
 15 69  1  0  0  0  0
 16 27  1  0  0  0  0
 17 27  1  0  0  0  0
 17 30  2  0  0  0  0
 17 31  1  0  0  0  0
 18 20  2  0  0  0  0
 18 36  1  0  0  0  0
 19 21  2  0  0  0  0
 19 37  1  0  0  0  0
 20 45  1  0  0  0  0
 21 38  1  0  0  0  0
 22 84  1  0  0  0  0
 23 85  1  0  0  0  0
 24 26  2  0  0  0  0
 24 84  1  0  0  0  0
 25 86  1  0  0  0  0
 26 87  1  0  0  0  0
 27 68  2  0  0  0  0
 28 29  2  0  0  0  0
 28 56  1  0  0  0  0
 28 67  1  0  0  0  0
 29 48  1  0  0  0  0
 29 69  1  0  0  0  0
 30 70  1  0  0  0  0
 30 73  1  0  0  0  0
 31 74  1  0  0  0  0
 31 79  2  0  0  0  0
 32 46  1  0  0  0  0
 32 75  1  0  0  0  0
 32 80  2  0  0  0  0
 33 63  1  0  0  0  0
 33 71  1  0  0  0  0
 33 81  2  0  0  0  0
 34 64  1  0  0  0  0
 34 76  1  0  0  0  0
 34 82  2  0  0  0  0
 35 72  1  0  0  0  0
 35 77  1  0  0  0  0
 35 83  2  0  0  0  0
 36 39  1  0  0  0  0
 37 46  1  0  0  0  0
 38 71  1  0  0  0  0
 39 41  1  0  0  0  0
 40 42  1  0  0  0  0
 40 43  1  0  0  0  0
 41 45  1  0  0  0  0
 42 47  1  0  0  0  0
 43 72  1  0  0  0  0
 44 47  1  0  0  0  0
 44 72  1  0  0  0  0
 45 75  1  0  0  0  0
 46 71  1  0  0  0  0
 47 70  1  0  0  0  0
 49 64  1  0  0  0  0
 50 65  1  0  0  0  0
 51 65  1  0  0  0  0
 52 65  1  0  0  0  0
 53 66  1  0  0  0  0
 54 66  1  0  0  0  0
 55 78  1  0  0  0  0
 56 57  1  0  0  0  0
 57 58  1  0  0  0  0
 58 62  1  0  0  0  0
 59 60  1  0  0  0  0
 59 66  1  0  0  0  0
 60 69  1  0  0  0  0
 61 66  1  0  0  0  0
 61 77  1  0  0  0  0
 62 85  1  0  0  0  0
 63 65  1  0  0  0  0
 63 76  1  0  0  0  0
 64 78  1  0  0  0  0
 68 70  1  0  0  0  0
M  CHG  1  78   1
M  ISO  4  35 100  62 101  77 100  85 101
M  END
> <Batch ID>
0079

> <Smiles>
CNC(C)C(=O)NC(C(=O)N1Cc2cc([101O:1][101CH2:1]CCCc3ncn(CCC(C)(C)C[100NH:0][100C:0](=O)N4CCCC(n5nc(-c6ccc(Oc7ccc(F)cc7F)cc6)c(C(N)=O)c5N)C4)c3C)ccc2CC1C(=O)NC1CCCc2ccccc21)C(C)(C)C

> <Shape>
0.246

> <Color>
0.055

> <Negative vol penalty>
0.000

$$$$

  -OEChem-04052318413D

 85 93  0     1  0  0  0  0  0999 V2000
  -37.5962  -26.4389   30.4396 C   0  0  0  0  0  0  0  0  0  0  0  0
  -36.3577  -25.8438   30.2218 C   0  0  0  0  0  0  0  0  0  0  0  0
  -23.0038   -9.8889   19.9830 C   0  0  0  0  0  0  0  0  0  0  0  0
  -23.7323   -9.9445   22.2859 C   0  0  0  0  0  0  0  0  0  0  0  0
  -38.0728  -27.3998   29.5490 C   0  0  0  0  0  0  0  0  0  0  0  0
  -35.5946  -26.2102   29.1138 C   0  0  0  0  0  0  0  0  0  0  0  0
  -33.6115  -22.2160   26.7141 C   0  0  0  0  0  0  0  0  0  0  0  0
  -30.8651  -18.3792   25.3011 C   0  0  0  0  0  0  0  0  0  0  0  0
  -22.2407   -8.7527   20.2518 C   0  0  0  0  0  0  0  0  0  0  0  0
  -22.9691   -8.8082   22.5547 C   0  0  0  0  0  0  0  0  0  0  0  0
  -32.4854  -21.6248   27.2851 C   0  0  0  0  0  0  0  0  0  0  0  0
  -23.2216   -5.4694   22.0863 C   0  0  0  0  0  0  0  0  0  0  0  0
  -23.8129   -4.4547   22.8387 C   0  0  0  0  0  0  0  0  0  0  0  0
  -31.2976  -17.9534   24.0502 C   0  0  0  0  0  0  0  0  0  0  0  0
  -31.0801  -22.7988   25.7147 C   0  0  0  0  0  0  0  0  0  0  0  0
  -22.0909   -4.6950   24.5162 C   0  0  0  0  0  0  0  0  0  0  0  0
  -23.7496  -10.4848   21.0000 C   0  0  0  0  0  0  0  0  0  0  0  0
  -24.1280  -13.0012   20.8205 C   0  0  0  0  0  0  0  0  0  0  0  0
  -37.3195  -27.7712   28.4241 C   0  0  0  0  0  0  0  0  0  0  0  0
  -33.4793  -23.1130   25.6443 C   0  0  0  0  0  0  0  0  0  0  0  0
  -36.0610  -27.1780   28.2080 C   0  0  0  0  0  0  0  0  0  0  0  0
  -32.2063  -23.3981   25.1302 C   0  0  0  0  0  0  0  0  0  0  0  0
  -29.5447  -18.1692   25.6826 C   0  0  0  0  0  0  0  0  0  0  0  0
  -22.2233   -8.2124   21.5376 C   0  0  0  0  0  0  0  0  0  0  0  0
  -31.2192  -21.9184   26.7873 C   0  0  0  0  0  0  0  0  0  0  0  0
  -22.0649   -6.0970   22.5489 C   0  0  0  0  0  0  0  0  0  0  0  0
  -23.2476   -4.0674   24.0537 C   0  0  0  0  0  0  0  0  0  0  0  0
  -21.4996   -5.7098   23.7638 C   0  0  0  0  0  0  0  0  0  0  0  0
  -24.5386  -11.6581   20.7229 C   0  0  0  0  0  0  0  0  0  0  0  0
  -30.3777  -17.3276   23.2243 C   0  0  0  0  0  0  0  0  0  0  0  0
  -28.7032  -17.5339   24.7836 C   0  0  0  0  0  0  0  0  0  0  0  0
  -25.2353  -13.7263   20.4536 C   0  0  0  0  0  0  0  0  0  0  0  0
  -22.8592  -13.5447   21.2083 C   0  0  0  0  0  0  0  0  0  0  0  0
  -34.1764  -26.1808   25.1902 C   0  0  0  0  0  0  0  0  0  0  0  0
  -33.2770  -25.5316   22.1419 C   0  0  0  0  0  0  0  0  0  0  0  0
  -31.4786  -23.5675   20.0077 C   0  0  0  0  0  0  0  0  0  0  0  0
  -30.7296  -14.6757   20.6929 C   0  0  0  0  0  0  0  0  0  0  0  0
  -37.8551  -28.8489   27.5152 C   0  0  0  0  0  0  0  0  0  0  0  0
  -34.7060  -23.7217   25.0221 C   0  0  0  0  0  0  0  0  0  0  0  0
  -32.0121  -24.3387   23.9701 C   0  0  0  0  0  0  0  0  0  0  0  0
  -37.1519  -28.9092   26.1616 C   0  0  0  0  0  0  0  0  0  0  0  0
  -29.5918  -12.2463   18.3519 C   0  0  0  0  0  0  0  0  0  0  0  0
  -35.6386  -28.8482   26.3431 C   0  0  0  0  0  0  0  0  0  0  0  0
  -28.1446  -11.9832   18.7720 C   0  0  0  0  0  0  0  0  0  0  0  0
  -30.4954  -12.4855   19.5595 C   0  0  0  0  0  0  0  0  0  0  0  0
  -28.5852  -13.2775   20.9002 C   0  0  0  0  0  0  0  0  0  0  0  0
  -35.2149  -27.5309   27.0039 C   0  0  1  0  0  0  0  0  0  0  0  0
  -34.4146  -25.0168   24.2704 C   0  0  1  0  0  0  0  0  0  0  0  0
  -27.6249  -13.0859   19.7139 C   0  0  2  0  0  0  0  0  0  0  0  0
  -26.6034  -16.3053   24.1771 C   0  0  0  0  0  0  0  0  0  0  0  0
  -29.1827  -18.4154   20.6474 C   0  0  0  0  0  0  0  0  0  0  0  0
  -30.6308  -22.6734   17.8216 C   0  0  0  0  0  0  0  0  0  0  0  0
  -31.3460  -27.8855   22.3430 C   0  0  0  0  0  0  0  0  0  0  0  0
  -30.1691  -27.0031   20.3170 C   0  0  0  0  0  0  0  0  0  0  0  0
  -32.5557  -27.7120   20.1611 C   0  0  0  0  0  0  0  0  0  0  0  0
  -33.7227  -21.6505   19.7888 C   0  0  0  0  0  0  0  0  0  0  0  0
  -29.0694  -18.6299   27.0374 C   0  0  0  0  0  0  0  0  0  0  0  0
  -27.2755  -17.2789   25.1406 C   0  0  0  0  0  0  0  0  0  0  0  0
  -30.6231  -17.9378   20.7851 C   0  0  0  0  0  0  0  0  0  0  0  0
  -28.2282  -19.9074   26.9935 C   0  0  0  0  0  0  0  0  0  0  0  0
  -28.9990  -21.1207   26.4865 C   0  0  0  0  0  0  0  0  0  1  0  0
  -30.8083  -16.8562   21.8754 C   0  0  2  0  0  0  0  0  0  0  0  0
  -31.9749  -25.5742   21.3794 C   0  0  1  0  0  0  0  0  0  0  0  0
  -31.8532  -22.8972   18.6982 C   0  0  2  0  0  0  0  0  0  0  0  0
  -31.5146  -27.0274   21.0732 C   0  0  0  0  0  0  0  0  0  0  0  0
  -25.8076  -11.5345   20.3249 N   0  0  0  0  0  0  0  0  0  0  0  0
  -29.0871  -17.1061   23.5600 N   0  0  0  0  0  0  0  0  0  0  0  0
  -26.2040  -12.8092   20.1693 N   0  0  0  0  0  0  0  0  0  0  0  0
  -33.2417  -24.9135   23.3999 N   0  0  0  0  0  0  0  0  0  0  0  0
  -29.9471  -13.5437   20.4112 N   0  0  0  0  0  0  0  0  0  0  0  0
  -25.4651  -15.0525   20.3497 N   0  0  0  0  0  0  0  0  0  0  0  0
  -21.8303  -12.6582   21.5544 N   0  0  0  0  0  0  0  0  0  0  0  0
  -35.2326  -26.4527   26.0388 N   0  0  0  0  0  0  0  0  0  0  0  0
  -32.1689  -24.7466   20.1937 N   0  0  0  0  0  0  0  0  0  0  0  0
  -30.1319  -15.6338   21.5025 N   0  0  0  0  0  0  0  0  0  0  0  0
  -32.4941  -21.5769   18.9570 N   0  3  0  0  0  0  0  0  0  0  0  0
  -22.6392  -14.7794   21.2310 O   0  0  0  0  0  0  0  0  0  0  0  0
  -33.1136  -26.7882   25.1332 O   0  0  0  0  0  0  0  0  0  0  0  0
  -34.2899  -26.0222   21.6369 O   0  0  0  0  0  0  0  0  0  0  0  0
  -30.6533  -23.0945   20.7860 O   0  0  0  0  0  0  0  0  0  0  0  0
  -31.8739  -14.8241   20.2509 O   0  0  0  0  0  0  0  0  0  0  0  0
  -21.4786   -7.1038   21.8004 O   0  0  0  0  0  0  0  0  0  0  0  0
  -30.1183  -21.3432   27.3433 O   0  0  0  0  0  0  0  0  0  1  0  0
  -23.8147   -3.0919   24.7754 F   0  0  0  0  0  0  0  0  0  0  0  0
  -20.3878   -6.3082   24.2128 F   0  0  0  0  0  0  0  0  0  0  0  0
  1  2  1  0  0  0  0
  1  5  2  0  0  0  0
  2  6  2  0  0  0  0
  3  9  2  0  0  0  0
  3 17  1  0  0  0  0
  4 10  1  0  0  0  0
  4 17  2  0  0  0  0
  5 19  1  0  0  0  0
  6 21  1  0  0  0  0
  7 11  2  0  0  0  0
  7 20  1  0  0  0  0
  8 14  2  0  0  0  0
  8 23  1  0  0  0  0
  9 24  1  0  0  0  0
 10 24  2  0  0  0  0
 11 25  1  0  0  0  0
 12 13  2  0  0  0  0
 12 26  1  0  0  0  0
 13 27  1  0  0  0  0
 14 30  1  0  0  0  0
 15 22  1  0  0  0  0
 15 25  2  0  0  0  0
 16 27  2  0  0  0  0
 16 28  1  0  0  0  0
 17 29  1  0  0  0  0
 18 29  1  0  0  0  0
 18 32  2  0  0  0  0
 18 33  1  0  0  0  0
 19 21  2  0  0  0  0
 19 38  1  0  0  0  0
 20 22  2  0  0  0  0
 20 39  1  0  0  0  0
 21 47  1  0  0  0  0
 22 40  1  0  0  0  0
 23 31  2  0  0  0  0
 23 57  1  0  0  0  0
 24 82  1  0  0  0  0
 25 83  1  0  0  0  0
 26 28  2  0  0  0  0
 26 82  1  0  0  0  0
 27 84  1  0  0  0  0
 28 85  1  0  0  0  0
 29 66  2  0  0  0  0
 30 62  1  0  0  0  0
 30 67  2  0  0  0  0
 31 58  1  0  0  0  0
 31 67  1  0  0  0  0
 32 68  1  0  0  0  0
 32 71  1  0  0  0  0
 33 72  1  0  0  0  0
 33 77  2  0  0  0  0
 34 48  1  0  0  0  0
 34 73  1  0  0  0  0
 34 78  2  0  0  0  0
 35 63  1  0  0  0  0
 35 69  1  0  0  0  0
 35 79  2  0  0  0  0
 36 64  1  0  0  0  0
 36 74  1  0  0  0  0
 36 80  2  0  0  0  0
 37 70  1  0  0  0  0
 37 75  1  0  0  0  0
 37 81  2  0  0  0  0
 38 41  1  0  0  0  0
 39 48  1  0  0  0  0
 40 69  1  0  0  0  0
 41 43  1  0  0  0  0
 42 44  1  0  0  0  0
 42 45  1  0  0  0  0
 43 47  1  0  0  0  0
 44 49  1  0  0  0  0
 45 70  1  0  0  0  0
 46 49  1  0  0  0  0
 46 70  1  0  0  0  0
 47 73  1  0  0  0  0
 48 69  1  0  0  0  0
 49 68  1  0  0  0  0
 50 58  1  0  0  0  0
 51 59  1  0  0  0  0
 52 64  1  0  0  0  0
 53 65  1  0  0  0  0
 54 65  1  0  0  0  0
 55 65  1  0  0  0  0
 56 76  1  0  0  0  0
 57 60  1  0  0  0  0
 59 62  1  0  0  0  0
 60 61  1  0  0  0  0
 61 83  1  0  0  0  0
 62 75  1  0  0  0  0
 63 65  1  0  0  0  0
 63 74  1  0  0  0  0
 64 76  1  0  0  0  0
 66 68  1  0  0  0  0
M  CHG  1  76   1
M  ISO  4  37 100  61 101  75 100  83 101
M  END
> <Batch ID>
0079

> <Smiles>
CCc1nc(C(CC)[100NH:0][100C:0](=O)N2CCCC(n3nc(-c4ccc(Oc5ccc(F)cc5F)cc4)c(C(N)=O)c3N)C2)ccc1CC[101CH2:1][101O:1]c1ccc2c(c1)CN(C(=O)C(NC(=O)C(C)NC)C(C)(C)C)C(C(=O)NC1CCCc3ccccc31)C2

> <Shape>
0.216

> <Color>
0.193

> <Negative vol penalty>
0.000

$$$$

  -OEChem-04052318413D

 82 90  0     1  0  0  0  0  0999 V2000
  -22.5387  -11.6216   19.4224 C   0  0  0  0  0  0  0  0  0  0  0  0
  -22.0503  -12.9236   19.4619 C   0  0  0  0  0  0  0  0  0  0  0  0
  -30.9988  -28.2978   21.0535 C   0  0  0  0  0  0  0  0  0  0  0  0
  -30.1225  -26.1448   21.7120 C   0  0  0  0  0  0  0  0  0  0  0  0
  -23.8011  -11.3358   19.9405 C   0  0  0  0  0  0  0  0  0  0  0  0
  -22.8238  -13.9405   20.0206 C   0  0  0  0  0  0  0  0  0  0  0  0
  -23.0765  -19.7875   18.2166 C   0  0  0  0  0  0  0  0  0  0  0  0
  -32.1629  -28.0461   21.7796 C   0  0  0  0  0  0  0  0  0  0  0  0
  -31.2866  -25.8930   22.4381 C   0  0  0  0  0  0  0  0  0  0  0  0
  -22.4551  -20.9427   18.6892 C   0  0  0  0  0  0  0  0  0  0  0  0
  -32.5983  -26.7750   25.4269 C   0  0  0  0  0  0  0  0  0  0  0  0
  -32.4600  -26.2449   26.7096 C   0  0  0  0  0  0  0  0  0  0  0  0
  -24.4140  -21.4525   20.0013 C   0  0  0  0  0  0  0  0  0  0  0  0
  -33.7366  -24.3043   26.0452 C   0  0  0  0  0  0  0  0  0  0  0  0
  -20.2724  -26.6891   19.9051 C   0  0  0  0  0  0  0  0  0  0  0  0
  -29.9786  -27.3471   21.0198 C   0  0  0  0  0  0  0  0  0  0  0  0
  -28.5310  -27.2931   18.9199 C   0  0  0  0  0  0  0  0  0  0  0  0
  -24.5944  -12.3514   20.4971 C   0  0  0  0  0  0  0  0  0  0  0  0
  -24.3694  -19.4500   18.6421 C   0  0  0  0  0  0  0  0  0  0  0  0
  -24.0975  -13.6678   20.5478 C   0  0  0  0  0  0  0  0  0  0  0  0
  -25.0506  -20.2939   19.5307 C   0  0  0  0  0  0  0  0  0  0  0  0
  -32.3068  -26.8437   22.4719 C   0  0  0  0  0  0  0  0  0  0  0  0
  -23.1227  -21.7738   19.5839 C   0  0  0  0  0  0  0  0  0  0  0  0
  -33.3056  -26.0697   24.4532 C   0  0  0  0  0  0  0  0  0  0  0  0
  -33.0292  -25.0096   27.0188 C   0  0  0  0  0  0  0  0  0  0  0  0
  -33.8748  -24.8344   24.7624 C   0  0  0  0  0  0  0  0  0  0  0  0
  -28.7757  -27.6068   20.2703 C   0  0  0  0  0  0  0  0  0  0  0  0
  -19.8716  -26.7665   21.2207 C   0  0  0  0  0  0  0  0  0  0  0  0
  -20.3202  -24.5400   21.4884 C   0  0  0  0  0  0  0  0  0  0  0  0
  -20.7204  -24.4626   20.1725 C   0  0  0  0  0  0  0  0  0  0  0  0
  -27.2535  -27.7416   18.6893 C   0  0  0  0  0  0  0  0  0  0  0  0
  -29.3824  -26.6535   17.9599 C   0  0  0  0  0  0  0  0  0  0  0  0
  -25.6419  -17.0097   20.2325 C   0  0  0  0  0  0  0  0  0  0  0  0
  -28.4309  -18.5044   19.5184 C   0  0  0  0  0  0  0  0  0  0  0  0
  -30.0402  -21.4038   18.7119 C   0  0  0  0  0  0  0  0  0  0  0  0
  -22.6534  -28.5422   22.3023 C   0  0  0  0  0  0  0  0  0  0  0  0
  -25.9332  -11.9856   21.0875 C   0  0  0  0  0  0  0  0  0  0  0  0
  -25.0362  -18.2145   18.1023 C   0  0  0  0  0  0  0  0  0  0  0  0
  -26.4477  -19.9870   20.0025 C   0  0  0  0  0  0  0  0  0  0  0  0
  -26.8440  -13.1878   21.3231 C   0  0  0  0  0  0  0  0  0  0  0  0
  -24.1262  -31.0553   20.1546 C   0  0  0  0  0  0  0  0  0  0  0  0
  -26.0743  -14.3154   22.0034 C   0  0  0  0  0  0  0  0  0  0  0  0
  -25.4723  -30.4133   19.8140 C   0  0  0  0  0  0  0  0  0  0  0  0
  -23.7256  -30.7665   21.5983 C   0  0  0  0  0  0  0  0  0  0  0  0
  -25.0292  -28.6750   21.6089 C   0  0  0  0  0  0  0  0  0  0  0  0
  -24.9168  -14.8025   21.1233 C   0  0  1  0  0  0  0  0  0  0  0  0
  -26.1564  -17.6992   19.0006 C   0  0  1  0  0  0  0  0  0  0  0  0
  -25.4794  -28.9116   20.1558 C   0  0  2  0  0  0  0  0  0  0  0  0
  -20.3443  -23.3455   22.3795 C   0  0  0  0  0  0  0  0  0  0  0  0
  -17.9231  -27.9882   22.2381 C   0  0  0  0  0  0  0  0  0  0  0  0
  -32.3261  -22.3188   18.2272 C   0  0  0  0  0  0  0  0  0  0  0  0
  -29.0933  -18.4201   22.4957 C   0  0  0  0  0  0  0  0  0  0  0  0
  -30.8639  -20.1404   22.0793 C   0  0  0  0  0  0  0  0  0  0  0  0
  -31.0176  -17.9046   20.9838 C   0  0  0  0  0  0  0  0  0  0  0  0
  -29.2556  -22.2345   15.9819 C   0  0  0  0  0  0  0  0  0  0  0  0
  -21.1990  -23.1722   19.5749 C   0  0  0  0  0  0  0  0  0  1  0  0
  -20.2645  -28.5650   22.9728 C   0  0  0  0  0  0  0  0  0  0  0  0
  -19.3996  -28.0576   21.7918 C   0  0  1  0  0  0  0  0  0  0  0  0
  -29.2801  -19.5589   20.1861 C   0  0  1  0  0  0  0  0  0  0  0  0
  -31.0589  -21.7238   17.6330 C   0  0  2  0  0  0  0  0  0  0  0  0
  -30.0367  -19.0111   21.4290 C   0  0  0  0  0  0  0  0  0  0  0  0
  -20.7040  -25.5358   19.3574 N   0  0  0  0  0  0  0  0  0  0  0  0
  -27.7370  -28.2082   20.8564 N   0  0  0  0  0  0  0  0  0  0  0  0
  -19.8883  -25.6933   22.0360 N   0  0  0  0  0  0  0  0  0  0  0  0
  -26.8273  -28.2762   19.8695 N   0  0  0  0  0  0  0  0  0  0  0  0
  -27.0547  -18.7643   19.4512 N   0  0  0  0  0  0  0  0  0  0  0  0
  -23.7342  -29.3190   21.8530 N   0  0  0  0  0  0  0  0  0  0  0  0
  -26.4644  -27.7271   17.5941 N   0  0  0  0  0  0  0  0  0  0  0  0
  -30.6643  -26.2560   18.3638 N   0  0  0  0  0  0  0  0  0  0  0  0
  -25.4113  -15.6575   20.0655 N   0  0  0  0  0  0  0  0  0  0  0  0
  -30.1501  -20.1002   19.1476 N   0  0  0  0  0  0  0  0  0  0  0  0
  -21.4649  -29.2295   22.5161 N   0  0  0  0  0  0  0  0  0  0  0  0
  -30.4930  -22.7000   16.6595 N   0  3  0  0  0  0  0  0  0  0  0  0
  -29.0233  -26.4554   16.7745 O   0  0  0  0  0  0  0  0  0  0  0  0
  -25.4684  -17.6563   21.2589 O   0  0  0  0  0  0  0  0  0  0  0  0
  -28.9696  -17.4908   19.0667 O   0  0  0  0  0  0  0  0  0  0  0  0
  -29.2306  -22.2288   19.1294 O   0  0  0  0  0  0  0  0  0  0  0  0
  -22.7397  -27.3244   22.4939 O   0  0  0  0  0  0  0  0  0  0  0  0
  -33.4426  -26.5977   23.1804 O   0  0  0  0  0  0  0  0  0  0  0  0
  -22.5182  -22.9016   20.0472 O   0  0  0  0  0  0  0  0  0  1  0  0
  -32.8977  -24.5014   28.2511 F   0  0  0  0  0  0  0  0  0  0  0  0
  -34.5565  -24.1527   23.8316 F   0  0  0  0  0  0  0  0  0  0  0  0
  1  2  1  0  0  0  0
  1  5  2  0  0  0  0
  2  6  2  0  0  0  0
  3  8  2  0  0  0  0
  3 16  1  0  0  0  0
  4  9  1  0  0  0  0
  4 16  2  0  0  0  0
  5 18  1  0  0  0  0
  6 20  1  0  0  0  0
  7 10  2  0  0  0  0
  7 19  1  0  0  0  0
  8 22  1  0  0  0  0
  9 22  2  0  0  0  0
 10 23  1  0  0  0  0
 11 12  2  0  0  0  0
 11 24  1  0  0  0  0
 12 25  1  0  0  0  0
 13 21  1  0  0  0  0
 13 23  2  0  0  0  0
 14 25  2  0  0  0  0
 14 26  1  0  0  0  0
 15 28  1  0  0  0  0
 15 62  2  0  0  0  0
 16 27  1  0  0  0  0
 17 27  1  0  0  0  0
 17 31  2  0  0  0  0
 17 32  1  0  0  0  0
 18 20  2  0  0  0  0
 18 37  1  0  0  0  0
 19 21  2  0  0  0  0
 19 38  1  0  0  0  0
 20 46  1  0  0  0  0
 21 39  1  0  0  0  0
 22 79  1  0  0  0  0
 23 80  1  0  0  0  0
 24 26  2  0  0  0  0
 24 79  1  0  0  0  0
 25 81  1  0  0  0  0
 26 82  1  0  0  0  0
 27 63  2  0  0  0  0
 28 58  1  0  0  0  0
 28 64  2  0  0  0  0
 29 30  2  0  0  0  0
 29 49  1  0  0  0  0
 29 64  1  0  0  0  0
 30 56  1  0  0  0  0
 30 62  1  0  0  0  0
 31 65  1  0  0  0  0
 31 68  1  0  0  0  0
 32 69  1  0  0  0  0
 32 74  2  0  0  0  0
 33 47  1  0  0  0  0
 33 70  1  0  0  0  0
 33 75  2  0  0  0  0
 34 59  1  0  0  0  0
 34 66  1  0  0  0  0
 34 76  2  0  0  0  0
 35 60  1  0  0  0  0
 35 71  1  0  0  0  0
 35 77  2  0  0  0  0
 36 67  1  0  0  0  0
 36 72  1  0  0  0  0
 36 78  2  0  0  0  0
 37 40  1  0  0  0  0
 38 47  1  0  0  0  0
 39 66  1  0  0  0  0
 40 42  1  0  0  0  0
 41 43  1  0  0  0  0
 41 44  1  0  0  0  0
 42 46  1  0  0  0  0
 43 48  1  0  0  0  0
 44 67  1  0  0  0  0
 45 48  1  0  0  0  0
 45 67  1  0  0  0  0
 46 70  1  0  0  0  0
 47 66  1  0  0  0  0
 48 65  1  0  0  0  0
 50 58  1  0  0  0  0
 51 60  1  0  0  0  0
 52 61  1  0  0  0  0
 53 61  1  0  0  0  0
 54 61  1  0  0  0  0
 55 73  1  0  0  0  0
 56 80  1  0  0  0  0
 57 58  1  0  0  0  0
 57 72  1  0  0  0  0
 59 61  1  0  0  0  0
 59 71  1  0  0  0  0
 60 73  1  0  0  0  0
 63 65  1  0  0  0  0
M  CHG  1  73   1
M  ISO  4  36 100  56 101  72 100  80 101
M  END
> <Batch ID>
0079

> <Smiles>
CNC(C)C(=O)NC(C(=O)N1Cc2cc([101O:1][101CH2:1]c3ncc(C(C)C[100NH:0][100C:0](=O)N4CCCC(n5nc(-c6ccc(Oc7ccc(F)cc7F)cc6)c(C(N)=O)c5N)C4)nc3C)ccc2CC1C(=O)NC1CCCc2ccccc21)C(C)(C)C

> <Shape>
0.229

> <Color>
0.070

> <Negative vol penalty>
0.000

$$$$

  -OEChem-04052318413D

 86 94  0     1  0  0  0  0  0999 V2000
  -18.2181  -31.6134   19.8237 C   0  0  0  0  0  0  0  0  0  0  0  0
  -19.5092  -31.2924   19.4170 C   0  0  0  0  0  0  0  0  0  0  0  0
  -27.3356  -11.5948   20.7758 C   0  0  0  0  0  0  0  0  0  0  0  0
  -26.9081  -12.5864   18.6146 C   0  0  0  0  0  0  0  0  0  0  0  0
  -17.8572  -31.4804   21.1638 C   0  0  0  0  0  0  0  0  0  0  0  0
  -20.4406  -30.8393   20.3506 C   0  0  0  0  0  0  0  0  0  0  0  0
  -24.8695  -26.7115   19.4274 C   0  0  0  0  0  0  0  0  0  0  0  0
  -26.3060  -10.6790   20.5593 C   0  0  0  0  0  0  0  0  0  0  0  0
  -25.8785  -11.6706   18.3980 C   0  0  0  0  0  0  0  0  0  0  0  0
  -26.2312  -26.8412   19.1579 C   0  0  0  0  0  0  0  0  0  0  0  0
  -22.9296  -10.6457   20.7127 C   0  0  0  0  0  0  0  0  0  0  0  0
  -22.0371  -10.4158   21.7595 C   0  0  0  0  0  0  0  0  0  0  0  0
  -26.7156  -26.5672   21.5052 C   0  0  0  0  0  0  0  0  0  0  0  0
  -31.5150  -23.3611   20.9068 C   0  0  0  0  0  0  0  0  0  0  0  0
  -22.6583   -8.0811   21.7765 C   0  0  0  0  0  0  0  0  0  0  0  0
  -27.6367  -12.5485   19.8034 C   0  0  0  0  0  0  0  0  0  0  0  0
  -30.0578  -13.3437   19.6884 C   0  0  0  0  0  0  0  0  0  0  0  0
  -18.7818  -31.0162   22.1126 C   0  0  0  0  0  0  0  0  0  0  0  0
  -24.4191  -26.5193   20.7414 C   0  0  0  0  0  0  0  0  0  0  0  0
  -20.0922  -30.7012   21.7050 C   0  0  0  0  0  0  0  0  0  0  0  0
  -25.3478  -26.4328   21.7883 C   0  0  0  0  0  0  0  0  0  0  0  0
  -30.5375  -23.1102   19.9504 C   0  0  0  0  0  0  0  0  0  0  0  0
  -30.5482  -21.9077   19.2522 C   0  0  0  0  0  0  0  0  0  0  0  0
  -25.5775  -10.7169   19.3705 C   0  0  0  0  0  0  0  0  0  0  0  0
  -27.1543  -26.7719   20.1972 C   0  0  0  0  0  0  0  0  0  0  0  0
  -23.6866   -9.5933   20.1976 C   0  0  0  0  0  0  0  0  0  0  0  0
  -21.9014   -9.1335   22.2915 C   0  0  0  0  0  0  0  0  0  0  0  0
  -23.5509   -8.3110   20.7296 C   0  0  0  0  0  0  0  0  0  0  0  0
  -28.6998  -13.4951   20.0267 C   0  0  0  0  0  0  0  0  0  0  0  0
  -32.4735  -22.3849   21.1260 C   0  0  0  0  0  0  0  0  0  0  0  0
  -31.5501  -20.9967   19.5454 C   0  0  0  0  0  0  0  0  0  0  0  0
  -30.6481  -14.5113   20.1064 C   0  0  0  0  0  0  0  0  0  0  0  0
  -30.7261  -12.2458   19.0530 C   0  0  0  0  0  0  0  0  0  0  0  0
  -22.5596  -28.1517   22.7367 C   0  0  0  0  0  0  0  0  0  0  0  0
  -22.9271  -25.5275   24.6077 C   0  0  0  0  0  0  0  0  0  0  0  0
  -24.7946  -22.7904   25.4249 C   0  0  0  0  0  0  0  0  0  0  0  0
  -28.5523  -20.0495   20.9937 C   0  0  0  0  0  0  0  0  0  0  0  0
  -18.3593  -30.9338   23.5581 C   0  0  0  0  0  0  0  0  0  0  0  0
  -22.9487  -26.3545   21.0120 C   0  0  0  0  0  0  0  0  0  0  0  0
  -24.9172  -26.2073   23.2139 C   0  0  0  0  0  0  0  0  0  0  0  0
  -19.2959  -30.0904   24.4193 C   0  0  0  0  0  0  0  0  0  0  0  0
  -30.1945  -17.9747   23.3760 C   0  0  0  0  0  0  0  0  0  0  0  0
  -20.7504  -30.4594   24.1451 C   0  0  0  0  0  0  0  0  0  0  0  0
  -30.1202  -16.5777   22.7572 C   0  0  0  0  0  0  0  0  0  0  0  0
  -28.9328  -18.7863   23.0904 C   0  0  0  0  0  0  0  0  0  0  0  0
  -28.4914  -17.4824   21.0462 C   0  0  0  0  0  0  0  0  0  0  0  0
  -21.1235  -30.1829   22.6836 C   0  0  1  0  0  0  0  0  0  0  0  0
  -22.5667  -26.6761   22.4536 C   0  0  1  0  0  0  0  0  0  0  0  0
  -29.7646  -16.6459   21.2598 C   0  0  2  0  0  0  0  0  0  0  0  0
  -33.5373  -22.6192   22.1460 C   0  0  0  0  0  0  0  0  0  0  0  0
  -32.5717  -18.7074   19.4994 C   0  0  0  0  0  0  0  0  0  0  0  0
  -24.8595  -20.8551   27.0211 C   0  0  0  0  0  0  0  0  0  0  0  0
  -29.5360  -27.6387   17.9108 C   0  0  0  0  0  0  0  0  0  0  0  0
  -23.8489  -27.3984   26.8348 C   0  0  0  0  0  0  0  0  0  0  0  0
  -24.7817  -25.4050   28.0282 C   0  0  0  0  0  0  0  0  0  0  0  0
  -22.3321  -25.5556   27.5815 C   0  0  0  0  0  0  0  0  0  0  0  0
  -24.6616  -20.8188   23.2217 C   0  0  0  0  0  0  0  0  0  0  0  0
  -29.4829  -24.1556   19.6883 C   0  0  0  0  0  0  0  0  0  0  0  0
  -29.5109  -21.6101   18.2223 C   0  0  0  0  0  0  0  0  0  0  0  0
  -31.6130  -19.6870   18.8295 C   0  0  0  0  0  0  0  0  0  0  0  0
  -29.9837  -25.3454   18.8567 C   0  0  0  0  0  0  0  0  0  0  0  0
  -28.1661  -21.1720   18.8143 C   0  0  0  0  0  0  0  0  0  0  0  0
  -23.9158  -25.0979   25.6646 C   0  0  1  0  0  0  0  0  0  0  0  0
  -24.4097  -21.3395   25.6516 C   0  0  2  0  0  0  0  0  0  0  0  0
  -28.9415  -26.4534   18.6609 C   0  0  1  0  0  0  0  0  0  1  0  0
  -23.7280  -25.8704   27.0008 C   0  0  0  0  0  0  0  0  0  0  0  0
  -28.4423  -14.6665   20.6146 N   0  0  0  0  0  0  0  0  0  0  0  0
  -32.5164  -21.2049   20.4676 N   0  0  0  0  0  0  0  0  0  0  0  0
  -29.6468  -15.2618   20.6489 N   0  0  0  0  0  0  0  0  0  0  0  0
  -23.4682  -26.0586   23.4284 N   0  0  0  0  0  0  0  0  0  0  0  0
  -28.6524  -18.8131   21.6528 N   0  0  0  0  0  0  0  0  0  0  0  0
  -31.9208  -14.9590   20.0593 N   0  0  0  0  0  0  0  0  0  0  0  0
  -29.9695  -11.1236   18.6886 N   0  0  0  0  0  0  0  0  0  0  0  0
  -21.3501  -28.7683   22.4788 N   0  0  0  0  0  0  0  0  0  0  0  0
  -23.7795  -23.6506   25.7869 N   0  0  0  0  0  0  0  0  0  0  0  0
  -28.2908  -19.9850   19.6306 N   0  0  0  0  0  0  0  0  0  0  0  0
  -25.0362  -20.4697   24.6163 N   0  3  0  0  0  0  0  0  0  0  0  0
  -31.9605  -12.2526   18.8302 O   0  0  0  0  0  0  0  0  0  0  0  0
  -23.5758  -28.6907   23.1594 O   0  0  0  0  0  0  0  0  0  0  0  0
  -21.7194  -25.3900   24.8178 O   0  0  0  0  0  0  0  0  0  0  0  0
  -25.8878  -23.1272   24.9755 O   0  0  0  0  0  0  0  0  0  0  0  0
  -28.6912  -21.1305   21.5759 O   0  0  0  0  0  0  0  0  0  0  0  0
  -24.5729   -9.8233   19.1588 O   0  0  0  0  0  0  0  0  0  0  0  0
  -28.4840  -26.8988   19.9371 O   0  0  0  0  0  0  0  0  0  1  0  0
  -21.0453   -8.9132   23.2979 F   0  0  0  0  0  0  0  0  0  0  0  0
  -24.2762   -7.2962   20.2397 F   0  0  0  0  0  0  0  0  0  0  0  0
  1  2  1  0  0  0  0
  1  5  2  0  0  0  0
  2  6  2  0  0  0  0
  3  8  2  0  0  0  0
  3 16  1  0  0  0  0
  4  9  1  0  0  0  0
  4 16  2  0  0  0  0
  5 18  1  0  0  0  0
  6 20  1  0  0  0  0
  7 10  2  0  0  0  0
  7 19  1  0  0  0  0
  8 24  1  0  0  0  0
  9 24  2  0  0  0  0
 10 25  1  0  0  0  0
 11 12  2  0  0  0  0
 11 26  1  0  0  0  0
 12 27  1  0  0  0  0
 13 21  1  0  0  0  0
 13 25  2  0  0  0  0
 14 22  2  0  0  0  0
 14 30  1  0  0  0  0
 15 27  2  0  0  0  0
 15 28  1  0  0  0  0
 16 29  1  0  0  0  0
 17 29  1  0  0  0  0
 17 32  2  0  0  0  0
 17 33  1  0  0  0  0
 18 20  2  0  0  0  0
 18 38  1  0  0  0  0
 19 21  2  0  0  0  0
 19 39  1  0  0  0  0
 20 47  1  0  0  0  0
 21 40  1  0  0  0  0
 22 23  1  0  0  0  0
 22 58  1  0  0  0  0
 23 31  2  0  0  0  0
 23 59  1  0  0  0  0
 24 83  1  0  0  0  0
 25 84  1  0  0  0  0
 26 28  2  0  0  0  0
 26 83  1  0  0  0  0
 27 85  1  0  0  0  0
 28 86  1  0  0  0  0
 29 67  2  0  0  0  0
 30 50  1  0  0  0  0
 30 68  2  0  0  0  0
 31 60  1  0  0  0  0
 31 68  1  0  0  0  0
 32 69  1  0  0  0  0
 32 72  1  0  0  0  0
 33 73  1  0  0  0  0
 33 78  2  0  0  0  0
 34 48  1  0  0  0  0
 34 74  1  0  0  0  0
 34 79  2  0  0  0  0
 35 63  1  0  0  0  0
 35 70  1  0  0  0  0
 35 80  2  0  0  0  0
 36 64  1  0  0  0  0
 36 75  1  0  0  0  0
 36 81  2  0  0  0  0
 37 71  1  0  0  0  0
 37 76  1  0  0  0  0
 37 82  2  0  0  0  0
 38 41  1  0  0  0  0
 39 48  1  0  0  0  0
 40 70  1  0  0  0  0
 41 43  1  0  0  0  0
 42 44  1  0  0  0  0
 42 45  1  0  0  0  0
 43 47  1  0  0  0  0
 44 49  1  0  0  0  0
 45 71  1  0  0  0  0
 46 49  1  0  0  0  0
 46 71  1  0  0  0  0
 47 74  1  0  0  0  0
 48 70  1  0  0  0  0
 49 69  1  0  0  0  0
 51 60  1  0  0  0  0
 52 64  1  0  0  0  0
 53 65  1  0  0  0  0
 54 66  1  0  0  0  0
 55 66  1  0  0  0  0
 56 66  1  0  0  0  0
 57 77  1  0  0  0  0
 58 61  1  0  0  0  0
 59 62  1  0  0  0  0
 61 65  1  0  0  0  0
 62 76  1  0  0  0  0
 63 66  1  0  0  0  0
 63 75  1  0  0  0  0
 64 77  1  0  0  0  0
 65 84  1  0  0  0  0
 67 69  1  0  0  0  0
M  CHG  1  77   1
M  ISO  4  37 100  65 101  76 100  84 101
M  END
> <Batch ID>
0079

> <Smiles>
CCc1nc(C)cc(CC[101CH:1](C)[101O:1]c2ccc3c(c2)CN(C(=O)C(NC(=O)C(C)NC)C(C)(C)C)C(C(=O)NC2CCCc4ccccc42)C3)c1CC[100NH:0][100C:0](=O)N1CCCC(n2nc(-c3ccc(Oc4ccc(F)cc4F)cc3)c(C(N)=O)c2N)C1

> <Shape>
0.233

> <Color>
0.088

> <Negative vol penalty>
0.000

$$$$

  -OEChem-04052318413D

 85 93  0     1  0  0  0  0  0999 V2000
  -29.4528  -12.9129   19.2151 C   0  0  0  0  0  0  0  0  0  0  0  0
  -29.4855  -14.2782   19.4804 C   0  0  0  0  0  0  0  0  0  0  0  0
  -29.3793  -25.9046   19.2355 C   0  0  0  0  0  0  0  0  0  0  0  0
  -27.5318  -24.3478   19.2514 C   0  0  0  0  0  0  0  0  0  0  0  0
  -28.2361  -12.2833   18.9557 C   0  0  0  0  0  0  0  0  0  0  0  0
  -28.3016  -15.0149   19.4854 C   0  0  0  0  0  0  0  0  0  0  0  0
  -25.2317  -20.6265   22.7105 C   0  0  0  0  0  0  0  0  0  0  0  0
  -30.2630  -24.8535   18.9912 C   0  0  0  0  0  0  0  0  0  0  0  0
  -28.4156  -23.2966   19.0070 C   0  0  0  0  0  0  0  0  0  0  0  0
  -24.5871  -21.8244   22.4050 C   0  0  0  0  0  0  0  0  0  0  0  0
  -30.6000  -21.4163   20.7744 C   0  0  0  0  0  0  0  0  0  0  0  0
  -30.4467  -20.2524   21.5276 C   0  0  0  0  0  0  0  0  0  0  0  0
  -22.5351  -20.6156   22.0215 C   0  0  0  0  0  0  0  0  0  0  0  0
  -30.0736  -18.9903   19.5015 C   0  0  0  0  0  0  0  0  0  0  0  0
  -18.8022  -26.8704   21.1000 C   0  0  0  0  0  0  0  0  0  0  0  0
  -28.0137  -25.6518   19.3657 C   0  0  0  0  0  0  0  0  0  0  0  0
  -26.4292  -27.5236   18.6632 C   0  0  0  0  0  0  0  0  0  0  0  0
  -27.0356  -13.0108   18.9671 C   0  0  0  0  0  0  0  0  0  0  0  0
  -24.5343  -19.4108   22.6631 C   0  0  0  0  0  0  0  0  0  0  0  0
  -27.0679  -14.3947   19.2246 C   0  0  0  0  0  0  0  0  0  0  0  0
  -23.1724  -19.4039   22.3293 C   0  0  0  0  0  0  0  0  0  0  0  0
  -29.7812  -23.5495   18.8769 C   0  0  0  0  0  0  0  0  0  0  0  0
  -23.2394  -21.8188   22.0576 C   0  0  0  0  0  0  0  0  0  0  0  0
  -30.4900  -21.3673   19.3847 C   0  0  0  0  0  0  0  0  0  0  0  0
  -30.1836  -19.0394   20.8912 C   0  0  0  0  0  0  0  0  0  0  0  0
  -30.2268  -20.1543   18.7483 C   0  0  0  0  0  0  0  0  0  0  0  0
  -27.1003  -26.7371   19.6186 C   0  0  0  0  0  0  0  0  0  0  0  0
  -19.0665  -27.9494   21.8955 C   0  0  0  0  0  0  0  0  0  0  0  0
  -25.6881  -28.4092   19.4069 C   0  0  0  0  0  0  0  0  0  0  0  0
  -18.9605  -26.1563   23.1894 C   0  0  0  0  0  0  0  0  0  0  0  0
  -26.4716  -27.4592   17.2315 C   0  0  0  0  0  0  0  0  0  0  0  0
  -24.8016  -16.7361   20.9666 C   0  0  0  0  0  0  0  0  0  0  0  0
  -22.4627  -15.6990   22.9605 C   0  0  0  0  0  0  0  0  0  0  0  0
  -19.8730  -16.4792   25.0418 C   0  0  0  0  0  0  0  0  0  0  0  0
  -22.2992  -29.5158   23.7006 C   0  0  0  0  0  0  0  0  0  0  0  0
  -25.7502  -12.2956   18.6343 C   0  0  0  0  0  0  0  0  0  0  0  0
  -25.2373  -18.1303   23.0215 C   0  0  0  0  0  0  0  0  0  0  0  0
  -22.3737  -18.1278   22.2836 C   0  0  0  0  0  0  0  0  0  0  0  0
  -24.4991  -13.0767   19.0279 C   0  0  0  0  0  0  0  0  0  0  0  0
  -25.7983  -29.4521   24.3553 C   0  0  0  0  0  0  0  0  0  0  0  0
  -24.6154  -14.5309   18.5824 C   0  0  0  0  0  0  0  0  0  0  0  0
  -26.3924  -28.7995   23.1058 C   0  0  0  0  0  0  0  0  0  0  0  0
  -24.4501  -28.8381   24.7258 C   0  0  0  0  0  0  0  0  0  0  0  0
  -24.0498  -28.1717   22.3871 C   0  0  0  0  0  0  0  0  0  0  0  0
  -25.8021  -15.2233   19.2634 C   0  0  1  0  0  0  0  0  0  0  0  0
  -24.5586  -16.8934   22.4410 C   0  0  1  0  0  0  0  0  0  0  0  0
  -25.3834  -28.7956   21.9417 C   0  0  2  0  0  0  0  0  0  0  0  0
  -18.9828  -25.2877   24.3927 C   0  0  0  0  0  0  0  0  0  0  0  0
  -18.1272  -15.4166   26.4980 C   0  0  0  0  0  0  0  0  0  0  0  0
  -20.3501  -31.6007   22.1454 C   0  0  0  0  0  0  0  0  0  0  0  0
  -23.1025  -23.6378   19.5042 C   0  0  0  0  0  0  0  0  0  0  0  0
  -20.8527  -14.9495   20.4794 C   0  0  0  0  0  0  0  0  0  0  0  0
  -18.8177  -14.8006   21.9302 C   0  0  0  0  0  0  0  0  0  0  0  0
  -20.7499  -13.2756   22.3346 C   0  0  0  0  0  0  0  0  0  0  0  0
  -20.9300  -17.7985   27.4710 C   0  0  0  0  0  0  0  0  0  0  0  0
  -19.2402  -29.3686   21.5754 C   0  0  0  0  0  0  0  0  0  0  0  0
  -19.7234  -23.4751   21.4341 C   0  0  0  0  0  0  0  0  0  0  0  0
  -20.8102  -24.0162   20.4952 C   0  0  0  0  0  0  0  0  0  0  0  0
  -18.4729  -24.3612   21.4751 C   0  0  0  0  0  0  0  0  0  0  0  0
  -20.9533  -15.7216   22.9410 C   0  0  1  0  0  0  0  0  0  0  0  0
  -19.5283  -16.0054   26.4422 C   0  0  2  0  0  0  0  0  0  0  0  0
  -20.1985  -30.1330   22.5322 C   0  0  1  0  0  0  0  0  0  0  0  0
  -22.0399  -23.1021   20.4544 C   0  0  2  0  0  0  0  0  0  1  0  0
  -20.3586  -14.7108   21.9202 C   0  0  0  0  0  0  0  0  0  0  0  0
  -26.8114  -27.0920   20.8735 N   0  0  0  0  0  0  0  0  0  0  0  0
  -18.7425  -25.7745   21.9268 N   0  0  0  0  0  0  0  0  0  0  0  0
  -25.9506  -28.1112   20.7117 N   0  0  0  0  0  0  0  0  0  0  0  0
  -19.1591  -27.4784   23.1830 N   0  3  0  0  0  0  0  0  0  0  0  0
  -23.1073  -16.9011   22.6361 N   0  0  0  0  0  0  0  0  0  0  0  0
  -23.5389  -28.8667   23.5791 N   0  0  0  0  0  0  0  0  0  0  0  0
  -24.8442  -29.4060   19.0654 N   0  0  0  0  0  0  0  0  0  0  0  0
  -27.2850  -26.4891   16.6302 N   0  0  0  0  0  0  0  0  0  0  0  0
  -25.4680  -15.5742   20.6270 N   0  0  0  0  0  0  0  0  0  0  0  0
  -20.5240  -15.5027   24.3180 N   0  0  0  0  0  0  0  0  0  0  0  0
  -21.4990  -29.5017   22.5648 N   0  0  0  0  0  0  0  0  0  0  0  0
  -19.5998  -17.1404   27.4054 N   0  3  0  0  0  0  0  0  0  0  0  0
  -25.8207  -28.2496   16.5069 O   0  0  0  0  0  0  0  0  0  0  0  0
  -24.4120  -17.6040   20.1941 O   0  0  0  0  0  0  0  0  0  0  0  0
  -23.0480  -14.6553   23.2598 O   0  0  0  0  0  0  0  0  0  0  0  0
  -19.5895  -17.6019   24.6299 O   0  0  0  0  0  0  0  0  0  0  0  0
  -21.9350  -30.0717   24.7424 O   0  0  0  0  0  0  0  0  0  0  0  0
  -30.6432  -22.5236   18.6382 O   0  0  0  0  0  0  0  0  0  0  0  0
  -22.6080  -22.9865   21.7583 O   0  0  0  0  0  0  0  0  0  1  0  0
  -30.0380  -17.9215   21.6146 F   0  0  0  0  0  0  0  0  0  0  0  0
  -30.1213  -20.1007   17.4134 F   0  0  0  0  0  0  0  0  0  0  0  0
  1  2  1  0  0  0  0
  1  5  2  0  0  0  0
  2  6  2  0  0  0  0
  3  8  2  0  0  0  0
  3 16  1  0  0  0  0
  4  9  1  0  0  0  0
  4 16  2  0  0  0  0
  5 18  1  0  0  0  0
  6 20  1  0  0  0  0
  7 10  2  0  0  0  0
  7 19  1  0  0  0  0
  8 22  1  0  0  0  0
  9 22  2  0  0  0  0
 10 23  1  0  0  0  0
 11 12  2  0  0  0  0
 11 24  1  0  0  0  0
 12 25  1  0  0  0  0
 13 21  1  0  0  0  0
 13 23  2  0  0  0  0
 14 25  2  0  0  0  0
 14 26  1  0  0  0  0
 15 28  2  0  0  0  0
 15 66  1  0  0  0  0
 16 27  1  0  0  0  0
 17 27  1  0  0  0  0
 17 29  2  0  0  0  0
 17 31  1  0  0  0  0
 18 20  2  0  0  0  0
 18 36  1  0  0  0  0
 19 21  2  0  0  0  0
 19 37  1  0  0  0  0
 20 45  1  0  0  0  0
 21 38  1  0  0  0  0
 22 82  1  0  0  0  0
 23 83  1  0  0  0  0
 24 26  2  0  0  0  0
 24 82  1  0  0  0  0
 25 84  1  0  0  0  0
 26 85  1  0  0  0  0
 27 65  2  0  0  0  0
 28 56  1  0  0  0  0
 28 68  1  0  0  0  0
 29 67  1  0  0  0  0
 29 71  1  0  0  0  0
 30 48  1  0  0  0  0
 30 66  1  0  0  0  0
 30 68  2  0  0  0  0
 31 72  1  0  0  0  0
 31 77  2  0  0  0  0
 32 46  1  0  0  0  0
 32 73  1  0  0  0  0
 32 78  2  0  0  0  0
 33 60  1  0  0  0  0
 33 69  1  0  0  0  0
 33 79  2  0  0  0  0
 34 61  1  0  0  0  0
 34 74  1  0  0  0  0
 34 80  2  0  0  0  0
 35 70  1  0  0  0  0
 35 75  1  0  0  0  0
 35 81  2  0  0  0  0
 36 39  1  0  0  0  0
 37 46  1  0  0  0  0
 38 69  1  0  0  0  0
 39 41  1  0  0  0  0
 40 42  1  0  0  0  0
 40 43  1  0  0  0  0
 41 45  1  0  0  0  0
 42 47  1  0  0  0  0
 43 70  1  0  0  0  0
 44 47  1  0  0  0  0
 44 70  1  0  0  0  0
 45 73  1  0  0  0  0
 46 69  1  0  0  0  0
 47 67  1  0  0  0  0
 49 61  1  0  0  0  0
 50 62  1  0  0  0  0
 51 63  1  0  0  0  0
 52 64  1  0  0  0  0
 53 64  1  0  0  0  0
 54 64  1  0  0  0  0
 55 76  1  0  0  0  0
 56 62  1  0  0  0  0
 57 58  1  0  0  0  0
 57 59  1  0  0  0  0
 58 63  1  0  0  0  0
 59 66  1  0  0  0  0
 60 64  1  0  0  0  0
 60 74  1  0  0  0  0
 61 76  1  0  0  0  0
 62 75  1  0  0  0  0
 63 83  1  0  0  0  0
 65 67  1  0  0  0  0
M  CHG  2  68   1  76   1
M  ISO  4  35 100  63 101  75 100  83 101
M  END
> <Batch ID>
0079

> <Smiles>
CNC(C)C(=O)NC(C(=O)N1Cc2cc([101O:1][101CH:1](C)CCCn3cc(CC(C)[100NH:0][100C:0](=O)N4CCCC(n5nc(-c6ccc(Oc7ccc(F)cc7F)cc6)c(C(N)=O)c5N)C4)nc3C)ccc2CC1C(=O)NC1CCCc2ccccc21)C(C)(C)C

> <Shape>
0.200

> <Color>
0.057

> <Negative vol penalty>
0.000

$$$$

  -OEChem-04052318413D

 85 93  0     1  0  0  0  0  0999 V2000
  -22.9382  -18.0728   23.3163 C   0  0  0  0  0  0  0  0  0  0  0  0
  -24.0611  -18.8925   23.2652 C   0  0  0  0  0  0  0  0  0  0  0  0
  -26.1511  -12.9522   20.6832 C   0  0  0  0  0  0  0  0  0  0  0  0
  -24.3796  -14.4352   19.9763 C   0  0  0  0  0  0  0  0  0  0  0  0
  -21.7554  -18.4734   22.6962 C   0  0  0  0  0  0  0  0  0  0  0  0
  -24.0021  -20.1128   22.5930 C   0  0  0  0  0  0  0  0  0  0  0  0
  -26.8958  -25.2935   24.1074 C   0  0  0  0  0  0  0  0  0  0  0  0
  -25.2081  -12.0987   21.2557 C   0  0  0  0  0  0  0  0  0  0  0  0
  -23.4366  -13.5816   20.5488 C   0  0  0  0  0  0  0  0  0  0  0  0
  -28.0727  -25.8803   23.6443 C   0  0  0  0  0  0  0  0  0  0  0  0
  -23.2409   -9.3475   22.5885 C   0  0  0  0  0  0  0  0  0  0  0  0
  -23.3800   -7.9791   22.3573 C   0  0  0  0  0  0  0  0  0  0  0  0
  -26.7866  -27.2540   22.1349 C   0  0  0  0  0  0  0  0  0  0  0  0
  -28.9789  -25.1253   19.3686 C   0  0  0  0  0  0  0  0  0  0  0  0
  -23.1725   -8.3596   19.9804 C   0  0  0  0  0  0  0  0  0  0  0  0
  -25.7368  -14.1206   20.0435 C   0  0  0  0  0  0  0  0  0  0  0  0
  -27.2036  -14.9641   18.1344 C   0  0  0  0  0  0  0  0  0  0  0  0
  -21.6791  -19.7036   22.0244 C   0  0  0  0  0  0  0  0  0  0  0  0
  -25.6543  -25.6754   23.5790 C   0  0  0  0  0  0  0  0  0  0  0  0
  -22.8176  -20.5296   21.9623 C   0  0  0  0  0  0  0  0  0  0  0  0
  -25.5953  -26.6723   22.5947 C   0  0  0  0  0  0  0  0  0  0  0  0
  -30.3016  -25.5507   19.3157 C   0  0  0  0  0  0  0  0  0  0  0  0
  -31.2936  -24.6690   18.9010 C   0  0  0  0  0  0  0  0  0  0  0  0
  -23.8508  -12.4133   21.1885 C   0  0  0  0  0  0  0  0  0  0  0  0
  -28.0184  -26.8587   22.6559 C   0  0  0  0  0  0  0  0  0  0  0  0
  -23.0675  -10.2221   21.5157 C   0  0  0  0  0  0  0  0  0  0  0  0
  -23.3458   -7.4851   21.0532 C   0  0  0  0  0  0  0  0  0  0  0  0
  -23.0334   -9.7281   20.2117 C   0  0  0  0  0  0  0  0  0  0  0  0
  -26.7105  -15.0030   19.4524 C   0  0  0  0  0  0  0  0  0  0  0  0
  -28.7026  -23.8187   18.9994 C   0  0  0  0  0  0  0  0  0  0  0  0
  -30.9137  -23.3828   18.5528 C   0  0  0  0  0  0  0  0  0  0  0  0
  -28.0983  -16.0043   18.0717 C   0  0  0  0  0  0  0  0  0  0  0  0
  -26.8816  -14.0679   17.0626 C   0  0  0  0  0  0  0  0  0  0  0  0
  -23.3410  -24.1873   21.9860 C   0  0  0  0  0  0  0  0  0  0  0  0
  -21.7922  -27.0112   22.3717 C   0  0  0  0  0  0  0  0  0  0  0  0
  -21.9926  -30.3773   22.8973 C   0  0  0  0  0  0  0  0  0  0  0  0
  -28.6291  -21.1166   21.1432 C   0  0  0  0  0  0  0  0  0  0  0  0
  -20.3926  -20.0723   21.3289 C   0  0  0  0  0  0  0  0  0  0  0  0
  -24.3919  -25.0518   24.1082 C   0  0  0  0  0  0  0  0  0  0  0  0
  -24.2861  -27.1322   22.0092 C   0  0  0  0  0  0  0  0  0  0  0  0
  -20.3030  -21.5501   20.9572 C   0  0  0  0  0  0  0  0  0  0  0  0
  -31.0769  -18.5519   20.8156 C   0  0  0  0  0  0  0  0  0  0  0  0
  -21.5998  -22.0155   20.3025 C   0  0  0  0  0  0  0  0  0  0  0  0
  -30.2799  -17.3480   20.3101 C   0  0  0  0  0  0  0  0  0  0  0  0
  -30.2709  -19.3854   21.8094 C   0  0  0  0  0  0  0  0  0  0  0  0
  -28.1500  -18.6143   20.8189 C   0  0  0  0  0  0  0  0  0  0  0  0
  -22.7857  -21.8718   21.2640 C   0  0  1  0  0  0  0  0  0  0  0  0
  -23.2227  -25.1502   23.1333 C   0  0  1  0  0  0  0  0  0  0  0  0
  -28.9010  -17.7745   19.7715 C   0  0  2  0  0  0  0  0  0  0  0  0
  -32.7206  -25.0982   18.8319 C   0  0  0  0  0  0  0  0  0  0  0  0
  -31.9340  -22.3910   18.0981 C   0  0  0  0  0  0  0  0  0  0  0  0
  -27.0107  -22.2938   17.9334 C   0  0  0  0  0  0  0  0  0  0  0  0
  -20.5589  -32.4240   23.1270 C   0  0  0  0  0  0  0  0  0  0  0  0
  -21.3530  -27.0396   19.3524 C   0  0  0  0  0  0  0  0  0  0  0  0
  -20.7941  -29.4738   19.5267 C   0  0  0  0  0  0  0  0  0  0  0  0
  -19.3826  -27.7847   20.7002 C   0  0  0  0  0  0  0  0  0  0  0  0
  -22.9558  -30.8848   25.6493 C   0  0  0  0  0  0  0  0  0  0  0  0
  -30.6327  -26.9667   19.7144 C   0  0  0  0  0  0  0  0  0  0  0  0
  -31.2689  -27.0833   21.1012 C   0  0  0  0  0  0  0  0  0  0  0  0
  -26.8920  -22.7317   20.4131 C   0  0  0  0  0  0  0  0  0  0  0  0
  -30.3469  -26.6325   22.2283 C   0  0  0  0  0  0  0  0  0  1  0  0
  -27.2940  -23.3279   19.0426 C   0  0  1  0  0  0  0  0  0  0  0  0
  -21.6964  -28.2945   21.5824 C   0  0  1  0  0  0  0  0  0  0  0  0
  -21.2592  -31.2916   23.8619 C   0  0  2  0  0  0  0  0  0  0  0  0
  -20.8315  -28.1383   20.2999 C   0  0  0  0  0  0  0  0  0  0  0  0
  -27.2475  -15.9897   20.1750 N   0  0  0  0  0  0  0  0  0  0  0  0
  -29.6392  -22.9334   18.5914 N   0  0  0  0  0  0  0  0  0  0  0  0
  -28.0874  -16.5804   19.3079 N   0  0  0  0  0  0  0  0  0  0  0  0
  -23.0800  -26.4879   22.5550 N   0  0  0  0  0  0  0  0  0  0  0  0
  -28.9752  -19.7585   21.2367 N   0  0  0  0  0  0  0  0  0  0  0  0
  -28.8855  -16.4733   17.0803 N   0  0  0  0  0  0  0  0  0  0  0  0
  -25.9413  -13.0556   17.2978 N   0  0  0  0  0  0  0  0  0  0  0  0
  -22.7841  -22.9469   22.2328 N   0  0  0  0  0  0  0  0  0  0  0  0
  -21.2104  -29.3095   22.5109 N   0  0  0  0  0  0  0  0  0  0  0  0
  -27.3861  -21.3834   20.5823 N   0  0  0  0  0  0  0  0  0  0  0  0
  -22.2139  -31.8856   24.8400 N   0  3  0  0  0  0  0  0  0  0  0  0
  -27.4242  -14.1518   15.9347 O   0  0  0  0  0  0  0  0  0  0  0  0
  -23.8951  -24.5436   20.9527 O   0  0  0  0  0  0  0  0  0  0  0  0
  -20.7630  -26.4960   22.8155 O   0  0  0  0  0  0  0  0  0  0  0  0
  -23.1429  -30.5911   22.5210 O   0  0  0  0  0  0  0  0  0  0  0  0
  -29.3750  -22.0244   21.5259 O   0  0  0  0  0  0  0  0  0  0  0  0
  -22.9304  -11.5805   21.7468 O   0  0  0  0  0  0  0  0  0  0  0  0
  -29.1657  -27.4326   22.2017 O   0  0  0  0  0  0  0  0  0  1  0  0
  -23.4809   -6.1711   20.8312 F   0  0  0  0  0  0  0  0  0  0  0  0
  -22.8684  -10.5635   19.1769 F   0  0  0  0  0  0  0  0  0  0  0  0
  1  2  1  0  0  0  0
  1  5  2  0  0  0  0
  2  6  2  0  0  0  0
  3  8  2  0  0  0  0
  3 16  1  0  0  0  0
  4  9  1  0  0  0  0
  4 16  2  0  0  0  0
  5 18  1  0  0  0  0
  6 20  1  0  0  0  0
  7 10  2  0  0  0  0
  7 19  1  0  0  0  0
  8 24  1  0  0  0  0
  9 24  2  0  0  0  0
 10 25  1  0  0  0  0
 11 12  2  0  0  0  0
 11 26  1  0  0  0  0
 12 27  1  0  0  0  0
 13 21  1  0  0  0  0
 13 25  2  0  0  0  0
 14 22  1  0  0  0  0
 14 30  2  0  0  0  0
 15 27  2  0  0  0  0
 15 28  1  0  0  0  0
 16 29  1  0  0  0  0
 17 29  1  0  0  0  0
 17 32  2  0  0  0  0
 17 33  1  0  0  0  0
 18 20  2  0  0  0  0
 18 38  1  0  0  0  0
 19 21  2  0  0  0  0
 19 39  1  0  0  0  0
 20 47  1  0  0  0  0
 21 40  1  0  0  0  0
 22 23  2  0  0  0  0
 22 58  1  0  0  0  0
 23 31  1  0  0  0  0
 23 50  1  0  0  0  0
 24 82  1  0  0  0  0
 25 83  1  0  0  0  0
 26 28  2  0  0  0  0
 26 82  1  0  0  0  0
 27 84  1  0  0  0  0
 28 85  1  0  0  0  0
 29 66  2  0  0  0  0
 30 62  1  0  0  0  0
 30 67  1  0  0  0  0
 31 51  1  0  0  0  0
 31 67  2  0  0  0  0
 32 68  1  0  0  0  0
 32 71  1  0  0  0  0
 33 72  1  0  0  0  0
 33 77  2  0  0  0  0
 34 48  1  0  0  0  0
 34 73  1  0  0  0  0
 34 78  2  0  0  0  0
 35 63  1  0  0  0  0
 35 69  1  0  0  0  0
 35 79  2  0  0  0  0
 36 64  1  0  0  0  0
 36 74  1  0  0  0  0
 36 80  2  0  0  0  0
 37 70  1  0  0  0  0
 37 75  1  0  0  0  0
 37 81  2  0  0  0  0
 38 41  1  0  0  0  0
 39 48  1  0  0  0  0
 40 69  1  0  0  0  0
 41 43  1  0  0  0  0
 42 44  1  0  0  0  0
 42 45  1  0  0  0  0
 43 47  1  0  0  0  0
 44 49  1  0  0  0  0
 45 70  1  0  0  0  0
 46 49  1  0  0  0  0
 46 70  1  0  0  0  0
 47 73  1  0  0  0  0
 48 69  1  0  0  0  0
 49 68  1  0  0  0  0
 52 62  1  0  0  0  0
 53 64  1  0  0  0  0
 54 65  1  0  0  0  0
 55 65  1  0  0  0  0
 56 65  1  0  0  0  0
 57 76  1  0  0  0  0
 58 59  1  0  0  0  0
 59 61  1  0  0  0  0
 60 62  1  0  0  0  0
 60 75  1  0  0  0  0
 61 83  1  0  0  0  0
 63 65  1  0  0  0  0
 63 74  1  0  0  0  0
 64 76  1  0  0  0  0
 66 68  1  0  0  0  0
M  CHG  1  76   1
M  ISO  4  37 100  61 101  75 100  83 101
M  END
> <Batch ID>
0079

> <Smiles>
CNC(C)C(=O)NC(C(=O)N1Cc2cc([101O:1][101CH2:1]CCc3cc(C(C)C[100NH:0][100C:0](=O)N4CCCC(n5nc(-c6ccc(Oc7ccc(F)cc7F)cc6)c(C(N)=O)c5N)C4)nc(C)c3C)ccc2CC1C(=O)NC1CCCc2ccccc21)C(C)(C)C

> <Shape>
0.224

> <Color>
0.057

> <Negative vol penalty>
0.000

$$$$

  -OEChem-04052318413D

 81 89  0     1  0  0  0  0  0999 V2000
  -23.4454  -30.7384   30.8964 C   0  0  0  0  0  0  0  0  0  0  0  0
  -24.3125  -29.6534   30.8177 C   0  0  0  0  0  0  0  0  0  0  0  0
  -23.1044   -9.8363   20.1500 C   0  0  0  0  0  0  0  0  0  0  0  0
  -23.7650  -10.1150   22.4572 C   0  0  0  0  0  0  0  0  0  0  0  0
  -22.2780  -30.7532   30.1343 C   0  0  0  0  0  0  0  0  0  0  0  0
  -24.0121  -28.5818   29.9774 C   0  0  0  0  0  0  0  0  0  0  0  0
  -27.1877  -23.6625   25.8505 C   0  0  0  0  0  0  0  0  0  0  0  0
  -22.3534   -8.7144   20.5005 C   0  0  0  0  0  0  0  0  0  0  0  0
  -23.0139   -8.9931   22.8077 C   0  0  0  0  0  0  0  0  0  0  0  0
  -27.2123  -22.2841   25.6429 C   0  0  0  0  0  0  0  0  0  0  0  0
  -19.7649   -8.2464   23.3615 C   0  0  0  0  0  0  0  0  0  0  0  0
  -18.9584   -8.3369   24.4959 C   0  0  0  0  0  0  0  0  0  0  0  0
  -25.2067  -22.4547   24.3133 C   0  0  0  0  0  0  0  0  0  0  0  0
  -20.1719   -6.5073   25.5045 C   0  0  0  0  0  0  0  0  0  0  0  0
  -28.1925  -20.2920   21.7114 C   0  0  0  0  0  0  0  0  0  0  0  0
  -23.8102  -10.5366   21.1283 C   0  0  0  0  0  0  0  0  0  0  0  0
  -24.1505  -13.0333   20.7302 C   0  0  0  0  0  0  0  0  0  0  0  0
  -21.9680  -29.6857   29.2770 C   0  0  0  0  0  0  0  0  0  0  0  0
  -26.1647  -24.4472   25.2991 C   0  0  0  0  0  0  0  0  0  0  0  0
  -22.8387  -28.5817   29.2041 C   0  0  0  0  0  0  0  0  0  0  0  0
  -25.1729  -23.8432   24.5132 C   0  0  0  0  0  0  0  0  0  0  0  0
  -22.3081   -8.2928   21.8294 C   0  0  0  0  0  0  0  0  0  0  0  0
  -26.2201  -21.6795   24.8766 C   0  0  0  0  0  0  0  0  0  0  0  0
  -20.7749   -7.2863   23.2985 C   0  0  0  0  0  0  0  0  0  0  0  0
  -19.1619   -7.4674   25.5674 C   0  0  0  0  0  0  0  0  0  0  0  0
  -20.9784   -6.4168   24.3700 C   0  0  0  0  0  0  0  0  0  0  0  0
  -24.5867  -11.6953   20.7668 C   0  0  0  0  0  0  0  0  0  0  0  0
  -28.2569  -18.9426   21.4419 C   0  0  0  0  0  0  0  0  0  0  0  0
  -26.9943  -18.5114   23.2991 C   0  0  0  0  0  0  0  0  0  0  0  0
  -26.9302  -19.8608   23.5688 C   0  0  0  0  0  0  0  0  0  1  0  0
  -25.2554  -13.7437   20.3289 C   0  0  0  0  0  0  0  0  0  0  0  0
  -22.8619  -13.5847   21.0321 C   0  0  0  0  0  0  0  0  0  0  0  0
  -23.8719  -26.3009   26.4868 C   0  0  0  0  0  0  0  0  0  0  0  0
  -23.3667  -27.0121   23.3625 C   0  0  0  0  0  0  0  0  0  0  0  0
  -23.6736  -26.0822   20.0932 C   0  0  0  0  0  0  0  0  0  0  0  0
  -30.7233  -14.8189   20.6299 C   0  0  0  0  0  0  0  0  0  0  0  0
  -20.6709  -29.7251   28.5083 C   0  0  0  0  0  0  0  0  0  0  0  0
  -26.1674  -25.9365   25.5102 C   0  0  0  0  0  0  0  0  0  0  0  0
  -24.0641  -24.6438   23.8823 C   0  0  0  0  0  0  0  0  0  0  0  0
  -20.6124  -28.7204   27.3605 C   0  0  0  0  0  0  0  0  0  0  0  0
  -29.6955  -12.1651   18.4904 C   0  0  0  0  0  0  0  0  0  0  0  0
  -21.0987  -27.3511   27.8243 C   0  0  0  0  0  0  0  0  0  0  0  0
  -28.2415  -11.9128   18.8932 C   0  0  0  0  0  0  0  0  0  0  0  0
  -30.5595  -12.5307   19.6953 C   0  0  0  0  0  0  0  0  0  0  0  0
  -28.5981  -13.4034   20.9056 C   0  0  0  0  0  0  0  0  0  0  0  0
  -22.5599  -27.4118   28.2856 C   0  0  1  0  0  0  0  0  0  0  0  0
  -24.7907  -26.5682   25.3284 C   0  0  1  0  0  0  0  0  0  0  0  0
  -27.6759  -13.0860   19.7160 C   0  0  2  0  0  0  0  0  0  0  0  0
  -26.3268  -17.5142   24.1828 C   0  0  0  0  0  0  0  0  0  0  0  0
  -23.1331  -26.8529   17.7670 C   0  0  0  0  0  0  0  0  0  0  0  0
  -20.4447  -26.2444   23.7896 C   0  0  0  0  0  0  0  0  0  0  0  0
  -20.1879  -26.1137   21.3026 C   0  0  0  0  0  0  0  0  0  0  0  0
  -20.7930  -28.2806   22.3801 C   0  0  0  0  0  0  0  0  0  0  0  0
  -26.5305  -26.1353   19.3223 C   0  0  0  0  0  0  0  0  0  0  0  0
  -29.0005  -18.4445   20.2521 C   0  0  0  0  0  0  0  0  0  0  0  0
  -30.4886  -18.1317   20.5115 C   0  0  0  0  0  0  0  0  0  0  0  0
  -30.7305  -17.0989   21.6101 C   0  0  0  0  0  0  0  0  0  0  0  0
  -22.5149  -26.4334   22.2585 C   0  0  1  0  0  0  0  0  0  0  0  0
  -24.1752  -26.8357   18.8745 C   0  0  2  0  0  0  0  0  0  0  0  0
  -21.0048  -26.7524   22.4461 C   0  0  0  0  0  0  0  0  0  0  0  0
  -27.5279  -20.7754   22.7797 N   0  0  0  0  0  0  0  0  0  0  0  0
  -25.8686  -11.5611   20.4165 N   0  0  0  0  0  0  0  0  0  0  0  0
  -27.6589  -18.0280   22.2308 N   0  0  0  0  0  0  0  0  0  0  0  0
  -26.2474  -12.8239   20.1559 N   0  0  0  0  0  0  0  0  0  0  0  0
  -24.1067  -26.0956   24.1230 N   0  0  0  0  0  0  0  0  0  0  0  0
  -29.9688  -13.6509   20.4316 N   0  0  0  0  0  0  0  0  0  0  0  0
  -25.4653  -15.0593   20.1106 N   0  0  0  0  0  0  0  0  0  0  0  0
  -21.8387  -12.7132   21.4295 N   0  0  0  0  0  0  0  0  0  0  0  0
  -23.4494  -27.4405   27.1443 N   0  0  0  0  0  0  0  0  0  0  0  0
  -23.0789  -26.9267   21.0067 N   0  0  0  0  0  0  0  0  0  0  0  0
  -30.0862  -15.8346   21.3321 N   0  0  0  0  0  0  0  0  0  0  0  0
  -25.4136  -26.1981   18.3448 N   0  3  0  0  0  0  0  0  0  0  0  0
  -22.6203  -14.8118   20.9359 O   0  0  0  0  0  0  0  0  0  0  0  0
  -23.5675  -25.1464   26.7627 O   0  0  0  0  0  0  0  0  0  0  0  0
  -23.3807  -28.2329   23.5388 O   0  0  0  0  0  0  0  0  0  0  0  0
  -23.7938  -24.8657   20.2203 O   0  0  0  0  0  0  0  0  0  0  0  0
  -31.8773  -14.9491   20.2076 O   0  0  0  0  0  0  0  0  0  0  0  0
  -21.5752   -7.1982   22.1718 O   0  0  0  0  0  0  0  0  0  0  0  0
  -26.2413  -20.3342   24.6730 O   0  0  0  0  0  0  0  0  0  1  0  0
  -18.3884   -7.5554   26.6574 F   0  0  0  0  0  0  0  0  0  0  0  0
  -21.9478   -5.4932   24.3158 F   0  0  0  0  0  0  0  0  0  0  0  0
  1  2  1  0  0  0  0
  1  5  2  0  0  0  0
  2  6  2  0  0  0  0
  3  8  2  0  0  0  0
  3 16  1  0  0  0  0
  4  9  1  0  0  0  0
  4 16  2  0  0  0  0
  5 18  1  0  0  0  0
  6 20  1  0  0  0  0
  7 10  2  0  0  0  0
  7 19  1  0  0  0  0
  8 22  1  0  0  0  0
  9 22  2  0  0  0  0
 10 23  1  0  0  0  0
 11 12  2  0  0  0  0
 11 24  1  0  0  0  0
 12 25  1  0  0  0  0
 13 21  1  0  0  0  0
 13 23  2  0  0  0  0
 14 25  2  0  0  0  0
 14 26  1  0  0  0  0
 15 28  1  0  0  0  0
 15 61  2  0  0  0  0
 16 27  1  0  0  0  0
 17 27  1  0  0  0  0
 17 31  2  0  0  0  0
 17 32  1  0  0  0  0
 18 20  2  0  0  0  0
 18 37  1  0  0  0  0
 19 21  2  0  0  0  0
 19 38  1  0  0  0  0
 20 46  1  0  0  0  0
 21 39  1  0  0  0  0
 22 78  1  0  0  0  0
 23 79  1  0  0  0  0
 24 26  2  0  0  0  0
 24 78  1  0  0  0  0
 25 80  1  0  0  0  0
 26 81  1  0  0  0  0
 27 62  2  0  0  0  0
 28 55  1  0  0  0  0
 28 63  2  0  0  0  0
 29 30  2  0  0  0  0
 29 49  1  0  0  0  0
 29 63  1  0  0  0  0
 30 61  1  0  0  0  0
 30 79  1  0  0  0  0
 31 64  1  0  0  0  0
 31 67  1  0  0  0  0
 32 68  1  0  0  0  0
 32 73  2  0  0  0  0
 33 47  1  0  0  0  0
 33 69  1  0  0  0  0
 33 74  2  0  0  0  0
 34 58  1  0  0  0  0
 34 65  1  0  0  0  0
 34 75  2  0  0  0  0
 35 59  1  0  0  0  0
 35 70  1  0  0  0  0
 35 76  2  0  0  0  0
 36 66  1  0  0  0  0
 36 71  1  0  0  0  0
 36 77  2  0  0  0  0
 37 40  1  0  0  0  0
 38 47  1  0  0  0  0
 39 65  1  0  0  0  0
 40 42  1  0  0  0  0
 41 43  1  0  0  0  0
 41 44  1  0  0  0  0
 42 46  1  0  0  0  0
 43 48  1  0  0  0  0
 44 66  1  0  0  0  0
 45 48  1  0  0  0  0
 45 66  1  0  0  0  0
 46 69  1  0  0  0  0
 47 65  1  0  0  0  0
 48 64  1  0  0  0  0
 50 59  1  0  0  0  0
 51 60  1  0  0  0  0
 52 60  1  0  0  0  0
 53 60  1  0  0  0  0
 54 72  1  0  0  0  0
 55 56  1  0  0  0  0
 56 57  1  0  0  0  0
 57 71  1  0  0  0  0
 58 60  1  0  0  0  0
 58 70  1  0  0  0  0
 59 72  1  0  0  0  0
 62 64  1  0  0  0  0
M  CHG  1  72   1
M  ISO  4  30 101  36 100  71 100  79 101
M  END
> <Batch ID>
0079

> <Smiles>
CNC(C)C(=O)NC(C(=O)N1Cc2cc([101O:1][101c:1]3ncc(CCC[100NH:0][100C:0](=O)N4CCCC(n5nc(-c6ccc(Oc7ccc(F)cc7F)cc6)c(C(N)=O)c5N)C4)nc3C)ccc2CC1C(=O)NC1CCCc2ccccc21)C(C)(C)C

> <Shape>
0.227

> <Color>
0.196

> <Negative vol penalty>
0.000

$$$$

  -OEChem-04052318413D

 82 90  0     1  0  0  0  0  0999 V2000
  -20.9176  -30.9792   21.7810 C   0  0  0  0  0  0  0  0  0  0  0  0
  -21.9599  -30.1702   22.2222 C   0  0  0  0  0  0  0  0  0  0  0  0
  -26.2766  -13.2303   22.2197 C   0  0  0  0  0  0  0  0  0  0  0  0
  -25.4210  -13.1143   19.9632 C   0  0  0  0  0  0  0  0  0  0  0  0
  -19.6110  -30.4929   21.7815 C   0  0  0  0  0  0  0  0  0  0  0  0
  -21.6958  -28.8747   22.6652 C   0  0  0  0  0  0  0  0  0  0  0  0
  -24.9814  -25.4864   20.8297 C   0  0  0  0  0  0  0  0  0  0  0  0
  -25.3041  -12.3208   22.6352 C   0  0  0  0  0  0  0  0  0  0  0  0
  -24.4484  -12.2049   20.3788 C   0  0  0  0  0  0  0  0  0  0  0  0
  -26.2381  -25.4279   21.4304 C   0  0  0  0  0  0  0  0  0  0  0  0
  -21.9672   -9.5769   20.7731 C   0  0  0  0  0  0  0  0  0  0  0  0
  -21.7486   -8.4518   19.9782 C   0  0  0  0  0  0  0  0  0  0  0  0
  -25.5333  -23.5041   22.7037 C   0  0  0  0  0  0  0  0  0  0  0  0
  -24.0470   -7.7794   20.2979 C   0  0  0  0  0  0  0  0  0  0  0  0
  -26.3350  -13.6271   20.8837 C   0  0  0  0  0  0  0  0  0  0  0  0
  -28.6312  -14.2726   19.9789 C   0  0  0  0  0  0  0  0  0  0  0  0
  -19.3320  -29.1874   22.2156 C   0  0  0  0  0  0  0  0  0  0  0  0
  -23.9860  -24.5592   21.1700 C   0  0  0  0  0  0  0  0  0  0  0  0
  -20.3840  -28.3709   22.6728 C   0  0  0  0  0  0  0  0  0  0  0  0
  -24.2656  -23.5513   22.1039 C   0  0  0  0  0  0  0  0  0  0  0  0
  -24.3900  -11.8081   21.7148 C   0  0  0  0  0  0  0  0  0  0  0  0
  -26.5134  -24.4384   22.3697 C   0  0  0  0  0  0  0  0  0  0  0  0
  -23.2257   -9.8034   21.3303 C   0  0  0  0  0  0  0  0  0  0  0  0
  -22.7884   -7.5530   19.7406 C   0  0  0  0  0  0  0  0  0  0  0  0
  -24.2656   -8.9046   21.0927 C   0  0  0  0  0  0  0  0  0  0  0  0
  -27.3391  -14.5669   20.4539 C   0  0  0  0  0  0  0  0  0  0  0  0
  -31.1057  -23.6596   18.3273 C   0  0  0  0  0  0  0  0  0  0  0  0
  -31.3004  -23.2123   19.6099 C   0  0  0  0  0  0  0  0  0  0  0  0
  -29.1842  -15.4997   19.7053 C   0  0  0  0  0  0  0  0  0  0  0  0
  -29.2740  -13.0035   19.8008 C   0  0  0  0  0  0  0  0  0  0  0  0
  -21.0953  -24.7502   22.4782 C   0  0  0  0  0  0  0  0  0  0  0  0
  -21.0022  -21.5812   21.7920 C   0  0  0  0  0  0  0  0  0  0  0  0
  -22.7218  -18.6955   21.1897 C   0  0  0  0  0  0  0  0  0  0  0  0
  -28.8387  -20.4793   17.4622 C   0  0  0  0  0  0  0  0  0  0  0  0
  -17.8976  -28.7222   22.2424 C   0  0  0  0  0  0  0  0  0  0  0  0
  -22.6441  -24.6194   20.4932 C   0  0  0  0  0  0  0  0  0  0  0  0
  -23.2380  -22.5197   22.4890 C   0  0  0  0  0  0  0  0  0  0  0  0
  -17.7505  -27.2086   22.3751 C   0  0  0  0  0  0  0  0  0  0  0  0
  -27.5835  -20.1621   20.8417 C   0  0  0  0  0  0  0  0  0  0  0  0
  -18.6694  -26.6770   23.4705 C   0  0  0  0  0  0  0  0  0  0  0  0
  -27.5160  -18.6420   20.9997 C   0  0  0  0  0  0  0  0  0  0  0  0
  -27.1928  -20.5891   19.4299 C   0  0  0  0  0  0  0  0  0  0  0  0
  -27.9240  -18.4251   18.5044 C   0  0  0  0  0  0  0  0  0  0  0  0
  -20.1409  -26.9514   23.1376 C   0  0  1  0  0  0  0  0  0  0  0  0
  -21.5394  -23.9378   21.2948 C   0  0  1  0  0  0  0  0  0  0  0  0
  -28.3295  -17.9281   19.9039 C   0  0  2  0  0  0  0  0  0  0  0  0
  -31.5456  -21.8749   20.1724 C   0  0  0  0  0  0  0  0  0  0  0  0
  -23.0928  -16.2920   20.5709 C   0  0  0  0  0  0  0  0  0  0  0  0
  -20.2944  -21.0956   24.7200 C   0  0  0  0  0  0  0  0  0  0  0  0
  -20.8884  -18.6857   24.3916 C   0  0  0  0  0  0  0  0  0  0  0  0
  -19.0141  -19.6949   23.0911 C   0  0  0  0  0  0  0  0  0  0  0  0
  -22.9203  -19.3470   18.3095 C   0  0  0  0  0  0  0  0  0  0  0  0
  -31.0827  -22.8990   17.0706 C   0  0  0  0  0  0  0  0  0  0  0  0
  -30.0966  -24.0821   22.6267 C   0  0  0  0  0  0  0  0  0  0  0  0
  -31.3542  -24.4862   21.8542 C   0  0  0  0  0  0  0  0  0  0  0  0
  -29.6687  -22.6201   16.5212 C   0  0  0  0  0  0  0  0  0  0  0  0
  -28.8500  -24.8442   22.1925 C   0  0  0  0  0  0  0  0  0  1  0  0
  -21.3965  -20.3180   22.5185 C   0  0  1  0  0  0  0  0  0  0  0  0
  -22.5764  -17.6442   20.1043 C   0  0  2  0  0  0  0  0  0  0  0  0
  -20.4173  -19.9690   23.6747 C   0  0  0  0  0  0  0  0  0  0  0  0
  -27.0862  -15.8781   20.4819 N   0  0  0  0  0  0  0  0  0  0  0  0
  -30.9164  -25.0137   18.3367 N   0  0  0  0  0  0  0  0  0  0  0  0
  -30.9889  -25.4273   19.5971 N   0  0  0  0  0  0  0  0  0  0  0  0
  -31.2193  -24.3457   20.3590 N   0  0  0  0  0  0  0  0  0  0  0  0
  -28.2271  -16.4187   20.0211 N   0  0  0  0  0  0  0  0  0  0  0  0
  -21.9389  -22.6244   21.8043 N   0  0  0  0  0  0  0  0  0  0  0  0
  -28.0168  -19.8873   18.4356 N   0  0  0  0  0  0  0  0  0  0  0  0
  -30.3909  -15.8716   19.2278 N   0  0  0  0  0  0  0  0  0  0  0  0
  -28.5626  -11.8420   20.1311 N   0  0  0  0  0  0  0  0  0  0  0  0
  -20.6209  -26.0064   22.1522 N   0  0  0  0  0  0  0  0  0  0  0  0
  -21.5121  -19.2803   21.4996 N   0  0  0  0  0  0  0  0  0  0  0  0
  -28.8653  -21.8686   17.4597 N   0  0  0  0  0  0  0  0  0  0  0  0
  -23.3404  -18.0452   18.8891 N   0  3  0  0  0  0  0  0  0  0  0  0
  -30.4505  -12.9033   19.3773 O   0  0  0  0  0  0  0  0  0  0  0  0
  -21.1757  -24.2722   23.6037 O   0  0  0  0  0  0  0  0  0  0  0  0
  -19.9065  -21.6376   21.2282 O   0  0  0  0  0  0  0  0  0  0  0  0
  -23.7999  -18.9680   21.7130 O   0  0  0  0  0  0  0  0  0  0  0  0
  -29.5043  -19.8184   16.6577 O   0  0  0  0  0  0  0  0  0  0  0  0
  -23.4410  -10.9205   22.1198 O   0  0  0  0  0  0  0  0  0  0  0  0
  -27.7390  -24.3795   22.9581 O   0  0  0  0  0  0  0  0  0  1  0  0
  -22.5779   -6.4717   18.9786 F   0  0  0  0  0  0  0  0  0  0  0  0
  -25.4766   -9.1162   21.6263 F   0  0  0  0  0  0  0  0  0  0  0  0
  1  2  1  0  0  0  0
  1  5  2  0  0  0  0
  2  6  2  0  0  0  0
  3  8  2  0  0  0  0
  3 15  1  0  0  0  0
  4  9  1  0  0  0  0
  4 15  2  0  0  0  0
  5 17  1  0  0  0  0
  6 19  1  0  0  0  0
  7 10  2  0  0  0  0
  7 18  1  0  0  0  0
  8 21  1  0  0  0  0
  9 21  2  0  0  0  0
 10 22  1  0  0  0  0
 11 12  2  0  0  0  0
 11 23  1  0  0  0  0
 12 24  1  0  0  0  0
 13 20  1  0  0  0  0
 13 22  2  0  0  0  0
 14 24  2  0  0  0  0
 14 25  1  0  0  0  0
 15 26  1  0  0  0  0
 16 26  1  0  0  0  0
 16 29  2  0  0  0  0
 16 30  1  0  0  0  0
 17 19  2  0  0  0  0
 17 35  1  0  0  0  0
 18 20  2  0  0  0  0
 18 36  1  0  0  0  0
 19 44  1  0  0  0  0
 20 37  1  0  0  0  0
 21 79  1  0  0  0  0
 22 80  1  0  0  0  0
 23 25  2  0  0  0  0
 23 79  1  0  0  0  0
 24 81  1  0  0  0  0
 25 82  1  0  0  0  0
 26 61  2  0  0  0  0
 27 28  2  0  0  0  0
 27 53  1  0  0  0  0
 27 62  1  0  0  0  0
 28 47  1  0  0  0  0
 28 64  1  0  0  0  0
 29 65  1  0  0  0  0
 29 68  1  0  0  0  0
 30 69  1  0  0  0  0
 30 74  2  0  0  0  0
 31 45  1  0  0  0  0
 31 70  1  0  0  0  0
 31 75  2  0  0  0  0
 32 58  1  0  0  0  0
 32 66  1  0  0  0  0
 32 76  2  0  0  0  0
 33 59  1  0  0  0  0
 33 71  1  0  0  0  0
 33 77  2  0  0  0  0
 34 67  1  0  0  0  0
 34 72  1  0  0  0  0
 34 78  2  0  0  0  0
 35 38  1  0  0  0  0
 36 45  1  0  0  0  0
 37 66  1  0  0  0  0
 38 40  1  0  0  0  0
 39 41  1  0  0  0  0
 39 42  1  0  0  0  0
 40 44  1  0  0  0  0
 41 46  1  0  0  0  0
 42 67  1  0  0  0  0
 43 46  1  0  0  0  0
 43 67  1  0  0  0  0
 44 70  1  0  0  0  0
 45 66  1  0  0  0  0
 46 65  1  0  0  0  0
 48 59  1  0  0  0  0
 49 60  1  0  0  0  0
 50 60  1  0  0  0  0
 51 60  1  0  0  0  0
 52 73  1  0  0  0  0
 53 56  1  0  0  0  0
 54 55  1  0  0  0  0
 54 57  1  0  0  0  0
 55 64  1  0  0  0  0
 56 72  1  0  0  0  0
 57 80  1  0  0  0  0
 58 60  1  0  0  0  0
 58 71  1  0  0  0  0
 59 73  1  0  0  0  0
 61 65  1  0  0  0  0
 62 63  2  0  0  0  0
 63 64  1  0  0  0  0
M  CHG  1  73   1
M  ISO  4  34 100  57 101  72 100  80 101
M  END
> <Batch ID>
0079

> <Smiles>
CNC(C)C(=O)NC(C(=O)N1Cc2cc([101O:1][101CH2:1]CCn3nnc(CC[100NH:0][100C:0](=O)N4CCCC(n5nc(-c6ccc(Oc7ccc(F)cc7F)cc6)c(C(N)=O)c5N)C4)c3C)ccc2CC1C(=O)NC1CCCc2ccccc21)C(C)(C)C

> <Shape>
0.211

> <Color>
0.061

> <Negative vol penalty>
0.000

$$$$

  -OEChem-04052318413D

 85 93  0     1  0  0  0  0  0999 V2000
  -19.9068  -25.2975   24.1447 C   0  0  0  0  0  0  0  0  0  0  0  0
  -20.9323  -24.3981   23.8715 C   0  0  0  0  0  0  0  0  0  0  0  0
  -23.0080  -10.0113   19.8382 C   0  0  0  0  0  0  0  0  0  0  0  0
  -23.8904   -9.6978   22.0653 C   0  0  0  0  0  0  0  0  0  0  0  0
  -19.6293  -26.3296   23.2494 C   0  0  0  0  0  0  0  0  0  0  0  0
  -21.6803  -24.5295   22.7020 C   0  0  0  0  0  0  0  0  0  0  0  0
  -26.6520  -23.9997   23.5057 C   0  0  0  0  0  0  0  0  0  0  0  0
  -22.2590   -8.8421   19.9704 C   0  0  0  0  0  0  0  0  0  0  0  0
  -23.1413   -8.5286   22.1975 C   0  0  0  0  0  0  0  0  0  0  0  0
  -27.1370  -22.7019   23.6614 C   0  0  0  0  0  0  0  0  0  0  0  0
  -19.9370   -7.6875   22.8651 C   0  0  0  0  0  0  0  0  0  0  0  0
  -19.2437   -7.4955   24.0601 C   0  0  0  0  0  0  0  0  0  0  0  0
  -27.8842  -22.7124   21.3678 C   0  0  0  0  0  0  0  0  0  0  0  0
  -31.6462  -20.8983   23.5923 C   0  0  0  0  0  0  0  0  0  0  0  0
  -20.4894   -5.4637   24.4564 C   0  0  0  0  0  0  0  0  0  0  0  0
  -23.8238  -10.4391   20.8857 C   0  0  0  0  0  0  0  0  0  0  0  0
  -24.2021  -12.9536   21.0906 C   0  0  0  0  0  0  0  0  0  0  0  0
  -20.3805  -26.4796   22.0730 C   0  0  0  0  0  0  0  0  0  0  0  0
  -26.7699  -24.6606   22.2746 C   0  0  0  0  0  0  0  0  0  0  0  0
  -21.4117  -25.5638   21.7893 C   0  0  0  0  0  0  0  0  0  0  0  0
  -27.4022  -24.0194   21.1998 C   0  0  0  0  0  0  0  0  0  0  0  0
  -30.9460  -19.7806   23.1520 C   0  0  0  0  0  0  0  0  0  0  0  0
  -31.3691  -19.1070   22.0116 C   0  0  0  0  0  0  0  0  0  0  0  0
  -22.3255   -8.1008   21.1500 C   0  0  0  0  0  0  0  0  0  0  0  0
  -27.7507  -22.0569   22.5916 C   0  0  0  0  0  0  0  0  0  0  0  0
  -20.9065   -6.7675   22.4657 C   0  0  0  0  0  0  0  0  0  0  0  0
  -19.5199   -6.3836   24.8558 C   0  0  0  0  0  0  0  0  0  0  0  0
  -21.1827   -5.6557   23.2614 C   0  0  0  0  0  0  0  0  0  0  0  0
  -24.5983  -11.6465   20.7495 C   0  0  0  0  0  0  0  0  0  0  0  0
  -32.7540  -21.2986   22.8628 C   0  0  0  0  0  0  0  0  0  0  0  0
  -32.4892  -19.5875   21.3527 C   0  0  0  0  0  0  0  0  0  0  0  0
  -25.2859  -13.7350   20.7722 C   0  0  0  0  0  0  0  0  0  0  0  0
  -22.9651  -13.4197   21.6458 C   0  0  0  0  0  0  0  0  0  0  0  0
  -24.7146  -25.8405   20.1562 C   0  0  0  0  0  0  0  0  0  0  0  0
  -27.4135  -26.9438   18.7347 C   0  0  0  0  0  0  0  0  0  0  0  0
  -30.7803  -26.6303   18.2724 C   0  0  0  0  0  0  0  0  0  0  0  0
  -30.7885  -14.6654   20.7912 C   0  0  0  0  0  0  0  0  0  0  0  0
  -20.0126  -27.5825   21.1124 C   0  0  0  0  0  0  0  0  0  0  0  0
  -26.2654  -26.0703   22.1306 C   0  0  0  0  0  0  0  0  0  0  0  0
  -27.5718  -24.6928   19.8633 C   0  0  0  0  0  0  0  0  0  0  0  0
  -21.0964  -27.8764   20.0784 C   0  0  0  0  0  0  0  0  0  0  0  0
  -29.4831  -12.6401   18.1700 C   0  0  0  0  0  0  0  0  0  0  0  0
  -21.6213  -26.5789   19.4717 C   0  0  0  0  0  0  0  0  0  0  0  0
  -28.0662  -12.3041   18.6385 C   0  0  0  0  0  0  0  0  0  0  0  0
  -30.4672  -12.6861   19.3368 C   0  0  0  0  0  0  0  0  0  0  0  0
  -28.6558  -13.2395   20.9136 C   0  0  0  0  0  0  0  0  0  0  0  0
  -22.2615  -25.6882   20.5434 C   0  0  1  0  0  0  0  0  0  0  0  0
  -25.9792  -26.4576   20.6830 C   0  0  1  0  0  0  0  0  0  0  0  0
  -27.6168  -13.2368   19.7793 C   0  0  2  0  0  0  0  0  0  0  0  0
  -33.0109  -23.7863   22.6848 C   0  0  0  0  0  0  0  0  0  0  0  0
  -34.3900  -19.3759   19.7313 C   0  0  0  0  0  0  0  0  0  0  0  0
  -32.7011  -27.6551   17.0244 C   0  0  0  0  0  0  0  0  0  0  0  0
  -26.4661  -25.5900   16.1696 C   0  0  0  0  0  0  0  0  0  0  0  0
  -28.7919  -25.8199   15.2718 C   0  0  0  0  0  0  0  0  0  0  0  0
  -27.4705  -27.8570   15.8432 C   0  0  0  0  0  0  0  0  0  0  0  0
  -32.1846  -27.3352   20.7803 C   0  0  0  0  0  0  0  0  0  0  0  0
  -29.7333  -19.3229   23.9252 C   0  0  0  0  0  0  0  0  0  0  0  0
  -30.6392  -17.9036   21.5171 C   0  0  0  0  0  0  0  0  0  0  0  0
  -33.5305  -22.4931   23.3067 C   0  0  0  0  0  0  0  0  0  0  0  0
  -32.9927  -18.9052   20.1228 C   0  0  0  0  0  0  0  0  0  0  0  0
  -30.9580  -16.6263   22.3030 C   0  0  0  0  0  0  0  0  0  0  0  0
  -28.6741  -20.4136   24.0416 C   0  0  0  0  0  0  0  0  0  1  0  0
  -28.3760  -26.4048   17.7041 C   0  0  1  0  0  0  0  0  0  0  0  0
  -31.9028  -27.6513   18.3188 C   0  0  2  0  0  0  0  0  0  0  0  0
  -27.7714  -26.4042   16.2717 C   0  0  0  0  0  0  0  0  0  0  0  0
  -25.8369  -11.5964   20.2522 N   0  0  0  0  0  0  0  0  0  0  0  0
  -33.1952  -20.6698   21.7503 N   0  0  0  0  0  0  0  0  0  0  0  0
  -26.2284  -12.8817   20.2785 N   0  0  0  0  0  0  0  0  0  0  0  0
  -27.0564  -26.0688   19.7704 N   0  0  0  0  0  0  0  0  0  0  0  0
  -29.9830  -13.5893   20.3835 N   0  0  0  0  0  0  0  0  0  0  0  0
  -25.5149  -15.0618   20.8690 N   0  0  0  0  0  0  0  0  0  0  0  0
  -21.9573  -12.4829   21.9124 N   0  0  0  0  0  0  0  0  0  0  0  0
  -23.5839  -26.1715   20.8783 N   0  0  0  0  0  0  0  0  0  0  0  0
  -29.5981  -27.1905   17.8365 N   0  0  0  0  0  0  0  0  0  0  0  0
  -30.2517  -15.4764   21.7836 N   0  0  0  0  0  0  0  0  0  0  0  0
  -32.8324  -27.3483   19.4435 N   0  3  0  0  0  0  0  0  0  0  0  0
  -22.7535  -14.6333   21.8828 O   0  0  0  0  0  0  0  0  0  0  0  0
  -24.7610  -25.1188   19.1670 O   0  0  0  0  0  0  0  0  0  0  0  0
  -26.9996  -28.1010   18.6288 O   0  0  0  0  0  0  0  0  0  0  0  0
  -30.9374  -25.4528   18.5875 O   0  0  0  0  0  0  0  0  0  0  0  0
  -31.9012  -14.8901   20.3030 O   0  0  0  0  0  0  0  0  0  0  0  0
  -21.5945   -6.9600   21.2795 O   0  0  0  0  0  0  0  0  0  0  0  0
  -28.2244  -20.7900   22.7407 O   0  0  0  0  0  0  0  0  0  1  0  0
  -18.8551   -6.2002   26.0041 F   0  0  0  0  0  0  0  0  0  0  0  0
  -22.1138   -4.7691   22.8835 F   0  0  0  0  0  0  0  0  0  0  0  0
  1  2  1  0  0  0  0
  1  5  2  0  0  0  0
  2  6  2  0  0  0  0
  3  8  2  0  0  0  0
  3 16  1  0  0  0  0
  4  9  1  0  0  0  0
  4 16  2  0  0  0  0
  5 18  1  0  0  0  0
  6 20  1  0  0  0  0
  7 10  2  0  0  0  0
  7 19  1  0  0  0  0
  8 24  1  0  0  0  0
  9 24  2  0  0  0  0
 10 25  1  0  0  0  0
 11 12  2  0  0  0  0
 11 26  1  0  0  0  0
 12 27  1  0  0  0  0
 13 21  1  0  0  0  0
 13 25  2  0  0  0  0
 14 22  2  0  0  0  0
 14 30  1  0  0  0  0
 15 27  2  0  0  0  0
 15 28  1  0  0  0  0
 16 29  1  0  0  0  0
 17 29  1  0  0  0  0
 17 32  2  0  0  0  0
 17 33  1  0  0  0  0
 18 20  2  0  0  0  0
 18 38  1  0  0  0  0
 19 21  2  0  0  0  0
 19 39  1  0  0  0  0
 20 47  1  0  0  0  0
 21 40  1  0  0  0  0
 22 23  1  0  0  0  0
 22 57  1  0  0  0  0
 23 31  2  0  0  0  0
 23 58  1  0  0  0  0
 24 82  1  0  0  0  0
 25 83  1  0  0  0  0
 26 28  2  0  0  0  0
 26 82  1  0  0  0  0
 27 84  1  0  0  0  0
 28 85  1  0  0  0  0
 29 66  2  0  0  0  0
 30 59  1  0  0  0  0
 30 67  2  0  0  0  0
 31 60  1  0  0  0  0
 31 67  1  0  0  0  0
 32 68  1  0  0  0  0
 32 71  1  0  0  0  0
 33 72  1  0  0  0  0
 33 77  2  0  0  0  0
 34 48  1  0  0  0  0
 34 73  1  0  0  0  0
 34 78  2  0  0  0  0
 35 63  1  0  0  0  0
 35 69  1  0  0  0  0
 35 79  2  0  0  0  0
 36 64  1  0  0  0  0
 36 74  1  0  0  0  0
 36 80  2  0  0  0  0
 37 70  1  0  0  0  0
 37 75  1  0  0  0  0
 37 81  2  0  0  0  0
 38 41  1  0  0  0  0
 39 48  1  0  0  0  0
 40 69  1  0  0  0  0
 41 43  1  0  0  0  0
 42 44  1  0  0  0  0
 42 45  1  0  0  0  0
 43 47  1  0  0  0  0
 44 49  1  0  0  0  0
 45 70  1  0  0  0  0
 46 49  1  0  0  0  0
 46 70  1  0  0  0  0
 47 73  1  0  0  0  0
 48 69  1  0  0  0  0
 49 68  1  0  0  0  0
 50 59  1  0  0  0  0
 51 60  1  0  0  0  0
 52 64  1  0  0  0  0
 53 65  1  0  0  0  0
 54 65  1  0  0  0  0
 55 65  1  0  0  0  0
 56 76  1  0  0  0  0
 57 62  1  0  0  0  0
 58 61  1  0  0  0  0
 61 75  1  0  0  0  0
 62 83  1  0  0  0  0
 63 65  1  0  0  0  0
 63 74  1  0  0  0  0
 64 76  1  0  0  0  0
 66 68  1  0  0  0  0
M  CHG  1  76   1
M  ISO  4  37 100  62 101  75 100  83 101
M  END
> <Batch ID>
0079

> <Smiles>
CCc1cc(C[101CH2:1][101O:1]c2ccc3c(c2)CN(C(=O)C(NC(=O)C(C)NC)C(C)(C)C)C(C(=O)NC2CCCc4ccccc42)C3)c(CC[100NH:0][100C:0](=O)N2CCCC(n3nc(-c4ccc(Oc5ccc(F)cc5F)cc4)c(C(N)=O)c3N)C2)c(CC)n1

> <Shape>
0.253

> <Color>
0.182

> <Negative vol penalty>
0.000

$$$$

  -OEChem-04052318413D

 89 97  0     1  0  0  0  0  0999 V2000
  -22.5171  -24.5594   28.1410 C   0  0  0  0  0  0  0  0  0  0  0  0
  -23.8490  -24.9043   27.9347 C   0  0  0  0  0  0  0  0  0  0  0  0
  -29.7234  -13.2281   19.4012 C   0  0  0  0  0  0  0  0  0  0  0  0
  -30.0445  -14.1491   21.6116 C   0  0  0  0  0  0  0  0  0  0  0  0
  -21.5401  -24.9880   27.2434 C   0  0  0  0  0  0  0  0  0  0  0  0
  -24.2048  -25.6771   26.8299 C   0  0  0  0  0  0  0  0  0  0  0  0
  -28.6421  -29.8893   26.5589 C   0  0  0  0  0  0  0  0  0  0  0  0
  -30.3950  -12.0681   19.7870 C   0  0  0  0  0  0  0  0  0  0  0  0
  -30.7161  -12.9890   21.9974 C   0  0  0  0  0  0  0  0  0  0  0  0
  -29.9512  -29.8433   26.0812 C   0  0  0  0  0  0  0  0  0  0  0  0
  -32.1996  -10.1231   23.6718 C   0  0  0  0  0  0  0  0  0  0  0  0
  -31.8728   -9.5641   24.9073 C   0  0  0  0  0  0  0  0  0  0  0  0
  -29.2080  -30.7540   23.9746 C   0  0  0  0  0  0  0  0  0  0  0  0
  -29.5874   -9.2830   24.1756 C   0  0  0  0  0  0  0  0  0  0  0  0
  -30.1044  -26.7370   20.2680 C   0  0  0  0  0  0  0  0  0  0  0  0
  -30.0432  -25.0192   21.7033 C   0  0  0  0  0  0  0  0  0  0  0  0
  -29.5482  -14.2687   20.3135 C   0  0  0  0  0  0  0  0  0  0  0  0
  -27.4737  -15.7220   20.0102 C   0  0  0  0  0  0  0  0  0  0  0  0
  -21.8828  -25.7746   26.1323 C   0  0  0  0  0  0  0  0  0  0  0  0
  -27.6028  -30.3585   25.7428 C   0  0  0  0  0  0  0  0  0  0  0  0
  -23.2316  -26.1155   25.9158 C   0  0  0  0  0  0  0  0  0  0  0  0
  -27.8871  -30.8073   24.4452 C   0  0  0  0  0  0  0  0  0  0  0  0
  -28.8226  -26.2328   20.2517 C   0  0  0  0  0  0  0  0  0  0  0  0
  -28.7839  -25.1459   21.1596 C   0  0  0  0  0  0  0  0  0  0  0  0
  -30.8913  -11.9485   21.0851 C   0  0  0  0  0  0  0  0  0  0  0  0
  -30.2338  -30.2730   24.7879 C   0  0  0  0  0  0  0  0  0  0  0  0
  -31.2203  -10.2621   22.6883 C   0  0  0  0  0  0  0  0  0  0  0  0
  -30.5667   -9.1440   25.1592 C   0  0  0  0  0  0  0  0  0  0  0  0
  -29.9142   -9.8421   22.9401 C   0  0  0  0  0  0  0  0  0  0  0  0
  -28.8550  -15.4675   19.9154 C   0  0  0  0  0  0  0  0  0  0  0  0
  -27.3228  -16.9902   19.5047 C   0  0  0  0  0  0  0  0  0  0  0  0
  -26.4212  -14.8869   20.5106 C   0  0  0  0  0  0  0  0  0  0  0  0
  -24.9405  -29.0943   24.5521 C   0  0  0  0  0  0  0  0  0  0  0  0
  -24.4148  -32.1309   23.5397 C   0  0  0  0  0  0  0  0  0  0  0  0
  -25.7178  -35.1708   22.6982 C   0  0  0  0  0  0  0  0  0  0  0  0
  -28.9705  -22.3092   19.1329 C   0  0  0  0  0  0  0  0  0  0  0  0
  -20.7982  -26.1746   25.1637 C   0  0  0  0  0  0  0  0  0  0  0  0
  -26.2003  -30.4268   26.2822 C   0  0  0  0  0  0  0  0  0  0  0  0
  -26.8103  -31.3389   23.5362 C   0  0  0  0  0  0  0  0  0  0  0  0
  -21.2081  -27.3048   24.2230 C   0  0  0  0  0  0  0  0  0  0  0  0
  -30.5790  -19.9482   17.0080 C   0  0  0  0  0  0  0  0  0  0  0  0
  -22.5915  -27.0376   23.6386 C   0  0  0  0  0  0  0  0  0  0  0  0
  -30.1651  -18.5940   17.5865 C   0  0  0  0  0  0  0  0  0  0  0  0
  -30.7965  -20.9879   18.1052 C   0  0  0  0  0  0  0  0  0  0  0  0
  -29.2486  -19.8012   19.6117 C   0  0  0  0  0  0  0  0  0  0  0  0
  -23.6538  -26.9732   24.7427 C   0  0  1  0  0  0  0  0  0  0  0  0
  -25.1388  -30.4418   25.1866 C   0  0  1  0  0  0  0  0  0  0  0  0
  -28.9633  -18.7352   18.5400 C   0  0  2  0  0  0  0  0  0  0  0  0
  -25.0437  -37.4428   21.8730 C   0  0  0  0  0  0  0  0  0  0  0  0
  -33.6340  -29.1325   24.5162 C   0  0  0  0  0  0  0  0  0  0  0  0
  -28.2028  -27.3700   18.0911 C   0  0  0  0  0  0  0  0  0  0  0  0
  -26.8928  -27.8508   20.1860 C   0  0  0  0  0  0  0  0  0  0  0  0
  -26.6276  -25.6782   19.0067 C   0  0  0  0  0  0  0  0  0  0  0  0
  -26.3641  -25.0437   22.0708 C   0  0  0  0  0  0  0  0  0  0  0  0
  -27.9789  -23.2244   22.5586 C   0  0  0  0  0  0  0  0  0  0  0  0
  -24.0366  -30.9964   20.7326 C   0  0  0  0  0  0  0  0  0  0  0  0
  -24.3169  -33.3159   19.8329 C   0  0  0  0  0  0  0  0  0  0  0  0
  -22.4140  -32.7935   21.3589 C   0  0  0  0  0  0  0  0  0  0  0  0
  -26.7707  -36.4932   25.1276 C   0  0  0  0  0  0  0  0  0  0  0  0
  -32.5331  -26.8951   22.8278 C   0  0  0  0  0  0  0  0  0  0  0  0
  -31.8701  -28.2759   22.9241 C   0  0  0  0  0  0  0  0  0  0  0  0
  -32.2942  -26.2098   21.4773 C   0  0  0  0  0  0  0  0  0  0  0  0
  -27.0836  -23.4939   20.2262 C   0  0  0  0  0  0  0  0  0  0  0  0
  -24.7579  -32.9185   22.2983 C   0  0  1  0  0  0  0  0  0  0  0  0
  -25.3214  -36.5814   23.0951 C   0  0  2  0  0  0  0  0  0  0  0  0
  -32.1418  -28.9496   24.2739 C   0  0  2  0  0  0  0  0  0  1  0  0
  -27.7027  -26.7412   19.4349 C   0  0  0  0  0  0  0  0  0  0  0  0
  -27.6167  -24.2985   21.4734 C   0  0  0  0  0  0  0  0  0  0  0  0
  -23.9016  -32.4943   21.0719 C   0  0  0  0  0  0  0  0  0  0  0  0
  -29.5333  -16.4916   19.3907 N   0  0  0  0  0  0  0  0  0  0  0  0
  -30.8374  -25.9917   21.1542 N   0  0  0  0  0  0  0  0  0  0  0  0
  -28.5741  -17.4019   19.1512 N   0  0  0  0  0  0  0  0  0  0  0  0
  -25.4539  -31.3798   24.1072 N   0  0  0  0  0  0  0  0  0  0  0  0
  -29.6199  -21.0739   18.9735 N   0  0  0  0  0  0  0  0  0  0  0  0
  -26.2431  -17.7820   19.3324 N   0  0  0  0  0  0  0  0  0  0  0  0
  -26.7511  -13.6129   20.9927 N   0  0  0  0  0  0  0  0  0  0  0  0
  -24.0009  -28.3057   25.1883 N   0  0  0  0  0  0  0  0  0  0  0  0
  -24.6287  -34.3261   22.6592 N   0  0  0  0  0  0  0  0  0  0  0  0
  -27.8600  -22.3017   19.9680 N   0  0  0  0  0  0  0  0  0  0  0  0
  -26.4107  -37.2228   23.8845 N   0  3  0  0  0  0  0  0  0  0  0  0
  -25.2214  -15.2531   20.5145 O   0  0  0  0  0  0  0  0  0  0  0  0
  -25.5906  -28.7930   23.5580 O   0  0  0  0  0  0  0  0  0  0  0  0
  -23.2691  -32.1860   23.9934 O   0  0  0  0  0  0  0  0  0  0  0  0
  -26.8771  -34.8512   22.4443 O   0  0  0  0  0  0  0  0  0  0  0  0
  -29.3490  -23.3412   18.5684 O   0  0  0  0  0  0  0  0  0  0  0  0
  -31.5465  -10.8165   21.4619 O   0  0  0  0  0  0  0  0  0  0  0  0
  -31.5105  -30.2286   24.3190 O   0  0  0  0  0  0  0  0  0  1  0  0
  -30.2534   -8.6058   26.3450 F   0  0  0  0  0  0  0  0  0  0  0  0
  -28.9694   -9.9720   21.9987 F   0  0  0  0  0  0  0  0  0  0  0  0
  1  2  1  0  0  0  0
  1  5  2  0  0  0  0
  2  6  2  0  0  0  0
  3  8  2  0  0  0  0
  3 17  1  0  0  0  0
  4  9  1  0  0  0  0
  4 17  2  0  0  0  0
  5 19  1  0  0  0  0
  6 21  1  0  0  0  0
  7 10  2  0  0  0  0
  7 20  1  0  0  0  0
  8 25  1  0  0  0  0
  9 25  2  0  0  0  0
 10 26  1  0  0  0  0
 11 12  2  0  0  0  0
 11 27  1  0  0  0  0
 12 28  1  0  0  0  0
 13 22  1  0  0  0  0
 13 26  2  0  0  0  0
 14 28  2  0  0  0  0
 14 29  1  0  0  0  0
 15 23  2  0  0  0  0
 15 71  1  0  0  0  0
 16 24  2  0  0  0  0
 16 71  1  0  0  0  0
 17 30  1  0  0  0  0
 18 30  1  0  0  0  0
 18 31  2  0  0  0  0
 18 32  1  0  0  0  0
 19 21  2  0  0  0  0
 19 37  1  0  0  0  0
 20 22  2  0  0  0  0
 20 38  1  0  0  0  0
 21 46  1  0  0  0  0
 22 39  1  0  0  0  0
 23 24  1  0  0  0  0
 23 67  1  0  0  0  0
 24 68  1  0  0  0  0
 25 86  1  0  0  0  0
 26 87  1  0  0  0  0
 27 29  2  0  0  0  0
 27 86  1  0  0  0  0
 28 88  1  0  0  0  0
 29 89  1  0  0  0  0
 30 70  2  0  0  0  0
 31 72  1  0  0  0  0
 31 75  1  0  0  0  0
 32 76  1  0  0  0  0
 32 81  2  0  0  0  0
 33 47  1  0  0  0  0
 33 77  1  0  0  0  0
 33 82  2  0  0  0  0
 34 64  1  0  0  0  0
 34 73  1  0  0  0  0
 34 83  2  0  0  0  0
 35 65  1  0  0  0  0
 35 78  1  0  0  0  0
 35 84  2  0  0  0  0
 36 74  1  0  0  0  0
 36 79  1  0  0  0  0
 36 85  2  0  0  0  0
 37 40  1  0  0  0  0
 38 47  1  0  0  0  0
 39 73  1  0  0  0  0
 40 42  1  0  0  0  0
 41 43  1  0  0  0  0
 41 44  1  0  0  0  0
 42 46  1  0  0  0  0
 43 48  1  0  0  0  0
 44 74  1  0  0  0  0
 45 48  1  0  0  0  0
 45 74  1  0  0  0  0
 46 77  1  0  0  0  0
 47 73  1  0  0  0  0
 48 72  1  0  0  0  0
 49 65  1  0  0  0  0
 50 66  1  0  0  0  0
 51 67  1  0  0  0  0
 52 67  1  0  0  0  0
 53 67  1  0  0  0  0
 54 68  1  0  0  0  0
 55 68  1  0  0  0  0
 56 69  1  0  0  0  0
 57 69  1  0  0  0  0
 58 69  1  0  0  0  0
 59 80  1  0  0  0  0
 60 61  1  0  0  0  0
 60 62  1  0  0  0  0
 61 66  1  0  0  0  0
 62 71  1  0  0  0  0
 63 68  1  0  0  0  0
 63 79  1  0  0  0  0
 64 69  1  0  0  0  0
 64 78  1  0  0  0  0
 65 80  1  0  0  0  0
 66 87  1  0  0  0  0
 70 72  1  0  0  0  0
M  CHG  1  80   1
M  ISO  4  36 100  66 101  79 100  87 101
M  END
> <Batch ID>
0079

> <Smiles>
CNC(C)C(=O)NC(C(=O)N1Cc2cc([101O:1][101CH:1](C)CCCn3cc(C(C)(C)C)c(C(C)(C)C[100NH:0][100C:0](=O)N4CCCC(n5nc(-c6ccc(Oc7ccc(F)cc7F)cc6)c(C(N)=O)c5N)C4)c3)ccc2CC1C(=O)NC1CCCc2ccccc21)C(C)(C)C

> <Shape>
0.236

> <Color>
0.112

> <Negative vol penalty>
0.000

$$$$

  -OEChem-04052318413D

 83 91  0     1  0  0  0  0  0999 V2000
  -22.3131  -18.1965   33.2199 C   0  0  0  0  0  0  0  0  0  0  0  0
  -22.9309  -17.3236   32.3301 C   0  0  0  0  0  0  0  0  0  0  0  0
  -23.0740   -9.8689   19.9417 C   0  0  0  0  0  0  0  0  0  0  0  0
  -23.8384   -9.8746   22.2336 C   0  0  0  0  0  0  0  0  0  0  0  0
  -22.9263  -19.4047   33.5486 C   0  0  0  0  0  0  0  0  0  0  0  0
  -24.1620  -17.6591   31.7675 C   0  0  0  0  0  0  0  0  0  0  0  0
  -30.2529  -14.6666   29.4736 C   0  0  0  0  0  0  0  0  0  0  0  0
  -22.3314   -8.7151   20.1922 C   0  0  0  0  0  0  0  0  0  0  0  0
  -23.0957   -8.7207   22.4841 C   0  0  0  0  0  0  0  0  0  0  0  0
  -31.0849  -14.6390   28.3551 C   0  0  0  0  0  0  0  0  0  0  0  0
  -19.8692   -7.9205   23.0923 C   0  0  0  0  0  0  0  0  0  0  0  0
  -19.1146   -7.8792   24.2647 C   0  0  0  0  0  0  0  0  0  0  0  0
  -32.0879  -16.7174   29.0575 C   0  0  0  0  0  0  0  0  0  0  0  0
  -20.3586   -5.9419   24.9972 C   0  0  0  0  0  0  0  0  0  0  0  0
  -30.3132  -17.9579   25.3443 C   0  0  0  0  0  0  0  0  0  0  0  0
  -23.8276  -10.4486   20.9624 C   0  0  0  0  0  0  0  0  0  0  0  0
  -24.1676  -12.9741   20.8436 C   0  0  0  0  0  0  0  0  0  0  0  0
  -24.1700  -19.7508   32.9972 C   0  0  0  0  0  0  0  0  0  0  0  0
  -30.3248  -15.7272   30.3881 C   0  0  0  0  0  0  0  0  0  0  0  0
  -24.7918  -18.8737   32.0881 C   0  0  0  0  0  0  0  0  0  0  0  0
  -31.2576  -16.7549   30.1880 C   0  0  0  0  0  0  0  0  0  0  0  0
  -31.1775  -17.4811   24.3893 C   0  0  0  0  0  0  0  0  0  0  0  0
  -22.3422   -8.1410   21.4634 C   0  0  0  0  0  0  0  0  0  0  0  0
  -32.0005  -15.6660   28.1454 C   0  0  0  0  0  0  0  0  0  0  0  0
  -20.8685   -6.9724   22.8723 C   0  0  0  0  0  0  0  0  0  0  0  0
  -19.3593   -6.8899   25.2171 C   0  0  0  0  0  0  0  0  0  0  0  0
  -21.1132   -5.9832   23.8248 C   0  0  0  0  0  0  0  0  0  0  0  0
  -24.5954  -11.6402   20.7040 C   0  0  0  0  0  0  0  0  0  0  0  0
  -30.3896  -17.3640   23.2285 C   0  0  0  0  0  0  0  0  0  0  0  0
  -25.2586  -13.7245   20.4788 C   0  0  0  0  0  0  0  0  0  0  0  0
  -22.8976  -13.4888   21.2654 C   0  0  0  0  0  0  0  0  0  0  0  0
  -28.3049  -17.9697   31.3857 C   0  0  0  0  0  0  0  0  0  0  0  0
  -30.7026  -18.6563   33.4599 C   0  0  0  0  0  0  0  0  0  0  0  0
  -34.0352  -18.5226   34.1827 C   0  0  0  0  0  0  0  0  0  0  0  0
  -30.7421  -14.7468   20.6573 C   0  0  0  0  0  0  0  0  0  0  0  0
  -24.7717  -21.0891   33.3461 C   0  0  0  0  0  0  0  0  0  0  0  0
  -29.4389  -15.7286   31.6037 C   0  0  0  0  0  0  0  0  0  0  0  0
  -31.3883  -17.9057   31.1508 C   0  0  0  0  0  0  0  0  0  0  0  0
  -26.2531  -21.2010   32.9953 C   0  0  0  0  0  0  0  0  0  0  0  0
  -29.6013  -12.3635   18.2709 C   0  0  0  0  0  0  0  0  0  0  0  0
  -26.5094  -20.6748   31.5866 C   0  0  0  0  0  0  0  0  0  0  0  0
  -28.1649  -12.0685   18.7064 C   0  0  0  0  0  0  0  0  0  0  0  0
  -30.5206  -12.5839   19.4701 C   0  0  0  0  0  0  0  0  0  0  0  0
  -28.6211  -13.3127   20.8610 C   0  0  0  0  0  0  0  0  0  0  0  0
  -26.1390  -19.1909   31.4761 C   0  0  1  0  0  0  0  0  0  0  0  0
  -29.2413  -17.1200   32.1974 C   0  0  1  0  0  0  0  0  0  0  0  0
  -27.6448  -13.1384   19.6851 C   0  0  2  0  0  0  0  0  0  0  0  0
  -27.2176  -17.5011   26.1820 C   0  0  0  0  0  0  0  0  0  0  0  0
  -30.6261  -17.9543   20.7878 C   0  0  0  0  0  0  0  0  0  0  0  0
  -35.6998  -19.2004   35.9341 C   0  0  0  0  0  0  0  0  0  0  0  0
  -30.5574  -21.5415   32.4779 C   0  0  0  0  0  0  0  0  0  0  0  0
  -32.7998  -21.9354   33.5192 C   0  0  0  0  0  0  0  0  0  0  0  0
  -30.8583  -21.2942   34.9482 C   0  0  0  0  0  0  0  0  0  0  0  0
  -34.8164  -15.7140   34.6928 C   0  0  0  0  0  0  0  0  0  0  0  0
  -32.6406  -17.1589   24.5594 C   0  0  0  0  0  0  0  0  0  0  0  0
  -32.9339  -15.6603   24.6581 C   0  0  0  0  0  0  0  0  0  0  0  0
  -27.8815  -18.5626   25.3216 C   0  0  0  0  0  0  0  0  0  0  0  0
  -32.3088  -15.0021   25.8826 C   0  0  0  0  0  0  0  0  0  1  0  0
  -30.8090  -16.8965   21.8957 C   0  0  2  0  0  0  0  0  0  0  0  0
  -31.9100  -19.5621   33.4363 C   0  0  1  0  0  0  0  0  0  0  0  0
  -34.7777  -18.0980   35.4369 C   0  0  2  0  0  0  0  0  0  0  0  0
  -31.5278  -21.0628   33.5760 C   0  0  0  0  0  0  0  0  0  0  0  0
  -25.8595  -11.5454   20.2832 N   0  0  0  0  0  0  0  0  0  0  0  0
  -29.1221  -17.7363   23.4260 N   0  0  0  0  0  0  0  0  0  0  0  0
  -29.1070  -18.0919   24.7219 N   0  0  0  0  0  0  0  0  0  0  0  0
  -26.2354  -12.8293   20.1552 N   0  0  0  0  0  0  0  0  0  0  0  0
  -30.4957  -17.8652   32.3209 N   0  0  0  0  0  0  0  0  0  0  0  0
  -29.9711  -13.6114   20.3580 N   0  0  0  0  0  0  0  0  0  0  0  0
  -25.4680  -15.0562   20.4064 N   0  0  0  0  0  0  0  0  0  0  0  0
  -21.8869  -12.5787   21.6040 N   0  0  0  0  0  0  0  0  0  0  0  0
  -27.1710  -18.3669   32.0682 N   0  0  0  0  0  0  0  0  0  0  0  0
  -32.8067  -19.0744   34.4786 N   0  0  0  0  0  0  0  0  0  0  0  0
  -30.1440  -15.6746   21.5012 N   0  0  0  0  0  0  0  0  0  0  0  0
  -35.5992  -16.8843   35.1666 N   0  3  0  0  0  0  0  0  0  0  0  0
  -22.6607  -14.7192   21.3242 O   0  0  0  0  0  0  0  0  0  0  0  0
  -28.5909  -18.2459   30.2265 O   0  0  0  0  0  0  0  0  0  0  0  0
  -29.9740  -18.6455   34.4552 O   0  0  0  0  0  0  0  0  0  0  0  0
  -34.5003  -18.3825   33.0537 O   0  0  0  0  0  0  0  0  0  0  0  0
  -31.8770  -14.9234   20.2016 O   0  0  0  0  0  0  0  0  0  0  0  0
  -21.6174   -7.0153   21.7083 O   0  0  0  0  0  0  0  0  0  0  0  0
  -32.8133  -15.6418   27.0542 O   0  0  0  0  0  0  0  0  0  1  0  0
  -18.6356   -6.8513   26.3436 F   0  0  0  0  0  0  0  0  0  0  0  0
  -22.0727   -5.0705   23.6196 F   0  0  0  0  0  0  0  0  0  0  0  0
  1  2  1  0  0  0  0
  1  5  2  0  0  0  0
  2  6  2  0  0  0  0
  3  8  2  0  0  0  0
  3 16  1  0  0  0  0
  4  9  1  0  0  0  0
  4 16  2  0  0  0  0
  5 18  1  0  0  0  0
  6 20  1  0  0  0  0
  7 10  2  0  0  0  0
  7 19  1  0  0  0  0
  8 23  1  0  0  0  0
  9 23  2  0  0  0  0
 10 24  1  0  0  0  0
 11 12  2  0  0  0  0
 11 25  1  0  0  0  0
 12 26  1  0  0  0  0
 13 21  1  0  0  0  0
 13 24  2  0  0  0  0
 14 26  2  0  0  0  0
 14 27  1  0  0  0  0
 15 22  2  0  0  0  0
 15 65  1  0  0  0  0
 16 28  1  0  0  0  0
 17 28  1  0  0  0  0
 17 30  2  0  0  0  0
 17 31  1  0  0  0  0
 18 20  2  0  0  0  0
 18 36  1  0  0  0  0
 19 21  2  0  0  0  0
 19 37  1  0  0  0  0
 20 45  1  0  0  0  0
 21 38  1  0  0  0  0
 22 29  1  0  0  0  0
 22 55  1  0  0  0  0
 23 80  1  0  0  0  0
 24 81  1  0  0  0  0
 25 27  2  0  0  0  0
 25 80  1  0  0  0  0
 26 82  1  0  0  0  0
 27 83  1  0  0  0  0
 28 63  2  0  0  0  0
 29 59  1  0  0  0  0
 29 64  2  0  0  0  0
 30 66  1  0  0  0  0
 30 69  1  0  0  0  0
 31 70  1  0  0  0  0
 31 75  2  0  0  0  0
 32 46  1  0  0  0  0
 32 71  1  0  0  0  0
 32 76  2  0  0  0  0
 33 60  1  0  0  0  0
 33 67  1  0  0  0  0
 33 77  2  0  0  0  0
 34 61  1  0  0  0  0
 34 72  1  0  0  0  0
 34 78  2  0  0  0  0
 35 68  1  0  0  0  0
 35 73  1  0  0  0  0
 35 79  2  0  0  0  0
 36 39  1  0  0  0  0
 37 46  1  0  0  0  0
 38 67  1  0  0  0  0
 39 41  1  0  0  0  0
 40 42  1  0  0  0  0
 40 43  1  0  0  0  0
 41 45  1  0  0  0  0
 42 47  1  0  0  0  0
 43 68  1  0  0  0  0
 44 47  1  0  0  0  0
 44 68  1  0  0  0  0
 45 71  1  0  0  0  0
 46 67  1  0  0  0  0
 47 66  1  0  0  0  0
 48 57  1  0  0  0  0
 49 59  1  0  0  0  0
 50 61  1  0  0  0  0
 51 62  1  0  0  0  0
 52 62  1  0  0  0  0
 53 62  1  0  0  0  0
 54 74  1  0  0  0  0
 55 56  1  0  0  0  0
 56 58  1  0  0  0  0
 57 65  1  0  0  0  0
 58 81  1  0  0  0  0
 59 73  1  0  0  0  0
 60 62  1  0  0  0  0
 60 72  1  0  0  0  0
 61 74  1  0  0  0  0
 63 66  1  0  0  0  0
 64 65  1  0  0  0  0
M  CHG  1  74   1
M  ISO  4  35 100  58 101  73 100  81 101
M  END
> <Batch ID>
0079

> <Smiles>
CCn1cc(CC[101CH2:1][101O:1]c2ccc3c(c2)CN(C(=O)C(NC(=O)C(C)NC)C(C)(C)C)C(C(=O)NC2CCCc4ccccc42)C3)c(C(C)[100NH:0][100C:0](=O)N2CCCC(n3nc(-c4ccc(Oc5ccc(F)cc5F)cc4)c(C(N)=O)c3N)C2)n1

> <Shape>
0.171

> <Color>
0.196

> <Negative vol penalty>
0.000

$$$$

  -OEChem-04052318413D

 83 91  0     1  0  0  0  0  0999 V2000
  -26.0710  -34.6820   25.0981 C   0  0  0  0  0  0  0  0  0  0  0  0
  -26.6323  -33.5319   24.5525 C   0  0  0  0  0  0  0  0  0  0  0  0
  -25.6727  -12.3526   21.8545 C   0  0  0  0  0  0  0  0  0  0  0  0
  -25.0901  -13.3176   19.7176 C   0  0  0  0  0  0  0  0  0  0  0  0
  -24.7491  -34.6685   25.5412 C   0  0  0  0  0  0  0  0  0  0  0  0
  -25.8722  -32.3673   24.4507 C   0  0  0  0  0  0  0  0  0  0  0  0
  -26.3898  -30.0964   19.9540 C   0  0  0  0  0  0  0  0  0  0  0  0
  -25.2295  -11.1061   21.4125 C   0  0  0  0  0  0  0  0  0  0  0  0
  -24.6470  -12.0711   19.2755 C   0  0  0  0  0  0  0  0  0  0  0  0
  -27.5487  -29.3495   19.7475 C   0  0  0  0  0  0  0  0  0  0  0  0
  -22.2754   -9.5176   20.9956 C   0  0  0  0  0  0  0  0  0  0  0  0
  -21.4784   -8.7694   21.8619 C   0  0  0  0  0  0  0  0  0  0  0  0
  -26.3205  -27.3262   20.2130 C   0  0  0  0  0  0  0  0  0  0  0  0
  -23.1184   -6.9954   21.8386 C   0  0  0  0  0  0  0  0  0  0  0  0
  -25.6030  -13.4584   21.0071 C   0  0  0  0  0  0  0  0  0  0  0  0
  -27.3590  -15.2771   21.3486 C   0  0  0  0  0  0  0  0  0  0  0  0
  -23.9695  -33.5059   25.4360 C   0  0  0  0  0  0  0  0  0  0  0  0
  -25.1879  -29.4637   20.3028 C   0  0  0  0  0  0  0  0  0  0  0  0
  -24.5391  -32.3378   24.8941 C   0  0  0  0  0  0  0  0  0  0  0  0
  -25.1470  -28.0671   20.4209 C   0  0  0  0  0  0  0  0  0  0  0  0
  -24.7167  -10.9653   20.1230 C   0  0  0  0  0  0  0  0  0  0  0  0
  -27.5149  -27.9644   19.8799 C   0  0  0  0  0  0  0  0  0  0  0  0
  -23.4939   -9.0047   20.5507 C   0  0  0  0  0  0  0  0  0  0  0  0
  -21.8999   -7.5083   22.2834 C   0  0  0  0  0  0  0  0  0  0  0  0
  -23.9154   -7.7437   20.9722 C   0  0  0  0  0  0  0  0  0  0  0  0
  -26.0601  -14.7464   21.4633 C   0  0  0  0  0  0  0  0  0  0  0  0
  -27.2755  -16.5182   21.9309 C   0  0  0  0  0  0  0  0  0  0  0  0
  -30.4333  -22.7678   19.5184 C   0  0  0  0  0  0  0  0  0  0  0  0
  -29.1822  -22.2667   21.2192 C   0  0  0  0  0  0  0  0  0  0  0  0
  -28.5357  -14.6997   20.7676 C   0  0  0  0  0  0  0  0  0  0  0  0
  -23.2406  -29.5748   22.8126 C   0  0  0  0  0  0  0  0  0  0  0  0
  -21.3827  -27.6635   20.9640 C   0  0  0  0  0  0  0  0  0  0  0  0
  -21.1819  -25.4282   18.3931 C   0  0  0  0  0  0  0  0  0  0  0  0
  -24.6234  -21.3697   22.6892 C   0  0  0  0  0  0  0  0  0  0  0  0
  -22.5599  -33.5261   25.9720 C   0  0  0  0  0  0  0  0  0  0  0  0
  -23.9403  -30.2813   20.4959 C   0  0  0  0  0  0  0  0  0  0  0  0
  -23.8773  -27.3379   20.7737 C   0  0  0  0  0  0  0  0  0  0  0  0
  -21.7061  -32.3583   25.4845 C   0  0  0  0  0  0  0  0  0  0  0  0
  -23.5977  -18.6155   24.6989 C   0  0  0  0  0  0  0  0  0  0  0  0
  -22.4740  -31.0464   25.6107 C   0  0  0  0  0  0  0  0  0  0  0  0
  -24.2487  -17.4073   24.0233 C   0  0  0  0  0  0  0  0  0  0  0  0
  -23.1363  -19.6526   23.6774 C   0  0  0  0  0  0  0  0  0  0  0  0
  -24.8288  -18.8889   22.0569 C   0  0  0  0  0  0  0  0  0  0  0  0
  -23.7390  -31.0621   24.7441 C   0  0  1  0  0  0  0  0  0  0  0  0
  -22.8912  -29.5777   21.3513 C   0  0  1  0  0  0  0  0  0  0  0  0
  -25.3608  -17.8410   23.0495 C   0  0  2  0  0  0  0  0  0  0  0  0
  -31.3823  -23.4996   18.6607 C   0  0  0  0  0  0  0  0  0  0  0  0
  -19.5338  -24.0108   17.1392 C   0  0  0  0  0  0  0  0  0  0  0  0
  -21.3047  -25.6962   23.2950 C   0  0  0  0  0  0  0  0  0  0  0  0
  -20.4887  -23.9469   21.7005 C   0  0  0  0  0  0  0  0  0  0  0  0
  -19.1236  -25.9946   22.1083 C   0  0  0  0  0  0  0  0  0  0  0  0
  -21.7557  -26.8136   15.8416 C   0  0  0  0  0  0  0  0  0  0  0  0
  -28.5299  -22.3581   22.5375 C   0  0  0  0  0  0  0  0  0  0  0  0
  -27.3151  -23.3168   22.6031 C   0  0  0  0  0  0  0  0  0  0  0  0
  -30.2494  -25.7376   20.6519 C   0  0  0  0  0  0  0  0  0  0  0  0
  -30.5049  -24.4592   21.4533 C   0  0  0  0  0  0  0  0  0  0  0  0
  -26.1947  -22.9691   21.6252 C   0  0  0  0  0  0  0  0  0  0  0  0
  -28.7698  -26.0163   20.4145 C   0  0  0  0  0  0  0  0  0  1  0  0
  -21.2536  -26.1736   20.7582 C   0  0  1  0  0  0  0  0  0  0  0  0
  -20.2514  -25.3504   17.1962 C   0  0  2  0  0  0  0  0  0  0  0  0
  -20.5672  -25.4664   21.9607 C   0  0  0  0  0  0  0  0  0  0  0  0
  -25.2135  -15.5820   22.0709 N   0  0  0  0  0  0  0  0  0  0  0  0
  -29.8310  -21.6326   19.2445 N   0  0  0  0  0  0  0  0  0  0  0  0
  -29.0351  -21.3138   20.3267 N   0  0  0  0  0  0  0  0  0  0  0  0
  -25.9821  -16.6503   22.3432 N   0  0  0  0  0  0  0  0  0  0  0  0
  -30.0538  -23.2030   20.7519 N   0  0  0  0  0  0  0  0  0  0  0  0
  -22.6853  -28.1820   20.9588 N   0  0  0  0  0  0  0  0  0  0  0  0
  -24.2381  -20.0224   22.7856 N   0  0  0  0  0  0  0  0  0  0  0  0
  -28.1830  -17.4985   22.1254 N   0  0  0  0  0  0  0  0  0  0  0  0
  -28.4460  -13.4157   20.2131 N   0  0  0  0  0  0  0  0  0  0  0  0
  -23.4028  -30.8354   23.3548 N   0  0  0  0  0  0  0  0  0  0  0  0
  -20.5618  -25.9956   19.4861 N   0  0  0  0  0  0  0  0  0  0  0  0
  -25.6802  -21.6328   21.8263 N   0  0  0  0  0  0  0  0  0  0  0  0
  -21.0190  -25.5266   15.9310 N   0  3  0  0  0  0  0  0  0  0  0  0
  -29.6382  -15.2979   20.7556 O   0  0  0  0  0  0  0  0  0  0  0  0
  -23.3532  -28.5079   23.4049 O   0  0  0  0  0  0  0  0  0  0  0  0
  -20.3647  -28.3433   21.1165 O   0  0  0  0  0  0  0  0  0  0  0  0
  -22.3417  -25.0224   18.3627 O   0  0  0  0  0  0  0  0  0  0  0  0
  -24.0704  -22.2706   23.3291 O   0  0  0  0  0  0  0  0  0  0  0  0
  -24.2844   -9.7491   19.6912 O   0  0  0  0  0  0  0  0  0  0  0  0
  -28.6449  -27.2330   19.6795 O   0  0  0  0  0  0  0  0  0  1  0  0
  -21.1351   -6.7905   23.1166 F   0  0  0  0  0  0  0  0  0  0  0  0
  -25.0856   -7.2462   20.5491 F   0  0  0  0  0  0  0  0  0  0  0  0
  1  2  1  0  0  0  0
  1  5  2  0  0  0  0
  2  6  2  0  0  0  0
  3  8  2  0  0  0  0
  3 15  1  0  0  0  0
  4  9  1  0  0  0  0
  4 15  2  0  0  0  0
  5 17  1  0  0  0  0
  6 19  1  0  0  0  0
  7 10  2  0  0  0  0
  7 18  1  0  0  0  0
  8 21  1  0  0  0  0
  9 21  2  0  0  0  0
 10 22  1  0  0  0  0
 11 12  2  0  0  0  0
 11 23  1  0  0  0  0
 12 24  1  0  0  0  0
 13 20  1  0  0  0  0
 13 22  2  0  0  0  0
 14 24  2  0  0  0  0
 14 25  1  0  0  0  0
 15 26  1  0  0  0  0
 16 26  1  0  0  0  0
 16 27  2  0  0  0  0
 16 30  1  0  0  0  0
 17 19  2  0  0  0  0
 17 35  1  0  0  0  0
 18 20  2  0  0  0  0
 18 36  1  0  0  0  0
 19 44  1  0  0  0  0
 20 37  1  0  0  0  0
 21 80  1  0  0  0  0
 22 81  1  0  0  0  0
 23 25  2  0  0  0  0
 23 80  1  0  0  0  0
 24 82  1  0  0  0  0
 25 83  1  0  0  0  0
 26 62  2  0  0  0  0
 27 65  1  0  0  0  0
 27 69  1  0  0  0  0
 28 47  1  0  0  0  0
 28 63  2  0  0  0  0
 28 66  1  0  0  0  0
 29 53  1  0  0  0  0
 29 64  2  0  0  0  0
 29 66  1  0  0  0  0
 30 70  1  0  0  0  0
 30 75  2  0  0  0  0
 31 45  1  0  0  0  0
 31 71  1  0  0  0  0
 31 76  2  0  0  0  0
 32 59  1  0  0  0  0
 32 67  1  0  0  0  0
 32 77  2  0  0  0  0
 33 60  1  0  0  0  0
 33 72  1  0  0  0  0
 33 78  2  0  0  0  0
 34 68  1  0  0  0  0
 34 73  1  0  0  0  0
 34 79  2  0  0  0  0
 35 38  1  0  0  0  0
 36 45  1  0  0  0  0
 37 67  1  0  0  0  0
 38 40  1  0  0  0  0
 39 41  1  0  0  0  0
 39 42  1  0  0  0  0
 40 44  1  0  0  0  0
 41 46  1  0  0  0  0
 42 68  1  0  0  0  0
 43 46  1  0  0  0  0
 43 68  1  0  0  0  0
 44 71  1  0  0  0  0
 45 67  1  0  0  0  0
 46 65  1  0  0  0  0
 48 60  1  0  0  0  0
 49 61  1  0  0  0  0
 50 61  1  0  0  0  0
 51 61  1  0  0  0  0
 52 74  1  0  0  0  0
 53 54  1  0  0  0  0
 54 57  1  0  0  0  0
 55 56  1  0  0  0  0
 55 58  1  0  0  0  0
 56 66  1  0  0  0  0
 57 73  1  0  0  0  0
 58 81  1  0  0  0  0
 59 61  1  0  0  0  0
 59 72  1  0  0  0  0
 60 74  1  0  0  0  0
 62 65  1  0  0  0  0
 63 64  1  0  0  0  0
M  CHG  1  74   1
M  ISO  4  34 100  58 101  73 100  81 101
M  END
> <Batch ID>
0079

> <Smiles>
CNC(C)C(=O)NC(C(=O)N1Cc2cc([101O:1][101CH2:1]CCn3c(C)nnc3CCC[100NH:0][100C:0](=O)N3CCCC(n4nc(-c5ccc(Oc6ccc(F)cc6F)cc5)c(C(N)=O)c4N)C3)ccc2CC1C(=O)NC1CCCc2ccccc21)C(C)(C)C

> <Shape>
0.261

> <Color>
0.079

> <Negative vol penalty>
0.000

$$$$

  -OEChem-04052318413D

 86 94  0     1  0  0  0  0  0999 V2000
  -30.1472  -24.8436   16.9056 C   0  0  0  0  0  0  0  0  0  0  0  0
  -28.9051  -24.8185   17.5317 C   0  0  0  0  0  0  0  0  0  0  0  0
  -30.1525  -17.8098   21.9400 C   0  0  0  0  0  0  0  0  0  0  0  0
  -28.4309  -17.2105   20.3545 C   0  0  0  0  0  0  0  0  0  0  0  0
  -31.1952  -25.5714   17.4676 C   0  0  0  0  0  0  0  0  0  0  0  0
  -28.7107  -25.5204   18.7208 C   0  0  0  0  0  0  0  0  0  0  0  0
  -24.3636  -28.1179   18.7548 C   0  0  0  0  0  0  0  0  0  0  0  0
  -30.9639  -16.7891   21.4448 C   0  0  0  0  0  0  0  0  0  0  0  0
  -29.2424  -16.1899   19.8591 C   0  0  0  0  0  0  0  0  0  0  0  0
  -23.1940  -27.3986   18.9966 C   0  0  0  0  0  0  0  0  0  0  0  0
  -30.1313  -13.0548   20.7601 C   0  0  0  0  0  0  0  0  0  0  0  0
  -29.5439  -11.8090   20.5398 C   0  0  0  0  0  0  0  0  0  0  0  0
  -23.2229  -28.1353   21.2935 C   0  0  0  0  0  0  0  0  0  0  0  0
  -21.7314  -20.3520   21.4420 C   0  0  0  0  0  0  0  0  0  0  0  0
  -30.1281  -11.9473   18.1996 C   0  0  0  0  0  0  0  0  0  0  0  0
  -19.7791  -22.2213   21.8160 C   0  0  0  0  0  0  0  0  0  0  0  0
  -28.8859  -18.0205   21.3949 C   0  0  0  0  0  0  0  0  0  0  0  0
  -27.9919  -20.4088   21.4616 C   0  0  0  0  0  0  0  0  0  0  0  0
  -31.0108  -26.2905   18.6590 C   0  0  0  0  0  0  0  0  0  0  0  0
  -24.9787  -28.8436   19.7851 C   0  0  0  0  0  0  0  0  0  0  0  0
  -29.7576  -26.2575   19.2999 C   0  0  0  0  0  0  0  0  0  0  0  0
  -24.3989  -28.8650   21.0616 C   0  0  0  0  0  0  0  0  0  0  0  0
  -21.9841  -21.6781   21.1092 C   0  0  0  0  0  0  0  0  0  0  0  0
  -30.5089  -15.9792   20.4043 C   0  0  0  0  0  0  0  0  0  0  0  0
  -22.6250  -27.4049   20.2668 C   0  0  0  0  0  0  0  0  0  0  0  0
  -30.7171  -13.7469   19.7001 C   0  0  0  0  0  0  0  0  0  0  0  0
  -20.9946  -22.6368   21.2967 C   0  0  0  0  0  0  0  0  0  0  0  0
  -29.5423  -11.2552   19.2596 C   0  0  0  0  0  0  0  0  0  0  0  0
  -30.7155  -13.1931   18.4199 C   0  0  0  0  0  0  0  0  0  0  0  0
  -28.0469  -19.0743   21.9065 C   0  0  0  0  0  0  0  0  0  0  0  0
  -20.4830  -20.0388   21.9550 C   0  0  0  0  0  0  0  0  0  0  0  0
  -27.0463  -20.9994   22.2638 C   0  0  0  0  0  0  0  0  0  0  0  0
  -28.7295  -21.0565   20.4166 C   0  0  0  0  0  0  0  0  0  0  0  0
  -27.8009  -28.7176   21.2421 C   0  0  0  0  0  0  0  0  0  0  0  0
  -26.7353  -31.4164   22.6925 C   0  0  0  0  0  0  0  0  0  0  0  0
  -24.0806  -33.3257   23.6690 C   0  0  0  0  0  0  0  0  0  0  0  0
  -22.3772  -18.8425   25.3294 C   0  0  0  0  0  0  0  0  0  0  0  0
  -32.1868  -27.0243   19.2535 C   0  0  0  0  0  0  0  0  0  0  0  0
  -26.2253  -29.6360   19.5013 C   0  0  0  0  0  0  0  0  0  0  0  0
  -25.0088  -29.6447   22.1967 C   0  0  0  0  0  0  0  0  0  0  0  0
  -31.7928  -28.0457   20.3173 C   0  0  0  0  0  0  0  0  0  0  0  0
  -25.1243  -20.6937   26.6346 C   0  0  0  0  0  0  0  0  0  0  0  0
  -30.7916  -27.4389   21.2952 C   0  0  0  0  0  0  0  0  0  0  0  0
  -26.1799  -20.6090   25.5307 C   0  0  0  0  0  0  0  0  0  0  0  0
  -24.3269  -19.3968   26.7536 C   0  0  0  0  0  0  0  0  0  0  0  0
  -24.7686  -18.8449   24.3926 C   0  0  0  0  0  0  0  0  0  0  0  0
  -29.5006  -27.0263   20.5778 C   0  0  1  0  0  0  0  0  0  0  0  0
  -27.0487  -29.9230   20.7531 C   0  0  1  0  0  0  0  0  0  0  0  0
  -25.5609  -20.1489   24.1971 C   0  0  2  0  0  0  0  0  0  0  0  0
  -24.5952  -22.7981   16.9558 C   0  0  0  0  0  0  0  0  0  0  0  0
  -23.5233  -35.4588   24.8677 C   0  0  0  0  0  0  0  0  0  0  0  0
  -27.3461  -30.0725   25.3629 C   0  0  0  0  0  0  0  0  0  0  0  0
  -25.9228  -31.8030   26.4800 C   0  0  0  0  0  0  0  0  0  0  0  0
  -27.9773  -32.4894   25.2428 C   0  0  0  0  0  0  0  0  0  0  0  0
  -22.7551  -34.4591   21.2779 C   0  0  0  0  0  0  0  0  0  0  0  0
  -23.3174  -22.0541   20.5539 C   0  0  0  0  0  0  0  0  0  0  0  0
  -20.1768  -18.6250   22.3230 C   0  0  0  0  0  0  0  0  0  0  0  0
  -24.6442  -22.6209   18.4650 C   0  0  0  0  0  0  0  0  0  0  0  0
  -23.2681  -22.2747   19.0336 C   0  0  0  0  0  0  0  0  0  0  0  0
  -20.5259  -18.2802   23.7752 C   0  0  0  0  0  0  0  0  0  0  0  0
  -21.2992  -26.1932   21.8255 C   0  0  0  0  0  0  0  0  0  1  0  0
  -20.4867  -24.9148   21.7533 C   0  0  0  0  0  0  0  0  0  0  0  0
  -25.9492  -31.7175   23.9456 C   0  0  1  0  0  0  0  0  0  0  0  0
  -23.7983  -34.8098   23.5201 C   0  0  2  0  0  0  0  0  0  0  0  0
  -26.7882  -31.5043   25.2371 C   0  0  0  0  0  0  0  0  0  0  0  0
  -19.4967  -20.9424   22.1511 N   0  0  0  0  0  0  0  0  0  0  0  0
  -27.2036  -18.8312   22.9133 N   0  0  0  0  0  0  0  0  0  0  0  0
  -26.6097  -20.0210   23.1078 N   0  0  0  0  0  0  0  0  0  0  0  0
  -26.2309  -30.3983   21.8709 N   0  0  0  0  0  0  0  0  0  0  0  0
  -23.7653  -19.0167   25.4550 N   0  0  0  0  0  0  0  0  0  0  0  0
  -26.5541  -22.2551   22.3226 N   0  0  0  0  0  0  0  0  0  0  0  0
  -29.6617  -20.3027   19.6906 N   0  0  0  0  0  0  0  0  0  0  0  0
  -28.6761  -28.1861   20.3142 N   0  0  0  0  0  0  0  0  0  0  0  0
  -25.4308  -33.0719   23.7866 N   0  0  0  0  0  0  0  0  0  0  0  0
  -21.9275  -18.4887   24.0632 N   0  0  0  0  0  0  0  0  0  0  0  0
  -22.6126  -35.0261   22.6436 N   0  3  0  0  0  0  0  0  0  0  0  0
  -28.5787  -22.2721   20.1460 O   0  0  0  0  0  0  0  0  0  0  0  0
  -27.6031  -28.3016   22.3776 O   0  0  0  0  0  0  0  0  0  0  0  0
  -27.7553  -32.0655   22.4479 O   0  0  0  0  0  0  0  0  0  0  0  0
  -23.1919  -32.4768   23.6836 O   0  0  0  0  0  0  0  0  0  0  0  0
  -21.5959  -18.9965   26.2744 O   0  0  0  0  0  0  0  0  0  0  0  0
  -31.3006  -14.9832   19.9206 O   0  0  0  0  0  0  0  0  0  0  0  0
  -21.4838  -26.7032   20.5056 O   0  0  0  0  0  0  0  0  0  1  0  0
  -21.1987  -23.9546   20.9824 O   0  0  0  0  0  0  0  0  0  0  0  0
  -28.9795  -10.0582   19.0485 F   0  0  0  0  0  0  0  0  0  0  0  0
  -31.2777  -13.8528   17.3978 F   0  0  0  0  0  0  0  0  0  0  0  0
  1  2  1  0  0  0  0
  1  5  2  0  0  0  0
  2  6  2  0  0  0  0
  3  8  2  0  0  0  0
  3 17  1  0  0  0  0
  4  9  1  0  0  0  0
  4 17  2  0  0  0  0
  5 19  1  0  0  0  0
  6 21  1  0  0  0  0
  7 10  2  0  0  0  0
  7 20  1  0  0  0  0
  8 24  1  0  0  0  0
  9 24  2  0  0  0  0
 10 25  1  0  0  0  0
 11 12  2  0  0  0  0
 11 26  1  0  0  0  0
 12 28  1  0  0  0  0
 13 22  1  0  0  0  0
 13 25  2  0  0  0  0
 14 23  1  0  0  0  0
 14 31  2  0  0  0  0
 15 28  2  0  0  0  0
 15 29  1  0  0  0  0
 16 27  1  0  0  0  0
 16 66  2  0  0  0  0
 17 30  1  0  0  0  0
 18 30  1  0  0  0  0
 18 32  2  0  0  0  0
 18 33  1  0  0  0  0
 19 21  2  0  0  0  0
 19 38  1  0  0  0  0
 20 22  2  0  0  0  0
 20 39  1  0  0  0  0
 21 47  1  0  0  0  0
 22 40  1  0  0  0  0
 23 27  2  0  0  0  0
 23 56  1  0  0  0  0
 24 82  1  0  0  0  0
 25 83  1  0  0  0  0
 26 29  2  0  0  0  0
 26 82  1  0  0  0  0
 27 84  1  0  0  0  0
 28 85  1  0  0  0  0
 29 86  1  0  0  0  0
 30 67  2  0  0  0  0
 31 57  1  0  0  0  0
 31 66  1  0  0  0  0
 32 68  1  0  0  0  0
 32 71  1  0  0  0  0
 33 72  1  0  0  0  0
 33 77  2  0  0  0  0
 34 48  1  0  0  0  0
 34 73  1  0  0  0  0
 34 78  2  0  0  0  0
 35 63  1  0  0  0  0
 35 69  1  0  0  0  0
 35 79  2  0  0  0  0
 36 64  1  0  0  0  0
 36 74  1  0  0  0  0
 36 80  2  0  0  0  0
 37 70  1  0  0  0  0
 37 75  1  0  0  0  0
 37 81  2  0  0  0  0
 38 41  1  0  0  0  0
 39 48  1  0  0  0  0
 40 69  1  0  0  0  0
 41 43  1  0  0  0  0
 42 44  1  0  0  0  0
 42 45  1  0  0  0  0
 43 47  1  0  0  0  0
 44 49  1  0  0  0  0
 45 70  1  0  0  0  0
 46 49  1  0  0  0  0
 46 70  1  0  0  0  0
 47 73  1  0  0  0  0
 48 69  1  0  0  0  0
 49 68  1  0  0  0  0
 50 58  1  0  0  0  0
 51 64  1  0  0  0  0
 52 65  1  0  0  0  0
 53 65  1  0  0  0  0
 54 65  1  0  0  0  0
 55 76  1  0  0  0  0
 56 59  1  0  0  0  0
 57 60  1  0  0  0  0
 58 59  1  0  0  0  0
 60 75  1  0  0  0  0
 61 62  1  0  0  0  0
 61 83  1  0  0  0  0
 62 84  1  0  0  0  0
 63 65  1  0  0  0  0
 63 74  1  0  0  0  0
 64 76  1  0  0  0  0
 67 68  1  0  0  0  0
M  CHG  1  76   1
M  ISO  4  37 100  61 101  75 100  83 101
M  END
> <Batch ID>
0079

> <Smiles>
CCCCc1cc(CC[100NH:0][100C:0](=O)N2CCCC(n3nc(-c4ccc(Oc5ccc(F)cc5F)cc4)c(C(N)=O)c3N)C2)ncc1OC[101CH2:1][101O:1]c1ccc2c(c1)CN(C(=O)C(NC(=O)C(C)NC)C(C)(C)C)C(C(=O)NC1CCCc3ccccc31)C2

> <Shape>
0.268

> <Color>
0.066

> <Negative vol penalty>
0.000

$$$$

  -OEChem-04052318413D

 81 89  0     1  0  0  0  0  0999 V2000
  -27.8323  -24.3564   16.9544 C   0  0  0  0  0  0  0  0  0  0  0  0
  -26.6521  -24.6229   17.6411 C   0  0  0  0  0  0  0  0  0  0  0  0
  -26.1533  -13.8874   19.2894 C   0  0  0  0  0  0  0  0  0  0  0  0
  -24.1671  -14.1347   20.6425 C   0  0  0  0  0  0  0  0  0  0  0  0
  -29.0477  -24.8254   17.4511 C   0  0  0  0  0  0  0  0  0  0  0  0
  -26.6868  -25.3578   18.8257 C   0  0  0  0  0  0  0  0  0  0  0  0
  -23.0641  -28.8904   19.0273 C   0  0  0  0  0  0  0  0  0  0  0  0
  -26.3109  -12.5836   19.7591 C   0  0  0  0  0  0  0  0  0  0  0  0
  -24.3247  -12.8308   21.1121 C   0  0  0  0  0  0  0  0  0  0  0  0
  -21.7742  -28.4627   19.3390 C   0  0  0  0  0  0  0  0  0  0  0  0
  -23.7214   -9.6958   20.0036 C   0  0  0  0  0  0  0  0  0  0  0  0
  -22.5885   -8.8834   20.0484 C   0  0  0  0  0  0  0  0  0  0  0  0
  -22.0915  -29.1861   21.6183 C   0  0  0  0  0  0  0  0  0  0  0  0
  -20.9868  -22.5545   21.5783 C   0  0  0  0  0  0  0  0  0  0  0  0
  -22.8645   -8.6300   22.4352 C   0  0  0  0  0  0  0  0  0  0  0  0
  -21.5680  -25.1273   22.2774 C   0  0  0  0  0  0  0  0  0  0  0  0
  -25.0814  -14.6631   19.7311 C   0  0  0  0  0  0  0  0  0  0  0  0
  -24.1961  -16.4238   18.1114 C   0  0  0  0  0  0  0  0  0  0  0  0
  -29.0962  -25.5746   18.6373 C   0  0  0  0  0  0  0  0  0  0  0  0
  -23.8826  -29.4603   20.0131 C   0  0  0  0  0  0  0  0  0  0  0  0
  -27.9042  -25.8361   19.3395 C   0  0  0  0  0  0  0  0  0  0  0  0
  -23.3904  -29.6227   21.3160 C   0  0  0  0  0  0  0  0  0  0  0  0
  -19.9490  -23.4578   21.7789 C   0  0  0  0  0  0  0  0  0  0  0  0
  -20.2366  -24.7707   22.1353 C   0  0  0  0  0  0  0  0  0  0  0  0
  -25.3966  -12.0552   20.6704 C   0  0  0  0  0  0  0  0  0  0  0  0
  -21.2888  -28.6078   20.6353 C   0  0  0  0  0  0  0  0  0  0  0  0
  -24.4259   -9.9754   21.1747 C   0  0  0  0  0  0  0  0  0  0  0  0
  -22.1600   -8.3505   21.2641 C   0  0  0  0  0  0  0  0  0  0  0  0
  -23.9974   -9.4425   22.3904 C   0  0  0  0  0  0  0  0  0  0  0  0
  -24.9183  -16.0103   19.2468 C   0  0  0  0  0  0  0  0  0  0  0  0
  -22.2846  -23.0104   21.7451 C   0  0  0  0  0  0  0  0  0  0  0  0
  -24.3479  -17.7887   18.0863 C   0  0  0  0  0  0  0  0  0  0  0  0
  -23.4543  -15.6440   17.1641 C   0  0  0  0  0  0  0  0  0  0  0  0
  -26.6714  -28.6935   21.3316 C   0  0  0  0  0  0  0  0  0  0  0  0
  -26.3339  -31.5739   22.7846 C   0  0  0  0  0  0  0  0  0  0  0  0
  -24.2456  -34.0512   23.8565 C   0  0  0  0  0  0  0  0  0  0  0  0
  -24.7051  -22.3184   21.6520 C   0  0  0  0  0  0  0  0  0  0  0  0
  -30.4389  -26.0199   19.1601 C   0  0  0  0  0  0  0  0  0  0  0  0
  -25.2619  -29.9411   19.6544 C   0  0  0  0  0  0  0  0  0  0  0  0
  -24.2219  -30.2468   22.4057 C   0  0  0  0  0  0  0  0  0  0  0  0
  -30.3470  -27.1110   20.2238 C   0  0  0  0  0  0  0  0  0  0  0  0
  -27.5865  -20.9716   20.0518 C   0  0  0  0  0  0  0  0  0  0  0  0
  -29.2850  -26.7580   21.2603 C   0  0  0  0  0  0  0  0  0  0  0  0
  -27.1232  -19.5952   19.5693 C   0  0  0  0  0  0  0  0  0  0  0  0
  -26.9735  -21.3349   21.4031 C   0  0  0  0  0  0  0  0  0  0  0  0
  -25.0466  -19.8577   20.9856 C   0  0  0  0  0  0  0  0  0  0  0  0
  -27.8981  -26.6509   20.6147 C   0  0  1  0  0  0  0  0  0  0  0  0
  -26.1932  -30.0372   20.8590 C   0  0  1  0  0  0  0  0  0  0  0  0
  -25.5868  -19.4757   19.5978 C   0  0  2  0  0  0  0  0  0  0  0  0
  -18.5391  -22.9989   21.6063 C   0  0  0  0  0  0  0  0  0  0  0  0
  -24.2584  -36.2624   25.0431 C   0  0  0  0  0  0  0  0  0  0  0  0
  -26.7559  -30.1410   25.4451 C   0  0  0  0  0  0  0  0  0  0  0  0
  -25.8302  -32.1603   26.6000 C   0  0  0  0  0  0  0  0  0  0  0  0
  -27.9206  -32.3456   25.2514 C   0  0  0  0  0  0  0  0  0  0  0  0
  -23.0951  -35.4464   21.5137 C   0  0  0  0  0  0  0  0  0  0  0  0
  -19.1506  -25.7911   22.3651 C   0  0  0  0  0  0  0  0  0  0  0  0
  -18.5256  -26.3266   21.0751 C   0  0  0  0  0  0  0  0  0  0  0  0
  -19.5116  -27.0893   20.1978 C   0  0  0  0  0  0  0  0  0  1  0  0
  -25.7046  -32.0561   24.0693 C   0  0  1  0  0  0  0  0  0  0  0  0
  -24.3060  -35.5595   23.6954 C   0  0  2  0  0  0  0  0  0  0  0  0
  -26.5376  -31.6622   25.3216 C   0  0  0  0  0  0  0  0  0  0  0  0
  -22.6030  -24.2779   22.0908 N   0  0  0  0  0  0  0  0  0  0  0  0
  -25.4868  -17.0298   19.8959 N   0  0  0  0  0  0  0  0  0  0  0  0
  -25.1219  -18.0976   19.1659 N   0  0  0  0  0  0  0  0  0  0  0  0
  -25.5663  -30.6954   22.0070 N   0  0  0  0  0  0  0  0  0  0  0  0
  -25.5158  -21.2028   21.3535 N   0  0  0  0  0  0  0  0  0  0  0  0
  -23.8935  -18.7427   17.2461 N   0  0  0  0  0  0  0  0  0  0  0  0
  -23.4010  -14.2544   17.3386 N   0  0  0  0  0  0  0  0  0  0  0  0
  -23.3353  -22.0821   21.5401 N   0  0  0  0  0  0  0  0  0  0  0  0
  -27.3509  -27.9684   20.3714 N   0  0  0  0  0  0  0  0  0  0  0  0
  -25.5051  -33.4927   23.9121 N   0  0  0  0  0  0  0  0  0  0  0  0
  -23.1583  -36.0391   22.8745 N   0  3  0  0  0  0  0  0  0  0  0  0
  -22.8700  -16.1624   16.1826 O   0  0  0  0  0  0  0  0  0  0  0  0
  -26.4421  -28.3412   22.4827 O   0  0  0  0  0  0  0  0  0  0  0  0
  -27.4620  -31.9681   22.4787 O   0  0  0  0  0  0  0  0  0  0  0  0
  -23.1871  -33.4310   23.9298 O   0  0  0  0  0  0  0  0  0  0  0  0
  -25.1909  -23.4109   21.9561 O   0  0  0  0  0  0  0  0  0  0  0  0
  -25.5500  -10.7828   21.1287 O   0  0  0  0  0  0  0  0  0  0  0  0
  -20.0305  -28.1905   20.9424 O   0  0  0  0  0  0  0  0  0  1  0  0
  -21.0712   -7.5715   21.3072 F   0  0  0  0  0  0  0  0  0  0  0  0
  -24.6694   -9.7085   23.5189 F   0  0  0  0  0  0  0  0  0  0  0  0
  1  2  1  0  0  0  0
  1  5  2  0  0  0  0
  2  6  2  0  0  0  0
  3  8  2  0  0  0  0
  3 17  1  0  0  0  0
  4  9  1  0  0  0  0
  4 17  2  0  0  0  0
  5 19  1  0  0  0  0
  6 21  1  0  0  0  0
  7 10  2  0  0  0  0
  7 20  1  0  0  0  0
  8 25  1  0  0  0  0
  9 25  2  0  0  0  0
 10 26  1  0  0  0  0
 11 12  2  0  0  0  0
 11 27  1  0  0  0  0
 12 28  1  0  0  0  0
 13 22  1  0  0  0  0
 13 26  2  0  0  0  0
 14 23  1  0  0  0  0
 14 31  2  0  0  0  0
 15 28  2  0  0  0  0
 15 29  1  0  0  0  0
 16 24  1  0  0  0  0
 16 62  2  0  0  0  0
 17 30  1  0  0  0  0
 18 30  1  0  0  0  0
 18 32  2  0  0  0  0
 18 33  1  0  0  0  0
 19 21  2  0  0  0  0
 19 38  1  0  0  0  0
 20 22  2  0  0  0  0
 20 39  1  0  0  0  0
 21 47  1  0  0  0  0
 22 40  1  0  0  0  0
 23 24  2  0  0  0  0
 23 50  1  0  0  0  0
 24 56  1  0  0  0  0
 25 78  1  0  0  0  0
 26 79  1  0  0  0  0
 27 29  2  0  0  0  0
 27 78  1  0  0  0  0
 28 80  1  0  0  0  0
 29 81  1  0  0  0  0
 30 63  2  0  0  0  0
 31 62  1  0  0  0  0
 31 69  1  0  0  0  0
 32 64  1  0  0  0  0
 32 67  1  0  0  0  0
 33 68  1  0  0  0  0
 33 73  2  0  0  0  0
 34 48  1  0  0  0  0
 34 70  1  0  0  0  0
 34 74  2  0  0  0  0
 35 59  1  0  0  0  0
 35 65  1  0  0  0  0
 35 75  2  0  0  0  0
 36 60  1  0  0  0  0
 36 71  1  0  0  0  0
 36 76  2  0  0  0  0
 37 66  1  0  0  0  0
 37 69  1  0  0  0  0
 37 77  2  0  0  0  0
 38 41  1  0  0  0  0
 39 48  1  0  0  0  0
 40 65  1  0  0  0  0
 41 43  1  0  0  0  0
 42 44  1  0  0  0  0
 42 45  1  0  0  0  0
 43 47  1  0  0  0  0
 44 49  1  0  0  0  0
 45 66  1  0  0  0  0
 46 49  1  0  0  0  0
 46 66  1  0  0  0  0
 47 70  1  0  0  0  0
 48 65  1  0  0  0  0
 49 64  1  0  0  0  0
 51 60  1  0  0  0  0
 52 61  1  0  0  0  0
 53 61  1  0  0  0  0
 54 61  1  0  0  0  0
 55 72  1  0  0  0  0
 56 57  1  0  0  0  0
 57 58  1  0  0  0  0
 58 79  1  0  0  0  0
 59 61  1  0  0  0  0
 59 71  1  0  0  0  0
 60 72  1  0  0  0  0
 63 64  1  0  0  0  0
M  CHG  1  72   1
M  ISO  4  37 100  58 101  69 100  79 101
M  END
> <Batch ID>
0079

> <Smiles>
CNC(C)C(=O)NC(C(=O)N1Cc2cc([101O:1][101CH2:1]CCc3cnc([100NH:0][100C:0](=O)N4CCCC(n5nc(-c6ccc(Oc7ccc(F)cc7F)cc6)c(C(N)=O)c5N)C4)cc3C)ccc2CC1C(=O)NC1CCCc2ccccc21)C(C)(C)C

> <Shape>
0.295

> <Color>
0.091

> <Negative vol penalty>
0.000

$$$$

  -OEChem-04052318413D

 85 93  0     1  0  0  0  0  0999 V2000
  -29.3115  -30.6768   26.7324 C   0  0  0  0  0  0  0  0  0  0  0  0
  -29.1280  -29.8618   25.6199 C   0  0  0  0  0  0  0  0  0  0  0  0
  -24.7377   -9.0877   22.3050 C   0  0  0  0  0  0  0  0  0  0  0  0
  -23.4339  -10.4800   20.8222 C   0  0  0  0  0  0  0  0  0  0  0  0
  -28.2110  -31.0870   27.4837 C   0  0  0  0  0  0  0  0  0  0  0  0
  -27.8439  -29.4557   25.2587 C   0  0  0  0  0  0  0  0  0  0  0  0
  -27.0040  -29.8671   20.2817 C   0  0  0  0  0  0  0  0  0  0  0  0
  -23.8050   -8.0606   22.1607 C   0  0  0  0  0  0  0  0  0  0  0  0
  -22.5012   -9.4529   20.6779 C   0  0  0  0  0  0  0  0  0  0  0  0
  -27.5405  -28.8756   19.4614 C   0  0  0  0  0  0  0  0  0  0  0  0
  -21.5800   -5.2006   22.4663 C   0  0  0  0  0  0  0  0  0  0  0  0
  -21.1707   -4.5277   23.6175 C   0  0  0  0  0  0  0  0  0  0  0  0
  -25.3838  -27.7997   19.3615 C   0  0  0  0  0  0  0  0  0  0  0  0
  -20.3418   -6.6030   24.5357 C   0  0  0  0  0  0  0  0  0  0  0  0
  -28.5024  -18.9243   20.4670 C   0  0  0  0  0  0  0  0  0  0  0  0
  -24.5521  -10.2974   21.6358 C   0  0  0  0  0  0  0  0  0  0  0  0
  -26.6574  -11.5876   20.9948 C   0  0  0  0  0  0  0  0  0  0  0  0
  -26.9118  -30.6936   27.1259 C   0  0  0  0  0  0  0  0  0  0  0  0
  -25.6537  -29.8262   20.6576 C   0  0  0  0  0  0  0  0  0  0  0  0
  -26.7251  -29.8599   26.0067 C   0  0  0  0  0  0  0  0  0  0  0  0
  -24.8320  -28.7932   20.1846 C   0  0  0  0  0  0  0  0  0  0  0  0
  -22.6868   -8.2432   21.3471 C   0  0  0  0  0  0  0  0  0  0  0  0
  -26.7311  -27.8401   19.0035 C   0  0  0  0  0  0  0  0  0  0  0  0
  -21.3703   -6.5747   22.3498 C   0  0  0  0  0  0  0  0  0  0  0  0
  -20.5516   -5.2289   24.6522 C   0  0  0  0  0  0  0  0  0  0  0  0
  -20.7512   -7.2759   23.3845 C   0  0  0  0  0  0  0  0  0  0  0  0
  -25.5149  -11.3590   21.7849 C   0  0  0  0  0  0  0  0  0  0  0  0
  -29.0553  -21.0898   21.9272 C   0  0  0  0  0  0  0  0  0  0  0  0
  -29.4716  -20.9900   20.6179 C   0  0  0  0  0  0  0  0  0  0  0  0
  -28.0867  -19.0236   21.7765 C   0  0  0  0  0  0  0  0  0  0  0  0
  -27.2332  -12.7090   21.5401 C   0  0  0  0  0  0  0  0  0  0  0  0
  -27.1537  -10.8522   19.8685 C   0  0  0  0  0  0  0  0  0  0  0  0
  -24.1008  -29.5827   23.4204 C   0  0  0  0  0  0  0  0  0  0  0  0
  -21.4941  -30.0659   21.5511 C   0  0  0  0  0  0  0  0  0  0  0  0
  -20.0754  -29.8768   18.4530 C   0  0  0  0  0  0  0  0  0  0  0  0
  -26.8489  -17.8544   23.6331 C   0  0  0  0  0  0  0  0  0  0  0  0
  -25.7576  -31.1234   27.9963 C   0  0  0  0  0  0  0  0  0  0  0  0
  -25.0839  -30.9179   21.5213 C   0  0  0  0  0  0  0  0  0  0  0  0
  -23.3711  -28.7148   20.5427 C   0  0  0  0  0  0  0  0  0  0  0  0
  -24.3954  -30.9562   27.3279 C   0  0  0  0  0  0  0  0  0  0  0  0
  -26.2468  -15.1466   25.8653 C   0  0  0  0  0  0  0  0  0  0  0  0
  -24.2893  -29.5850   26.6679 C   0  0  0  0  0  0  0  0  0  0  0  0
  -26.0967  -13.9386   24.9377 C   0  0  0  0  0  0  0  0  0  0  0  0
  -25.6415  -16.4093   25.2545 C   0  0  0  0  0  0  0  0  0  0  0  0
  -25.9686  -15.5283   22.9772 C   0  0  0  0  0  0  0  0  0  0  0  0
  -25.3454  -29.4187   25.5686 C   0  0  1  0  0  0  0  0  0  0  0  0
  -23.8182  -30.4955   22.2608 C   0  0  1  0  0  0  0  0  0  0  0  0
  -26.6209  -14.2470   23.5215 C   0  0  2  0  0  0  0  0  0  0  0  0
  -29.3597  -22.2949   22.7498 C   0  0  0  0  0  0  0  0  0  0  0  0
  -17.9188  -30.3077   17.2443 C   0  0  0  0  0  0  0  0  0  0  0  0
  -32.2330  -23.0400   17.8865 C   0  0  0  0  0  0  0  0  0  0  0  0
  -20.3134  -27.5238   22.7568 C   0  0  0  0  0  0  0  0  0  0  0  0
  -18.6578  -27.4856   20.8791 C   0  0  0  0  0  0  0  0  0  0  0  0
  -18.6840  -29.4004   22.4776 C   0  0  0  0  0  0  0  0  0  0  0  0
  -21.3381  -31.8752   16.6723 C   0  0  0  0  0  0  0  0  0  0  0  0
  -30.2548  -22.0958   19.9555 C   0  0  0  0  0  0  0  0  0  0  0  0
  -29.9380  -22.1911   18.4596 C   0  0  0  0  0  0  0  0  0  0  0  0
  -28.8882  -25.1061   17.9855 C   0  0  0  0  0  0  0  0  0  0  0  0
  -30.3619  -24.7336   18.1563 C   0  0  0  0  0  0  0  0  0  0  0  0
  -28.6334  -26.5570   18.3784 C   0  0  0  0  0  0  0  0  0  1  0  0
  -20.5479  -29.1736   20.7847 C   0  0  1  0  0  0  0  0  0  0  0  0
  -19.2667  -30.8816   17.6524 C   0  0  2  0  0  0  0  0  0  0  0  0
  -30.7298  -23.2962   17.7330 C   0  0  1  0  0  0  0  0  0  0  0  0
  -19.5787  -28.3960   21.7192 C   0  0  0  0  0  0  0  0  0  0  0  0
  -29.2024  -19.9057   19.8642 N   0  0  0  0  0  0  0  0  0  0  0  0
  -25.3718  -12.2624   22.7582 N   0  0  0  0  0  0  0  0  0  0  0  0
  -28.3556  -20.1082   22.5301 N   0  0  0  0  0  0  0  0  0  0  0  0
  -26.4320  -13.0696   22.5833 N   0  0  0  0  0  0  0  0  0  0  0  0
  -22.8623  -29.8023   21.3948 N   0  0  0  0  0  0  0  0  0  0  0  0
  -26.1879  -16.6402   23.9155 N   0  0  0  0  0  0  0  0  0  0  0  0
  -28.3416  -13.4119   21.2243 N   0  0  0  0  0  0  0  0  0  0  0  0
  -26.4396   -9.7251   19.4393 N   0  0  0  0  0  0  0  0  0  0  0  0
  -27.3550  -17.9474   22.3370 N   0  0  0  0  0  0  0  0  0  0  0  0
  -24.9440  -30.1253   24.3711 N   0  0  0  0  0  0  0  0  0  0  0  0
  -19.8801  -30.0288   19.8095 N   0  0  0  0  0  0  0  0  0  0  0  0
  -20.0037  -31.2738   16.4179 N   0  3  0  0  0  0  0  0  0  0  0  0
  -28.2083  -11.1750   19.2710 O   0  0  0  0  0  0  0  0  0  0  0  0
  -23.5903  -28.4690   23.4510 O   0  0  0  0  0  0  0  0  0  0  0  0
  -21.0364  -30.9682   22.2567 O   0  0  0  0  0  0  0  0  0  0  0  0
  -20.8044  -29.0384   17.9275 O   0  0  0  0  0  0  0  0  0  0  0  0
  -26.9816  -18.7349   24.4870 O   0  0  0  0  0  0  0  0  0  0  0  0
  -21.7766   -7.2411   21.2059 O   0  0  0  0  0  0  0  0  0  0  0  0
  -27.2524  -26.8708   18.2032 O   0  0  0  0  0  0  0  0  0  1  0  0
  -20.1572   -4.5823   25.7570 F   0  0  0  0  0  0  0  0  0  0  0  0
  -20.5460   -8.5959   23.2779 F   0  0  0  0  0  0  0  0  0  0  0  0
  1  2  1  0  0  0  0
  1  5  2  0  0  0  0
  2  6  2  0  0  0  0
  3  8  2  0  0  0  0
  3 16  1  0  0  0  0
  4  9  1  0  0  0  0
  4 16  2  0  0  0  0
  5 18  1  0  0  0  0
  6 20  1  0  0  0  0
  7 10  2  0  0  0  0
  7 19  1  0  0  0  0
  8 22  1  0  0  0  0
  9 22  2  0  0  0  0
 10 23  1  0  0  0  0
 11 12  2  0  0  0  0
 11 24  1  0  0  0  0
 12 25  1  0  0  0  0
 13 21  1  0  0  0  0
 13 23  2  0  0  0  0
 14 25  2  0  0  0  0
 14 26  1  0  0  0  0
 15 30  1  0  0  0  0
 15 65  2  0  0  0  0
 16 27  1  0  0  0  0
 17 27  1  0  0  0  0
 17 31  2  0  0  0  0
 17 32  1  0  0  0  0
 18 20  2  0  0  0  0
 18 37  1  0  0  0  0
 19 21  2  0  0  0  0
 19 38  1  0  0  0  0
 20 46  1  0  0  0  0
 21 39  1  0  0  0  0
 22 82  1  0  0  0  0
 23 83  1  0  0  0  0
 24 26  2  0  0  0  0
 24 82  1  0  0  0  0
 25 84  1  0  0  0  0
 26 85  1  0  0  0  0
 27 66  2  0  0  0  0
 28 29  2  0  0  0  0
 28 49  1  0  0  0  0
 28 67  1  0  0  0  0
 29 56  1  0  0  0  0
 29 65  1  0  0  0  0
 30 67  2  0  0  0  0
 30 73  1  0  0  0  0
 31 68  1  0  0  0  0
 31 71  1  0  0  0  0
 32 72  1  0  0  0  0
 32 77  2  0  0  0  0
 33 47  1  0  0  0  0
 33 74  1  0  0  0  0
 33 78  2  0  0  0  0
 34 61  1  0  0  0  0
 34 69  1  0  0  0  0
 34 79  2  0  0  0  0
 35 62  1  0  0  0  0
 35 75  1  0  0  0  0
 35 80  2  0  0  0  0
 36 70  1  0  0  0  0
 36 73  1  0  0  0  0
 36 81  2  0  0  0  0
 37 40  1  0  0  0  0
 38 47  1  0  0  0  0
 39 69  1  0  0  0  0
 40 42  1  0  0  0  0
 41 43  1  0  0  0  0
 41 44  1  0  0  0  0
 42 46  1  0  0  0  0
 43 48  1  0  0  0  0
 44 70  1  0  0  0  0
 45 48  1  0  0  0  0
 45 70  1  0  0  0  0
 46 74  1  0  0  0  0
 47 69  1  0  0  0  0
 48 68  1  0  0  0  0
 50 62  1  0  0  0  0
 51 63  1  0  0  0  0
 52 64  1  0  0  0  0
 53 64  1  0  0  0  0
 54 64  1  0  0  0  0
 55 76  1  0  0  0  0
 56 57  1  0  0  0  0
 57 63  1  0  0  0  0
 58 59  1  0  0  0  0
 58 60  1  0  0  0  0
 59 63  1  0  0  0  0
 60 83  1  0  0  0  0
 61 64  1  0  0  0  0
 61 75  1  0  0  0  0
 62 76  1  0  0  0  0
 66 68  1  0  0  0  0
M  CHG  1  76   1
M  ISO  4  36 100  60 101  73 100  83 101
M  END
> <Batch ID>
0079

> <Smiles>
CNC(C)C(=O)NC(C(=O)N1Cc2cc([101O:1][101CH2:1]CCC(C)CCc3ncc([100NH:0][100C:0](=O)N4CCCC(n5nc(-c6ccc(Oc7ccc(F)cc7F)cc6)c(C(N)=O)c5N)C4)nc3C)ccc2CC1C(=O)NC1CCCc2ccccc21)C(C)(C)C

> <Shape>
0.290

> <Color>
0.094

> <Negative vol penalty>
0.000

$$$$

  -OEChem-04052318413D

 85 93  0     1  0  0  0  0  0999 V2000
  -20.1134  -30.8781   24.3543 C   0  0  0  0  0  0  0  0  0  0  0  0
  -21.4017  -30.3864   24.1704 C   0  0  0  0  0  0  0  0  0  0  0  0
  -28.3950  -17.4264   20.7277 C   0  0  0  0  0  0  0  0  0  0  0  0
  -29.4714  -18.5516   22.5749 C   0  0  0  0  0  0  0  0  0  0  0  0
  -19.0177  -30.1476   23.8963 C   0  0  0  0  0  0  0  0  0  0  0  0
  -21.5950  -29.1632   23.5294 C   0  0  0  0  0  0  0  0  0  0  0  0
  -25.3277  -29.3298   20.1111 C   0  0  0  0  0  0  0  0  0  0  0  0
  -28.6916  -16.1924   21.3064 C   0  0  0  0  0  0  0  0  0  0  0  0
  -29.7679  -17.3176   23.1538 C   0  0  0  0  0  0  0  0  0  0  0  0
  -26.6349  -29.2758   20.5927 C   0  0  0  0  0  0  0  0  0  0  0  0
  -31.1250  -14.4575   24.9392 C   0  0  0  0  0  0  0  0  0  0  0  0
  -32.4108  -14.2718   25.4470 C   0  0  0  0  0  0  0  0  0  0  0  0
  -26.7347  -26.9295   20.0415 C   0  0  0  0  0  0  0  0  0  0  0  0
  -33.3356  -14.6701   23.2508 C   0  0  0  0  0  0  0  0  0  0  0  0
  -28.7849  -18.6060   21.3619 C   0  0  0  0  0  0  0  0  0  0  0  0
  -27.3230  -20.6585   20.9647 C   0  0  0  0  0  0  0  0  0  0  0  0
  -19.1982  -28.9195   23.2408 C   0  0  0  0  0  0  0  0  0  0  0  0
  -24.7093  -28.1796   19.6003 C   0  0  0  0  0  0  0  0  0  0  0  0
  -20.5006  -28.4150   23.0634 C   0  0  0  0  0  0  0  0  0  0  0  0
  -25.4204  -26.9721   19.5516 C   0  0  0  0  0  0  0  0  0  0  0  0
  -31.3248  -28.3951   21.3492 C   0  0  0  0  0  0  0  0  0  0  0  0
  -31.9832  -27.1852   21.2164 C   0  0  0  0  0  0  0  0  0  0  0  0
  -29.3780  -16.1380   22.5195 C   0  0  0  0  0  0  0  0  0  0  0  0
  -27.3377  -28.0749   20.5606 C   0  0  0  0  0  0  0  0  0  0  0  0
  -30.9445  -14.7493   23.5872 C   0  0  0  0  0  0  0  0  0  0  0  0
  -33.5161  -14.3782   24.6029 C   0  0  0  0  0  0  0  0  0  0  0  0
  -32.0498  -14.8557   22.7430 C   0  0  0  0  0  0  0  0  0  0  0  0
  -28.4793  -19.8810   20.7642 C   0  0  0  0  0  0  0  0  0  0  0  0
  -31.5315  -29.3532   20.3772 C   0  0  0  0  0  0  0  0  0  0  0  0
  -32.8045  -27.0135   20.1203 C   0  0  0  0  0  0  0  0  0  0  0  0
  -27.5148  -21.7680   20.1782 C   0  0  0  0  0  0  0  0  0  0  0  0
  -26.1780  -20.4008   21.7882 C   0  0  0  0  0  0  0  0  0  0  0  0
  -22.1573  -26.4616   20.4002 C   0  0  0  0  0  0  0  0  0  0  0  0
  -22.8419  -24.8828   17.6504 C   0  0  0  0  0  0  0  0  0  0  0  0
  -25.1714  -24.0079   15.3150 C   0  0  0  0  0  0  0  0  0  0  0  0
  -32.4236  -24.4826   18.0840 C   0  0  0  0  0  0  0  0  0  0  0  0
  -17.9806  -28.1432   22.8053 C   0  0  0  0  0  0  0  0  0  0  0  0
  -23.3079  -28.2606   19.0600 C   0  0  0  0  0  0  0  0  0  0  0  0
  -24.8089  -25.7135   18.9944 C   0  0  0  0  0  0  0  0  0  0  0  0
  -18.2914  -27.0347   21.8029 C   0  0  0  0  0  0  0  0  0  0  0  0
  -29.7152  -23.1835   16.1725 C   0  0  0  0  0  0  0  0  0  0  0  0
  -19.4996  -26.2241   22.2609 C   0  0  0  0  0  0  0  0  0  0  0  0
  -28.9870  -22.2600   17.1507 C   0  0  0  0  0  0  0  0  0  0  0  0
  -31.2279  -23.1428   16.3776 C   0  0  0  0  0  0  0  0  0  0  0  0
  -30.9450  -22.4865   18.7362 C   0  0  0  0  0  0  0  0  0  0  0  0
  -20.7524  -27.1040   22.3506 C   0  0  1  0  0  0  0  0  0  0  0  0
  -22.5980  -26.9105   19.0356 C   0  0  1  0  0  0  0  0  0  0  0  0
  -29.4131  -22.5358   18.6052 C   0  0  2  0  0  0  0  0  0  0  0  0
  -30.8570  -30.6817   20.4523 C   0  0  0  0  0  0  0  0  0  0  0  0
  -30.3546  -25.6017   22.3089 C   0  0  0  0  0  0  0  0  0  0  0  0
  -32.3002  -26.5156   23.6258 C   0  0  0  0  0  0  0  0  0  0  0  0
  -30.9222  -29.8200   23.3836 C   0  0  0  0  0  0  0  0  0  0  0  0
  -25.4412  -22.6793   13.2032 C   0  0  0  0  0  0  0  0  0  0  0  0
  -22.8233  -22.3005   19.2756 C   0  0  0  0  0  0  0  0  0  0  0  0
  -24.0049  -21.1779   17.3751 C   0  0  0  0  0  0  0  0  0  0  0  0
  -21.7249  -22.1311   17.0352 C   0  0  0  0  0  0  0  0  0  0  0  0
  -25.9599  -26.4057   13.7697 C   0  0  0  0  0  0  0  0  0  0  0  0
  -33.5458  -25.7364   19.9082 C   0  0  0  0  0  0  0  0  0  0  0  0
  -28.9579  -28.9197   22.0827 C   0  0  0  0  0  0  0  0  0  1  0  0
  -31.8094  -26.1007   22.2261 C   0  0  0  0  0  0  0  0  0  0  0  0
  -30.4032  -28.6601   22.5294 C   0  0  1  0  0  0  0  0  0  0  0  0
  -23.6968  -23.6935   17.2850 C   0  0  1  0  0  0  0  0  0  0  0  0
  -25.1405  -24.0464   13.7977 C   0  0  2  0  0  0  0  0  0  0  0  0
  -23.0736  -22.3488   17.7551 C   0  0  0  0  0  0  0  0  0  0  0  0
  -29.3417  -20.4484   19.9167 N   0  0  0  0  0  0  0  0  0  0  0  0
  -32.3411  -29.1578   19.3149 N   0  0  0  0  0  0  0  0  0  0  0  0
  -32.9879  -27.9686   19.1842 N   0  0  0  0  0  0  0  0  0  0  0  0
  -28.7269  -21.5943   19.5776 N   0  0  0  0  0  0  0  0  0  0  0  0
  -23.4339  -25.8422   18.4840 N   0  0  0  0  0  0  0  0  0  0  0  0
  -31.5652  -23.4140   17.7772 N   0  0  0  0  0  0  0  0  0  0  0  0
  -26.7630  -22.8656   19.9486 N   0  0  0  0  0  0  0  0  0  0  0  0
  -26.1431  -19.2129   22.5312 N   0  0  0  0  0  0  0  0  0  0  0  0
  -21.2989  -27.3412   21.0317 N   0  0  0  0  0  0  0  0  0  0  0  0
  -23.9198  -23.7779   15.8457 N   0  0  0  0  0  0  0  0  0  0  0  0
  -32.6864  -24.6743   19.4349 N   0  0  0  0  0  0  0  0  0  0  0  0
  -26.1496  -25.0149   13.2834 N   0  3  0  0  0  0  0  0  0  0  0  0
  -25.2071  -21.1926   21.8504 O   0  0  0  0  0  0  0  0  0  0  0  0
  -22.5648  -25.3955   20.8464 O   0  0  0  0  0  0  0  0  0  0  0  0
  -21.6936  -24.9614   17.2067 O   0  0  0  0  0  0  0  0  0  0  0  0
  -26.2035  -24.1624   15.9643 O   0  0  0  0  0  0  0  0  0  0  0  0
  -32.9149  -25.2152   17.2186 O   0  0  0  0  0  0  0  0  0  0  0  0
  -29.6674  -14.9341   23.0847 O   0  0  0  0  0  0  0  0  0  0  0  0
  -28.6135  -28.0192   21.0306 O   0  0  0  0  0  0  0  0  0  1  0  0
  -34.7509  -14.2014   25.0910 F   0  0  0  0  0  0  0  0  0  0  0  0
  -31.8828  -15.1371   21.4435 F   0  0  0  0  0  0  0  0  0  0  0  0
  1  2  1  0  0  0  0
  1  5  2  0  0  0  0
  2  6  2  0  0  0  0
  3  8  2  0  0  0  0
  3 15  1  0  0  0  0
  4  9  1  0  0  0  0
  4 15  2  0  0  0  0
  5 17  1  0  0  0  0
  6 19  1  0  0  0  0
  7 10  2  0  0  0  0
  7 18  1  0  0  0  0
  8 23  1  0  0  0  0
  9 23  2  0  0  0  0
 10 24  1  0  0  0  0
 11 12  2  0  0  0  0
 11 25  1  0  0  0  0
 12 26  1  0  0  0  0
 13 20  1  0  0  0  0
 13 24  2  0  0  0  0
 14 26  2  0  0  0  0
 14 27  1  0  0  0  0
 15 28  1  0  0  0  0
 16 28  1  0  0  0  0
 16 31  2  0  0  0  0
 16 32  1  0  0  0  0
 17 19  2  0  0  0  0
 17 37  1  0  0  0  0
 18 20  2  0  0  0  0
 18 38  1  0  0  0  0
 19 46  1  0  0  0  0
 20 39  1  0  0  0  0
 21 22  2  0  0  0  0
 21 29  1  0  0  0  0
 21 61  1  0  0  0  0
 22 30  1  0  0  0  0
 22 60  1  0  0  0  0
 23 82  1  0  0  0  0
 24 83  1  0  0  0  0
 25 27  2  0  0  0  0
 25 82  1  0  0  0  0
 26 84  1  0  0  0  0
 27 85  1  0  0  0  0
 28 65  2  0  0  0  0
 29 49  1  0  0  0  0
 29 66  2  0  0  0  0
 30 58  1  0  0  0  0
 30 67  2  0  0  0  0
 31 68  1  0  0  0  0
 31 71  1  0  0  0  0
 32 72  1  0  0  0  0
 32 77  2  0  0  0  0
 33 47  1  0  0  0  0
 33 73  1  0  0  0  0
 33 78  2  0  0  0  0
 34 62  1  0  0  0  0
 34 69  1  0  0  0  0
 34 79  2  0  0  0  0
 35 63  1  0  0  0  0
 35 74  1  0  0  0  0
 35 80  2  0  0  0  0
 36 70  1  0  0  0  0
 36 75  1  0  0  0  0
 36 81  2  0  0  0  0
 37 40  1  0  0  0  0
 38 47  1  0  0  0  0
 39 69  1  0  0  0  0
 40 42  1  0  0  0  0
 41 43  1  0  0  0  0
 41 44  1  0  0  0  0
 42 46  1  0  0  0  0
 43 48  1  0  0  0  0
 44 70  1  0  0  0  0
 45 48  1  0  0  0  0
 45 70  1  0  0  0  0
 46 73  1  0  0  0  0
 47 69  1  0  0  0  0
 48 68  1  0  0  0  0
 50 60  1  0  0  0  0
 51 60  1  0  0  0  0
 52 61  1  0  0  0  0
 53 63  1  0  0  0  0
 54 64  1  0  0  0  0
 55 64  1  0  0  0  0
 56 64  1  0  0  0  0
 57 76  1  0  0  0  0
 58 75  1  0  0  0  0
 59 61  1  0  0  0  0
 59 83  1  0  0  0  0
 62 64  1  0  0  0  0
 62 74  1  0  0  0  0
 63 76  1  0  0  0  0
 65 68  1  0  0  0  0
 66 67  1  0  0  0  0
M  CHG  1  76   1
M  ISO  4  36 100  59 101  75 100  83 101
M  END
> <Batch ID>
0079

> <Smiles>
CNC(C)C(=O)NC(C(=O)N1Cc2cc([101O:1][101CH2:1]C(C)c3c(C)nnc(C[100NH:0][100C:0](=O)N4CCCC(n5nc(-c6ccc(Oc7ccc(F)cc7F)cc6)c(C(N)=O)c5N)C4)c3C(C)C)ccc2CC1C(=O)NC1CCCc2ccccc21)C(C)(C)C

> <Shape>
0.192

> <Color>
0.055

> <Negative vol penalty>
0.000

$$$$

  -OEChem-04052318413D

 86 94  0     1  0  0  0  0  0999 V2000
  -17.5682  -19.8224   29.2728 C   0  0  0  0  0  0  0  0  0  0  0  0
  -17.8952  -19.0317   28.1758 C   0  0  0  0  0  0  0  0  0  0  0  0
  -28.5281  -26.4322   18.2505 C   0  0  0  0  0  0  0  0  0  0  0  0
  -27.0246  -25.6116   19.9543 C   0  0  0  0  0  0  0  0  0  0  0  0
  -18.1760  -21.0661   29.4401 C   0  0  0  0  0  0  0  0  0  0  0  0
  -18.8293  -19.4848   27.2449 C   0  0  0  0  0  0  0  0  0  0  0  0
  -22.8664  -16.0924   24.1305 C   0  0  0  0  0  0  0  0  0  0  0  0
  -27.7427  -27.5760   18.1082 C   0  0  0  0  0  0  0  0  0  0  0  0
  -26.2391  -26.7555   19.8121 C   0  0  0  0  0  0  0  0  0  0  0  0
  -22.8546  -15.5728   22.8368 C   0  0  0  0  0  0  0  0  0  0  0  0
  -26.3337  -29.9807   20.8168 C   0  0  0  0  0  0  0  0  0  0  0  0
  -25.9016  -30.6172   21.9804 C   0  0  0  0  0  0  0  0  0  0  0  0
  -24.1318  -17.4700   22.0697 C   0  0  0  0  0  0  0  0  0  0  0  0
  -24.1884  -12.6471   19.6043 C   0  0  0  0  0  0  0  0  0  0  0  0
  -23.6044  -30.2644   21.3203 C   0  0  0  0  0  0  0  0  0  0  0  0
  -28.1691  -25.4499   19.1735 C   0  0  0  0  0  0  0  0  0  0  0  0
  -30.0685  -24.0870   20.1945 C   0  0  0  0  0  0  0  0  0  0  0  0
  -19.1251  -21.5304   28.5159 C   0  0  0  0  0  0  0  0  0  0  0  0
  -23.5027  -17.3122   24.4018 C   0  0  0  0  0  0  0  0  0  0  0  0
  -19.4493  -20.7364   27.3993 C   0  0  0  0  0  0  0  0  0  0  0  0
  -24.1524  -18.0017   23.3681 C   0  0  0  0  0  0  0  0  0  0  0  0
  -25.1617  -13.6251   19.4995 C   0  0  0  0  0  0  0  0  0  0  0  0
  -26.5982  -27.7377   18.8890 C   0  0  0  0  0  0  0  0  0  0  0  0
  -23.4849  -16.2630   21.8056 C   0  0  0  0  0  0  0  0  0  0  0  0
  -25.4011  -29.4862   19.9049 C   0  0  0  0  0  0  0  0  0  0  0  0
  -24.5370  -30.7590   22.2321 C   0  0  0  0  0  0  0  0  0  0  0  0
  -24.0365  -29.6280   20.1567 C   0  0  0  0  0  0  0  0  0  0  0  0
  -28.9797  -24.2679   19.3206 C   0  0  0  0  0  0  0  0  0  0  0  0
  -24.5050  -11.4912   20.2892 C   0  0  0  0  0  0  0  0  0  0  0  0
  -26.3872  -13.3826   20.0869 C   0  0  0  0  0  0  0  0  0  0  0  0
  -30.4934  -22.8035   19.9526 C   0  0  0  0  0  0  0  0  0  0  0  0
  -30.6441  -24.9977   21.1405 C   0  0  0  0  0  0  0  0  0  0  0  0
  -22.5518  -20.1468   25.4812 C   0  0  0  0  0  0  0  0  0  0  0  0
  -25.7321  -20.7856   25.4617 C   0  0  0  0  0  0  0  0  0  0  0  0
  -28.8217  -20.0774   24.1970 C   0  0  0  0  0  0  0  0  0  0  0  0
  -29.4063  -17.4879   19.2385 C   0  0  0  0  0  0  0  0  0  0  0  0
  -19.7204  -22.9019   28.7137 C   0  0  0  0  0  0  0  0  0  0  0  0
  -23.5293  -17.8459   25.8078 C   0  0  0  0  0  0  0  0  0  0  0  0
  -24.8671  -19.3050   23.6110 C   0  0  0  0  0  0  0  0  0  0  0  0
  -20.9771  -23.1462   27.8822 C   0  0  0  0  0  0  0  0  0  0  0  0
  -29.2506  -19.5596   16.2751 C   0  0  0  0  0  0  0  0  0  0  0  0
  -20.7627  -22.6875   26.4433 C   0  0  0  0  0  0  0  0  0  0  0  0
  -29.2565  -20.9628   16.8843 C   0  0  0  0  0  0  0  0  0  0  0  0
  -28.4404  -18.5893   17.1298 C   0  0  0  0  0  0  0  0  0  0  0  0
  -28.8842  -19.9096   19.1629 C   0  0  0  0  0  0  0  0  0  0  0  0
  -20.4761  -21.1823   26.3811 C   0  0  1  0  0  0  0  0  0  0  0  0
  -23.7658  -19.3518   25.8709 C   0  0  1  0  0  0  0  0  0  0  0  0
  -29.7058  -20.9323   18.3572 C   0  0  2  0  0  0  0  0  0  0  0  0
  -23.4925  -10.4068   20.4303 C   0  0  0  0  0  0  0  0  0  0  0  0
  -27.8001  -15.0006   21.4077 C   0  0  0  0  0  0  0  0  0  0  0  0
  -31.2225  -20.7923   24.3461 C   0  0  0  0  0  0  0  0  0  0  0  0
  -25.0990  -23.2531   23.7823 C   0  0  0  0  0  0  0  0  0  0  0  0
  -27.5251  -23.3777   23.1768 C   0  0  0  0  0  0  0  0  0  0  0  0
  -26.8221  -23.6141   25.5585 C   0  0  0  0  0  0  0  0  0  0  0  0
  -29.4751  -12.7132   19.9069 C   0  0  0  0  0  0  0  0  0  0  0  0
  -28.4369  -13.5215   17.7883 C   0  0  0  0  0  0  0  0  0  0  0  0
  -29.6793  -17.4066   25.1406 C   0  0  0  0  0  0  0  0  0  0  0  0
  -24.8674  -14.9085   18.7616 C   0  0  0  0  0  0  0  0  0  0  0  0
  -29.8775  -15.0529   19.1653 C   0  0  0  0  0  0  0  0  0  0  0  0
  -24.5897  -16.0711   19.7083 C   0  0  0  0  0  0  0  0  0  1  0  0
  -27.4846  -14.3900   20.0141 C   0  0  1  0  0  0  0  0  0  0  0  0
  -26.7041  -21.3445   24.4508 C   0  0  1  0  0  0  0  0  0  0  0  0
  -30.1589  -19.8436   24.8765 C   0  0  2  0  0  0  0  0  0  0  0  0
  -26.5226  -22.8738   24.2368 C   0  0  0  0  0  0  0  0  0  0  0  0
  -28.8015  -13.9308   19.2360 C   0  0  0  0  0  0  0  0  0  0  0  0
  -28.7288  -23.1859   18.5787 N   0  0  0  0  0  0  0  0  0  0  0  0
  -25.7128  -11.2807   20.8542 N   0  0  0  0  0  0  0  0  0  0  0  0
  -26.6693  -12.2421   20.7515 N   0  0  0  0  0  0  0  0  0  0  0  0
  -29.6659  -22.3128   18.9858 N   0  0  0  0  0  0  0  0  0  0  0  0
  -24.8598  -19.7890   25.0014 N   0  0  0  0  0  0  0  0  0  0  0  0
  -28.9305  -18.5943   18.5154 N   0  0  0  0  0  0  0  0  0  0  0  0
  -31.4906  -22.0581   20.4745 N   0  0  0  0  0  0  0  0  0  0  0  0
  -30.0847  -26.2771   21.2619 N   0  0  0  0  0  0  0  0  0  0  0  0
  -21.7016  -20.4278   26.5336 N   0  0  0  0  0  0  0  0  0  0  0  0
  -28.0349  -20.9589   24.9077 N   0  0  0  0  0  0  0  0  0  0  0  0
  -29.4109  -16.2781   18.5552 N   0  0  0  0  0  0  0  0  0  0  0  0
  -30.6195  -18.4451   24.6461 N   0  3  0  0  0  0  0  0  0  0  0  0
  -31.6358  -24.6919   21.8451 O   0  0  0  0  0  0  0  0  0  0  0  0
  -22.3987  -20.4818   24.3124 O   0  0  0  0  0  0  0  0  0  0  0  0
  -25.7510  -21.2122   26.6189 O   0  0  0  0  0  0  0  0  0  0  0  0
  -28.5081  -19.5353   23.1394 O   0  0  0  0  0  0  0  0  0  0  0  0
  -29.8031  -17.5729   20.4057 O   0  0  0  0  0  0  0  0  0  0  0  0
  -25.8316  -28.8538   18.7506 O   0  0  0  0  0  0  0  0  0  0  0  0
  -23.4744  -15.7583   20.5418 O   0  0  0  0  0  0  0  0  0  1  0  0
  -24.1223  -31.3689   23.3503 F   0  0  0  0  0  0  0  0  0  0  0  0
  -23.1359  -29.1539   19.2850 F   0  0  0  0  0  0  0  0  0  0  0  0
  1  2  1  0  0  0  0
  1  5  2  0  0  0  0
  2  6  2  0  0  0  0
  3  8  2  0  0  0  0
  3 16  1  0  0  0  0
  4  9  1  0  0  0  0
  4 16  2  0  0  0  0
  5 18  1  0  0  0  0
  6 20  1  0  0  0  0
  7 10  2  0  0  0  0
  7 19  1  0  0  0  0
  8 23  1  0  0  0  0
  9 23  2  0  0  0  0
 10 24  1  0  0  0  0
 11 12  2  0  0  0  0
 11 25  1  0  0  0  0
 12 26  1  0  0  0  0
 13 21  1  0  0  0  0
 13 24  2  0  0  0  0
 14 22  1  0  0  0  0
 14 29  2  0  0  0  0
 15 26  2  0  0  0  0
 15 27  1  0  0  0  0
 16 28  1  0  0  0  0
 17 28  1  0  0  0  0
 17 31  2  0  0  0  0
 17 32  1  0  0  0  0
 18 20  2  0  0  0  0
 18 37  1  0  0  0  0
 19 21  2  0  0  0  0
 19 38  1  0  0  0  0
 20 46  1  0  0  0  0
 21 39  1  0  0  0  0
 22 30  2  0  0  0  0
 22 58  1  0  0  0  0
 23 83  1  0  0  0  0
 24 84  1  0  0  0  0
 25 27  2  0  0  0  0
 25 83  1  0  0  0  0
 26 85  1  0  0  0  0
 27 86  1  0  0  0  0
 28 66  2  0  0  0  0
 29 49  1  0  0  0  0
 29 67  1  0  0  0  0
 30 61  1  0  0  0  0
 30 68  1  0  0  0  0
 31 69  1  0  0  0  0
 31 72  1  0  0  0  0
 32 73  1  0  0  0  0
 32 78  2  0  0  0  0
 33 47  1  0  0  0  0
 33 74  1  0  0  0  0
 33 79  2  0  0  0  0
 34 62  1  0  0  0  0
 34 70  1  0  0  0  0
 34 80  2  0  0  0  0
 35 63  1  0  0  0  0
 35 75  1  0  0  0  0
 35 81  2  0  0  0  0
 36 71  1  0  0  0  0
 36 76  1  0  0  0  0
 36 82  2  0  0  0  0
 37 40  1  0  0  0  0
 38 47  1  0  0  0  0
 39 70  1  0  0  0  0
 40 42  1  0  0  0  0
 41 43  1  0  0  0  0
 41 44  1  0  0  0  0
 42 46  1  0  0  0  0
 43 48  1  0  0  0  0
 44 71  1  0  0  0  0
 45 48  1  0  0  0  0
 45 71  1  0  0  0  0
 46 74  1  0  0  0  0
 47 70  1  0  0  0  0
 48 69  1  0  0  0  0
 50 61  1  0  0  0  0
 51 63  1  0  0  0  0
 52 64  1  0  0  0  0
 53 64  1  0  0  0  0
 54 64  1  0  0  0  0
 55 65  1  0  0  0  0
 56 65  1  0  0  0  0
 57 77  1  0  0  0  0
 58 60  1  0  0  0  0
 59 65  1  0  0  0  0
 59 76  1  0  0  0  0
 60 84  1  0  0  0  0
 61 65  1  0  0  0  0
 62 64  1  0  0  0  0
 62 75  1  0  0  0  0
 63 77  1  0  0  0  0
 66 69  1  0  0  0  0
 67 68  2  0  0  0  0
M  CHG  1  77   1
M  ISO  4  36 100  60 101  76 100  84 101
M  END
> <Batch ID>
0079

> <Smiles>
CNC(C)C(=O)NC(C(=O)N1Cc2cc([101O:1][101CH2:1]Cc3cc(C)nnc3C(C)C(C)(C)C[100NH:0][100C:0](=O)N3CCCC(n4nc(-c5ccc(Oc6ccc(F)cc6F)cc5)c(C(N)=O)c4N)C3)ccc2CC1C(=O)NC1CCCc2ccccc21)C(C)(C)C

> <Shape>
0.196

> <Color>
0.081

> <Negative vol penalty>
0.000

$$$$

  -OEChem-04052318413D

 86 94  0     1  0  0  0  0  0999 V2000
  -16.6527  -28.6182   23.5884 C   0  0  0  0  0  0  0  0  0  0  0  0
  -17.3460  -27.9926   22.5572 C   0  0  0  0  0  0  0  0  0  0  0  0
  -27.2367  -10.9206   20.3116 C   0  0  0  0  0  0  0  0  0  0  0  0
  -26.3468  -12.5072   18.7216 C   0  0  0  0  0  0  0  0  0  0  0  0
  -17.1553  -29.7888   24.1550 C   0  0  0  0  0  0  0  0  0  0  0  0
  -18.5419  -28.5378   22.0913 C   0  0  0  0  0  0  0  0  0  0  0  0
  -22.1485  -25.0425   21.4434 C   0  0  0  0  0  0  0  0  0  0  0  0
  -26.0900  -10.1386   20.1730 C   0  0  0  0  0  0  0  0  0  0  0  0
  -25.2001  -11.7252   18.5830 C   0  0  0  0  0  0  0  0  0  0  0  0
  -22.0708  -24.2522   20.2974 C   0  0  0  0  0  0  0  0  0  0  0  0
  -23.2378   -7.9078   20.5082 C   0  0  0  0  0  0  0  0  0  0  0  0
  -22.6466   -7.4095   21.6691 C   0  0  0  0  0  0  0  0  0  0  0  0
  -23.7385  -25.6358   19.2374 C   0  0  0  0  0  0  0  0  0  0  0  0
  -25.1547  -21.6601   19.6781 C   0  0  0  0  0  0  0  0  0  0  0  0
  -22.3120   -9.6654   22.4668 C   0  0  0  0  0  0  0  0  0  0  0  0
  -26.2325  -20.2935   18.0572 C   0  0  0  0  0  0  0  0  0  0  0  0
  -27.3651  -12.1049   19.5859 C   0  0  0  0  0  0  0  0  0  0  0  0
  -29.7353  -12.8246   18.9762 C   0  0  0  0  0  0  0  0  0  0  0  0
  -18.3628  -30.3434   23.7023 C   0  0  0  0  0  0  0  0  0  0  0  0
  -23.0154  -26.1437   21.4911 C   0  0  0  0  0  0  0  0  0  0  0  0
  -19.0604  -29.7177   22.6515 C   0  0  0  0  0  0  0  0  0  0  0  0
  -23.8273  -26.4369   20.3861 C   0  0  0  0  0  0  0  0  0  0  0  0
  -25.1210  -21.0264   18.4410 C   0  0  0  0  0  0  0  0  0  0  0  0
  -26.2828  -21.5431   20.4824 C   0  0  0  0  0  0  0  0  0  0  0  0
  -25.0717  -10.5409   19.3087 C   0  0  0  0  0  0  0  0  0  0  0  0
  -22.8637  -24.5505   19.1932 C   0  0  0  0  0  0  0  0  0  0  0  0
  -23.3663   -9.2848   20.3265 C   0  0  0  0  0  0  0  0  0  0  0  0
  -22.1837   -8.2883   22.6484 C   0  0  0  0  0  0  0  0  0  0  0  0
  -22.9033  -10.1636   21.3059 C   0  0  0  0  0  0  0  0  0  0  0  0
  -28.5491  -12.9134   19.7291 C   0  0  0  0  0  0  0  0  0  0  0  0
  -27.3422  -20.7869   20.0074 C   0  0  0  0  0  0  0  0  0  0  0  0
  -30.5467  -13.8028   19.4970 C   0  0  0  0  0  0  0  0  0  0  0  0
  -30.0735  -11.9372   17.9020 C   0  0  0  0  0  0  0  0  0  0  0  0
  -22.6402  -29.2799   21.8477 C   0  0  0  0  0  0  0  0  0  0  0  0
  -25.8827  -29.2639   21.9390 C   0  0  0  0  0  0  0  0  0  0  0  0
  -28.7968  -27.6952   21.1059 C   0  0  0  0  0  0  0  0  0  0  0  0
  -29.4201  -18.9098   22.4125 C   0  0  0  0  0  0  0  0  0  0  0  0
  -18.8422  -31.6362   24.3137 C   0  0  0  0  0  0  0  0  0  0  0  0
  -23.1070  -26.9703   22.7443 C   0  0  0  0  0  0  0  0  0  0  0  0
  -24.7890  -27.5960   20.3940 C   0  0  0  0  0  0  0  0  0  0  0  0
  -20.3076  -31.9439   24.0165 C   0  0  0  0  0  0  0  0  0  0  0  0
  -31.4071  -16.1856   23.5557 C   0  0  0  0  0  0  0  0  0  0  0  0
  -20.6095  -31.7259   22.5373 C   0  0  0  0  0  0  0  0  0  0  0  0
  -31.0070  -15.0300   22.6367 C   0  0  0  0  0  0  0  0  0  0  0  0
  -30.2165  -17.0834   23.8845 C   0  0  0  0  0  0  0  0  0  0  0  0
  -29.0844  -16.4402   21.7920 C   0  0  0  0  0  0  0  0  0  0  0  0
  -20.3736  -30.2649   22.1355 C   0  0  1  0  0  0  0  0  0  0  0  0
  -23.6492  -28.3745   22.4957 C   0  0  1  0  0  0  0  0  0  0  0  0
  -30.2634  -15.5390   21.3872 C   0  0  2  0  0  0  0  0  0  0  0  0
  -25.8394  -20.9735   25.4626 C   0  0  0  0  0  0  0  0  0  0  0  0
  -29.8325  -21.1684   20.1281 C   0  0  0  0  0  0  0  0  0  0  0  0
  -31.2877  -27.9426   21.2834 C   0  0  0  0  0  0  0  0  0  0  0  0
  -25.8309  -31.3545   19.7173 C   0  0  0  0  0  0  0  0  0  0  0  0
  -28.2482  -30.8608   19.2916 C   0  0  0  0  0  0  0  0  0  0  0  0
  -27.5332  -31.7704   21.5016 C   0  0  0  0  0  0  0  0  0  0  0  0
  -29.0496  -25.1979   22.6740 C   0  0  0  0  0  0  0  0  0  0  0  0
  -23.9127  -21.1325   17.5453 C   0  0  0  0  0  0  0  0  0  0  0  0
  -26.3262  -22.2210   21.8083 C   0  0  0  0  0  0  0  0  0  0  0  0
  -26.1046  -21.9462   24.3246 C   0  0  0  0  0  0  0  0  0  0  0  0
  -23.9647  -22.3177   16.5787 C   0  0  0  0  0  0  0  0  0  0  0  0
  -26.0989  -21.2385   22.9696 C   0  0  0  0  0  0  0  0  0  0  0  0
  -23.9715  -23.6702   17.2817 C   0  0  0  0  0  0  0  0  0  1  0  0
  -28.5796  -20.6257   20.8287 C   0  0  2  0  0  0  0  0  0  0  0  0
  -26.9818  -29.3750   20.9101 C   0  0  1  0  0  0  0  0  0  0  0  0
  -30.0336  -27.3673   21.9229 C   0  0  2  0  0  0  0  0  0  0  0  0
  -27.1291  -30.8194   20.3540 C   0  0  0  0  0  0  0  0  0  0  0  0
  -27.3462  -20.1569   18.8113 N   0  0  0  0  0  0  0  0  0  0  0  0
  -28.5984  -13.8723   20.6576 N   0  0  0  0  0  0  0  0  0  0  0  0
  -29.8253  -14.3948   20.4917 N   0  0  0  0  0  0  0  0  0  0  0  0
  -24.8377  -28.3782   21.6403 N   0  0  0  0  0  0  0  0  0  0  0  0
  -29.5563  -17.5332   22.6566 N   0  0  0  0  0  0  0  0  0  0  0  0
  -31.7996  -14.2056   19.1967 N   0  0  0  0  0  0  0  0  0  0  0  0
  -29.1233  -10.9921   17.4918 N   0  0  0  0  0  0  0  0  0  0  0  0
  -21.4754  -29.4358   22.5746 N   0  0  0  0  0  0  0  0  0  0  0  0
  -28.1879  -28.8525   21.5431 N   0  0  0  0  0  0  0  0  0  0  0  0
  -28.7882  -19.2502   21.2228 N   0  0  0  0  0  0  0  0  0  0  0  0
  -30.2006  -25.8911   22.0402 N   0  3  0  0  0  0  0  0  0  0  0  0
  -31.1915  -11.9701   17.3340 O   0  0  0  0  0  0  0  0  0  0  0  0
  -22.8999  -29.7999   20.7689 O   0  0  0  0  0  0  0  0  0  0  0  0
  -25.9526  -29.9328   22.9731 O   0  0  0  0  0  0  0  0  0  0  0  0
  -28.4117  -26.9966   20.1709 O   0  0  0  0  0  0  0  0  0  0  0  0
  -29.8359  -19.7717   23.1943 O   0  0  0  0  0  0  0  0  0  0  0  0
  -23.9528   -9.7779   19.1731 O   0  0  0  0  0  0  0  0  0  0  0  0
  -22.7893  -23.7811   18.0732 O   0  0  0  0  0  0  0  0  0  1  0  0
  -21.6145   -7.8097   23.7625 F   0  0  0  0  0  0  0  0  0  0  0  0
  -23.0228  -11.4875   21.1365 F   0  0  0  0  0  0  0  0  0  0  0  0
  1  2  1  0  0  0  0
  1  5  2  0  0  0  0
  2  6  2  0  0  0  0
  3  8  2  0  0  0  0
  3 17  1  0  0  0  0
  4  9  1  0  0  0  0
  4 17  2  0  0  0  0
  5 19  1  0  0  0  0
  6 21  1  0  0  0  0
  7 10  2  0  0  0  0
  7 20  1  0  0  0  0
  8 25  1  0  0  0  0
  9 25  2  0  0  0  0
 10 26  1  0  0  0  0
 11 12  2  0  0  0  0
 11 27  1  0  0  0  0
 12 28  1  0  0  0  0
 13 22  1  0  0  0  0
 13 26  2  0  0  0  0
 14 23  2  0  0  0  0
 14 24  1  0  0  0  0
 15 28  2  0  0  0  0
 15 29  1  0  0  0  0
 16 23  1  0  0  0  0
 16 67  2  0  0  0  0
 17 30  1  0  0  0  0
 18 30  1  0  0  0  0
 18 32  2  0  0  0  0
 18 33  1  0  0  0  0
 19 21  2  0  0  0  0
 19 38  1  0  0  0  0
 20 22  2  0  0  0  0
 20 39  1  0  0  0  0
 21 47  1  0  0  0  0
 22 40  1  0  0  0  0
 23 57  1  0  0  0  0
 24 31  2  0  0  0  0
 24 58  1  0  0  0  0
 25 83  1  0  0  0  0
 26 84  1  0  0  0  0
 27 29  2  0  0  0  0
 27 83  1  0  0  0  0
 28 85  1  0  0  0  0
 29 86  1  0  0  0  0
 30 68  2  0  0  0  0
 31 63  1  0  0  0  0
 31 67  1  0  0  0  0
 32 69  1  0  0  0  0
 32 72  1  0  0  0  0
 33 73  1  0  0  0  0
 33 78  2  0  0  0  0
 34 48  1  0  0  0  0
 34 74  1  0  0  0  0
 34 79  2  0  0  0  0
 35 64  1  0  0  0  0
 35 70  1  0  0  0  0
 35 80  2  0  0  0  0
 36 65  1  0  0  0  0
 36 75  1  0  0  0  0
 36 81  2  0  0  0  0
 37 71  1  0  0  0  0
 37 76  1  0  0  0  0
 37 82  2  0  0  0  0
 38 41  1  0  0  0  0
 39 48  1  0  0  0  0
 40 70  1  0  0  0  0
 41 43  1  0  0  0  0
 42 44  1  0  0  0  0
 42 45  1  0  0  0  0
 43 47  1  0  0  0  0
 44 49  1  0  0  0  0
 45 71  1  0  0  0  0
 46 49  1  0  0  0  0
 46 71  1  0  0  0  0
 47 74  1  0  0  0  0
 48 70  1  0  0  0  0
 49 69  1  0  0  0  0
 50 59  1  0  0  0  0
 51 63  1  0  0  0  0
 52 65  1  0  0  0  0
 53 66  1  0  0  0  0
 54 66  1  0  0  0  0
 55 66  1  0  0  0  0
 56 77  1  0  0  0  0
 57 60  1  0  0  0  0
 58 61  1  0  0  0  0
 59 61  1  0  0  0  0
 60 62  1  0  0  0  0
 62 84  1  0  0  0  0
 63 76  1  0  0  0  0
 64 66  1  0  0  0  0
 64 75  1  0  0  0  0
 65 77  1  0  0  0  0
 68 69  1  0  0  0  0
M  CHG  1  77   1
M  ISO  4  37 100  62 101  76 100  84 101
M  END
> <Batch ID>
0079

> <Smiles>
CCCCc1cc(CC[101CH2:1][101O:1]c2ccc3c(c2)CN(C(=O)C(NC(=O)C(C)NC)C(C)(C)C)C(C(=O)NC2CCCc4ccccc42)C3)cnc1C(C)[100NH:0][100C:0](=O)N1CCCC(n2nc(-c3ccc(Oc4ccc(F)cc4F)cc3)c(C(N)=O)c2N)C1

> <Shape>
0.282

> <Color>
0.081

> <Negative vol penalty>
0.000

$$$$

  -OEChem-04052318413D

 87 95  0     1  0  0  0  0  0999 V2000
  -17.6005  -29.2115   25.3924 C   0  0  0  0  0  0  0  0  0  0  0  0
  -18.4302  -28.3068   26.0471 C   0  0  0  0  0  0  0  0  0  0  0  0
  -23.6848  -13.3791   20.6221 C   0  0  0  0  0  0  0  0  0  0  0  0
  -25.8960  -14.0694   21.3085 C   0  0  0  0  0  0  0  0  0  0  0  0
  -17.6402  -29.3122   24.0023 C   0  0  0  0  0  0  0  0  0  0  0  0
  -19.2993  -27.5014   25.3119 C   0  0  0  0  0  0  0  0  0  0  0  0
  -25.7514  -24.4172   25.7290 C   0  0  0  0  0  0  0  0  0  0  0  0
  -24.1768  -12.1112   20.3122 C   0  0  0  0  0  0  0  0  0  0  0  0
  -26.3880  -12.8015   20.9986 C   0  0  0  0  0  0  0  0  0  0  0  0
  -26.3623  -23.1732   25.5778 C   0  0  0  0  0  0  0  0  0  0  0  0
  -24.7794   -8.5824   19.6804 C   0  0  0  0  0  0  0  0  0  0  0  0
  -24.0381   -7.4784   20.1014 C   0  0  0  0  0  0  0  0  0  0  0  0
  -26.4015  -23.4898   23.1867 C   0  0  0  0  0  0  0  0  0  0  0  0
  -28.7232  -17.6418   19.8045 C   0  0  0  0  0  0  0  0  0  0  0  0
  -24.2850   -8.1882   22.3976 C   0  0  0  0  0  0  0  0  0  0  0  0
  -24.5444  -14.3582   21.1202 C   0  0  0  0  0  0  0  0  0  0  0  0
  -23.5186  -16.1010   22.6752 C   0  0  0  0  0  0  0  0  0  0  0  0
  -18.5171  -28.5145   23.2505 C   0  0  0  0  0  0  0  0  0  0  0  0
  -25.4506  -25.2035   24.6076 C   0  0  0  0  0  0  0  0  0  0  0  0
  -19.3497  -27.5906   23.9104 C   0  0  0  0  0  0  0  0  0  0  0  0
  -25.7891  -24.7446   23.3266 C   0  0  0  0  0  0  0  0  0  0  0  0
  -29.2839  -18.1331   20.9781 C   0  0  0  0  0  0  0  0  0  0  0  0
  -28.5188  -18.4968   18.7272 C   0  0  0  0  0  0  0  0  0  0  0  0
  -25.5284  -11.8224   20.5005 C   0  0  0  0  0  0  0  0  0  0  0  0
  -26.6849  -22.7080   24.3063 C   0  0  0  0  0  0  0  0  0  0  0  0
  -25.2736   -9.4892   20.6180 C   0  0  0  0  0  0  0  0  0  0  0  0
  -23.7909   -7.2813   21.4599 C   0  0  0  0  0  0  0  0  0  0  0  0
  -25.0264   -9.2922   21.9766 C   0  0  0  0  0  0  0  0  0  0  0  0
  -24.0369  -15.6683   21.4399 C   0  0  0  0  0  0  0  0  0  0  0  0
  -29.6203  -19.4764   21.0234 C   0  0  0  0  0  0  0  0  0  0  0  0
  -28.8892  -19.8239   18.8733 C   0  0  0  0  0  0  0  0  0  0  0  0
  -23.1756  -17.4138   22.4627 C   0  0  0  0  0  0  0  0  0  0  0  0
  -23.3614  -15.3806   23.9048 C   0  0  0  0  0  0  0  0  0  0  0  0
  -22.7779  -26.3449   23.3200 C   0  0  0  0  0  0  0  0  0  0  0  0
  -24.8455  -27.8769   21.3450 C   0  0  0  0  0  0  0  0  0  0  0  0
  -27.9429  -27.9897   19.9166 C   0  0  0  0  0  0  0  0  0  0  0  0
  -25.1043  -21.5573   18.5945 C   0  0  0  0  0  0  0  0  0  0  0  0
  -18.4905  -28.6252   21.7466 C   0  0  0  0  0  0  0  0  0  0  0  0
  -24.8157  -26.5549   24.7895 C   0  0  0  0  0  0  0  0  0  0  0  0
  -25.5057  -25.5592   22.0918 C   0  0  0  0  0  0  0  0  0  0  0  0
  -19.7077  -28.0018   21.0683 C   0  0  0  0  0  0  0  0  0  0  0  0
  -21.7615  -20.4019   19.0040 C   0  0  0  0  0  0  0  0  0  0  0  0
  -19.9978  -26.6236   21.6541 C   0  0  0  0  0  0  0  0  0  0  0  0
  -21.9189  -19.0968   19.7862 C   0  0  0  0  0  0  0  0  0  0  0  0
  -22.8974  -20.6002   18.0028 C   0  0  0  0  0  0  0  0  0  0  0  0
  -24.4099  -19.2061   19.3602 C   0  0  0  0  0  0  0  0  0  0  0  0
  -20.3237  -26.7173   23.1496 C   0  0  1  0  0  0  0  0  0  0  0  0
  -24.0882  -27.0461   23.5417 C   0  0  1  0  0  0  0  0  0  0  0  0
  -23.3180  -18.9892   20.4218 C   0  0  2  0  0  0  0  0  0  0  0  0
  -29.5055  -17.2222   22.1358 C   0  0  0  0  0  0  0  0  0  0  0  0
  -27.9182  -17.9768   17.4670 C   0  0  0  0  0  0  0  0  0  0  0  0
  -29.3261  -29.3399   18.3162 C   0  0  0  0  0  0  0  0  0  0  0  0
  -23.2989  -26.6805   19.0026 C   0  0  0  0  0  0  0  0  0  0  0  0
  -25.2338  -27.2559   17.5216 C   0  0  0  0  0  0  0  0  0  0  0  0
  -23.9801  -29.0668   18.6929 C   0  0  0  0  0  0  0  0  0  0  0  0
  -29.6284  -23.0445   18.5095 C   0  0  0  0  0  0  0  0  0  0  0  0
  -27.7698  -22.9595   16.8567 C   0  0  0  0  0  0  0  0  0  0  0  0
  -29.9596  -28.6013   21.9944 C   0  0  0  0  0  0  0  0  0  0  0  0
  -30.2306  -20.0660   22.2698 C   0  0  0  0  0  0  0  0  0  0  0  0
  -28.6939  -20.7869   17.7482 C   0  0  0  0  0  0  0  0  0  0  0  0
  -29.2219  -20.3069   23.3950 C   0  0  0  0  0  0  0  0  0  0  0  0
  -27.3422  -22.3834   19.2788 C   0  0  0  0  0  0  0  0  0  0  0  0
  -28.1520  -21.3320   23.0375 C   0  0  0  0  0  0  0  0  0  1  0  0
  -25.5035  -27.5518   20.0257 C   0  0  1  0  0  0  0  0  0  0  0  0
  -28.9448  -29.1209   19.7720 C   0  0  2  0  0  0  0  0  0  0  0  0
  -24.5078  -27.6223   18.8336 C   0  0  0  0  0  0  0  0  0  0  0  0
  -28.3534  -22.2724   18.1128 C   0  0  0  0  0  0  0  0  0  0  0  0
  -24.0260  -16.6284   20.5114 N   0  0  0  0  0  0  0  0  0  0  0  0
  -29.4368  -20.3376   19.9976 N   0  0  0  0  0  0  0  0  0  0  0  0
  -23.4965  -17.6774   21.1636 N   0  0  0  0  0  0  0  0  0  0  0  0
  -24.8781  -26.8711   22.3212 N   0  0  0  0  0  0  0  0  0  0  0  0
  -24.1969  -20.4877   18.6695 N   0  0  0  0  0  0  0  0  0  0  0  0
  -22.6338  -18.3570   23.2623 N   0  0  0  0  0  0  0  0  0  0  0  0
  -23.7654  -14.0392   23.9497 N   0  0  0  0  0  0  0  0  0  0  0  0
  -21.6800  -27.1837   23.3430 N   0  0  0  0  0  0  0  0  0  0  0  0
  -26.6443  -28.4532   19.9055 N   0  0  0  0  0  0  0  0  0  0  0  0
  -26.3100  -21.3710   19.2595 N   0  0  0  0  0  0  0  0  0  0  0  0
  -30.1842  -28.8166   20.5418 N   0  3  0  0  0  0  0  0  0  0  0  0
  -22.8618  -15.9058   24.9286 O   0  0  0  0  0  0  0  0  0  0  0  0
  -22.7642  -25.1329   23.1397 O   0  0  0  0  0  0  0  0  0  0  0  0
  -24.3281  -28.9851   21.5059 O   0  0  0  0  0  0  0  0  0  0  0  0
  -28.2785  -26.8124   20.0244 O   0  0  0  0  0  0  0  0  0  0  0  0
  -24.8560  -22.6031   17.9848 O   0  0  0  0  0  0  0  0  0  0  0  0
  -26.0088  -10.5852   20.1984 O   0  0  0  0  0  0  0  0  0  0  0  0
  -27.2806  -21.4938   24.1558 O   0  0  0  0  0  0  0  0  0  1  0  0
  -23.0777   -6.2219   21.8639 F   0  0  0  0  0  0  0  0  0  0  0  0
  -25.4975  -10.1606   22.8819 F   0  0  0  0  0  0  0  0  0  0  0  0
  1  2  1  0  0  0  0
  1  5  2  0  0  0  0
  2  6  2  0  0  0  0
  3  8  2  0  0  0  0
  3 16  1  0  0  0  0
  4  9  1  0  0  0  0
  4 16  2  0  0  0  0
  5 18  1  0  0  0  0
  6 20  1  0  0  0  0
  7 10  2  0  0  0  0
  7 19  1  0  0  0  0
  8 24  1  0  0  0  0
  9 24  2  0  0  0  0
 10 25  1  0  0  0  0
 11 12  2  0  0  0  0
 11 26  1  0  0  0  0
 12 27  1  0  0  0  0
 13 21  1  0  0  0  0
 13 25  2  0  0  0  0
 14 22  1  0  0  0  0
 14 23  2  0  0  0  0
 15 27  2  0  0  0  0
 15 28  1  0  0  0  0
 16 29  1  0  0  0  0
 17 29  1  0  0  0  0
 17 32  2  0  0  0  0
 17 33  1  0  0  0  0
 18 20  2  0  0  0  0
 18 38  1  0  0  0  0
 19 21  2  0  0  0  0
 19 39  1  0  0  0  0
 20 47  1  0  0  0  0
 21 40  1  0  0  0  0
 22 30  2  0  0  0  0
 22 50  1  0  0  0  0
 23 31  1  0  0  0  0
 23 51  1  0  0  0  0
 24 84  1  0  0  0  0
 25 85  1  0  0  0  0
 26 28  2  0  0  0  0
 26 84  1  0  0  0  0
 27 86  1  0  0  0  0
 28 87  1  0  0  0  0
 29 68  2  0  0  0  0
 30 59  1  0  0  0  0
 30 69  1  0  0  0  0
 31 60  1  0  0  0  0
 31 69  2  0  0  0  0
 32 70  1  0  0  0  0
 32 73  1  0  0  0  0
 33 74  1  0  0  0  0
 33 79  2  0  0  0  0
 34 48  1  0  0  0  0
 34 75  1  0  0  0  0
 34 80  2  0  0  0  0
 35 64  1  0  0  0  0
 35 71  1  0  0  0  0
 35 81  2  0  0  0  0
 36 65  1  0  0  0  0
 36 76  1  0  0  0  0
 36 82  2  0  0  0  0
 37 72  1  0  0  0  0
 37 77  1  0  0  0  0
 37 83  2  0  0  0  0
 38 41  1  0  0  0  0
 39 48  1  0  0  0  0
 40 71  1  0  0  0  0
 41 43  1  0  0  0  0
 42 44  1  0  0  0  0
 42 45  1  0  0  0  0
 43 47  1  0  0  0  0
 44 49  1  0  0  0  0
 45 72  1  0  0  0  0
 46 49  1  0  0  0  0
 46 72  1  0  0  0  0
 47 75  1  0  0  0  0
 48 71  1  0  0  0  0
 49 70  1  0  0  0  0
 52 65  1  0  0  0  0
 53 66  1  0  0  0  0
 54 66  1  0  0  0  0
 55 66  1  0  0  0  0
 56 67  1  0  0  0  0
 57 67  1  0  0  0  0
 58 78  1  0  0  0  0
 59 61  1  0  0  0  0
 60 67  1  0  0  0  0
 61 63  1  0  0  0  0
 62 67  1  0  0  0  0
 62 77  1  0  0  0  0
 63 85  1  0  0  0  0
 64 66  1  0  0  0  0
 64 76  1  0  0  0  0
 65 78  1  0  0  0  0
 68 70  1  0  0  0  0
M  CHG  1  78   1
M  ISO  4  37 100  63 101  77 100  85 101
M  END
> <Batch ID>
0079

> <Smiles>
CNC(C)C(=O)NC(C(=O)N1Cc2cc([101O:1][101CH2:1]CCc3nc(CC(C)(C)C[100NH:0][100C:0](=O)N4CCCC(n5nc(-c6ccc(Oc7ccc(F)cc7F)cc6)c(C(N)=O)c5N)C4)c(C)cc3C)ccc2CC1C(=O)NC1CCCc2ccccc21)C(C)(C)C

> <Shape>
0.206

> <Color>
0.080

> <Negative vol penalty>
0.000

$$$$
