
  -OEChem-04052318443D

 82 90  0     1  0  0  0  0  0999 V2000
  -27.5882  -34.4200   25.0127 C   0  0  0  0  0  0  0  0  0  0  0  0
  -27.6488  -33.0318   25.0807 C   0  0  0  0  0  0  0  0  0  0  0  0
  -25.0096  -13.5384   21.5273 C   0  0  0  0  0  0  0  0  0  0  0  0
  -26.4854  -13.1990   19.6448 C   0  0  0  0  0  0  0  0  0  0  0  0
  -26.3703  -35.0521   24.7655 C   0  0  0  0  0  0  0  0  0  0  0  0
  -26.4912  -32.2749   24.9025 C   0  0  0  0  0  0  0  0  0  0  0  0
  -27.2198  -28.2995   21.8513 C   0  0  0  0  0  0  0  0  0  0  0  0
  -24.8659  -12.1577   21.6637 C   0  0  0  0  0  0  0  0  0  0  0  0
  -26.3418  -11.8183   19.7812 C   0  0  0  0  0  0  0  0  0  0  0  0
  -27.8554  -27.1855   22.3978 C   0  0  0  0  0  0  0  0  0  0  0  0
  -23.1229   -9.6758   20.1716 C   0  0  0  0  0  0  0  0  0  0  0  0
  -21.8366   -9.1756   20.3737 C   0  0  0  0  0  0  0  0  0  0  0  0
  -25.7149  -26.1090   22.6777 C   0  0  0  0  0  0  0  0  0  0  0  0
  -22.5364   -8.2287   22.4834 C   0  0  0  0  0  0  0  0  0  0  0  0
  -27.3844  -23.0572   19.8385 C   0  0  0  0  0  0  0  0  0  0  0  0
  -29.5201  -22.5171   19.8987 C   0  0  0  0  0  0  0  0  0  0  0  0
  -25.8192  -14.0591   20.5178 C   0  0  0  0  0  0  0  0  0  0  0  0
  -26.9359  -16.3042   20.9873 C   0  0  0  0  0  0  0  0  0  0  0  0
  -25.1990  -34.3023   24.5747 C   0  0  0  0  0  0  0  0  0  0  0  0
  -25.8237  -28.3311   21.7237 C   0  0  0  0  0  0  0  0  0  0  0  0
  -25.2563  -32.8977   24.6539 C   0  0  0  0  0  0  0  0  0  0  0  0
  -25.0641  -27.2235   22.1269 C   0  0  0  0  0  0  0  0  0  0  0  0
  -25.5320  -11.2976   20.7907 C   0  0  0  0  0  0  0  0  0  0  0  0
  -27.1028  -26.0911   22.8138 C   0  0  0  0  0  0  0  0  0  0  0  0
  -24.1160   -9.4524   21.1254 C   0  0  0  0  0  0  0  0  0  0  0  0
  -21.5433   -8.4521   21.5296 C   0  0  0  0  0  0  0  0  0  0  0  0
  -23.8227   -8.7289   22.2813 C   0  0  0  0  0  0  0  0  0  0  0  0
  -25.9676  -15.4853   20.3760 C   0  0  0  0  0  0  0  0  0  0  0  0
  -27.9624  -23.1522   18.5946 C   0  0  0  0  0  0  0  0  0  0  0  0
  -26.6509  -17.5692   20.5346 C   0  0  0  0  0  0  0  0  0  0  0  0
  -27.9980  -15.9527   21.8839 C   0  0  0  0  0  0  0  0  0  0  0  0
  -23.5038  -30.1535   22.9073 C   0  0  0  0  0  0  0  0  0  0  0  0
  -21.6444  -28.4151   20.8966 C   0  0  0  0  0  0  0  0  0  0  0  0
  -21.1966  -25.5280   19.1328 C   0  0  0  0  0  0  0  0  0  0  0  0
  -25.3076  -21.0723   16.4031 C   0  0  0  0  0  0  0  0  0  0  0  0
  -23.8972  -35.0321   24.3571 C   0  0  0  0  0  0  0  0  0  0  0  0
  -25.1553  -29.5295   21.1076 C   0  0  0  0  0  0  0  0  0  0  0  0
  -23.5642  -27.1994   21.9929 C   0  0  0  0  0  0  0  0  0  0  0  0
  -22.7848  -34.1428   23.8075 C   0  0  0  0  0  0  0  0  0  0  0  0
  -22.6433  -19.3352   18.0034 C   0  0  0  0  0  0  0  0  0  0  0  0
  -22.7194  -32.8300   24.5815 C   0  0  0  0  0  0  0  0  0  0  0  0
  -23.3500  -18.2431   18.8082 C   0  0  0  0  0  0  0  0  0  0  0  0
  -23.3391  -19.5921   16.6685 C   0  0  0  0  0  0  0  0  0  0  0  0
  -25.4878  -18.7929   17.5728 C   0  0  0  0  0  0  0  0  0  0  0  0
  -24.0270  -32.0412   24.4414 C   0  0  1  0  0  0  0  0  0  0  0  0
  -23.6869  -29.6619   21.4993 C   0  0  1  0  0  0  0  0  0  0  0  0
  -24.8553  -18.5374   18.9516 C   0  0  2  0  0  0  0  0  0  0  0  0
  -27.9427  -24.8484   16.7381 C   0  0  0  0  0  0  0  0  0  0  0  0
  -19.5616  -24.3815   17.6130 C   0  0  0  0  0  0  0  0  0  0  0  0
  -19.8698  -27.7727   23.2941 C   0  0  0  0  0  0  0  0  0  0  0  0
  -18.8531  -25.9169   21.9561 C   0  0  0  0  0  0  0  0  0  0  0  0
  -18.6282  -28.2778   21.1828 C   0  0  0  0  0  0  0  0  0  0  0  0
  -23.1557  -25.4181   16.9173 C   0  0  0  0  0  0  0  0  0  0  0  0
  -29.2778  -23.2148   22.9811 C   0  0  0  0  0  0  0  0  0  0  0  0
  -28.2898  -22.3971   22.1464 C   0  0  0  0  0  0  0  0  0  0  0  0
  -27.3653  -22.4485   16.2267 C   0  0  0  0  0  0  0  0  0  0  0  0
  -29.0431  -24.7183   22.8937 C   0  0  0  0  0  0  0  0  0  1  0  0
  -27.3327  -23.5496   17.3262 C   0  0  1  0  0  0  0  0  0  0  0  0
  -20.8704  -27.1234   21.0043 C   0  0  1  0  0  0  0  0  0  0  0  0
  -20.7853  -25.2809   17.6926 C   0  0  2  0  0  0  0  0  0  0  0  0
  -19.5835  -27.2736   21.8638 C   0  0  0  0  0  0  0  0  0  0  0  0
  -29.2919  -22.8143   18.6387 N   0  0  0  0  0  0  0  0  0  0  0  0
  -25.1299  -16.1724   19.5948 N   0  0  0  0  0  0  0  0  0  0  0  0
  -28.3944  -22.6490   20.6634 N   0  0  0  0  0  0  0  0  0  0  0  0
  -25.5710  -17.4364   19.7122 N   0  0  0  0  0  0  0  0  0  0  0  0
  -22.9566  -28.3974   21.3902 N   0  0  0  0  0  0  0  0  0  0  0  0
  -24.7632  -19.8663   16.8746 N   0  0  0  0  0  0  0  0  0  0  0  0
  -27.2211  -18.7712   20.7640 N   0  0  0  0  0  0  0  0  0  0  0  0
  -28.1491  -14.6072   22.2459 N   0  0  0  0  0  0  0  0  0  0  0  0
  -24.0846  -31.3828   23.1539 N   0  0  0  0  0  0  0  0  0  0  0  0
  -20.6269  -26.6782   19.6365 N   0  0  0  0  0  0  0  0  0  0  0  0
  -26.6634  -21.2557   16.6456 N   0  0  0  0  0  0  0  0  0  0  0  0
  -21.8960  -24.6310   16.9409 N   0  3  0  0  0  0  0  0  0  0  0  0
  -28.7796  -16.8089   22.3632 O   0  0  0  0  0  0  0  0  0  0  0  0
  -22.8804  -29.4689   23.7100 O   0  0  0  0  0  0  0  0  0  0  0  0
  -21.1070  -29.4014   20.3866 O   0  0  0  0  0  0  0  0  0  0  0  0
  -21.9451  -24.7739   19.7505 O   0  0  0  0  0  0  0  0  0  0  0  0
  -24.6340  -21.9249   15.8147 O   0  0  0  0  0  0  0  0  0  0  0  0
  -25.3923   -9.9503   20.9236 O   0  0  0  0  0  0  0  0  0  0  0  0
  -27.7206  -25.0028   23.3481 O   0  0  0  0  0  0  0  0  0  1  0  0
  -20.3076   -7.9731   21.7243 F   0  0  0  0  0  0  0  0  0  0  0  0
  -24.7722   -8.5120   23.2017 F   0  0  0  0  0  0  0  0  0  0  0  0
  1  2  1  0  0  0  0
  1  5  2  0  0  0  0
  2  6  2  0  0  0  0
  3  8  2  0  0  0  0
  3 17  1  0  0  0  0
  4  9  1  0  0  0  0
  4 17  2  0  0  0  0
  5 19  1  0  0  0  0
  6 21  1  0  0  0  0
  7 10  2  0  0  0  0
  7 20  1  0  0  0  0
  8 23  1  0  0  0  0
  9 23  2  0  0  0  0
 10 24  1  0  0  0  0
 11 12  2  0  0  0  0
 11 25  1  0  0  0  0
 12 26  1  0  0  0  0
 13 22  1  0  0  0  0
 13 24  2  0  0  0  0
 14 26  2  0  0  0  0
 14 27  1  0  0  0  0
 15 29  2  0  0  0  0
 15 64  1  0  0  0  0
 16 62  2  0  0  0  0
 16 64  1  0  0  0  0
 17 28  1  0  0  0  0
 18 28  1  0  0  0  0
 18 30  2  0  0  0  0
 18 31  1  0  0  0  0
 19 21  2  0  0  0  0
 19 36  1  0  0  0  0
 20 22  2  0  0  0  0
 20 37  1  0  0  0  0
 21 45  1  0  0  0  0
 22 38  1  0  0  0  0
 23 79  1  0  0  0  0
 24 80  1  0  0  0  0
 25 27  2  0  0  0  0
 25 79  1  0  0  0  0
 26 81  1  0  0  0  0
 27 82  1  0  0  0  0
 28 63  2  0  0  0  0
 29 58  1  0  0  0  0
 29 62  1  0  0  0  0
 30 65  1  0  0  0  0
 30 68  1  0  0  0  0
 31 69  1  0  0  0  0
 31 74  2  0  0  0  0
 32 46  1  0  0  0  0
 32 70  1  0  0  0  0
 32 75  2  0  0  0  0
 33 59  1  0  0  0  0
 33 66  1  0  0  0  0
 33 76  2  0  0  0  0
 34 60  1  0  0  0  0
 34 71  1  0  0  0  0
 34 77  2  0  0  0  0
 35 67  1  0  0  0  0
 35 72  1  0  0  0  0
 35 78  2  0  0  0  0
 36 39  1  0  0  0  0
 37 46  1  0  0  0  0
 38 66  1  0  0  0  0
 39 41  1  0  0  0  0
 40 42  1  0  0  0  0
 40 43  1  0  0  0  0
 41 45  1  0  0  0  0
 42 47  1  0  0  0  0
 43 67  1  0  0  0  0
 44 47  1  0  0  0  0
 44 67  1  0  0  0  0
 45 70  1  0  0  0  0
 46 66  1  0  0  0  0
 47 65  1  0  0  0  0
 48 58  1  0  0  0  0
 49 60  1  0  0  0  0
 50 61  1  0  0  0  0
 51 61  1  0  0  0  0
 52 61  1  0  0  0  0
 53 73  1  0  0  0  0
 54 55  1  0  0  0  0
 54 57  1  0  0  0  0
 55 64  1  0  0  0  0
 56 58  1  0  0  0  0
 56 72  1  0  0  0  0
 57 80  1  0  0  0  0
 59 61  1  0  0  0  0
 59 71  1  0  0  0  0
 60 73  1  0  0  0  0
 63 65  1  0  0  0  0
M  CHG  1  73   1
M  ISO  4  35 100  57 101  72 100  80 101
M  END
> <Batch ID>
0080

> <Smiles>
CNC(C)C(=O)NC(C(=O)N1Cc2cc([101O:1][101CH2:1]CCn3cnc(C(C)C[100NH:0][100C:0](=O)N4CCCC(n5nc(-c6ccc(Oc7ccc(F)cc7F)cc6)c(C(N)=O)c5N)C4)c3)ccc2CC1C(=O)NC1CCCc2ccccc21)C(C)(C)C

> <Shape>
0.239

> <Color>
0.059

> <Negative vol penalty>
0.000

$$$$

  -OEChem-04052318443D

 83 91  0     1  0  0  0  0  0999 V2000
  -18.0614  -27.3804   22.8896 C   0  0  0  0  0  0  0  0  0  0  0  0
  -18.8711  -26.2581   23.0322 C   0  0  0  0  0  0  0  0  0  0  0  0
  -24.4103  -13.9193   21.2425 C   0  0  0  0  0  0  0  0  0  0  0  0
  -26.7593  -13.4366   21.5355 C   0  0  0  0  0  0  0  0  0  0  0  0
  -18.6381  -28.6326   22.6816 C   0  0  0  0  0  0  0  0  0  0  0  0
  -20.2579  -26.3872   22.9656 C   0  0  0  0  0  0  0  0  0  0  0  0
  -26.2637  -23.5631   25.6621 C   0  0  0  0  0  0  0  0  0  0  0  0
  -24.2199  -12.6549   20.6852 C   0  0  0  0  0  0  0  0  0  0  0  0
  -26.5690  -12.1721   20.9782 C   0  0  0  0  0  0  0  0  0  0  0  0
  -27.4798  -23.0215   25.2478 C   0  0  0  0  0  0  0  0  0  0  0  0
  -23.8901   -9.4734   21.7816 C   0  0  0  0  0  0  0  0  0  0  0  0
  -22.7880   -8.7346   22.2118 C   0  0  0  0  0  0  0  0  0  0  0  0
  -28.3671  -25.2467   24.9637 C   0  0  0  0  0  0  0  0  0  0  0  0
  -21.9429   -8.6778   19.9491 C   0  0  0  0  0  0  0  0  0  0  0  0
  -31.3105  -26.0447   20.7291 C   0  0  0  0  0  0  0  0  0  0  0  0
  -25.6800  -14.3102   21.6676 C   0  0  0  0  0  0  0  0  0  0  0  0
  -25.7808  -15.9701   23.6021 C   0  0  0  0  0  0  0  0  0  0  0  0
  -20.0330  -28.7786   22.6220 C   0  0  0  0  0  0  0  0  0  0  0  0
  -26.0864  -24.9530   25.7200 C   0  0  0  0  0  0  0  0  0  0  0  0
  -20.8537  -27.6424   22.7552 C   0  0  0  0  0  0  0  0  0  0  0  0
  -27.1487  -25.8034   25.3815 C   0  0  0  0  0  0  0  0  0  0  0  0
  -31.3877  -24.6695   20.6439 C   0  0  0  0  0  0  0  0  0  0  0  0
  -25.2992  -11.7813   20.5530 C   0  0  0  0  0  0  0  0  0  0  0  0
  -28.5308  -23.8633   24.8957 C   0  0  0  0  0  0  0  0  0  0  0  0
  -24.0186   -9.8145   20.4351 C   0  0  0  0  0  0  0  0  0  0  0  0
  -21.8144   -8.3368   21.2955 C   0  0  0  0  0  0  0  0  0  0  0  0
  -23.0450   -9.4167   19.5189 C   0  0  0  0  0  0  0  0  0  0  0  0
  -25.8774  -15.6164   22.2429 C   0  0  0  0  0  0  0  0  0  0  0  0
  -30.7128  -24.0982   19.5845 C   0  0  0  0  0  0  0  0  0  0  0  0
  -26.0551  -17.3157   23.6270 C   0  0  0  0  0  0  0  0  0  0  0  0
  -30.0143  -26.1379   18.8641 C   0  0  0  0  0  0  0  0  0  0  0  0
  -25.4709  -15.1552   24.7403 C   0  0  0  0  0  0  0  0  0  0  0  0
  -24.1680  -27.0318   24.2702 C   0  0  0  0  0  0  0  0  0  0  0  0
  -25.5246  -29.1316   26.3374 C   0  0  0  0  0  0  0  0  0  0  0  0
  -28.1782  -29.9333   28.3280 C   0  0  0  0  0  0  0  0  0  0  0  0
  -29.2082  -20.7549   20.0096 C   0  0  0  0  0  0  0  0  0  0  0  0
  -20.6087  -30.1454   22.3482 C   0  0  0  0  0  0  0  0  0  0  0  0
  -24.7772  -25.5213   26.1946 C   0  0  0  0  0  0  0  0  0  0  0  0
  -27.0160  -27.3023   25.4459 C   0  0  0  0  0  0  0  0  0  0  0  0
  -22.0982  -30.2535   22.6644 C   0  0  0  0  0  0  0  0  0  0  0  0
  -25.7417  -21.2522   20.9226 C   0  0  0  0  0  0  0  0  0  0  0  0
  -22.8537  -29.0585   22.0915 C   0  0  0  0  0  0  0  0  0  0  0  0
  -25.3791  -19.8818   21.4978 C   0  0  0  0  0  0  0  0  0  0  0  0
  -26.6821  -21.1192   19.7285 C   0  0  0  0  0  0  0  0  0  0  0  0
  -27.5705  -18.9857   20.5843 C   0  0  0  0  0  0  0  0  0  0  0  0
  -22.3629  -27.7457   22.7137 C   0  0  1  0  0  0  0  0  0  0  0  0
  -24.5415  -26.9531   25.7235 C   0  0  1  0  0  0  0  0  0  0  0  0
  -26.6396  -19.0532   21.8087 C   0  0  2  0  0  0  0  0  0  0  0  0
  -29.2521  -26.9533   17.8751 C   0  0  0  0  0  0  0  0  0  0  0  0
  -31.3424  -22.1985   18.0495 C   0  0  0  0  0  0  0  0  0  0  0  0
  -29.0155  -31.7318   29.8647 C   0  0  0  0  0  0  0  0  0  0  0  0
  -26.2144  -30.8681   23.9251 C   0  0  0  0  0  0  0  0  0  0  0  0
  -27.8311  -32.1159   25.3735 C   0  0  0  0  0  0  0  0  0  0  0  0
  -25.3976  -32.1332   25.9219 C   0  0  0  0  0  0  0  0  0  0  0  0
  -28.2685  -28.0815   30.6349 C   0  0  0  0  0  0  0  0  0  0  0  0
  -32.1652  -23.8670   21.6563 C   0  0  0  0  0  0  0  0  0  0  0  0
  -31.2844  -23.1505   22.6822 C   0  0  0  0  0  0  0  0  0  0  0  0
  -30.4858  -24.1042   23.5632 C   0  0  0  0  0  0  0  0  0  1  0  0
  -30.7264  -22.6177   19.3914 C   0  0  2  0  0  0  0  0  0  0  0  0
  -26.7403  -30.0261   26.3085 C   0  0  1  0  0  0  0  0  0  0  0  0
  -28.2491  -30.4222   29.7634 C   0  0  2  0  0  0  0  0  0  0  0  0
  -26.5481  -31.2576   25.3791 C   0  0  0  0  0  0  0  0  0  0  0  0
  -30.6302  -26.8130   19.8532 N   0  0  0  0  0  0  0  0  0  0  0  0
  -26.1886  -16.6536   21.4610 N   0  0  0  0  0  0  0  0  0  0  0  0
  -30.0134  -24.8049   18.6724 N   0  0  0  0  0  0  0  0  0  0  0  0
  -26.2898  -17.6724   22.3317 N   0  0  0  0  0  0  0  0  0  0  0  0
  -25.7143  -27.8098   25.9101 N   0  0  0  0  0  0  0  0  0  0  0  0
  -27.8701  -20.3359   20.0962 N   0  0  0  0  0  0  0  0  0  0  0  0
  -26.1159  -18.2168   24.6304 N   0  0  0  0  0  0  0  0  0  0  0  0
  -25.2154  -13.7923   24.5366 N   0  0  0  0  0  0  0  0  0  0  0  0
  -22.9189  -27.5757   24.0390 N   0  0  0  0  0  0  0  0  0  0  0  0
  -27.0306  -30.3653   27.6975 N   0  0  0  0  0  0  0  0  0  0  0  0
  -29.4063  -22.0443   19.5311 N   0  0  0  0  0  0  0  0  0  0  0  0
  -28.9297  -29.4118   30.6218 N   0  3  0  0  0  0  0  0  0  0  0  0
  -25.4059  -15.6252   25.9016 O   0  0  0  0  0  0  0  0  0  0  0  0
  -24.9555  -26.6304   23.4215 O   0  0  0  0  0  0  0  0  0  0  0  0
  -24.4480  -29.5869   26.7315 O   0  0  0  0  0  0  0  0  0  0  0  0
  -29.0550  -29.2407   27.8162 O   0  0  0  0  0  0  0  0  0  0  0  0
  -30.1567  -20.0348   20.3397 O   0  0  0  0  0  0  0  0  0  0  0  0
  -25.1138  -10.5473   20.0095 O   0  0  0  0  0  0  0  0  0  0  0  0
  -29.7185  -23.3373   24.4903 O   0  0  0  0  0  0  0  0  0  1  0  0
  -20.7569   -7.6260   21.7085 F   0  0  0  0  0  0  0  0  0  0  0  0
  -23.1636   -9.7403   18.2239 F   0  0  0  0  0  0  0  0  0  0  0  0
  1  2  1  0  0  0  0
  1  5  2  0  0  0  0
  2  6  2  0  0  0  0
  3  8  2  0  0  0  0
  3 16  1  0  0  0  0
  4  9  1  0  0  0  0
  4 16  2  0  0  0  0
  5 18  1  0  0  0  0
  6 20  1  0  0  0  0
  7 10  2  0  0  0  0
  7 19  1  0  0  0  0
  8 23  1  0  0  0  0
  9 23  2  0  0  0  0
 10 24  1  0  0  0  0
 11 12  2  0  0  0  0
 11 25  1  0  0  0  0
 12 26  1  0  0  0  0
 13 21  1  0  0  0  0
 13 24  2  0  0  0  0
 14 26  2  0  0  0  0
 14 27  1  0  0  0  0
 15 22  1  0  0  0  0
 15 63  2  0  0  0  0
 16 28  1  0  0  0  0
 17 28  1  0  0  0  0
 17 30  2  0  0  0  0
 17 32  1  0  0  0  0
 18 20  2  0  0  0  0
 18 37  1  0  0  0  0
 19 21  2  0  0  0  0
 19 38  1  0  0  0  0
 20 46  1  0  0  0  0
 21 39  1  0  0  0  0
 22 29  2  0  0  0  0
 22 56  1  0  0  0  0
 23 80  1  0  0  0  0
 24 81  1  0  0  0  0
 25 27  2  0  0  0  0
 25 80  1  0  0  0  0
 26 82  1  0  0  0  0
 27 83  1  0  0  0  0
 28 64  2  0  0  0  0
 29 59  1  0  0  0  0
 29 65  1  0  0  0  0
 30 66  1  0  0  0  0
 30 69  1  0  0  0  0
 31 49  1  0  0  0  0
 31 63  1  0  0  0  0
 31 65  2  0  0  0  0
 32 70  1  0  0  0  0
 32 75  2  0  0  0  0
 33 47  1  0  0  0  0
 33 71  1  0  0  0  0
 33 76  2  0  0  0  0
 34 60  1  0  0  0  0
 34 67  1  0  0  0  0
 34 77  2  0  0  0  0
 35 61  1  0  0  0  0
 35 72  1  0  0  0  0
 35 78  2  0  0  0  0
 36 68  1  0  0  0  0
 36 73  1  0  0  0  0
 36 79  2  0  0  0  0
 37 40  1  0  0  0  0
 38 47  1  0  0  0  0
 39 67  1  0  0  0  0
 40 42  1  0  0  0  0
 41 43  1  0  0  0  0
 41 44  1  0  0  0  0
 42 46  1  0  0  0  0
 43 48  1  0  0  0  0
 44 68  1  0  0  0  0
 45 48  1  0  0  0  0
 45 68  1  0  0  0  0
 46 71  1  0  0  0  0
 47 67  1  0  0  0  0
 48 66  1  0  0  0  0
 50 59  1  0  0  0  0
 51 61  1  0  0  0  0
 52 62  1  0  0  0  0
 53 62  1  0  0  0  0
 54 62  1  0  0  0  0
 55 74  1  0  0  0  0
 56 57  1  0  0  0  0
 57 58  1  0  0  0  0
 58 81  1  0  0  0  0
 59 73  1  0  0  0  0
 60 62  1  0  0  0  0
 60 72  1  0  0  0  0
 61 74  1  0  0  0  0
 64 66  1  0  0  0  0
M  CHG  1  74   1
M  ISO  4  36 100  58 101  73 100  81 101
M  END
> <Batch ID>
0080

> <Smiles>
CNC(C)C(=O)NC(C(=O)N1Cc2cc([101O:1][101CH2:1]CCc3cnc(C)nc3C(C)[100NH:0][100C:0](=O)N3CCCC(n4nc(-c5ccc(Oc6ccc(F)cc6F)cc5)c(C(N)=O)c4N)C3)ccc2CC1C(=O)NC1CCCc2ccccc21)C(C)(C)C

> <Shape>
0.231

> <Color>
0.080

> <Negative vol penalty>
0.000

$$$$

  -OEChem-04052318442D

  0  0  0     0  0  0  0  0  0999 V2000
M  END
$$$$

  -OEChem-04052318442D

  0  0  0     0  0  0  0  0  0999 V2000
M  END
$$$$

  -OEChem-04052318443D

 84 92  0     1  0  0  0  0  0999 V2000
  -28.8366  -11.8944   21.1321 C   0  0  0  0  0  0  0  0  0  0  0  0
  -28.9379  -13.2619   20.8976 C   0  0  0  0  0  0  0  0  0  0  0  0
  -19.1314  -27.6016   19.9746 C   0  0  0  0  0  0  0  0  0  0  0  0
  -19.9308  -25.3311   20.1819 C   0  0  0  0  0  0  0  0  0  0  0  0
  -27.5953  -11.2646   21.0519 C   0  0  0  0  0  0  0  0  0  0  0  0
  -27.7980  -14.0003   20.5816 C   0  0  0  0  0  0  0  0  0  0  0  0
  -27.5476  -18.3715   23.1261 C   0  0  0  0  0  0  0  0  0  0  0  0
  -17.9609  -27.1349   19.3766 C   0  0  0  0  0  0  0  0  0  0  0  0
  -18.7602  -24.8644   19.5840 C   0  0  0  0  0  0  0  0  0  0  0  0
  -28.3447  -19.4204   22.6698 C   0  0  0  0  0  0  0  0  0  0  0  0
  -15.8252  -23.0492   18.4399 C   0  0  0  0  0  0  0  0  0  0  0  0
  -15.1930  -21.9500   19.0209 C   0  0  0  0  0  0  0  0  0  0  0  0
  -26.4315  -20.3836   21.5602 C   0  0  0  0  0  0  0  0  0  0  0  0
  -14.9222  -23.1918   21.0756 C   0  0  0  0  0  0  0  0  0  0  0  0
  -29.3953  -24.3910   21.1401 C   0  0  0  0  0  0  0  0  0  0  0  0
  -20.1165  -26.6997   20.3772 C   0  0  0  0  0  0  0  0  0  0  0  0
  -21.5559  -27.3874   22.3679 C   0  0  0  0  0  0  0  0  0  0  0  0
  -26.4381  -11.9974   20.7443 C   0  0  0  0  0  0  0  0  0  0  0  0
  -26.1865  -18.3150   22.7932 C   0  0  0  0  0  0  0  0  0  0  0  0
  -26.5402  -13.3795   20.4959 C   0  0  0  0  0  0  0  0  0  0  0  0
  -25.6188  -19.3343   22.0156 C   0  0  0  0  0  0  0  0  0  0  0  0
  -17.7752  -25.7663   19.1814 C   0  0  0  0  0  0  0  0  0  0  0  0
  -27.7874  -20.4252   21.8843 C   0  0  0  0  0  0  0  0  0  0  0  0
  -16.0059  -24.2198   19.1767 C   0  0  0  0  0  0  0  0  0  0  0  0
  -14.7415  -22.0212   20.3388 C   0  0  0  0  0  0  0  0  0  0  0  0
  -15.5544  -24.2910   20.4946 C   0  0  0  0  0  0  0  0  0  0  0  0
  -21.3261  -27.1812   20.9943 C   0  0  0  0  0  0  0  0  0  0  0  0
  -28.9462  -23.4646   20.2212 C   0  0  0  0  0  0  0  0  0  0  0  0
  -30.3313  -25.2906   20.6723 C   0  0  0  0  0  0  0  0  0  0  0  0
  -22.8483  -27.8475   22.4345 C   0  0  0  0  0  0  0  0  0  0  0  0
  -30.2845  -24.3424   18.6069 C   0  0  0  0  0  0  0  0  0  0  0  0
  -20.6795  -27.1812   23.4837 C   0  0  0  0  0  0  0  0  0  0  0  0
  -24.3550  -16.2797   21.1786 C   0  0  0  0  0  0  0  0  0  0  0  0
  -21.9664  -18.2162   22.2116 C   0  0  0  0  0  0  0  0  0  0  0  0
  -21.0101  -21.3000   23.3173 C   0  0  0  0  0  0  0  0  0  0  0  0
  -28.1140  -27.4648   20.9950 C   0  0  0  0  0  0  0  0  0  0  0  0
  -25.1257  -11.2643   20.6224 C   0  0  0  0  0  0  0  0  0  0  0  0
  -25.3344  -17.1910   23.3155 C   0  0  0  0  0  0  0  0  0  0  0  0
  -24.1584  -19.3307   21.6472 C   0  0  0  0  0  0  0  0  0  0  0  0
  -23.9087  -12.1854   20.6503 C   0  0  0  0  0  0  0  0  0  0  0  0
  -25.9909  -29.3845   18.7804 C   0  0  0  0  0  0  0  0  0  0  0  0
  -24.1213  -13.3791   19.7247 C   0  0  0  0  0  0  0  0  0  0  0  0
  -24.5986  -28.9938   19.2794 C   0  0  0  0  0  0  0  0  0  0  0  0
  -26.9483  -28.1974   18.8277 C   0  0  0  0  0  0  0  0  0  0  0  0
  -25.6760  -27.1627   20.6674 C   0  0  0  0  0  0  0  0  0  0  0  0
  -25.3228  -14.2190   20.1748 C   0  0  1  0  0  0  0  0  0  0  0  0
  -24.0738  -16.9623   22.4873 C   0  0  1  0  0  0  0  0  0  0  0  0
  -24.6673  -28.3257   20.6655 C   0  0  2  0  0  0  0  0  0  0  0  0
  -30.7760  -24.3182   17.1992 C   0  0  0  0  0  0  0  0  0  0  0  0
  -32.3830  -26.1040   21.8801 C   0  0  0  0  0  0  0  0  0  0  0  0
  -18.9853  -22.5908   24.0461 C   0  0  0  0  0  0  0  0  0  0  0  0
  -21.0867  -18.4748   19.3013 C   0  0  0  0  0  0  0  0  0  0  0  0
  -19.7167  -20.4625   19.9648 C   0  0  0  0  0  0  0  0  0  0  0  0
  -19.2135  -18.2217   20.9389 C   0  0  0  0  0  0  0  0  0  0  0  0
  -31.6715  -28.4182   20.2845 C   0  0  0  0  0  0  0  0  0  0  0  0
  -30.4624  -28.7219   22.4324 C   0  0  0  0  0  0  0  0  0  0  0  0
  -22.1356  -21.7676   26.0143 C   0  0  0  0  0  0  0  0  0  0  0  0
  -27.9268  -22.4451   20.6368 C   0  0  0  0  0  0  0  0  0  1  0  0
  -30.8745  -26.3316   21.5929 C   0  0  1  0  0  0  0  0  0  0  0  0
  -21.2909  -19.4573   21.6802 C   0  0  1  0  0  0  0  0  0  0  0  0
  -20.1531  -21.7266   24.4955 C   0  0  2  0  0  0  0  0  0  0  0  0
  -20.3549  -19.1534   20.4765 C   0  0  0  0  0  0  0  0  0  0  0  0
  -30.5615  -27.8302   21.1783 C   0  0  0  0  0  0  0  0  0  0  0  0
  -22.3874  -27.4857   20.2427 N   0  0  0  0  0  0  0  0  0  0  0  0
  -29.3709  -23.4113   18.9417 N   0  0  0  0  0  0  0  0  0  0  0  0
  -30.7999  -25.2950   19.4071 N   0  0  0  0  0  0  0  0  0  0  0  0
  -23.2965  -27.8879   21.1470 N   0  0  0  0  0  0  0  0  0  0  0  0
  -23.3680  -18.2071   22.1767 N   0  0  0  0  0  0  0  0  0  0  0  0
  -26.9814  -27.6189   20.1784 N   0  0  0  0  0  0  0  0  0  0  0  0
  -23.6336  -28.2177   23.4683 N   0  0  0  0  0  0  0  0  0  0  0  0
  -19.3850  -26.7037   23.2372 N   0  0  0  0  0  0  0  0  0  0  0  0
  -24.9652  -15.0466   21.3069 N   0  0  0  0  0  0  0  0  0  0  0  0
  -20.6192  -20.0755   22.8182 N   0  0  0  0  0  0  0  0  0  0  0  0
  -29.3122  -27.9159   20.4551 N   0  0  0  0  0  0  0  0  0  0  0  0
  -20.9659  -22.5055   25.4720 N   0  3  0  0  0  0  0  0  0  0  0  0
  -21.0282  -27.4290   24.6628 O   0  0  0  0  0  0  0  0  0  0  0  0
  -24.0402  -16.8304   20.1301 O   0  0  0  0  0  0  0  0  0  0  0  0
  -21.2760  -17.2919   22.6483 O   0  0  0  0  0  0  0  0  0  0  0  0
  -21.9316  -21.9863   22.8808 O   0  0  0  0  0  0  0  0  0  0  0  0
  -28.0607  -26.9668   22.1247 O   0  0  0  0  0  0  0  0  0  0  0  0
  -16.6330  -25.3105   18.5982 O   0  0  0  0  0  0  0  0  0  0  0  0
  -28.5633  -21.4498   21.4371 O   0  0  0  0  0  0  0  0  0  1  0  0
  -14.1331  -20.9661   20.8961 F   0  0  0  0  0  0  0  0  0  0  0  0
  -15.7241  -25.4133   21.2070 F   0  0  0  0  0  0  0  0  0  0  0  0
  1  2  1  0  0  0  0
  1  5  2  0  0  0  0
  2  6  2  0  0  0  0
  3  8  2  0  0  0  0
  3 16  1  0  0  0  0
  4  9  1  0  0  0  0
  4 16  2  0  0  0  0
  5 18  1  0  0  0  0
  6 20  1  0  0  0  0
  7 10  2  0  0  0  0
  7 19  1  0  0  0  0
  8 22  1  0  0  0  0
  9 22  2  0  0  0  0
 10 23  1  0  0  0  0
 11 12  2  0  0  0  0
 11 24  1  0  0  0  0
 12 25  1  0  0  0  0
 13 21  1  0  0  0  0
 13 23  2  0  0  0  0
 14 25  2  0  0  0  0
 14 26  1  0  0  0  0
 15 28  1  0  0  0  0
 15 29  2  0  0  0  0
 16 27  1  0  0  0  0
 17 27  1  0  0  0  0
 17 30  2  0  0  0  0
 17 32  1  0  0  0  0
 18 20  2  0  0  0  0
 18 37  1  0  0  0  0
 19 21  2  0  0  0  0
 19 38  1  0  0  0  0
 20 46  1  0  0  0  0
 21 39  1  0  0  0  0
 22 81  1  0  0  0  0
 23 82  1  0  0  0  0
 24 26  2  0  0  0  0
 24 81  1  0  0  0  0
 25 83  1  0  0  0  0
 26 84  1  0  0  0  0
 27 64  2  0  0  0  0
 28 58  1  0  0  0  0
 28 65  2  0  0  0  0
 29 59  1  0  0  0  0
 29 66  1  0  0  0  0
 30 67  1  0  0  0  0
 30 70  1  0  0  0  0
 31 49  1  0  0  0  0
 31 65  1  0  0  0  0
 31 66  2  0  0  0  0
 32 71  1  0  0  0  0
 32 76  2  0  0  0  0
 33 47  1  0  0  0  0
 33 72  1  0  0  0  0
 33 77  2  0  0  0  0
 34 60  1  0  0  0  0
 34 68  1  0  0  0  0
 34 78  2  0  0  0  0
 35 61  1  0  0  0  0
 35 73  1  0  0  0  0
 35 79  2  0  0  0  0
 36 69  1  0  0  0  0
 36 74  1  0  0  0  0
 36 80  2  0  0  0  0
 37 40  1  0  0  0  0
 38 47  1  0  0  0  0
 39 68  1  0  0  0  0
 40 42  1  0  0  0  0
 41 43  1  0  0  0  0
 41 44  1  0  0  0  0
 42 46  1  0  0  0  0
 43 48  1  0  0  0  0
 44 69  1  0  0  0  0
 45 48  1  0  0  0  0
 45 69  1  0  0  0  0
 46 72  1  0  0  0  0
 47 68  1  0  0  0  0
 48 67  1  0  0  0  0
 50 59  1  0  0  0  0
 51 61  1  0  0  0  0
 52 62  1  0  0  0  0
 53 62  1  0  0  0  0
 54 62  1  0  0  0  0
 55 63  1  0  0  0  0
 56 63  1  0  0  0  0
 57 75  1  0  0  0  0
 58 82  1  0  0  0  0
 59 63  1  0  0  0  0
 60 62  1  0  0  0  0
 60 73  1  0  0  0  0
 61 75  1  0  0  0  0
 63 74  1  0  0  0  0
 64 67  1  0  0  0  0
M  CHG  1  75   1
M  ISO  4  36 100  58 101  74 100  82 101
M  END
> <Batch ID>
0080

> <Smiles>
CNC(C)C(=O)NC(C(=O)N1Cc2cc([101O:1][101CH2:1]c3cc(C(C)C(C)(C)[100NH:0][100C:0](=O)N4CCCC(n5nc(-c6ccc(Oc7ccc(F)cc7F)cc6)c(C(N)=O)c5N)C4)nc(C)n3)ccc2CC1C(=O)NC1CCCc2ccccc21)C(C)(C)C

> <Shape>
0.196

> <Color>
0.085

> <Negative vol penalty>
0.000

$$$$

  -OEChem-04052318443D

 92100  0     1  0  0  0  0  0999 V2000
  -32.0944  -15.1910   20.3354 C   0  0  0  0  0  0  0  0  0  0  0  0
  -31.0767  -16.1392   20.3584 C   0  0  0  0  0  0  0  0  0  0  0  0
  -29.7432  -23.9155   20.9686 C   0  0  0  0  0  0  0  0  0  0  0  0
  -29.1999  -23.9793   18.6154 C   0  0  0  0  0  0  0  0  0  0  0  0
  -31.7874  -13.8451   20.1399 C   0  0  0  0  0  0  0  0  0  0  0  0
  -29.7513  -15.7422   20.1846 C   0  0  0  0  0  0  0  0  0  0  0  0
  -24.7989  -18.1864   22.8314 C   0  0  0  0  0  0  0  0  0  0  0  0
  -29.7051  -22.5215   20.9397 C   0  0  0  0  0  0  0  0  0  0  0  0
  -29.1619  -22.5852   18.5864 C   0  0  0  0  0  0  0  0  0  0  0  0
  -23.8572  -19.1124   22.3847 C   0  0  0  0  0  0  0  0  0  0  0  0
  -27.0113  -20.1326   19.4755 C   0  0  0  0  0  0  0  0  0  0  0  0
  -25.9456  -19.5271   18.8097 C   0  0  0  0  0  0  0  0  0  0  0  0
  -22.3958  -17.3054   21.7380 C   0  0  0  0  0  0  0  0  0  0  0  0
  -22.0333  -24.5007   16.4487 C   0  0  0  0  0  0  0  0  0  0  0  0
  -22.1770  -26.9123   16.4368 C   0  0  0  0  0  0  0  0  0  0  0  0
  -20.9567  -25.7836   18.1900 C   0  0  0  0  0  0  0  0  0  0  0  0
  -27.4985  -18.4456   17.3077 C   0  0  0  0  0  0  0  0  0  0  0  0
  -29.4905  -24.6444   19.8065 C   0  0  0  0  0  0  0  0  0  0  0  0
  -30.6448  -26.9099   19.6004 C   0  0  0  0  0  0  0  0  0  0  0  0
  -30.4567  -13.4302   19.9733 C   0  0  0  0  0  0  0  0  0  0  0  0
  -24.5503  -16.8104   22.7246 C   0  0  0  0  0  0  0  0  0  0  0  0
  -29.4263  -14.3897   19.9853 C   0  0  0  0  0  0  0  0  0  0  0  0
  -23.3349  -16.3640   22.1865 C   0  0  0  0  0  0  0  0  0  0  0  0
  -22.4879  -25.6808   15.8603 C   0  0  0  0  0  0  0  0  0  0  0  0
  -21.2676  -24.5521   17.6135 C   0  0  0  0  0  0  0  0  0  0  0  0
  -21.4114  -26.9637   17.6017 C   0  0  0  0  0  0  0  0  0  0  0  0
  -29.4145  -21.8563   19.7485 C   0  0  0  0  0  0  0  0  0  0  0  0
  -22.6567  -18.6720   21.8352 C   0  0  0  0  0  0  0  0  0  0  0  0
  -28.3206  -19.8947   19.0573 C   0  0  0  0  0  0  0  0  0  0  0  0
  -26.1892  -18.6836   17.7259 C   0  0  0  0  0  0  0  0  0  0  0  0
  -28.5642  -19.0512   17.9735 C   0  0  0  0  0  0  0  0  0  0  0  0
  -29.5291  -26.0845   19.8359 C   0  0  0  0  0  0  0  0  0  0  0  0
  -30.1631  -28.1880   19.7454 C   0  0  0  0  0  0  0  0  0  0  0  0
  -31.9959  -26.5534   19.2793 C   0  0  0  0  0  0  0  0  0  0  0  0
  -25.9345  -14.3931   21.1936 C   0  0  0  0  0  0  0  0  0  0  0  0
  -23.7753  -12.6220   22.8439 C   0  0  0  0  0  0  0  0  0  0  0  0
  -20.7789  -12.4856   24.4719 C   0  0  0  0  0  0  0  0  0  0  0  0
  -24.9358  -30.5912   19.0331 C   0  0  0  0  0  0  0  0  0  0  0  0
  -30.1781  -11.9702   19.7176 C   0  0  0  0  0  0  0  0  0  0  0  0
  -25.5649  -15.8247   23.2356 C   0  0  0  0  0  0  0  0  0  0  0  0
  -23.0110  -14.8978   22.0681 C   0  0  0  0  0  0  0  0  0  0  0  0
  -28.7142  -11.5856   19.9156 C   0  0  0  0  0  0  0  0  0  0  0  0
  -26.8012  -30.6959   22.0300 C   0  0  0  0  0  0  0  0  0  0  0  0
  -27.7996  -12.5938   19.2273 C   0  0  0  0  0  0  0  0  0  0  0  0
  -27.8265  -29.5892   21.7871 C   0  0  0  0  0  0  0  0  0  0  0  0
  -25.4129  -30.3171   21.5108 C   0  0  0  0  0  0  0  0  0  0  0  0
  -26.4251  -28.7887   19.8488 C   0  0  0  0  0  0  0  0  0  0  0  0
  -27.9741  -13.9951   19.8253 C   0  0  1  0  0  0  0  0  0  0  0  0
  -25.4245  -14.4421   22.6061 C   0  0  1  0  0  0  0  0  0  0  0  0
  -27.8415  -29.1684   20.3073 C   0  0  2  0  0  0  0  0  0  0  0  0
  -25.6417  -25.4455   13.6459 C   0  0  0  0  0  0  0  0  0  0  0  0
  -19.2660  -10.8915   25.6832 C   0  0  0  0  0  0  0  0  0  0  0  0
  -22.2719  -27.7805   20.4062 C   0  0  0  0  0  0  0  0  0  0  0  0
  -24.4993  -33.4405   18.1817 C   0  0  0  0  0  0  0  0  0  0  0  0
  -23.0762  -31.7492   16.9826 C   0  0  0  0  0  0  0  0  0  0  0  0
  -22.9075  -11.4222   20.1761 C   0  0  0  0  0  0  0  0  0  0  0  0
  -20.8292  -10.5974   21.3024 C   0  0  0  0  0  0  0  0  0  0  0  0
  -23.0624   -9.7811   22.0569 C   0  0  0  0  0  0  0  0  0  0  0  0
  -20.9543  -14.0442   26.9817 C   0  0  0  0  0  0  0  0  0  0  0  0
  -23.3069  -25.6252   14.6150 C   0  0  0  0  0  0  0  0  0  0  0  0
  -20.7762  -23.2766   18.2503 C   0  0  0  0  0  0  0  0  0  0  0  0
  -21.0791  -28.2808   18.2178 C   0  0  0  0  0  0  0  0  0  0  0  0
  -24.8107  -25.5365   14.9160 C   0  0  0  0  0  0  0  0  0  0  0  0
  -21.7437  -22.6872   19.2827 C   0  0  0  0  0  0  0  0  0  0  0  0
  -21.2639  -21.3549   19.8605 C   0  0  0  0  0  0  0  0  0  0  0  0
  -21.6734  -30.1771   19.7870 C   0  0  0  0  0  0  0  0  0  0  0  0
  -22.8036  -31.0595   20.3134 C   0  0  0  0  0  0  0  0  0  0  0  0
  -22.2294  -20.8206   20.9097 C   0  0  0  0  0  0  0  0  0  1  0  0
  -22.3632  -12.1510   22.5924 C   0  0  1  0  0  0  0  0  0  0  0  0
  -20.3906  -11.9060   25.8201 C   0  0  2  0  0  0  0  0  0  0  0  0
  -22.1108  -28.7895   19.2631 C   0  0  1  0  0  0  0  0  0  0  0  0
  -23.4054  -32.3897   18.3248 C   0  0  0  0  0  0  0  0  0  0  0  0
  -22.2972  -11.0156   21.5322 C   0  0  0  0  0  0  0  0  0  0  0  0
  -28.4220  -26.7797   20.1098 N   0  0  0  0  0  0  0  0  0  0  0  0
  -28.8397  -28.0555   20.0475 N   0  0  0  0  0  0  0  0  0  0  0  0
  -24.0377  -13.9730   22.5760 N   0  0  0  0  0  0  0  0  0  0  0  0
  -25.4797  -29.8767   20.1106 N   0  0  0  0  0  0  0  0  0  0  0  0
  -30.7467  -29.4010   19.6428 N   0  0  0  0  0  0  0  0  0  0  0  0
  -32.3199  -25.1943   19.1685 N   0  0  0  0  0  0  0  0  0  0  0  0
  -27.2798  -14.0944   21.0912 N   0  0  0  0  0  0  0  0  0  0  0  0
  -21.8169  -11.7850   23.8947 N   0  0  0  0  0  0  0  0  0  0  0  0
  -23.7981  -31.3713   19.2887 N   0  0  0  0  0  0  0  0  0  0  0  0
  -19.9374  -12.9888   26.7383 N   0  3  0  0  0  0  0  0  0  0  0  0
  -32.8931  -27.4140   19.1123 O   0  0  0  0  0  0  0  0  0  0  0  0
  -25.1641  -14.6086   20.2653 O   0  0  0  0  0  0  0  0  0  0  0  0
  -24.6127  -11.8225   23.2695 O   0  0  0  0  0  0  0  0  0  0  0  0
  -20.2153  -13.4598   23.9783 O   0  0  0  0  0  0  0  0  0  0  0  0
  -25.4339  -30.5301   17.9016 O   0  0  0  0  0  0  0  0  0  0  0  0
  -29.3775  -20.4960   19.7199 O   0  0  0  0  0  0  0  0  0  0  0  0
  -21.7362  -19.5737   21.3978 O   0  0  0  0  0  0  0  0  0  1  0  0
  -25.1658  -18.1009   17.0876 F   0  0  0  0  0  0  0  0  0  0  0  0
  -29.8199  -18.8179   17.5679 F   0  0  0  0  0  0  0  0  0  0  0  0
  1  2  1  0  0  0  0
  1  5  2  0  0  0  0
  2  6  2  0  0  0  0
  3  8  2  0  0  0  0
  3 18  1  0  0  0  0
  4  9  1  0  0  0  0
  4 18  2  0  0  0  0
  5 20  1  0  0  0  0
  6 22  1  0  0  0  0
  7 10  2  0  0  0  0
  7 21  1  0  0  0  0
  8 27  1  0  0  0  0
  9 27  2  0  0  0  0
 10 28  1  0  0  0  0
 11 12  2  0  0  0  0
 11 29  1  0  0  0  0
 12 30  1  0  0  0  0
 13 23  1  0  0  0  0
 13 28  2  0  0  0  0
 14 24  1  0  0  0  0
 14 25  2  0  0  0  0
 15 24  2  0  0  0  0
 15 26  1  0  0  0  0
 16 25  1  0  0  0  0
 16 26  2  0  0  0  0
 17 30  2  0  0  0  0
 17 31  1  0  0  0  0
 18 32  1  0  0  0  0
 19 32  1  0  0  0  0
 19 33  2  0  0  0  0
 19 34  1  0  0  0  0
 20 22  2  0  0  0  0
 20 39  1  0  0  0  0
 21 23  2  0  0  0  0
 21 40  1  0  0  0  0
 22 48  1  0  0  0  0
 23 41  1  0  0  0  0
 24 60  1  0  0  0  0
 25 61  1  0  0  0  0
 26 62  1  0  0  0  0
 27 89  1  0  0  0  0
 28 90  1  0  0  0  0
 29 31  2  0  0  0  0
 29 89  1  0  0  0  0
 30 91  1  0  0  0  0
 31 92  1  0  0  0  0
 32 74  2  0  0  0  0
 33 75  1  0  0  0  0
 33 78  1  0  0  0  0
 34 79  1  0  0  0  0
 34 84  2  0  0  0  0
 35 49  1  0  0  0  0
 35 80  1  0  0  0  0
 35 85  2  0  0  0  0
 36 69  1  0  0  0  0
 36 76  1  0  0  0  0
 36 86  2  0  0  0  0
 37 70  1  0  0  0  0
 37 81  1  0  0  0  0
 37 87  2  0  0  0  0
 38 77  1  0  0  0  0
 38 82  1  0  0  0  0
 38 88  2  0  0  0  0
 39 42  1  0  0  0  0
 40 49  1  0  0  0  0
 41 76  1  0  0  0  0
 42 44  1  0  0  0  0
 43 45  1  0  0  0  0
 43 46  1  0  0  0  0
 44 48  1  0  0  0  0
 45 50  1  0  0  0  0
 46 77  1  0  0  0  0
 47 50  1  0  0  0  0
 47 77  1  0  0  0  0
 48 80  1  0  0  0  0
 49 76  1  0  0  0  0
 50 75  1  0  0  0  0
 51 63  1  0  0  0  0
 52 70  1  0  0  0  0
 53 71  1  0  0  0  0
 54 72  1  0  0  0  0
 55 72  1  0  0  0  0
 56 73  1  0  0  0  0
 57 73  1  0  0  0  0
 58 73  1  0  0  0  0
 59 83  1  0  0  0  0
 60 63  1  0  0  0  0
 61 64  1  0  0  0  0
 62 71  1  0  0  0  0
 64 65  1  0  0  0  0
 65 68  1  0  0  0  0
 66 67  1  0  0  0  0
 66 71  1  0  0  0  0
 67 82  1  0  0  0  0
 68 90  1  0  0  0  0
 69 73  1  0  0  0  0
 69 81  1  0  0  0  0
 70 83  1  0  0  0  0
 72 82  1  0  0  0  0
 74 75  1  0  0  0  0
M  CHG  1  83   1
M  ISO  4  38 100  68 101  82 100  90 101
M  END
> <Batch ID>
0080

> <Smiles>
CCCc1cc(CCC[101CH2:1][101O:1]c2ccc3c(c2)CN(C(=O)C(NC(=O)C(C)NC)C(C)(C)C)C(C(=O)NC2CCCc4ccccc42)C3)cc(CC(C)CC[100N:0](C(C)C)[100C:0](=O)N2CCCC(n3nc(-c4ccc(Oc5ccc(F)cc5F)cc4)c(C(N)=O)c3N)C2)c1

> <Shape>
0.226

> <Color>
0.068

> <Negative vol penalty>
0.000

$$$$

  -OEChem-04052318443D

 88 96  0     1  0  0  0  0  0999 V2000
  -22.1016  -14.3702   19.8081 C   0  0  0  0  0  0  0  0  0  0  0  0
  -22.7388  -15.4501   20.4107 C   0  0  0  0  0  0  0  0  0  0  0  0
  -28.7294  -26.2074   19.7837 C   0  0  0  0  0  0  0  0  0  0  0  0
  -26.6727  -25.1915   19.0255 C   0  0  0  0  0  0  0  0  0  0  0  0
  -22.7559  -13.1430   19.7090 C   0  0  0  0  0  0  0  0  0  0  0  0
  -24.0303  -15.3031   20.9156 C   0  0  0  0  0  0  0  0  0  0  0  0
  -27.0534  -19.1715   19.6740 C   0  0  0  0  0  0  0  0  0  0  0  0
  -29.3455  -24.9560   19.7892 C   0  0  0  0  0  0  0  0  0  0  0  0
  -27.2887  -23.9401   19.0309 C   0  0  0  0  0  0  0  0  0  0  0  0
  -26.9103  -20.3510   20.4034 C   0  0  0  0  0  0  0  0  0  0  0  0
  -31.5629  -22.0783   19.6569 C   0  0  0  0  0  0  0  0  0  0  0  0
  -32.8406  -21.9821   19.1059 C   0  0  0  0  0  0  0  0  0  0  0  0
  -28.8342  -19.7560   21.7316 C   0  0  0  0  0  0  0  0  0  0  0  0
  -22.3727  -24.8022   20.9127 C   0  0  0  0  0  0  0  0  0  0  0  0
  -31.9805  -22.7399   16.9791 C   0  0  0  0  0  0  0  0  0  0  0  0
  -21.5492  -26.2656   23.0635 C   0  0  0  0  0  0  0  0  0  0  0  0
  -27.3930  -26.3252   19.4019 C   0  0  0  0  0  0  0  0  0  0  0  0
  -26.6978  -28.5322   18.3280 C   0  0  0  0  0  0  0  0  0  0  0  0
  -24.0597  -12.9835   20.2042 C   0  0  0  0  0  0  0  0  0  0  0  0
  -28.0832  -18.2687   19.9756 C   0  0  0  0  0  0  0  0  0  0  0  0
  -24.7021  -14.0723   20.8242 C   0  0  0  0  0  0  0  0  0  0  0  0
  -28.9897  -18.5670   21.0028 C   0  0  0  0  0  0  0  0  0  0  0  0
  -21.0915  -25.3425   20.9200 C   0  0  0  0  0  0  0  0  0  0  0  0
  -20.6642  -26.0894   22.0121 C   0  0  0  0  0  0  0  0  0  0  0  0
  -28.6252  -23.8223   19.4128 C   0  0  0  0  0  0  0  0  0  0  0  0
  -27.7989  -20.6421   21.4343 C   0  0  0  0  0  0  0  0  0  0  0  0
  -30.4939  -22.5053   18.8691 C   0  0  0  0  0  0  0  0  0  0  0  0
  -33.0495  -22.3129   17.7670 C   0  0  0  0  0  0  0  0  0  0  0  0
  -30.7027  -22.8361   17.5302 C   0  0  0  0  0  0  0  0  0  0  0  0
  -26.7559  -27.6175   19.3965 C   0  0  0  0  0  0  0  0  0  0  0  0
  -23.1812  -25.0362   22.0133 C   0  0  0  0  0  0  0  0  0  0  0  0
  -25.9873  -29.5971   18.8258 C   0  0  0  0  0  0  0  0  0  0  0  0
  -27.2377  -28.4286   17.0038 C   0  0  0  0  0  0  0  0  0  0  0  0
  -28.2018  -15.2495   20.9627 C   0  0  0  0  0  0  0  0  0  0  0  0
  -31.3894  -15.6317   20.4985 C   0  0  0  0  0  0  0  0  0  0  0  0
  -34.0517  -17.7560   20.2836 C   0  0  0  0  0  0  0  0  0  0  0  0
  -21.9444  -30.1079   23.2127 C   0  0  0  0  0  0  0  0  0  0  0  0
  -24.7085  -11.6248   20.1165 C   0  0  0  0  0  0  0  0  0  0  0  0
  -28.2401  -17.0134   19.1619 C   0  0  0  0  0  0  0  0  0  0  0  0
  -30.1245  -17.6406   21.3529 C   0  0  0  0  0  0  0  0  0  0  0  0
  -26.2181  -11.6550   20.3411 C   0  0  0  0  0  0  0  0  0  0  0  0
  -25.0256  -31.8686   22.9254 C   0  0  0  0  0  0  0  0  0  0  0  0
  -26.5595  -12.5058   21.5603 C   0  0  0  0  0  0  0  0  0  0  0  0
  -25.8132  -31.0613   21.8920 C   0  0  0  0  0  0  0  0  0  0  0  0
  -24.1859  -30.9656   23.8262 C   0  0  0  0  0  0  0  0  0  0  0  0
  -24.0754  -29.2325   22.0775 C   0  0  0  0  0  0  0  0  0  0  0  0
  -26.1122  -13.9591   21.3617 C   0  0  1  0  0  0  0  0  0  0  0  0
  -29.0148  -15.9208   19.8923 C   0  0  1  0  0  0  0  0  0  0  0  0
  -24.8943  -30.1037   21.1097 C   0  0  2  0  0  0  0  0  0  0  0  0
  -20.1952  -25.1088   19.7493 C   0  0  0  0  0  0  0  0  0  0  0  0
  -36.4164  -18.4922   19.8794 C   0  0  0  0  0  0  0  0  0  0  0  0
  -17.7061  -29.6045   20.0030 C   0  0  0  0  0  0  0  0  0  0  0  0
  -16.8048  -28.8467   22.2123 C   0  0  0  0  0  0  0  0  0  0  0  0
  -31.7954  -14.6693   23.3654 C   0  0  0  0  0  0  0  0  0  0  0  0
  -34.1202  -15.5939   23.2726 C   0  0  0  0  0  0  0  0  0  0  0  0
  -33.4446  -13.7641   21.7176 C   0  0  0  0  0  0  0  0  0  0  0  0
  -33.5462  -18.1902   17.4000 C   0  0  0  0  0  0  0  0  0  0  0  0
  -19.3029  -26.6906   22.0716 C   0  0  0  0  0  0  0  0  0  0  0  0
  -26.3736  -23.5790   23.1341 C   0  0  0  0  0  0  0  0  0  0  0  0
  -19.7704  -29.1611   22.4802 C   0  0  0  0  0  0  0  0  0  0  0  0
  -26.3402  -22.3125   22.2930 C   0  0  0  0  0  0  0  0  0  1  0  0
  -24.9898  -24.1865   23.3028 C   0  0  0  0  0  0  0  0  0  0  0  0
  -32.5454  -16.0982   21.3500 C   0  0  1  0  0  0  0  0  0  0  0  0
  -35.1736  -17.8654   19.2669 C   0  0  2  0  0  0  0  0  0  0  0  0
  -17.7324  -28.4833   21.0496 C   0  0  0  0  0  0  0  0  0  0  0  0
  -19.1891  -28.1342   21.4867 C   0  0  2  0  0  0  0  0  0  0  0  0
  -32.9540  -15.0481   22.4213 C   0  0  0  0  0  0  0  0  0  0  0  0
  -22.8012  -25.7564   23.0924 N   0  0  0  0  0  0  0  0  0  0  0  0
  -26.1322  -28.0624   20.4906 N   0  0  0  0  0  0  0  0  0  0  0  0
  -25.6755  -29.2684   20.1123 N   0  0  0  0  0  0  0  0  0  0  0  0
  -30.2323  -16.4229   20.5325 N   0  0  0  0  0  0  0  0  0  0  0  0
  -23.3359  -30.0838   23.0226 N   0  0  0  0  0  0  0  0  0  0  0  0
  -25.6052  -30.7732   18.2843 N   0  0  0  0  0  0  0  0  0  0  0  0
  -27.9402  -27.2662   16.6578 N   0  0  0  0  0  0  0  0  0  0  0  0
  -27.0403  -14.6604   20.5008 N   0  0  0  0  0  0  0  0  0  0  0  0
  -33.6155  -16.4557   20.4250 N   0  0  0  0  0  0  0  0  0  0  0  0
  -21.2120  -29.2457   22.4059 N   0  0  0  0  0  0  0  0  0  0  0  0
  -34.7455  -18.7032   18.1112 N   0  3  0  0  0  0  0  0  0  0  0  0
  -27.1153  -29.3467   16.1579 O   0  0  0  0  0  0  0  0  0  0  0  0
  -28.5995  -15.2637   22.1217 O   0  0  0  0  0  0  0  0  0  0  0  0
  -31.5111  -14.6071   19.8225 O   0  0  0  0  0  0  0  0  0  0  0  0
  -33.6092  -18.7266   20.8943 O   0  0  0  0  0  0  0  0  0  0  0  0
  -21.3949  -30.8472   24.0364 O   0  0  0  0  0  0  0  0  0  0  0  0
  -29.2261  -22.6011   19.4179 O   0  0  0  0  0  0  0  0  0  0  0  0
  -27.6611  -21.7923   22.1482 O   0  0  0  0  0  0  0  0  0  1  0  0
  -24.4483  -24.5138   22.0302 O   0  0  0  0  0  0  0  0  0  0  0  0
  -34.2768  -22.2219   17.2384 F   0  0  0  0  0  0  0  0  0  0  0  0
  -29.6799  -23.2481   16.7687 F   0  0  0  0  0  0  0  0  0  0  0  0
  1  2  1  0  0  0  0
  1  5  2  0  0  0  0
  2  6  2  0  0  0  0
  3  8  2  0  0  0  0
  3 17  1  0  0  0  0
  4  9  1  0  0  0  0
  4 17  2  0  0  0  0
  5 19  1  0  0  0  0
  6 21  1  0  0  0  0
  7 10  2  0  0  0  0
  7 20  1  0  0  0  0
  8 25  1  0  0  0  0
  9 25  2  0  0  0  0
 10 26  1  0  0  0  0
 11 12  2  0  0  0  0
 11 27  1  0  0  0  0
 12 28  1  0  0  0  0
 13 22  1  0  0  0  0
 13 26  2  0  0  0  0
 14 23  2  0  0  0  0
 14 31  1  0  0  0  0
 15 28  2  0  0  0  0
 15 29  1  0  0  0  0
 16 24  2  0  0  0  0
 16 68  1  0  0  0  0
 17 30  1  0  0  0  0
 18 30  1  0  0  0  0
 18 32  2  0  0  0  0
 18 33  1  0  0  0  0
 19 21  2  0  0  0  0
 19 38  1  0  0  0  0
 20 22  2  0  0  0  0
 20 39  1  0  0  0  0
 21 47  1  0  0  0  0
 22 40  1  0  0  0  0
 23 24  1  0  0  0  0
 23 50  1  0  0  0  0
 24 58  1  0  0  0  0
 25 84  1  0  0  0  0
 26 85  1  0  0  0  0
 27 29  2  0  0  0  0
 27 84  1  0  0  0  0
 28 87  1  0  0  0  0
 29 88  1  0  0  0  0
 30 69  2  0  0  0  0
 31 68  2  0  0  0  0
 31 86  1  0  0  0  0
 32 70  1  0  0  0  0
 32 73  1  0  0  0  0
 33 74  1  0  0  0  0
 33 79  2  0  0  0  0
 34 48  1  0  0  0  0
 34 75  1  0  0  0  0
 34 80  2  0  0  0  0
 35 63  1  0  0  0  0
 35 71  1  0  0  0  0
 35 81  2  0  0  0  0
 36 64  1  0  0  0  0
 36 76  1  0  0  0  0
 36 82  2  0  0  0  0
 37 72  1  0  0  0  0
 37 77  1  0  0  0  0
 37 83  2  0  0  0  0
 38 41  1  0  0  0  0
 39 48  1  0  0  0  0
 40 71  1  0  0  0  0
 41 43  1  0  0  0  0
 42 44  1  0  0  0  0
 42 45  1  0  0  0  0
 43 47  1  0  0  0  0
 44 49  1  0  0  0  0
 45 72  1  0  0  0  0
 46 49  1  0  0  0  0
 46 72  1  0  0  0  0
 47 75  1  0  0  0  0
 48 71  1  0  0  0  0
 49 70  1  0  0  0  0
 51 64  1  0  0  0  0
 52 65  1  0  0  0  0
 53 65  1  0  0  0  0
 54 67  1  0  0  0  0
 55 67  1  0  0  0  0
 56 67  1  0  0  0  0
 57 78  1  0  0  0  0
 58 66  1  0  0  0  0
 59 61  1  0  0  0  0
 59 62  1  0  0  0  0
 60 66  1  0  0  0  0
 60 77  1  0  0  0  0
 61 85  1  0  0  0  0
 62 86  1  0  0  0  0
 63 67  1  0  0  0  0
 63 76  1  0  0  0  0
 64 78  1  0  0  0  0
 65 66  1  0  0  0  0
 69 70  1  0  0  0  0
M  CHG  1  78   1
M  ISO  4  37 100  61 101  77 100  85 101
M  END
> <Batch ID>
0080

> <Smiles>
CNC(C)C(=O)NC(C(=O)N1Cc2cc([101O:1][101CH2:1]CCOc3cc(C)c(CC(C[100NH:0][100C:0](=O)N4CCCC(n5nc(-c6ccc(Oc7ccc(F)cc7F)cc6)c(C(N)=O)c5N)C4)C(C)C)cn3)ccc2CC1C(=O)NC1CCCc2ccccc21)C(C)(C)C

> <Shape>
0.255

> <Color>
0.076

> <Negative vol penalty>
0.000

$$$$

  -OEChem-04052318443D

 88 96  0     1  0  0  0  0  0999 V2000
  -25.4665  -31.4529   17.3795 C   0  0  0  0  0  0  0  0  0  0  0  0
  -25.4567  -30.0628   17.4337 C   0  0  0  0  0  0  0  0  0  0  0  0
  -23.1536   -9.7292   19.9579 C   0  0  0  0  0  0  0  0  0  0  0  0
  -23.8805   -9.8333   22.2596 C   0  0  0  0  0  0  0  0  0  0  0  0
  -25.3692  -32.1959   18.5553 C   0  0  0  0  0  0  0  0  0  0  0  0
  -25.3508  -29.4148   18.6638 C   0  0  0  0  0  0  0  0  0  0  0  0
  -22.6266  -23.4953   21.6394 C   0  0  0  0  0  0  0  0  0  0  0  0
  -22.4503   -8.5564   20.2330 C   0  0  0  0  0  0  0  0  0  0  0  0
  -23.1772   -8.6605   22.5348 C   0  0  0  0  0  0  0  0  0  0  0  0
  -23.0063  -22.4209   22.4427 C   0  0  0  0  0  0  0  0  0  0  0  0
  -19.9734   -7.7584   23.1196 C   0  0  0  0  0  0  0  0  0  0  0  0
  -19.2022   -7.7244   24.2813 C   0  0  0  0  0  0  0  0  0  0  0  0
  -29.9414  -19.4255   24.4732 C   0  0  0  0  0  0  0  0  0  0  0  0
  -22.7644  -23.8077   24.4016 C   0  0  0  0  0  0  0  0  0  0  0  0
  -20.5054   -5.8584   25.0919 C   0  0  0  0  0  0  0  0  0  0  0  0
  -30.7119  -18.8480   23.4883 C   0  0  0  0  0  0  0  0  0  0  0  0
  -29.4626  -17.2267   24.3968 C   0  0  0  0  0  0  0  0  0  0  0  0
  -23.8687  -10.3676   20.9712 C   0  0  0  0  0  0  0  0  0  0  0  0
  -29.1509  -18.3999   25.0479 C   0  0  0  0  0  0  0  0  0  0  0  0
  -24.1166  -12.8993   20.7794 C   0  0  0  0  0  0  0  0  0  0  0  0
  -25.2523  -31.5567   19.7996 C   0  0  0  0  0  0  0  0  0  0  0  0
  -22.3229  -24.7391   22.2113 C   0  0  0  0  0  0  0  0  0  0  0  0
  -25.2532  -30.1500   19.8575 C   0  0  0  0  0  0  0  0  0  0  0  0
  -22.3786  -24.8956   23.6037 C   0  0  0  0  0  0  0  0  0  0  0  0
  -22.4621   -8.0221   21.5214 C   0  0  0  0  0  0  0  0  0  0  0  0
  -23.0781  -22.5778   23.8237 C   0  0  0  0  0  0  0  0  0  0  0  0
  -21.0106   -6.8423   22.9439 C   0  0  0  0  0  0  0  0  0  0  0  0
  -19.4682   -6.7745   25.2675 C   0  0  0  0  0  0  0  0  0  0  0  0
  -21.2766   -5.8924   23.9301 C   0  0  0  0  0  0  0  0  0  0  0  0
  -24.5958  -11.5788   20.6875 C   0  0  0  0  0  0  0  0  0  0  0  0
  -25.1847  -13.6787   20.4077 C   0  0  0  0  0  0  0  0  0  0  0  0
  -28.1680  -18.5262   26.1375 C   0  0  0  0  0  0  0  0  0  0  0  0
  -27.8694  -19.6756   26.7659 C   0  0  0  0  0  0  0  0  0  0  0  0
  -22.8219  -13.3785   21.1661 C   0  0  0  0  0  0  0  0  0  0  0  0
  -23.5422  -27.6664   21.9923 C   0  0  0  0  0  0  0  0  0  0  0  0
  -30.6449  -14.8487   20.7348 C   0  0  0  0  0  0  0  0  0  0  0  0
  -20.9803  -28.4488   23.8217 C   0  0  0  0  0  0  0  0  0  0  0  0
  -18.6046  -27.4502   26.0590 C   0  0  0  0  0  0  0  0  0  0  0  0
  -25.1974  -32.4020   21.0476 C   0  0  0  0  0  0  0  0  0  0  0  0
  -21.8890  -25.8807   21.3333 C   0  0  0  0  0  0  0  0  0  0  0  0
  -22.0429  -26.2046   24.2686 C   0  0  0  0  0  0  0  0  0  0  0  0
  -24.7111  -31.6406   22.2780 C   0  0  0  0  0  0  0  0  0  0  0  0
  -29.6025  -12.4363   18.2988 C   0  0  0  0  0  0  0  0  0  0  0  0
  -25.4192  -30.2939   22.3868 C   0  0  0  0  0  0  0  0  0  0  0  0
  -28.1789  -12.0844   18.7284 C   0  0  0  0  0  0  0  0  0  0  0  0
  -30.4979  -12.7095   19.5033 C   0  0  0  0  0  0  0  0  0  0  0  0
  -28.5488  -13.4124   20.8556 C   0  0  0  0  0  0  0  0  0  0  0  0
  -25.1148  -29.4107   21.1707 C   0  0  1  0  0  0  0  0  0  0  0  0
  -22.0997  -27.2460   21.9807 C   0  0  1  0  0  0  0  0  0  0  0  0
  -27.6035  -13.1590   19.6679 C   0  0  2  0  0  0  0  0  0  0  0  0
  -16.6727  -28.3229   27.4020 C   0  0  0  0  0  0  0  0  0  0  0  0
  -31.8183  -15.5295   23.3730 C   0  0  0  0  0  0  0  0  0  0  0  0
  -26.1196  -18.5905   28.3143 C   0  0  0  0  0  0  0  0  0  0  0  0
  -27.6355  -20.3944   29.1173 C   0  0  0  0  0  0  0  0  0  0  0  0
  -22.9293  -29.7586   25.7700 C   0  0  0  0  0  0  0  0  0  0  0  0
  -21.1069  -29.7555   27.4866 C   0  0  0  0  0  0  0  0  0  0  0  0
  -20.8249  -31.0502   25.3731 C   0  0  0  0  0  0  0  0  0  0  0  0
  -16.6981  -25.6271   24.7172 C   0  0  0  0  0  0  0  0  0  0  0  0
  -25.0578  -20.6876   26.1804 C   0  0  0  0  0  0  0  0  0  0  0  0
  -25.8288  -20.9698   27.4751 C   0  0  0  0  0  0  0  0  0  0  0  0
  -29.1137  -16.7773   20.7673 C   0  0  0  0  0  0  0  0  0  0  0  0
  -24.1263  -21.8408   25.8273 C   0  0  0  0  0  0  0  0  0  1  0  0
  -29.9666  -15.8457   21.6403 C   0  0  2  0  0  0  0  0  0  0  0  0
  -20.7091  -28.5256   25.3048 C   0  0  1  0  0  0  0  0  0  0  0  0
  -17.1028  -27.6685   26.0983 C   0  0  2  0  0  0  0  0  0  0  0  0
  -31.0077  -16.5483   22.5524 C   0  0  1  0  0  0  0  0  0  0  0  0
  -26.8563  -19.8768   27.8886 C   0  0  0  0  0  0  0  0  0  0  0  0
  -21.4008  -29.7482   25.9712 C   0  0  0  0  0  0  0  0  0  0  0  0
  -25.8691  -11.5189   20.2886 N   0  0  0  0  0  0  0  0  0  0  0  0
  -30.4128  -17.5111   23.4510 N   0  0  0  0  0  0  0  0  0  0  0  0
  -26.1991  -12.8115   20.1264 N   0  0  0  0  0  0  0  0  0  0  0  0
  -21.6302  -27.2927   23.3669 N   0  0  0  0  0  0  0  0  0  0  0  0
  -29.9058  -13.7192   20.3826 N   0  0  0  0  0  0  0  0  0  0  0  0
  -25.3457  -15.0145   20.2972 N   0  0  0  0  0  0  0  0  0  0  0  0
  -21.8404  -12.4418   21.5177 N   0  0  0  0  0  0  0  0  0  0  0  0
  -23.7955  -28.8275   21.2871 N   0  0  0  0  0  0  0  0  0  0  0  0
  -19.2583  -28.5040   25.4562 N   0  0  0  0  0  0  0  0  0  0  0  0
  -29.9303  -17.8392   20.1286 N   0  3  0  0  0  0  0  0  0  0  0  0
  -16.3868  -26.3682   25.9665 N   0  3  0  0  0  0  0  0  0  0  0  0
  -22.5385  -14.6003   21.1832 O   0  0  0  0  0  0  0  0  0  0  0  0
  -24.3643  -26.9885   22.5975 O   0  0  0  0  0  0  0  0  0  0  0  0
  -31.7962  -15.0703   20.3506 O   0  0  0  0  0  0  0  0  0  0  0  0
  -20.6221  -29.3772   23.0926 O   0  0  0  0  0  0  0  0  0  0  0  0
  -19.1442  -26.4470   26.5206 O   0  0  0  0  0  0  0  0  0  0  0  0
  -21.7758   -6.8779   21.7903 O   0  0  0  0  0  0  0  0  0  0  0  0
  -23.4491  -21.5309   24.6100 O   0  0  0  0  0  0  0  0  0  1  0  0
  -18.7285   -6.7429   26.3838 F   0  0  0  0  0  0  0  0  0  0  0  0
  -22.2725   -5.0106   23.7675 F   0  0  0  0  0  0  0  0  0  0  0  0
  1  2  1  0  0  0  0
  1  5  2  0  0  0  0
  2  6  2  0  0  0  0
  3  8  2  0  0  0  0
  3 18  1  0  0  0  0
  4  9  1  0  0  0  0
  4 18  2  0  0  0  0
  5 21  1  0  0  0  0
  6 23  1  0  0  0  0
  7 10  2  0  0  0  0
  7 22  1  0  0  0  0
  8 25  1  0  0  0  0
  9 25  2  0  0  0  0
 10 26  1  0  0  0  0
 11 12  2  0  0  0  0
 11 27  1  0  0  0  0
 12 28  1  0  0  0  0
 13 16  2  0  0  0  0
 13 19  1  0  0  0  0
 14 24  1  0  0  0  0
 14 26  2  0  0  0  0
 15 28  2  0  0  0  0
 15 29  1  0  0  0  0
 16 70  1  0  0  0  0
 17 19  2  0  0  0  0
 17 70  1  0  0  0  0
 18 30  1  0  0  0  0
 19 32  1  0  0  0  0
 20 30  1  0  0  0  0
 20 31  2  0  0  0  0
 20 34  1  0  0  0  0
 21 23  2  0  0  0  0
 21 39  1  0  0  0  0
 22 24  2  0  0  0  0
 22 40  1  0  0  0  0
 23 48  1  0  0  0  0
 24 41  1  0  0  0  0
 25 85  1  0  0  0  0
 26 86  1  0  0  0  0
 27 29  2  0  0  0  0
 27 85  1  0  0  0  0
 28 87  1  0  0  0  0
 29 88  1  0  0  0  0
 30 69  2  0  0  0  0
 31 71  1  0  0  0  0
 31 74  1  0  0  0  0
 32 33  2  0  0  0  0
 33 67  1  0  0  0  0
 34 75  1  0  0  0  0
 34 80  2  0  0  0  0
 35 49  1  0  0  0  0
 35 76  1  0  0  0  0
 35 81  2  0  0  0  0
 36 63  1  0  0  0  0
 36 73  1  0  0  0  0
 36 82  2  0  0  0  0
 37 64  1  0  0  0  0
 37 72  1  0  0  0  0
 37 83  2  0  0  0  0
 38 65  1  0  0  0  0
 38 77  1  0  0  0  0
 38 84  2  0  0  0  0
 39 42  1  0  0  0  0
 40 49  1  0  0  0  0
 41 72  1  0  0  0  0
 42 44  1  0  0  0  0
 43 45  1  0  0  0  0
 43 46  1  0  0  0  0
 44 48  1  0  0  0  0
 45 50  1  0  0  0  0
 46 73  1  0  0  0  0
 47 50  1  0  0  0  0
 47 73  1  0  0  0  0
 48 76  1  0  0  0  0
 49 72  1  0  0  0  0
 50 71  1  0  0  0  0
 51 65  1  0  0  0  0
 52 66  1  0  0  0  0
 53 67  1  0  0  0  0
 54 67  1  0  0  0  0
 55 68  1  0  0  0  0
 56 68  1  0  0  0  0
 57 68  1  0  0  0  0
 58 79  1  0  0  0  0
 59 60  1  0  0  0  0
 59 62  1  0  0  0  0
 60 67  1  0  0  0  0
 61 63  1  0  0  0  0
 61 78  1  0  0  0  0
 62 86  1  0  0  0  0
 63 66  1  0  0  0  0
 64 68  1  0  0  0  0
 64 77  1  0  0  0  0
 65 79  1  0  0  0  0
 66 70  1  0  0  0  0
 69 71  1  0  0  0  0
M  CHG  2  78   1  79   1
M  ISO  4  36 100  62 101  63 100  86 101
M  END
> <Batch ID>
0080

> <Smiles>
CNC(C)C(=O)NC(C(=O)N1Cc2cc([101O:1][101CH2:1]CCC(C)(C)C=Cc3ccn(C(C)[100CH:0](CN)[100C:0](=O)N4CCCC(n5nc(-c6ccc(Oc7ccc(F)cc7F)cc6)c(C(N)=O)c5N)C4)c3)ccc2CC1C(=O)NC1CCCc2ccccc21)C(C)(C)C

> <Shape>
0.254

> <Color>
0.193

> <Negative vol penalty>
0.000

$$$$

  -OEChem-04052318443D

 86 94  0     1  0  0  0  0  0999 V2000
  -22.6264  -19.9114   24.6401 C   0  0  0  0  0  0  0  0  0  0  0  0
  -23.5133  -20.8611   24.1433 C   0  0  0  0  0  0  0  0  0  0  0  0
  -25.3113  -13.6849   21.5516 C   0  0  0  0  0  0  0  0  0  0  0  0
  -25.9701  -13.7520   19.2281 C   0  0  0  0  0  0  0  0  0  0  0  0
  -21.2543  -20.1567   24.6081 C   0  0  0  0  0  0  0  0  0  0  0  0
  -23.0285  -22.0562   23.6130 C   0  0  0  0  0  0  0  0  0  0  0  0
  -25.6408  -26.0905   25.2084 C   0  0  0  0  0  0  0  0  0  0  0  0
  -24.3857  -12.6829   21.2602 C   0  0  0  0  0  0  0  0  0  0  0  0
  -25.0446  -12.7500   18.9367 C   0  0  0  0  0  0  0  0  0  0  0  0
  -26.8737  -26.3307   24.6034 C   0  0  0  0  0  0  0  0  0  0  0  0
  -24.4169   -9.3474   20.7068 C   0  0  0  0  0  0  0  0  0  0  0  0
  -24.3585   -8.2494   21.5651 C   0  0  0  0  0  0  0  0  0  0  0  0
  -25.8528  -28.0082   23.2025 C   0  0  0  0  0  0  0  0  0  0  0  0
  -22.0462   -8.7530   22.0518 C   0  0  0  0  0  0  0  0  0  0  0  0
  -30.9785  -23.6466   18.9536 C   0  0  0  0  0  0  0  0  0  0  0  0
  -26.1035  -14.2195   20.5355 C   0  0  0  0  0  0  0  0  0  0  0  0
  -28.4053  -15.0862   21.2124 C   0  0  0  0  0  0  0  0  0  0  0  0
  -20.7529  -21.3595   24.0860 C   0  0  0  0  0  0  0  0  0  0  0  0
  -24.5005  -26.8009   24.8067 C   0  0  0  0  0  0  0  0  0  0  0  0
  -21.6483  -22.3172   23.5727 C   0  0  0  0  0  0  0  0  0  0  0  0
  -24.6071  -27.7770   23.8057 C   0  0  0  0  0  0  0  0  0  0  0  0
  -24.2523  -12.2154   19.9528 C   0  0  0  0  0  0  0  0  0  0  0  0
  -26.9793  -27.2876   23.5983 C   0  0  0  0  0  0  0  0  0  0  0  0
  -23.2901  -10.1483   20.5211 C   0  0  0  0  0  0  0  0  0  0  0  0
  -23.1732   -7.9522   22.2375 C   0  0  0  0  0  0  0  0  0  0  0  0
  -22.1047   -9.8510   21.1936 C   0  0  0  0  0  0  0  0  0  0  0  0
  -27.0593  -15.2550   20.8358 C   0  0  0  0  0  0  0  0  0  0  0  0
  -30.5397  -23.2866   17.6985 C   0  0  0  0  0  0  0  0  0  0  0  0
  -30.2772  -25.4931   17.1576 C   0  0  0  0  0  0  0  0  0  0  0  0
  -30.7153  -25.8529   18.4131 C   0  0  0  0  0  0  0  0  0  0  0  0
  -28.8772  -16.3649   21.3823 C   0  0  0  0  0  0  0  0  0  0  0  0
  -29.1613  -13.8814   21.3925 C   0  0  0  0  0  0  0  0  0  0  0  0
  -21.7040  -26.0113   23.5184 C   0  0  0  0  0  0  0  0  0  0  0  0
  -21.0428  -29.1524   23.9864 C   0  0  0  0  0  0  0  0  0  0  0  0
  -22.2166  -32.3317   24.3878 C   0  0  0  0  0  0  0  0  0  0  0  0
  -27.2080  -21.6590   19.1380 C   0  0  0  0  0  0  0  0  0  0  0  0
  -19.2591  -21.5595   24.0294 C   0  0  0  0  0  0  0  0  0  0  0  0
  -23.1832  -26.5490   25.4878 C   0  0  0  0  0  0  0  0  0  0  0  0
  -23.4170  -28.5812   23.3523 C   0  0  0  0  0  0  0  0  0  0  0  0
  -18.8474  -23.0104   23.7937 C   0  0  0  0  0  0  0  0  0  0  0  0
  -27.4252  -20.7642   22.5773 C   0  0  0  0  0  0  0  0  0  0  0  0
  -19.6692  -23.6217   22.6633 C   0  0  0  0  0  0  0  0  0  0  0  0
  -27.4775  -19.2356   22.5550 C   0  0  0  0  0  0  0  0  0  0  0  0
  -26.5061  -21.3134   21.4884 C   0  0  0  0  0  0  0  0  0  0  0  0
  -26.8569  -19.3051   20.1037 C   0  0  0  0  0  0  0  0  0  0  0  0
  -21.1623  -23.6362   23.0123 C   0  0  1  0  0  0  0  0  0  0  0  0
  -21.9840  -26.9677   24.6429 C   0  0  1  0  0  0  0  0  0  0  0  0
  -27.8148  -18.7066   21.1480 C   0  0  2  0  0  0  0  0  0  0  0  0
  -29.8842  -26.5174   16.1486 C   0  0  0  0  0  0  0  0  0  0  0  0
  -21.4345  -34.6941   24.7113 C   0  0  0  0  0  0  0  0  0  0  0  0
  -29.5306  -29.3929   19.3228 C   0  0  0  0  0  0  0  0  0  0  0  0
  -20.2919  -29.3057   21.0330 C   0  0  0  0  0  0  0  0  0  0  0  0
  -20.4455  -31.7993   21.1951 C   0  0  0  0  0  0  0  0  0  0  0  0
  -18.7659  -30.5633   22.5640 C   0  0  0  0  0  0  0  0  0  0  0  0
  -23.5848  -32.5493   27.0031 C   0  0  0  0  0  0  0  0  0  0  0  0
  -30.4459  -21.8517   17.3138 C   0  0  0  0  0  0  0  0  0  0  0  0
  -30.8180  -27.3015   18.8259 C   0  0  0  0  0  0  0  0  0  0  0  0
  -29.3409  -21.5349   16.2850 C   0  0  0  0  0  0  0  0  0  0  0  0
  -29.4186  -27.4430   20.9519 C   0  0  0  0  0  0  0  0  0  0  0  0
  -27.9257  -21.8430   16.7694 C   0  0  0  0  0  0  0  0  0  0  0  0
  -28.1615  -27.9558   21.6459 C   0  0  0  0  0  0  0  0  0  1  0  0
  -21.2147  -30.4136   23.1747 C   0  0  1  0  0  0  0  0  0  0  0  0
  -21.8753  -33.4113   25.3990 C   0  0  2  0  0  0  0  0  0  0  0  0
  -29.5336  -27.8674   19.4740 C   0  0  1  0  0  0  0  0  0  0  0  0
  -20.2017  -30.5041   21.9987 C   0  0  0  0  0  0  0  0  0  0  0  0
  -31.0741  -24.9361   19.3335 N   0  0  0  0  0  0  0  0  0  0  0  0
  -26.6994  -16.5396   20.7703 N   0  0  0  0  0  0  0  0  0  0  0  0
  -30.1812  -24.2035   16.7779 N   0  0  0  0  0  0  0  0  0  0  0  0
  -27.8261  -17.1896   21.1082 N   0  0  0  0  0  0  0  0  0  0  0  0
  -22.1497  -28.2938   24.0443 N   0  0  0  0  0  0  0  0  0  0  0  0
  -26.8803  -20.7744   20.1787 N   0  0  0  0  0  0  0  0  0  0  0  0
  -30.0845  -16.8529   21.7380 N   0  0  0  0  0  0  0  0  0  0  0  0
  -28.5221  -12.6529   21.1765 N   0  0  0  0  0  0  0  0  0  0  0  0
  -21.4564  -24.7157   23.9302 N   0  0  0  0  0  0  0  0  0  0  0  0
  -21.1333  -31.5217   24.1201 N   0  0  0  0  0  0  0  0  0  0  0  0
  -27.5573  -21.0652   17.9313 N   0  0  0  0  0  0  0  0  0  0  0  0
  -23.0599  -33.7172   26.2498 N   0  3  0  0  0  0  0  0  0  0  0  0
  -30.3634  -13.8934   21.7507 O   0  0  0  0  0  0  0  0  0  0  0  0
  -21.7106  -26.4190   22.3627 O   0  0  0  0  0  0  0  0  0  0  0  0
  -19.9684  -28.9404   24.5542 O   0  0  0  0  0  0  0  0  0  0  0  0
  -23.3316  -32.2204   23.8829 O   0  0  0  0  0  0  0  0  0  0  0  0
  -27.1957  -22.8870   19.2757 O   0  0  0  0  0  0  0  0  0  0  0  0
  -23.3495  -11.2375   19.6681 O   0  0  0  0  0  0  0  0  0  0  0  0
  -28.1814  -27.5235   23.0057 O   0  0  0  0  0  0  0  0  0  1  0  0
  -23.1167   -6.8968   23.0605 F   0  0  0  0  0  0  0  0  0  0  0  0
  -21.0185  -10.6160   21.0183 F   0  0  0  0  0  0  0  0  0  0  0  0
  1  2  1  0  0  0  0
  1  5  2  0  0  0  0
  2  6  2  0  0  0  0
  3  8  2  0  0  0  0
  3 16  1  0  0  0  0
  4  9  1  0  0  0  0
  4 16  2  0  0  0  0
  5 18  1  0  0  0  0
  6 20  1  0  0  0  0
  7 10  2  0  0  0  0
  7 19  1  0  0  0  0
  8 22  1  0  0  0  0
  9 22  2  0  0  0  0
 10 23  1  0  0  0  0
 11 12  2  0  0  0  0
 11 24  1  0  0  0  0
 12 25  1  0  0  0  0
 13 21  1  0  0  0  0
 13 23  2  0  0  0  0
 14 25  2  0  0  0  0
 14 26  1  0  0  0  0
 15 28  1  0  0  0  0
 15 66  2  0  0  0  0
 16 27  1  0  0  0  0
 17 27  1  0  0  0  0
 17 31  2  0  0  0  0
 17 32  1  0  0  0  0
 18 20  2  0  0  0  0
 18 37  1  0  0  0  0
 19 21  2  0  0  0  0
 19 38  1  0  0  0  0
 20 46  1  0  0  0  0
 21 39  1  0  0  0  0
 22 83  1  0  0  0  0
 23 84  1  0  0  0  0
 24 26  2  0  0  0  0
 24 83  1  0  0  0  0
 25 85  1  0  0  0  0
 26 86  1  0  0  0  0
 27 67  2  0  0  0  0
 28 56  1  0  0  0  0
 28 68  2  0  0  0  0
 29 30  2  0  0  0  0
 29 49  1  0  0  0  0
 29 68  1  0  0  0  0
 30 57  1  0  0  0  0
 30 66  1  0  0  0  0
 31 69  1  0  0  0  0
 31 72  1  0  0  0  0
 32 73  1  0  0  0  0
 32 78  2  0  0  0  0
 33 47  1  0  0  0  0
 33 74  1  0  0  0  0
 33 79  2  0  0  0  0
 34 62  1  0  0  0  0
 34 70  1  0  0  0  0
 34 80  2  0  0  0  0
 35 63  1  0  0  0  0
 35 75  1  0  0  0  0
 35 81  2  0  0  0  0
 36 71  1  0  0  0  0
 36 76  1  0  0  0  0
 36 82  2  0  0  0  0
 37 40  1  0  0  0  0
 38 47  1  0  0  0  0
 39 70  1  0  0  0  0
 40 42  1  0  0  0  0
 41 43  1  0  0  0  0
 41 44  1  0  0  0  0
 42 46  1  0  0  0  0
 43 48  1  0  0  0  0
 44 71  1  0  0  0  0
 45 48  1  0  0  0  0
 45 71  1  0  0  0  0
 46 74  1  0  0  0  0
 47 70  1  0  0  0  0
 48 69  1  0  0  0  0
 50 63  1  0  0  0  0
 51 64  1  0  0  0  0
 52 65  1  0  0  0  0
 53 65  1  0  0  0  0
 54 65  1  0  0  0  0
 55 77  1  0  0  0  0
 56 58  1  0  0  0  0
 57 64  1  0  0  0  0
 58 60  1  0  0  0  0
 59 61  1  0  0  0  0
 59 64  1  0  0  0  0
 60 76  1  0  0  0  0
 61 84  1  0  0  0  0
 62 65  1  0  0  0  0
 62 75  1  0  0  0  0
 63 77  1  0  0  0  0
 67 69  1  0  0  0  0
M  CHG  1  77   1
M  ISO  4  36 100  61 101  76 100  84 101
M  END
> <Batch ID>
0080

> <Smiles>
CNC(C)C(=O)NC(C(=O)N1Cc2cc([101O:1][101CH2:1]CC(C)Cc3ncc(CCC[100NH:0][100C:0](=O)N4CCCC(n5nc(-c6ccc(Oc7ccc(F)cc7F)cc6)c(C(N)=O)c5N)C4)nc3C)ccc2CC1C(=O)NC1CCCc2ccccc21)C(C)(C)C

> <Shape>
0.218

> <Color>
0.062

> <Negative vol penalty>
0.000

$$$$

  -OEChem-04052318443D

 87 95  0     1  0  0  0  0  0999 V2000
  -30.8388  -26.7587   13.4334 C   0  0  0  0  0  0  0  0  0  0  0  0
  -29.5923  -26.4443   13.9651 C   0  0  0  0  0  0  0  0  0  0  0  0
  -25.3696  -13.4186   21.3970 C   0  0  0  0  0  0  0  0  0  0  0  0
  -25.8345  -13.2865   19.0298 C   0  0  0  0  0  0  0  0  0  0  0  0
  -31.9046  -27.0508   14.2836 C   0  0  0  0  0  0  0  0  0  0  0  0
  -29.4110  -26.4208   15.3475 C   0  0  0  0  0  0  0  0  0  0  0  0
  -24.3678  -28.0293   18.4271 C   0  0  0  0  0  0  0  0  0  0  0  0
  -24.3945  -12.4306   21.2606 C   0  0  0  0  0  0  0  0  0  0  0  0
  -24.8594  -12.2985   18.8934 C   0  0  0  0  0  0  0  0  0  0  0  0
  -23.3226  -27.2835   18.9704 C   0  0  0  0  0  0  0  0  0  0  0  0
  -22.0341   -9.6868   21.5995 C   0  0  0  0  0  0  0  0  0  0  0  0
  -22.0131   -8.6615   22.5449 C   0  0  0  0  0  0  0  0  0  0  0  0
  -24.4234  -27.3154   21.1166 C   0  0  0  0  0  0  0  0  0  0  0  0
  -22.4474  -21.1124   18.6857 C   0  0  0  0  0  0  0  0  0  0  0  0
  -24.2613   -8.0373   21.9179 C   0  0  0  0  0  0  0  0  0  0  0  0
  -26.0896  -13.8466   20.2815 C   0  0  0  0  0  0  0  0  0  0  0  0
  -28.4638  -14.6806   20.7003 C   0  0  0  0  0  0  0  0  0  0  0  0
  -31.7338  -27.0403   15.6769 C   0  0  0  0  0  0  0  0  0  0  0  0
  -25.4557  -28.4151   19.2233 C   0  0  0  0  0  0  0  0  0  0  0  0
  -30.4758  -26.7117   16.2172 C   0  0  0  0  0  0  0  0  0  0  0  0
  -25.4799  -28.0683   20.5817 C   0  0  0  0  0  0  0  0  0  0  0  0
  -23.4615  -21.9714   19.0711 C   0  0  0  0  0  0  0  0  0  0  0  0
  -24.1394  -11.8705   20.0089 C   0  0  0  0  0  0  0  0  0  0  0  0
  -23.3517  -26.9239   20.3146 C   0  0  0  0  0  0  0  0  0  0  0  0
  -23.1686   -9.8873   20.8132 C   0  0  0  0  0  0  0  0  0  0  0  0
  -23.1267   -7.8367   22.7042 C   0  0  0  0  0  0  0  0  0  0  0  0
  -24.2822   -9.0626   20.9724 C   0  0  0  0  0  0  0  0  0  0  0  0
  -27.0966  -14.8676   20.4216 C   0  0  0  0  0  0  0  0  0  0  0  0
  -22.6106  -20.4061   17.5110 C   0  0  0  0  0  0  0  0  0  0  0  0
  -24.5718  -22.0669   18.2565 C   0  0  0  0  0  0  0  0  0  0  0  0
  -28.9848  -15.9511   20.7309 C   0  0  0  0  0  0  0  0  0  0  0  0
  -29.1972  -13.4670   20.9125 C   0  0  0  0  0  0  0  0  0  0  0  0
  -28.5813  -27.8378   19.1829 C   0  0  0  0  0  0  0  0  0  0  0  0
  -28.6180  -30.0054   21.5959 C   0  0  0  0  0  0  0  0  0  0  0  0
  -27.1635  -20.9694   18.1283 C   0  0  0  0  0  0  0  0  0  0  0  0
  -26.9213  -31.5739   24.1074 C   0  0  0  0  0  0  0  0  0  0  0  0
  -32.9273  -27.3165   16.5566 C   0  0  0  0  0  0  0  0  0  0  0  0
  -26.5623  -29.2423   18.6285 C   0  0  0  0  0  0  0  0  0  0  0  0
  -26.6152  -28.4751   21.4839 C   0  0  0  0  0  0  0  0  0  0  0  0
  -32.5572  -27.6363   18.0026 C   0  0  0  0  0  0  0  0  0  0  0  0
  -27.7845  -20.4773   21.6778 C   0  0  0  0  0  0  0  0  0  0  0  0
  -31.5314  -26.6354   18.5249 C   0  0  0  0  0  0  0  0  0  0  0  0
  -27.7737  -18.9527   21.7815 C   0  0  0  0  0  0  0  0  0  0  0  0
  -26.7812  -20.9765   20.6414 C   0  0  0  0  0  0  0  0  0  0  0  0
  -26.9544  -18.8500   19.3875 C   0  0  0  0  0  0  0  0  0  0  0  0
  -30.2334  -26.7001   17.7109 C   0  0  1  0  0  0  0  0  0  0  0  0
  -27.8693  -29.1415   19.4090 C   0  0  1  0  0  0  0  0  0  0  0  0
  -27.9745  -18.3042   20.4006 C   0  0  2  0  0  0  0  0  0  0  0  0
  -21.5477  -19.4682   17.0509 C   0  0  0  0  0  0  0  0  0  0  0  0
  -25.4329  -24.4386   18.1703 C   0  0  0  0  0  0  0  0  0  0  0  0
  -27.2275  -33.2688   25.9325 C   0  0  0  0  0  0  0  0  0  0  0  0
  -20.2773  -24.5131   22.0645 C   0  0  0  0  0  0  0  0  0  0  0  0
  -28.2734  -22.9399   19.0857 C   0  0  0  0  0  0  0  0  0  0  0  0
  -27.4545  -22.9183   16.7199 C   0  0  0  0  0  0  0  0  0  0  0  0
  -30.1072  -27.9324   23.2677 C   0  0  0  0  0  0  0  0  0  0  0  0
  -29.5475  -29.2756   25.3051 C   0  0  0  0  0  0  0  0  0  0  0  0
  -30.9590  -30.2717   23.5057 C   0  0  0  0  0  0  0  0  0  0  0  0
  -24.8810  -33.3716   22.9393 C   0  0  0  0  0  0  0  0  0  0  0  0
  -23.3340  -22.7665   20.3464 C   0  0  0  0  0  0  0  0  0  0  0  0
  -21.9004  -23.2163   20.6605 C   0  0  0  0  0  0  0  0  0  0  0  0
  -22.6553  -25.3235   21.9300 C   0  0  0  0  0  0  0  0  0  1  0  0
  -25.7038  -22.9726   18.6072 C   0  0  2  0  0  0  0  0  0  0  0  0
  -28.4866  -29.9351   23.0982 C   0  0  1  0  0  0  0  0  0  0  0  0
  -26.8128  -33.0396   24.4875 C   0  0  2  0  0  0  0  0  0  0  0  0
  -21.7448  -24.0881   21.9263 C   0  0  1  0  0  0  0  0  0  0  0  0
  -27.1388  -22.4768   18.1604 C   0  0  0  0  0  0  0  0  0  0  0  0
  -29.7545  -29.3442   23.7770 C   0  0  0  0  0  0  0  0  0  0  0  0
  -26.7696  -16.1554   20.2851 N   0  0  0  0  0  0  0  0  0  0  0  0
  -23.7080  -20.5194   16.7332 N   0  0  0  0  0  0  0  0  0  0  0  0
  -24.7049  -21.3634   17.1123 N   0  0  0  0  0  0  0  0  0  0  0  0
  -27.9388  -16.7891   20.4789 N   0  0  0  0  0  0  0  0  0  0  0  0
  -27.6766  -29.2778   20.8541 N   0  0  0  0  0  0  0  0  0  0  0  0
  -26.9883  -20.3148   19.3477 N   0  0  0  0  0  0  0  0  0  0  0  0
  -30.2312  -16.4219   20.9487 N   0  0  0  0  0  0  0  0  0  0  0  0
  -28.5071  -12.2490   20.8457 N   0  0  0  0  0  0  0  0  0  0  0  0
  -29.4462  -27.8487   18.1053 N   0  0  0  0  0  0  0  0  0  0  0  0
  -28.1443  -31.2823   23.5414 N   0  0  0  0  0  0  0  0  0  0  0  0
  -25.4106  -33.5158   24.3198 N   0  3  0  0  0  0  0  0  0  0  0  0
  -30.4247  -13.4638   21.1704 O   0  0  0  0  0  0  0  0  0  0  0  0
  -28.3632  -26.8925   19.9316 O   0  0  0  0  0  0  0  0  0  0  0  0
  -29.5182  -30.6866   21.0988 O   0  0  0  0  0  0  0  0  0  0  0  0
  -27.3363  -20.3930   17.0512 O   0  0  0  0  0  0  0  0  0  0  0  0
  -26.0134  -30.7676   24.2973 O   0  0  0  0  0  0  0  0  0  0  0  0
  -23.1882  -10.9062   19.8755 O   0  0  0  0  0  0  0  0  0  0  0  0
  -22.3332  -26.1954   20.8473 O   0  0  0  0  0  0  0  0  0  1  0  0
  -23.1070   -6.8531   23.6132 F   0  0  0  0  0  0  0  0  0  0  0  0
  -25.3755   -9.2512   20.2207 F   0  0  0  0  0  0  0  0  0  0  0  0
  1  2  1  0  0  0  0
  1  5  2  0  0  0  0
  2  6  2  0  0  0  0
  3  8  2  0  0  0  0
  3 16  1  0  0  0  0
  4  9  1  0  0  0  0
  4 16  2  0  0  0  0
  5 18  1  0  0  0  0
  6 20  1  0  0  0  0
  7 10  2  0  0  0  0
  7 19  1  0  0  0  0
  8 23  1  0  0  0  0
  9 23  2  0  0  0  0
 10 24  1  0  0  0  0
 11 12  2  0  0  0  0
 11 25  1  0  0  0  0
 12 26  1  0  0  0  0
 13 21  1  0  0  0  0
 13 24  2  0  0  0  0
 14 22  1  0  0  0  0
 14 29  2  0  0  0  0
 15 26  2  0  0  0  0
 15 27  1  0  0  0  0
 16 28  1  0  0  0  0
 17 28  1  0  0  0  0
 17 31  2  0  0  0  0
 17 32  1  0  0  0  0
 18 20  2  0  0  0  0
 18 37  1  0  0  0  0
 19 21  2  0  0  0  0
 19 38  1  0  0  0  0
 20 46  1  0  0  0  0
 21 39  1  0  0  0  0
 22 30  2  0  0  0  0
 22 59  1  0  0  0  0
 23 84  1  0  0  0  0
 24 85  1  0  0  0  0
 25 27  2  0  0  0  0
 25 84  1  0  0  0  0
 26 86  1  0  0  0  0
 27 87  1  0  0  0  0
 28 68  2  0  0  0  0
 29 49  1  0  0  0  0
 29 69  1  0  0  0  0
 30 62  1  0  0  0  0
 30 70  1  0  0  0  0
 31 71  1  0  0  0  0
 31 74  1  0  0  0  0
 32 75  1  0  0  0  0
 32 79  2  0  0  0  0
 33 47  1  0  0  0  0
 33 76  1  0  0  0  0
 33 80  2  0  0  0  0
 34 63  1  0  0  0  0
 34 72  1  0  0  0  0
 34 81  2  0  0  0  0
 35 66  1  0  0  0  0
 35 73  1  0  0  0  0
 35 82  2  0  0  0  0
 36 64  1  0  0  0  0
 36 77  1  0  0  0  0
 36 83  2  0  0  0  0
 37 40  1  0  0  0  0
 38 47  1  0  0  0  0
 39 72  1  0  0  0  0
 40 42  1  0  0  0  0
 41 43  1  0  0  0  0
 41 44  1  0  0  0  0
 42 46  1  0  0  0  0
 43 48  1  0  0  0  0
 44 73  1  0  0  0  0
 45 48  1  0  0  0  0
 45 73  1  0  0  0  0
 46 76  1  0  0  0  0
 47 72  1  0  0  0  0
 48 71  1  0  0  0  0
 50 62  1  0  0  0  0
 51 64  1  0  0  0  0
 52 65  1  0  0  0  0
 53 66  1  0  0  0  0
 54 66  1  0  0  0  0
 55 67  1  0  0  0  0
 56 67  1  0  0  0  0
 57 67  1  0  0  0  0
 58 78  1  0  0  0  0
 59 60  1  0  0  0  0
 60 65  1  0  0  0  0
 61 65  1  0  0  0  0
 61 85  1  0  0  0  0
 62 66  1  0  0  0  0
 63 67  1  0  0  0  0
 63 77  1  0  0  0  0
 64 78  1  0  0  0  0
 68 71  1  0  0  0  0
 69 70  2  0  0  0  0
M  CHG  1  78   1
M  ISO  4  35 100  61 101  66 100  85 101
M  END
> <Batch ID>
0080

> <Smiles>
CNC(C)C(=O)NC(C(=O)N1Cc2cc([101O:1][101CH2:1]C(C)CCc3cc(C)nnc3C(C)[100C:0](C)(C)[100C:0](=O)N3CCCC(n4nc(-c5ccc(Oc6ccc(F)cc6F)cc5)c(C(N)=O)c4N)C3)ccc2CC1C(=O)NC1CCCc2ccccc21)C(C)(C)C

> <Shape>
0.227

> <Color>
0.072

> <Negative vol penalty>
0.000

$$$$

  -OEChem-04052318443D

 83 91  0     1  0  0  0  0  0999 V2000
  -36.2039  -24.6541   30.4183 C   0  0  0  0  0  0  0  0  0  0  0  0
  -34.9743  -24.1301   30.0322 C   0  0  0  0  0  0  0  0  0  0  0  0
  -23.0760   -9.8674   19.9423 C   0  0  0  0  0  0  0  0  0  0  0  0
  -23.8394   -9.8754   22.2345 C   0  0  0  0  0  0  0  0  0  0  0  0
  -36.8376  -25.6040   29.6183 C   0  0  0  0  0  0  0  0  0  0  0  0
  -34.3772  -24.5566   28.8465 C   0  0  0  0  0  0  0  0  0  0  0  0
  -30.9782  -21.1944   25.0192 C   0  0  0  0  0  0  0  0  0  0  0  0
  -22.3340   -8.7133   20.1934 C   0  0  0  0  0  0  0  0  0  0  0  0
  -23.0974   -8.7213   22.4857 C   0  0  0  0  0  0  0  0  0  0  0  0
  -29.5996  -21.0628   24.8582 C   0  0  0  0  0  0  0  0  0  0  0  0
  -19.8712   -7.9194   23.0932 C   0  0  0  0  0  0  0  0  0  0  0  0
  -19.1161   -7.8786   24.2653 C   0  0  0  0  0  0  0  0  0  0  0  0
  -29.6573  -22.6952   23.0831 C   0  0  0  0  0  0  0  0  0  0  0  0
  -20.3611   -5.9427   24.9999 C   0  0  0  0  0  0  0  0  0  0  0  0
  -28.2594  -18.3507   19.6568 C   0  0  0  0  0  0  0  0  0  0  0  0
  -23.8288  -10.4485   20.9628 C   0  0  0  0  0  0  0  0  0  0  0  0
  -24.1672  -12.9740   20.8422 C   0  0  0  0  0  0  0  0  0  0  0  0
  -36.2526  -26.0353   28.4174 C   0  0  0  0  0  0  0  0  0  0  0  0
  -31.7063  -22.0869   24.2194 C   0  0  0  0  0  0  0  0  0  0  0  0
  -35.0031  -25.5142   28.0304 C   0  0  0  0  0  0  0  0  0  0  0  0
  -31.0454  -22.8344   23.2342 C   0  0  0  0  0  0  0  0  0  0  0  0
  -22.3446   -8.1403   21.4651 C   0  0  0  0  0  0  0  0  0  0  0  0
  -28.9385  -21.8154   23.8920 C   0  0  0  0  0  0  0  0  0  0  0  0
  -20.8712   -6.9719   22.8744 C   0  0  0  0  0  0  0  0  0  0  0  0
  -19.3610   -6.8903   25.2186 C   0  0  0  0  0  0  0  0  0  0  0  0
  -21.1162   -5.9836   23.8278 C   0  0  0  0  0  0  0  0  0  0  0  0
  -24.5959  -11.6403   20.7038 C   0  0  0  0  0  0  0  0  0  0  0  0
  -29.0767  -18.4105   20.8015 C   0  0  0  0  0  0  0  0  0  0  0  0
  -27.0269  -18.7721   20.0925 C   0  0  0  0  0  0  0  0  0  0  0  0
  -25.2578  -13.7249   20.4772 C   0  0  0  0  0  0  0  0  0  0  0  0
  -22.8967  -13.4882   21.2630 C   0  0  0  0  0  0  0  0  0  0  0  0
  -33.4675  -24.6736   24.7764 C   0  0  0  0  0  0  0  0  0  0  0  0
  -34.1096  -24.4423   21.6052 C   0  0  0  0  0  0  0  0  0  0  0  0
  -33.1486  -23.3197   18.5290 C   0  0  0  0  0  0  0  0  0  0  0  0
  -30.7405  -14.7509   20.6570 C   0  0  0  0  0  0  0  0  0  0  0  0
  -36.9530  -27.0990   27.6096 C   0  0  0  0  0  0  0  0  0  0  0  0
  -33.1969  -22.1975   24.3875 C   0  0  0  0  0  0  0  0  0  0  0  0
  -31.7842  -23.7916   22.3362 C   0  0  0  0  0  0  0  0  0  0  0  0
  -36.4308  -27.2211   26.1803 C   0  0  0  0  0  0  0  0  0  0  0  0
  -29.6023  -12.3649   18.2721 C   0  0  0  0  0  0  0  0  0  0  0  0
  -34.9056  -27.2379   26.1689 C   0  0  0  0  0  0  0  0  0  0  0  0
  -28.1659  -12.0694   18.7073 C   0  0  0  0  0  0  0  0  0  0  0  0
  -30.5210  -12.5869   19.4716 C   0  0  0  0  0  0  0  0  0  0  0  0
  -28.6204  -13.3156   20.8611 C   0  0  0  0  0  0  0  0  0  0  0  0
  -34.3353  -25.9335   26.7388 C   0  0  1  0  0  0  0  0  0  0  0  0
  -33.7609  -23.5153   23.8655 C   0  0  1  0  0  0  0  0  0  0  0  0
  -27.6447  -13.1398   19.6849 C   0  0  2  0  0  0  0  0  0  0  0  0
  -25.7488  -18.9321   19.3751 C   0  0  0  0  0  0  0  0  0  0  0  0
  -31.3859  -19.2789   21.2886 C   0  0  0  0  0  0  0  0  0  0  0  0
  -33.3114  -22.8327   16.0727 C   0  0  0  0  0  0  0  0  0  0  0  0
  -33.2123  -27.3464   21.3392 C   0  0  0  0  0  0  0  0  0  0  0  0
  -33.0342  -26.9921   18.8672 C   0  0  0  0  0  0  0  0  0  0  0  0
  -35.2423  -26.7553   20.0035 C   0  0  0  0  0  0  0  0  0  0  0  0
  -34.4431  -20.7032   19.0156 C   0  0  0  0  0  0  0  0  0  0  0  0
  -25.8294  -21.0459   22.2390 C   0  0  0  0  0  0  0  0  0  0  0  0
  -26.1122  -19.5474   22.3657 C   0  0  0  0  0  0  0  0  0  0  0  0
  -30.8055  -16.9016   21.8937 C   0  0  0  0  0  0  0  0  0  0  0  0
  -27.0696  -21.9125   22.4245 C   0  0  0  0  0  0  0  0  0  1  0  0
  -30.5041  -18.0634   20.9041 C   0  0  1  0  0  0  0  0  0  0  0  0
  -33.4761  -24.9786   20.3443 C   0  0  1  0  0  0  0  0  0  0  0  0
  -33.9072  -22.5720   17.4474 C   0  0  2  0  0  0  0  0  0  0  0  0
  -33.7267  -26.5016   20.1566 C   0  0  0  0  0  0  0  0  0  0  0  0
  -25.8602  -11.5461   20.2836 N   0  0  0  0  0  0  0  0  0  0  0  0
  -28.4188  -18.8365   21.8831 N   0  0  0  0  0  0  0  0  0  0  0  0
  -27.1752  -19.0483   21.4199 N   0  0  0  0  0  0  0  0  0  0  0  0
  -26.2353  -12.8301   20.1546 N   0  0  0  0  0  0  0  0  0  0  0  0
  -33.2397  -23.8691   22.5436 N   0  0  0  0  0  0  0  0  0  0  0  0
  -29.9705  -13.6148   20.3583 N   0  0  0  0  0  0  0  0  0  0  0  0
  -25.4664  -15.0566   20.4038 N   0  0  0  0  0  0  0  0  0  0  0  0
  -21.8864  -12.5778   21.6019 N   0  0  0  0  0  0  0  0  0  0  0  0
  -34.4202  -24.8733   25.7573 N   0  0  0  0  0  0  0  0  0  0  0  0
  -33.9772  -24.1515   19.2520 N   0  0  0  0  0  0  0  0  0  0  0  0
  -30.1415  -15.6790   21.4999 N   0  0  0  0  0  0  0  0  0  0  0  0
  -33.8670  -21.1049   17.7065 N   0  3  0  0  0  0  0  0  0  0  0  0
  -22.6589  -14.7186   21.3207 O   0  0  0  0  0  0  0  0  0  0  0  0
  -32.4528  -25.3380   24.6015 O   0  0  0  0  0  0  0  0  0  0  0  0
  -35.3321  -24.5224   21.7491 O   0  0  0  0  0  0  0  0  0  0  0  0
  -31.9409  -23.1826   18.7117 O   0  0  0  0  0  0  0  0  0  0  0  0
  -31.8755  -14.9278   20.2016 O   0  0  0  0  0  0  0  0  0  0  0  0
  -21.6205   -7.0143   21.7106 O   0  0  0  0  0  0  0  0  0  0  0  0
  -27.5928  -21.6894   23.7332 O   0  0  0  0  0  0  0  0  0  1  0  0
  -18.6369   -6.8521   26.3448 F   0  0  0  0  0  0  0  0  0  0  0  0
  -22.0763   -5.0713   23.6237 F   0  0  0  0  0  0  0  0  0  0  0  0
  1  2  1  0  0  0  0
  1  5  2  0  0  0  0
  2  6  2  0  0  0  0
  3  8  2  0  0  0  0
  3 16  1  0  0  0  0
  4  9  1  0  0  0  0
  4 16  2  0  0  0  0
  5 18  1  0  0  0  0
  6 20  1  0  0  0  0
  7 10  2  0  0  0  0
  7 19  1  0  0  0  0
  8 22  1  0  0  0  0
  9 22  2  0  0  0  0
 10 23  1  0  0  0  0
 11 12  2  0  0  0  0
 11 24  1  0  0  0  0
 12 25  1  0  0  0  0
 13 21  1  0  0  0  0
 13 23  2  0  0  0  0
 14 25  2  0  0  0  0
 14 26  1  0  0  0  0
 15 28  1  0  0  0  0
 15 29  2  0  0  0  0
 16 27  1  0  0  0  0
 17 27  1  0  0  0  0
 17 30  2  0  0  0  0
 17 31  1  0  0  0  0
 18 20  2  0  0  0  0
 18 36  1  0  0  0  0
 19 21  2  0  0  0  0
 19 37  1  0  0  0  0
 20 45  1  0  0  0  0
 21 38  1  0  0  0  0
 22 80  1  0  0  0  0
 23 81  1  0  0  0  0
 24 26  2  0  0  0  0
 24 80  1  0  0  0  0
 25 82  1  0  0  0  0
 26 83  1  0  0  0  0
 27 63  2  0  0  0  0
 28 59  1  0  0  0  0
 28 64  2  0  0  0  0
 29 48  1  0  0  0  0
 29 65  1  0  0  0  0
 30 66  1  0  0  0  0
 30 69  1  0  0  0  0
 31 70  1  0  0  0  0
 31 75  2  0  0  0  0
 32 46  1  0  0  0  0
 32 71  1  0  0  0  0
 32 76  2  0  0  0  0
 33 60  1  0  0  0  0
 33 67  1  0  0  0  0
 33 77  2  0  0  0  0
 34 61  1  0  0  0  0
 34 72  1  0  0  0  0
 34 78  2  0  0  0  0
 35 68  1  0  0  0  0
 35 73  1  0  0  0  0
 35 79  2  0  0  0  0
 36 39  1  0  0  0  0
 37 46  1  0  0  0  0
 38 67  1  0  0  0  0
 39 41  1  0  0  0  0
 40 42  1  0  0  0  0
 40 43  1  0  0  0  0
 41 45  1  0  0  0  0
 42 47  1  0  0  0  0
 43 68  1  0  0  0  0
 44 47  1  0  0  0  0
 44 68  1  0  0  0  0
 45 71  1  0  0  0  0
 46 67  1  0  0  0  0
 47 66  1  0  0  0  0
 49 59  1  0  0  0  0
 50 61  1  0  0  0  0
 51 62  1  0  0  0  0
 52 62  1  0  0  0  0
 53 62  1  0  0  0  0
 54 74  1  0  0  0  0
 55 56  1  0  0  0  0
 55 58  1  0  0  0  0
 56 65  1  0  0  0  0
 57 59  1  0  0  0  0
 57 73  1  0  0  0  0
 58 81  1  0  0  0  0
 60 62  1  0  0  0  0
 60 72  1  0  0  0  0
 61 74  1  0  0  0  0
 63 66  1  0  0  0  0
 64 65  1  0  0  0  0
M  CHG  1  74   1
M  ISO  4  35 100  58 101  73 100  81 101
M  END
> <Batch ID>
0080

> <Smiles>
CNC(C)C(=O)NC(C(=O)N1Cc2cc([101O:1][101CH2:1]CCn3nc(C(C)C[100NH:0][100C:0](=O)N4CCCC(n5nc(-c6ccc(Oc7ccc(F)cc7F)cc6)c(C(N)=O)c5N)C4)cc3C)ccc2CC1C(=O)NC1CCCc2ccccc21)C(C)(C)C

> <Shape>
0.198

> <Color>
0.192

> <Negative vol penalty>
0.000

$$$$

  -OEChem-04052318443D

 85 93  0     1  0  0  0  0  0999 V2000
  -22.8891   -8.0764   21.7959 C   0  0  0  0  0  0  0  0  0  0  0  0
  -24.1898   -8.5677   21.8449 C   0  0  0  0  0  0  0  0  0  0  0  0
  -21.5841  -29.4689   19.5903 C   0  0  0  0  0  0  0  0  0  0  0  0
  -22.4241  -27.6048   20.8776 C   0  0  0  0  0  0  0  0  0  0  0  0
  -21.8810   -8.8338   21.2010 C   0  0  0  0  0  0  0  0  0  0  0  0
  -24.4832   -9.8164   21.2980 C   0  0  0  0  0  0  0  0  0  0  0  0
  -28.7851  -15.4625   22.2633 C   0  0  0  0  0  0  0  0  0  0  0  0
  -20.4191  -28.7532   19.3142 C   0  0  0  0  0  0  0  0  0  0  0  0
  -21.2591  -26.8892   20.6014 C   0  0  0  0  0  0  0  0  0  0  0  0
  -29.6891  -16.2600   21.5629 C   0  0  0  0  0  0  0  0  0  0  0  0
  -18.0699  -26.7993   21.7158 C   0  0  0  0  0  0  0  0  0  0  0  0
  -17.4608  -26.1228   22.7726 C   0  0  0  0  0  0  0  0  0  0  0  0
  -27.8515  -17.5146   20.6312 C   0  0  0  0  0  0  0  0  0  0  0  0
  -17.7413  -24.0316   21.5957 C   0  0  0  0  0  0  0  0  0  0  0  0
  -31.3598  -24.3558   20.0693 C   0  0  0  0  0  0  0  0  0  0  0  0
  -22.5866  -28.8947   20.3720 C   0  0  0  0  0  0  0  0  0  0  0  0
  -24.0230  -30.4914   21.7486 C   0  0  0  0  0  0  0  0  0  0  0  0
  -22.1604  -10.0966   20.6552 C   0  0  0  0  0  0  0  0  0  0  0  0
  -27.4046  -15.6785   22.1442 C   0  0  0  0  0  0  0  0  0  0  0  0
  -23.4781  -10.5909   20.6941 C   0  0  0  0  0  0  0  0  0  0  0  0
  -26.9321  -16.7202   21.3331 C   0  0  0  0  0  0  0  0  0  0  0  0
  -20.2566  -27.4634   19.8197 C   0  0  0  0  0  0  0  0  0  0  0  0
  -29.2223  -17.2843   20.7445 C   0  0  0  0  0  0  0  0  0  0  0  0
  -18.5146  -26.0919   20.5988 C   0  0  0  0  0  0  0  0  0  0  0  0
  -17.2966  -24.7390   22.7126 C   0  0  0  0  0  0  0  0  0  0  0  0
  -18.3504  -24.7081   20.5388 C   0  0  0  0  0  0  0  0  0  0  0  0
  -23.7905  -29.6332   20.6571 C   0  0  0  0  0  0  0  0  0  0  0  0
  -30.5664  -25.4450   20.3667 C   0  0  0  0  0  0  0  0  0  0  0  0
  -30.8623  -23.1299   20.4616 C   0  0  0  0  0  0  0  0  0  0  0  0
  -25.3074  -30.9416   21.5639 C   0  0  0  0  0  0  0  0  0  0  0  0
  -29.0016  -24.1060   21.3289 C   0  0  0  0  0  0  0  0  0  0  0  0
  -23.1555  -30.8496   22.8325 C   0  0  0  0  0  0  0  0  0  0  0  0
  -24.9474  -13.9576   21.0935 C   0  0  0  0  0  0  0  0  0  0  0  0
  -23.2172  -16.4654   22.2067 C   0  0  0  0  0  0  0  0  0  0  0  0
  -23.1141  -19.7752   23.0324 C   0  0  0  0  0  0  0  0  0  0  0  0
  -30.0436  -28.6850   18.6782 C   0  0  0  0  0  0  0  0  0  0  0  0
  -21.0471  -10.8582   19.9804 C   0  0  0  0  0  0  0  0  0  0  0  0
  -26.4435  -14.8267   22.9271 C   0  0  0  0  0  0  0  0  0  0  0  0
  -25.4606  -17.0062   21.1869 C   0  0  0  0  0  0  0  0  0  0  0  0
  -21.3665  -12.3342   19.7578 C   0  0  0  0  0  0  0  0  0  0  0  0
  -28.4997  -31.8436   18.1162 C   0  0  0  0  0  0  0  0  0  0  0  0
  -22.7663  -12.4952   19.1734 C   0  0  0  0  0  0  0  0  0  0  0  0
  -27.1387  -31.7127   18.8022 C   0  0  0  0  0  0  0  0  0  0  0  0
  -28.9299  -30.5329   17.4612 C   0  0  0  0  0  0  0  0  0  0  0  0
  -27.5604  -29.2302   19.0426 C   0  0  0  0  0  0  0  0  0  0  0  0
  -23.8310  -11.9517   20.1339 C   0  0  1  0  0  0  0  0  0  0  0  0
  -25.0398  -14.8064   22.3298 C   0  0  1  0  0  0  0  0  0  0  0  0
  -27.1096  -30.5110   19.7656 C   0  0  2  0  0  0  0  0  0  0  0  0
  -26.5879  -23.4673   21.1001 C   0  0  0  0  0  0  0  0  0  0  0  0
  -31.8646  -27.4894   21.0713 C   0  0  0  0  0  0  0  0  0  0  0  0
  -21.5506  -21.5468   23.8775 C   0  0  0  0  0  0  0  0  0  0  0  0
  -21.9233  -16.6359   19.4487 C   0  0  0  0  0  0  0  0  0  0  0  0
  -21.1220  -18.9321   20.0433 C   0  0  0  0  0  0  0  0  0  0  0  0
  -20.3468  -16.9619   21.3625 C   0  0  0  0  0  0  0  0  0  0  0  0
  -24.7564  -20.2344   25.4512 C   0  0  0  0  0  0  0  0  0  0  0  0
  -27.6921  -23.9672   22.0283 C   0  0  0  0  0  0  0  0  0  0  0  0
  -31.9425  -19.6162   20.2208 C   0  0  0  0  0  0  0  0  0  0  0  0
  -31.3856  -18.2678   20.6497 C   0  0  0  0  0  0  0  0  0  1  0  0
  -31.0315  -20.7636   20.6282 C   0  0  0  0  0  0  0  0  0  0  0  0
  -31.0208  -26.8127   19.9816 C   0  0  2  0  0  0  0  0  0  0  0  0
  -22.7283  -17.7695   21.6242 C   0  0  1  0  0  0  0  0  0  0  0  0
  -22.5770  -20.4912   24.2584 C   0  0  2  0  0  0  0  0  0  0  0  0
  -21.5578  -17.5685   20.6207 C   0  0  0  0  0  0  0  0  0  0  0  0
  -24.8428  -29.5421   19.8395 N   0  0  0  0  0  0  0  0  0  0  0  0
  -29.3772  -25.3561   20.9979 N   0  0  0  0  0  0  0  0  0  0  0  0
  -29.6826  -22.9677   21.0959 N   0  0  0  0  0  0  0  0  0  0  0  0
  -25.7489  -30.3490   20.4175 N   0  0  0  0  0  0  0  0  0  0  0  0
  -24.5603  -16.1418   21.9677 N   0  0  0  0  0  0  0  0  0  0  0  0
  -28.8818  -29.4339   18.4285 N   0  0  0  0  0  0  0  0  0  0  0  0
  -26.0909  -31.7826   22.2719 N   0  0  0  0  0  0  0  0  0  0  0  0
  -21.8685  -30.2959   22.8691 N   0  0  0  0  0  0  0  0  0  0  0  0
  -24.0729  -12.8935   21.2057 N   0  0  0  0  0  0  0  0  0  0  0  0
  -22.4020  -18.6265   22.7589 N   0  0  0  0  0  0  0  0  0  0  0  0
  -29.9129  -27.6658   19.6136 N   0  0  0  0  0  0  0  0  0  0  0  0
  -23.6865  -21.1591   24.9958 N   0  3  0  0  0  0  0  0  0  0  0  0
  -23.5053  -31.6500   23.7327 O   0  0  0  0  0  0  0  0  0  0  0  0
  -25.6185  -14.2474   20.1100 O   0  0  0  0  0  0  0  0  0  0  0  0
  -22.4381  -15.7633   22.8561 O   0  0  0  0  0  0  0  0  0  0  0  0
  -24.0674  -20.1950   22.3801 O   0  0  0  0  0  0  0  0  0  0  0  0
  -31.1192  -28.9114   18.1135 O   0  0  0  0  0  0  0  0  0  0  0  0
  -19.1198  -26.7649   19.5507 O   0  0  0  0  0  0  0  0  0  0  0  0
  -30.1026  -18.0637   20.0593 O   0  0  0  0  0  0  0  0  0  1  0  0
  -31.5913  -21.9985   20.2024 O   0  0  0  0  0  0  0  0  0  0  0  0
  -16.7131  -24.0893   23.7283 F   0  0  0  0  0  0  0  0  0  0  0  0
  -18.7767  -24.0230   19.4689 F   0  0  0  0  0  0  0  0  0  0  0  0
  1  2  1  0  0  0  0
  1  5  2  0  0  0  0
  2  6  2  0  0  0  0
  3  8  2  0  0  0  0
  3 16  1  0  0  0  0
  4  9  1  0  0  0  0
  4 16  2  0  0  0  0
  5 18  1  0  0  0  0
  6 20  1  0  0  0  0
  7 10  2  0  0  0  0
  7 19  1  0  0  0  0
  8 22  1  0  0  0  0
  9 22  2  0  0  0  0
 10 23  1  0  0  0  0
 11 12  2  0  0  0  0
 11 24  1  0  0  0  0
 12 25  1  0  0  0  0
 13 21  1  0  0  0  0
 13 23  2  0  0  0  0
 14 25  2  0  0  0  0
 14 26  1  0  0  0  0
 15 28  2  0  0  0  0
 15 29  1  0  0  0  0
 16 27  1  0  0  0  0
 17 27  1  0  0  0  0
 17 30  2  0  0  0  0
 17 32  1  0  0  0  0
 18 20  2  0  0  0  0
 18 37  1  0  0  0  0
 19 21  2  0  0  0  0
 19 38  1  0  0  0  0
 20 46  1  0  0  0  0
 21 39  1  0  0  0  0
 22 81  1  0  0  0  0
 23 82  1  0  0  0  0
 24 26  2  0  0  0  0
 24 81  1  0  0  0  0
 25 84  1  0  0  0  0
 26 85  1  0  0  0  0
 27 64  2  0  0  0  0
 28 60  1  0  0  0  0
 28 65  1  0  0  0  0
 29 66  2  0  0  0  0
 29 83  1  0  0  0  0
 30 67  1  0  0  0  0
 30 70  1  0  0  0  0
 31 56  1  0  0  0  0
 31 65  2  0  0  0  0
 31 66  1  0  0  0  0
 32 71  1  0  0  0  0
 32 76  2  0  0  0  0
 33 47  1  0  0  0  0
 33 72  1  0  0  0  0
 33 77  2  0  0  0  0
 34 61  1  0  0  0  0
 34 68  1  0  0  0  0
 34 78  2  0  0  0  0
 35 62  1  0  0  0  0
 35 73  1  0  0  0  0
 35 79  2  0  0  0  0
 36 69  1  0  0  0  0
 36 74  1  0  0  0  0
 36 80  2  0  0  0  0
 37 40  1  0  0  0  0
 38 47  1  0  0  0  0
 39 68  1  0  0  0  0
 40 42  1  0  0  0  0
 41 43  1  0  0  0  0
 41 44  1  0  0  0  0
 42 46  1  0  0  0  0
 43 48  1  0  0  0  0
 44 69  1  0  0  0  0
 45 48  1  0  0  0  0
 45 69  1  0  0  0  0
 46 72  1  0  0  0  0
 47 68  1  0  0  0  0
 48 67  1  0  0  0  0
 49 56  1  0  0  0  0
 50 60  1  0  0  0  0
 51 62  1  0  0  0  0
 52 63  1  0  0  0  0
 53 63  1  0  0  0  0
 54 63  1  0  0  0  0
 55 75  1  0  0  0  0
 57 58  1  0  0  0  0
 57 59  1  0  0  0  0
 58 82  1  0  0  0  0
 59 83  1  0  0  0  0
 60 74  1  0  0  0  0
 61 63  1  0  0  0  0
 61 73  1  0  0  0  0
 62 75  1  0  0  0  0
 64 67  1  0  0  0  0
M  CHG  1  75   1
M  ISO  4  36 100  58 101  74 100  82 101
M  END
> <Batch ID>
0080

> <Smiles>
CCc1nc(OCC[101CH2:1][101O:1]c2ccc3c(c2)CN(C(=O)C(NC(=O)C(C)NC)C(C)(C)C)C(C(=O)NC2CCCc4ccccc42)C3)cc(C(C)[100NH:0][100C:0](=O)N2CCCC(n3nc(-c4ccc(Oc5ccc(F)cc5F)cc4)c(C(N)=O)c3N)C2)n1

> <Shape>
0.225

> <Color>
0.079

> <Negative vol penalty>
0.000

$$$$

  -OEChem-04052318443D

 84 92  0     1  0  0  0  0  0999 V2000
  -35.5667  -28.3447   13.5481 C   0  0  0  0  0  0  0  0  0  0  0  0
  -35.0822  -27.0412   13.5090 C   0  0  0  0  0  0  0  0  0  0  0  0
  -23.1714   -9.8064   19.9861 C   0  0  0  0  0  0  0  0  0  0  0  0
  -23.8114   -9.9953   22.3081 C   0  0  0  0  0  0  0  0  0  0  0  0
  -34.9917  -29.2753   14.4125 C   0  0  0  0  0  0  0  0  0  0  0  0
  -34.0229  -26.6672   14.3351 C   0  0  0  0  0  0  0  0  0  0  0  0
  -29.5699  -22.6705   13.0301 C   0  0  0  0  0  0  0  0  0  0  0  0
  -22.4701   -8.6357   20.2746 C   0  0  0  0  0  0  0  0  0  0  0  0
  -23.1101   -8.8246   22.5966 C   0  0  0  0  0  0  0  0  0  0  0  0
  -29.3921  -21.3259   13.3530 C   0  0  0  0  0  0  0  0  0  0  0  0
  -23.5835   -5.4927   22.2720 C   0  0  0  0  0  0  0  0  0  0  0  0
  -24.2083   -4.5465   23.0842 C   0  0  0  0  0  0  0  0  0  0  0  0
  -28.0192  -21.9648   15.2309 C   0  0  0  0  0  0  0  0  0  0  0  0
  -22.4153   -4.7422   24.6917 C   0  0  0  0  0  0  0  0  0  0  0  0
  -23.8420  -10.4862   21.0028 C   0  0  0  0  0  0  0  0  0  0  0  0
  -24.0717  -13.0127   20.7349 C   0  0  0  0  0  0  0  0  0  0  0  0
  -33.9184  -28.9151   15.2426 C   0  0  0  0  0  0  0  0  0  0  0  0
  -28.9817  -23.6743   13.8129 C   0  0  0  0  0  0  0  0  0  0  0  0
  -33.4338  -27.5935   15.2124 C   0  0  0  0  0  0  0  0  0  0  0  0
  -28.1890  -23.3212   14.9143 C   0  0  0  0  0  0  0  0  0  0  0  0
  -22.4394   -8.1448   21.5799 C   0  0  0  0  0  0  0  0  0  0  0  0
  -28.6190  -20.9730   14.4553 C   0  0  0  0  0  0  0  0  0  0  0  0
  -22.3746   -6.0638   22.6696 C   0  0  0  0  0  0  0  0  0  0  0  0
  -23.6243   -4.1712   24.2940 C   0  0  0  0  0  0  0  0  0  0  0  0
  -21.7905   -5.6885   23.8794 C   0  0  0  0  0  0  0  0  0  0  0  0
  -24.5671  -11.6953   20.7054 C   0  0  0  0  0  0  0  0  0  0  0  0
  -25.1450  -13.7912   20.3766 C   0  0  0  0  0  0  0  0  0  0  0  0
  -28.7000  -19.3827   19.6298 C   0  0  0  0  0  0  0  0  0  0  0  0
  -30.6389  -18.5375   19.1445 C   0  0  0  0  0  0  0  0  0  0  0  0
  -22.7588  -13.4900   21.0575 C   0  0  0  0  0  0  0  0  0  0  0  0
  -30.0837  -26.0779   15.5770 C   0  0  0  0  0  0  0  0  0  0  0  0
  -26.9355  -26.8137   15.8414 C   0  0  0  0  0  0  0  0  0  0  0  0
  -23.6935  -25.7534   15.7345 C   0  0  0  0  0  0  0  0  0  0  0  0
  -30.4294  -15.1249   20.8700 C   0  0  0  0  0  0  0  0  0  0  0  0
  -33.3603  -29.9432   16.1946 C   0  0  0  0  0  0  0  0  0  0  0  0
  -29.1612  -25.1192   13.4355 C   0  0  0  0  0  0  0  0  0  0  0  0
  -27.5192  -24.3601   15.7748 C   0  0  0  0  0  0  0  0  0  0  0  0
  -31.9961  -29.5664   16.7666 C   0  0  0  0  0  0  0  0  0  0  0  0
  -29.6602  -12.5101   18.4891 C   0  0  0  0  0  0  0  0  0  0  0  0
  -31.9976  -28.1162   17.2397 C   0  0  0  0  0  0  0  0  0  0  0  0
  -28.2150  -12.1747   18.8620 C   0  0  0  0  0  0  0  0  0  0  0  0
  -30.4920  -12.8257   19.7287 C   0  0  0  0  0  0  0  0  0  0  0  0
  -28.4928  -13.5806   20.9563 C   0  0  0  0  0  0  0  0  0  0  0  0
  -32.2699  -27.1563   16.0752 C   0  0  1  0  0  0  0  0  0  0  0  0
  -28.9385  -26.0741   14.6042 C   0  0  1  0  0  0  0  0  0  0  0  0
  -27.5944  -13.2741   19.7442 C   0  0  2  0  0  0  0  0  0  0  0  0
  -26.5335  -19.0039   20.8336 C   0  0  0  0  0  0  0  0  0  0  0  0
  -21.3411  -26.5760   16.0291 C   0  0  0  0  0  0  0  0  0  0  0  0
  -27.3202  -26.8222   18.8683 C   0  0  0  0  0  0  0  0  0  0  0  0
  -24.8318  -26.6973   19.1148 C   0  0  0  0  0  0  0  0  0  0  0  0
  -25.8752  -28.6672   17.9952 C   0  0  0  0  0  0  0  0  0  0  0  0
  -22.9791  -25.0616   12.9470 C   0  0  0  0  0  0  0  0  0  0  0  0
  -27.2447  -19.6143   19.6200 C   0  0  0  0  0  0  0  0  0  0  0  0
  -31.6642  -17.6881   18.5128 C   0  0  0  0  0  0  0  0  0  0  0  0
  -32.8530  -17.3043   19.4286 C   0  0  0  0  0  0  0  0  0  0  0  0
  -28.7910  -17.9449   16.4132 C   0  0  0  0  0  0  0  0  0  0  0  0
  -28.6562  -17.5061   17.8730 C   0  0  0  0  0  0  0  0  0  0  0  0
  -32.4452  -16.5618   20.6993 C   0  0  0  0  0  0  0  0  0  0  0  0
  -28.2533  -19.3470   16.1519 C   0  0  0  0  0  0  0  0  0  1  0  0
  -25.8272  -26.4417   16.7965 C   0  0  1  0  0  0  0  0  0  0  0  0
  -22.4694  -26.3239   15.0412 C   0  0  2  0  0  0  0  0  0  0  0  0
  -25.9777  -27.1373   18.1788 C   0  0  0  0  0  0  0  0  0  0  0  0
  -25.8548  -11.6364   20.3557 N   0  0  0  0  0  0  0  0  0  0  0  0
  -29.5973  -20.0108   20.3556 N   0  0  0  0  0  0  0  0  0  0  0  0
  -30.8308  -19.4730   20.0469 N   0  0  0  0  0  0  0  0  0  0  0  0
  -26.1777  -12.9265   20.1622 N   0  0  0  0  0  0  0  0  0  0  0  0
  -29.3118  -18.4466   18.8525 N   0  0  0  0  0  0  0  0  0  0  0  0
  -27.7299  -25.7595   15.3688 N   0  0  0  0  0  0  0  0  0  0  0  0
  -29.8563  -13.8925   20.5148 N   0  0  0  0  0  0  0  0  0  0  0  0
  -25.2967  -15.1243   20.2271 N   0  0  0  0  0  0  0  0  0  0  0  0
  -21.7743  -12.5546   21.4042 N   0  0  0  0  0  0  0  0  0  0  0  0
  -31.0788  -26.9866   15.2710 N   0  0  0  0  0  0  0  0  0  0  0  0
  -24.5768  -26.7439   16.1084 N   0  0  0  0  0  0  0  0  0  0  0  0
  -31.7259  -15.3391   20.4185 N   0  0  0  0  0  0  0  0  0  0  0  0
  -21.9782  -25.3801   13.9976 N   0  3  0  0  0  0  0  0  0  0  0  0
  -22.4629  -14.7085   21.0229 O   0  0  0  0  0  0  0  0  0  0  0  0
  -30.0652  -25.3141   16.5350 O   0  0  0  0  0  0  0  0  0  0  0  0
  -27.0863  -27.9953   15.5207 O   0  0  0  0  0  0  0  0  0  0  0  0
  -23.8486  -24.5497   15.9285 O   0  0  0  0  0  0  0  0  0  0  0  0
  -29.8280  -15.9743   21.5362 O   0  0  0  0  0  0  0  0  0  0  0  0
  -21.7550   -7.0026   21.8618 O   0  0  0  0  0  0  0  0  0  0  0  0
  -28.4443  -19.6613   14.7731 O   0  0  0  0  0  0  0  0  0  1  0  0
  -24.2237   -3.2613   25.0731 F   0  0  0  0  0  0  0  0  0  0  0  0
  -20.6286   -6.2328   24.2662 F   0  0  0  0  0  0  0  0  0  0  0  0
  1  2  1  0  0  0  0
  1  5  2  0  0  0  0
  2  6  2  0  0  0  0
  3  8  2  0  0  0  0
  3 15  1  0  0  0  0
  4  9  1  0  0  0  0
  4 15  2  0  0  0  0
  5 17  1  0  0  0  0
  6 19  1  0  0  0  0
  7 10  2  0  0  0  0
  7 18  1  0  0  0  0
  8 21  1  0  0  0  0
  9 21  2  0  0  0  0
 10 22  1  0  0  0  0
 11 12  2  0  0  0  0
 11 23  1  0  0  0  0
 12 24  1  0  0  0  0
 13 20  1  0  0  0  0
 13 22  2  0  0  0  0
 14 24  2  0  0  0  0
 14 25  1  0  0  0  0
 15 26  1  0  0  0  0
 16 26  1  0  0  0  0
 16 27  2  0  0  0  0
 16 30  1  0  0  0  0
 17 19  2  0  0  0  0
 17 35  1  0  0  0  0
 18 20  2  0  0  0  0
 18 36  1  0  0  0  0
 19 44  1  0  0  0  0
 20 37  1  0  0  0  0
 21 81  1  0  0  0  0
 22 82  1  0  0  0  0
 23 25  2  0  0  0  0
 23 81  1  0  0  0  0
 24 83  1  0  0  0  0
 25 84  1  0  0  0  0
 26 63  2  0  0  0  0
 27 66  1  0  0  0  0
 27 70  1  0  0  0  0
 28 53  1  0  0  0  0
 28 64  2  0  0  0  0
 28 67  1  0  0  0  0
 29 54  1  0  0  0  0
 29 65  2  0  0  0  0
 29 67  1  0  0  0  0
 30 71  1  0  0  0  0
 30 76  2  0  0  0  0
 31 45  1  0  0  0  0
 31 72  1  0  0  0  0
 31 77  2  0  0  0  0
 32 60  1  0  0  0  0
 32 68  1  0  0  0  0
 32 78  2  0  0  0  0
 33 61  1  0  0  0  0
 33 73  1  0  0  0  0
 33 79  2  0  0  0  0
 34 69  1  0  0  0  0
 34 74  1  0  0  0  0
 34 80  2  0  0  0  0
 35 38  1  0  0  0  0
 36 45  1  0  0  0  0
 37 68  1  0  0  0  0
 38 40  1  0  0  0  0
 39 41  1  0  0  0  0
 39 42  1  0  0  0  0
 40 44  1  0  0  0  0
 41 46  1  0  0  0  0
 42 69  1  0  0  0  0
 43 46  1  0  0  0  0
 43 69  1  0  0  0  0
 44 72  1  0  0  0  0
 45 68  1  0  0  0  0
 46 66  1  0  0  0  0
 47 53  1  0  0  0  0
 48 61  1  0  0  0  0
 49 62  1  0  0  0  0
 50 62  1  0  0  0  0
 51 62  1  0  0  0  0
 52 75  1  0  0  0  0
 54 55  1  0  0  0  0
 55 58  1  0  0  0  0
 56 57  1  0  0  0  0
 56 59  1  0  0  0  0
 57 67  1  0  0  0  0
 58 74  1  0  0  0  0
 59 82  1  0  0  0  0
 60 62  1  0  0  0  0
 60 73  1  0  0  0  0
 61 75  1  0  0  0  0
 63 66  1  0  0  0  0
 64 65  1  0  0  0  0
M  CHG  1  75   1
M  ISO  4  34 100  59 101  74 100  82 101
M  END
> <Batch ID>
0080

> <Smiles>
CCc1nnc(CCC[100NH:0][100C:0](=O)N2CCCC(n3nc(-c4ccc(Oc5ccc(F)cc5F)cc4)c(C(N)=O)c3N)C2)n1CC[101CH2:1][101O:1]c1ccc2c(c1)CN(C(=O)C(NC(=O)C(C)NC)C(C)(C)C)C(C(=O)NC1CCCc3ccccc31)C2

> <Shape>
0.212

> <Color>
0.183

> <Negative vol penalty>
0.000

$$$$

  -OEChem-04052318443D

 82 90  0     1  0  0  0  0  0999 V2000
  -19.5067  -34.0969   22.6537 C   0  0  0  0  0  0  0  0  0  0  0  0
  -20.8190  -33.8288   22.2779 C   0  0  0  0  0  0  0  0  0  0  0  0
  -25.3163  -13.1943   22.2757 C   0  0  0  0  0  0  0  0  0  0  0  0
  -25.3152  -14.0924   20.0328 C   0  0  0  0  0  0  0  0  0  0  0  0
  -18.7816  -33.1489   23.3744 C   0  0  0  0  0  0  0  0  0  0  0  0
  -21.4075  -32.6128   22.6236 C   0  0  0  0  0  0  0  0  0  0  0  0
  -25.4650  -29.4188   19.3310 C   0  0  0  0  0  0  0  0  0  0  0  0
  -24.3699  -12.2430   21.8953 C   0  0  0  0  0  0  0  0  0  0  0  0
  -24.3687  -13.1410   19.6523 C   0  0  0  0  0  0  0  0  0  0  0  0
  -26.8544  -29.3211   19.3933 C   0  0  0  0  0  0  0  0  0  0  0  0
  -24.3265   -9.2985   20.2337 C   0  0  0  0  0  0  0  0  0  0  0  0
  -24.5297   -7.9813   20.6453 C   0  0  0  0  0  0  0  0  0  0  0  0
  -26.6479  -27.3275   20.7358 C   0  0  0  0  0  0  0  0  0  0  0  0
  -22.4266   -8.0283   21.8336 C   0  0  0  0  0  0  0  0  0  0  0  0
  -31.9856  -21.0673   19.4822 C   0  0  0  0  0  0  0  0  0  0  0  0
  -31.9239  -22.5002   17.9094 C   0  0  0  0  0  0  0  0  0  0  0  0
  -25.7890  -14.1191   21.3444 C   0  0  0  0  0  0  0  0  0  0  0  0
  -28.1674  -14.9762   21.6855 C   0  0  0  0  0  0  0  0  0  0  0  0
  -19.3583  -31.9167   23.7207 C   0  0  0  0  0  0  0  0  0  0  0  0
  -24.6553  -28.4762   19.9809 C   0  0  0  0  0  0  0  0  0  0  0  0
  -20.6899  -31.6479   23.3507 C   0  0  0  0  0  0  0  0  0  0  0  0
  -25.2485  -27.4141   20.6781 C   0  0  0  0  0  0  0  0  0  0  0  0
  -23.8961  -12.2163   20.5836 C   0  0  0  0  0  0  0  0  0  0  0  0
  -27.4460  -28.2770   20.0982 C   0  0  0  0  0  0  0  0  0  0  0  0
  -23.1734   -9.9806   20.6221 C   0  0  0  0  0  0  0  0  0  0  0  0
  -23.5797   -7.3462   21.4452 C   0  0  0  0  0  0  0  0  0  0  0  0
  -22.2234   -9.3454   21.4220 C   0  0  0  0  0  0  0  0  0  0  0  0
  -26.7662  -15.1025   21.7369 C   0  0  0  0  0  0  0  0  0  0  0  0
  -31.2670  -22.1286   19.9799 C   0  0  0  0  0  0  0  0  0  0  0  0
  -28.6380  -16.1745   22.1641 C   0  0  0  0  0  0  0  0  0  0  0  0
  -28.9716  -13.8742   21.2443 C   0  0  0  0  0  0  0  0  0  0  0  0
  -22.5021  -28.5986   22.3159 C   0  0  0  0  0  0  0  0  0  0  0  0
  -22.0690  -25.4760   21.5518 C   0  0  0  0  0  0  0  0  0  0  0  0
  -23.3465  -22.6257   20.1769 C   0  0  0  0  0  0  0  0  0  0  0  0
  -28.4639  -21.7497   22.3428 C   0  0  0  0  0  0  0  0  0  0  0  0
  -18.5508  -30.9423   24.5411 C   0  0  0  0  0  0  0  0  0  0  0  0
  -23.1581  -28.5806   19.8817 C   0  0  0  0  0  0  0  0  0  0  0  0
  -24.4238  -26.3648   21.3761 C   0  0  0  0  0  0  0  0  0  0  0  0
  -19.1233  -29.5273   24.5438 C   0  0  0  0  0  0  0  0  0  0  0  0
  -26.2237  -19.9762   24.4672 C   0  0  0  0  0  0  0  0  0  0  0  0
  -20.6276  -29.5605   24.7945 C   0  0  0  0  0  0  0  0  0  0  0  0
  -26.2761  -18.5419   23.9381 C   0  0  0  0  0  0  0  0  0  0  0  0
  -26.3229  -20.9986   23.3372 C   0  0  0  0  0  0  0  0  0  0  0  0
  -27.5383  -19.3920   21.9175 C   0  0  0  0  0  0  0  0  0  0  0  0
  -21.3548  -30.3304   23.6855 C   0  0  1  0  0  0  0  0  0  0  0  0
  -22.4325  -27.8562   21.0115 C   0  0  1  0  0  0  0  0  0  0  0  0
  -27.4979  -18.3253   23.0252 C   0  0  2  0  0  0  0  0  0  0  0  0
  -31.6213  -22.3230   22.4696 C   0  0  0  0  0  0  0  0  0  0  0  0
  -22.7710  -20.2241   19.7314 C   0  0  0  0  0  0  0  0  0  0  0  0
  -22.5372  -24.8204   24.4948 C   0  0  0  0  0  0  0  0  0  0  0  0
  -22.8955  -22.4323   23.8338 C   0  0  0  0  0  0  0  0  0  0  0  0
  -20.6907  -23.5224   23.4177 C   0  0  0  0  0  0  0  0  0  0  0  0
  -23.6159  -22.9830   17.2514 C   0  0  0  0  0  0  0  0  0  0  0  0
  -31.3761  -25.4704   19.7101 C   0  0  0  0  0  0  0  0  0  0  0  0
  -30.7323  -26.8556   19.6318 C   0  0  0  0  0  0  0  0  0  0  0  0
  -30.5710  -24.3921   18.9760 C   0  0  0  0  0  0  0  0  0  0  0  0
  -29.3542  -26.8691   20.2793 C   0  0  0  0  0  0  0  0  0  1  0  0
  -30.6287  -22.3507   21.2887 C   0  0  2  0  0  0  0  0  0  0  0  0
  -22.6811  -24.1709   22.0001 C   0  0  1  0  0  0  0  0  0  0  0  0
  -22.7654  -21.6408   19.1785 C   0  0  2  0  0  0  0  0  0  0  0  0
  -22.2169  -23.7572   23.4252 C   0  0  0  0  0  0  0  0  0  0  0  0
  -32.3919  -21.3050   18.1930 N   0  0  0  0  0  0  0  0  0  0  0  0
  -26.3724  -16.2874   22.2111 N   0  0  0  0  0  0  0  0  0  0  0  0
  -31.2363  -23.0388   18.9612 N   0  0  0  0  0  0  0  0  0  0  0  0
  -27.5331  -16.9166   22.4619 N   0  0  0  0  0  0  0  0  0  0  0  0
  -22.9640  -26.5138   21.2554 N   0  0  0  0  0  0  0  0  0  0  0  0
  -27.5035  -20.7383   22.5098 N   0  0  0  0  0  0  0  0  0  0  0  0
  -29.8849  -16.6551   22.3552 N   0  0  0  0  0  0  0  0  0  0  0  0
  -28.3264  -12.7188   20.7828 N   0  0  0  0  0  0  0  0  0  0  0  0
  -21.4802  -29.5104   22.4996 N   0  0  0  0  0  0  0  0  0  0  0  0
  -22.3666  -23.1948   20.9624 N   0  0  0  0  0  0  0  0  0  0  0  0
  -29.5547  -21.4181   21.5486 N   0  0  0  0  0  0  0  0  0  0  0  0
  -23.5567  -21.6556   17.9157 N   0  3  0  0  0  0  0  0  0  0  0  0
  -30.2252  -13.9069   21.2743 O   0  0  0  0  0  0  0  0  0  0  0  0
  -23.4146  -28.3607   23.0986 O   0  0  0  0  0  0  0  0  0  0  0  0
  -20.8424  -25.5690   21.4609 O   0  0  0  0  0  0  0  0  0  0  0  0
  -24.5498  -22.8633   20.2549 O   0  0  0  0  0  0  0  0  0  0  0  0
  -28.3597  -22.8637   22.8674 O   0  0  0  0  0  0  0  0  0  0  0  0
  -22.9727  -11.2879   20.2120 O   0  0  0  0  0  0  0  0  0  0  0  0
  -28.8019  -28.1796   20.1612 O   0  0  0  0  0  0  0  0  0  1  0  0
  -23.7742   -6.0808   21.8391 F   0  0  0  0  0  0  0  0  0  0  0  0
  -21.1131   -9.9952   21.7973 F   0  0  0  0  0  0  0  0  0  0  0  0
  1  2  1  0  0  0  0
  1  5  2  0  0  0  0
  2  6  2  0  0  0  0
  3  8  2  0  0  0  0
  3 17  1  0  0  0  0
  4  9  1  0  0  0  0
  4 17  2  0  0  0  0
  5 19  1  0  0  0  0
  6 21  1  0  0  0  0
  7 10  2  0  0  0  0
  7 20  1  0  0  0  0
  8 23  1  0  0  0  0
  9 23  2  0  0  0  0
 10 24  1  0  0  0  0
 11 12  2  0  0  0  0
 11 25  1  0  0  0  0
 12 26  1  0  0  0  0
 13 22  1  0  0  0  0
 13 24  2  0  0  0  0
 14 26  2  0  0  0  0
 14 27  1  0  0  0  0
 15 29  2  0  0  0  0
 15 62  1  0  0  0  0
 16 62  2  0  0  0  0
 16 64  1  0  0  0  0
 17 28  1  0  0  0  0
 18 28  1  0  0  0  0
 18 30  2  0  0  0  0
 18 31  1  0  0  0  0
 19 21  2  0  0  0  0
 19 36  1  0  0  0  0
 20 22  2  0  0  0  0
 20 37  1  0  0  0  0
 21 45  1  0  0  0  0
 22 38  1  0  0  0  0
 23 79  1  0  0  0  0
 24 80  1  0  0  0  0
 25 27  2  0  0  0  0
 25 79  1  0  0  0  0
 26 81  1  0  0  0  0
 27 82  1  0  0  0  0
 28 63  2  0  0  0  0
 29 58  1  0  0  0  0
 29 64  1  0  0  0  0
 30 65  1  0  0  0  0
 30 68  1  0  0  0  0
 31 69  1  0  0  0  0
 31 74  2  0  0  0  0
 32 46  1  0  0  0  0
 32 70  1  0  0  0  0
 32 75  2  0  0  0  0
 33 59  1  0  0  0  0
 33 66  1  0  0  0  0
 33 76  2  0  0  0  0
 34 60  1  0  0  0  0
 34 71  1  0  0  0  0
 34 77  2  0  0  0  0
 35 67  1  0  0  0  0
 35 72  1  0  0  0  0
 35 78  2  0  0  0  0
 36 39  1  0  0  0  0
 37 46  1  0  0  0  0
 38 66  1  0  0  0  0
 39 41  1  0  0  0  0
 40 42  1  0  0  0  0
 40 43  1  0  0  0  0
 41 45  1  0  0  0  0
 42 47  1  0  0  0  0
 43 67  1  0  0  0  0
 44 47  1  0  0  0  0
 44 67  1  0  0  0  0
 45 70  1  0  0  0  0
 46 66  1  0  0  0  0
 47 65  1  0  0  0  0
 48 58  1  0  0  0  0
 49 60  1  0  0  0  0
 50 61  1  0  0  0  0
 51 61  1  0  0  0  0
 52 61  1  0  0  0  0
 53 73  1  0  0  0  0
 54 55  1  0  0  0  0
 54 56  1  0  0  0  0
 55 57  1  0  0  0  0
 56 64  1  0  0  0  0
 57 80  1  0  0  0  0
 58 72  1  0  0  0  0
 59 61  1  0  0  0  0
 59 71  1  0  0  0  0
 60 73  1  0  0  0  0
 63 65  1  0  0  0  0
M  CHG  1  73   1
M  ISO  4  35 100  57 101  72 100  80 101
M  END
> <Batch ID>
0080

> <Smiles>
CNC(C)C(=O)NC(C(=O)N1Cc2cc([101O:1][101CH2:1]CCCn3cncc3C(C)[100NH:0][100C:0](=O)N3CCCC(n4nc(-c5ccc(Oc6ccc(F)cc6F)cc5)c(C(N)=O)c4N)C3)ccc2CC1C(=O)NC1CCCc2ccccc21)C(C)(C)C

> <Shape>
0.217

> <Color>
0.079

> <Negative vol penalty>
0.000

$$$$

  -OEChem-04052318443D

 84 92  0     1  0  0  0  0  0999 V2000
  -22.9438  -26.9741   17.4801 C   0  0  0  0  0  0  0  0  0  0  0  0
  -23.3010  -25.9472   18.3481 C   0  0  0  0  0  0  0  0  0  0  0  0
  -23.2862   -9.8012   19.9118 C   0  0  0  0  0  0  0  0  0  0  0  0
  -23.7348   -9.9414   22.2816 C   0  0  0  0  0  0  0  0  0  0  0  0
  -21.8425  -26.8224   16.6385 C   0  0  0  0  0  0  0  0  0  0  0  0
  -22.5565  -24.7685   18.3758 C   0  0  0  0  0  0  0  0  0  0  0  0
  -25.4734  -20.6296   18.4490 C   0  0  0  0  0  0  0  0  0  0  0  0
  -22.5584   -8.6295   20.1188 C   0  0  0  0  0  0  0  0  0  0  0  0
  -23.0070   -8.7696   22.4887 C   0  0  0  0  0  0  0  0  0  0  0  0
  -26.0553  -20.2822   19.6674 C   0  0  0  0  0  0  0  0  0  0  0  0
  -20.2792   -5.7979   20.0691 C   0  0  0  0  0  0  0  0  0  0  0  0
  -19.0523   -5.6728   19.4174 C   0  0  0  0  0  0  0  0  0  0  0  0
  -24.3356  -18.6254   20.0095 C   0  0  0  0  0  0  0  0  0  0  0  0
  -18.2465   -7.6458   20.5553 C   0  0  0  0  0  0  0  0  0  0  0  0
  -29.3193  -15.6835   23.9729 C   0  0  0  0  0  0  0  0  0  0  0  0
  -23.8744  -10.4572   20.9932 C   0  0  0  0  0  0  0  0  0  0  0  0
  -24.1365  -12.9870   20.7949 C   0  0  0  0  0  0  0  0  0  0  0  0
  -21.0899  -25.6375   16.6491 C   0  0  0  0  0  0  0  0  0  0  0  0
  -24.3101  -19.9839   18.0061 C   0  0  0  0  0  0  0  0  0  0  0  0
  -21.4434  -24.6014   17.5346 C   0  0  0  0  0  0  0  0  0  0  0  0
  -23.7423  -18.9647   18.7839 C   0  0  0  0  0  0  0  0  0  0  0  0
  -22.4188   -8.1136   21.4072 C   0  0  0  0  0  0  0  0  0  0  0  0
  -25.4848  -19.2820   20.4492 C   0  0  0  0  0  0  0  0  0  0  0  0
  -20.4897   -6.8470   20.9640 C   0  0  0  0  0  0  0  0  0  0  0  0
  -18.0360   -6.5967   19.6605 C   0  0  0  0  0  0  0  0  0  0  0  0
  -19.4734   -7.7709   21.2071 C   0  0  0  0  0  0  0  0  0  0  0  0
  -24.6268  -11.6674   20.7799 C   0  0  0  0  0  0  0  0  0  0  0  0
  -30.3729  -15.1254   24.6401 C   0  0  0  0  0  0  0  0  0  0  0  0
  -25.2390  -13.7657   20.5410 C   0  0  0  0  0  0  0  0  0  0  0  0
  -28.8021  -15.6063   26.1239 C   0  0  0  0  0  0  0  0  0  0  0  0
  -22.8037  -13.4659   21.0184 C   0  0  0  0  0  0  0  0  0  0  0  0
  -21.3436  -20.9128   17.3419 C   0  0  0  0  0  0  0  0  0  0  0  0
  -21.0239  -17.8451   16.3375 C   0  0  0  0  0  0  0  0  0  0  0  0
  -22.0980  -14.6107   16.5174 C   0  0  0  0  0  0  0  0  0  0  0  0
  -31.1084  -12.9169   21.3663 C   0  0  0  0  0  0  0  0  0  0  0  0
  -19.8795  -25.5383   15.7548 C   0  0  0  0  0  0  0  0  0  0  0  0
  -23.7099  -20.3518   16.6769 C   0  0  0  0  0  0  0  0  0  0  0  0
  -22.5052  -18.2270   18.3438 C   0  0  0  0  0  0  0  0  0  0  0  0
  -19.3677  -24.1110   15.5786 C   0  0  0  0  0  0  0  0  0  0  0  0
  -29.4632  -13.6580   18.2970 C   0  0  0  0  0  0  0  0  0  0  0  0
  -19.2902  -23.4014   16.9267 C   0  0  0  0  0  0  0  0  0  0  0  0
  -27.9929  -13.3509   18.5866 C   0  0  0  0  0  0  0  0  0  0  0  0
  -30.3948  -12.6776   19.0062 C   0  0  0  0  0  0  0  0  0  0  0  0
  -28.7060  -12.2499   20.7495 C   0  0  0  0  0  0  0  0  0  0  0  0
  -20.6755  -23.2981   17.5762 C   0  0  1  0  0  0  0  0  0  0  0  0
  -22.2335  -19.9838   16.5655 C   0  0  1  0  0  0  0  0  0  0  0  0
  -27.7297  -13.2461   20.1009 C   0  0  2  0  0  0  0  0  0  0  0  0
  -28.0808  -15.7407   27.4141 C   0  0  0  0  0  0  0  0  0  0  0  0
  -21.6170  -12.3218   15.6081 C   0  0  0  0  0  0  0  0  0  0  0  0
  -25.8816  -20.3023   24.2195 C   0  0  0  0  0  0  0  0  0  0  0  0
  -18.5957  -17.6291   18.1725 C   0  0  0  0  0  0  0  0  0  0  0  0
  -18.7428  -15.1389   17.9586 C   0  0  0  0  0  0  0  0  0  0  0  0
  -18.3157  -16.5394   15.9390 C   0  0  0  0  0  0  0  0  0  0  0  0
  -24.7883  -14.4015   15.3018 C   0  0  0  0  0  0  0  0  0  0  0  0
  -31.6646  -14.6244   24.1635 C   0  0  0  0  0  0  0  0  0  0  0  0
  -27.0878  -18.1077   24.3458 C   0  0  0  0  0  0  0  0  0  0  0  0
  -27.0216  -16.6000   24.6263 C   0  0  0  0  0  0  0  0  0  0  0  0
  -31.6681  -13.1300   23.7747 C   0  0  0  0  0  0  0  0  0  0  0  0
  -25.1766  -18.4590   22.6591 C   0  0  0  0  0  0  0  0  0  1  0  0
  -20.6166  -16.5445   16.9868 C   0  0  1  0  0  0  0  0  0  0  0  0
  -22.4274  -13.5971   15.4364 C   0  0  2  0  0  0  0  0  0  0  0  0
  -25.7308  -18.7848   24.0526 C   0  0  2  0  0  0  0  0  0  0  0  0
  -19.0899  -16.4780   17.2737 C   0  0  0  0  0  0  0  0  0  0  0  0
  -25.9385  -11.6074   20.5357 N   0  0  0  0  0  0  0  0  0  0  0  0
  -28.3616  -15.9709   24.9154 N   0  0  0  0  0  0  0  0  0  0  0  0
  -26.2819  -12.8991   20.3947 N   0  0  0  0  0  0  0  0  0  0  0  0
  -30.0256  -15.0902   25.9691 N   0  3  0  0  0  0  0  0  0  0  0  0
  -21.9519  -18.6273   17.0395 N   0  0  0  0  0  0  0  0  0  0  0  0
  -30.0941  -12.6265   20.4390 N   0  0  0  0  0  0  0  0  0  0  0  0
  -25.4084  -15.1005   20.4307 N   0  0  0  0  0  0  0  0  0  0  0  0
  -21.7900  -12.5300   21.2649 N   0  0  0  0  0  0  0  0  0  0  0  0
  -21.4442  -22.2373   16.9611 N   0  0  0  0  0  0  0  0  0  0  0  0
  -21.1077  -15.4821   16.1159 N   0  0  0  0  0  0  0  0  0  0  0  0
  -30.7373  -12.8517   22.7038 N   0  0  0  0  0  0  0  0  0  0  0  0
  -23.8746  -13.2439   15.4812 N   0  3  0  0  0  0  0  0  0  0  0  0
  -22.5171  -14.6866   20.9838 O   0  0  0  0  0  0  0  0  0  0  0  0
  -20.6183  -20.4612   18.2203 O   0  0  0  0  0  0  0  0  0  0  0  0
  -20.5422  -18.1521   15.2442 O   0  0  0  0  0  0  0  0  0  0  0  0
  -22.6602  -14.6256   17.6102 O   0  0  0  0  0  0  0  0  0  0  0  0
  -32.2580  -13.2175   21.0273 O   0  0  0  0  0  0  0  0  0  0  0  0
  -21.7086   -6.9703   21.6097 O   0  0  0  0  0  0  0  0  0  0  0  0
  -26.0503  -18.9414   21.6392 O   0  0  0  0  0  0  0  0  0  1  0  0
  -16.8584   -6.4773   19.0334 F   0  0  0  0  0  0  0  0  0  0  0  0
  -19.6702   -8.7815   22.0649 F   0  0  0  0  0  0  0  0  0  0  0  0
  1  2  1  0  0  0  0
  1  5  2  0  0  0  0
  2  6  2  0  0  0  0
  3  8  2  0  0  0  0
  3 16  1  0  0  0  0
  4  9  1  0  0  0  0
  4 16  2  0  0  0  0
  5 18  1  0  0  0  0
  6 20  1  0  0  0  0
  7 10  2  0  0  0  0
  7 19  1  0  0  0  0
  8 22  1  0  0  0  0
  9 22  2  0  0  0  0
 10 23  1  0  0  0  0
 11 12  2  0  0  0  0
 11 24  1  0  0  0  0
 12 25  1  0  0  0  0
 13 21  1  0  0  0  0
 13 23  2  0  0  0  0
 14 25  2  0  0  0  0
 14 26  1  0  0  0  0
 15 28  2  0  0  0  0
 15 65  1  0  0  0  0
 16 27  1  0  0  0  0
 17 27  1  0  0  0  0
 17 29  2  0  0  0  0
 17 31  1  0  0  0  0
 18 20  2  0  0  0  0
 18 36  1  0  0  0  0
 19 21  2  0  0  0  0
 19 37  1  0  0  0  0
 20 45  1  0  0  0  0
 21 38  1  0  0  0  0
 22 81  1  0  0  0  0
 23 82  1  0  0  0  0
 24 26  2  0  0  0  0
 24 81  1  0  0  0  0
 25 83  1  0  0  0  0
 26 84  1  0  0  0  0
 27 64  2  0  0  0  0
 28 55  1  0  0  0  0
 28 67  1  0  0  0  0
 29 66  1  0  0  0  0
 29 70  1  0  0  0  0
 30 48  1  0  0  0  0
 30 65  1  0  0  0  0
 30 67  2  0  0  0  0
 31 71  1  0  0  0  0
 31 76  2  0  0  0  0
 32 46  1  0  0  0  0
 32 72  1  0  0  0  0
 32 77  2  0  0  0  0
 33 60  1  0  0  0  0
 33 68  1  0  0  0  0
 33 78  2  0  0  0  0
 34 61  1  0  0  0  0
 34 73  1  0  0  0  0
 34 79  2  0  0  0  0
 35 69  1  0  0  0  0
 35 74  1  0  0  0  0
 35 80  2  0  0  0  0
 36 39  1  0  0  0  0
 37 46  1  0  0  0  0
 38 68  1  0  0  0  0
 39 41  1  0  0  0  0
 40 42  1  0  0  0  0
 40 43  1  0  0  0  0
 41 45  1  0  0  0  0
 42 47  1  0  0  0  0
 43 69  1  0  0  0  0
 44 47  1  0  0  0  0
 44 69  1  0  0  0  0
 45 72  1  0  0  0  0
 46 68  1  0  0  0  0
 47 66  1  0  0  0  0
 49 61  1  0  0  0  0
 50 62  1  0  0  0  0
 51 63  1  0  0  0  0
 52 63  1  0  0  0  0
 53 63  1  0  0  0  0
 54 75  1  0  0  0  0
 55 58  1  0  0  0  0
 56 57  1  0  0  0  0
 56 62  1  0  0  0  0
 57 65  1  0  0  0  0
 58 74  1  0  0  0  0
 59 62  1  0  0  0  0
 59 82  1  0  0  0  0
 60 63  1  0  0  0  0
 60 73  1  0  0  0  0
 61 75  1  0  0  0  0
 64 66  1  0  0  0  0
M  CHG  2  67   1  75   1
M  ISO  4  35 100  59 101  74 100  82 101
M  END
> <Batch ID>
0080

> <Smiles>
CNC(C)C(=O)NC(C(=O)N1Cc2cc([101O:1][101CH2:1]C(C)CCn3cc(CC[100NH:0][100C:0](=O)N4CCCC(n5nc(-c6ccc(Oc7ccc(F)cc7F)cc6)c(C(N)=O)c5N)C4)nc3C)ccc2CC1C(=O)NC1CCCc2ccccc21)C(C)(C)C

> <Shape>
0.122

> <Color>
0.170

> <Negative vol penalty>
0.000

$$$$

  -OEChem-04052318443D

 84 92  0     1  0  0  0  0  0999 V2000
  -23.3136  -19.8231   23.0257 C   0  0  0  0  0  0  0  0  0  0  0  0
  -24.0254  -18.7295   22.5434 C   0  0  0  0  0  0  0  0  0  0  0  0
  -23.0862   -9.8691   19.9416 C   0  0  0  0  0  0  0  0  0  0  0  0
  -23.7004   -9.9591   22.2765 C   0  0  0  0  0  0  0  0  0  0  0  0
  -23.6550  -20.3894   24.2532 C   0  0  0  0  0  0  0  0  0  0  0  0
  -25.0799  -18.2021   23.2879 C   0  0  0  0  0  0  0  0  0  0  0  0
  -28.3319  -11.9852   24.7343 C   0  0  0  0  0  0  0  0  0  0  0  0
  -22.3282   -8.7238   20.1852 C   0  0  0  0  0  0  0  0  0  0  0  0
  -22.9424   -8.8138   22.5201 C   0  0  0  0  0  0  0  0  0  0  0  0
  -29.6012  -11.4086   24.7362 C   0  0  0  0  0  0  0  0  0  0  0  0
  -21.4607   -5.7078   23.6894 C   0  0  0  0  0  0  0  0  0  0  0  0
  -22.0283   -4.7114   24.4836 C   0  0  0  0  0  0  0  0  0  0  0  0
  -30.0506  -12.4192   26.8800 C   0  0  0  0  0  0  0  0  0  0  0  0
  -23.8360   -4.4772   22.8979 C   0  0  0  0  0  0  0  0  0  0  0  0
  -36.4129  -15.1847   23.8732 C   0  0  0  0  0  0  0  0  0  0  0  0
  -23.7724  -10.4867   20.9873 C   0  0  0  0  0  0  0  0  0  0  0  0
  -24.1209  -13.0068   20.7994 C   0  0  0  0  0  0  0  0  0  0  0  0
  -24.7080  -19.8626   25.0176 C   0  0  0  0  0  0  0  0  0  0  0  0
  -27.9157  -12.7935   25.8020 C   0  0  0  0  0  0  0  0  0  0  0  0
  -25.4367  -18.7627   24.5261 C   0  0  0  0  0  0  0  0  0  0  0  0
  -28.7745  -13.0029   26.8904 C   0  0  0  0  0  0  0  0  0  0  0  0
  -22.2562   -8.1962   21.4744 C   0  0  0  0  0  0  0  0  0  0  0  0
  -30.4619  -11.6279   25.8077 C   0  0  0  0  0  0  0  0  0  0  0  0
  -22.0808   -6.0889   22.4994 C   0  0  0  0  0  0  0  0  0  0  0  0
  -23.2159   -4.0962   24.0879 C   0  0  0  0  0  0  0  0  0  0  0  0
  -23.2684   -5.4736   22.1037 C   0  0  0  0  0  0  0  0  0  0  0  0
  -24.5561  -11.6695   20.7363 C   0  0  0  0  0  0  0  0  0  0  0  0
  -35.1962  -14.6665   23.5299 C   0  0  0  0  0  0  0  0  0  0  0  0
  -25.2337  -13.7455   20.4790 C   0  0  0  0  0  0  0  0  0  0  0  0
  -35.6886  -13.9604   25.5693 C   0  0  0  0  0  0  0  0  0  0  0  0
  -22.8265  -13.5342   21.1191 C   0  0  0  0  0  0  0  0  0  0  0  0
  -27.0457  -15.8356   26.1060 C   0  0  0  0  0  0  0  0  0  0  0  0
  -26.3586  -14.9297   29.1441 C   0  0  0  0  0  0  0  0  0  0  0  0
  -26.9187  -12.7585   31.7168 C   0  0  0  0  0  0  0  0  0  0  0  0
  -30.5657  -14.8192   21.0820 C   0  0  0  0  0  0  0  0  0  0  0  0
  -25.0708  -20.5380   26.3164 C   0  0  0  0  0  0  0  0  0  0  0  0
  -26.5334  -13.3865   25.7973 C   0  0  0  0  0  0  0  0  0  0  0  0
  -28.3681  -13.8460   28.0705 C   0  0  0  0  0  0  0  0  0  0  0  0
  -25.9600  -19.6860   27.2184 C   0  0  0  0  0  0  0  0  0  0  0  0
  -29.7126  -12.3147   18.6127 C   0  0  0  0  0  0  0  0  0  0  0  0
  -27.1034  -19.0733   26.4159 C   0  0  0  0  0  0  0  0  0  0  0  0
  -28.2484  -12.0352   18.9563 C   0  0  0  0  0  0  0  0  0  0  0  0
  -30.5399  -12.5546   19.8722 C   0  0  0  0  0  0  0  0  0  0  0  0
  -28.5596  -13.3639   21.0959 C   0  0  0  0  0  0  0  0  0  0  0  0
  -26.5710  -18.1467   25.3161 C   0  0  1  0  0  0  0  0  0  0  0  0
  -26.4057  -14.6115   26.6974 C   0  0  1  0  0  0  0  0  0  0  0  0
  -27.6658  -13.1352   19.8634 C   0  0  2  0  0  0  0  0  0  0  0  0
  -35.6235  -13.2873   26.8904 C   0  0  0  0  0  0  0  0  0  0  0  0
  -26.2380  -12.2956   34.0874 C   0  0  0  0  0  0  0  0  0  0  0  0
  -32.5615   -9.3562   24.3646 C   0  0  0  0  0  0  0  0  0  0  0  0
  -28.1130  -17.2376   30.0959 C   0  0  0  0  0  0  0  0  0  0  0  0
  -28.1683  -16.1700   32.3599 C   0  0  0  0  0  0  0  0  0  0  0  0
  -25.9977  -16.9308   31.3943 C   0  0  0  0  0  0  0  0  0  0  0  0
  -25.8345  -10.0974   31.0083 C   0  0  0  0  0  0  0  0  0  0  0  0
  -34.4101  -14.8180   22.2993 C   0  0  0  0  0  0  0  0  0  0  0  0
  -33.4219  -16.0137   22.2887 C   0  0  0  0  0  0  0  0  0  0  0  0
  -33.6381  -11.6323   24.4850 C   0  0  0  0  0  0  0  0  0  0  0  0
  -33.4745  -13.1476   24.6715 C   0  0  0  0  0  0  0  0  0  0  0  0
  -32.6471  -16.1663   20.9815 C   0  0  0  0  0  0  0  0  0  0  0  0
  -27.1254  -14.8775   30.4434 C   0  0  1  0  0  0  0  0  0  0  0  0
  -25.9637  -12.0003   32.6210 C   0  0  2  0  0  0  0  0  0  0  0  0
  -32.3204  -10.8496   24.5444 C   0  0  2  0  0  0  0  0  0  1  0  0
  -27.3598  -16.2896   31.0504 C   0  0  0  0  0  0  0  0  0  0  0  0
  -25.8447  -11.5618   20.4019 N   0  0  0  0  0  0  0  0  0  0  0  0
  -34.7716  -13.9128   24.5975 N   0  0  0  0  0  0  0  0  0  0  0  0
  -26.2288  -12.8409   20.2520 N   0  0  0  0  0  0  0  0  0  0  0  0
  -36.6926  -14.7317   25.1399 N   0  3  0  0  0  0  0  0  0  0  0  0
  -27.0090  -14.4092   28.0163 N   0  0  0  0  0  0  0  0  0  0  0  0
  -29.9421  -13.6257   20.6820 N   0  0  0  0  0  0  0  0  0  0  0  0
  -25.4481  -15.0740   20.3721 N   0  0  0  0  0  0  0  0  0  0  0  0
  -21.7955  -12.6352   21.4242 N   0  0  0  0  0  0  0  0  0  0  0  0
  -26.1656  -16.8762   25.8780 N   0  0  0  0  0  0  0  0  0  0  0  0
  -26.3904  -13.9671   31.3148 N   0  0  0  0  0  0  0  0  0  0  0  0
  -31.8770  -14.9869   20.6542 N   0  0  0  0  0  0  0  0  0  0  0  0
  -26.1001  -10.5323   32.4037 N   0  3  0  0  0  0  0  0  0  0  0  0
  -22.5871  -14.7655   21.1177 O   0  0  0  0  0  0  0  0  0  0  0  0
  -28.2492  -15.8364   25.8751 O   0  0  0  0  0  0  0  0  0  0  0  0
  -25.2216  -15.4080   29.1317 O   0  0  0  0  0  0  0  0  0  0  0  0
  -28.0244  -12.3239   31.4018 O   0  0  0  0  0  0  0  0  0  0  0  0
  -29.9940  -15.6752   21.7658 O   0  0  0  0  0  0  0  0  0  0  0  0
  -21.5165   -7.0788   21.7125 O   0  0  0  0  0  0  0  0  0  0  0  0
  -31.7016  -11.0667   25.8118 O   0  0  0  0  0  0  0  0  0  1  0  0
  -23.7616   -3.1405   24.8514 F   0  0  0  0  0  0  0  0  0  0  0  0
  -23.8693   -5.8362   20.9621 F   0  0  0  0  0  0  0  0  0  0  0  0
  1  2  1  0  0  0  0
  1  5  2  0  0  0  0
  2  6  2  0  0  0  0
  3  8  2  0  0  0  0
  3 16  1  0  0  0  0
  4  9  1  0  0  0  0
  4 16  2  0  0  0  0
  5 18  1  0  0  0  0
  6 20  1  0  0  0  0
  7 10  2  0  0  0  0
  7 19  1  0  0  0  0
  8 22  1  0  0  0  0
  9 22  2  0  0  0  0
 10 23  1  0  0  0  0
 11 12  2  0  0  0  0
 11 24  1  0  0  0  0
 12 25  1  0  0  0  0
 13 21  1  0  0  0  0
 13 23  2  0  0  0  0
 14 25  2  0  0  0  0
 14 26  1  0  0  0  0
 15 28  2  0  0  0  0
 15 67  1  0  0  0  0
 16 27  1  0  0  0  0
 17 27  1  0  0  0  0
 17 29  2  0  0  0  0
 17 31  1  0  0  0  0
 18 20  2  0  0  0  0
 18 36  1  0  0  0  0
 19 21  2  0  0  0  0
 19 37  1  0  0  0  0
 20 45  1  0  0  0  0
 21 38  1  0  0  0  0
 22 81  1  0  0  0  0
 23 82  1  0  0  0  0
 24 26  2  0  0  0  0
 24 81  1  0  0  0  0
 25 83  1  0  0  0  0
 26 84  1  0  0  0  0
 27 64  2  0  0  0  0
 28 55  1  0  0  0  0
 28 65  1  0  0  0  0
 29 66  1  0  0  0  0
 29 70  1  0  0  0  0
 30 48  1  0  0  0  0
 30 65  1  0  0  0  0
 30 67  2  0  0  0  0
 31 71  1  0  0  0  0
 31 76  2  0  0  0  0
 32 46  1  0  0  0  0
 32 72  1  0  0  0  0
 32 77  2  0  0  0  0
 33 60  1  0  0  0  0
 33 68  1  0  0  0  0
 33 78  2  0  0  0  0
 34 61  1  0  0  0  0
 34 73  1  0  0  0  0
 34 79  2  0  0  0  0
 35 69  1  0  0  0  0
 35 74  1  0  0  0  0
 35 80  2  0  0  0  0
 36 39  1  0  0  0  0
 37 46  1  0  0  0  0
 38 68  1  0  0  0  0
 39 41  1  0  0  0  0
 40 42  1  0  0  0  0
 40 43  1  0  0  0  0
 41 45  1  0  0  0  0
 42 47  1  0  0  0  0
 43 69  1  0  0  0  0
 44 47  1  0  0  0  0
 44 69  1  0  0  0  0
 45 72  1  0  0  0  0
 46 68  1  0  0  0  0
 47 66  1  0  0  0  0
 49 61  1  0  0  0  0
 50 62  1  0  0  0  0
 51 63  1  0  0  0  0
 52 63  1  0  0  0  0
 53 63  1  0  0  0  0
 54 75  1  0  0  0  0
 55 56  1  0  0  0  0
 56 59  1  0  0  0  0
 57 58  1  0  0  0  0
 57 62  1  0  0  0  0
 58 65  1  0  0  0  0
 59 74  1  0  0  0  0
 60 63  1  0  0  0  0
 60 73  1  0  0  0  0
 61 75  1  0  0  0  0
 62 82  1  0  0  0  0
 64 66  1  0  0  0  0
M  CHG  2  67   1  75   1
M  ISO  4  35 100  62 101  74 100  82 101
M  END
> <Batch ID>
0080

> <Smiles>
CNC(C)C(=O)NC(C(=O)N1Cc2cc([101O:1][101CH:1](C)CCn3c(CCC[100NH:0][100C:0](=O)N4CCCC(n5nc(-c6ccc(Oc7ccc(F)cc7F)cc6)c(C(N)=O)c5N)C4)cnc3C)ccc2CC1C(=O)NC1CCCc2ccccc21)C(C)(C)C

> <Shape>
0.155

> <Color>
0.176

> <Negative vol penalty>
0.000

$$$$

  -OEChem-04052318443D

 86 94  0     1  0  0  0  0  0999 V2000
  -39.0006  -27.3199   18.1708 C   0  0  0  0  0  0  0  0  0  0  0  0
  -37.9592  -26.4078   18.0329 C   0  0  0  0  0  0  0  0  0  0  0  0
  -22.9865   -9.9049   20.0277 C   0  0  0  0  0  0  0  0  0  0  0  0
  -23.6844  -10.0459   22.3364 C   0  0  0  0  0  0  0  0  0  0  0  0
  -38.9717  -28.2587   19.2012 C   0  0  0  0  0  0  0  0  0  0  0  0
  -36.8887  -26.4333   18.9262 C   0  0  0  0  0  0  0  0  0  0  0  0
  -31.0241  -25.1841   17.6807 C   0  0  0  0  0  0  0  0  0  0  0  0
  -22.2054   -8.7901   20.3319 C   0  0  0  0  0  0  0  0  0  0  0  0
  -22.9033   -8.9311   22.6406 C   0  0  0  0  0  0  0  0  0  0  0  0
  -30.2508  -24.0378   17.8592 C   0  0  0  0  0  0  0  0  0  0  0  0
  -23.1195   -5.5731   22.3125 C   0  0  0  0  0  0  0  0  0  0  0  0
  -23.6876   -4.5829   23.1139 C   0  0  0  0  0  0  0  0  0  0  0  0
  -29.4295  -24.9243   19.9469 C   0  0  0  0  0  0  0  0  0  0  0  0
  -31.3695  -21.5531   21.3759 C   0  0  0  0  0  0  0  0  0  0  0  0
  -21.9463   -4.9127   24.7559 C   0  0  0  0  0  0  0  0  0  0  0  0
  -23.7261  -10.5328   21.0299 C   0  0  0  0  0  0  0  0  0  0  0  0
  -24.1389  -13.0350   20.7532 C   0  0  0  0  0  0  0  0  0  0  0  0
  -37.8956  -28.3020   20.1017 C   0  0  0  0  0  0  0  0  0  0  0  0
  -31.0142  -26.2060   18.6409 C   0  0  0  0  0  0  0  0  0  0  0  0
  -36.8460  -27.3727   19.9704 C   0  0  0  0  0  0  0  0  0  0  0  0
  -30.2015  -26.0837   19.7770 C   0  0  0  0  0  0  0  0  0  0  0  0
  -30.6459  -20.4073   21.0961 C   0  0  0  0  0  0  0  0  0  0  0  0
  -22.1638   -8.3032   21.6384 C   0  0  0  0  0  0  0  0  0  0  0  0
  -29.4556  -23.9065   18.9938 C   0  0  0  0  0  0  0  0  0  0  0  0
  -21.9648   -6.2332   22.7328 C   0  0  0  0  0  0  0  0  0  0  0  0
  -23.1011   -4.2526   24.3356 C   0  0  0  0  0  0  0  0  0  0  0  0
  -21.3782   -5.9029   23.9545 C   0  0  0  0  0  0  0  0  0  0  0  0
  -24.5336  -11.6842   20.7162 C   0  0  0  0  0  0  0  0  0  0  0  0
  -32.7356  -21.4322   21.5327 C   0  0  0  0  0  0  0  0  0  0  0  0
  -31.3363  -19.2165   20.9911 C   0  0  0  0  0  0  0  0  0  0  0  0
  -25.2602  -13.7309   20.3726 C   0  0  0  0  0  0  0  0  0  0  0  0
  -22.8720  -13.6093   21.1006 C   0  0  0  0  0  0  0  0  0  0  0  0
  -33.1981  -27.5217   20.5390 C   0  0  0  0  0  0  0  0  0  0  0  0
  -30.7812  -29.5636   21.2543 C   0  0  0  0  0  0  0  0  0  0  0  0
  -27.4201  -30.1369   21.3998 C   0  0  0  0  0  0  0  0  0  0  0  0
  -30.7623  -14.6223   20.6498 C   0  0  0  0  0  0  0  0  0  0  0  0
  -37.9315  -29.3042   21.2281 C   0  0  0  0  0  0  0  0  0  0  0  0
  -31.8334  -27.4480   18.4205 C   0  0  0  0  0  0  0  0  0  0  0  0
  -30.1398  -27.1612   20.8276 C   0  0  0  0  0  0  0  0  0  0  0  0
  -36.5790  -29.5074   21.9060 C   0  0  0  0  0  0  0  0  0  0  0  0
  -29.6254  -12.1131   18.3943 C   0  0  0  0  0  0  0  0  0  0  0  0
  -35.9213  -28.1626   22.1990 C   0  0  0  0  0  0  0  0  0  0  0  0
  -28.1695  -11.8851   18.8044 C   0  0  0  0  0  0  0  0  0  0  0  0
  -30.5156  -12.3905   19.6037 C   0  0  0  0  0  0  0  0  0  0  0  0
  -28.5977  -13.2600   20.8840 C   0  0  0  0  0  0  0  0  0  0  0  0
  -35.6554  -27.3848   20.9045 C   0  0  1  0  0  0  0  0  0  0  0  0
  -32.1409  -28.1981   19.7128 C   0  0  1  0  0  0  0  0  0  0  0  0
  -27.6512  -13.0317   19.6931 C   0  0  2  0  0  0  0  0  0  0  0  0
  -34.0325  -23.2471   19.3930 C   0  0  0  0  0  0  0  0  0  0  0  0
  -34.2419  -22.5216   23.2164 C   0  0  0  0  0  0  0  0  0  0  0  0
  -25.7469  -31.8858   22.0625 C   0  0  0  0  0  0  0  0  0  0  0  0
  -31.2671  -28.9107   24.1949 C   0  0  0  0  0  0  0  0  0  0  0  0
  -29.0266  -29.9007   24.7129 C   0  0  0  0  0  0  0  0  0  0  0  0
  -30.8189  -31.3253   23.7227 C   0  0  0  0  0  0  0  0  0  0  0  0
  -26.3338  -30.3047   18.6519 C   0  0  0  0  0  0  0  0  0  0  0  0
  -29.1509  -20.4837   20.9149 C   0  0  0  0  0  0  0  0  0  0  0  0
  -30.6232  -17.9411   20.6924 C   0  0  0  0  0  0  0  0  0  0  0  0
  -34.6371  -22.9547   20.7610 C   0  0  0  0  0  0  0  0  0  0  0  0
  -28.7028  -20.4059   19.4538 C   0  0  0  0  0  0  0  0  0  0  0  0
  -30.8529  -16.8484   21.7434 C   0  0  0  0  0  0  0  0  0  0  0  0
  -29.1957  -21.5742   18.6080 C   0  0  0  0  0  0  0  0  0  1  0  0
  -33.5609  -22.6357   21.8355 C   0  0  1  0  0  0  0  0  0  0  0  0
  -29.6745  -29.5926   22.2806 C   0  0  1  0  0  0  0  0  0  0  0  0
  -26.5764  -31.3069   20.9269 C   0  0  2  0  0  0  0  0  0  0  0  0
  -30.1992  -29.9110   23.7091 C   0  0  0  0  0  0  0  0  0  0  0  0
  -25.8062  -11.5289   20.3415 N   0  0  0  0  0  0  0  0  0  0  0  0
  -33.3851  -20.2538   21.4245 N   0  0  0  0  0  0  0  0  0  0  0  0
  -32.6739  -19.1278   21.1491 N   0  0  0  0  0  0  0  0  0  0  0  0
  -26.2208  -12.7912   20.1394 N   0  0  0  0  0  0  0  0  0  0  0  0
  -30.9638  -28.3537   20.5698 N   0  0  0  0  0  0  0  0  0  0  0  0
  -29.9694  -13.4894   20.4037 N   0  0  0  0  0  0  0  0  0  0  0  0
  -25.5083  -15.0488   20.2178 N   0  0  0  0  0  0  0  0  0  0  0  0
  -21.8272  -12.7504   21.4682 N   0  0  0  0  0  0  0  0  0  0  0  0
  -34.4877  -27.9101   20.2300 N   0  0  0  0  0  0  0  0  0  0  0  0
  -28.6818  -30.5392   21.7839 N   0  0  0  0  0  0  0  0  0  0  0  0
  -30.1660  -15.6200   21.4112 N   0  0  0  0  0  0  0  0  0  0  0  0
  -25.6508  -30.8733   19.8424 N   0  3  0  0  0  0  0  0  0  0  0  0
  -22.6675  -14.8466   21.0698 O   0  0  0  0  0  0  0  0  0  0  0  0
  -32.8681  -26.7089   21.3946 O   0  0  0  0  0  0  0  0  0  0  0  0
  -31.4541  -30.5794   21.0617 O   0  0  0  0  0  0  0  0  0  0  0  0
  -27.0005  -28.9821   21.4293 O   0  0  0  0  0  0  0  0  0  0  0  0
  -31.9144  -14.7386   20.2183 O   0  0  0  0  0  0  0  0  0  0  0  0
  -21.4015   -7.2155   21.9356 O   0  0  0  0  0  0  0  0  0  0  0  0
  -28.7004  -22.7884   19.1709 O   0  0  0  0  0  0  0  0  0  1  0  0
  -23.6459   -3.3006   25.1044 F   0  0  0  0  0  0  0  0  0  0  0  0
  -20.2681   -6.5328   24.3630 F   0  0  0  0  0  0  0  0  0  0  0  0
  1  2  1  0  0  0  0
  1  5  2  0  0  0  0
  2  6  2  0  0  0  0
  3  8  2  0  0  0  0
  3 16  1  0  0  0  0
  4  9  1  0  0  0  0
  4 16  2  0  0  0  0
  5 18  1  0  0  0  0
  6 20  1  0  0  0  0
  7 10  2  0  0  0  0
  7 19  1  0  0  0  0
  8 23  1  0  0  0  0
  9 23  2  0  0  0  0
 10 24  1  0  0  0  0
 11 12  2  0  0  0  0
 11 25  1  0  0  0  0
 12 26  1  0  0  0  0
 13 21  1  0  0  0  0
 13 24  2  0  0  0  0
 14 22  2  0  0  0  0
 14 29  1  0  0  0  0
 15 26  2  0  0  0  0
 15 27  1  0  0  0  0
 16 28  1  0  0  0  0
 17 28  1  0  0  0  0
 17 31  2  0  0  0  0
 17 32  1  0  0  0  0
 18 20  2  0  0  0  0
 18 37  1  0  0  0  0
 19 21  2  0  0  0  0
 19 38  1  0  0  0  0
 20 46  1  0  0  0  0
 21 39  1  0  0  0  0
 22 30  1  0  0  0  0
 22 56  1  0  0  0  0
 23 83  1  0  0  0  0
 24 84  1  0  0  0  0
 25 27  2  0  0  0  0
 25 83  1  0  0  0  0
 26 85  1  0  0  0  0
 27 86  1  0  0  0  0
 28 66  2  0  0  0  0
 29 62  1  0  0  0  0
 29 67  2  0  0  0  0
 30 57  1  0  0  0  0
 30 68  2  0  0  0  0
 31 69  1  0  0  0  0
 31 72  1  0  0  0  0
 32 73  1  0  0  0  0
 32 78  2  0  0  0  0
 33 47  1  0  0  0  0
 33 74  1  0  0  0  0
 33 79  2  0  0  0  0
 34 63  1  0  0  0  0
 34 70  1  0  0  0  0
 34 80  2  0  0  0  0
 35 64  1  0  0  0  0
 35 75  1  0  0  0  0
 35 81  2  0  0  0  0
 36 71  1  0  0  0  0
 36 76  1  0  0  0  0
 36 82  2  0  0  0  0
 37 40  1  0  0  0  0
 38 47  1  0  0  0  0
 39 70  1  0  0  0  0
 40 42  1  0  0  0  0
 41 43  1  0  0  0  0
 41 44  1  0  0  0  0
 42 46  1  0  0  0  0
 43 48  1  0  0  0  0
 44 71  1  0  0  0  0
 45 48  1  0  0  0  0
 45 71  1  0  0  0  0
 46 74  1  0  0  0  0
 47 70  1  0  0  0  0
 48 69  1  0  0  0  0
 49 58  1  0  0  0  0
 50 62  1  0  0  0  0
 51 64  1  0  0  0  0
 52 65  1  0  0  0  0
 53 65  1  0  0  0  0
 54 65  1  0  0  0  0
 55 77  1  0  0  0  0
 56 59  1  0  0  0  0
 57 60  1  0  0  0  0
 58 62  1  0  0  0  0
 59 61  1  0  0  0  0
 60 76  1  0  0  0  0
 61 84  1  0  0  0  0
 63 65  1  0  0  0  0
 63 75  1  0  0  0  0
 64 77  1  0  0  0  0
 66 69  1  0  0  0  0
 67 68  1  0  0  0  0
M  CHG  1  77   1
M  ISO  4  36 100  61 101  76 100  84 101
M  END
> <Batch ID>
0080

> <Smiles>
CCC(C)c1cc(CC[101CH2:1][101O:1]c2ccc3c(c2)CN(C(=O)C(NC(=O)C(C)NC)C(C)(C)C)C(C(=O)NC2CCCc4ccccc42)C3)c(CC[100NH:0][100C:0](=O)N2CCCC(n3nc(-c4ccc(Oc5ccc(F)cc5F)cc4)c(C(N)=O)c3N)C2)nn1

> <Shape>
0.296

> <Color>
0.205

> <Negative vol penalty>
0.000

$$$$

  -OEChem-04052318443D

 85 93  0     1  0  0  0  0  0999 V2000
  -20.3741  -29.6610   25.1860 C   0  0  0  0  0  0  0  0  0  0  0  0
  -21.0966  -28.5537   25.6188 C   0  0  0  0  0  0  0  0  0  0  0  0
  -31.7249  -22.0274   20.6218 C   0  0  0  0  0  0  0  0  0  0  0  0
  -29.4524  -22.0112   19.8015 C   0  0  0  0  0  0  0  0  0  0  0  0
  -19.6097  -29.5819   24.0227 C   0  0  0  0  0  0  0  0  0  0  0  0
  -21.0542  -27.3663   24.8890 C   0  0  0  0  0  0  0  0  0  0  0  0
  -25.1291  -21.7403   23.1395 C   0  0  0  0  0  0  0  0  0  0  0  0
  -31.8299  -23.3815   20.3040 C   0  0  0  0  0  0  0  0  0  0  0  0
  -29.5575  -23.3653   19.4838 C   0  0  0  0  0  0  0  0  0  0  0  0
  -25.1052  -20.3464   23.1561 C   0  0  0  0  0  0  0  0  0  0  0  0
  -29.4217  -26.3224   21.1141 C   0  0  0  0  0  0  0  0  0  0  0  0
  -28.3595  -27.1539   21.4685 C   0  0  0  0  0  0  0  0  0  0  0  0
  -23.8136  -20.3504   21.1187 C   0  0  0  0  0  0  0  0  0  0  0  0
  -23.7686  -12.0926   20.4313 C   0  0  0  0  0  0  0  0  0  0  0  0
  -28.0413  -27.7375   19.1457 C   0  0  0  0  0  0  0  0  0  0  0  0
  -30.5361  -21.3422   20.3705 C   0  0  0  0  0  0  0  0  0  0  0  0
  -29.9916  -19.3866   21.9154 C   0  0  0  0  0  0  0  0  0  0  0  0
  -19.5657  -28.3959   23.2730 C   0  0  0  0  0  0  0  0  0  0  0  0
  -24.4850  -22.4511   22.1166 C   0  0  0  0  0  0  0  0  0  0  0  0
  -20.2875  -27.2708   23.7152 C   0  0  0  0  0  0  0  0  0  0  0  0
  -23.8329  -21.7532   21.0900 C   0  0  0  0  0  0  0  0  0  0  0  0
  -25.0465  -11.7536   20.0010 C   0  0  0  0  0  0  0  0  0  0  0  0
  -23.5693  -13.2737   21.1375 C   0  0  0  0  0  0  0  0  0  0  0  0
  -30.7462  -24.0505   19.7351 C   0  0  0  0  0  0  0  0  0  0  0  0
  -24.4449  -19.6513   22.1472 C   0  0  0  0  0  0  0  0  0  0  0  0
  -29.7939  -26.1984   19.7755 C   0  0  0  0  0  0  0  0  0  0  0  0
  -27.6692  -27.8615   20.4843 C   0  0  0  0  0  0  0  0  0  0  0  0
  -29.1037  -26.9059   18.7913 C   0  0  0  0  0  0  0  0  0  0  0  0
  -30.4272  -19.9433   20.6980 C   0  0  0  0  0  0  0  0  0  0  0  0
  -26.0834  -12.6227   20.3001 C   0  0  0  0  0  0  0  0  0  0  0  0
  -24.6723  -14.0746   21.3859 C   0  0  0  0  0  0  0  0  0  0  0  0
  -30.0708  -18.0294   21.7202 C   0  0  0  0  0  0  0  0  0  0  0  0
  -29.5542  -20.0381   23.1154 C   0  0  0  0  0  0  0  0  0  0  0  0
  -22.0930  -24.5412   22.0000 C   0  0  0  0  0  0  0  0  0  0  0  0
  -22.9320  -24.7365   18.8727 C   0  0  0  0  0  0  0  0  0  0  0  0
  -24.4176  -23.2672   16.1744 C   0  0  0  0  0  0  0  0  0  0  0  0
  -29.2164  -13.5088   18.5611 C   0  0  0  0  0  0  0  0  0  0  0  0
  -18.6877  -28.3437   22.0478 C   0  0  0  0  0  0  0  0  0  0  0  0
  -24.5428  -23.9540   22.0985 C   0  0  0  0  0  0  0  0  0  0  0  0
  -23.1434  -22.4688   19.9583 C   0  0  0  0  0  0  0  0  0  0  0  0
  -18.9941  -27.1641   21.1286 C   0  0  0  0  0  0  0  0  0  0  0  0
  -32.2050  -15.3585   17.9922 C   0  0  0  0  0  0  0  0  0  0  0  0
  -19.1279  -25.8777   21.9375 C   0  0  0  0  0  0  0  0  0  0  0  0
  -31.9703  -16.6719   18.7403 C   0  0  0  0  0  0  0  0  0  0  0  0
  -30.9211  -14.8373   17.3504 C   0  0  0  0  0  0  0  0  0  0  0  0
  -29.5439  -16.0143   19.0213 C   0  0  0  0  0  0  0  0  0  0  0  0
  -20.2867  -25.9727   22.9374 C   0  0  1  0  0  0  0  0  0  0  0  0
  -23.4153  -24.5856   21.2878 C   0  0  1  0  0  0  0  0  0  0  0  0
  -30.7981  -16.5503   19.7325 C   0  0  2  0  0  0  0  0  0  0  0  0
  -25.2666  -10.4898   19.2439 C   0  0  0  0  0  0  0  0  0  0  0  0
  -21.3320  -14.1895   20.4723 C   0  0  0  0  0  0  0  0  0  0  0  0
  -28.2543  -11.4887   20.9024 C   0  0  0  0  0  0  0  0  0  0  0  0
  -24.9146  -23.6549   13.7454 C   0  0  0  0  0  0  0  0  0  0  0  0
  -20.0213  -24.1340   18.1835 C   0  0  0  0  0  0  0  0  0  0  0  0
  -20.7571  -23.5986   15.8511 C   0  0  0  0  0  0  0  0  0  0  0  0
  -21.0861  -25.8965   16.7643 C   0  0  0  0  0  0  0  0  0  0  0  0
  -27.3381  -23.1098   16.6273 C   0  0  0  0  0  0  0  0  0  0  0  0
  -22.2026  -13.6425   21.6016 C   0  0  0  0  0  0  0  0  0  0  0  0
  -24.5153  -15.3674   22.1459 C   0  0  0  0  0  0  0  0  0  0  0  0
  -25.7349  -16.2871   22.0555 C   0  0  0  0  0  0  0  0  0  0  0  0
  -25.5343  -17.6265   22.7549 C   0  0  0  0  0  0  0  0  0  1  0  0
  -27.4776  -12.3103   19.8646 C   0  0  2  0  0  0  0  0  0  0  0  0
  -22.5359  -24.0066   17.6119 C   0  0  1  0  0  0  0  0  0  0  0  0
  -25.4277  -23.7927   15.1703 C   0  0  2  0  0  0  0  0  0  0  0  0
  -21.1113  -24.3952   17.1249 C   0  0  0  0  0  0  0  0  0  0  0  0
  -30.7588  -19.0155   19.7962 N   0  0  0  0  0  0  0  0  0  0  0  0
  -25.9286  -13.7786   20.9839 N   0  0  0  0  0  0  0  0  0  0  0  0
  -30.5315  -17.8621   20.4474 N   0  0  0  0  0  0  0  0  0  0  0  0
  -23.2224  -23.9387   19.9884 N   0  0  0  0  0  0  0  0  0  0  0  0
  -29.8496  -14.7439   18.3450 N   0  0  0  0  0  0  0  0  0  0  0  0
  -29.7907  -16.9746   22.5149 N   0  0  0  0  0  0  0  0  0  0  0  0
  -29.5341  -21.4392   23.1457 N   0  0  0  0  0  0  0  0  0  0  0  0
  -21.5532  -25.7858   22.2624 N   0  0  0  0  0  0  0  0  0  0  0  0
  -23.5918  -24.2684   16.6398 N   0  0  0  0  0  0  0  0  0  0  0  0
  -28.2161  -13.5063   19.5254 N   0  0  0  0  0  0  0  0  0  0  0  0
  -26.7094  -23.0408   15.2831 N   0  3  0  0  0  0  0  0  0  0  0  0
  -29.2077  -19.3970   24.1363 O   0  0  0  0  0  0  0  0  0  0  0  0
  -21.5983  -23.4578   22.2886 O   0  0  0  0  0  0  0  0  0  0  0  0
  -22.9887  -25.9687   18.8656 O   0  0  0  0  0  0  0  0  0  0  0  0
  -24.3640  -22.0858   16.5092 O   0  0  0  0  0  0  0  0  0  0  0  0
  -29.5238  -12.4831   17.9444 O   0  0  0  0  0  0  0  0  0  0  0  0
  -30.8483  -25.3718   19.4251 O   0  0  0  0  0  0  0  0  0  0  0  0
  -24.4195  -18.2908   22.1613 O   0  0  0  0  0  0  0  0  0  1  0  0
  -26.6481  -28.6588   20.8246 F   0  0  0  0  0  0  0  0  0  0  0  0
  -29.4558  -26.7899   17.5035 F   0  0  0  0  0  0  0  0  0  0  0  0
  1  2  1  0  0  0  0
  1  5  2  0  0  0  0
  2  6  2  0  0  0  0
  3  8  2  0  0  0  0
  3 16  1  0  0  0  0
  4  9  1  0  0  0  0
  4 16  2  0  0  0  0
  5 18  1  0  0  0  0
  6 20  1  0  0  0  0
  7 10  2  0  0  0  0
  7 19  1  0  0  0  0
  8 24  1  0  0  0  0
  9 24  2  0  0  0  0
 10 25  1  0  0  0  0
 11 12  2  0  0  0  0
 11 26  1  0  0  0  0
 12 27  1  0  0  0  0
 13 21  1  0  0  0  0
 13 25  2  0  0  0  0
 14 22  2  0  0  0  0
 14 23  1  0  0  0  0
 15 27  2  0  0  0  0
 15 28  1  0  0  0  0
 16 29  1  0  0  0  0
 17 29  1  0  0  0  0
 17 32  2  0  0  0  0
 17 33  1  0  0  0  0
 18 20  2  0  0  0  0
 18 38  1  0  0  0  0
 19 21  2  0  0  0  0
 19 39  1  0  0  0  0
 20 47  1  0  0  0  0
 21 40  1  0  0  0  0
 22 30  1  0  0  0  0
 22 50  1  0  0  0  0
 23 31  2  0  0  0  0
 23 58  1  0  0  0  0
 24 82  1  0  0  0  0
 25 83  1  0  0  0  0
 26 28  2  0  0  0  0
 26 82  1  0  0  0  0
 27 84  1  0  0  0  0
 28 85  1  0  0  0  0
 29 66  2  0  0  0  0
 30 62  1  0  0  0  0
 30 67  2  0  0  0  0
 31 59  1  0  0  0  0
 31 67  1  0  0  0  0
 32 68  1  0  0  0  0
 32 71  1  0  0  0  0
 33 72  1  0  0  0  0
 33 77  2  0  0  0  0
 34 48  1  0  0  0  0
 34 73  1  0  0  0  0
 34 78  2  0  0  0  0
 35 63  1  0  0  0  0
 35 69  1  0  0  0  0
 35 79  2  0  0  0  0
 36 64  1  0  0  0  0
 36 74  1  0  0  0  0
 36 80  2  0  0  0  0
 37 70  1  0  0  0  0
 37 75  1  0  0  0  0
 37 81  2  0  0  0  0
 38 41  1  0  0  0  0
 39 48  1  0  0  0  0
 40 69  1  0  0  0  0
 41 43  1  0  0  0  0
 42 44  1  0  0  0  0
 42 45  1  0  0  0  0
 43 47  1  0  0  0  0
 44 49  1  0  0  0  0
 45 70  1  0  0  0  0
 46 49  1  0  0  0  0
 46 70  1  0  0  0  0
 47 73  1  0  0  0  0
 48 69  1  0  0  0  0
 49 68  1  0  0  0  0
 51 58  1  0  0  0  0
 52 62  1  0  0  0  0
 53 64  1  0  0  0  0
 54 65  1  0  0  0  0
 55 65  1  0  0  0  0
 56 65  1  0  0  0  0
 57 76  1  0  0  0  0
 59 60  1  0  0  0  0
 60 61  1  0  0  0  0
 61 83  1  0  0  0  0
 62 75  1  0  0  0  0
 63 65  1  0  0  0  0
 63 74  1  0  0  0  0
 64 76  1  0  0  0  0
 66 68  1  0  0  0  0
M  CHG  1  76   1
M  ISO  4  37 100  61 101  75 100  83 101
M  END
> <Batch ID>
0080

> <Smiles>
CCc1cc(C)c(C(C)[100NH:0][100C:0](=O)N2CCCC(n3nc(-c4ccc(Oc5ccc(F)cc5F)cc4)c(C(N)=O)c3N)C2)nc1CC[101CH2:1][101O:1]c1ccc2c(c1)CN(C(=O)C(NC(=O)C(C)NC)C(C)(C)C)C(C(=O)NC1CCCc3ccccc31)C2

> <Shape>
0.219

> <Color>
0.053

> <Negative vol penalty>
0.000

$$$$

  -OEChem-04052318443D

 86 94  0     1  0  0  0  0  0999 V2000
  -34.3570  -24.6091   21.4341 C   0  0  0  0  0  0  0  0  0  0  0  0
  -33.6553  -23.8410   20.5104 C   0  0  0  0  0  0  0  0  0  0  0  0
  -23.1588   -9.8524   19.9189 C   0  0  0  0  0  0  0  0  0  0  0  0
  -23.8297   -9.9070   22.2392 C   0  0  0  0  0  0  0  0  0  0  0  0
  -33.9891  -24.5886   22.7787 C   0  0  0  0  0  0  0  0  0  0  0  0
  -32.5860  -23.0511   20.9311 C   0  0  0  0  0  0  0  0  0  0  0  0
  -28.5694  -23.4287   17.8701 C   0  0  0  0  0  0  0  0  0  0  0  0
  -22.4293   -8.6877   20.1572 C   0  0  0  0  0  0  0  0  0  0  0  0
  -23.1001   -8.7423   22.4776 C   0  0  0  0  0  0  0  0  0  0  0  0
  -28.6134  -22.7180   16.6715 C   0  0  0  0  0  0  0  0  0  0  0  0
  -20.0965   -5.9007   20.2349 C   0  0  0  0  0  0  0  0  0  0  0  0
  -18.8118   -5.8189   19.6979 C   0  0  0  0  0  0  0  0  0  0  0  0
  -27.2404  -20.9931   17.6507 C   0  0  0  0  0  0  0  0  0  0  0  0
  -29.2867  -18.1366   16.3682 C   0  0  0  0  0  0  0  0  0  0  0  0
  -18.1573   -7.7679   20.9669 C   0  0  0  0  0  0  0  0  0  0  0  0
  -31.7718  -18.6574   17.3677 C   0  0  0  0  0  0  0  0  0  0  0  0
  -23.8591  -10.4620   20.9599 C   0  0  0  0  0  0  0  0  0  0  0  0
  -24.1545  -12.9918   20.8158 C   0  0  0  0  0  0  0  0  0  0  0  0
  -32.9086  -23.8055   23.2146 C   0  0  0  0  0  0  0  0  0  0  0  0
  -27.8685  -22.9208   18.9734 C   0  0  0  0  0  0  0  0  0  0  0  0
  -32.2042  -23.0191   22.2831 C   0  0  0  0  0  0  0  0  0  0  0  0
  -27.1870  -21.7005   18.8615 C   0  0  0  0  0  0  0  0  0  0  0  0
  -29.6681  -17.5680   17.5784 C   0  0  0  0  0  0  0  0  0  0  0  0
  -30.9326  -17.8284   18.0946 C   0  0  0  0  0  0  0  0  0  0  0  0
  -22.3999   -8.1327   21.4366 C   0  0  0  0  0  0  0  0  0  0  0  0
  -27.9512  -21.4987   16.5625 C   0  0  0  0  0  0  0  0  0  0  0  0
  -20.4117   -6.9160   21.1379 C   0  0  0  0  0  0  0  0  0  0  0  0
  -17.8422   -6.7525   20.0639 C   0  0  0  0  0  0  0  0  0  0  0  0
  -19.4421   -7.8497   21.5039 C   0  0  0  0  0  0  0  0  0  0  0  0
  -24.6135  -11.6648   20.7142 C   0  0  0  0  0  0  0  0  0  0  0  0
  -30.1994  -18.9519   15.7187 C   0  0  0  0  0  0  0  0  0  0  0  0
  -25.2445  -13.7585   20.4835 C   0  0  0  0  0  0  0  0  0  0  0  0
  -22.8587  -13.4870   21.1784 C   0  0  0  0  0  0  0  0  0  0  0  0
  -28.6641  -22.0254   21.9177 C   0  0  0  0  0  0  0  0  0  0  0  0
  -30.6048  -14.8616   21.0563 C   0  0  0  0  0  0  0  0  0  0  0  0
  -25.4547  -21.7147   22.2713 C   0  0  0  0  0  0  0  0  0  0  0  0
  -22.4115  -21.2326   20.8039 C   0  0  0  0  0  0  0  0  0  0  0  0
  -32.5781  -23.7792   24.6859 C   0  0  0  0  0  0  0  0  0  0  0  0
  -27.8085  -23.7123   20.2510 C   0  0  0  0  0  0  0  0  0  0  0  0
  -26.4035  -21.1215   20.0101 C   0  0  0  0  0  0  0  0  0  0  0  0
  -31.1967  -23.2049   24.9896 C   0  0  0  0  0  0  0  0  0  0  0  0
  -29.6936  -12.4755   18.4672 C   0  0  0  0  0  0  0  0  0  0  0  0
  -30.9714  -21.9144   24.2082 C   0  0  0  0  0  0  0  0  0  0  0  0
  -28.2538  -12.1399   18.8539 C   0  0  0  0  0  0  0  0  0  0  0  0
  -30.5645  -12.7132   19.6981 C   0  0  0  0  0  0  0  0  0  0  0  0
  -28.5904  -13.4259   21.0093 C   0  0  0  0  0  0  0  0  0  0  0  0
  -31.0228  -22.1686   22.6968 C   0  0  1  0  0  0  0  0  0  0  0  0
  -27.4925  -22.8536   21.4717 C   0  0  1  0  0  0  0  0  0  0  0  0
  -27.6718  -13.2088   19.7953 C   0  0  2  0  0  0  0  0  0  0  0  0
  -28.7074  -16.6850   18.3036 C   0  0  0  0  0  0  0  0  0  0  0  0
  -34.2950  -14.6913   18.5732 C   0  0  0  0  0  0  0  0  0  0  0  0
  -32.8134  -15.7182   21.7519 C   0  0  0  0  0  0  0  0  0  0  0  0
  -19.9756  -20.9865   21.3549 C   0  0  0  0  0  0  0  0  0  0  0  0
  -28.7456  -21.5499   13.2466 C   0  0  0  0  0  0  0  0  0  0  0  0
  -25.9624  -18.8633   23.2314 C   0  0  0  0  0  0  0  0  0  0  0  0
  -23.5353  -18.3783   22.8542 C   0  0  0  0  0  0  0  0  0  0  0  0
  -24.2162  -20.1033   24.5226 C   0  0  0  0  0  0  0  0  0  0  0  0
  -21.6929  -23.6305   19.2250 C   0  0  0  0  0  0  0  0  0  0  0  0
  -31.3922  -17.2452   19.3856 C   0  0  0  0  0  0  0  0  0  0  0  0
  -29.8198  -19.5864   14.4015 C   0  0  0  0  0  0  0  0  0  0  0  0
  -33.5654  -16.0157   18.7661 C   0  0  0  0  0  0  0  0  0  0  0  0
  -32.0308  -15.0688   20.6119 C   0  0  2  0  0  0  0  0  0  0  0  0
  -24.4582  -20.6014   22.0557 C   0  0  1  0  0  0  0  0  0  0  0  0
  -21.0860  -21.9530   20.9734 C   0  0  2  0  0  0  0  0  0  0  0  0
  -32.1102  -15.8626   19.2758 C   0  0  1  0  0  0  0  0  0  0  0  0
  -29.1601  -20.9571   14.5874 C   0  0  2  0  0  0  0  0  0  1  0  0
  -24.5593  -19.4963   23.1447 C   0  0  0  0  0  0  0  0  0  0  0  0
  -31.4366  -19.2279   16.1888 N   0  0  0  0  0  0  0  0  0  0  0  0
  -25.8951  -11.5893   20.3459 N   0  0  0  0  0  0  0  0  0  0  0  0
  -26.2508  -12.8785   20.2131 N   0  0  0  0  0  0  0  0  0  0  0  0
  -26.3801  -21.9300   21.2403 N   0  0  0  0  0  0  0  0  0  0  0  0
  -29.9619  -13.7177   20.5826 N   0  0  0  0  0  0  0  0  0  0  0  0
  -25.4307  -15.0929   20.3990 N   0  0  0  0  0  0  0  0  0  0  0  0
  -21.8531  -12.5619   21.4901 N   0  0  0  0  0  0  0  0  0  0  0  0
  -29.7852  -22.7653   22.2423 N   0  0  0  0  0  0  0  0  0  0  0  0
  -23.1480  -21.2373   21.9696 N   0  0  0  0  0  0  0  0  0  0  0  0
  -20.7009  -22.6342   19.7051 N   0  3  0  0  0  0  0  0  0  0  0  0
  -22.5958  -14.7131   21.2085 O   0  0  0  0  0  0  0  0  0  0  0  0
  -28.5584  -20.8054   21.9654 O   0  0  0  0  0  0  0  0  0  0  0  0
  -30.0790  -15.6939   21.7999 O   0  0  0  0  0  0  0  0  0  0  0  0
  -25.4090  -22.3738   23.3130 O   0  0  0  0  0  0  0  0  0  0  0  0
  -22.7571  -20.7141   19.7446 O   0  0  0  0  0  0  0  0  0  0  0  0
  -21.6878   -6.9963   21.6696 O   0  0  0  0  0  0  0  0  0  0  0  0
  -27.9930  -20.8027   15.3939 O   0  0  0  0  0  0  0  0  0  1  0  0
  -16.6089   -6.6748   19.5469 F   0  0  0  0  0  0  0  0  0  0  0  0
  -19.7393   -8.8280   22.3701 F   0  0  0  0  0  0  0  0  0  0  0  0
  1  2  1  0  0  0  0
  1  5  2  0  0  0  0
  2  6  2  0  0  0  0
  3  8  2  0  0  0  0
  3 17  1  0  0  0  0
  4  9  1  0  0  0  0
  4 17  2  0  0  0  0
  5 19  1  0  0  0  0
  6 21  1  0  0  0  0
  7 10  2  0  0  0  0
  7 20  1  0  0  0  0
  8 25  1  0  0  0  0
  9 25  2  0  0  0  0
 10 26  1  0  0  0  0
 11 12  2  0  0  0  0
 11 27  1  0  0  0  0
 12 28  1  0  0  0  0
 13 22  1  0  0  0  0
 13 26  2  0  0  0  0
 14 23  1  0  0  0  0
 14 31  2  0  0  0  0
 15 28  2  0  0  0  0
 15 29  1  0  0  0  0
 16 24  1  0  0  0  0
 16 68  2  0  0  0  0
 17 30  1  0  0  0  0
 18 30  1  0  0  0  0
 18 32  2  0  0  0  0
 18 33  1  0  0  0  0
 19 21  2  0  0  0  0
 19 38  1  0  0  0  0
 20 22  2  0  0  0  0
 20 39  1  0  0  0  0
 21 47  1  0  0  0  0
 22 40  1  0  0  0  0
 23 24  2  0  0  0  0
 23 50  1  0  0  0  0
 24 59  1  0  0  0  0
 25 83  1  0  0  0  0
 26 84  1  0  0  0  0
 27 29  2  0  0  0  0
 27 83  1  0  0  0  0
 28 85  1  0  0  0  0
 29 86  1  0  0  0  0
 30 69  2  0  0  0  0
 31 60  1  0  0  0  0
 31 68  1  0  0  0  0
 32 70  1  0  0  0  0
 32 73  1  0  0  0  0
 33 74  1  0  0  0  0
 33 78  2  0  0  0  0
 34 48  1  0  0  0  0
 34 75  1  0  0  0  0
 34 79  2  0  0  0  0
 35 62  1  0  0  0  0
 35 72  1  0  0  0  0
 35 80  2  0  0  0  0
 36 63  1  0  0  0  0
 36 71  1  0  0  0  0
 36 81  2  0  0  0  0
 37 64  1  0  0  0  0
 37 76  1  0  0  0  0
 37 82  2  0  0  0  0
 38 41  1  0  0  0  0
 39 48  1  0  0  0  0
 40 71  1  0  0  0  0
 41 43  1  0  0  0  0
 42 44  1  0  0  0  0
 42 45  1  0  0  0  0
 43 47  1  0  0  0  0
 44 49  1  0  0  0  0
 45 72  1  0  0  0  0
 46 49  1  0  0  0  0
 46 72  1  0  0  0  0
 47 75  1  0  0  0  0
 48 71  1  0  0  0  0
 49 70  1  0  0  0  0
 51 61  1  0  0  0  0
 52 62  1  0  0  0  0
 53 64  1  0  0  0  0
 54 66  1  0  0  0  0
 55 67  1  0  0  0  0
 56 67  1  0  0  0  0
 57 67  1  0  0  0  0
 58 77  1  0  0  0  0
 59 65  1  0  0  0  0
 60 66  1  0  0  0  0
 61 65  1  0  0  0  0
 62 65  1  0  0  0  0
 63 67  1  0  0  0  0
 63 76  1  0  0  0  0
 64 77  1  0  0  0  0
 66 84  1  0  0  0  0
 69 70  1  0  0  0  0
M  CHG  1  77   1
M  ISO  4  35 100  62 100  66 101  84 101
M  END
> <Batch ID>
0080

> <Smiles>
CCC(Cc1cnc(C[101CH:1](C)[101O:1]c2ccc3c(c2)CN(C(=O)C(NC(=O)C(C)NC)C(C)(C)C)C(C(=O)NC2CCCc4ccccc42)C3)cc1C)[100CH:0](C)[100C:0](=O)N1CCCC(n2nc(-c3ccc(Oc4ccc(F)cc4F)cc3)c(C(N)=O)c2N)C1

> <Shape>
0.176

> <Color>
0.167

> <Negative vol penalty>
0.000

$$$$

  -OEChem-04052318443D

 84 92  0     1  0  0  0  0  0999 V2000
  -20.3078  -11.9096   17.9006 C   0  0  0  0  0  0  0  0  0  0  0  0
  -20.7020  -13.2211   17.6556 C   0  0  0  0  0  0  0  0  0  0  0  0
  -21.0665  -29.9365   19.6649 C   0  0  0  0  0  0  0  0  0  0  0  0
  -21.8871  -27.8151   20.4794 C   0  0  0  0  0  0  0  0  0  0  0  0
  -20.9445  -11.1654   18.8930 C   0  0  0  0  0  0  0  0  0  0  0  0
  -21.7323  -13.7896   18.4037 C   0  0  0  0  0  0  0  0  0  0  0  0
  -27.1141  -18.4826   17.8312 C   0  0  0  0  0  0  0  0  0  0  0  0
  -30.3196  -23.3111   20.0202 C   0  0  0  0  0  0  0  0  0  0  0  0
  -19.8160  -29.3638   19.4329 C   0  0  0  0  0  0  0  0  0  0  0  0
  -20.6366  -27.2423   20.2475 C   0  0  0  0  0  0  0  0  0  0  0  0
  -27.6270  -19.6154   18.4617 C   0  0  0  0  0  0  0  0  0  0  0  0
  -17.6160  -27.1624   21.7607 C   0  0  0  0  0  0  0  0  0  0  0  0
  -17.0842  -26.3451   22.7581 C   0  0  0  0  0  0  0  0  0  0  0  0
  -30.6413  -24.3431   19.1458 C   0  0  0  0  0  0  0  0  0  0  0  0
  -28.7078  -18.2088   20.0965 C   0  0  0  0  0  0  0  0  0  0  0  0
  -17.0249  -24.4926   21.2082 C   0  0  0  0  0  0  0  0  0  0  0  0
  -22.1021  -29.1622   20.1881 C   0  0  0  0  0  0  0  0  0  0  0  0
  -23.8377  -30.3779   21.6084 C   0  0  0  0  0  0  0  0  0  0  0  0
  -21.9896  -11.7219   19.6471 C   0  0  0  0  0  0  0  0  0  0  0  0
  -27.3857  -17.2028   18.3358 C   0  0  0  0  0  0  0  0  0  0  0  0
  -22.3827  -13.0526   19.4080 C   0  0  0  0  0  0  0  0  0  0  0  0
  -28.1993  -17.0613   19.4691 C   0  0  0  0  0  0  0  0  0  0  0  0
  -29.2626  -23.4655   20.9104 C   0  0  0  0  0  0  0  0  0  0  0  0
  -19.6011  -28.0167   19.7242 C   0  0  0  0  0  0  0  0  0  0  0  0
  -28.4216  -19.4788   19.5962 C   0  0  0  0  0  0  0  0  0  0  0  0
  -17.8522  -26.6450   20.4871 C   0  0  0  0  0  0  0  0  0  0  0  0
  -16.7887  -25.0102   22.4818 C   0  0  0  0  0  0  0  0  0  0  0  0
  -17.5566  -25.3100   20.2109 C   0  0  0  0  0  0  0  0  0  0  0  0
  -23.3942  -29.7531   20.4274 C   0  0  0  0  0  0  0  0  0  0  0  0
  -29.8812  -25.5003   19.2008 C   0  0  0  0  0  0  0  0  0  0  0  0
  -28.5644  -24.6621   20.8865 C   0  0  0  0  0  0  0  0  0  0  0  0
  -25.1247  -30.7673   21.3284 C   0  0  0  0  0  0  0  0  0  0  0  0
  -23.1480  -30.5874   22.8478 C   0  0  0  0  0  0  0  0  0  0  0  0
  -25.6206  -14.8302   19.5015 C   0  0  0  0  0  0  0  0  0  0  0  0
  -28.4507  -13.2450   19.5017 C   0  0  0  0  0  0  0  0  0  0  0  0
  -31.8592  -13.4016   19.5686 C   0  0  0  0  0  0  0  0  0  0  0  0
  -29.2402  -28.7692   17.4656 C   0  0  0  0  0  0  0  0  0  0  0  0
  -22.6159  -10.8941   20.7412 C   0  0  0  0  0  0  0  0  0  0  0  0
  -26.8469  -15.9896   17.6286 C   0  0  0  0  0  0  0  0  0  0  0  0
  -28.5371  -15.7086   20.0388 C   0  0  0  0  0  0  0  0  0  0  0  0
  -23.9506  -11.4467   21.2349 C   0  0  0  0  0  0  0  0  0  0  0  0
  -27.9320  -32.0735   17.6809 C   0  0  0  0  0  0  0  0  0  0  0  0
  -23.8492  -12.9492   21.4779 C   0  0  0  0  0  0  0  0  0  0  0  0
  -26.6607  -31.9099   18.5158 C   0  0  0  0  0  0  0  0  0  0  0  0
  -28.1564  -30.8802   16.7548 C   0  0  0  0  0  0  0  0  0  0  0  0
  -26.8816  -29.4030   18.2602 C   0  0  0  0  0  0  0  0  0  0  0  0
  -23.5129  -13.6962   20.1816 C   0  0  1  0  0  0  0  0  0  0  0  0
  -26.7638  -14.7608   18.5289 C   0  0  1  0  0  0  0  0  0  0  0  0
  -26.6426  -30.5558   19.2503 C   0  0  2  0  0  0  0  0  0  0  0  0
  -26.5880  -26.1044   21.4343 C   0  0  0  0  0  0  0  0  0  0  0  0
  -33.8982  -11.9391   19.5976 C   0  0  0  0  0  0  0  0  0  0  0  0
  -27.9581  -12.6210   22.4475 C   0  0  0  0  0  0  0  0  0  0  0  0
  -30.3797  -12.0193   22.6531 C   0  0  0  0  0  0  0  0  0  0  0  0
  -28.8993  -10.7207   21.1218 C   0  0  0  0  0  0  0  0  0  0  0  0
  -26.7845  -21.5958   20.6393 C   0  0  0  0  0  0  0  0  0  0  0  0
  -27.8949  -20.0965   22.3124 C   0  0  0  0  0  0  0  0  0  0  0  0
  -32.8401  -14.5200   17.0101 C   0  0  0  0  0  0  0  0  0  0  0  0
  -28.9089  -22.3475   21.8644 C   0  0  0  0  0  0  0  0  0  0  0  0
  -27.4178  -24.8829   21.8177 C   0  0  0  0  0  0  0  0  0  0  0  0
  -30.1977  -26.6275   18.2753 C   0  0  0  0  0  0  0  0  0  0  0  0
  -29.5792  -13.0722   20.4893 C   0  0  1  0  0  0  0  0  0  0  0  0
  -32.9161  -12.7084   18.7279 C   0  0  2  0  0  0  0  0  0  0  0  0
  -29.1963  -12.1340   21.6686 C   0  0  0  0  0  0  0  0  0  0  0  0
  -28.1261  -21.1702   21.2416 C   0  0  0  0  0  0  0  0  0  1  0  0
  -24.3240  -29.7441   19.4685 N   0  0  0  0  0  0  0  0  0  0  0  0
  -28.8474  -25.6871   20.0516 N   0  0  0  0  0  0  0  0  0  0  0  0
  -25.3645  -30.3680   20.0465 N   0  0  0  0  0  0  0  0  0  0  0  0
  -27.9814  -14.5530   19.3154 N   0  0  0  0  0  0  0  0  0  0  0  0
  -28.1293  -29.6275   17.5136 N   0  0  0  0  0  0  0  0  0  0  0  0
  -26.0634  -31.4090   22.0561 N   0  0  0  0  0  0  0  0  0  0  0  0
  -21.8306  -30.1240   22.9659 N   0  0  0  0  0  0  0  0  0  0  0  0
  -24.6904  -13.8197   19.3494 N   0  0  0  0  0  0  0  0  0  0  0  0
  -30.7320  -12.6214   19.7172 N   0  0  0  0  0  0  0  0  0  0  0  0
  -29.1348  -27.6062   18.2186 N   0  0  0  0  0  0  0  0  0  0  0  0
  -33.6794  -13.7077   17.9281 N   0  3  0  0  0  0  0  0  0  0  0  0
  -23.6784  -31.1830   23.8161 O   0  0  0  0  0  0  0  0  0  0  0  0
  -25.5858  -15.7328   20.3296 O   0  0  0  0  0  0  0  0  0  0  0  0
  -28.0068  -12.2568   18.9117 O   0  0  0  0  0  0  0  0  0  0  0  0
  -32.0191  -14.5216   20.0488 O   0  0  0  0  0  0  0  0  0  0  0  0
  -30.2533  -29.0233   16.8052 O   0  0  0  0  0  0  0  0  0  0  0  0
  -18.3809  -27.4575   19.4982 O   0  0  0  0  0  0  0  0  0  0  0  0
  -28.9230  -20.5828   20.2139 O   0  0  0  0  0  0  0  0  0  1  0  0
  -16.2794  -24.2250   23.4401 F   0  0  0  0  0  0  0  0  0  0  0  0
  -17.7824  -24.8069   18.9895 F   0  0  0  0  0  0  0  0  0  0  0  0
  1  2  1  0  0  0  0
  1  5  2  0  0  0  0
  2  6  2  0  0  0  0
  3  9  2  0  0  0  0
  3 17  1  0  0  0  0
  4 10  1  0  0  0  0
  4 17  2  0  0  0  0
  5 19  1  0  0  0  0
  6 21  1  0  0  0  0
  7 11  2  0  0  0  0
  7 20  1  0  0  0  0
  8 14  2  0  0  0  0
  8 23  1  0  0  0  0
  9 24  1  0  0  0  0
 10 24  2  0  0  0  0
 11 25  1  0  0  0  0
 12 13  2  0  0  0  0
 12 26  1  0  0  0  0
 13 27  1  0  0  0  0
 14 30  1  0  0  0  0
 15 22  1  0  0  0  0
 15 25  2  0  0  0  0
 16 27  2  0  0  0  0
 16 28  1  0  0  0  0
 17 29  1  0  0  0  0
 18 29  1  0  0  0  0
 18 32  2  0  0  0  0
 18 33  1  0  0  0  0
 19 21  2  0  0  0  0
 19 38  1  0  0  0  0
 20 22  2  0  0  0  0
 20 39  1  0  0  0  0
 21 47  1  0  0  0  0
 22 40  1  0  0  0  0
 23 31  2  0  0  0  0
 23 58  1  0  0  0  0
 24 81  1  0  0  0  0
 25 82  1  0  0  0  0
 26 28  2  0  0  0  0
 26 81  1  0  0  0  0
 27 83  1  0  0  0  0
 28 84  1  0  0  0  0
 29 65  2  0  0  0  0
 30 60  1  0  0  0  0
 30 66  2  0  0  0  0
 31 59  1  0  0  0  0
 31 66  1  0  0  0  0
 32 67  1  0  0  0  0
 32 70  1  0  0  0  0
 33 71  1  0  0  0  0
 33 76  2  0  0  0  0
 34 48  1  0  0  0  0
 34 72  1  0  0  0  0
 34 77  2  0  0  0  0
 35 61  1  0  0  0  0
 35 68  1  0  0  0  0
 35 78  2  0  0  0  0
 36 62  1  0  0  0  0
 36 73  1  0  0  0  0
 36 79  2  0  0  0  0
 37 69  1  0  0  0  0
 37 74  1  0  0  0  0
 37 80  2  0  0  0  0
 38 41  1  0  0  0  0
 39 48  1  0  0  0  0
 40 68  1  0  0  0  0
 41 43  1  0  0  0  0
 42 44  1  0  0  0  0
 42 45  1  0  0  0  0
 43 47  1  0  0  0  0
 44 49  1  0  0  0  0
 45 69  1  0  0  0  0
 46 49  1  0  0  0  0
 46 69  1  0  0  0  0
 47 72  1  0  0  0  0
 48 68  1  0  0  0  0
 49 67  1  0  0  0  0
 50 59  1  0  0  0  0
 51 62  1  0  0  0  0
 52 63  1  0  0  0  0
 53 63  1  0  0  0  0
 54 63  1  0  0  0  0
 55 64  1  0  0  0  0
 56 64  1  0  0  0  0
 57 75  1  0  0  0  0
 58 64  1  0  0  0  0
 60 74  1  0  0  0  0
 61 63  1  0  0  0  0
 61 73  1  0  0  0  0
 62 75  1  0  0  0  0
 64 82  1  0  0  0  0
 65 67  1  0  0  0  0
M  CHG  1  75   1
M  ISO  4  37 100  64 101  74 100  82 101
M  END
> <Batch ID>
0080

> <Smiles>
CCc1nc(C[100NH:0][100C:0](=O)N2CCCC(n3nc(-c4ccc(Oc5ccc(F)cc5F)cc4)c(C(N)=O)c3N)C2)ccc1C[101C:1](C)(C)[101O:1]c1ccc2c(c1)CN(C(=O)C(NC(=O)C(C)NC)C(C)(C)C)C(C(=O)NC1CCCc3ccccc31)C2

> <Shape>
0.259

> <Color>
0.079

> <Negative vol penalty>
0.000

$$$$

  -OEChem-04052318443D

 89 97  0     1  0  0  0  0  0999 V2000
  -20.4198  -33.6648   24.1016 C   0  0  0  0  0  0  0  0  0  0  0  0
  -21.6953  -33.2320   23.7534 C   0  0  0  0  0  0  0  0  0  0  0  0
  -26.2316  -14.2892   22.0296 C   0  0  0  0  0  0  0  0  0  0  0  0
  -24.8623  -15.8608   20.8081 C   0  0  0  0  0  0  0  0  0  0  0  0
  -19.4109  -32.7335   24.3439 C   0  0  0  0  0  0  0  0  0  0  0  0
  -21.9629  -31.8675   23.6483 C   0  0  0  0  0  0  0  0  0  0  0  0
  -25.7824  -29.1583   19.7015 C   0  0  0  0  0  0  0  0  0  0  0  0
  -25.1311  -13.4451   22.1773 C   0  0  0  0  0  0  0  0  0  0  0  0
  -23.7618  -15.0166   20.9557 C   0  0  0  0  0  0  0  0  0  0  0  0
  -27.0944  -28.7038   19.8277 C   0  0  0  0  0  0  0  0  0  0  0  0
  -23.4435  -11.2000   20.2945 C   0  0  0  0  0  0  0  0  0  0  0  0
  -23.6337   -9.8392   20.0548 C   0  0  0  0  0  0  0  0  0  0  0  0
  -26.2743  -26.4805   20.2792 C   0  0  0  0  0  0  0  0  0  0  0  0
  -22.9589   -9.3457   22.3216 C   0  0  0  0  0  0  0  0  0  0  0  0
  -29.1255  -23.1545   18.3330 C   0  0  0  0  0  0  0  0  0  0  0  0
  -26.0972  -15.4972   21.3451 C   0  0  0  0  0  0  0  0  0  0  0  0
  -28.1706  -16.3700   20.1421 C   0  0  0  0  0  0  0  0  0  0  0  0
  -19.6638  -31.3572   24.2323 C   0  0  0  0  0  0  0  0  0  0  0  0
  -24.7045  -28.2781   19.8743 C   0  0  0  0  0  0  0  0  0  0  0  0
  -20.9567  -30.9169   23.8906 C   0  0  0  0  0  0  0  0  0  0  0  0
  -24.9497  -26.9258   20.1521 C   0  0  0  0  0  0  0  0  0  0  0  0
  -23.8962  -13.8087   21.6403 C   0  0  0  0  0  0  0  0  0  0  0  0
  -27.3405  -27.3654   20.1194 C   0  0  0  0  0  0  0  0  0  0  0  0
  -23.0112  -11.6338   21.5478 C   0  0  0  0  0  0  0  0  0  0  0  0
  -23.3913   -8.9120   21.0683 C   0  0  0  0  0  0  0  0  0  0  0  0
  -22.7688  -10.7066   22.5613 C   0  0  0  0  0  0  0  0  0  0  0  0
  -27.2336  -16.3699   21.1928 C   0  0  0  0  0  0  0  0  0  0  0  0
  -27.8129  -22.8180   18.5083 C   0  0  0  0  0  0  0  0  0  0  0  0
  -29.0442  -17.3806   20.4613 C   0  0  0  0  0  0  0  0  0  0  0  0
  -27.8941  -24.5760   17.1654 C   0  0  0  0  0  0  0  0  0  0  0  0
  -28.2446  -15.5315   18.9814 C   0  0  0  0  0  0  0  0  0  0  0  0
  -22.2655  -28.0897   21.9040 C   0  0  0  0  0  0  0  0  0  0  0  0
  -21.3467  -25.6562   19.9658 C   0  0  0  0  0  0  0  0  0  0  0  0
  -22.2349  -23.2619   17.7019 C   0  0  0  0  0  0  0  0  0  0  0  0
  -28.1124  -22.2046   24.1218 C   0  0  0  0  0  0  0  0  0  0  0  0
  -18.5535  -30.3870   24.5499 C   0  0  0  0  0  0  0  0  0  0  0  0
  -23.2957  -28.7785   19.7085 C   0  0  0  0  0  0  0  0  0  0  0  0
  -23.8279  -25.9361   20.3269 C   0  0  0  0  0  0  0  0  0  0  0  0
  -18.8222  -28.9694   24.0514 C   0  0  0  0  0  0  0  0  0  0  0  0
  -30.8644  -19.7304   24.2031 C   0  0  0  0  0  0  0  0  0  0  0  0
  -20.2405  -28.5373   24.4102 C   0  0  0  0  0  0  0  0  0  0  0  0
  -30.2853  -18.5619   23.4072 C   0  0  0  0  0  0  0  0  0  0  0  0
  -29.7724  -20.5466   24.8879 C   0  0  0  0  0  0  0  0  0  0  0  0
  -28.1341  -19.8637   23.1664 C   0  0  0  0  0  0  0  0  0  0  0  0
  -21.2796  -29.4459   23.7423 C   0  0  1  0  0  0  0  0  0  0  0  0
  -22.2640  -27.9030   20.4131 C   0  0  1  0  0  0  0  0  0  0  0  0
  -29.2048  -19.0484   22.4259 C   0  0  2  0  0  0  0  0  0  0  0  0
  -27.4706  -25.6918   16.2830 C   0  0  0  0  0  0  0  0  0  0  0  0
  -21.2706  -21.3998   16.3235 C   0  0  0  0  0  0  0  0  0  0  0  0
  -31.6160  -27.1322   16.8898 C   0  0  0  0  0  0  0  0  0  0  0  0
  -21.1833  -23.9007   22.4561 C   0  0  0  0  0  0  0  0  0  0  0  0
  -21.1591  -21.8961   20.9563 C   0  0  0  0  0  0  0  0  0  0  0  0
  -19.3168  -23.5728   20.8242 C   0  0  0  0  0  0  0  0  0  0  0  0
  -31.1716  -26.5984   21.6133 C   0  0  0  0  0  0  0  0  0  0  0  0
  -32.1307  -28.3085   20.0704 C   0  0  0  0  0  0  0  0  0  0  0  0
  -27.0204  -24.1679   23.1057 C   0  0  0  0  0  0  0  0  0  0  0  0
  -23.0478  -24.5599   15.1695 C   0  0  0  0  0  0  0  0  0  0  0  0
  -27.1833  -21.7492   19.2880 C   0  0  0  0  0  0  0  0  0  0  0  0
  -26.8280  -22.1172   20.7539 C   0  0  0  0  0  0  0  0  0  0  0  0
  -31.2638  -26.0714   19.1677 C   0  0  0  0  0  0  0  0  0  0  0  0
  -30.3935  -24.9566   17.0288 C   0  0  0  0  0  0  0  0  0  0  0  0
  -28.0370  -22.4911   21.6088 C   0  0  0  0  0  0  0  0  0  0  0  0
  -29.6623  -27.8770   20.0626 C   0  0  0  0  0  0  0  0  0  1  0  0
  -21.6023  -24.1690   19.9226 C   0  0  1  0  0  0  0  0  0  0  0  0
  -21.6403  -22.8745   16.3600 C   0  0  2  0  0  0  0  0  0  0  0  0
  -30.6621  -26.2962   17.7556 C   0  0  2  0  0  0  0  0  0  0  0  0
  -20.8367  -23.4035   21.0385 C   0  0  0  0  0  0  0  0  0  0  0  0
  -31.0545  -27.2190   20.2028 C   0  0  0  0  0  0  0  0  0  0  0  0
  -27.4882  -17.3060   22.1108 N   0  0  0  0  0  0  0  0  0  0  0  0
  -29.1462  -24.2451   17.4974 N   0  0  0  0  0  0  0  0  0  0  0  0
  -28.5951  -17.9037   21.6381 N   0  0  0  0  0  0  0  0  0  0  0  0
  -27.0734  -23.7143   17.7748 N   0  3  0  0  0  0  0  0  0  0  0  0
  -22.4679  -26.4750   20.1613 N   0  0  0  0  0  0  0  0  0  0  0  0
  -28.7364  -20.9594   23.9405 N   0  0  0  0  0  0  0  0  0  0  0  0
  -30.1452  -17.8637   19.8475 N   0  0  0  0  0  0  0  0  0  0  0  0
  -27.2663  -14.5430   18.8078 N   0  0  0  0  0  0  0  0  0  0  0  0
  -21.4312  -29.0989   22.3455 N   0  0  0  0  0  0  0  0  0  0  0  0
  -21.2734  -23.7375   18.5684 N   0  0  0  0  0  0  0  0  0  0  0  0
  -27.6634  -22.8686   22.9702 N   0  0  0  0  0  0  0  0  0  0  0  0
  -22.6152  -23.1419   15.2649 N   0  3  0  0  0  0  0  0  0  0  0  0
  -29.1607  -15.6445   18.1321 O   0  0  0  0  0  0  0  0  0  0  0  0
  -22.9703  -27.3703   22.6022 O   0  0  0  0  0  0  0  0  0  0  0  0
  -20.1956  -26.0764   19.8240 O   0  0  0  0  0  0  0  0  0  0  0  0
  -23.4318  -23.1501   17.9574 O   0  0  0  0  0  0  0  0  0  0  0  0
  -27.9735  -22.6992   25.2478 O   0  0  0  0  0  0  0  0  0  0  0  0
  -22.8221  -12.9851   21.7839 O   0  0  0  0  0  0  0  0  0  0  0  0
  -28.6201  -26.9192   20.2438 O   0  0  0  0  0  0  0  0  0  1  0  0
  -23.5725   -7.6050   20.8376 F   0  0  0  0  0  0  0  0  0  0  0  0
  -22.3522  -11.1171   23.7670 F   0  0  0  0  0  0  0  0  0  0  0  0
  1  2  1  0  0  0  0
  1  5  2  0  0  0  0
  2  6  2  0  0  0  0
  3  8  2  0  0  0  0
  3 16  1  0  0  0  0
  4  9  1  0  0  0  0
  4 16  2  0  0  0  0
  5 18  1  0  0  0  0
  6 20  1  0  0  0  0
  7 10  2  0  0  0  0
  7 19  1  0  0  0  0
  8 22  1  0  0  0  0
  9 22  2  0  0  0  0
 10 23  1  0  0  0  0
 11 12  2  0  0  0  0
 11 24  1  0  0  0  0
 12 25  1  0  0  0  0
 13 21  1  0  0  0  0
 13 23  2  0  0  0  0
 14 25  2  0  0  0  0
 14 26  1  0  0  0  0
 15 28  2  0  0  0  0
 15 70  1  0  0  0  0
 16 27  1  0  0  0  0
 17 27  1  0  0  0  0
 17 29  2  0  0  0  0
 17 31  1  0  0  0  0
 18 20  2  0  0  0  0
 18 36  1  0  0  0  0
 19 21  2  0  0  0  0
 19 37  1  0  0  0  0
 20 45  1  0  0  0  0
 21 38  1  0  0  0  0
 22 86  1  0  0  0  0
 23 87  1  0  0  0  0
 24 26  2  0  0  0  0
 24 86  1  0  0  0  0
 25 88  1  0  0  0  0
 26 89  1  0  0  0  0
 27 69  2  0  0  0  0
 28 58  1  0  0  0  0
 28 72  1  0  0  0  0
 29 71  1  0  0  0  0
 29 75  1  0  0  0  0
 30 48  1  0  0  0  0
 30 70  1  0  0  0  0
 30 72  2  0  0  0  0
 31 76  1  0  0  0  0
 31 81  2  0  0  0  0
 32 46  1  0  0  0  0
 32 77  1  0  0  0  0
 32 82  2  0  0  0  0
 33 64  1  0  0  0  0
 33 73  1  0  0  0  0
 33 83  2  0  0  0  0
 34 65  1  0  0  0  0
 34 78  1  0  0  0  0
 34 84  2  0  0  0  0
 35 74  1  0  0  0  0
 35 79  1  0  0  0  0
 35 85  2  0  0  0  0
 36 39  1  0  0  0  0
 37 46  1  0  0  0  0
 38 73  1  0  0  0  0
 39 41  1  0  0  0  0
 40 42  1  0  0  0  0
 40 43  1  0  0  0  0
 41 45  1  0  0  0  0
 42 47  1  0  0  0  0
 43 74  1  0  0  0  0
 44 47  1  0  0  0  0
 44 74  1  0  0  0  0
 45 77  1  0  0  0  0
 46 73  1  0  0  0  0
 47 71  1  0  0  0  0
 49 65  1  0  0  0  0
 50 66  1  0  0  0  0
 51 67  1  0  0  0  0
 52 67  1  0  0  0  0
 53 67  1  0  0  0  0
 54 68  1  0  0  0  0
 55 68  1  0  0  0  0
 56 79  1  0  0  0  0
 57 80  1  0  0  0  0
 58 59  1  0  0  0  0
 59 62  1  0  0  0  0
 60 66  1  0  0  0  0
 60 68  1  0  0  0  0
 61 66  1  0  0  0  0
 61 70  1  0  0  0  0
 62 79  1  0  0  0  0
 63 68  1  0  0  0  0
 63 87  1  0  0  0  0
 64 67  1  0  0  0  0
 64 78  1  0  0  0  0
 65 80  1  0  0  0  0
 69 71  1  0  0  0  0
M  CHG  2  72   1  80   1
M  ISO  4  35 100  63 101  79 100  87 101
M  END
> <Batch ID>
0080

> <Smiles>
CNC(C)C(=O)NC(C(=O)N1Cc2cc([101O:1][101CH2:1]C(C)(C)CC(C)Cn3cc(CCC[100N:0](C)[100C:0](=O)N4CCCC(n5nc(-c6ccc(Oc7ccc(F)cc7F)cc6)c(C(N)=O)c5N)C4)nc3C)ccc2CC1C(=O)NC1CCCc2ccccc21)C(C)(C)C

> <Shape>
0.228

> <Color>
0.075

> <Negative vol penalty>
0.000

$$$$

  -OEChem-04052318443D

 88 96  0     1  0  0  0  0  0999 V2000
  -28.0779  -24.1068   18.1183 C   0  0  0  0  0  0  0  0  0  0  0  0
  -26.9101  -24.4006   18.8151 C   0  0  0  0  0  0  0  0  0  0  0  0
  -23.5915   -9.8357   22.2075 C   0  0  0  0  0  0  0  0  0  0  0  0
  -22.6470   -9.9849   19.9888 C   0  0  0  0  0  0  0  0  0  0  0  0
  -29.2791  -24.7108   18.4873 C   0  0  0  0  0  0  0  0  0  0  0  0
  -26.9432  -25.2978   19.8820 C   0  0  0  0  0  0  0  0  0  0  0  0
  -23.1142  -28.6095   19.7548 C   0  0  0  0  0  0  0  0  0  0  0  0
  -23.0513   -8.5578   22.3515 C   0  0  0  0  0  0  0  0  0  0  0  0
  -22.1068   -8.7070   20.1327 C   0  0  0  0  0  0  0  0  0  0  0  0
  -21.8668  -28.1574   20.1831 C   0  0  0  0  0  0  0  0  0  0  0  0
  -23.7835   -5.4154   21.3406 C   0  0  0  0  0  0  0  0  0  0  0  0
  -24.6037   -4.4212   21.8739 C   0  0  0  0  0  0  0  0  0  0  0  0
  -22.2240  -29.2159   22.3211 C   0  0  0  0  0  0  0  0  0  0  0  0
  -20.4397  -23.4663   23.6682 C   0  0  0  0  0  0  0  0  0  0  0  0
  -23.0478   -4.1154   23.6967 C   0  0  0  0  0  0  0  0  0  0  0  0
  -23.3893  -10.5493   21.0261 C   0  0  0  0  0  0  0  0  0  0  0  0
  -25.2126  -12.2046   20.3604 C   0  0  0  0  0  0  0  0  0  0  0  0
  -29.3251  -25.6232   19.5531 C   0  0  0  0  0  0  0  0  0  0  0  0
  -23.9319  -29.3602   20.6117 C   0  0  0  0  0  0  0  0  0  0  0  0
  -28.1465  -25.9136   20.2664 C   0  0  0  0  0  0  0  0  0  0  0  0
  -23.4802  -29.6785   21.9004 C   0  0  0  0  0  0  0  0  0  0  0  0
  -21.5167  -22.6075   23.5368 C   0  0  0  0  0  0  0  0  0  0  0  0
  -22.3090   -7.9934   21.3142 C   0  0  0  0  0  0  0  0  0  0  0  0
  -21.4228  -28.4581   21.4674 C   0  0  0  0  0  0  0  0  0  0  0  0
  -22.5955   -5.7597   21.9854 C   0  0  0  0  0  0  0  0  0  0  0  0
  -24.2359   -3.7712   23.0519 C   0  0  0  0  0  0  0  0  0  0  0  0
  -22.2276   -5.1097   23.1634 C   0  0  0  0  0  0  0  0  0  0  0  0
  -23.9466  -11.8696   20.8770 C   0  0  0  0  0  0  0  0  0  0  0  0
  -20.6735  -24.8205   23.5379 C   0  0  0  0  0  0  0  0  0  0  0  0
  -22.7563  -23.1597   23.2835 C   0  0  0  0  0  0  0  0  0  0  0  0
  -25.2606  -13.5754   20.4312 C   0  0  0  0  0  0  0  0  0  0  0  0
  -26.2522  -11.3528   19.8610 C   0  0  0  0  0  0  0  0  0  0  0  0
  -26.8116  -28.9507   21.8934 C   0  0  0  0  0  0  0  0  0  0  0  0
  -26.3478  -31.9850   22.9422 C   0  0  0  0  0  0  0  0  0  0  0  0
  -24.1490  -34.4661   23.7522 C   0  0  0  0  0  0  0  0  0  0  0  0
  -23.1342  -18.4692   19.7311 C   0  0  0  0  0  0  0  0  0  0  0  0
  -30.6558  -26.2149   19.9452 C   0  0  0  0  0  0  0  0  0  0  0  0
  -25.2634  -29.8632   20.1253 C   0  0  0  0  0  0  0  0  0  0  0  0
  -24.3113  -30.4985   22.8520 C   0  0  0  0  0  0  0  0  0  0  0  0
  -30.5354  -27.4396   20.8485 C   0  0  0  0  0  0  0  0  0  0  0  0
  -22.2172  -16.8732   22.7450 C   0  0  0  0  0  0  0  0  0  0  0  0
  -29.5380  -27.1779   21.9726 C   0  0  0  0  0  0  0  0  0  0  0  0
  -22.6833  -15.4417   22.4834 C   0  0  0  0  0  0  0  0  0  0  0  0
  -21.5909  -17.5097   21.5028 C   0  0  0  0  0  0  0  0  0  0  0  0
  -22.9207  -16.0214   20.0402 C   0  0  0  0  0  0  0  0  0  0  0  0
  -28.1372  -26.9005   21.4136 C   0  0  1  0  0  0  0  0  0  0  0  0
  -26.2317  -30.1835   21.2598 C   0  0  1  0  0  0  0  0  0  0  0  0
  -23.6081  -15.3800   21.2554 C   0  0  2  0  0  0  0  0  0  0  0  0
  -21.3186  -21.1371   23.6680 C   0  0  0  0  0  0  0  0  0  0  0  0
  -24.0668  -36.8211   24.6152 C   0  0  0  0  0  0  0  0  0  0  0  0
  -25.2224  -23.1833   22.8515 C   0  0  0  0  0  0  0  0  0  0  0  0
  -24.3497  -21.4495   24.3920 C   0  0  0  0  0  0  0  0  0  0  0  0
  -26.9605  -30.9732   25.7549 C   0  0  0  0  0  0  0  0  0  0  0  0
  -25.9532  -33.0803   26.6570 C   0  0  0  0  0  0  0  0  0  0  0  0
  -27.9750  -33.1907   25.1999 C   0  0  0  0  0  0  0  0  0  0  0  0
  -21.0329  -19.8776   19.8072 C   0  0  0  0  0  0  0  0  0  0  0  0
  -22.8242  -35.4442   21.2931 C   0  0  0  0  0  0  0  0  0  0  0  0
  -19.5345  -25.7993   23.6727 C   0  0  0  0  0  0  0  0  0  0  0  0
  -18.8283  -26.1084   22.3508 C   0  0  0  0  0  0  0  0  0  0  0  0
  -23.2521  -21.9033   20.6397 C   0  0  0  0  0  0  0  0  0  0  0  0
  -23.8504  -21.2902   21.9173 C   0  0  0  0  0  0  0  0  0  0  0  0
  -23.2443  -20.9185   19.4726 C   0  0  0  0  0  0  0  0  0  0  0  0
  -19.7300  -26.7933   21.3304 C   0  0  0  0  0  0  0  0  0  1  0  0
  -25.7384  -32.6088   24.1745 C   0  0  1  0  0  0  0  0  0  0  0  0
  -24.1075  -35.9369   23.3785 C   0  0  2  0  0  0  0  0  0  0  0  0
  -23.9629  -22.2966   23.1307 C   0  0  0  0  0  0  0  0  0  0  0  0
  -26.6417  -32.4461   25.4296 C   0  0  0  0  0  0  0  0  0  0  0  0
  -23.2414  -12.9413   21.2487 N   0  0  0  0  0  0  0  0  0  0  0  0
  -21.8974  -25.3332   23.2900 N   0  0  0  0  0  0  0  0  0  0  0  0
  -22.9559  -24.4890   23.1605 N   0  0  0  0  0  0  0  0  0  0  0  0
  -24.0671  -13.9630   20.9655 N   0  0  0  0  0  0  0  0  0  0  0  0
  -25.6084  -30.9619   22.3321 N   0  0  0  0  0  0  0  0  0  0  0  0
  -22.4856  -17.3869   20.3439 N   0  0  0  0  0  0  0  0  0  0  0  0
  -26.2070  -14.4749   20.0882 N   0  0  0  0  0  0  0  0  0  0  0  0
  -26.0382   -9.9677   19.8598 N   0  0  0  0  0  0  0  0  0  0  0  0
  -27.4988  -28.1361   21.0137 N   0  0  0  0  0  0  0  0  0  0  0  0
  -25.4425  -33.9944   23.8269 N   0  0  0  0  0  0  0  0  0  0  0  0
  -22.4846  -19.7121   19.7687 N   0  0  0  0  0  0  0  0  0  0  0  0
  -22.9014  -36.2278   22.5529 N   0  3  0  0  0  0  0  0  0  0  0  0
  -27.3452  -11.8054   19.4440 O   0  0  0  0  0  0  0  0  0  0  0  0
  -26.6491  -28.7538   23.0919 O   0  0  0  0  0  0  0  0  0  0  0  0
  -27.4362  -32.3955   22.5319 O   0  0  0  0  0  0  0  0  0  0  0  0
  -23.1354  -33.8031   23.9609 O   0  0  0  0  0  0  0  0  0  0  0  0
  -24.2305  -18.3321   19.1730 O   0  0  0  0  0  0  0  0  0  0  0  0
  -21.7819   -6.7464   21.4542 O   0  0  0  0  0  0  0  0  0  0  0  0
  -20.2060  -28.0175   21.8882 O   0  0  0  0  0  0  0  0  0  1  0  0
  -25.0228   -2.8154   23.5631 F   0  0  0  0  0  0  0  0  0  0  0  0
  -21.0869   -5.4353   23.7868 F   0  0  0  0  0  0  0  0  0  0  0  0
  1  2  1  0  0  0  0
  1  5  2  0  0  0  0
  2  6  2  0  0  0  0
  3  8  2  0  0  0  0
  3 16  1  0  0  0  0
  4  9  1  0  0  0  0
  4 16  2  0  0  0  0
  5 18  1  0  0  0  0
  6 20  1  0  0  0  0
  7 10  2  0  0  0  0
  7 19  1  0  0  0  0
  8 23  1  0  0  0  0
  9 23  2  0  0  0  0
 10 24  1  0  0  0  0
 11 12  2  0  0  0  0
 11 25  1  0  0  0  0
 12 26  1  0  0  0  0
 13 21  1  0  0  0  0
 13 24  2  0  0  0  0
 14 22  2  0  0  0  0
 14 29  1  0  0  0  0
 15 26  2  0  0  0  0
 15 27  1  0  0  0  0
 16 28  1  0  0  0  0
 17 28  1  0  0  0  0
 17 31  2  0  0  0  0
 17 32  1  0  0  0  0
 18 20  2  0  0  0  0
 18 37  1  0  0  0  0
 19 21  2  0  0  0  0
 19 38  1  0  0  0  0
 20 46  1  0  0  0  0
 21 39  1  0  0  0  0
 22 30  1  0  0  0  0
 22 49  1  0  0  0  0
 23 85  1  0  0  0  0
 24 86  1  0  0  0  0
 25 27  2  0  0  0  0
 25 85  1  0  0  0  0
 26 87  1  0  0  0  0
 27 88  1  0  0  0  0
 28 68  2  0  0  0  0
 29 58  1  0  0  0  0
 29 69  2  0  0  0  0
 30 66  1  0  0  0  0
 30 70  2  0  0  0  0
 31 71  1  0  0  0  0
 31 74  1  0  0  0  0
 32 75  1  0  0  0  0
 32 80  2  0  0  0  0
 33 47  1  0  0  0  0
 33 76  1  0  0  0  0
 33 81  2  0  0  0  0
 34 64  1  0  0  0  0
 34 72  1  0  0  0  0
 34 82  2  0  0  0  0
 35 65  1  0  0  0  0
 35 77  1  0  0  0  0
 35 83  2  0  0  0  0
 36 73  1  0  0  0  0
 36 78  1  0  0  0  0
 36 84  2  0  0  0  0
 37 40  1  0  0  0  0
 38 47  1  0  0  0  0
 39 72  1  0  0  0  0
 40 42  1  0  0  0  0
 41 43  1  0  0  0  0
 41 44  1  0  0  0  0
 42 46  1  0  0  0  0
 43 48  1  0  0  0  0
 44 73  1  0  0  0  0
 45 48  1  0  0  0  0
 45 73  1  0  0  0  0
 46 76  1  0  0  0  0
 47 72  1  0  0  0  0
 48 71  1  0  0  0  0
 50 65  1  0  0  0  0
 51 66  1  0  0  0  0
 52 66  1  0  0  0  0
 53 67  1  0  0  0  0
 54 67  1  0  0  0  0
 55 67  1  0  0  0  0
 56 78  1  0  0  0  0
 57 79  1  0  0  0  0
 58 59  1  0  0  0  0
 59 63  1  0  0  0  0
 60 61  1  0  0  0  0
 60 62  1  0  0  0  0
 61 66  1  0  0  0  0
 62 78  1  0  0  0  0
 63 86  1  0  0  0  0
 64 67  1  0  0  0  0
 64 77  1  0  0  0  0
 65 79  1  0  0  0  0
 68 71  1  0  0  0  0
 69 70  1  0  0  0  0
M  CHG  1  79   1
M  ISO  4  36 100  63 101  78 100  86 101
M  END
> <Batch ID>
0080

> <Smiles>
CNC(C)C(=O)NC(C(=O)N1Cc2cc([101O:1][101CH2:1]CCc3cc(C)c(C(C)(C)CCC[100N:0](C)[100C:0](=O)N4CCCC(n5nc(-c6ccc(Oc7ccc(F)cc7F)cc6)c(C(N)=O)c5N)C4)nn3)ccc2CC1C(=O)NC1CCCc2ccccc21)C(C)(C)C

> <Shape>
0.313

> <Color>
0.094

> <Negative vol penalty>
0.000

$$$$

  -OEChem-04052318443D

 84 92  0     1  0  0  0  0  0999 V2000
  -25.1621  -37.1199   22.7517 C   0  0  0  0  0  0  0  0  0  0  0  0
  -25.9460  -36.1005   22.2209 C   0  0  0  0  0  0  0  0  0  0  0  0
  -26.3491  -13.4831   22.5000 C   0  0  0  0  0  0  0  0  0  0  0  0
  -26.1016  -12.8875   20.1717 C   0  0  0  0  0  0  0  0  0  0  0  0
  -24.2085  -36.8289   23.7263 C   0  0  0  0  0  0  0  0  0  0  0  0
  -25.7775  -34.7895   22.6653 C   0  0  0  0  0  0  0  0  0  0  0  0
  -26.3414  -29.6753   19.3438 C   0  0  0  0  0  0  0  0  0  0  0  0
  -25.9359  -12.2037   22.8713 C   0  0  0  0  0  0  0  0  0  0  0  0
  -25.6885  -11.6080   20.5430 C   0  0  0  0  0  0  0  0  0  0  0  0
  -27.3841  -28.7613   19.1987 C   0  0  0  0  0  0  0  0  0  0  0  0
  -24.2237   -8.2991   20.8835 C   0  0  0  0  0  0  0  0  0  0  0  0
  -23.1141   -7.7614   20.2314 C   0  0  0  0  0  0  0  0  0  0  0  0
  -26.3694  -27.3475   20.8693 C   0  0  0  0  0  0  0  0  0  0  0  0
  -21.7571   -9.5942   21.0291 C   0  0  0  0  0  0  0  0  0  0  0  0
  -31.1444  -20.5739   16.8766 C   0  0  0  0  0  0  0  0  0  0  0  0
  -26.4319  -13.8251   21.1502 C   0  0  0  0  0  0  0  0  0  0  0  0
  -28.1752  -15.5761   20.5161 C   0  0  0  0  0  0  0  0  0  0  0  0
  -24.0215  -35.5122   24.1759 C   0  0  0  0  0  0  0  0  0  0  0  0
  -25.3087  -29.4371   20.2622 C   0  0  0  0  0  0  0  0  0  0  0  0
  -24.8214  -34.4809   23.6478 C   0  0  0  0  0  0  0  0  0  0  0  0
  -25.3134  -28.2588   21.0223 C   0  0  0  0  0  0  0  0  0  0  0  0
  -29.6334  -22.1070   18.4818 C   0  0  0  0  0  0  0  0  0  0  0  0
  -25.6057  -11.2661   21.8928 C   0  0  0  0  0  0  0  0  0  0  0  0
  -27.3998  -27.5986   19.9636 C   0  0  0  0  0  0  0  0  0  0  0  0
  -24.1000   -9.4844   21.6085 C   0  0  0  0  0  0  0  0  0  0  0  0
  -21.8808   -8.4090   20.3042 C   0  0  0  0  0  0  0  0  0  0  0  0
  -22.8667  -10.1320   21.6813 C   0  0  0  0  0  0  0  0  0  0  0  0
  -26.8581  -15.1468   20.7661 C   0  0  0  0  0  0  0  0  0  0  0  0
  -30.7336  -21.4163   18.9475 C   0  0  0  0  0  0  0  0  0  0  0  0
  -29.3605  -21.9584   17.1372 C   0  0  0  0  0  0  0  0  0  0  0  0
  -28.0473  -16.9040   20.1891 C   0  0  0  0  0  0  0  0  0  0  0  0
  -29.4045  -14.8404   20.5741 C   0  0  0  0  0  0  0  0  0  0  0  0
  -24.2291  -30.9202   22.8580 C   0  0  0  0  0  0  0  0  0  0  0  0
  -21.9017  -28.6660   22.7025 C   0  0  0  0  0  0  0  0  0  0  0  0
  -20.9299  -25.5740   21.6341 C   0  0  0  0  0  0  0  0  0  0  0  0
  -25.4592  -21.0105   17.4353 C   0  0  0  0  0  0  0  0  0  0  0  0
  -23.0110  -35.2537   25.2652 C   0  0  0  0  0  0  0  0  0  0  0  0
  -24.1772  -30.4201   20.3876 C   0  0  0  0  0  0  0  0  0  0  0  0
  -24.2179  -27.9465   22.0076 C   0  0  0  0  0  0  0  0  0  0  0  0
  -22.6362  -33.7811   25.4114 C   0  0  0  0  0  0  0  0  0  0  0  0
  -24.0802  -20.0197   20.5647 C   0  0  0  0  0  0  0  0  0  0  0  0
  -23.8878  -32.9091   25.4095 C   0  0  0  0  0  0  0  0  0  0  0  0
  -24.7838  -18.6966   20.8720 C   0  0  0  0  0  0  0  0  0  0  0  0
  -23.7978  -20.1753   19.0720 C   0  0  0  0  0  0  0  0  0  0  0  0
  -25.6782  -18.6862   18.5058 C   0  0  0  0  0  0  0  0  0  0  0  0
  -24.6511  -33.0425   24.0863 C   0  0  1  0  0  0  0  0  0  0  0  0
  -23.4463  -30.3227   21.7232 C   0  0  1  0  0  0  0  0  0  0  0  0
  -26.0341  -18.5088   19.9918 C   0  0  2  0  0  0  0  0  0  0  0  0
  -32.5229  -20.9399   20.6380 C   0  0  0  0  0  0  0  0  0  0  0  0
  -18.9828  -23.9919   21.6915 C   0  0  0  0  0  0  0  0  0  0  0  0
  -22.5558  -27.9700   25.6003 C   0  0  0  0  0  0  0  0  0  0  0  0
  -21.2971  -25.8272   25.2967 C   0  0  0  0  0  0  0  0  0  0  0  0
  -20.1137  -28.0106   25.0630 C   0  0  0  0  0  0  0  0  0  0  0  0
  -20.6824  -25.5881   18.6849 C   0  0  0  0  0  0  0  0  0  0  0  0
  -28.7847  -22.9677   19.3832 C   0  0  0  0  0  0  0  0  0  0  0  0
  -31.1266  -21.5009   20.3858 C   0  0  0  0  0  0  0  0  0  0  0  0
  -28.1944  -22.6584   16.5203 C   0  0  0  0  0  0  0  0  0  0  0  0
  -29.0350  -24.4681   19.2164 C   0  0  0  0  0  0  0  0  0  0  0  0
  -27.2110  -21.7120   15.8233 C   0  0  0  0  0  0  0  0  0  0  0  0
  -28.1132  -25.3324   20.0689 C   0  0  0  0  0  0  0  0  0  1  0  0
  -21.7231  -27.2736   23.2577 C   0  0  1  0  0  0  0  0  0  0  0  0
  -19.6762  -25.1033   20.9191 C   0  0  2  0  0  0  0  0  0  0  0  0
  -21.4442  -27.2769   24.7873 C   0  0  0  0  0  0  0  0  0  0  0  0
  -31.5142  -20.6377   18.1699 N   0  0  0  0  0  0  0  0  0  0  0  0
  -30.0978  -21.1971   16.3023 N   0  0  0  0  0  0  0  0  0  0  0  0
  -25.9595  -16.1228   20.6114 N   0  0  0  0  0  0  0  0  0  0  0  0
  -26.7133  -17.1787   20.2607 N   0  0  0  0  0  0  0  0  0  0  0  0
  -23.1367  -28.9416   22.0986 N   0  0  0  0  0  0  0  0  0  0  0  0
  -25.0245  -19.9872   18.2937 N   0  0  0  0  0  0  0  0  0  0  0  0
  -28.9469  -17.8518   19.8502 N   0  0  0  0  0  0  0  0  0  0  0  0
  -29.3558  -13.4849   20.9268 N   0  0  0  0  0  0  0  0  0  0  0  0
  -24.0025  -32.2700   23.0485 N   0  0  0  0  0  0  0  0  0  0  0  0
  -20.6739  -26.6477   22.4604 N   0  0  0  0  0  0  0  0  0  0  0  0
  -26.6341  -20.7535   16.7395 N   0  0  0  0  0  0  0  0  0  0  0  0
  -20.0157  -24.5909   19.5614 N   0  3  0  0  0  0  0  0  0  0  0  0
  -30.5149  -15.3735   20.3366 O   0  0  0  0  0  0  0  0  0  0  0  0
  -24.9817  -30.2090   23.5134 O   0  0  0  0  0  0  0  0  0  0  0  0
  -20.9768  -29.4770   22.7946 O   0  0  0  0  0  0  0  0  0  0  0  0
  -22.0258  -25.0400   21.4782 O   0  0  0  0  0  0  0  0  0  0  0  0
  -24.8484  -22.0765   17.3030 O   0  0  0  0  0  0  0  0  0  0  0  0
  -25.2027  -10.0174   22.2547 O   0  0  0  0  0  0  0  0  0  0  0  0
  -28.4167  -26.7051   19.8244 O   0  0  0  0  0  0  0  0  0  1  0  0
  -20.8157   -7.8933   19.6766 F   0  0  0  0  0  0  0  0  0  0  0  0
  -22.7420  -11.2715   22.3752 F   0  0  0  0  0  0  0  0  0  0  0  0
  1  2  1  0  0  0  0
  1  5  2  0  0  0  0
  2  6  2  0  0  0  0
  3  8  2  0  0  0  0
  3 16  1  0  0  0  0
  4  9  1  0  0  0  0
  4 16  2  0  0  0  0
  5 18  1  0  0  0  0
  6 20  1  0  0  0  0
  7 10  2  0  0  0  0
  7 19  1  0  0  0  0
  8 23  1  0  0  0  0
  9 23  2  0  0  0  0
 10 24  1  0  0  0  0
 11 12  2  0  0  0  0
 11 25  1  0  0  0  0
 12 26  1  0  0  0  0
 13 21  1  0  0  0  0
 13 24  2  0  0  0  0
 14 26  2  0  0  0  0
 14 27  1  0  0  0  0
 15 64  2  0  0  0  0
 15 65  1  0  0  0  0
 16 28  1  0  0  0  0
 17 28  1  0  0  0  0
 17 31  2  0  0  0  0
 17 32  1  0  0  0  0
 18 20  2  0  0  0  0
 18 37  1  0  0  0  0
 19 21  2  0  0  0  0
 19 38  1  0  0  0  0
 20 46  1  0  0  0  0
 21 39  1  0  0  0  0
 22 29  2  0  0  0  0
 22 30  1  0  0  0  0
 22 55  1  0  0  0  0
 23 81  1  0  0  0  0
 24 82  1  0  0  0  0
 25 27  2  0  0  0  0
 25 81  1  0  0  0  0
 26 83  1  0  0  0  0
 27 84  1  0  0  0  0
 28 66  2  0  0  0  0
 29 56  1  0  0  0  0
 29 64  1  0  0  0  0
 30 57  1  0  0  0  0
 30 65  2  0  0  0  0
 31 67  1  0  0  0  0
 31 70  1  0  0  0  0
 32 71  1  0  0  0  0
 32 76  2  0  0  0  0
 33 47  1  0  0  0  0
 33 72  1  0  0  0  0
 33 77  2  0  0  0  0
 34 61  1  0  0  0  0
 34 68  1  0  0  0  0
 34 78  2  0  0  0  0
 35 62  1  0  0  0  0
 35 73  1  0  0  0  0
 35 79  2  0  0  0  0
 36 69  1  0  0  0  0
 36 74  1  0  0  0  0
 36 80  2  0  0  0  0
 37 40  1  0  0  0  0
 38 47  1  0  0  0  0
 39 68  1  0  0  0  0
 40 42  1  0  0  0  0
 41 43  1  0  0  0  0
 41 44  1  0  0  0  0
 42 46  1  0  0  0  0
 43 48  1  0  0  0  0
 44 69  1  0  0  0  0
 45 48  1  0  0  0  0
 45 69  1  0  0  0  0
 46 72  1  0  0  0  0
 47 68  1  0  0  0  0
 48 67  1  0  0  0  0
 49 56  1  0  0  0  0
 50 62  1  0  0  0  0
 51 63  1  0  0  0  0
 52 63  1  0  0  0  0
 53 63  1  0  0  0  0
 54 75  1  0  0  0  0
 55 58  1  0  0  0  0
 57 59  1  0  0  0  0
 58 60  1  0  0  0  0
 59 74  1  0  0  0  0
 60 82  1  0  0  0  0
 61 63  1  0  0  0  0
 61 73  1  0  0  0  0
 62 75  1  0  0  0  0
 66 67  1  0  0  0  0
M  CHG  1  75   1
M  ISO  4  36 100  60 101  74 100  82 101
M  END
> <Batch ID>
0080

> <Smiles>
CCc1ncnc(CC[100NH:0][100C:0](=O)N2CCCC(n3nc(-c4ccc(Oc5ccc(F)cc5F)cc4)c(C(N)=O)c3N)C2)c1CC[101CH2:1][101O:1]c1ccc2c(c1)CN(C(=O)C(NC(=O)C(C)NC)C(C)(C)C)C(C(=O)NC1CCCc3ccccc31)C2

> <Shape>
0.269

> <Color>
0.072

> <Negative vol penalty>
0.000

$$$$

  -OEChem-04052318443D

 85 93  0     1  0  0  0  0  0999 V2000
  -17.2379  -32.3212   22.6549 C   0  0  0  0  0  0  0  0  0  0  0  0
  -18.4318  -32.5698   21.9855 C   0  0  0  0  0  0  0  0  0  0  0  0
  -27.1925  -13.8646   21.8074 C   0  0  0  0  0  0  0  0  0  0  0  0
  -26.8077  -14.0862   19.4326 C   0  0  0  0  0  0  0  0  0  0  0  0
  -17.1898  -31.3512   23.6553 C   0  0  0  0  0  0  0  0  0  0  0  0
  -19.5787  -31.8491   22.3168 C   0  0  0  0  0  0  0  0  0  0  0  0
  -25.5342  -29.1706   19.3717 C   0  0  0  0  0  0  0  0  0  0  0  0
  -26.2876  -12.8042   21.8551 C   0  0  0  0  0  0  0  0  0  0  0  0
  -25.9028  -13.0257   19.4803 C   0  0  0  0  0  0  0  0  0  0  0  0
  -26.9172  -29.1712   19.5480 C   0  0  0  0  0  0  0  0  0  0  0  0
  -22.9331  -12.3933   21.9061 C   0  0  0  0  0  0  0  0  0  0  0  0
  -22.0015  -12.3835   22.9442 C   0  0  0  0  0  0  0  0  0  0  0  0
  -26.6965  -27.4644   21.2383 C   0  0  0  0  0  0  0  0  0  0  0  0
  -22.8741  -10.2637   23.7072 C   0  0  0  0  0  0  0  0  0  0  0  0
  -28.5016  -25.1716   17.1146 C   0  0  0  0  0  0  0  0  0  0  0  0
  -27.4525  -14.5057   20.5961 C   0  0  0  0  0  0  0  0  0  0  0  0
  -29.7733  -15.5267   20.3144 C   0  0  0  0  0  0  0  0  0  0  0  0
  -18.3343  -30.6116   23.9923 C   0  0  0  0  0  0  0  0  0  0  0  0
  -24.7196  -28.3232   20.1364 C   0  0  0  0  0  0  0  0  0  0  0  0
  -19.5462  -30.8692   23.3235 C   0  0  0  0  0  0  0  0  0  0  0  0
  -25.3036  -27.4531   21.0680 C   0  0  0  0  0  0  0  0  0  0  0  0
  -25.6428  -12.3847   20.6916 C   0  0  0  0  0  0  0  0  0  0  0  0
  -27.4983  -28.3201   20.4834 C   0  0  0  0  0  0  0  0  0  0  0  0
  -23.8351  -11.3383   21.7684 C   0  0  0  0  0  0  0  0  0  0  0  0
  -21.9720  -11.3187   23.8447 C   0  0  0  0  0  0  0  0  0  0  0  0
  -23.8056  -10.2735   22.6690 C   0  0  0  0  0  0  0  0  0  0  0  0
  -28.3867  -15.6015   20.5463 C   0  0  0  0  0  0  0  0  0  0  0  0
  -29.1092  -23.9380   17.0339 C   0  0  0  0  0  0  0  0  0  0  0  0
  -30.8960  -24.7410   18.2139 C   0  0  0  0  0  0  0  0  0  0  0  0
  -30.2886  -25.9748   18.2939 C   0  0  0  0  0  0  0  0  0  0  0  0
  -30.2009  -16.8309   20.3659 C   0  0  0  0  0  0  0  0  0  0  0  0
  -30.6007  -14.3807   20.0739 C   0  0  0  0  0  0  0  0  0  0  0  0
  -22.3838  -28.7615   22.2472 C   0  0  0  0  0  0  0  0  0  0  0  0
  -22.1574  -25.5298   22.0830 C   0  0  0  0  0  0  0  0  0  0  0  0
  -23.6704  -22.5511   21.3864 C   0  0  0  0  0  0  0  0  0  0  0  0
  -27.4505  -22.0641   19.4176 C   0  0  0  0  0  0  0  0  0  0  0  0
  -18.2449  -29.6063   25.1131 C   0  0  0  0  0  0  0  0  0  0  0  0
  -23.2318  -28.3154   19.9153 C   0  0  0  0  0  0  0  0  0  0  0  0
  -24.4751  -26.5094   21.8996 C   0  0  0  0  0  0  0  0  0  0  0  0
  -19.4138  -28.6251   25.1459 C   0  0  0  0  0  0  0  0  0  0  0  0
  -29.1441  -21.0412   22.3777 C   0  0  0  0  0  0  0  0  0  0  0  0
  -20.7376  -29.3662   24.9870 C   0  0  0  0  0  0  0  0  0  0  0  0
  -29.2672  -19.5243   22.2231 C   0  0  0  0  0  0  0  0  0  0  0  0
  -27.8232  -21.5606   21.8143 C   0  0  0  0  0  0  0  0  0  0  0  0
  -27.6700  -19.6497   20.2655 C   0  0  0  0  0  0  0  0  0  0  0  0
  -20.8055  -30.0909   23.6373 C   0  0  1  0  0  0  0  0  0  0  0  0
  -22.4527  -27.7792   21.1123 C   0  0  1  0  0  0  0  0  0  0  0  0
  -29.0100  -19.0863   20.7687 C   0  0  2  0  0  0  0  0  0  0  0  0
  -32.2324  -24.4916   18.8253 C   0  0  0  0  0  0  0  0  0  0  0  0
  -29.4803  -23.3264   14.0396 C   0  0  0  0  0  0  0  0  0  0  0  0
  -23.8868  -20.0765   21.0306 C   0  0  0  0  0  0  0  0  0  0  0  0
  -22.4191  -25.4821   25.1226 C   0  0  0  0  0  0  0  0  0  0  0  0
  -22.9387  -23.0378   24.9699 C   0  0  0  0  0  0  0  0  0  0  0  0
  -20.7261  -23.8915   24.1963 C   0  0  0  0  0  0  0  0  0  0  0  0
  -22.9364  -22.7807   18.5286 C   0  0  0  0  0  0  0  0  0  0  0  0
  -30.9471  -27.1308   19.0036 C   0  0  0  0  0  0  0  0  0  0  0  0
  -28.1904  -23.0845   14.8145 C   0  0  0  0  0  0  0  0  0  0  0  0
  -30.8733  -27.0395   20.5293 C   0  0  0  0  0  0  0  0  0  0  0  0
  -27.0934  -22.4089   16.9860 C   0  0  0  0  0  0  0  0  0  0  0  0
  -29.4488  -27.0919   21.0691 C   0  0  0  0  0  0  0  0  0  1  0  0
  -28.4404  -22.8113   16.3274 C   0  0  2  0  0  0  0  0  0  0  0  0
  -22.7912  -24.3748   22.8201 C   0  0  1  0  0  0  0  0  0  0  0  0
  -23.2168  -21.3591   20.5631 C   0  0  2  0  0  0  0  0  0  0  0  0
  -22.2345  -24.2156   24.2631 C   0  0  0  0  0  0  0  0  0  0  0  0
  -29.0804  -26.2122   17.7460 N   0  0  0  0  0  0  0  0  0  0  0  0
  -27.9618  -16.8541   20.7315 N   0  0  0  0  0  0  0  0  0  0  0  0
  -30.3174  -23.7006   17.5822 N   0  0  0  0  0  0  0  0  0  0  0  0
  -29.0879  -17.5784   20.6161 N   0  0  0  0  0  0  0  0  0  0  0  0
  -23.0244  -26.5435   21.6512 N   0  0  0  0  0  0  0  0  0  0  0  0
  -27.6409  -21.1113   20.4320 N   0  0  0  0  0  0  0  0  0  0  0  0
  -31.4166  -17.3996   20.2213 N   0  0  0  0  0  0  0  0  0  0  0  0
  -29.9994  -13.1148   20.0540 N   0  0  0  0  0  0  0  0  0  0  0  0
  -21.0998  -29.1537   22.5746 N   0  0  0  0  0  0  0  0  0  0  0  0
  -22.6057  -23.2001   21.9751 N   0  0  0  0  0  0  0  0  0  0  0  0
  -27.2921  -21.5538   18.1350 N   0  0  0  0  0  0  0  0  0  0  0  0
  -23.5494  -21.5661   19.1252 N   0  3  0  0  0  0  0  0  0  0  0  0
  -31.8392  -14.4749   19.8986 O   0  0  0  0  0  0  0  0  0  0  0  0
  -23.4187  -29.1348   22.7868 O   0  0  0  0  0  0  0  0  0  0  0  0
  -20.9389  -25.5289   21.8909 O   0  0  0  0  0  0  0  0  0  0  0  0
  -24.8514  -22.8720   21.4993 O   0  0  0  0  0  0  0  0  0  0  0  0
  -27.4289  -23.2798   19.6380 O   0  0  0  0  0  0  0  0  0  0  0  0
  -24.7599  -11.3499   20.7377 O   0  0  0  0  0  0  0  0  0  0  0  0
  -28.8479  -28.3192   20.6580 O   0  0  0  0  0  0  0  0  0  1  0  0
  -21.0784  -11.3102   24.8425 F   0  0  0  0  0  0  0  0  0  0  0  0
  -24.6705   -9.2577   22.5426 F   0  0  0  0  0  0  0  0  0  0  0  0
  1  2  1  0  0  0  0
  1  5  2  0  0  0  0
  2  6  2  0  0  0  0
  3  8  2  0  0  0  0
  3 16  1  0  0  0  0
  4  9  1  0  0  0  0
  4 16  2  0  0  0  0
  5 18  1  0  0  0  0
  6 20  1  0  0  0  0
  7 10  2  0  0  0  0
  7 19  1  0  0  0  0
  8 22  1  0  0  0  0
  9 22  2  0  0  0  0
 10 23  1  0  0  0  0
 11 12  2  0  0  0  0
 11 24  1  0  0  0  0
 12 25  1  0  0  0  0
 13 21  1  0  0  0  0
 13 23  2  0  0  0  0
 14 25  2  0  0  0  0
 14 26  1  0  0  0  0
 15 28  1  0  0  0  0
 15 65  2  0  0  0  0
 16 27  1  0  0  0  0
 17 27  1  0  0  0  0
 17 31  2  0  0  0  0
 17 32  1  0  0  0  0
 18 20  2  0  0  0  0
 18 37  1  0  0  0  0
 19 21  2  0  0  0  0
 19 38  1  0  0  0  0
 20 46  1  0  0  0  0
 21 39  1  0  0  0  0
 22 82  1  0  0  0  0
 23 83  1  0  0  0  0
 24 26  2  0  0  0  0
 24 82  1  0  0  0  0
 25 84  1  0  0  0  0
 26 85  1  0  0  0  0
 27 66  2  0  0  0  0
 28 61  1  0  0  0  0
 28 67  2  0  0  0  0
 29 30  2  0  0  0  0
 29 49  1  0  0  0  0
 29 67  1  0  0  0  0
 30 56  1  0  0  0  0
 30 65  1  0  0  0  0
 31 68  1  0  0  0  0
 31 71  1  0  0  0  0
 32 72  1  0  0  0  0
 32 77  2  0  0  0  0
 33 47  1  0  0  0  0
 33 73  1  0  0  0  0
 33 78  2  0  0  0  0
 34 62  1  0  0  0  0
 34 69  1  0  0  0  0
 34 79  2  0  0  0  0
 35 63  1  0  0  0  0
 35 74  1  0  0  0  0
 35 80  2  0  0  0  0
 36 70  1  0  0  0  0
 36 75  1  0  0  0  0
 36 81  2  0  0  0  0
 37 40  1  0  0  0  0
 38 47  1  0  0  0  0
 39 69  1  0  0  0  0
 40 42  1  0  0  0  0
 41 43  1  0  0  0  0
 41 44  1  0  0  0  0
 42 46  1  0  0  0  0
 43 48  1  0  0  0  0
 44 70  1  0  0  0  0
 45 48  1  0  0  0  0
 45 70  1  0  0  0  0
 46 73  1  0  0  0  0
 47 69  1  0  0  0  0
 48 68  1  0  0  0  0
 50 57  1  0  0  0  0
 51 63  1  0  0  0  0
 52 64  1  0  0  0  0
 53 64  1  0  0  0  0
 54 64  1  0  0  0  0
 55 76  1  0  0  0  0
 56 58  1  0  0  0  0
 57 61  1  0  0  0  0
 58 60  1  0  0  0  0
 59 61  1  0  0  0  0
 59 75  1  0  0  0  0
 60 83  1  0  0  0  0
 62 64  1  0  0  0  0
 62 74  1  0  0  0  0
 63 76  1  0  0  0  0
 66 68  1  0  0  0  0
M  CHG  1  76   1
M  ISO  4  36 100  60 101  75 100  83 101
M  END
> <Batch ID>
0080

> <Smiles>
CCC(C[100NH:0][100C:0](=O)N1CCCC(n2nc(-c3ccc(Oc4ccc(F)cc4F)cc3)c(C(N)=O)c2N)C1)c1cnc(CC[101CH2:1][101O:1]c2ccc3c(c2)CN(C(=O)C(NC(=O)C(C)NC)C(C)(C)C)C(C(=O)NC2CCCc4ccccc42)C3)c(C)n1

> <Shape>
0.266

> <Color>
0.079

> <Negative vol penalty>
0.000

$$$$

  -OEChem-04052318443D

 86 94  0     1  0  0  0  0  0999 V2000
  -35.6759  -24.8588   23.9415 C   0  0  0  0  0  0  0  0  0  0  0  0
  -34.3486  -24.4419   23.9370 C   0  0  0  0  0  0  0  0  0  0  0  0
  -23.0136   -9.8756   19.9503 C   0  0  0  0  0  0  0  0  0  0  0  0
  -23.7638   -9.8832   22.2469 C   0  0  0  0  0  0  0  0  0  0  0  0
  -35.9977  -26.1522   24.3507 C   0  0  0  0  0  0  0  0  0  0  0  0
  -33.3425  -25.3179   24.3428 C   0  0  0  0  0  0  0  0  0  0  0  0
  -29.3395  -25.2492   21.2418 C   0  0  0  0  0  0  0  0  0  0  0  0
  -27.0971  -18.5854   19.5614 C   0  0  0  0  0  0  0  0  0  0  0  0
  -22.2572   -8.7309   20.2011 C   0  0  0  0  0  0  0  0  0  0  0  0
  -23.0073   -8.7384   22.4977 C   0  0  0  0  0  0  0  0  0  0  0  0
  -28.4522  -24.1816   21.3711 C   0  0  0  0  0  0  0  0  0  0  0  0
  -23.2674   -5.4117   21.9533 C   0  0  0  0  0  0  0  0  0  0  0  0
  -23.8696   -4.3828   22.6774 C   0  0  0  0  0  0  0  0  0  0  0  0
  -28.4419  -18.2370   19.6195 C   0  0  0  0  0  0  0  0  0  0  0  0
  -26.9659  -25.5805   22.6569 C   0  0  0  0  0  0  0  0  0  0  0  0
  -22.1628   -4.5794   24.3760 C   0  0  0  0  0  0  0  0  0  0  0  0
  -23.7669  -10.4518   20.9732 C   0  0  0  0  0  0  0  0  0  0  0  0
  -24.1345  -12.9729   20.8458 C   0  0  0  0  0  0  0  0  0  0  0  0
  -34.9941  -27.0476   24.7525 C   0  0  0  0  0  0  0  0  0  0  0  0
  -29.0513  -26.4894   21.8293 C   0  0  0  0  0  0  0  0  0  0  0  0
  -33.6513  -26.6241   24.7590 C   0  0  0  0  0  0  0  0  0  0  0  0
  -27.8500  -26.6630   22.5315 C   0  0  0  0  0  0  0  0  0  0  0  0
  -26.4506  -19.0336   20.7079 C   0  0  0  0  0  0  0  0  0  0  0  0
  -22.2540   -8.1622   21.4748 C   0  0  0  0  0  0  0  0  0  0  0  0
  -27.2665  -24.3463   22.0812 C   0  0  0  0  0  0  0  0  0  0  0  0
  -22.1130   -6.0245   22.4405 C   0  0  0  0  0  0  0  0  0  0  0  0
  -23.3173   -3.9667   23.8888 C   0  0  0  0  0  0  0  0  0  0  0  0
  -21.5606   -5.6083   23.6519 C   0  0  0  0  0  0  0  0  0  0  0  0
  -24.5490  -11.6340   20.7146 C   0  0  0  0  0  0  0  0  0  0  0  0
  -29.0900  -18.3537   20.8386 C   0  0  0  0  0  0  0  0  0  0  0  0
  -27.1878  -19.1145   21.8783 C   0  0  0  0  0  0  0  0  0  0  0  0
  -25.2356  -13.7102   20.4846 C   0  0  0  0  0  0  0  0  0  0  0  0
  -22.8674  -13.5029   21.2575 C   0  0  0  0  0  0  0  0  0  0  0  0
  -30.4294  -28.2909   24.0563 C   0  0  0  0  0  0  0  0  0  0  0  0
  -28.1339  -30.4177   23.2022 C   0  0  0  0  0  0  0  0  0  0  0  0
  -25.0576  -30.9650   21.8296 C   0  0  0  0  0  0  0  0  0  0  0  0
  -30.7284  -14.6752   20.6929 C   0  0  0  0  0  0  0  0  0  0  0  0
  -35.3952  -28.4203   25.2316 C   0  0  0  0  0  0  0  0  0  0  0  0
  -30.0064  -27.6387   21.6580 C   0  0  0  0  0  0  0  0  0  0  0  0
  -27.4843  -27.9801   23.1639 C   0  0  0  0  0  0  0  0  0  0  0  0
  -34.2334  -29.4087   25.2900 C   0  0  0  0  0  0  0  0  0  0  0  0
  -29.5772  -12.2937   18.3096 C   0  0  0  0  0  0  0  0  0  0  0  0
  -33.0221  -28.7696   25.9617 C   0  0  0  0  0  0  0  0  0  0  0  0
  -28.1350  -12.0159   18.7374 C   0  0  0  0  0  0  0  0  0  0  0  0
  -30.4914  -12.5097   19.5136 C   0  0  0  0  0  0  0  0  0  0  0  0
  -28.5911  -13.2645   20.8895 C   0  0  0  0  0  0  0  0  0  0  0  0
  -32.5293  -27.5533   25.1686 C   0  0  1  0  0  0  0  0  0  0  0  0
  -29.8519  -28.7094   22.7338 C   0  0  1  0  0  0  0  0  0  0  0  0
  -27.6203  -13.0955   19.7083 C   0  0  2  0  0  0  0  0  0  0  0  0
  -25.0097  -19.4071   20.6522 C   0  0  0  0  0  0  0  0  0  0  0  0
  -31.4081  -19.2025   21.3180 C   0  0  0  0  0  0  0  0  0  0  0  0
  -23.4348  -32.8052   21.3026 C   0  0  0  0  0  0  0  0  0  0  0  0
  -25.3320  -18.7385   23.6404 C   0  0  0  0  0  0  0  0  0  0  0  0
  -27.5779  -19.5420   24.3149 C   0  0  0  0  0  0  0  0  0  0  0  0
  -27.3605  -30.5765   26.1495 C   0  0  0  0  0  0  0  0  0  0  0  0
  -25.2029  -31.6392   25.4542 C   0  0  0  0  0  0  0  0  0  0  0  0
  -27.3678  -32.7726   24.9531 C   0  0  0  0  0  0  0  0  0  0  0  0
  -25.1595  -30.3821   18.9298 C   0  0  0  0  0  0  0  0  0  0  0  0
  -26.0493  -21.0842   23.0445 C   0  0  0  0  0  0  0  0  0  0  0  0
  -30.8104  -16.8294   21.9225 C   0  0  0  0  0  0  0  0  0  0  0  0
  -26.9566  -21.9922   22.2156 C   0  0  0  0  0  0  0  0  0  1  0  0
  -30.5340  -17.9900   20.9367 C   0  0  1  0  0  0  0  0  0  0  0  0
  -26.7213  -30.7040   23.6513 C   0  0  1  0  0  0  0  0  0  0  0  0
  -24.5840  -31.9561   20.7818 C   0  0  2  0  0  0  0  0  0  0  0  0
  -26.5269  -19.6068   23.1787 C   0  0  0  0  0  0  0  0  0  0  0  0
  -26.6706  -31.3976   25.0419 C   0  0  0  0  0  0  0  0  0  0  0  0
  -25.8146  -11.5241   20.3021 N   0  0  0  0  0  0  0  0  0  0  0  0
  -28.4955  -18.7850   21.9736 N   0  0  0  0  0  0  0  0  0  0  0  0
  -26.2048  -12.8034   20.1709 N   0  0  0  0  0  0  0  0  0  0  0  0
  -28.4536  -29.0718   22.9739 N   0  0  0  0  0  0  0  0  0  0  0  0
  -29.9473  -13.5467   20.3936 N   0  0  0  0  0  0  0  0  0  0  0  0
  -25.4596  -15.0393   20.4079 N   0  0  0  0  0  0  0  0  0  0  0  0
  -21.8451  -12.6050   21.5936 N   0  0  0  0  0  0  0  0  0  0  0  0
  -31.7745  -27.9779   24.0091 N   0  0  0  0  0  0  0  0  0  0  0  0
  -26.0993  -31.4715   22.5777 N   0  0  0  0  0  0  0  0  0  0  0  0
  -30.1350  -15.6129   21.5291 N   0  0  0  0  0  0  0  0  0  0  0  0
  -24.1218  -31.2377   19.5607 N   0  3  0  0  0  0  0  0  0  0  0  0
  -22.6432  -14.7360   21.3095 O   0  0  0  0  0  0  0  0  0  0  0  0
  -29.7083  -28.2560   25.0465 O   0  0  0  0  0  0  0  0  0  0  0  0
  -28.9224  -31.3544   23.0524 O   0  0  0  0  0  0  0  0  0  0  0  0
  -24.5515  -29.8542   21.9727 O   0  0  0  0  0  0  0  0  0  0  0  0
  -31.8679  -14.8377   20.2435 O   0  0  0  0  0  0  0  0  0  0  0  0
  -21.5159   -7.0453   21.7200 O   0  0  0  0  0  0  0  0  0  0  0  0
  -26.3990  -23.3058   22.2095 O   0  0  0  0  0  0  0  0  0  1  0  0
  -23.8948   -2.9776   24.5833 F   0  0  0  0  0  0  0  0  0  0  0  0
  -20.4510   -6.1925   24.1245 F   0  0  0  0  0  0  0  0  0  0  0  0
  1  2  1  0  0  0  0
  1  5  2  0  0  0  0
  2  6  2  0  0  0  0
  3  9  2  0  0  0  0
  3 17  1  0  0  0  0
  4 10  1  0  0  0  0
  4 17  2  0  0  0  0
  5 19  1  0  0  0  0
  6 21  1  0  0  0  0
  7 11  2  0  0  0  0
  7 20  1  0  0  0  0
  8 14  2  0  0  0  0
  8 23  1  0  0  0  0
  9 24  1  0  0  0  0
 10 24  2  0  0  0  0
 11 25  1  0  0  0  0
 12 13  2  0  0  0  0
 12 26  1  0  0  0  0
 13 27  1  0  0  0  0
 14 30  1  0  0  0  0
 15 22  1  0  0  0  0
 15 25  2  0  0  0  0
 16 27  2  0  0  0  0
 16 28  1  0  0  0  0
 17 29  1  0  0  0  0
 18 29  1  0  0  0  0
 18 32  2  0  0  0  0
 18 33  1  0  0  0  0
 19 21  2  0  0  0  0
 19 38  1  0  0  0  0
 20 22  2  0  0  0  0
 20 39  1  0  0  0  0
 21 47  1  0  0  0  0
 22 40  1  0  0  0  0
 23 31  2  0  0  0  0
 23 50  1  0  0  0  0
 24 83  1  0  0  0  0
 25 84  1  0  0  0  0
 26 28  2  0  0  0  0
 26 83  1  0  0  0  0
 27 85  1  0  0  0  0
 28 86  1  0  0  0  0
 29 67  2  0  0  0  0
 30 62  1  0  0  0  0
 30 68  2  0  0  0  0
 31 65  1  0  0  0  0
 31 68  1  0  0  0  0
 32 69  1  0  0  0  0
 32 72  1  0  0  0  0
 33 73  1  0  0  0  0
 33 78  2  0  0  0  0
 34 48  1  0  0  0  0
 34 74  1  0  0  0  0
 34 79  2  0  0  0  0
 35 63  1  0  0  0  0
 35 70  1  0  0  0  0
 35 80  2  0  0  0  0
 36 64  1  0  0  0  0
 36 75  1  0  0  0  0
 36 81  2  0  0  0  0
 37 71  1  0  0  0  0
 37 76  1  0  0  0  0
 37 82  2  0  0  0  0
 38 41  1  0  0  0  0
 39 48  1  0  0  0  0
 40 70  1  0  0  0  0
 41 43  1  0  0  0  0
 42 44  1  0  0  0  0
 42 45  1  0  0  0  0
 43 47  1  0  0  0  0
 44 49  1  0  0  0  0
 45 71  1  0  0  0  0
 46 49  1  0  0  0  0
 46 71  1  0  0  0  0
 47 74  1  0  0  0  0
 48 70  1  0  0  0  0
 49 69  1  0  0  0  0
 51 62  1  0  0  0  0
 52 64  1  0  0  0  0
 53 65  1  0  0  0  0
 54 65  1  0  0  0  0
 55 66  1  0  0  0  0
 56 66  1  0  0  0  0
 57 66  1  0  0  0  0
 58 77  1  0  0  0  0
 59 61  1  0  0  0  0
 59 65  1  0  0  0  0
 60 62  1  0  0  0  0
 60 76  1  0  0  0  0
 61 84  1  0  0  0  0
 63 66  1  0  0  0  0
 63 75  1  0  0  0  0
 64 77  1  0  0  0  0
 67 69  1  0  0  0  0
M  CHG  1  77   1
M  ISO  4  37 100  61 101  76 100  84 101
M  END
> <Batch ID>
0080

> <Smiles>
CNC(C)C(=O)NC(C(=O)N1Cc2cc([101O:1][101CH2:1]CC(C)(C)c3nc(C(C)C[100NH:0][100C:0](=O)N4CCCC(n5nc(-c6ccc(Oc7ccc(F)cc7F)cc6)c(C(N)=O)c5N)C4)ccc3C)ccc2CC1C(=O)NC1CCCc2ccccc21)C(C)(C)C

> <Shape>
0.299

> <Color>
0.218

> <Negative vol penalty>
0.000

$$$$

  -OEChem-04052318443D

 90 99  0     1  0  0  0  0  0999 V2000
  -26.6224  -32.0567   24.8531 C   0  0  0  0  0  0  0  0  0  0  0  0
  -26.5416  -30.6730   24.9718 C   0  0  0  0  0  0  0  0  0  0  0  0
  -23.0055   -9.9472   19.9877 C   0  0  0  0  0  0  0  0  0  0  0  0
  -23.7709   -9.9596   22.2792 C   0  0  0  0  0  0  0  0  0  0  0  0
  -26.8085  -32.6380   23.5995 C   0  0  0  0  0  0  0  0  0  0  0  0
  -26.6458  -29.8696   23.8368 C   0  0  0  0  0  0  0  0  0  0  0  0
  -29.6860  -25.8831   24.5507 C   0  0  0  0  0  0  0  0  0  0  0  0
  -22.2152   -8.8300   20.2577 C   0  0  0  0  0  0  0  0  0  0  0  0
  -22.9806   -8.8424   22.5493 C   0  0  0  0  0  0  0  0  0  0  0  0
  -29.1629  -24.8022   25.2589 C   0  0  0  0  0  0  0  0  0  0  0  0
  -19.7237   -8.1888   23.1708 C   0  0  0  0  0  0  0  0  0  0  0  0
  -18.9688   -8.1991   24.3437 C   0  0  0  0  0  0  0  0  0  0  0  0
  -28.7509  -23.6479   23.1811 C   0  0  0  0  0  0  0  0  0  0  0  0
  -20.1309   -6.2240   25.1090 C   0  0  0  0  0  0  0  0  0  0  0  0
  -23.7834  -10.5120   20.9984 C   0  0  0  0  0  0  0  0  0  0  0  0
  -24.2291  -13.0186   20.8369 C   0  0  0  0  0  0  0  0  0  0  0  0
  -26.9247  -31.8409   22.4498 C   0  0  0  0  0  0  0  0  0  0  0  0
  -29.7356  -25.8591   23.1495 C   0  0  0  0  0  0  0  0  0  0  0  0
  -26.8322  -30.4408   22.5665 C   0  0  0  0  0  0  0  0  0  0  0  0
  -29.2775  -24.7288   22.4576 C   0  0  0  0  0  0  0  0  0  0  0  0
  -22.2027   -8.2777   21.5385 C   0  0  0  0  0  0  0  0  0  0  0  0
  -28.6926  -23.6855   24.5741 C   0  0  0  0  0  0  0  0  0  0  0  0
  -20.6822   -7.1961   22.9670 C   0  0  0  0  0  0  0  0  0  0  0  0
  -19.1724   -7.2168   25.3128 C   0  0  0  0  0  0  0  0  0  0  0  0
  -20.8858   -6.2137   23.9361 C   0  0  0  0  0  0  0  0  0  0  0  0
  -24.6004  -11.6657   20.7200 C   0  0  0  0  0  0  0  0  0  0  0  0
  -27.5752  -19.9948   20.2879 C   0  0  0  0  0  0  0  0  0  0  0  0
  -28.3004  -19.3410   21.2595 C   0  0  0  0  0  0  0  0  0  0  0  0
  -26.2161  -20.8816   21.8991 C   0  0  0  0  0  0  0  0  0  0  0  0
  -26.9408  -20.2273   22.8707 C   0  0  0  0  0  0  0  0  0  0  0  0
  -25.3504  -13.7162   20.4594 C   0  0  0  0  0  0  0  0  0  0  0  0
  -22.9821  -13.5932   21.2498 C   0  0  0  0  0  0  0  0  0  0  0  0
  -28.4456  -27.6069   20.8290 C   0  0  0  0  0  0  0  0  0  0  0  0
  -30.3285  -25.7702   18.9307 C   0  0  0  0  0  0  0  0  0  0  0  0
  -32.0303  -22.8437   18.4995 C   0  0  0  0  0  0  0  0  0  0  0  0
  -30.8721  -14.5102   20.6208 C   0  0  0  0  0  0  0  0  0  0  0  0
  -27.0777  -32.5168   21.1102 C   0  0  0  0  0  0  0  0  0  0  0  0
  -30.3275  -27.0220   22.4014 C   0  0  0  0  0  0  0  0  0  0  0  0
  -29.3271  -24.6449   20.9546 C   0  0  0  0  0  0  0  0  0  0  0  0
  -27.5536  -31.5777   20.0049 C   0  0  0  0  0  0  0  0  0  0  0  0
  -32.0350  -17.9280   23.6326 C   0  0  0  0  0  0  0  0  0  0  0  0
  -29.6306  -12.1367   18.2751 C   0  0  0  0  0  0  0  0  0  0  0  0
  -26.7617  -30.2743   20.0341 C   0  0  0  0  0  0  0  0  0  0  0  0
  -31.0617  -18.8207   22.8600 C   0  0  0  0  0  0  0  0  0  0  0  0
  -28.1834  -11.9098   18.7155 C   0  0  0  0  0  0  0  0  0  0  0  0
  -31.8216  -16.5051   23.1142 C   0  0  0  0  0  0  0  0  0  0  0  0
  -30.5592  -12.3387   19.4705 C   0  0  0  0  0  0  0  0  0  0  0  0
  -28.6929  -13.1701   20.8487 C   0  0  0  0  0  0  0  0  0  0  0  0
  -26.9655  -29.5346   21.3619 C   0  0  1  0  0  0  0  0  0  0  0  0
  -29.8558  -27.1032   20.9529 C   0  0  1  0  0  0  0  0  0  0  0  0
  -30.1148  -17.8596   22.1390 C   0  0  2  0  0  0  0  0  0  0  0  0
  -27.7093  -13.0171   19.6759 C   0  0  2  0  0  0  0  0  0  0  0  0
  -31.0301  -16.6758   21.8225 C   0  0  2  0  0  0  0  0  0  0  0  0
  -27.9219  -19.8714   18.8436 C   0  0  0  0  0  0  0  0  0  0  0  0
  -24.2120  -22.1087   21.0246 C   0  0  0  0  0  0  0  0  0  0  0  0
  -33.4427  -21.6139   16.8291 C   0  0  0  0  0  0  0  0  0  0  0  0
  -29.9495  -21.2517   26.1195 C   0  0  0  0  0  0  0  0  0  0  0  0
  -27.8280  -25.0934   17.3184 C   0  0  0  0  0  0  0  0  0  0  0  0
  -29.0852  -23.1812   16.3028 C   0  0  0  0  0  0  0  0  0  0  0  0
  -29.8724  -25.5207   15.9427 C   0  0  0  0  0  0  0  0  0  0  0  0
  -34.3506  -22.7785   20.3356 C   0  0  0  0  0  0  0  0  0  0  0  0
  -29.4662  -18.4798   20.9116 C   0  0  0  0  0  0  0  0  0  0  0  0
  -25.0511  -21.7439   22.2469 C   0  0  0  0  0  0  0  0  0  0  0  0
  -26.5896  -20.3521   24.3317 C   0  0  0  0  0  0  0  0  0  0  0  0
  -27.7998  -20.2452   25.2709 C   0  0  0  0  0  0  0  0  0  0  0  0
  -30.1624  -24.4513   18.2152 C   0  0  1  0  0  0  0  0  0  0  0  0
  -33.4423  -22.5609   18.0191 C   0  0  2  0  0  0  0  0  0  0  0  0
  -28.8285  -21.3690   25.0946 C   0  0  1  0  0  0  0  0  0  1  0  0
  -29.2341  -24.5637   16.9730 C   0  0  0  0  0  0  0  0  0  0  0  0
  -25.8592  -11.5108   20.3009 N   0  0  0  0  0  0  0  0  0  0  0  0
  -26.5200  -20.7769   20.5902 N   0  0  0  0  0  0  0  0  0  0  0  0
  -27.9962  -19.4454   22.5684 N   0  0  0  0  0  0  0  0  0  0  0  0
  -26.2885  -12.7755   20.1511 N   0  0  0  0  0  0  0  0  0  0  0  0
  -29.9089  -25.8100   20.2679 N   0  0  0  0  0  0  0  0  0  0  0  0
  -30.0540  -13.4032   20.3407 N   0  0  0  0  0  0  0  0  0  0  0  0
  -25.6155  -15.0365   20.3645 N   0  0  0  0  0  0  0  0  0  0  0  0
  -21.9344  -12.7323   21.6037 N   0  0  0  0  0  0  0  0  0  0  0  0
  -28.2464  -28.8611   21.3738 N   0  0  0  0  0  0  0  0  0  0  0  0
  -31.5091  -23.9780   17.9139 N   0  0  0  0  0  0  0  0  0  0  0  0
  -30.3141  -15.4764   21.4488 N   0  0  0  0  0  0  0  0  0  0  0  0
  -34.2472  -21.9439   19.1110 N   0  3  0  0  0  0  0  0  0  0  0  0
  -22.7972  -14.8333   21.2877 O   0  0  0  0  0  0  0  0  0  0  0  0
  -27.6013  -26.9101   20.2784 O   0  0  0  0  0  0  0  0  0  0  0  0
  -30.8192  -26.7278   18.3275 O   0  0  0  0  0  0  0  0  0  0  0  0
  -31.4467  -22.1277   19.3102 O   0  0  0  0  0  0  0  0  0  0  0  0
  -32.0131  -14.6311   20.1622 O   0  0  0  0  0  0  0  0  0  0  0  0
  -21.4314   -7.1877   21.8024 O   0  0  0  0  0  0  0  0  0  0  0  0
  -28.1808  -22.6293   25.2629 O   0  0  0  0  0  0  0  0  0  1  0  0
  -18.4485   -7.2277   26.4397 F   0  0  0  0  0  0  0  0  0  0  0  0
  -21.8060   -5.2581   23.7464 F   0  0  0  0  0  0  0  0  0  0  0  0
  1  2  1  0  0  0  0
  1  5  2  0  0  0  0
  2  6  2  0  0  0  0
  3  8  2  0  0  0  0
  3 15  1  0  0  0  0
  4  9  1  0  0  0  0
  4 15  2  0  0  0  0
  5 17  1  0  0  0  0
  6 19  1  0  0  0  0
  7 10  2  0  0  0  0
  7 18  1  0  0  0  0
  8 21  1  0  0  0  0
  9 21  2  0  0  0  0
 10 22  1  0  0  0  0
 11 12  2  0  0  0  0
 11 23  1  0  0  0  0
 12 24  1  0  0  0  0
 13 20  1  0  0  0  0
 13 22  2  0  0  0  0
 14 24  2  0  0  0  0
 14 25  1  0  0  0  0
 15 26  1  0  0  0  0
 16 26  1  0  0  0  0
 16 31  2  0  0  0  0
 16 32  1  0  0  0  0
 17 19  2  0  0  0  0
 17 37  1  0  0  0  0
 18 20  2  0  0  0  0
 18 38  1  0  0  0  0
 19 49  1  0  0  0  0
 20 39  1  0  0  0  0
 21 87  1  0  0  0  0
 22 88  1  0  0  0  0
 23 25  2  0  0  0  0
 23 87  1  0  0  0  0
 24 89  1  0  0  0  0
 25 90  1  0  0  0  0
 26 70  2  0  0  0  0
 27 28  1  0  0  0  0
 27 54  1  0  0  0  0
 27 71  2  0  0  0  0
 28 62  1  0  0  0  0
 28 72  2  0  0  0  0
 29 30  2  0  0  0  0
 29 63  1  0  0  0  0
 29 71  1  0  0  0  0
 30 64  1  0  0  0  0
 30 72  1  0  0  0  0
 31 73  1  0  0  0  0
 31 76  1  0  0  0  0
 32 77  1  0  0  0  0
 32 82  2  0  0  0  0
 33 50  1  0  0  0  0
 33 78  1  0  0  0  0
 33 83  2  0  0  0  0
 34 66  1  0  0  0  0
 34 74  1  0  0  0  0
 34 84  2  0  0  0  0
 35 67  1  0  0  0  0
 35 79  1  0  0  0  0
 35 85  2  0  0  0  0
 36 75  1  0  0  0  0
 36 80  1  0  0  0  0
 36 86  2  0  0  0  0
 37 40  1  0  0  0  0
 38 50  1  0  0  0  0
 39 74  1  0  0  0  0
 40 43  1  0  0  0  0
 41 44  1  0  0  0  0
 41 46  1  0  0  0  0
 42 45  1  0  0  0  0
 42 47  1  0  0  0  0
 43 49  1  0  0  0  0
 44 51  1  0  0  0  0
 45 52  1  0  0  0  0
 46 53  1  0  0  0  0
 47 75  1  0  0  0  0
 48 52  1  0  0  0  0
 48 75  1  0  0  0  0
 49 78  1  0  0  0  0
 50 74  1  0  0  0  0
 51 53  1  0  0  0  0
 51 62  1  0  0  0  0
 52 73  1  0  0  0  0
 53 80  1  0  0  0  0
 55 63  1  0  0  0  0
 56 67  1  0  0  0  0
 57 68  1  0  0  0  0
 58 69  1  0  0  0  0
 59 69  1  0  0  0  0
 60 69  1  0  0  0  0
 61 81  1  0  0  0  0
 64 65  1  0  0  0  0
 65 68  1  0  0  0  0
 66 69  1  0  0  0  0
 66 79  1  0  0  0  0
 67 81  1  0  0  0  0
 68 88  1  0  0  0  0
 70 73  1  0  0  0  0
M  CHG  1  81   1
M  ISO  4  36 100  68 101  80 100  88 101
M  END
> <Batch ID>
0080

> <Smiles>
CCc1nc(C)c(CC2CCCC2[100NH:0][100C:0](=O)N2CCCC(n3nc(-c4ccc(Oc5ccc(F)cc5F)cc4)c(C(N)=O)c3N)C2)nc1CC[101CH:1](C)[101O:1]c1ccc2c(c1)CN(C(=O)C(NC(=O)C(C)NC)C(C)(C)C)C(C(=O)NC1CCCc3ccccc31)C2

> <Shape>
0.334

> <Color>
0.190

> <Negative vol penalty>
0.000

$$$$

  -OEChem-04052318443D

 83 91  0     1  0  0  0  0  0999 V2000
  -21.1837  -15.9962   16.5279 C   0  0  0  0  0  0  0  0  0  0  0  0
  -22.5507  -15.7793   16.3966 C   0  0  0  0  0  0  0  0  0  0  0  0
  -26.4600  -28.0273   19.0141 C   0  0  0  0  0  0  0  0  0  0  0  0
  -26.2558  -27.0834   21.2286 C   0  0  0  0  0  0  0  0  0  0  0  0
  -20.5084  -15.5075   17.6443 C   0  0  0  0  0  0  0  0  0  0  0  0
  -23.2406  -15.0634   17.3757 C   0  0  0  0  0  0  0  0  0  0  0  0
  -29.1844  -13.8491   17.9449 C   0  0  0  0  0  0  0  0  0  0  0  0
  -26.0963  -29.2779   19.5135 C   0  0  0  0  0  0  0  0  0  0  0  0
  -25.8921  -28.3340   21.7281 C   0  0  0  0  0  0  0  0  0  0  0  0
  -30.2971  -14.4206   18.5606 C   0  0  0  0  0  0  0  0  0  0  0  0
  -27.4369  -31.2076   22.6092 C   0  0  0  0  0  0  0  0  0  0  0  0
  -28.0357  -31.6286   23.7966 C   0  0  0  0  0  0  0  0  0  0  0  0
  -30.0001  -12.9496   20.4493 C   0  0  0  0  0  0  0  0  0  0  0  0
  -25.8619  -31.7748   24.8409 C   0  0  0  0  0  0  0  0  0  0  0  0
  -29.3150  -16.5229   22.1852 C   0  0  0  0  0  0  0  0  0  0  0  0
  -30.2453  -18.5098   22.3932 C   0  0  0  0  0  0  0  0  0  0  0  0
  -26.5397  -26.9301   19.8716 C   0  0  0  0  0  0  0  0  0  0  0  0
  -28.2152  -25.1094   19.2510 C   0  0  0  0  0  0  0  0  0  0  0  0
  -21.1934  -14.7961   18.6432 C   0  0  0  0  0  0  0  0  0  0  0  0
  -28.4635  -12.8294   18.5827 C   0  0  0  0  0  0  0  0  0  0  0  0
  -22.5723  -14.5414   18.4980 C   0  0  0  0  0  0  0  0  0  0  0  0
  -28.8801  -12.3651   19.8385 C   0  0  0  0  0  0  0  0  0  0  0  0
  -25.8124  -29.4312   20.8705 C   0  0  0  0  0  0  0  0  0  0  0  0
  -30.7034  -13.9729   19.8142 C   0  0  0  0  0  0  0  0  0  0  0  0
  -26.0507  -31.0703   22.5376 C   0  0  0  0  0  0  0  0  0  0  0  0
  -27.2482  -31.9122   24.9124 C   0  0  0  0  0  0  0  0  0  0  0  0
  -25.2632  -31.3538   23.6535 C   0  0  0  0  0  0  0  0  0  0  0  0
  -26.9147  -25.6379   19.3562 C   0  0  0  0  0  0  0  0  0  0  0  0
  -28.3840  -17.5284   22.0723 C   0  0  0  0  0  0  0  0  0  0  0  0
  -28.0359  -23.8624   18.7039 C   0  0  0  0  0  0  0  0  0  0  0  0
  -29.4729  -25.6934   19.6155 C   0  0  0  0  0  0  0  0  0  0  0  0
  -25.4795  -12.5096   19.6304 C   0  0  0  0  0  0  0  0  0  0  0  0
  -26.4209   -9.4585   20.2023 C   0  0  0  0  0  0  0  0  0  0  0  0
  -28.9786   -7.2792   20.7988 C   0  0  0  0  0  0  0  0  0  0  0  0
  -25.3048  -19.0016   18.4602 C   0  0  0  0  0  0  0  0  0  0  0  0
  -20.4117  -14.2829   19.8267 C   0  0  0  0  0  0  0  0  0  0  0  0
  -27.2813  -12.2049   17.8935 C   0  0  0  0  0  0  0  0  0  0  0  0
  -28.1525  -11.2589   20.5564 C   0  0  0  0  0  0  0  0  0  0  0  0
  -21.2982  -13.9275   21.0158 C   0  0  0  0  0  0  0  0  0  0  0  0
  -23.9422  -21.7348   16.6299 C   0  0  0  0  0  0  0  0  0  0  0  0
  -22.4508  -13.0455   20.5595 C   0  0  0  0  0  0  0  0  0  0  0  0
  -24.6967  -22.9502   17.1717 C   0  0  0  0  0  0  0  0  0  0  0  0
  -23.6658  -20.7076   17.7256 C   0  0  0  0  0  0  0  0  0  0  0  0
  -25.6098  -21.4888   19.0235 C   0  0  0  0  0  0  0  0  0  0  0  0
  -23.3492  -13.7919   19.5652 C   0  0  1  0  0  0  0  0  0  0  0  0
  -26.3156  -11.5268   18.8605 C   0  0  1  0  0  0  0  0  0  0  0  0
  -25.9607  -22.5270   17.9441 C   0  0  2  0  0  0  0  0  0  0  0  0
  -26.2167  -16.6838   23.0112 C   0  0  0  0  0  0  0  0  0  0  0  0
  -29.4336   -4.8555   21.2639 C   0  0  0  0  0  0  0  0  0  0  0  0
  -25.4502   -9.8292   23.0711 C   0  0  0  0  0  0  0  0  0  0  0  0
  -26.7645   -7.7948   23.7050 C   0  0  0  0  0  0  0  0  0  0  0  0
  -24.8972   -7.6090   22.0614 C   0  0  0  0  0  0  0  0  0  0  0  0
  -30.6185   -6.9977   18.3513 C   0  0  0  0  0  0  0  0  0  0  0  0
  -32.7296  -16.5376   21.3332 C   0  0  0  0  0  0  0  0  0  0  0  0
  -26.5427  -16.6922   20.5065 C   0  0  0  0  0  0  0  0  0  0  0  0
  -31.8492  -16.5171   22.5847 C   0  0  0  0  0  0  0  0  0  0  0  0
  -27.0395  -17.4141   19.2538 C   0  0  0  0  0  0  0  0  0  0  0  0
  -32.0683  -15.8965   20.1188 C   0  0  0  0  0  0  0  0  0  1  0  0
  -26.9365  -17.4068   21.8421 C   0  0  2  0  0  0  0  0  0  0  0  0
  -27.0519   -8.7349   21.3673 C   0  0  1  0  0  0  0  0  0  0  0  0
  -29.3130   -5.9282   20.1926 C   0  0  2  0  0  0  0  0  0  0  0  0
  -26.0537   -8.5142   22.5388 C   0  0  0  0  0  0  0  0  0  0  0  0
  -28.9695  -18.7628   22.2024 N   0  0  0  0  0  0  0  0  0  0  0  0
  -25.9783  -24.7956   18.9114 N   0  0  0  0  0  0  0  0  0  0  0  0
  -30.5026  -17.1670   22.3900 N   0  0  0  0  0  0  0  0  0  0  0  0
  -26.6913  -23.7253   18.5214 N   0  0  0  0  0  0  0  0  0  0  0  0
  -26.9991  -10.6846   19.8443 N   0  0  0  0  0  0  0  0  0  0  0  0
  -24.9054  -20.3476   18.4183 N   0  0  0  0  0  0  0  0  0  0  0  0
  -28.8989  -22.8808   18.3659 N   0  0  0  0  0  0  0  0  0  0  0  0
  -29.4767  -26.9828   20.1646 N   0  0  0  0  0  0  0  0  0  0  0  0
  -24.3017  -12.8620   18.9996 N   0  0  0  0  0  0  0  0  0  0  0  0
  -27.6186   -7.5047   20.8253 N   0  0  0  0  0  0  0  0  0  0  0  0
  -26.4949  -18.7479   19.1311 N   0  0  0  0  0  0  0  0  0  0  0  0
  -30.6034   -5.9985   19.4505 N   0  3  0  0  0  0  0  0  0  0  0  0
  -30.5625  -25.0961   19.4436 O   0  0  0  0  0  0  0  0  0  0  0  0
  -25.8732  -12.9167   20.7171 O   0  0  0  0  0  0  0  0  0  0  0  0
  -25.4553   -8.9509   19.6265 O   0  0  0  0  0  0  0  0  0  0  0  0
  -29.8378   -8.0552   21.2113 O   0  0  0  0  0  0  0  0  0  0  0  0
  -24.6522  -18.0939   17.9337 O   0  0  0  0  0  0  0  0  0  0  0  0
  -25.4578  -30.6514   21.3583 O   0  0  0  0  0  0  0  0  0  0  0  0
  -31.7888  -14.5294   20.4176 O   0  0  0  0  0  0  0  0  0  1  0  0
  -27.8234  -32.3150   26.0530 F   0  0  0  0  0  0  0  0  0  0  0  0
  -23.9310  -31.2225   23.5911 F   0  0  0  0  0  0  0  0  0  0  0  0
  1  2  1  0  0  0  0
  1  5  2  0  0  0  0
  2  6  2  0  0  0  0
  3  8  2  0  0  0  0
  3 17  1  0  0  0  0
  4  9  1  0  0  0  0
  4 17  2  0  0  0  0
  5 19  1  0  0  0  0
  6 21  1  0  0  0  0
  7 10  2  0  0  0  0
  7 20  1  0  0  0  0
  8 23  1  0  0  0  0
  9 23  2  0  0  0  0
 10 24  1  0  0  0  0
 11 12  2  0  0  0  0
 11 25  1  0  0  0  0
 12 26  1  0  0  0  0
 13 22  1  0  0  0  0
 13 24  2  0  0  0  0
 14 26  2  0  0  0  0
 14 27  1  0  0  0  0
 15 29  2  0  0  0  0
 15 65  1  0  0  0  0
 16 63  2  0  0  0  0
 16 65  1  0  0  0  0
 17 28  1  0  0  0  0
 18 28  1  0  0  0  0
 18 30  2  0  0  0  0
 18 31  1  0  0  0  0
 19 21  2  0  0  0  0
 19 36  1  0  0  0  0
 20 22  2  0  0  0  0
 20 37  1  0  0  0  0
 21 45  1  0  0  0  0
 22 38  1  0  0  0  0
 23 80  1  0  0  0  0
 24 81  1  0  0  0  0
 25 27  2  0  0  0  0
 25 80  1  0  0  0  0
 26 82  1  0  0  0  0
 27 83  1  0  0  0  0
 28 64  2  0  0  0  0
 29 59  1  0  0  0  0
 29 63  1  0  0  0  0
 30 66  1  0  0  0  0
 30 69  1  0  0  0  0
 31 70  1  0  0  0  0
 31 75  2  0  0  0  0
 32 46  1  0  0  0  0
 32 71  1  0  0  0  0
 32 76  2  0  0  0  0
 33 60  1  0  0  0  0
 33 67  1  0  0  0  0
 33 77  2  0  0  0  0
 34 61  1  0  0  0  0
 34 72  1  0  0  0  0
 34 78  2  0  0  0  0
 35 68  1  0  0  0  0
 35 73  1  0  0  0  0
 35 79  2  0  0  0  0
 36 39  1  0  0  0  0
 37 46  1  0  0  0  0
 38 67  1  0  0  0  0
 39 41  1  0  0  0  0
 40 42  1  0  0  0  0
 40 43  1  0  0  0  0
 41 45  1  0  0  0  0
 42 47  1  0  0  0  0
 43 68  1  0  0  0  0
 44 47  1  0  0  0  0
 44 68  1  0  0  0  0
 45 71  1  0  0  0  0
 46 67  1  0  0  0  0
 47 66  1  0  0  0  0
 48 59  1  0  0  0  0
 49 61  1  0  0  0  0
 50 62  1  0  0  0  0
 51 62  1  0  0  0  0
 52 62  1  0  0  0  0
 53 74  1  0  0  0  0
 54 56  1  0  0  0  0
 54 58  1  0  0  0  0
 55 57  1  0  0  0  0
 55 59  1  0  0  0  0
 56 65  1  0  0  0  0
 57 73  1  0  0  0  0
 58 81  1  0  0  0  0
 60 62  1  0  0  0  0
 60 72  1  0  0  0  0
 61 74  1  0  0  0  0
 64 66  1  0  0  0  0
M  CHG  1  74   1
M  ISO  4  35 100  58 101  73 100  81 101
M  END
> <Batch ID>
0080

> <Smiles>
CNC(C)C(=O)NC(C(=O)N1Cc2cc([101O:1][101CH2:1]CCn3cnc(C(C)CC[100NH:0][100C:0](=O)N4CCCC(n5nc(-c6ccc(Oc7ccc(F)cc7F)cc6)c(C(N)=O)c5N)C4)c3)ccc2CC1C(=O)NC1CCCc2ccccc21)C(C)(C)C

> <Shape>
0.228

> <Color>
0.079

> <Negative vol penalty>
0.000

$$$$

  -OEChem-04052318443D

 85 93  0     1  0  0  0  0  0999 V2000
  -30.2168  -12.3820   20.2450 C   0  0  0  0  0  0  0  0  0  0  0  0
  -29.7827  -13.6710   20.5379 C   0  0  0  0  0  0  0  0  0  0  0  0
  -22.4005  -28.5795   20.8434 C   0  0  0  0  0  0  0  0  0  0  0  0
  -23.5156  -27.3119   22.5717 C   0  0  0  0  0  0  0  0  0  0  0  0
  -29.3605  -11.4884   19.6031 C   0  0  0  0  0  0  0  0  0  0  0  0
  -28.4924  -14.0673   20.1880 C   0  0  0  0  0  0  0  0  0  0  0  0
  -26.1598  -16.5919   23.9068 C   0  0  0  0  0  0  0  0  0  0  0  0
  -21.1639  -28.2391   21.3916 C   0  0  0  0  0  0  0  0  0  0  0  0
  -22.2789  -26.9716   23.1200 C   0  0  0  0  0  0  0  0  0  0  0  0
  -26.5133  -17.9283   24.0884 C   0  0  0  0  0  0  0  0  0  0  0  0
  -19.2333  -29.2250   23.9866 C   0  0  0  0  0  0  0  0  0  0  0  0
  -18.2839  -30.2377   24.1231 C   0  0  0  0  0  0  0  0  0  0  0  0
  -24.5349  -18.6085   22.8874 C   0  0  0  0  0  0  0  0  0  0  0  0
  -16.7745  -29.0167   22.6851 C   0  0  0  0  0  0  0  0  0  0  0  0
  -27.5717  -20.1393   20.2587 C   0  0  0  0  0  0  0  0  0  0  0  0
  -23.5764  -28.1158   21.4334 C   0  0  0  0  0  0  0  0  0  0  0  0
  -25.6437  -29.5889   21.1812 C   0  0  0  0  0  0  0  0  0  0  0  0
  -28.0558  -11.8709   19.2538 C   0  0  0  0  0  0  0  0  0  0  0  0
  -24.9949  -16.2530   23.2036 C   0  0  0  0  0  0  0  0  0  0  0  0
  -27.6184  -13.1783   19.5395 C   0  0  0  0  0  0  0  0  0  0  0  0
  -24.1675  -17.2671   22.7005 C   0  0  0  0  0  0  0  0  0  0  0  0
  -27.9941  -21.2909   20.8768 C   0  0  0  0  0  0  0  0  0  0  0  0
  -21.1031  -27.4352   22.5299 C   0  0  0  0  0  0  0  0  0  0  0  0
  -25.7023  -18.9368   23.5761 C   0  0  0  0  0  0  0  0  0  0  0  0
  -18.9533  -28.1081   23.1992 C   0  0  0  0  0  0  0  0  0  0  0  0
  -17.0545  -30.1336   23.4724 C   0  0  0  0  0  0  0  0  0  0  0  0
  -17.7239  -28.0039   22.5485 C   0  0  0  0  0  0  0  0  0  0  0  0
  -24.8541  -28.4666   20.8673 C   0  0  0  0  0  0  0  0  0  0  0  0
  -29.2973  -21.4962   20.3856 C   0  0  0  0  0  0  0  0  0  0  0  0
  -26.7507  -29.4655   20.3776 C   0  0  0  0  0  0  0  0  0  0  0  0
  -25.3985  -30.6483   22.1157 C   0  0  0  0  0  0  0  0  0  0  0  0
  -24.3746  -14.6409   20.5353 C   0  0  0  0  0  0  0  0  0  0  0  0
  -21.2934  -15.0738   21.4526 C   0  0  0  0  0  0  0  0  0  0  0  0
  -19.0319  -16.9020   23.2387 C   0  0  0  0  0  0  0  0  0  0  0  0
  -29.4127  -24.7634   17.7979 C   0  0  0  0  0  0  0  0  0  0  0  0
  -27.1825  -10.8851   18.5186 C   0  0  0  0  0  0  0  0  0  0  0  0
  -24.6136  -14.8073   23.0395 C   0  0  0  0  0  0  0  0  0  0  0  0
  -22.8958  -16.9565   21.9557 C   0  0  0  0  0  0  0  0  0  0  0  0
  -25.7038  -11.2640   18.5176 C   0  0  0  0  0  0  0  0  0  0  0  0
  -28.1408  -27.6628   16.1694 C   0  0  0  0  0  0  0  0  0  0  0  0
  -25.5305  -12.7376   18.1639 C   0  0  0  0  0  0  0  0  0  0  0  0
  -27.2254  -28.2988   17.2171 C   0  0  0  0  0  0  0  0  0  0  0  0
  -28.0844  -26.1376   16.2221 C   0  0  0  0  0  0  0  0  0  0  0  0
  -27.4325  -26.1897   18.5982 C   0  0  0  0  0  0  0  0  0  0  0  0
  -26.2174  -13.6377   19.1981 C   0  0  1  0  0  0  0  0  0  0  0  0
  -23.6735  -14.5672   21.8623 C   0  0  1  0  0  0  0  0  0  0  0  0
  -27.4977  -27.7265   18.6212 C   0  0  2  0  0  0  0  0  0  0  0  0
  -16.5815  -17.0354   23.7635 C   0  0  0  0  0  0  0  0  0  0  0  0
  -29.7107  -17.5754   19.0513 C   0  0  0  0  0  0  0  0  0  0  0  0
  -28.7748  -18.9443   17.1392 C   0  0  0  0  0  0  0  0  0  0  0  0
  -31.9364  -24.2324   19.7762 C   0  0  0  0  0  0  0  0  0  0  0  0
  -20.7689  -16.2596   18.6906 C   0  0  0  0  0  0  0  0  0  0  0  0
  -18.6359  -17.2188   19.5841 C   0  0  0  0  0  0  0  0  0  0  0  0
  -18.9659  -14.7467   19.5359 C   0  0  0  0  0  0  0  0  0  0  0  0
  -19.5111  -16.4998   26.1314 C   0  0  0  0  0  0  0  0  0  0  0  0
  -27.2243  -22.1362   21.8598 C   0  0  0  0  0  0  0  0  0  0  0  0
  -30.2249  -22.5922   20.7165 C   0  0  0  0  0  0  0  0  0  0  0  0
  -27.6700  -21.9519   23.3120 C   0  0  0  0  0  0  0  0  0  0  0  0
  -27.4378  -20.5412   23.8405 C   0  0  0  0  0  0  0  0  0  1  0  0
  -20.2466  -16.1355   21.2160 C   0  0  1  0  0  0  0  0  0  0  0  0
  -17.9310  -16.4843   24.1969 C   0  0  2  0  0  0  0  0  0  0  0  0
  -28.6357  -18.5736   18.6169 C   0  0  0  0  0  0  0  0  0  0  0  0
  -30.6559  -23.4512   19.4985 C   0  0  1  0  0  0  0  0  0  0  0  0
  -19.6792  -16.0963   19.7689 C   0  0  0  0  0  0  0  0  0  0  0  0
  -25.4120  -27.6876   19.9367 N   0  0  0  0  0  0  0  0  0  0  0  0
  -29.6779  -20.5509   19.5222 N   0  0  0  0  0  0  0  0  0  0  0  0
  -28.6074  -19.7403   19.4660 N   0  0  0  0  0  0  0  0  0  0  0  0
  -26.5640  -28.3214   19.6589 N   0  0  0  0  0  0  0  0  0  0  0  0
  -22.5693  -15.5278   21.8157 N   0  0  0  0  0  0  0  0  0  0  0  0
  -28.3529  -25.6592   17.5803 N   0  0  0  0  0  0  0  0  0  0  0  0
  -27.8559  -30.2251   20.2226 N   0  0  0  0  0  0  0  0  0  0  0  0
  -24.2115  -30.6209   22.8604 N   0  0  0  0  0  0  0  0  0  0  0  0
  -25.4112  -13.7379   20.3958 N   0  0  0  0  0  0  0  0  0  0  0  0
  -19.2407  -15.9562   22.2573 N   0  0  0  0  0  0  0  0  0  0  0  0
  -29.6025  -24.3646   19.1154 N   0  0  0  0  0  0  0  0  0  0  0  0
  -18.2231  -16.9832   25.5705 N   0  3  0  0  0  0  0  0  0  0  0  0
  -26.2004  -31.5999   22.2735 O   0  0  0  0  0  0  0  0  0  0  0  0
  -24.0015  -15.4556   19.6993 O   0  0  0  0  0  0  0  0  0  0  0  0
  -20.9883  -13.8852   21.3271 O   0  0  0  0  0  0  0  0  0  0  0  0
  -19.6427  -17.9629   23.3476 O   0  0  0  0  0  0  0  0  0  0  0  0
  -30.1396  -24.3537   16.8864 O   0  0  0  0  0  0  0  0  0  0  0  0
  -19.8966  -27.1031   23.0653 O   0  0  0  0  0  0  0  0  0  0  0  0
  -26.0454  -20.2419   23.7513 O   0  0  0  0  0  0  0  0  0  1  0  0
  -16.1424  -31.1054   23.6049 F   0  0  0  0  0  0  0  0  0  0  0  0
  -17.4488  -26.9328   21.7917 F   0  0  0  0  0  0  0  0  0  0  0  0
  1  2  1  0  0  0  0
  1  5  2  0  0  0  0
  2  6  2  0  0  0  0
  3  8  2  0  0  0  0
  3 16  1  0  0  0  0
  4  9  1  0  0  0  0
  4 16  2  0  0  0  0
  5 18  1  0  0  0  0
  6 20  1  0  0  0  0
  7 10  2  0  0  0  0
  7 19  1  0  0  0  0
  8 23  1  0  0  0  0
  9 23  2  0  0  0  0
 10 24  1  0  0  0  0
 11 12  2  0  0  0  0
 11 25  1  0  0  0  0
 12 26  1  0  0  0  0
 13 21  1  0  0  0  0
 13 24  2  0  0  0  0
 14 26  2  0  0  0  0
 14 27  1  0  0  0  0
 15 22  2  0  0  0  0
 15 67  1  0  0  0  0
 16 28  1  0  0  0  0
 17 28  1  0  0  0  0
 17 30  2  0  0  0  0
 17 31  1  0  0  0  0
 18 20  2  0  0  0  0
 18 36  1  0  0  0  0
 19 21  2  0  0  0  0
 19 37  1  0  0  0  0
 20 45  1  0  0  0  0
 21 38  1  0  0  0  0
 22 29  1  0  0  0  0
 22 56  1  0  0  0  0
 23 82  1  0  0  0  0
 24 83  1  0  0  0  0
 25 27  2  0  0  0  0
 25 82  1  0  0  0  0
 26 84  1  0  0  0  0
 27 85  1  0  0  0  0
 28 65  2  0  0  0  0
 29 57  1  0  0  0  0
 29 66  2  0  0  0  0
 30 68  1  0  0  0  0
 30 71  1  0  0  0  0
 31 72  1  0  0  0  0
 31 77  2  0  0  0  0
 32 46  1  0  0  0  0
 32 73  1  0  0  0  0
 32 78  2  0  0  0  0
 33 60  1  0  0  0  0
 33 69  1  0  0  0  0
 33 79  2  0  0  0  0
 34 61  1  0  0  0  0
 34 74  1  0  0  0  0
 34 80  2  0  0  0  0
 35 70  1  0  0  0  0
 35 75  1  0  0  0  0
 35 81  2  0  0  0  0
 36 39  1  0  0  0  0
 37 46  1  0  0  0  0
 38 69  1  0  0  0  0
 39 41  1  0  0  0  0
 40 42  1  0  0  0  0
 40 43  1  0  0  0  0
 41 45  1  0  0  0  0
 42 47  1  0  0  0  0
 43 70  1  0  0  0  0
 44 47  1  0  0  0  0
 44 70  1  0  0  0  0
 45 73  1  0  0  0  0
 46 69  1  0  0  0  0
 47 68  1  0  0  0  0
 48 61  1  0  0  0  0
 49 62  1  0  0  0  0
 50 62  1  0  0  0  0
 51 63  1  0  0  0  0
 52 64  1  0  0  0  0
 53 64  1  0  0  0  0
 54 64  1  0  0  0  0
 55 76  1  0  0  0  0
 56 58  1  0  0  0  0
 57 63  1  0  0  0  0
 58 59  1  0  0  0  0
 59 83  1  0  0  0  0
 60 64  1  0  0  0  0
 60 74  1  0  0  0  0
 61 76  1  0  0  0  0
 62 67  1  0  0  0  0
 63 75  1  0  0  0  0
 65 68  1  0  0  0  0
 66 67  1  0  0  0  0
M  CHG  1  76   1
M  ISO  4  35 100  59 101  75 100  83 101
M  END
> <Batch ID>
0080

> <Smiles>
CNC(C)C(=O)NC(C(=O)N1Cc2cc([101O:1][101CH2:1]CCc3cn(C(C)C)nc3CC(C)[100NH:0][100C:0](=O)N3CCCC(n4nc(-c5ccc(Oc6ccc(F)cc6F)cc5)c(C(N)=O)c4N)C3)ccc2CC1C(=O)NC1CCCc2ccccc21)C(C)(C)C

> <Shape>
0.276

> <Color>
0.068

> <Negative vol penalty>
0.000

$$$$

  -OEChem-04052318443D

 87 95  0     1  0  0  0  0  0999 V2000
  -19.7351  -27.0980   26.2932 C   0  0  0  0  0  0  0  0  0  0  0  0
  -21.0164  -26.8479   25.8124 C   0  0  0  0  0  0  0  0  0  0  0  0
  -26.8215  -13.2901   20.2066 C   0  0  0  0  0  0  0  0  0  0  0  0
  -24.4511  -13.6444   19.9022 C   0  0  0  0  0  0  0  0  0  0  0  0
  -18.7470  -27.5681   25.4291 C   0  0  0  0  0  0  0  0  0  0  0  0
  -21.3101  -27.0668   24.4670 C   0  0  0  0  0  0  0  0  0  0  0  0
  -25.7133  -29.4796   23.8073 C   0  0  0  0  0  0  0  0  0  0  0  0
  -26.6173  -11.9103   20.1903 C   0  0  0  0  0  0  0  0  0  0  0  0
  -24.2469  -12.2647   19.8859 C   0  0  0  0  0  0  0  0  0  0  0  0
  -26.8783  -28.7239   23.9312 C   0  0  0  0  0  0  0  0  0  0  0  0
  -24.0378   -9.7504   22.1366 C   0  0  0  0  0  0  0  0  0  0  0  0
  -22.9767   -9.2434   22.8867 C   0  0  0  0  0  0  0  0  0  0  0  0
  -27.0265  -28.5696   21.5284 C   0  0  0  0  0  0  0  0  0  0  0  0
  -21.9922   -8.3314   20.8776 C   0  0  0  0  0  0  0  0  0  0  0  0
  -26.6780  -24.5617   21.6690 C   0  0  0  0  0  0  0  0  0  0  0  0
  -25.7383  -14.1571   20.0626 C   0  0  0  0  0  0  0  0  0  0  0  0
  -26.2145  -16.4160   18.9771 C   0  0  0  0  0  0  0  0  0  0  0  0
  -19.0313  -27.8021   24.0745 C   0  0  0  0  0  0  0  0  0  0  0  0
  -25.1893  -29.7774   22.5411 C   0  0  0  0  0  0  0  0  0  0  0  0
  -20.3246  -27.5392   23.5837 C   0  0  0  0  0  0  0  0  0  0  0  0
  -25.8562  -29.3315   21.3911 C   0  0  0  0  0  0  0  0  0  0  0  0
  -28.0096  -24.2351   21.5866 C   0  0  0  0  0  0  0  0  0  0  0  0
  -25.3301  -11.3976   20.0299 C   0  0  0  0  0  0  0  0  0  0  0  0
  -27.5335  -28.2663   22.7918 C   0  0  0  0  0  0  0  0  0  0  0  0
  -24.0760   -9.5480   20.7569 C   0  0  0  0  0  0  0  0  0  0  0  0
  -21.9540   -8.5338   22.2572 C   0  0  0  0  0  0  0  0  0  0  0  0
  -23.0533   -8.8385   20.1275 C   0  0  0  0  0  0  0  0  0  0  0  0
  -25.9485  -15.5825   20.0799 C   0  0  0  0  0  0  0  0  0  0  0  0
  -28.1026  -23.4235   20.4401 C   0  0  0  0  0  0  0  0  0  0  0  0
  -26.3322  -17.6733   19.5174 C   0  0  0  0  0  0  0  0  0  0  0  0
  -26.3436  -16.0836   17.5884 C   0  0  0  0  0  0  0  0  0  0  0  0
  -22.4721  -29.1223   21.0274 C   0  0  0  0  0  0  0  0  0  0  0  0
  -23.7030  -31.1058   18.7750 C   0  0  0  0  0  0  0  0  0  0  0  0
  -26.4661  -32.5305   17.3671 C   0  0  0  0  0  0  0  0  0  0  0  0
  -24.5427  -21.6713   22.9756 C   0  0  0  0  0  0  0  0  0  0  0  0
  -17.9181  -28.2656   23.1686 C   0  0  0  0  0  0  0  0  0  0  0  0
  -23.9464  -30.6164   22.4239 C   0  0  0  0  0  0  0  0  0  0  0  0
  -25.3459  -29.6411   20.0083 C   0  0  0  0  0  0  0  0  0  0  0  0
  -18.4102  -28.8280   21.8375 C   0  0  0  0  0  0  0  0  0  0  0  0
  -26.6741  -19.1660   24.3384 C   0  0  0  0  0  0  0  0  0  0  0  0
  -19.4609  -27.9074   21.2248 C   0  0  0  0  0  0  0  0  0  0  0  0
  -26.6921  -18.0771   23.2641 C   0  0  0  0  0  0  0  0  0  0  0  0
  -25.3028  -19.8291   24.4470 C   0  0  0  0  0  0  0  0  0  0  0  0
  -24.7857  -19.2677   22.1036 C   0  0  0  0  0  0  0  0  0  0  0  0
  -20.6885  -27.7879   22.1360 C   0  0  1  0  0  0  0  0  0  0  0  0
  -23.2189  -30.4243   21.0968 C   0  0  1  0  0  0  0  0  0  0  0  0
  -26.1631  -18.6083   21.9183 C   0  0  2  0  0  0  0  0  0  0  0  0
  -30.7410  -19.1615   19.9966 C   0  0  0  0  0  0  0  0  0  0  0  0
  -27.1584  -34.0786   15.5174 C   0  0  0  0  0  0  0  0  0  0  0  0
  -24.2426  -25.4329   19.9425 C   0  0  0  0  0  0  0  0  0  0  0  0
  -30.2623  -28.1664   21.2312 C   0  0  0  0  0  0  0  0  0  0  0  0
  -23.2443  -28.8775   16.7417 C   0  0  0  0  0  0  0  0  0  0  0  0
  -24.7845  -30.0822   15.1781 C   0  0  0  0  0  0  0  0  0  0  0  0
  -22.6675  -31.1698   15.9251 C   0  0  0  0  0  0  0  0  0  0  0  0
  -27.6515  -34.4620   19.2705 C   0  0  0  0  0  0  0  0  0  0  0  0
  -29.1143  -24.6577   22.5218 C   0  0  0  0  0  0  0  0  0  0  0  0
  -29.3080  -22.7901   19.8773 C   0  0  0  0  0  0  0  0  0  0  0  0
  -30.6638  -20.6379   19.6419 C   0  0  0  0  0  0  0  0  0  0  0  0
  -30.0155  -25.7646   21.9554 C   0  0  0  0  0  0  0  0  0  0  0  0
  -29.3896  -21.2801   20.1904 C   0  0  0  0  0  0  0  0  0  0  0  0
  -23.7840  -23.4113   21.3768 C   0  0  0  0  0  0  0  0  0  0  0  0
  -24.5811  -30.9292   17.5598 C   0  0  1  0  0  0  0  0  0  0  0  0
  -26.7748  -33.9668   16.9847 C   0  0  2  0  0  0  0  0  0  0  0  0
  -24.6751  -24.0001   20.2717 C   0  0  2  0  0  0  0  0  0  0  0  0
  -29.2901  -27.0916   21.7007 C   0  0  1  0  0  0  0  0  0  1  0  0
  -23.8281  -30.2570   16.3771 C   0  0  0  0  0  0  0  0  0  0  0  0
  -25.9002  -16.2536   21.2337 N   0  0  0  0  0  0  0  0  0  0  0  0
  -26.9239  -23.2453   19.8375 N   0  0  0  0  0  0  0  0  0  0  0  0
  -26.0777  -23.9494   20.6084 N   0  0  0  0  0  0  0  0  0  0  0  0
  -26.1375  -17.5222   20.8589 N   0  0  0  0  0  0  0  0  0  0  0  0
  -24.1236  -30.4595   19.9460 N   0  0  0  0  0  0  0  0  0  0  0  0
  -24.8595  -20.3124   23.1371 N   0  0  0  0  0  0  0  0  0  0  0  0
  -26.5824  -18.8822   18.9712 N   0  0  0  0  0  0  0  0  0  0  0  0
  -26.1932  -14.7438   17.2054 N   0  0  0  0  0  0  0  0  0  0  0  0
  -21.5218  -28.9653   22.0182 N   0  0  0  0  0  0  0  0  0  0  0  0
  -25.1213  -32.2489   17.2513 N   0  0  0  0  0  0  0  0  0  0  0  0
  -24.1373  -22.0471   21.7008 N   0  0  0  0  0  0  0  0  0  0  0  0
  -27.9022  -34.4908   17.8065 N   0  3  0  0  0  0  0  0  0  0  0  0
  -26.6013  -16.9465   16.7152 O   0  0  0  0  0  0  0  0  0  0  0  0
  -22.7373  -28.3203   20.1396 O   0  0  0  0  0  0  0  0  0  0  0  0
  -22.6852  -31.7976   18.6903 O   0  0  0  0  0  0  0  0  0  0  0  0
  -27.3319  -31.7366   17.7286 O   0  0  0  0  0  0  0  0  0  0  0  0
  -24.6209  -22.4901   23.8977 O   0  0  0  0  0  0  0  0  0  0  0  0
  -25.1305  -10.0514   20.0137 O   0  0  0  0  0  0  0  0  0  0  0  0
  -28.6705  -27.5279   22.9099 O   0  0  0  0  0  0  0  0  0  1  0  0
  -20.9359   -8.0457   22.9779 F   0  0  0  0  0  0  0  0  0  0  0  0
  -23.0851   -8.6398   18.8026 F   0  0  0  0  0  0  0  0  0  0  0  0
  1  2  1  0  0  0  0
  1  5  2  0  0  0  0
  2  6  2  0  0  0  0
  3  8  2  0  0  0  0
  3 16  1  0  0  0  0
  4  9  1  0  0  0  0
  4 16  2  0  0  0  0
  5 18  1  0  0  0  0
  6 20  1  0  0  0  0
  7 10  2  0  0  0  0
  7 19  1  0  0  0  0
  8 23  1  0  0  0  0
  9 23  2  0  0  0  0
 10 24  1  0  0  0  0
 11 12  2  0  0  0  0
 11 25  1  0  0  0  0
 12 26  1  0  0  0  0
 13 21  1  0  0  0  0
 13 24  2  0  0  0  0
 14 26  2  0  0  0  0
 14 27  1  0  0  0  0
 15 22  2  0  0  0  0
 15 69  1  0  0  0  0
 16 28  1  0  0  0  0
 17 28  1  0  0  0  0
 17 30  2  0  0  0  0
 17 31  1  0  0  0  0
 18 20  2  0  0  0  0
 18 36  1  0  0  0  0
 19 21  2  0  0  0  0
 19 37  1  0  0  0  0
 20 45  1  0  0  0  0
 21 38  1  0  0  0  0
 22 29  1  0  0  0  0
 22 56  1  0  0  0  0
 23 84  1  0  0  0  0
 24 85  1  0  0  0  0
 25 27  2  0  0  0  0
 25 84  1  0  0  0  0
 26 86  1  0  0  0  0
 27 87  1  0  0  0  0
 28 67  2  0  0  0  0
 29 57  1  0  0  0  0
 29 68  2  0  0  0  0
 30 70  1  0  0  0  0
 30 73  1  0  0  0  0
 31 74  1  0  0  0  0
 31 79  2  0  0  0  0
 32 46  1  0  0  0  0
 32 75  1  0  0  0  0
 32 80  2  0  0  0  0
 33 62  1  0  0  0  0
 33 71  1  0  0  0  0
 33 81  2  0  0  0  0
 34 63  1  0  0  0  0
 34 76  1  0  0  0  0
 34 82  2  0  0  0  0
 35 72  1  0  0  0  0
 35 77  1  0  0  0  0
 35 83  2  0  0  0  0
 36 39  1  0  0  0  0
 37 46  1  0  0  0  0
 38 71  1  0  0  0  0
 39 41  1  0  0  0  0
 40 42  1  0  0  0  0
 40 43  1  0  0  0  0
 41 45  1  0  0  0  0
 42 47  1  0  0  0  0
 43 72  1  0  0  0  0
 44 47  1  0  0  0  0
 44 72  1  0  0  0  0
 45 75  1  0  0  0  0
 46 71  1  0  0  0  0
 47 70  1  0  0  0  0
 48 58  1  0  0  0  0
 49 63  1  0  0  0  0
 50 64  1  0  0  0  0
 51 65  1  0  0  0  0
 52 66  1  0  0  0  0
 53 66  1  0  0  0  0
 54 66  1  0  0  0  0
 55 78  1  0  0  0  0
 56 59  1  0  0  0  0
 57 60  1  0  0  0  0
 58 60  1  0  0  0  0
 59 65  1  0  0  0  0
 61 64  1  0  0  0  0
 61 77  1  0  0  0  0
 62 66  1  0  0  0  0
 62 76  1  0  0  0  0
 63 78  1  0  0  0  0
 64 69  1  0  0  0  0
 65 85  1  0  0  0  0
 67 70  1  0  0  0  0
 68 69  1  0  0  0  0
M  CHG  1  78   1
M  ISO  4  35 100  65 101  77 100  85 101
M  END
> <Batch ID>
0080

> <Smiles>
CCCCc1nn(C(C)C[100NH:0][100C:0](=O)N2CCCC(n3nc(-c4ccc(Oc5ccc(F)cc5F)cc4)c(C(N)=O)c3N)C2)cc1CC[101CH:1](C)[101O:1]c1ccc2c(c1)CN(C(=O)C(NC(=O)C(C)NC)C(C)(C)C)C(C(=O)NC1CCCc3ccccc31)C2

> <Shape>
0.206

> <Color>
0.081

> <Negative vol penalty>
0.000

$$$$

  -OEChem-04052318443D

 89 97  0     1  0  0  0  0  0999 V2000
  -17.1954  -29.5390   24.3596 C   0  0  0  0  0  0  0  0  0  0  0  0
  -17.9648  -28.4356   24.7144 C   0  0  0  0  0  0  0  0  0  0  0  0
  -30.2417  -20.4153   19.4802 C   0  0  0  0  0  0  0  0  0  0  0  0
  -28.2325  -20.7938   20.7673 C   0  0  0  0  0  0  0  0  0  0  0  0
  -17.3328  -30.1049   23.0928 C   0  0  0  0  0  0  0  0  0  0  0  0
  -18.8711  -27.8966   23.8021 C   0  0  0  0  0  0  0  0  0  0  0  0
  -24.3036  -25.3676   25.0663 C   0  0  0  0  0  0  0  0  0  0  0  0
  -30.0570  -21.6368   18.8326 C   0  0  0  0  0  0  0  0  0  0  0  0
  -28.0478  -22.0154   20.1198 C   0  0  0  0  0  0  0  0  0  0  0  0
  -24.7115  -24.0416   25.2049 C   0  0  0  0  0  0  0  0  0  0  0  0
  -28.1471  -22.8643   16.3286 C   0  0  0  0  0  0  0  0  0  0  0  0
  -28.3158  -22.8952   14.9444 C   0  0  0  0  0  0  0  0  0  0  0  0
  -25.4469  -24.0340   22.9075 C   0  0  0  0  0  0  0  0  0  0  0  0
  -25.3235  -15.4271   24.4247 C   0  0  0  0  0  0  0  0  0  0  0  0
  -30.0860  -24.5201   15.1964 C   0  0  0  0  0  0  0  0  0  0  0  0
  -29.3294  -19.9937   20.4475 C   0  0  0  0  0  0  0  0  0  0  0  0
  -30.2368  -18.4991   22.3050 C   0  0  0  0  0  0  0  0  0  0  0  0
  -18.2482  -29.5785   22.1679 C   0  0  0  0  0  0  0  0  0  0  0  0
  -24.4546  -26.0344   23.8420 C   0  0  0  0  0  0  0  0  0  0  0  0
  -19.0199  -28.4550   22.5212 C   0  0  0  0  0  0  0  0  0  0  0  0
  -25.0424  -25.3692   22.7567 C   0  0  0  0  0  0  0  0  0  0  0  0
  -25.3839  -16.7363   24.8890 C   0  0  0  0  0  0  0  0  0  0  0  0
  -24.2078  -17.4408   25.1207 C   0  0  0  0  0  0  0  0  0  0  0  0
  -28.9601  -22.4369   19.1525 C   0  0  0  0  0  0  0  0  0  0  0  0
  -25.2806  -23.3737   24.1246 C   0  0  0  0  0  0  0  0  0  0  0  0
  -28.9478  -23.6614   17.1468 C   0  0  0  0  0  0  0  0  0  0  0  0
  -29.2853  -23.7230   14.3782 C   0  0  0  0  0  0  0  0  0  0  0  0
  -29.9173  -24.4892   16.5806 C   0  0  0  0  0  0  0  0  0  0  0  0
  -29.5193  -18.7317   21.1164 C   0  0  0  0  0  0  0  0  0  0  0  0
  -24.0722  -14.8723   24.2095 C   0  0  0  0  0  0  0  0  0  0  0  0
  -23.0064  -16.7960   24.8743 C   0  0  0  0  0  0  0  0  0  0  0  0
  -30.1181  -17.1476   22.5188 C   0  0  0  0  0  0  0  0  0  0  0  0
  -30.9469  -19.4222   23.1413 C   0  0  0  0  0  0  0  0  0  0  0  0
  -22.4627  -27.3583   21.7483 C   0  0  0  0  0  0  0  0  0  0  0  0
  -25.2154  -28.3158   20.3243 C   0  0  0  0  0  0  0  0  0  0  0  0
  -28.5553  -27.8085   19.8399 C   0  0  0  0  0  0  0  0  0  0  0  0
  -26.0478  -13.0941   20.8297 C   0  0  0  0  0  0  0  0  0  0  0  0
  -18.3275  -30.1950   20.7937 C   0  0  0  0  0  0  0  0  0  0  0  0
  -24.0340  -27.4731   23.7165 C   0  0  0  0  0  0  0  0  0  0  0  0
  -25.2452  -26.0466   21.4268 C   0  0  0  0  0  0  0  0  0  0  0  0
  -19.5798  -29.7947   20.0179 C   0  0  0  0  0  0  0  0  0  0  0  0
  -29.5452  -13.0207   20.1669 C   0  0  0  0  0  0  0  0  0  0  0  0
  -19.8089  -28.2897   20.1137 C   0  0  0  0  0  0  0  0  0  0  0  0
  -29.9999  -14.4550   20.4424 C   0  0  0  0  0  0  0  0  0  0  0  0
  -28.1560  -12.9807   19.5340 C   0  0  0  0  0  0  0  0  0  0  0  0
  -27.5690  -15.1453   20.5556 C   0  0  0  0  0  0  0  0  0  0  0  0
  -20.0317  -27.8571   21.5679 C   0  0  1  0  0  0  0  0  0  0  0  0
  -23.7643  -27.8932   22.2750 C   0  0  1  0  0  0  0  0  0  0  0  0
  -28.9411  -15.2345   21.2452 C   0  0  2  0  0  0  0  0  0  0  0  0
  -26.7188  -17.3610   25.1272 C   0  0  0  0  0  0  0  0  0  0  0  0
  -21.5367  -18.4436   22.6780 C   0  0  0  0  0  0  0  0  0  0  0  0
  -22.7216  -12.7518   24.2692 C   0  0  0  0  0  0  0  0  0  0  0  0
  -30.5275  -28.7318   18.5928 C   0  0  0  0  0  0  0  0  0  0  0  0
  -21.4624  -17.9840   26.5756 C   0  0  0  0  0  0  0  0  0  0  0  0
  -20.5164  -16.5366   24.7998 C   0  0  0  0  0  0  0  0  0  0  0  0
  -24.1768  -27.0500   17.7496 C   0  0  0  0  0  0  0  0  0  0  0  0
  -26.5078  -27.1517   16.8415 C   0  0  0  0  0  0  0  0  0  0  0  0
  -25.3124  -29.2570   17.4428 C   0  0  0  0  0  0  0  0  0  0  0  0
  -30.0112  -28.4001   22.3477 C   0  0  0  0  0  0  0  0  0  0  0  0
  -24.2421  -18.8608   25.6265 C   0  0  0  0  0  0  0  0  0  0  0  0
  -21.5199  -18.7570   24.1714 C   0  0  0  0  0  0  0  0  0  0  0  0
  -25.0031  -19.8225   24.7112 C   0  0  0  0  0  0  0  0  0  0  0  0
  -23.9754  -13.3609   22.1688 C   0  0  0  0  0  0  0  0  0  0  0  0
  -24.9595  -21.2701   25.1865 C   0  0  0  0  0  0  0  0  0  1  0  0
  -23.9690  -13.4690   23.7127 C   0  0  1  0  0  0  0  0  0  0  0  0
  -26.1391  -27.7324   19.2824 C   0  0  1  0  0  0  0  0  0  0  0  0
  -29.7366  -28.7604   19.8914 C   0  0  2  0  0  0  0  0  0  0  0  0
  -21.7097  -17.5007   25.1059 C   0  0  0  0  0  0  0  0  0  0  0  0
  -25.5286  -27.7842   17.8534 C   0  0  0  0  0  0  0  0  0  0  0  0
  -28.9846  -17.6172   20.6103 N   0  0  0  0  0  0  0  0  0  0  0  0
  -22.9079  -15.5254   24.4231 N   0  0  0  0  0  0  0  0  0  0  0  0
  -29.3664  -16.6713   21.4853 N   0  0  0  0  0  0  0  0  0  0  0  0
  -24.8120  -27.4517   21.3521 N   0  0  0  0  0  0  0  0  0  0  0  0
  -27.1988  -13.7369   20.3450 N   0  0  0  0  0  0  0  0  0  0  0  0
  -30.5846  -16.3319   23.4881 N   0  0  0  0  0  0  0  0  0  0  0  0
  -30.9682  -20.7750   22.7754 N   0  0  0  0  0  0  0  0  0  0  0  0
  -21.3778  -28.1793   21.9904 N   0  0  0  0  0  0  0  0  0  0  0  0
  -27.4064  -28.4427   19.4168 N   0  0  0  0  0  0  0  0  0  0  0  0
  -25.1964  -13.8815   21.5952 N   0  0  0  0  0  0  0  0  0  0  0  0
  -30.6521  -28.3900   21.0075 N   0  3  0  0  0  0  0  0  0  0  0  0
  -31.5586  -19.0557   24.1732 O   0  0  0  0  0  0  0  0  0  0  0  0
  -22.4442  -26.2812   21.1642 O   0  0  0  0  0  0  0  0  0  0  0  0
  -24.8704  -29.4966   20.2335 O   0  0  0  0  0  0  0  0  0  0  0  0
  -28.6438  -26.6202   20.1410 O   0  0  0  0  0  0  0  0  0  0  0  0
  -25.8001  -11.9051   20.6019 O   0  0  0  0  0  0  0  0  0  0  0  0
  -28.7796  -23.6290   18.5210 O   0  0  0  0  0  0  0  0  0  0  0  0
  -25.6790  -22.0793   24.2570 O   0  0  0  0  0  0  0  0  0  1  0  0
  -29.4482  -23.7514   13.0490 F   0  0  0  0  0  0  0  0  0  0  0  0
  -30.6903  -25.2563   17.3616 F   0  0  0  0  0  0  0  0  0  0  0  0
  1  2  1  0  0  0  0
  1  5  2  0  0  0  0
  2  6  2  0  0  0  0
  3  8  2  0  0  0  0
  3 16  1  0  0  0  0
  4  9  1  0  0  0  0
  4 16  2  0  0  0  0
  5 18  1  0  0  0  0
  6 20  1  0  0  0  0
  7 10  2  0  0  0  0
  7 19  1  0  0  0  0
  8 24  1  0  0  0  0
  9 24  2  0  0  0  0
 10 25  1  0  0  0  0
 11 12  2  0  0  0  0
 11 26  1  0  0  0  0
 12 27  1  0  0  0  0
 13 21  1  0  0  0  0
 13 25  2  0  0  0  0
 14 22  2  0  0  0  0
 14 30  1  0  0  0  0
 15 27  2  0  0  0  0
 15 28  1  0  0  0  0
 16 29  1  0  0  0  0
 17 29  1  0  0  0  0
 17 32  2  0  0  0  0
 17 33  1  0  0  0  0
 18 20  2  0  0  0  0
 18 38  1  0  0  0  0
 19 21  2  0  0  0  0
 19 39  1  0  0  0  0
 20 47  1  0  0  0  0
 21 40  1  0  0  0  0
 22 23  1  0  0  0  0
 22 50  1  0  0  0  0
 23 31  2  0  0  0  0
 23 60  1  0  0  0  0
 24 86  1  0  0  0  0
 25 87  1  0  0  0  0
 26 28  2  0  0  0  0
 26 86  1  0  0  0  0
 27 88  1  0  0  0  0
 28 89  1  0  0  0  0
 29 70  2  0  0  0  0
 30 65  1  0  0  0  0
 30 71  2  0  0  0  0
 31 68  1  0  0  0  0
 31 71  1  0  0  0  0
 32 72  1  0  0  0  0
 32 75  1  0  0  0  0
 33 76  1  0  0  0  0
 33 81  2  0  0  0  0
 34 48  1  0  0  0  0
 34 77  1  0  0  0  0
 34 82  2  0  0  0  0
 35 66  1  0  0  0  0
 35 73  1  0  0  0  0
 35 83  2  0  0  0  0
 36 67  1  0  0  0  0
 36 78  1  0  0  0  0
 36 84  2  0  0  0  0
 37 74  1  0  0  0  0
 37 79  1  0  0  0  0
 37 85  2  0  0  0  0
 38 41  1  0  0  0  0
 39 48  1  0  0  0  0
 40 73  1  0  0  0  0
 41 43  1  0  0  0  0
 42 44  1  0  0  0  0
 42 45  1  0  0  0  0
 43 47  1  0  0  0  0
 44 49  1  0  0  0  0
 45 74  1  0  0  0  0
 46 49  1  0  0  0  0
 46 74  1  0  0  0  0
 47 77  1  0  0  0  0
 48 73  1  0  0  0  0
 49 72  1  0  0  0  0
 51 61  1  0  0  0  0
 52 65  1  0  0  0  0
 53 67  1  0  0  0  0
 54 68  1  0  0  0  0
 55 68  1  0  0  0  0
 56 69  1  0  0  0  0
 57 69  1  0  0  0  0
 58 69  1  0  0  0  0
 59 80  1  0  0  0  0
 60 62  1  0  0  0  0
 61 68  1  0  0  0  0
 62 64  1  0  0  0  0
 63 65  1  0  0  0  0
 63 79  1  0  0  0  0
 64 87  1  0  0  0  0
 66 69  1  0  0  0  0
 66 78  1  0  0  0  0
 67 80  1  0  0  0  0
 70 72  1  0  0  0  0
M  CHG  1  80   1
M  ISO  4  37 100  64 101  79 100  87 101
M  END
> <Batch ID>
0080

> <Smiles>
CCC(C)(C)c1nc(C(C)C[100NH:0][100C:0](=O)N2CCCC(n3nc(-c4ccc(Oc5ccc(F)cc5F)cc4)c(C(N)=O)c3N)C2)cc(C)c1CC[101CH2:1][101O:1]c1ccc2c(c1)CN(C(=O)C(NC(=O)C(C)NC)C(C)(C)C)C(C(=O)NC1CCCc3ccccc31)C2

> <Shape>
0.217

> <Color>
0.068

> <Negative vol penalty>
0.000

$$$$

  -OEChem-04052318443D

 83 91  0     1  0  0  0  0  0999 V2000
  -22.4110  -26.0930   15.9943 C   0  0  0  0  0  0  0  0  0  0  0  0
  -23.0481  -25.2092   16.8595 C   0  0  0  0  0  0  0  0  0  0  0  0
  -23.0722   -9.8722   19.9391 C   0  0  0  0  0  0  0  0  0  0  0  0
  -23.8380   -9.8724   22.2305 C   0  0  0  0  0  0  0  0  0  0  0  0
  -23.1659  -26.9049   15.1488 C   0  0  0  0  0  0  0  0  0  0  0  0
  -24.4404  -25.1361   16.8789 C   0  0  0  0  0  0  0  0  0  0  0  0
  -26.3151  -25.0316   21.5820 C   0  0  0  0  0  0  0  0  0  0  0  0
  -22.3285   -8.7187   20.1877 C   0  0  0  0  0  0  0  0  0  0  0  0
  -23.0942   -8.7189   22.4792 C   0  0  0  0  0  0  0  0  0  0  0  0
  -26.2491  -23.8191   22.2670 C   0  0  0  0  0  0  0  0  0  0  0  0
  -19.8673   -7.9207   23.0877 C   0  0  0  0  0  0  0  0  0  0  0  0
  -19.1133   -7.8777   24.2605 C   0  0  0  0  0  0  0  0  0  0  0  0
  -28.5633  -23.3978   21.7319 C   0  0  0  0  0  0  0  0  0  0  0  0
  -28.3755  -18.8437   21.9504 C   0  0  0  0  0  0  0  0  0  0  0  0
  -20.3558   -5.9377   24.9882 C   0  0  0  0  0  0  0  0  0  0  0  0
  -28.3904  -18.3002   19.6350 C   0  0  0  0  0  0  0  0  0  0  0  0
  -23.8270  -10.4491   20.9605 C   0  0  0  0  0  0  0  0  0  0  0  0
  -24.1695  -12.9744   20.8467 C   0  0  0  0  0  0  0  0  0  0  0  0
  -24.5685  -26.8486   15.1647 C   0  0  0  0  0  0  0  0  0  0  0  0
  -27.5046  -25.4319   20.9565 C   0  0  0  0  0  0  0  0  0  0  0  0
  -25.2147  -25.9471   16.0318 C   0  0  0  0  0  0  0  0  0  0  0  0
  -28.6425  -24.6170   21.0418 C   0  0  0  0  0  0  0  0  0  0  0  0
  -29.0772  -18.4025   20.8341 C   0  0  0  0  0  0  0  0  0  0  0  0
  -27.0275  -19.1646   21.8353 C   0  0  0  0  0  0  0  0  0  0  0  0
  -22.3395   -8.1420   21.4577 C   0  0  0  0  0  0  0  0  0  0  0  0
  -27.3724  -23.0006   22.3395 C   0  0  0  0  0  0  0  0  0  0  0  0
  -20.8655   -6.9721   22.8652 C   0  0  0  0  0  0  0  0  0  0  0  0
  -19.3576   -6.8863   25.2107 C   0  0  0  0  0  0  0  0  0  0  0  0
  -21.1098   -5.9806   23.8154 C   0  0  0  0  0  0  0  0  0  0  0  0
  -24.5959  -11.6403   20.7041 C   0  0  0  0  0  0  0  0  0  0  0  0
  -26.4325  -19.0284   20.5914 C   0  0  0  0  0  0  0  0  0  0  0  0
  -25.2611  -13.7245   20.4827 C   0  0  0  0  0  0  0  0  0  0  0  0
  -22.9004  -13.4895   21.2703 C   0  0  0  0  0  0  0  0  0  0  0  0
  -28.3654  -26.0492   17.9595 C   0  0  0  0  0  0  0  0  0  0  0  0
  -31.1423  -26.9723   19.3590 C   0  0  0  0  0  0  0  0  0  0  0  0
  -33.2603  -26.7401   22.0249 C   0  0  0  0  0  0  0  0  0  0  0  0
  -30.7457  -14.7407   20.6599 C   0  0  0  0  0  0  0  0  0  0  0  0
  -25.3406  -27.7120   14.1987 C   0  0  0  0  0  0  0  0  0  0  0  0
  -27.5671  -26.7553   20.2443 C   0  0  0  0  0  0  0  0  0  0  0  0
  -29.9493  -25.0105   20.4047 C   0  0  0  0  0  0  0  0  0  0  0  0
  -26.8211  -27.8421   14.5475 C   0  0  0  0  0  0  0  0  0  0  0  0
  -29.6010  -12.3634   18.2693 C   0  0  0  0  0  0  0  0  0  0  0  0
  -27.4137  -26.4760   14.8783 C   0  0  0  0  0  0  0  0  0  0  0  0
  -28.1645  -12.0691   18.7051 C   0  0  0  0  0  0  0  0  0  0  0  0
  -30.5213  -12.5805   19.4684 C   0  0  0  0  0  0  0  0  0  0  0  0
  -28.6234  -13.3084   20.8620 C   0  0  0  0  0  0  0  0  0  0  0  0
  -26.7238  -25.8565   16.0997 C   0  0  1  0  0  0  0  0  0  0  0  0
  -28.6838  -26.8235   19.2072 C   0  0  1  0  0  0  0  0  0  0  0  0
  -27.6461  -13.1376   19.6864 C   0  0  2  0  0  0  0  0  0  0  0  0
  -24.9874  -19.3594   20.4082 C   0  0  0  0  0  0  0  0  0  0  0  0
  -31.3898  -19.2691   21.3078 C   0  0  0  0  0  0  0  0  0  0  0  0
  -35.4697  -27.5830   22.8648 C   0  0  0  0  0  0  0  0  0  0  0  0
  -32.5870  -25.0769   17.4537 C   0  0  0  0  0  0  0  0  0  0  0  0
  -34.5998  -25.2345   18.9342 C   0  0  0  0  0  0  0  0  0  0  0  0
  -33.7255  -27.2766   17.7992 C   0  0  0  0  0  0  0  0  0  0  0  0
  -32.0087  -28.0124   24.3858 C   0  0  0  0  0  0  0  0  0  0  0  0
  -26.2593  -19.6424   23.0435 C   0  0  0  0  0  0  0  0  0  0  0  0
  -30.8156  -16.8878   21.9026 C   0  0  0  0  0  0  0  0  0  0  0  0
  -26.0477  -21.1525   23.0361 C   0  0  0  0  0  0  0  0  0  1  0  0
  -30.5198  -18.0521   20.9237 C   0  0  1  0  0  0  0  0  0  0  0  0
  -32.4327  -26.2829   19.7314 C   0  0  1  0  0  0  0  0  0  0  0  0
  -33.9652  -27.8039   22.8471 C   0  0  2  0  0  0  0  0  0  0  0  0
  -33.3112  -25.9591   18.4901 C   0  0  0  0  0  0  0  0  0  0  0  0
  -27.0814  -18.6028   19.4844 N   0  0  0  0  0  0  0  0  0  0  0  0
  -25.8596  -11.5452   20.2823 N   0  0  0  0  0  0  0  0  0  0  0  0
  -26.2367  -12.8290   20.1566 N   0  0  0  0  0  0  0  0  0  0  0  0
  -29.9583  -26.3108   19.7143 N   0  0  0  0  0  0  0  0  0  0  0  0
  -29.9734  -13.6067   20.3587 N   0  0  0  0  0  0  0  0  0  0  0  0
  -25.4718  -15.0560   20.4129 N   0  0  0  0  0  0  0  0  0  0  0  0
  -21.8889  -12.5798   21.6077 N   0  0  0  0  0  0  0  0  0  0  0  0
  -27.2134  -26.4637   17.3187 N   0  0  0  0  0  0  0  0  0  0  0  0
  -33.0834  -27.1393   20.7170 N   0  0  0  0  0  0  0  0  0  0  0  0
  -30.1491  -15.6674   21.5061 N   0  0  0  0  0  0  0  0  0  0  0  0
  -33.4707  -27.7843   24.2528 N   0  3  0  0  0  0  0  0  0  0  0  0
  -22.6648  -14.7201   21.3318 O   0  0  0  0  0  0  0  0  0  0  0  0
  -29.1104  -25.1436   17.6038 O   0  0  0  0  0  0  0  0  0  0  0  0
  -31.1835  -28.0611   18.7808 O   0  0  0  0  0  0  0  0  0  0  0  0
  -32.9057  -25.6613   22.4950 O   0  0  0  0  0  0  0  0  0  0  0  0
  -31.8806  -14.9170   20.2038 O   0  0  0  0  0  0  0  0  0  0  0  0
  -21.6137   -7.0165   21.7008 O   0  0  0  0  0  0  0  0  0  0  0  0
  -27.3105  -21.8163   23.0069 O   0  0  0  0  0  0  0  0  0  1  0  0
  -18.6346   -6.8461   26.3376 F   0  0  0  0  0  0  0  0  0  0  0  0
  -22.0682   -5.0673   23.6078 F   0  0  0  0  0  0  0  0  0  0  0  0
  1  2  1  0  0  0  0
  1  5  2  0  0  0  0
  2  6  2  0  0  0  0
  3  8  2  0  0  0  0
  3 17  1  0  0  0  0
  4  9  1  0  0  0  0
  4 17  2  0  0  0  0
  5 19  1  0  0  0  0
  6 21  1  0  0  0  0
  7 10  2  0  0  0  0
  7 20  1  0  0  0  0
  8 25  1  0  0  0  0
  9 25  2  0  0  0  0
 10 26  1  0  0  0  0
 11 12  2  0  0  0  0
 11 27  1  0  0  0  0
 12 28  1  0  0  0  0
 13 22  1  0  0  0  0
 13 26  2  0  0  0  0
 14 23  2  0  0  0  0
 14 24  1  0  0  0  0
 15 28  2  0  0  0  0
 15 29  1  0  0  0  0
 16 23  1  0  0  0  0
 16 64  2  0  0  0  0
 17 30  1  0  0  0  0
 18 30  1  0  0  0  0
 18 32  2  0  0  0  0
 18 33  1  0  0  0  0
 19 21  2  0  0  0  0
 19 38  1  0  0  0  0
 20 22  2  0  0  0  0
 20 39  1  0  0  0  0
 21 47  1  0  0  0  0
 22 40  1  0  0  0  0
 23 60  1  0  0  0  0
 24 31  2  0  0  0  0
 24 57  1  0  0  0  0
 25 80  1  0  0  0  0
 26 81  1  0  0  0  0
 27 29  2  0  0  0  0
 27 80  1  0  0  0  0
 28 82  1  0  0  0  0
 29 83  1  0  0  0  0
 30 65  2  0  0  0  0
 31 50  1  0  0  0  0
 31 64  1  0  0  0  0
 32 66  1  0  0  0  0
 32 69  1  0  0  0  0
 33 70  1  0  0  0  0
 33 75  2  0  0  0  0
 34 48  1  0  0  0  0
 34 71  1  0  0  0  0
 34 76  2  0  0  0  0
 35 61  1  0  0  0  0
 35 67  1  0  0  0  0
 35 77  2  0  0  0  0
 36 62  1  0  0  0  0
 36 72  1  0  0  0  0
 36 78  2  0  0  0  0
 37 68  1  0  0  0  0
 37 73  1  0  0  0  0
 37 79  2  0  0  0  0
 38 41  1  0  0  0  0
 39 48  1  0  0  0  0
 40 67  1  0  0  0  0
 41 43  1  0  0  0  0
 42 44  1  0  0  0  0
 42 45  1  0  0  0  0
 43 47  1  0  0  0  0
 44 49  1  0  0  0  0
 45 68  1  0  0  0  0
 46 49  1  0  0  0  0
 46 68  1  0  0  0  0
 47 71  1  0  0  0  0
 48 67  1  0  0  0  0
 49 66  1  0  0  0  0
 51 60  1  0  0  0  0
 52 62  1  0  0  0  0
 53 63  1  0  0  0  0
 54 63  1  0  0  0  0
 55 63  1  0  0  0  0
 56 74  1  0  0  0  0
 57 59  1  0  0  0  0
 58 60  1  0  0  0  0
 58 73  1  0  0  0  0
 59 81  1  0  0  0  0
 61 63  1  0  0  0  0
 61 72  1  0  0  0  0
 62 74  1  0  0  0  0
 65 66  1  0  0  0  0
M  CHG  1  74   1
M  ISO  4  37 100  59 101  73 100  81 101
M  END
> <Batch ID>
0080

> <Smiles>
CNC(C)C(=O)NC(C(=O)N1Cc2cc([101O:1][101CH2:1]Cc3cc(C(C)C[100NH:0][100C:0](=O)N4CCCC(n5nc(-c6ccc(Oc7ccc(F)cc7F)cc6)c(C(N)=O)c5N)C4)cnc3C)ccc2CC1C(=O)NC1CCCc2ccccc21)C(C)(C)C

> <Shape>
0.250

> <Color>
0.192

> <Negative vol penalty>
0.000

$$$$

  -OEChem-04052318443D

 80 88  0     1  0  0  0  0  0999 V2000
  -31.4307  -25.6007   14.9981 C   0  0  0  0  0  0  0  0  0  0  0  0
  -30.0765  -25.4132   15.2556 C   0  0  0  0  0  0  0  0  0  0  0  0
  -27.1066  -13.8715   21.8130 C   0  0  0  0  0  0  0  0  0  0  0  0
  -26.6677  -14.0703   19.4456 C   0  0  0  0  0  0  0  0  0  0  0  0
  -32.3251  -25.7574   16.0562 C   0  0  0  0  0  0  0  0  0  0  0  0
  -29.6160  -25.3812   16.5714 C   0  0  0  0  0  0  0  0  0  0  0  0
  -25.4062  -28.1194   17.2235 C   0  0  0  0  0  0  0  0  0  0  0  0
  -26.2602  -12.7647   21.8770 C   0  0  0  0  0  0  0  0  0  0  0  0
  -25.8212  -12.9635   19.5096 C   0  0  0  0  0  0  0  0  0  0  0  0
  -24.2058  -27.5529   16.7973 C   0  0  0  0  0  0  0  0  0  0  0  0
  -26.1264   -9.5999   19.6253 C   0  0  0  0  0  0  0  0  0  0  0  0
  -26.2521   -8.6313   18.6294 C   0  0  0  0  0  0  0  0  0  0  0  0
  -23.7038  -26.9211   19.0706 C   0  0  0  0  0  0  0  0  0  0  0  0
  -23.9544   -9.0005   17.9803 C   0  0  0  0  0  0  0  0  0  0  0  0
  -24.0812  -23.2681   17.3388 C   0  0  0  0  0  0  0  0  0  0  0  0
  -27.3103  -14.5244   20.5973 C   0  0  0  0  0  0  0  0  0  0  0  0
  -29.5683  -15.6666   20.2737 C   0  0  0  0  0  0  0  0  0  0  0  0
  -31.8740  -25.7370   17.3853 C   0  0  0  0  0  0  0  0  0  0  0  0
  -25.7702  -28.0814   18.5772 C   0  0  0  0  0  0  0  0  0  0  0  0
  -30.5054  -25.5365   17.6483 C   0  0  0  0  0  0  0  0  0  0  0  0
  -24.9082  -27.4901   19.5118 C   0  0  0  0  0  0  0  0  0  0  0  0
  -25.6175  -12.3107   20.7253 C   0  0  0  0  0  0  0  0  0  0  0  0
  -23.3557  -26.9510   17.7204 C   0  0  0  0  0  0  0  0  0  0  0  0
  -24.9146  -10.2687   19.7987 C   0  0  0  0  0  0  0  0  0  0  0  0
  -25.1662   -8.3317   17.8069 C   0  0  0  0  0  0  0  0  0  0  0  0
  -23.8287   -9.9690   18.9762 C   0  0  0  0  0  0  0  0  0  0  0  0
  -28.1842  -15.6681   20.5307 C   0  0  0  0  0  0  0  0  0  0  0  0
  -25.0369  -22.5254   16.6921 C   0  0  0  0  0  0  0  0  0  0  0  0
  -29.9271  -16.9916   20.3177 C   0  0  0  0  0  0  0  0  0  0  0  0
  -30.4507  -14.5658   20.0181 C   0  0  0  0  0  0  0  0  0  0  0  0
  -28.1721  -26.8013   20.2191 C   0  0  0  0  0  0  0  0  0  0  0  0
  -26.8225  -28.4067   22.6936 C   0  0  0  0  0  0  0  0  0  0  0  0
  -24.0311  -29.8314   24.0447 C   0  0  0  0  0  0  0  0  0  0  0  0
  -26.8867  -22.0711   19.4200 C   0  0  0  0  0  0  0  0  0  0  0  0
  -32.8852  -25.8634   18.4972 C   0  0  0  0  0  0  0  0  0  0  0  0
  -27.0560  -28.7206   19.0248 C   0  0  0  0  0  0  0  0  0  0  0  0
  -25.2431  -27.4410   20.9794 C   0  0  0  0  0  0  0  0  0  0  0  0
  -32.2630  -26.1919   19.8519 C   0  0  0  0  0  0  0  0  0  0  0  0
  -28.6854  -21.1418   22.3487 C   0  0  0  0  0  0  0  0  0  0  0  0
  -31.0552  -25.2983   20.1154 C   0  0  0  0  0  0  0  0  0  0  0  0
  -28.8858  -19.6335   22.1917 C   0  0  0  0  0  0  0  0  0  0  0  0
  -27.3288  -21.5901   21.8094 C   0  0  0  0  0  0  0  0  0  0  0  0
  -27.2490  -19.6724   20.2634 C   0  0  0  0  0  0  0  0  0  0  0  0
  -29.9639  -25.5207   19.0613 C   0  0  1  0  0  0  0  0  0  0  0  0
  -27.5666  -28.1699   20.3527 C   0  0  1  0  0  0  0  0  0  0  0  0
  -28.6259  -19.1812   20.7422 C   0  0  2  0  0  0  0  0  0  0  0  0
  -23.2292  -31.0329   26.0967 C   0  0  0  0  0  0  0  0  0  0  0  0
  -26.7791  -25.7653   24.2203 C   0  0  0  0  0  0  0  0  0  0  0  0
  -25.1505  -26.7958   25.8183 C   0  0  0  0  0  0  0  0  0  0  0  0
  -27.4437  -27.7503   25.5887 C   0  0  0  0  0  0  0  0  0  0  0  0
  -23.3123  -32.2459   22.4915 C   0  0  0  0  0  0  0  0  0  0  0  0
  -26.4679  -22.3944   16.9952 C   0  0  0  0  0  0  0  0  0  0  0  0
  -21.1696  -24.6982   15.9493 C   0  0  0  0  0  0  0  0  0  0  0  0
  -21.5617  -23.5531   16.8856 C   0  0  0  0  0  0  0  0  0  0  0  0
  -22.1473  -25.8671   15.9823 C   0  0  0  0  0  0  0  0  0  1  0  0
  -25.7680  -28.0889   23.7261 C   0  0  1  0  0  0  0  0  0  0  0  0
  -23.8055  -31.1833   24.6974 C   0  0  2  0  0  0  0  0  0  0  0  0
  -26.2796  -27.0991   24.8105 C   0  0  0  0  0  0  0  0  0  0  0  0
  -27.6969  -16.8966   20.7237 N   0  0  0  0  0  0  0  0  0  0  0  0
  -24.4678  -21.8568   15.6439 N   0  0  0  0  0  0  0  0  0  0  0  0
  -23.1755  -22.1638   15.6172 N   0  0  0  0  0  0  0  0  0  0  0  0
  -22.9458  -23.0103   16.6341 N   0  0  0  0  0  0  0  0  0  0  0  0
  -28.7808  -17.6794   20.5881 N   0  0  0  0  0  0  0  0  0  0  0  0
  -26.5146  -28.0742   21.3668 N   0  0  0  0  0  0  0  0  0  0  0  0
  -27.1457  -21.1306   20.4306 N   0  0  0  0  0  0  0  0  0  0  0  0
  -31.1082  -17.6239   20.1511 N   0  0  0  0  0  0  0  0  0  0  0  0
  -29.9171  -13.2699   20.0090 N   0  0  0  0  0  0  0  0  0  0  0  0
  -29.2349  -26.7399   19.3381 N   0  0  0  0  0  0  0  0  0  0  0  0
  -25.3139  -29.3710   24.2538 N   0  0  0  0  0  0  0  0  0  0  0  0
  -26.7323  -21.5520   18.1403 N   0  0  0  0  0  0  0  0  0  0  0  0
  -22.8598  -31.9995   23.8848 N   0  3  0  0  0  0  0  0  0  0  0  0
  -31.6791  -14.7254   19.8204 O   0  0  0  0  0  0  0  0  0  0  0  0
  -27.7103  -25.8702   20.8684 O   0  0  0  0  0  0  0  0  0  0  0  0
  -27.8775  -28.9372   23.0502 O   0  0  0  0  0  0  0  0  0  0  0  0
  -23.1557  -29.2411   23.4156 O   0  0  0  0  0  0  0  0  0  0  0  0
  -26.8047  -23.2842   19.6408 O   0  0  0  0  0  0  0  0  0  0  0  0
  -24.7916  -11.2305   20.7873 O   0  0  0  0  0  0  0  0  0  0  0  0
  -22.1837  -26.3967   17.3069 O   0  0  0  0  0  0  0  0  0  1  0  0
  -25.2875   -7.4027   16.8496 F   0  0  0  0  0  0  0  0  0  0  0  0
  -22.6624  -10.6091   19.1373 F   0  0  0  0  0  0  0  0  0  0  0  0
  1  2  1  0  0  0  0
  1  5  2  0  0  0  0
  2  6  2  0  0  0  0
  3  8  2  0  0  0  0
  3 16  1  0  0  0  0
  4  9  1  0  0  0  0
  4 16  2  0  0  0  0
  5 18  1  0  0  0  0
  6 20  1  0  0  0  0
  7 10  2  0  0  0  0
  7 19  1  0  0  0  0
  8 22  1  0  0  0  0
  9 22  2  0  0  0  0
 10 23  1  0  0  0  0
 11 12  2  0  0  0  0
 11 24  1  0  0  0  0
 12 25  1  0  0  0  0
 13 21  1  0  0  0  0
 13 23  2  0  0  0  0
 14 25  2  0  0  0  0
 14 26  1  0  0  0  0
 15 28  2  0  0  0  0
 15 62  1  0  0  0  0
 16 27  1  0  0  0  0
 17 27  1  0  0  0  0
 17 29  2  0  0  0  0
 17 30  1  0  0  0  0
 18 20  2  0  0  0  0
 18 35  1  0  0  0  0
 19 21  2  0  0  0  0
 19 36  1  0  0  0  0
 20 44  1  0  0  0  0
 21 37  1  0  0  0  0
 22 77  1  0  0  0  0
 23 78  1  0  0  0  0
 24 26  2  0  0  0  0
 24 77  1  0  0  0  0
 25 79  1  0  0  0  0
 26 80  1  0  0  0  0
 27 59  2  0  0  0  0
 28 52  1  0  0  0  0
 28 60  1  0  0  0  0
 29 63  1  0  0  0  0
 29 66  1  0  0  0  0
 30 67  1  0  0  0  0
 30 72  2  0  0  0  0
 31 45  1  0  0  0  0
 31 68  1  0  0  0  0
 31 73  2  0  0  0  0
 32 56  1  0  0  0  0
 32 64  1  0  0  0  0
 32 74  2  0  0  0  0
 33 57  1  0  0  0  0
 33 69  1  0  0  0  0
 33 75  2  0  0  0  0
 34 65  1  0  0  0  0
 34 70  1  0  0  0  0
 34 76  2  0  0  0  0
 35 38  1  0  0  0  0
 36 45  1  0  0  0  0
 37 64  1  0  0  0  0
 38 40  1  0  0  0  0
 39 41  1  0  0  0  0
 39 42  1  0  0  0  0
 40 44  1  0  0  0  0
 41 46  1  0  0  0  0
 42 65  1  0  0  0  0
 43 46  1  0  0  0  0
 43 65  1  0  0  0  0
 44 68  1  0  0  0  0
 45 64  1  0  0  0  0
 46 63  1  0  0  0  0
 47 57  1  0  0  0  0
 48 58  1  0  0  0  0
 49 58  1  0  0  0  0
 50 58  1  0  0  0  0
 51 71  1  0  0  0  0
 52 70  1  0  0  0  0
 53 54  1  0  0  0  0
 53 55  1  0  0  0  0
 54 62  1  0  0  0  0
 55 78  1  0  0  0  0
 56 58  1  0  0  0  0
 56 69  1  0  0  0  0
 57 71  1  0  0  0  0
 59 63  1  0  0  0  0
 60 61  2  0  0  0  0
 61 62  1  0  0  0  0
M  CHG  1  71   1
M  ISO  4  34 100  55 101  70 100  78 101
M  END
> <Batch ID>
0080

> <Smiles>
CNC(C)C(=O)NC(C(=O)N1Cc2cc([101O:1][101CH2:1]CCn3cc(C[100NH:0][100C:0](=O)N4CCCC(n5nc(-c6ccc(Oc7ccc(F)cc7F)cc6)c(C(N)=O)c5N)C4)nn3)ccc2CC1C(=O)NC1CCCc2ccccc21)C(C)(C)C

> <Shape>
0.192

> <Color>
0.069

> <Negative vol penalty>
0.000

$$$$

  -OEChem-04052318443D

 81 89  0     1  0  0  0  0  0999 V2000
  -24.0240  -29.3643   25.5827 C   0  0  0  0  0  0  0  0  0  0  0  0
  -24.6992  -28.2157   25.1826 C   0  0  0  0  0  0  0  0  0  0  0  0
  -22.9992   -9.8939   19.9826 C   0  0  0  0  0  0  0  0  0  0  0  0
  -23.7230   -9.9477   22.2870 C   0  0  0  0  0  0  0  0  0  0  0  0
  -22.8152  -29.2575   26.2693 C   0  0  0  0  0  0  0  0  0  0  0  0
  -24.1664  -26.9594   25.4697 C   0  0  0  0  0  0  0  0  0  0  0  0
  -24.3877  -23.8051   21.5141 C   0  0  0  0  0  0  0  0  0  0  0  0
  -22.2319   -8.7602   20.2500 C   0  0  0  0  0  0  0  0  0  0  0  0
  -22.9557   -8.8139   22.5544 C   0  0  0  0  0  0  0  0  0  0  0  0
  -25.6196  -23.2122   21.2407 C   0  0  0  0  0  0  0  0  0  0  0  0
  -23.1986   -5.4742   22.0872 C   0  0  0  0  0  0  0  0  0  0  0  0
  -23.7852   -4.4577   22.8410 C   0  0  0  0  0  0  0  0  0  0  0  0
  -24.8847  -21.1935   22.3378 C   0  0  0  0  0  0  0  0  0  0  0  0
  -22.0604   -4.7038   24.5148 C   0  0  0  0  0  0  0  0  0  0  0  0
  -29.9590  -17.8178   22.6791 C   0  0  0  0  0  0  0  0  0  0  0  0
  -23.7448  -10.4877   21.0011 C   0  0  0  0  0  0  0  0  0  0  0  0
  -24.1315  -13.0028   20.8219 C   0  0  0  0  0  0  0  0  0  0  0  0
  -22.2625  -27.9995   26.5565 C   0  0  0  0  0  0  0  0  0  0  0  0
  -23.3974  -23.0992   22.2122 C   0  0  0  0  0  0  0  0  0  0  0  0
  -22.9498  -26.8357   26.1619 C   0  0  0  0  0  0  0  0  0  0  0  0
  -23.6402  -21.7787   22.6166 C   0  0  0  0  0  0  0  0  0  0  0  0
  -22.2101   -8.2202   21.5359 C   0  0  0  0  0  0  0  0  0  0  0  0
  -25.8693  -21.9072   21.6550 C   0  0  0  0  0  0  0  0  0  0  0  0
  -22.0430   -6.1056   22.5472 C   0  0  0  0  0  0  0  0  0  0  0  0
  -23.2161   -4.0725   24.0548 C   0  0  0  0  0  0  0  0  0  0  0  0
  -21.4739   -5.7203   23.7610 C   0  0  0  0  0  0  0  0  0  0  0  0
  -24.5380  -11.6585   20.7253 C   0  0  0  0  0  0  0  0  0  0  0  0
  -25.2418  -13.7243   20.4572 C   0  0  0  0  0  0  0  0  0  0  0  0
  -30.5959  -16.8849   21.9104 C   0  0  0  0  0  0  0  0  0  0  0  0
  -31.9815  -18.5853   22.2095 C   0  0  0  0  0  0  0  0  0  0  0  0
  -22.8636  -13.5504   21.2069 C   0  0  0  0  0  0  0  0  0  0  0  0
  -21.8848  -23.5011   24.9788 C   0  0  0  0  0  0  0  0  0  0  0  0
  -20.1534  -20.9559   23.9560 C   0  0  0  0  0  0  0  0  0  0  0  0
  -19.9756  -18.1780   21.9816 C   0  0  0  0  0  0  0  0  0  0  0  0
  -30.7217  -14.6829   20.6932 C   0  0  0  0  0  0  0  0  0  0  0  0
  -20.9770  -27.9336   27.3424 C   0  0  0  0  0  0  0  0  0  0  0  0
  -22.0641  -23.7437   22.4758 C   0  0  0  0  0  0  0  0  0  0  0  0
  -22.6028  -20.9709   23.3513 C   0  0  0  0  0  0  0  0  0  0  0  0
  -20.2932  -26.5703   27.2785 C   0  0  0  0  0  0  0  0  0  0  0  0
  -29.6035  -12.2275   18.3698 C   0  0  0  0  0  0  0  0  0  0  0  0
  -21.3052  -25.4538   27.5152 C   0  0  0  0  0  0  0  0  0  0  0  0
  -28.1525  -11.9712   18.7835 C   0  0  0  0  0  0  0  0  0  0  0  0
  -30.5034  -12.4720   19.5798 C   0  0  0  0  0  0  0  0  0  0  0  0
  -28.5877  -13.2637   20.9112 C   0  0  0  0  0  0  0  0  0  0  0  0
  -22.3916  -25.4554   26.4330 C   0  0  1  0  0  0  0  0  0  0  0  0
  -21.3151  -23.1106   23.6444 C   0  0  1  0  0  0  0  0  0  0  0  0
  -27.6307  -13.0762   19.7226 C   0  0  2  0  0  0  0  0  0  0  0  0
  -33.1903  -19.4426   22.1385 C   0  0  0  0  0  0  0  0  0  0  0  0
  -18.4481  -16.2774   21.3882 C   0  0  0  0  0  0  0  0  0  0  0  0
  -20.8171  -19.5980   26.6066 C   0  0  0  0  0  0  0  0  0  0  0  0
  -20.1051  -17.4233   25.5909 C   0  0  0  0  0  0  0  0  0  0  0  0
  -18.4596  -19.2822   25.8342 C   0  0  0  0  0  0  0  0  0  0  0  0
  -19.8676  -18.9992   19.1403 C   0  0  0  0  0  0  0  0  0  0  0  0
  -29.3132  -20.8750   23.1616 C   0  0  0  0  0  0  0  0  0  0  0  0
  -29.4447  -21.4094   21.7346 C   0  0  0  0  0  0  0  0  0  0  0  0
  -30.5574  -20.1146   23.6346 C   0  0  0  0  0  0  0  0  0  0  0  0
  -28.2059  -22.1880   21.3127 C   0  0  0  0  0  0  0  0  0  1  0  0
  -20.2773  -19.4569   24.0857 C   0  0  1  0  0  0  0  0  0  0  0  0
  -18.8996  -17.6850   21.0309 C   0  0  2  0  0  0  0  0  0  0  0  0
  -19.9352  -18.9557   25.5172 C   0  0  0  0  0  0  0  0  0  0  0  0
  -25.8075  -11.5308   20.3301 N   0  0  0  0  0  0  0  0  0  0  0  0
  -30.8396  -18.8588   22.8488 N   0  0  0  0  0  0  0  0  0  0  0  0
  -26.2082  -12.8042   20.1750 N   0  0  0  0  0  0  0  0  0  0  0  0
  -31.8452  -17.3861   21.6343 N   0  3  0  0  0  0  0  0  0  0  0  0
  -21.3173  -21.6473   23.5910 N   0  0  0  0  0  0  0  0  0  0  0  0
  -29.9485  -13.5344   20.4214 N   0  0  0  0  0  0  0  0  0  0  0  0
  -25.4761  -15.0498   20.3535 N   0  0  0  0  0  0  0  0  0  0  0  0
  -21.8311  -12.6672   21.5510 N   0  0  0  0  0  0  0  0  0  0  0  0
  -30.0774  -15.6394   21.4771 N   0  0  0  0  0  0  0  0  0  0  0  0
  -21.8894  -24.8632   25.2118 N   0  0  0  0  0  0  0  0  0  0  0  0
  -19.4398  -18.8858   23.0366 N   0  0  0  0  0  0  0  0  0  0  0  0
  -19.4108  -17.6735   19.6311 N   0  3  0  0  0  0  0  0  0  0  0  0
  -22.6475  -14.7858   21.2289 O   0  0  0  0  0  0  0  0  0  0  0  0
  -22.2889  -22.6310   25.7413 O   0  0  0  0  0  0  0  0  0  0  0  0
  -19.0624  -21.4927   24.1636 O   0  0  0  0  0  0  0  0  0  0  0  0
  -21.1715  -17.9541   21.8077 O   0  0  0  0  0  0  0  0  0  0  0  0
  -31.8607  -14.8206   20.2397 O   0  0  0  0  0  0  0  0  0  0  0  0
  -21.4614   -7.1140   21.7972 O   0  0  0  0  0  0  0  0  0  0  0  0
  -27.0710  -21.3264   21.3900 O   0  0  0  0  0  0  0  0  0  1  0  0
  -23.7786   -3.0953   24.7779 F   0  0  0  0  0  0  0  0  0  0  0  0
  -20.3630   -6.3224   24.2075 F   0  0  0  0  0  0  0  0  0  0  0  0
  1  2  1  0  0  0  0
  1  5  2  0  0  0  0
  2  6  2  0  0  0  0
  3  8  2  0  0  0  0
  3 16  1  0  0  0  0
  4  9  1  0  0  0  0
  4 16  2  0  0  0  0
  5 18  1  0  0  0  0
  6 20  1  0  0  0  0
  7 10  2  0  0  0  0
  7 19  1  0  0  0  0
  8 22  1  0  0  0  0
  9 22  2  0  0  0  0
 10 23  1  0  0  0  0
 11 12  2  0  0  0  0
 11 24  1  0  0  0  0
 12 25  1  0  0  0  0
 13 21  1  0  0  0  0
 13 23  2  0  0  0  0
 14 25  2  0  0  0  0
 14 26  1  0  0  0  0
 15 29  2  0  0  0  0
 15 62  1  0  0  0  0
 16 27  1  0  0  0  0
 17 27  1  0  0  0  0
 17 28  2  0  0  0  0
 17 31  1  0  0  0  0
 18 20  2  0  0  0  0
 18 36  1  0  0  0  0
 19 21  2  0  0  0  0
 19 37  1  0  0  0  0
 20 45  1  0  0  0  0
 21 38  1  0  0  0  0
 22 78  1  0  0  0  0
 23 79  1  0  0  0  0
 24 26  2  0  0  0  0
 24 78  1  0  0  0  0
 25 80  1  0  0  0  0
 26 81  1  0  0  0  0
 27 61  2  0  0  0  0
 28 63  1  0  0  0  0
 28 67  1  0  0  0  0
 29 64  1  0  0  0  0
 29 69  1  0  0  0  0
 30 48  1  0  0  0  0
 30 62  1  0  0  0  0
 30 64  2  0  0  0  0
 31 68  1  0  0  0  0
 31 73  2  0  0  0  0
 32 46  1  0  0  0  0
 32 70  1  0  0  0  0
 32 74  2  0  0  0  0
 33 58  1  0  0  0  0
 33 65  1  0  0  0  0
 33 75  2  0  0  0  0
 34 59  1  0  0  0  0
 34 71  1  0  0  0  0
 34 76  2  0  0  0  0
 35 66  1  0  0  0  0
 35 69  1  0  0  0  0
 35 77  2  0  0  0  0
 36 39  1  0  0  0  0
 37 46  1  0  0  0  0
 38 65  1  0  0  0  0
 39 41  1  0  0  0  0
 40 42  1  0  0  0  0
 40 43  1  0  0  0  0
 41 45  1  0  0  0  0
 42 47  1  0  0  0  0
 43 66  1  0  0  0  0
 44 47  1  0  0  0  0
 44 66  1  0  0  0  0
 45 70  1  0  0  0  0
 46 65  1  0  0  0  0
 47 63  1  0  0  0  0
 49 59  1  0  0  0  0
 50 60  1  0  0  0  0
 51 60  1  0  0  0  0
 52 60  1  0  0  0  0
 53 72  1  0  0  0  0
 54 55  1  0  0  0  0
 54 56  1  0  0  0  0
 55 57  1  0  0  0  0
 56 62  1  0  0  0  0
 57 79  1  0  0  0  0
 58 60  1  0  0  0  0
 58 71  1  0  0  0  0
 59 72  1  0  0  0  0
 61 63  1  0  0  0  0
M  CHG  2  64   1  72   1
M  ISO  4  35 100  57 101  69 100  79 101
M  END
> <Batch ID>
0080

> <Smiles>
CNC(C)C(=O)NC(C(=O)N1Cc2cc([101O:1][101CH2:1]CCCn3cc([100NH:0][100C:0](=O)N4CCCC(n5nc(-c6ccc(Oc7ccc(F)cc7F)cc6)c(C(N)=O)c5N)C4)nc3C)ccc2CC1C(=O)NC1CCCc2ccccc21)C(C)(C)C

> <Shape>
0.195

> <Color>
0.198

> <Negative vol penalty>
0.000

$$$$

  -OEChem-04052318443D

 84 92  0     1  0  0  0  0  0999 V2000
  -27.7109  -10.1486   22.6409 C   0  0  0  0  0  0  0  0  0  0  0  0
  -28.3762  -11.3522   22.4314 C   0  0  0  0  0  0  0  0  0  0  0  0
  -24.1249  -30.3644   21.9675 C   0  0  0  0  0  0  0  0  0  0  0  0
  -23.0246  -28.2178   22.1046 C   0  0  0  0  0  0  0  0  0  0  0  0
  -26.4656   -9.9302   22.0531 C   0  0  0  0  0  0  0  0  0  0  0  0
  -27.7971  -12.3379   21.6329 C   0  0  0  0  0  0  0  0  0  0  0  0
  -28.2147  -18.4013   22.3856 C   0  0  0  0  0  0  0  0  0  0  0  0
  -23.1111  -30.9333   22.7382 C   0  0  0  0  0  0  0  0  0  0  0  0
  -22.0108  -28.7867   22.8754 C   0  0  0  0  0  0  0  0  0  0  0  0
  -29.0251  -19.3668   21.7899 C   0  0  0  0  0  0  0  0  0  0  0  0
  -19.2513  -30.6717   22.3628 C   0  0  0  0  0  0  0  0  0  0  0  0
  -17.9334  -30.3452   22.0431 C   0  0  0  0  0  0  0  0  0  0  0  0
  -27.2646  -19.8661   20.2182 C   0  0  0  0  0  0  0  0  0  0  0  0
  -17.6255  -29.4228   24.2548 C   0  0  0  0  0  0  0  0  0  0  0  0
  -30.7515  -27.1565   17.1560 C   0  0  0  0  0  0  0  0  0  0  0  0
  -24.0817  -29.0066   21.6506 C   0  0  0  0  0  0  0  0  0  0  0  0
  -26.3232  -27.8354   21.3169 C   0  0  0  0  0  0  0  0  0  0  0  0
  -25.8666  -10.9174   21.2548 C   0  0  0  0  0  0  0  0  0  0  0  0
  -26.9250  -18.1529   21.8943 C   0  0  0  0  0  0  0  0  0  0  0  0
  -26.5433  -12.1320   21.0327 C   0  0  0  0  0  0  0  0  0  0  0  0
  -26.4389  -18.8987   20.8110 C   0  0  0  0  0  0  0  0  0  0  0  0
  -22.0540  -30.1445   23.1922 C   0  0  0  0  0  0  0  0  0  0  0  0
  -28.5512  -20.0974   20.7042 C   0  0  0  0  0  0  0  0  0  0  0  0
  -19.7563  -30.3737   23.6284 C   0  0  0  0  0  0  0  0  0  0  0  0
  -17.1205  -29.7207   22.9891 C   0  0  0  0  0  0  0  0  0  0  0  0
  -18.9434  -29.7493   24.5744 C   0  0  0  0  0  0  0  0  0  0  0  0
  -25.1284  -28.4185   20.8540 C   0  0  0  0  0  0  0  0  0  0  0  0
  -32.2018  -26.1719   18.3633 C   0  0  0  0  0  0  0  0  0  0  0  0
  -31.5524  -25.1713   17.6796 C   0  0  0  0  0  0  0  0  0  0  0  0
  -26.9714  -27.4293   20.1761 C   0  0  0  0  0  0  0  0  0  0  0  0
  -26.8040  -27.6751   22.6581 C   0  0  0  0  0  0  0  0  0  0  0  0
  -25.4560  -15.6391   20.6191 C   0  0  0  0  0  0  0  0  0  0  0  0
  -22.8532  -17.5681   20.7825 C   0  0  0  0  0  0  0  0  0  0  0  0
  -21.6021  -20.7403   20.9185 C   0  0  0  0  0  0  0  0  0  0  0  0
  -26.4464  -24.7333   15.1988 C   0  0  0  0  0  0  0  0  0  0  0  0
  -24.5406  -10.6172   20.6019 C   0  0  0  0  0  0  0  0  0  0  0  0
  -26.0535  -17.1267   22.5648 C   0  0  0  0  0  0  0  0  0  0  0  0
  -25.0542  -18.6845   20.2585 C   0  0  0  0  0  0  0  0  0  0  0  0
  -23.8262  -11.8589   20.0748 C   0  0  0  0  0  0  0  0  0  0  0  0
  -26.0393  -28.4107   15.3116 C   0  0  0  0  0  0  0  0  0  0  0  0
  -24.7954  -12.7419   19.2953 C   0  0  0  0  0  0  0  0  0  0  0  0
  -25.7938  -28.6733   16.7965 C   0  0  0  0  0  0  0  0  0  0  0  0
  -25.5688  -27.0202   14.8962 C   0  0  0  0  0  0  0  0  0  0  0  0
  -25.9018  -26.1818   17.1984 C   0  0  0  0  0  0  0  0  0  0  0  0
  -25.9365  -13.2352   20.1932 C   0  0  1  0  0  0  0  0  0  0  0  0
  -24.9467  -16.5981   21.6576 C   0  0  1  0  0  0  0  0  0  0  0  0
  -26.4072  -27.5570   17.6597 C   0  0  2  0  0  0  0  0  0  0  0  0
  -33.2982  -26.0527   19.3375 C   0  0  0  0  0  0  0  0  0  0  0  0
  -19.4338  -22.0006   21.0064 C   0  0  0  0  0  0  0  0  0  0  0  0
  -22.4212  -17.0273   17.8108 C   0  0  0  0  0  0  0  0  0  0  0  0
  -20.8783  -18.9980   17.7477 C   0  0  0  0  0  0  0  0  0  0  0  0
  -20.3314  -17.0336   19.1846 C   0  0  0  0  0  0  0  0  0  0  0  0
  -27.8858  -22.7315   15.2162 C   0  0  0  0  0  0  0  0  0  0  0  0
  -22.2773  -21.9497   23.5339 C   0  0  0  0  0  0  0  0  0  0  0  0
  -31.7253  -23.6733   17.6846 C   0  0  0  0  0  0  0  0  0  0  0  0
  -31.1334  -22.9858   18.9200 C   0  0  0  0  0  0  0  0  0  0  0  0
  -31.3860  -21.4777   18.9446 C   0  0  0  0  0  0  0  0  0  0  0  0
  -29.6823  -25.2141   15.9993 C   0  0  0  0  0  0  0  0  0  0  0  0
  -28.4740  -24.6067   16.7073 C   0  0  0  0  0  0  0  0  0  0  0  0
  -30.7503  -20.8241   20.1641 C   0  0  0  0  0  0  0  0  0  1  0  0
  -22.2130  -18.5800   19.8631 C   0  0  1  0  0  0  0  0  0  0  0  0
  -20.5559  -21.3727   21.8185 C   0  0  2  0  0  0  0  0  0  0  0  0
  -21.4878  -17.9126   18.6605 C   0  0  0  0  0  0  0  0  0  0  0  0
  -31.6984  -27.4053   18.0332 N   0  0  0  0  0  0  0  0  0  0  0  0
  -25.0214  -28.3877   19.5230 N   0  0  0  0  0  0  0  0  0  0  0  0
  -30.6258  -25.8173   16.9106 N   0  0  0  0  0  0  0  0  0  0  0  0
  -26.1574  -27.7805   19.1397 N   0  0  0  0  0  0  0  0  0  0  0  0
  -24.2425  -17.6656   20.9443 N   0  0  0  0  0  0  0  0  0  0  0  0
  -26.1325  -25.9822   15.7598 N   0  0  0  0  0  0  0  0  0  0  0  0
  -28.1527  -26.8097   19.9685 N   0  0  0  0  0  0  0  0  0  0  0  0
  -26.0122  -28.1492   23.7129 N   0  0  0  0  0  0  0  0  0  0  0  0
  -25.4835  -14.3216   21.0351 N   0  0  0  0  0  0  0  0  0  0  0  0
  -21.3474  -19.4027   20.7010 N   0  0  0  0  0  0  0  0  0  0  0  0
  -27.5148  -24.0258   15.7703 N   0  0  0  0  0  0  0  0  0  0  0  0
  -21.1732  -22.4325   22.6651 N   0  3  0  0  0  0  0  0  0  0  0  0
  -27.9108  -27.1424   22.9126 O   0  0  0  0  0  0  0  0  0  0  0  0
  -25.7973  -16.0628   19.5210 O   0  0  0  0  0  0  0  0  0  0  0  0
  -22.1457  -16.7268   21.3422 O   0  0  0  0  0  0  0  0  0  0  0  0
  -22.5483  -21.3707   20.4519 O   0  0  0  0  0  0  0  0  0  0  0  0
  -25.8142  -24.2811   14.2357 O   0  0  0  0  0  0  0  0  0  0  0  0
  -21.0647  -30.6993   23.9445 O   0  0  0  0  0  0  0  0  0  0  0  0
  -29.3403  -21.0399   20.1205 O   0  0  0  0  0  0  0  0  0  1  0  0
  -15.8545  -29.4086   22.6825 F   0  0  0  0  0  0  0  0  0  0  0  0
  -19.4226  -29.4616   25.7924 F   0  0  0  0  0  0  0  0  0  0  0  0
  1  2  1  0  0  0  0
  1  5  2  0  0  0  0
  2  6  2  0  0  0  0
  3  8  2  0  0  0  0
  3 16  1  0  0  0  0
  4  9  1  0  0  0  0
  4 16  2  0  0  0  0
  5 18  1  0  0  0  0
  6 20  1  0  0  0  0
  7 10  2  0  0  0  0
  7 19  1  0  0  0  0
  8 22  1  0  0  0  0
  9 22  2  0  0  0  0
 10 23  1  0  0  0  0
 11 12  2  0  0  0  0
 11 24  1  0  0  0  0
 12 25  1  0  0  0  0
 13 21  1  0  0  0  0
 13 23  2  0  0  0  0
 14 25  2  0  0  0  0
 14 26  1  0  0  0  0
 15 64  2  0  0  0  0
 15 66  1  0  0  0  0
 16 27  1  0  0  0  0
 17 27  1  0  0  0  0
 17 30  2  0  0  0  0
 17 31  1  0  0  0  0
 18 20  2  0  0  0  0
 18 36  1  0  0  0  0
 19 21  2  0  0  0  0
 19 37  1  0  0  0  0
 20 45  1  0  0  0  0
 21 38  1  0  0  0  0
 22 81  1  0  0  0  0
 23 82  1  0  0  0  0
 24 26  2  0  0  0  0
 24 81  1  0  0  0  0
 25 83  1  0  0  0  0
 26 84  1  0  0  0  0
 27 65  2  0  0  0  0
 28 29  2  0  0  0  0
 28 48  1  0  0  0  0
 28 64  1  0  0  0  0
 29 55  1  0  0  0  0
 29 66  1  0  0  0  0
 30 67  1  0  0  0  0
 30 70  1  0  0  0  0
 31 71  1  0  0  0  0
 31 76  2  0  0  0  0
 32 46  1  0  0  0  0
 32 72  1  0  0  0  0
 32 77  2  0  0  0  0
 33 61  1  0  0  0  0
 33 68  1  0  0  0  0
 33 78  2  0  0  0  0
 34 62  1  0  0  0  0
 34 73  1  0  0  0  0
 34 79  2  0  0  0  0
 35 69  1  0  0  0  0
 35 74  1  0  0  0  0
 35 80  2  0  0  0  0
 36 39  1  0  0  0  0
 37 46  1  0  0  0  0
 38 68  1  0  0  0  0
 39 41  1  0  0  0  0
 40 42  1  0  0  0  0
 40 43  1  0  0  0  0
 41 45  1  0  0  0  0
 42 47  1  0  0  0  0
 43 69  1  0  0  0  0
 44 47  1  0  0  0  0
 44 69  1  0  0  0  0
 45 72  1  0  0  0  0
 46 68  1  0  0  0  0
 47 67  1  0  0  0  0
 49 62  1  0  0  0  0
 50 63  1  0  0  0  0
 51 63  1  0  0  0  0
 52 63  1  0  0  0  0
 53 74  1  0  0  0  0
 54 75  1  0  0  0  0
 55 56  1  0  0  0  0
 56 57  1  0  0  0  0
 57 60  1  0  0  0  0
 58 59  1  0  0  0  0
 58 66  1  0  0  0  0
 59 74  1  0  0  0  0
 60 82  1  0  0  0  0
 61 63  1  0  0  0  0
 61 73  1  0  0  0  0
 62 75  1  0  0  0  0
 65 67  1  0  0  0  0
M  CHG  1  75   1
M  ISO  4  35 100  60 101  74 100  82 101
M  END
> <Batch ID>
0080

> <Smiles>
CNC(C)C(=O)NC(C(=O)N1Cc2cc([101O:1][101CH2:1]CCCc3c(C)ncn3CC[100N:0](C)[100C:0](=O)N3CCCC(n4nc(-c5ccc(Oc6ccc(F)cc6F)cc5)c(C(N)=O)c4N)C3)ccc2CC1C(=O)NC1CCCc2ccccc21)C(C)(C)C

> <Shape>
0.189

> <Color>
0.079

> <Negative vol penalty>
0.000

$$$$

  -OEChem-04052318443D

 83 91  0     1  0  0  0  0  0999 V2000
  -26.0470  -34.9925   25.0155 C   0  0  0  0  0  0  0  0  0  0  0  0
  -26.6146  -33.8302   24.5032 C   0  0  0  0  0  0  0  0  0  0  0  0
  -25.7536  -12.5831   21.9038 C   0  0  0  0  0  0  0  0  0  0  0  0
  -25.2510  -13.5584   19.7514 C   0  0  0  0  0  0  0  0  0  0  0  0
  -24.7174  -34.9912   25.4352 C   0  0  0  0  0  0  0  0  0  0  0  0
  -25.8532  -32.6657   24.4113 C   0  0  0  0  0  0  0  0  0  0  0  0
  -26.4441  -30.3034   19.9711 C   0  0  0  0  0  0  0  0  0  0  0  0
  -25.3388  -11.3364   21.4358 C   0  0  0  0  0  0  0  0  0  0  0  0
  -24.8363  -12.3116   19.2833 C   0  0  0  0  0  0  0  0  0  0  0  0
  -27.6045  -29.5496   19.8004 C   0  0  0  0  0  0  0  0  0  0  0  0
  -24.0732   -7.9669   20.9175 C   0  0  0  0  0  0  0  0  0  0  0  0
  -23.2492   -7.2034   21.7443 C   0  0  0  0  0  0  0  0  0  0  0  0
  -26.3624  -27.5391   20.2845 C   0  0  0  0  0  0  0  0  0  0  0  0
  -21.5920   -8.9612   21.7158 C   0  0  0  0  0  0  0  0  0  0  0  0
  -30.5066  -22.9934   19.7395 C   0  0  0  0  0  0  0  0  0  0  0  0
  -25.7097  -13.6942   21.0616 C   0  0  0  0  0  0  0  0  0  0  0  0
  -27.4356  -15.5239   21.4867 C   0  0  0  0  0  0  0  0  0  0  0  0
  -23.9365  -33.8286   25.3395 C   0  0  0  0  0  0  0  0  0  0  0  0
  -25.2345  -29.6808   20.3111 C   0  0  0  0  0  0  0  0  0  0  0  0
  -24.5123  -32.6485   24.8314 C   0  0  0  0  0  0  0  0  0  0  0  0
  -25.1875  -28.2870   20.4564 C   0  0  0  0  0  0  0  0  0  0  0  0
  -24.8802  -11.2006   20.1255 C   0  0  0  0  0  0  0  0  0  0  0  0
  -27.5644  -28.1676   19.9599 C   0  0  0  0  0  0  0  0  0  0  0  0
  -23.6567   -9.2276   20.4899 C   0  0  0  0  0  0  0  0  0  0  0  0
  -22.0086   -7.7005   22.1434 C   0  0  0  0  0  0  0  0  0  0  0  0
  -22.4161   -9.7247   20.8890 C   0  0  0  0  0  0  0  0  0  0  0  0
  -26.1375  -14.9825   21.5447 C   0  0  0  0  0  0  0  0  0  0  0  0
  -29.8711  -21.8108   19.4856 C   0  0  0  0  0  0  0  0  0  0  0  0
  -27.3185  -16.7603   22.0733 C   0  0  0  0  0  0  0  0  0  0  0  0
  -29.2026  -22.5338   21.4683 C   0  0  0  0  0  0  0  0  0  0  0  0
  -28.6397  -14.9598   20.9504 C   0  0  0  0  0  0  0  0  0  0  0  0
  -23.2432  -29.8473   22.7831 C   0  0  0  0  0  0  0  0  0  0  0  0
  -21.4130  -27.9038   20.9404 C   0  0  0  0  0  0  0  0  0  0  0  0
  -21.2517  -25.6175   18.4118 C   0  0  0  0  0  0  0  0  0  0  0  0
  -24.5990  -21.5858   22.7549 C   0  0  0  0  0  0  0  0  0  0  0  0
  -22.5177  -33.8631   25.8498 C   0  0  0  0  0  0  0  0  0  0  0  0
  -23.9859  -30.5053   20.4655 C   0  0  0  0  0  0  0  0  0  0  0  0
  -23.9097  -27.5682   20.8011 C   0  0  0  0  0  0  0  0  0  0  0  0
  -21.6693  -32.6878   25.3707 C   0  0  0  0  0  0  0  0  0  0  0  0
  -23.5142  -18.8098   24.7027 C   0  0  0  0  0  0  0  0  0  0  0  0
  -22.4312  -31.3768   25.5369 C   0  0  0  0  0  0  0  0  0  0  0  0
  -24.2018  -17.6114   24.0463 C   0  0  0  0  0  0  0  0  0  0  0  0
  -23.0866  -19.8504   23.6701 C   0  0  0  0  0  0  0  0  0  0  0  0
  -24.8498  -19.1111   22.1150 C   0  0  0  0  0  0  0  0  0  0  0  0
  -23.7114  -31.3719   24.6928 C   0  0  1  0  0  0  0  0  0  0  0  0
  -22.9198  -29.8215   21.3160 C   0  0  1  0  0  0  0  0  0  0  0  0
  -25.3492  -18.0605   23.1216 C   0  0  2  0  0  0  0  0  0  0  0  0
  -29.9360  -20.9042   18.3365 C   0  0  0  0  0  0  0  0  0  0  0  0
  -19.6221  -24.1793   17.1574 C   0  0  0  0  0  0  0  0  0  0  0  0
  -21.2881  -25.9840   23.3087 C   0  0  0  0  0  0  0  0  0  0  0  0
  -20.4956  -24.2050   21.7354 C   0  0  0  0  0  0  0  0  0  0  0  0
  -19.1292  -26.2638   22.0776 C   0  0  0  0  0  0  0  0  0  0  0  0
  -21.8746  -26.9499   15.8435 C   0  0  0  0  0  0  0  0  0  0  0  0
  -28.4986  -22.6103   22.7726 C   0  0  0  0  0  0  0  0  0  0  0  0
  -27.2762  -23.5542   22.7917 C   0  0  0  0  0  0  0  0  0  0  0  0
  -30.2784  -25.9500   20.8251 C   0  0  0  0  0  0  0  0  0  0  0  0
  -30.5160  -24.6874   21.6564 C   0  0  0  0  0  0  0  0  0  0  0  0
  -26.1995  -23.2047   21.7666 C   0  0  0  0  0  0  0  0  0  0  0  0
  -28.8040  -26.2275   20.5559 C   0  0  0  0  0  0  0  0  0  1  0  0
  -21.2834  -26.4103   20.7623 C   0  0  1  0  0  0  0  0  0  0  0  0
  -20.3423  -25.5180   17.2003 C   0  0  2  0  0  0  0  0  0  0  0  0
  -20.5737  -25.7292   21.9664 C   0  0  0  0  0  0  0  0  0  0  0  0
  -25.2601  -15.8073   22.1227 N   0  0  0  0  0  0  0  0  0  0  0  0
  -30.0739  -23.4184   20.9725 N   0  0  0  0  0  0  0  0  0  0  0  0
  -26.0084  -16.8795   22.4334 N   0  0  0  0  0  0  0  0  0  0  0  0
  -29.0710  -21.5506   20.5720 N   0  3  0  0  0  0  0  0  0  0  0  0
  -22.7170  -28.4188   20.9480 N   0  0  0  0  0  0  0  0  0  0  0  0
  -24.2208  -20.2349   22.8265 N   0  0  0  0  0  0  0  0  0  0  0  0
  -28.2094  -17.7463   22.3113 N   0  0  0  0  0  0  0  0  0  0  0  0
  -28.5830  -13.6790   20.3842 N   0  0  0  0  0  0  0  0  0  0  0  0
  -23.3993  -31.1182   23.3026 N   0  0  0  0  0  0  0  0  0  0  0  0
  -20.6138  -26.2085   19.4819 N   0  0  0  0  0  0  0  0  0  0  0  0
  -25.6880  -21.8631   21.9376 N   0  0  0  0  0  0  0  0  0  0  0  0
  -21.1328  -25.6668   15.9457 N   0  3  0  0  0  0  0  0  0  0  0  0
  -29.7370  -15.5666   20.9875 O   0  0  0  0  0  0  0  0  0  0  0  0
  -23.3422  -28.7922   23.3985 O   0  0  0  0  0  0  0  0  0  0  0  0
  -20.3944  -28.5890   21.0610 O   0  0  0  0  0  0  0  0  0  0  0  0
  -22.4106  -25.2084   18.4102 O   0  0  0  0  0  0  0  0  0  0  0  0
  -24.0131  -22.4779   23.3776 O   0  0  0  0  0  0  0  0  0  0  0  0
  -24.4756   -9.9841   19.6684 O   0  0  0  0  0  0  0  0  0  0  0  0
  -28.6956  -27.4295   19.7945 O   0  0  0  0  0  0  0  0  0  1  0  0
  -21.2167   -6.9666   22.9362 F   0  0  0  0  0  0  0  0  0  0  0  0
  -22.0099  -10.9347   20.4805 F   0  0  0  0  0  0  0  0  0  0  0  0
  1  2  1  0  0  0  0
  1  5  2  0  0  0  0
  2  6  2  0  0  0  0
  3  8  2  0  0  0  0
  3 16  1  0  0  0  0
  4  9  1  0  0  0  0
  4 16  2  0  0  0  0
  5 18  1  0  0  0  0
  6 20  1  0  0  0  0
  7 10  2  0  0  0  0
  7 19  1  0  0  0  0
  8 22  1  0  0  0  0
  9 22  2  0  0  0  0
 10 23  1  0  0  0  0
 11 12  2  0  0  0  0
 11 24  1  0  0  0  0
 12 25  1  0  0  0  0
 13 21  1  0  0  0  0
 13 23  2  0  0  0  0
 14 25  2  0  0  0  0
 14 26  1  0  0  0  0
 15 28  2  0  0  0  0
 15 64  1  0  0  0  0
 16 27  1  0  0  0  0
 17 27  1  0  0  0  0
 17 29  2  0  0  0  0
 17 31  1  0  0  0  0
 18 20  2  0  0  0  0
 18 36  1  0  0  0  0
 19 21  2  0  0  0  0
 19 37  1  0  0  0  0
 20 45  1  0  0  0  0
 21 38  1  0  0  0  0
 22 80  1  0  0  0  0
 23 81  1  0  0  0  0
 24 26  2  0  0  0  0
 24 80  1  0  0  0  0
 25 82  1  0  0  0  0
 26 83  1  0  0  0  0
 27 63  2  0  0  0  0
 28 48  1  0  0  0  0
 28 66  1  0  0  0  0
 29 65  1  0  0  0  0
 29 69  1  0  0  0  0
 30 54  1  0  0  0  0
 30 64  1  0  0  0  0
 30 66  2  0  0  0  0
 31 70  1  0  0  0  0
 31 75  2  0  0  0  0
 32 46  1  0  0  0  0
 32 71  1  0  0  0  0
 32 76  2  0  0  0  0
 33 60  1  0  0  0  0
 33 67  1  0  0  0  0
 33 77  2  0  0  0  0
 34 61  1  0  0  0  0
 34 72  1  0  0  0  0
 34 78  2  0  0  0  0
 35 68  1  0  0  0  0
 35 73  1  0  0  0  0
 35 79  2  0  0  0  0
 36 39  1  0  0  0  0
 37 46  1  0  0  0  0
 38 67  1  0  0  0  0
 39 41  1  0  0  0  0
 40 42  1  0  0  0  0
 40 43  1  0  0  0  0
 41 45  1  0  0  0  0
 42 47  1  0  0  0  0
 43 68  1  0  0  0  0
 44 47  1  0  0  0  0
 44 68  1  0  0  0  0
 45 71  1  0  0  0  0
 46 67  1  0  0  0  0
 47 65  1  0  0  0  0
 49 61  1  0  0  0  0
 50 62  1  0  0  0  0
 51 62  1  0  0  0  0
 52 62  1  0  0  0  0
 53 74  1  0  0  0  0
 54 55  1  0  0  0  0
 55 58  1  0  0  0  0
 56 57  1  0  0  0  0
 56 59  1  0  0  0  0
 57 64  1  0  0  0  0
 58 73  1  0  0  0  0
 59 81  1  0  0  0  0
 60 62  1  0  0  0  0
 60 72  1  0  0  0  0
 61 74  1  0  0  0  0
 63 65  1  0  0  0  0
M  CHG  2  66   1  74   1
M  ISO  4  35 100  59 101  73 100  81 101
M  END
> <Batch ID>
0080

> <Smiles>
CNC(C)C(=O)NC(C(=O)N1Cc2cc([101O:1][101CH2:1]CCn3cc(C)nc3CCC[100NH:0][100C:0](=O)N3CCCC(n4nc(-c5ccc(Oc6ccc(F)cc6F)cc5)c(C(N)=O)c4N)C3)ccc2CC1C(=O)NC1CCCc2ccccc21)C(C)(C)C

> <Shape>
0.262

> <Color>
0.072

> <Negative vol penalty>
0.000

$$$$

  -OEChem-04052318443D

 86 94  0     1  0  0  0  0  0999 V2000
  -31.6370  -24.1910   18.9101 C   0  0  0  0  0  0  0  0  0  0  0  0
  -30.2651  -23.9940   19.0303 C   0  0  0  0  0  0  0  0  0  0  0  0
  -25.6414  -14.6179   19.0567 C   0  0  0  0  0  0  0  0  0  0  0  0
  -24.0437  -14.6257   20.8690 C   0  0  0  0  0  0  0  0  0  0  0  0
  -32.3023  -25.0222   19.8103 C   0  0  0  0  0  0  0  0  0  0  0  0
  -29.5578  -24.6273   20.0517 C   0  0  0  0  0  0  0  0  0  0  0  0
  -23.8214  -26.7555   19.7860 C   0  0  0  0  0  0  0  0  0  0  0  0
  -25.9628  -13.2918   19.3457 C   0  0  0  0  0  0  0  0  0  0  0  0
  -24.3651  -13.2995   21.1580 C   0  0  0  0  0  0  0  0  0  0  0  0
  -22.6036  -26.2251   20.2095 C   0  0  0  0  0  0  0  0  0  0  0  0
  -24.5047   -9.8030   22.1447 C   0  0  0  0  0  0  0  0  0  0  0  0
  -23.4540   -8.9183   22.3870 C   0  0  0  0  0  0  0  0  0  0  0  0
  -22.7796  -27.4772   22.2639 C   0  0  0  0  0  0  0  0  0  0  0  0
  -22.5813   -9.3491   20.1757 C   0  0  0  0  0  0  0  0  0  0  0  0
  -17.2702  -22.9317   21.7362 C   0  0  0  0  0  0  0  0  0  0  0  0
  -24.6818  -15.2849   19.8184 C   0  0  0  0  0  0  0  0  0  0  0  0
  -23.3528  -17.1160   18.6401 C   0  0  0  0  0  0  0  0  0  0  0  0
  -31.6012  -25.6737   20.8373 C   0  0  0  0  0  0  0  0  0  0  0  0
  -24.5340  -27.6438   20.6043 C   0  0  0  0  0  0  0  0  0  0  0  0
  -30.2146  -25.4670   20.9673 C   0  0  0  0  0  0  0  0  0  0  0  0
  -24.0050  -28.0194   21.8473 C   0  0  0  0  0  0  0  0  0  0  0  0
  -18.3123  -23.5715   22.3757 C   0  0  0  0  0  0  0  0  0  0  0  0
  -25.3247  -12.6325   20.3964 C   0  0  0  0  0  0  0  0  0  0  0  0
  -22.0839  -26.5836   21.4498 C   0  0  0  0  0  0  0  0  0  0  0  0
  -24.5937  -10.4609   20.9179 C   0  0  0  0  0  0  0  0  0  0  0  0
  -22.4923   -8.6913   21.4025 C   0  0  0  0  0  0  0  0  0  0  0  0
  -23.6320  -10.2339   19.9334 C   0  0  0  0  0  0  0  0  0  0  0  0
  -24.3498  -16.6550   19.5206 C   0  0  0  0  0  0  0  0  0  0  0  0
  -19.3783  -22.7696   22.7292 C   0  0  0  0  0  0  0  0  0  0  0  0
  -23.4385  -18.4850   18.7109 C   0  0  0  0  0  0  0  0  0  0  0  0
  -18.3560  -20.9381   21.8531 C   0  0  0  0  0  0  0  0  0  0  0  0
  -22.4316  -16.3732   17.8306 C   0  0  0  0  0  0  0  0  0  0  0  0
  -27.3859  -27.6046   22.0074 C   0  0  0  0  0  0  0  0  0  0  0  0
  -26.6108  -30.6562   22.7883 C   0  0  0  0  0  0  0  0  0  0  0  0
  -24.1682  -32.9793   23.3207 C   0  0  0  0  0  0  0  0  0  0  0  0
  -25.4434  -22.2322   22.9287 C   0  0  0  0  0  0  0  0  0  0  0  0
  -32.3714  -26.5253   21.8151 C   0  0  0  0  0  0  0  0  0  0  0  0
  -25.8332  -28.2279   20.1214 C   0  0  0  0  0  0  0  0  0  0  0  0
  -24.7209  -28.9852   22.7547 C   0  0  0  0  0  0  0  0  0  0  0  0
  -31.4868  -27.4553   22.6414 C   0  0  0  0  0  0  0  0  0  0  0  0
  -26.5695  -22.0019   19.5589 C   0  0  0  0  0  0  0  0  0  0  0  0
  -30.2793  -26.6990   23.1863 C   0  0  0  0  0  0  0  0  0  0  0  0
  -26.0384  -20.6471   19.0875 C   0  0  0  0  0  0  0  0  0  0  0  0
  -27.0023  -21.9602   21.0228 C   0  0  0  0  0  0  0  0  0  0  0  0
  -25.4452  -20.1070   21.4865 C   0  0  0  0  0  0  0  0  0  0  0  0
  -29.4084  -26.1560   22.0469 C   0  0  1  0  0  0  0  0  0  0  0  0
  -26.7233  -28.7248   21.2564 C   0  0  1  0  0  0  0  0  0  0  0  0
  -24.9442  -20.1143   20.0321 C   0  0  2  0  0  0  0  0  0  0  0  0
  -19.2710  -19.1379   20.3670 C   0  0  0  0  0  0  0  0  0  0  0  0
  -23.8413  -35.3772   23.9844 C   0  0  0  0  0  0  0  0  0  0  0  0
  -27.1999  -29.9301   25.6927 C   0  0  0  0  0  0  0  0  0  0  0  0
  -25.9731  -31.9994   26.3860 C   0  0  0  0  0  0  0  0  0  0  0  0
  -28.0328  -32.1813   24.9906 C   0  0  0  0  0  0  0  0  0  0  0  0
  -22.8596  -33.6339   20.7481 C   0  0  0  0  0  0  0  0  0  0  0  0
  -18.2696  -25.0519   22.6589 C   0  0  0  0  0  0  0  0  0  0  0  0
  -18.3813  -19.4762   21.5605 C   0  0  0  0  0  0  0  0  0  0  0  0
  -18.5409  -25.9222   21.4298 C   0  0  0  0  0  0  0  0  0  0  0  0
  -22.6303  -23.2281   24.3794 C   0  0  0  0  0  0  0  0  0  0  0  0
  -23.8126  -22.3632   24.7948 C   0  0  0  0  0  0  0  0  0  0  0  0
  -19.9415  -25.7383   20.8571 C   0  0  0  0  0  0  0  0  0  1  0  0
  -21.5209  -22.4310   23.7040 C   0  0  0  0  0  0  0  0  0  0  0  0
  -25.8998  -31.3160   23.9449 C   0  0  1  0  0  0  0  0  0  0  0  0
  -24.0100  -34.4059   22.8264 C   0  0  2  0  0  0  0  0  0  0  0  0
  -26.7636  -31.3370   25.2375 C   0  0  0  0  0  0  0  0  0  0  0  0
  -17.2588  -21.6115   21.4580 N   0  0  0  0  0  0  0  0  0  0  0  0
  -25.0197  -17.6503   20.1076 N   0  0  0  0  0  0  0  0  0  0  0  0
  -19.4335  -21.4443   22.4826 N   0  0  0  0  0  0  0  0  0  0  0  0
  -24.4427  -18.7504   19.5948 N   0  0  0  0  0  0  0  0  0  0  0  0
  -25.9908  -29.5241   22.2406 N   0  0  0  0  0  0  0  0  0  0  0  0
  -25.9192  -21.4474   21.8654 N   0  0  0  0  0  0  0  0  0  0  0  0
  -22.7522  -19.4756   18.1025 N   0  0  0  0  0  0  0  0  0  0  0  0
  -22.4793  -14.9733   17.8776 N   0  0  0  0  0  0  0  0  0  0  0  0
  -28.6016  -27.2147   21.4788 N   0  0  0  0  0  0  0  0  0  0  0  0
  -25.4948  -32.6366   23.4754 N   0  0  0  0  0  0  0  0  0  0  0  0
  -24.4114  -21.6744   23.6733 N   0  0  0  0  0  0  0  0  0  0  0  0
  -22.8163  -34.5180   21.9412 N   0  3  0  0  0  0  0  0  0  0  0  0
  -21.6021  -16.9343   17.0751 O   0  0  0  0  0  0  0  0  0  0  0  0
  -26.8356  -27.1303   22.9942 O   0  0  0  0  0  0  0  0  0  0  0  0
  -27.6735  -31.1320   22.3809 O   0  0  0  0  0  0  0  0  0  0  0  0
  -23.2107  -32.2439   23.5503 O   0  0  0  0  0  0  0  0  0  0  0  0
  -25.9006  -23.3498   23.1915 O   0  0  0  0  0  0  0  0  0  0  0  0
  -25.6380  -11.3384   20.6785 O   0  0  0  0  0  0  0  0  0  0  0  0
  -20.8958  -26.0668   21.8659 O   0  0  0  0  0  0  0  0  0  1  0  0
  -20.4589  -23.3167   23.3698 O   0  0  0  0  0  0  0  0  0  0  0  0
  -21.4842   -7.8404   21.6348 F   0  0  0  0  0  0  0  0  0  0  0  0
  -23.7129  -10.8621   18.7524 F   0  0  0  0  0  0  0  0  0  0  0  0
  1  2  1  0  0  0  0
  1  5  2  0  0  0  0
  2  6  2  0  0  0  0
  3  8  2  0  0  0  0
  3 16  1  0  0  0  0
  4  9  1  0  0  0  0
  4 16  2  0  0  0  0
  5 18  1  0  0  0  0
  6 20  1  0  0  0  0
  7 10  2  0  0  0  0
  7 19  1  0  0  0  0
  8 23  1  0  0  0  0
  9 23  2  0  0  0  0
 10 24  1  0  0  0  0
 11 12  2  0  0  0  0
 11 25  1  0  0  0  0
 12 26  1  0  0  0  0
 13 21  1  0  0  0  0
 13 24  2  0  0  0  0
 14 26  2  0  0  0  0
 14 27  1  0  0  0  0
 15 22  1  0  0  0  0
 15 65  2  0  0  0  0
 16 28  1  0  0  0  0
 17 28  1  0  0  0  0
 17 30  2  0  0  0  0
 17 32  1  0  0  0  0
 18 20  2  0  0  0  0
 18 37  1  0  0  0  0
 19 21  2  0  0  0  0
 19 38  1  0  0  0  0
 20 46  1  0  0  0  0
 21 39  1  0  0  0  0
 22 29  2  0  0  0  0
 22 55  1  0  0  0  0
 23 82  1  0  0  0  0
 24 83  1  0  0  0  0
 25 27  2  0  0  0  0
 25 82  1  0  0  0  0
 26 85  1  0  0  0  0
 27 86  1  0  0  0  0
 28 66  2  0  0  0  0
 29 67  1  0  0  0  0
 29 84  1  0  0  0  0
 30 68  1  0  0  0  0
 30 71  1  0  0  0  0
 31 56  1  0  0  0  0
 31 65  1  0  0  0  0
 31 67  2  0  0  0  0
 32 72  1  0  0  0  0
 32 77  2  0  0  0  0
 33 47  1  0  0  0  0
 33 73  1  0  0  0  0
 33 78  2  0  0  0  0
 34 62  1  0  0  0  0
 34 69  1  0  0  0  0
 34 79  2  0  0  0  0
 35 63  1  0  0  0  0
 35 74  1  0  0  0  0
 35 80  2  0  0  0  0
 36 70  1  0  0  0  0
 36 75  1  0  0  0  0
 36 81  2  0  0  0  0
 37 40  1  0  0  0  0
 38 47  1  0  0  0  0
 39 69  1  0  0  0  0
 40 42  1  0  0  0  0
 41 43  1  0  0  0  0
 41 44  1  0  0  0  0
 42 46  1  0  0  0  0
 43 48  1  0  0  0  0
 44 70  1  0  0  0  0
 45 48  1  0  0  0  0
 45 70  1  0  0  0  0
 46 73  1  0  0  0  0
 47 69  1  0  0  0  0
 48 68  1  0  0  0  0
 49 56  1  0  0  0  0
 50 63  1  0  0  0  0
 51 64  1  0  0  0  0
 52 64  1  0  0  0  0
 53 64  1  0  0  0  0
 54 76  1  0  0  0  0
 55 57  1  0  0  0  0
 57 60  1  0  0  0  0
 58 59  1  0  0  0  0
 58 61  1  0  0  0  0
 59 75  1  0  0  0  0
 60 83  1  0  0  0  0
 61 84  1  0  0  0  0
 62 64  1  0  0  0  0
 62 74  1  0  0  0  0
 63 76  1  0  0  0  0
 66 68  1  0  0  0  0
M  CHG  1  76   1
M  ISO  4  36 100  60 101  75 100  83 101
M  END
> <Batch ID>
0080

> <Smiles>
CCc1ncc(CC[101CH2:1][101O:1]c2ccc3c(c2)CN(C(=O)C(NC(=O)C(C)NC)C(C)(C)C)C(C(=O)NC2CCCc4ccccc42)C3)c(OCCC[100NH:0][100C:0](=O)N2CCCC(n3nc(-c4ccc(Oc5ccc(F)cc5F)cc4)c(C(N)=O)c3N)C2)n1

> <Shape>
0.219

> <Color>
0.067

> <Negative vol penalty>
0.000

$$$$

  -OEChem-04052318443D

 84 92  0     1  0  0  0  0  0999 V2000
  -22.0060  -12.1293   19.1491 C   0  0  0  0  0  0  0  0  0  0  0  0
  -21.8089  -13.4582   19.5108 C   0  0  0  0  0  0  0  0  0  0  0  0
  -26.4424  -28.7199   21.2457 C   0  0  0  0  0  0  0  0  0  0  0  0
  -25.4162  -26.7171   20.3666 C   0  0  0  0  0  0  0  0  0  0  0  0
  -23.2172  -11.5018   19.4376 C   0  0  0  0  0  0  0  0  0  0  0  0
  -22.8226  -14.1600   20.1622 C   0  0  0  0  0  0  0  0  0  0  0  0
  -23.4970  -18.8067   18.2653 C   0  0  0  0  0  0  0  0  0  0  0  0
  -27.6288  -28.4023   20.5845 C   0  0  0  0  0  0  0  0  0  0  0  0
  -26.6026  -26.3995   19.7053 C   0  0  0  0  0  0  0  0  0  0  0  0
  -22.5829  -19.7884   18.6454 C   0  0  0  0  0  0  0  0  0  0  0  0
  -31.0409  -27.9320   19.4183 C   0  0  0  0  0  0  0  0  0  0  0  0
  -32.2351  -28.0627   20.1270 C   0  0  0  0  0  0  0  0  0  0  0  0
  -24.1624  -20.6226   20.2668 C   0  0  0  0  0  0  0  0  0  0  0  0
  -21.5488  -21.6893   22.9786 C   0  0  0  0  0  0  0  0  0  0  0  0
  -31.4499  -26.4513   21.7470 C   0  0  0  0  0  0  0  0  0  0  0  0
  -20.3360  -20.0971   24.0099 C   0  0  0  0  0  0  0  0  0  0  0  0
  -25.3361  -27.8773   21.1368 C   0  0  0  0  0  0  0  0  0  0  0  0
  -23.0391  -28.9711   21.3238 C   0  0  0  0  0  0  0  0  0  0  0  0
  -24.2498  -12.1992   20.0842 C   0  0  0  0  0  0  0  0  0  0  0  0
  -24.7485  -18.7185   18.8917 C   0  0  0  0  0  0  0  0  0  0  0  0
  -24.0483  -13.5408   20.4608 C   0  0  0  0  0  0  0  0  0  0  0  0
  -25.0915  -19.6404   19.8910 C   0  0  0  0  0  0  0  0  0  0  0  0
  -21.2413  -21.1106   24.2346 C   0  0  0  0  0  0  0  0  0  0  0  0
  -27.7089  -27.2421   19.8143 C   0  0  0  0  0  0  0  0  0  0  0  0
  -22.9144  -20.6947   19.6483 C   0  0  0  0  0  0  0  0  0  0  0  0
  -30.0511  -27.0611   19.8739 C   0  0  0  0  0  0  0  0  0  0  0  0
  -32.4397  -27.3223   21.2913 C   0  0  0  0  0  0  0  0  0  0  0  0
  -30.2556  -26.3208   21.0382 C   0  0  0  0  0  0  0  0  0  0  0  0
  -24.1105  -28.2046   21.8201 C   0  0  0  0  0  0  0  0  0  0  0  0
  -20.8219  -21.0120   22.0245 C   0  0  0  0  0  0  0  0  0  0  0  0
  -22.1253  -28.9883   22.3490 C   0  0  0  0  0  0  0  0  0  0  0  0
  -22.8838  -29.6105   20.0499 C   0  0  0  0  0  0  0  0  0  0  0  0
  -26.2338  -16.5149   20.6357 C   0  0  0  0  0  0  0  0  0  0  0  0
  -28.7285  -18.5756   20.4071 C   0  0  0  0  0  0  0  0  0  0  0  0
  -29.8073  -21.7756   19.9134 C   0  0  0  0  0  0  0  0  0  0  0  0
  -21.0709  -25.2841   26.9336 C   0  0  0  0  0  0  0  0  0  0  0  0
  -25.5242  -11.4646   20.4172 C   0  0  0  0  0  0  0  0  0  0  0  0
  -25.7336  -17.6705   18.4516 C   0  0  0  0  0  0  0  0  0  0  0  0
  -26.4299  -19.6012   20.5805 C   0  0  0  0  0  0  0  0  0  0  0  0
  -26.6847  -12.3895   20.7750 C   0  0  0  0  0  0  0  0  0  0  0  0
  -21.8452  -28.7544   27.1195 C   0  0  0  0  0  0  0  0  0  0  0  0
  -26.2286  -13.4621   21.7591 C   0  0  0  0  0  0  0  0  0  0  0  0
  -22.4169  -29.0762   25.7377 C   0  0  0  0  0  0  0  0  0  0  0  0
  -22.2538  -27.3598   27.5886 C   0  0  0  0  0  0  0  0  0  0  0  0
  -22.5139  -26.5939   25.2606 C   0  0  0  0  0  0  0  0  0  0  0  0
  -25.1330  -14.3429   21.1465 C   0  0  1  0  0  0  0  0  0  0  0  0
  -26.7810  -17.3514   19.5138 C   0  0  1  0  0  0  0  0  0  0  0  0
  -22.0827  -27.9683   24.7207 C   0  0  2  0  0  0  0  0  0  0  0  0
  -19.7956  -17.7242   21.8984 C   0  0  0  0  0  0  0  0  0  0  0  0
  -22.6303  -20.3905   26.1952 C   0  0  0  0  0  0  0  0  0  0  0  0
  -19.6978  -22.2175   20.1202 C   0  0  0  0  0  0  0  0  0  0  0  0
  -31.9005  -23.1566   19.8210 C   0  0  0  0  0  0  0  0  0  0  0  0
  -28.9180  -18.4878   23.4512 C   0  0  0  0  0  0  0  0  0  0  0  0
  -30.3359  -20.5489   23.3528 C   0  0  0  0  0  0  0  0  0  0  0  0
  -31.1204  -18.4445   22.2672 C   0  0  0  0  0  0  0  0  0  0  0  0
  -29.3062  -22.5571   17.1032 C   0  0  0  0  0  0  0  0  0  0  0  0
  -20.7193  -21.9975   26.5760 C   0  0  0  0  0  0  0  0  0  0  0  0
  -19.1865  -19.1096   22.0292 C   0  0  0  0  0  0  0  0  0  0  0  0
  -19.9365  -23.2306   26.1242 C   0  0  0  0  0  0  0  0  0  0  0  0
  -21.7893  -21.5171   25.5426 C   0  0  2  0  0  0  0  0  0  0  0  0
  -20.7653  -21.2096   20.5270 C   0  0  1  0  0  0  0  0  0  1  0  0
  -29.2247  -19.7479   21.2186 C   0  0  1  0  0  0  0  0  0  0  0  0
  -30.8939  -22.3456   19.0198 C   0  0  2  0  0  0  0  0  0  0  0  0
  -29.8737  -19.3071   22.5610 C   0  0  0  0  0  0  0  0  0  0  0  0
  -23.8984  -27.7666   23.0639 N   0  0  0  0  0  0  0  0  0  0  0  0
  -20.0880  -20.0465   22.6630 N   0  0  0  0  0  0  0  0  0  0  0  0
  -22.6833  -28.2596   23.3579 N   0  0  0  0  0  0  0  0  0  0  0  0
  -27.3565  -18.5541   20.1194 N   0  0  0  0  0  0  0  0  0  0  0  0
  -21.9078  -26.3554   26.5799 N   0  0  0  0  0  0  0  0  0  0  0  0
  -20.9070  -29.5555   22.4770 N   0  0  0  0  0  0  0  0  0  0  0  0
  -23.9190  -29.4925   19.1124 N   0  0  0  0  0  0  0  0  0  0  0  0
  -25.7097  -15.3026   20.2296 N   0  0  0  0  0  0  0  0  0  0  0  0
  -30.1155  -20.5023   20.3436 N   0  0  0  0  0  0  0  0  0  0  0  0
  -20.7876  -24.3809   25.9165 N   0  0  0  0  0  0  0  0  0  0  0  0
  -30.2978  -23.2315   17.9801 N   0  3  0  0  0  0  0  0  0  0  0  0
  -21.8645  -30.2807   19.7578 O   0  0  0  0  0  0  0  0  0  0  0  0
  -26.2848  -16.9375   21.7848 O   0  0  0  0  0  0  0  0  0  0  0  0
  -29.5301  -17.7146   20.0358 O   0  0  0  0  0  0  0  0  0  0  0  0
  -28.7887  -22.3989   20.2040 O   0  0  0  0  0  0  0  0  0  0  0  0
  -20.6061  -25.1460   28.0702 O   0  0  0  0  0  0  0  0  0  0  0  0
  -28.8663  -26.9320   19.1687 O   0  0  0  0  0  0  0  0  0  0  0  0
  -22.0239  -21.6536   20.0217 O   0  0  0  0  0  0  0  0  0  1  0  0
  -33.5872  -27.4467   21.9710 F   0  0  0  0  0  0  0  0  0  0  0  0
  -29.3089  -25.4816   21.4803 F   0  0  0  0  0  0  0  0  0  0  0  0
  1  2  1  0  0  0  0
  1  5  2  0  0  0  0
  2  6  2  0  0  0  0
  3  8  2  0  0  0  0
  3 17  1  0  0  0  0
  4  9  1  0  0  0  0
  4 17  2  0  0  0  0
  5 19  1  0  0  0  0
  6 21  1  0  0  0  0
  7 10  2  0  0  0  0
  7 20  1  0  0  0  0
  8 24  1  0  0  0  0
  9 24  2  0  0  0  0
 10 25  1  0  0  0  0
 11 12  2  0  0  0  0
 11 26  1  0  0  0  0
 12 27  1  0  0  0  0
 13 22  1  0  0  0  0
 13 25  2  0  0  0  0
 14 23  1  0  0  0  0
 14 30  2  0  0  0  0
 15 27  2  0  0  0  0
 15 28  1  0  0  0  0
 16 23  2  0  0  0  0
 16 66  1  0  0  0  0
 17 29  1  0  0  0  0
 18 29  1  0  0  0  0
 18 31  2  0  0  0  0
 18 32  1  0  0  0  0
 19 21  2  0  0  0  0
 19 37  1  0  0  0  0
 20 22  2  0  0  0  0
 20 38  1  0  0  0  0
 21 46  1  0  0  0  0
 22 39  1  0  0  0  0
 23 60  1  0  0  0  0
 24 81  1  0  0  0  0
 25 82  1  0  0  0  0
 26 28  2  0  0  0  0
 26 81  1  0  0  0  0
 27 83  1  0  0  0  0
 28 84  1  0  0  0  0
 29 65  2  0  0  0  0
 30 61  1  0  0  0  0
 30 66  1  0  0  0  0
 31 67  1  0  0  0  0
 31 70  1  0  0  0  0
 32 71  1  0  0  0  0
 32 76  2  0  0  0  0
 33 47  1  0  0  0  0
 33 72  1  0  0  0  0
 33 77  2  0  0  0  0
 34 62  1  0  0  0  0
 34 68  1  0  0  0  0
 34 78  2  0  0  0  0
 35 63  1  0  0  0  0
 35 73  1  0  0  0  0
 35 79  2  0  0  0  0
 36 69  1  0  0  0  0
 36 74  1  0  0  0  0
 36 80  2  0  0  0  0
 37 40  1  0  0  0  0
 38 47  1  0  0  0  0
 39 68  1  0  0  0  0
 40 42  1  0  0  0  0
 41 43  1  0  0  0  0
 41 44  1  0  0  0  0
 42 46  1  0  0  0  0
 43 48  1  0  0  0  0
 44 69  1  0  0  0  0
 45 48  1  0  0  0  0
 45 69  1  0  0  0  0
 46 72  1  0  0  0  0
 47 68  1  0  0  0  0
 48 67  1  0  0  0  0
 49 58  1  0  0  0  0
 50 60  1  0  0  0  0
 51 61  1  0  0  0  0
 52 63  1  0  0  0  0
 53 64  1  0  0  0  0
 54 64  1  0  0  0  0
 55 64  1  0  0  0  0
 56 75  1  0  0  0  0
 57 59  1  0  0  0  0
 57 60  1  0  0  0  0
 58 66  1  0  0  0  0
 59 74  1  0  0  0  0
 61 82  1  0  0  0  0
 62 64  1  0  0  0  0
 62 73  1  0  0  0  0
 63 75  1  0  0  0  0
 65 67  1  0  0  0  0
M  CHG  1  75   1
M  ISO  4  36 100  61 101  74 100  82 101
M  END
> <Batch ID>
0080

> <Smiles>
CCn1cc(C(C)CC[100NH:0][100C:0](=O)N2CCCC(n3nc(-c4ccc(Oc5ccc(F)cc5F)cc4)c(C(N)=O)c3N)C2)cc1[101CH:1](C)[101O:1]c1ccc2c(c1)CN(C(=O)C(NC(=O)C(C)NC)C(C)(C)C)C(C(=O)NC1CCCc3ccccc31)C2

> <Shape>
0.200

> <Color>
0.083

> <Negative vol penalty>
0.000

$$$$

  -OEChem-04052318443D

 85 93  0     1  0  0  0  0  0999 V2000
  -17.9376  -24.4590   21.9210 C   0  0  0  0  0  0  0  0  0  0  0  0
  -19.2979  -24.1906   21.8068 C   0  0  0  0  0  0  0  0  0  0  0  0
  -19.8871  -15.9993   22.5682 C   0  0  0  0  0  0  0  0  0  0  0  0
  -21.3348  -17.8547   22.0215 C   0  0  0  0  0  0  0  0  0  0  0  0
  -17.5073  -25.7417   22.2579 C   0  0  0  0  0  0  0  0  0  0  0  0
  -20.2286  -25.2050   22.0284 C   0  0  0  0  0  0  0  0  0  0  0  0
  -24.1080  -23.6872   24.9079 C   0  0  0  0  0  0  0  0  0  0  0  0
  -19.2974  -16.7574   23.5796 C   0  0  0  0  0  0  0  0  0  0  0  0
  -20.7450  -18.6128   23.0330 C   0  0  0  0  0  0  0  0  0  0  0  0
  -25.0980  -22.9234   24.2912 C   0  0  0  0  0  0  0  0  0  0  0  0
  -20.9476  -18.8640   26.3985 C   0  0  0  0  0  0  0  0  0  0  0  0
  -21.7908  -19.5897   27.2399 C   0  0  0  0  0  0  0  0  0  0  0  0
  -26.4869  -24.8868   24.1030 C   0  0  0  0  0  0  0  0  0  0  0  0
  -20.7141  -21.6398   26.5507 C   0  0  0  0  0  0  0  0  0  0  0  0
  -20.9059  -16.5479   21.7891 C   0  0  0  0  0  0  0  0  0  0  0  0
  -21.1130  -15.6831   19.3982 C   0  0  0  0  0  0  0  0  0  0  0  0
  -18.4335  -26.7700   22.4932 C   0  0  0  0  0  0  0  0  0  0  0  0
  -24.2958  -25.0610   25.1172 C   0  0  0  0  0  0  0  0  0  0  0  0
  -19.8102  -26.5030   22.3674 C   0  0  0  0  0  0  0  0  0  0  0  0
  -25.4987  -25.6652   24.7248 C   0  0  0  0  0  0  0  0  0  0  0  0
  -19.7263  -18.0641   23.8120 C   0  0  0  0  0  0  0  0  0  0  0  0
  -26.2865  -23.5237   23.8860 C   0  0  0  0  0  0  0  0  0  0  0  0
  -19.9877  -19.5262   25.6331 C   0  0  0  0  0  0  0  0  0  0  0  0
  -21.6740  -20.9776   27.3161 C   0  0  0  0  0  0  0  0  0  0  0  0
  -19.8710  -20.9141   25.7092 C   0  0  0  0  0  0  0  0  0  0  0  0
  -21.5159  -15.7651   20.7445 C   0  0  0  0  0  0  0  0  0  0  0  0
  -29.2431  -17.8866   20.9511 C   0  0  0  0  0  0  0  0  0  0  0  0
  -28.0953  -18.5965   20.7028 C   0  0  0  0  0  0  0  0  0  0  0  0
  -22.0095  -14.8154   18.8237 C   0  0  0  0  0  0  0  0  0  0  0  0
  -20.0256  -16.3331   18.7268 C   0  0  0  0  0  0  0  0  0  0  0  0
  -22.8298  -27.7019   24.1273 C   0  0  0  0  0  0  0  0  0  0  0  0
  -24.8783  -29.1441   26.1879 C   0  0  0  0  0  0  0  0  0  0  0  0
  -27.8373  -29.0333   27.8847 C   0  0  0  0  0  0  0  0  0  0  0  0
  -27.6228  -13.2502   20.1993 C   0  0  0  0  0  0  0  0  0  0  0  0
  -17.9191  -28.1522   22.8085 C   0  0  0  0  0  0  0  0  0  0  0  0
  -23.2291  -25.8656   25.8079 C   0  0  0  0  0  0  0  0  0  0  0  0
  -25.7579  -27.1325   24.9449 C   0  0  0  0  0  0  0  0  0  0  0  0
  -18.9817  -29.0787   23.3940 C   0  0  0  0  0  0  0  0  0  0  0  0
  -24.8138  -11.0858   19.8805 C   0  0  0  0  0  0  0  0  0  0  0  0
  -20.2717  -28.9900   22.5849 C   0  0  0  0  0  0  0  0  0  0  0  0
  -23.6137  -12.0322   19.9443 C   0  0  0  0  0  0  0  0  0  0  0  0
  -25.9392  -11.5381   20.8083 C   0  0  0  0  0  0  0  0  0  0  0  0
  -25.1790  -13.8789   20.6781 C   0  0  0  0  0  0  0  0  0  0  0  0
  -20.8512  -27.5708   22.6244 C   0  0  1  0  0  0  0  0  0  0  0  0
  -23.3174  -27.3584   25.5064 C   0  0  1  0  0  0  0  0  0  0  0  0
  -24.0404  -13.4950   19.7175 C   0  0  2  0  0  0  0  0  0  0  0  0
  -26.6829  -18.3565   21.0385 C   0  0  0  0  0  0  0  0  0  0  0  0
  -30.2626  -16.7674   22.9511 C   0  0  0  0  0  0  0  0  0  0  0  0
  -29.2557  -30.3754   29.4608 C   0  0  0  0  0  0  0  0  0  0  0  0
  -25.7360  -30.9447   23.8788 C   0  0  0  0  0  0  0  0  0  0  0  0
  -27.7554  -31.5796   25.2157 C   0  0  0  0  0  0  0  0  0  0  0  0
  -25.4751  -32.1155   26.0733 C   0  0  0  0  0  0  0  0  0  0  0  0
  -27.6900  -26.9466   29.9782 C   0  0  0  0  0  0  0  0  0  0  0  0
  -27.3276  -21.8698   20.5249 C   0  0  0  0  0  0  0  0  0  0  0  0
  -28.5275  -22.4489   21.2762 C   0  0  0  0  0  0  0  0  0  0  0  0
  -30.0334  -15.4587   20.8030 C   0  0  0  0  0  0  0  0  0  0  0  0
  -27.7248  -20.8329   19.4681 C   0  0  0  0  0  0  0  0  0  0  0  0
  -29.1889  -15.0756   19.5875 C   0  0  0  0  0  0  0  0  0  0  0  0
  -28.0922  -23.4475   22.3402 C   0  0  0  0  0  0  0  0  0  1  0  0
  -29.4129  -16.6118   21.6614 C   0  0  2  0  0  0  0  0  0  0  0  0
  -26.2717  -29.7160   26.0855 C   0  0  1  0  0  0  0  0  0  0  0  0
  -28.1760  -29.3115   29.3381 C   0  0  2  0  0  0  0  0  0  0  0  0
  -26.3042  -31.0616   25.3073 C   0  0  0  0  0  0  0  0  0  0  0  0
  -22.5850  -15.0097   21.0097 N   0  0  0  0  0  0  0  0  0  0  0  0
  -30.3160  -18.5473   20.4200 N   0  0  0  0  0  0  0  0  0  0  0  0
  -29.8675  -19.6574   19.8441 N   0  0  0  0  0  0  0  0  0  0  0  0
  -28.5358  -19.6851   20.0150 N   0  0  0  0  0  0  0  0  0  0  0  0
  -22.8615  -14.4447   19.8221 N   0  0  0  0  0  0  0  0  0  0  0  0
  -24.6818  -27.8779   25.6186 N   0  0  0  0  0  0  0  0  0  0  0  0
  -26.2977  -12.9331   20.5407 N   0  0  0  0  0  0  0  0  0  0  0  0
  -22.1442  -14.3410   17.5670 N   0  0  0  0  0  0  0  0  0  0  0  0
  -19.2019  -17.1927   19.4663 N   0  0  0  0  0  0  0  0  0  0  0  0
  -21.5203  -27.3330   23.8854 N   0  0  0  0  0  0  0  0  0  0  0  0
  -26.7786  -29.8028   27.4507 N   0  0  0  0  0  0  0  0  0  0  0  0
  -27.8759  -14.5945   19.9555 N   0  0  0  0  0  0  0  0  0  0  0  0
  -28.6621  -28.0697   30.0035 N   0  3  0  0  0  0  0  0  0  0  0  0
  -19.7815  -16.1441   17.5109 O   0  0  0  0  0  0  0  0  0  0  0  0
  -23.5853  -28.2616   23.3414 O   0  0  0  0  0  0  0  0  0  0  0  0
  -23.9985  -29.7936   26.7585 O   0  0  0  0  0  0  0  0  0  0  0  0
  -28.4528  -28.2178   27.2016 O   0  0  0  0  0  0  0  0  0  0  0  0
  -28.5131  -12.3976   20.1125 O   0  0  0  0  0  0  0  0  0  0  0  0
  -19.1508  -18.8043   24.7988 O   0  0  0  0  0  0  0  0  0  0  0  0
  -27.2542  -22.7807   23.2833 O   0  0  0  0  0  0  0  0  0  1  0  0
  -22.4828  -21.6742   28.1253 F   0  0  0  0  0  0  0  0  0  0  0  0
  -18.9500  -21.5557   24.9772 F   0  0  0  0  0  0  0  0  0  0  0  0
  1  2  1  0  0  0  0
  1  5  2  0  0  0  0
  2  6  2  0  0  0  0
  3  8  2  0  0  0  0
  3 15  1  0  0  0  0
  4  9  1  0  0  0  0
  4 15  2  0  0  0  0
  5 17  1  0  0  0  0
  6 19  1  0  0  0  0
  7 10  2  0  0  0  0
  7 18  1  0  0  0  0
  8 21  1  0  0  0  0
  9 21  2  0  0  0  0
 10 22  1  0  0  0  0
 11 12  2  0  0  0  0
 11 23  1  0  0  0  0
 12 24  1  0  0  0  0
 13 20  1  0  0  0  0
 13 22  2  0  0  0  0
 14 24  2  0  0  0  0
 14 25  1  0  0  0  0
 15 26  1  0  0  0  0
 16 26  1  0  0  0  0
 16 29  2  0  0  0  0
 16 30  1  0  0  0  0
 17 19  2  0  0  0  0
 17 35  1  0  0  0  0
 18 20  2  0  0  0  0
 18 36  1  0  0  0  0
 19 44  1  0  0  0  0
 20 37  1  0  0  0  0
 21 82  1  0  0  0  0
 22 83  1  0  0  0  0
 23 25  2  0  0  0  0
 23 82  1  0  0  0  0
 24 84  1  0  0  0  0
 25 85  1  0  0  0  0
 26 64  2  0  0  0  0
 27 28  2  0  0  0  0
 27 60  1  0  0  0  0
 27 65  1  0  0  0  0
 28 47  1  0  0  0  0
 28 67  1  0  0  0  0
 29 68  1  0  0  0  0
 29 71  1  0  0  0  0
 30 72  1  0  0  0  0
 30 77  2  0  0  0  0
 31 45  1  0  0  0  0
 31 73  1  0  0  0  0
 31 78  2  0  0  0  0
 32 61  1  0  0  0  0
 32 69  1  0  0  0  0
 32 79  2  0  0  0  0
 33 62  1  0  0  0  0
 33 74  1  0  0  0  0
 33 80  2  0  0  0  0
 34 70  1  0  0  0  0
 34 75  1  0  0  0  0
 34 81  2  0  0  0  0
 35 38  1  0  0  0  0
 36 45  1  0  0  0  0
 37 69  1  0  0  0  0
 38 40  1  0  0  0  0
 39 41  1  0  0  0  0
 39 42  1  0  0  0  0
 40 44  1  0  0  0  0
 41 46  1  0  0  0  0
 42 70  1  0  0  0  0
 43 46  1  0  0  0  0
 43 70  1  0  0  0  0
 44 73  1  0  0  0  0
 45 69  1  0  0  0  0
 46 68  1  0  0  0  0
 48 60  1  0  0  0  0
 49 62  1  0  0  0  0
 50 63  1  0  0  0  0
 51 63  1  0  0  0  0
 52 63  1  0  0  0  0
 53 76  1  0  0  0  0
 54 55  1  0  0  0  0
 54 57  1  0  0  0  0
 55 59  1  0  0  0  0
 56 58  1  0  0  0  0
 56 60  1  0  0  0  0
 57 67  1  0  0  0  0
 58 75  1  0  0  0  0
 59 83  1  0  0  0  0
 61 63  1  0  0  0  0
 61 74  1  0  0  0  0
 62 76  1  0  0  0  0
 64 68  1  0  0  0  0
 65 66  2  0  0  0  0
 66 67  1  0  0  0  0
M  CHG  1  76   1
M  ISO  4  34 100  59 101  75 100  83 101
M  END
> <Batch ID>
0080

> <Smiles>
CNC(C)C(=O)NC(C(=O)N1Cc2cc([101O:1][101CH2:1]CCCn3nnc(C(C)CC[100NH:0][100C:0](=O)N4CCCC(n5nc(-c6ccc(Oc7ccc(F)cc7F)cc6)c(C(N)=O)c5N)C4)c3C)ccc2CC1C(=O)NC1CCCc2ccccc21)C(C)(C)C

> <Shape>
0.201

> <Color>
0.092

> <Negative vol penalty>
0.000

$$$$

  -OEChem-04052318443D

 89 97  0     1  0  0  0  0  0999 V2000
  -18.7424  -33.7549   22.9066 C   0  0  0  0  0  0  0  0  0  0  0  0
  -19.9446  -33.6309   22.2176 C   0  0  0  0  0  0  0  0  0  0  0  0
  -24.6218  -11.2085   23.9340 C   0  0  0  0  0  0  0  0  0  0  0  0
  -23.9041  -13.1084   25.2425 C   0  0  0  0  0  0  0  0  0  0  0  0
  -18.3901  -32.8081   23.8675 C   0  0  0  0  0  0  0  0  0  0  0  0
  -20.7958  -32.5605   22.4900 C   0  0  0  0  0  0  0  0  0  0  0  0
  -25.5138  -28.2246   19.2873 C   0  0  0  0  0  0  0  0  0  0  0  0
  -24.1043  -10.3469   24.9012 C   0  0  0  0  0  0  0  0  0  0  0  0
  -23.3866  -12.2468   26.2097 C   0  0  0  0  0  0  0  0  0  0  0  0
  -26.8225  -27.7652   19.4281 C   0  0  0  0  0  0  0  0  0  0  0  0
  -21.0744   -9.1492   25.8055 C   0  0  0  0  0  0  0  0  0  0  0  0
  -20.3231   -8.0588   25.3670 C   0  0  0  0  0  0  0  0  0  0  0  0
  -26.0732  -26.1469   21.0526 C   0  0  0  0  0  0  0  0  0  0  0  0
  -21.8973   -6.5537   26.4130 C   0  0  0  0  0  0  0  0  0  0  0  0
  -29.5436  -21.0998   21.8290 C   0  0  0  0  0  0  0  0  0  0  0  0
  -27.3841  -20.5094   21.8840 C   0  0  0  0  0  0  0  0  0  0  0  0
  -24.5217  -12.5893   24.1047 C   0  0  0  0  0  0  0  0  0  0  0  0
  -24.3851  -13.9997   21.9835 C   0  0  0  0  0  0  0  0  0  0  0  0
  -19.2329  -31.7203   24.1449 C   0  0  0  0  0  0  0  0  0  0  0  0
  -24.4749  -27.6550   20.0373 C   0  0  0  0  0  0  0  0  0  0  0  0
  -20.4550  -31.5990   23.4564 C   0  0  0  0  0  0  0  0  0  0  0  0
  -24.7518  -26.5992   20.9175 C   0  0  0  0  0  0  0  0  0  0  0  0
  -29.0972  -21.0513   20.5269 C   0  0  0  0  0  0  0  0  0  0  0  0
  -27.7310  -20.6777   20.5616 C   0  0  0  0  0  0  0  0  0  0  0  0
  -23.4867  -10.8660   26.0390 C   0  0  0  0  0  0  0  0  0  0  0  0
  -27.1029  -26.7282   20.3130 C   0  0  0  0  0  0  0  0  0  0  0  0
  -22.2371   -8.9419   26.5476 C   0  0  0  0  0  0  0  0  0  0  0  0
  -20.7346   -6.7611   25.6708 C   0  0  0  0  0  0  0  0  0  0  0  0
  -22.6486   -7.6442   26.8514 C   0  0  0  0  0  0  0  0  0  0  0  0
  -25.0566  -13.4798   23.1062 C   0  0  0  0  0  0  0  0  0  0  0  0
  -25.3212  -14.7858   21.3571 C   0  0  0  0  0  0  0  0  0  0  0  0
  -23.0358  -13.7908   21.5459 C   0  0  0  0  0  0  0  0  0  0  0  0
  -22.4342  -28.7329   22.2231 C   0  0  0  0  0  0  0  0  0  0  0  0
  -21.1603  -25.7638   21.9333 C   0  0  0  0  0  0  0  0  0  0  0  0
  -21.6069  -22.4904   21.0776 C   0  0  0  0  0  0  0  0  0  0  0  0
  -30.2090  -17.6426   23.3061 C   0  0  0  0  0  0  0  0  0  0  0  0
  -18.8313  -30.7480   25.2258 C   0  0  0  0  0  0  0  0  0  0  0  0
  -23.0643  -28.1439   19.8541 C   0  0  0  0  0  0  0  0  0  0  0  0
  -23.6689  -25.9401   21.7309 C   0  0  0  0  0  0  0  0  0  0  0  0
  -19.6148  -29.4384   25.1887 C   0  0  0  0  0  0  0  0  0  0  0  0
  -30.0455  -15.1974   20.7233 C   0  0  0  0  0  0  0  0  0  0  0  0
  -21.1064  -29.7130   25.0264 C   0  0  0  0  0  0  0  0  0  0  0  0
  -28.6878  -14.5268   20.9398 C   0  0  0  0  0  0  0  0  0  0  0  0
  -30.7094  -15.5684   22.0475 C   0  0  0  0  0  0  0  0  0  0  0  0
  -28.5187  -15.7139   23.1671 C   0  0  0  0  0  0  0  0  0  0  0  0
  -21.3934  -30.4382   23.7061 C   0  0  1  0  0  0  0  0  0  0  0  0
  -22.1654  -27.8362   21.0478 C   0  0  1  0  0  0  0  0  0  0  0  0
  -27.7853  -15.3719   21.8589 C   0  0  2  0  0  0  0  0  0  0  0  0
  -20.3938  -20.2956   20.9838 C   0  0  0  0  0  0  0  0  0  0  0  0
  -26.4905  -17.5720   16.8110 C   0  0  0  0  0  0  0  0  0  0  0  0
  -24.6735  -18.9350   17.8603 C   0  0  0  0  0  0  0  0  0  0  0  0
  -28.8574  -22.0822   24.6854 C   0  0  0  0  0  0  0  0  0  0  0  0
  -21.4247  -25.4910   24.9608 C   0  0  0  0  0  0  0  0  0  0  0  0
  -21.1135  -23.0210   24.6954 C   0  0  0  0  0  0  0  0  0  0  0  0
  -19.2944  -24.5858   24.0139 C   0  0  0  0  0  0  0  0  0  0  0  0
  -21.9695  -22.2830   18.1477 C   0  0  0  0  0  0  0  0  0  0  0  0
  -29.9206  -21.3456   19.2982 C   0  0  0  0  0  0  0  0  0  0  0  0
  -26.8348  -20.4983   19.4024 C   0  0  0  0  0  0  0  0  0  0  0  0
  -30.5705  -22.7339   19.3060 C   0  0  0  0  0  0  0  0  0  0  0  0
  -27.0850  -19.1653   18.6607 C   0  0  0  0  0  0  0  0  0  0  0  0
  -29.5478  -23.8745   19.3111 C   0  0  0  0  0  0  0  0  0  0  0  0
  -30.2384  -25.2366   19.3497 C   0  0  0  0  0  0  0  0  0  0  0  0
  -29.5574  -19.6622   24.5927 C   0  0  0  0  0  0  0  0  0  0  0  0
  -29.2319  -26.3778   19.3127 C   0  0  0  0  0  0  0  0  0  1  0  0
  -21.3889  -24.4320   22.6064 C   0  0  1  0  0  0  0  0  0  0  0  0
  -20.7792  -21.5519   20.2183 C   0  0  2  0  0  0  0  0  0  0  0  0
  -26.1501  -18.9146   17.4628 C   0  0  0  0  0  0  0  0  0  0  0  0
  -28.5478  -20.7054   24.0880 C   0  0  2  0  0  0  0  0  0  0  0  0
  -20.8263  -24.3959   24.0554 C   0  0  0  0  0  0  0  0  0  0  0  0
  -26.3216  -13.9001   23.1908 N   0  0  0  0  0  0  0  0  0  0  0  0
  -28.4937  -20.7689   22.6454 N   0  0  0  0  0  0  0  0  0  0  0  0
  -26.4525  -14.6923   22.1131 N   0  0  0  0  0  0  0  0  0  0  0  0
  -22.3068  -26.4578   21.5212 N   0  0  0  0  0  0  0  0  0  0  0  0
  -29.8017  -16.3705   22.8714 N   0  0  0  0  0  0  0  0  0  0  0  0
  -25.2787  -15.5408   20.2388 N   0  0  0  0  0  0  0  0  0  0  0  0
  -22.2087  -12.9534   22.3068 N   0  0  0  0  0  0  0  0  0  0  0  0
  -21.3531  -29.5071   22.5989 N   0  0  0  0  0  0  0  0  0  0  0  0
  -20.8199  -23.4232   21.7192 N   0  0  0  0  0  0  0  0  0  0  0  0
  -29.2863  -18.3388   24.0771 N   0  0  0  0  0  0  0  0  0  0  0  0
  -21.5463  -21.1470   19.0064 N   0  3  0  0  0  0  0  0  0  0  0  0
  -22.5821  -14.3177   20.5018 O   0  0  0  0  0  0  0  0  0  0  0  0
  -23.5401  -28.7219   22.7510 O   0  0  0  0  0  0  0  0  0  0  0  0
  -20.0067  -26.1700   21.7725 O   0  0  0  0  0  0  0  0  0  0  0  0
  -22.8291  -22.4022   21.1733 O   0  0  0  0  0  0  0  0  0  0  0  0
  -31.3112  -18.1245   23.0232 O   0  0  0  0  0  0  0  0  0  0  0  0
  -22.9814  -10.0255   26.9829 O   0  0  0  0  0  0  0  0  0  0  0  0
  -28.3796  -26.2783   20.4529 O   0  0  0  0  0  0  0  0  0  1  0  0
  -20.0122   -5.7141   25.2510 F   0  0  0  0  0  0  0  0  0  0  0  0
  -23.7641   -7.4388   27.5650 F   0  0  0  0  0  0  0  0  0  0  0  0
  1  2  1  0  0  0  0
  1  5  2  0  0  0  0
  2  6  2  0  0  0  0
  3  8  2  0  0  0  0
  3 17  1  0  0  0  0
  4  9  1  0  0  0  0
  4 17  2  0  0  0  0
  5 19  1  0  0  0  0
  6 21  1  0  0  0  0
  7 10  2  0  0  0  0
  7 20  1  0  0  0  0
  8 25  1  0  0  0  0
  9 25  2  0  0  0  0
 10 26  1  0  0  0  0
 11 12  2  0  0  0  0
 11 27  1  0  0  0  0
 12 28  1  0  0  0  0
 13 22  1  0  0  0  0
 13 26  2  0  0  0  0
 14 28  2  0  0  0  0
 14 29  1  0  0  0  0
 15 23  2  0  0  0  0
 15 71  1  0  0  0  0
 16 24  2  0  0  0  0
 16 71  1  0  0  0  0
 17 30  1  0  0  0  0
 18 30  1  0  0  0  0
 18 31  2  0  0  0  0
 18 32  1  0  0  0  0
 19 21  2  0  0  0  0
 19 37  1  0  0  0  0
 20 22  2  0  0  0  0
 20 38  1  0  0  0  0
 21 46  1  0  0  0  0
 22 39  1  0  0  0  0
 23 24  1  0  0  0  0
 23 57  1  0  0  0  0
 24 58  1  0  0  0  0
 25 86  1  0  0  0  0
 26 87  1  0  0  0  0
 27 29  2  0  0  0  0
 27 86  1  0  0  0  0
 28 88  1  0  0  0  0
 29 89  1  0  0  0  0
 30 70  2  0  0  0  0
 31 72  1  0  0  0  0
 31 75  1  0  0  0  0
 32 76  1  0  0  0  0
 32 81  2  0  0  0  0
 33 47  1  0  0  0  0
 33 77  1  0  0  0  0
 33 82  2  0  0  0  0
 34 65  1  0  0  0  0
 34 73  1  0  0  0  0
 34 83  2  0  0  0  0
 35 66  1  0  0  0  0
 35 78  1  0  0  0  0
 35 84  2  0  0  0  0
 36 74  1  0  0  0  0
 36 79  1  0  0  0  0
 36 85  2  0  0  0  0
 37 40  1  0  0  0  0
 38 47  1  0  0  0  0
 39 73  1  0  0  0  0
 40 42  1  0  0  0  0
 41 43  1  0  0  0  0
 41 44  1  0  0  0  0
 42 46  1  0  0  0  0
 43 48  1  0  0  0  0
 44 74  1  0  0  0  0
 45 48  1  0  0  0  0
 45 74  1  0  0  0  0
 46 77  1  0  0  0  0
 47 73  1  0  0  0  0
 48 72  1  0  0  0  0
 49 66  1  0  0  0  0
 50 67  1  0  0  0  0
 51 67  1  0  0  0  0
 52 68  1  0  0  0  0
 53 69  1  0  0  0  0
 54 69  1  0  0  0  0
 55 69  1  0  0  0  0
 56 80  1  0  0  0  0
 57 59  1  0  0  0  0
 58 60  1  0  0  0  0
 59 61  1  0  0  0  0
 60 67  1  0  0  0  0
 61 62  1  0  0  0  0
 62 64  1  0  0  0  0
 63 68  1  0  0  0  0
 63 79  1  0  0  0  0
 64 87  1  0  0  0  0
 65 69  1  0  0  0  0
 65 78  1  0  0  0  0
 66 80  1  0  0  0  0
 68 71  1  0  0  0  0
 70 72  1  0  0  0  0
M  CHG  1  80   1
M  ISO  4  36 100  64 101  79 100  87 101
M  END
> <Batch ID>
0080

> <Smiles>
CNC(C)C(=O)NC(C(=O)N1Cc2cc([101O:1][101CH2:1]CCCCc3cn(C(C)C[100NH:0][100C:0](=O)N4CCCC(n5nc(-c6ccc(Oc7ccc(F)cc7F)cc6)c(C(N)=O)c5N)C4)cc3CCC(C)C)ccc2CC1C(=O)NC1CCCc2ccccc21)C(C)(C)C

> <Shape>
0.189

> <Color>
0.121

> <Negative vol penalty>
0.000

$$$$

  -OEChem-04052318443D

 83 91  0     1  0  0  0  0  0999 V2000
  -17.8270  -26.6500   22.2694 C   0  0  0  0  0  0  0  0  0  0  0  0
  -18.9340  -26.4283   21.4564 C   0  0  0  0  0  0  0  0  0  0  0  0
  -24.7060  -13.8905   20.0476 C   0  0  0  0  0  0  0  0  0  0  0  0
  -23.4818  -15.0165   21.7998 C   0  0  0  0  0  0  0  0  0  0  0  0
  -17.8669  -27.6478   23.2425 C   0  0  0  0  0  0  0  0  0  0  0  0
  -20.0811  -27.2050   21.6154 C   0  0  0  0  0  0  0  0  0  0  0  0
  -25.8851  -25.3911   20.8876 C   0  0  0  0  0  0  0  0  0  0  0  0
  -24.6196  -12.6926   20.7570 C   0  0  0  0  0  0  0  0  0  0  0  0
  -23.3953  -13.8186   22.5092 C   0  0  0  0  0  0  0  0  0  0  0  0
  -26.7814  -25.5177   19.8273 C   0  0  0  0  0  0  0  0  0  0  0  0
  -22.3103  -10.2852   21.3083 C   0  0  0  0  0  0  0  0  0  0  0  0
  -21.9596   -9.1360   20.5997 C   0  0  0  0  0  0  0  0  0  0  0  0
  -27.7173  -27.4860   20.8612 C   0  0  0  0  0  0  0  0  0  0  0  0
  -24.0547   -8.1096   21.2275 C   0  0  0  0  0  0  0  0  0  0  0  0
  -24.1372  -15.0525   20.5690 C   0  0  0  0  0  0  0  0  0  0  0  0
  -23.3146  -16.7821   18.8840 C   0  0  0  0  0  0  0  0  0  0  0  0
  -19.0186  -28.4306   23.4199 C   0  0  0  0  0  0  0  0  0  0  0  0
  -25.8909  -26.3189   21.9391 C   0  0  0  0  0  0  0  0  0  0  0  0
  -20.1360  -28.2150   22.5908 C   0  0  0  0  0  0  0  0  0  0  0  0
  -26.8218  -27.3675   21.9350 C   0  0  0  0  0  0  0  0  0  0  0  0
  -30.1657  -22.1979   17.6546 C   0  0  0  0  0  0  0  0  0  0  0  0
  -31.0802  -23.2335   17.7329 C   0  0  0  0  0  0  0  0  0  0  0  0
  -23.9643  -12.6566   21.9877 C   0  0  0  0  0  0  0  0  0  0  0  0
  -27.6958  -26.5668   19.8125 C   0  0  0  0  0  0  0  0  0  0  0  0
  -23.5332  -10.3466   21.9764 C   0  0  0  0  0  0  0  0  0  0  0  0
  -22.8318   -8.0482   20.5593 C   0  0  0  0  0  0  0  0  0  0  0  0
  -24.4054   -9.2588   21.9361 C   0  0  0  0  0  0  0  0  0  0  0  0
  -24.2266  -16.2903   19.8370 C   0  0  0  0  0  0  0  0  0  0  0  0
  -30.3515  -21.1080   18.4809 C   0  0  0  0  0  0  0  0  0  0  0  0
  -32.1200  -23.1106   18.6325 C   0  0  0  0  0  0  0  0  0  0  0  0
  -23.8484  -17.9835   18.4860 C   0  0  0  0  0  0  0  0  0  0  0  0
  -22.0941  -16.2047   18.4017 C   0  0  0  0  0  0  0  0  0  0  0  0
  -29.4361  -19.9603   18.4714 C   0  0  0  0  0  0  0  0  0  0  0  0
  -23.7901  -28.3990   23.1069 C   0  0  0  0  0  0  0  0  0  0  0  0
  -26.0539  -28.8081   25.3938 C   0  0  0  0  0  0  0  0  0  0  0  0
  -29.3398  -28.5903   26.2895 C   0  0  0  0  0  0  0  0  0  0  0  0
  -18.9976  -29.5290   24.4533 C   0  0  0  0  0  0  0  0  0  0  0  0
  -24.9354  -26.1531   23.0888 C   0  0  0  0  0  0  0  0  0  0  0  0
  -26.8825  -28.3784   23.0498 C   0  0  0  0  0  0  0  0  0  0  0  0
  -20.3849  -30.0578   24.8083 C   0  0  0  0  0  0  0  0  0  0  0  0
  -26.5946  -21.5708   20.0522 C   0  0  0  0  0  0  0  0  0  0  0  0
  -21.1979  -30.3151   23.5435 C   0  0  0  0  0  0  0  0  0  0  0  0
  -25.5839  -20.4242   20.1009 C   0  0  0  0  0  0  0  0  0  0  0  0
  -28.0174  -21.0673   20.2750 C   0  0  0  0  0  0  0  0  0  0  0  0
  -27.4271  -18.8403   19.3776 C   0  0  0  0  0  0  0  0  0  0  0  0
  -21.4074  -29.0202   22.7493 C   0  0  1  0  0  0  0  0  0  0  0  0
  -24.6871  -27.4509   23.8513 C   0  0  1  0  0  0  0  0  0  0  0  0
  -25.9773  -19.2935   19.1325 C   0  0  1  0  0  0  0  0  0  0  0  0
  -29.2373  -21.3944   15.4685 C   0  0  0  0  0  0  0  0  0  0  0  0
  -34.3619  -23.7254   19.5720 C   0  0  0  0  0  0  0  0  0  0  0  0
  -30.8909  -29.0317   28.2122 C   0  0  0  0  0  0  0  0  0  0  0  0
  -25.9329  -31.7989   24.8017 C   0  0  0  0  0  0  0  0  0  0  0  0
  -28.1057  -32.0569   26.0184 C   0  0  0  0  0  0  0  0  0  0  0  0
  -26.0914  -31.2218   27.2299 C   0  0  0  0  0  0  0  0  0  0  0  0
  -30.1225  -25.7414   26.4631 C   0  0  0  0  0  0  0  0  0  0  0  0
  -29.0154  -22.2596   16.7060 C   0  0  0  0  0  0  0  0  0  0  0  0
  -30.9443  -24.4574   16.8627 C   0  0  0  0  0  0  0  0  0  0  0  0
  -33.1451  -24.1853   18.7734 C   0  0  0  0  0  0  0  0  0  0  0  0
  -30.4024  -25.6822   17.6028 C   0  0  0  0  0  0  0  0  0  0  0  0
  -28.9833  -25.4927   18.1259 C   0  0  0  0  0  0  0  0  0  1  0  0
  -27.2500  -29.7133   25.5643 C   0  0  1  0  0  0  0  0  0  0  0  0
  -30.0124  -28.0031   27.5173 C   0  0  2  0  0  0  0  0  0  0  0  0
  -26.8428  -31.1800   25.8814 C   0  0  0  0  0  0  0  0  0  0  0  0
  -25.2613  -17.1120   20.0326 N   0  0  0  0  0  0  0  0  0  0  0  0
  -31.3784  -21.0145   19.3521 N   0  0  0  0  0  0  0  0  0  0  0  0
  -32.2772  -22.0323   19.4291 N   0  0  0  0  0  0  0  0  0  0  0  0
  -25.0028  -18.1322   19.1969 N   0  0  0  0  0  0  0  0  0  0  0  0
  -28.3381  -19.9858   19.3349 N   0  0  0  0  0  0  0  0  0  0  0  0
  -25.9234  -28.1772   24.1485 N   0  0  0  0  0  0  0  0  0  0  0  0
  -23.4382  -18.9165   17.6008 N   0  0  0  0  0  0  0  0  0  0  0  0
  -21.6923  -14.9647   18.9167 N   0  0  0  0  0  0  0  0  0  0  0  0
  -22.4440  -28.2153   23.3594 N   0  0  0  0  0  0  0  0  0  0  0  0
  -28.0897  -29.0926   26.5831 N   0  0  0  0  0  0  0  0  0  0  0  0
  -30.8624  -26.8400   27.1357 N   0  3  0  0  0  0  0  0  0  0  0  0
  -21.3894  -16.7638   17.5274 O   0  0  0  0  0  0  0  0  0  0  0  0
  -29.7078  -19.0563   17.6827 O   0  0  0  0  0  0  0  0  0  0  0  0
  -24.2829  -29.2361   22.3598 O   0  0  0  0  0  0  0  0  0  0  0  0
  -25.2684  -28.6606   26.3334 O   0  0  0  0  0  0  0  0  0  0  0  0
  -29.8718  -28.6055   25.1817 O   0  0  0  0  0  0  0  0  0  0  0  0
  -23.8795  -11.4879   22.6801 O   0  0  0  0  0  0  0  0  0  0  0  0
  -28.5713  -26.6931   18.7784 O   0  0  0  0  0  0  0  0  0  1  0  0
  -22.4943   -6.9442   19.8801 F   0  0  0  0  0  0  0  0  0  0  0  0
  -25.5811   -9.3115   22.5770 F   0  0  0  0  0  0  0  0  0  0  0  0
  1  2  1  0  0  0  0
  1  5  2  0  0  0  0
  2  6  2  0  0  0  0
  3  8  2  0  0  0  0
  3 15  1  0  0  0  0
  4  9  1  0  0  0  0
  4 15  2  0  0  0  0
  5 17  1  0  0  0  0
  6 19  1  0  0  0  0
  7 10  2  0  0  0  0
  7 18  1  0  0  0  0
  8 23  1  0  0  0  0
  9 23  2  0  0  0  0
 10 24  1  0  0  0  0
 11 12  2  0  0  0  0
 11 25  1  0  0  0  0
 12 26  1  0  0  0  0
 13 20  1  0  0  0  0
 13 24  2  0  0  0  0
 14 26  2  0  0  0  0
 14 27  1  0  0  0  0
 15 28  1  0  0  0  0
 16 28  1  0  0  0  0
 16 31  2  0  0  0  0
 16 32  1  0  0  0  0
 17 19  2  0  0  0  0
 17 37  1  0  0  0  0
 18 20  2  0  0  0  0
 18 38  1  0  0  0  0
 19 46  1  0  0  0  0
 20 39  1  0  0  0  0
 21 22  1  0  0  0  0
 21 29  2  0  0  0  0
 21 56  1  0  0  0  0
 22 30  2  0  0  0  0
 22 57  1  0  0  0  0
 23 80  1  0  0  0  0
 24 81  1  0  0  0  0
 25 27  2  0  0  0  0
 25 80  1  0  0  0  0
 26 82  1  0  0  0  0
 27 83  1  0  0  0  0
 28 64  2  0  0  0  0
 29 33  1  0  0  0  0
 29 65  1  0  0  0  0
 30 58  1  0  0  0  0
 30 66  1  0  0  0  0
 31 67  1  0  0  0  0
 31 70  1  0  0  0  0
 32 71  1  0  0  0  0
 32 75  2  0  0  0  0
 33 68  1  0  0  0  0
 33 76  2  0  0  0  0
 34 47  1  0  0  0  0
 34 72  1  0  0  0  0
 34 77  2  0  0  0  0
 35 61  1  0  0  0  0
 35 69  1  0  0  0  0
 35 78  2  0  0  0  0
 36 62  1  0  0  0  0
 36 73  1  0  0  0  0
 36 79  2  0  0  0  0
 37 40  1  0  0  0  0
 38 47  1  0  0  0  0
 39 69  1  0  0  0  0
 40 42  1  0  0  0  0
 41 43  1  0  0  0  0
 41 44  1  0  0  0  0
 42 46  1  0  0  0  0
 43 48  1  0  0  0  0
 44 68  1  0  0  0  0
 45 48  1  0  0  0  0
 45 68  1  0  0  0  0
 46 72  1  0  0  0  0
 47 69  1  0  0  0  0
 48 67  1  0  0  0  0
 49 56  1  0  0  0  0
 50 58  1  0  0  0  0
 51 62  1  0  0  0  0
 52 63  1  0  0  0  0
 53 63  1  0  0  0  0
 54 63  1  0  0  0  0
 55 74  1  0  0  0  0
 57 59  1  0  0  0  0
 59 60  1  0  0  0  0
 60 81  1  0  0  0  0
 61 63  1  0  0  0  0
 61 73  1  0  0  0  0
 62 74  1  0  0  0  0
 64 67  1  0  0  0  0
 65 66  2  0  0  0  0
M  CHG  1  74   1
M  ISO  4  29 100  33 100  60 101  81 101
M  END
> <Batch ID>
0080

> <Smiles>
CCc1nn[100c:0]([100C:0](=O)N2CCCC(n3nc(-c4ccc(Oc5ccc(F)cc5F)cc4)c(C(N)=O)c3N)C2)c(CC)c1CC[101CH2:1][101O:1]c1ccc2c(c1)CN(C(=O)C(NC(=O)C(C)NC)C(C)(C)C)C(C(=O)NC1CCCc3ccccc31)C2

> <Shape>
0.246

> <Color>
0.055

> <Negative vol penalty>
0.000

$$$$

  -OEChem-04052318443D

 82 90  0     1  0  0  0  0  0999 V2000
  -18.3136  -26.9902   22.0801 C   0  0  0  0  0  0  0  0  0  0  0  0
  -19.2617  -25.9843   22.2372 C   0  0  0  0  0  0  0  0  0  0  0  0
  -27.6033  -23.3957   20.1226 C   0  0  0  0  0  0  0  0  0  0  0  0
  -29.5990  -23.7337   18.8035 C   0  0  0  0  0  0  0  0  0  0  0  0
  -17.4789  -26.9916   20.9633 C   0  0  0  0  0  0  0  0  0  0  0  0
  -19.3749  -24.9785   21.2780 C   0  0  0  0  0  0  0  0  0  0  0  0
  -24.2455  -20.7216   18.2004 C   0  0  0  0  0  0  0  0  0  0  0  0
  -27.5708  -24.7576   20.4223 C   0  0  0  0  0  0  0  0  0  0  0  0
  -29.5665  -25.0956   19.1032 C   0  0  0  0  0  0  0  0  0  0  0  0
  -24.4793  -19.3748   17.9262 C   0  0  0  0  0  0  0  0  0  0  0  0
  -26.6201  -27.6217   18.8972 C   0  0  0  0  0  0  0  0  0  0  0  0
  -25.3922  -28.2768   18.8041 C   0  0  0  0  0  0  0  0  0  0  0  0
  -23.0374  -19.5233   15.9980 C   0  0  0  0  0  0  0  0  0  0  0  0
  -25.5268  -28.8619   21.1443 C   0  0  0  0  0  0  0  0  0  0  0  0
  -26.4318  -14.8750   21.1946 C   0  0  0  0  0  0  0  0  0  0  0  0
  -28.6175  -22.8837   19.3132 C   0  0  0  0  0  0  0  0  0  0  0  0
  -28.0403  -20.8313   17.9124 C   0  0  0  0  0  0  0  0  0  0  0  0
  -17.5884  -25.9907   19.9851 C   0  0  0  0  0  0  0  0  0  0  0  0
  -23.3959  -21.4779   17.3803 C   0  0  0  0  0  0  0  0  0  0  0  0
  -18.5399  -24.9657   20.1478 C   0  0  0  0  0  0  0  0  0  0  0  0
  -22.7965  -20.8802   16.2625 C   0  0  0  0  0  0  0  0  0  0  0  0
  -28.5523  -25.6075   19.9126 C   0  0  0  0  0  0  0  0  0  0  0  0
  -23.8729  -18.7747   16.8266 C   0  0  0  0  0  0  0  0  0  0  0  0
  -27.3014  -27.5866   20.1139 C   0  0  0  0  0  0  0  0  0  0  0  0
  -24.8456  -28.8969   19.9276 C   0  0  0  0  0  0  0  0  0  0  0  0
  -26.7547  -28.2067   21.2375 C   0  0  0  0  0  0  0  0  0  0  0  0
  -28.6520  -21.4769   19.0037 C   0  0  0  0  0  0  0  0  0  0  0  0
  -27.6586  -14.7880   20.5739 C   0  0  0  0  0  0  0  0  0  0  0  0
  -26.6231  -14.2860   18.5977 C   0  0  0  0  0  0  0  0  0  0  0  0
  -25.3963  -14.3726   19.2185 C   0  0  0  0  0  0  0  0  0  0  0  0
  -28.3689  -19.5069   18.0688 C   0  0  0  0  0  0  0  0  0  0  0  0
  -27.2461  -21.3798   16.8522 C   0  0  0  0  0  0  0  0  0  0  0  0
  -28.9079  -15.0126   21.3124 C   0  0  0  0  0  0  0  0  0  0  0  0
  -20.6601  -23.0364   17.8164 C   0  0  0  0  0  0  0  0  0  0  0  0
  -21.1750  -24.0028   14.7630 C   0  0  0  0  0  0  0  0  0  0  0  0
  -22.6657  -23.4137   11.7501 C   0  0  0  0  0  0  0  0  0  0  0  0
  -16.6322  -26.0077   18.8189 C   0  0  0  0  0  0  0  0  0  0  0  0
  -23.1752  -22.9364   17.6742 C   0  0  0  0  0  0  0  0  0  0  0  0
  -21.8920  -21.6535   15.3392 C   0  0  0  0  0  0  0  0  0  0  0  0
  -17.0691  -25.1153   17.6600 C   0  0  0  0  0  0  0  0  0  0  0  0
  -31.6740  -17.2645   21.1713 C   0  0  0  0  0  0  0  0  0  0  0  0
  -17.5061  -23.7475   18.1748 C   0  0  0  0  0  0  0  0  0  0  0  0
  -31.0820  -18.5172   20.5230 C   0  0  0  0  0  0  0  0  0  0  0  0
  -30.6647  -16.5713   22.0832 C   0  0  0  0  0  0  0  0  0  0  0  0
  -28.7791  -17.5035   20.7869 C   0  0  0  0  0  0  0  0  0  0  0  0
  -18.7099  -23.8713   19.1166 C   0  0  1  0  0  0  0  0  0  0  0  0
  -21.8851  -23.4796   17.0677 C   0  0  1  0  0  0  0  0  0  0  0  0
  -29.7478  -18.2041   19.8200 C   0  0  1  0  0  0  0  0  0  0  0  0
  -26.7396  -13.9559   17.1489 C   0  0  0  0  0  0  0  0  0  0  0  0
  -22.8709  -24.3606    9.4352 C   0  0  0  0  0  0  0  0  0  0  0  0
  -23.9809  -12.7225   17.8171 C   0  0  0  0  0  0  0  0  0  0  0  0
  -22.9044  -14.2573   19.4389 C   0  0  0  0  0  0  0  0  0  0  0  0
  -18.3757  -22.9851   14.1012 C   0  0  0  0  0  0  0  0  0  0  0  0
  -18.9925  -23.0734   11.6763 C   0  0  0  0  0  0  0  0  0  0  0  0
  -18.9722  -25.1664   13.0333 C   0  0  0  0  0  0  0  0  0  0  0  0
  -25.5935  -23.7500   12.0218 C   0  0  0  0  0  0  0  0  0  0  0  0
  -23.8908  -15.1964   17.3236 C   0  0  0  0  0  0  0  0  0  0  0  0
  -24.3687  -16.6063   17.6682 C   0  0  0  0  0  0  0  0  0  1  0  0
  -20.8119  -23.4709   13.3976 C   0  0  1  0  0  0  0  0  0  0  0  0
  -23.4714  -24.3147   10.8316 C   0  0  2  0  0  0  0  0  0  0  0  0
  -24.0867  -14.1327   18.4457 C   0  0  0  0  0  0  0  0  0  0  0  0
  -19.3035  -23.6586   13.0704 C   0  0  0  0  0  0  0  0  0  0  0  0
  -25.2786  -14.6689   20.5280 N   0  0  0  0  0  0  0  0  0  0  0  0
  -29.3186  -20.6322   19.7949 N   0  0  0  0  0  0  0  0  0  0  0  0
  -27.7762  -14.4920   19.2643 N   0  0  0  0  0  0  0  0  0  0  0  0
  -29.1276  -19.4422   19.2003 N   0  0  0  0  0  0  0  0  0  0  0  0
  -29.4146  -16.3132   21.3696 N   0  0  0  0  0  0  0  0  0  0  0  0
  -21.7024  -23.0750   15.6723 N   0  0  0  0  0  0  0  0  0  0  0  0
  -28.0800  -18.4030   17.3475 N   0  0  0  0  0  0  0  0  0  0  0  0
  -27.0054  -22.7605   16.8432 N   0  0  0  0  0  0  0  0  0  0  0  0
  -19.9259  -24.0739   18.3585 N   0  0  0  0  0  0  0  0  0  0  0  0
  -21.7136  -24.1213   12.4531 N   0  0  0  0  0  0  0  0  0  0  0  0
  -24.8742  -23.8233   10.7240 N   0  3  0  0  0  0  0  0  0  0  0  0
  -26.7504  -20.6643   15.9489 O   0  0  0  0  0  0  0  0  0  0  0  0
  -29.4247  -14.0190   21.8210 O   0  0  0  0  0  0  0  0  0  0  0  0
  -20.3994  -21.8416   17.8951 O   0  0  0  0  0  0  0  0  0  0  0  0
  -21.0040  -25.1989   15.0111 O   0  0  0  0  0  0  0  0  0  0  0  0
  -22.8589  -22.2028   11.8326 O   0  0  0  0  0  0  0  0  0  0  0  0
  -28.5207  -26.9365   20.2046 O   0  0  0  0  0  0  0  0  0  0  0  0
  -24.0988  -17.4600   16.5571 O   0  0  0  0  0  0  0  0  0  1  0  0
  -23.6672  -29.5273   19.8376 F   0  0  0  0  0  0  0  0  0  0  0  0
  -27.4051  -28.1774   22.4088 F   0  0  0  0  0  0  0  0  0  0  0  0
  1  2  1  0  0  0  0
  1  5  2  0  0  0  0
  2  6  2  0  0  0  0
  3  8  2  0  0  0  0
  3 16  1  0  0  0  0
  4  9  1  0  0  0  0
  4 16  2  0  0  0  0
  5 18  1  0  0  0  0
  6 20  1  0  0  0  0
  7 10  2  0  0  0  0
  7 19  1  0  0  0  0
  8 22  1  0  0  0  0
  9 22  2  0  0  0  0
 10 23  1  0  0  0  0
 11 12  2  0  0  0  0
 11 24  1  0  0  0  0
 12 25  1  0  0  0  0
 13 21  1  0  0  0  0
 13 23  2  0  0  0  0
 14 25  2  0  0  0  0
 14 26  1  0  0  0  0
 15 28  1  0  0  0  0
 15 63  2  0  0  0  0
 16 27  1  0  0  0  0
 17 27  1  0  0  0  0
 17 31  2  0  0  0  0
 17 32  1  0  0  0  0
 18 20  2  0  0  0  0
 18 37  1  0  0  0  0
 19 21  2  0  0  0  0
 19 38  1  0  0  0  0
 20 46  1  0  0  0  0
 21 39  1  0  0  0  0
 22 79  1  0  0  0  0
 23 80  1  0  0  0  0
 24 26  2  0  0  0  0
 24 79  1  0  0  0  0
 25 81  1  0  0  0  0
 26 82  1  0  0  0  0
 27 64  2  0  0  0  0
 28 33  1  0  0  0  0
 28 65  2  0  0  0  0
 29 30  2  0  0  0  0
 29 49  1  0  0  0  0
 29 65  1  0  0  0  0
 30 61  1  0  0  0  0
 30 63  1  0  0  0  0
 31 66  1  0  0  0  0
 31 69  1  0  0  0  0
 32 70  1  0  0  0  0
 32 74  2  0  0  0  0
 33 67  1  0  0  0  0
 33 75  2  0  0  0  0
 34 47  1  0  0  0  0
 34 71  1  0  0  0  0
 34 76  2  0  0  0  0
 35 59  1  0  0  0  0
 35 68  1  0  0  0  0
 35 77  2  0  0  0  0
 36 60  1  0  0  0  0
 36 72  1  0  0  0  0
 36 78  2  0  0  0  0
 37 40  1  0  0  0  0
 38 47  1  0  0  0  0
 39 68  1  0  0  0  0
 40 42  1  0  0  0  0
 41 43  1  0  0  0  0
 41 44  1  0  0  0  0
 42 46  1  0  0  0  0
 43 48  1  0  0  0  0
 44 67  1  0  0  0  0
 45 48  1  0  0  0  0
 45 67  1  0  0  0  0
 46 71  1  0  0  0  0
 47 68  1  0  0  0  0
 48 66  1  0  0  0  0
 50 60  1  0  0  0  0
 51 61  1  0  0  0  0
 52 61  1  0  0  0  0
 53 62  1  0  0  0  0
 54 62  1  0  0  0  0
 55 62  1  0  0  0  0
 56 73  1  0  0  0  0
 57 58  1  0  0  0  0
 57 61  1  0  0  0  0
 58 80  1  0  0  0  0
 59 62  1  0  0  0  0
 59 72  1  0  0  0  0
 60 73  1  0  0  0  0
 64 66  1  0  0  0  0
M  CHG  1  73   1
M  ISO  4  28 100  33 100  58 101  80 101
M  END
> <Batch ID>
0080

> <Smiles>
CNC(C)C(=O)NC(C(=O)N1Cc2cc([101O:1][101CH2:1]CC(C)(C)c3nc[100c:0]([100C:0](=O)N4CCCC(n5nc(-c6ccc(Oc7ccc(F)cc7F)cc6)c(C(N)=O)c5N)C4)nc3C)ccc2CC1C(=O)NC1CCCc2ccccc21)C(C)(C)C

> <Shape>
0.172

> <Color>
0.068

> <Negative vol penalty>
0.000

$$$$

  -OEChem-04052318443D

 85 93  0     1  0  0  0  0  0999 V2000
  -16.7330  -28.8164   24.1292 C   0  0  0  0  0  0  0  0  0  0  0  0
  -17.3665  -27.9758   23.2195 C   0  0  0  0  0  0  0  0  0  0  0  0
  -23.9850  -12.3205   20.9131 C   0  0  0  0  0  0  0  0  0  0  0  0
  -23.6854  -13.7868   22.8097 C   0  0  0  0  0  0  0  0  0  0  0  0
  -17.2110  -30.1106   24.3304 C   0  0  0  0  0  0  0  0  0  0  0  0
  -18.4778  -28.4294   22.5097 C   0  0  0  0  0  0  0  0  0  0  0  0
  -22.2221  -25.0224   22.3780 C   0  0  0  0  0  0  0  0  0  0  0  0
  -23.7927  -11.2130   21.7389 C   0  0  0  0  0  0  0  0  0  0  0  0
  -23.4931  -12.6793   23.6356 C   0  0  0  0  0  0  0  0  0  0  0  0
  -22.0891  -23.9645   21.4797 C   0  0  0  0  0  0  0  0  0  0  0  0
  -21.1904   -9.5851   23.1571 C   0  0  0  0  0  0  0  0  0  0  0  0
  -20.3495   -8.5718   22.6971 C   0  0  0  0  0  0  0  0  0  0  0  0
  -23.5620  -25.0951   19.9396 C   0  0  0  0  0  0  0  0  0  0  0  0
  -22.1784   -6.9979   22.8211 C   0  0  0  0  0  0  0  0  0  0  0  0
  -28.0364  -22.4934   18.0950 C   0  0  0  0  0  0  0  0  0  0  0  0
  -23.9314  -13.6074   21.4485 C   0  0  0  0  0  0  0  0  0  0  0  0
  -23.1455  -15.4664   19.8883 C   0  0  0  0  0  0  0  0  0  0  0  0
  -18.3345  -30.5770   23.6298 C   0  0  0  0  0  0  0  0  0  0  0  0
  -23.0187  -26.1314   22.0588 C   0  0  0  0  0  0  0  0  0  0  0  0
  -18.9704  -29.7315   22.7007 C   0  0  0  0  0  0  0  0  0  0  0  0
  -23.7055  -26.1645   20.8367 C   0  0  0  0  0  0  0  0  0  0  0  0
  -23.5467  -11.3923   23.1001 C   0  0  0  0  0  0  0  0  0  0  0  0
  -22.7568  -24.0020   20.2591 C   0  0  0  0  0  0  0  0  0  0  0  0
  -22.5254   -9.3049   23.4490 C   0  0  0  0  0  0  0  0  0  0  0  0
  -20.8434   -7.2782   22.5292 C   0  0  0  0  0  0  0  0  0  0  0  0
  -23.0193   -8.0113   23.2810 C   0  0  0  0  0  0  0  0  0  0  0  0
  -24.1306  -14.7519   20.5960 C   0  0  0  0  0  0  0  0  0  0  0  0
  -29.2636  -23.0067   18.4071 C   0  0  0  0  0  0  0  0  0  0  0  0
  -23.8408  -16.4546   19.2352 C   0  0  0  0  0  0  0  0  0  0  0  0
  -28.3147  -22.3154   20.2839 C   0  0  0  0  0  0  0  0  0  0  0  0
  -21.7287  -15.2557   19.8268 C   0  0  0  0  0  0  0  0  0  0  0  0
  -22.4815  -29.2389   21.6604 C   0  0  0  0  0  0  0  0  0  0  0  0
  -25.7132  -29.3686   21.4122 C   0  0  0  0  0  0  0  0  0  0  0  0
  -28.6311  -27.7506   20.6951 C   0  0  0  0  0  0  0  0  0  0  0  0
  -29.0687  -19.1629   20.3240 C   0  0  0  0  0  0  0  0  0  0  0  0
  -18.7858  -31.9997   23.8461 C   0  0  0  0  0  0  0  0  0  0  0  0
  -23.1731  -27.2522   23.0499 C   0  0  0  0  0  0  0  0  0  0  0  0
  -24.5890  -27.3229   20.4547 C   0  0  0  0  0  0  0  0  0  0  0  0
  -20.1954  -32.2768   23.3297 C   0  0  0  0  0  0  0  0  0  0  0  0
  -28.1453  -17.3991   17.3722 C   0  0  0  0  0  0  0  0  0  0  0  0
  -20.3730  -31.7016   21.9281 C   0  0  0  0  0  0  0  0  0  0  0  0
  -26.9228  -16.5851   17.7999 C   0  0  0  0  0  0  0  0  0  0  0  0
  -29.1777  -17.4979   18.4930 C   0  0  0  0  0  0  0  0  0  0  0  0
  -27.4305  -17.1885   20.2034 C   0  0  0  0  0  0  0  0  0  0  0  0
  -20.1935  -30.1787   21.9299 C   0  0  1  0  0  0  0  0  0  0  0  0
  -23.6007  -28.5665   22.4039 C   0  0  1  0  0  0  0  0  0  0  0  0
  -26.3364  -17.1081   19.1250 C   0  0  2  0  0  0  0  0  0  0  0  0
  -30.3081  -23.5973   17.5664 C   0  0  0  0  0  0  0  0  0  0  0  0
  -23.2891  -21.3491   16.9742 C   0  0  0  0  0  0  0  0  0  0  0  0
  -31.1073  -28.1285   20.5431 C   0  0  0  0  0  0  0  0  0  0  0  0
  -25.3259  -30.8226   18.7578 C   0  0  0  0  0  0  0  0  0  0  0  0
  -27.7200  -30.3282   18.2174 C   0  0  0  0  0  0  0  0  0  0  0  0
  -27.1555  -31.7420   20.1936 C   0  0  0  0  0  0  0  0  0  0  0  0
  -23.4145  -21.3133   20.8989 C   0  0  0  0  0  0  0  0  0  0  0  0
  -29.1837  -25.7451   22.8002 C   0  0  0  0  0  0  0  0  0  0  0  0
  -28.0955  -22.0161   21.7209 C   0  0  0  0  0  0  0  0  0  0  0  0
  -23.1750  -20.8704   18.4139 C   0  0  0  0  0  0  0  0  0  0  0  0
  -24.9903  -22.4814   19.3224 C   0  0  0  0  0  0  0  0  0  0  0  0
  -26.1105  -21.4354   19.4066 C   0  0  0  0  0  0  0  0  0  0  0  0
  -28.8245  -20.7558   22.2114 C   0  0  0  0  0  0  0  0  0  0  0  0
  -26.7038  -29.2559   20.2786 C   0  0  1  0  0  0  0  0  0  0  0  0
  -29.9560  -27.6879   21.4336 C   0  0  2  0  0  0  0  0  0  0  0  0
  -26.7082  -30.5161   19.3679 C   0  0  0  0  0  0  0  0  0  0  0  0
  -23.5676  -21.9026   19.4904 C   0  0  2  0  0  0  0  0  0  1  0  0
  -25.3582  -15.2442   20.4100 N   0  0  0  0  0  0  0  0  0  0  0  0
  -27.4718  -22.0727   19.2749 N   0  0  0  0  0  0  0  0  0  0  0  0
  -25.1492  -16.2785   19.5779 N   0  0  0  0  0  0  0  0  0  0  0  0
  -29.4092  -22.8840   19.7679 N   0  3  0  0  0  0  0  0  0  0  0  0
  -24.7029  -28.3974   21.4548 N   0  0  0  0  0  0  0  0  0  0  0  0
  -28.5579  -18.0016   19.7210 N   0  0  0  0  0  0  0  0  0  0  0  0
  -23.4546  -17.4482   18.4069 N   0  0  0  0  0  0  0  0  0  0  0  0
  -21.1785  -14.1949   20.5590 N   0  0  0  0  0  0  0  0  0  0  0  0
  -21.3810  -29.5304   22.4436 N   0  0  0  0  0  0  0  0  0  0  0  0
  -27.9935  -28.9572   20.8916 N   0  0  0  0  0  0  0  0  0  0  0  0
  -28.4191  -19.5756   21.4809 N   0  0  0  0  0  0  0  0  0  0  0  0
  -30.2256  -26.2972   21.8967 N   0  3  0  0  0  0  0  0  0  0  0  0
  -20.9750  -15.9765   19.1297 O   0  0  0  0  0  0  0  0  0  0  0  0
  -22.6076  -29.4771   20.4650 O   0  0  0  0  0  0  0  0  0  0  0  0
  -25.8357  -30.2805   22.2339 O   0  0  0  0  0  0  0  0  0  0  0  0
  -28.2063  -26.8234   20.0092 O   0  0  0  0  0  0  0  0  0  0  0  0
  -30.0289  -19.7888   19.8623 O   0  0  0  0  0  0  0  0  0  0  0  0
  -23.3588  -10.3119   23.9062 O   0  0  0  0  0  0  0  0  0  0  0  0
  -22.6282  -22.9711   19.3802 O   0  0  0  0  0  0  0  0  0  1  0  0
  -20.0354   -6.3048   22.0889 F   0  0  0  0  0  0  0  0  0  0  0  0
  -24.3005   -7.7357   23.5609 F   0  0  0  0  0  0  0  0  0  0  0  0
  1  2  1  0  0  0  0
  1  5  2  0  0  0  0
  2  6  2  0  0  0  0
  3  8  2  0  0  0  0
  3 16  1  0  0  0  0
  4  9  1  0  0  0  0
  4 16  2  0  0  0  0
  5 18  1  0  0  0  0
  6 20  1  0  0  0  0
  7 10  2  0  0  0  0
  7 19  1  0  0  0  0
  8 22  1  0  0  0  0
  9 22  2  0  0  0  0
 10 23  1  0  0  0  0
 11 12  2  0  0  0  0
 11 24  1  0  0  0  0
 12 25  1  0  0  0  0
 13 21  1  0  0  0  0
 13 23  2  0  0  0  0
 14 25  2  0  0  0  0
 14 26  1  0  0  0  0
 15 28  2  0  0  0  0
 15 66  1  0  0  0  0
 16 27  1  0  0  0  0
 17 27  1  0  0  0  0
 17 29  2  0  0  0  0
 17 31  1  0  0  0  0
 18 20  2  0  0  0  0
 18 36  1  0  0  0  0
 19 21  2  0  0  0  0
 19 37  1  0  0  0  0
 20 45  1  0  0  0  0
 21 38  1  0  0  0  0
 22 82  1  0  0  0  0
 23 83  1  0  0  0  0
 24 26  2  0  0  0  0
 24 82  1  0  0  0  0
 25 84  1  0  0  0  0
 26 85  1  0  0  0  0
 27 65  2  0  0  0  0
 28 48  1  0  0  0  0
 28 68  1  0  0  0  0
 29 67  1  0  0  0  0
 29 71  1  0  0  0  0
 30 56  1  0  0  0  0
 30 66  1  0  0  0  0
 30 68  2  0  0  0  0
 31 72  1  0  0  0  0
 31 77  2  0  0  0  0
 32 46  1  0  0  0  0
 32 73  1  0  0  0  0
 32 78  2  0  0  0  0
 33 61  1  0  0  0  0
 33 69  1  0  0  0  0
 33 79  2  0  0  0  0
 34 62  1  0  0  0  0
 34 74  1  0  0  0  0
 34 80  2  0  0  0  0
 35 70  1  0  0  0  0
 35 75  1  0  0  0  0
 35 81  2  0  0  0  0
 36 39  1  0  0  0  0
 37 46  1  0  0  0  0
 38 69  1  0  0  0  0
 39 41  1  0  0  0  0
 40 42  1  0  0  0  0
 40 43  1  0  0  0  0
 41 45  1  0  0  0  0
 42 47  1  0  0  0  0
 43 70  1  0  0  0  0
 44 47  1  0  0  0  0
 44 70  1  0  0  0  0
 45 73  1  0  0  0  0
 46 69  1  0  0  0  0
 47 67  1  0  0  0  0
 49 57  1  0  0  0  0
 50 62  1  0  0  0  0
 51 63  1  0  0  0  0
 52 63  1  0  0  0  0
 53 63  1  0  0  0  0
 54 64  1  0  0  0  0
 55 76  1  0  0  0  0
 56 60  1  0  0  0  0
 57 64  1  0  0  0  0
 58 59  1  0  0  0  0
 58 64  1  0  0  0  0
 59 66  1  0  0  0  0
 60 75  1  0  0  0  0
 61 63  1  0  0  0  0
 61 74  1  0  0  0  0
 62 76  1  0  0  0  0
 64 83  1  0  0  0  0
 65 67  1  0  0  0  0
M  CHG  2  68   1  76   1
M  ISO  4  35 100  64 101  75 100  83 101
M  END
> <Batch ID>
0080

> <Smiles>
CC[101C:1](C)(CCn1cc(C)nc1CC[100NH:0][100C:0](=O)N1CCCC(n2nc(-c3ccc(Oc4ccc(F)cc4F)cc3)c(C(N)=O)c2N)C1)[101O:1]c1ccc2c(c1)CN(C(=O)C(NC(=O)C(C)NC)C(C)(C)C)C(C(=O)NC1CCCc3ccccc31)C2

> <Shape>
0.252

> <Color>
0.083

> <Negative vol penalty>
0.000

$$$$

  -OEChem-04052318443D

 86 94  0     1  0  0  0  0  0999 V2000
  -26.1397  -20.8495   28.8775 C   0  0  0  0  0  0  0  0  0  0  0  0
  -26.9238  -21.3632   27.8496 C   0  0  0  0  0  0  0  0  0  0  0  0
  -23.8227  -12.4970   21.0126 C   0  0  0  0  0  0  0  0  0  0  0  0
  -26.2055  -12.1475   20.8201 C   0  0  0  0  0  0  0  0  0  0  0  0
  -24.7516  -20.8267   28.7493 C   0  0  0  0  0  0  0  0  0  0  0  0
  -26.3201  -21.8536   26.6922 C   0  0  0  0  0  0  0  0  0  0  0  0
  -28.2062  -26.5703   23.2714 C   0  0  0  0  0  0  0  0  0  0  0  0
  -23.6017  -11.1507   20.7224 C   0  0  0  0  0  0  0  0  0  0  0  0
  -25.9845  -10.8011   20.5299 C   0  0  0  0  0  0  0  0  0  0  0  0
  -28.9411  -26.6364   22.0885 C   0  0  0  0  0  0  0  0  0  0  0  0
  -22.4273   -7.7267   20.3876 C   0  0  0  0  0  0  0  0  0  0  0  0
  -21.5031   -7.0372   21.1725 C   0  0  0  0  0  0  0  0  0  0  0  0
  -26.8888  -26.7786   20.8287 C   0  0  0  0  0  0  0  0  0  0  0  0
  -22.8265   -7.5028   23.1395 C   0  0  0  0  0  0  0  0  0  0  0  0
  -30.1658  -22.3571   18.0385 C   0  0  0  0  0  0  0  0  0  0  0  0
  -25.1246  -12.9954   21.0614 C   0  0  0  0  0  0  0  0  0  0  0  0
  -25.5409  -14.9627   22.6312 C   0  0  0  0  0  0  0  0  0  0  0  0
  -24.1301  -21.3260   27.5938 C   0  0  0  0  0  0  0  0  0  0  0  0
  -26.8045  -26.5969   23.2411 C   0  0  0  0  0  0  0  0  0  0  0  0
  -24.9224  -21.8363   26.5478 C   0  0  0  0  0  0  0  0  0  0  0  0
  -26.1386  -26.7152   22.0128 C   0  0  0  0  0  0  0  0  0  0  0  0
  -24.6826  -10.3027   20.4811 C   0  0  0  0  0  0  0  0  0  0  0  0
  -28.2823  -26.7376   20.8666 C   0  0  0  0  0  0  0  0  0  0  0  0
  -23.5512   -8.3041   20.9786 C   0  0  0  0  0  0  0  0  0  0  0  0
  -21.7027   -6.9253   22.5485 C   0  0  0  0  0  0  0  0  0  0  0  0
  -23.7507   -8.1922   22.3546 C   0  0  0  0  0  0  0  0  0  0  0  0
  -25.3534  -14.3861   21.3606 C   0  0  0  0  0  0  0  0  0  0  0  0
  -29.3916  -23.4263   18.4407 C   0  0  0  0  0  0  0  0  0  0  0  0
  -30.0114  -21.1987   18.7723 C   0  0  0  0  0  0  0  0  0  0  0  0
  -25.7176  -16.3011   22.3782 C   0  0  0  0  0  0  0  0  0  0  0  0
  -28.4693  -22.1940   20.1134 C   0  0  0  0  0  0  0  0  0  0  0  0
  -25.5541  -14.3438   23.9244 C   0  0  0  0  0  0  0  0  0  0  0  0
  -24.5034  -24.5859   24.1153 C   0  0  0  0  0  0  0  0  0  0  0  0
  -22.5716  -27.0754   23.3452 C   0  0  0  0  0  0  0  0  0  0  0  0
  -22.1234  -29.9517   21.5641 C   0  0  0  0  0  0  0  0  0  0  0  0
  -27.6496  -19.3243   17.5846 C   0  0  0  0  0  0  0  0  0  0  0  0
  -22.6288  -21.2369   27.4809 C   0  0  0  0  0  0  0  0  0  0  0  0
  -26.0270  -26.5516   24.5279 C   0  0  0  0  0  0  0  0  0  0  0  0
  -24.6358  -26.7682   21.9274 C   0  0  0  0  0  0  0  0  0  0  0  0
  -22.0473  -22.1196   26.3795 C   0  0  0  0  0  0  0  0  0  0  0  0
  -24.5209  -19.7086   19.2401 C   0  0  0  0  0  0  0  0  0  0  0  0
  -22.8473  -21.9613   25.0904 C   0  0  0  0  0  0  0  0  0  0  0  0
  -24.3964  -18.4401   20.0859 C   0  0  0  0  0  0  0  0  0  0  0  0
  -25.1946  -19.4285   17.8985 C   0  0  0  0  0  0  0  0  0  0  0  0
  -26.3752  -17.4793   18.8369 C   0  0  0  0  0  0  0  0  0  0  0  0
  -24.3033  -22.4002   25.2873 C   0  0  1  0  0  0  0  0  0  0  0  0
  -24.5919  -26.0686   24.3422 C   0  0  1  0  0  0  0  0  0  0  0  0
  -25.7524  -17.7218   20.2224 C   0  0  2  0  0  0  0  0  0  0  0  0
  -29.3706  -22.1373   22.9998 C   0  0  0  0  0  0  0  0  0  0  0  0
  -31.1665  -19.1452   19.6515 C   0  0  0  0  0  0  0  0  0  0  0  0
  -20.4264  -31.7440   21.1110 C   0  0  0  0  0  0  0  0  0  0  0  0
  -21.0397  -25.1622   21.5278 C   0  0  0  0  0  0  0  0  0  0  0  0
  -20.0092  -27.1545   20.4156 C   0  0  0  0  0  0  0  0  0  0  0  0
  -19.6009  -26.7315   22.8399 C   0  0  0  0  0  0  0  0  0  0  0  0
  -23.8922  -32.0625   22.6480 C   0  0  0  0  0  0  0  0  0  0  0  0
  -29.4902  -24.7356   17.6994 C   0  0  0  0  0  0  0  0  0  0  0  0
  -27.5245  -22.1016   21.2635 C   0  0  0  0  0  0  0  0  0  0  0  0
  -28.0793  -22.7836   22.5234 C   0  0  0  0  0  0  0  0  0  0  0  0
  -30.5505  -25.6841   18.2631 C   0  0  0  0  0  0  0  0  0  0  0  0
  -30.1099  -19.0859   17.3636 C   0  0  0  0  0  0  0  0  0  0  0  0
  -30.2593  -26.1361   19.6894 C   0  0  0  0  0  0  0  0  0  1  0  0
  -30.8057  -19.9884   18.4110 C   0  0  1  0  0  0  0  0  0  0  0  0
  -21.8757  -27.5397   22.0886 C   0  0  1  0  0  0  0  0  0  0  0  0
  -21.6054  -31.3190   21.9724 C   0  0  2  0  0  0  0  0  0  0  0  0
  -20.6597  -26.6440   21.7191 C   0  0  0  0  0  0  0  0  0  0  0  0
  -25.4060  -15.2847   20.3738 N   0  0  0  0  0  0  0  0  0  0  0  0
  -28.5296  -23.3795   19.4776 N   0  0  0  0  0  0  0  0  0  0  0  0
  -29.1692  -21.0815   19.8199 N   0  0  0  0  0  0  0  0  0  0  0  0
  -25.6284  -16.4395   21.0243 N   0  0  0  0  0  0  0  0  0  0  0  0
  -23.9199  -26.7143   23.2128 N   0  0  0  0  0  0  0  0  0  0  0  0
  -26.4762  -18.7477   18.0982 N   0  0  0  0  0  0  0  0  0  0  0  0
  -25.9389  -17.3613   23.1840 N   0  0  0  0  0  0  0  0  0  0  0  0
  -25.3567  -12.9585   24.0042 N   0  0  0  0  0  0  0  0  0  0  0  0
  -24.4018  -23.8440   25.2766 N   0  0  0  0  0  0  0  0  0  0  0  0
  -21.5407  -28.9435   22.3024 N   0  0  0  0  0  0  0  0  0  0  0  0
  -28.8217  -18.6174   17.8237 N   0  0  0  0  0  0  0  0  0  0  0  0
  -22.6803  -32.3422   21.8356 N   0  3  0  0  0  0  0  0  0  0  0  0
  -25.7194  -15.0021   24.9793 O   0  0  0  0  0  0  0  0  0  0  0  0
  -24.5241  -24.1475   22.9711 O   0  0  0  0  0  0  0  0  0  0  0  0
  -21.9440  -27.0414   24.4067 O   0  0  0  0  0  0  0  0  0  0  0  0
  -22.9584  -29.7937   20.6762 O   0  0  0  0  0  0  0  0  0  0  0  0
  -27.6531  -20.3928   16.9639 O   0  0  0  0  0  0  0  0  0  0  0  0
  -24.4674   -8.9889   20.1981 O   0  0  0  0  0  0  0  0  0  0  0  0
  -28.9971  -26.8016   19.7104 O   0  0  0  0  0  0  0  0  0  1  0  0
  -20.8143   -6.2645   23.3024 F   0  0  0  0  0  0  0  0  0  0  0  0
  -24.8279   -8.7458   22.9282 F   0  0  0  0  0  0  0  0  0  0  0  0
  1  2  1  0  0  0  0
  1  5  2  0  0  0  0
  2  6  2  0  0  0  0
  3  8  2  0  0  0  0
  3 16  1  0  0  0  0
  4  9  1  0  0  0  0
  4 16  2  0  0  0  0
  5 18  1  0  0  0  0
  6 20  1  0  0  0  0
  7 10  2  0  0  0  0
  7 19  1  0  0  0  0
  8 22  1  0  0  0  0
  9 22  2  0  0  0  0
 10 23  1  0  0  0  0
 11 12  2  0  0  0  0
 11 24  1  0  0  0  0
 12 25  1  0  0  0  0
 13 21  1  0  0  0  0
 13 23  2  0  0  0  0
 14 25  2  0  0  0  0
 14 26  1  0  0  0  0
 15 28  1  0  0  0  0
 15 29  2  0  0  0  0
 16 27  1  0  0  0  0
 17 27  1  0  0  0  0
 17 30  2  0  0  0  0
 17 32  1  0  0  0  0
 18 20  2  0  0  0  0
 18 37  1  0  0  0  0
 19 21  2  0  0  0  0
 19 38  1  0  0  0  0
 20 46  1  0  0  0  0
 21 39  1  0  0  0  0
 22 83  1  0  0  0  0
 23 84  1  0  0  0  0
 24 26  2  0  0  0  0
 24 83  1  0  0  0  0
 25 85  1  0  0  0  0
 26 86  1  0  0  0  0
 27 66  2  0  0  0  0
 28 56  1  0  0  0  0
 28 67  2  0  0  0  0
 29 62  1  0  0  0  0
 29 68  1  0  0  0  0
 30 69  1  0  0  0  0
 30 72  1  0  0  0  0
 31 57  1  0  0  0  0
 31 67  1  0  0  0  0
 31 68  2  0  0  0  0
 32 73  1  0  0  0  0
 32 78  2  0  0  0  0
 33 47  1  0  0  0  0
 33 74  1  0  0  0  0
 33 79  2  0  0  0  0
 34 63  1  0  0  0  0
 34 70  1  0  0  0  0
 34 80  2  0  0  0  0
 35 64  1  0  0  0  0
 35 75  1  0  0  0  0
 35 81  2  0  0  0  0
 36 71  1  0  0  0  0
 36 76  1  0  0  0  0
 36 82  2  0  0  0  0
 37 40  1  0  0  0  0
 38 47  1  0  0  0  0
 39 70  1  0  0  0  0
 40 42  1  0  0  0  0
 41 43  1  0  0  0  0
 41 44  1  0  0  0  0
 42 46  1  0  0  0  0
 43 48  1  0  0  0  0
 44 71  1  0  0  0  0
 45 48  1  0  0  0  0
 45 71  1  0  0  0  0
 46 74  1  0  0  0  0
 47 70  1  0  0  0  0
 48 69  1  0  0  0  0
 49 58  1  0  0  0  0
 50 62  1  0  0  0  0
 51 64  1  0  0  0  0
 52 65  1  0  0  0  0
 53 65  1  0  0  0  0
 54 65  1  0  0  0  0
 55 77  1  0  0  0  0
 56 59  1  0  0  0  0
 57 58  1  0  0  0  0
 59 61  1  0  0  0  0
 60 62  1  0  0  0  0
 60 76  1  0  0  0  0
 61 84  1  0  0  0  0
 63 65  1  0  0  0  0
 63 75  1  0  0  0  0
 64 77  1  0  0  0  0
 66 69  1  0  0  0  0
M  CHG  1  77   1
M  ISO  4  36 100  61 101  76 100  84 101
M  END
> <Batch ID>
0080

> <Smiles>
CCCc1nc(CC[101CH2:1][101O:1]c2ccc3c(c2)CN(C(=O)C(NC(=O)C(C)NC)C(C)(C)C)C(C(=O)NC2CCCc4ccccc42)C3)cc(C(C)C[100NH:0][100C:0](=O)N2CCCC(n3nc(-c4ccc(Oc5ccc(F)cc5F)cc4)c(C(N)=O)c3N)C2)n1

> <Shape>
0.225

> <Color>
0.073

> <Negative vol penalty>
0.000

$$$$

  -OEChem-04052318443D

 83 91  0     1  0  0  0  0  0999 V2000
  -25.8872  -33.6265   25.5578 C   0  0  0  0  0  0  0  0  0  0  0  0
  -26.4868  -32.3931   25.3242 C   0  0  0  0  0  0  0  0  0  0  0  0
  -25.5394  -13.8862   21.5476 C   0  0  0  0  0  0  0  0  0  0  0  0
  -26.4844  -13.8192   19.3251 C   0  0  0  0  0  0  0  0  0  0  0  0
  -24.5693  -33.8463   25.1596 C   0  0  0  0  0  0  0  0  0  0  0  0
  -25.7683  -31.3783   24.6931 C   0  0  0  0  0  0  0  0  0  0  0  0
  -28.4666  -29.0264   21.1107 C   0  0  0  0  0  0  0  0  0  0  0  0
  -31.6002  -21.9763   19.2857 C   0  0  0  0  0  0  0  0  0  0  0  0
  -24.6030  -12.9205   21.1786 C   0  0  0  0  0  0  0  0  0  0  0  0
  -25.5480  -12.8534   18.9561 C   0  0  0  0  0  0  0  0  0  0  0  0
  -29.4062  -28.0877   21.5346 C   0  0  0  0  0  0  0  0  0  0  0  0
  -22.1934  -10.2102   20.9275 C   0  0  0  0  0  0  0  0  0  0  0  0
  -21.9651   -9.1566   21.8126 C   0  0  0  0  0  0  0  0  0  0  0  0
  -31.9745  -22.6932   20.4167 C   0  0  0  0  0  0  0  0  0  0  0  0
  -27.8584  -26.3122   21.0136 C   0  0  0  0  0  0  0  0  0  0  0  0
  -24.2875   -8.5120   21.6443 C   0  0  0  0  0  0  0  0  0  0  0  0
  -26.4801  -14.3356   20.6208 C   0  0  0  0  0  0  0  0  0  0  0  0
  -28.7245  -15.1136   21.5507 C   0  0  0  0  0  0  0  0  0  0  0  0
  -23.8374  -32.8368   24.5145 C   0  0  0  0  0  0  0  0  0  0  0  0
  -27.2097  -28.6150   20.6445 C   0  0  0  0  0  0  0  0  0  0  0  0
  -24.4389  -31.5843   24.2870 C   0  0  0  0  0  0  0  0  0  0  0  0
  -26.9056  -27.2476   20.5820 C   0  0  0  0  0  0  0  0  0  0  0  0
  -31.0956  -22.6491   18.1784 C   0  0  0  0  0  0  0  0  0  0  0  0
  -24.6073  -12.4041   19.8829 C   0  0  0  0  0  0  0  0  0  0  0  0
  -29.1011  -26.7305   21.4889 C   0  0  0  0  0  0  0  0  0  0  0  0
  -23.4687  -10.4146   20.4006 C   0  0  0  0  0  0  0  0  0  0  0  0
  -23.0122   -8.3076   22.1710 C   0  0  0  0  0  0  0  0  0  0  0  0
  -24.5157   -9.5656   20.7590 C   0  0  0  0  0  0  0  0  0  0  0  0
  -27.4472  -15.3336   21.0012 C   0  0  0  0  0  0  0  0  0  0  0  0
  -31.8256  -24.0705   20.3903 C   0  0  0  0  0  0  0  0  0  0  0  0
  -30.9859  -24.0283   18.2522 C   0  0  0  0  0  0  0  0  0  0  0  0
  -29.2419  -16.3730   21.7318 C   0  0  0  0  0  0  0  0  0  0  0  0
  -29.3844  -13.8811   21.8689 C   0  0  0  0  0  0  0  0  0  0  0  0
  -24.2079  -29.0782   21.5816 C   0  0  0  0  0  0  0  0  0  0  0  0
  -23.5172  -27.5097   18.8275 C   0  0  0  0  0  0  0  0  0  0  0  0
  -24.5262  -25.3290   16.4040 C   0  0  0  0  0  0  0  0  0  0  0  0
  -28.1606  -21.6423   19.1020 C   0  0  0  0  0  0  0  0  0  0  0  0
  -22.4001  -33.1056   24.1448 C   0  0  0  0  0  0  0  0  0  0  0  0
  -26.2171  -29.6387   20.1658 C   0  0  0  0  0  0  0  0  0  0  0  0
  -25.5780  -26.7530   20.0708 C   0  0  0  0  0  0  0  0  0  0  0  0
  -21.8303  -32.1018   23.1458 C   0  0  0  0  0  0  0  0  0  0  0  0
  -27.8991  -20.8877   22.5717 C   0  0  0  0  0  0  0  0  0  0  0  0
  -22.1814  -30.6768   23.5615 C   0  0  0  0  0  0  0  0  0  0  0  0
  -27.8689  -19.3588   22.6123 C   0  0  0  0  0  0  0  0  0  0  0  0
  -27.1542  -21.4348   21.3561 C   0  0  0  0  0  0  0  0  0  0  0  0
  -27.5623  -19.3532   20.1013 C   0  0  0  0  0  0  0  0  0  0  0  0
  -23.7003  -30.4667   23.5829 C   0  0  1  0  0  0  0  0  0  0  0  0
  -24.7778  -29.1336   20.1925 C   0  0  1  0  0  0  0  0  0  0  0  0
  -28.3484  -18.7530   21.2795 C   0  0  2  0  0  0  0  0  0  0  0  0
  -30.7020  -26.3024   17.2352 C   0  0  0  0  0  0  0  0  0  0  0  0
  -23.7296  -24.2137   14.3019 C   0  0  0  0  0  0  0  0  0  0  0  0
  -21.8144  -25.5994   20.4892 C   0  0  0  0  0  0  0  0  0  0  0  0
  -21.8339  -24.0102   18.5547 C   0  0  0  0  0  0  0  0  0  0  0  0
  -20.8010  -26.2668   18.3024 C   0  0  0  0  0  0  0  0  0  0  0  0
  -26.6697  -26.5786   14.7907 C   0  0  0  0  0  0  0  0  0  0  0  0
  -30.6918  -21.8864   16.9643 C   0  0  0  0  0  0  0  0  0  0  0  0
  -32.2236  -24.8806   21.6001 C   0  0  0  0  0  0  0  0  0  0  0  0
  -30.4536  -24.8039   17.0921 C   0  0  0  0  0  0  0  0  0  0  0  0
  -29.1759  -21.6871   16.8379 C   0  0  0  0  0  0  0  0  0  0  0  0
  -31.3934  -26.1513   21.7457 C   0  0  0  0  0  0  0  0  0  1  0  0
  -23.3172  -26.0640   18.4418 C   0  0  1  0  0  0  0  0  0  0  0  0
  -24.4655  -25.4080   14.8892 C   0  0  2  0  0  0  0  0  0  0  0  0
  -21.9660  -25.4942   18.9585 C   0  0  0  0  0  0  0  0  0  0  0  0
  -27.1701  -16.6307   20.8437 N   0  0  0  0  0  0  0  0  0  0  0  0
  -31.3393  -24.7590   19.3334 N   0  0  0  0  0  0  0  0  0  0  0  0
  -28.2804  -17.2371   21.2971 N   0  0  0  0  0  0  0  0  0  0  0  0
  -24.6386  -27.7931   19.6200 N   0  0  0  0  0  0  0  0  0  0  0  0
  -27.6577  -20.8213   20.1248 N   0  0  0  0  0  0  0  0  0  0  0  0
  -30.4210  -16.8145   22.2190 N   0  0  0  0  0  0  0  0  0  0  0  0
  -28.7098  -12.6783   21.6192 N   0  0  0  0  0  0  0  0  0  0  0  0
  -24.2056  -30.2943   22.2378 N   0  0  0  0  0  0  0  0  0  0  0  0
  -23.4768  -26.0021   16.9930 N   0  0  0  0  0  0  0  0  0  0  0  0
  -28.6235  -20.9799   17.9717 N   0  0  0  0  0  0  0  0  0  0  0  0
  -25.8411  -25.4404   14.3167 N   0  3  0  0  0  0  0  0  0  0  0  0
  -30.5315  -13.8480   22.3754 O   0  0  0  0  0  0  0  0  0  0  0  0
  -23.7989  -28.0114   22.0247 O   0  0  0  0  0  0  0  0  0  0  0  0
  -22.7122  -28.3575   18.4339 O   0  0  0  0  0  0  0  0  0  0  0  0
  -25.4136  -24.7271   17.0046 O   0  0  0  0  0  0  0  0  0  0  0  0
  -28.1994  -22.8742   19.1919 O   0  0  0  0  0  0  0  0  0  0  0  0
  -23.6939  -11.4615   19.5226 O   0  0  0  0  0  0  0  0  0  0  0  0
  -30.0161  -25.8122   21.9026 O   0  0  0  0  0  0  0  0  0  1  0  0
  -22.7932   -7.2968   23.0223 F   0  0  0  0  0  0  0  0  0  0  0  0
  -25.7433   -9.7577   20.2571 F   0  0  0  0  0  0  0  0  0  0  0  0
  1  2  1  0  0  0  0
  1  5  2  0  0  0  0
  2  6  2  0  0  0  0
  3  9  2  0  0  0  0
  3 17  1  0  0  0  0
  4 10  1  0  0  0  0
  4 17  2  0  0  0  0
  5 19  1  0  0  0  0
  6 21  1  0  0  0  0
  7 11  2  0  0  0  0
  7 20  1  0  0  0  0
  8 14  2  0  0  0  0
  8 23  1  0  0  0  0
  9 24  1  0  0  0  0
 10 24  2  0  0  0  0
 11 25  1  0  0  0  0
 12 13  2  0  0  0  0
 12 26  1  0  0  0  0
 13 27  1  0  0  0  0
 14 30  1  0  0  0  0
 15 22  1  0  0  0  0
 15 25  2  0  0  0  0
 16 27  2  0  0  0  0
 16 28  1  0  0  0  0
 17 29  1  0  0  0  0
 18 29  1  0  0  0  0
 18 32  2  0  0  0  0
 18 33  1  0  0  0  0
 19 21  2  0  0  0  0
 19 38  1  0  0  0  0
 20 22  2  0  0  0  0
 20 39  1  0  0  0  0
 21 47  1  0  0  0  0
 22 40  1  0  0  0  0
 23 31  2  0  0  0  0
 23 56  1  0  0  0  0
 24 80  1  0  0  0  0
 25 81  1  0  0  0  0
 26 28  2  0  0  0  0
 26 80  1  0  0  0  0
 27 82  1  0  0  0  0
 28 83  1  0  0  0  0
 29 64  2  0  0  0  0
 30 57  1  0  0  0  0
 30 65  2  0  0  0  0
 31 58  1  0  0  0  0
 31 65  1  0  0  0  0
 32 66  1  0  0  0  0
 32 69  1  0  0  0  0
 33 70  1  0  0  0  0
 33 75  2  0  0  0  0
 34 48  1  0  0  0  0
 34 71  1  0  0  0  0
 34 76  2  0  0  0  0
 35 61  1  0  0  0  0
 35 67  1  0  0  0  0
 35 77  2  0  0  0  0
 36 62  1  0  0  0  0
 36 72  1  0  0  0  0
 36 78  2  0  0  0  0
 37 68  1  0  0  0  0
 37 73  1  0  0  0  0
 37 79  2  0  0  0  0
 38 41  1  0  0  0  0
 39 48  1  0  0  0  0
 40 67  1  0  0  0  0
 41 43  1  0  0  0  0
 42 44  1  0  0  0  0
 42 45  1  0  0  0  0
 43 47  1  0  0  0  0
 44 49  1  0  0  0  0
 45 68  1  0  0  0  0
 46 49  1  0  0  0  0
 46 68  1  0  0  0  0
 47 71  1  0  0  0  0
 48 67  1  0  0  0  0
 49 66  1  0  0  0  0
 50 58  1  0  0  0  0
 51 62  1  0  0  0  0
 52 63  1  0  0  0  0
 53 63  1  0  0  0  0
 54 63  1  0  0  0  0
 55 74  1  0  0  0  0
 56 59  1  0  0  0  0
 57 60  1  0  0  0  0
 59 73  1  0  0  0  0
 60 81  1  0  0  0  0
 61 63  1  0  0  0  0
 61 72  1  0  0  0  0
 62 74  1  0  0  0  0
 64 66  1  0  0  0  0
M  CHG  1  74   1
M  ISO  4  37 100  60 101  73 100  81 101
M  END
> <Batch ID>
0080

> <Smiles>
CCc1nc(C[101CH2:1][101O:1]c2ccc3c(c2)CN(C(=O)C(NC(=O)C(C)NC)C(C)(C)C)C(C(=O)NC2CCCc4ccccc42)C3)ccc1CC[100NH:0][100C:0](=O)N1CCCC(n2nc(-c3ccc(Oc4ccc(F)cc4F)cc3)c(C(N)=O)c2N)C1

> <Shape>
0.282

> <Color>
0.067

> <Negative vol penalty>
0.000

$$$$

  -OEChem-04052318443D

 86 94  0     1  0  0  0  0  0999 V2000
  -21.7804  -27.7413   15.2479 C   0  0  0  0  0  0  0  0  0  0  0  0
  -21.8881  -26.8975   16.3488 C   0  0  0  0  0  0  0  0  0  0  0  0
  -23.7129  -10.1307   22.3394 C   0  0  0  0  0  0  0  0  0  0  0  0
  -23.3239   -9.9738   19.9601 C   0  0  0  0  0  0  0  0  0  0  0  0
  -22.4539  -28.9621   15.2383 C   0  0  0  0  0  0  0  0  0  0  0  0
  -22.6702  -27.2736   17.4403 C   0  0  0  0  0  0  0  0  0  0  0  0
  -20.3697  -26.4098   21.8682 C   0  0  0  0  0  0  0  0  0  0  0  0
  -23.5715   -8.7478   22.4538 C   0  0  0  0  0  0  0  0  0  0  0  0
  -23.1825   -8.5908   20.0745 C   0  0  0  0  0  0  0  0  0  0  0  0
  -20.3614  -25.0965   22.3359 C   0  0  0  0  0  0  0  0  0  0  0  0
  -21.0469   -6.5031   22.5613 C   0  0  0  0  0  0  0  0  0  0  0  0
  -20.2634   -6.0168   23.6079 C   0  0  0  0  0  0  0  0  0  0  0  0
  -22.1967  -25.6170   23.8123 C   0  0  0  0  0  0  0  0  0  0  0  0
  -23.7798  -22.8087   21.3420 C   0  0  0  0  0  0  0  0  0  0  0  0
  -23.9125  -20.4499   20.8915 C   0  0  0  0  0  0  0  0  0  0  0  0
  -22.1699   -4.8128   24.4756 C   0  0  0  0  0  0  0  0  0  0  0  0
  -23.5890  -10.7437   21.0926 C   0  0  0  0  0  0  0  0  0  0  0  0
  -24.9219  -12.8888   20.7322 C   0  0  0  0  0  0  0  0  0  0  0  0
  -23.2368  -29.3576   16.3343 C   0  0  0  0  0  0  0  0  0  0  0  0
  -21.3003  -27.3353   22.3620 C   0  0  0  0  0  0  0  0  0  0  0  0
  -23.3558  -28.5002   17.4447 C   0  0  0  0  0  0  0  0  0  0  0  0
  -22.2131  -26.9422   23.3511 C   0  0  0  0  0  0  0  0  0  0  0  0
  -23.6011  -21.4934   21.7561 C   0  0  0  0  0  0  0  0  0  0  0  0
  -23.3063   -7.9778   21.3214 C   0  0  0  0  0  0  0  0  0  0  0  0
  -21.2769  -24.6991   23.3060 C   0  0  0  0  0  0  0  0  0  0  0  0
  -22.3918   -6.1441   22.4718 C   0  0  0  0  0  0  0  0  0  0  0  0
  -20.8249   -5.1717   24.5651 C   0  0  0  0  0  0  0  0  0  0  0  0
  -22.9533   -5.2990   23.4290 C   0  0  0  0  0  0  0  0  0  0  0  0
  -23.7345  -12.1723   20.9739 C   0  0  0  0  0  0  0  0  0  0  0  0
  -24.2686  -23.0255   20.0638 C   0  0  0  0  0  0  0  0  0  0  0  0
  -24.3952  -20.7723   19.6334 C   0  0  0  0  0  0  0  0  0  0  0  0
  -24.5301  -14.2050   20.7086 C   0  0  0  0  0  0  0  0  0  0  0  0
  -26.2596  -12.4076   20.5457 C   0  0  0  0  0  0  0  0  0  0  0  0
  -23.6591  -29.0425   21.0871 C   0  0  0  0  0  0  0  0  0  0  0  0
  -23.7845  -30.3585   24.0493 C   0  0  0  0  0  0  0  0  0  0  0  0
  -23.1342  -30.0523   27.3855 C   0  0  0  0  0  0  0  0  0  0  0  0
  -20.9846  -18.1989   19.0890 C   0  0  0  0  0  0  0  0  0  0  0  0
  -23.9842  -30.6654   16.2582 C   0  0  0  0  0  0  0  0  0  0  0  0
  -21.2787  -28.7554   21.8665 C   0  0  0  0  0  0  0  0  0  0  0  0
  -23.2193  -27.9026   23.9285 C   0  0  0  0  0  0  0  0  0  0  0  0
  -24.4912  -31.1568   17.6116 C   0  0  0  0  0  0  0  0  0  0  0  0
  -20.1445  -16.3583   22.0187 C   0  0  0  0  0  0  0  0  0  0  0  0
  -25.1645  -30.0202   18.3742 C   0  0  0  0  0  0  0  0  0  0  0  0
  -21.0968  -15.1618   21.9846 C   0  0  0  0  0  0  0  0  0  0  0  0
  -19.6803  -16.7503   20.6177 C   0  0  0  0  0  0  0  0  0  0  0  0
  -21.7193  -15.7950   19.6160 C   0  0  0  0  0  0  0  0  0  0  0  0
  -24.1746  -28.8840   18.6581 C   0  0  1  0  0  0  0  0  0  0  0  0
  -22.6070  -29.4785   22.0673 C   0  0  1  0  0  0  0  0  0  0  0  0
  -22.2586  -15.3977   21.0007 C   0  0  2  0  0  0  0  0  0  0  0  0
  -24.4745  -24.4240   19.5860 C   0  0  0  0  0  0  0  0  0  0  0  0
  -26.2446  -19.6752   18.3432 C   0  0  0  0  0  0  0  0  0  0  0  0
  -23.3838  -31.2769   29.5616 C   0  0  0  0  0  0  0  0  0  0  0  0
  -21.6855  -19.5150   16.2031 C   0  0  0  0  0  0  0  0  0  0  0  0
  -26.7570  -29.6714   24.0922 C   0  0  0  0  0  0  0  0  0  0  0  0
  -26.7325  -30.0285   26.5702 C   0  0  0  0  0  0  0  0  0  0  0  0
  -26.1919  -31.9182   25.0341 C   0  0  0  0  0  0  0  0  0  0  0  0
  -20.2077  -30.1073   27.8235 C   0  0  0  0  0  0  0  0  0  0  0  0
  -23.0730  -21.1999   23.1375 C   0  0  0  0  0  0  0  0  0  0  0  0
  -21.5475  -21.1006   23.2054 C   0  0  0  0  0  0  0  0  0  0  0  0
  -23.9198  -19.7107   17.3537 C   0  0  0  0  0  0  0  0  0  0  0  0
  -20.8412  -22.4050   22.8548 C   0  0  0  0  0  0  0  0  0  1  0  0
  -24.7378  -19.6774   18.6791 C   0  0  2  0  0  0  0  0  0  0  0  0
  -24.5213  -30.0436   25.3287 C   0  0  1  0  0  0  0  0  0  0  0  0
  -22.4756  -30.9974   28.3743 C   0  0  2  0  0  0  0  0  0  0  0  0
  -22.4034  -19.5316   17.5495 C   0  0  2  0  0  0  0  0  0  0  0  0
  -26.0331  -30.3966   25.2442 C   0  0  0  0  0  0  0  0  0  0  0  0
  -22.6681  -12.9675   21.0953 N   0  0  0  0  0  0  0  0  0  0  0  0
  -24.5821  -22.0376   19.1957 N   0  0  0  0  0  0  0  0  0  0  0  0
  -23.1842  -14.1972   20.9293 N   0  0  0  0  0  0  0  0  0  0  0  0
  -23.1626  -29.2783   23.4072 N   0  0  0  0  0  0  0  0  0  0  0  0
  -20.8299  -16.9611   19.7346 N   0  0  0  0  0  0  0  0  0  0  0  0
  -25.2089  -15.3566   20.5209 N   0  0  0  0  0  0  0  0  0  0  0  0
  -26.4862  -11.0256   20.6006 N   0  0  0  0  0  0  0  0  0  0  0  0
  -23.3087  -29.2327   19.7640 N   0  0  0  0  0  0  0  0  0  0  0  0
  -23.8045  -30.7367   26.3938 N   0  0  0  0  0  0  0  0  0  0  0  0
  -22.1045  -18.3171   18.2751 N   0  0  0  0  0  0  0  0  0  0  0  0
  -21.2037  -30.4106   28.8832 N   0  3  0  0  0  0  0  0  0  0  0  0
  -27.2279  -13.1813   20.3529 O   0  0  0  0  0  0  0  0  0  0  0  0
  -24.7115  -28.5701   21.5006 O   0  0  0  0  0  0  0  0  0  0  0  0
  -23.7555  -31.5214   23.6387 O   0  0  0  0  0  0  0  0  0  0  0  0
  -23.0643  -28.8293   27.4852 O   0  0  0  0  0  0  0  0  0  0  0  0
  -20.1867  -19.1317   19.2319 O   0  0  0  0  0  0  0  0  0  0  0  0
  -23.1685   -6.6283   21.4326 O   0  0  0  0  0  0  0  0  0  0  0  0
  -21.2713  -23.4175   23.7637 O   0  0  0  0  0  0  0  0  0  1  0  0
  -20.0728   -4.7061   25.5709 F   0  0  0  0  0  0  0  0  0  0  0  0
  -24.2451   -4.9517   23.3489 F   0  0  0  0  0  0  0  0  0  0  0  0
  1  2  1  0  0  0  0
  1  5  2  0  0  0  0
  2  6  2  0  0  0  0
  3  8  2  0  0  0  0
  3 17  1  0  0  0  0
  4  9  1  0  0  0  0
  4 17  2  0  0  0  0
  5 19  1  0  0  0  0
  6 21  1  0  0  0  0
  7 10  2  0  0  0  0
  7 20  1  0  0  0  0
  8 24  1  0  0  0  0
  9 24  2  0  0  0  0
 10 25  1  0  0  0  0
 11 12  2  0  0  0  0
 11 26  1  0  0  0  0
 12 27  1  0  0  0  0
 13 22  1  0  0  0  0
 13 25  2  0  0  0  0
 14 23  1  0  0  0  0
 14 30  2  0  0  0  0
 15 23  2  0  0  0  0
 15 31  1  0  0  0  0
 16 27  2  0  0  0  0
 16 28  1  0  0  0  0
 17 29  1  0  0  0  0
 18 29  1  0  0  0  0
 18 32  2  0  0  0  0
 18 33  1  0  0  0  0
 19 21  2  0  0  0  0
 19 38  1  0  0  0  0
 20 22  2  0  0  0  0
 20 39  1  0  0  0  0
 21 47  1  0  0  0  0
 22 40  1  0  0  0  0
 23 58  1  0  0  0  0
 24 83  1  0  0  0  0
 25 84  1  0  0  0  0
 26 28  2  0  0  0  0
 26 83  1  0  0  0  0
 27 85  1  0  0  0  0
 28 86  1  0  0  0  0
 29 67  2  0  0  0  0
 30 50  1  0  0  0  0
 30 68  1  0  0  0  0
 31 62  1  0  0  0  0
 31 68  2  0  0  0  0
 32 69  1  0  0  0  0
 32 72  1  0  0  0  0
 33 73  1  0  0  0  0
 33 78  2  0  0  0  0
 34 48  1  0  0  0  0
 34 74  1  0  0  0  0
 34 79  2  0  0  0  0
 35 63  1  0  0  0  0
 35 70  1  0  0  0  0
 35 80  2  0  0  0  0
 36 64  1  0  0  0  0
 36 75  1  0  0  0  0
 36 81  2  0  0  0  0
 37 71  1  0  0  0  0
 37 76  1  0  0  0  0
 37 82  2  0  0  0  0
 38 41  1  0  0  0  0
 39 48  1  0  0  0  0
 40 70  1  0  0  0  0
 41 43  1  0  0  0  0
 42 44  1  0  0  0  0
 42 45  1  0  0  0  0
 43 47  1  0  0  0  0
 44 49  1  0  0  0  0
 45 71  1  0  0  0  0
 46 49  1  0  0  0  0
 46 71  1  0  0  0  0
 47 74  1  0  0  0  0
 48 70  1  0  0  0  0
 49 69  1  0  0  0  0
 51 62  1  0  0  0  0
 52 64  1  0  0  0  0
 53 65  1  0  0  0  0
 54 66  1  0  0  0  0
 55 66  1  0  0  0  0
 56 66  1  0  0  0  0
 57 77  1  0  0  0  0
 58 59  1  0  0  0  0
 59 61  1  0  0  0  0
 60 62  1  0  0  0  0
 60 65  1  0  0  0  0
 61 84  1  0  0  0  0
 63 66  1  0  0  0  0
 63 75  1  0  0  0  0
 64 77  1  0  0  0  0
 65 76  1  0  0  0  0
 67 69  1  0  0  0  0
M  CHG  1  77   1
M  ISO  4  37 100  61 101  76 100  84 101
M  END
> <Batch ID>
0080

> <Smiles>
CNC(C)C(=O)NC(C(=O)N1Cc2cc([101O:1][101CH2:1]CCc3cc(C)nc(C(C)CC(C)[100NH:0][100C:0](=O)N4CCCC(n5nc(-c6ccc(Oc7ccc(F)cc7F)cc6)c(C(N)=O)c5N)C4)c3)ccc2CC1C(=O)NC1CCCc2ccccc21)C(C)(C)C

> <Shape>
0.204

> <Color>
0.095

> <Negative vol penalty>
0.000

$$$$

  -OEChem-04052318443D

 87 95  0     1  0  0  0  0  0999 V2000
  -16.6861  -28.7699   24.0467 C   0  0  0  0  0  0  0  0  0  0  0  0
  -17.3063  -28.0505   23.0302 C   0  0  0  0  0  0  0  0  0  0  0  0
  -24.0769  -13.3286   20.4263 C   0  0  0  0  0  0  0  0  0  0  0  0
  -26.4698  -13.0520   20.6116 C   0  0  0  0  0  0  0  0  0  0  0  0
  -17.1959  -30.0086   24.4336 C   0  0  0  0  0  0  0  0  0  0  0  0
  -18.4361  -28.5700   22.3992 C   0  0  0  0  0  0  0  0  0  0  0  0
  -24.5662  -26.4942   19.3285 C   0  0  0  0  0  0  0  0  0  0  0  0
  -23.9215  -11.9438   20.3657 C   0  0  0  0  0  0  0  0  0  0  0  0
  -26.3144  -11.6672   20.5511 C   0  0  0  0  0  0  0  0  0  0  0  0
  -25.2870  -26.6550   18.1460 C   0  0  0  0  0  0  0  0  0  0  0  0
  -23.9059   -9.3421   22.5253 C   0  0  0  0  0  0  0  0  0  0  0  0
  -22.8992   -8.7682   23.3017 C   0  0  0  0  0  0  0  0  0  0  0  0
  -26.1255  -28.7685   18.9517 C   0  0  0  0  0  0  0  0  0  0  0  0
  -29.3020  -25.7547   18.2624 C   0  0  0  0  0  0  0  0  0  0  0  0
  -21.8576   -7.8937   21.3048 C   0  0  0  0  0  0  0  0  0  0  0  0
  -25.3511  -13.8828   20.5492 C   0  0  0  0  0  0  0  0  0  0  0  0
  -25.5162  -16.1190   21.7656 C   0  0  0  0  0  0  0  0  0  0  0  0
  -18.3381  -30.5392   23.8136 C   0  0  0  0  0  0  0  0  0  0  0  0
  -24.6111  -27.4761   20.3287 C   0  0  0  0  0  0  0  0  0  0  0  0
  -18.9608  -29.8176   22.7772 C   0  0  0  0  0  0  0  0  0  0  0  0
  -25.4064  -28.6165   20.1471 C   0  0  0  0  0  0  0  0  0  0  0  0
  -30.0010  -26.3620   17.2252 C   0  0  0  0  0  0  0  0  0  0  0  0
  -31.3533  -26.6468   17.3788 C   0  0  0  0  0  0  0  0  0  0  0  0
  -25.0402  -11.1130   20.4281 C   0  0  0  0  0  0  0  0  0  0  0  0
  -26.0645  -27.7937   17.9562 C   0  0  0  0  0  0  0  0  0  0  0  0
  -23.8884   -9.1919   21.1386 C   0  0  0  0  0  0  0  0  0  0  0  0
  -21.8751   -8.0440   22.6915 C   0  0  0  0  0  0  0  0  0  0  0  0
  -22.8643   -8.4677   20.5284 C   0  0  0  0  0  0  0  0  0  0  0  0
  -25.5123  -15.3132   20.6112 C   0  0  0  0  0  0  0  0  0  0  0  0
  -29.9958  -25.4547   19.4237 C   0  0  0  0  0  0  0  0  0  0  0  0
  -31.9552  -26.3071   18.5797 C   0  0  0  0  0  0  0  0  0  0  0  0
  -25.7012  -17.3952   21.2929 C   0  0  0  0  0  0  0  0  0  0  0  0
  -25.3661  -15.7471   23.1421 C   0  0  0  0  0  0  0  0  0  0  0  0
  -22.4679  -29.3823   21.6986 C   0  0  0  0  0  0  0  0  0  0  0  0
  -24.9643  -30.1627   23.6173 C   0  0  0  0  0  0  0  0  0  0  0  0
  -28.3456  -30.3506   24.0397 C   0  0  0  0  0  0  0  0  0  0  0  0
  -28.3043  -21.0104   17.9313 C   0  0  0  0  0  0  0  0  0  0  0  0
  -18.8245  -31.9036   24.2336 C   0  0  0  0  0  0  0  0  0  0  0  0
  -23.8490  -27.2750   21.6097 C   0  0  0  0  0  0  0  0  0  0  0  0
  -25.5046  -29.6905   21.1985 C   0  0  0  0  0  0  0  0  0  0  0  0
  -20.2459  -32.2127   23.7706 C   0  0  0  0  0  0  0  0  0  0  0  0
  -25.5460  -19.2134   16.5752 C   0  0  0  0  0  0  0  0  0  0  0  0
  -20.4223  -31.8386   22.3024 C   0  0  0  0  0  0  0  0  0  0  0  0
  -25.2960  -18.1019   17.5960 C   0  0  0  0  0  0  0  0  0  0  0  0
  -27.0354  -19.5128   16.4202 C   0  0  0  0  0  0  0  0  0  0  0  0
  -27.4917  -18.6988   18.7012 C   0  0  0  0  0  0  0  0  0  0  0  0
  -20.2028  -30.3365   22.0856 C   0  0  1  0  0  0  0  0  0  0  0  0
  -23.5617  -28.5803   22.3453 C   0  0  1  0  0  0  0  0  0  0  0  0
  -26.0007  -18.3998   18.9331 C   0  0  2  0  0  0  0  0  0  0  0  0
  -32.1293  -27.2957   16.2824 C   0  0  0  0  0  0  0  0  0  0  0  0
  -33.4055  -26.5866   18.8032 C   0  0  0  0  0  0  0  0  0  0  0  0
  -30.5272  -30.7257   25.2217 C   0  0  0  0  0  0  0  0  0  0  0  0
  -30.1515  -24.5040   21.8244 C   0  0  0  0  0  0  0  0  0  0  0  0
  -28.1347  -25.7355   21.0758 C   0  0  0  0  0  0  0  0  0  0  0  0
  -24.4214  -33.0843   22.9246 C   0  0  0  0  0  0  0  0  0  0  0  0
  -26.6977  -33.6434   23.8045 C   0  0  0  0  0  0  0  0  0  0  0  0
  -24.9790  -32.6679   25.3267 C   0  0  0  0  0  0  0  0  0  0  0  0
  -28.4391  -27.5529   25.0005 C   0  0  0  0  0  0  0  0  0  0  0  0
  -29.2714  -26.7027   15.9504 C   0  0  0  0  0  0  0  0  0  0  0  0
  -28.9396  -28.1898   15.8092 C   0  0  0  0  0  0  0  0  0  0  0  0
  -28.5911  -23.4412   20.1459 C   0  0  0  0  0  0  0  0  0  0  0  0
  -29.5512  -22.4019   19.5647 C   0  0  0  0  0  0  0  0  0  0  0  0
  -27.9826  -28.6993   16.8808 C   0  0  0  0  0  0  0  0  0  1  0  0
  -26.0610  -31.1993   23.5762 C   0  0  1  0  0  0  0  0  0  0  0  0
  -29.2441  -29.9104   25.1814 C   0  0  2  0  0  0  0  0  0  0  0  0
  -29.2781  -24.8013   20.5572 C   0  0  0  0  0  0  0  0  0  0  0  0
  -25.5366  -32.6296   23.8872 C   0  0  0  0  0  0  0  0  0  0  0  0
  -25.6812  -16.0185   19.4896 N   0  0  0  0  0  0  0  0  0  0  0  0
  -31.3090  -25.7162   19.6097 N   0  0  0  0  0  0  0  0  0  0  0  0
  -25.7929  -17.2808   19.9369 N   0  0  0  0  0  0  0  0  0  0  0  0
  -24.7359  -29.4510   22.4311 N   0  0  0  0  0  0  0  0  0  0  0  0
  -27.6435  -19.7883   17.7241 N   0  0  0  0  0  0  0  0  0  0  0  0
  -25.7926  -18.5929   21.9090 N   0  0  0  0  0  0  0  0  0  0  0  0
  -25.1848  -14.3923   23.4522 N   0  0  0  0  0  0  0  0  0  0  0  0
  -21.3678  -29.5892   22.5087 N   0  0  0  0  0  0  0  0  0  0  0  0
  -27.0989  -30.7319   24.4887 N   0  0  0  0  0  0  0  0  0  0  0  0
  -28.8468  -21.1937   19.1973 N   0  0  0  0  0  0  0  0  0  0  0  0
  -29.6055  -28.4724   25.0313 N   0  3  0  0  0  0  0  0  0  0  0  0
  -25.3757  -16.5929   24.0684 O   0  0  0  0  0  0  0  0  0  0  0  0
  -22.6121  -29.7850   20.5502 O   0  0  0  0  0  0  0  0  0  0  0  0
  -24.3383  -29.9859   24.6654 O   0  0  0  0  0  0  0  0  0  0  0  0
  -28.7141  -30.3591   22.8673 O   0  0  0  0  0  0  0  0  0  0  0  0
  -28.3987  -21.8763   17.0549 O   0  0  0  0  0  0  0  0  0  0  0  0
  -24.8890   -9.7617   20.3693 O   0  0  0  0  0  0  0  0  0  0  0  0
  -26.7685  -27.9535   16.8027 O   0  0  0  0  0  0  0  0  0  1  0  0
  -20.9093   -7.4916   23.4373 F   0  0  0  0  0  0  0  0  0  0  0  0
  -22.8428   -8.3190   19.1968 F   0  0  0  0  0  0  0  0  0  0  0  0
  1  2  1  0  0  0  0
  1  5  2  0  0  0  0
  2  6  2  0  0  0  0
  3  8  2  0  0  0  0
  3 16  1  0  0  0  0
  4  9  1  0  0  0  0
  4 16  2  0  0  0  0
  5 18  1  0  0  0  0
  6 20  1  0  0  0  0
  7 10  2  0  0  0  0
  7 19  1  0  0  0  0
  8 24  1  0  0  0  0
  9 24  2  0  0  0  0
 10 25  1  0  0  0  0
 11 12  2  0  0  0  0
 11 26  1  0  0  0  0
 12 27  1  0  0  0  0
 13 21  1  0  0  0  0
 13 25  2  0  0  0  0
 14 22  1  0  0  0  0
 14 30  2  0  0  0  0
 15 27  2  0  0  0  0
 15 28  1  0  0  0  0
 16 29  1  0  0  0  0
 17 29  1  0  0  0  0
 17 32  2  0  0  0  0
 17 33  1  0  0  0  0
 18 20  2  0  0  0  0
 18 38  1  0  0  0  0
 19 21  2  0  0  0  0
 19 39  1  0  0  0  0
 20 47  1  0  0  0  0
 21 40  1  0  0  0  0
 22 23  2  0  0  0  0
 22 59  1  0  0  0  0
 23 31  1  0  0  0  0
 23 50  1  0  0  0  0
 24 84  1  0  0  0  0
 25 85  1  0  0  0  0
 26 28  2  0  0  0  0
 26 84  1  0  0  0  0
 27 86  1  0  0  0  0
 28 87  1  0  0  0  0
 29 68  2  0  0  0  0
 30 66  1  0  0  0  0
 30 69  1  0  0  0  0
 31 51  1  0  0  0  0
 31 69  2  0  0  0  0
 32 70  1  0  0  0  0
 32 73  1  0  0  0  0
 33 74  1  0  0  0  0
 33 79  2  0  0  0  0
 34 48  1  0  0  0  0
 34 75  1  0  0  0  0
 34 80  2  0  0  0  0
 35 64  1  0  0  0  0
 35 71  1  0  0  0  0
 35 81  2  0  0  0  0
 36 65  1  0  0  0  0
 36 76  1  0  0  0  0
 36 82  2  0  0  0  0
 37 72  1  0  0  0  0
 37 77  1  0  0  0  0
 37 83  2  0  0  0  0
 38 41  1  0  0  0  0
 39 48  1  0  0  0  0
 40 71  1  0  0  0  0
 41 43  1  0  0  0  0
 42 44  1  0  0  0  0
 42 45  1  0  0  0  0
 43 47  1  0  0  0  0
 44 49  1  0  0  0  0
 45 72  1  0  0  0  0
 46 49  1  0  0  0  0
 46 72  1  0  0  0  0
 47 75  1  0  0  0  0
 48 71  1  0  0  0  0
 49 70  1  0  0  0  0
 52 65  1  0  0  0  0
 53 66  1  0  0  0  0
 54 66  1  0  0  0  0
 55 67  1  0  0  0  0
 56 67  1  0  0  0  0
 57 67  1  0  0  0  0
 58 78  1  0  0  0  0
 59 60  1  0  0  0  0
 60 63  1  0  0  0  0
 61 62  1  0  0  0  0
 61 66  1  0  0  0  0
 62 77  1  0  0  0  0
 63 85  1  0  0  0  0
 64 67  1  0  0  0  0
 64 76  1  0  0  0  0
 65 78  1  0  0  0  0
 68 70  1  0  0  0  0
M  CHG  1  78   1
M  ISO  4  37 100  63 101  77 100  85 101
M  END
> <Batch ID>
0080

> <Smiles>
CNC(C)C(=O)NC(C(=O)N1Cc2cc([101O:1][101CH2:1]CCc3cc(C(C)(C)CC[100NH:0][100C:0](=O)N4CCCC(n5nc(-c6ccc(Oc7ccc(F)cc7F)cc6)c(C(N)=O)c5N)C4)nc(C)c3C)ccc2CC1C(=O)NC1CCCc2ccccc21)C(C)(C)C

> <Shape>
0.290

> <Color>
0.084

> <Negative vol penalty>
0.000

$$$$

  -OEChem-04052318443D

 83 91  0     1  0  0  0  0  0999 V2000
  -26.8894  -26.9111    9.8257 C   0  0  0  0  0  0  0  0  0  0  0  0
  -27.3182  -25.9612   10.7472 C   0  0  0  0  0  0  0  0  0  0  0  0
  -23.0741   -9.8714   19.9413 C   0  0  0  0  0  0  0  0  0  0  0  0
  -23.8384   -9.8759   22.2332 C   0  0  0  0  0  0  0  0  0  0  0  0
  -26.5454  -28.1921   10.2555 C   0  0  0  0  0  0  0  0  0  0  0  0
  -27.4043  -26.2920   12.0991 C   0  0  0  0  0  0  0  0  0  0  0  0
  -25.4778  -22.7003   15.1046 C   0  0  0  0  0  0  0  0  0  0  0  0
  -22.3308   -8.7179   20.1914 C   0  0  0  0  0  0  0  0  0  0  0  0
  -23.0951   -8.7224   22.4833 C   0  0  0  0  0  0  0  0  0  0  0  0
  -26.2664  -21.5744   15.3374 C   0  0  0  0  0  0  0  0  0  0  0  0
  -21.1131   -5.9835   23.8206 C   0  0  0  0  0  0  0  0  0  0  0  0
  -20.3590   -5.9385   24.9932 C   0  0  0  0  0  0  0  0  0  0  0  0
  -26.9272  -22.4858   17.4709 C   0  0  0  0  0  0  0  0  0  0  0  0
  -19.1128   -7.8764   24.2662 C   0  0  0  0  0  0  0  0  0  0  0  0
  -27.0538  -18.8109   20.0477 C   0  0  0  0  0  0  0  0  0  0  0  0
  -23.8279  -10.4504   20.9622 C   0  0  0  0  0  0  0  0  0  0  0  0
  -24.1692  -12.9758   20.8444 C   0  0  0  0  0  0  0  0  0  0  0  0
  -26.6181  -28.5359   11.6146 C   0  0  0  0  0  0  0  0  0  0  0  0
  -25.4165  -23.7342   16.0500 C   0  0  0  0  0  0  0  0  0  0  0  0
  -27.0622  -27.5792   12.5473 C   0  0  0  0  0  0  0  0  0  0  0  0
  -26.1351  -23.6226   17.2488 C   0  0  0  0  0  0  0  0  0  0  0  0
  -22.3413   -8.1434   21.4624 C   0  0  0  0  0  0  0  0  0  0  0  0
  -26.9935  -21.4683   16.5194 C   0  0  0  0  0  0  0  0  0  0  0  0
  -20.8670   -6.9750   22.8708 C   0  0  0  0  0  0  0  0  0  0  0  0
  -19.3589   -6.8849   25.2160 C   0  0  0  0  0  0  0  0  0  0  0  0
  -19.8669   -7.9214   23.0936 C   0  0  0  0  0  0  0  0  0  0  0  0
  -24.5963  -11.6417   20.7044 C   0  0  0  0  0  0  0  0  0  0  0  0
  -27.0334  -19.0189   21.3980 C   0  0  0  0  0  0  0  0  0  0  0  0
  -25.2605  -13.7258   20.4799 C   0  0  0  0  0  0  0  0  0  0  0  0
  -29.0837  -18.4055   20.8321 C   0  0  0  0  0  0  0  0  0  0  0  0
  -22.8994  -13.4909   21.2664 C   0  0  0  0  0  0  0  0  0  0  0  0
  -26.1916  -26.8168   16.0564 C   0  0  0  0  0  0  0  0  0  0  0  0
  -24.8066  -26.7587   18.9891 C   0  0  0  0  0  0  0  0  0  0  0  0
  -23.8920  -24.9360   21.7256 C   0  0  0  0  0  0  0  0  0  0  0  0
  -30.7445  -14.7454   20.6590 C   0  0  0  0  0  0  0  0  0  0  0  0
  -26.2810  -29.9474   12.0254 C   0  0  0  0  0  0  0  0  0  0  0  0
  -24.5401  -24.9299   15.7957 C   0  0  0  0  0  0  0  0  0  0  0  0
  -26.0874  -24.6955   18.3048 C   0  0  0  0  0  0  0  0  0  0  0  0
  -26.0420  -30.1048   13.5248 C   0  0  0  0  0  0  0  0  0  0  0  0
  -29.6026  -12.3634   18.2717 C   0  0  0  0  0  0  0  0  0  0  0  0
  -27.1373  -29.3980   14.3171 C   0  0  0  0  0  0  0  0  0  0  0  0
  -28.1660  -12.0690   18.7070 C   0  0  0  0  0  0  0  0  0  0  0  0
  -30.5220  -12.5830   19.4710 C   0  0  0  0  0  0  0  0  0  0  0  0
  -28.6228  -13.3122   20.8621 C   0  0  0  0  0  0  0  0  0  0  0  0
  -27.1451  -27.8926   14.0255 C   0  0  1  0  0  0  0  0  0  0  0  0
  -24.9559  -26.1574   16.6004 C   0  0  1  0  0  0  0  0  0  0  0  0
  -27.6464  -13.1389   19.6861 C   0  0  2  0  0  0  0  0  0  0  0  0
  -25.9533  -19.4324   22.2975 C   0  0  0  0  0  0  0  0  0  0  0  0
  -22.8123  -25.1720   23.9786 C   0  0  0  0  0  0  0  0  0  0  0  0
  -29.8218  -21.5977   16.8969 C   0  0  0  0  0  0  0  0  0  0  0  0
  -27.3743  -27.9869   20.0882 C   0  0  0  0  0  0  0  0  0  0  0  0
  -26.6261  -27.3246   22.3838 C   0  0  0  0  0  0  0  0  0  0  0  0
  -25.2694  -28.9366   21.0484 C   0  0  0  0  0  0  0  0  0  0  0  0
  -21.6889  -23.1016   20.9907 C   0  0  0  0  0  0  0  0  0  0  0  0
  -30.5214  -18.0495   20.9278 C   0  0  0  0  0  0  0  0  0  0  0  0
  -29.6609  -19.2109   17.6916 C   0  0  0  0  0  0  0  0  0  0  0  0
  -28.8167  -18.1014   18.3352 C   0  0  0  0  0  0  0  0  0  0  0  0
  -30.8124  -16.8945   21.8982 C   0  0  0  0  0  0  0  0  0  0  0  0
  -25.2900  -26.4944   20.3946 C   0  0  1  0  0  0  0  0  0  0  0  0
  -22.5904  -24.8722   22.5043 C   0  0  2  0  0  0  0  0  0  0  0  0
  -28.9294  -20.5518   17.5530 C   0  0  2  0  0  0  0  0  0  1  0  0
  -26.1426  -27.6661   20.9582 C   0  0  0  0  0  0  0  0  0  0  0  0
  -25.8604  -11.5465   20.2836 N   0  0  0  0  0  0  0  0  0  0  0  0
  -28.3348  -18.4328   19.7249 N   0  0  0  0  0  0  0  0  0  0  0  0
  -26.2369  -12.8303   20.1560 N   0  0  0  0  0  0  0  0  0  0  0  0
  -28.3024  -18.7604   21.8572 N   0  3  0  0  0  0  0  0  0  0  0  0
  -25.2211  -25.8480   18.0069 N   0  0  0  0  0  0  0  0  0  0  0  0
  -29.9730  -13.6104   20.3592 N   0  0  0  0  0  0  0  0  0  0  0  0
  -25.4706  -15.0574   20.4080 N   0  0  0  0  0  0  0  0  0  0  0  0
  -21.8883  -12.5812   21.6045 N   0  0  0  0  0  0  0  0  0  0  0  0
  -26.0757  -27.2331   14.7439 N   0  0  0  0  0  0  0  0  0  0  0  0
  -24.1021  -26.1864   21.1837 N   0  0  0  0  0  0  0  0  0  0  0  0
  -30.1468  -15.6732   21.5032 N   0  0  0  0  0  0  0  0  0  0  0  0
  -21.9824  -23.5167   22.3866 N   0  3  0  0  0  0  0  0  0  0  0  0
  -22.6631  -14.7214   21.3256 O   0  0  0  0  0  0  0  0  0  0  0  0
  -27.1767  -26.9402   16.7748 O   0  0  0  0  0  0  0  0  0  0  0  0
  -24.0819  -27.7330   18.7720 O   0  0  0  0  0  0  0  0  0  0  0  0
  -24.6485  -23.9740   21.6127 O   0  0  0  0  0  0  0  0  0  0  0  0
  -31.8795  -14.9215   20.2034 O   0  0  0  0  0  0  0  0  0  0  0  0
  -21.6160   -7.0179   21.7068 O   0  0  0  0  0  0  0  0  0  0  0  0
  -27.7646  -20.3707   16.7488 O   0  0  0  0  0  0  0  0  0  1  0  0
  -18.6339   -6.8406   26.3414 F   0  0  0  0  0  0  0  0  0  0  0  0
  -19.6251   -8.8756   22.1843 F   0  0  0  0  0  0  0  0  0  0  0  0
  1  2  1  0  0  0  0
  1  5  2  0  0  0  0
  2  6  2  0  0  0  0
  3  8  2  0  0  0  0
  3 16  1  0  0  0  0
  4  9  1  0  0  0  0
  4 16  2  0  0  0  0
  5 18  1  0  0  0  0
  6 20  1  0  0  0  0
  7 10  2  0  0  0  0
  7 19  1  0  0  0  0
  8 22  1  0  0  0  0
  9 22  2  0  0  0  0
 10 23  1  0  0  0  0
 11 12  2  0  0  0  0
 11 24  1  0  0  0  0
 12 25  1  0  0  0  0
 13 21  1  0  0  0  0
 13 23  2  0  0  0  0
 14 25  2  0  0  0  0
 14 26  1  0  0  0  0
 15 28  2  0  0  0  0
 15 64  1  0  0  0  0
 16 27  1  0  0  0  0
 17 27  1  0  0  0  0
 17 29  2  0  0  0  0
 17 31  1  0  0  0  0
 18 20  2  0  0  0  0
 18 36  1  0  0  0  0
 19 21  2  0  0  0  0
 19 37  1  0  0  0  0
 20 45  1  0  0  0  0
 21 38  1  0  0  0  0
 22 80  1  0  0  0  0
 23 81  1  0  0  0  0
 24 26  2  0  0  0  0
 24 80  1  0  0  0  0
 25 82  1  0  0  0  0
 26 83  1  0  0  0  0
 27 63  2  0  0  0  0
 28 48  1  0  0  0  0
 28 66  1  0  0  0  0
 29 65  1  0  0  0  0
 29 69  1  0  0  0  0
 30 55  1  0  0  0  0
 30 64  1  0  0  0  0
 30 66  2  0  0  0  0
 31 70  1  0  0  0  0
 31 75  2  0  0  0  0
 32 46  1  0  0  0  0
 32 71  1  0  0  0  0
 32 76  2  0  0  0  0
 33 59  1  0  0  0  0
 33 67  1  0  0  0  0
 33 77  2  0  0  0  0
 34 60  1  0  0  0  0
 34 72  1  0  0  0  0
 34 78  2  0  0  0  0
 35 68  1  0  0  0  0
 35 73  1  0  0  0  0
 35 79  2  0  0  0  0
 36 39  1  0  0  0  0
 37 46  1  0  0  0  0
 38 67  1  0  0  0  0
 39 41  1  0  0  0  0
 40 42  1  0  0  0  0
 40 43  1  0  0  0  0
 41 45  1  0  0  0  0
 42 47  1  0  0  0  0
 43 68  1  0  0  0  0
 44 47  1  0  0  0  0
 44 68  1  0  0  0  0
 45 71  1  0  0  0  0
 46 67  1  0  0  0  0
 47 65  1  0  0  0  0
 49 60  1  0  0  0  0
 50 61  1  0  0  0  0
 51 62  1  0  0  0  0
 52 62  1  0  0  0  0
 53 62  1  0  0  0  0
 54 74  1  0  0  0  0
 55 58  1  0  0  0  0
 56 57  1  0  0  0  0
 56 61  1  0  0  0  0
 57 64  1  0  0  0  0
 58 73  1  0  0  0  0
 59 62  1  0  0  0  0
 59 72  1  0  0  0  0
 60 74  1  0  0  0  0
 61 81  1  0  0  0  0
 63 65  1  0  0  0  0
M  CHG  2  66   1  74   1
M  ISO  4  35 100  61 101  73 100  81 101
M  END
> <Batch ID>
0080

> <Smiles>
CNC(C)C(=O)NC(C(=O)N1Cc2cc([101O:1][101CH:1](C)CCn3cc(C)nc3CC[100NH:0][100C:0](=O)N3CCCC(n4nc(-c5ccc(Oc6ccc(F)cc6F)cc5)c(C(N)=O)c4N)C3)ccc2CC1C(=O)NC1CCCc2ccccc21)C(C)(C)C

> <Shape>
0.232

> <Color>
0.191

> <Negative vol penalty>
0.000

$$$$

  -OEChem-04052318443D

 84 92  0     1  0  0  0  0  0999 V2000
  -17.6772  -26.8280   22.1422 C   0  0  0  0  0  0  0  0  0  0  0  0
  -18.6746  -26.7075   21.1798 C   0  0  0  0  0  0  0  0  0  0  0  0
  -24.4012  -14.1109   21.1856 C   0  0  0  0  0  0  0  0  0  0  0  0
  -26.6461  -13.8340   20.3366 C   0  0  0  0  0  0  0  0  0  0  0  0
  -17.8657  -27.6688   23.2383 C   0  0  0  0  0  0  0  0  0  0  0  0
  -19.8606  -27.4288   21.3124 C   0  0  0  0  0  0  0  0  0  0  0  0
  -25.4709  -25.6274   19.6433 C   0  0  0  0  0  0  0  0  0  0  0  0
  -24.0716  -12.8342   20.7307 C   0  0  0  0  0  0  0  0  0  0  0  0
  -26.3166  -12.5572   19.8817 C   0  0  0  0  0  0  0  0  0  0  0  0
  -26.2438  -25.8923   18.5136 C   0  0  0  0  0  0  0  0  0  0  0  0
  -24.5367   -9.6372   21.7285 C   0  0  0  0  0  0  0  0  0  0  0  0
  -23.8222   -8.8061   22.5912 C   0  0  0  0  0  0  0  0  0  0  0  0
  -27.3650  -27.6657   19.7040 C   0  0  0  0  0  0  0  0  0  0  0  0
  -22.0285   -8.6739   20.9781 C   0  0  0  0  0  0  0  0  0  0  0  0
  -25.6885  -14.6109   20.9885 C   0  0  0  0  0  0  0  0  0  0  0  0
  -26.5494  -16.2753   22.7194 C   0  0  0  0  0  0  0  0  0  0  0  0
  -19.0586  -28.3933   23.3894 C   0  0  0  0  0  0  0  0  0  0  0  0
  -25.6320  -26.3881   20.8103 C   0  0  0  0  0  0  0  0  0  0  0  0
  -20.0647  -28.2811   22.4108 C   0  0  0  0  0  0  0  0  0  0  0  0
  -26.5947  -27.4068   20.8480 C   0  0  0  0  0  0  0  0  0  0  0  0
  -25.0293  -12.0573   20.0788 C   0  0  0  0  0  0  0  0  0  0  0  0
  -27.1890  -26.9135   18.5429 C   0  0  0  0  0  0  0  0  0  0  0  0
  -23.9971   -9.9868   20.4906 C   0  0  0  0  0  0  0  0  0  0  0  0
  -22.5681   -8.3244   22.2160 C   0  0  0  0  0  0  0  0  0  0  0  0
  -22.7430   -9.5051   20.1154 C   0  0  0  0  0  0  0  0  0  0  0  0
  -26.0294  -15.9299   21.4576 C   0  0  0  0  0  0  0  0  0  0  0  0
  -31.3538  -23.8002   19.2370 C   0  0  0  0  0  0  0  0  0  0  0  0
  -31.0486  -25.1245   19.0470 C   0  0  0  0  0  0  0  0  0  0  0  0
  -26.6989  -17.6396   22.6674 C   0  0  0  0  0  0  0  0  0  0  0  0
  -26.8687  -15.4378   23.8385 C   0  0  0  0  0  0  0  0  0  0  0  0
  -23.7582  -28.3129   22.5097 C   0  0  0  0  0  0  0  0  0  0  0  0
  -26.2831  -28.3318   24.5460 C   0  0  0  0  0  0  0  0  0  0  0  0
  -29.6396  -27.9173   25.0032 C   0  0  0  0  0  0  0  0  0  0  0  0
  -28.3052  -22.2605   19.9817 C   0  0  0  0  0  0  0  0  0  0  0  0
  -19.1974  -29.3258   24.5666 C   0  0  0  0  0  0  0  0  0  0  0  0
  -24.8091  -26.0723   22.0291 C   0  0  0  0  0  0  0  0  0  0  0  0
  -26.8207  -28.2391   22.0827 C   0  0  0  0  0  0  0  0  0  0  0  0
  -20.6351  -29.7680   24.8271 C   0  0  0  0  0  0  0  0  0  0  0  0
  -25.0504  -21.0051   19.2699 C   0  0  0  0  0  0  0  0  0  0  0  0
  -21.3066  -30.1944   23.5255 C   0  0  0  0  0  0  0  0  0  0  0  0
  -25.0602  -19.5997   19.8740 C   0  0  0  0  0  0  0  0  0  0  0  0
  -26.4049  -21.3693   18.6660 C   0  0  0  0  0  0  0  0  0  0  0  0
  -27.5618  -19.8104   20.1844 C   0  0  0  0  0  0  0  0  0  0  0  0
  -21.3752  -29.0281   22.5323 C   0  0  1  0  0  0  0  0  0  0  0  0
  -24.6986  -27.2469   22.9963 C   0  0  1  0  0  0  0  0  0  0  0  0
  -26.2339  -19.4194   20.8553 C   0  0  2  0  0  0  0  0  0  0  0  0
  -30.7941  -26.2325   19.9814 C   0  0  0  0  0  0  0  0  0  0  0  0
  -31.4164  -28.0365   26.7713 C   0  0  0  0  0  0  0  0  0  0  0  0
  -32.6674  -23.5684   21.4545 C   0  0  0  0  0  0  0  0  0  0  0  0
  -31.9088  -21.5570   20.2157 C   0  0  0  0  0  0  0  0  0  0  0  0
  -26.2069  -31.3792   24.4138 C   0  0  0  0  0  0  0  0  0  0  0  0
  -28.5131  -31.4097   25.3878 C   0  0  0  0  0  0  0  0  0  0  0  0
  -26.6212  -30.4442   26.6959 C   0  0  0  0  0  0  0  0  0  0  0  0
  -30.3299  -25.0592   24.6663 C   0  0  0  0  0  0  0  0  0  0  0  0
  -29.5734  -26.3297   15.8960 C   0  0  0  0  0  0  0  0  0  0  0  0
  -30.7331  -26.4924   16.8810 C   0  0  0  0  0  0  0  0  0  0  0  0
  -30.2173  -23.0088   21.3756 C   0  0  0  0  0  0  0  0  0  0  0  0
  -28.2334  -26.0766   16.5770 C   0  0  0  0  0  0  0  0  0  1  0  0
  -27.5238  -29.1774   24.7028 C   0  0  1  0  0  0  0  0  0  0  0  0
  -30.4261  -27.1406   26.0437 C   0  0  2  0  0  0  0  0  0  0  0  0
  -31.5261  -23.0563   20.4921 C   0  0  0  0  0  0  0  0  0  0  0  0
  -27.2109  -30.5884   25.2760 C   0  0  0  0  0  0  0  0  0  0  0  0
  -25.8598  -16.9893   20.6622 N   0  0  0  0  0  0  0  0  0  0  0  0
  -31.4946  -23.1828   18.0252 N   0  0  0  0  0  0  0  0  0  0  0  0
  -31.2855  -24.0904   17.0778 N   0  0  0  0  0  0  0  0  0  0  0  0
  -31.0184  -25.2540   17.6926 N   0  0  0  0  0  0  0  0  0  0  0  0
  -26.2756  -18.0139   21.4261 N   0  0  0  0  0  0  0  0  0  0  0  0
  -25.9871  -27.8960   23.2467 N   0  0  0  0  0  0  0  0  0  0  0  0
  -27.4747  -21.1778   19.6483 N   0  0  0  0  0  0  0  0  0  0  0  0
  -27.1498  -18.5436   23.5628 N   0  0  0  0  0  0  0  0  0  0  0  0
  -26.6539  -14.0576   23.7229 N   0  0  0  0  0  0  0  0  0  0  0  0
  -22.4440  -28.1208   22.8911 N   0  0  0  0  0  0  0  0  0  0  0  0
  -28.4511  -28.3953   25.5134 N   0  0  0  0  0  0  0  0  0  0  0  0
  -29.2897  -21.9950   20.9256 N   0  0  0  0  0  0  0  0  0  0  0  0
  -31.1827  -26.0304   25.3987 N   0  3  0  0  0  0  0  0  0  0  0  0
  -27.3155  -15.9015   24.9150 O   0  0  0  0  0  0  0  0  0  0  0  0
  -24.1930  -29.2419   21.8390 O   0  0  0  0  0  0  0  0  0  0  0  0
  -25.6056  -28.0619   25.5409 O   0  0  0  0  0  0  0  0  0  0  0  0
  -30.0412  -28.0865   23.8541 O   0  0  0  0  0  0  0  0  0  0  0  0
  -28.1753  -23.3821   19.4795 O   0  0  0  0  0  0  0  0  0  0  0  0
  -24.7081  -10.8114   19.6350 O   0  0  0  0  0  0  0  0  0  0  0  0
  -27.9442  -27.1746   17.4414 O   0  0  0  0  0  0  0  0  0  1  0  0
  -21.8827   -7.5250   23.0439 F   0  0  0  0  0  0  0  0  0  0  0  0
  -22.2200   -9.8364   18.9270 F   0  0  0  0  0  0  0  0  0  0  0  0
  1  2  1  0  0  0  0
  1  5  2  0  0  0  0
  2  6  2  0  0  0  0
  3  8  2  0  0  0  0
  3 15  1  0  0  0  0
  4  9  1  0  0  0  0
  4 15  2  0  0  0  0
  5 17  1  0  0  0  0
  6 19  1  0  0  0  0
  7 10  2  0  0  0  0
  7 18  1  0  0  0  0
  8 21  1  0  0  0  0
  9 21  2  0  0  0  0
 10 22  1  0  0  0  0
 11 12  2  0  0  0  0
 11 23  1  0  0  0  0
 12 24  1  0  0  0  0
 13 20  1  0  0  0  0
 13 22  2  0  0  0  0
 14 24  2  0  0  0  0
 14 25  1  0  0  0  0
 15 26  1  0  0  0  0
 16 26  1  0  0  0  0
 16 29  2  0  0  0  0
 16 30  1  0  0  0  0
 17 19  2  0  0  0  0
 17 35  1  0  0  0  0
 18 20  2  0  0  0  0
 18 36  1  0  0  0  0
 19 44  1  0  0  0  0
 20 37  1  0  0  0  0
 21 81  1  0  0  0  0
 22 82  1  0  0  0  0
 23 25  2  0  0  0  0
 23 81  1  0  0  0  0
 24 83  1  0  0  0  0
 25 84  1  0  0  0  0
 26 63  2  0  0  0  0
 27 28  2  0  0  0  0
 27 61  1  0  0  0  0
 27 64  1  0  0  0  0
 28 47  1  0  0  0  0
 28 66  1  0  0  0  0
 29 67  1  0  0  0  0
 29 70  1  0  0  0  0
 30 71  1  0  0  0  0
 30 76  2  0  0  0  0
 31 45  1  0  0  0  0
 31 72  1  0  0  0  0
 31 77  2  0  0  0  0
 32 59  1  0  0  0  0
 32 68  1  0  0  0  0
 32 78  2  0  0  0  0
 33 60  1  0  0  0  0
 33 73  1  0  0  0  0
 33 79  2  0  0  0  0
 34 69  1  0  0  0  0
 34 74  1  0  0  0  0
 34 80  2  0  0  0  0
 35 38  1  0  0  0  0
 36 45  1  0  0  0  0
 37 68  1  0  0  0  0
 38 40  1  0  0  0  0
 39 41  1  0  0  0  0
 39 42  1  0  0  0  0
 40 44  1  0  0  0  0
 41 46  1  0  0  0  0
 42 69  1  0  0  0  0
 43 46  1  0  0  0  0
 43 69  1  0  0  0  0
 44 72  1  0  0  0  0
 45 68  1  0  0  0  0
 46 67  1  0  0  0  0
 48 60  1  0  0  0  0
 49 61  1  0  0  0  0
 50 61  1  0  0  0  0
 51 62  1  0  0  0  0
 52 62  1  0  0  0  0
 53 62  1  0  0  0  0
 54 75  1  0  0  0  0
 55 56  1  0  0  0  0
 55 58  1  0  0  0  0
 56 66  1  0  0  0  0
 57 61  1  0  0  0  0
 57 74  1  0  0  0  0
 58 82  1  0  0  0  0
 59 62  1  0  0  0  0
 59 73  1  0  0  0  0
 60 75  1  0  0  0  0
 63 67  1  0  0  0  0
 64 65  2  0  0  0  0
 65 66  1  0  0  0  0
M  CHG  1  75   1
M  ISO  4  34 100  58 101  74 100  82 101
M  END
> <Batch ID>
0080

> <Smiles>
CNC(C)C(=O)NC(C(=O)N1Cc2cc([101O:1][101CH2:1]CCn3nnc(C(C)(C)C[100NH:0][100C:0](=O)N4CCCC(n5nc(-c6ccc(Oc7ccc(F)cc7F)cc6)c(C(N)=O)c5N)C4)c3C)ccc2CC1C(=O)NC1CCCc2ccccc21)C(C)(C)C

> <Shape>
0.271

> <Color>
0.064

> <Negative vol penalty>
0.000

$$$$

  -OEChem-04052318443D

 86 94  0     1  0  0  0  0  0999 V2000
  -17.0122  -28.7330   24.3865 C   0  0  0  0  0  0  0  0  0  0  0  0
  -17.5181  -27.6645   23.6531 C   0  0  0  0  0  0  0  0  0  0  0  0
  -26.0205  -11.7626   21.0024 C   0  0  0  0  0  0  0  0  0  0  0  0
  -25.2340  -13.8726   20.1270 C   0  0  0  0  0  0  0  0  0  0  0  0
  -17.5486  -30.0088   24.2179 C   0  0  0  0  0  0  0  0  0  0  0  0
  -18.5600  -27.8715   22.7497 C   0  0  0  0  0  0  0  0  0  0  0  0
  -23.1093  -23.9915   21.4248 C   0  0  0  0  0  0  0  0  0  0  0  0
  -24.7178  -11.4318   21.3755 C   0  0  0  0  0  0  0  0  0  0  0  0
  -23.9313  -13.5418   20.5000 C   0  0  0  0  0  0  0  0  0  0  0  0
  -23.2992  -23.0915   20.3772 C   0  0  0  0  0  0  0  0  0  0  0  0
  -22.5775  -12.1848   23.8808 C   0  0  0  0  0  0  0  0  0  0  0  0
  -22.3862  -11.6409   25.1509 C   0  0  0  0  0  0  0  0  0  0  0  0
  -24.6097  -24.7426   19.2043 C   0  0  0  0  0  0  0  0  0  0  0  0
  -21.4613   -9.6429   24.1561 C   0  0  0  0  0  0  0  0  0  0  0  0
  -27.4568  -20.3144   18.3535 C   0  0  0  0  0  0  0  0  0  0  0  0
  -26.2786  -12.9831   20.3782 C   0  0  0  0  0  0  0  0  0  0  0  0
  -28.2528  -13.0503   18.7640 C   0  0  0  0  0  0  0  0  0  0  0  0
  -18.6041  -30.2298   23.3191 C   0  0  0  0  0  0  0  0  0  0  0  0
  -23.6599  -25.2798   21.3651 C   0  0  0  0  0  0  0  0  0  0  0  0
  -19.1101  -29.1518   22.5680 C   0  0  0  0  0  0  0  0  0  0  0  0
  -24.4274  -25.6562   20.2536 C   0  0  0  0  0  0  0  0  0  0  0  0
  -23.6732  -12.3214   21.1243 C   0  0  0  0  0  0  0  0  0  0  0  0
  -24.0471  -23.4679   19.2654 C   0  0  0  0  0  0  0  0  0  0  0  0
  -22.2106  -11.4577   22.7483 C   0  0  0  0  0  0  0  0  0  0  0  0
  -21.8282  -10.3700   25.2886 C   0  0  0  0  0  0  0  0  0  0  0  0
  -21.6526  -10.1868   22.8859 C   0  0  0  0  0  0  0  0  0  0  0  0
  -27.6241  -13.3257   19.9932 C   0  0  0  0  0  0  0  0  0  0  0  0
  -26.5299  -20.9150   17.5263 C   0  0  0  0  0  0  0  0  0  0  0  0
  -28.7427  -20.8076   18.2668 C   0  0  0  0  0  0  0  0  0  0  0  0
  -29.5142  -13.5770   18.8979 C   0  0  0  0  0  0  0  0  0  0  0  0
  -28.1125  -22.3127   16.6842 C   0  0  0  0  0  0  0  0  0  0  0  0
  -27.7422  -12.3785   17.6049 C   0  0  0  0  0  0  0  0  0  0  0  0
  -22.4722  -28.2281   21.3448 C   0  0  0  0  0  0  0  0  0  0  0  0
  -25.6000  -29.0707   21.5164 C   0  0  0  0  0  0  0  0  0  0  0  0
  -28.8600  -28.2398   20.9430 C   0  0  0  0  0  0  0  0  0  0  0  0
  -31.7652  -17.9508   22.3117 C   0  0  0  0  0  0  0  0  0  0  0  0
  -19.1196  -31.6353   23.1363 C   0  0  0  0  0  0  0  0  0  0  0  0
  -23.4682  -26.2297   22.5154 C   0  0  0  0  0  0  0  0  0  0  0  0
  -25.0569  -27.0206   20.1499 C   0  0  0  0  0  0  0  0  0  0  0  0
  -20.4733  -31.7009   22.4338 C   0  0  0  0  0  0  0  0  0  0  0  0
  -32.8318  -14.5557   22.2035 C   0  0  0  0  0  0  0  0  0  0  0  0
  -20.4815  -30.7971   21.2050 C   0  0  0  0  0  0  0  0  0  0  0  0
  -31.6748  -13.8306   21.5138 C   0  0  0  0  0  0  0  0  0  0  0  0
  -32.3334  -15.6767   23.1128 C   0  0  0  0  0  0  0  0  0  0  0  0
  -30.2808  -15.9256   21.7716 C   0  0  0  0  0  0  0  0  0  0  0  0
  -20.2564  -29.3317   21.5965 C   0  0  1  0  0  0  0  0  0  0  0  0
  -23.6437  -27.6922   22.1182 C   0  0  1  0  0  0  0  0  0  0  0  0
  -30.7366  -14.8229   20.8008 C   0  0  2  0  0  0  0  0  0  0  0  0
  -28.4765  -23.4250   15.7600 C   0  0  0  0  0  0  0  0  0  0  0  0
  -31.1691  -20.1294   18.3706 C   0  0  0  0  0  0  0  0  0  0  0  0
  -31.1902  -29.1477   21.1512 C   0  0  0  0  0  0  0  0  0  0  0  0
  -25.1320  -30.8271   19.0657 C   0  0  0  0  0  0  0  0  0  0  0  0
  -27.6143  -30.9406   18.7595 C   0  0  0  0  0  0  0  0  0  0  0  0
  -26.5714  -31.8607   20.8304 C   0  0  0  0  0  0  0  0  0  0  0  0
  -30.3342  -22.3589   20.5201 C   0  0  0  0  0  0  0  0  0  0  0  0
  -28.6266  -20.7399   21.3465 C   0  0  0  0  0  0  0  0  0  0  0  0
  -29.6616  -26.0767   22.7969 C   0  0  0  0  0  0  0  0  0  0  0  0
  -25.0960  -20.4442   17.5503 C   0  0  0  0  0  0  0  0  0  0  0  0
  -31.0715  -20.1631   21.4263 C   0  0  0  0  0  0  0  0  0  0  0  0
  -24.2535  -21.2031   18.5698 C   0  0  0  0  0  0  0  0  0  1  0  0
  -29.8139  -20.2219   19.1245 C   0  0  1  0  0  0  0  0  0  0  0  0
  -26.6873  -29.3557   20.5087 C   0  0  1  0  0  0  0  0  0  0  0  0
  -30.0936  -28.3356   21.8225 C   0  0  2  0  0  0  0  0  0  0  0  0
  -26.4879  -30.7209   19.7918 C   0  0  0  0  0  0  0  0  0  0  0  0
  -29.9665  -20.8597   20.5804 C   0  0  0  0  0  0  0  0  0  0  0  0
  -28.4205  -13.9766   20.8452 N   0  0  0  0  0  0  0  0  0  0  0  0
  -26.8242  -21.9205   16.6761 N   0  0  0  0  0  0  0  0  0  0  0  0
  -29.1071  -21.8095   17.4399 N   0  0  0  0  0  0  0  0  0  0  0  0
  -29.5626  -14.1146   20.1505 N   0  0  0  0  0  0  0  0  0  0  0  0
  -24.8355  -27.9159   21.2975 N   0  0  0  0  0  0  0  0  0  0  0  0
  -31.4502  -16.5834   22.3754 N   0  0  0  0  0  0  0  0  0  0  0  0
  -30.5756  -13.6280   18.0653 N   0  0  0  0  0  0  0  0  0  0  0  0
  -26.4253  -11.8997   17.6360 N   0  0  0  0  0  0  0  0  0  0  0  0
  -21.4718  -28.7602   22.1357 N   0  0  0  0  0  0  0  0  0  0  0  0
  -27.9513  -29.2371   21.2275 N   0  0  0  0  0  0  0  0  0  0  0  0
  -30.8791  -18.7391   21.5875 N   0  0  0  0  0  0  0  0  0  0  0  0
  -30.6280  -26.9755   22.1150 N   0  3  0  0  0  0  0  0  0  0  0  0
  -28.4386  -12.1934   16.5781 O   0  0  0  0  0  0  0  0  0  0  0  0
  -22.4763  -28.1650   20.1210 O   0  0  0  0  0  0  0  0  0  0  0  0
  -25.4396  -29.8404   22.4670 O   0  0  0  0  0  0  0  0  0  0  0  0
  -28.7184  -27.3697   20.0866 O   0  0  0  0  0  0  0  0  0  0  0  0
  -32.7650  -18.4326   22.8550 O   0  0  0  0  0  0  0  0  0  0  0  0
  -22.4019  -11.9988   21.4880 O   0  0  0  0  0  0  0  0  0  0  0  0
  -24.2335  -22.5915   18.2411 O   0  0  0  0  0  0  0  0  0  1  0  0
  -21.6460   -9.8472   26.5083 F   0  0  0  0  0  0  0  0  0  0  0  0
  -21.2993   -9.4831   21.8016 F   0  0  0  0  0  0  0  0  0  0  0  0
  1  2  1  0  0  0  0
  1  5  2  0  0  0  0
  2  6  2  0  0  0  0
  3  8  2  0  0  0  0
  3 16  1  0  0  0  0
  4  9  1  0  0  0  0
  4 16  2  0  0  0  0
  5 18  1  0  0  0  0
  6 20  1  0  0  0  0
  7 10  2  0  0  0  0
  7 19  1  0  0  0  0
  8 22  1  0  0  0  0
  9 22  2  0  0  0  0
 10 23  1  0  0  0  0
 11 12  2  0  0  0  0
 11 24  1  0  0  0  0
 12 25  1  0  0  0  0
 13 21  1  0  0  0  0
 13 23  2  0  0  0  0
 14 25  2  0  0  0  0
 14 26  1  0  0  0  0
 15 28  1  0  0  0  0
 15 29  2  0  0  0  0
 16 27  1  0  0  0  0
 17 27  1  0  0  0  0
 17 30  2  0  0  0  0
 17 32  1  0  0  0  0
 18 20  2  0  0  0  0
 18 37  1  0  0  0  0
 19 21  2  0  0  0  0
 19 38  1  0  0  0  0
 20 46  1  0  0  0  0
 21 39  1  0  0  0  0
 22 83  1  0  0  0  0
 23 84  1  0  0  0  0
 24 26  2  0  0  0  0
 24 83  1  0  0  0  0
 25 85  1  0  0  0  0
 26 86  1  0  0  0  0
 27 66  2  0  0  0  0
 28 58  1  0  0  0  0
 28 67  2  0  0  0  0
 29 61  1  0  0  0  0
 29 68  1  0  0  0  0
 30 69  1  0  0  0  0
 30 72  1  0  0  0  0
 31 49  1  0  0  0  0
 31 67  1  0  0  0  0
 31 68  2  0  0  0  0
 32 73  1  0  0  0  0
 32 78  2  0  0  0  0
 33 47  1  0  0  0  0
 33 74  1  0  0  0  0
 33 79  2  0  0  0  0
 34 62  1  0  0  0  0
 34 70  1  0  0  0  0
 34 80  2  0  0  0  0
 35 63  1  0  0  0  0
 35 75  1  0  0  0  0
 35 81  2  0  0  0  0
 36 71  1  0  0  0  0
 36 76  1  0  0  0  0
 36 82  2  0  0  0  0
 37 40  1  0  0  0  0
 38 47  1  0  0  0  0
 39 70  1  0  0  0  0
 40 42  1  0  0  0  0
 41 43  1  0  0  0  0
 41 44  1  0  0  0  0
 42 46  1  0  0  0  0
 43 48  1  0  0  0  0
 44 71  1  0  0  0  0
 45 48  1  0  0  0  0
 45 71  1  0  0  0  0
 46 74  1  0  0  0  0
 47 70  1  0  0  0  0
 48 69  1  0  0  0  0
 50 61  1  0  0  0  0
 51 63  1  0  0  0  0
 52 64  1  0  0  0  0
 53 64  1  0  0  0  0
 54 64  1  0  0  0  0
 55 65  1  0  0  0  0
 56 65  1  0  0  0  0
 57 77  1  0  0  0  0
 58 60  1  0  0  0  0
 59 65  1  0  0  0  0
 59 76  1  0  0  0  0
 60 84  1  0  0  0  0
 61 65  1  0  0  0  0
 62 64  1  0  0  0  0
 62 75  1  0  0  0  0
 63 77  1  0  0  0  0
 66 69  1  0  0  0  0
M  CHG  1  77   1
M  ISO  4  36 100  60 101  76 100  84 101
M  END
> <Batch ID>
0080

> <Smiles>
CNC(C)C(=O)NC(C(=O)N1Cc2cc([101O:1][101CH2:1]Cc3cc(C(C)C(C)(C)C[100NH:0][100C:0](=O)N4CCCC(n5nc(-c6ccc(Oc7ccc(F)cc7F)cc6)c(C(N)=O)c5N)C4)nc(C)n3)ccc2CC1C(=O)NC1CCCc2ccccc21)C(C)(C)C

> <Shape>
0.261

> <Color>
0.063

> <Negative vol penalty>
0.000

$$$$

  -OEChem-04052318443D

 83 91  0     1  0  0  0  0  0999 V2000
  -28.9621  -33.7049   11.5285 C   0  0  0  0  0  0  0  0  0  0  0  0
  -29.4824  -32.5078   12.0100 C   0  0  0  0  0  0  0  0  0  0  0  0
  -23.0475   -9.8779   19.9255 C   0  0  0  0  0  0  0  0  0  0  0  0
  -23.8370   -9.8418   22.2085 C   0  0  0  0  0  0  0  0  0  0  0  0
  -28.1797  -34.5073   12.3579 C   0  0  0  0  0  0  0  0  0  0  0  0
  -29.2214  -32.1130   13.3217 C   0  0  0  0  0  0  0  0  0  0  0  0
  -28.4320  -26.3908   15.3560 C   0  0  0  0  0  0  0  0  0  0  0  0
  -22.3038   -8.7223   20.1644 C   0  0  0  0  0  0  0  0  0  0  0  0
  -23.0933   -8.6862   22.4475 C   0  0  0  0  0  0  0  0  0  0  0  0
  -29.2916  -25.4926   15.9870 C   0  0  0  0  0  0  0  0  0  0  0  0
  -19.8710   -7.8858   23.0775 C   0  0  0  0  0  0  0  0  0  0  0  0
  -19.1292   -7.8268   24.2572 C   0  0  0  0  0  0  0  0  0  0  0  0
  -28.4264  -26.1804   18.1312 C   0  0  0  0  0  0  0  0  0  0  0  0
  -20.3747   -5.8733   24.9427 C   0  0  0  0  0  0  0  0  0  0  0  0
  -31.3820  -19.3019   19.2932 C   0  0  0  0  0  0  0  0  0  0  0  0
  -23.8142  -10.4376   20.9476 C   0  0  0  0  0  0  0  0  0  0  0  0
  -30.1884  -19.9927   19.2433 C   0  0  0  0  0  0  0  0  0  0  0  0
  -24.1613  -12.9637   20.8684 C   0  0  0  0  0  0  0  0  0  0  0  0
  -27.9011  -34.1174   13.6774 C   0  0  0  0  0  0  0  0  0  0  0  0
  -27.5694  -27.1996   16.1097 C   0  0  0  0  0  0  0  0  0  0  0  0
  -28.4357  -32.9116   14.1699 C   0  0  0  0  0  0  0  0  0  0  0  0
  -27.5550  -27.0862   17.5072 C   0  0  0  0  0  0  0  0  0  0  0  0
  -22.3266   -8.1265   21.4254 C   0  0  0  0  0  0  0  0  0  0  0  0
  -29.2910  -25.3894   17.3750 C   0  0  0  0  0  0  0  0  0  0  0  0
  -20.8646   -6.9386   22.8303 C   0  0  0  0  0  0  0  0  0  0  0  0
  -19.3810   -6.8206   25.1898 C   0  0  0  0  0  0  0  0  0  0  0  0
  -21.1165   -5.9324   23.7629 C   0  0  0  0  0  0  0  0  0  0  0  0
  -24.5831  -11.6310   20.7012 C   0  0  0  0  0  0  0  0  0  0  0  0
  -29.2197  -19.5761   20.1333 C   0  0  0  0  0  0  0  0  0  0  0  0
  -25.2508  -13.7168   20.5044 C   0  0  0  0  0  0  0  0  0  0  0  0
  -30.5992  -17.9699   20.9606 C   0  0  0  0  0  0  0  0  0  0  0  0
  -29.9959  -21.0975   18.2890 C   0  0  0  0  0  0  0  0  0  0  0  0
  -30.7185  -22.2281   18.2576 C   0  0  0  0  0  0  0  0  0  0  0  0
  -22.8978  -13.4751   21.3129 C   0  0  0  0  0  0  0  0  0  0  0  0
  -27.2175  -30.3322   16.5184 C   0  0  0  0  0  0  0  0  0  0  0  0
  -24.6137  -29.4229   18.2260 C   0  0  0  0  0  0  0  0  0  0  0  0
  -23.0386  -26.9955   20.0353 C   0  0  0  0  0  0  0  0  0  0  0  0
  -30.7392  -14.7185   20.6397 C   0  0  0  0  0  0  0  0  0  0  0  0
  -27.0895  -35.0408   14.5511 C   0  0  0  0  0  0  0  0  0  0  0  0
  -26.6293  -28.1443   15.4124 C   0  0  0  0  0  0  0  0  0  0  0  0
  -26.6338  -27.9174   18.3609 C   0  0  0  0  0  0  0  0  0  0  0  0
  -26.5492  -34.3688   15.8108 C   0  0  0  0  0  0  0  0  0  0  0  0
  -29.5643  -12.3801   18.2256 C   0  0  0  0  0  0  0  0  0  0  0  0
  -27.6448  -33.5569   16.4945 C   0  0  0  0  0  0  0  0  0  0  0  0
  -28.1318  -12.0823   18.6718 C   0  0  0  0  0  0  0  0  0  0  0  0
  -30.4975  -12.5771   19.4182 C   0  0  0  0  0  0  0  0  0  0  0  0
  -28.6159  -13.2879   20.8423 C   0  0  0  0  0  0  0  0  0  0  0  0
  -28.1543  -32.4371   15.5791 C   0  0  1  0  0  0  0  0  0  0  0  0
  -26.1587  -29.2873   16.3066 C   0  0  1  0  0  0  0  0  0  0  0  0
  -27.6261  -13.1369   19.6745 C   0  0  2  0  0  0  0  0  0  0  0  0
  -27.9332  -21.5886   20.8956 C   0  0  0  0  0  0  0  0  0  0  0  0
  -20.9379  -26.5592   21.3369 C   0  0  0  0  0  0  0  0  0  0  0  0
  -25.7028  -31.0900   20.5378 C   0  0  0  0  0  0  0  0  0  0  0  0
  -24.1252  -29.8817   22.0608 C   0  0  0  0  0  0  0  0  0  0  0  0
  -23.2327  -31.2731   20.1926 C   0  0  0  0  0  0  0  0  0  0  0  0
  -22.2407  -24.7893   18.2311 C   0  0  0  0  0  0  0  0  0  0  0  0
  -27.8836  -20.2439   20.1773 C   0  0  0  0  0  0  0  0  0  0  0  0
  -30.8270  -16.8464   21.9140 C   0  0  0  0  0  0  0  0  0  0  0  0
  -30.4764  -23.3300   17.2765 C   0  0  0  0  0  0  0  0  0  1  0  0
  -24.3527  -29.0676   19.6698 C   0  0  1  0  0  0  0  0  0  0  0  0
  -21.6192  -26.4598   19.9809 C   0  0  2  0  0  0  0  0  0  0  0  0
  -24.3722  -30.3137   20.5995 C   0  0  0  0  0  0  0  0  0  0  0  0
  -31.6225  -18.2815   20.1426 N   0  0  0  0  0  0  0  0  0  0  0  0
  -25.8422  -11.5395   20.2649 N   0  0  0  0  0  0  0  0  0  0  0  0
  -29.3917  -18.5643   21.0091 N   0  0  0  0  0  0  0  0  0  0  0  0
  -26.2209  -12.8242   20.1547 N   0  0  0  0  0  0  0  0  0  0  0  0
  -25.7378  -28.8310   17.6328 N   0  0  0  0  0  0  0  0  0  0  0  0
  -29.9613  -13.5909   20.3296 N   0  0  0  0  0  0  0  0  0  0  0  0
  -25.4638  -15.0488   20.4525 N   0  0  0  0  0  0  0  0  0  0  0  0
  -21.8879  -12.5625   21.6470 N   0  0  0  0  0  0  0  0  0  0  0  0
  -27.2201  -31.3319   15.5645 N   0  0  0  0  0  0  0  0  0  0  0  0
  -23.0950  -28.3285   19.6875 N   0  0  0  0  0  0  0  0  0  0  0  0
  -30.1536  -15.6336   21.5060 N   0  0  0  0  0  0  0  0  0  0  0  0
  -21.6208  -25.0303   19.5595 N   0  3  0  0  0  0  0  0  0  0  0  0
  -22.6657  -14.7050   21.3954 O   0  0  0  0  0  0  0  0  0  0  0  0
  -27.9749  -30.2391   17.4772 O   0  0  0  0  0  0  0  0  0  0  0  0
  -23.8443  -30.1915   17.6437 O   0  0  0  0  0  0  0  0  0  0  0  0
  -24.0005  -26.3018   20.3579 O   0  0  0  0  0  0  0  0  0  0  0  0
  -31.8697  -14.8993   20.1746 O   0  0  0  0  0  0  0  0  0  0  0  0
  -21.6008   -6.9990   21.6589 O   0  0  0  0  0  0  0  0  0  0  0  0
  -30.1295  -24.5141   17.9935 O   0  0  0  0  0  0  0  0  0  1  0  0
  -18.6696   -6.7649   26.3234 F   0  0  0  0  0  0  0  0  0  0  0  0
  -22.0706   -5.0202   23.5315 F   0  0  0  0  0  0  0  0  0  0  0  0
  1  2  1  0  0  0  0
  1  5  2  0  0  0  0
  2  6  2  0  0  0  0
  3  8  2  0  0  0  0
  3 16  1  0  0  0  0
  4  9  1  0  0  0  0
  4 16  2  0  0  0  0
  5 19  1  0  0  0  0
  6 21  1  0  0  0  0
  7 10  2  0  0  0  0
  7 20  1  0  0  0  0
  8 23  1  0  0  0  0
  9 23  2  0  0  0  0
 10 24  1  0  0  0  0
 11 12  2  0  0  0  0
 11 25  1  0  0  0  0
 12 26  1  0  0  0  0
 13 22  1  0  0  0  0
 13 24  2  0  0  0  0
 14 26  2  0  0  0  0
 14 27  1  0  0  0  0
 15 17  1  0  0  0  0
 15 63  2  0  0  0  0
 16 28  1  0  0  0  0
 17 29  2  0  0  0  0
 17 32  1  0  0  0  0
 18 28  1  0  0  0  0
 18 30  2  0  0  0  0
 18 34  1  0  0  0  0
 19 21  2  0  0  0  0
 19 39  1  0  0  0  0
 20 22  2  0  0  0  0
 20 40  1  0  0  0  0
 21 48  1  0  0  0  0
 22 41  1  0  0  0  0
 23 80  1  0  0  0  0
 24 81  1  0  0  0  0
 25 27  2  0  0  0  0
 25 80  1  0  0  0  0
 26 82  1  0  0  0  0
 27 83  1  0  0  0  0
 28 64  2  0  0  0  0
 29 57  1  0  0  0  0
 29 65  1  0  0  0  0
 30 66  1  0  0  0  0
 30 69  1  0  0  0  0
 31 58  1  0  0  0  0
 31 63  1  0  0  0  0
 31 65  2  0  0  0  0
 32 33  2  0  0  0  0
 33 59  1  0  0  0  0
 34 70  1  0  0  0  0
 34 75  2  0  0  0  0
 35 49  1  0  0  0  0
 35 71  1  0  0  0  0
 35 76  2  0  0  0  0
 36 60  1  0  0  0  0
 36 67  1  0  0  0  0
 36 77  2  0  0  0  0
 37 61  1  0  0  0  0
 37 72  1  0  0  0  0
 37 78  2  0  0  0  0
 38 68  1  0  0  0  0
 38 73  1  0  0  0  0
 38 79  2  0  0  0  0
 39 42  1  0  0  0  0
 40 49  1  0  0  0  0
 41 67  1  0  0  0  0
 42 44  1  0  0  0  0
 43 45  1  0  0  0  0
 43 46  1  0  0  0  0
 44 48  1  0  0  0  0
 45 50  1  0  0  0  0
 46 68  1  0  0  0  0
 47 50  1  0  0  0  0
 47 68  1  0  0  0  0
 48 71  1  0  0  0  0
 49 67  1  0  0  0  0
 50 66  1  0  0  0  0
 51 57  1  0  0  0  0
 52 61  1  0  0  0  0
 53 62  1  0  0  0  0
 54 62  1  0  0  0  0
 55 62  1  0  0  0  0
 56 74  1  0  0  0  0
 58 73  1  0  0  0  0
 59 81  1  0  0  0  0
 60 62  1  0  0  0  0
 60 72  1  0  0  0  0
 61 74  1  0  0  0  0
 64 66  1  0  0  0  0
M  CHG  1  74   1
M  ISO  4  38 100  59 101  73 100  81 101
M  END
> <Batch ID>
0080

> <Smiles>
CCc1nc(C[100NH:0][100C:0](=O)N2CCCC(n3nc(-c4ccc(Oc5ccc(F)cc5F)cc4)c(C(N)=O)c3N)C2)ncc1C=C[101CH2:1][101O:1]c1ccc2c(c1)CN(C(=O)C(NC(=O)C(C)NC)C(C)(C)C)C(C(=O)NC1CCCc3ccccc31)C2

> <Shape>
0.289

> <Color>
0.194

> <Negative vol penalty>
0.000

$$$$

  -OEChem-04052318443D

 88 96  0     1  0  0  0  0  0999 V2000
  -39.4156  -22.6295   29.8932 C   0  0  0  0  0  0  0  0  0  0  0  0
  -38.2307  -21.9012   29.9250 C   0  0  0  0  0  0  0  0  0  0  0  0
  -23.0728   -9.8705   19.9428 C   0  0  0  0  0  0  0  0  0  0  0  0
  -23.8350   -9.8784   22.2354 C   0  0  0  0  0  0  0  0  0  0  0  0
  -39.5011  -23.7859   29.1189 C   0  0  0  0  0  0  0  0  0  0  0  0
  -37.1302  -22.3295   29.1834 C   0  0  0  0  0  0  0  0  0  0  0  0
  -31.5003  -19.7744   25.5651 C   0  0  0  0  0  0  0  0  0  0  0  0
  -22.3293   -8.7174   20.1938 C   0  0  0  0  0  0  0  0  0  0  0  0
  -23.0914   -8.7252   22.4865 C   0  0  0  0  0  0  0  0  0  0  0  0
  -30.1158  -19.9180   25.4855 C   0  0  0  0  0  0  0  0  0  0  0  0
  -19.3826   -7.9210   21.6483 C   0  0  0  0  0  0  0  0  0  0  0  0
  -18.0752   -7.8745   21.1644 C   0  0  0  0  0  0  0  0  0  0  0  0
  -30.4044  -21.8868   24.1218 C   0  0  0  0  0  0  0  0  0  0  0  0
  -28.3888  -18.8479   21.9520 C   0  0  0  0  0  0  0  0  0  0  0  0
  -18.6338   -5.9311   19.8422 C   0  0  0  0  0  0  0  0  0  0  0  0
  -26.4241  -19.0427   20.6260 C   0  0  0  0  0  0  0  0  0  0  0  0
  -23.8257  -10.4510   20.9635 C   0  0  0  0  0  0  0  0  0  0  0  0
  -24.1672  -12.9761   20.8423 C   0  0  0  0  0  0  0  0  0  0  0  0
  -38.4042  -24.2232   28.3598 C   0  0  0  0  0  0  0  0  0  0  0  0
  -32.3488  -20.6938   24.9316 C   0  0  0  0  0  0  0  0  0  0  0  0
  -37.2007  -23.4935   28.3993 C   0  0  0  0  0  0  0  0  0  0  0  0
  -31.7993  -21.7512   24.1927 C   0  0  0  0  0  0  0  0  0  0  0  0
  -27.0404  -19.1741   21.8600 C   0  0  0  0  0  0  0  0  0  0  0  0
  -29.0702  -18.4066   20.8232 C   0  0  0  0  0  0  0  0  0  0  0  0
  -22.3386   -8.1448   21.4657 C   0  0  0  0  0  0  0  0  0  0  0  0
  -29.5677  -20.9760   24.7662 C   0  0  0  0  0  0  0  0  0  0  0  0
  -20.3156   -6.9726   21.2292 C   0  0  0  0  0  0  0  0  0  0  0  0
  -17.7008   -6.8795   20.2614 C   0  0  0  0  0  0  0  0  0  0  0  0
  -19.9412   -5.9776   20.3262 C   0  0  0  0  0  0  0  0  0  0  0  0
  -24.5944  -11.6418   20.7046 C   0  0  0  0  0  0  0  0  0  0  0  0
  -28.3631  -18.3094   19.6356 C   0  0  0  0  0  0  0  0  0  0  0  0
  -25.2589  -13.7256   20.4777 C   0  0  0  0  0  0  0  0  0  0  0  0
  -22.8971  -13.4920   21.2623 C   0  0  0  0  0  0  0  0  0  0  0  0
  -34.5692  -22.7442   25.9160 C   0  0  0  0  0  0  0  0  0  0  0  0
  -35.0434  -23.1567   22.7336 C   0  0  0  0  0  0  0  0  0  0  0  0
  -33.7838  -22.9631   19.5677 C   0  0  0  0  0  0  0  0  0  0  0  0
  -30.7428  -14.7452   20.6602 C   0  0  0  0  0  0  0  0  0  0  0  0
  -38.5292  -25.5052   27.5752 C   0  0  0  0  0  0  0  0  0  0  0  0
  -33.8398  -20.5096   25.0047 C   0  0  0  0  0  0  0  0  0  0  0  0
  -32.6665  -22.7537   23.4776 C   0  0  0  0  0  0  0  0  0  0  0  0
  -37.4369  -25.6850   26.5241 C   0  0  0  0  0  0  0  0  0  0  0  0
  -29.6030  -12.3598   18.2754 C   0  0  0  0  0  0  0  0  0  0  0  0
  -36.0677  -25.3696   27.1178 C   0  0  0  0  0  0  0  0  0  0  0  0
  -28.1660  -12.0661   18.7099 C   0  0  0  0  0  0  0  0  0  0  0  0
  -30.5213  -12.5811   19.4753 C   0  0  0  0  0  0  0  0  0  0  0  0
  -28.6209  -13.3124   20.8635 C   0  0  0  0  0  0  0  0  0  0  0  0
  -35.9931  -23.9122   27.5890 C   0  0  1  0  0  0  0  0  0  0  0  0
  -34.6143  -21.7988   24.7490 C   0  0  1  0  0  0  0  0  0  0  0  0
  -27.6456  -13.1374   19.6869 C   0  0  2  0  0  0  0  0  0  0  0  0
  -31.3820  -19.2765   21.2956 C   0  0  0  0  0  0  0  0  0  0  0  0
  -33.7666  -23.0441   17.0596 C   0  0  0  0  0  0  0  0  0  0  0  0
  -34.6789  -26.1508   23.1945 C   0  0  0  0  0  0  0  0  0  0  0  0
  -34.3501  -26.4198   20.7271 C   0  0  0  0  0  0  0  0  0  0  0  0
  -36.5182  -25.5558   21.6078 C   0  0  0  0  0  0  0  0  0  0  0  0
  -34.5989  -20.1260   19.3549 C   0  0  0  0  0  0  0  0  0  0  0  0
  -29.4271  -16.2083   16.0050 C   0  0  0  0  0  0  0  0  0  0  0  0
  -28.3257  -17.9641   14.6250 C   0  0  0  0  0  0  0  0  0  0  0  0
  -26.2723  -19.6547   23.0652 C   0  0  0  0  0  0  0  0  0  0  0  0
  -29.0432  -17.8403   18.3911 C   0  0  0  0  0  0  0  0  0  0  0  0
  -26.2989  -21.1739   23.2469 C   0  0  0  0  0  0  0  0  0  0  0  0
  -30.8097  -16.8962   21.8963 C   0  0  0  0  0  0  0  0  0  0  0  0
  -28.2533  -18.1064   17.1099 C   0  0  0  0  0  0  0  0  0  0  0  0
  -27.6955  -21.7266   23.5063 C   0  0  0  0  0  0  0  0  0  1  0  0
  -30.5156  -18.0572   20.9144 C   0  0  1  0  0  0  0  0  0  0  0  0
  -34.4724  -24.0719   21.6775 C   0  0  1  0  0  0  0  0  0  0  0  0
  -34.3545  -22.3726   18.2910 C   0  0  2  0  0  0  0  0  0  0  0  0
  -34.9883  -25.5320   21.8167 C   0  0  0  0  0  0  0  0  0  0  0  0
  -27.0530  -18.6173   19.5074 N   0  0  0  0  0  0  0  0  0  0  0  0
  -25.8589  -11.5460   20.2851 N   0  0  0  0  0  0  0  0  0  0  0  0
  -26.2355  -12.8295   20.1560 N   0  0  0  0  0  0  0  0  0  0  0  0
  -34.1184  -22.5345   23.5841 N   0  0  0  0  0  0  0  0  0  0  0  0
  -29.9715  -13.6098   20.3615 N   0  0  0  0  0  0  0  0  0  0  0  0
  -25.4691  -15.0570   20.4040 N   0  0  0  0  0  0  0  0  0  0  0  0
  -21.8856  -12.5828   21.6009 N   0  0  0  0  0  0  0  0  0  0  0  0
  -35.8077  -23.0251   26.4608 N   0  0  0  0  0  0  0  0  0  0  0  0
  -34.7753  -23.4511   20.3924 N   0  0  0  0  0  0  0  0  0  0  0  0
  -30.1444  -15.6742   21.5026 N   0  0  0  0  0  0  0  0  0  0  0  0
  -34.0582  -20.9139   18.2174 N   0  3  0  0  0  0  0  0  0  0  0  0
  -29.0286  -17.6615   15.9256 N   0  3  0  0  0  0  0  0  0  0  0  0
  -22.6608  -14.7226   21.3194 O   0  0  0  0  0  0  0  0  0  0  0  0
  -33.4908  -23.1873   26.2933 O   0  0  0  0  0  0  0  0  0  0  0  0
  -36.2645  -22.9941   22.7970 O   0  0  0  0  0  0  0  0  0  0  0  0
  -32.5788  -22.9922   19.8077 O   0  0  0  0  0  0  0  0  0  0  0  0
  -31.8783  -14.9206   20.2054 O   0  0  0  0  0  0  0  0  0  0  0  0
  -21.6130   -7.0197   21.7111 O   0  0  0  0  0  0  0  0  0  0  0  0
  -28.2166  -21.1188   24.6875 O   0  0  0  0  0  0  0  0  0  1  0  0
  -16.4449   -6.8341   19.7979 F   0  0  0  0  0  0  0  0  0  0  0  0
  -20.8328   -5.0630   19.9208 F   0  0  0  0  0  0  0  0  0  0  0  0
  1  2  1  0  0  0  0
  1  5  2  0  0  0  0
  2  6  2  0  0  0  0
  3  8  2  0  0  0  0
  3 17  1  0  0  0  0
  4  9  1  0  0  0  0
  4 17  2  0  0  0  0
  5 19  1  0  0  0  0
  6 21  1  0  0  0  0
  7 10  2  0  0  0  0
  7 20  1  0  0  0  0
  8 25  1  0  0  0  0
  9 25  2  0  0  0  0
 10 26  1  0  0  0  0
 11 12  2  0  0  0  0
 11 27  1  0  0  0  0
 12 28  1  0  0  0  0
 13 22  1  0  0  0  0
 13 26  2  0  0  0  0
 14 23  2  0  0  0  0
 14 24  1  0  0  0  0
 15 28  2  0  0  0  0
 15 29  1  0  0  0  0
 16 23  1  0  0  0  0
 16 68  2  0  0  0  0
 17 30  1  0  0  0  0
 18 30  1  0  0  0  0
 18 32  2  0  0  0  0
 18 33  1  0  0  0  0
 19 21  2  0  0  0  0
 19 38  1  0  0  0  0
 20 22  2  0  0  0  0
 20 39  1  0  0  0  0
 21 47  1  0  0  0  0
 22 40  1  0  0  0  0
 23 58  1  0  0  0  0
 24 31  2  0  0  0  0
 24 64  1  0  0  0  0
 25 85  1  0  0  0  0
 26 86  1  0  0  0  0
 27 29  2  0  0  0  0
 27 85  1  0  0  0  0
 28 87  1  0  0  0  0
 29 88  1  0  0  0  0
 30 69  2  0  0  0  0
 31 59  1  0  0  0  0
 31 68  1  0  0  0  0
 32 70  1  0  0  0  0
 32 73  1  0  0  0  0
 33 74  1  0  0  0  0
 33 80  2  0  0  0  0
 34 48  1  0  0  0  0
 34 75  1  0  0  0  0
 34 81  2  0  0  0  0
 35 65  1  0  0  0  0
 35 71  1  0  0  0  0
 35 82  2  0  0  0  0
 36 66  1  0  0  0  0
 36 76  1  0  0  0  0
 36 83  2  0  0  0  0
 37 72  1  0  0  0  0
 37 77  1  0  0  0  0
 37 84  2  0  0  0  0
 38 41  1  0  0  0  0
 39 48  1  0  0  0  0
 40 71  1  0  0  0  0
 41 43  1  0  0  0  0
 42 44  1  0  0  0  0
 42 45  1  0  0  0  0
 43 47  1  0  0  0  0
 44 49  1  0  0  0  0
 45 72  1  0  0  0  0
 46 49  1  0  0  0  0
 46 72  1  0  0  0  0
 47 75  1  0  0  0  0
 48 71  1  0  0  0  0
 49 70  1  0  0  0  0
 50 64  1  0  0  0  0
 51 66  1  0  0  0  0
 52 67  1  0  0  0  0
 53 67  1  0  0  0  0
 54 67  1  0  0  0  0
 55 78  1  0  0  0  0
 56 79  1  0  0  0  0
 57 79  1  0  0  0  0
 58 60  1  0  0  0  0
 59 62  1  0  0  0  0
 60 63  1  0  0  0  0
 61 64  1  0  0  0  0
 61 77  1  0  0  0  0
 62 79  1  0  0  0  0
 63 86  1  0  0  0  0
 65 67  1  0  0  0  0
 65 76  1  0  0  0  0
 66 78  1  0  0  0  0
 69 70  1  0  0  0  0
M  CHG  2  78   1  79   1
M  ISO  4  37 100  63 101  77 100  86 101
M  END
> <Batch ID>
0080

> <Smiles>
CNC(C)C(=O)NC(C(=O)N1Cc2cc([101O:1][101CH2:1]CCc3cnc(CCN(C)C)c(C(C)C[100NH:0][100C:0](=O)N4CCCC(n5nc(-c6ccc(Oc7ccc(F)cc7F)cc6)c(C(N)=O)c5N)C4)c3)ccc2CC1C(=O)NC1CCCc2ccccc21)C(C)(C)C

> <Shape>
0.175

> <Color>
0.184

> <Negative vol penalty>
0.000

$$$$

  -OEChem-04052318443D

 82 90  0     1  0  0  0  0  0999 V2000
  -28.2089  -35.8192   24.4733 C   0  0  0  0  0  0  0  0  0  0  0  0
  -28.5917  -34.6527   23.8189 C   0  0  0  0  0  0  0  0  0  0  0  0
  -24.7263   -8.8796   21.5879 C   0  0  0  0  0  0  0  0  0  0  0  0
  -23.0956  -10.3253   20.5447 C   0  0  0  0  0  0  0  0  0  0  0  0
  -27.0496  -35.8343   25.2477 C   0  0  0  0  0  0  0  0  0  0  0  0
  -27.8159  -33.5003   23.9395 C   0  0  0  0  0  0  0  0  0  0  0  0
  -26.8654  -29.2365   19.6474 C   0  0  0  0  0  0  0  0  0  0  0  0
  -23.7421   -8.3883   22.4456 C   0  0  0  0  0  0  0  0  0  0  0  0
  -22.1114   -9.8340   21.4024 C   0  0  0  0  0  0  0  0  0  0  0  0
  -27.4466  -27.9900   19.4185 C   0  0  0  0  0  0  0  0  0  0  0  0
  -21.1981   -6.1655   22.3041 C   0  0  0  0  0  0  0  0  0  0  0  0
  -21.1403   -4.7859   22.5017 C   0  0  0  0  0  0  0  0  0  0  0  0
  -25.6353  -26.9333   20.6109 C   0  0  0  0  0  0  0  0  0  0  0  0
  -21.5213   -5.1087   24.8656 C   0  0  0  0  0  0  0  0  0  0  0  0
  -29.7591  -20.7567   20.0972 C   0  0  0  0  0  0  0  0  0  0  0  0
  -24.4031   -9.8481   20.6375 C   0  0  0  0  0  0  0  0  0  0  0  0
  -25.7773   -9.8489   18.4883 C   0  0  0  0  0  0  0  0  0  0  0  0
  -26.2540  -34.6842   25.3700 C   0  0  0  0  0  0  0  0  0  0  0  0
  -25.6685  -29.3418   20.3703 C   0  0  0  0  0  0  0  0  0  0  0  0
  -26.6456  -33.4997   24.7174 C   0  0  0  0  0  0  0  0  0  0  0  0
  -25.0397  -28.1820   20.8454 C   0  0  0  0  0  0  0  0  0  0  0  0
  -22.4346   -8.8655   22.3528 C   0  0  0  0  0  0  0  0  0  0  0  0
  -26.8331  -26.8384   19.9028 C   0  0  0  0  0  0  0  0  0  0  0  0
  -21.4176   -7.0167   23.3871 C   0  0  0  0  0  0  0  0  0  0  0  0
  -21.3019   -4.2575   23.7825 C   0  0  0  0  0  0  0  0  0  0  0  0
  -21.5792   -6.4883   24.6679 C   0  0  0  0  0  0  0  0  0  0  0  0
  -25.4194  -10.3565   19.7517 C   0  0  0  0  0  0  0  0  0  0  0  0
  -29.5136  -19.8464   19.1082 C   0  0  0  0  0  0  0  0  0  0  0  0
  -26.7852  -10.6770   18.0585 C   0  0  0  0  0  0  0  0  0  0  0  0
  -31.1270  -21.1929   18.4123 C   0  0  0  0  0  0  0  0  0  0  0  0
  -25.2461   -8.7289   17.7677 C   0  0  0  0  0  0  0  0  0  0  0  0
  -24.8091  -30.7337   23.0957 C   0  0  0  0  0  0  0  0  0  0  0  0
  -28.0471  -16.3141   19.4390 C   0  0  0  0  0  0  0  0  0  0  0  0
  -21.8407  -29.7923   22.1877 C   0  0  0  0  0  0  0  0  0  0  0  0
  -19.9134  -27.6508   20.3585 C   0  0  0  0  0  0  0  0  0  0  0  0
  -25.0350  -34.7357   26.2565 C   0  0  0  0  0  0  0  0  0  0  0  0
  -25.0404  -30.6915   20.5856 C   0  0  0  0  0  0  0  0  0  0  0  0
  -23.7432  -28.2393   21.6098 C   0  0  0  0  0  0  0  0  0  0  0  0
  -24.0674  -33.5769   26.0296 C   0  0  0  0  0  0  0  0  0  0  0  0
  -30.3000  -13.4703   19.6919 C   0  0  0  0  0  0  0  0  0  0  0  0
  -24.8238  -32.2535   25.9719 C   0  0  0  0  0  0  0  0  0  0  0  0
  -29.3197  -12.2989   19.6481 C   0  0  0  0  0  0  0  0  0  0  0  0
  -29.7105  -14.6682   20.4319 C   0  0  0  0  0  0  0  0  0  0  0  0
  -27.4149  -13.9563   19.8420 C   0  0  0  0  0  0  0  0  0  0  0  0
  -25.8171  -32.2363   24.8037 C   0  0  1  0  0  0  0  0  0  0  0  0
  -24.0885  -30.7243   21.7773 C   0  0  1  0  0  0  0  0  0  0  0  0
  -27.9599  -12.7383   19.0776 C   0  0  2  0  0  0  0  0  0  0  0  0
  -32.1744  -21.8084   17.5597 C   0  0  0  0  0  0  0  0  0  0  0  0
  -17.5182  -27.1031   19.8480 C   0  0  0  0  0  0  0  0  0  0  0  0
  -21.5704  -28.4458   24.9124 C   0  0  0  0  0  0  0  0  0  0  0  0
  -19.6283  -27.1535   24.0034 C   0  0  0  0  0  0  0  0  0  0  0  0
  -19.5177  -29.6423   24.1318 C   0  0  0  0  0  0  0  0  0  0  0  0
  -20.2755  -28.2226   17.4774 C   0  0  0  0  0  0  0  0  0  0  0  0
  -28.5611  -18.7359   19.0294 C   0  0  0  0  0  0  0  0  0  0  0  0
  -29.1020  -17.3859   19.5500 C   0  0  0  0  0  0  0  0  0  0  0  0
  -30.8311  -24.1027   19.9699 C   0  0  0  0  0  0  0  0  0  0  0  0
  -29.3076  -24.2128   20.0470 C   0  0  0  0  0  0  0  0  0  0  0  0
  -31.3565  -22.7308   20.4077 C   0  0  0  0  0  0  0  0  0  0  0  0
  -28.8206  -25.5751   19.5718 C   0  0  0  0  0  0  0  0  0  1  0  0
  -21.0008  -28.5554   22.3965 C   0  0  1  0  0  0  0  0  0  0  0  0
  -18.7435  -27.8974   19.4231 C   0  0  2  0  0  0  0  0  0  0  0  0
  -20.4548  -28.4480   23.8483 C   0  0  0  0  0  0  0  0  0  0  0  0
  -26.1414  -11.4243   20.1017 N   0  0  0  0  0  0  0  0  0  0  0  0
  -30.7621  -21.5770   19.6399 N   0  0  0  0  0  0  0  0  0  0  0  0
  -26.9631  -11.5944   19.0520 N   0  0  0  0  0  0  0  0  0  0  0  0
  -30.3739  -20.1401   18.0779 N   0  3  0  0  0  0  0  0  0  0  0  0
  -23.1717  -29.5827   21.8000 N   0  0  0  0  0  0  0  0  0  0  0  0
  -28.4032  -15.0381   19.8763 N   0  0  0  0  0  0  0  0  0  0  0  0
  -27.5279  -10.7027   16.9315 N   0  0  0  0  0  0  0  0  0  0  0  0
  -24.2129   -7.9859   18.3548 N   0  0  0  0  0  0  0  0  0  0  0  0
  -25.1249  -31.9980   23.5552 N   0  0  0  0  0  0  0  0  0  0  0  0
  -19.9652  -28.5870   21.3694 N   0  0  0  0  0  0  0  0  0  0  0  0
  -19.1006  -27.5017   18.0314 N   0  3  0  0  0  0  0  0  0  0  0  0
  -25.6862   -8.3871   16.6439 O   0  0  0  0  0  0  0  0  0  0  0  0
  -25.0588  -29.6725   23.6554 O   0  0  0  0  0  0  0  0  0  0  0  0
  -26.9413  -16.6037   18.9747 O   0  0  0  0  0  0  0  0  0  0  0  0
  -21.3325  -30.9038   22.3553 O   0  0  0  0  0  0  0  0  0  0  0  0
  -20.7003  -26.7185   20.2095 O   0  0  0  0  0  0  0  0  0  0  0  0
  -21.4739   -8.3861   23.1894 O   0  0  0  0  0  0  0  0  0  0  0  0
  -27.3986  -25.6206   19.6814 O   0  0  0  0  0  0  0  0  0  1  0  0
  -21.2448   -2.9328   23.9724 F   0  0  0  0  0  0  0  0  0  0  0  0
  -21.7891   -7.3010   25.7125 F   0  0  0  0  0  0  0  0  0  0  0  0
  1  2  1  0  0  0  0
  1  5  2  0  0  0  0
  2  6  2  0  0  0  0
  3  8  2  0  0  0  0
  3 16  1  0  0  0  0
  4  9  1  0  0  0  0
  4 16  2  0  0  0  0
  5 18  1  0  0  0  0
  6 20  1  0  0  0  0
  7 10  2  0  0  0  0
  7 19  1  0  0  0  0
  8 22  1  0  0  0  0
  9 22  2  0  0  0  0
 10 23  1  0  0  0  0
 11 12  2  0  0  0  0
 11 24  1  0  0  0  0
 12 25  1  0  0  0  0
 13 21  1  0  0  0  0
 13 23  2  0  0  0  0
 14 25  2  0  0  0  0
 14 26  1  0  0  0  0
 15 28  2  0  0  0  0
 15 64  1  0  0  0  0
 16 27  1  0  0  0  0
 17 27  1  0  0  0  0
 17 29  2  0  0  0  0
 17 31  1  0  0  0  0
 18 20  2  0  0  0  0
 18 36  1  0  0  0  0
 19 21  2  0  0  0  0
 19 37  1  0  0  0  0
 20 45  1  0  0  0  0
 21 38  1  0  0  0  0
 22 79  1  0  0  0  0
 23 80  1  0  0  0  0
 24 26  2  0  0  0  0
 24 79  1  0  0  0  0
 25 81  1  0  0  0  0
 26 82  1  0  0  0  0
 27 63  2  0  0  0  0
 28 54  1  0  0  0  0
 28 66  1  0  0  0  0
 29 65  1  0  0  0  0
 29 69  1  0  0  0  0
 30 48  1  0  0  0  0
 30 64  1  0  0  0  0
 30 66  2  0  0  0  0
 31 70  1  0  0  0  0
 31 74  2  0  0  0  0
 32 46  1  0  0  0  0
 32 71  1  0  0  0  0
 32 75  2  0  0  0  0
 33 55  1  0  0  0  0
 33 68  1  0  0  0  0
 33 76  2  0  0  0  0
 34 60  1  0  0  0  0
 34 67  1  0  0  0  0
 34 77  2  0  0  0  0
 35 61  1  0  0  0  0
 35 72  1  0  0  0  0
 35 78  2  0  0  0  0
 36 39  1  0  0  0  0
 37 46  1  0  0  0  0
 38 67  1  0  0  0  0
 39 41  1  0  0  0  0
 40 42  1  0  0  0  0
 40 43  1  0  0  0  0
 41 45  1  0  0  0  0
 42 47  1  0  0  0  0
 43 68  1  0  0  0  0
 44 47  1  0  0  0  0
 44 68  1  0  0  0  0
 45 71  1  0  0  0  0
 46 67  1  0  0  0  0
 47 65  1  0  0  0  0
 49 61  1  0  0  0  0
 50 62  1  0  0  0  0
 51 62  1  0  0  0  0
 52 62  1  0  0  0  0
 53 73  1  0  0  0  0
 54 55  1  0  0  0  0
 56 57  1  0  0  0  0
 56 58  1  0  0  0  0
 57 59  1  0  0  0  0
 58 64  1  0  0  0  0
 59 80  1  0  0  0  0
 60 62  1  0  0  0  0
 60 72  1  0  0  0  0
 61 73  1  0  0  0  0
 63 65  1  0  0  0  0
M  CHG  2  66   1  73   1
M  ISO  4  33 100  55 100  59 101  80 101
M  END
> <Batch ID>
0080

> <Smiles>
CNC(C)C(=O)NC(C(=O)N1Cc2cc([101O:1][101CH2:1]CCCn3cc(C[100CH2:0][100C:0](=O)N4CCCC(n5nc(-c6ccc(Oc7ccc(F)cc7F)cc6)c(C(N)=O)c5N)C4)nc3C)ccc2CC1C(=O)NC1CCCc2ccccc21)C(C)(C)C

> <Shape>
0.338

> <Color>
0.087

> <Negative vol penalty>
0.000

$$$$

  -OEChem-04052318443D

 84 92  0     1  0  0  0  0  0999 V2000
  -15.4639  -22.7746   21.5027 C   0  0  0  0  0  0  0  0  0  0  0  0
  -16.6257  -22.5197   20.7811 C   0  0  0  0  0  0  0  0  0  0  0  0
  -23.0717   -9.8720   19.9452 C   0  0  0  0  0  0  0  0  0  0  0  0
  -23.8297   -9.8878   22.2392 C   0  0  0  0  0  0  0  0  0  0  0  0
  -15.3544  -23.9430   22.2554 C   0  0  0  0  0  0  0  0  0  0  0  0
  -17.6783  -23.4337   20.8110 C   0  0  0  0  0  0  0  0  0  0  0  0
  -22.1786  -21.1946   21.4258 C   0  0  0  0  0  0  0  0  0  0  0  0
  -22.3268   -8.7205   20.1992 C   0  0  0  0  0  0  0  0  0  0  0  0
  -23.0847   -8.7362   22.4932 C   0  0  0  0  0  0  0  0  0  0  0  0
  -22.7464  -20.5883   20.3061 C   0  0  0  0  0  0  0  0  0  0  0  0
  -19.3767   -7.9320   21.6513 C   0  0  0  0  0  0  0  0  0  0  0  0
  -18.0702   -7.8848   21.1651 C   0  0  0  0  0  0  0  0  0  0  0  0
  -24.1630  -22.5149   19.9887 C   0  0  0  0  0  0  0  0  0  0  0  0
  -18.6295   -5.9360   19.8513 C   0  0  0  0  0  0  0  0  0  0  0  0
  -28.4210  -18.2846   19.5976 C   0  0  0  0  0  0  0  0  0  0  0  0
  -23.8233  -10.4557   20.9652 C   0  0  0  0  0  0  0  0  0  0  0  0
  -24.1671  -12.9800   20.8352 C   0  0  0  0  0  0  0  0  0  0  0  0
  -16.4100  -24.8672   22.3023 C   0  0  0  0  0  0  0  0  0  0  0  0
  -22.5918  -22.4723   21.8297 C   0  0  0  0  0  0  0  0  0  0  0  0
  -17.5823  -24.6163   21.5640 C   0  0  0  0  0  0  0  0  0  0  0  0
  -23.6007  -23.1341   21.1154 C   0  0  0  0  0  0  0  0  0  0  0  0
  -22.3333   -8.1526   21.4732 C   0  0  0  0  0  0  0  0  0  0  0  0
  -23.7367  -21.2496   19.5856 C   0  0  0  0  0  0  0  0  0  0  0  0
  -20.3097   -6.9813   21.2374 C   0  0  0  0  0  0  0  0  0  0  0  0
  -17.6966   -6.8868   20.2652 C   0  0  0  0  0  0  0  0  0  0  0  0
  -19.9361   -5.9832   20.3374 C   0  0  0  0  0  0  0  0  0  0  0  0
  -24.5935  -11.6449   20.7032 C   0  0  0  0  0  0  0  0  0  0  0  0
  -27.0845  -18.6281   19.6024 C   0  0  0  0  0  0  0  0  0  0  0  0
  -29.0731  -18.4062   20.8077 C   0  0  0  0  0  0  0  0  0  0  0  0
  -25.2602  -13.7272   20.4698 C   0  0  0  0  0  0  0  0  0  0  0  0
  -27.1707  -19.1338   21.8169 C   0  0  0  0  0  0  0  0  0  0  0  0
  -22.8967  -13.4985   21.2509 C   0  0  0  0  0  0  0  0  0  0  0  0
  -21.1693  -25.2990   22.1303 C   0  0  0  0  0  0  0  0  0  0  0  0
  -24.0198  -26.1601   23.4168 C   0  0  0  0  0  0  0  0  0  0  0  0
  -27.3750  -25.5893   23.6697 C   0  0  0  0  0  0  0  0  0  0  0  0
  -30.7445  -14.7428   20.6586 C   0  0  0  0  0  0  0  0  0  0  0  0
  -16.2269  -26.1389   23.0922 C   0  0  0  0  0  0  0  0  0  0  0  0
  -21.9883  -23.1014   23.0554 C   0  0  0  0  0  0  0  0  0  0  0  0
  -24.0938  -24.4987   21.5195 C   0  0  0  0  0  0  0  0  0  0  0  0
  -17.5341  -26.8766   23.3704 C   0  0  0  0  0  0  0  0  0  0  0  0
  -29.6071  -12.3495   18.2806 C   0  0  0  0  0  0  0  0  0  0  0  0
  -18.3765  -26.9669   22.1020 C   0  0  0  0  0  0  0  0  0  0  0  0
  -28.1691  -12.0586   18.7135 C   0  0  0  0  0  0  0  0  0  0  0  0
  -30.5234  -12.5745   19.4813 C   0  0  0  0  0  0  0  0  0  0  0  0
  -28.6211  -13.3127   20.8633 C   0  0  0  0  0  0  0  0  0  0  0  0
  -18.7556  -25.5717   21.5910 C   0  0  1  0  0  0  0  0  0  0  0  0
  -22.1215  -24.6210   23.0743 C   0  0  1  0  0  0  0  0  0  0  0  0
  -27.6477  -13.1340   19.6856 C   0  0  2  0  0  0  0  0  0  0  0  0
  -26.4759  -19.6019   23.0506 C   0  0  0  0  0  0  0  0  0  0  0  0
  -31.3849  -19.2765   21.2789 C   0  0  0  0  0  0  0  0  0  0  0  0
  -29.4479  -26.4821   24.7667 C   0  0  0  0  0  0  0  0  0  0  0  0
  -24.0911  -28.4557   21.4080 C   0  0  0  0  0  0  0  0  0  0  0  0
  -26.5341  -28.7113   21.8922 C   0  0  0  0  0  0  0  0  0  0  0  0
  -24.8612  -29.0592   23.7096 C   0  0  0  0  0  0  0  0  0  0  0  0
  -27.8317  -23.0572   25.1322 C   0  0  0  0  0  0  0  0  0  0  0  0
  -26.2868  -18.5274   18.3268 C   0  0  0  0  0  0  0  0  0  0  0  0
  -26.2989  -19.8086   17.4901 C   0  0  0  0  0  0  0  0  0  0  0  0
  -30.8110  -16.8984   21.8868 C   0  0  0  0  0  0  0  0  0  0  0  0
  -25.6467  -20.9942   18.1919 C   0  0  0  0  0  0  0  0  0  1  0  0
  -30.5204  -18.0558   20.9011 C   0  0  1  0  0  0  0  0  0  0  0  0
  -25.3136  -26.7166   22.8732 C   0  0  1  0  0  0  0  0  0  0  0  0
  -28.2932  -25.4984   24.8752 C   0  0  2  0  0  0  0  0  0  0  0  0
  -25.1896  -28.2108   22.4618 C   0  0  0  0  0  0  0  0  0  0  0  0
  -25.8586  -11.5464   20.2864 N   0  0  0  0  0  0  0  0  0  0  0  0
  -26.4250  -19.0581   20.6981 N   0  0  0  0  0  0  0  0  0  0  0  0
  -28.4766  -18.8294   21.9414 N   0  0  0  0  0  0  0  0  0  0  0  0
  -26.2366  -12.8291   20.1532 N   0  0  0  0  0  0  0  0  0  0  0  0
  -23.4683  -25.0748   22.7213 N   0  0  0  0  0  0  0  0  0  0  0  0
  -29.9729  -13.6070   20.3626 N   0  0  0  0  0  0  0  0  0  0  0  0
  -25.4717  -15.0582   20.3915 N   0  0  0  0  0  0  0  0  0  0  0  0
  -21.8838  -12.5915   21.5911 N   0  0  0  0  0  0  0  0  0  0  0  0
  -19.8384  -25.0220   22.3784 N   0  0  0  0  0  0  0  0  0  0  0  0
  -26.3278  -26.4589   23.8898 N   0  0  0  0  0  0  0  0  0  0  0  0
  -30.1454  -15.6755   21.4963 N   0  0  0  0  0  0  0  0  0  0  0  0
  -28.8565  -24.1239   24.9948 N   0  3  0  0  0  0  0  0  0  0  0  0
  -22.6614  -14.7295   21.3031 O   0  0  0  0  0  0  0  0  0  0  0  0
  -21.6093  -26.0211   21.2434 O   0  0  0  0  0  0  0  0  0  0  0  0
  -23.5208  -26.6651   24.4255 O   0  0  0  0  0  0  0  0  0  0  0  0
  -27.5694  -24.9553   22.6350 O   0  0  0  0  0  0  0  0  0  0  0  0
  -31.8810  -14.9156   20.2052 O   0  0  0  0  0  0  0  0  0  0  0  0
  -21.6062   -7.0290   21.7215 O   0  0  0  0  0  0  0  0  0  0  0  0
  -24.2921  -20.6604   18.4919 O   0  0  0  0  0  0  0  0  0  1  0  0
  -16.4415   -6.8407   19.7996 F   0  0  0  0  0  0  0  0  0  0  0  0
  -20.8277   -5.0664   19.9370 F   0  0  0  0  0  0  0  0  0  0  0  0
  1  2  1  0  0  0  0
  1  5  2  0  0  0  0
  2  6  2  0  0  0  0
  3  8  2  0  0  0  0
  3 16  1  0  0  0  0
  4  9  1  0  0  0  0
  4 16  2  0  0  0  0
  5 18  1  0  0  0  0
  6 20  1  0  0  0  0
  7 10  2  0  0  0  0
  7 19  1  0  0  0  0
  8 22  1  0  0  0  0
  9 22  2  0  0  0  0
 10 23  1  0  0  0  0
 11 12  2  0  0  0  0
 11 24  1  0  0  0  0
 12 25  1  0  0  0  0
 13 21  1  0  0  0  0
 13 23  2  0  0  0  0
 14 25  2  0  0  0  0
 14 26  1  0  0  0  0
 15 28  1  0  0  0  0
 15 29  2  0  0  0  0
 16 27  1  0  0  0  0
 17 27  1  0  0  0  0
 17 30  2  0  0  0  0
 17 32  1  0  0  0  0
 18 20  2  0  0  0  0
 18 37  1  0  0  0  0
 19 21  2  0  0  0  0
 19 38  1  0  0  0  0
 20 46  1  0  0  0  0
 21 39  1  0  0  0  0
 22 81  1  0  0  0  0
 23 82  1  0  0  0  0
 24 26  2  0  0  0  0
 24 81  1  0  0  0  0
 25 83  1  0  0  0  0
 26 84  1  0  0  0  0
 27 64  2  0  0  0  0
 28 56  1  0  0  0  0
 28 65  2  0  0  0  0
 29 60  1  0  0  0  0
 29 66  1  0  0  0  0
 30 67  1  0  0  0  0
 30 70  1  0  0  0  0
 31 49  1  0  0  0  0
 31 65  1  0  0  0  0
 31 66  2  0  0  0  0
 32 71  1  0  0  0  0
 32 76  2  0  0  0  0
 33 47  1  0  0  0  0
 33 72  1  0  0  0  0
 33 77  2  0  0  0  0
 34 61  1  0  0  0  0
 34 68  1  0  0  0  0
 34 78  2  0  0  0  0
 35 62  1  0  0  0  0
 35 73  1  0  0  0  0
 35 79  2  0  0  0  0
 36 69  1  0  0  0  0
 36 74  1  0  0  0  0
 36 80  2  0  0  0  0
 37 40  1  0  0  0  0
 38 47  1  0  0  0  0
 39 68  1  0  0  0  0
 40 42  1  0  0  0  0
 41 43  1  0  0  0  0
 41 44  1  0  0  0  0
 42 46  1  0  0  0  0
 43 48  1  0  0  0  0
 44 69  1  0  0  0  0
 45 48  1  0  0  0  0
 45 69  1  0  0  0  0
 46 72  1  0  0  0  0
 47 68  1  0  0  0  0
 48 67  1  0  0  0  0
 50 60  1  0  0  0  0
 51 62  1  0  0  0  0
 52 63  1  0  0  0  0
 53 63  1  0  0  0  0
 54 63  1  0  0  0  0
 55 75  1  0  0  0  0
 56 57  1  0  0  0  0
 57 59  1  0  0  0  0
 58 60  1  0  0  0  0
 58 74  1  0  0  0  0
 59 82  1  0  0  0  0
 61 63  1  0  0  0  0
 61 73  1  0  0  0  0
 62 75  1  0  0  0  0
 64 67  1  0  0  0  0
M  CHG  1  75   1
M  ISO  4  36 100  59 101  74 100  82 101
M  END
> <Batch ID>
0080

> <Smiles>
CNC(C)C(=O)NC(C(=O)N1Cc2cc([101O:1][101CH2:1]CCc3cc(C(C)C[100NH:0][100C:0](=O)N4CCCC(n5nc(-c6ccc(Oc7ccc(F)cc7F)cc6)c(C(N)=O)c5N)C4)nc(C)n3)ccc2CC1C(=O)NC1CCCc2ccccc21)C(C)(C)C

> <Shape>
0.216

> <Color>
0.187

> <Negative vol penalty>
0.000

$$$$

  -OEChem-04052318443D

 85 93  0     1  0  0  0  0  0999 V2000
  -22.0212  -10.7823   19.5857 C   0  0  0  0  0  0  0  0  0  0  0  0
  -21.6515  -12.0258   20.0882 C   0  0  0  0  0  0  0  0  0  0  0  0
  -31.9124  -25.3483   20.0597 C   0  0  0  0  0  0  0  0  0  0  0  0
  -31.7189  -26.5940   22.1207 C   0  0  0  0  0  0  0  0  0  0  0  0
  -23.3591  -10.3908   19.6119 C   0  0  0  0  0  0  0  0  0  0  0  0
  -22.6194  -12.8782   20.6181 C   0  0  0  0  0  0  0  0  0  0  0  0
  -22.7057  -18.9940   20.3104 C   0  0  0  0  0  0  0  0  0  0  0  0
  -33.2983  -25.3100   20.2130 C   0  0  0  0  0  0  0  0  0  0  0  0
  -33.1048  -26.5557   22.2740 C   0  0  0  0  0  0  0  0  0  0  0  0
  -22.3275  -19.9842   21.2161 C   0  0  0  0  0  0  0  0  0  0  0  0
  -35.7954  -28.1763   21.0230 C   0  0  0  0  0  0  0  0  0  0  0  0
  -36.4395  -29.3572   21.3921 C   0  0  0  0  0  0  0  0  0  0  0  0
  -24.6152  -20.1707   21.9582 C   0  0  0  0  0  0  0  0  0  0  0  0
  -37.2652  -28.2818   23.3918 C   0  0  0  0  0  0  0  0  0  0  0  0
  -18.8008  -28.6414   21.9978 C   0  0  0  0  0  0  0  0  0  0  0  0
  -31.1227  -25.9904   21.0136 C   0  0  0  0  0  0  0  0  0  0  0  0
  -28.7562  -25.0935   21.3344 C   0  0  0  0  0  0  0  0  0  0  0  0
  -24.3453  -11.2428   20.1336 C   0  0  0  0  0  0  0  0  0  0  0  0
  -24.0418  -18.5763   20.2293 C   0  0  0  0  0  0  0  0  0  0  0  0
  -23.9716  -12.4972   20.6526 C   0  0  0  0  0  0  0  0  0  0  0  0
  -25.0082  -19.1768   21.0488 C   0  0  0  0  0  0  0  0  0  0  0  0
  -33.8945  -25.9137   21.3201 C   0  0  0  0  0  0  0  0  0  0  0  0
  -23.2818  -20.5706   22.0422 C   0  0  0  0  0  0  0  0  0  0  0  0
  -35.8861  -27.0482   21.8383 C   0  0  0  0  0  0  0  0  0  0  0  0
  -37.1744  -29.4100   22.5765 C   0  0  0  0  0  0  0  0  0  0  0  0
  -36.6210  -27.1009   23.0227 C   0  0  0  0  0  0  0  0  0  0  0  0
  -29.6911  -26.0308   20.8555 C   0  0  0  0  0  0  0  0  0  0  0  0
  -20.0045  -27.9956   22.0321 C   0  0  0  0  0  0  0  0  0  0  0  0
  -27.5396  -25.5825   20.9256 C   0  0  0  0  0  0  0  0  0  0  0  0
  -18.6995  -27.0907   23.5744 C   0  0  0  0  0  0  0  0  0  0  0  0
  -28.9685  -23.8887   22.0821 C   0  0  0  0  0  0  0  0  0  0  0  0
  -25.5667  -15.8296   20.7132 C   0  0  0  0  0  0  0  0  0  0  0  0
  -28.1110  -17.4916   19.5788 C   0  0  0  0  0  0  0  0  0  0  0  0
  -29.5943  -20.5208   19.0591 C   0  0  0  0  0  0  0  0  0  0  0  0
  -23.9727  -29.8232   20.2623 C   0  0  0  0  0  0  0  0  0  0  0  0
  -25.7721  -10.7567   20.1838 C   0  0  0  0  0  0  0  0  0  0  0  0
  -24.4382  -17.5260   19.2283 C   0  0  0  0  0  0  0  0  0  0  0  0
  -26.4593  -18.7784   20.9865 C   0  0  0  0  0  0  0  0  0  0  0  0
  -26.7875  -11.8717   20.4199 C   0  0  0  0  0  0  0  0  0  0  0  0
  -26.4051  -29.3201   17.7115 C   0  0  0  0  0  0  0  0  0  0  0  0
  -26.3276  -12.7810   21.5551 C   0  0  0  0  0  0  0  0  0  0  0  0
  -27.4024  -28.3476   18.3437 C   0  0  0  0  0  0  0  0  0  0  0  0
  -25.8600  -30.3140   18.7347 C   0  0  0  0  0  0  0  0  0  0  0  0
  -26.2751  -28.7292   20.5758 C   0  0  0  0  0  0  0  0  0  0  0  0
  -24.9959  -13.4600   21.2130 C   0  0  1  0  0  0  0  0  0  0  0  0
  -25.7380  -16.8146   19.5916 C   0  0  1  0  0  0  0  0  0  0  0  0
  -26.8102  -27.6718   19.5950 C   0  0  2  0  0  0  0  0  0  0  0  0
  -18.1874  -26.2342   24.6728 C   0  0  0  0  0  0  0  0  0  0  0  0
  -31.6893  -21.5576   18.1460 C   0  0  0  0  0  0  0  0  0  0  0  0
  -29.6161  -16.6659   22.1012 C   0  0  0  0  0  0  0  0  0  0  0  0
  -31.2922  -18.4579   21.6038 C   0  0  0  0  0  0  0  0  0  0  0  0
  -30.9706  -16.5738   20.0009 C   0  0  0  0  0  0  0  0  0  0  0  0
  -28.0940  -22.0046   16.9839 C   0  0  0  0  0  0  0  0  0  0  0  0
  -20.8316  -24.6708   22.8455 C   0  0  0  0  0  0  0  0  0  0  0  0
  -21.9988  -23.7406   23.1797 C   0  0  0  0  0  0  0  0  0  0  0  0
  -21.0080  -26.0832   23.4146 C   0  0  0  0  0  0  0  0  0  0  0  0
  -22.1770  -29.2205   21.8659 C   0  0  0  0  0  0  0  0  0  0  0  0
  -21.8054  -22.3591   22.5691 C   0  0  0  0  0  0  0  0  0  1  0  0
  -29.1858  -18.3538   20.1955 C   0  0  1  0  0  0  0  0  0  0  0  0
  -30.2675  -21.1161   17.8356 C   0  0  2  0  0  0  0  0  0  0  0  0
  -21.2161  -28.1975   21.2283 C   0  0  0  0  0  0  0  0  0  0  0  0
  -30.2386  -17.5192   20.9781 C   0  0  0  0  0  0  0  0  0  0  0  0
  -29.1176  -27.0388   20.1929 N   0  0  0  0  0  0  0  0  0  0  0  0
  -19.9137  -27.0417   23.0169 N   0  0  0  0  0  0  0  0  0  0  0  0
  -27.8092  -26.7377   20.2525 N   0  0  0  0  0  0  0  0  0  0  0  0
  -18.0129  -28.0608   22.9622 N   0  3  0  0  0  0  0  0  0  0  0  0
  -26.7961  -17.7425   19.9960 N   0  0  0  0  0  0  0  0  0  0  0  0
  -25.3116  -29.6089   19.8958 N   0  0  0  0  0  0  0  0  0  0  0  0
  -26.2761  -25.1327   21.0796 N   0  0  0  0  0  0  0  0  0  0  0  0
  -30.2820  -23.5341   22.4189 N   0  0  0  0  0  0  0  0  0  0  0  0
  -25.2102  -14.5607   20.2982 N   0  0  0  0  0  0  0  0  0  0  0  0
  -29.7435  -19.1509   19.1083 N   0  0  0  0  0  0  0  0  0  0  0  0
  -23.5310  -29.1109   21.3706 N   0  0  0  0  0  0  0  0  0  0  0  0
  -29.5037  -22.2994   17.3484 N   0  3  0  0  0  0  0  0  0  0  0  0
  -28.0229  -23.1400   22.4267 O   0  0  0  0  0  0  0  0  0  0  0  0
  -25.7462  -16.1935   21.8695 O   0  0  0  0  0  0  0  0  0  0  0  0
  -28.4256  -16.6320   18.7518 O   0  0  0  0  0  0  0  0  0  0  0  0
  -28.9992  -21.2032   19.8901 O   0  0  0  0  0  0  0  0  0  0  0  0
  -23.2246  -30.5883   19.6443 O   0  0  0  0  0  0  0  0  0  0  0  0
  -35.2467  -25.8763   21.4701 O   0  0  0  0  0  0  0  0  0  0  0  0
  -22.9153  -21.5369   22.9276 O   0  0  0  0  0  0  0  0  0  1  0  0
  -37.7941  -30.5436   22.9300 F   0  0  0  0  0  0  0  0  0  0  0  0
  -36.7128  -26.0200   23.8095 F   0  0  0  0  0  0  0  0  0  0  0  0
  -21.9469  -27.0422   21.0281 F   0  0  0  0  0  0  0  0  0  0  0  0
  -20.9614  -28.6428   19.9454 F   0  0  0  0  0  0  0  0  0  0  0  0
  1  2  1  0  0  0  0
  1  5  2  0  0  0  0
  2  6  2  0  0  0  0
  3  8  2  0  0  0  0
  3 16  1  0  0  0  0
  4  9  1  0  0  0  0
  4 16  2  0  0  0  0
  5 18  1  0  0  0  0
  6 20  1  0  0  0  0
  7 10  2  0  0  0  0
  7 19  1  0  0  0  0
  8 22  1  0  0  0  0
  9 22  2  0  0  0  0
 10 23  1  0  0  0  0
 11 12  2  0  0  0  0
 11 24  1  0  0  0  0
 12 25  1  0  0  0  0
 13 21  1  0  0  0  0
 13 23  2  0  0  0  0
 14 25  2  0  0  0  0
 14 26  1  0  0  0  0
 15 28  2  0  0  0  0
 15 66  1  0  0  0  0
 16 27  1  0  0  0  0
 17 27  1  0  0  0  0
 17 29  2  0  0  0  0
 17 31  1  0  0  0  0
 18 20  2  0  0  0  0
 18 36  1  0  0  0  0
 19 21  2  0  0  0  0
 19 37  1  0  0  0  0
 20 45  1  0  0  0  0
 21 38  1  0  0  0  0
 22 80  1  0  0  0  0
 23 81  1  0  0  0  0
 24 26  2  0  0  0  0
 24 80  1  0  0  0  0
 25 82  1  0  0  0  0
 26 83  1  0  0  0  0
 27 63  2  0  0  0  0
 28 61  1  0  0  0  0
 28 64  1  0  0  0  0
 29 65  1  0  0  0  0
 29 69  1  0  0  0  0
 30 48  1  0  0  0  0
 30 64  1  0  0  0  0
 30 66  2  0  0  0  0
 31 70  1  0  0  0  0
 31 75  2  0  0  0  0
 32 46  1  0  0  0  0
 32 71  1  0  0  0  0
 32 76  2  0  0  0  0
 33 59  1  0  0  0  0
 33 67  1  0  0  0  0
 33 77  2  0  0  0  0
 34 60  1  0  0  0  0
 34 72  1  0  0  0  0
 34 78  2  0  0  0  0
 35 68  1  0  0  0  0
 35 73  1  0  0  0  0
 35 79  2  0  0  0  0
 36 39  1  0  0  0  0
 37 46  1  0  0  0  0
 38 67  1  0  0  0  0
 39 41  1  0  0  0  0
 40 42  1  0  0  0  0
 40 43  1  0  0  0  0
 41 45  1  0  0  0  0
 42 47  1  0  0  0  0
 43 68  1  0  0  0  0
 44 47  1  0  0  0  0
 44 68  1  0  0  0  0
 45 71  1  0  0  0  0
 46 67  1  0  0  0  0
 47 65  1  0  0  0  0
 49 60  1  0  0  0  0
 50 62  1  0  0  0  0
 51 62  1  0  0  0  0
 52 62  1  0  0  0  0
 53 74  1  0  0  0  0
 54 55  1  0  0  0  0
 54 56  1  0  0  0  0
 55 58  1  0  0  0  0
 56 64  1  0  0  0  0
 57 61  1  0  0  0  0
 57 73  1  0  0  0  0
 58 81  1  0  0  0  0
 59 62  1  0  0  0  0
 59 72  1  0  0  0  0
 60 74  1  0  0  0  0
 61 84  1  0  0  0  0
 61 85  1  0  0  0  0
 63 65  1  0  0  0  0
M  CHG  2  66   1  74   1
M  ISO  4  35 100  58 101  73 100  81 101
M  END
> <Batch ID>
0080

> <Smiles>
CNC(C)C(=O)NC(C(=O)N1Cc2cc([101O:1][101CH2:1]CCCn3c(C(F)(F)C[100NH:0][100C:0](=O)N4CCCC(n5nc(-c6ccc(Oc7ccc(F)cc7F)cc6)c(C(N)=O)c5N)C4)cnc3C)ccc2CC1C(=O)NC1CCCc2ccccc21)C(C)(C)C

> <Shape>
0.229

> <Color>
0.068

> <Negative vol penalty>
0.000

$$$$

  -OEChem-04052318443D

 88 96  0     1  0  0  0  0  0999 V2000
  -20.6329  -26.4940   25.8662 C   0  0  0  0  0  0  0  0  0  0  0  0
  -21.6120  -26.2841   24.9005 C   0  0  0  0  0  0  0  0  0  0  0  0
  -22.8151   -9.6576   21.8636 C   0  0  0  0  0  0  0  0  0  0  0  0
  -24.4418   -8.8515   20.2695 C   0  0  0  0  0  0  0  0  0  0  0  0
  -19.6310  -27.4387   25.6477 C   0  0  0  0  0  0  0  0  0  0  0  0
  -21.5892  -27.0181   23.7151 C   0  0  0  0  0  0  0  0  0  0  0  0
  -26.1627  -28.7690   22.4260 C   0  0  0  0  0  0  0  0  0  0  0  0
  -22.2250   -8.3943   21.9003 C   0  0  0  0  0  0  0  0  0  0  0  0
  -23.8517   -7.5881   20.3063 C   0  0  0  0  0  0  0  0  0  0  0  0
  -27.0488  -27.8655   21.8410 C   0  0  0  0  0  0  0  0  0  0  0  0
  -22.8325   -5.4026   23.3541 C   0  0  0  0  0  0  0  0  0  0  0  0
  -22.5018   -4.8777   24.6033 C   0  0  0  0  0  0  0  0  0  0  0  0
  -26.5043  -28.7503   19.6639 C   0  0  0  0  0  0  0  0  0  0  0  0
  -20.1817   -4.7596   23.9395 C   0  0  0  0  0  0  0  0  0  0  0  0
  -25.0972  -25.0190   19.2955 C   0  0  0  0  0  0  0  0  0  0  0  0
  -24.0795  -24.3275   19.8896 C   0  0  0  0  0  0  0  0  0  0  0  0
  -23.9235   -9.8863   21.0481 C   0  0  0  0  0  0  0  0  0  0  0  0
  -25.5733  -11.6683   21.8292 C   0  0  0  0  0  0  0  0  0  0  0  0
  -19.6015  -28.1914   24.4632 C   0  0  0  0  0  0  0  0  0  0  0  0
  -25.4314  -29.6642   21.6320 C   0  0  0  0  0  0  0  0  0  0  0  0
  -20.5852  -27.9727   23.4799 C   0  0  0  0  0  0  0  0  0  0  0  0
  -25.6115  -29.6660   20.2414 C   0  0  0  0  0  0  0  0  0  0  0  0
  -22.7433   -7.3596   21.1217 C   0  0  0  0  0  0  0  0  0  0  0  0
  -27.2176  -27.8540   20.4595 C   0  0  0  0  0  0  0  0  0  0  0  0
  -21.8378   -5.6061   22.3975 C   0  0  0  0  0  0  0  0  0  0  0  0
  -21.1764   -4.5562   24.8961 C   0  0  0  0  0  0  0  0  0  0  0  0
  -20.5125   -5.2846   22.6903 C   0  0  0  0  0  0  0  0  0  0  0  0
  -24.5331  -11.1912   21.0093 C   0  0  0  0  0  0  0  0  0  0  0  0
  -25.7886  -12.9542   21.3974 C   0  0  0  0  0  0  0  0  0  0  0  0
  -25.7655  -22.9275   19.5768 C   0  0  0  0  0  0  0  0  0  0  0  0
  -26.2816  -11.0080   22.8866 C   0  0  0  0  0  0  0  0  0  0  0  0
  -22.3415  -30.1586   21.0737 C   0  0  0  0  0  0  0  0  0  0  0  0
  -23.4508  -32.7085   19.4034 C   0  0  0  0  0  0  0  0  0  0  0  0
  -26.0318  -34.1600   17.7068 C   0  0  0  0  0  0  0  0  0  0  0  0
  -26.5100  -16.3149   16.8694 C   0  0  0  0  0  0  0  0  0  0  0  0
  -18.4715  -29.1676   24.2514 C   0  0  0  0  0  0  0  0  0  0  0  0
  -24.4996  -30.6507   22.2807 C   0  0  0  0  0  0  0  0  0  0  0  0
  -24.8654  -30.6202   19.3464 C   0  0  0  0  0  0  0  0  0  0  0  0
  -18.7343  -30.1696   23.1302 C   0  0  0  0  0  0  0  0  0  0  0  0
  -23.1140  -15.8906   18.2798 C   0  0  0  0  0  0  0  0  0  0  0  0
  -19.2725  -29.4576   21.8932 C   0  0  0  0  0  0  0  0  0  0  0  0
  -23.2598  -14.6259   19.1245 C   0  0  0  0  0  0  0  0  0  0  0  0
  -24.0878  -15.9036   17.1054 C   0  0  0  0  0  0  0  0  0  0  0  0
  -25.6557  -14.4475   18.3446 C   0  0  0  0  0  0  0  0  0  0  0  0
  -20.6086  -28.7668   22.1919 C   0  0  1  0  0  0  0  0  0  0  0  0
  -23.4233  -31.1690   21.3317 C   0  0  1  0  0  0  0  0  0  0  0  0
  -24.7207  -14.4246   19.5631 C   0  0  2  0  0  0  0  0  0  0  0  0
  -29.7498  -20.9785   17.8458 C   0  0  0  0  0  0  0  0  0  0  0  0
  -26.6264  -36.2314   16.4210 C   0  0  0  0  0  0  0  0  0  0  0  0
  -25.2548  -20.6800   17.6487 C   0  0  0  0  0  0  0  0  0  0  0  0
  -21.8463  -31.6856   17.0182 C   0  0  0  0  0  0  0  0  0  0  0  0
  -23.1974  -33.1976   15.5496 C   0  0  0  0  0  0  0  0  0  0  0  0
  -21.7620  -34.1634   17.3468 C   0  0  0  0  0  0  0  0  0  0  0  0
  -28.9474  -16.6793   16.9453 C   0  0  0  0  0  0  0  0  0  0  0  0
  -28.1847  -34.8644   19.6115 C   0  0  0  0  0  0  0  0  0  0  0  0
  -26.5816  -21.6881   19.5721 C   0  0  0  0  0  0  0  0  0  0  0  0
  -29.0037  -19.9271   18.6562 C   0  0  0  0  0  0  0  0  0  0  0  0
  -28.5847  -24.6571   19.5099 C   0  0  0  0  0  0  0  0  0  0  0  0
  -26.9031  -18.5314   19.0306 C   0  0  0  0  0  0  0  0  0  0  0  0
  -27.4604  -24.4589   18.4908 C   0  0  0  0  0  0  0  0  0  0  0  0
  -27.6267  -17.1857   18.9664 C   0  0  0  0  0  0  0  0  0  0  0  0
  -28.2741  -25.7254   20.5519 C   0  0  0  0  0  0  0  0  0  1  0  0
  -23.8858  -32.9452   17.9773 C   0  0  1  0  0  0  0  0  0  0  0  0
  -26.6297  -35.5533   17.7822 C   0  0  2  0  0  0  0  0  0  0  0  0
  -26.6645  -20.9705   18.1923 C   0  0  1  0  0  0  0  0  0  0  0  0
  -27.5451  -19.6748   18.1986 C   0  0  1  0  0  0  0  0  0  0  0  0
  -22.6856  -32.9785   16.9894 C   0  0  0  0  0  0  0  0  0  0  0  0
  -24.1165  -12.1002   20.1238 N   0  0  0  0  0  0  0  0  0  0  0  0
  -26.1277  -24.1284   19.1141 N   0  0  0  0  0  0  0  0  0  0  0  0
  -24.8988  -13.1613   20.3848 N   0  0  0  0  0  0  0  0  0  0  0  0
  -24.5204  -23.0362   20.0514 N   0  3  0  0  0  0  0  0  0  0  0  0
  -23.9611  -31.5614   20.0275 N   0  0  0  0  0  0  0  0  0  0  0  0
  -25.4631  -15.6670   17.5456 N   0  0  0  0  0  0  0  0  0  0  0  0
  -26.6504  -13.9168   21.7889 N   0  0  0  0  0  0  0  0  0  0  0  0
  -25.9338   -9.6872   23.2008 N   0  0  0  0  0  0  0  0  0  0  0  0
  -21.6844  -29.7346   22.2129 N   0  0  0  0  0  0  0  0  0  0  0  0
  -24.6826  -34.1672   17.9910 N   0  0  0  0  0  0  0  0  0  0  0  0
  -27.6559  -16.6287   17.6157 N   0  0  0  0  0  0  0  0  0  0  0  0
  -28.0360  -35.4877   18.2712 N   0  3  0  0  0  0  0  0  0  0  0  0
  -27.1847  -11.5782   23.5446 O   0  0  0  0  0  0  0  0  0  0  0  0
  -22.1186  -29.7921   19.9258 O   0  0  0  0  0  0  0  0  0  0  0  0
  -22.6921  -33.5157   19.9461 O   0  0  0  0  0  0  0  0  0  0  0  0
  -26.6946  -33.1654   17.4205 O   0  0  0  0  0  0  0  0  0  0  0  0
  -26.4213  -16.6054   15.6695 O   0  0  0  0  0  0  0  0  0  0  0  0
  -22.1679   -6.1266   21.1575 O   0  0  0  0  0  0  0  0  0  0  0  0
  -28.0813  -26.9726   19.8859 O   0  0  0  0  0  0  0  0  0  1  0  0
  -20.8592   -4.0507   26.0952 F   0  0  0  0  0  0  0  0  0  0  0  0
  -19.5527   -5.4768   21.7750 F   0  0  0  0  0  0  0  0  0  0  0  0
  1  2  1  0  0  0  0
  1  5  2  0  0  0  0
  2  6  2  0  0  0  0
  3  8  2  0  0  0  0
  3 17  1  0  0  0  0
  4  9  1  0  0  0  0
  4 17  2  0  0  0  0
  5 19  1  0  0  0  0
  6 21  1  0  0  0  0
  7 10  2  0  0  0  0
  7 20  1  0  0  0  0
  8 23  1  0  0  0  0
  9 23  2  0  0  0  0
 10 24  1  0  0  0  0
 11 12  2  0  0  0  0
 11 25  1  0  0  0  0
 12 26  1  0  0  0  0
 13 22  1  0  0  0  0
 13 24  2  0  0  0  0
 14 26  2  0  0  0  0
 14 27  1  0  0  0  0
 15 16  2  0  0  0  0
 15 69  1  0  0  0  0
 16 71  1  0  0  0  0
 17 28  1  0  0  0  0
 18 28  1  0  0  0  0
 18 29  2  0  0  0  0
 18 31  1  0  0  0  0
 19 21  2  0  0  0  0
 19 36  1  0  0  0  0
 20 22  2  0  0  0  0
 20 37  1  0  0  0  0
 21 45  1  0  0  0  0
 22 38  1  0  0  0  0
 23 85  1  0  0  0  0
 24 86  1  0  0  0  0
 25 27  2  0  0  0  0
 25 85  1  0  0  0  0
 26 87  1  0  0  0  0
 27 88  1  0  0  0  0
 28 68  2  0  0  0  0
 29 70  1  0  0  0  0
 29 74  1  0  0  0  0
 30 56  1  0  0  0  0
 30 69  1  0  0  0  0
 30 71  2  0  0  0  0
 31 75  1  0  0  0  0
 31 80  2  0  0  0  0
 32 46  1  0  0  0  0
 32 76  1  0  0  0  0
 32 81  2  0  0  0  0
 33 63  1  0  0  0  0
 33 72  1  0  0  0  0
 33 82  2  0  0  0  0
 34 64  1  0  0  0  0
 34 77  1  0  0  0  0
 34 83  2  0  0  0  0
 35 73  1  0  0  0  0
 35 78  1  0  0  0  0
 35 84  2  0  0  0  0
 36 39  1  0  0  0  0
 37 46  1  0  0  0  0
 38 72  1  0  0  0  0
 39 41  1  0  0  0  0
 40 42  1  0  0  0  0
 40 43  1  0  0  0  0
 41 45  1  0  0  0  0
 42 47  1  0  0  0  0
 43 73  1  0  0  0  0
 44 47  1  0  0  0  0
 44 73  1  0  0  0  0
 45 76  1  0  0  0  0
 46 72  1  0  0  0  0
 47 70  1  0  0  0  0
 48 57  1  0  0  0  0
 49 64  1  0  0  0  0
 50 65  1  0  0  0  0
 51 67  1  0  0  0  0
 52 67  1  0  0  0  0
 53 67  1  0  0  0  0
 54 78  1  0  0  0  0
 55 79  1  0  0  0  0
 56 65  1  0  0  0  0
 57 66  1  0  0  0  0
 58 60  1  0  0  0  0
 58 62  1  0  0  0  0
 59 61  1  0  0  0  0
 59 66  1  0  0  0  0
 60 69  1  0  0  0  0
 61 78  1  0  0  0  0
 62 86  1  0  0  0  0
 63 67  1  0  0  0  0
 63 77  1  0  0  0  0
 64 79  1  0  0  0  0
 65 66  1  0  0  0  0
 68 70  1  0  0  0  0
M  CHG  2  71   1  79   1
M  ISO  4  35 100  62 101  78 100  86 101
M  END
> <Batch ID>
0080

> <Smiles>
CCC(CC[100N:0](C)[100C:0](=O)N1CCCC(n2nc(-c3ccc(Oc4ccc(F)cc4F)cc3)c(C(N)=O)c2N)C1)C(C)Cc1nccn1CC[101CH2:1][101O:1]c1ccc2c(c1)CN(C(=O)C(NC(=O)C(C)NC)C(C)(C)C)C(C(=O)NC1CCCc3ccccc31)C2

> <Shape>
0.215

> <Color>
0.100

> <Negative vol penalty>
0.000

$$$$

  -OEChem-04052318443D

 85 93  0     1  0  0  0  0  0999 V2000
  -26.6380  -34.4896   24.4375 C   0  0  0  0  0  0  0  0  0  0  0  0
  -27.0789  -33.2231   24.0673 C   0  0  0  0  0  0  0  0  0  0  0  0
  -26.7860  -13.5735   21.0121 C   0  0  0  0  0  0  0  0  0  0  0  0
  -27.1104  -13.3016   18.6334 C   0  0  0  0  0  0  0  0  0  0  0  0
  -25.3016  -34.6883   24.7816 C   0  0  0  0  0  0  0  0  0  0  0  0
  -26.1837  -32.1543   24.0421 C   0  0  0  0  0  0  0  0  0  0  0  0
  -26.6694  -29.3113   19.8796 C   0  0  0  0  0  0  0  0  0  0  0  0
  -26.2299  -12.2963   21.0823 C   0  0  0  0  0  0  0  0  0  0  0  0
  -26.5543  -12.0243   18.7036 C   0  0  0  0  0  0  0  0  0  0  0  0
  -27.7336  -28.4114   19.8438 C   0  0  0  0  0  0  0  0  0  0  0  0
  -23.2638  -10.8300   20.3918 C   0  0  0  0  0  0  0  0  0  0  0  0
  -22.0953  -10.6728   21.1371 C   0  0  0  0  0  0  0  0  0  0  0  0
  -26.2321  -26.6210   20.4431 C   0  0  0  0  0  0  0  0  0  0  0  0
  -23.2236   -9.0903   22.5723 C   0  0  0  0  0  0  0  0  0  0  0  0
  -28.8574  -22.7836   14.4824 C   0  0  0  0  0  0  0  0  0  0  0  0
  -27.2262  -14.0762   19.7876 C   0  0  0  0  0  0  0  0  0  0  0  0
  -29.1569  -15.7419   19.8596 C   0  0  0  0  0  0  0  0  0  0  0  0
  -24.3875  -33.6234   24.7512 C   0  0  0  0  0  0  0  0  0  0  0  0
  -25.3783  -28.8740   20.2087 C   0  0  0  0  0  0  0  0  0  0  0  0
  -24.8341  -32.3386   24.3874 C   0  0  0  0  0  0  0  0  0  0  0  0
  -25.1527  -27.5169   20.4799 C   0  0  0  0  0  0  0  0  0  0  0  0
  -26.1141  -11.5216   19.9281 C   0  0  0  0  0  0  0  0  0  0  0  0
  -27.5157  -27.0666   20.1284 C   0  0  0  0  0  0  0  0  0  0  0  0
  -24.4122  -10.1173   20.7367 C   0  0  0  0  0  0  0  0  0  0  0  0
  -22.0752   -9.8029   22.2273 C   0  0  0  0  0  0  0  0  0  0  0  0
  -24.3921   -9.2475   21.8269 C   0  0  0  0  0  0  0  0  0  0  0  0
  -27.8002  -15.3958   19.7144 C   0  0  0  0  0  0  0  0  0  0  0  0
  -27.9432  -23.4076   13.6813 C   0  0  0  0  0  0  0  0  0  0  0  0
  -29.1815  -17.1066   19.7061 C   0  0  0  0  0  0  0  0  0  0  0  0
  -27.0361  -23.1547   15.6847 C   0  0  0  0  0  0  0  0  0  0  0  0
  -30.2935  -14.9047   20.1108 C   0  0  0  0  0  0  0  0  0  0  0  0
  -23.3176  -29.5200   22.5411 C   0  0  0  0  0  0  0  0  0  0  0  0
  -25.4941  -20.7674   16.8292 C   0  0  0  0  0  0  0  0  0  0  0  0
  -21.3423  -27.6360   20.7886 C   0  0  0  0  0  0  0  0  0  0  0  0
  -21.0087  -25.1467   18.4780 C   0  0  0  0  0  0  0  0  0  0  0  0
  -22.9631  -33.8770   25.1771 C   0  0  0  0  0  0  0  0  0  0  0  0
  -24.2360  -29.8525   20.2168 C   0  0  0  0  0  0  0  0  0  0  0  0
  -23.7818  -26.9932   20.8189 C   0  0  0  0  0  0  0  0  0  0  0  0
  -21.9972  -32.7697   24.7632 C   0  0  0  0  0  0  0  0  0  0  0  0
  -26.4834  -21.0010   20.3211 C   0  0  0  0  0  0  0  0  0  0  0  0
  -22.5828  -31.4001   25.0920 C   0  0  0  0  0  0  0  0  0  0  0  0
  -27.0342  -19.5987   20.5772 C   0  0  0  0  0  0  0  0  0  0  0  0
  -25.3015  -20.9721   19.3556 C   0  0  0  0  0  0  0  0  0  0  0  0
  -26.1528  -18.8973   18.3091 C   0  0  0  0  0  0  0  0  0  0  0  0
  -23.8879  -31.1592   24.3239 C   0  0  1  0  0  0  0  0  0  0  0  0
  -23.0575  -29.3882   21.0671 C   0  0  1  0  0  0  0  0  0  0  0  0
  -27.3657  -18.8860   19.2544 C   0  0  2  0  0  0  0  0  0  0  0  0
  -28.0082  -23.8190   12.2766 C   0  0  0  0  0  0  0  0  0  0  0  0
  -19.2694  -23.7961   17.2747 C   0  0  0  0  0  0  0  0  0  0  0  0
  -20.8778  -25.9884   23.3144 C   0  0  0  0  0  0  0  0  0  0  0  0
  -19.9399  -24.1698   21.8717 C   0  0  0  0  0  0  0  0  0  0  0  0
  -18.8258  -26.4004   21.9455 C   0  0  0  0  0  0  0  0  0  0  0  0
  -21.9029  -26.1349   15.8355 C   0  0  0  0  0  0  0  0  0  0  0  0
  -26.0620  -23.2052   16.8034 C   0  0  0  0  0  0  0  0  0  0  0  0
  -29.2630  -24.2486   18.0183 C   0  0  0  0  0  0  0  0  0  0  0  0
  -29.9278  -22.9418   17.5811 C   0  0  0  0  0  0  0  0  0  0  0  0
  -30.2629  -25.1727   18.7195 C   0  0  0  0  0  0  0  0  0  0  0  0
  -28.9197  -22.0014   16.9168 C   0  0  0  0  0  0  0  0  0  0  0  0
  -24.0503  -22.2518   15.4601 C   0  0  0  0  0  0  0  0  0  0  0  0
  -29.6174  -26.4710   19.1882 C   0  0  0  0  0  0  0  0  0  1  0  0
  -24.9254  -22.1592   16.7130 C   0  0  1  0  0  0  0  0  0  0  0  0
  -21.0365  -26.1584   20.7430 C   0  0  1  0  0  0  0  0  0  0  0  0
  -20.1475  -25.0371   17.2327 C   0  0  2  0  0  0  0  0  0  0  0  0
  -20.1963  -25.6891   21.9642 C   0  0  0  0  0  0  0  0  0  0  0  0
  -27.0193  -16.4552   19.4863 N   0  0  0  0  0  0  0  0  0  0  0  0
  -28.2698  -22.6403   15.7162 N   0  0  0  0  0  0  0  0  0  0  0  0
  -27.8883  -17.4804   19.4871 N   0  0  0  0  0  0  0  0  0  0  0  0
  -26.8259  -23.6250   14.4510 N   0  3  0  0  0  0  0  0  0  0  0  0
  -22.6986  -27.9902   20.8202 N   0  0  0  0  0  0  0  0  0  0  0  0
  -25.6493  -20.2608   18.1197 N   0  0  0  0  0  0  0  0  0  0  0  0
  -30.1829  -18.0113   19.7385 N   0  0  0  0  0  0  0  0  0  0  0  0
  -30.0905  -13.5242   20.2417 N   0  0  0  0  0  0  0  0  0  0  0  0
  -23.6074  -30.8083   22.9482 N   0  0  0  0  0  0  0  0  0  0  0  0
  -20.4033  -25.9123   19.4520 N   0  0  0  0  0  0  0  0  0  0  0  0
  -22.9260  -21.2846   15.4967 N   0  3  0  0  0  0  0  0  0  0  0  0
  -21.0040  -24.9658   16.0152 N   0  3  0  0  0  0  0  0  0  0  0  0
  -31.4524  -15.3691   20.2323 O   0  0  0  0  0  0  0  0  0  0  0  0
  -23.2583  -28.5267   23.2563 O   0  0  0  0  0  0  0  0  0  0  0  0
  -25.7934  -20.1518   15.8027 O   0  0  0  0  0  0  0  0  0  0  0  0
  -20.4123  -28.4463   20.7888 O   0  0  0  0  0  0  0  0  0  0  0  0
  -22.1070  -24.6042   18.5783 O   0  0  0  0  0  0  0  0  0  0  0  0
  -25.5717  -10.2751   19.9963 O   0  0  0  0  0  0  0  0  0  0  0  0
  -28.5528  -26.1862   20.0948 O   0  0  0  0  0  0  0  0  0  1  0  0
  -20.9534   -9.6532   22.9438 F   0  0  0  0  0  0  0  0  0  0  0  0
  -25.4926   -8.5610   22.1638 F   0  0  0  0  0  0  0  0  0  0  0  0
  1  2  1  0  0  0  0
  1  5  2  0  0  0  0
  2  6  2  0  0  0  0
  3  8  2  0  0  0  0
  3 16  1  0  0  0  0
  4  9  1  0  0  0  0
  4 16  2  0  0  0  0
  5 18  1  0  0  0  0
  6 20  1  0  0  0  0
  7 10  2  0  0  0  0
  7 19  1  0  0  0  0
  8 22  1  0  0  0  0
  9 22  2  0  0  0  0
 10 23  1  0  0  0  0
 11 12  2  0  0  0  0
 11 24  1  0  0  0  0
 12 25  1  0  0  0  0
 13 21  1  0  0  0  0
 13 23  2  0  0  0  0
 14 25  2  0  0  0  0
 14 26  1  0  0  0  0
 15 28  2  0  0  0  0
 15 66  1  0  0  0  0
 16 27  1  0  0  0  0
 17 27  1  0  0  0  0
 17 29  2  0  0  0  0
 17 31  1  0  0  0  0
 18 20  2  0  0  0  0
 18 36  1  0  0  0  0
 19 21  2  0  0  0  0
 19 37  1  0  0  0  0
 20 45  1  0  0  0  0
 21 38  1  0  0  0  0
 22 82  1  0  0  0  0
 23 83  1  0  0  0  0
 24 26  2  0  0  0  0
 24 82  1  0  0  0  0
 25 84  1  0  0  0  0
 26 85  1  0  0  0  0
 27 65  2  0  0  0  0
 28 48  1  0  0  0  0
 28 68  1  0  0  0  0
 29 67  1  0  0  0  0
 29 71  1  0  0  0  0
 30 54  1  0  0  0  0
 30 66  1  0  0  0  0
 30 68  2  0  0  0  0
 31 72  1  0  0  0  0
 31 77  2  0  0  0  0
 32 46  1  0  0  0  0
 32 73  1  0  0  0  0
 32 78  2  0  0  0  0
 33 61  1  0  0  0  0
 33 70  1  0  0  0  0
 33 79  2  0  0  0  0
 34 62  1  0  0  0  0
 34 69  1  0  0  0  0
 34 80  2  0  0  0  0
 35 63  1  0  0  0  0
 35 74  1  0  0  0  0
 35 81  2  0  0  0  0
 36 39  1  0  0  0  0
 37 46  1  0  0  0  0
 38 69  1  0  0  0  0
 39 41  1  0  0  0  0
 40 42  1  0  0  0  0
 40 43  1  0  0  0  0
 41 45  1  0  0  0  0
 42 47  1  0  0  0  0
 43 70  1  0  0  0  0
 44 47  1  0  0  0  0
 44 70  1  0  0  0  0
 45 73  1  0  0  0  0
 46 69  1  0  0  0  0
 47 67  1  0  0  0  0
 49 63  1  0  0  0  0
 50 64  1  0  0  0  0
 51 64  1  0  0  0  0
 52 64  1  0  0  0  0
 53 76  1  0  0  0  0
 54 61  1  0  0  0  0
 55 56  1  0  0  0  0
 55 57  1  0  0  0  0
 56 58  1  0  0  0  0
 57 60  1  0  0  0  0
 58 66  1  0  0  0  0
 59 61  1  0  0  0  0
 59 75  1  0  0  0  0
 60 83  1  0  0  0  0
 62 64  1  0  0  0  0
 62 74  1  0  0  0  0
 63 76  1  0  0  0  0
 65 67  1  0  0  0  0
M  CHG  3  68   1  75   1  76   1
M  ISO  4  33 100  60 101  61 100  83 101
M  END
> <Batch ID>
0080

> <Smiles>
CNC(C)C(=O)NC(C(=O)N1Cc2cc([101O:1][101CH2:1]CCCCn3cc(C)nc3C[100CH:0](CN)[100C:0](=O)N3CCCC(n4nc(-c5ccc(Oc6ccc(F)cc6F)cc5)c(C(N)=O)c4N)C3)ccc2CC1C(=O)NC1CCCc2ccccc21)C(C)(C)C

> <Shape>
0.270

> <Color>
0.086

> <Negative vol penalty>
0.000

$$$$

  -OEChem-04052318443D

 84 92  0     1  0  0  0  0  0999 V2000
  -28.8463  -24.2072   29.4191 C   0  0  0  0  0  0  0  0  0  0  0  0
  -28.8861  -25.0072   28.2817 C   0  0  0  0  0  0  0  0  0  0  0  0
  -25.0023  -13.0980   21.7879 C   0  0  0  0  0  0  0  0  0  0  0  0
  -25.6514  -13.3007   19.4695 C   0  0  0  0  0  0  0  0  0  0  0  0
  -28.0038  -23.0970   29.4600 C   0  0  0  0  0  0  0  0  0  0  0  0
  -28.0840  -24.6969   27.1840 C   0  0  0  0  0  0  0  0  0  0  0  0
  -25.4054  -28.6480   23.3474 C   0  0  0  0  0  0  0  0  0  0  0  0
  -29.5809  -25.0269   18.3155 C   0  0  0  0  0  0  0  0  0  0  0  0
  -24.1010  -12.0894   21.4474 C   0  0  0  0  0  0  0  0  0  0  0  0
  -24.7500  -12.2920   19.1290 C   0  0  0  0  0  0  0  0  0  0  0  0
  -25.7611  -29.1150   22.0828 C   0  0  0  0  0  0  0  0  0  0  0  0
  -24.2134   -8.7885   20.7234 C   0  0  0  0  0  0  0  0  0  0  0  0
  -24.1853   -7.6468   21.5243 C   0  0  0  0  0  0  0  0  0  0  0  0
  -29.1557  -26.2467   17.8013 C   0  0  0  0  0  0  0  0  0  0  0  0
  -24.3363  -27.4502   21.0739 C   0  0  0  0  0  0  0  0  0  0  0  0
  -21.8629   -8.0667   22.0412 C   0  0  0  0  0  0  0  0  0  0  0  0
  -25.7775  -13.7037   20.7989 C   0  0  0  0  0  0  0  0  0  0  0  0
  -28.0593  -14.5919   21.5145 C   0  0  0  0  0  0  0  0  0  0  0  0
  -27.1839  -22.7785   28.3660 C   0  0  0  0  0  0  0  0  0  0  0  0
  -24.5195  -27.5697   23.4847 C   0  0  0  0  0  0  0  0  0  0  0  0
  -27.2307  -23.5807   27.2098 C   0  0  0  0  0  0  0  0  0  0  0  0
  -23.9690  -26.9731   22.3414 C   0  0  0  0  0  0  0  0  0  0  0  0
  -29.3536  -24.7258   19.6538 C   0  0  0  0  0  0  0  0  0  0  0  0
  -23.9749  -11.6864   20.1180 C   0  0  0  0  0  0  0  0  0  0  0  0
  -25.2287  -28.5142   20.9457 C   0  0  0  0  0  0  0  0  0  0  0  0
  -23.0663   -9.5693   20.5815 C   0  0  0  0  0  0  0  0  0  0  0  0
  -23.0100   -7.2859   22.1831 C   0  0  0  0  0  0  0  0  0  0  0  0
  -21.8910   -9.2084   21.2403 C   0  0  0  0  0  0  0  0  0  0  0  0
  -26.7083  -14.7460   21.1499 C   0  0  0  0  0  0  0  0  0  0  0  0
  -28.5131  -27.1240   18.6599 C   0  0  0  0  0  0  0  0  0  0  0  0
  -28.7022  -25.6712   20.4296 C   0  0  0  0  0  0  0  0  0  0  0  0
  -28.4998  -15.8716   21.7488 C   0  0  0  0  0  0  0  0  0  0  0  0
  -28.8457  -13.3987   21.6308 C   0  0  0  0  0  0  0  0  0  0  0  0
  -24.7166  -24.6481   24.7213 C   0  0  0  0  0  0  0  0  0  0  0  0
  -21.5384  -24.5827   24.0755 C   0  0  0  0  0  0  0  0  0  0  0  0
  -18.9316  -25.7858   22.2306 C   0  0  0  0  0  0  0  0  0  0  0  0
  -28.8762  -21.1216   20.2515 C   0  0  0  0  0  0  0  0  0  0  0  0
  -26.3245  -21.5413   28.4388 C   0  0  0  0  0  0  0  0  0  0  0  0
  -24.1252  -27.0951   24.8565 C   0  0  0  0  0  0  0  0  0  0  0  0
  -22.9980  -25.8256   22.4352 C   0  0  0  0  0  0  0  0  0  0  0  0
  -25.2297  -21.4967   27.3760 C   0  0  0  0  0  0  0  0  0  0  0  0
  -25.9381  -20.2144   22.1597 C   0  0  0  0  0  0  0  0  0  0  0  0
  -25.7979  -21.8632   26.0086 C   0  0  0  0  0  0  0  0  0  0  0  0
  -25.9926  -18.6870   22.0943 C   0  0  0  0  0  0  0  0  0  0  0  0
  -26.3941  -20.8407   20.8452 C   0  0  0  0  0  0  0  0  0  0  0  0
  -27.8062  -18.8875   20.3307 C   0  0  0  0  0  0  0  0  0  0  0  0
  -26.3575  -23.2909   26.0084 C   0  0  1  0  0  0  0  0  0  0  0  0
  -23.6136  -25.6579   24.8674 C   0  0  1  0  0  0  0  0  0  0  0  0
  -27.3786  -18.1948   21.6373 C   0  0  2  0  0  0  0  0  0  0  0  0
  -29.3941  -26.1407   22.7933 C   0  0  0  0  0  0  0  0  0  0  0  0
  -16.4586  -25.5129   21.9030 C   0  0  0  0  0  0  0  0  0  0  0  0
  -26.2476  -29.8097   17.0035 C   0  0  0  0  0  0  0  0  0  0  0  0
  -22.0298  -21.9888   22.5458 C   0  0  0  0  0  0  0  0  0  0  0  0
  -19.7851  -22.2766   21.4751 C   0  0  0  0  0  0  0  0  0  0  0  0
  -19.9589  -21.9968   23.9478 C   0  0  0  0  0  0  0  0  0  0  0  0
  -18.4028  -28.5955   22.9953 C   0  0  0  0  0  0  0  0  0  0  0  0
  -29.8078  -23.4211   20.2108 C   0  0  0  0  0  0  0  0  0  0  0  0
  -28.0365  -28.4566   18.1350 C   0  0  0  0  0  0  0  0  0  0  0  0
  -28.4282  -25.4010   21.8727 C   0  0  0  0  0  0  0  0  0  0  0  0
  -25.5792  -28.0160   18.6468 C   0  0  0  0  0  0  0  0  0  1  0  0
  -20.6963  -24.1724   22.8917 C   0  0  1  0  0  0  0  0  0  0  0  0
  -17.5525  -26.2748   22.6348 C   0  0  2  0  0  0  0  0  0  0  0  0
  -26.5994  -28.4312   17.5772 C   0  0  1  0  0  0  0  0  0  0  0  0
  -20.6373  -22.6290   22.7129 C   0  0  0  0  0  0  0  0  0  0  0  0
  -26.3163  -16.0229   21.1513 N   0  0  0  0  0  0  0  0  0  0  0  0
  -28.2745  -26.8667   19.9654 N   0  0  0  0  0  0  0  0  0  0  0  0
  -27.4276  -16.6827   21.5196 N   0  0  0  0  0  0  0  0  0  0  0  0
  -22.6483  -25.3934   23.7985 N   0  0  0  0  0  0  0  0  0  0  0  0
  -27.7276  -20.3449   20.4764 N   0  0  0  0  0  0  0  0  0  0  0  0
  -29.6958  -16.3708   22.1265 N   0  0  0  0  0  0  0  0  0  0  0  0
  -28.2366  -12.1674   21.3534 N   0  0  0  0  0  0  0  0  0  0  0  0
  -25.2820  -24.2552   25.9194 N   0  0  0  0  0  0  0  0  0  0  0  0
  -19.3938  -24.8024   23.0793 N   0  0  0  0  0  0  0  0  0  0  0  0
  -28.7154  -22.4934   20.4033 N   0  0  0  0  0  0  0  0  0  0  0  0
  -17.4049  -27.7245   22.3227 N   0  3  0  0  0  0  0  0  0  0  0  0
  -30.0484  -13.4224   21.9866 O   0  0  0  0  0  0  0  0  0  0  0  0
  -25.0305  -24.2535   23.6044 O   0  0  0  0  0  0  0  0  0  0  0  0
  -21.2191  -24.2040   25.2052 O   0  0  0  0  0  0  0  0  0  0  0  0
  -19.5366  -26.2290   21.2569 O   0  0  0  0  0  0  0  0  0  0  0  0
  -29.9667  -20.6286   19.9432 O   0  0  0  0  0  0  0  0  0  0  0  0
  -23.0956  -10.7021   19.7854 O   0  0  0  0  0  0  0  0  0  0  0  0
  -25.5747  -28.9677   19.7102 O   0  0  0  0  0  0  0  0  0  1  0  0
  -22.9827   -6.1886   22.9509 F   0  0  0  0  0  0  0  0  0  0  0  0
  -20.7855   -9.9539   21.1069 F   0  0  0  0  0  0  0  0  0  0  0  0
  1  2  1  0  0  0  0
  1  5  2  0  0  0  0
  2  6  2  0  0  0  0
  3  9  2  0  0  0  0
  3 17  1  0  0  0  0
  4 10  1  0  0  0  0
  4 17  2  0  0  0  0
  5 19  1  0  0  0  0
  6 21  1  0  0  0  0
  7 11  2  0  0  0  0
  7 20  1  0  0  0  0
  8 14  2  0  0  0  0
  8 23  1  0  0  0  0
  9 24  1  0  0  0  0
 10 24  2  0  0  0  0
 11 25  1  0  0  0  0
 12 13  2  0  0  0  0
 12 26  1  0  0  0  0
 13 27  1  0  0  0  0
 14 30  1  0  0  0  0
 15 22  1  0  0  0  0
 15 25  2  0  0  0  0
 16 27  2  0  0  0  0
 16 28  1  0  0  0  0
 17 29  1  0  0  0  0
 18 29  1  0  0  0  0
 18 32  2  0  0  0  0
 18 33  1  0  0  0  0
 19 21  2  0  0  0  0
 19 38  1  0  0  0  0
 20 22  2  0  0  0  0
 20 39  1  0  0  0  0
 21 47  1  0  0  0  0
 22 40  1  0  0  0  0
 23 31  2  0  0  0  0
 23 57  1  0  0  0  0
 24 81  1  0  0  0  0
 25 82  1  0  0  0  0
 26 28  2  0  0  0  0
 26 81  1  0  0  0  0
 27 83  1  0  0  0  0
 28 84  1  0  0  0  0
 29 65  2  0  0  0  0
 30 58  1  0  0  0  0
 30 66  2  0  0  0  0
 31 59  1  0  0  0  0
 31 66  1  0  0  0  0
 32 67  1  0  0  0  0
 32 70  1  0  0  0  0
 33 71  1  0  0  0  0
 33 76  2  0  0  0  0
 34 48  1  0  0  0  0
 34 72  1  0  0  0  0
 34 77  2  0  0  0  0
 35 61  1  0  0  0  0
 35 68  1  0  0  0  0
 35 78  2  0  0  0  0
 36 62  1  0  0  0  0
 36 73  1  0  0  0  0
 36 79  2  0  0  0  0
 37 69  1  0  0  0  0
 37 74  1  0  0  0  0
 37 80  2  0  0  0  0
 38 41  1  0  0  0  0
 39 48  1  0  0  0  0
 40 68  1  0  0  0  0
 41 43  1  0  0  0  0
 42 44  1  0  0  0  0
 42 45  1  0  0  0  0
 43 47  1  0  0  0  0
 44 49  1  0  0  0  0
 45 69  1  0  0  0  0
 46 49  1  0  0  0  0
 46 69  1  0  0  0  0
 47 72  1  0  0  0  0
 48 68  1  0  0  0  0
 49 67  1  0  0  0  0
 50 59  1  0  0  0  0
 51 62  1  0  0  0  0
 52 63  1  0  0  0  0
 53 64  1  0  0  0  0
 54 64  1  0  0  0  0
 55 64  1  0  0  0  0
 56 75  1  0  0  0  0
 57 74  1  0  0  0  0
 58 63  1  0  0  0  0
 60 63  1  0  0  0  0
 60 82  1  0  0  0  0
 61 64  1  0  0  0  0
 61 73  1  0  0  0  0
 62 75  1  0  0  0  0
 65 67  1  0  0  0  0
M  CHG  1  75   1
M  ISO  4  37 100  60 101  74 100  82 101
M  END
> <Batch ID>
0080

> <Smiles>
CCc1nc(CC(C)[101CH2:1][101O:1]c2ccc3c(c2)CN(C(=O)C(NC(=O)C(C)NC)C(C)(C)C)C(C(=O)NC2CCCc4ccccc42)C3)ccc1C[100NH:0][100C:0](=O)N1CCCC(n2nc(-c3ccc(Oc4ccc(F)cc4F)cc3)c(C(N)=O)c2N)C1

> <Shape>
0.219

> <Color>
0.057

> <Negative vol penalty>
0.000

$$$$

  -OEChem-04052318443D

 86 94  0     1  0  0  0  0  0999 V2000
  -20.2470  -26.1585   25.6485 C   0  0  0  0  0  0  0  0  0  0  0  0
  -21.2862  -25.9478   24.7479 C   0  0  0  0  0  0  0  0  0  0  0  0
  -24.7808   -8.3647   21.4006 C   0  0  0  0  0  0  0  0  0  0  0  0
  -23.2150  -10.1360   20.9028 C   0  0  0  0  0  0  0  0  0  0  0  0
  -19.2618  -27.1037   25.3657 C   0  0  0  0  0  0  0  0  0  0  0  0
  -21.3402  -26.6814   23.5633 C   0  0  0  0  0  0  0  0  0  0  0  0
  -25.9883  -28.4294   22.5711 C   0  0  0  0  0  0  0  0  0  0  0  0
  -23.9034   -7.8585   22.3595 C   0  0  0  0  0  0  0  0  0  0  0  0
  -22.3376   -9.6298   21.8617 C   0  0  0  0  0  0  0  0  0  0  0  0
  -26.9097  -27.5251   22.0446 C   0  0  0  0  0  0  0  0  0  0  0  0
  -21.0837   -5.9935   22.4183 C   0  0  0  0  0  0  0  0  0  0  0  0
  -20.8654   -4.6159   22.4344 C   0  0  0  0  0  0  0  0  0  0  0  0
  -26.5071  -28.4096   19.8367 C   0  0  0  0  0  0  0  0  0  0  0  0
  -30.4403  -21.5707   19.1143 C   0  0  0  0  0  0  0  0  0  0  0  0
  -28.0918  -21.1502   18.8108 C   0  0  0  0  0  0  0  0  0  0  0  0
  -21.6994   -4.5102   24.6994 C   0  0  0  0  0  0  0  0  0  0  0  0
  -24.4367   -9.5034   20.6722 C   0  0  0  0  0  0  0  0  0  0  0  0
  -25.3963   -9.6907   18.3160 C   0  0  0  0  0  0  0  0  0  0  0  0
  -19.3091  -27.8562   24.1815 C   0  0  0  0  0  0  0  0  0  0  0  0
  -25.3102  -29.3247   21.7314 C   0  0  0  0  0  0  0  0  0  0  0  0
  -20.3540  -27.6366   23.2637 C   0  0  0  0  0  0  0  0  0  0  0  0
  -25.5795  -29.3260   20.3553 C   0  0  0  0  0  0  0  0  0  0  0  0
  -29.1167  -21.8576   19.4291 C   0  0  0  0  0  0  0  0  0  0  0  0
  -22.6818   -8.4910   22.5901 C   0  0  0  0  0  0  0  0  0  0  0  0
  -27.1671  -27.5132   20.6769 C   0  0  0  0  0  0  0  0  0  0  0  0
  -21.6099   -6.6294   23.5428 C   0  0  0  0  0  0  0  0  0  0  0  0
  -21.1732   -3.8743   23.5749 C   0  0  0  0  0  0  0  0  0  0  0  0
  -21.9177   -5.8878   24.6833 C   0  0  0  0  0  0  0  0  0  0  0  0
  -25.3429  -10.0271   19.6819 C   0  0  0  0  0  0  0  0  0  0  0  0
  -30.6840  -20.5750   18.1821 C   0  0  0  0  0  0  0  0  0  0  0  0
  -28.4406  -20.1734   17.8920 C   0  0  0  0  0  0  0  0  0  0  0  0
  -26.4203  -10.4559   17.8137 C   0  0  0  0  0  0  0  0  0  0  0  0
  -24.5920   -8.7690   17.5681 C   0  0  0  0  0  0  0  0  0  0  0  0
  -22.2630  -29.8208   20.9751 C   0  0  0  0  0  0  0  0  0  0  0  0
  -23.4791  -32.3696   19.3791 C   0  0  0  0  0  0  0  0  0  0  0  0
  -26.1649  -33.8191   17.8520 C   0  0  0  0  0  0  0  0  0  0  0  0
  -28.8717  -15.6348   19.5515 C   0  0  0  0  0  0  0  0  0  0  0  0
  -18.1957  -28.8330   23.8972 C   0  0  0  0  0  0  0  0  0  0  0  0
  -24.3391  -30.3120   22.3185 C   0  0  0  0  0  0  0  0  0  0  0  0
  -24.8932  -30.2804   19.4139 C   0  0  0  0  0  0  0  0  0  0  0  0
  -18.5308  -29.8345   22.7950 C   0  0  0  0  0  0  0  0  0  0  0  0
  -30.5374  -12.5190   19.1113 C   0  0  0  0  0  0  0  0  0  0  0  0
  -19.1471  -29.1218   21.5954 C   0  0  0  0  0  0  0  0  0  0  0  0
  -29.3998  -11.4967   19.0844 C   0  0  0  0  0  0  0  0  0  0  0  0
  -30.2544  -13.6525   20.0947 C   0  0  0  0  0  0  0  0  0  0  0  0
  -27.8237  -13.3119   19.8716 C   0  0  0  0  0  0  0  0  0  0  0  0
  -20.4608  -28.4303   21.9797 C   0  0  1  0  0  0  0  0  0  0  0  0
  -23.3265  -30.8306   21.3021 C   0  0  1  0  0  0  0  0  0  0  0  0
  -28.0381  -12.1790   18.8533 C   0  0  2  0  0  0  0  0  0  0  0  0
  -32.0923  -20.2389   17.8208 C   0  0  0  0  0  0  0  0  0  0  0  0
  -27.3736  -19.6956   15.6900 C   0  0  0  0  0  0  0  0  0  0  0  0
  -26.8424  -35.8898   16.6066 C   0  0  0  0  0  0  0  0  0  0  0  0
  -26.3518  -17.0549   16.7363 C   0  0  0  0  0  0  0  0  0  0  0  0
  -22.0309  -31.3470   16.8958 C   0  0  0  0  0  0  0  0  0  0  0  0
  -23.4748  -32.8577   15.5169 C   0  0  0  0  0  0  0  0  0  0  0  0
  -21.9272  -33.8249   17.2176 C   0  0  0  0  0  0  0  0  0  0  0  0
  -28.1911  -34.5227   19.8912 C   0  0  0  0  0  0  0  0  0  0  0  0
  -28.7942  -22.9311   20.4377 C   0  0  0  0  0  0  0  0  0  0  0  0
  -28.6239  -24.3222   19.8235 C   0  0  0  0  0  0  0  0  0  0  0  0
  -27.3574  -17.5211   18.9964 C   0  0  0  0  0  0  0  0  0  0  0  0
  -28.2142  -25.3839   20.8376 C   0  0  0  0  0  0  0  0  0  1  0  0
  -27.3662  -19.3959   17.2080 C   0  0  1  0  0  0  0  0  0  0  0  0
  -24.0052  -32.6056   17.9839 C   0  0  1  0  0  0  0  0  0  0  0  0
  -26.7576  -35.2121   17.9654 C   0  0  2  0  0  0  0  0  0  0  0  0
  -27.4292  -17.8492   17.4902 C   0  0  2  0  0  0  0  0  0  0  0  0
  -22.8712  -32.6394   16.9208 C   0  0  0  0  0  0  0  0  0  0  0  0
  -26.2601  -10.9352   20.0256 N   0  0  0  0  0  0  0  0  0  0  0  0
  -29.7148  -19.8664   17.5606 N   0  0  0  0  0  0  0  0  0  0  0  0
  -26.8996  -11.1758   18.8683 N   0  0  0  0  0  0  0  0  0  0  0  0
  -23.9474  -31.2223   20.0351 N   0  0  0  0  0  0  0  0  0  0  0  0
  -28.9491  -14.2583   19.8202 N   0  0  0  0  0  0  0  0  0  0  0  0
  -26.9485  -10.5763   16.5772 N   0  0  0  0  0  0  0  0  0  0  0  0
  -23.5832   -8.0649   18.2397 N   0  0  0  0  0  0  0  0  0  0  0  0
  -21.5336  -29.3975   22.0697 N   0  0  0  0  0  0  0  0  0  0  0  0
  -24.8002  -33.8272   18.0486 N   0  0  0  0  0  0  0  0  0  0  0  0
  -27.5977  -16.1270   19.2957 N   0  0  0  0  0  0  0  0  0  0  0  0
  -28.1294  -35.1458   18.5440 N   0  3  0  0  0  0  0  0  0  0  0  0
  -24.7737   -8.5633   16.3441 O   0  0  0  0  0  0  0  0  0  0  0  0
  -22.1142  -29.4541   19.8153 O   0  0  0  0  0  0  0  0  0  0  0  0
  -22.6875  -33.1774   19.8716 O   0  0  0  0  0  0  0  0  0  0  0  0
  -26.8441  -32.8240   17.6092 O   0  0  0  0  0  0  0  0  0  0  0  0
  -29.8650  -16.3697   19.5353 O   0  0  0  0  0  0  0  0  0  0  0  0
  -21.8253   -7.9973   23.5255 O   0  0  0  0  0  0  0  0  0  0  0  0
  -28.0654  -26.6311   20.1603 O   0  0  0  0  0  0  0  0  0  1  0  0
  -20.9621   -2.5516   23.5907 F   0  0  0  0  0  0  0  0  0  0  0  0
  -22.4223   -6.4933   25.7670 F   0  0  0  0  0  0  0  0  0  0  0  0
  1  2  1  0  0  0  0
  1  5  2  0  0  0  0
  2  6  2  0  0  0  0
  3  8  2  0  0  0  0
  3 17  1  0  0  0  0
  4  9  1  0  0  0  0
  4 17  2  0  0  0  0
  5 19  1  0  0  0  0
  6 21  1  0  0  0  0
  7 10  2  0  0  0  0
  7 20  1  0  0  0  0
  8 24  1  0  0  0  0
  9 24  2  0  0  0  0
 10 25  1  0  0  0  0
 11 12  2  0  0  0  0
 11 26  1  0  0  0  0
 12 27  1  0  0  0  0
 13 22  1  0  0  0  0
 13 25  2  0  0  0  0
 14 23  1  0  0  0  0
 14 30  2  0  0  0  0
 15 23  2  0  0  0  0
 15 31  1  0  0  0  0
 16 27  2  0  0  0  0
 16 28  1  0  0  0  0
 17 29  1  0  0  0  0
 18 29  1  0  0  0  0
 18 32  2  0  0  0  0
 18 33  1  0  0  0  0
 19 21  2  0  0  0  0
 19 38  1  0  0  0  0
 20 22  2  0  0  0  0
 20 39  1  0  0  0  0
 21 47  1  0  0  0  0
 22 40  1  0  0  0  0
 23 58  1  0  0  0  0
 24 83  1  0  0  0  0
 25 84  1  0  0  0  0
 26 28  2  0  0  0  0
 26 83  1  0  0  0  0
 27 85  1  0  0  0  0
 28 86  1  0  0  0  0
 29 67  2  0  0  0  0
 30 50  1  0  0  0  0
 30 68  1  0  0  0  0
 31 62  1  0  0  0  0
 31 68  2  0  0  0  0
 32 69  1  0  0  0  0
 32 72  1  0  0  0  0
 33 73  1  0  0  0  0
 33 78  2  0  0  0  0
 34 48  1  0  0  0  0
 34 74  1  0  0  0  0
 34 79  2  0  0  0  0
 35 63  1  0  0  0  0
 35 70  1  0  0  0  0
 35 80  2  0  0  0  0
 36 64  1  0  0  0  0
 36 75  1  0  0  0  0
 36 81  2  0  0  0  0
 37 71  1  0  0  0  0
 37 76  1  0  0  0  0
 37 82  2  0  0  0  0
 38 41  1  0  0  0  0
 39 48  1  0  0  0  0
 40 70  1  0  0  0  0
 41 43  1  0  0  0  0
 42 44  1  0  0  0  0
 42 45  1  0  0  0  0
 43 47  1  0  0  0  0
 44 49  1  0  0  0  0
 45 71  1  0  0  0  0
 46 49  1  0  0  0  0
 46 71  1  0  0  0  0
 47 74  1  0  0  0  0
 48 70  1  0  0  0  0
 49 69  1  0  0  0  0
 51 62  1  0  0  0  0
 52 64  1  0  0  0  0
 53 65  1  0  0  0  0
 54 66  1  0  0  0  0
 55 66  1  0  0  0  0
 56 66  1  0  0  0  0
 57 77  1  0  0  0  0
 58 59  1  0  0  0  0
 59 61  1  0  0  0  0
 60 65  1  0  0  0  0
 60 76  1  0  0  0  0
 61 84  1  0  0  0  0
 62 65  1  0  0  0  0
 63 66  1  0  0  0  0
 63 75  1  0  0  0  0
 64 77  1  0  0  0  0
 67 69  1  0  0  0  0
M  CHG  1  77   1
M  ISO  4  37 100  61 101  76 100  84 101
M  END
> <Batch ID>
0080

> <Smiles>
CNC(C)C(=O)NC(C(=O)N1Cc2cc([101O:1][101CH2:1]CCc3cc(C)nc(C(C)C(C)C[100NH:0][100C:0](=O)N4CCCC(n5nc(-c6ccc(Oc7ccc(F)cc7F)cc6)c(C(N)=O)c5N)C4)c3)ccc2CC1C(=O)NC1CCCc2ccccc21)C(C)(C)C

> <Shape>
0.255

> <Color>
0.128

> <Negative vol penalty>
0.000

$$$$

  -OEChem-04052318443D

 86 94  0     1  0  0  0  0  0999 V2000
  -28.8051  -13.5040   18.1329 C   0  0  0  0  0  0  0  0  0  0  0  0
  -28.0393  -14.6652   18.1098 C   0  0  0  0  0  0  0  0  0  0  0  0
  -29.8162  -20.6886   18.7954 C   0  0  0  0  0  0  0  0  0  0  0  0
  -28.2088  -20.5181   20.5910 C   0  0  0  0  0  0  0  0  0  0  0  0
  -28.3799  -12.4046   18.8774 C   0  0  0  0  0  0  0  0  0  0  0  0
  -26.8471  -14.7273   18.8304 C   0  0  0  0  0  0  0  0  0  0  0  0
  -24.5063  -19.6284   21.6597 C   0  0  0  0  0  0  0  0  0  0  0  0
  -20.9901  -27.7674   23.7414 C   0  0  0  0  0  0  0  0  0  0  0  0
  -30.4121  -19.4996   19.2158 C   0  0  0  0  0  0  0  0  0  0  0  0
  -28.8047  -19.3290   21.0114 C   0  0  0  0  0  0  0  0  0  0  0  0
  -23.5256  -20.5469   21.2876 C   0  0  0  0  0  0  0  0  0  0  0  0
  -31.5388  -18.3979   22.7688 C   0  0  0  0  0  0  0  0  0  0  0  0
  -31.7709  -18.2369   24.1347 C   0  0  0  0  0  0  0  0  0  0  0  0
  -21.9894  -28.2239   24.5935 C   0  0  0  0  0  0  0  0  0  0  0  0
  -21.8810  -19.2791   22.5153 C   0  0  0  0  0  0  0  0  0  0  0  0
  -30.3579  -16.2773   24.1439 C   0  0  0  0  0  0  0  0  0  0  0  0
  -28.7146  -21.1979   19.4831 C   0  0  0  0  0  0  0  0  0  0  0  0
  -27.0487  -22.5704   18.1234 C   0  0  0  0  0  0  0  0  0  0  0  0
  -27.1868  -12.4566   19.6153 C   0  0  0  0  0  0  0  0  0  0  0  0
  -24.1790  -18.5206   22.4547 C   0  0  0  0  0  0  0  0  0  0  0  0
  -26.4048  -13.6270   19.5845 C   0  0  0  0  0  0  0  0  0  0  0  0
  -22.8598  -18.3494   22.8982 C   0  0  0  0  0  0  0  0  0  0  0  0
  -21.1363  -27.9131   22.3664 C   0  0  0  0  0  0  0  0  0  0  0  0
  -29.9063  -18.8198   20.3238 C   0  0  0  0  0  0  0  0  0  0  0  0
  -22.2122  -20.3708   21.7130 C   0  0  0  0  0  0  0  0  0  0  0  0
  -30.7162  -17.4986   22.0904 C   0  0  0  0  0  0  0  0  0  0  0  0
  -31.1805  -17.1766   24.8223 C   0  0  0  0  0  0  0  0  0  0  0  0
  -30.1257  -16.4383   22.7780 C   0  0  0  0  0  0  0  0  0  0  0  0
  -28.0990  -22.4265   19.0496 C   0  0  0  0  0  0  0  0  0  0  0  0
  -23.1066  -28.8144   24.0251 C   0  0  0  0  0  0  0  0  0  0  0  0
  -22.2916  -28.5177   21.8977 C   0  0  0  0  0  0  0  0  0  0  0  0
  -26.8313  -23.9250   18.0586 C   0  0  0  0  0  0  0  0  0  0  0  0
  -26.3335  -21.5691   17.3874 C   0  0  0  0  0  0  0  0  0  0  0  0
  -24.2892  -15.3680   22.0636 C   0  0  0  0  0  0  0  0  0  0  0  0
  -23.4285  -15.3414   25.1910 C   0  0  0  0  0  0  0  0  0  0  0  0
  -21.9532  -16.9672   27.8038 C   0  0  0  0  0  0  0  0  0  0  0  0
  -26.2241  -28.8813   20.5509 C   0  0  0  0  0  0  0  0  0  0  0  0
  -26.7441  -11.2264   20.3672 C   0  0  0  0  0  0  0  0  0  0  0  0
  -25.2537  -17.5535   22.8696 C   0  0  0  0  0  0  0  0  0  0  0  0
  -22.4607  -17.1878   23.7699 C   0  0  0  0  0  0  0  0  0  0  0  0
  -25.6584  -11.5039   21.4038 C   0  0  0  0  0  0  0  0  0  0  0  0
  -29.5447  -27.7858   19.8803 C   0  0  0  0  0  0  0  0  0  0  0  0
  -24.5617  -12.3800   20.8067 C   0  0  0  0  0  0  0  0  0  0  0  0
  -29.3785  -26.3050   19.5343 C   0  0  0  0  0  0  0  0  0  0  0  0
  -28.5739  -28.2219   20.9754 C   0  0  0  0  0  0  0  0  0  0  0  0
  -26.9902  -26.4375   20.3573 C   0  0  0  0  0  0  0  0  0  0  0  0
  -25.1183  -13.7415   20.3730 C   0  0  1  0  0  0  0  0  0  0  0  0
  -24.7071  -16.1823   23.2552 C   0  0  1  0  0  0  0  0  0  0  0  0
  -27.9097  -25.9644   19.2184 C   0  0  2  0  0  0  0  0  0  0  0  0
  -24.1995  -29.3141   24.9101 C   0  0  0  0  0  0  0  0  0  0  0  0
  -21.3659  -16.6763   30.2262 C   0  0  0  0  0  0  0  0  0  0  0  0
  -23.8070  -29.9792   18.6756 C   0  0  0  0  0  0  0  0  0  0  0  0
  -21.1071  -13.5228   24.4073 C   0  0  0  0  0  0  0  0  0  0  0  0
  -20.0484  -14.0387   26.6167 C   0  0  0  0  0  0  0  0  0  0  0  0
  -22.2592  -12.8863   26.5338 C   0  0  0  0  0  0  0  0  0  0  0  0
  -23.6385  -19.2633   28.6079 C   0  0  0  0  0  0  0  0  0  0  0  0
  -20.0553  -27.4211   21.4371 C   0  0  0  0  0  0  0  0  0  0  0  0
  -22.5043  -28.6981   20.4304 C   0  0  0  0  0  0  0  0  0  0  0  0
  -19.7165  -25.9364   21.6120 C   0  0  0  0  0  0  0  0  0  0  0  0
  -20.8927  -25.0108   21.2855 C   0  0  0  0  0  0  0  0  0  0  0  0
  -20.5202  -23.5452   21.5025 C   0  0  0  0  0  0  0  0  0  0  0  0
  -21.6687  -22.6142   21.1407 C   0  0  0  0  0  0  0  0  0  1  0  0
  -22.1172  -15.3394   25.9390 C   0  0  1  0  0  0  0  0  0  0  0  0
  -22.4027  -17.1859   29.2372 C   0  0  2  0  0  0  0  0  0  0  0  0
  -23.8403  -29.3875   20.0812 C   0  0  1  0  0  0  0  0  0  0  0  0
  -21.3898  -13.9678   25.8562 C   0  0  0  0  0  0  0  0  0  0  0  0
  -28.5198  -23.5963   19.5380 N   0  0  0  0  0  0  0  0  0  0  0  0
  -23.2841  -28.9736   22.6944 N   0  0  0  0  0  0  0  0  0  0  0  0
  -27.7299  -24.4882   18.9163 N   0  0  0  0  0  0  0  0  0  0  0  0
  -23.5461  -16.2660   24.1436 N   0  0  0  0  0  0  0  0  0  0  0  0
  -27.1984  -27.8714   20.6134 N   0  0  0  0  0  0  0  0  0  0  0  0
  -25.9612  -24.6775   17.3521 N   0  0  0  0  0  0  0  0  0  0  0  0
  -26.6847  -20.2251   17.5731 N   0  0  0  0  0  0  0  0  0  0  0  0
  -25.3034  -14.6012   21.5224 N   0  0  0  0  0  0  0  0  0  0  0  0
  -22.4219  -15.7731   27.2982 N   0  0  0  0  0  0  0  0  0  0  0  0
  -24.9475  -28.4644   20.1941 N   0  0  0  0  0  0  0  0  0  0  0  0
  -22.6246  -18.6369   29.4948 N   0  3  0  0  0  0  0  0  0  0  0  0
  -25.4214  -21.8590   16.5765 O   0  0  0  0  0  0  0  0  0  0  0  0
  -23.1318  -15.4297   21.6655 O   0  0  0  0  0  0  0  0  0  0  0  0
  -24.3183  -14.5565   25.5284 O   0  0  0  0  0  0  0  0  0  0  0  0
  -21.2530  -17.7731   27.1950 O   0  0  0  0  0  0  0  0  0  0  0  0
  -26.4746  -30.0675   20.7899 O   0  0  0  0  0  0  0  0  0  0  0  0
  -30.4873  -17.6594   20.7341 O   0  0  0  0  0  0  0  0  0  0  0  0
  -21.2529  -21.2654   21.3507 O   0  0  0  0  0  0  0  0  0  1  0  0
  -31.4047  -17.0213   26.1337 F   0  0  0  0  0  0  0  0  0  0  0  0
  -29.3354  -15.5704   22.1314 F   0  0  0  0  0  0  0  0  0  0  0  0
  1  2  1  0  0  0  0
  1  5  2  0  0  0  0
  2  6  2  0  0  0  0
  3  9  2  0  0  0  0
  3 17  1  0  0  0  0
  4 10  1  0  0  0  0
  4 17  2  0  0  0  0
  5 19  1  0  0  0  0
  6 21  1  0  0  0  0
  7 11  2  0  0  0  0
  7 20  1  0  0  0  0
  8 14  2  0  0  0  0
  8 23  1  0  0  0  0
  9 24  1  0  0  0  0
 10 24  2  0  0  0  0
 11 25  1  0  0  0  0
 12 13  2  0  0  0  0
 12 26  1  0  0  0  0
 13 27  1  0  0  0  0
 14 30  1  0  0  0  0
 15 22  1  0  0  0  0
 15 25  2  0  0  0  0
 16 27  2  0  0  0  0
 16 28  1  0  0  0  0
 17 29  1  0  0  0  0
 18 29  1  0  0  0  0
 18 32  2  0  0  0  0
 18 33  1  0  0  0  0
 19 21  2  0  0  0  0
 19 38  1  0  0  0  0
 20 22  2  0  0  0  0
 20 39  1  0  0  0  0
 21 47  1  0  0  0  0
 22 40  1  0  0  0  0
 23 31  2  0  0  0  0
 23 57  1  0  0  0  0
 24 83  1  0  0  0  0
 25 84  1  0  0  0  0
 26 28  2  0  0  0  0
 26 83  1  0  0  0  0
 27 85  1  0  0  0  0
 28 86  1  0  0  0  0
 29 67  2  0  0  0  0
 30 50  1  0  0  0  0
 30 68  2  0  0  0  0
 31 58  1  0  0  0  0
 31 68  1  0  0  0  0
 32 69  1  0  0  0  0
 32 72  1  0  0  0  0
 33 73  1  0  0  0  0
 33 78  2  0  0  0  0
 34 48  1  0  0  0  0
 34 74  1  0  0  0  0
 34 79  2  0  0  0  0
 35 63  1  0  0  0  0
 35 70  1  0  0  0  0
 35 80  2  0  0  0  0
 36 64  1  0  0  0  0
 36 75  1  0  0  0  0
 36 81  2  0  0  0  0
 37 71  1  0  0  0  0
 37 76  1  0  0  0  0
 37 82  2  0  0  0  0
 38 41  1  0  0  0  0
 39 48  1  0  0  0  0
 40 70  1  0  0  0  0
 41 43  1  0  0  0  0
 42 44  1  0  0  0  0
 42 45  1  0  0  0  0
 43 47  1  0  0  0  0
 44 49  1  0  0  0  0
 45 71  1  0  0  0  0
 46 49  1  0  0  0  0
 46 71  1  0  0  0  0
 47 74  1  0  0  0  0
 48 70  1  0  0  0  0
 49 69  1  0  0  0  0
 51 64  1  0  0  0  0
 52 65  1  0  0  0  0
 53 66  1  0  0  0  0
 54 66  1  0  0  0  0
 55 66  1  0  0  0  0
 56 77  1  0  0  0  0
 57 59  1  0  0  0  0
 58 65  1  0  0  0  0
 59 60  1  0  0  0  0
 60 61  1  0  0  0  0
 61 62  1  0  0  0  0
 62 84  1  0  0  0  0
 63 66  1  0  0  0  0
 63 75  1  0  0  0  0
 64 77  1  0  0  0  0
 65 76  1  0  0  0  0
 67 69  1  0  0  0  0
M  CHG  1  77   1
M  ISO  4  37 100  62 101  76 100  84 101
M  END
> <Batch ID>
0080

> <Smiles>
CNC(C)C(=O)NC(C(=O)N1Cc2cc([101O:1][101CH2:1]CCCCc3ccc(C)nc3CC(C)[100NH:0][100C:0](=O)N3CCCC(n4nc(-c5ccc(Oc6ccc(F)cc6F)cc5)c(C(N)=O)c4N)C3)ccc2CC1C(=O)NC1CCCc2ccccc21)C(C)(C)C

> <Shape>
0.220

> <Color>
0.046

> <Negative vol penalty>
0.000

$$$$

  -OEChem-04052318443D

 91 99  0     1  0  0  0  0  0999 V2000
  -31.2446  -34.9592   19.1434 C   0  0  0  0  0  0  0  0  0  0  0  0
  -30.7845  -33.6875   18.8172 C   0  0  0  0  0  0  0  0  0  0  0  0
  -23.7389   -9.3605   22.1907 C   0  0  0  0  0  0  0  0  0  0  0  0
  -25.4773   -8.4096   20.8084 C   0  0  0  0  0  0  0  0  0  0  0  0
  -31.0043  -35.4818   20.4135 C   0  0  0  0  0  0  0  0  0  0  0  0
  -30.0847  -32.9371   19.7615 C   0  0  0  0  0  0  0  0  0  0  0  0
  -25.4796  -29.0443   18.6914 C   0  0  0  0  0  0  0  0  0  0  0  0
  -22.9869   -8.1945   22.0472 C   0  0  0  0  0  0  0  0  0  0  0  0
  -24.7254   -7.2435   20.6649 C   0  0  0  0  0  0  0  0  0  0  0  0
  -25.4340  -27.6562   18.5690 C   0  0  0  0  0  0  0  0  0  0  0  0
  -22.9482   -5.0783   23.3590 C   0  0  0  0  0  0  0  0  0  0  0  0
  -22.3545   -4.5450   24.5030 C   0  0  0  0  0  0  0  0  0  0  0  0
  -24.8041  -27.4782   20.8908 C   0  0  0  0  0  0  0  0  0  0  0  0
  -29.0498  -18.1605   21.2836 C   0  0  0  0  0  0  0  0  0  0  0  0
  -20.1760   -4.7935   23.4882 C   0  0  0  0  0  0  0  0  0  0  0  0
  -30.2947  -19.4995   19.9693 C   0  0  0  0  0  0  0  0  0  0  0  0
  -24.9840   -9.4681   21.5712 C   0  0  0  0  0  0  0  0  0  0  0  0
  -26.7107  -10.9545   22.7187 C   0  0  0  0  0  0  0  0  0  0  0  0
  -30.2929  -34.7412   21.3706 C   0  0  0  0  0  0  0  0  0  0  0  0
  -25.1979  -29.6602   19.9194 C   0  0  0  0  0  0  0  0  0  0  0  0
  -29.8358  -33.4496   21.0460 C   0  0  0  0  0  0  0  0  0  0  0  0
  -24.8443  -28.8744   21.0255 C   0  0  0  0  0  0  0  0  0  0  0  0
  -30.2924  -18.2823   20.6140 C   0  0  0  0  0  0  0  0  0  0  0  0
  -23.4802   -7.1360   21.2844 C   0  0  0  0  0  0  0  0  0  0  0  0
  -25.0990  -26.8728   19.6695 C   0  0  0  0  0  0  0  0  0  0  0  0
  -22.1558   -5.4693   22.2797 C   0  0  0  0  0  0  0  0  0  0  0  0
  -20.9684   -4.4025   24.5676 C   0  0  0  0  0  0  0  0  0  0  0  0
  -20.7698   -5.3269   22.3443 C   0  0  0  0  0  0  0  0  0  0  0  0
  -25.7610  -10.6725   21.7186 C   0  0  0  0  0  0  0  0  0  0  0  0
  -28.3306  -19.3070   21.0276 C   0  0  0  0  0  0  0  0  0  0  0  0
  -27.1624  -12.2161   22.4174 C   0  0  0  0  0  0  0  0  0  0  0  0
  -27.1458  -10.1480   23.8214 C   0  0  0  0  0  0  0  0  0  0  0  0
  -26.8355  -31.4871   21.9403 C   0  0  0  0  0  0  0  0  0  0  0  0
  -23.9765  -31.6951   23.4584 C   0  0  0  0  0  0  0  0  0  0  0  0
  -20.9092  -30.3251   24.0601 C   0  0  0  0  0  0  0  0  0  0  0  0
  -28.9336  -15.9955   18.7128 C   0  0  0  0  0  0  0  0  0  0  0  0
  -30.0986  -35.3291   22.7458 C   0  0  0  0  0  0  0  0  0  0  0  0
  -25.2254  -31.1601   20.0281 C   0  0  0  0  0  0  0  0  0  0  0  0
  -24.5134  -29.4878   22.3607 C   0  0  0  0  0  0  0  0  0  0  0  0
  -29.0242  -34.6193   23.5655 C   0  0  0  0  0  0  0  0  0  0  0  0
  -25.4156  -15.6406   19.1299 C   0  0  0  0  0  0  0  0  0  0  0  0
  -29.1998  -33.1064   23.4798 C   0  0  0  0  0  0  0  0  0  0  0  0
  -25.2702  -14.3371   19.9172 C   0  0  0  0  0  0  0  0  0  0  0  0
  -26.5649  -15.5689   18.1269 C   0  0  0  0  0  0  0  0  0  0  0  0
  -27.7190  -13.8696   19.4885 C   0  0  0  0  0  0  0  0  0  0  0  0
  -29.0514  -32.6148   22.0349 C   0  0  1  0  0  0  0  0  0  0  0  0
  -25.4218  -31.6520   21.4588 C   0  0  1  0  0  0  0  0  0  0  0  0
  -26.6084  -13.9133   20.5520 C   0  0  2  0  0  0  0  0  0  0  0  0
  -18.8054  -30.7053   25.3741 C   0  0  0  0  0  0  0  0  0  0  0  0
  -25.7688  -21.6779   24.6424 C   0  0  0  0  0  0  0  0  0  0  0  0
  -24.9034  -21.8211   22.2992 C   0  0  0  0  0  0  0  0  0  0  0  0
  -28.2908  -20.6374   17.3319 C   0  0  0  0  0  0  0  0  0  0  0  0
  -31.5065  -16.3904   21.8959 C   0  0  0  0  0  0  0  0  0  0  0  0
  -32.7823  -17.9928   20.4957 C   0  0  0  0  0  0  0  0  0  0  0  0
  -25.3991  -30.7776   25.9970 C   0  0  0  0  0  0  0  0  0  0  0  0
  -23.1564  -30.2669   26.9858 C   0  0  0  0  0  0  0  0  0  0  0  0
  -23.7292  -32.6074   26.3403 C   0  0  0  0  0  0  0  0  0  0  0  0
  -19.2657  -30.4826   21.6039 C   0  0  0  0  0  0  0  0  0  0  0  0
  -26.9793  -19.6990   21.4788 C   0  0  0  0  0  0  0  0  0  0  0  0
  -27.0035  -20.4689   22.8185 C   0  0  0  0  0  0  0  0  0  0  0  0
  -26.2891  -23.5151   19.0735 C   0  0  0  0  0  0  0  0  0  0  0  0
  -27.2438  -22.8239   18.0981 C   0  0  0  0  0  0  0  0  0  0  0  0
  -28.7003  -21.4728   19.7021 C   0  0  0  0  0  0  0  0  0  0  0  0
  -31.3027  -16.2879   19.3918 C   0  0  0  0  0  0  0  0  0  0  0  0
  -25.9314  -24.9186   18.5999 C   0  0  0  0  0  0  0  0  0  1  0  0
  -23.2761  -30.8987   24.5328 C   0  0  1  0  0  0  0  0  0  0  0  0
  -19.5165  -30.9290   24.0486 C   0  0  2  0  0  0  0  0  0  0  0  0
  -25.6207  -20.9306   23.3147 C   0  0  0  0  0  0  0  0  0  0  0  0
  -27.7109  -21.4134   18.5193 C   0  0  2  0  0  0  0  0  0  0  0  0
  -31.3836  -17.2895   20.6078 C   0  0  0  0  0  0  0  0  0  0  0  0
  -23.8983  -31.1257   25.9394 C   0  0  0  0  0  0  0  0  0  0  0  0
  -25.6169  -11.6745   20.8472 N   0  0  0  0  0  0  0  0  0  0  0  0
  -29.0970  -20.1136   20.2275 N   0  0  0  0  0  0  0  0  0  0  0  0
  -26.4820  -12.5984   21.2989 N   0  0  0  0  0  0  0  0  0  0  0  0
  -24.5603  -30.9582   22.4183 N   0  0  0  0  0  0  0  0  0  0  0  0
  -27.8049  -15.1633   18.7929 N   0  0  0  0  0  0  0  0  0  0  0  0
  -28.0712  -13.0247   23.0028 N   0  0  0  0  0  0  0  0  0  0  0  0
  -26.5788   -8.8767   23.9841 N   0  0  0  0  0  0  0  0  0  0  0  0
  -27.6547  -32.5639   21.6593 N   0  0  0  0  0  0  0  0  0  0  0  0
  -21.8620  -31.2458   24.4418 N   0  0  0  0  0  0  0  0  0  0  0  0
  -30.0655  -15.5397   19.3775 N   0  0  0  0  0  0  0  0  0  0  0  0
  -18.6955  -30.3171   22.9657 N   0  3  0  0  0  0  0  0  0  0  0  0
  -27.9999  -10.5496   24.6477 O   0  0  0  0  0  0  0  0  0  0  0  0
  -27.1588  -30.4598   22.5249 O   0  0  0  0  0  0  0  0  0  0  0  0
  -23.9984  -32.9260   23.5354 O   0  0  0  0  0  0  0  0  0  0  0  0
  -21.1294  -29.1528   23.7639 O   0  0  0  0  0  0  0  0  0  0  0  0
  -28.9312  -17.0681   18.0991 O   0  0  0  0  0  0  0  0  0  0  0  0
  -22.7468   -5.9979   21.1443 O   0  0  0  0  0  0  0  0  0  0  0  0
  -25.0544  -25.5177   19.5529 O   0  0  0  0  0  0  0  0  0  1  0  0
  -20.3985   -3.8889   25.6656 F   0  0  0  0  0  0  0  0  0  0  0  0
  -20.0034   -5.6997   21.3100 F   0  0  0  0  0  0  0  0  0  0  0  0
  1  2  1  0  0  0  0
  1  5  2  0  0  0  0
  2  6  2  0  0  0  0
  3  8  2  0  0  0  0
  3 17  1  0  0  0  0
  4  9  1  0  0  0  0
  4 17  2  0  0  0  0
  5 19  1  0  0  0  0
  6 21  1  0  0  0  0
  7 10  2  0  0  0  0
  7 20  1  0  0  0  0
  8 24  1  0  0  0  0
  9 24  2  0  0  0  0
 10 25  1  0  0  0  0
 11 12  2  0  0  0  0
 11 26  1  0  0  0  0
 12 27  1  0  0  0  0
 13 22  1  0  0  0  0
 13 25  2  0  0  0  0
 14 23  1  0  0  0  0
 14 30  2  0  0  0  0
 15 27  2  0  0  0  0
 15 28  1  0  0  0  0
 16 23  2  0  0  0  0
 16 73  1  0  0  0  0
 17 29  1  0  0  0  0
 18 29  1  0  0  0  0
 18 31  2  0  0  0  0
 18 32  1  0  0  0  0
 19 21  2  0  0  0  0
 19 37  1  0  0  0  0
 20 22  2  0  0  0  0
 20 38  1  0  0  0  0
 21 46  1  0  0  0  0
 22 39  1  0  0  0  0
 23 70  1  0  0  0  0
 24 88  1  0  0  0  0
 25 89  1  0  0  0  0
 26 28  2  0  0  0  0
 26 88  1  0  0  0  0
 27 90  1  0  0  0  0
 28 91  1  0  0  0  0
 29 72  2  0  0  0  0
 30 59  1  0  0  0  0
 30 73  1  0  0  0  0
 31 74  1  0  0  0  0
 31 77  1  0  0  0  0
 32 78  1  0  0  0  0
 32 83  2  0  0  0  0
 33 47  1  0  0  0  0
 33 79  1  0  0  0  0
 33 84  2  0  0  0  0
 34 66  1  0  0  0  0
 34 75  1  0  0  0  0
 34 85  2  0  0  0  0
 35 67  1  0  0  0  0
 35 80  1  0  0  0  0
 35 86  2  0  0  0  0
 36 76  1  0  0  0  0
 36 81  1  0  0  0  0
 36 87  2  0  0  0  0
 37 40  1  0  0  0  0
 38 47  1  0  0  0  0
 39 75  1  0  0  0  0
 40 42  1  0  0  0  0
 41 43  1  0  0  0  0
 41 44  1  0  0  0  0
 42 46  1  0  0  0  0
 43 48  1  0  0  0  0
 44 76  1  0  0  0  0
 45 48  1  0  0  0  0
 45 76  1  0  0  0  0
 46 79  1  0  0  0  0
 47 75  1  0  0  0  0
 48 74  1  0  0  0  0
 49 67  1  0  0  0  0
 50 68  1  0  0  0  0
 51 68  1  0  0  0  0
 52 69  1  0  0  0  0
 53 70  1  0  0  0  0
 54 70  1  0  0  0  0
 55 71  1  0  0  0  0
 56 71  1  0  0  0  0
 57 71  1  0  0  0  0
 58 82  1  0  0  0  0
 59 60  1  0  0  0  0
 60 68  1  0  0  0  0
 61 62  1  0  0  0  0
 61 65  1  0  0  0  0
 62 69  1  0  0  0  0
 63 69  1  0  0  0  0
 63 73  1  0  0  0  0
 64 70  1  0  0  0  0
 64 81  1  0  0  0  0
 65 89  1  0  0  0  0
 66 71  1  0  0  0  0
 66 80  1  0  0  0  0
 67 82  1  0  0  0  0
 72 74  1  0  0  0  0
M  CHG  1  82   1
M  ISO  4  36 100  65 101  81 100  89 101
M  END
> <Batch ID>
0080

> <Smiles>
CNC(C)C(=O)NC(C(=O)N1Cc2cc([101O:1][101CH2:1]CCC(C)Cn3cc(C(C)(C)C[100NH:0][100C:0](=O)N4CCCC(n5nc(-c6ccc(Oc7ccc(F)cc7F)cc6)c(C(N)=O)c5N)C4)cc3CCC(C)C)ccc2CC1C(=O)NC1CCCc2ccccc21)C(C)(C)C

> <Shape>
0.255

> <Color>
0.070

> <Negative vol penalty>
0.000

$$$$

  -OEChem-04052318443D

 87 95  0     1  0  0  0  0  0999 V2000
  -16.6364  -28.7348   24.0643 C   0  0  0  0  0  0  0  0  0  0  0  0
  -16.9639  -28.4549   22.7415 C   0  0  0  0  0  0  0  0  0  0  0  0
  -26.1527  -12.8740   21.8109 C   0  0  0  0  0  0  0  0  0  0  0  0
  -24.9612  -14.3275   20.2928 C   0  0  0  0  0  0  0  0  0  0  0  0
  -17.4569  -29.5685   24.8230 C   0  0  0  0  0  0  0  0  0  0  0  0
  -18.1116  -29.0095   22.1763 C   0  0  0  0  0  0  0  0  0  0  0  0
  -24.1893  -25.5048   18.7403 C   0  0  0  0  0  0  0  0  0  0  0  0
  -25.5973  -11.7604   21.1808 C   0  0  0  0  0  0  0  0  0  0  0  0
  -24.4058  -13.2139   19.6626 C   0  0  0  0  0  0  0  0  0  0  0  0
  -25.3913  -24.9906   18.2535 C   0  0  0  0  0  0  0  0  0  0  0  0
  -22.6519  -10.1025   21.1945 C   0  0  0  0  0  0  0  0  0  0  0  0
  -22.1483   -9.0845   22.0043 C   0  0  0  0  0  0  0  0  0  0  0  0
  -26.5531  -26.9792   18.9907 C   0  0  0  0  0  0  0  0  0  0  0  0
  -27.9189  -22.5781   19.5859 C   0  0  0  0  0  0  0  0  0  0  0  0
  -28.7827  -23.8573   21.4303 C   0  0  0  0  0  0  0  0  0  0  0  0
  -23.7060   -7.5259   21.0135 C   0  0  0  0  0  0  0  0  0  0  0  0
  -25.8346  -14.1575   21.3670 C   0  0  0  0  0  0  0  0  0  0  0  0
  -27.6139  -15.9566   21.6916 C   0  0  0  0  0  0  0  0  0  0  0  0
  -18.6204  -30.1259   24.2696 C   0  0  0  0  0  0  0  0  0  0  0  0
  -24.1674  -26.7531   19.3687 C   0  0  0  0  0  0  0  0  0  0  0  0
  -18.9478  -29.8525   22.9278 C   0  0  0  0  0  0  0  0  0  0  0  0
  -25.3543  -27.4940   19.4914 C   0  0  0  0  0  0  0  0  0  0  0  0
  -28.7565  -23.5774   20.0686 C   0  0  0  0  0  0  0  0  0  0  0  0
  -24.7238  -11.9304   20.1066 C   0  0  0  0  0  0  0  0  0  0  0  0
  -26.5702  -25.7261   18.3782 C   0  0  0  0  0  0  0  0  0  0  0  0
  -23.6824   -9.8321   20.2941 C   0  0  0  0  0  0  0  0  0  0  0  0
  -22.6754   -7.7962   21.9138 C   0  0  0  0  0  0  0  0  0  0  0  0
  -24.2095   -8.5439   20.2037 C   0  0  0  0  0  0  0  0  0  0  0  0
  -26.4077  -15.3082   22.0179 C   0  0  0  0  0  0  0  0  0  0  0  0
  -27.1333  -21.8932   20.4989 C   0  0  0  0  0  0  0  0  0  0  0  0
  -27.9584  -23.1152   22.2607 C   0  0  0  0  0  0  0  0  0  0  0  0
  -27.7083  -16.9832   22.5991 C   0  0  0  0  0  0  0  0  0  0  0  0
  -28.5640  -15.6576   20.6603 C   0  0  0  0  0  0  0  0  0  0  0  0
  -22.1269  -29.3793   21.1051 C   0  0  0  0  0  0  0  0  0  0  0  0
  -24.7886  -29.1752   22.6164 C   0  0  0  0  0  0  0  0  0  0  0  0
  -27.1724  -28.0003   24.3017 C   0  0  0  0  0  0  0  0  0  0  0  0
  -25.4051  -21.2115   25.4209 C   0  0  0  0  0  0  0  0  0  0  0  0
  -19.4510  -31.0592   25.1145 C   0  0  0  0  0  0  0  0  0  0  0  0
  -22.8850  -27.3732   19.8531 C   0  0  0  0  0  0  0  0  0  0  0  0
  -25.2770  -28.8473   20.1437 C   0  0  0  0  0  0  0  0  0  0  0  0
  -20.8494  -31.3061   24.5544 C   0  0  0  0  0  0  0  0  0  0  0  0
  -25.0223  -17.9417   26.7768 C   0  0  0  0  0  0  0  0  0  0  0  0
  -20.7810  -31.6040   23.0599 C   0  0  0  0  0  0  0  0  0  0  0  0
  -25.4419  -17.0192   25.6311 C   0  0  0  0  0  0  0  0  0  0  0  0
  -24.2784  -19.1737   26.2659 C   0  0  0  0  0  0  0  0  0  0  0  0
  -25.4114  -19.0193   24.0828 C   0  0  0  0  0  0  0  0  0  0  0  0
  -20.1977  -30.4152   22.2865 C   0  0  1  0  0  0  0  0  0  0  0  0
  -23.0644  -28.2081   21.1337 C   0  0  1  0  0  0  0  0  0  0  0  0
  -26.2140  -17.7907   24.5440 C   0  0  2  0  0  0  0  0  0  0  0  0
  -26.9890  -19.6470   19.3642 C   0  0  0  0  0  0  0  0  0  0  0  0
  -25.1470  -21.3390   19.0493 C   0  0  0  0  0  0  0  0  0  0  0  0
  -29.0906  -22.6453   24.4780 C   0  0  0  0  0  0  0  0  0  0  0  0
  -29.0363  -27.4156   25.8769 C   0  0  0  0  0  0  0  0  0  0  0  0
  -25.4891  -24.0758   23.9074 C   0  0  0  0  0  0  0  0  0  0  0  0
  -29.8290  -26.3441   17.5847 C   0  0  0  0  0  0  0  0  0  0  0  0
  -25.7760  -31.6733   21.1713 C   0  0  0  0  0  0  0  0  0  0  0  0
  -27.7464  -31.7017   22.7156 C   0  0  0  0  0  0  0  0  0  0  0  0
  -25.4408  -31.9559   23.6334 C   0  0  0  0  0  0  0  0  0  0  0  0
  -25.2881  -26.9356   26.3203 C   0  0  0  0  0  0  0  0  0  0  0  0
  -29.6353  -24.3551   19.1175 C   0  0  0  0  0  0  0  0  0  0  0  0
  -26.2235  -20.8131   20.0171 C   0  0  0  0  0  0  0  0  0  0  0  0
  -27.9595  -23.3902   23.7274 C   0  0  2  0  0  0  0  0  0  0  0  0
  -26.1933  -29.6980   22.7806 C   0  0  1  0  0  0  0  0  0  0  0  0
  -27.5667  -27.7863   25.7519 C   0  0  2  0  0  0  0  0  0  0  0  0
  -26.5896  -23.1640   24.4492 C   0  0  2  0  0  0  0  0  0  0  0  0
  -28.9375  -25.6076   18.5765 C   0  0  2  0  0  0  0  0  0  1  0  0
  -26.2836  -31.2343   22.5593 C   0  0  0  0  0  0  0  0  0  0  0  0
  -25.7808  -15.8753   23.0520 N   0  0  0  0  0  0  0  0  0  0  0  0
  -27.1315  -22.1368   21.8287 N   0  0  0  0  0  0  0  0  0  0  0  0
  -26.5963  -16.8908   23.3835 N   0  0  0  0  0  0  0  0  0  0  0  0
  -24.4054  -28.7855   21.3273 N   0  0  0  0  0  0  0  0  0  0  0  0
  -25.0651  -19.8609   25.2389 N   0  0  0  0  0  0  0  0  0  0  0  0
  -28.6331  -17.9469   22.7948 N   0  0  0  0  0  0  0  0  0  0  0  0
  -28.3125  -14.5679   19.8156 N   0  0  0  0  0  0  0  0  0  0  0  0
  -21.1949  -29.3789   22.1253 N   0  0  0  0  0  0  0  0  0  0  0  0
  -26.6420  -29.2565   24.0967 N   0  0  0  0  0  0  0  0  0  0  0  0
  -26.1574  -21.7849   24.4030 N   0  0  0  0  0  0  0  0  0  0  0  0
  -26.7533  -26.6922   26.3538 N   0  3  0  0  0  0  0  0  0  0  0  0
  -29.6134  -16.3267   20.5033 O   0  0  0  0  0  0  0  0  0  0  0  0
  -22.2407  -30.2229   20.2236 O   0  0  0  0  0  0  0  0  0  0  0  0
  -24.0473  -29.1183   23.6015 O   0  0  0  0  0  0  0  0  0  0  0  0
  -27.3234  -27.1406   23.4365 O   0  0  0  0  0  0  0  0  0  0  0  0
  -25.0682  -21.8570   26.4193 O   0  0  0  0  0  0  0  0  0  0  0  0
  -24.1818  -10.8440   19.4914 O   0  0  0  0  0  0  0  0  0  0  0  0
  -27.7409  -25.2161   17.9047 O   0  0  0  0  0  0  0  0  0  1  0  0
  -22.1928   -6.8191   22.6927 F   0  0  0  0  0  0  0  0  0  0  0  0
  -25.2004   -8.2784   19.3415 F   0  0  0  0  0  0  0  0  0  0  0  0
  1  2  1  0  0  0  0
  1  5  2  0  0  0  0
  2  6  2  0  0  0  0
  3  8  2  0  0  0  0
  3 17  1  0  0  0  0
  4  9  1  0  0  0  0
  4 17  2  0  0  0  0
  5 19  1  0  0  0  0
  6 21  1  0  0  0  0
  7 10  2  0  0  0  0
  7 20  1  0  0  0  0
  8 24  1  0  0  0  0
  9 24  2  0  0  0  0
 10 25  1  0  0  0  0
 11 12  2  0  0  0  0
 11 26  1  0  0  0  0
 12 27  1  0  0  0  0
 13 22  1  0  0  0  0
 13 25  2  0  0  0  0
 14 23  1  0  0  0  0
 14 30  2  0  0  0  0
 15 23  2  0  0  0  0
 15 31  1  0  0  0  0
 16 27  2  0  0  0  0
 16 28  1  0  0  0  0
 17 29  1  0  0  0  0
 18 29  1  0  0  0  0
 18 32  2  0  0  0  0
 18 33  1  0  0  0  0
 19 21  2  0  0  0  0
 19 38  1  0  0  0  0
 20 22  2  0  0  0  0
 20 39  1  0  0  0  0
 21 47  1  0  0  0  0
 22 40  1  0  0  0  0
 23 60  1  0  0  0  0
 24 84  1  0  0  0  0
 25 85  1  0  0  0  0
 26 28  2  0  0  0  0
 26 84  1  0  0  0  0
 27 86  1  0  0  0  0
 28 87  1  0  0  0  0
 29 68  2  0  0  0  0
 30 61  1  0  0  0  0
 30 69  1  0  0  0  0
 31 62  1  0  0  0  0
 31 69  2  0  0  0  0
 32 70  1  0  0  0  0
 32 73  1  0  0  0  0
 33 74  1  0  0  0  0
 33 79  2  0  0  0  0
 34 48  1  0  0  0  0
 34 75  1  0  0  0  0
 34 80  2  0  0  0  0
 35 63  1  0  0  0  0
 35 71  1  0  0  0  0
 35 81  2  0  0  0  0
 36 64  1  0  0  0  0
 36 76  1  0  0  0  0
 36 82  2  0  0  0  0
 37 72  1  0  0  0  0
 37 77  1  0  0  0  0
 37 83  2  0  0  0  0
 38 41  1  0  0  0  0
 39 48  1  0  0  0  0
 40 71  1  0  0  0  0
 41 43  1  0  0  0  0
 42 44  1  0  0  0  0
 42 45  1  0  0  0  0
 43 47  1  0  0  0  0
 44 49  1  0  0  0  0
 45 72  1  0  0  0  0
 46 49  1  0  0  0  0
 46 72  1  0  0  0  0
 47 75  1  0  0  0  0
 48 71  1  0  0  0  0
 49 70  1  0  0  0  0
 50 61  1  0  0  0  0
 51 61  1  0  0  0  0
 52 62  1  0  0  0  0
 53 64  1  0  0  0  0
 54 65  1  0  0  0  0
 55 66  1  0  0  0  0
 56 67  1  0  0  0  0
 57 67  1  0  0  0  0
 58 67  1  0  0  0  0
 59 78  1  0  0  0  0
 60 66  1  0  0  0  0
 62 65  1  0  0  0  0
 63 67  1  0  0  0  0
 63 76  1  0  0  0  0
 64 78  1  0  0  0  0
 65 77  1  0  0  0  0
 66 85  1  0  0  0  0
 68 70  1  0  0  0  0
M  CHG  1  78   1
M  ISO  4  37 100  66 101  77 100  85 101
M  END
> <Batch ID>
0080

> <Smiles>
CNC(C)C(=O)NC(C(=O)N1Cc2cc([101O:1][101CH:1](C)Cc3cc(C(C)C)nc(C(C)C(C)[100NH:0][100C:0](=O)N4CCCC(n5nc(-c6ccc(Oc7ccc(F)cc7F)cc6)c(C(N)=O)c5N)C4)c3)ccc2CC1C(=O)NC1CCCc2ccccc21)C(C)(C)C

> <Shape>
0.240

> <Color>
0.081

> <Negative vol penalty>
0.000

$$$$

  -OEChem-04052318443D

 86 94  0     1  0  0  0  0  0999 V2000
  -25.7566  -35.4684   23.5384 C   0  0  0  0  0  0  0  0  0  0  0  0
  -26.3537  -34.2443   23.2546 C   0  0  0  0  0  0  0  0  0  0  0  0
  -23.3513  -16.9649   25.1858 C   0  0  0  0  0  0  0  0  0  0  0  0
  -23.2303  -18.8252   23.6490 C   0  0  0  0  0  0  0  0  0  0  0  0
  -24.4520  -35.5094   24.0284 C   0  0  0  0  0  0  0  0  0  0  0  0
  -25.6467  -33.0604   23.4618 C   0  0  0  0  0  0  0  0  0  0  0  0
  -26.1246  -29.8121   19.6062 C   0  0  0  0  0  0  0  0  0  0  0  0
  -22.5858  -17.6775   26.1087 C   0  0  0  0  0  0  0  0  0  0  0  0
  -22.4648  -19.5378   24.5719 C   0  0  0  0  0  0  0  0  0  0  0  0
  -27.3104  -29.0826   19.5316 C   0  0  0  0  0  0  0  0  0  0  0  0
  -20.7826  -21.9864   26.6658 C   0  0  0  0  0  0  0  0  0  0  0  0
  -21.1105  -23.3244   26.8845 C   0  0  0  0  0  0  0  0  0  0  0  0
  -26.1951  -27.1811   20.5113 C   0  0  0  0  0  0  0  0  0  0  0  0
  -23.3178  -22.6644   27.6123 C   0  0  0  0  0  0  0  0  0  0  0  0
  -28.0301  -23.7648   18.2481 C   0  0  0  0  0  0  0  0  0  0  0  0
  -23.6736  -17.5387   23.9559 C   0  0  0  0  0  0  0  0  0  0  0  0
  -23.9955  -15.9402   21.9941 C   0  0  0  0  0  0  0  0  0  0  0  0
  -23.7253  -34.3258   24.2326 C   0  0  0  0  0  0  0  0  0  0  0  0
  -24.9661  -29.2342   20.1450 C   0  0  0  0  0  0  0  0  0  0  0  0
  -24.3316  -33.0855   23.9564 C   0  0  0  0  0  0  0  0  0  0  0  0
  -24.9953  -27.9046   20.5894 C   0  0  0  0  0  0  0  0  0  0  0  0
  -22.1426  -18.9640   25.8018 C   0  0  0  0  0  0  0  0  0  0  0  0
  -27.3465  -27.7678   19.9868 C   0  0  0  0  0  0  0  0  0  0  0  0
  -21.7222  -20.9874   26.9204 C   0  0  0  0  0  0  0  0  0  0  0  0
  -22.3781  -23.6634   27.3577 C   0  0  0  0  0  0  0  0  0  0  0  0
  -22.9898  -21.3264   27.3936 C   0  0  0  0  0  0  0  0  0  0  0  0
  -24.4648  -16.8033   23.0023 C   0  0  0  0  0  0  0  0  0  0  0  0
  -27.3564  -22.5771   18.2962 C   0  0  0  0  0  0  0  0  0  0  0  0
  -25.1330  -15.4959   21.3655 C   0  0  0  0  0  0  0  0  0  0  0  0
  -29.1581  -22.3926   19.5691 C   0  0  0  0  0  0  0  0  0  0  0  0
  -22.6515  -15.5728   21.6560 C   0  0  0  0  0  0  0  0  0  0  0  0
  -23.0985  -29.8609   22.6396 C   0  0  0  0  0  0  0  0  0  0  0  0
  -21.2740  -27.4968   21.3728 C   0  0  0  0  0  0  0  0  0  0  0  0
  -21.0958  -24.7109   19.4097 C   0  0  0  0  0  0  0  0  0  0  0  0
  -30.6359  -17.7862   20.7960 C   0  0  0  0  0  0  0  0  0  0  0  0
  -22.3345  -34.4181   24.8088 C   0  0  0  0  0  0  0  0  0  0  0  0
  -23.6881  -30.0258   20.1939 C   0  0  0  0  0  0  0  0  0  0  0  0
  -23.7737  -27.2314   21.1576 C   0  0  0  0  0  0  0  0  0  0  0  0
  -21.5216  -33.1363   24.6462 C   0  0  0  0  0  0  0  0  0  0  0  0
  -29.7658  -14.6247   22.1833 C   0  0  0  0  0  0  0  0  0  0  0  0
  -22.3545  -31.9219   25.0439 C   0  0  0  0  0  0  0  0  0  0  0  0
  -28.2663  -14.7467   22.4596 C   0  0  0  0  0  0  0  0  0  0  0  0
  -30.4963  -15.9405   22.4423 C   0  0  0  0  0  0  0  0  0  0  0  0
  -28.4411  -17.2295   22.0082 C   0  0  0  0  0  0  0  0  0  0  0  0
  -23.5885  -31.7807   24.1445 C   0  0  1  0  0  0  0  0  0  0  0  0
  -22.7019  -29.5047   21.2347 C   0  0  1  0  0  0  0  0  0  0  0  0
  -27.6530  -15.9431   21.7074 C   0  0  2  0  0  0  0  0  0  0  0  0
  -25.0590  -21.0086   15.6191 C   0  0  0  0  0  0  0  0  0  0  0  0
  -19.4767  -22.9751   18.5955 C   0  0  0  0  0  0  0  0  0  0  0  0
  -28.6705  -26.7066   22.2844 C   0  0  0  0  0  0  0  0  0  0  0  0
  -21.3652  -26.1351   24.1017 C   0  0  0  0  0  0  0  0  0  0  0  0
  -20.5816  -24.0284   22.9991 C   0  0  0  0  0  0  0  0  0  0  0  0
  -19.1350  -26.0604   22.9727 C   0  0  0  0  0  0  0  0  0  0  0  0
  -21.5199  -25.4746   16.5820 C   0  0  0  0  0  0  0  0  0  0  0  0
  -26.1139  -22.1422   17.6529 C   0  0  0  0  0  0  0  0  0  0  0  0
  -30.1811  -21.8276   20.4840 C   0  0  0  0  0  0  0  0  0  0  0  0
  -26.3452  -21.4959   16.2672 C   0  0  0  0  0  0  0  0  0  0  0  0
  -31.2158  -20.9044   19.8038 C   0  0  0  0  0  0  0  0  0  0  0  0
  -30.0586  -25.3653   20.6631 C   0  0  0  0  0  0  0  0  0  0  0  0
  -30.1757  -24.6913   19.2884 C   0  0  0  0  0  0  0  0  0  0  0  0
  -30.6144  -19.6552   19.1633 C   0  0  0  0  0  0  0  0  0  0  0  0
  -21.2090  -25.9966   21.5283 C   0  0  1  0  0  0  0  0  0  0  0  0
  -20.1315  -24.3167   18.3055 C   0  0  2  0  0  0  0  0  0  0  0  0
  -28.7090  -26.0510   20.9098 C   0  0  2  0  0  0  0  0  0  1  0  0
  -20.5964  -25.5682   22.8916 C   0  0  0  0  0  0  0  0  0  0  0  0
  -25.7967  -16.9028   23.0171 N   0  0  0  0  0  0  0  0  0  0  0  0
  -29.1403  -23.6225   19.0451 N   0  0  0  0  0  0  0  0  0  0  0  0
  -26.1740  -16.0964   22.0105 N   0  0  0  0  0  0  0  0  0  0  0  0
  -28.0770  -21.7467   19.1204 N   0  3  0  0  0  0  0  0  0  0  0  0
  -22.5497  -28.0490   21.1901 N   0  0  0  0  0  0  0  0  0  0  0  0
  -29.8662  -17.0342   21.6988 N   0  0  0  0  0  0  0  0  0  0  0  0
  -25.3344  -14.6541   20.3295 N   0  0  0  0  0  0  0  0  0  0  0  0
  -21.6006  -16.1213   22.4038 N   0  0  0  0  0  0  0  0  0  0  0  0
  -23.2183  -31.2192   22.8631 N   0  0  0  0  0  0  0  0  0  0  0  0
  -20.4854  -25.4965   20.3644 N   0  0  0  0  0  0  0  0  0  0  0  0
  -29.9597  -18.7998   20.1280 N   0  0  0  0  0  0  0  0  0  0  0  0
  -20.8483  -24.2180   17.0027 N   0  3  0  0  0  0  0  0  0  0  0  0
  -22.3909  -14.7689   20.7290 O   0  0  0  0  0  0  0  0  0  0  0  0
  -23.2807  -28.9694   23.4604 O   0  0  0  0  0  0  0  0  0  0  0  0
  -20.2304  -28.1539   21.4047 O   0  0  0  0  0  0  0  0  0  0  0  0
  -22.2718  -24.3542   19.4258 O   0  0  0  0  0  0  0  0  0  0  0  0
  -31.8354  -17.5670   20.5959 O   0  0  0  0  0  0  0  0  0  0  0  0
  -21.3954  -19.6595   26.7020 O   0  0  0  0  0  0  0  0  0  0  0  0
  -28.5027  -27.0537   19.9156 O   0  0  0  0  0  0  0  0  0  1  0  0
  -22.6934  -24.9484   27.5663 F   0  0  0  0  0  0  0  0  0  0  0  0
  -23.8971  -20.3712   27.6389 F   0  0  0  0  0  0  0  0  0  0  0  0
  1  2  1  0  0  0  0
  1  5  2  0  0  0  0
  2  6  2  0  0  0  0
  3  8  2  0  0  0  0
  3 16  1  0  0  0  0
  4  9  1  0  0  0  0
  4 16  2  0  0  0  0
  5 18  1  0  0  0  0
  6 20  1  0  0  0  0
  7 10  2  0  0  0  0
  7 19  1  0  0  0  0
  8 22  1  0  0  0  0
  9 22  2  0  0  0  0
 10 23  1  0  0  0  0
 11 12  2  0  0  0  0
 11 24  1  0  0  0  0
 12 25  1  0  0  0  0
 13 21  1  0  0  0  0
 13 23  2  0  0  0  0
 14 25  2  0  0  0  0
 14 26  1  0  0  0  0
 15 28  2  0  0  0  0
 15 67  1  0  0  0  0
 16 27  1  0  0  0  0
 17 27  1  0  0  0  0
 17 29  2  0  0  0  0
 17 31  1  0  0  0  0
 18 20  2  0  0  0  0
 18 36  1  0  0  0  0
 19 21  2  0  0  0  0
 19 37  1  0  0  0  0
 20 45  1  0  0  0  0
 21 38  1  0  0  0  0
 22 83  1  0  0  0  0
 23 84  1  0  0  0  0
 24 26  2  0  0  0  0
 24 83  1  0  0  0  0
 25 85  1  0  0  0  0
 26 86  1  0  0  0  0
 27 66  2  0  0  0  0
 28 55  1  0  0  0  0
 28 69  1  0  0  0  0
 29 68  1  0  0  0  0
 29 72  1  0  0  0  0
 30 56  1  0  0  0  0
 30 67  1  0  0  0  0
 30 69  2  0  0  0  0
 31 73  1  0  0  0  0
 31 78  2  0  0  0  0
 32 46  1  0  0  0  0
 32 74  1  0  0  0  0
 32 79  2  0  0  0  0
 33 62  1  0  0  0  0
 33 70  1  0  0  0  0
 33 80  2  0  0  0  0
 34 63  1  0  0  0  0
 34 75  1  0  0  0  0
 34 81  2  0  0  0  0
 35 71  1  0  0  0  0
 35 76  1  0  0  0  0
 35 82  2  0  0  0  0
 36 39  1  0  0  0  0
 37 46  1  0  0  0  0
 38 70  1  0  0  0  0
 39 41  1  0  0  0  0
 40 42  1  0  0  0  0
 40 43  1  0  0  0  0
 41 45  1  0  0  0  0
 42 47  1  0  0  0  0
 43 71  1  0  0  0  0
 44 47  1  0  0  0  0
 44 71  1  0  0  0  0
 45 74  1  0  0  0  0
 46 70  1  0  0  0  0
 47 68  1  0  0  0  0
 48 57  1  0  0  0  0
 49 63  1  0  0  0  0
 50 64  1  0  0  0  0
 51 65  1  0  0  0  0
 52 65  1  0  0  0  0
 53 65  1  0  0  0  0
 54 77  1  0  0  0  0
 55 57  1  0  0  0  0
 56 58  1  0  0  0  0
 58 61  1  0  0  0  0
 59 60  1  0  0  0  0
 59 64  1  0  0  0  0
 60 67  1  0  0  0  0
 61 76  1  0  0  0  0
 62 65  1  0  0  0  0
 62 75  1  0  0  0  0
 63 77  1  0  0  0  0
 64 84  1  0  0  0  0
 66 68  1  0  0  0  0
M  CHG  2  69   1  77   1
M  ISO  4  35 100  64 101  76 100  84 101
M  END
> <Batch ID>
0080

> <Smiles>
CCCc1cn(CC[101CH:1](C)[101O:1]c2ccc3c(c2)CN(C(=O)C(NC(=O)C(C)NC)C(C)(C)C)C(C(=O)NC2CCCc4ccccc42)C3)c(CCC[100NH:0][100C:0](=O)N2CCCC(n3nc(-c4ccc(Oc5ccc(F)cc5F)cc4)c(C(N)=O)c3N)C2)n1

> <Shape>
0.222

> <Color>
0.103

> <Negative vol penalty>
0.000

$$$$

  -OEChem-04052318443D

 85 93  0     1  0  0  0  0  0999 V2000
  -17.0596  -32.0006   22.6724 C   0  0  0  0  0  0  0  0  0  0  0  0
  -18.2903  -32.3990   22.1606 C   0  0  0  0  0  0  0  0  0  0  0  0
  -25.5706  -15.5690   21.6552 C   0  0  0  0  0  0  0  0  0  0  0  0
  -24.9706  -16.4596   19.4910 C   0  0  0  0  0  0  0  0  0  0  0  0
  -16.9792  -30.8807   23.4990 C   0  0  0  0  0  0  0  0  0  0  0  0
  -19.4417  -31.6782   22.4760 C   0  0  0  0  0  0  0  0  0  0  0  0
  -25.7510  -29.7379   19.6932 C   0  0  0  0  0  0  0  0  0  0  0  0
  -24.3367  -14.9232   21.7316 C   0  0  0  0  0  0  0  0  0  0  0  0
  -23.7366  -15.8138   19.5673 C   0  0  0  0  0  0  0  0  0  0  0  0
  -27.1128  -29.7625   19.9911 C   0  0  0  0  0  0  0  0  0  0  0  0
  -21.1383  -15.7414   22.4565 C   0  0  0  0  0  0  0  0  0  0  0  0
  -20.4375  -15.8247   23.6595 C   0  0  0  0  0  0  0  0  0  0  0  0
  -26.8416  -27.7980   21.3645 C   0  0  0  0  0  0  0  0  0  0  0  0
  -29.4231  -27.0111   18.1088 C   0  0  0  0  0  0  0  0  0  0  0  0
  -31.5549  -25.8980   18.1354 C   0  0  0  0  0  0  0  0  0  0  0  0
  -20.4983  -13.4179   23.8616 C   0  0  0  0  0  0  0  0  0  0  0  0
  -25.8876  -16.3373   20.5349 C   0  0  0  0  0  0  0  0  0  0  0  0
  -28.3569  -16.4947   19.9141 C   0  0  0  0  0  0  0  0  0  0  0  0
  -18.1287  -30.1402   23.8169 C   0  0  0  0  0  0  0  0  0  0  0  0
  -24.9209  -28.7480   20.2385 C   0  0  0  0  0  0  0  0  0  0  0  0
  -19.3767  -30.5482   23.3087 C   0  0  0  0  0  0  0  0  0  0  0  0
  -25.4701  -27.7616   21.0700 C   0  0  0  0  0  0  0  0  0  0  0  0
  -30.7373  -26.9405   18.5573 C   0  0  0  0  0  0  0  0  0  0  0  0
  -23.4197  -15.0456   20.6876 C   0  0  0  0  0  0  0  0  0  0  0  0
  -27.6578  -28.7941   20.8291 C   0  0  0  0  0  0  0  0  0  0  0  0
  -21.5191  -14.4963   21.9559 C   0  0  0  0  0  0  0  0  0  0  0  0
  -20.1174  -14.6629   24.3621 C   0  0  0  0  0  0  0  0  0  0  0  0
  -21.1991  -13.3346   22.6585 C   0  0  0  0  0  0  0  0  0  0  0  0
  -27.1619  -17.0051   20.4557 C   0  0  0  0  0  0  0  0  0  0  0  0
  -28.9781  -26.0224   17.2462 C   0  0  0  0  0  0  0  0  0  0  0  0
  -31.0144  -24.9589   17.2717 C   0  0  0  0  0  0  0  0  0  0  0  0
  -29.2687  -17.5088   20.0778 C   0  0  0  0  0  0  0  0  0  0  0  0
  -28.6193  -15.2181   19.3165 C   0  0  0  0  0  0  0  0  0  0  0  0
  -22.3989  -28.7509   22.1733 C   0  0  0  0  0  0  0  0  0  0  0  0
  -22.3545  -25.5818   21.4823 C   0  0  0  0  0  0  0  0  0  0  0  0
  -24.0721  -22.8142   20.4640 C   0  0  0  0  0  0  0  0  0  0  0  0
  -30.6442  -22.9098   19.7909 C   0  0  0  0  0  0  0  0  0  0  0  0
  -17.9991  -28.9645   24.7527 C   0  0  0  0  0  0  0  0  0  0  0  0
  -23.4589  -28.7196   19.8860 C   0  0  0  0  0  0  0  0  0  0  0  0
  -24.6256  -26.6654   21.6647 C   0  0  0  0  0  0  0  0  0  0  0  0
  -19.2105  -28.0358   24.7353 C   0  0  0  0  0  0  0  0  0  0  0  0
  -28.9749  -21.8032   22.7346 C   0  0  0  0  0  0  0  0  0  0  0  0
  -20.5027  -28.8425   24.8149 C   0  0  0  0  0  0  0  0  0  0  0  0
  -28.4480  -20.4175   22.3573 C   0  0  0  0  0  0  0  0  0  0  0  0
  -28.9112  -22.7715   21.5555 C   0  0  0  0  0  0  0  0  0  0  0  0
  -29.0428  -20.9080   19.9481 C   0  0  0  0  0  0  0  0  0  0  0  0
  -20.6444  -29.7777   23.6079 C   0  0  1  0  0  0  0  0  0  0  0  0
  -22.6122  -27.9680   20.9086 C   0  0  1  0  0  0  0  0  0  0  0  0
  -29.1391  -19.8810   21.0893 C   0  0  2  0  0  0  0  0  0  0  0  0
  -27.5739  -26.0669   16.7433 C   0  0  0  0  0  0  0  0  0  0  0  0
  -23.7756  -20.3601   20.0321 C   0  0  0  0  0  0  0  0  0  0  0  0
  -33.1538  -24.2343   16.0088 C   0  0  0  0  0  0  0  0  0  0  0  0
  -31.0598  -22.9181   15.8120 C   0  0  0  0  0  0  0  0  0  0  0  0
  -22.3660  -25.0540   24.4875 C   0  0  0  0  0  0  0  0  0  0  0  0
  -23.0223  -22.6878   23.9989 C   0  0  0  0  0  0  0  0  0  0  0  0
  -20.8401  -23.5708   23.1737 C   0  0  0  0  0  0  0  0  0  0  0  0
  -24.8058  -23.1093   17.6121 C   0  0  0  0  0  0  0  0  0  0  0  0
  -31.2740  -27.9908   19.4965 C   0  0  0  0  0  0  0  0  0  0  0  0
  -31.0792  -27.6517   20.9759 C   0  0  0  0  0  0  0  0  0  0  0  0
  -32.3369  -22.8981   17.9760 C   0  0  0  0  0  0  0  0  0  0  0  0
  -29.6141  -27.5622   21.3870 C   0  0  0  0  0  0  0  0  0  1  0  0
  -22.9841  -24.3479   22.0822 C   0  0  1  0  0  0  0  0  0  0  0  0
  -23.7504  -21.7545   19.4257 C   0  0  2  0  0  0  0  0  0  0  0  0
  -31.8629  -23.8255   16.8001 C   0  0  0  0  0  0  0  0  0  0  0  0
  -22.3190  -23.9368   23.4261 C   0  0  0  0  0  0  0  0  0  0  0  0
  -27.2990  -18.2468   20.9282 N   0  0  0  0  0  0  0  0  0  0  0  0
  -29.7427  -24.9944   16.8145 N   0  0  0  0  0  0  0  0  0  0  0  0
  -28.5909  -18.5252   20.6841 N   0  0  0  0  0  0  0  0  0  0  0  0
  -23.2006  -26.6841   21.2953 N   0  0  0  0  0  0  0  0  0  0  0  0
  -29.5858  -22.2035   20.3858 N   0  0  0  0  0  0  0  0  0  0  0  0
  -30.5761  -17.6213   19.7608 N   0  0  0  0  0  0  0  0  0  0  0  0
  -27.5698  -14.2935   19.2278 N   0  0  0  0  0  0  0  0  0  0  0  0
  -21.0738  -29.0362   22.4416 N   0  0  0  0  0  0  0  0  0  0  0  0
  -22.9303  -23.3189   21.0494 N   0  0  0  0  0  0  0  0  0  0  0  0
  -31.2327  -22.2978   18.6909 N   0  0  0  0  0  0  0  0  0  0  0  0
  -24.7413  -21.8014   18.3136 N   0  3  0  0  0  0  0  0  0  0  0  0
  -29.7551  -14.9005   18.8891 O   0  0  0  0  0  0  0  0  0  0  0  0
  -23.3650  -29.0711   22.8559 O   0  0  0  0  0  0  0  0  0  0  0  0
  -21.1577  -25.5658   21.1837 O   0  0  0  0  0  0  0  0  0  0  0  0
  -25.2216  -23.1572   20.7318 O   0  0  0  0  0  0  0  0  0  0  0  0
  -31.0392  -24.0022   20.2122 O   0  0  0  0  0  0  0  0  0  0  0  0
  -22.2156  -14.4153   20.7617 O   0  0  0  0  0  0  0  0  0  0  0  0
  -28.9865  -28.8161   21.1220 O   0  0  0  0  0  0  0  0  0  1  0  0
  -19.4458  -14.7432   25.5182 F   0  0  0  0  0  0  0  0  0  0  0  0
  -21.5633  -12.1357   22.1832 F   0  0  0  0  0  0  0  0  0  0  0  0
  1  2  1  0  0  0  0
  1  5  2  0  0  0  0
  2  6  2  0  0  0  0
  3  8  2  0  0  0  0
  3 17  1  0  0  0  0
  4  9  1  0  0  0  0
  4 17  2  0  0  0  0
  5 19  1  0  0  0  0
  6 21  1  0  0  0  0
  7 10  2  0  0  0  0
  7 20  1  0  0  0  0
  8 24  1  0  0  0  0
  9 24  2  0  0  0  0
 10 25  1  0  0  0  0
 11 12  2  0  0  0  0
 11 26  1  0  0  0  0
 12 27  1  0  0  0  0
 13 22  1  0  0  0  0
 13 25  2  0  0  0  0
 14 23  1  0  0  0  0
 14 30  2  0  0  0  0
 15 23  2  0  0  0  0
 15 31  1  0  0  0  0
 16 27  2  0  0  0  0
 16 28  1  0  0  0  0
 17 29  1  0  0  0  0
 18 29  1  0  0  0  0
 18 32  2  0  0  0  0
 18 33  1  0  0  0  0
 19 21  2  0  0  0  0
 19 38  1  0  0  0  0
 20 22  2  0  0  0  0
 20 39  1  0  0  0  0
 21 47  1  0  0  0  0
 22 40  1  0  0  0  0
 23 58  1  0  0  0  0
 24 82  1  0  0  0  0
 25 83  1  0  0  0  0
 26 28  2  0  0  0  0
 26 82  1  0  0  0  0
 27 84  1  0  0  0  0
 28 85  1  0  0  0  0
 29 66  2  0  0  0  0
 30 50  1  0  0  0  0
 30 67  1  0  0  0  0
 31 64  1  0  0  0  0
 31 67  2  0  0  0  0
 32 68  1  0  0  0  0
 32 71  1  0  0  0  0
 33 72  1  0  0  0  0
 33 77  2  0  0  0  0
 34 48  1  0  0  0  0
 34 73  1  0  0  0  0
 34 78  2  0  0  0  0
 35 62  1  0  0  0  0
 35 69  1  0  0  0  0
 35 79  2  0  0  0  0
 36 63  1  0  0  0  0
 36 74  1  0  0  0  0
 36 80  2  0  0  0  0
 37 70  1  0  0  0  0
 37 75  1  0  0  0  0
 37 81  2  0  0  0  0
 38 41  1  0  0  0  0
 39 48  1  0  0  0  0
 40 69  1  0  0  0  0
 41 43  1  0  0  0  0
 42 44  1  0  0  0  0
 42 45  1  0  0  0  0
 43 47  1  0  0  0  0
 44 49  1  0  0  0  0
 45 70  1  0  0  0  0
 46 49  1  0  0  0  0
 46 70  1  0  0  0  0
 47 73  1  0  0  0  0
 48 69  1  0  0  0  0
 49 68  1  0  0  0  0
 51 63  1  0  0  0  0
 52 64  1  0  0  0  0
 53 64  1  0  0  0  0
 54 65  1  0  0  0  0
 55 65  1  0  0  0  0
 56 65  1  0  0  0  0
 57 76  1  0  0  0  0
 58 59  1  0  0  0  0
 59 61  1  0  0  0  0
 60 64  1  0  0  0  0
 60 75  1  0  0  0  0
 61 83  1  0  0  0  0
 62 65  1  0  0  0  0
 62 74  1  0  0  0  0
 63 76  1  0  0  0  0
 66 68  1  0  0  0  0
M  CHG  1  76   1
M  ISO  4  37 100  61 101  75 100  83 101
M  END
> <Batch ID>
0080

> <Smiles>
CNC(C)C(=O)NC(C(=O)N1Cc2cc([101O:1][101CH2:1]CCc3cc(C)nc(C(C)(C)C[100NH:0][100C:0](=O)N4CCCC(n5nc(-c6ccc(Oc7ccc(F)cc7F)cc6)c(C(N)=O)c5N)C4)c3)ccc2CC1C(=O)NC1CCCc2ccccc21)C(C)(C)C

> <Shape>
0.233

> <Color>
0.082

> <Negative vol penalty>
0.000

$$$$

  -OEChem-04052318443D

 86 94  0     1  0  0  0  0  0999 V2000
  -32.1904  -14.5342   21.4512 C   0  0  0  0  0  0  0  0  0  0  0  0
  -31.2955  -15.4919   21.9174 C   0  0  0  0  0  0  0  0  0  0  0  0
  -28.8388  -27.3006   18.6379 C   0  0  0  0  0  0  0  0  0  0  0  0
  -28.4487  -25.9689   20.6156 C   0  0  0  0  0  0  0  0  0  0  0  0
  -31.7676  -13.5764   20.5305 C   0  0  0  0  0  0  0  0  0  0  0  0
  -29.9775  -15.4930   21.4623 C   0  0  0  0  0  0  0  0  0  0  0  0
  -24.9800  -17.0132   24.6592 C   0  0  0  0  0  0  0  0  0  0  0  0
  -29.9824  -26.5521   18.3594 C   0  0  0  0  0  0  0  0  0  0  0  0
  -29.5922  -25.2203   20.3371 C   0  0  0  0  0  0  0  0  0  0  0  0
  -24.2308  -18.1870   24.7267 C   0  0  0  0  0  0  0  0  0  0  0  0
  -32.2088  -22.7257   19.9511 C   0  0  0  0  0  0  0  0  0  0  0  0
  -32.1209  -21.3385   20.0671 C   0  0  0  0  0  0  0  0  0  0  0  0
  -22.6940  -17.2929   23.0964 C   0  0  0  0  0  0  0  0  0  0  0  0
  -30.3873  -21.3077   18.3846 C   0  0  0  0  0  0  0  0  0  0  0  0
  -24.6955  -26.8621   24.6127 C   0  0  0  0  0  0  0  0  0  0  0  0
  -28.0720  -27.0090   19.7660 C   0  0  0  0  0  0  0  0  0  0  0  0
  -25.5773  -27.5219   19.6203 C   0  0  0  0  0  0  0  0  0  0  0  0
  -30.4412  -13.5599   20.0711 C   0  0  0  0  0  0  0  0  0  0  0  0
  -24.5972  -15.9730   23.8001 C   0  0  0  0  0  0  0  0  0  0  0  0
  -29.5369  -14.5350   20.5335 C   0  0  0  0  0  0  0  0  0  0  0  0
  -23.4386  -16.1059   23.0217 C   0  0  0  0  0  0  0  0  0  0  0  0
  -30.3591  -25.5120   19.2090 C   0  0  0  0  0  0  0  0  0  0  0  0
  -23.0892  -18.3282   23.9432 C   0  0  0  0  0  0  0  0  0  0  0  0
  -31.3858  -23.4040   19.0520 C   0  0  0  0  0  0  0  0  0  0  0  0
  -31.2102  -20.6295   19.2838 C   0  0  0  0  0  0  0  0  0  0  0  0
  -30.4751  -22.6950   18.2687 C   0  0  0  0  0  0  0  0  0  0  0  0
  -26.8909  -27.7823   20.0545 C   0  0  0  0  0  0  0  0  0  0  0  0
  -24.3485  -27.9929   23.9069 C   0  0  0  0  0  0  0  0  0  0  0  0
  -22.7052  -26.8188   22.8339 C   0  0  0  0  0  0  0  0  0  0  0  0
  -23.0529  -25.6878   23.5393 C   0  0  0  0  0  0  0  0  0  0  0  0
  -24.8293  -28.5400   20.1593 C   0  0  0  0  0  0  0  0  0  0  0  0
  -25.0779  -26.4551   18.8028 C   0  0  0  0  0  0  0  0  0  0  0  0
  -25.9219  -14.5277   21.2981 C   0  0  0  0  0  0  0  0  0  0  0  0
  -23.3445  -12.5749   21.5547 C   0  0  0  0  0  0  0  0  0  0  0  0
  -20.1341  -12.1406   22.6278 C   0  0  0  0  0  0  0  0  0  0  0  0
  -26.1222  -32.0615   25.0034 C   0  0  0  0  0  0  0  0  0  0  0  0
  -30.0429  -12.5340   19.0398 C   0  0  0  0  0  0  0  0  0  0  0  0
  -25.4011  -14.7024   23.7587 C   0  0  0  0  0  0  0  0  0  0  0  0
  -22.9735  -15.0105   22.0984 C   0  0  0  0  0  0  0  0  0  0  0  0
  -28.5320  -12.3739   18.8919 C   0  0  0  0  0  0  0  0  0  0  0  0
  -25.1511  -33.0903   21.5828 C   0  0  0  0  0  0  0  0  0  0  0  0
  -27.8566  -13.7388   18.8048 C   0  0  0  0  0  0  0  0  0  0  0  0
  -25.4477  -31.8369   20.7612 C   0  0  0  0  0  0  0  0  0  0  0  0
  -26.0523  -33.1906   22.8098 C   0  0  0  0  0  0  0  0  0  0  0  0
  -26.3143  -30.7323   22.8612 C   0  0  0  0  0  0  0  0  0  0  0  0
  -28.0926  -14.5537   20.0822 C   0  0  1  0  0  0  0  0  0  0  0  0
  -25.2057  -13.9136   22.4676 C   0  0  1  0  0  0  0  0  0  0  0  0
  -25.3918  -30.5771   21.6428 C   0  0  2  0  0  0  0  0  0  0  0  0
  -21.5951  -26.8038   21.8394 C   0  0  0  0  0  0  0  0  0  0  0  0
  -18.2795  -10.4504   22.6603 C   0  0  0  0  0  0  0  0  0  0  0  0
  -23.2639  -30.9412   24.7142 C   0  0  0  0  0  0  0  0  0  0  0  0
  -22.7756  -13.1462   18.6119 C   0  0  0  0  0  0  0  0  0  0  0  0
  -20.4667  -12.2408   18.9545 C   0  0  0  0  0  0  0  0  0  0  0  0
  -22.4472  -10.7627   19.2944 C   0  0  0  0  0  0  0  0  0  0  0  0
  -25.5363  -31.1514   27.2188 C   0  0  0  0  0  0  0  0  0  0  0  0
  -20.0890  -12.0753   25.5863 C   0  0  0  0  0  0  0  0  0  0  0  0
  -25.0802  -29.2714   24.1213 C   0  0  0  0  0  0  0  0  0  0  0  0
  -22.3267  -24.3816   23.3384 C   0  0  0  0  0  0  0  0  0  0  0  0
  -23.0475  -23.1728   23.9453 C   0  0  0  0  0  0  0  0  0  0  0  0
  -22.3356  -21.8485   23.6651 C   0  0  0  0  0  0  0  0  0  0  0  0
  -23.0580  -20.6768   24.3161 C   0  0  0  0  0  0  0  0  0  1  0  0
  -21.9452  -12.5714   20.9881 C   0  0  1  0  0  0  0  0  0  0  0  0
  -19.4762  -11.0171   23.4084 C   0  0  2  0  0  0  0  0  0  0  0  0
  -24.4687  -30.1595   25.2284 C   0  0  1  0  0  0  0  0  0  0  0  0
  -21.9182  -12.2019   19.4781 C   0  0  0  0  0  0  0  0  0  0  0  0
  -24.0540  -25.6892   24.4416 N   0  0  0  0  0  0  0  0  0  0  0  0
  -26.9759  -28.8798   20.8109 N   0  0  0  0  0  0  0  0  0  0  0  0
  -23.3470  -27.9916   23.0048 N   0  0  0  0  0  0  0  0  0  0  0  0
  -25.7063  -29.3181   20.8562 N   0  0  0  0  0  0  0  0  0  0  0  0
  -23.7968  -13.7900   22.0884 N   0  0  0  0  0  0  0  0  0  0  0  0
  -26.0133  -31.9638   23.6065 N   0  0  0  0  0  0  0  0  0  0  0  0
  -23.5137  -28.8366   20.1003 N   0  0  0  0  0  0  0  0  0  0  0  0
  -25.9828  -25.4935   18.3329 N   0  0  0  0  0  0  0  0  0  0  0  0
  -27.2241  -14.0919   21.1439 N   0  0  0  0  0  0  0  0  0  0  0  0
  -21.1637  -11.6778   21.8361 N   0  0  0  0  0  0  0  0  0  0  0  0
  -25.4626  -31.0859   25.7662 N   0  0  0  0  0  0  0  0  0  0  0  0
  -19.0101  -11.5116   24.7347 N   0  3  0  0  0  0  0  0  0  0  0  0
  -23.8677  -26.3666   18.4845 O   0  0  0  0  0  0  0  0  0  0  0  0
  -25.3359  -15.3360   20.5874 O   0  0  0  0  0  0  0  0  0  0  0  0
  -24.0090  -11.5359   21.5313 O   0  0  0  0  0  0  0  0  0  0  0  0
  -19.7685  -13.3112   22.7092 O   0  0  0  0  0  0  0  0  0  0  0  0
  -26.7640  -32.9746   25.5385 O   0  0  0  0  0  0  0  0  0  0  0  0
  -31.4748  -24.7812   18.9375 O   0  0  0  0  0  0  0  0  0  0  0  0
  -22.3566  -19.4732   24.0067 O   0  0  0  0  0  0  0  0  0  1  0  0
  -31.1270  -19.2972   19.3941 F   0  0  0  0  0  0  0  0  0  0  0  0
  -29.6827  -23.3409   17.4023 F   0  0  0  0  0  0  0  0  0  0  0  0
  1  2  1  0  0  0  0
  1  5  2  0  0  0  0
  2  6  2  0  0  0  0
  3  8  2  0  0  0  0
  3 16  1  0  0  0  0
  4  9  1  0  0  0  0
  4 16  2  0  0  0  0
  5 18  1  0  0  0  0
  6 20  1  0  0  0  0
  7 10  2  0  0  0  0
  7 19  1  0  0  0  0
  8 22  1  0  0  0  0
  9 22  2  0  0  0  0
 10 23  1  0  0  0  0
 11 12  2  0  0  0  0
 11 24  1  0  0  0  0
 12 25  1  0  0  0  0
 13 21  1  0  0  0  0
 13 23  2  0  0  0  0
 14 25  2  0  0  0  0
 14 26  1  0  0  0  0
 15 28  1  0  0  0  0
 15 66  2  0  0  0  0
 16 27  1  0  0  0  0
 17 27  1  0  0  0  0
 17 31  2  0  0  0  0
 17 32  1  0  0  0  0
 18 20  2  0  0  0  0
 18 37  1  0  0  0  0
 19 21  2  0  0  0  0
 19 38  1  0  0  0  0
 20 46  1  0  0  0  0
 21 39  1  0  0  0  0
 22 83  1  0  0  0  0
 23 84  1  0  0  0  0
 24 26  2  0  0  0  0
 24 83  1  0  0  0  0
 25 85  1  0  0  0  0
 26 86  1  0  0  0  0
 27 67  2  0  0  0  0
 28 57  1  0  0  0  0
 28 68  2  0  0  0  0
 29 30  2  0  0  0  0
 29 49  1  0  0  0  0
 29 68  1  0  0  0  0
 30 58  1  0  0  0  0
 30 66  1  0  0  0  0
 31 69  1  0  0  0  0
 31 72  1  0  0  0  0
 32 73  1  0  0  0  0
 32 78  2  0  0  0  0
 33 47  1  0  0  0  0
 33 74  1  0  0  0  0
 33 79  2  0  0  0  0
 34 62  1  0  0  0  0
 34 70  1  0  0  0  0
 34 80  2  0  0  0  0
 35 63  1  0  0  0  0
 35 75  1  0  0  0  0
 35 81  2  0  0  0  0
 36 71  1  0  0  0  0
 36 76  1  0  0  0  0
 36 82  2  0  0  0  0
 37 40  1  0  0  0  0
 38 47  1  0  0  0  0
 39 70  1  0  0  0  0
 40 42  1  0  0  0  0
 41 43  1  0  0  0  0
 41 44  1  0  0  0  0
 42 46  1  0  0  0  0
 43 48  1  0  0  0  0
 44 71  1  0  0  0  0
 45 48  1  0  0  0  0
 45 71  1  0  0  0  0
 46 74  1  0  0  0  0
 47 70  1  0  0  0  0
 48 69  1  0  0  0  0
 50 63  1  0  0  0  0
 51 64  1  0  0  0  0
 52 65  1  0  0  0  0
 53 65  1  0  0  0  0
 54 65  1  0  0  0  0
 55 76  1  0  0  0  0
 56 77  1  0  0  0  0
 57 64  1  0  0  0  0
 58 59  1  0  0  0  0
 59 60  1  0  0  0  0
 60 61  1  0  0  0  0
 61 84  1  0  0  0  0
 62 65  1  0  0  0  0
 62 75  1  0  0  0  0
 63 77  1  0  0  0  0
 64 76  1  0  0  0  0
 67 69  1  0  0  0  0
M  CHG  1  77   1
M  ISO  4  36 100  61 101  76 100  84 101
M  END
> <Batch ID>
0080

> <Smiles>
CNC(C)C(=O)NC(C(=O)N1Cc2cc([101O:1][101CH2:1]CCCc3ncc(CC(C)[100N:0](C)[100C:0](=O)N4CCCC(n5nc(-c6ccc(Oc7ccc(F)cc7F)cc6)c(C(N)=O)c5N)C4)nc3C)ccc2CC1C(=O)NC1CCCc2ccccc21)C(C)(C)C

> <Shape>
0.276

> <Color>
0.066

> <Negative vol penalty>
0.000

$$$$

  -OEChem-04052318443D

 82 90  0     1  0  0  0  0  0999 V2000
  -32.4312  -12.8231   21.2822 C   0  0  0  0  0  0  0  0  0  0  0  0
  -32.0377  -14.1527   21.3954 C   0  0  0  0  0  0  0  0  0  0  0  0
  -28.4234  -26.2411   19.5177 C   0  0  0  0  0  0  0  0  0  0  0  0
  -26.5215  -24.7512   19.5026 C   0  0  0  0  0  0  0  0  0  0  0  0
  -31.6090  -11.9073   20.6272 C   0  0  0  0  0  0  0  0  0  0  0  0
  -30.8220  -14.5674   20.8525 C   0  0  0  0  0  0  0  0  0  0  0  0
  -25.4997  -19.2254   21.9891 C   0  0  0  0  0  0  0  0  0  0  0  0
  -29.2644  -25.1707   19.2135 C   0  0  0  0  0  0  0  0  0  0  0  0
  -27.3625  -23.6808   19.1984 C   0  0  0  0  0  0  0  0  0  0  0  0
  -24.7817  -20.2223   21.3299 C   0  0  0  0  0  0  0  0  0  0  0  0
  -29.0539  -20.4920   18.7728 C   0  0  0  0  0  0  0  0  0  0  0  0
  -28.8694  -19.3021   19.4768 C   0  0  0  0  0  0  0  0  0  0  0  0
  -23.4065  -18.5354   20.2895 C   0  0  0  0  0  0  0  0  0  0  0  0
  -29.3212  -20.4584   21.5495 C   0  0  0  0  0  0  0  0  0  0  0  0
  -18.9431  -25.0007   20.6682 C   0  0  0  0  0  0  0  0  0  0  0  0
  -18.1042  -23.2186   21.6566 C   0  0  0  0  0  0  0  0  0  0  0  0
  -27.0519  -26.0314   19.6623 C   0  0  0  0  0  0  0  0  0  0  0  0
  -25.9853  -28.3057   19.2181 C   0  0  0  0  0  0  0  0  0  0  0  0
  -30.3783  -12.3089   20.0845 C   0  0  0  0  0  0  0  0  0  0  0  0
  -25.1830  -17.8733   21.7947 C   0  0  0  0  0  0  0  0  0  0  0  0
  -29.9832  -13.6563   20.1884 C   0  0  0  0  0  0  0  0  0  0  0  0
  -24.1204  -17.5234   20.9494 C   0  0  0  0  0  0  0  0  0  0  0  0
  -28.7340  -23.8905   19.0538 C   0  0  0  0  0  0  0  0  0  0  0  0
  -23.7368  -19.8772   20.4777 C   0  0  0  0  0  0  0  0  0  0  0  0
  -29.3722  -21.6652   19.4571 C   0  0  0  0  0  0  0  0  0  0  0  0
  -29.0030  -19.2853   20.8652 C   0  0  0  0  0  0  0  0  0  0  0  0
  -29.5057  -21.6484   20.8454 C   0  0  0  0  0  0  0  0  0  0  0  0
  -26.1828  -27.1366   19.9771 C   0  0  0  0  0  0  0  0  0  0  0  0
  -18.7046  -25.2312   22.0025 C   0  0  0  0  0  0  0  0  0  0  0  0
  -25.0719  -29.0339   19.9406 C   0  0  0  0  0  0  0  0  0  0  0  0
  -26.5748  -28.6984   17.9715 C   0  0  0  0  0  0  0  0  0  0  0  0
  -26.7303  -15.3518   20.6320 C   0  0  0  0  0  0  0  0  0  0  0  0
  -24.0852  -13.7594   21.6270 C   0  0  0  0  0  0  0  0  0  0  0  0
  -20.7658  -13.8625   22.4132 C   0  0  0  0  0  0  0  0  0  0  0  0
  -20.8746  -27.5042   23.9273 C   0  0  0  0  0  0  0  0  0  0  0  0
  -29.5452  -11.2928   19.3440 C   0  0  0  0  0  0  0  0  0  0  0  0
  -25.9499  -16.8112   22.5338 C   0  0  0  0  0  0  0  0  0  0  0  0
  -23.7274  -16.0873   20.7224 C   0  0  0  0  0  0  0  0  0  0  0  0
  -28.1003  -11.7336   19.1242 C   0  0  0  0  0  0  0  0  0  0  0  0
  -23.5753  -29.7703   24.4249 C   0  0  0  0  0  0  0  0  0  0  0  0
  -28.0522  -13.1701   18.6134 C   0  0  0  0  0  0  0  0  0  0  0  0
  -24.5320  -29.4578   23.2729 C   0  0  0  0  0  0  0  0  0  0  0  0
  -22.8943  -28.5088   24.9510 C   0  0  0  0  0  0  0  0  0  0  0  0
  -23.1659  -27.3884   22.7727 C   0  0  0  0  0  0  0  0  0  0  0  0
  -28.6604  -14.1393   19.6343 C   0  0  1  0  0  0  0  0  0  0  0  0
  -25.8736  -15.4431   21.8631 C   0  0  1  0  0  0  0  0  0  0  0  0
  -23.8344  -28.6367   22.1718 C   0  0  2  0  0  0  0  0  0  0  0  0
  -18.1466  -27.6787   22.2469 C   0  0  0  0  0  0  0  0  0  0  0  0
  -18.8710  -12.3948   23.1566 C   0  0  0  0  0  0  0  0  0  0  0  0
  -23.8568  -12.6278   18.8026 C   0  0  0  0  0  0  0  0  0  0  0  0
  -21.4993  -11.9715   19.3311 C   0  0  0  0  0  0  0  0  0  0  0  0
  -23.3877  -10.9825   20.6266 C   0  0  0  0  0  0  0  0  0  0  0  0
  -20.3970  -15.4062   24.9112 C   0  0  0  0  0  0  0  0  0  0  0  0
  -19.4100  -21.6554   19.2166 C   0  0  0  0  0  0  0  0  0  0  0  0
  -20.8927  -21.8829   19.5155 C   0  0  0  0  0  0  0  0  0  0  0  0
  -18.6038  -22.9576   19.1539 C   0  0  0  0  0  0  0  0  0  0  0  0
  -21.6668  -20.5717   19.5350 C   0  0  0  0  0  0  0  0  0  1  0  0
  -18.9416  -26.4632   22.7700 C   0  0  2  0  0  0  0  0  0  0  0  0
  -22.7564  -13.4010   21.0065 C   0  0  1  0  0  0  0  0  0  0  0  0
  -19.9948  -13.3175   23.6019 C   0  0  2  0  0  0  0  0  0  0  0  0
  -22.8834  -12.2728   19.9443 C   0  0  0  0  0  0  0  0  0  0  0  0
  -18.1827  -24.1178   22.6122 N   0  0  0  0  0  0  0  0  0  0  0  0
  -25.4535  -27.1189   21.0959 N   0  0  0  0  0  0  0  0  0  0  0  0
  -18.5540  -23.7073   20.4615 N   0  0  0  0  0  0  0  0  0  0  0  0
  -24.7890  -28.2859   21.0455 N   0  0  0  0  0  0  0  0  0  0  0  0
  -24.5114  -15.0850   21.4629 N   0  0  0  0  0  0  0  0  0  0  0  0
  -22.2507  -27.7769   23.8573 N   0  0  0  0  0  0  0  0  0  0  0  0
  -24.4912  -30.2346   19.7322 N   0  0  0  0  0  0  0  0  0  0  0  0
  -25.9300  -28.3313   16.7825 N   0  0  0  0  0  0  0  0  0  0  0  0
  -27.7245  -14.3951   20.7081 N   0  0  0  0  0  0  0  0  0  0  0  0
  -21.8618  -13.0813   22.1137 N   0  0  0  0  0  0  0  0  0  0  0  0
  -20.3428  -26.8118   22.8462 N   0  0  0  0  0  0  0  0  0  0  0  0
  -19.4015  -14.4342   24.3906 N   0  3  0  0  0  0  0  0  0  0  0  0
  -27.6505  -29.3411   17.9134 O   0  0  0  0  0  0  0  0  0  0  0  0
  -26.5049  -16.0933   19.6828 O   0  0  0  0  0  0  0  0  0  0  0  0
  -24.7181  -12.8968   22.2410 O   0  0  0  0  0  0  0  0  0  0  0  0
  -20.4274  -14.8775   21.8084 O   0  0  0  0  0  0  0  0  0  0  0  0
  -20.1708  -27.8566   24.8799 O   0  0  0  0  0  0  0  0  0  0  0  0
  -29.5543  -22.8458   18.7568 O   0  0  0  0  0  0  0  0  0  0  0  0
  -23.0348  -20.8482   19.8325 O   0  0  0  0  0  0  0  0  0  1  0  0
  -28.8242  -18.1429   21.5413 F   0  0  0  0  0  0  0  0  0  0  0  0
  -29.8102  -22.7724   21.5085 F   0  0  0  0  0  0  0  0  0  0  0  0
  1  2  1  0  0  0  0
  1  5  2  0  0  0  0
  2  6  2  0  0  0  0
  3  8  2  0  0  0  0
  3 17  1  0  0  0  0
  4  9  1  0  0  0  0
  4 17  2  0  0  0  0
  5 19  1  0  0  0  0
  6 21  1  0  0  0  0
  7 10  2  0  0  0  0
  7 20  1  0  0  0  0
  8 23  1  0  0  0  0
  9 23  2  0  0  0  0
 10 24  1  0  0  0  0
 11 12  2  0  0  0  0
 11 25  1  0  0  0  0
 12 26  1  0  0  0  0
 13 22  1  0  0  0  0
 13 24  2  0  0  0  0
 14 26  2  0  0  0  0
 14 27  1  0  0  0  0
 15 29  2  0  0  0  0
 15 64  1  0  0  0  0
 16 62  2  0  0  0  0
 16 64  1  0  0  0  0
 17 28  1  0  0  0  0
 18 28  1  0  0  0  0
 18 30  2  0  0  0  0
 18 31  1  0  0  0  0
 19 21  2  0  0  0  0
 19 36  1  0  0  0  0
 20 22  2  0  0  0  0
 20 37  1  0  0  0  0
 21 45  1  0  0  0  0
 22 38  1  0  0  0  0
 23 79  1  0  0  0  0
 24 80  1  0  0  0  0
 25 27  2  0  0  0  0
 25 79  1  0  0  0  0
 26 81  1  0  0  0  0
 27 82  1  0  0  0  0
 28 63  2  0  0  0  0
 29 58  1  0  0  0  0
 29 62  1  0  0  0  0
 30 65  1  0  0  0  0
 30 68  1  0  0  0  0
 31 69  1  0  0  0  0
 31 74  2  0  0  0  0
 32 46  1  0  0  0  0
 32 70  1  0  0  0  0
 32 75  2  0  0  0  0
 33 59  1  0  0  0  0
 33 66  1  0  0  0  0
 33 76  2  0  0  0  0
 34 60  1  0  0  0  0
 34 71  1  0  0  0  0
 34 77  2  0  0  0  0
 35 67  1  0  0  0  0
 35 72  1  0  0  0  0
 35 78  2  0  0  0  0
 36 39  1  0  0  0  0
 37 46  1  0  0  0  0
 38 66  1  0  0  0  0
 39 41  1  0  0  0  0
 40 42  1  0  0  0  0
 40 43  1  0  0  0  0
 41 45  1  0  0  0  0
 42 47  1  0  0  0  0
 43 67  1  0  0  0  0
 44 47  1  0  0  0  0
 44 67  1  0  0  0  0
 45 70  1  0  0  0  0
 46 66  1  0  0  0  0
 47 65  1  0  0  0  0
 48 58  1  0  0  0  0
 49 60  1  0  0  0  0
 50 61  1  0  0  0  0
 51 61  1  0  0  0  0
 52 61  1  0  0  0  0
 53 73  1  0  0  0  0
 54 55  1  0  0  0  0
 54 56  1  0  0  0  0
 55 57  1  0  0  0  0
 56 64  1  0  0  0  0
 57 80  1  0  0  0  0
 58 72  1  0  0  0  0
 59 61  1  0  0  0  0
 59 71  1  0  0  0  0
 60 73  1  0  0  0  0
 63 65  1  0  0  0  0
M  CHG  1  73   1
M  ISO  4  35 100  57 101  72 100  80 101
M  END
> <Batch ID>
0080

> <Smiles>
CNC(C)C(=O)NC(C(=O)N1Cc2cc([101O:1][101CH2:1]CCCn3cnc(C(C)[100NH:0][100C:0](=O)N4CCCC(n5nc(-c6ccc(Oc7ccc(F)cc7F)cc6)c(C(N)=O)c5N)C4)c3)ccc2CC1C(=O)NC1CCCc2ccccc21)C(C)(C)C

> <Shape>
0.248

> <Color>
0.063

> <Negative vol penalty>
0.000

$$$$

  -OEChem-04052318443D

 86 94  0     1  0  0  0  0  0999 V2000
  -27.1248  -29.7465   18.1867 C   0  0  0  0  0  0  0  0  0  0  0  0
  -26.7742  -28.4033   18.2768 C   0  0  0  0  0  0  0  0  0  0  0  0
  -29.9112  -23.0144   21.4597 C   0  0  0  0  0  0  0  0  0  0  0  0
  -28.6958  -22.8733   19.3765 C   0  0  0  0  0  0  0  0  0  0  0  0
  -26.5809  -30.6691   19.0794 C   0  0  0  0  0  0  0  0  0  0  0  0
  -25.8805  -27.9816   19.2606 C   0  0  0  0  0  0  0  0  0  0  0  0
  -21.7205  -23.5124   18.7838 C   0  0  0  0  0  0  0  0  0  0  0  0
  -30.5967  -24.1322   20.9842 C   0  0  0  0  0  0  0  0  0  0  0  0
  -29.3813  -23.9912   18.9009 C   0  0  0  0  0  0  0  0  0  0  0  0
  -21.7256  -22.1789   19.1907 C   0  0  0  0  0  0  0  0  0  0  0  0
  -30.0014  -27.4370   20.5882 C   0  0  0  0  0  0  0  0  0  0  0  0
  -30.1366  -28.5281   21.4465 C   0  0  0  0  0  0  0  0  0  0  0  0
  -22.0863  -17.7654   22.3450 C   0  0  0  0  0  0  0  0  0  0  0  0
  -22.8779  -16.6534   22.7242 C   0  0  0  0  0  0  0  0  0  0  0  0
  -20.5629  -22.7974   21.2118 C   0  0  0  0  0  0  0  0  0  0  0  0
  -32.5412  -28.3338   21.3147 C   0  0  0  0  0  0  0  0  0  0  0  0
  -28.9608  -22.3849   20.6559 C   0  0  0  0  0  0  0  0  0  0  0  0
  -27.0372  -21.2159   21.8562 C   0  0  0  0  0  0  0  0  0  0  0  0
  -25.6726  -30.2601   20.0685 C   0  0  0  0  0  0  0  0  0  0  0  0
  -21.1452  -24.5017   19.5943 C   0  0  0  0  0  0  0  0  0  0  0  0
  -25.3250  -28.8994   20.1683 C   0  0  0  0  0  0  0  0  0  0  0  0
  -20.5495  -24.1423   20.8117 C   0  0  0  0  0  0  0  0  0  0  0  0
  -30.3317  -24.6206   19.7048 C   0  0  0  0  0  0  0  0  0  0  0  0
  -21.1493  -21.8216   20.4061 C   0  0  0  0  0  0  0  0  0  0  0  0
  -31.1361  -26.7942   20.0932 C   0  0  0  0  0  0  0  0  0  0  0  0
  -31.4065  -28.9766   21.8098 C   0  0  0  0  0  0  0  0  0  0  0  0
  -32.4060  -27.2426   20.4564 C   0  0  0  0  0  0  0  0  0  0  0  0
  -28.2528  -21.2298   21.1463 C   0  0  0  0  0  0  0  0  0  0  0  0
  -21.4452  -17.4332   21.1720 C   0  0  0  0  0  0  0  0  0  0  0  0
  -22.6966  -15.6754   21.7712 C   0  0  0  0  0  0  0  0  0  0  0  0
  -26.7908  -19.8849   22.0891 C   0  0  0  0  0  0  0  0  0  0  0  0
  -26.2052  -22.3084   22.2682 C   0  0  0  0  0  0  0  0  0  0  0  0
  -22.2269  -27.0999   21.0718 C   0  0  0  0  0  0  0  0  0  0  0  0
  -19.0855  -27.5508   21.7434 C   0  0  0  0  0  0  0  0  0  0  0  0
  -15.9836  -26.1855   22.1443 C   0  0  0  0  0  0  0  0  0  0  0  0
  -26.6163  -14.5887   20.3383 C   0  0  0  0  0  0  0  0  0  0  0  0
  -25.1475  -31.2864   21.0410 C   0  0  0  0  0  0  0  0  0  0  0  0
  -21.1242  -25.9318   19.1288 C   0  0  0  0  0  0  0  0  0  0  0  0
  -19.9009  -25.1634   21.7091 C   0  0  0  0  0  0  0  0  0  0  0  0
  -23.9190  -30.8179   21.8166 C   0  0  0  0  0  0  0  0  0  0  0  0
  -29.7535  -15.8314   21.4744 C   0  0  0  0  0  0  0  0  0  0  0  0
  -24.1320  -29.4054   22.3515 C   0  0  0  0  0  0  0  0  0  0  0  0
  -29.5442  -17.3452   21.5427 C   0  0  0  0  0  0  0  0  0  0  0  0
  -29.0132  -15.2122   20.2908 C   0  0  0  0  0  0  0  0  0  0  0  0
  -27.3655  -17.0449   20.2929 C   0  0  0  0  0  0  0  0  0  0  0  0
  -24.3396  -28.4072   21.2060 C   0  0  1  0  0  0  0  0  0  0  0  0
  -20.9665  -26.9299   20.2717 C   0  0  1  0  0  0  0  0  0  0  0  0
  -28.0472  -17.7067   21.5028 C   0  0  2  0  0  0  0  0  0  0  0  0
  -19.2042  -18.5757   21.1097 C   0  0  0  0  0  0  0  0  0  0  0  0
  -13.6218  -26.7994   22.7294 C   0  0  0  0  0  0  0  0  0  0  0  0
  -21.8061  -16.1236   18.3642 C   0  0  0  0  0  0  0  0  0  0  0  0
  -19.8621  -15.1913   19.6899 C   0  0  0  0  0  0  0  0  0  0  0  0
  -22.2581  -13.1267   21.6788 C   0  0  0  0  0  0  0  0  0  0  0  0
  -24.2130  -14.0317   22.9097 C   0  0  0  0  0  0  0  0  0  0  0  0
  -19.8750  -27.7771   24.6820 C   0  0  0  0  0  0  0  0  0  0  0  0
  -17.4688  -27.4337   25.2828 C   0  0  0  0  0  0  0  0  0  0  0  0
  -18.1450  -29.4222   23.9369 C   0  0  0  0  0  0  0  0  0  0  0  0
  -14.9711  -25.2634   19.5207 C   0  0  0  0  0  0  0  0  0  0  0  0
  -24.1793  -14.1231   20.3987 C   0  0  0  0  0  0  0  0  0  0  0  0
  -21.1266  -19.5267   19.7826 C   0  0  0  0  0  0  0  0  0  1  0  0
  -20.4779  -18.2464   20.3263 C   0  0  1  0  0  0  0  0  0  0  0  0
  -18.1608  -27.1341   22.8615 C   0  0  1  0  0  0  0  0  0  0  0  0
  -14.6252  -26.5956   21.6050 C   0  0  2  0  0  0  0  0  0  0  0  0
  -21.3714  -15.4392   19.6616 C   0  0  0  0  0  0  0  0  0  0  0  0
  -23.2829  -14.3223   21.6802 C   0  0  0  0  0  0  0  0  0  0  0  0
  -18.4263  -27.9225   24.1750 C   0  0  0  0  0  0  0  0  0  0  0  0
  -28.7445  -20.0049   20.9418 N   0  0  0  0  0  0  0  0  0  0  0  0
  -21.8240  -16.1606   20.8325 N   0  0  0  0  0  0  0  0  0  0  0  0
  -27.8333  -19.2088   21.5268 N   0  0  0  0  0  0  0  0  0  0  0  0
  -19.9113  -26.5495   21.2129 N   0  0  0  0  0  0  0  0  0  0  0  0
  -27.5987  -15.5923   20.3124 N   0  0  0  0  0  0  0  0  0  0  0  0
  -25.7862  -19.2386   22.7181 N   0  0  0  0  0  0  0  0  0  0  0  0
  -26.6065  -23.6122   21.9467 N   0  0  0  0  0  0  0  0  0  0  0  0
  -23.0737  -28.0781   20.5867 N   0  0  0  0  0  0  0  0  0  0  0  0
  -16.8043  -27.2755   22.3435 N   0  0  0  0  0  0  0  0  0  0  0  0
  -25.3007  -15.0353   20.3641 N   0  0  0  0  0  0  0  0  0  0  0  0
  -14.0951  -25.5489   20.6861 N   0  3  0  0  0  0  0  0  0  0  0  0
  -25.1457  -22.1347   22.9170 O   0  0  0  0  0  0  0  0  0  0  0  0
  -22.4163  -26.3966   22.0573 O   0  0  0  0  0  0  0  0  0  0  0  0
  -19.0706  -28.7199   21.3502 O   0  0  0  0  0  0  0  0  0  0  0  0
  -16.2851  -25.0156   22.3702 O   0  0  0  0  0  0  0  0  0  0  0  0
  -26.8913  -13.3840   20.3438 O   0  0  0  0  0  0  0  0  0  0  0  0
  -31.0002  -25.7115   19.2405 O   0  0  0  0  0  0  0  0  0  0  0  0
  -21.1535  -20.5209   20.8060 O   0  0  0  0  0  0  0  0  0  1  0  0
  -31.5362  -30.0253   22.6328 F   0  0  0  0  0  0  0  0  0  0  0  0
  -33.4998  -26.6299   19.9831 F   0  0  0  0  0  0  0  0  0  0  0  0
  1  2  1  0  0  0  0
  1  5  2  0  0  0  0
  2  6  2  0  0  0  0
  3  8  2  0  0  0  0
  3 17  1  0  0  0  0
  4  9  1  0  0  0  0
  4 17  2  0  0  0  0
  5 19  1  0  0  0  0
  6 21  1  0  0  0  0
  7 10  2  0  0  0  0
  7 20  1  0  0  0  0
  8 23  1  0  0  0  0
  9 23  2  0  0  0  0
 10 24  1  0  0  0  0
 11 12  2  0  0  0  0
 11 25  1  0  0  0  0
 12 26  1  0  0  0  0
 13 14  1  0  0  0  0
 13 29  2  0  0  0  0
 14 30  2  0  0  0  0
 15 22  1  0  0  0  0
 15 24  2  0  0  0  0
 16 26  2  0  0  0  0
 16 27  1  0  0  0  0
 17 28  1  0  0  0  0
 18 28  1  0  0  0  0
 18 31  2  0  0  0  0
 18 32  1  0  0  0  0
 19 21  2  0  0  0  0
 19 37  1  0  0  0  0
 20 22  2  0  0  0  0
 20 38  1  0  0  0  0
 21 46  1  0  0  0  0
 22 39  1  0  0  0  0
 23 83  1  0  0  0  0
 24 84  1  0  0  0  0
 25 27  2  0  0  0  0
 25 83  1  0  0  0  0
 26 85  1  0  0  0  0
 27 86  1  0  0  0  0
 28 67  2  0  0  0  0
 29 61  1  0  0  0  0
 29 68  1  0  0  0  0
 30 65  1  0  0  0  0
 30 68  1  0  0  0  0
 31 69  1  0  0  0  0
 31 72  1  0  0  0  0
 32 73  1  0  0  0  0
 32 78  2  0  0  0  0
 33 47  1  0  0  0  0
 33 74  1  0  0  0  0
 33 79  2  0  0  0  0
 34 62  1  0  0  0  0
 34 70  1  0  0  0  0
 34 80  2  0  0  0  0
 35 63  1  0  0  0  0
 35 75  1  0  0  0  0
 35 81  2  0  0  0  0
 36 71  1  0  0  0  0
 36 76  1  0  0  0  0
 36 82  2  0  0  0  0
 37 40  1  0  0  0  0
 38 47  1  0  0  0  0
 39 70  1  0  0  0  0
 40 42  1  0  0  0  0
 41 43  1  0  0  0  0
 41 44  1  0  0  0  0
 42 46  1  0  0  0  0
 43 48  1  0  0  0  0
 44 71  1  0  0  0  0
 45 48  1  0  0  0  0
 45 71  1  0  0  0  0
 46 74  1  0  0  0  0
 47 70  1  0  0  0  0
 48 69  1  0  0  0  0
 49 61  1  0  0  0  0
 50 63  1  0  0  0  0
 51 64  1  0  0  0  0
 52 64  1  0  0  0  0
 53 65  1  0  0  0  0
 54 65  1  0  0  0  0
 55 66  1  0  0  0  0
 56 66  1  0  0  0  0
 57 66  1  0  0  0  0
 58 77  1  0  0  0  0
 59 65  1  0  0  0  0
 59 76  1  0  0  0  0
 60 61  1  0  0  0  0
 60 84  1  0  0  0  0
 62 66  1  0  0  0  0
 62 75  1  0  0  0  0
 63 77  1  0  0  0  0
 64 68  1  0  0  0  0
 67 69  1  0  0  0  0
M  CHG  1  77   1
M  ISO  4  36 100  60 101  76 100  84 101
M  END
> <Batch ID>
0080

> <Smiles>
CNC(C)C(=O)NC(C(=O)N1Cc2cc([101O:1][101CH2:1]C(C)c3ccc(C(C)(C)C[100NH:0][100C:0](=O)N4CCCC(n5nc(-c6ccc(Oc7ccc(F)cc7F)cc6)c(C(N)=O)c5N)C4)n3C(C)C)ccc2CC1C(=O)NC1CCCc2ccccc21)C(C)(C)C

> <Shape>
0.223

> <Color>
0.056

> <Negative vol penalty>
0.000

$$$$

  -OEChem-04052318443D

 84 92  0     1  0  0  0  0  0999 V2000
  -31.0037  -28.2242   15.8933 C   0  0  0  0  0  0  0  0  0  0  0  0
  -29.6890  -27.8116   16.0847 C   0  0  0  0  0  0  0  0  0  0  0  0
  -29.4688  -17.6849   20.5249 C   0  0  0  0  0  0  0  0  0  0  0  0
  -27.1065  -18.1870   20.5901 C   0  0  0  0  0  0  0  0  0  0  0  0
  -31.7440  -28.7112   16.9697 C   0  0  0  0  0  0  0  0  0  0  0  0
  -29.1141  -27.8847   17.3530 C   0  0  0  0  0  0  0  0  0  0  0  0
  -23.2694  -29.1440   18.6791 C   0  0  0  0  0  0  0  0  0  0  0  0
  -29.1909  -16.3434   20.7869 C   0  0  0  0  0  0  0  0  0  0  0  0
  -26.8285  -16.8455   20.8521 C   0  0  0  0  0  0  0  0  0  0  0  0
  -22.1811  -28.3292   18.9881 C   0  0  0  0  0  0  0  0  0  0  0  0
  -28.1108  -13.6410   19.0655 C   0  0  0  0  0  0  0  0  0  0  0  0
  -28.7773  -12.6804   18.3048 C   0  0  0  0  0  0  0  0  0  0  0  0
  -22.5987  -28.6732   21.3389 C   0  0  0  0  0  0  0  0  0  0  0  0
  -29.7464  -11.7592   20.3172 C   0  0  0  0  0  0  0  0  0  0  0  0
  -22.1221  -24.6190   24.4486 C   0  0  0  0  0  0  0  0  0  0  0  0
  -28.4266  -18.6068   20.4265 C   0  0  0  0  0  0  0  0  0  0  0  0
  -28.8094  -20.6109   18.8953 C   0  0  0  0  0  0  0  0  0  0  0  0
  -31.1749  -28.7993   18.2499 C   0  0  0  0  0  0  0  0  0  0  0  0
  -24.0384  -29.7217   19.6995 C   0  0  0  0  0  0  0  0  0  0  0  0
  -29.8480  -28.3720   18.4479 C   0  0  0  0  0  0  0  0  0  0  0  0
  -23.6947  -29.4970   21.0402 C   0  0  0  0  0  0  0  0  0  0  0  0
  -27.8708  -15.9237   20.9505 C   0  0  0  0  0  0  0  0  0  0  0  0
  -21.8474  -28.0913   20.3182 C   0  0  0  0  0  0  0  0  0  0  0  0
  -28.2622  -13.6608   20.4520 C   0  0  0  0  0  0  0  0  0  0  0  0
  -29.5950  -11.7395   18.9306 C   0  0  0  0  0  0  0  0  0  0  0  0
  -29.0799  -12.7199   21.0778 C   0  0  0  0  0  0  0  0  0  0  0  0
  -28.7130  -19.9928   20.1564 C   0  0  0  0  0  0  0  0  0  0  0  0
  -23.3374  -24.0011   24.5388 C   0  0  0  0  0  0  0  0  0  0  0  0
  -29.0954  -21.9243   19.1775 C   0  0  0  0  0  0  0  0  0  0  0  0
  -22.2231  -23.0757   22.8648 C   0  0  0  0  0  0  0  0  0  0  0  0
  -28.6541  -20.0481   17.5857 C   0  0  0  0  0  0  0  0  0  0  0  0
  -27.0773  -29.5153   20.6086 C   0  0  0  0  0  0  0  0  0  0  0  0
  -26.2152  -31.8696   22.6669 C   0  0  0  0  0  0  0  0  0  0  0  0
  -23.7267  -33.4353   24.3997 C   0  0  0  0  0  0  0  0  0  0  0  0
  -28.0707  -25.3848   23.9551 C   0  0  0  0  0  0  0  0  0  0  0  0
  -32.0297  -29.2881   19.3923 C   0  0  0  0  0  0  0  0  0  0  0  0
  -25.1930  -30.6198   19.3493 C   0  0  0  0  0  0  0  0  0  0  0  0
  -24.4760  -30.1100   22.1726 C   0  0  0  0  0  0  0  0  0  0  0  0
  -31.2261  -29.6839   20.6284 C   0  0  0  0  0  0  0  0  0  0  0  0
  -31.2250  -24.6693   22.4670 C   0  0  0  0  0  0  0  0  0  0  0  0
  -30.1849  -28.6173   20.9523 C   0  0  0  0  0  0  0  0  0  0  0  0
  -30.9476  -23.4454   21.5923 C   0  0  0  0  0  0  0  0  0  0  0  0
  -30.4220  -24.6288   23.7652 C   0  0  0  0  0  0  0  0  0  0  0  0
  -28.6916  -23.2233   22.7146 C   0  0  0  0  0  0  0  0  0  0  0  0
  -29.1814  -28.4591   19.8037 C   0  0  1  0  0  0  0  0  0  0  0  0
  -26.2182  -30.7405   20.4727 C   0  0  1  0  0  0  0  0  0  0  0  0
  -29.4364  -23.2468   21.3688 C   0  0  2  0  0  0  0  0  0  0  0  0
  -21.8829  -22.1973   21.7178 C   0  0  0  0  0  0  0  0  0  0  0  0
  -24.0929  -23.8874   26.9281 C   0  0  0  0  0  0  0  0  0  0  0  0
  -23.3350  -35.3037   26.0286 C   0  0  0  0  0  0  0  0  0  0  0  0
  -27.3272  -30.1364   24.9185 C   0  0  0  0  0  0  0  0  0  0  0  0
  -26.0799  -31.5728   26.5461 C   0  0  0  0  0  0  0  0  0  0  0  0
  -27.8623  -32.5715   25.1150 C   0  0  0  0  0  0  0  0  0  0  0  0
  -21.9670  -34.8741   22.5044 C   0  0  0  0  0  0  0  0  0  0  0  0
  -20.0498  -25.2772   21.6900 C   0  0  0  0  0  0  0  0  0  0  0  0
  -25.0935  -25.6426   25.4124 C   0  0  0  0  0  0  0  0  0  0  0  0
  -20.0672  -24.3965   22.9414 C   0  0  0  0  0  0  0  0  0  0  0  0
  -25.6728  -26.0178   24.0481 C   0  0  0  0  0  0  0  0  0  0  0  0
  -20.8530  -26.5633   21.8454 C   0  0  0  0  0  0  0  0  0  1  0  0
  -24.4631  -24.2081   25.4535 C   0  0  2  0  0  0  0  0  0  0  0  0
  -25.6570  -31.9125   24.0689 C   0  0  1  0  0  0  0  0  0  0  0  0
  -23.3829  -34.9050   24.5618 C   0  0  2  0  0  0  0  0  0  0  0  0
  -26.7178  -31.5350   25.1410 C   0  0  0  0  0  0  0  0  0  0  0  0
  -28.9212  -20.8436   21.1648 N   0  0  0  0  0  0  0  0  0  0  0  0
  -21.4538  -24.0269   23.4042 N   0  0  0  0  0  0  0  0  0  0  0  0
  -29.1512  -22.0096   20.5376 N   0  0  0  0  0  0  0  0  0  0  0  0
  -23.3725  -23.0507   23.5471 N   0  3  0  0  0  0  0  0  0  0  0  0
  -25.6000  -30.9757   21.7791 N   0  0  0  0  0  0  0  0  0  0  0  0
  -28.9969  -24.4400   23.4834 N   0  0  0  0  0  0  0  0  0  0  0  0
  -29.3023  -23.0029   18.3925 N   0  0  0  0  0  0  0  0  0  0  0  0
  -28.3614  -18.6819   17.4761 N   0  0  0  0  0  0  0  0  0  0  0  0
  -28.2151  -29.5363   19.8248 N   0  0  0  0  0  0  0  0  0  0  0  0
  -25.0826  -33.2427   24.2390 N   0  0  0  0  0  0  0  0  0  0  0  0
  -26.7412  -25.1337   23.6386 N   0  0  0  0  0  0  0  0  0  0  0  0
  -22.0548  -35.1966   23.9519 N   0  3  0  0  0  0  0  0  0  0  0  0
  -28.7875  -20.7330   16.5433 O   0  0  0  0  0  0  0  0  0  0  0  0
  -26.7340  -28.6181   21.3694 O   0  0  0  0  0  0  0  0  0  0  0  0
  -27.1577  -32.6074   22.3685 O   0  0  0  0  0  0  0  0  0  0  0  0
  -22.8778  -32.5467   24.4178 O   0  0  0  0  0  0  0  0  0  0  0  0
  -28.4043  -26.3812   24.6053 O   0  0  0  0  0  0  0  0  0  0  0  0
  -27.5993  -14.6146   21.2059 O   0  0  0  0  0  0  0  0  0  0  0  0
  -20.7860  -27.2958   20.6226 O   0  0  0  0  0  0  0  0  0  1  0  0
  -30.2337  -10.8161   18.2001 F   0  0  0  0  0  0  0  0  0  0  0  0
  -29.2283  -12.7331   22.4096 F   0  0  0  0  0  0  0  0  0  0  0  0
  1  2  1  0  0  0  0
  1  5  2  0  0  0  0
  2  6  2  0  0  0  0
  3  8  2  0  0  0  0
  3 16  1  0  0  0  0
  4  9  1  0  0  0  0
  4 16  2  0  0  0  0
  5 18  1  0  0  0  0
  6 20  1  0  0  0  0
  7 10  2  0  0  0  0
  7 19  1  0  0  0  0
  8 22  1  0  0  0  0
  9 22  2  0  0  0  0
 10 23  1  0  0  0  0
 11 12  2  0  0  0  0
 11 24  1  0  0  0  0
 12 25  1  0  0  0  0
 13 21  1  0  0  0  0
 13 23  2  0  0  0  0
 14 25  2  0  0  0  0
 14 26  1  0  0  0  0
 15 28  2  0  0  0  0
 15 65  1  0  0  0  0
 16 27  1  0  0  0  0
 17 27  1  0  0  0  0
 17 29  2  0  0  0  0
 17 31  1  0  0  0  0
 18 20  2  0  0  0  0
 18 36  1  0  0  0  0
 19 21  2  0  0  0  0
 19 37  1  0  0  0  0
 20 45  1  0  0  0  0
 21 38  1  0  0  0  0
 22 81  1  0  0  0  0
 23 82  1  0  0  0  0
 24 26  2  0  0  0  0
 24 81  1  0  0  0  0
 25 83  1  0  0  0  0
 26 84  1  0  0  0  0
 27 64  2  0  0  0  0
 28 60  1  0  0  0  0
 28 67  1  0  0  0  0
 29 66  1  0  0  0  0
 29 70  1  0  0  0  0
 30 48  1  0  0  0  0
 30 65  1  0  0  0  0
 30 67  2  0  0  0  0
 31 71  1  0  0  0  0
 31 76  2  0  0  0  0
 32 46  1  0  0  0  0
 32 72  1  0  0  0  0
 32 77  2  0  0  0  0
 33 61  1  0  0  0  0
 33 68  1  0  0  0  0
 33 78  2  0  0  0  0
 34 62  1  0  0  0  0
 34 73  1  0  0  0  0
 34 79  2  0  0  0  0
 35 69  1  0  0  0  0
 35 74  1  0  0  0  0
 35 80  2  0  0  0  0
 36 39  1  0  0  0  0
 37 46  1  0  0  0  0
 38 68  1  0  0  0  0
 39 41  1  0  0  0  0
 40 42  1  0  0  0  0
 40 43  1  0  0  0  0
 41 45  1  0  0  0  0
 42 47  1  0  0  0  0
 43 69  1  0  0  0  0
 44 47  1  0  0  0  0
 44 69  1  0  0  0  0
 45 72  1  0  0  0  0
 46 68  1  0  0  0  0
 47 66  1  0  0  0  0
 49 60  1  0  0  0  0
 50 62  1  0  0  0  0
 51 63  1  0  0  0  0
 52 63  1  0  0  0  0
 53 63  1  0  0  0  0
 54 75  1  0  0  0  0
 55 57  1  0  0  0  0
 55 59  1  0  0  0  0
 56 58  1  0  0  0  0
 56 60  1  0  0  0  0
 57 65  1  0  0  0  0
 58 74  1  0  0  0  0
 59 82  1  0  0  0  0
 61 63  1  0  0  0  0
 61 73  1  0  0  0  0
 62 75  1  0  0  0  0
 64 66  1  0  0  0  0
M  CHG  2  67   1  75   1
M  ISO  4  35 100  59 101  74 100  82 101
M  END
> <Batch ID>
0080

> <Smiles>
CNC(C)C(=O)NC(C(=O)N1Cc2cc([101O:1][101CH2:1]CCn3cc(C(C)CC[100NH:0][100C:0](=O)N4CCCC(n5nc(-c6ccc(Oc7ccc(F)cc7F)cc6)c(C(N)=O)c5N)C4)nc3C)ccc2CC1C(=O)NC1CCCc2ccccc21)C(C)(C)C

> <Shape>
0.263

> <Color>
0.086

> <Negative vol penalty>
0.000

$$$$

  -OEChem-04052318443D

 85 93  0     1  0  0  0  0  0999 V2000
  -29.0087  -25.9530   15.8869 C   0  0  0  0  0  0  0  0  0  0  0  0
  -27.7122  -26.2582   16.2888 C   0  0  0  0  0  0  0  0  0  0  0  0
  -26.2162  -17.8195   22.4322 C   0  0  0  0  0  0  0  0  0  0  0  0
  -24.7933  -18.8710   20.7869 C   0  0  0  0  0  0  0  0  0  0  0  0
  -30.0634  -26.0702   16.7913 C   0  0  0  0  0  0  0  0  0  0  0  0
  -27.4696  -26.6798   17.5956 C   0  0  0  0  0  0  0  0  0  0  0  0
  -24.3394  -30.6552   17.8048 C   0  0  0  0  0  0  0  0  0  0  0  0
  -25.5056  -16.6283   22.2855 C   0  0  0  0  0  0  0  0  0  0  0  0
  -24.0827  -17.6797   20.6402 C   0  0  0  0  0  0  0  0  0  0  0  0
  -22.9781  -30.4029   17.6411 C   0  0  0  0  0  0  0  0  0  0  0  0
  -25.3792  -14.0569   20.0936 C   0  0  0  0  0  0  0  0  0  0  0  0
  -26.1113  -12.8745   19.9851 C   0  0  0  0  0  0  0  0  0  0  0  0
  -22.6770  -30.5093   20.0322 C   0  0  0  0  0  0  0  0  0  0  0  0
  -19.7033  -27.0877   22.0020 C   0  0  0  0  0  0  0  0  0  0  0  0
  -25.0285  -12.0221   21.9696 C   0  0  0  0  0  0  0  0  0  0  0  0
  -19.7873  -24.5715   20.9497 C   0  0  0  0  0  0  0  0  0  0  0  0
  -25.8601  -18.9409   21.6829 C   0  0  0  0  0  0  0  0  0  0  0  0
  -27.7304  -20.5787   21.1107 C   0  0  0  0  0  0  0  0  0  0  0  0
  -29.8349  -26.5027   18.1071 C   0  0  0  0  0  0  0  0  0  0  0  0
  -24.8826  -30.8258   19.0863 C   0  0  0  0  0  0  0  0  0  0  0  0
  -28.5221  -26.8017   18.5188 C   0  0  0  0  0  0  0  0  0  0  0  0
  -24.0451  -30.7662   20.2093 C   0  0  0  0  0  0  0  0  0  0  0  0
  -20.4421  -26.1026   22.6478 C   0  0  0  0  0  0  0  0  0  0  0  0
  -20.4900  -24.8179   22.1181 C   0  0  0  0  0  0  0  0  0  0  0  0
  -24.4388  -16.5583   21.3895 C   0  0  0  0  0  0  0  0  0  0  0  0
  -22.1471  -30.3271   18.7551 C   0  0  0  0  0  0  0  0  0  0  0  0
  -24.4719  -14.2219   21.1401 C   0  0  0  0  0  0  0  0  0  0  0  0
  -25.9359  -11.8571   20.9231 C   0  0  0  0  0  0  0  0  0  0  0  0
  -24.2965  -13.2045   22.0781 C   0  0  0  0  0  0  0  0  0  0  0  0
  -26.5934  -20.1719   21.8344 C   0  0  0  0  0  0  0  0  0  0  0  0
  -19.0360  -26.7397   20.8386 C   0  0  0  0  0  0  0  0  0  0  0  0
  -28.0430  -21.8123   21.6274 C   0  0  0  0  0  0  0  0  0  0  0  0
  -28.4403  -19.9020   20.0649 C   0  0  0  0  0  0  0  0  0  0  0  0
  -27.0575  -29.2909   20.8235 C   0  0  0  0  0  0  0  0  0  0  0  0
  -26.6054  -31.7682   22.8681 C   0  0  0  0  0  0  0  0  0  0  0  0
  -24.5629  -34.2596   23.9942 C   0  0  0  0  0  0  0  0  0  0  0  0
  -24.7997  -26.0129   24.3999 C   0  0  0  0  0  0  0  0  0  0  0  0
  -31.0002  -26.5687   19.0622 C   0  0  0  0  0  0  0  0  0  0  0  0
  -26.3485  -31.1238   19.2443 C   0  0  0  0  0  0  0  0  0  0  0  0
  -24.5753  -30.9623   21.6053 C   0  0  0  0  0  0  0  0  0  0  0  0
  -30.7104  -27.3815   20.3214 C   0  0  0  0  0  0  0  0  0  0  0  0
  -27.7075  -24.3818   25.6493 C   0  0  0  0  0  0  0  0  0  0  0  0
  -29.3575  -26.9920   20.9086 C   0  0  0  0  0  0  0  0  0  0  0  0
  -27.8543  -23.1546   24.7480 C   0  0  0  0  0  0  0  0  0  0  0  0
  -26.2414  -24.7033   25.9307 C   0  0  0  0  0  0  0  0  0  0  0  0
  -25.5448  -23.6224   23.8283 C   0  0  0  0  0  0  0  0  0  0  0  0
  -28.2221  -27.2860   19.9207 C   0  0  1  0  0  0  0  0  0  0  0  0
  -26.8842  -30.7706   20.6284 C   0  0  1  0  0  0  0  0  0  0  0  0
  -27.0040  -23.2921   23.4708 C   0  0  2  0  0  0  0  0  0  0  0  0
  -21.2651  -23.7255   22.7692 C   0  0  0  0  0  0  0  0  0  0  0  0
  -20.1984  -26.8485   25.0303 C   0  0  0  0  0  0  0  0  0  0  0  0
  -24.4527  -36.0965   25.7005 C   0  0  0  0  0  0  0  0  0  0  0  0
  -26.0656  -29.7053   25.0505 C   0  0  0  0  0  0  0  0  0  0  0  0
  -25.0541  -31.5329   26.4308 C   0  0  0  0  0  0  0  0  0  0  0  0
  -27.4583  -31.6516   25.7762 C   0  0  0  0  0  0  0  0  0  0  0  0
  -24.3128  -36.3421   21.9063 C   0  0  0  0  0  0  0  0  0  0  0  0
  -18.2246  -27.7821   20.1115 C   0  0  0  0  0  0  0  0  0  0  0  0
  -19.0206  -28.5603   19.0616 C   0  0  0  0  0  0  0  0  0  0  0  0
  -22.2423  -27.5624   23.7293 C   0  0  0  0  0  0  0  0  0  0  0  0
  -23.3675  -27.2024   22.7589 C   0  0  0  0  0  0  0  0  0  0  0  0
  -20.1575  -29.3846   19.6544 C   0  0  0  0  0  0  0  0  0  1  0  0
  -21.1731  -26.4454   23.9034 C   0  0  2  0  0  0  0  0  0  0  0  0
  -25.6764  -32.0430   24.0259 C   0  0  1  0  0  0  0  0  0  0  0  0
  -24.8252  -35.7287   24.2727 C   0  0  2  0  0  0  0  0  0  0  0  0
  -26.0537  -31.2275   25.2948 C   0  0  0  0  0  0  0  0  0  0  0  0
  -19.0589  -25.5026   20.2940 N   0  0  0  0  0  0  0  0  0  0  0  0
  -26.2098  -21.0739   22.7418 N   0  0  0  0  0  0  0  0  0  0  0  0
  -27.1109  -22.0596   22.5918 N   0  0  0  0  0  0  0  0  0  0  0  0
  -26.0165  -31.2449   21.7083 N   0  0  0  0  0  0  0  0  0  0  0  0
  -25.4909  -24.8221   24.6782 N   0  0  0  0  0  0  0  0  0  0  0  0
  -29.0217  -22.6986   21.3464 N   0  0  0  0  0  0  0  0  0  0  0  0
  -27.9844  -18.6417   19.6549 N   0  0  0  0  0  0  0  0  0  0  0  0
  -27.9123  -28.6997   19.9129 N   0  0  0  0  0  0  0  0  0  0  0  0
  -25.6835  -33.4888   24.2208 N   0  0  0  0  0  0  0  0  0  0  0  0
  -24.1195  -26.0445   23.1888 N   0  0  0  0  0  0  0  0  0  0  0  0
  -24.0300  -36.5818   23.3449 N   0  3  0  0  0  0  0  0  0  0  0  0
  -29.4589  -20.3929   19.5218 O   0  0  0  0  0  0  0  0  0  0  0  0
  -26.4610  -28.7275   21.7337 O   0  0  0  0  0  0  0  0  0  0  0  0
  -27.8081  -32.0157   22.9859 O   0  0  0  0  0  0  0  0  0  0  0  0
  -23.4718  -33.8376   23.6173 O   0  0  0  0  0  0  0  0  0  0  0  0
  -24.7940  -26.9783   25.1712 O   0  0  0  0  0  0  0  0  0  0  0  0
  -23.7453  -15.3960   21.2460 O   0  0  0  0  0  0  0  0  0  0  0  0
  -20.8180  -30.0804   18.5981 O   0  0  0  0  0  0  0  0  0  1  0  0
  -26.6378  -10.7211   20.8179 F   0  0  0  0  0  0  0  0  0  0  0  0
  -23.4254  -13.3568   23.0850 F   0  0  0  0  0  0  0  0  0  0  0  0
  1  2  1  0  0  0  0
  1  5  2  0  0  0  0
  2  6  2  0  0  0  0
  3  8  2  0  0  0  0
  3 17  1  0  0  0  0
  4  9  1  0  0  0  0
  4 17  2  0  0  0  0
  5 19  1  0  0  0  0
  6 21  1  0  0  0  0
  7 10  2  0  0  0  0
  7 20  1  0  0  0  0
  8 25  1  0  0  0  0
  9 25  2  0  0  0  0
 10 26  1  0  0  0  0
 11 12  2  0  0  0  0
 11 27  1  0  0  0  0
 12 28  1  0  0  0  0
 13 22  1  0  0  0  0
 13 26  2  0  0  0  0
 14 23  2  0  0  0  0
 14 31  1  0  0  0  0
 15 28  2  0  0  0  0
 15 29  1  0  0  0  0
 16 24  2  0  0  0  0
 16 66  1  0  0  0  0
 17 30  1  0  0  0  0
 18 30  1  0  0  0  0
 18 32  2  0  0  0  0
 18 33  1  0  0  0  0
 19 21  2  0  0  0  0
 19 38  1  0  0  0  0
 20 22  2  0  0  0  0
 20 39  1  0  0  0  0
 21 47  1  0  0  0  0
 22 40  1  0  0  0  0
 23 24  1  0  0  0  0
 23 62  1  0  0  0  0
 24 50  1  0  0  0  0
 25 82  1  0  0  0  0
 26 83  1  0  0  0  0
 27 29  2  0  0  0  0
 27 82  1  0  0  0  0
 28 84  1  0  0  0  0
 29 85  1  0  0  0  0
 30 67  2  0  0  0  0
 31 57  1  0  0  0  0
 31 66  2  0  0  0  0
 32 68  1  0  0  0  0
 32 71  1  0  0  0  0
 33 72  1  0  0  0  0
 33 77  2  0  0  0  0
 34 48  1  0  0  0  0
 34 73  1  0  0  0  0
 34 78  2  0  0  0  0
 35 63  1  0  0  0  0
 35 69  1  0  0  0  0
 35 79  2  0  0  0  0
 36 64  1  0  0  0  0
 36 74  1  0  0  0  0
 36 80  2  0  0  0  0
 37 70  1  0  0  0  0
 37 75  1  0  0  0  0
 37 81  2  0  0  0  0
 38 41  1  0  0  0  0
 39 48  1  0  0  0  0
 40 69  1  0  0  0  0
 41 43  1  0  0  0  0
 42 44  1  0  0  0  0
 42 45  1  0  0  0  0
 43 47  1  0  0  0  0
 44 49  1  0  0  0  0
 45 70  1  0  0  0  0
 46 49  1  0  0  0  0
 46 70  1  0  0  0  0
 47 73  1  0  0  0  0
 48 69  1  0  0  0  0
 49 68  1  0  0  0  0
 51 62  1  0  0  0  0
 52 64  1  0  0  0  0
 53 65  1  0  0  0  0
 54 65  1  0  0  0  0
 55 65  1  0  0  0  0
 56 76  1  0  0  0  0
 57 58  1  0  0  0  0
 58 61  1  0  0  0  0
 59 60  1  0  0  0  0
 59 62  1  0  0  0  0
 60 75  1  0  0  0  0
 61 83  1  0  0  0  0
 63 65  1  0  0  0  0
 63 74  1  0  0  0  0
 64 76  1  0  0  0  0
 67 68  1  0  0  0  0
M  CHG  1  76   1
M  ISO  4  37 100  61 101  75 100  83 101
M  END
> <Batch ID>
0080

> <Smiles>
CNC(C)C(=O)NC(C(=O)N1Cc2cc([101O:1][101CH2:1]CCc3cc(C(C)CC[100NH:0][100C:0](=O)N4CCCC(n5nc(-c6ccc(Oc7ccc(F)cc7F)cc6)c(C(N)=O)c5N)C4)c(C)cn3)ccc2CC1C(=O)NC1CCCc2ccccc21)C(C)(C)C

> <Shape>
0.276

> <Color>
0.065

> <Negative vol penalty>
0.000

$$$$

  -OEChem-04052318443D

 84 92  0     1  0  0  0  0  0999 V2000
  -29.7276  -12.0174   20.2811 C   0  0  0  0  0  0  0  0  0  0  0  0
  -29.7054  -13.2541   20.9179 C   0  0  0  0  0  0  0  0  0  0  0  0
  -22.2065  -26.1760   28.5127 C   0  0  0  0  0  0  0  0  0  0  0  0
  -28.3991  -26.2955   19.0249 C   0  0  0  0  0  0  0  0  0  0  0  0
  -26.4752  -25.1629   19.9483 C   0  0  0  0  0  0  0  0  0  0  0  0
  -28.8303  -11.7504   19.2478 C   0  0  0  0  0  0  0  0  0  0  0  0
  -28.7866  -14.2250   20.5210 C   0  0  0  0  0  0  0  0  0  0  0  0
  -24.8562  -19.6018   23.1588 C   0  0  0  0  0  0  0  0  0  0  0  0
  -28.9619  -25.0646   18.6877 C   0  0  0  0  0  0  0  0  0  0  0  0
  -27.0380  -23.9319   19.6111 C   0  0  0  0  0  0  0  0  0  0  0  0
  -24.5902  -20.9520   22.9353 C   0  0  0  0  0  0  0  0  0  0  0  0
  -28.1302  -20.4777   19.3184 C   0  0  0  0  0  0  0  0  0  0  0  0
  -28.0881  -19.4622   20.2736 C   0  0  0  0  0  0  0  0  0  0  0  0
  -22.6407  -27.4900   28.3777 C   0  0  0  0  0  0  0  0  0  0  0  0
  -22.1205  -25.3593   27.3907 C   0  0  0  0  0  0  0  0  0  0  0  0
  -23.0354  -20.3508   21.1916 C   0  0  0  0  0  0  0  0  0  0  0  0
  -29.3655  -20.8389   21.7935 C   0  0  0  0  0  0  0  0  0  0  0  0
  -27.1558  -26.3446   19.6553 C   0  0  0  0  0  0  0  0  0  0  0  0
  -25.7253  -28.4093   19.2096 C   0  0  0  0  0  0  0  0  0  0  0  0
  -27.8937  -12.7151   18.8445 C   0  0  0  0  0  0  0  0  0  0  0  0
  -24.2209  -18.6147   22.3918 C   0  0  0  0  0  0  0  0  0  0  0  0
  -27.8769  -13.9712   19.4805 C   0  0  0  0  0  0  0  0  0  0  0  0
  -23.2931  -18.9887   21.4092 C   0  0  0  0  0  0  0  0  0  0  0  0
  -28.2814  -23.8828   18.9807 C   0  0  0  0  0  0  0  0  0  0  0  0
  -23.6819  -21.3268   21.9496 C   0  0  0  0  0  0  0  0  0  0  0  0
  -28.7899  -21.6739   19.6007 C   0  0  0  0  0  0  0  0  0  0  0  0
  -28.7058  -19.6427   21.5111 C   0  0  0  0  0  0  0  0  0  0  0  0
  -29.4076  -21.8544   20.8382 C   0  0  0  0  0  0  0  0  0  0  0  0
  -26.5742  -27.6158   20.0044 C   0  0  0  0  0  0  0  0  0  0  0  0
  -22.9745  -27.9356   27.1089 C   0  0  0  0  0  0  0  0  0  0  0  0
  -22.4774  -25.9003   26.1661 C   0  0  0  0  0  0  0  0  0  0  0  0
  -25.4522  -29.5068   19.9888 C   0  0  0  0  0  0  0  0  0  0  0  0
  -25.2281  -28.1751   17.8853 C   0  0  0  0  0  0  0  0  0  0  0  0
  -25.2041  -16.3586   20.3801 C   0  0  0  0  0  0  0  0  0  0  0  0
  -22.0773  -15.4965   20.4323 C   0  0  0  0  0  0  0  0  0  0  0  0
  -18.8307  -16.4026   20.9659 C   0  0  0  0  0  0  0  0  0  0  0  0
  -25.4425  -30.4037   25.9089 C   0  0  0  0  0  0  0  0  0  0  0  0
  -26.9753  -12.3976   17.6911 C   0  0  0  0  0  0  0  0  0  0  0  0
  -24.4987  -17.1616   22.6634 C   0  0  0  0  0  0  0  0  0  0  0  0
  -22.5692  -17.9671   20.5721 C   0  0  0  0  0  0  0  0  0  0  0  0
  -25.7841  -13.3460   17.5820 C   0  0  0  0  0  0  0  0  0  0  0  0
  -27.3367  -32.1852   23.4768 C   0  0  0  0  0  0  0  0  0  0  0  0
  -26.2405  -14.7947   17.7226 C   0  0  0  0  0  0  0  0  0  0  0  0
  -27.2795  -31.2877   22.2394 C   0  0  0  0  0  0  0  0  0  0  0  0
  -27.4166  -31.3673   24.7639 C   0  0  0  0  0  0  0  0  0  0  0  0
  -26.3007  -29.4547   23.6819 C   0  0  0  0  0  0  0  0  0  0  0  0
  -26.8786  -15.0413   19.0950 C   0  0  1  0  0  0  0  0  0  0  0  0
  -24.1796  -16.2600   21.4748 C   0  0  1  0  0  0  0  0  0  0  0  0
  -26.1630  -30.2334   22.3625 C   0  0  2  0  0  0  0  0  0  0  0  0
  -22.2955  -30.3231   26.6616 C   0  0  0  0  0  0  0  0  0  0  0  0
  -16.4937  -15.4913   20.8931 C   0  0  0  0  0  0  0  0  0  0  0  0
  -21.1334  -24.2651   22.5596 C   0  0  0  0  0  0  0  0  0  0  0  0
  -22.1097  -15.6634   17.3858 C   0  0  0  0  0  0  0  0  0  0  0  0
  -19.6066  -15.6887   17.4301 C   0  0  0  0  0  0  0  0  0  0  0  0
  -20.8479  -13.7121   18.3103 C   0  0  0  0  0  0  0  0  0  0  0  0
  -18.4168  -16.9151   23.8513 C   0  0  0  0  0  0  0  0  0  0  0  0
  -23.5329  -23.5245   22.8464 C   0  0  0  0  0  0  0  0  0  1  0  0
  -22.7788  -25.7170   23.8142 C   0  0  0  0  0  0  0  0  0  0  0  0
  -23.4446  -29.3402   26.9268 C   0  0  2  0  0  0  0  0  0  0  0  0
  -20.8525  -15.8676   19.6317 C   0  0  1  0  0  0  0  0  0  0  0  0
  -17.7180  -15.7421   21.7597 C   0  0  2  0  0  0  0  0  0  0  0  0
  -22.5938  -24.7206   22.6662 C   0  0  2  0  0  0  0  0  0  0  0  0
  -20.8691  -15.2525   18.2038 C   0  0  0  0  0  0  0  0  0  0  0  0
  -26.8240  -28.1629   21.1970 N   0  0  0  0  0  0  0  0  0  0  0  0
  -22.9038  -27.1719   25.9956 N   0  0  0  0  0  0  0  0  0  0  0  0
  -26.1280  -29.3118   21.1574 N   0  0  0  0  0  0  0  0  0  0  0  0
  -22.8795  -16.5593   20.8713 N   0  0  0  0  0  0  0  0  0  0  0  0
  -26.3291  -30.3874   24.8195 N   0  0  0  0  0  0  0  0  0  0  0  0
  -24.7024  -30.6101   19.7816 N   0  0  0  0  0  0  0  0  0  0  0  0
  -25.6072  -26.9968   17.2280 N   0  0  0  0  0  0  0  0  0  0  0  0
  -25.8568  -15.1706   20.1117 N   0  0  0  0  0  0  0  0  0  0  0  0
  -19.7026  -15.4737   20.4386 N   0  0  0  0  0  0  0  0  0  0  0  0
  -24.4368  -29.4454   25.8803 N   0  0  0  0  0  0  0  0  0  0  0  0
  -17.3144  -16.6070   22.9043 N   0  3  0  0  0  0  0  0  0  0  0  0
  -24.4833  -28.9945   17.2959 O   0  0  0  0  0  0  0  0  0  0  0  0
  -25.3876  -17.4326   19.8193 O   0  0  0  0  0  0  0  0  0  0  0  0
  -22.3098  -14.3078   20.6659 O   0  0  0  0  0  0  0  0  0  0  0  0
  -18.9156  -17.6205   20.8245 O   0  0  0  0  0  0  0  0  0  0  0  0
  -25.5367  -31.2159   26.8354 O   0  0  0  0  0  0  0  0  0  0  0  0
  -28.8301  -22.6815   18.6516 O   0  0  0  0  0  0  0  0  0  0  0  0
  -23.4209  -22.6441   21.7289 O   0  0  0  0  0  0  0  0  0  1  0  0
  -22.4017  -25.1150   25.0455 O   0  0  0  0  0  0  0  0  0  0  0  0
  -28.6640  -18.6680   22.4289 F   0  0  0  0  0  0  0  0  0  0  0  0
  -30.0419  -23.0018   21.1157 F   0  0  0  0  0  0  0  0  0  0  0  0
  1  2  1  0  0  0  0
  1  6  2  0  0  0  0
  2  7  2  0  0  0  0
  3 14  1  0  0  0  0
  3 15  2  0  0  0  0
  4  9  2  0  0  0  0
  4 18  1  0  0  0  0
  5 10  1  0  0  0  0
  5 18  2  0  0  0  0
  6 20  1  0  0  0  0
  7 22  1  0  0  0  0
  8 11  2  0  0  0  0
  8 21  1  0  0  0  0
  9 24  1  0  0  0  0
 10 24  2  0  0  0  0
 11 25  1  0  0  0  0
 12 13  2  0  0  0  0
 12 26  1  0  0  0  0
 13 27  1  0  0  0  0
 14 30  2  0  0  0  0
 15 31  1  0  0  0  0
 16 23  1  0  0  0  0
 16 25  2  0  0  0  0
 17 27  2  0  0  0  0
 17 28  1  0  0  0  0
 18 29  1  0  0  0  0
 19 29  1  0  0  0  0
 19 32  2  0  0  0  0
 19 33  1  0  0  0  0
 20 22  2  0  0  0  0
 20 38  1  0  0  0  0
 21 23  2  0  0  0  0
 21 39  1  0  0  0  0
 22 47  1  0  0  0  0
 23 40  1  0  0  0  0
 24 80  1  0  0  0  0
 25 81  1  0  0  0  0
 26 28  2  0  0  0  0
 26 80  1  0  0  0  0
 27 83  1  0  0  0  0
 28 84  1  0  0  0  0
 29 64  2  0  0  0  0
 30 59  1  0  0  0  0
 30 65  1  0  0  0  0
 31 65  2  0  0  0  0
 31 82  1  0  0  0  0
 32 66  1  0  0  0  0
 32 69  1  0  0  0  0
 33 70  1  0  0  0  0
 33 75  2  0  0  0  0
 34 48  1  0  0  0  0
 34 71  1  0  0  0  0
 34 76  2  0  0  0  0
 35 60  1  0  0  0  0
 35 67  1  0  0  0  0
 35 77  2  0  0  0  0
 36 61  1  0  0  0  0
 36 72  1  0  0  0  0
 36 78  2  0  0  0  0
 37 68  1  0  0  0  0
 37 73  1  0  0  0  0
 37 79  2  0  0  0  0
 38 41  1  0  0  0  0
 39 48  1  0  0  0  0
 40 67  1  0  0  0  0
 41 43  1  0  0  0  0
 42 44  1  0  0  0  0
 42 45  1  0  0  0  0
 43 47  1  0  0  0  0
 44 49  1  0  0  0  0
 45 68  1  0  0  0  0
 46 49  1  0  0  0  0
 46 68  1  0  0  0  0
 47 71  1  0  0  0  0
 48 67  1  0  0  0  0
 49 66  1  0  0  0  0
 50 59  1  0  0  0  0
 51 61  1  0  0  0  0
 52 62  1  0  0  0  0
 53 63  1  0  0  0  0
 54 63  1  0  0  0  0
 55 63  1  0  0  0  0
 56 74  1  0  0  0  0
 57 62  1  0  0  0  0
 57 81  1  0  0  0  0
 58 62  1  0  0  0  0
 58 82  1  0  0  0  0
 59 73  1  0  0  0  0
 60 63  1  0  0  0  0
 60 72  1  0  0  0  0
 61 74  1  0  0  0  0
 64 66  1  0  0  0  0
M  CHG  1  74   1
M  ISO  4  37 100  57 101  73 100  81 101
M  END
> <Batch ID>
0080

> <Smiles>
CNC(C)C(=O)NC(C(=O)N1Cc2cc([101O:1][101CH2:1]C(C)COc3cccc(C(C)[100NH:0][100C:0](=O)N4CCCC(n5nc(-c6ccc(Oc7ccc(F)cc7F)cc6)c(C(N)=O)c5N)C4)n3)ccc2CC1C(=O)NC1CCCc2ccccc21)C(C)(C)C

> <Shape>
0.200

> <Color>
0.080

> <Negative vol penalty>
0.000

$$$$

  -OEChem-04052318443D

 84 92  0     1  0  0  0  0  0999 V2000
  -32.2692  -12.2176   21.2663 C   0  0  0  0  0  0  0  0  0  0  0  0
  -32.3991  -13.5690   20.9624 C   0  0  0  0  0  0  0  0  0  0  0  0
  -22.2945  -27.2466   23.1027 C   0  0  0  0  0  0  0  0  0  0  0  0
  -22.8803  -28.3384   21.0286 C   0  0  0  0  0  0  0  0  0  0  0  0
  -31.1044  -11.5350   20.9184 C   0  0  0  0  0  0  0  0  0  0  0  0
  -31.3646  -14.2382   20.3095 C   0  0  0  0  0  0  0  0  0  0  0  0
  -29.6722  -20.0698   21.1061 C   0  0  0  0  0  0  0  0  0  0  0  0
  -21.3195  -28.2160   23.3376 C   0  0  0  0  0  0  0  0  0  0  0  0
  -21.9053  -29.3078   21.2635 C   0  0  0  0  0  0  0  0  0  0  0  0
  -29.9506  -21.2334   20.3904 C   0  0  0  0  0  0  0  0  0  0  0  0
  -18.4313  -30.1994   24.3070 C   0  0  0  0  0  0  0  0  0  0  0  0
  -17.1793  -29.7673   24.7444 C   0  0  0  0  0  0  0  0  0  0  0  0
  -27.8733  -20.9848   19.1895 C   0  0  0  0  0  0  0  0  0  0  0  0
  -16.9245  -28.4631   22.7266 C   0  0  0  0  0  0  0  0  0  0  0  0
  -32.2574  -24.6005   15.9411 C   0  0  0  0  0  0  0  0  0  0  0  0
  -23.0749  -27.3078   21.9481 C   0  0  0  0  0  0  0  0  0  0  0  0
  -23.9224  -25.0886   21.0183 C   0  0  0  0  0  0  0  0  0  0  0  0
  -30.0511  -12.1985   20.2695 C   0  0  0  0  0  0  0  0  0  0  0  0
  -28.4954  -19.3477   20.8607 C   0  0  0  0  0  0  0  0  0  0  0  0
  -30.1851  -13.5635   19.9514 C   0  0  0  0  0  0  0  0  0  0  0  0
  -27.5810  -19.8137   19.9052 C   0  0  0  0  0  0  0  0  0  0  0  0
  -21.1249  -29.2466   22.4180 C   0  0  0  0  0  0  0  0  0  0  0  0
  -29.0526  -21.6895   19.4299 C   0  0  0  0  0  0  0  0  0  0  0  0
  -18.9299  -29.7634   23.0794 C   0  0  0  0  0  0  0  0  0  0  0  0
  -16.4259  -28.8991   23.9542 C   0  0  0  0  0  0  0  0  0  0  0  0
  -18.1765  -28.8952   22.2892 C   0  0  0  0  0  0  0  0  0  0  0  0
  -24.0826  -26.3070   21.7051 C   0  0  0  0  0  0  0  0  0  0  0  0
  -31.3208  -24.9026   16.8889 C   0  0  0  0  0  0  0  0  0  0  0  0
  -25.1649  -24.5046   21.0609 C   0  0  0  0  0  0  0  0  0  0  0  0
  -30.2955  -23.8720   15.2195 C   0  0  0  0  0  0  0  0  0  0  0  0
  -22.7550  -24.5343   20.3974 C   0  0  0  0  0  0  0  0  0  0  0  0
  -27.8376  -16.4142   19.8285 C   0  0  0  0  0  0  0  0  0  0  0  0
  -24.7878  -17.2748   20.5219 C   0  0  0  0  0  0  0  0  0  0  0  0
  -22.5135  -19.7809   20.9621 C   0  0  0  0  0  0  0  0  0  0  0  0
  -30.6960  -26.7241   21.6363 C   0  0  0  0  0  0  0  0  0  0  0  0
  -28.8305  -11.4072   19.8711 C   0  0  0  0  0  0  0  0  0  0  0  0
  -28.1969  -18.1090   21.6600 C   0  0  0  0  0  0  0  0  0  0  0  0
  -26.2938  -19.0861   19.6184 C   0  0  0  0  0  0  0  0  0  0  0  0
  -27.6288  -12.2789   19.5158 C   0  0  0  0  0  0  0  0  0  0  0  0
  -29.1251  -24.3184   23.7390 C   0  0  0  0  0  0  0  0  0  0  0  0
  -28.0487  -13.4145   18.5879 C   0  0  0  0  0  0  0  0  0  0  0  0
  -27.6402  -24.4453   23.3942 C   0  0  0  0  0  0  0  0  0  0  0  0
  -29.8301  -25.6726   23.7053 C   0  0  0  0  0  0  0  0  0  0  0  0
  -28.1765  -26.5545   22.1048 C   0  0  0  0  0  0  0  0  0  0  0  0
  -29.0750  -14.3302   19.2660 C   0  0  1  0  0  0  0  0  0  0  0  0
  -27.2131  -17.1724   20.9656 C   0  0  1  0  0  0  0  0  0  0  0  0
  -27.4349  -25.2071   22.0711 C   0  0  2  0  0  0  0  0  0  0  0  0
  -28.4819  -21.1265   13.2002 C   0  0  0  0  0  0  0  0  0  0  0  0
  -20.0905  -20.1728   21.4846 C   0  0  0  0  0  0  0  0  0  0  0  0
  -24.0461  -16.4719   17.6732 C   0  0  0  0  0  0  0  0  0  0  0  0
  -21.9073  -17.7444   17.9457 C   0  0  0  0  0  0  0  0  0  0  0  0
  -22.3878  -15.7868   19.4153 C   0  0  0  0  0  0  0  0  0  0  0  0
  -23.1680  -21.2771   23.4302 C   0  0  0  0  0  0  0  0  0  0  0  0
  -31.4613  -25.5799   18.1838 C   0  0  0  0  0  0  0  0  0  0  0  0
  -29.2557  -23.2480   14.3641 C   0  0  0  0  0  0  0  0  0  0  0  0
  -29.5661  -21.7743   14.0467 C   0  0  0  0  0  0  0  0  0  0  0  0
  -31.2947  -27.1218   18.1452 C   0  0  0  0  0  0  0  0  0  0  0  0
  -28.7906  -24.5534   17.1293 C   0  0  0  0  0  0  0  0  0  0  0  0
  -31.4089  -27.7923   19.5126 C   0  0  0  0  0  0  0  0  0  0  0  0
  -28.3581  -23.2345   17.7605 C   0  0  0  0  0  0  0  0  0  1  0  0
  -23.6658  -17.9405   19.7623 C   0  0  1  0  0  0  0  0  0  0  0  0
  -21.4927  -20.0339   22.0568 C   0  0  2  0  0  0  0  0  0  0  0  0
  -23.0269  -16.9988   18.7029 C   0  0  0  0  0  0  0  0  0  0  0  0
  -25.3285  -26.4874   22.1514 N   0  0  0  0  0  0  0  0  0  0  0  0
  -30.1161  -24.4409   16.4161 N   0  0  0  0  0  0  0  0  0  0  0  0
  -25.9625  -25.3746   21.7442 N   0  0  0  0  0  0  0  0  0  0  0  0
  -31.5952  -23.9631   14.9197 N   0  3  0  0  0  0  0  0  0  0  0  0
  -26.0502  -17.8766   20.4216 N   0  0  0  0  0  0  0  0  0  0  0  0
  -29.5971  -26.3425   22.4236 N   0  0  0  0  0  0  0  0  0  0  0  0
  -25.6419  -23.3368   20.5801 N   0  0  0  0  0  0  0  0  0  0  0  0
  -21.5609  -25.2664   20.4463 N   0  0  0  0  0  0  0  0  0  0  0  0
  -28.4194  -15.2179   20.2023 N   0  0  0  0  0  0  0  0  0  0  0  0
  -22.7291  -18.4331   20.7664 N   0  0  0  0  0  0  0  0  0  0  0  0
  -30.3868  -27.3475   20.4336 N   0  0  0  0  0  0  0  0  0  0  0  0
  -21.8248  -21.2848   22.7957 N   0  3  0  0  0  0  0  0  0  0  0  0
  -22.7663  -23.4154   19.8306 O   0  0  0  0  0  0  0  0  0  0  0  0
  -27.7933  -16.8794   18.6957 O   0  0  0  0  0  0  0  0  0  0  0  0
  -24.5513  -16.2623   21.1857 O   0  0  0  0  0  0  0  0  0  0  0  0
  -23.0618  -20.6881   20.3400 O   0  0  0  0  0  0  0  0  0  0  0  0
  -31.8659  -26.5192   21.9773 O   0  0  0  0  0  0  0  0  0  0  0  0
  -20.1734  -30.1927   22.6469 O   0  0  0  0  0  0  0  0  0  0  0  0
  -29.3222  -22.8247   18.7295 O   0  0  0  0  0  0  0  0  0  1  0  0
  -15.2242  -28.4831   24.3751 F   0  0  0  0  0  0  0  0  0  0  0  0
  -18.6508  -28.4720   21.1095 F   0  0  0  0  0  0  0  0  0  0  0  0
  1  2  1  0  0  0  0
  1  5  2  0  0  0  0
  2  6  2  0  0  0  0
  3  8  2  0  0  0  0
  3 16  1  0  0  0  0
  4  9  1  0  0  0  0
  4 16  2  0  0  0  0
  5 18  1  0  0  0  0
  6 20  1  0  0  0  0
  7 10  2  0  0  0  0
  7 19  1  0  0  0  0
  8 22  1  0  0  0  0
  9 22  2  0  0  0  0
 10 23  1  0  0  0  0
 11 12  2  0  0  0  0
 11 24  1  0  0  0  0
 12 25  1  0  0  0  0
 13 21  1  0  0  0  0
 13 23  2  0  0  0  0
 14 25  2  0  0  0  0
 14 26  1  0  0  0  0
 15 28  2  0  0  0  0
 15 67  1  0  0  0  0
 16 27  1  0  0  0  0
 17 27  1  0  0  0  0
 17 29  2  0  0  0  0
 17 31  1  0  0  0  0
 18 20  2  0  0  0  0
 18 36  1  0  0  0  0
 19 21  2  0  0  0  0
 19 37  1  0  0  0  0
 20 45  1  0  0  0  0
 21 38  1  0  0  0  0
 22 81  1  0  0  0  0
 23 82  1  0  0  0  0
 24 26  2  0  0  0  0
 24 81  1  0  0  0  0
 25 83  1  0  0  0  0
 26 84  1  0  0  0  0
 27 64  2  0  0  0  0
 28 54  1  0  0  0  0
 28 65  1  0  0  0  0
 29 66  1  0  0  0  0
 29 70  1  0  0  0  0
 30 55  1  0  0  0  0
 30 65  1  0  0  0  0
 30 67  2  0  0  0  0
 31 71  1  0  0  0  0
 31 76  2  0  0  0  0
 32 46  1  0  0  0  0
 32 72  1  0  0  0  0
 32 77  2  0  0  0  0
 33 61  1  0  0  0  0
 33 68  1  0  0  0  0
 33 78  2  0  0  0  0
 34 62  1  0  0  0  0
 34 73  1  0  0  0  0
 34 79  2  0  0  0  0
 35 69  1  0  0  0  0
 35 74  1  0  0  0  0
 35 80  2  0  0  0  0
 36 39  1  0  0  0  0
 37 46  1  0  0  0  0
 38 68  1  0  0  0  0
 39 41  1  0  0  0  0
 40 42  1  0  0  0  0
 40 43  1  0  0  0  0
 41 45  1  0  0  0  0
 42 47  1  0  0  0  0
 43 69  1  0  0  0  0
 44 47  1  0  0  0  0
 44 69  1  0  0  0  0
 45 72  1  0  0  0  0
 46 68  1  0  0  0  0
 47 66  1  0  0  0  0
 48 56  1  0  0  0  0
 49 62  1  0  0  0  0
 50 63  1  0  0  0  0
 51 63  1  0  0  0  0
 52 63  1  0  0  0  0
 53 75  1  0  0  0  0
 54 57  1  0  0  0  0
 55 56  1  0  0  0  0
 57 59  1  0  0  0  0
 58 60  1  0  0  0  0
 58 65  1  0  0  0  0
 59 74  1  0  0  0  0
 60 82  1  0  0  0  0
 61 63  1  0  0  0  0
 61 73  1  0  0  0  0
 62 75  1  0  0  0  0
 64 66  1  0  0  0  0
M  CHG  2  67   1  75   1
M  ISO  4  35 100  60 101  74 100  82 101
M  END
> <Batch ID>
0080

> <Smiles>
CCCc1ncc(CCC[100NH:0][100C:0](=O)N2CCCC(n3nc(-c4ccc(Oc5ccc(F)cc5F)cc4)c(C(N)=O)c3N)C2)n1C[101CH2:1][101O:1]c1ccc2c(c1)CN(C(=O)C(NC(=O)C(C)NC)C(C)(C)C)C(C(=O)NC1CCCc3ccccc31)C2

> <Shape>
0.199

> <Color>
0.053

> <Negative vol penalty>
0.000

$$$$

  -OEChem-04052318443D

 86 94  0     1  0  0  0  0  0999 V2000
  -17.2789  -14.5441   22.4374 C   0  0  0  0  0  0  0  0  0  0  0  0
  -18.3007  -15.4874   22.3970 C   0  0  0  0  0  0  0  0  0  0  0  0
  -30.0148  -23.9163   19.9314 C   0  0  0  0  0  0  0  0  0  0  0  0
  -27.8215  -23.4688   19.0226 C   0  0  0  0  0  0  0  0  0  0  0  0
  -17.5705  -13.2148   22.7403 C   0  0  0  0  0  0  0  0  0  0  0  0
  -19.6146  -15.1020   22.6605 C   0  0  0  0  0  0  0  0  0  0  0  0
  -22.9141  -17.0640   19.3577 C   0  0  0  0  0  0  0  0  0  0  0  0
  -30.2260  -22.5474   20.0959 C   0  0  0  0  0  0  0  0  0  0  0  0
  -28.0326  -22.0999   19.1871 C   0  0  0  0  0  0  0  0  0  0  0  0
  -23.2772  -18.3982   19.5366 C   0  0  0  0  0  0  0  0  0  0  0  0
  -31.1997  -19.1873   21.0887 C   0  0  0  0  0  0  0  0  0  0  0  0
  -31.7501  -18.7548   22.2952 C   0  0  0  0  0  0  0  0  0  0  0  0
  -25.3251  -17.6922   20.5982 C   0  0  0  0  0  0  0  0  0  0  0  0
  -21.8224  -25.2194   23.8621 C   0  0  0  0  0  0  0  0  0  0  0  0
  -29.8736  -19.6980   23.4894 C   0  0  0  0  0  0  0  0  0  0  0  0
  -28.8125  -24.3770   19.3948 C   0  0  0  0  0  0  0  0  0  0  0  0
  -28.9033  -26.5695   18.0938 C   0  0  0  0  0  0  0  0  0  0  0  0
  -18.8901  -12.8111   22.9981 C   0  0  0  0  0  0  0  0  0  0  0  0
  -23.7502  -16.0323   19.8082 C   0  0  0  0  0  0  0  0  0  0  0  0
  -19.9240  -13.7663   22.9684 C   0  0  0  0  0  0  0  0  0  0  0  0
  -24.9715  -16.3458   20.4214 C   0  0  0  0  0  0  0  0  0  0  0  0
  -20.8317  -26.1640   24.1062 C   0  0  0  0  0  0  0  0  0  0  0  0
  -20.6365  -27.2067   23.2074 C   0  0  0  0  0  0  0  0  0  0  0  0
  -29.2349  -21.6391   19.7237 C   0  0  0  0  0  0  0  0  0  0  0  0
  -24.4814  -18.7125   20.1595 C   0  0  0  0  0  0  0  0  0  0  0  0
  -29.9862  -19.8752   21.0826 C   0  0  0  0  0  0  0  0  0  0  0  0
  -31.0871  -19.0102   23.4955 C   0  0  0  0  0  0  0  0  0  0  0  0
  -29.3232  -20.1306   22.2829 C   0  0  0  0  0  0  0  0  0  0  0  0
  -28.5936  -25.7910   19.2251 C   0  0  0  0  0  0  0  0  0  0  0  0
  -22.5850  -25.3613   22.7140 C   0  0  0  0  0  0  0  0  0  0  0  0
  -21.4523  -27.2597   22.0886 C   0  0  0  0  0  0  0  0  0  0  0  0
  -28.5036  -27.8395   18.4311 C   0  0  0  0  0  0  0  0  0  0  0  0
  -29.4990  -26.1794   16.8494 C   0  0  0  0  0  0  0  0  0  0  0  0
  -23.4690  -13.6820   21.9297 C   0  0  0  0  0  0  0  0  0  0  0  0
  -26.3578  -12.7963   20.7496 C   0  0  0  0  0  0  0  0  0  0  0  0
  -29.2386  -13.7007   19.1591 C   0  0  0  0  0  0  0  0  0  0  0  0
  -24.4376  -29.9448   22.2893 C   0  0  0  0  0  0  0  0  0  0  0  0
  -19.1499  -11.3720   23.3674 C   0  0  0  0  0  0  0  0  0  0  0  0
  -23.3566  -14.5980   19.5836 C   0  0  0  0  0  0  0  0  0  0  0  0
  -25.9140  -15.2751   20.9049 C   0  0  0  0  0  0  0  0  0  0  0  0
  -20.6199  -10.9731   23.2662 C   0  0  0  0  0  0  0  0  0  0  0  0
  -27.9169  -30.6975   22.2230 C   0  0  0  0  0  0  0  0  0  0  0  0
  -21.5053  -12.0258   23.9255 C   0  0  0  0  0  0  0  0  0  0  0  0
  -28.5129  -29.5956   21.3451 C   0  0  0  0  0  0  0  0  0  0  0  0
  -26.7718  -30.1735   23.0867 C   0  0  0  0  0  0  0  0  0  0  0  0
  -26.2988  -28.3782   21.4659 C   0  0  0  0  0  0  0  0  0  0  0  0
  -21.3653  -13.3823   23.2241 C   0  0  1  0  0  0  0  0  0  0  0  0
  -24.0452  -13.6322   20.5429 C   0  0  1  0  0  0  0  0  0  0  0  0
  -27.4204  -28.8712   20.5357 C   0  0  2  0  0  0  0  0  0  0  0  0
  -19.9962  -26.0379   25.3371 C   0  0  0  0  0  0  0  0  0  0  0  0
  -19.5797  -28.2331   23.4419 C   0  0  0  0  0  0  0  0  0  0  0  0
  -31.4296  -12.7662   18.3695 C   0  0  0  0  0  0  0  0  0  0  0  0
  -21.9499  -30.6814   20.3314 C   0  0  0  0  0  0  0  0  0  0  0  0
  -27.3923  -12.8027   23.6201 C   0  0  0  0  0  0  0  0  0  0  0  0
  -29.7232  -12.8083   22.7063 C   0  0  0  0  0  0  0  0  0  0  0  0
  -28.2010  -10.8918   22.2241 C   0  0  0  0  0  0  0  0  0  0  0  0
  -28.6358  -14.3609   16.3378 C   0  0  0  0  0  0  0  0  0  0  0  0
  -23.6678  -24.3550   22.4159 C   0  0  0  0  0  0  0  0  0  0  0  0
  -21.2894  -28.3555   21.0864 C   0  0  0  0  0  0  0  0  0  0  0  0
  -23.1897  -23.1588   21.5853 C   0  0  0  0  0  0  0  0  0  0  0  0
  -24.2818  -22.1124   21.3589 C   0  0  0  0  0  0  0  0  0  0  0  0
  -23.7822  -20.9603   20.4978 C   0  0  0  0  0  0  0  0  0  1  0  0
  -27.7942  -13.1139   21.0888 C   0  0  1  0  0  0  0  0  0  0  0  0
  -29.9874  -13.0732   17.9972 C   0  0  2  0  0  0  0  0  0  0  0  0
  -22.1512  -29.5997   21.3880 C   0  0  1  0  0  0  0  0  0  0  0  0
  -28.2592  -12.4246   22.4026 C   0  0  0  0  0  0  0  0  0  0  0  0
  -28.0400  -26.5067   20.2077 N   0  0  0  0  0  0  0  0  0  0  0  0
  -22.4249  -26.3606   21.8178 N   0  0  0  0  0  0  0  0  0  0  0  0
  -27.9988  -27.7482   19.6948 N   0  0  0  0  0  0  0  0  0  0  0  0
  -25.4816  -13.8878   20.6680 N   0  0  0  0  0  0  0  0  0  0  0  0
  -25.7692  -29.4990   22.2585 N   0  0  0  0  0  0  0  0  0  0  0  0
  -28.5383  -29.0143   17.7670 N   0  0  0  0  0  0  0  0  0  0  0  0
  -29.8491  -24.8344   16.6687 N   0  0  0  0  0  0  0  0  0  0  0  0
  -22.1191  -13.3926   21.9887 N   0  0  0  0  0  0  0  0  0  0  0  0
  -28.5803  -12.7530   19.9140 N   0  0  0  0  0  0  0  0  0  0  0  0
  -23.5530  -29.2546   21.4697 N   0  0  0  0  0  0  0  0  0  0  0  0
  -29.9902  -13.9936   16.8252 N   0  3  0  0  0  0  0  0  0  0  0  0
  -29.7295  -27.0025   15.9312 O   0  0  0  0  0  0  0  0  0  0  0  0
  -24.1956  -13.9608   22.8762 O   0  0  0  0  0  0  0  0  0  0  0  0
  -26.0270  -11.6237   20.5570 O   0  0  0  0  0  0  0  0  0  0  0  0
  -29.2407  -14.9102   19.3776 O   0  0  0  0  0  0  0  0  0  0  0  0
  -24.0657  -30.8916   22.9910 O   0  0  0  0  0  0  0  0  0  0  0  0
  -29.4407  -20.3033   19.8839 O   0  0  0  0  0  0  0  0  0  0  0  0
  -24.8379  -20.0139   20.3361 O   0  0  0  0  0  0  0  0  0  1  0  0
  -31.6150  -18.5934   24.6539 F   0  0  0  0  0  0  0  0  0  0  0  0
  -28.1565  -20.7899   22.2832 F   0  0  0  0  0  0  0  0  0  0  0  0
  1  2  1  0  0  0  0
  1  5  2  0  0  0  0
  2  6  2  0  0  0  0
  3  8  2  0  0  0  0
  3 16  1  0  0  0  0
  4  9  1  0  0  0  0
  4 16  2  0  0  0  0
  5 18  1  0  0  0  0
  6 20  1  0  0  0  0
  7 10  2  0  0  0  0
  7 19  1  0  0  0  0
  8 24  1  0  0  0  0
  9 24  2  0  0  0  0
 10 25  1  0  0  0  0
 11 12  2  0  0  0  0
 11 26  1  0  0  0  0
 12 27  1  0  0  0  0
 13 21  1  0  0  0  0
 13 25  2  0  0  0  0
 14 22  2  0  0  0  0
 14 30  1  0  0  0  0
 15 27  2  0  0  0  0
 15 28  1  0  0  0  0
 16 29  1  0  0  0  0
 17 29  1  0  0  0  0
 17 32  2  0  0  0  0
 17 33  1  0  0  0  0
 18 20  2  0  0  0  0
 18 38  1  0  0  0  0
 19 21  2  0  0  0  0
 19 39  1  0  0  0  0
 20 47  1  0  0  0  0
 21 40  1  0  0  0  0
 22 23  1  0  0  0  0
 22 50  1  0  0  0  0
 23 31  2  0  0  0  0
 23 51  1  0  0  0  0
 24 83  1  0  0  0  0
 25 84  1  0  0  0  0
 26 28  2  0  0  0  0
 26 83  1  0  0  0  0
 27 85  1  0  0  0  0
 28 86  1  0  0  0  0
 29 67  2  0  0  0  0
 30 58  1  0  0  0  0
 30 68  2  0  0  0  0
 31 59  1  0  0  0  0
 31 68  1  0  0  0  0
 32 69  1  0  0  0  0
 32 72  1  0  0  0  0
 33 73  1  0  0  0  0
 33 78  2  0  0  0  0
 34 48  1  0  0  0  0
 34 74  1  0  0  0  0
 34 79  2  0  0  0  0
 35 63  1  0  0  0  0
 35 70  1  0  0  0  0
 35 80  2  0  0  0  0
 36 64  1  0  0  0  0
 36 75  1  0  0  0  0
 36 81  2  0  0  0  0
 37 71  1  0  0  0  0
 37 76  1  0  0  0  0
 37 82  2  0  0  0  0
 38 41  1  0  0  0  0
 39 48  1  0  0  0  0
 40 70  1  0  0  0  0
 41 43  1  0  0  0  0
 42 44  1  0  0  0  0
 42 45  1  0  0  0  0
 43 47  1  0  0  0  0
 44 49  1  0  0  0  0
 45 71  1  0  0  0  0
 46 49  1  0  0  0  0
 46 71  1  0  0  0  0
 47 74  1  0  0  0  0
 48 70  1  0  0  0  0
 49 69  1  0  0  0  0
 52 64  1  0  0  0  0
 53 65  1  0  0  0  0
 54 66  1  0  0  0  0
 55 66  1  0  0  0  0
 56 66  1  0  0  0  0
 57 77  1  0  0  0  0
 58 60  1  0  0  0  0
 59 65  1  0  0  0  0
 60 61  1  0  0  0  0
 61 62  1  0  0  0  0
 62 84  1  0  0  0  0
 63 66  1  0  0  0  0
 63 75  1  0  0  0  0
 64 77  1  0  0  0  0
 65 76  1  0  0  0  0
 67 69  1  0  0  0  0
M  CHG  1  77   1
M  ISO  4  37 100  62 101  76 100  84 101
M  END
> <Batch ID>
0080

> <Smiles>
CNC(C)C(=O)NC(C(=O)N1Cc2cc([101O:1][101CH2:1]CCCc3cc(C)c(C)c(CC(C)[100NH:0][100C:0](=O)N4CCCC(n5nc(-c6ccc(Oc7ccc(F)cc7F)cc6)c(C(N)=O)c5N)C4)n3)ccc2CC1C(=O)NC1CCCc2ccccc21)C(C)(C)C

> <Shape>
0.240

> <Color>
0.069

> <Negative vol penalty>
0.000

$$$$

  -OEChem-04052318443D

 85 93  0     1  0  0  0  0  0999 V2000
  -25.6432  -16.8745   25.5815 C   0  0  0  0  0  0  0  0  0  0  0  0
  -26.2674  -18.0250   25.1102 C   0  0  0  0  0  0  0  0  0  0  0  0
  -26.3785  -12.8189   21.6536 C   0  0  0  0  0  0  0  0  0  0  0  0
  -25.8187  -13.8433   19.5383 C   0  0  0  0  0  0  0  0  0  0  0  0
  -24.3328  -16.5880   25.2010 C   0  0  0  0  0  0  0  0  0  0  0  0
  -25.5818  -18.8892   24.2572 C   0  0  0  0  0  0  0  0  0  0  0  0
  -26.0559  -24.9912   24.0404 C   0  0  0  0  0  0  0  0  0  0  0  0
  -25.1675  -12.1270   21.6391 C   0  0  0  0  0  0  0  0  0  0  0  0
  -24.6076  -13.1514   19.5238 C   0  0  0  0  0  0  0  0  0  0  0  0
  -26.7746  -25.8472   23.2070 C   0  0  0  0  0  0  0  0  0  0  0  0
  -23.8845   -9.3824   20.1378 C   0  0  0  0  0  0  0  0  0  0  0  0
  -23.9075   -8.0283   20.4717 C   0  0  0  0  0  0  0  0  0  0  0  0
  -24.8193  -26.1317   21.8232 C   0  0  0  0  0  0  0  0  0  0  0  0
  -29.7927  -26.8812   20.1526 C   0  0  0  0  0  0  0  0  0  0  0  0
  -28.9039  -25.6100   18.3145 C   0  0  0  0  0  0  0  0  0  0  0  0
  -22.4067   -8.4576   22.3158 C   0  0  0  0  0  0  0  0  0  0  0  0
  -26.7041  -13.6771   20.6032 C   0  0  0  0  0  0  0  0  0  0  0  0
  -29.1853  -13.9645   20.0847 C   0  0  0  0  0  0  0  0  0  0  0  0
  -23.6275  -17.4541   24.3506 C   0  0  0  0  0  0  0  0  0  0  0  0
  -24.7143  -24.6900   23.7649 C   0  0  0  0  0  0  0  0  0  0  0  0
  -24.2612  -18.6134   23.8639 C   0  0  0  0  0  0  0  0  0  0  0  0
  -24.0850  -25.2737   22.6561 C   0  0  0  0  0  0  0  0  0  0  0  0
  -28.8204  -26.6985   19.1755 C   0  0  0  0  0  0  0  0  0  0  0  0
  -24.2820  -12.2932   20.5742 C   0  0  0  0  0  0  0  0  0  0  0  0
  -26.1571  -26.4153   22.0966 C   0  0  0  0  0  0  0  0  0  0  0  0
  -23.1227  -10.2741   20.8929 C   0  0  0  0  0  0  0  0  0  0  0  0
  -23.1686   -7.5659   21.5607 C   0  0  0  0  0  0  0  0  0  0  0  0
  -22.3838   -9.8117   21.9819 C   0  0  0  0  0  0  0  0  0  0  0  0
  -27.9547  -14.3925   20.6179 C   0  0  0  0  0  0  0  0  0  0  0  0
  -30.8199  -25.9543   20.2267 C   0  0  0  0  0  0  0  0  0  0  0  0
  -29.9710  -24.7401   18.4707 C   0  0  0  0  0  0  0  0  0  0  0  0
  -30.0528  -14.9949   20.3531 C   0  0  0  0  0  0  0  0  0  0  0  0
  -29.5147  -12.7445   19.4072 C   0  0  0  0  0  0  0  0  0  0  0  0
  -23.1064  -22.0348   23.0806 C   0  0  0  0  0  0  0  0  0  0  0  0
  -20.5354  -24.0010   23.2958 C   0  0  0  0  0  0  0  0  0  0  0  0
  -19.2927  -27.1747   23.1226 C   0  0  0  0  0  0  0  0  0  0  0  0
  -29.2581  -20.8553   21.2884 C   0  0  0  0  0  0  0  0  0  0  0  0
  -22.2291  -17.0782   23.9291 C   0  0  0  0  0  0  0  0  0  0  0  0
  -23.9453  -23.7859   24.6887 C   0  0  0  0  0  0  0  0  0  0  0  0
  -22.6411  -24.9984   22.3279 C   0  0  0  0  0  0  0  0  0  0  0  0
  -21.4435  -18.2376   23.3218 C   0  0  0  0  0  0  0  0  0  0  0  0
  -30.8145  -18.5281   23.4880 C   0  0  0  0  0  0  0  0  0  0  0  0
  -22.2960  -18.9827   22.2996 C   0  0  0  0  0  0  0  0  0  0  0  0
  -30.3691  -17.1657   22.9537 C   0  0  0  0  0  0  0  0  0  0  0  0
  -29.7087  -19.5735   23.3597 C   0  0  0  0  0  0  0  0  0  0  0  0
  -28.7011  -18.3547   21.4695 C   0  0  0  0  0  0  0  0  0  0  0  0
  -23.5421  -19.5882   22.9569 C   0  0  1  0  0  0  0  0  0  0  0  0
  -22.7321  -23.1436   24.0231 C   0  0  1  0  0  0  0  0  0  0  0  0
  -29.8016  -17.2814   21.5262 C   0  0  2  0  0  0  0  0  0  0  0  0
  -31.8801  -26.1175   21.2640 C   0  0  0  0  0  0  0  0  0  0  0  0
  -31.3621  -23.6918   16.6869 C   0  0  0  0  0  0  0  0  0  0  0  0
  -17.1469  -28.4628   23.3061 C   0  0  0  0  0  0  0  0  0  0  0  0
  -30.2317  -20.9782   17.3731 C   0  0  0  0  0  0  0  0  0  0  0  0
  -19.7194  -23.0323   20.5200 C   0  0  0  0  0  0  0  0  0  0  0  0
  -18.1691  -24.9922   20.3680 C   0  0  0  0  0  0  0  0  0  0  0  0
  -17.8287  -23.2694   22.1397 C   0  0  0  0  0  0  0  0  0  0  0  0
  -20.2986  -28.7487   25.4181 C   0  0  0  0  0  0  0  0  0  0  0  0
  -27.6783  -27.6775   19.0507 C   0  0  0  0  0  0  0  0  0  0  0  0
  -28.7611  -21.9992   19.1427 C   0  0  0  0  0  0  0  0  0  0  0  0
  -26.4792  -27.2814   19.9052 C   0  0  0  0  0  0  0  0  0  1  0  0
  -30.0931  -23.5622   17.5628 C   0  0  1  0  0  0  0  0  0  0  0  0
  -19.7733  -24.8741   22.3285 C   0  0  1  0  0  0  0  0  0  0  0  0
  -18.3701  -27.9472   24.0481 C   0  0  2  0  0  0  0  0  0  0  0  0
  -30.0497  -22.1797   18.3130 C   0  0  2  0  0  0  0  0  0  0  0  0
  -18.9004  -24.0459   21.3438 C   0  0  0  0  0  0  0  0  0  0  0  0
  -28.0298  -15.6007   21.1826 N   0  0  0  0  0  0  0  0  0  0  0  0
  -30.9345  -24.8846   19.4080 N   0  0  0  0  0  0  0  0  0  0  0  0
  -29.3179  -15.9405   21.0057 N   0  0  0  0  0  0  0  0  0  0  0  0
  -21.9333  -24.1030   23.2578 N   0  0  0  0  0  0  0  0  0  0  0  0
  -29.2153  -19.6345   21.9817 N   0  0  0  0  0  0  0  0  0  0  0  0
  -31.3650  -15.1752   20.0923 N   0  0  0  0  0  0  0  0  0  0  0  0
  -28.5037  -11.7931   19.2149 N   0  0  0  0  0  0  0  0  0  0  0  0
  -23.1969  -20.7932   23.6803 N   0  0  0  0  0  0  0  0  0  0  0  0
  -19.0203  -25.8232   23.1413 N   0  0  0  0  0  0  0  0  0  0  0  0
  -28.7768  -20.8242   19.9852 N   0  0  0  0  0  0  0  0  0  0  0  0
  -19.0867  -29.1123   24.6397 N   0  3  0  0  0  0  0  0  0  0  0  0
  -30.6751  -12.4982   18.9995 O   0  0  0  0  0  0  0  0  0  0  0  0
  -23.2974  -22.2868   21.8967 O   0  0  0  0  0  0  0  0  0  0  0  0
  -19.9132  -23.2613   24.0621 O   0  0  0  0  0  0  0  0  0  0  0  0
  -20.1652  -27.7166   22.4475 O   0  0  0  0  0  0  0  0  0  0  0  0
  -29.6979  -21.8948   21.7914 O   0  0  0  0  0  0  0  0  0  0  0  0
  -23.1003  -11.6181   20.5596 O   0  0  0  0  0  0  0  0  0  0  0  0
  -26.8565  -27.2506   21.2811 O   0  0  0  0  0  0  0  0  0  1  0  0
  -23.1896   -6.2653   21.8803 F   0  0  0  0  0  0  0  0  0  0  0  0
  -21.6491  -10.6634   22.7103 F   0  0  0  0  0  0  0  0  0  0  0  0
  1  2  1  0  0  0  0
  1  5  2  0  0  0  0
  2  6  2  0  0  0  0
  3  8  2  0  0  0  0
  3 17  1  0  0  0  0
  4  9  1  0  0  0  0
  4 17  2  0  0  0  0
  5 19  1  0  0  0  0
  6 21  1  0  0  0  0
  7 10  2  0  0  0  0
  7 20  1  0  0  0  0
  8 24  1  0  0  0  0
  9 24  2  0  0  0  0
 10 25  1  0  0  0  0
 11 12  2  0  0  0  0
 11 26  1  0  0  0  0
 12 27  1  0  0  0  0
 13 22  1  0  0  0  0
 13 25  2  0  0  0  0
 14 23  1  0  0  0  0
 14 30  2  0  0  0  0
 15 23  2  0  0  0  0
 15 31  1  0  0  0  0
 16 27  2  0  0  0  0
 16 28  1  0  0  0  0
 17 29  1  0  0  0  0
 18 29  1  0  0  0  0
 18 32  2  0  0  0  0
 18 33  1  0  0  0  0
 19 21  2  0  0  0  0
 19 38  1  0  0  0  0
 20 22  2  0  0  0  0
 20 39  1  0  0  0  0
 21 47  1  0  0  0  0
 22 40  1  0  0  0  0
 23 58  1  0  0  0  0
 24 82  1  0  0  0  0
 25 83  1  0  0  0  0
 26 28  2  0  0  0  0
 26 82  1  0  0  0  0
 27 84  1  0  0  0  0
 28 85  1  0  0  0  0
 29 66  2  0  0  0  0
 30 50  1  0  0  0  0
 30 67  1  0  0  0  0
 31 61  1  0  0  0  0
 31 67  2  0  0  0  0
 32 68  1  0  0  0  0
 32 71  1  0  0  0  0
 33 72  1  0  0  0  0
 33 77  2  0  0  0  0
 34 48  1  0  0  0  0
 34 73  1  0  0  0  0
 34 78  2  0  0  0  0
 35 62  1  0  0  0  0
 35 69  1  0  0  0  0
 35 79  2  0  0  0  0
 36 63  1  0  0  0  0
 36 74  1  0  0  0  0
 36 80  2  0  0  0  0
 37 70  1  0  0  0  0
 37 75  1  0  0  0  0
 37 81  2  0  0  0  0
 38 41  1  0  0  0  0
 39 48  1  0  0  0  0
 40 69  1  0  0  0  0
 41 43  1  0  0  0  0
 42 44  1  0  0  0  0
 42 45  1  0  0  0  0
 43 47  1  0  0  0  0
 44 49  1  0  0  0  0
 45 70  1  0  0  0  0
 46 49  1  0  0  0  0
 46 70  1  0  0  0  0
 47 73  1  0  0  0  0
 48 69  1  0  0  0  0
 49 68  1  0  0  0  0
 51 61  1  0  0  0  0
 52 63  1  0  0  0  0
 53 64  1  0  0  0  0
 54 65  1  0  0  0  0
 55 65  1  0  0  0  0
 56 65  1  0  0  0  0
 57 76  1  0  0  0  0
 58 60  1  0  0  0  0
 59 64  1  0  0  0  0
 59 75  1  0  0  0  0
 60 83  1  0  0  0  0
 61 64  1  0  0  0  0
 62 65  1  0  0  0  0
 62 74  1  0  0  0  0
 63 76  1  0  0  0  0
 66 68  1  0  0  0  0
M  CHG  1  76   1
M  ISO  4  37 100  60 101  75 100  83 101
M  END
> <Batch ID>
0080

> <Smiles>
CNC(C)C(=O)NC(C(=O)N1Cc2cc([101O:1][101CH2:1]Cc3cc(C)nc(C(C)C(C)C[100NH:0][100C:0](=O)N4CCCC(n5nc(-c6ccc(Oc7ccc(F)cc7F)cc6)c(C(N)=O)c5N)C4)c3)ccc2CC1C(=O)NC1CCCc2ccccc21)C(C)(C)C

> <Shape>
0.248

> <Color>
0.060

> <Negative vol penalty>
0.000

$$$$

  -OEChem-04052318442D

  0  0  0     0  0  0  0  0  0999 V2000
M  END
$$$$

  -OEChem-04052318443D

 87 95  0     1  0  0  0  0  0999 V2000
  -16.7848  -30.0046   24.5217 C   0  0  0  0  0  0  0  0  0  0  0  0
  -17.2407  -28.7106   24.2908 C   0  0  0  0  0  0  0  0  0  0  0  0
  -23.1240  -11.7259   20.1203 C   0  0  0  0  0  0  0  0  0  0  0  0
  -22.5455  -13.3860   21.7776 C   0  0  0  0  0  0  0  0  0  0  0  0
  -17.3381  -31.0733   23.8177 C   0  0  0  0  0  0  0  0  0  0  0  0
  -18.2494  -28.4846   23.3550 C   0  0  0  0  0  0  0  0  0  0  0  0
  -22.6680  -24.2546   23.6540 C   0  0  0  0  0  0  0  0  0  0  0  0
  -22.3321  -10.7883   20.7831 C   0  0  0  0  0  0  0  0  0  0  0  0
  -21.7535  -12.4484   22.4404 C   0  0  0  0  0  0  0  0  0  0  0  0
  -22.7989  -22.9925   23.0763 C   0  0  0  0  0  0  0  0  0  0  0  0
  -20.7481   -7.8572   22.2403 C   0  0  0  0  0  0  0  0  0  0  0  0
  -21.2749   -6.5798   22.4305 C   0  0  0  0  0  0  0  0  0  0  0  0
  -24.0925  -23.9546   21.2818 C   0  0  0  0  0  0  0  0  0  0  0  0
  -23.1027   -7.5224   23.6984 C   0  0  0  0  0  0  0  0  0  0  0  0
  -28.5336  -21.8558   21.7216 C   0  0  0  0  0  0  0  0  0  0  0  0
  -23.2307  -13.0248   20.6176 C   0  0  0  0  0  0  0  0  0  0  0  0
  -23.6483  -14.8748   18.9115 C   0  0  0  0  0  0  0  0  0  0  0  0
  -18.3608  -30.8614   22.8798 C   0  0  0  0  0  0  0  0  0  0  0  0
  -23.2401  -25.3798   23.0431 C   0  0  0  0  0  0  0  0  0  0  0  0
  -18.8159  -29.5513   22.6368 C   0  0  0  0  0  0  0  0  0  0  0  0
  -23.9695  -25.2295   21.8551 C   0  0  0  0  0  0  0  0  0  0  0  0
  -21.6469  -11.1495   21.9431 C   0  0  0  0  0  0  0  0  0  0  0  0
  -23.5088  -22.8428   21.8885 C   0  0  0  0  0  0  0  0  0  0  0  0
  -21.3986   -8.9673   22.7791 C   0  0  0  0  0  0  0  0  0  0  0  0
  -22.4522   -6.4124   23.1596 C   0  0  0  0  0  0  0  0  0  0  0  0
  -22.5759   -8.7999   23.5082 C   0  0  0  0  0  0  0  0  0  0  0  0
  -24.0490  -13.9937   19.9337 C   0  0  0  0  0  0  0  0  0  0  0  0
  -29.8970  -21.8169   21.6416 C   0  0  0  0  0  0  0  0  0  0  0  0
  -24.7848  -15.5812   18.6019 C   0  0  0  0  0  0  0  0  0  0  0  0
  -29.2205  -19.9798   22.6751 C   0  0  0  0  0  0  0  0  0  0  0  0
  -22.3635  -15.0401   18.2968 C   0  0  0  0  0  0  0  0  0  0  0  0
  -22.1084  -28.0867   21.8201 C   0  0  0  0  0  0  0  0  0  0  0  0
  -25.2559  -28.8170   21.5333 C   0  0  0  0  0  0  0  0  0  0  0  0
  -28.6906  -28.0042   20.7849 C   0  0  0  0  0  0  0  0  0  0  0  0
  -29.7340  -16.9045   21.7012 C   0  0  0  0  0  0  0  0  0  0  0  0
  -18.8951  -32.0425   22.1090 C   0  0  0  0  0  0  0  0  0  0  0  0
  -23.1125  -26.7302   23.6930 C   0  0  0  0  0  0  0  0  0  0  0  0
  -24.6200  -26.4026   21.1702 C   0  0  0  0  0  0  0  0  0  0  0  0
  -20.2207  -31.7618   21.4059 C   0  0  0  0  0  0  0  0  0  0  0  0
  -29.5528  -15.1847   18.5890 C   0  0  0  0  0  0  0  0  0  0  0  0
  -20.1627  -30.4266   20.6707 C   0  0  0  0  0  0  0  0  0  0  0  0
  -28.0855  -14.7639   18.4885 C   0  0  0  0  0  0  0  0  0  0  0  0
  -30.0642  -15.1098   20.0259 C   0  0  0  0  0  0  0  0  0  0  0  0
  -27.7862  -15.4289   20.9106 C   0  0  0  0  0  0  0  0  0  0  0  0
  -19.9258  -29.2686   21.6476 C   0  0  1  0  0  0  0  0  0  0  0  0
  -23.2995  -27.8848   22.7135 C   0  0  1  0  0  0  0  0  0  0  0  0
  -27.2094  -15.5415   19.4890 C   0  0  2  0  0  0  0  0  0  0  0  0
  -31.0803  -28.7690   20.7419 C   0  0  0  0  0  0  0  0  0  0  0  0
  -30.1578  -24.0176   20.4438 C   0  0  0  0  0  0  0  0  0  0  0  0
  -31.7116  -22.1082   19.9185 C   0  0  0  0  0  0  0  0  0  0  0  0
  -31.9299  -23.3564   22.0576 C   0  0  0  0  0  0  0  0  0  0  0  0
  -24.7238  -29.3995   18.5859 C   0  0  0  0  0  0  0  0  0  0  0  0
  -27.1936  -29.2900   18.1902 C   0  0  0  0  0  0  0  0  0  0  0  0
  -26.2518  -31.0280   19.7118 C   0  0  0  0  0  0  0  0  0  0  0  0
  -23.9616  -18.9124   20.2692 C   0  0  0  0  0  0  0  0  0  0  0  0
  -24.4467  -18.1480   22.5970 C   0  0  0  0  0  0  0  0  0  0  0  0
  -29.2815  -26.6823   23.3660 C   0  0  0  0  0  0  0  0  0  0  0  0
  -29.2430  -18.6707   23.3741 C   0  0  0  0  0  0  0  0  0  0  0  0
  -25.9959  -19.7956   21.4245 C   0  0  0  0  0  0  0  0  0  0  0  0
  -26.7134  -20.3276   22.6722 C   0  0  0  0  0  0  0  0  0  0  0  0
  -23.6444  -20.4893   22.2030 C   0  0  0  0  0  0  0  0  0  1  0  0
  -26.3073  -28.6164   20.4688 C   0  0  1  0  0  0  0  0  0  0  0  0
  -29.9097  -28.3535   21.6193 C   0  0  2  0  0  0  0  0  0  0  0  0
  -30.8602  -22.7589   21.0659 C   0  0  0  0  0  0  0  0  0  0  0  0
  -26.1054  -29.5615   19.2508 C   0  0  0  0  0  0  0  0  0  0  0  0
  -24.5217  -19.3508   21.6397 C   0  0  0  0  0  0  0  0  0  0  0  0
  -25.3394  -14.1262   20.2522 N   0  0  0  0  0  0  0  0  0  0  0  0
  -28.1420  -20.7067   22.3652 N   0  0  0  0  0  0  0  0  0  0  0  0
  -25.7593  -15.0987   19.4252 N   0  0  0  0  0  0  0  0  0  0  0  0
  -30.2950  -20.6455   22.2396 N   0  3  0  0  0  0  0  0  0  0  0  0
  -24.4617  -27.7034   21.8413 N   0  0  0  0  0  0  0  0  0  0  0  0
  -29.1901  -15.8688   20.9236 N   0  0  0  0  0  0  0  0  0  0  0  0
  -25.0357  -16.5616   17.7085 N   0  0  0  0  0  0  0  0  0  0  0  0
  -21.3046  -14.2330   18.7346 N   0  0  0  0  0  0  0  0  0  0  0  0
  -21.1507  -28.9348   22.3424 N   0  0  0  0  0  0  0  0  0  0  0  0
  -27.5966  -28.7671   21.1348 N   0  0  0  0  0  0  0  0  0  0  0  0
  -28.8355  -17.5774   22.5200 N   0  0  0  0  0  0  0  0  0  0  0  0
  -30.3294  -27.1818   22.4390 N   0  3  0  0  0  0  0  0  0  0  0  0
  -22.1646  -15.8672   17.3750 O   0  0  0  0  0  0  0  0  0  0  0  0
  -22.0625  -27.5164   20.7364 O   0  0  0  0  0  0  0  0  0  0  0  0
  -25.1483  -29.9191   22.0768 O   0  0  0  0  0  0  0  0  0  0  0  0
  -28.7081  -27.1435   19.9077 O   0  0  0  0  0  0  0  0  0  0  0  0
  -30.9306  -17.2106   21.6641 O   0  0  0  0  0  0  0  0  0  0  0  0
  -20.8739  -10.2348   22.5900 O   0  0  0  0  0  0  0  0  0  0  0  0
  -23.6375  -21.6121   21.3222 O   0  0  0  0  0  0  0  0  0  1  0  0
  -22.9571   -5.1854   23.3435 F   0  0  0  0  0  0  0  0  0  0  0  0
  -23.2047   -9.8624   24.0292 F   0  0  0  0  0  0  0  0  0  0  0  0
  1  2  1  0  0  0  0
  1  5  2  0  0  0  0
  2  6  2  0  0  0  0
  3  8  2  0  0  0  0
  3 16  1  0  0  0  0
  4  9  1  0  0  0  0
  4 16  2  0  0  0  0
  5 18  1  0  0  0  0
  6 20  1  0  0  0  0
  7 10  2  0  0  0  0
  7 19  1  0  0  0  0
  8 22  1  0  0  0  0
  9 22  2  0  0  0  0
 10 23  1  0  0  0  0
 11 12  2  0  0  0  0
 11 24  1  0  0  0  0
 12 25  1  0  0  0  0
 13 21  1  0  0  0  0
 13 23  2  0  0  0  0
 14 25  2  0  0  0  0
 14 26  1  0  0  0  0
 15 28  2  0  0  0  0
 15 68  1  0  0  0  0
 16 27  1  0  0  0  0
 17 27  1  0  0  0  0
 17 29  2  0  0  0  0
 17 31  1  0  0  0  0
 18 20  2  0  0  0  0
 18 36  1  0  0  0  0
 19 21  2  0  0  0  0
 19 37  1  0  0  0  0
 20 45  1  0  0  0  0
 21 38  1  0  0  0  0
 22 84  1  0  0  0  0
 23 85  1  0  0  0  0
 24 26  2  0  0  0  0
 24 84  1  0  0  0  0
 25 86  1  0  0  0  0
 26 87  1  0  0  0  0
 27 67  2  0  0  0  0
 28 64  1  0  0  0  0
 28 70  1  0  0  0  0
 29 69  1  0  0  0  0
 29 73  1  0  0  0  0
 30 58  1  0  0  0  0
 30 68  1  0  0  0  0
 30 70  2  0  0  0  0
 31 74  1  0  0  0  0
 31 79  2  0  0  0  0
 32 46  1  0  0  0  0
 32 75  1  0  0  0  0
 32 80  2  0  0  0  0
 33 62  1  0  0  0  0
 33 71  1  0  0  0  0
 33 81  2  0  0  0  0
 34 63  1  0  0  0  0
 34 76  1  0  0  0  0
 34 82  2  0  0  0  0
 35 72  1  0  0  0  0
 35 77  1  0  0  0  0
 35 83  2  0  0  0  0
 36 39  1  0  0  0  0
 37 46  1  0  0  0  0
 38 71  1  0  0  0  0
 39 41  1  0  0  0  0
 40 42  1  0  0  0  0
 40 43  1  0  0  0  0
 41 45  1  0  0  0  0
 42 47  1  0  0  0  0
 43 72  1  0  0  0  0
 44 47  1  0  0  0  0
 44 72  1  0  0  0  0
 45 75  1  0  0  0  0
 46 71  1  0  0  0  0
 47 69  1  0  0  0  0
 48 63  1  0  0  0  0
 49 64  1  0  0  0  0
 50 64  1  0  0  0  0
 51 64  1  0  0  0  0
 52 65  1  0  0  0  0
 53 65  1  0  0  0  0
 54 65  1  0  0  0  0
 55 66  1  0  0  0  0
 56 66  1  0  0  0  0
 57 78  1  0  0  0  0
 58 77  1  0  0  0  0
 59 60  1  0  0  0  0
 59 66  1  0  0  0  0
 60 68  1  0  0  0  0
 61 66  1  0  0  0  0
 61 85  1  0  0  0  0
 62 65  1  0  0  0  0
 62 76  1  0  0  0  0
 63 78  1  0  0  0  0
 67 69  1  0  0  0  0
M  CHG  2  70   1  78   1
M  ISO  4  35 100  61 101  77 100  85 101
M  END
> <Batch ID>
0080

> <Smiles>
CNC(C)C(=O)NC(C(=O)N1Cc2cc([101O:1][101CH2:1]C(C)(C)CCn3cc(C(C)(C)C)nc3C[100NH:0][100C:0](=O)N3CCCC(n4nc(-c5ccc(Oc6ccc(F)cc6F)cc5)c(C(N)=O)c4N)C3)ccc2CC1C(=O)NC1CCCc2ccccc21)C(C)(C)C

> <Shape>
0.220

> <Color>
0.050

> <Negative vol penalty>
0.000

$$$$

  -OEChem-04052318443D

 86 94  0     1  0  0  0  0  0999 V2000
  -29.8241  -29.7004   35.5448 C   0  0  0  0  0  0  0  0  0  0  0  0
  -30.0883  -28.5935   34.7446 C   0  0  0  0  0  0  0  0  0  0  0  0
  -23.0118   -9.9767   20.0166 C   0  0  0  0  0  0  0  0  0  0  0  0
  -23.8160   -9.9724   22.2948 C   0  0  0  0  0  0  0  0  0  0  0  0
  -28.9402  -30.6839   35.1026 C   0  0  0  0  0  0  0  0  0  0  0  0
  -29.4677  -28.4688   33.5021 C   0  0  0  0  0  0  0  0  0  0  0  0
  -31.8512  -26.0041   28.4276 C   0  0  0  0  0  0  0  0  0  0  0  0
  -22.2409   -8.8460   20.2865 C   0  0  0  0  0  0  0  0  0  0  0  0
  -23.0450   -8.8417   22.5648 C   0  0  0  0  0  0  0  0  0  0  0  0
  -31.7222  -24.7429   27.8476 C   0  0  0  0  0  0  0  0  0  0  0  0
  -19.8081   -8.1376   23.2333 C   0  0  0  0  0  0  0  0  0  0  0  0
  -19.0732   -8.1241   24.4188 C   0  0  0  0  0  0  0  0  0  0  0  0
  -29.9876  -25.5917   26.4020 C   0  0  0  0  0  0  0  0  0  0  0  0
  -20.2738   -6.1558   25.1407 C   0  0  0  0  0  0  0  0  0  0  0  0
  -31.5294  -17.8370   23.9852 C   0  0  0  0  0  0  0  0  0  0  0  0
  -23.7994  -10.5399   21.0207 C   0  0  0  0  0  0  0  0  0  0  0  0
  -24.2095  -13.0538   20.8817 C   0  0  0  0  0  0  0  0  0  0  0  0
  -28.3159  -30.5759   33.8499 C   0  0  0  0  0  0  0  0  0  0  0  0
  -31.0404  -27.0678   28.0059 C   0  0  0  0  0  0  0  0  0  0  0  0
  -28.5736  -29.4511   33.0433 C   0  0  0  0  0  0  0  0  0  0  0  0
  -30.1100  -26.8661   26.9764 C   0  0  0  0  0  0  0  0  0  0  0  0
  -22.2575   -8.2785   21.5606 C   0  0  0  0  0  0  0  0  0  0  0  0
  -30.7883  -24.5358   26.8366 C   0  0  0  0  0  0  0  0  0  0  0  0
  -20.7758   -7.1601   23.0015 C   0  0  0  0  0  0  0  0  0  0  0  0
  -19.3061   -7.1332   25.3725 C   0  0  0  0  0  0  0  0  0  0  0  0
  -21.0087   -6.1692   23.9552 C   0  0  0  0  0  0  0  0  0  0  0  0
  -24.5964  -11.7075   20.7424 C   0  0  0  0  0  0  0  0  0  0  0  0
  -30.5985  -17.2419   23.1625 C   0  0  0  0  0  0  0  0  0  0  0  0
  -29.9437  -18.0609   25.6177 C   0  0  0  0  0  0  0  0  0  0  0  0
  -29.0125  -17.4665   24.7948 C   0  0  0  0  0  0  0  0  0  0  0  0
  -25.3149  -13.7707   20.4938 C   0  0  0  0  0  0  0  0  0  0  0  0
  -22.9623  -13.6070   21.3225 C   0  0  0  0  0  0  0  0  0  0  0  0
  -28.8615  -28.9162   29.3986 C   0  0  0  0  0  0  0  0  0  0  0  0
  -28.9454  -30.4855   26.5608 C   0  0  0  0  0  0  0  0  0  0  0  0
  -29.6264  -30.3929   23.2180 C   0  0  0  0  0  0  0  0  0  0  0  0
  -30.8277  -14.6360   20.5713 C   0  0  0  0  0  0  0  0  0  0  0  0
  -27.3317  -31.6408   33.4351 C   0  0  0  0  0  0  0  0  0  0  0  0
  -31.2104  -28.4288   28.6232 C   0  0  0  0  0  0  0  0  0  0  0  0
  -29.2297  -27.9801   26.4738 C   0  0  0  0  0  0  0  0  0  0  0  0
  -27.0033  -31.6194   31.9445 C   0  0  0  0  0  0  0  0  0  0  0  0
  -29.5776  -12.2740   18.2187 C   0  0  0  0  0  0  0  0  0  0  0  0
  -26.7150  -30.1948   31.4818 C   0  0  0  0  0  0  0  0  0  0  0  0
  -28.1412  -12.0227   18.6807 C   0  0  0  0  0  0  0  0  0  0  0  0
  -30.5237  -12.4742   19.4006 C   0  0  0  0  0  0  0  0  0  0  0  0
  -28.6705  -13.2645   20.8200 C   0  0  0  0  0  0  0  0  0  0  0  0
  -27.9391  -29.2924   31.6786 C   0  0  1  0  0  0  0  0  0  0  0  0
  -29.9758  -29.3121   28.4716 C   0  0  1  0  0  0  0  0  0  0  0  0
  -27.6691  -13.1122   19.6622 C   0  0  2  0  0  0  0  0  0  0  0  0
  -26.8392  -16.3121   24.3146 C   0  0  0  0  0  0  0  0  0  0  0  0
  -29.3443  -18.4013   20.6427 C   0  0  0  0  0  0  0  0  0  0  0  0
  -29.5604  -31.8187   21.1540 C   0  0  0  0  0  0  0  0  0  0  0  0
  -25.9162  -30.1455   26.4257 C   0  0  0  0  0  0  0  0  0  0  0  0
  -26.0318  -30.7073   23.9886 C   0  0  0  0  0  0  0  0  0  0  0  0
  -26.7485  -32.3859   25.6891 C   0  0  0  0  0  0  0  0  0  0  0  0
  -32.5490  -30.1532   22.8185 C   0  0  0  0  0  0  0  0  0  0  0  0
  -29.5829  -18.5267   27.0057 C   0  0  0  0  0  0  0  0  0  0  0  0
  -27.6051  -17.2562   25.2383 C   0  0  0  0  0  0  0  0  0  0  0  0
  -30.7780  -17.8920   20.7279 C   0  0  0  0  0  0  0  0  0  0  0  0
  -30.3775  -19.7508   27.4741 C   0  0  0  0  0  0  0  0  0  0  0  0
  -30.1199  -20.9940   26.6214 C   0  0  0  0  0  0  0  0  0  0  0  0
  -30.9551  -22.1772   27.0913 C   0  0  0  0  0  0  0  0  0  1  0  0
  -30.9778  -16.7892   21.7961 C   0  0  2  0  0  0  0  0  0  0  0  0
  -28.2047  -30.3661   25.2508 C   0  0  1  0  0  0  0  0  0  0  0  0
  -30.4068  -31.3380   22.3224 C   0  0  2  0  0  0  0  0  0  0  0  0
  -26.7404  -30.8795   25.3491 C   0  0  0  0  0  0  0  0  0  0  0  0
  -31.2187  -18.2571   25.2276 N   0  0  0  0  0  0  0  0  0  0  0  0
  -25.8497  -11.5743   20.3002 N   0  0  0  0  0  0  0  0  0  0  0  0
  -29.3233  -17.0460   23.5525 N   0  0  0  0  0  0  0  0  0  0  0  0
  -26.2599  -12.8462   20.1583 N   0  0  0  0  0  0  0  0  0  0  0  0
  -29.4291  -29.2910   27.1133 N   0  0  0  0  0  0  0  0  0  0  0  0
  -30.0195  -13.5216   20.2919 N   0  0  0  0  0  0  0  0  0  0  0  0
  -25.5611  -15.0954   20.4102 N   0  0  0  0  0  0  0  0  0  0  0  0
  -21.9321  -12.7281   21.6837 N   0  0  0  0  0  0  0  0  0  0  0  0
  -28.9144  -29.5292   30.6359 N   0  0  0  0  0  0  0  0  0  0  0  0
  -29.0164  -31.0618   24.2581 N   0  0  0  0  0  0  0  0  0  0  0  0
  -30.2713  -15.5849   21.4202 N   0  0  0  0  0  0  0  0  0  0  0  0
  -31.6153  -30.6565   21.7783 N   0  3  0  0  0  0  0  0  0  0  0  0
  -22.7618  -14.8440   21.3783 O   0  0  0  0  0  0  0  0  0  0  0  0
  -28.0155  -28.1152   29.0188 O   0  0  0  0  0  0  0  0  0  0  0  0
  -29.0958  -31.5983   27.0713 O   0  0  0  0  0  0  0  0  0  0  0  0
  -29.5610  -29.1828   23.0131 O   0  0  0  0  0  0  0  0  0  0  0  0
  -31.9591  -14.7774   20.0950 O   0  0  0  0  0  0  0  0  0  0  0  0
  -21.5051   -7.1754   21.8244 O   0  0  0  0  0  0  0  0  0  0  0  0
  -30.6599  -23.3056   26.2692 O   0  0  0  0  0  0  0  0  0  1  0  0
  -18.6013   -7.1213   26.5115 F   0  0  0  0  0  0  0  0  0  0  0  0
  -21.9379   -5.2283   23.7386 F   0  0  0  0  0  0  0  0  0  0  0  0
  1  2  1  0  0  0  0
  1  5  2  0  0  0  0
  2  6  2  0  0  0  0
  3  8  2  0  0  0  0
  3 16  1  0  0  0  0
  4  9  1  0  0  0  0
  4 16  2  0  0  0  0
  5 18  1  0  0  0  0
  6 20  1  0  0  0  0
  7 10  2  0  0  0  0
  7 19  1  0  0  0  0
  8 22  1  0  0  0  0
  9 22  2  0  0  0  0
 10 23  1  0  0  0  0
 11 12  2  0  0  0  0
 11 24  1  0  0  0  0
 12 25  1  0  0  0  0
 13 21  1  0  0  0  0
 13 23  2  0  0  0  0
 14 25  2  0  0  0  0
 14 26  1  0  0  0  0
 15 28  1  0  0  0  0
 15 66  2  0  0  0  0
 16 27  1  0  0  0  0
 17 27  1  0  0  0  0
 17 31  2  0  0  0  0
 17 32  1  0  0  0  0
 18 20  2  0  0  0  0
 18 37  1  0  0  0  0
 19 21  2  0  0  0  0
 19 38  1  0  0  0  0
 20 46  1  0  0  0  0
 21 39  1  0  0  0  0
 22 83  1  0  0  0  0
 23 84  1  0  0  0  0
 24 26  2  0  0  0  0
 24 83  1  0  0  0  0
 25 85  1  0  0  0  0
 26 86  1  0  0  0  0
 27 67  2  0  0  0  0
 28 62  1  0  0  0  0
 28 68  2  0  0  0  0
 29 30  2  0  0  0  0
 29 56  1  0  0  0  0
 29 66  1  0  0  0  0
 30 57  1  0  0  0  0
 30 68  1  0  0  0  0
 31 69  1  0  0  0  0
 31 72  1  0  0  0  0
 32 73  1  0  0  0  0
 32 78  2  0  0  0  0
 33 47  1  0  0  0  0
 33 74  1  0  0  0  0
 33 79  2  0  0  0  0
 34 63  1  0  0  0  0
 34 70  1  0  0  0  0
 34 80  2  0  0  0  0
 35 64  1  0  0  0  0
 35 75  1  0  0  0  0
 35 81  2  0  0  0  0
 36 71  1  0  0  0  0
 36 76  1  0  0  0  0
 36 82  2  0  0  0  0
 37 40  1  0  0  0  0
 38 47  1  0  0  0  0
 39 70  1  0  0  0  0
 40 42  1  0  0  0  0
 41 43  1  0  0  0  0
 41 44  1  0  0  0  0
 42 46  1  0  0  0  0
 43 48  1  0  0  0  0
 44 71  1  0  0  0  0
 45 48  1  0  0  0  0
 45 71  1  0  0  0  0
 46 74  1  0  0  0  0
 47 70  1  0  0  0  0
 48 69  1  0  0  0  0
 49 57  1  0  0  0  0
 50 58  1  0  0  0  0
 51 64  1  0  0  0  0
 52 65  1  0  0  0  0
 53 65  1  0  0  0  0
 54 65  1  0  0  0  0
 55 77  1  0  0  0  0
 56 59  1  0  0  0  0
 58 62  1  0  0  0  0
 59 60  1  0  0  0  0
 60 61  1  0  0  0  0
 61 84  1  0  0  0  0
 62 76  1  0  0  0  0
 63 65  1  0  0  0  0
 63 75  1  0  0  0  0
 64 77  1  0  0  0  0
 67 69  1  0  0  0  0
M  CHG  1  77   1
M  ISO  4  36 100  61 101  76 100  84 101
M  END
> <Batch ID>
0080

> <Smiles>
CCc1nc(C(CC)[100NH:0][100C:0](=O)N2CCCC(n3nc(-c4ccc(Oc5ccc(F)cc5F)cc4)c(C(N)=O)c3N)C2)cnc1CCC[101CH2:1][101O:1]c1ccc2c(c1)CN(C(=O)C(NC(=O)C(C)NC)C(C)(C)C)C(C(=O)NC1CCCc3ccccc31)C2

> <Shape>
0.216

> <Color>
0.200

> <Negative vol penalty>
0.000

$$$$

  -OEChem-04052318443D

 85 93  0     1  0  0  0  0  0999 V2000
  -26.2395  -35.8475   23.5975 C   0  0  0  0  0  0  0  0  0  0  0  0
  -26.7414  -34.5706   23.3668 C   0  0  0  0  0  0  0  0  0  0  0  0
  -26.4974  -12.1301   21.6158 C   0  0  0  0  0  0  0  0  0  0  0  0
  -25.8628  -13.2727   19.5839 C   0  0  0  0  0  0  0  0  0  0  0  0
  -24.9065  -36.0144   23.9705 C   0  0  0  0  0  0  0  0  0  0  0  0
  -25.9107  -33.4598   23.5101 C   0  0  0  0  0  0  0  0  0  0  0  0
  -26.4183  -30.1515   19.7097 C   0  0  0  0  0  0  0  0  0  0  0  0
  -25.2362  -11.5373   21.6764 C   0  0  0  0  0  0  0  0  0  0  0  0
  -24.6016  -12.6799   19.6444 C   0  0  0  0  0  0  0  0  0  0  0  0
  -27.5321  -29.3135   19.7396 C   0  0  0  0  0  0  0  0  0  0  0  0
  -23.6217   -8.9601   20.1986 C   0  0  0  0  0  0  0  0  0  0  0  0
  -23.5593   -7.5971   20.4882 C   0  0  0  0  0  0  0  0  0  0  0  0
  -26.1610  -27.5326   20.6158 C   0  0  0  0  0  0  0  0  0  0  0  0
  -22.2444   -8.0757   22.4577 C   0  0  0  0  0  0  0  0  0  0  0  0
  -28.2900  -22.5792   16.3021 C   0  0  0  0  0  0  0  0  0  0  0  0
  -26.8107  -12.9979   20.5696 C   0  0  0  0  0  0  0  0  0  0  0  0
  -29.2600  -13.1067   19.8649 C   0  0  0  0  0  0  0  0  0  0  0  0
  -24.0565  -34.9058   24.1089 C   0  0  0  0  0  0  0  0  0  0  0  0
  -25.1676  -29.6890   20.1436 C   0  0  0  0  0  0  0  0  0  0  0  0
  -24.5654  -33.6120   23.8865 C   0  0  0  0  0  0  0  0  0  0  0  0
  -25.0324  -28.3660   20.5880 C   0  0  0  0  0  0  0  0  0  0  0  0
  -24.2884  -11.8122   20.6906 C   0  0  0  0  0  0  0  0  0  0  0  0
  -27.4041  -28.0047   20.1954 C   0  0  0  0  0  0  0  0  0  0  0  0
  -22.9955   -9.8810   21.0385 C   0  0  0  0  0  0  0  0  0  0  0  0
  -22.8706   -7.1549   21.6177 C   0  0  0  0  0  0  0  0  0  0  0  0
  -22.3068   -9.4388   22.1681 C   0  0  0  0  0  0  0  0  0  0  0  0
  -28.1131  -13.6110   20.5068 C   0  0  0  0  0  0  0  0  0  0  0  0
  -30.2270  -14.0546   20.0950 C   0  0  0  0  0  0  0  0  0  0  0  0
  -28.2629  -21.6658   18.2703 C   0  0  0  0  0  0  0  0  0  0  0  0
  -29.4356  -11.8903   19.1266 C   0  0  0  0  0  0  0  0  0  0  0  0
  -23.1550  -30.5072   22.4639 C   0  0  0  0  0  0  0  0  0  0  0  0
  -29.8783  -19.9287   21.3137 C   0  0  0  0  0  0  0  0  0  0  0  0
  -21.2347  -28.3150   21.0393 C   0  0  0  0  0  0  0  0  0  0  0  0
  -20.9686  -25.5430   19.0665 C   0  0  0  0  0  0  0  0  0  0  0  0
  -22.6353  -35.1325   24.5600 C   0  0  0  0  0  0  0  0  0  0  0  0
  -23.9704  -30.5973   20.0800 C   0  0  0  0  0  0  0  0  0  0  0  0
  -23.7076  -27.8147   21.0457 C   0  0  0  0  0  0  0  0  0  0  0  0
  -21.7228  -33.9314   24.3255 C   0  0  0  0  0  0  0  0  0  0  0  0
  -31.5265  -17.4011   23.2462 C   0  0  0  0  0  0  0  0  0  0  0  0
  -22.3996  -32.6473   24.7944 C   0  0  0  0  0  0  0  0  0  0  0  0
  -30.9214  -16.0985   22.7243 C   0  0  0  0  0  0  0  0  0  0  0  0
  -30.4999  -18.5294   23.2553 C   0  0  0  0  0  0  0  0  0  0  0  0
  -29.2424  -17.4673   21.4080 C   0  0  0  0  0  0  0  0  0  0  0  0
  -23.6891  -32.3841   24.0075 C   0  0  1  0  0  0  0  0  0  0  0  0
  -22.8518  -30.1789   21.0293 C   0  0  1  0  0  0  0  0  0  0  0  0
  -30.2544  -16.3092   21.3534 C   0  0  2  0  0  0  0  0  0  0  0  0
  -26.7248  -22.9990   20.5491 C   0  0  0  0  0  0  0  0  0  0  0  0
  -19.2714  -23.9605   18.1113 C   0  0  0  0  0  0  0  0  0  0  0  0
  -20.9569  -26.9717   23.7648 C   0  0  0  0  0  0  0  0  0  0  0  0
  -20.0786  -24.9393   22.5959 C   0  0  0  0  0  0  0  0  0  0  0  0
  -18.8376  -27.0978   22.4431 C   0  0  0  0  0  0  0  0  0  0  0  0
  -21.7100  -26.2418   16.2878 C   0  0  0  0  0  0  0  0  0  0  0  0
  -27.3094  -21.5914   20.6123 C   0  0  0  0  0  0  0  0  0  0  0  0
  -29.1731  -25.0791   18.3438 C   0  0  0  0  0  0  0  0  0  0  0  0
  -30.1731  -26.0854   18.9155 C   0  0  0  0  0  0  0  0  0  0  0  0
  -29.8046  -23.7181   18.0296 C   0  0  0  0  0  0  0  0  0  0  0  0
  -30.2442  -19.5592   18.9107 C   0  0  0  0  0  0  0  0  0  0  0  0
  -29.5034  -27.4121   19.2477 C   0  0  0  0  0  0  0  0  0  1  0  0
  -28.5698  -21.4193   19.6906 C   0  0  1  0  0  0  0  0  0  0  0  0
  -29.2167  -20.0075   19.9609 C   0  0  2  0  0  0  0  0  0  0  0  0
  -21.0155  -26.8287   21.1876 C   0  0  1  0  0  0  0  0  0  0  0  0
  -20.0725  -25.2325   17.8811 C   0  0  2  0  0  0  0  0  0  0  0  0
  -20.2477  -26.4701   22.4911 C   0  0  0  0  0  0  0  0  0  0  0  0
  -27.4626  -21.5598   16.2527 N   0  0  0  0  0  0  0  0  0  0  0  0
  -28.3298  -14.7878   21.1003 N   0  0  0  0  0  0  0  0  0  0  0  0
  -27.4453  -20.9786   17.5049 N   0  0  0  0  0  0  0  0  0  0  0  0
  -28.8166  -22.6830   17.5538 N   0  0  0  0  0  0  0  0  0  0  0  0
  -29.6241  -15.0308   20.8323 N   0  0  0  0  0  0  0  0  0  0  0  0
  -22.5679  -28.7436   20.9705 N   0  0  0  0  0  0  0  0  0  0  0  0
  -29.8729  -18.6829   21.9413 N   0  0  0  0  0  0  0  0  0  0  0  0
  -31.5257  -14.1399   19.7365 N   0  0  0  0  0  0  0  0  0  0  0  0
  -28.3383  -11.0296   18.9861 N   0  0  0  0  0  0  0  0  0  0  0  0
  -23.3820  -31.8500   22.6979 N   0  0  0  0  0  0  0  0  0  0  0  0
  -20.3533  -26.3898   19.9640 N   0  0  0  0  0  0  0  0  0  0  0  0
  -31.4496  -20.4249   18.9102 N   0  3  0  0  0  0  0  0  0  0  0  0
  -20.8887  -25.0570   16.6467 N   0  3  0  0  0  0  0  0  0  0  0  0
  -30.5373  -11.5680   18.6207 O   0  0  0  0  0  0  0  0  0  0  0  0
  -23.1796  -29.6089   23.2970 O   0  0  0  0  0  0  0  0  0  0  0  0
  -30.3867  -20.9445   21.7953 O   0  0  0  0  0  0  0  0  0  0  0  0
  -20.2589  -29.0672   20.9794 O   0  0  0  0  0  0  0  0  0  0  0  0
  -22.0999  -25.0778   19.1861 O   0  0  0  0  0  0  0  0  0  0  0  0
  -23.0577  -11.2338   20.7492 O   0  0  0  0  0  0  0  0  0  0  0  0
  -28.4898  -27.1847   20.2262 O   0  0  0  0  0  0  0  0  0  1  0  0
  -22.8095   -5.8458   21.8948 F   0  0  0  0  0  0  0  0  0  0  0  0
  -21.7023  -10.3186   22.9781 F   0  0  0  0  0  0  0  0  0  0  0  0
  1  2  1  0  0  0  0
  1  5  2  0  0  0  0
  2  6  2  0  0  0  0
  3  8  2  0  0  0  0
  3 16  1  0  0  0  0
  4  9  1  0  0  0  0
  4 16  2  0  0  0  0
  5 18  1  0  0  0  0
  6 20  1  0  0  0  0
  7 10  2  0  0  0  0
  7 19  1  0  0  0  0
  8 22  1  0  0  0  0
  9 22  2  0  0  0  0
 10 23  1  0  0  0  0
 11 12  2  0  0  0  0
 11 24  1  0  0  0  0
 12 25  1  0  0  0  0
 13 21  1  0  0  0  0
 13 23  2  0  0  0  0
 14 25  2  0  0  0  0
 14 26  1  0  0  0  0
 15 64  2  0  0  0  0
 15 67  1  0  0  0  0
 16 27  1  0  0  0  0
 17 27  1  0  0  0  0
 17 28  2  0  0  0  0
 17 30  1  0  0  0  0
 18 20  2  0  0  0  0
 18 35  1  0  0  0  0
 19 21  2  0  0  0  0
 19 36  1  0  0  0  0
 20 44  1  0  0  0  0
 21 37  1  0  0  0  0
 22 82  1  0  0  0  0
 23 83  1  0  0  0  0
 24 26  2  0  0  0  0
 24 82  1  0  0  0  0
 25 84  1  0  0  0  0
 26 85  1  0  0  0  0
 27 65  2  0  0  0  0
 28 68  1  0  0  0  0
 28 71  1  0  0  0  0
 29 59  1  0  0  0  0
 29 66  2  0  0  0  0
 29 67  1  0  0  0  0
 30 72  1  0  0  0  0
 30 77  2  0  0  0  0
 31 45  1  0  0  0  0
 31 73  1  0  0  0  0
 31 78  2  0  0  0  0
 32 60  1  0  0  0  0
 32 70  1  0  0  0  0
 32 79  2  0  0  0  0
 33 61  1  0  0  0  0
 33 69  1  0  0  0  0
 33 80  2  0  0  0  0
 34 62  1  0  0  0  0
 34 74  1  0  0  0  0
 34 81  2  0  0  0  0
 35 38  1  0  0  0  0
 36 45  1  0  0  0  0
 37 69  1  0  0  0  0
 38 40  1  0  0  0  0
 39 41  1  0  0  0  0
 39 42  1  0  0  0  0
 40 44  1  0  0  0  0
 41 46  1  0  0  0  0
 42 70  1  0  0  0  0
 43 46  1  0  0  0  0
 43 70  1  0  0  0  0
 44 73  1  0  0  0  0
 45 69  1  0  0  0  0
 46 68  1  0  0  0  0
 47 53  1  0  0  0  0
 48 62  1  0  0  0  0
 49 63  1  0  0  0  0
 50 63  1  0  0  0  0
 51 63  1  0  0  0  0
 52 76  1  0  0  0  0
 53 59  1  0  0  0  0
 54 55  1  0  0  0  0
 54 56  1  0  0  0  0
 55 58  1  0  0  0  0
 56 67  1  0  0  0  0
 57 60  1  0  0  0  0
 57 75  1  0  0  0  0
 58 83  1  0  0  0  0
 59 60  1  0  0  0  0
 61 63  1  0  0  0  0
 61 74  1  0  0  0  0
 62 76  1  0  0  0  0
 64 66  1  0  0  0  0
 65 68  1  0  0  0  0
M  CHG  2  75   1  76   1
M  ISO  4  32 100  58 101  60 100  83 101
M  END
> <Batch ID>
0080

> <Smiles>
CCC(c1nncn1CCC[101CH2:1][101O:1]c1ccc2c(c1)CN(C(=O)C(NC(=O)C(C)NC)C(C)(C)C)C(C(=O)NC1CCCc3ccccc31)C2)[100CH:0](CN)[100C:0](=O)N1CCCC(n2nc(-c3ccc(Oc4ccc(F)cc4F)cc3)c(C(N)=O)c2N)C1

> <Shape>
0.367

> <Color>
0.079

> <Negative vol penalty>
0.000

$$$$

  -OEChem-04052318443D

 85 93  0     1  0  0  0  0  0999 V2000
  -24.6819  -22.8259   32.0125 C   0  0  0  0  0  0  0  0  0  0  0  0
  -24.8850  -21.5559   31.4820 C   0  0  0  0  0  0  0  0  0  0  0  0
  -23.0008   -9.8940   19.9813 C   0  0  0  0  0  0  0  0  0  0  0  0
  -23.7312   -9.9434   22.2838 C   0  0  0  0  0  0  0  0  0  0  0  0
  -25.6582  -23.8091   31.8575 C   0  0  0  0  0  0  0  0  0  0  0  0
  -26.0641  -21.2688   30.7952 C   0  0  0  0  0  0  0  0  0  0  0  0
  -30.6310  -15.8923   29.5485 C   0  0  0  0  0  0  0  0  0  0  0  0
  -22.2362   -8.7584   20.2482 C   0  0  0  0  0  0  0  0  0  0  0  0
  -22.9665   -8.8078   22.5507 C   0  0  0  0  0  0  0  0  0  0  0  0
  -31.2464  -15.2255   28.4901 C   0  0  0  0  0  0  0  0  0  0  0  0
  -23.2135   -5.4696   22.0747 C   0  0  0  0  0  0  0  0  0  0  0  0
  -23.8039   -4.4523   22.8244 C   0  0  0  0  0  0  0  0  0  0  0  0
  -32.8969  -16.9794   28.3527 C   0  0  0  0  0  0  0  0  0  0  0  0
  -22.0836   -4.6915   24.5038 C   0  0  0  0  0  0  0  0  0  0  0  0
  -30.3774  -17.9503   25.3416 C   0  0  0  0  0  0  0  0  0  0  0  0
  -23.7484  -10.4865   20.9991 C   0  0  0  0  0  0  0  0  0  0  0  0
  -24.1305  -13.0027   20.8248 C   0  0  0  0  0  0  0  0  0  0  0  0
  -26.8541  -23.5310   31.1768 C   0  0  0  0  0  0  0  0  0  0  0  0
  -31.1383  -17.1152   30.0106 C   0  0  0  0  0  0  0  0  0  0  0  0
  -27.0567  -22.2496   30.6298 C   0  0  0  0  0  0  0  0  0  0  0  0
  -32.2875  -17.6585   29.4188 C   0  0  0  0  0  0  0  0  0  0  0  0
  -22.2190   -8.2153   21.5329 C   0  0  0  0  0  0  0  0  0  0  0  0
  -32.3778  -15.7704   27.8901 C   0  0  0  0  0  0  0  0  0  0  0  0
  -22.0582   -6.0980   22.5396 C   0  0  0  0  0  0  0  0  0  0  0  0
  -23.2390   -4.0632   24.0389 C   0  0  0  0  0  0  0  0  0  0  0  0
  -21.4932   -5.7089   23.7541 C   0  0  0  0  0  0  0  0  0  0  0  0
  -24.5389  -11.6593   20.7239 C   0  0  0  0  0  0  0  0  0  0  0  0
  -29.1199  -18.1425   24.8429 C   0  0  0  0  0  0  0  0  0  0  0  0
  -25.2386  -13.7269   20.4587 C   0  0  0  0  0  0  0  0  0  0  0  0
  -30.3859  -17.3403   23.2137 C   0  0  0  0  0  0  0  0  0  0  0  0
  -22.8628  -13.5473   21.2149 C   0  0  0  0  0  0  0  0  0  0  0  0
  -30.0184  -20.0847   30.1888 C   0  0  0  0  0  0  0  0  0  0  0  0
  -32.7892  -20.6181   31.7890 C   0  0  0  0  0  0  0  0  0  0  0  0
  -36.0107  -19.6714   32.3995 C   0  0  0  0  0  0  0  0  0  0  0  0
  -30.7345  -14.6674   20.6955 C   0  0  0  0  0  0  0  0  0  0  0  0
  -27.8598  -24.6399   30.9936 C   0  0  0  0  0  0  0  0  0  0  0  0
  -30.4785  -17.8088   31.1708 C   0  0  0  0  0  0  0  0  0  0  0  0
  -32.8837  -18.9586   29.8909 C   0  0  0  0  0  0  0  0  0  0  0  0
  -29.2426  -24.1454   30.5771 C   0  0  0  0  0  0  0  0  0  0  0  0
  -29.5911  -12.2449   18.3501 C   0  0  0  0  0  0  0  0  0  0  0  0
  -29.1272  -23.1247   29.4495 C   0  0  0  0  0  0  0  0  0  0  0  0
  -28.1439  -11.9831   18.7708 C   0  0  0  0  0  0  0  0  0  0  0  0
  -30.4960  -12.4800   19.5575 C   0  0  0  0  0  0  0  0  0  0  0  0
  -28.5881  -13.2720   20.9015 C   0  0  0  0  0  0  0  0  0  0  0  0
  -28.3333  -21.8924   29.8998 C   0  0  1  0  0  0  0  0  0  0  0  0
  -30.7790  -19.3036   31.2227 C   0  0  1  0  0  0  0  0  0  0  0  0
  -27.6266  -13.0845   19.7155 C   0  0  2  0  0  0  0  0  0  0  0  0
  -28.0196  -20.1101   25.9705 C   0  0  0  0  0  0  0  0  0  0  0  0
  -27.3946  -17.7617   26.6408 C   0  0  0  0  0  0  0  0  0  0  0  0
  -30.6543  -17.8918   20.7672 C   0  0  0  0  0  0  0  0  0  0  0  0
  -38.0378  -20.3242   33.7268 C   0  0  0  0  0  0  0  0  0  0  0  0
  -32.0763  -13.3903   25.4620 C   0  0  0  0  0  0  0  0  0  0  0  0
  -33.3383  -22.8905   29.8282 C   0  0  0  0  0  0  0  0  0  0  0  0
  -35.7266  -22.8681   30.5791 C   0  0  0  0  0  0  0  0  0  0  0  0
  -33.9141  -23.4034   32.2073 C   0  0  0  0  0  0  0  0  0  0  0  0
  -36.0164  -17.1041   33.8719 C   0  0  0  0  0  0  0  0  0  0  0  0
  -32.8596  -15.5797   24.4887 C   0  0  0  0  0  0  0  0  0  0  0  0
  -32.6001  -17.0912   24.4111 C   0  0  0  0  0  0  0  0  0  0  0  0
  -27.8962  -18.6474   25.4709 C   0  0  0  0  0  0  0  0  0  0  0  0
  -30.8175  -16.8452   21.8828 C   0  0  2  0  0  0  0  0  0  0  0  0
  -34.1892  -21.0245   31.3966 C   0  0  1  0  0  0  0  0  0  0  0  0
  -36.7750  -19.4775   33.6966 C   0  0  2  0  0  0  0  0  0  0  0  0
  -32.1944  -14.8923   25.6875 C   0  0  2  0  0  0  0  0  0  1  0  0
  -34.2799  -22.5231   30.9924 C   0  0  0  0  0  0  0  0  0  0  0  0
  -25.8074  -11.5346   20.3246 N   0  0  0  0  0  0  0  0  0  0  0  0
  -31.1396  -17.4530   24.3122 N   0  0  0  0  0  0  0  0  0  0  0  0
  -26.2056  -12.8090   20.1714 N   0  0  0  0  0  0  0  0  0  0  0  0
  -29.1542  -17.7571   23.5245 N   0  3  0  0  0  0  0  0  0  0  0  0
  -32.1988  -19.6020   31.0243 N   0  0  0  0  0  0  0  0  0  0  0  0
  -29.9500  -13.5372   20.4120 N   0  0  0  0  0  0  0  0  0  0  0  0
  -25.4704  -15.0530   20.3574 N   0  0  0  0  0  0  0  0  0  0  0  0
  -21.8328  -12.6616   21.5598 N   0  0  0  0  0  0  0  0  0  0  0  0
  -29.1596  -21.0297   30.7168 N   0  0  0  0  0  0  0  0  0  0  0  0
  -35.0502  -20.6540   32.5146 N   0  0  0  0  0  0  0  0  0  0  0  0
  -30.1389  -15.6246   21.5077 N   0  0  0  0  0  0  0  0  0  0  0  0
  -37.1635  -18.0480   33.8602 N   0  3  0  0  0  0  0  0  0  0  0  0
  -22.6448  -14.7823   21.2404 O   0  0  0  0  0  0  0  0  0  0  0  0
  -30.1986  -19.8486   28.9999 O   0  0  0  0  0  0  0  0  0  0  0  0
  -32.2425  -21.1764   32.7434 O   0  0  0  0  0  0  0  0  0  0  0  0
  -36.2450  -19.0192   31.3844 O   0  0  0  0  0  0  0  0  0  0  0  0
  -31.8787  -14.8150   20.2529 O   0  0  0  0  0  0  0  0  0  0  0  0
  -21.4728   -7.1073   21.7938 O   0  0  0  0  0  0  0  0  0  0  0  0
  -32.9801  -15.1219   26.8564 O   0  0  0  0  0  0  0  0  0  1  0  0
  -23.8052   -3.0852   24.7580 F   0  0  0  0  0  0  0  0  0  0  0  0
  -20.3827   -6.3080   24.2053 F   0  0  0  0  0  0  0  0  0  0  0  0
  1  2  1  0  0  0  0
  1  5  2  0  0  0  0
  2  6  2  0  0  0  0
  3  8  2  0  0  0  0
  3 16  1  0  0  0  0
  4  9  1  0  0  0  0
  4 16  2  0  0  0  0
  5 18  1  0  0  0  0
  6 20  1  0  0  0  0
  7 10  2  0  0  0  0
  7 19  1  0  0  0  0
  8 22  1  0  0  0  0
  9 22  2  0  0  0  0
 10 23  1  0  0  0  0
 11 12  2  0  0  0  0
 11 24  1  0  0  0  0
 12 25  1  0  0  0  0
 13 21  1  0  0  0  0
 13 23  2  0  0  0  0
 14 25  2  0  0  0  0
 14 26  1  0  0  0  0
 15 28  2  0  0  0  0
 15 66  1  0  0  0  0
 16 27  1  0  0  0  0
 17 27  1  0  0  0  0
 17 29  2  0  0  0  0
 17 31  1  0  0  0  0
 18 20  2  0  0  0  0
 18 36  1  0  0  0  0
 19 21  2  0  0  0  0
 19 37  1  0  0  0  0
 20 45  1  0  0  0  0
 21 38  1  0  0  0  0
 22 82  1  0  0  0  0
 23 83  1  0  0  0  0
 24 26  2  0  0  0  0
 24 82  1  0  0  0  0
 25 84  1  0  0  0  0
 26 85  1  0  0  0  0
 27 65  2  0  0  0  0
 28 59  1  0  0  0  0
 28 68  1  0  0  0  0
 29 67  1  0  0  0  0
 29 71  1  0  0  0  0
 30 60  1  0  0  0  0
 30 66  1  0  0  0  0
 30 68  2  0  0  0  0
 31 72  1  0  0  0  0
 31 77  2  0  0  0  0
 32 46  1  0  0  0  0
 32 73  1  0  0  0  0
 32 78  2  0  0  0  0
 33 61  1  0  0  0  0
 33 69  1  0  0  0  0
 33 79  2  0  0  0  0
 34 62  1  0  0  0  0
 34 74  1  0  0  0  0
 34 80  2  0  0  0  0
 35 70  1  0  0  0  0
 35 75  1  0  0  0  0
 35 81  2  0  0  0  0
 36 39  1  0  0  0  0
 37 46  1  0  0  0  0
 38 69  1  0  0  0  0
 39 41  1  0  0  0  0
 40 42  1  0  0  0  0
 40 43  1  0  0  0  0
 41 45  1  0  0  0  0
 42 47  1  0  0  0  0
 43 70  1  0  0  0  0
 44 47  1  0  0  0  0
 44 70  1  0  0  0  0
 45 73  1  0  0  0  0
 46 69  1  0  0  0  0
 47 67  1  0  0  0  0
 48 59  1  0  0  0  0
 49 59  1  0  0  0  0
 50 60  1  0  0  0  0
 51 62  1  0  0  0  0
 52 63  1  0  0  0  0
 53 64  1  0  0  0  0
 54 64  1  0  0  0  0
 55 64  1  0  0  0  0
 56 76  1  0  0  0  0
 57 58  1  0  0  0  0
 57 63  1  0  0  0  0
 58 66  1  0  0  0  0
 60 75  1  0  0  0  0
 61 64  1  0  0  0  0
 61 74  1  0  0  0  0
 62 76  1  0  0  0  0
 63 83  1  0  0  0  0
 65 67  1  0  0  0  0
M  CHG  2  68   1  76   1
M  ISO  4  35 100  63 101  75 100  83 101
M  END
> <Batch ID>
0080

> <Smiles>
CNC(C)C(=O)NC(C(=O)N1Cc2cc([101O:1][101CH:1](C)CCn3cc(C(C)C)nc3C(C)[100NH:0][100C:0](=O)N3CCCC(n4nc(-c5ccc(Oc6ccc(F)cc6F)cc5)c(C(N)=O)c4N)C3)ccc2CC1C(=O)NC1CCCc2ccccc21)C(C)(C)C

> <Shape>
0.175

> <Color>
0.193

> <Negative vol penalty>
0.000

$$$$

  -OEChem-04052318443D

 83 91  0     1  0  0  0  0  0999 V2000
  -32.7658  -24.2245   16.9733 C   0  0  0  0  0  0  0  0  0  0  0  0
  -31.8659  -23.7957   17.9438 C   0  0  0  0  0  0  0  0  0  0  0  0
  -24.3066  -12.1812   19.2227 C   0  0  0  0  0  0  0  0  0  0  0  0
  -25.6876  -12.0069   21.1974 C   0  0  0  0  0  0  0  0  0  0  0  0
  -33.2200  -25.5426   16.9792 C   0  0  0  0  0  0  0  0  0  0  0  0
  -31.4205  -24.6847   18.9214 C   0  0  0  0  0  0  0  0  0  0  0  0
  -26.4214  -24.3965   19.6769 C   0  0  0  0  0  0  0  0  0  0  0  0
  -24.5940  -10.8540   18.9045 C   0  0  0  0  0  0  0  0  0  0  0  0
  -25.9751  -10.6796   20.8792 C   0  0  0  0  0  0  0  0  0  0  0  0
  -25.9538  -23.3302   20.4438 C   0  0  0  0  0  0  0  0  0  0  0  0
  -26.7835   -7.1363   20.7799 C   0  0  0  0  0  0  0  0  0  0  0  0
  -26.7242   -6.1949   21.8073 C   0  0  0  0  0  0  0  0  0  0  0  0
  -25.7858  -24.7884   22.3581 C   0  0  0  0  0  0  0  0  0  0  0  0
  -24.3947   -6.7287   22.1619 C   0  0  0  0  0  0  0  0  0  0  0  0
  -28.0349  -20.4879   27.1484 C   0  0  0  0  0  0  0  0  0  0  0  0
  -24.8534  -12.7578   20.3692 C   0  0  0  0  0  0  0  0  0  0  0  0
  -23.4912  -14.6030   21.4858 C   0  0  0  0  0  0  0  0  0  0  0  0
  -32.7725  -26.4508   17.9516 C   0  0  0  0  0  0  0  0  0  0  0  0
  -26.5853  -25.6664   20.2487 C   0  0  0  0  0  0  0  0  0  0  0  0
  -31.8702  -26.0160   18.9411 C   0  0  0  0  0  0  0  0  0  0  0  0
  -26.2532  -25.8698   21.5957 C   0  0  0  0  0  0  0  0  0  0  0  0
  -25.4283  -10.1031   19.7327 C   0  0  0  0  0  0  0  0  0  0  0  0
  -25.6386  -23.5253   21.7853 C   0  0  0  0  0  0  0  0  0  0  0  0
  -25.6485   -7.8741   20.4435 C   0  0  0  0  0  0  0  0  0  0  0  0
  -25.5298   -5.9910   22.4983 C   0  0  0  0  0  0  0  0  0  0  0  0
  -24.4541   -7.6702   21.1345 C   0  0  0  0  0  0  0  0  0  0  0  0
  -24.5573  -14.1290   20.6981 C   0  0  0  0  0  0  0  0  0  0  0  0
  -27.6141  -20.2953   25.8628 C   0  0  0  0  0  0  0  0  0  0  0  0
  -23.6513  -15.9671   21.4952 C   0  0  0  0  0  0  0  0  0  0  0  0
  -26.1390  -21.5979   26.8766 C   0  0  0  0  0  0  0  0  0  0  0  0
  -22.4493  -13.8754   22.1497 C   0  0  0  0  0  0  0  0  0  0  0  0
  -29.0555  -27.6085   20.7284 C   0  0  0  0  0  0  0  0  0  0  0  0
  -26.7493  -29.6599   21.7260 C   0  0  0  0  0  0  0  0  0  0  0  0
  -23.6070  -30.0969   22.9836 C   0  0  0  0  0  0  0  0  0  0  0  0
  -28.4126  -19.5188   20.7424 C   0  0  0  0  0  0  0  0  0  0  0  0
  -33.3280  -27.8530   17.9457 C   0  0  0  0  0  0  0  0  0  0  0  0
  -27.0654  -26.8125   19.4010 C   0  0  0  0  0  0  0  0  0  0  0  0
  -26.3922  -27.2183   22.2518 C   0  0  0  0  0  0  0  0  0  0  0  0
  -32.5190  -28.8323   18.7923 C   0  0  0  0  0  0  0  0  0  0  0  0
  -25.3973  -19.5506   18.8493 C   0  0  0  0  0  0  0  0  0  0  0  0
  -32.1978  -28.2226   20.1531 C   0  0  0  0  0  0  0  0  0  0  0  0
  -24.7439  -18.2075   19.1796 C   0  0  0  0  0  0  0  0  0  0  0  0
  -26.9178  -19.4339   18.7689 C   0  0  0  0  0  0  0  0  0  0  0  0
  -26.9032  -17.4916   20.2858 C   0  0  0  0  0  0  0  0  0  0  0  0
  -31.3448  -26.9571   20.0033 C   0  0  1  0  0  0  0  0  0  0  0  0
  -27.6822  -27.9431   20.2188 C   0  0  1  0  0  0  0  0  0  0  0  0
  -25.3740  -17.5705   20.4327 C   0  0  2  0  0  0  0  0  0  0  0  0
  -24.9570  -22.4508   27.1557 C   0  0  0  0  0  0  0  0  0  0  0  0
  -22.0155  -31.8877   23.7304 C   0  0  0  0  0  0  0  0  0  0  0  0
  -24.2130  -20.4641   24.6748 C   0  0  0  0  0  0  0  0  0  0  0  0
  -28.3328  -29.9847   24.3138 C   0  0  0  0  0  0  0  0  0  0  0  0
  -26.2885  -30.9846   25.3574 C   0  0  0  0  0  0  0  0  0  0  0  0
  -27.3675  -32.1066   23.4082 C   0  0  0  0  0  0  0  0  0  0  0  0
  -21.6145  -29.3453   20.9284 C   0  0  0  0  0  0  0  0  0  0  0  0
  -28.2156  -19.5209   24.7703 C   0  0  0  0  0  0  0  0  0  0  0  0
  -29.2077  -20.3051   23.8718 C   0  0  0  0  0  0  0  0  0  0  0  0
  -29.8445  -19.4625   22.7687 C   0  0  0  0  0  0  0  0  0  0  0  0
  -25.4875  -22.5091   23.9302 C   0  0  0  0  0  0  0  0  0  1  0  0
  -26.0831  -29.9590   23.0472 C   0  0  1  0  0  0  0  0  0  0  0  0
  -22.4755  -31.0202   22.5691 C   0  0  2  0  0  0  0  0  0  0  0  0
  -25.6013  -21.0716   24.4557 C   0  0  1  0  0  0  0  0  0  0  0  0
  -27.0171  -30.7327   24.0201 C   0  0  0  0  0  0  0  0  0  0  0  0
  -25.3370  -15.1120   20.2402 N   0  0  0  0  0  0  0  0  0  0  0  0
  -26.4386  -20.9930   25.7225 N   0  0  0  0  0  0  0  0  0  0  0  0
  -24.7602  -16.2175   20.7417 N   0  0  0  0  0  0  0  0  0  0  0  0
  -27.1036  -21.2977   27.7523 N   0  3  0  0  0  0  0  0  0  0  0  0
  -26.8715  -28.3060   21.3829 N   0  0  0  0  0  0  0  0  0  0  0  0
  -27.4526  -18.8238   19.9886 N   0  0  0  0  0  0  0  0  0  0  0  0
  -22.9503  -16.9649   22.0744 N   0  0  0  0  0  0  0  0  0  0  0  0
  -22.4334  -12.4785   22.0366 N   0  0  0  0  0  0  0  0  0  0  0  0
  -29.9662  -27.3058   19.7342 N   0  0  0  0  0  0  0  0  0  0  0  0
  -24.8415  -30.6562   22.7298 N   0  0  0  0  0  0  0  0  0  0  0  0
  -28.8621  -18.8721   21.8872 N   0  0  0  0  0  0  0  0  0  0  0  0
  -21.3106  -30.2269   22.0848 N   0  3  0  0  0  0  0  0  0  0  0  0
  -21.5494  -14.4482   22.8097 O   0  0  0  0  0  0  0  0  0  0  0  0
  -29.2732  -27.6252   21.9342 O   0  0  0  0  0  0  0  0  0  0  0  0
  -27.1402  -30.5935   21.0208 O   0  0  0  0  0  0  0  0  0  0  0  0
  -23.4149  -28.9918   23.4860 O   0  0  0  0  0  0  0  0  0  0  0  0
  -28.8338  -20.6355   20.4221 O   0  0  0  0  0  0  0  0  0  0  0  0
  -25.7088   -8.8079   19.4226 O   0  0  0  0  0  0  0  0  0  0  0  0
  -25.1827  -22.4861   22.5363 O   0  0  0  0  0  0  0  0  0  1  0  0
  -25.4725   -5.0858   23.4840 F   0  0  0  0  0  0  0  0  0  0  0  0
  -23.3600   -8.3751   20.8150 F   0  0  0  0  0  0  0  0  0  0  0  0
  1  2  1  0  0  0  0
  1  5  2  0  0  0  0
  2  6  2  0  0  0  0
  3  8  2  0  0  0  0
  3 16  1  0  0  0  0
  4  9  1  0  0  0  0
  4 16  2  0  0  0  0
  5 18  1  0  0  0  0
  6 20  1  0  0  0  0
  7 10  2  0  0  0  0
  7 19  1  0  0  0  0
  8 22  1  0  0  0  0
  9 22  2  0  0  0  0
 10 23  1  0  0  0  0
 11 12  2  0  0  0  0
 11 24  1  0  0  0  0
 12 25  1  0  0  0  0
 13 21  1  0  0  0  0
 13 23  2  0  0  0  0
 14 25  2  0  0  0  0
 14 26  1  0  0  0  0
 15 28  2  0  0  0  0
 15 66  1  0  0  0  0
 16 27  1  0  0  0  0
 17 27  1  0  0  0  0
 17 29  2  0  0  0  0
 17 31  1  0  0  0  0
 18 20  2  0  0  0  0
 18 36  1  0  0  0  0
 19 21  2  0  0  0  0
 19 37  1  0  0  0  0
 20 45  1  0  0  0  0
 21 38  1  0  0  0  0
 22 80  1  0  0  0  0
 23 81  1  0  0  0  0
 24 26  2  0  0  0  0
 24 80  1  0  0  0  0
 25 82  1  0  0  0  0
 26 83  1  0  0  0  0
 27 63  2  0  0  0  0
 28 55  1  0  0  0  0
 28 64  1  0  0  0  0
 29 65  1  0  0  0  0
 29 69  1  0  0  0  0
 30 48  1  0  0  0  0
 30 64  1  0  0  0  0
 30 66  2  0  0  0  0
 31 70  1  0  0  0  0
 31 75  2  0  0  0  0
 32 46  1  0  0  0  0
 32 71  1  0  0  0  0
 32 76  2  0  0  0  0
 33 59  1  0  0  0  0
 33 67  1  0  0  0  0
 33 77  2  0  0  0  0
 34 60  1  0  0  0  0
 34 72  1  0  0  0  0
 34 78  2  0  0  0  0
 35 68  1  0  0  0  0
 35 73  1  0  0  0  0
 35 79  2  0  0  0  0
 36 39  1  0  0  0  0
 37 46  1  0  0  0  0
 38 67  1  0  0  0  0
 39 41  1  0  0  0  0
 40 42  1  0  0  0  0
 40 43  1  0  0  0  0
 41 45  1  0  0  0  0
 42 47  1  0  0  0  0
 43 68  1  0  0  0  0
 44 47  1  0  0  0  0
 44 68  1  0  0  0  0
 45 71  1  0  0  0  0
 46 67  1  0  0  0  0
 47 65  1  0  0  0  0
 49 60  1  0  0  0  0
 50 61  1  0  0  0  0
 51 62  1  0  0  0  0
 52 62  1  0  0  0  0
 53 62  1  0  0  0  0
 54 74  1  0  0  0  0
 55 56  1  0  0  0  0
 56 57  1  0  0  0  0
 57 73  1  0  0  0  0
 58 61  1  0  0  0  0
 58 81  1  0  0  0  0
 59 62  1  0  0  0  0
 59 72  1  0  0  0  0
 60 74  1  0  0  0  0
 61 64  1  0  0  0  0
 63 65  1  0  0  0  0
M  CHG  2  66   1  74   1
M  ISO  4  35 100  58 101  73 100  81 101
M  END
> <Batch ID>
0080

> <Smiles>
CNC(C)C(=O)NC(C(=O)N1Cc2cc([101O:1][101CH2:1]C(C)n3c(CCC[100NH:0][100C:0](=O)N4CCCC(n5nc(-c6ccc(Oc7ccc(F)cc7F)cc6)c(C(N)=O)c5N)C4)cnc3C)ccc2CC1C(=O)NC1CCCc2ccccc21)C(C)(C)C

> <Shape>
0.207

> <Color>
0.078

> <Negative vol penalty>
0.000

$$$$

  -OEChem-04052318443D

 83 91  0     1  0  0  0  0  0999 V2000
  -14.7492  -25.1065   18.9668 C   0  0  0  0  0  0  0  0  0  0  0  0
  -15.8040  -24.2886   19.3589 C   0  0  0  0  0  0  0  0  0  0  0  0
  -23.0000   -9.8912   19.9854 C   0  0  0  0  0  0  0  0  0  0  0  0
  -23.7242   -9.9523   22.2895 C   0  0  0  0  0  0  0  0  0  0  0  0
  -14.9459  -26.4805   18.8346 C   0  0  0  0  0  0  0  0  0  0  0  0
  -17.0565  -24.8441   19.6179 C   0  0  0  0  0  0  0  0  0  0  0  0
  -21.0969  -23.0075   23.8379 C   0  0  0  0  0  0  0  0  0  0  0  0
  -22.2343   -8.7572   20.2561 C   0  0  0  0  0  0  0  0  0  0  0  0
  -22.9584   -8.8183   22.5603 C   0  0  0  0  0  0  0  0  0  0  0  0
  -22.2339  -22.2043   23.7610 C   0  0  0  0  0  0  0  0  0  0  0  0
  -23.2056   -5.4777   22.1023 C   0  0  0  0  0  0  0  0  0  0  0  0
  -23.7936   -4.4641   22.8589 C   0  0  0  0  0  0  0  0  0  0  0  0
  -23.6076  -24.1777   23.5675 C   0  0  0  0  0  0  0  0  0  0  0  0
  -22.0688   -4.7125   24.5323 C   0  0  0  0  0  0  0  0  0  0  0  0
  -23.7450  -10.4887   21.0021 C   0  0  0  0  0  0  0  0  0  0  0  0
  -24.1284  -13.0039   20.8158 C   0  0  0  0  0  0  0  0  0  0  0  0
  -16.1989  -27.0543   19.1015 C   0  0  0  0  0  0  0  0  0  0  0  0
  -21.2059  -24.4038   23.7691 C   0  0  0  0  0  0  0  0  0  0  0  0
  -17.2705  -26.2268   19.4879 C   0  0  0  0  0  0  0  0  0  0  0  0
  -22.4708  -24.9965   23.6463 C   0  0  0  0  0  0  0  0  0  0  0  0
  -22.2134   -8.2208   21.5435 C   0  0  0  0  0  0  0  0  0  0  0  0
  -23.4892  -22.7892   23.6229 C   0  0  0  0  0  0  0  0  0  0  0  0
  -22.0492   -6.1088   22.5608 C   0  0  0  0  0  0  0  0  0  0  0  0
  -23.2252   -4.0815   24.0739 C   0  0  0  0  0  0  0  0  0  0  0  0
  -21.4808   -5.7262   23.7758 C   0  0  0  0  0  0  0  0  0  0  0  0
  -24.5367  -11.6598   20.7230 C   0  0  0  0  0  0  0  0  0  0  0  0
  -25.2378  -13.7258   20.4489 C   0  0  0  0  0  0  0  0  0  0  0  0
  -22.8599  -13.5509   21.1995 C   0  0  0  0  0  0  0  0  0  0  0  0
  -20.1387  -26.6418   21.7800 C   0  0  0  0  0  0  0  0  0  0  0  0
  -21.4073  -28.6548   23.9848 C   0  0  0  0  0  0  0  0  0  0  0  0
  -23.6562  -29.1469   26.5042 C   0  0  0  0  0  0  0  0  0  0  0  0
  -30.7333  -14.6658   20.6959 C   0  0  0  0  0  0  0  0  0  0  0  0
  -16.3757  -28.5384   18.8991 C   0  0  0  0  0  0  0  0  0  0  0  0
  -19.9724  -25.2573   23.8804 C   0  0  0  0  0  0  0  0  0  0  0  0
  -22.6437  -26.4916   23.5881 C   0  0  0  0  0  0  0  0  0  0  0  0
  -17.6360  -29.0968   19.5550 C   0  0  0  0  0  0  0  0  0  0  0  0
  -29.5955  -12.2316   18.3600 C   0  0  0  0  0  0  0  0  0  0  0  0
  -18.8373  -28.2096   19.2442 C   0  0  0  0  0  0  0  0  0  0  0  0
  -29.5484  -20.4738   22.4514 C   0  0  0  0  0  0  0  0  0  0  0  0
  -27.9641  -19.2919   20.8797 C   0  0  0  0  0  0  0  0  0  0  0  0
  -30.5288  -19.3077   22.3398 C   0  0  0  0  0  0  0  0  0  0  0  0
  -28.9448  -18.1260   20.7680 C   0  0  0  0  0  0  0  0  0  0  0  0
  -28.1471  -11.9724   18.7781 C   0  0  0  0  0  0  0  0  0  0  0  0
  -30.4972  -12.4727   19.5687 C   0  0  0  0  0  0  0  0  0  0  0  0
  -28.5859  -13.2722   20.9033 C   0  0  0  0  0  0  0  0  0  0  0  0
  -18.6375  -26.7952   19.8018 C   0  0  1  0  0  0  0  0  0  0  0  0
  -20.1528  -26.6492   23.2825 C   0  0  1  0  0  0  0  0  0  0  0  0
  -28.6836  -20.6102   21.1917 C   0  0  0  0  0  0  0  0  0  0  0  0
  -29.8089  -17.9896   22.0279 C   0  0  0  0  0  0  0  0  0  0  0  0
  -27.6275  -13.0788   19.7157 C   0  0  2  0  0  0  0  0  0  0  0  0
  -24.4860  -30.9077   28.0879 C   0  0  0  0  0  0  0  0  0  0  0  0
  -27.2344  -22.2405   19.9686 C   0  0  0  0  0  0  0  0  0  0  0  0
  -31.6159  -16.6479   23.1495 C   0  0  0  0  0  0  0  0  0  0  0  0
  -22.9666  -29.9618   21.7108 C   0  0  0  0  0  0  0  0  0  0  0  0
  -24.4429  -31.0278   23.4290 C   0  0  0  0  0  0  0  0  0  0  0  0
  -22.0073  -31.5643   23.3740 C   0  0  0  0  0  0  0  0  0  0  0  0
  -22.8391  -27.5683   28.8705 C   0  0  0  0  0  0  0  0  0  0  0  0
  -26.4496  -21.3359   22.1749 C   0  0  0  0  0  0  0  0  0  0  0  0
  -25.6986  -22.5117   22.7878 C   0  0  0  0  0  0  0  0  0  1  0  0
  -22.7583  -29.2945   24.1963 C   0  0  1  0  0  0  0  0  0  0  0  0
  -23.5051  -29.7638   27.8830 C   0  0  2  0  0  0  0  0  0  0  0  0
  -27.6780  -21.7491   21.3484 C   0  0  1  0  0  0  0  0  0  0  0  0
  -30.8138  -16.8497   21.8721 C   0  0  1  0  0  0  0  0  0  0  0  0
  -23.0407  -30.4338   23.1767 C   0  0  0  0  0  0  0  0  0  0  0  0
  -25.8062  -11.5327   20.3279 N   0  0  0  0  0  0  0  0  0  0  0  0
  -26.2053  -12.8061   20.1691 N   0  0  0  0  0  0  0  0  0  0  0  0
  -21.4069  -27.2831   23.6946 N   0  0  0  0  0  0  0  0  0  0  0  0
  -29.9492  -13.5345   20.4161 N   0  0  0  0  0  0  0  0  0  0  0  0
  -25.4702  -15.0513   20.3415 N   0  0  0  0  0  0  0  0  0  0  0  0
  -21.8286  -12.6673   21.5463 N   0  0  0  0  0  0  0  0  0  0  0  0
  -18.8788  -26.7756   21.2286 N   0  0  0  0  0  0  0  0  0  0  0  0
  -22.7950  -29.7187   25.5917 N   0  0  0  0  0  0  0  0  0  0  0  0
  -30.1358  -15.6275   21.5015 N   0  0  0  0  0  0  0  0  0  0  0  0
  -23.7498  -28.7401   28.9381 N   0  3  0  0  0  0  0  0  0  0  0  0
  -22.6422  -14.7861   21.2181 O   0  0  0  0  0  0  0  0  0  0  0  0
  -21.1930  -26.5250   21.1665 O   0  0  0  0  0  0  0  0  0  0  0  0
  -20.3896  -29.3452   24.0807 O   0  0  0  0  0  0  0  0  0  0  0  0
  -24.4604  -28.2501   26.2601 O   0  0  0  0  0  0  0  0  0  0  0  0
  -31.8788  -14.8108   20.2557 O   0  0  0  0  0  0  0  0  0  0  0  0
  -21.4661   -7.1144   21.8081 O   0  0  0  0  0  0  0  0  0  0  0  0
  -24.6005  -22.0075   23.5469 O   0  0  0  0  0  0  0  0  0  1  0  0
  -23.7891   -3.1070   24.7996 F   0  0  0  0  0  0  0  0  0  0  0  0
  -20.3692   -6.3280   24.2208 F   0  0  0  0  0  0  0  0  0  0  0  0
  1  2  1  0  0  0  0
  1  5  2  0  0  0  0
  2  6  2  0  0  0  0
  3  8  2  0  0  0  0
  3 15  1  0  0  0  0
  4  9  1  0  0  0  0
  4 15  2  0  0  0  0
  5 17  1  0  0  0  0
  6 19  1  0  0  0  0
  7 10  2  0  0  0  0
  7 18  1  0  0  0  0
  8 21  1  0  0  0  0
  9 21  2  0  0  0  0
 10 22  1  0  0  0  0
 11 12  2  0  0  0  0
 11 23  1  0  0  0  0
 12 24  1  0  0  0  0
 13 20  1  0  0  0  0
 13 22  2  0  0  0  0
 14 24  2  0  0  0  0
 14 25  1  0  0  0  0
 15 26  1  0  0  0  0
 16 26  1  0  0  0  0
 16 27  2  0  0  0  0
 16 28  1  0  0  0  0
 17 19  2  0  0  0  0
 17 33  1  0  0  0  0
 18 20  2  0  0  0  0
 18 34  1  0  0  0  0
 19 46  1  0  0  0  0
 20 35  1  0  0  0  0
 21 80  1  0  0  0  0
 22 81  1  0  0  0  0
 23 25  2  0  0  0  0
 23 80  1  0  0  0  0
 24 82  1  0  0  0  0
 25 83  1  0  0  0  0
 26 65  2  0  0  0  0
 27 66  1  0  0  0  0
 27 69  1  0  0  0  0
 28 70  1  0  0  0  0
 28 75  2  0  0  0  0
 29 47  1  0  0  0  0
 29 71  1  0  0  0  0
 29 76  2  0  0  0  0
 30 60  1  0  0  0  0
 30 67  1  0  0  0  0
 30 77  2  0  0  0  0
 31 61  1  0  0  0  0
 31 72  1  0  0  0  0
 31 78  2  0  0  0  0
 32 68  1  0  0  0  0
 32 73  1  0  0  0  0
 32 79  2  0  0  0  0
 33 36  1  0  0  0  0
 34 47  1  0  0  0  0
 35 67  1  0  0  0  0
 36 38  1  0  0  0  0
 37 43  1  0  0  0  0
 37 44  1  0  0  0  0
 38 46  1  0  0  0  0
 39 41  1  0  0  0  0
 39 48  1  0  0  0  0
 40 42  1  0  0  0  0
 40 48  1  0  0  0  0
 41 49  1  0  0  0  0
 42 49  1  0  0  0  0
 43 50  1  0  0  0  0
 44 68  1  0  0  0  0
 45 50  1  0  0  0  0
 45 68  1  0  0  0  0
 46 71  1  0  0  0  0
 47 67  1  0  0  0  0
 48 62  1  0  0  0  0
 49 63  1  0  0  0  0
 50 66  1  0  0  0  0
 51 61  1  0  0  0  0
 52 62  1  0  0  0  0
 53 63  1  0  0  0  0
 54 64  1  0  0  0  0
 55 64  1  0  0  0  0
 56 64  1  0  0  0  0
 57 74  1  0  0  0  0
 58 59  1  0  0  0  0
 58 62  1  0  0  0  0
 59 81  1  0  0  0  0
 60 64  1  0  0  0  0
 60 72  1  0  0  0  0
 61 74  1  0  0  0  0
 63 73  1  0  0  0  0
 65 66  1  0  0  0  0
M  CHG  1  74   1
M  ISO  4  32 100  59 101  73 100  81 101
M  END
> <Batch ID>
0080

> <Smiles>
CNC(C)C(=O)NC(C(=O)N1Cc2cc([101O:1][101CH2:1]CC(C)C3CCC(C(C)[100NH:0][100C:0](=O)N4CCCC(n5nc(-c6ccc(Oc7ccc(F)cc7F)cc6)c(C(N)=O)c5N)C4)CC3)ccc2CC1C(=O)NC1CCCc2ccccc21)C(C)(C)C

> <Shape>
0.292

> <Color>
0.202

> <Negative vol penalty>
0.000

$$$$

  -OEChem-04052318443D

 88 96  0     1  0  0  0  0  0999 V2000
  -24.3620   -5.5356   20.1650 C   0  0  0  0  0  0  0  0  0  0  0  0
  -24.7642   -6.4335   19.1815 C   0  0  0  0  0  0  0  0  0  0  0  0
  -22.5845  -30.7839   20.6175 C   0  0  0  0  0  0  0  0  0  0  0  0
  -22.5732  -29.0344   22.2838 C   0  0  0  0  0  0  0  0  0  0  0  0
  -23.5977   -5.9805   21.2429 C   0  0  0  0  0  0  0  0  0  0  0  0
  -24.4014   -7.7767   19.2747 C   0  0  0  0  0  0  0  0  0  0  0  0
  -26.8118  -14.3336   17.6892 C   0  0  0  0  0  0  0  0  0  0  0  0
  -21.2039  -30.6515   20.4691 C   0  0  0  0  0  0  0  0  0  0  0  0
  -21.1926  -28.9020   22.1354 C   0  0  0  0  0  0  0  0  0  0  0  0
  -26.4158  -15.4965   17.0299 C   0  0  0  0  0  0  0  0  0  0  0  0
  -18.4115  -30.5199   23.1690 C   0  0  0  0  0  0  0  0  0  0  0  0
  -17.6428  -30.4236   24.3290 C   0  0  0  0  0  0  0  0  0  0  0  0
  -25.1606  -16.1664   18.9779 C   0  0  0  0  0  0  0  0  0  0  0  0
  -28.2556  -18.9296   18.1606 C   0  0  0  0  0  0  0  0  0  0  0  0
  -28.1287  -21.3305   18.0977 C   0  0  0  0  0  0  0  0  0  0  0  0
  -16.8442  -28.2565   23.6198 C   0  0  0  0  0  0  0  0  0  0  0  0
  -23.2692  -29.9753   21.5248 C   0  0  0  0  0  0  0  0  0  0  0  0
  -25.3774  -30.9581   22.5723 C   0  0  0  0  0  0  0  0  0  0  0  0
  -23.2335   -7.3316   21.3544 C   0  0  0  0  0  0  0  0  0  0  0  0
  -26.3755  -14.0728   18.9962 C   0  0  0  0  0  0  0  0  0  0  0  0
  -23.6304   -8.2398   20.3544 C   0  0  0  0  0  0  0  0  0  0  0  0
  -25.5545  -15.0008   19.6526 C   0  0  0  0  0  0  0  0  0  0  0  0
  -27.7176  -20.0915   17.6188 C   0  0  0  0  0  0  0  0  0  0  0  0
  -20.5079  -29.7106   21.2281 C   0  0  0  0  0  0  0  0  0  0  0  0
  -25.5877  -16.4117   17.6731 C   0  0  0  0  0  0  0  0  0  0  0  0
  -18.3964  -29.4845   22.2344 C   0  0  0  0  0  0  0  0  0  0  0  0
  -16.8592  -29.2919   24.5544 C   0  0  0  0  0  0  0  0  0  0  0  0
  -17.6128  -28.3528   22.4598 C   0  0  0  0  0  0  0  0  0  0  0  0
  -24.6954  -30.1112   21.6782 C   0  0  0  0  0  0  0  0  0  0  0  0
  -29.1942  -19.0596   19.1715 C   0  0  0  0  0  0  0  0  0  0  0  0
  -29.0728  -21.3530   19.1115 C   0  0  0  0  0  0  0  0  0  0  0  0
  -26.7071  -30.7159   22.3281 C   0  0  0  0  0  0  0  0  0  0  0  0
  -24.8555  -31.8812   23.5373 C   0  0  0  0  0  0  0  0  0  0  0  0
  -24.6295  -11.7971   20.3660 C   0  0  0  0  0  0  0  0  0  0  0  0
  -25.4721  -13.3354   23.0947 C   0  0  0  0  0  0  0  0  0  0  0  0
  -26.4947  -16.2258   24.5936 C   0  0  0  0  0  0  0  0  0  0  0  0
  -29.6492  -26.0072   20.0868 C   0  0  0  0  0  0  0  0  0  0  0  0
  -22.3665   -7.7565   22.5131 C   0  0  0  0  0  0  0  0  0  0  0  0
  -26.8333  -12.8267   19.7033 C   0  0  0  0  0  0  0  0  0  0  0  0
  -25.0752  -14.7774   21.0628 C   0  0  0  0  0  0  0  0  0  0  0  0
  -22.3408   -9.2669   22.7328 C   0  0  0  0  0  0  0  0  0  0  0  0
  -29.6849  -29.3435   18.8439 C   0  0  0  0  0  0  0  0  0  0  0  0
  -22.1300   -9.9953   21.4092 C   0  0  0  0  0  0  0  0  0  0  0  0
  -28.4718  -29.9950   19.5100 C   0  0  0  0  0  0  0  0  0  0  0  0
  -29.4160  -27.8834   18.4862 C   0  0  0  0  0  0  0  0  0  0  0  0
  -27.7270  -27.7006   20.2716 C   0  0  0  0  0  0  0  0  0  0  0  0
  -23.2777   -9.7093   20.4332 C   0  0  1  0  0  0  0  0  0  0  0  0
  -25.9114  -12.4159   20.8473 C   0  0  1  0  0  0  0  0  0  0  0  0
  -27.9692  -29.1576   20.7015 C   0  0  2  0  0  0  0  0  0  0  0  0
  -29.7943  -17.8341   19.7756 C   0  0  0  0  0  0  0  0  0  0  0  0
  -25.8084  -22.5222   23.1047 C   0  0  0  0  0  0  0  0  0  0  0  0
  -31.0370  -22.8642   19.3330 C   0  0  0  0  0  0  0  0  0  0  0  0
  -27.0633  -17.1847   26.8418 C   0  0  0  0  0  0  0  0  0  0  0  0
  -22.5025  -13.4845   23.7795 C   0  0  0  0  0  0  0  0  0  0  0  0
  -23.0547  -15.2328   25.4844 C   0  0  0  0  0  0  0  0  0  0  0  0
  -23.9920  -12.9322   25.7110 C   0  0  0  0  0  0  0  0  0  0  0  0
  -29.2691  -16.8339   23.7616 C   0  0  0  0  0  0  0  0  0  0  0  0
  -26.6931  -20.0084   16.5156 C   0  0  0  0  0  0  0  0  0  0  0  0
  -27.2960  -22.7838   22.9193 C   0  0  0  0  0  0  0  0  0  0  0  0
  -25.2494  -19.9459   17.0191 C   0  0  0  0  0  0  0  0  0  0  0  0
  -27.6980  -22.6935   21.4440 C   0  0  0  0  0  0  0  0  0  0  0  0
  -29.7570  -24.1901   21.7737 C   0  0  0  0  0  0  0  0  0  0  0  0
  -24.9497  -18.6967   17.8395 C   0  0  0  0  0  0  0  0  0  1  0  0
  -29.5355  -22.6652   19.6507 C   0  0  2  0  0  0  0  0  0  0  0  0
  -24.8879  -14.4637   23.9099 C   0  0  1  0  0  0  0  0  0  0  0  0
  -27.6028  -16.5049   25.5930 C   0  0  2  0  0  0  0  0  0  0  0  0
  -29.2210  -22.8665   21.1875 C   0  0  2  0  0  0  0  0  0  0  0  0
  -23.6165  -14.0319   24.6939 C   0  0  0  0  0  0  0  0  0  0  0  0
  -25.5235  -29.3853   20.9223 N   0  0  0  0  0  0  0  0  0  0  0  0
  -29.6182  -20.2455   19.6627 N   0  0  0  0  0  0  0  0  0  0  0  0
  -26.7395  -29.7755   21.3408 N   0  0  0  0  0  0  0  0  0  0  0  0
  -25.5449  -13.5411   21.7097 N   0  0  0  0  0  0  0  0  0  0  0  0
  -28.9440  -27.1444   19.6596 N   0  0  0  0  0  0  0  0  0  0  0  0
  -27.8401  -31.2177   22.8637 N   0  0  0  0  0  0  0  0  0  0  0  0
  -23.4649  -32.0064   23.6583 N   0  0  0  0  0  0  0  0  0  0  0  0
  -24.4440  -10.4922   20.7812 N   0  0  0  0  0  0  0  0  0  0  0  0
  -25.9697  -14.9609   24.7531 N   0  0  0  0  0  0  0  0  0  0  0  0
  -29.1381  -25.3693   21.2104 N   0  0  0  0  0  0  0  0  0  0  0  0
  -28.6372  -17.3895   24.9859 N   0  3  0  0  0  0  0  0  0  0  0  0
  -25.6005  -32.5865   24.2592 O   0  0  0  0  0  0  0  0  0  0  0  0
  -23.8646  -12.4553   19.6707 O   0  0  0  0  0  0  0  0  0  0  0  0
  -25.8565  -12.3122   23.6665 O   0  0  0  0  0  0  0  0  0  0  0  0
  -26.1288  -17.0491   23.7576 O   0  0  0  0  0  0  0  0  0  0  0  0
  -30.6626  -25.5943   19.5127 O   0  0  0  0  0  0  0  0  0  0  0  0
  -19.1607  -29.5813   21.0837 O   0  0  0  0  0  0  0  0  0  0  0  0
  -25.1992  -17.5472   17.0316 O   0  0  0  0  0  0  0  0  0  1  0  0
  -16.1223  -29.1989   25.6691 F   0  0  0  0  0  0  0  0  0  0  0  0
  -17.5952  -27.3544   21.5662 F   0  0  0  0  0  0  0  0  0  0  0  0
  1  2  1  0  0  0  0
  1  5  2  0  0  0  0
  2  6  2  0  0  0  0
  3  8  2  0  0  0  0
  3 17  1  0  0  0  0
  4  9  1  0  0  0  0
  4 17  2  0  0  0  0
  5 19  1  0  0  0  0
  6 21  1  0  0  0  0
  7 10  2  0  0  0  0
  7 20  1  0  0  0  0
  8 24  1  0  0  0  0
  9 24  2  0  0  0  0
 10 25  1  0  0  0  0
 11 12  2  0  0  0  0
 11 26  1  0  0  0  0
 12 27  1  0  0  0  0
 13 22  1  0  0  0  0
 13 25  2  0  0  0  0
 14 23  1  0  0  0  0
 14 30  2  0  0  0  0
 15 23  2  0  0  0  0
 15 31  1  0  0  0  0
 16 27  2  0  0  0  0
 16 28  1  0  0  0  0
 17 29  1  0  0  0  0
 18 29  1  0  0  0  0
 18 32  2  0  0  0  0
 18 33  1  0  0  0  0
 19 21  2  0  0  0  0
 19 38  1  0  0  0  0
 20 22  2  0  0  0  0
 20 39  1  0  0  0  0
 21 47  1  0  0  0  0
 22 40  1  0  0  0  0
 23 58  1  0  0  0  0
 24 85  1  0  0  0  0
 25 86  1  0  0  0  0
 26 28  2  0  0  0  0
 26 85  1  0  0  0  0
 27 87  1  0  0  0  0
 28 88  1  0  0  0  0
 29 69  2  0  0  0  0
 30 50  1  0  0  0  0
 30 70  1  0  0  0  0
 31 64  1  0  0  0  0
 31 70  2  0  0  0  0
 32 71  1  0  0  0  0
 32 74  1  0  0  0  0
 33 75  1  0  0  0  0
 33 80  2  0  0  0  0
 34 48  1  0  0  0  0
 34 76  1  0  0  0  0
 34 81  2  0  0  0  0
 35 65  1  0  0  0  0
 35 72  1  0  0  0  0
 35 82  2  0  0  0  0
 36 66  1  0  0  0  0
 36 77  1  0  0  0  0
 36 83  2  0  0  0  0
 37 73  1  0  0  0  0
 37 78  1  0  0  0  0
 37 84  2  0  0  0  0
 38 41  1  0  0  0  0
 39 48  1  0  0  0  0
 40 72  1  0  0  0  0
 41 43  1  0  0  0  0
 42 44  1  0  0  0  0
 42 45  1  0  0  0  0
 43 47  1  0  0  0  0
 44 49  1  0  0  0  0
 45 73  1  0  0  0  0
 46 49  1  0  0  0  0
 46 73  1  0  0  0  0
 47 76  1  0  0  0  0
 48 72  1  0  0  0  0
 49 71  1  0  0  0  0
 51 59  1  0  0  0  0
 52 64  1  0  0  0  0
 53 66  1  0  0  0  0
 54 68  1  0  0  0  0
 55 68  1  0  0  0  0
 56 68  1  0  0  0  0
 57 79  1  0  0  0  0
 58 60  1  0  0  0  0
 59 61  1  0  0  0  0
 60 63  1  0  0  0  0
 61 67  1  0  0  0  0
 62 67  1  0  0  0  0
 62 78  1  0  0  0  0
 63 86  1  0  0  0  0
 64 67  1  0  0  0  0
 65 68  1  0  0  0  0
 65 77  1  0  0  0  0
 66 79  1  0  0  0  0
 69 71  1  0  0  0  0
M  CHG  1  79   1
M  ISO  4  37 100  63 101  78 100  86 101
M  END
> <Batch ID>
0080

> <Smiles>
CCCC(C[100NH:0][100C:0](=O)N1CCCC(n2nc(-c3ccc(Oc4ccc(F)cc4F)cc3)c(C(N)=O)c2N)C1)C(C)c1cc(CC[101CH2:1][101O:1]c2ccc3c(c2)CN(C(=O)C(NC(=O)C(C)NC)C(C)(C)C)C(C(=O)NC2CCCc4ccccc42)C3)cc(C)n1

> <Shape>
0.282

> <Color>
0.068

> <Negative vol penalty>
0.000

$$$$

  -OEChem-04052318443D

 85 93  0     1  0  0  0  0  0999 V2000
  -30.3833  -25.3327   16.9372 C   0  0  0  0  0  0  0  0  0  0  0  0
  -29.1586  -25.2392   17.5906 C   0  0  0  0  0  0  0  0  0  0  0  0
  -26.3513  -12.5238   21.6415 C   0  0  0  0  0  0  0  0  0  0  0  0
  -25.7752  -13.5715   19.5422 C   0  0  0  0  0  0  0  0  0  0  0  0
  -31.4002  -26.1210   17.4741 C   0  0  0  0  0  0  0  0  0  0  0  0
  -28.9506  -25.9333   18.7819 C   0  0  0  0  0  0  0  0  0  0  0  0
  -24.4643  -28.2792   18.9055 C   0  0  0  0  0  0  0  0  0  0  0  0
  -25.1442  -11.8250   21.6241 C   0  0  0  0  0  0  0  0  0  0  0  0
  -24.5681  -12.8727   19.5247 C   0  0  0  0  0  0  0  0  0  0  0  0
  -23.3431  -27.4954   19.1747 C   0  0  0  0  0  0  0  0  0  0  0  0
  -23.8699   -9.0921   20.0942 C   0  0  0  0  0  0  0  0  0  0  0  0
  -23.9024   -7.7341   20.4108 C   0  0  0  0  0  0  0  0  0  0  0  0
  -23.3803  -28.2410   21.4686 C   0  0  0  0  0  0  0  0  0  0  0  0
  -22.4082   -8.1312   22.2674 C   0  0  0  0  0  0  0  0  0  0  0  0
  -25.3073  -22.5447   19.3450 C   0  0  0  0  0  0  0  0  0  0  0  0
  -24.4762  -20.5387   19.7217 C   0  0  0  0  0  0  0  0  0  0  0  0
  -26.6668  -13.3971   20.6006 C   0  0  0  0  0  0  0  0  0  0  0  0
  -29.1437  -13.7056   20.0738 C   0  0  0  0  0  0  0  0  0  0  0  0
  -31.2012  -26.8328   18.6676 C   0  0  0  0  0  0  0  0  0  0  0  0
  -25.0594  -29.0426   19.9201 C   0  0  0  0  0  0  0  0  0  0  0  0
  -29.9662  -26.7309   19.3360 C   0  0  0  0  0  0  0  0  0  0  0  0
  -24.5074  -29.0356   21.2090 C   0  0  0  0  0  0  0  0  0  0  0  0
  -24.2526  -11.9995   20.5657 C   0  0  0  0  0  0  0  0  0  0  0  0
  -22.8027  -27.4740   20.4571 C   0  0  0  0  0  0  0  0  0  0  0  0
  -23.1066   -9.9697   20.8643 C   0  0  0  0  0  0  0  0  0  0  0  0
  -23.1716   -7.2536   21.4974 C   0  0  0  0  0  0  0  0  0  0  0  0
  -22.3758   -9.4892   21.9508 C   0  0  0  0  0  0  0  0  0  0  0  0
  -27.9133  -14.1196   20.6183 C   0  0  0  0  0  0  0  0  0  0  0  0
  -26.1566  -21.5574   18.9039 C   0  0  0  0  0  0  0  0  0  0  0  0
  -30.0065  -14.7376   20.3511 C   0  0  0  0  0  0  0  0  0  0  0  0
  -29.4768  -12.4963   19.3794 C   0  0  0  0  0  0  0  0  0  0  0  0
  -27.9154  -29.0828   21.3149 C   0  0  0  0  0  0  0  0  0  0  0  0
  -26.7297  -31.7218   22.7819 C   0  0  0  0  0  0  0  0  0  0  0  0
  -23.9925  -33.4805   23.8121 C   0  0  0  0  0  0  0  0  0  0  0  0
  -29.1822  -20.5810   21.3644 C   0  0  0  0  0  0  0  0  0  0  0  0
  -32.3461  -27.6345   19.2342 C   0  0  0  0  0  0  0  0  0  0  0  0
  -26.2523  -29.9035   19.6071 C   0  0  0  0  0  0  0  0  0  0  0  0
  -25.0966  -29.8529   22.3285 C   0  0  0  0  0  0  0  0  0  0  0  0
  -31.9179  -28.6358   20.3040 C   0  0  0  0  0  0  0  0  0  0  0  0
  -30.7628  -18.2353   23.5268 C   0  0  0  0  0  0  0  0  0  0  0  0
  -30.9745  -27.9765   21.3051 C   0  0  0  0  0  0  0  0  0  0  0  0
  -30.3228  -16.8771   22.9775 C   0  0  0  0  0  0  0  0  0  0  0  0
  -29.6504  -19.2757   23.4171 C   0  0  0  0  0  0  0  0  0  0  0  0
  -28.6407  -18.0750   21.5165 C   0  0  0  0  0  0  0  0  0  0  0  0
  -29.6938  -27.4885   20.6174 C   0  0  1  0  0  0  0  0  0  0  0  0
  -27.0852  -30.2415   20.8397 C   0  0  1  0  0  0  0  0  0  0  0  0
  -29.7477  -17.0076   21.5543 C   0  0  2  0  0  0  0  0  0  0  0  0
  -23.3408  -35.5827   25.0175 C   0  0  0  0  0  0  0  0  0  0  0  0
  -19.8614  -22.1554   21.0789 C   0  0  0  0  0  0  0  0  0  0  0  0
  -29.9998  -21.8955   18.5064 C   0  0  0  0  0  0  0  0  0  0  0  0
  -27.4743  -30.4247   25.4414 C   0  0  0  0  0  0  0  0  0  0  0  0
  -25.9795  -32.0755   26.5854 C   0  0  0  0  0  0  0  0  0  0  0  0
  -27.9640  -32.8732   25.3016 C   0  0  0  0  0  0  0  0  0  0  0  0
  -22.5526  -34.5277   21.4480 C   0  0  0  0  0  0  0  0  0  0  0  0
  -27.4669  -21.7079   18.2530 C   0  0  0  0  0  0  0  0  0  0  0  0
  -21.8173  -22.4796   19.5345 C   0  0  0  0  0  0  0  0  0  0  0  0
  -20.7902  -24.4967   20.7952 C   0  0  0  0  0  0  0  0  0  0  0  0
  -23.0128  -22.4999   20.4925 C   0  0  0  0  0  0  0  0  0  0  0  0
  -21.5465  -25.5184   19.9535 C   0  0  0  0  0  0  0  0  0  1  0  0
  -25.9553  -31.9823   24.0513 C   0  0  1  0  0  0  0  0  0  0  0  0
  -23.6228  -34.9455   23.6658 C   0  0  2  0  0  0  0  0  0  0  0  0
  -20.5501  -23.1330   20.1206 C   0  0  2  0  0  0  0  0  0  0  0  0
  -28.6681  -21.7490   19.2359 C   0  0  1  0  0  0  0  0  0  0  0  0
  -26.8331  -31.8219   25.3245 C   0  0  0  0  0  0  0  0  0  0  0  0
  -25.6334  -20.3110   19.1410 N   0  0  0  0  0  0  0  0  0  0  0  0
  -27.9840  -15.3209   21.1979 N   0  0  0  0  0  0  0  0  0  0  0  0
  -24.2351  -21.8767   19.8660 N   0  0  0  0  0  0  0  0  0  0  0  0
  -29.2693  -15.6706   21.0192 N   0  0  0  0  0  0  0  0  0  0  0  0
  -26.2663  -30.6736   21.9741 N   0  0  0  0  0  0  0  0  0  0  0  0
  -29.1499  -19.3512   22.0425 N   0  0  0  0  0  0  0  0  0  0  0  0
  -31.3163  -14.9289   20.0863 N   0  0  0  0  0  0  0  0  0  0  0  0
  -28.4704  -11.5414   19.1799 N   0  0  0  0  0  0  0  0  0  0  0  0
  -28.7989  -28.5985   20.3692 N   0  0  0  0  0  0  0  0  0  0  0  0
  -25.3572  -33.3044   23.9005 N   0  0  0  0  0  0  0  0  0  0  0  0
  -28.6948  -20.5635   20.0634 N   0  0  0  0  0  0  0  0  0  0  0  0
  -22.4079  -35.0908   22.8151 N   0  3  0  0  0  0  0  0  0  0  0  0
  -30.6366  -12.2620   18.9629 O   0  0  0  0  0  0  0  0  0  0  0  0
  -27.7665  -28.6604   22.4555 O   0  0  0  0  0  0  0  0  0  0  0  0
  -27.7055  -32.4270   22.5132 O   0  0  0  0  0  0  0  0  0  0  0  0
  -23.1542  -32.5824   23.8483 O   0  0  0  0  0  0  0  0  0  0  0  0
  -29.6184  -21.6165   21.8785 O   0  0  0  0  0  0  0  0  0  0  0  0
  -23.0748  -11.3176   20.5482 O   0  0  0  0  0  0  0  0  0  0  0  0
  -21.7088  -26.7093   20.7227 O   0  0  0  0  0  0  0  0  0  1  0  0
  -23.2016   -5.9492   21.8004 F   0  0  0  0  0  0  0  0  0  0  0  0
  -21.6397  -10.3273   22.6935 F   0  0  0  0  0  0  0  0  0  0  0  0
  1  2  1  0  0  0  0
  1  5  2  0  0  0  0
  2  6  2  0  0  0  0
  3  8  2  0  0  0  0
  3 17  1  0  0  0  0
  4  9  1  0  0  0  0
  4 17  2  0  0  0  0
  5 19  1  0  0  0  0
  6 21  1  0  0  0  0
  7 10  2  0  0  0  0
  7 20  1  0  0  0  0
  8 23  1  0  0  0  0
  9 23  2  0  0  0  0
 10 24  1  0  0  0  0
 11 12  2  0  0  0  0
 11 25  1  0  0  0  0
 12 26  1  0  0  0  0
 13 22  1  0  0  0  0
 13 24  2  0  0  0  0
 14 26  2  0  0  0  0
 14 27  1  0  0  0  0
 15 29  2  0  0  0  0
 15 67  1  0  0  0  0
 16 65  2  0  0  0  0
 16 67  1  0  0  0  0
 17 28  1  0  0  0  0
 18 28  1  0  0  0  0
 18 30  2  0  0  0  0
 18 31  1  0  0  0  0
 19 21  2  0  0  0  0
 19 36  1  0  0  0  0
 20 22  2  0  0  0  0
 20 37  1  0  0  0  0
 21 45  1  0  0  0  0
 22 38  1  0  0  0  0
 23 82  1  0  0  0  0
 24 83  1  0  0  0  0
 25 27  2  0  0  0  0
 25 82  1  0  0  0  0
 26 84  1  0  0  0  0
 27 85  1  0  0  0  0
 28 66  2  0  0  0  0
 29 55  1  0  0  0  0
 29 65  1  0  0  0  0
 30 68  1  0  0  0  0
 30 71  1  0  0  0  0
 31 72  1  0  0  0  0
 31 77  2  0  0  0  0
 32 46  1  0  0  0  0
 32 73  1  0  0  0  0
 32 78  2  0  0  0  0
 33 60  1  0  0  0  0
 33 69  1  0  0  0  0
 33 79  2  0  0  0  0
 34 61  1  0  0  0  0
 34 74  1  0  0  0  0
 34 80  2  0  0  0  0
 35 70  1  0  0  0  0
 35 75  1  0  0  0  0
 35 81  2  0  0  0  0
 36 39  1  0  0  0  0
 37 46  1  0  0  0  0
 38 69  1  0  0  0  0
 39 41  1  0  0  0  0
 40 42  1  0  0  0  0
 40 43  1  0  0  0  0
 41 45  1  0  0  0  0
 42 47  1  0  0  0  0
 43 70  1  0  0  0  0
 44 47  1  0  0  0  0
 44 70  1  0  0  0  0
 45 73  1  0  0  0  0
 46 69  1  0  0  0  0
 47 68  1  0  0  0  0
 48 61  1  0  0  0  0
 49 62  1  0  0  0  0
 50 63  1  0  0  0  0
 51 64  1  0  0  0  0
 52 64  1  0  0  0  0
 53 64  1  0  0  0  0
 54 76  1  0  0  0  0
 55 63  1  0  0  0  0
 56 58  1  0  0  0  0
 56 62  1  0  0  0  0
 57 59  1  0  0  0  0
 57 62  1  0  0  0  0
 58 67  1  0  0  0  0
 59 83  1  0  0  0  0
 60 64  1  0  0  0  0
 60 74  1  0  0  0  0
 61 76  1  0  0  0  0
 63 75  1  0  0  0  0
 66 68  1  0  0  0  0
M  CHG  1  76   1
M  ISO  4  35 100  59 101  75 100  83 101
M  END
> <Batch ID>
0080

> <Smiles>
CNC(C)C(=O)NC(C(=O)N1Cc2cc([101O:1][101CH2:1]CC(C)CCn3cnc(CC(C)[100NH:0][100C:0](=O)N4CCCC(n5nc(-c6ccc(Oc7ccc(F)cc7F)cc6)c(C(N)=O)c5N)C4)c3)ccc2CC1C(=O)NC1CCCc2ccccc21)C(C)(C)C

> <Shape>
0.334

> <Color>
0.092

> <Negative vol penalty>
0.000

$$$$

  -OEChem-04052318443D

 90 98  0     1  0  0  0  0  0999 V2000
  -18.5474  -23.9086   23.9083 C   0  0  0  0  0  0  0  0  0  0  0  0
  -19.6611  -23.4423   23.2172 C   0  0  0  0  0  0  0  0  0  0  0  0
  -19.7609  -16.2021   21.3165 C   0  0  0  0  0  0  0  0  0  0  0  0
  -21.2985  -17.8642   20.4738 C   0  0  0  0  0  0  0  0  0  0  0  0
  -18.2236  -25.2643   23.8726 C   0  0  0  0  0  0  0  0  0  0  0  0
  -20.4511  -24.3312   22.4891 C   0  0  0  0  0  0  0  0  0  0  0  0
  -26.5199  -24.0736   21.7085 C   0  0  0  0  0  0  0  0  0  0  0  0
  -19.0416  -17.2005   21.9733 C   0  0  0  0  0  0  0  0  0  0  0  0
  -20.5792  -18.8627   21.1305 C   0  0  0  0  0  0  0  0  0  0  0  0
  -27.3120  -23.5938   20.6664 C   0  0  0  0  0  0  0  0  0  0  0  0
  -19.3271  -19.0219   24.8062 C   0  0  0  0  0  0  0  0  0  0  0  0
  -18.9393  -18.7799   26.1240 C   0  0  0  0  0  0  0  0  0  0  0  0
  -27.4742  -25.8272   19.7693 C   0  0  0  0  0  0  0  0  0  0  0  0
  -16.6218  -19.0262   25.4872 C   0  0  0  0  0  0  0  0  0  0  0  0
  -28.7442  -18.9548   21.1298 C   0  0  0  0  0  0  0  0  0  0  0  0
  -20.8894  -16.5339   20.5668 C   0  0  0  0  0  0  0  0  0  0  0  0
  -21.4285  -15.0287   18.5790 C   0  0  0  0  0  0  0  0  0  0  0  0
  -19.0155  -26.1718   23.1516 C   0  0  0  0  0  0  0  0  0  0  0  0
  -26.1894  -25.4344   21.7829 C   0  0  0  0  0  0  0  0  0  0  0  0
  -20.1368  -25.7001   22.4426 C   0  0  0  0  0  0  0  0  0  0  0  0
  -26.6799  -26.3222   20.8148 C   0  0  0  0  0  0  0  0  0  0  0  0
  -19.4507  -18.5308   21.8803 C   0  0  0  0  0  0  0  0  0  0  0  0
  -27.7869  -24.4701   19.6950 C   0  0  0  0  0  0  0  0  0  0  0  0
  -18.3623  -19.2661   23.8289 C   0  0  0  0  0  0  0  0  0  0  0  0
  -17.5867  -18.7821   26.4645 C   0  0  0  0  0  0  0  0  0  0  0  0
  -17.0096  -19.2682   24.1694 C   0  0  0  0  0  0  0  0  0  0  0  0
  -21.6332  -15.5030   19.8886 C   0  0  0  0  0  0  0  0  0  0  0  0
  -29.7321  -20.1115   19.4223 C   0  0  0  0  0  0  0  0  0  0  0  0
  -30.4672  -18.9946   19.0909 C   0  0  0  0  0  0  0  0  0  0  0  0
  -29.4786  -17.8377   20.7980 C   0  0  0  0  0  0  0  0  0  0  0  0
  -22.3864  -14.0588   18.4115 C   0  0  0  0  0  0  0  0  0  0  0  0
  -20.4591  -15.4291   17.6014 C   0  0  0  0  0  0  0  0  0  0  0  0
  -23.4784  -27.0920   21.7015 C   0  0  0  0  0  0  0  0  0  0  0  0
  -25.4392  -29.5873   22.3731 C   0  0  0  0  0  0  0  0  0  0  0  0
  -28.5814  -30.9142   22.2623 C   0  0  0  0  0  0  0  0  0  0  0  0
  -27.7186  -13.1100   20.9647 C   0  0  0  0  0  0  0  0  0  0  0  0
  -18.5986  -27.6205   23.1037 C   0  0  0  0  0  0  0  0  0  0  0  0
  -25.3560  -25.9406   22.9282 C   0  0  0  0  0  0  0  0  0  0  0  0
  -26.3705  -27.7955   20.8606 C   0  0  0  0  0  0  0  0  0  0  0  0
  -19.7016  -28.5559   22.6152 C   0  0  0  0  0  0  0  0  0  0  0  0
  -24.9551  -10.8665   20.8818 C   0  0  0  0  0  0  0  0  0  0  0  0
  -20.3692  -27.9879   21.3668 C   0  0  0  0  0  0  0  0  0  0  0  0
  -23.7719  -11.7576   20.4997 C   0  0  0  0  0  0  0  0  0  0  0  0
  -25.9405  -11.5964   21.7919 C   0  0  0  0  0  0  0  0  0  0  0  0
  -25.2404  -13.7802   20.8892 C   0  0  0  0  0  0  0  0  0  0  0  0
  -21.0325  -26.6372   21.6618 C   0  0  1  0  0  0  0  0  0  0  0  0
  -24.6556  -27.2604   22.6199 C   0  0  1  0  0  0  0  0  0  0  0  0
  -24.2477  -13.1061   19.9266 C   0  0  2  0  0  0  0  0  0  0  0  0
  -32.8475  -17.6060   16.3870 C   0  0  0  0  0  0  0  0  0  0  0  0
  -29.8663  -32.9873   22.8530 C   0  0  0  0  0  0  0  0  0  0  0  0
  -31.8416  -22.4894   19.8148 C   0  0  0  0  0  0  0  0  0  0  0  0
  -24.2495  -31.0119   19.9513 C   0  0  0  0  0  0  0  0  0  0  0  0
  -26.1816  -32.6025   20.0253 C   0  0  0  0  0  0  0  0  0  0  0  0
  -24.6017  -32.4715   21.9513 C   0  0  0  0  0  0  0  0  0  0  0  0
  -30.6181  -24.1821   17.5078 C   0  0  0  0  0  0  0  0  0  0  0  0
  -30.3194  -25.1760   19.7913 C   0  0  0  0  0  0  0  0  0  0  0  0
  -28.3625  -16.6500   22.6699 C   0  0  0  0  0  0  0  0  0  0  0  0
  -30.3378  -29.4338   24.1284 C   0  0  0  0  0  0  0  0  0  0  0  0
  -29.8689  -21.4032   18.6489 C   0  0  0  0  0  0  0  0  0  0  0  0
  -31.4318  -19.0079   17.9548 C   0  0  0  0  0  0  0  0  0  0  0  0
  -31.8903  -17.5931   17.5683 C   0  0  0  0  0  0  0  0  0  0  0  0
  -29.3824  -14.7282   20.0858 C   0  0  0  0  0  0  0  0  0  0  0  0
  -30.0380  -15.4614   21.2457 C   0  0  0  0  0  0  0  0  0  0  0  0
  -26.2285  -30.5779   21.5517 C   0  0  1  0  0  0  0  0  0  0  0  0
  -29.4186  -31.6109   23.3198 C   0  0  2  0  0  0  0  0  0  0  0  0
  -30.3352  -22.6029   19.5096 C   0  0  2  0  0  0  0  0  0  0  0  0
  -25.3197  -31.6379   20.8677 C   0  0  0  0  0  0  0  0  0  0  0  0
  -29.9711  -23.9888   18.8865 C   0  0  0  0  0  0  0  0  0  1  0  0
  -28.8577  -20.1118   20.4478 N   0  0  0  0  0  0  0  0  0  0  0  0
  -22.6419  -14.8852   20.5090 N   0  0  0  0  0  0  0  0  0  0  0  0
  -30.3534  -17.8376   19.7726 N   0  0  0  0  0  0  0  0  0  0  0  0
  -23.0795  -14.0126   19.5852 N   0  0  0  0  0  0  0  0  0  0  0  0
  -25.5467  -28.2410   21.9966 N   0  0  0  0  0  0  0  0  0  0  0  0
  -26.3537  -12.8664   21.1898 N   0  0  0  0  0  0  0  0  0  0  0  0
  -22.6951  -13.2493   17.3761 N   0  0  0  0  0  0  0  0  0  0  0  0
  -19.5492  -16.4405   17.9381 N   0  0  0  0  0  0  0  0  0  0  0  0
  -22.2885  -26.8315   22.3540 N   0  0  0  0  0  0  0  0  0  0  0  0
  -27.2339  -31.1409   22.4465 N   0  0  0  0  0  0  0  0  0  0  0  0
  -28.0233  -14.3354   20.3848 N   0  0  0  0  0  0  0  0  0  0  0  0
  -29.2986  -16.6651   21.5650 N   0  0  3  0  0  0  0  0  0  0  0  0
  -30.6312  -30.8040   23.6350 N   0  3  0  0  0  0  0  0  0  0  0  0
  -20.3911  -14.8941   16.4689 O   0  0  0  0  0  0  0  0  0  0  0  0
  -23.6375  -27.1925   20.4906 O   0  0  0  0  0  0  0  0  0  0  0  0
  -24.7582  -29.9923   23.3186 O   0  0  0  0  0  0  0  0  0  0  0  0
  -29.0739  -30.2397   21.3606 O   0  0  0  0  0  0  0  0  0  0  0  0
  -28.5999  -12.2936   21.2540 O   0  0  0  0  0  0  0  0  0  0  0  0
  -18.7489  -19.5053   22.5208 O   0  0  0  0  0  0  0  0  0  0  0  0
  -28.5598  -24.0042   18.6764 O   0  0  0  0  0  0  0  0  0  1  0  0
  -17.2143  -18.5482   27.7298 F   0  0  0  0  0  0  0  0  0  0  0  0
  -16.0781  -19.5010   23.2346 F   0  0  0  0  0  0  0  0  0  0  0  0
  1  2  1  0  0  0  0
  1  5  2  0  0  0  0
  2  6  2  0  0  0  0
  3  8  2  0  0  0  0
  3 16  1  0  0  0  0
  4  9  1  0  0  0  0
  4 16  2  0  0  0  0
  5 18  1  0  0  0  0
  6 20  1  0  0  0  0
  7 10  2  0  0  0  0
  7 19  1  0  0  0  0
  8 22  1  0  0  0  0
  9 22  2  0  0  0  0
 10 23  1  0  0  0  0
 11 12  2  0  0  0  0
 11 24  1  0  0  0  0
 12 25  1  0  0  0  0
 13 21  1  0  0  0  0
 13 23  2  0  0  0  0
 14 25  2  0  0  0  0
 14 26  1  0  0  0  0
 15 30  1  0  0  0  0
 15 69  2  0  0  0  0
 16 27  1  0  0  0  0
 17 27  1  0  0  0  0
 17 31  2  0  0  0  0
 17 32  1  0  0  0  0
 18 20  2  0  0  0  0
 18 37  1  0  0  0  0
 19 21  2  0  0  0  0
 19 38  1  0  0  0  0
 20 46  1  0  0  0  0
 21 39  1  0  0  0  0
 22 87  1  0  0  0  0
 23 88  1  0  0  0  0
 24 26  2  0  0  0  0
 24 87  1  0  0  0  0
 25 89  1  0  0  0  0
 26 90  1  0  0  0  0
 27 70  2  0  0  0  0
 28 29  2  0  0  0  0
 28 59  1  0  0  0  0
 28 69  1  0  0  0  0
 29 60  1  0  0  0  0
 29 71  1  0  0  0  0
 30 71  2  0  0  0  0
 30 80  1  0  0  0  0
 31 72  1  0  0  0  0
 31 75  1  0  0  0  0
 32 76  1  0  0  0  0
 32 82  2  0  0  0  0
 33 47  1  0  0  0  0
 33 77  1  0  0  0  0
 33 83  2  0  0  0  0
 34 64  1  0  0  0  0
 34 73  1  0  0  0  0
 34 84  2  0  0  0  0
 35 65  1  0  0  0  0
 35 78  1  0  0  0  0
 35 85  2  0  0  0  0
 36 74  1  0  0  0  0
 36 79  1  0  0  0  0
 36 86  2  0  0  0  0
 37 40  1  0  0  0  0
 38 47  1  0  0  0  0
 39 73  1  0  0  0  0
 40 42  1  0  0  0  0
 41 43  1  0  0  0  0
 41 44  1  0  0  0  0
 42 46  1  0  0  0  0
 43 48  1  0  0  0  0
 44 74  1  0  0  0  0
 45 48  1  0  0  0  0
 45 74  1  0  0  0  0
 46 77  1  0  0  0  0
 47 73  1  0  0  0  0
 48 72  1  0  0  0  0
 49 61  1  0  0  0  0
 50 65  1  0  0  0  0
 51 66  1  0  0  0  0
 52 67  1  0  0  0  0
 53 67  1  0  0  0  0
 54 67  1  0  0  0  0
 55 68  1  0  0  0  0
 56 68  1  0  0  0  0
 57 80  1  0  0  0  0
 58 81  1  0  0  0  0
 59 66  1  0  0  0  0
 60 61  1  0  0  0  0
 62 63  1  0  0  0  0
 62 79  1  0  0  0  0
 63 80  1  0  0  0  0
 64 67  1  0  0  0  0
 64 78  1  0  0  0  0
 65 81  1  0  0  0  0
 66 68  1  0  0  0  0
 68 88  1  0  0  0  0
 70 72  1  0  0  0  0
M  CHG  1  81   1
M  ISO  4  36 100  68 101  79 100  88 101
M  END
> <Batch ID>
0080

> <Smiles>
CCCc1nc(N(C)CC[100NH:0][100C:0](=O)N2CCCC(n3nc(-c4ccc(Oc5ccc(F)cc5F)cc4)c(C(N)=O)c3N)C2)cnc1CC(C)[101C:1](C)(C)[101O:1]c1ccc2c(c1)CN(C(=O)C(NC(=O)C(C)NC)C(C)(C)C)C(C(=O)NC1CCCc3ccccc31)C2

> <Shape>
0.223

> <Color>
0.075

> <Negative vol penalty>
0.000

$$$$

  -OEChem-04052318443D

 84 92  0     1  0  0  0  0  0999 V2000
  -30.1549  -23.4005   18.8723 C   0  0  0  0  0  0  0  0  0  0  0  0
  -28.8715  -23.5560   19.3863 C   0  0  0  0  0  0  0  0  0  0  0  0
  -28.4198  -14.5552   20.6131 C   0  0  0  0  0  0  0  0  0  0  0  0
  -26.1972  -15.4858   20.7906 C   0  0  0  0  0  0  0  0  0  0  0  0
  -31.2052  -24.1638   19.3802 C   0  0  0  0  0  0  0  0  0  0  0  0
  -28.6380  -24.4743   20.4094 C   0  0  0  0  0  0  0  0  0  0  0  0
  -24.4824  -27.2563   19.6116 C   0  0  0  0  0  0  0  0  0  0  0  0
  -27.8789  -13.2700   20.5782 C   0  0  0  0  0  0  0  0  0  0  0  0
  -25.6563  -14.2005   20.7557 C   0  0  0  0  0  0  0  0  0  0  0  0
  -23.2530  -26.6559   19.8797 C   0  0  0  0  0  0  0  0  0  0  0  0
  -25.2317  -11.6173   22.8951 C   0  0  0  0  0  0  0  0  0  0  0  0
  -24.2288  -11.3110   23.8149 C   0  0  0  0  0  0  0  0  0  0  0  0
  -23.1633  -27.8008   22.0011 C   0  0  0  0  0  0  0  0  0  0  0  0
  -23.2407  -23.8878   23.3626 C   0  0  0  0  0  0  0  0  0  0  0  0
  -22.7068  -10.8400   21.9986 C   0  0  0  0  0  0  0  0  0  0  0  0
  -27.5789  -15.6631   20.7194 C   0  0  0  0  0  0  0  0  0  0  0  0
  -28.4016  -17.8326   19.6591 C   0  0  0  0  0  0  0  0  0  0  0  0
  -30.9826  -25.0989   20.4033 C   0  0  0  0  0  0  0  0  0  0  0  0
  -25.0676  -28.1265   20.5425 C   0  0  0  0  0  0  0  0  0  0  0  0
  -29.6866  -25.2499   20.9324 C   0  0  0  0  0  0  0  0  0  0  0  0
  -24.3989  -28.4130   21.7412 C   0  0  0  0  0  0  0  0  0  0  0  0
  -22.0173  -23.2705   23.1700 C   0  0  0  0  0  0  0  0  0  0  0  0
  -26.4972  -13.0926   20.6494 C   0  0  0  0  0  0  0  0  0  0  0  0
  -22.5946  -26.9258   21.0758 C   0  0  0  0  0  0  0  0  0  0  0  0
  -24.9721  -11.5350   21.5270 C   0  0  0  0  0  0  0  0  0  0  0  0
  -22.9664  -10.9223   23.3667 C   0  0  0  0  0  0  0  0  0  0  0  0
  -23.7097  -11.1463   21.0788 C   0  0  0  0  0  0  0  0  0  0  0  0
  -28.1371  -16.9910   20.7561 C   0  0  0  0  0  0  0  0  0  0  0  0
  -24.3658  -23.0899   23.4157 C   0  0  0  0  0  0  0  0  0  0  0  0
  -22.0001  -21.8960   23.0429 C   0  0  0  0  0  0  0  0  0  0  0  0
  -28.9230  -18.9732   20.2191 C   0  0  0  0  0  0  0  0  0  0  0  0
  -28.1945  -17.6038   18.2589 C   0  0  0  0  0  0  0  0  0  0  0  0
  -27.7614  -28.1245   22.2299 C   0  0  0  0  0  0  0  0  0  0  0  0
  -26.7747  -31.0961   23.0773 C   0  0  0  0  0  0  0  0  0  0  0  0
  -24.1887  -33.2884   23.4688 C   0  0  0  0  0  0  0  0  0  0  0  0
  -28.3887  -21.4673   25.6362 C   0  0  0  0  0  0  0  0  0  0  0  0
  -32.1583  -25.8674   20.9527 C   0  0  0  0  0  0  0  0  0  0  0  0
  -26.3816  -28.7869   20.2266 C   0  0  0  0  0  0  0  0  0  0  0  0
  -24.9750  -29.3558   22.7649 C   0  0  0  0  0  0  0  0  0  0  0  0
  -31.7566  -27.0866   21.7789 C   0  0  0  0  0  0  0  0  0  0  0  0
  -31.4047  -20.4805   24.0218 C   0  0  0  0  0  0  0  0  0  0  0  0
  -30.6486  -26.7234   22.7624 C   0  0  0  0  0  0  0  0  0  0  0  0
  -30.9331  -19.5502   22.9028 C   0  0  0  0  0  0  0  0  0  0  0  0
  -30.5567  -20.3225   25.2819 C   0  0  0  0  0  0  0  0  0  0  0  0
  -28.6327  -19.5413   23.9547 C   0  0  0  0  0  0  0  0  0  0  0  0
  -29.3887  -26.2534   22.0252 C   0  0  1  0  0  0  0  0  0  0  0  0
  -27.1287  -29.2565   21.4710 C   0  0  1  0  0  0  0  0  0  0  0  0
  -29.4222  -19.7046   22.6447 C   0  0  2  0  0  0  0  0  0  0  0  0
  -20.7188  -21.1618   22.8341 C   0  0  0  0  0  0  0  0  0  0  0  0
  -23.6886  -35.6320   24.2137 C   0  0  0  0  0  0  0  0  0  0  0  0
  -27.0984  -30.2377   25.9873 C   0  0  0  0  0  0  0  0  0  0  0  0
  -25.7157  -32.2162   26.6520 C   0  0  0  0  0  0  0  0  0  0  0  0
  -27.8960  -32.5548   25.4883 C   0  0  0  0  0  0  0  0  0  0  0  0
  -23.1195  -34.0289   20.8103 C   0  0  0  0  0  0  0  0  0  0  0  0
  -20.7571  -24.0957   23.1037 C   0  0  0  0  0  0  0  0  0  0  0  0
  -25.7075  -23.7051   23.6218 C   0  0  0  0  0  0  0  0  0  0  0  0
  -20.2154  -24.2799   21.6845 C   0  0  0  0  0  0  0  0  0  0  0  0
  -26.1274  -23.8426   25.0990 C   0  0  0  0  0  0  0  0  0  0  0  0
  -26.1553  -22.5242   25.8693 C   0  0  0  0  0  0  0  0  0  0  0  0
  -21.1614  -25.0524   20.7726 C   0  0  0  0  0  0  0  0  0  1  0  0
  -25.9211  -31.6637   24.1855 C   0  0  1  0  0  0  0  0  0  0  0  0
  -24.0174  -34.7323   23.0325 C   0  0  2  0  0  0  0  0  0  0  0  0
  -26.6476  -31.6488   25.5600 C   0  0  0  0  0  0  0  0  0  0  0  0
  -28.4636  -17.5493   21.9248 N   0  0  0  0  0  0  0  0  0  0  0  0
  -24.3194  -21.7468   23.2882 N   0  0  0  0  0  0  0  0  0  0  0  0
  -23.1170  -21.1401   23.0986 N   0  0  0  0  0  0  0  0  0  0  0  0
  -28.9388  -18.7538   21.5652 N   0  0  0  0  0  0  0  0  0  0  0  0
  -26.2650  -29.9717   22.4126 N   0  0  0  0  0  0  0  0  0  0  0  0
  -29.1346  -20.4818   24.9688 N   0  0  0  0  0  0  0  0  0  0  0  0
  -29.3650  -20.1322   19.6866 N   0  0  0  0  0  0  0  0  0  0  0  0
  -27.6495  -16.3771   17.8558 N   0  0  0  0  0  0  0  0  0  0  0  0
  -28.6646  -27.3861   21.4893 N   0  0  0  0  0  0  0  0  0  0  0  0
  -25.5069  -32.9907   23.7429 N   0  0  0  0  0  0  0  0  0  0  0  0
  -27.0497  -21.5556   25.2754 N   0  0  0  0  0  0  0  0  0  0  0  0
  -22.9158  -34.8447   22.0351 N   0  3  0  0  0  0  0  0  0  0  0  0
  -28.4994  -18.4554   17.3898 O   0  0  0  0  0  0  0  0  0  0  0  0
  -27.4541  -27.9358   23.4010 O   0  0  0  0  0  0  0  0  0  0  0  0
  -27.8508  -31.6350   22.8064 O   0  0  0  0  0  0  0  0  0  0  0  0
  -23.2469  -32.5042   23.5611 O   0  0  0  0  0  0  0  0  0  0  0  0
  -28.8808  -22.2168   26.4866 O   0  0  0  0  0  0  0  0  0  0  0  0
  -25.9690  -11.8387   20.6151 O   0  0  0  0  0  0  0  0  0  0  0  0
  -21.3949  -26.3406   21.3403 O   0  0  0  0  0  0  0  0  0  1  0  0
  -22.0039  -10.6267   24.2501 F   0  0  0  0  0  0  0  0  0  0  0  0
  -23.4547  -11.0643   19.7658 F   0  0  0  0  0  0  0  0  0  0  0  0
  1  2  1  0  0  0  0
  1  5  2  0  0  0  0
  2  6  2  0  0  0  0
  3  8  2  0  0  0  0
  3 16  1  0  0  0  0
  4  9  1  0  0  0  0
  4 16  2  0  0  0  0
  5 18  1  0  0  0  0
  6 20  1  0  0  0  0
  7 10  2  0  0  0  0
  7 19  1  0  0  0  0
  8 23  1  0  0  0  0
  9 23  2  0  0  0  0
 10 24  1  0  0  0  0
 11 12  2  0  0  0  0
 11 25  1  0  0  0  0
 12 26  1  0  0  0  0
 13 21  1  0  0  0  0
 13 24  2  0  0  0  0
 14 22  1  0  0  0  0
 14 29  2  0  0  0  0
 15 26  2  0  0  0  0
 15 27  1  0  0  0  0
 16 28  1  0  0  0  0
 17 28  1  0  0  0  0
 17 31  2  0  0  0  0
 17 32  1  0  0  0  0
 18 20  2  0  0  0  0
 18 37  1  0  0  0  0
 19 21  2  0  0  0  0
 19 38  1  0  0  0  0
 20 46  1  0  0  0  0
 21 39  1  0  0  0  0
 22 30  2  0  0  0  0
 22 55  1  0  0  0  0
 23 81  1  0  0  0  0
 24 82  1  0  0  0  0
 25 27  2  0  0  0  0
 25 81  1  0  0  0  0
 26 83  1  0  0  0  0
 27 84  1  0  0  0  0
 28 64  2  0  0  0  0
 29 56  1  0  0  0  0
 29 65  1  0  0  0  0
 30 49  1  0  0  0  0
 30 66  1  0  0  0  0
 31 67  1  0  0  0  0
 31 70  1  0  0  0  0
 32 71  1  0  0  0  0
 32 76  2  0  0  0  0
 33 47  1  0  0  0  0
 33 72  1  0  0  0  0
 33 77  2  0  0  0  0
 34 61  1  0  0  0  0
 34 68  1  0  0  0  0
 34 78  2  0  0  0  0
 35 62  1  0  0  0  0
 35 73  1  0  0  0  0
 35 79  2  0  0  0  0
 36 69  1  0  0  0  0
 36 74  1  0  0  0  0
 36 80  2  0  0  0  0
 37 40  1  0  0  0  0
 38 47  1  0  0  0  0
 39 68  1  0  0  0  0
 40 42  1  0  0  0  0
 41 43  1  0  0  0  0
 41 44  1  0  0  0  0
 42 46  1  0  0  0  0
 43 48  1  0  0  0  0
 44 69  1  0  0  0  0
 45 48  1  0  0  0  0
 45 69  1  0  0  0  0
 46 72  1  0  0  0  0
 47 68  1  0  0  0  0
 48 67  1  0  0  0  0
 50 62  1  0  0  0  0
 51 63  1  0  0  0  0
 52 63  1  0  0  0  0
 53 63  1  0  0  0  0
 54 75  1  0  0  0  0
 55 57  1  0  0  0  0
 56 58  1  0  0  0  0
 57 60  1  0  0  0  0
 58 59  1  0  0  0  0
 59 74  1  0  0  0  0
 60 82  1  0  0  0  0
 61 63  1  0  0  0  0
 61 73  1  0  0  0  0
 62 75  1  0  0  0  0
 64 67  1  0  0  0  0
 65 66  2  0  0  0  0
M  CHG  1  75   1
M  ISO  4  36 100  60 101  74 100  82 101
M  END
> <Batch ID>
0080

> <Smiles>
CNC(C)C(=O)NC(C(=O)N1Cc2cc([101O:1][101CH2:1]CCc3cc(CCC[100NH:0][100C:0](=O)N4CCCC(n5nc(-c6ccc(Oc7ccc(F)cc7F)cc6)c(C(N)=O)c5N)C4)nnc3C)ccc2CC1C(=O)NC1CCCc2ccccc21)C(C)(C)C

> <Shape>
0.244

> <Color>
0.072

> <Negative vol penalty>
0.000

$$$$

  -OEChem-04052318443D

 82 90  0     1  0  0  0  0  0999 V2000
  -17.2490  -32.0113   22.5734 C   0  0  0  0  0  0  0  0  0  0  0  0
  -18.4076  -32.2301   21.8350 C   0  0  0  0  0  0  0  0  0  0  0  0
  -25.4668  -12.9977   19.2723 C   0  0  0  0  0  0  0  0  0  0  0  0
  -25.0640  -14.4499   21.1607 C   0  0  0  0  0  0  0  0  0  0  0  0
  -17.2724  -31.1429   23.6639 C   0  0  0  0  0  0  0  0  0  0  0  0
  -19.5906  -31.5815   22.1875 C   0  0  0  0  0  0  0  0  0  0  0  0
  -25.5217  -28.8145   19.2751 C   0  0  0  0  0  0  0  0  0  0  0  0
  -25.2593  -11.8833   20.0851 C   0  0  0  0  0  0  0  0  0  0  0  0
  -24.8564  -13.3355   21.9734 C   0  0  0  0  0  0  0  0  0  0  0  0
  -26.9094  -28.8755   19.3941 C   0  0  0  0  0  0  0  0  0  0  0  0
  -22.6284  -10.2054   21.3875 C   0  0  0  0  0  0  0  0  0  0  0  0
  -21.8246   -9.1802   20.8891 C   0  0  0  0  0  0  0  0  0  0  0  0
  -30.0006  -24.7291   16.4713 C   0  0  0  0  0  0  0  0  0  0  0  0
  -26.8120  -27.3364   21.2490 C   0  0  0  0  0  0  0  0  0  0  0  0
  -23.6732   -7.6367   21.0826 C   0  0  0  0  0  0  0  0  0  0  0  0
  -30.8034  -25.5455   17.2369 C   0  0  0  0  0  0  0  0  0  0  0  0
  -25.3693  -14.2810   19.8101 C   0  0  0  0  0  0  0  0  0  0  0  0
  -24.8574  -15.7938   17.8209 C   0  0  0  0  0  0  0  0  0  0  0  0
  -18.4539  -30.4759   24.0240 C   0  0  0  0  0  0  0  0  0  0  0  0
  -24.7664  -28.0211   20.1506 C   0  0  0  0  0  0  0  0  0  0  0  0
  -19.6301  -30.7044   23.2847 C   0  0  0  0  0  0  0  0  0  0  0  0
  -25.4151  -27.2650   21.1374 C   0  0  0  0  0  0  0  0  0  0  0  0
  -29.0182  -24.1765   17.3295 C   0  0  0  0  0  0  0  0  0  0  0  0
  -24.9540  -12.0521   21.4356 C   0  0  0  0  0  0  0  0  0  0  0  0
  -27.5546  -28.1387   20.3830 C   0  0  0  0  0  0  0  0  0  0  0  0
  -23.9547   -9.9462   21.7335 C   0  0  0  0  0  0  0  0  0  0  0  0
  -22.3469   -7.8959   20.7366 C   0  0  0  0  0  0  0  0  0  0  0  0
  -24.4770   -8.6619   21.5810 C   0  0  0  0  0  0  0  0  0  0  0  0
  -25.5841  -15.4326   18.9712 C   0  0  0  0  0  0  0  0  0  0  0  0
  -29.2504  -24.6723   18.5935 C   0  0  0  0  0  0  0  0  0  0  0  0
  -25.4490  -16.9569   17.3922 C   0  0  0  0  0  0  0  0  0  0  0  0
  -23.7470  -15.1368   17.1957 C   0  0  0  0  0  0  0  0  0  0  0  0
  -22.4974  -28.5910   22.3025 C   0  0  0  0  0  0  0  0  0  0  0  0
  -22.3783  -25.3532   22.4608 C   0  0  0  0  0  0  0  0  0  0  0  0
  -23.9675  -22.3693   21.9944 C   0  0  0  0  0  0  0  0  0  0  0  0
  -28.4659  -21.1310   20.2785 C   0  0  0  0  0  0  0  0  0  0  0  0
  -18.4419  -29.5830   25.2395 C   0  0  0  0  0  0  0  0  0  0  0  0
  -23.2726  -27.9452   19.9921 C   0  0  0  0  0  0  0  0  0  0  0  0
  -24.6518  -26.3820   22.0894 C   0  0  0  0  0  0  0  0  0  0  0  0
  -19.6448  -28.6466   25.3193 C   0  0  0  0  0  0  0  0  0  0  0  0
  -29.6481  -19.2535   17.4193 C   0  0  0  0  0  0  0  0  0  0  0  0
  -20.9349  -29.4095   25.0357 C   0  0  0  0  0  0  0  0  0  0  0  0
  -28.6577  -18.0879   17.3903 C   0  0  0  0  0  0  0  0  0  0  0  0
  -29.9988  -19.6453   18.8517 C   0  0  0  0  0  0  0  0  0  0  0  0
  -27.8319  -18.8115   19.6781 C   0  0  0  0  0  0  0  0  0  0  0  0
  -20.9268  -30.0003   23.6207 C   0  0  1  0  0  0  0  0  0  0  0  0
  -22.5581  -27.5048   21.2660 C   0  0  1  0  0  0  0  0  0  0  0  0
  -27.4199  -18.3826   18.2581 C   0  0  2  0  0  0  0  0  0  0  0  0
  -27.9460  -23.2419   16.9340 C   0  0  0  0  0  0  0  0  0  0  0  0
  -23.6276  -19.8958   22.2469 C   0  0  0  0  0  0  0  0  0  0  0  0
  -22.7553  -25.6118   25.4776 C   0  0  0  0  0  0  0  0  0  0  0  0
  -23.3540  -23.1816   25.5409 C   0  0  0  0  0  0  0  0  0  0  0  0
  -21.0855  -23.8860   24.7791 C   0  0  0  0  0  0  0  0  0  0  0  0
  -24.3496  -21.9038   19.0968 C   0  0  0  0  0  0  0  0  0  0  0  0
  -28.5307  -24.4266   19.8613 C   0  0  0  0  0  0  0  0  0  0  0  0
  -31.0221  -27.7740   19.4470 C   0  0  0  0  0  0  0  0  0  0  0  0
  -30.9438  -26.2633   19.6781 C   0  0  0  0  0  0  0  0  0  0  0  0
  -29.2353  -23.4317   20.7999 C   0  0  0  0  0  0  0  0  0  0  0  0
  -29.6558  -28.4357   19.3094 C   0  0  0  0  0  0  0  0  0  1  0  0
  -23.0794  -24.2964   23.2797 C   0  0  1  0  0  0  0  0  0  0  0  0
  -23.5254  -21.0888   21.3093 C   0  0  2  0  0  0  0  0  0  0  0  0
  -22.5830  -24.2620   24.7528 C   0  0  0  0  0  0  0  0  0  0  0  0
  -26.5626  -16.2962   19.2552 N   0  0  0  0  0  0  0  0  0  0  0  0
  -30.3378  -25.5036   18.5252 N   0  0  0  0  0  0  0  0  0  0  0  0
  -26.4550  -17.2116   18.2772 N   0  0  0  0  0  0  0  0  0  0  0  0
  -23.1925  -26.3463   21.8981 N   0  0  0  0  0  0  0  0  0  0  0  0
  -28.7779  -19.9308   19.6187 N   0  0  0  0  0  0  0  0  0  0  0  0
  -25.2015  -17.7764   16.3484 N   0  0  0  0  0  0  0  0  0  0  0  0
  -22.4509  -15.4834   17.6012 N   0  0  0  0  0  0  0  0  0  0  0  0
  -21.2137  -28.9731   22.6425 N   0  0  0  0  0  0  0  0  0  0  0  0
  -22.9036  -23.0393   22.5605 N   0  0  0  0  0  0  0  0  0  0  0  0
  -29.4176  -22.1385   20.1791 N   0  0  0  0  0  0  0  0  0  0  0  0
  -24.3741  -20.8213   20.1139 N   0  3  0  0  0  0  0  0  0  0  0  0
  -23.8999  -14.2561   16.3156 O   0  0  0  0  0  0  0  0  0  0  0  0
  -23.5382  -29.0474   22.7610 O   0  0  0  0  0  0  0  0  0  0  0  0
  -21.1542  -25.2955   22.3195 O   0  0  0  0  0  0  0  0  0  0  0  0
  -25.1400  -22.7364   22.0276 O   0  0  0  0  0  0  0  0  0  0  0  0
  -27.4138  -21.2949   20.9057 O   0  0  0  0  0  0  0  0  0  0  0  0
  -24.7512  -10.9649   22.2289 O   0  0  0  0  0  0  0  0  0  0  0  0
  -28.9090  -28.1969   20.5017 O   0  0  0  0  0  0  0  0  0  1  0  0
  -21.5745   -6.9111   20.2594 F   0  0  0  0  0  0  0  0  0  0  0  0
  -25.7500   -8.4066   21.9128 F   0  0  0  0  0  0  0  0  0  0  0  0
  1  2  1  0  0  0  0
  1  5  2  0  0  0  0
  2  6  2  0  0  0  0
  3  8  2  0  0  0  0
  3 17  1  0  0  0  0
  4  9  1  0  0  0  0
  4 17  2  0  0  0  0
  5 19  1  0  0  0  0
  6 21  1  0  0  0  0
  7 10  2  0  0  0  0
  7 20  1  0  0  0  0
  8 24  1  0  0  0  0
  9 24  2  0  0  0  0
 10 25  1  0  0  0  0
 11 12  2  0  0  0  0
 11 26  1  0  0  0  0
 12 27  1  0  0  0  0
 13 16  2  0  0  0  0
 13 23  1  0  0  0  0
 14 22  1  0  0  0  0
 14 25  2  0  0  0  0
 15 27  2  0  0  0  0
 15 28  1  0  0  0  0
 16 64  1  0  0  0  0
 17 29  1  0  0  0  0
 18 29  1  0  0  0  0
 18 31  2  0  0  0  0
 18 32  1  0  0  0  0
 19 21  2  0  0  0  0
 19 37  1  0  0  0  0
 20 22  2  0  0  0  0
 20 38  1  0  0  0  0
 21 46  1  0  0  0  0
 22 39  1  0  0  0  0
 23 30  2  0  0  0  0
 23 49  1  0  0  0  0
 24 79  1  0  0  0  0
 25 80  1  0  0  0  0
 26 28  2  0  0  0  0
 26 79  1  0  0  0  0
 27 81  1  0  0  0  0
 28 82  1  0  0  0  0
 29 63  2  0  0  0  0
 30 55  1  0  0  0  0
 30 64  1  0  0  0  0
 31 65  1  0  0  0  0
 31 68  1  0  0  0  0
 32 69  1  0  0  0  0
 32 74  2  0  0  0  0
 33 47  1  0  0  0  0
 33 70  1  0  0  0  0
 33 75  2  0  0  0  0
 34 60  1  0  0  0  0
 34 66  1  0  0  0  0
 34 76  2  0  0  0  0
 35 61  1  0  0  0  0
 35 71  1  0  0  0  0
 35 77  2  0  0  0  0
 36 67  1  0  0  0  0
 36 72  1  0  0  0  0
 36 78  2  0  0  0  0
 37 40  1  0  0  0  0
 38 47  1  0  0  0  0
 39 66  1  0  0  0  0
 40 42  1  0  0  0  0
 41 43  1  0  0  0  0
 41 44  1  0  0  0  0
 42 46  1  0  0  0  0
 43 48  1  0  0  0  0
 44 67  1  0  0  0  0
 45 48  1  0  0  0  0
 45 67  1  0  0  0  0
 46 70  1  0  0  0  0
 47 66  1  0  0  0  0
 48 65  1  0  0  0  0
 50 61  1  0  0  0  0
 51 62  1  0  0  0  0
 52 62  1  0  0  0  0
 53 62  1  0  0  0  0
 54 73  1  0  0  0  0
 55 58  1  0  0  0  0
 56 57  1  0  0  0  0
 56 59  1  0  0  0  0
 57 64  1  0  0  0  0
 58 72  1  0  0  0  0
 59 80  1  0  0  0  0
 60 62  1  0  0  0  0
 60 71  1  0  0  0  0
 61 73  1  0  0  0  0
 63 65  1  0  0  0  0
M  CHG  1  73   1
M  ISO  4  36 100  59 101  72 100  80 101
M  END
> <Batch ID>
0080

> <Smiles>
CNC(C)C(=O)NC(C(=O)N1Cc2cc([101O:1][101CH2:1]CCn3ccc(C)c3CC[100NH:0][100C:0](=O)N3CCCC(n4nc(-c5ccc(Oc6ccc(F)cc6F)cc5)c(C(N)=O)c4N)C3)ccc2CC1C(=O)NC1CCCc2ccccc21)C(C)(C)C

> <Shape>
0.244

> <Color>
0.085

> <Negative vol penalty>
0.000

$$$$

  -OEChem-04052318443D

 83 91  0     1  0  0  0  0  0999 V2000
  -37.9523  -26.4615   29.9620 C   0  0  0  0  0  0  0  0  0  0  0  0
  -36.7026  -25.8692   29.8111 C   0  0  0  0  0  0  0  0  0  0  0  0
  -23.0783   -9.8616   19.9460 C   0  0  0  0  0  0  0  0  0  0  0  0
  -23.8397   -9.8774   22.2388 C   0  0  0  0  0  0  0  0  0  0  0  0
  -38.3856  -27.4161   29.0429 C   0  0  0  0  0  0  0  0  0  0  0  0
  -35.8849  -26.2321   28.7415 C   0  0  0  0  0  0  0  0  0  0  0  0
  -33.7698  -22.2316   26.4683 C   0  0  0  0  0  0  0  0  0  0  0  0
  -22.3377   -8.7073   20.1998 C   0  0  0  0  0  0  0  0  0  0  0  0
  -23.0990   -8.7230   22.4927 C   0  0  0  0  0  0  0  0  0  0  0  0
  -32.6726  -21.6471   27.0994 C   0  0  0  0  0  0  0  0  0  0  0  0
  -19.8734   -7.9184   23.0997 C   0  0  0  0  0  0  0  0  0  0  0  0
  -19.1173   -7.8799   24.2712 C   0  0  0  0  0  0  0  0  0  0  0  0
  -31.1924  -22.8173   25.5964 C   0  0  0  0  0  0  0  0  0  0  0  0
  -20.3643   -5.9480   25.0125 C   0  0  0  0  0  0  0  0  0  0  0  0
  -31.2689  -18.0019   24.0710 C   0  0  0  0  0  0  0  0  0  0  0  0
  -23.8294  -10.4467   20.9655 C   0  0  0  0  0  0  0  0  0  0  0  0
  -24.1644  -12.9724   20.8378 C   0  0  0  0  0  0  0  0  0  0  0  0
  -37.5768  -27.7839   27.9560 C   0  0  0  0  0  0  0  0  0  0  0  0
  -33.5858  -23.1233   25.4018 C   0  0  0  0  0  0  0  0  0  0  0  0
  -36.3072  -27.1936   27.8077 C   0  0  0  0  0  0  0  0  0  0  0  0
  -32.2890  -23.4098   24.9519 C   0  0  0  0  0  0  0  0  0  0  0  0
  -22.3480   -8.1380   21.4732 C   0  0  0  0  0  0  0  0  0  0  0  0
  -31.3836  -21.9421   26.6654 C   0  0  0  0  0  0  0  0  0  0  0  0
  -20.8749   -6.9716   22.8845 C   0  0  0  0  0  0  0  0  0  0  0  0
  -19.3628   -6.8947   25.2276 C   0  0  0  0  0  0  0  0  0  0  0  0
  -21.1204   -5.9864   23.8410 C   0  0  0  0  0  0  0  0  0  0  0  0
  -24.5951  -11.6389   20.7037 C   0  0  0  0  0  0  0  0  0  0  0  0
  -30.3748  -17.3677   23.2368 C   0  0  0  0  0  0  0  0  0  0  0  0
  -28.7492  -17.5590   24.8340 C   0  0  0  0  0  0  0  0  0  0  0  0
  -29.6437  -18.1925   25.6684 C   0  0  0  0  0  0  0  0  0  0  0  0
  -25.2543  -13.7237   20.4716 C   0  0  0  0  0  0  0  0  0  0  0  0
  -22.8928  -13.4861   21.2560 C   0  0  0  0  0  0  0  0  0  0  0  0
  -34.2678  -26.1864   24.8958 C   0  0  0  0  0  0  0  0  0  0  0  0
  -33.2119  -25.5238   21.9010 C   0  0  0  0  0  0  0  0  0  0  0  0
  -31.3008  -23.5542   19.8724 C   0  0  0  0  0  0  0  0  0  0  0  0
  -30.7355  -14.7579   20.6533 C   0  0  0  0  0  0  0  0  0  0  0  0
  -38.0685  -28.8550   27.0149 C   0  0  0  0  0  0  0  0  0  0  0  0
  -34.7808  -23.7247   24.7143 C   0  0  0  0  0  0  0  0  0  0  0  0
  -32.0385  -24.3448   23.7980 C   0  0  0  0  0  0  0  0  0  0  0  0
  -37.2972  -28.9103   25.6988 C   0  0  0  0  0  0  0  0  0  0  0  0
  -29.6027  -12.3633   18.2744 C   0  0  0  0  0  0  0  0  0  0  0  0
  -35.7949  -28.8552   25.9577 C   0  0  0  0  0  0  0  0  0  0  0  0
  -28.1663  -12.0671   18.7091 C   0  0  0  0  0  0  0  0  0  0  0  0
  -30.5200  -12.5901   19.4740 C   0  0  0  0  0  0  0  0  0  0  0  0
  -28.6172  -13.3202   20.8597 C   0  0  0  0  0  0  0  0  0  0  0  0
  -35.4017  -27.5428   26.6466 C   0  0  1  0  0  0  0  0  0  0  0  0
  -34.4553  -25.0168   23.9714 C   0  0  1  0  0  0  0  0  0  0  0  0
  -27.6427  -13.1396   19.6832 C   0  0  2  0  0  0  0  0  0  0  0  0
  -27.3405  -17.3082   25.2516 C   0  0  0  0  0  0  0  0  0  0  0  0
  -30.5936  -17.9833   20.8007 C   0  0  0  0  0  0  0  0  0  0  0  0
  -30.3398  -22.6511   17.7375 C   0  0  0  0  0  0  0  0  0  0  0  0
  -31.3006  -27.8849   22.1876 C   0  0  0  0  0  0  0  0  0  0  0  0
  -30.0190  -26.9956   20.2293 C   0  0  0  0  0  0  0  0  0  0  0  0
  -32.3966  -27.6959   19.9477 C   0  0  0  0  0  0  0  0  0  0  0  0
  -33.5252  -21.6288   19.5497 C   0  0  0  0  0  0  0  0  0  0  0  0
  -29.2397  -18.6620   27.0432 C   0  0  0  0  0  0  0  0  0  0  0  0
  -28.4011  -19.9419   27.0352 C   0  0  0  0  0  0  0  0  0  0  0  0
  -29.1486  -21.1500   26.4828 C   0  0  0  0  0  0  0  0  0  1  0  0
  -30.7964  -16.9123   21.8838 C   0  0  2  0  0  0  0  0  0  0  0  0
  -31.8725  -25.5665   21.2058 C   0  0  1  0  0  0  0  0  0  0  0  0
  -31.6060  -22.8756   18.5492 C   0  0  2  0  0  0  0  0  0  0  0  0
  -31.4015  -27.0196   20.9156 C   0  0  0  0  0  0  0  0  0  0  0  0
  -30.9194  -18.4257   25.3017 N   0  0  0  0  0  0  0  0  0  0  0  0
  -25.8600  -11.5452   20.2849 N   0  0  0  0  0  0  0  0  0  0  0  0
  -29.0988  -17.1349   23.6034 N   0  0  0  0  0  0  0  0  0  0  0  0
  -26.2334  -12.8293   20.1525 N   0  0  0  0  0  0  0  0  0  0  0  0
  -33.2391  -24.9125   23.1625 N   0  0  0  0  0  0  0  0  0  0  0  0
  -29.9673  -13.6198   20.3573 N   0  0  0  0  0  0  0  0  0  0  0  0
  -25.4611  -15.0555   20.3945 N   0  0  0  0  0  0  0  0  0  0  0  0
  -21.8836  -12.5752   21.5966 N   0  0  0  0  0  0  0  0  0  0  0  0
  -35.3668  -26.4594   25.6877 N   0  0  0  0  0  0  0  0  0  0  0  0
  -32.0032  -24.7320   20.0164 N   0  0  0  0  0  0  0  0  0  0  0  0
  -30.1344  -15.6876   21.4930 N   0  0  0  0  0  0  0  0  0  0  0  0
  -32.2554  -21.5547   18.7821 N   0  3  0  0  0  0  0  0  0  0  0  0
  -22.6533  -14.7162   21.3099 O   0  0  0  0  0  0  0  0  0  0  0  0
  -33.2053  -26.7969   24.8898 O   0  0  0  0  0  0  0  0  0  0  0  0
  -34.1990  -26.0085   21.3422 O   0  0  0  0  0  0  0  0  0  0  0  0
  -30.5150  -23.0880   20.6944 O   0  0  0  0  0  0  0  0  0  0  0  0
  -31.8706  -14.9351   20.1984 O   0  0  0  0  0  0  0  0  0  0  0  0
  -21.6252   -7.0117   21.7213 O   0  0  0  0  0  0  0  0  0  0  0  0
  -30.3109  -21.3735   27.2800 O   0  0  0  0  0  0  0  0  0  1  0  0
  -18.6377   -6.8588   26.3533 F   0  0  0  0  0  0  0  0  0  0  0  0
  -22.0820   -5.0749   23.6404 F   0  0  0  0  0  0  0  0  0  0  0  0
  1  2  1  0  0  0  0
  1  5  2  0  0  0  0
  2  6  2  0  0  0  0
  3  8  2  0  0  0  0
  3 16  1  0  0  0  0
  4  9  1  0  0  0  0
  4 16  2  0  0  0  0
  5 18  1  0  0  0  0
  6 20  1  0  0  0  0
  7 10  2  0  0  0  0
  7 19  1  0  0  0  0
  8 22  1  0  0  0  0
  9 22  2  0  0  0  0
 10 23  1  0  0  0  0
 11 12  2  0  0  0  0
 11 24  1  0  0  0  0
 12 25  1  0  0  0  0
 13 21  1  0  0  0  0
 13 23  2  0  0  0  0
 14 25  2  0  0  0  0
 14 26  1  0  0  0  0
 15 28  1  0  0  0  0
 15 63  2  0  0  0  0
 16 27  1  0  0  0  0
 17 27  1  0  0  0  0
 17 31  2  0  0  0  0
 17 32  1  0  0  0  0
 18 20  2  0  0  0  0
 18 37  1  0  0  0  0
 19 21  2  0  0  0  0
 19 38  1  0  0  0  0
 20 46  1  0  0  0  0
 21 39  1  0  0  0  0
 22 80  1  0  0  0  0
 23 81  1  0  0  0  0
 24 26  2  0  0  0  0
 24 80  1  0  0  0  0
 25 82  1  0  0  0  0
 26 83  1  0  0  0  0
 27 64  2  0  0  0  0
 28 59  1  0  0  0  0
 28 65  2  0  0  0  0
 29 30  2  0  0  0  0
 29 49  1  0  0  0  0
 29 65  1  0  0  0  0
 30 56  1  0  0  0  0
 30 63  1  0  0  0  0
 31 66  1  0  0  0  0
 31 69  1  0  0  0  0
 32 70  1  0  0  0  0
 32 75  2  0  0  0  0
 33 47  1  0  0  0  0
 33 71  1  0  0  0  0
 33 76  2  0  0  0  0
 34 60  1  0  0  0  0
 34 67  1  0  0  0  0
 34 77  2  0  0  0  0
 35 61  1  0  0  0  0
 35 72  1  0  0  0  0
 35 78  2  0  0  0  0
 36 68  1  0  0  0  0
 36 73  1  0  0  0  0
 36 79  2  0  0  0  0
 37 40  1  0  0  0  0
 38 47  1  0  0  0  0
 39 67  1  0  0  0  0
 40 42  1  0  0  0  0
 41 43  1  0  0  0  0
 41 44  1  0  0  0  0
 42 46  1  0  0  0  0
 43 48  1  0  0  0  0
 44 68  1  0  0  0  0
 45 48  1  0  0  0  0
 45 68  1  0  0  0  0
 46 71  1  0  0  0  0
 47 67  1  0  0  0  0
 48 66  1  0  0  0  0
 50 59  1  0  0  0  0
 51 61  1  0  0  0  0
 52 62  1  0  0  0  0
 53 62  1  0  0  0  0
 54 62  1  0  0  0  0
 55 74  1  0  0  0  0
 56 57  1  0  0  0  0
 57 58  1  0  0  0  0
 58 81  1  0  0  0  0
 59 73  1  0  0  0  0
 60 62  1  0  0  0  0
 60 72  1  0  0  0  0
 61 74  1  0  0  0  0
 64 66  1  0  0  0  0
M  CHG  1  74   1
M  ISO  4  36 100  58 101  73 100  81 101
M  END
> <Batch ID>
0080

> <Smiles>
CNC(C)C(=O)NC(C(=O)N1Cc2cc([101O:1][101CH2:1]CCc3ncc(C(C)[100NH:0][100C:0](=O)N4CCCC(n5nc(-c6ccc(Oc7ccc(F)cc7F)cc6)c(C(N)=O)c5N)C4)nc3C)ccc2CC1C(=O)NC1CCCc2ccccc21)C(C)(C)C

> <Shape>
0.209

> <Color>
0.192

> <Negative vol penalty>
0.000

$$$$

  -OEChem-04052318443D

 84 92  0     1  0  0  0  0  0999 V2000
  -19.8897  -21.6291   15.3490 C   0  0  0  0  0  0  0  0  0  0  0  0
  -20.5596  -20.4236   15.5320 C   0  0  0  0  0  0  0  0  0  0  0  0
  -26.1818  -28.1457   18.8978 C   0  0  0  0  0  0  0  0  0  0  0  0
  -26.4004  -27.9351   21.2946 C   0  0  0  0  0  0  0  0  0  0  0  0
  -20.1713  -22.7145   16.1776 C   0  0  0  0  0  0  0  0  0  0  0  0
  -21.5123  -20.3032   16.5430 C   0  0  0  0  0  0  0  0  0  0  0  0
  -22.7076  -15.3231   19.9010 C   0  0  0  0  0  0  0  0  0  0  0  0
  -25.1731  -29.0931   19.0730 C   0  0  0  0  0  0  0  0  0  0  0  0
  -25.3918  -28.8826   21.4699 C   0  0  0  0  0  0  0  0  0  0  0  0
  -23.6919  -14.3404   19.8040 C   0  0  0  0  0  0  0  0  0  0  0  0
  -22.0149  -28.9802   21.3358 C   0  0  0  0  0  0  0  0  0  0  0  0
  -21.0264  -28.7070   22.2812 C   0  0  0  0  0  0  0  0  0  0  0  0
  -25.0298  -15.5293   21.4213 C   0  0  0  0  0  0  0  0  0  0  0  0
  -21.6350  -30.7053   23.4952 C   0  0  0  0  0  0  0  0  0  0  0  0
  -30.0441  -16.3444   20.0494 C   0  0  0  0  0  0  0  0  0  0  0  0
  -26.7954  -27.5667   20.0086 C   0  0  0  0  0  0  0  0  0  0  0  0
  -29.2202  -26.8273   19.7233 C   0  0  0  0  0  0  0  0  0  0  0  0
  -21.1210  -22.6044   17.2055 C   0  0  0  0  0  0  0  0  0  0  0  0
  -22.8822  -16.4237   20.7522 C   0  0  0  0  0  0  0  0  0  0  0  0
  -21.8079  -21.3885   17.3853 C   0  0  0  0  0  0  0  0  0  0  0  0
  -24.0452  -16.5233   21.5292 C   0  0  0  0  0  0  0  0  0  0  0  0
  -24.7782  -29.4616   20.3591 C   0  0  0  0  0  0  0  0  0  0  0  0
  -24.8545  -14.4449   20.5620 C   0  0  0  0  0  0  0  0  0  0  0  0
  -22.8137  -30.1159   21.4702 C   0  0  0  0  0  0  0  0  0  0  0  0
  -20.8363  -29.5696   23.3608 C   0  0  0  0  0  0  0  0  0  0  0  0
  -22.6236  -30.9784   22.5498 C   0  0  0  0  0  0  0  0  0  0  0  0
  -27.8369  -26.5875   19.8282 C   0  0  0  0  0  0  0  0  0  0  0  0
  -30.2521  -16.7590   21.3346 C   0  0  0  0  0  0  0  0  0  0  0  0
  -29.7737  -25.5804   19.5640 C   0  0  0  0  0  0  0  0  0  0  0  0
  -31.2919  -14.8234   21.0642 C   0  0  0  0  0  0  0  0  0  0  0  0
  -29.9403  -28.0663   19.7660 C   0  0  0  0  0  0  0  0  0  0  0  0
  -23.0784  -19.5694   20.3398 C   0  0  0  0  0  0  0  0  0  0  0  0
  -23.0812  -19.6021   23.5835 C   0  0  0  0  0  0  0  0  0  0  0  0
  -23.7073  -17.9390   26.4971 C   0  0  0  0  0  0  0  0  0  0  0  0
  -29.0812  -20.2495   21.4387 C   0  0  0  0  0  0  0  0  0  0  0  0
  -21.4257  -23.8194   18.0455 C   0  0  0  0  0  0  0  0  0  0  0  0
  -21.7993  -17.4614   20.8655 C   0  0  0  0  0  0  0  0  0  0  0  0
  -24.2719  -17.6747   22.4733 C   0  0  0  0  0  0  0  0  0  0  0  0
  -22.1789  -23.4962   19.3333 C   0  0  0  0  0  0  0  0  0  0  0  0
  -28.0769  -21.1764   18.0877 C   0  0  0  0  0  0  0  0  0  0  0  0
  -23.3369  -22.5446   19.0500 C   0  0  0  0  0  0  0  0  0  0  0  0
  -28.0488  -22.7025   18.1897 C   0  0  0  0  0  0  0  0  0  0  0  0
  -27.5785  -20.5270   19.3753 C   0  0  0  0  0  0  0  0  0  0  0  0
  -28.2813  -22.4782   20.7068 C   0  0  0  0  0  0  0  0  0  0  0  0
  -22.8302  -21.2113   18.4869 C   0  0  1  0  0  0  0  0  0  0  0  0
  -22.3097  -18.8040   21.3795 C   0  0  1  0  0  0  0  0  0  0  0  0
  -28.7949  -23.1940   19.4443 C   0  0  2  0  0  0  0  0  0  0  0  0
  -32.1010  -13.6111   21.3443 C   0  0  0  0  0  0  0  0  0  0  0  0
  -28.9432  -17.6481   23.2987 C   0  0  0  0  0  0  0  0  0  0  0  0
  -23.6501  -18.2389   28.9879 C   0  0  0  0  0  0  0  0  0  0  0  0
  -25.6370  -21.2625   23.4399 C   0  0  0  0  0  0  0  0  0  0  0  0
  -26.0390  -20.7248   25.8518 C   0  0  0  0  0  0  0  0  0  0  0  0
  -24.0061  -22.0067   25.1836 C   0  0  0  0  0  0  0  0  0  0  0  0
  -21.7281  -15.7640   26.8299 C   0  0  0  0  0  0  0  0  0  0  0  0
  -28.3472  -13.5780   18.9672 C   0  0  0  0  0  0  0  0  0  0  0  0
  -29.7880  -13.1257   18.7214 C   0  0  0  0  0  0  0  0  0  0  0  0
  -27.3885  -12.3842   19.0003 C   0  0  0  0  0  0  0  0  0  0  0  0
  -30.7402  -14.3214   18.6477 C   0  0  0  0  0  0  0  0  0  0  0  0
  -25.9422  -12.8121   19.2179 C   0  0  0  0  0  0  0  0  0  1  0  0
  -29.8022  -17.9554   22.0506 C   0  0  2  0  0  0  0  0  0  0  0  0
  -24.1454  -19.5389   24.6523 C   0  0  1  0  0  0  0  0  0  0  0  0
  -22.8819  -17.7744   27.7604 C   0  0  2  0  0  0  0  0  0  0  0  0
  -24.9538  -20.8624   24.7628 C   0  0  0  0  0  0  0  0  0  0  0  0
  -27.5305  -25.2903   19.7427 N   0  0  0  0  0  0  0  0  0  0  0  0
  -30.6990  -15.1445   19.9097 N   0  0  0  0  0  0  0  0  0  0  0  0
  -28.7290  -24.7037   19.5822 N   0  0  0  0  0  0  0  0  0  0  0  0
  -31.0269  -15.7988   21.9394 N   0  3  0  0  0  0  0  0  0  0  0  0
  -23.1867  -18.6670   22.5441 N   0  0  0  0  0  0  0  0  0  0  0  0
  -28.3421  -21.0235   20.5288 N   0  0  0  0  0  0  0  0  0  0  0  0
  -31.0472  -25.1593   19.4116 N   0  0  0  0  0  0  0  0  0  0  0  0
  -29.2164  -29.2544   19.9357 N   0  0  0  0  0  0  0  0  0  0  0  0
  -22.2938  -20.3858   19.5477 N   0  0  0  0  0  0  0  0  0  0  0  0
  -23.4653  -19.1496   25.8829 N   0  0  0  0  0  0  0  0  0  0  0  0
  -29.0820  -18.8800   21.2036 N   0  0  0  0  0  0  0  0  0  0  0  0
  -22.5088  -16.3445   27.9527 N   0  3  0  0  0  0  0  0  0  0  0  0
  -31.1873  -28.1198   19.6405 O   0  0  0  0  0  0  0  0  0  0  0  0
  -24.2935  -19.4307   20.2630 O   0  0  0  0  0  0  0  0  0  0  0  0
  -22.1851  -20.4453   23.6714 O   0  0  0  0  0  0  0  0  0  0  0  0
  -24.4914  -17.0812   26.0972 O   0  0  0  0  0  0  0  0  0  0  0  0
  -29.6996  -20.7430   22.3880 O   0  0  0  0  0  0  0  0  0  0  0  0
  -23.7942  -30.3862   20.5304 O   0  0  0  0  0  0  0  0  0  0  0  0
  -25.8170  -13.4875   20.4687 O   0  0  0  0  0  0  0  0  0  1  0  0
  -19.8859  -29.3079   24.2676 F   0  0  0  0  0  0  0  0  0  0  0  0
  -23.3870  -32.0717   22.6836 F   0  0  0  0  0  0  0  0  0  0  0  0
  1  2  1  0  0  0  0
  1  5  2  0  0  0  0
  2  6  2  0  0  0  0
  3  8  2  0  0  0  0
  3 16  1  0  0  0  0
  4  9  1  0  0  0  0
  4 16  2  0  0  0  0
  5 18  1  0  0  0  0
  6 20  1  0  0  0  0
  7 10  2  0  0  0  0
  7 19  1  0  0  0  0
  8 22  1  0  0  0  0
  9 22  2  0  0  0  0
 10 23  1  0  0  0  0
 11 12  2  0  0  0  0
 11 24  1  0  0  0  0
 12 25  1  0  0  0  0
 13 21  1  0  0  0  0
 13 23  2  0  0  0  0
 14 25  2  0  0  0  0
 14 26  1  0  0  0  0
 15 28  2  0  0  0  0
 15 65  1  0  0  0  0
 16 27  1  0  0  0  0
 17 27  1  0  0  0  0
 17 29  2  0  0  0  0
 17 31  1  0  0  0  0
 18 20  2  0  0  0  0
 18 36  1  0  0  0  0
 19 21  2  0  0  0  0
 19 37  1  0  0  0  0
 20 45  1  0  0  0  0
 21 38  1  0  0  0  0
 22 81  1  0  0  0  0
 23 82  1  0  0  0  0
 24 26  2  0  0  0  0
 24 81  1  0  0  0  0
 25 83  1  0  0  0  0
 26 84  1  0  0  0  0
 27 64  2  0  0  0  0
 28 60  1  0  0  0  0
 28 67  1  0  0  0  0
 29 66  1  0  0  0  0
 29 70  1  0  0  0  0
 30 48  1  0  0  0  0
 30 65  1  0  0  0  0
 30 67  2  0  0  0  0
 31 71  1  0  0  0  0
 31 76  2  0  0  0  0
 32 46  1  0  0  0  0
 32 72  1  0  0  0  0
 32 77  2  0  0  0  0
 33 61  1  0  0  0  0
 33 68  1  0  0  0  0
 33 78  2  0  0  0  0
 34 62  1  0  0  0  0
 34 73  1  0  0  0  0
 34 79  2  0  0  0  0
 35 69  1  0  0  0  0
 35 74  1  0  0  0  0
 35 80  2  0  0  0  0
 36 39  1  0  0  0  0
 37 46  1  0  0  0  0
 38 68  1  0  0  0  0
 39 41  1  0  0  0  0
 40 42  1  0  0  0  0
 40 43  1  0  0  0  0
 41 45  1  0  0  0  0
 42 47  1  0  0  0  0
 43 69  1  0  0  0  0
 44 47  1  0  0  0  0
 44 69  1  0  0  0  0
 45 72  1  0  0  0  0
 46 68  1  0  0  0  0
 47 66  1  0  0  0  0
 49 60  1  0  0  0  0
 50 62  1  0  0  0  0
 51 63  1  0  0  0  0
 52 63  1  0  0  0  0
 53 63  1  0  0  0  0
 54 75  1  0  0  0  0
 55 56  1  0  0  0  0
 55 57  1  0  0  0  0
 56 58  1  0  0  0  0
 57 59  1  0  0  0  0
 58 65  1  0  0  0  0
 59 82  1  0  0  0  0
 60 74  1  0  0  0  0
 61 63  1  0  0  0  0
 61 73  1  0  0  0  0
 62 75  1  0  0  0  0
 64 66  1  0  0  0  0
M  CHG  2  67   1  75   1
M  ISO  4  35 100  59 101  74 100  82 101
M  END
> <Batch ID>
0080

> <Smiles>
CNC(C)C(=O)NC(C(=O)N1Cc2cc([101O:1][101CH2:1]CCCCn3cc(C(C)[100NH:0][100C:0](=O)N4CCCC(n5nc(-c6ccc(Oc7ccc(F)cc7F)cc6)c(C(N)=O)c5N)C4)nc3C)ccc2CC1C(=O)NC1CCCc2ccccc21)C(C)(C)C

> <Shape>
0.229

> <Color>
0.036

> <Negative vol penalty>
0.000

$$$$

  -OEChem-04052318443D

 82 90  0     1  0  0  0  0  0999 V2000
  -32.2687  -12.2168   21.2663 C   0  0  0  0  0  0  0  0  0  0  0  0
  -32.3988  -13.5682   20.9626 C   0  0  0  0  0  0  0  0  0  0  0  0
  -22.2955  -27.2467   23.1039 C   0  0  0  0  0  0  0  0  0  0  0  0
  -22.8816  -28.3387   21.0300 C   0  0  0  0  0  0  0  0  0  0  0  0
  -31.1038  -11.5343   20.9182 C   0  0  0  0  0  0  0  0  0  0  0  0
  -31.3645  -14.2377   20.3097 C   0  0  0  0  0  0  0  0  0  0  0  0
  -29.6726  -20.0693   21.1069 C   0  0  0  0  0  0  0  0  0  0  0  0
  -21.3207  -28.2162   23.3389 C   0  0  0  0  0  0  0  0  0  0  0  0
  -21.9067  -29.3082   21.2650 C   0  0  0  0  0  0  0  0  0  0  0  0
  -29.9512  -21.2330   20.3914 C   0  0  0  0  0  0  0  0  0  0  0  0
  -18.1799  -28.8966   22.2877 C   0  0  0  0  0  0  0  0  0  0  0  0
  -16.9267  -28.4640   22.7214 C   0  0  0  0  0  0  0  0  0  0  0  0
  -27.8740  -20.9847   19.1904 C   0  0  0  0  0  0  0  0  0  0  0  0
  -17.1763  -29.7661   24.7411 C   0  0  0  0  0  0  0  0  0  0  0  0
  -32.2587  -24.6003   15.9427 C   0  0  0  0  0  0  0  0  0  0  0  0
  -23.0761  -27.3079   21.9495 C   0  0  0  0  0  0  0  0  0  0  0  0
  -23.9234  -25.0888   21.0194 C   0  0  0  0  0  0  0  0  0  0  0  0
  -30.0507  -12.1981   20.2693 C   0  0  0  0  0  0  0  0  0  0  0  0
  -28.4957  -19.3474   20.8614 C   0  0  0  0  0  0  0  0  0  0  0  0
  -30.1849  -13.5631   19.9514 C   0  0  0  0  0  0  0  0  0  0  0  0
  -27.5815  -19.8136   19.9059 C   0  0  0  0  0  0  0  0  0  0  0  0
  -21.1262  -29.2469   22.4195 C   0  0  0  0  0  0  0  0  0  0  0  0
  -29.0533  -21.6893   19.4310 C   0  0  0  0  0  0  0  0  0  0  0  0
  -18.9313  -29.7639   23.0807 C   0  0  0  0  0  0  0  0  0  0  0  0
  -16.4249  -28.8988   23.9481 C   0  0  0  0  0  0  0  0  0  0  0  0
  -18.4295  -30.1986   24.3074 C   0  0  0  0  0  0  0  0  0  0  0  0
  -24.0837  -26.3070   21.7064 C   0  0  0  0  0  0  0  0  0  0  0  0
  -31.3221  -24.9025   16.8905 C   0  0  0  0  0  0  0  0  0  0  0  0
  -25.1658  -24.5046   21.0620 C   0  0  0  0  0  0  0  0  0  0  0  0
  -30.2967  -23.8722   15.2209 C   0  0  0  0  0  0  0  0  0  0  0  0
  -22.7560  -24.5347   20.3983 C   0  0  0  0  0  0  0  0  0  0  0  0
  -27.8376  -16.4141   19.8287 C   0  0  0  0  0  0  0  0  0  0  0  0
  -24.7879  -17.2749   20.5220 C   0  0  0  0  0  0  0  0  0  0  0  0
  -22.5139  -19.7812   20.9624 C   0  0  0  0  0  0  0  0  0  0  0  0
  -30.6971  -26.7234   21.6381 C   0  0  0  0  0  0  0  0  0  0  0  0
  -28.8300  -11.4070   19.8708 C   0  0  0  0  0  0  0  0  0  0  0  0
  -28.1971  -18.1086   21.6605 C   0  0  0  0  0  0  0  0  0  0  0  0
  -26.2942  -19.0862   19.6189 C   0  0  0  0  0  0  0  0  0  0  0  0
  -27.6284  -12.2789   19.5155 C   0  0  0  0  0  0  0  0  0  0  0  0
  -29.1258  -24.3176   23.7404 C   0  0  0  0  0  0  0  0  0  0  0  0
  -28.0485  -13.4145   18.5878 C   0  0  0  0  0  0  0  0  0  0  0  0
  -27.6410  -24.4447   23.3955 C   0  0  0  0  0  0  0  0  0  0  0  0
  -29.8309  -25.6717   23.7069 C   0  0  0  0  0  0  0  0  0  0  0  0
  -28.1775  -26.5540   22.1064 C   0  0  0  0  0  0  0  0  0  0  0  0
  -29.0749  -14.3300   19.2660 C   0  0  1  0  0  0  0  0  0  0  0  0
  -27.2132  -17.1722   20.9659 C   0  0  1  0  0  0  0  0  0  0  0  0
  -27.4358  -25.2068   22.0724 C   0  0  2  0  0  0  0  0  0  0  0  0
  -29.2570  -23.2484   14.3653 C   0  0  0  0  0  0  0  0  0  0  0  0
  -20.0909  -20.1733   21.4847 C   0  0  0  0  0  0  0  0  0  0  0  0
  -24.0464  -16.4724   17.6731 C   0  0  0  0  0  0  0  0  0  0  0  0
  -21.9077  -17.7452   17.9456 C   0  0  0  0  0  0  0  0  0  0  0  0
  -22.3879  -15.7874   19.4151 C   0  0  0  0  0  0  0  0  0  0  0  0
  -23.1684  -21.2771   23.4308 C   0  0  0  0  0  0  0  0  0  0  0  0
  -31.4625  -25.5796   18.1854 C   0  0  0  0  0  0  0  0  0  0  0  0
  -31.2962  -27.1215   18.1471 C   0  0  0  0  0  0  0  0  0  0  0  0
  -28.7918  -24.5535   17.1306 C   0  0  0  0  0  0  0  0  0  0  0  0
  -31.4103  -27.7918   19.5146 C   0  0  0  0  0  0  0  0  0  0  0  0
  -28.3591  -23.2345   17.7617 C   0  0  0  0  0  0  0  0  0  1  0  0
  -23.6661  -17.9409   19.7624 C   0  0  1  0  0  0  0  0  0  0  0  0
  -21.4930  -20.0342   22.0570 C   0  0  2  0  0  0  0  0  0  0  0  0
  -23.0271  -16.9993   18.7029 C   0  0  0  0  0  0  0  0  0  0  0  0
  -25.3296  -26.4873   22.1528 N   0  0  0  0  0  0  0  0  0  0  0  0
  -30.1174  -24.4410   16.4175 N   0  0  0  0  0  0  0  0  0  0  0  0
  -25.9635  -25.3744   21.7455 N   0  0  0  0  0  0  0  0  0  0  0  0
  -31.5965  -23.9632   14.9212 N   0  3  0  0  0  0  0  0  0  0  0  0
  -26.0504  -17.8766   20.4219 N   0  0  0  0  0  0  0  0  0  0  0  0
  -29.5981  -26.3418   22.4252 N   0  0  0  0  0  0  0  0  0  0  0  0
  -25.6427  -23.3368   20.5810 N   0  0  0  0  0  0  0  0  0  0  0  0
  -21.5619  -25.2669   20.4473 N   0  0  0  0  0  0  0  0  0  0  0  0
  -28.4194  -15.2176   20.2024 N   0  0  0  0  0  0  0  0  0  0  0  0
  -22.7293  -18.4335   20.7665 N   0  0  0  0  0  0  0  0  0  0  0  0
  -30.3881  -27.3470   20.4355 N   0  0  0  0  0  0  0  0  0  0  0  0
  -21.8252  -21.2849   22.7961 N   0  3  0  0  0  0  0  0  0  0  0  0
  -22.7672  -23.4158   19.8314 O   0  0  0  0  0  0  0  0  0  0  0  0
  -27.7936  -16.8794   18.6959 O   0  0  0  0  0  0  0  0  0  0  0  0
  -24.5513  -16.2624   21.1856 O   0  0  0  0  0  0  0  0  0  0  0  0
  -23.0624  -20.6884   20.3405 O   0  0  0  0  0  0  0  0  0  0  0  0
  -31.8670  -26.5184   21.9791 O   0  0  0  0  0  0  0  0  0  0  0  0
  -20.1749  -30.1930   22.6484 O   0  0  0  0  0  0  0  0  0  0  0  0
  -29.3231  -22.8245   18.7307 O   0  0  0  0  0  0  0  0  0  1  0  0
  -15.2208  -28.4845   24.3637 F   0  0  0  0  0  0  0  0  0  0  0  0
  -19.1462  -31.0328   25.0731 F   0  0  0  0  0  0  0  0  0  0  0  0
  1  2  1  0  0  0  0
  1  5  2  0  0  0  0
  2  6  2  0  0  0  0
  3  8  2  0  0  0  0
  3 16  1  0  0  0  0
  4  9  1  0  0  0  0
  4 16  2  0  0  0  0
  5 18  1  0  0  0  0
  6 20  1  0  0  0  0
  7 10  2  0  0  0  0
  7 19  1  0  0  0  0
  8 22  1  0  0  0  0
  9 22  2  0  0  0  0
 10 23  1  0  0  0  0
 11 12  2  0  0  0  0
 11 24  1  0  0  0  0
 12 25  1  0  0  0  0
 13 21  1  0  0  0  0
 13 23  2  0  0  0  0
 14 25  2  0  0  0  0
 14 26  1  0  0  0  0
 15 28  2  0  0  0  0
 15 65  1  0  0  0  0
 16 27  1  0  0  0  0
 17 27  1  0  0  0  0
 17 29  2  0  0  0  0
 17 31  1  0  0  0  0
 18 20  2  0  0  0  0
 18 36  1  0  0  0  0
 19 21  2  0  0  0  0
 19 37  1  0  0  0  0
 20 45  1  0  0  0  0
 21 38  1  0  0  0  0
 22 79  1  0  0  0  0
 23 80  1  0  0  0  0
 24 26  2  0  0  0  0
 24 79  1  0  0  0  0
 25 81  1  0  0  0  0
 26 82  1  0  0  0  0
 27 62  2  0  0  0  0
 28 54  1  0  0  0  0
 28 63  1  0  0  0  0
 29 64  1  0  0  0  0
 29 68  1  0  0  0  0
 30 48  1  0  0  0  0
 30 63  1  0  0  0  0
 30 65  2  0  0  0  0
 31 69  1  0  0  0  0
 31 74  2  0  0  0  0
 32 46  1  0  0  0  0
 32 70  1  0  0  0  0
 32 75  2  0  0  0  0
 33 59  1  0  0  0  0
 33 66  1  0  0  0  0
 33 76  2  0  0  0  0
 34 60  1  0  0  0  0
 34 71  1  0  0  0  0
 34 77  2  0  0  0  0
 35 67  1  0  0  0  0
 35 72  1  0  0  0  0
 35 78  2  0  0  0  0
 36 39  1  0  0  0  0
 37 46  1  0  0  0  0
 38 66  1  0  0  0  0
 39 41  1  0  0  0  0
 40 42  1  0  0  0  0
 40 43  1  0  0  0  0
 41 45  1  0  0  0  0
 42 47  1  0  0  0  0
 43 67  1  0  0  0  0
 44 47  1  0  0  0  0
 44 67  1  0  0  0  0
 45 70  1  0  0  0  0
 46 66  1  0  0  0  0
 47 64  1  0  0  0  0
 49 60  1  0  0  0  0
 50 61  1  0  0  0  0
 51 61  1  0  0  0  0
 52 61  1  0  0  0  0
 53 73  1  0  0  0  0
 54 55  1  0  0  0  0
 55 57  1  0  0  0  0
 56 58  1  0  0  0  0
 56 63  1  0  0  0  0
 57 72  1  0  0  0  0
 58 80  1  0  0  0  0
 59 61  1  0  0  0  0
 59 71  1  0  0  0  0
 60 73  1  0  0  0  0
 62 64  1  0  0  0  0
M  CHG  2  65   1  73   1
M  ISO  4  35 100  58 101  72 100  80 101
M  END
> <Batch ID>
0080

> <Smiles>
CNC(C)C(=O)NC(C(=O)N1Cc2cc([101O:1][101CH2:1]Cn3c(CCC[100NH:0][100C:0](=O)N4CCCC(n5nc(-c6ccc(Oc7ccc(F)cc7F)cc6)c(C(N)=O)c5N)C4)cnc3C)ccc2CC1C(=O)NC1CCCc2ccccc21)C(C)(C)C

> <Shape>
0.201

> <Color>
0.054

> <Negative vol penalty>
0.000

$$$$

  -OEChem-04052318443D

 82 90  0     1  0  0  0  0  0999 V2000
  -27.9768  -25.0097   16.6941 C   0  0  0  0  0  0  0  0  0  0  0  0
  -26.8205  -25.1750   17.4497 C   0  0  0  0  0  0  0  0  0  0  0  0
  -27.1284  -17.0111   21.2411 C   0  0  0  0  0  0  0  0  0  0  0  0
  -25.0753  -18.1636   20.6994 C   0  0  0  0  0  0  0  0  0  0  0  0
  -29.1823  -25.5506   17.1392 C   0  0  0  0  0  0  0  0  0  0  0  0
  -26.8692  -25.8804   18.6516 C   0  0  0  0  0  0  0  0  0  0  0  0
  -23.0277  -29.1426   19.1468 C   0  0  0  0  0  0  0  0  0  0  0  0
  -26.4126  -15.8312   21.4437 C   0  0  0  0  0  0  0  0  0  0  0  0
  -24.3595  -16.9837   20.9019 C   0  0  0  0  0  0  0  0  0  0  0  0
  -21.7895  -28.6172   19.5137 C   0  0  0  0  0  0  0  0  0  0  0  0
  -25.0236  -13.4031   19.5443 C   0  0  0  0  0  0  0  0  0  0  0  0
  -25.5372  -12.2303   18.9908 C   0  0  0  0  0  0  0  0  0  0  0  0
  -22.1804  -29.3036   21.7930 C   0  0  0  0  0  0  0  0  0  0  0  0
  -25.6837  -11.2539   21.1959 C   0  0  0  0  0  0  0  0  0  0  0  0
  -21.1192  -25.7517   23.3811 C   0  0  0  0  0  0  0  0  0  0  0  0
  -26.4597  -18.1774   20.8690 C   0  0  0  0  0  0  0  0  0  0  0  0
  -27.7698  -19.8488   19.4557 C   0  0  0  0  0  0  0  0  0  0  0  0
  -29.2439  -26.2712   18.3424 C   0  0  0  0  0  0  0  0  0  0  0  0
  -23.8577  -29.7437   20.1040 C   0  0  0  0  0  0  0  0  0  0  0  0
  -28.0770  -26.4302   19.1139 C   0  0  0  0  0  0  0  0  0  0  0  0
  -23.4276  -29.8381   21.4352 C   0  0  0  0  0  0  0  0  0  0  0  0
  -25.0282  -15.8174   21.2741 C   0  0  0  0  0  0  0  0  0  0  0  0
  -21.3669  -28.6951   20.8375 C   0  0  0  0  0  0  0  0  0  0  0  0
  -24.8402  -13.5014   20.9236 C   0  0  0  0  0  0  0  0  0  0  0  0
  -25.8672  -11.1557   19.8167 C   0  0  0  0  0  0  0  0  0  0  0  0
  -25.1702  -12.4268   21.7494 C   0  0  0  0  0  0  0  0  0  0  0  0
  -27.1984  -19.3967   20.6602 C   0  0  0  0  0  0  0  0  0  0  0  0
  -22.3525  -25.1604   23.4925 C   0  0  0  0  0  0  0  0  0  0  0  0
  -28.3556  -21.0475   19.7821 C   0  0  0  0  0  0  0  0  0  0  0  0
  -27.7709  -19.2397   18.1577 C   0  0  0  0  0  0  0  0  0  0  0  0
  -26.7608  -29.1424   21.2504 C   0  0  0  0  0  0  0  0  0  0  0  0
  -26.3053  -31.9544   22.8021 C   0  0  0  0  0  0  0  0  0  0  0  0
  -24.1128  -34.2505   24.0543 C   0  0  0  0  0  0  0  0  0  0  0  0
  -27.2948  -25.0634   24.0946 C   0  0  0  0  0  0  0  0  0  0  0  0
  -30.5793  -26.7968   18.8062 C   0  0  0  0  0  0  0  0  0  0  0  0
  -25.1788  -30.3295   19.6870 C   0  0  0  0  0  0  0  0  0  0  0  0
  -24.2724  -30.4916   22.4971 C   0  0  0  0  0  0  0  0  0  0  0  0
  -30.4707  -27.8515   19.9044 C   0  0  0  0  0  0  0  0  0  0  0  0
  -30.3558  -23.3580   23.4633 C   0  0  0  0  0  0  0  0  0  0  0  0
  -29.4939  -27.3984   20.9849 C   0  0  0  0  0  0  0  0  0  0  0  0
  -29.9453  -22.1902   22.5646 C   0  0  0  0  0  0  0  0  0  0  0  0
  -29.2924  -23.6605   24.5167 C   0  0  0  0  0  0  0  0  0  0  0  0
  -27.5254  -22.7140   23.0828 C   0  0  0  0  0  0  0  0  0  0  0  0
  -28.0845  -27.2102   20.4107 C   0  0  1  0  0  0  0  0  0  0  0  0
  -26.1658  -30.4606   20.8429 C   0  0  1  0  0  0  0  0  0  0  0  0
  -28.5412  -22.4076   21.9691 C   0  0  2  0  0  0  0  0  0  0  0  0
  -24.0380  -36.4264   25.3021 C   0  0  0  0  0  0  0  0  0  0  0  0
  -18.3676  -27.4629   19.7811 C   0  0  0  0  0  0  0  0  0  0  0  0
  -26.9704  -30.4881   25.3939 C   0  0  0  0  0  0  0  0  0  0  0  0
  -25.9721  -32.4073   26.6542 C   0  0  0  0  0  0  0  0  0  0  0  0
  -27.9677  -32.7735   25.2029 C   0  0  0  0  0  0  0  0  0  0  0  0
  -22.7421  -35.6196   21.8170 C   0  0  0  0  0  0  0  0  0  0  0  0
  -23.2534  -25.1119   24.6512 C   0  0  0  0  0  0  0  0  0  0  0  0
  -24.2711  -26.2785   24.7464 C   0  0  0  0  0  0  0  0  0  0  0  0
  -19.4717  -25.8831   21.4024 C   0  0  0  0  0  0  0  0  0  0  0  0
  -25.2409  -26.3534   23.5689 C   0  0  0  0  0  0  0  0  0  0  0  0
  -25.7155  -32.3584   24.1317 C   0  0  1  0  0  0  0  0  0  0  0  0
  -24.0600  -35.7628   23.9339 C   0  0  2  0  0  0  0  0  0  0  0  0
  -19.6775  -27.0665   20.4508 C   0  0  2  0  0  0  0  0  0  1  0  0
  -26.6411  -31.9927   25.3263 C   0  0  0  0  0  0  0  0  0  0  0  0
  -27.4029  -20.2394   21.6761 N   0  0  0  0  0  0  0  0  0  0  0  0
  -22.6848  -24.5642   22.3077 N   0  0  0  0  0  0  0  0  0  0  0  0
  -21.6877  -24.7687   21.4540 N   0  0  0  0  0  0  0  0  0  0  0  0
  -20.7500  -25.4811   22.0994 N   0  0  0  0  0  0  0  0  0  0  0  0
  -28.1093  -21.2331   21.1107 N   0  0  0  0  0  0  0  0  0  0  0  0
  -25.5588  -31.0437   22.0410 N   0  0  0  0  0  0  0  0  0  0  0  0
  -27.9848  -23.8578   23.8863 N   0  0  0  0  0  0  0  0  0  0  0  0
  -29.0521  -21.9502   19.0595 N   0  0  0  0  0  0  0  0  0  0  0  0
  -27.1225  -18.0076   17.9973 N   0  0  0  0  0  0  0  0  0  0  0  0
  -27.4351  -28.4915   20.2350 N   0  0  0  0  0  0  0  0  0  0  0  0
  -25.4090  -33.7809   24.0270 N   0  0  0  0  0  0  0  0  0  0  0  0
  -26.0656  -25.1711   23.4558 N   0  0  0  0  0  0  0  0  0  0  0  0
  -22.8387  -36.1808   23.1891 N   0  3  0  0  0  0  0  0  0  0  0  0
  -28.3444  -19.7644   17.1732 O   0  0  0  0  0  0  0  0  0  0  0  0
  -26.6198  -28.7459   22.4013 O   0  0  0  0  0  0  0  0  0  0  0  0
  -27.3851  -32.4347   22.4485 O   0  0  0  0  0  0  0  0  0  0  0  0
  -23.1053  -33.5555   24.1654 O   0  0  0  0  0  0  0  0  0  0  0  0
  -27.7435  -25.9783   24.7936 O   0  0  0  0  0  0  0  0  0  0  0  0
  -24.3295  -14.6662   21.4714 O   0  0  0  0  0  0  0  0  0  0  0  0
  -20.1591  -28.1825   21.1985 O   0  0  0  0  0  0  0  0  0  1  0  0
  -26.3589  -10.0289   19.2849 F   0  0  0  0  0  0  0  0  0  0  0  0
  -24.9950  -12.5149   23.0750 F   0  0  0  0  0  0  0  0  0  0  0  0
  1  2  1  0  0  0  0
  1  5  2  0  0  0  0
  2  6  2  0  0  0  0
  3  8  2  0  0  0  0
  3 16  1  0  0  0  0
  4  9  1  0  0  0  0
  4 16  2  0  0  0  0
  5 18  1  0  0  0  0
  6 20  1  0  0  0  0
  7 10  2  0  0  0  0
  7 19  1  0  0  0  0
  8 22  1  0  0  0  0
  9 22  2  0  0  0  0
 10 23  1  0  0  0  0
 11 12  2  0  0  0  0
 11 24  1  0  0  0  0
 12 25  1  0  0  0  0
 13 21  1  0  0  0  0
 13 23  2  0  0  0  0
 14 25  2  0  0  0  0
 14 26  1  0  0  0  0
 15 28  2  0  0  0  0
 15 64  1  0  0  0  0
 16 27  1  0  0  0  0
 17 27  1  0  0  0  0
 17 29  2  0  0  0  0
 17 30  1  0  0  0  0
 18 20  2  0  0  0  0
 18 35  1  0  0  0  0
 19 21  2  0  0  0  0
 19 36  1  0  0  0  0
 20 44  1  0  0  0  0
 21 37  1  0  0  0  0
 22 79  1  0  0  0  0
 23 80  1  0  0  0  0
 24 26  2  0  0  0  0
 24 79  1  0  0  0  0
 25 81  1  0  0  0  0
 26 82  1  0  0  0  0
 27 61  2  0  0  0  0
 28 53  1  0  0  0  0
 28 62  1  0  0  0  0
 29 65  1  0  0  0  0
 29 68  1  0  0  0  0
 30 69  1  0  0  0  0
 30 74  2  0  0  0  0
 31 45  1  0  0  0  0
 31 70  1  0  0  0  0
 31 75  2  0  0  0  0
 32 57  1  0  0  0  0
 32 66  1  0  0  0  0
 32 76  2  0  0  0  0
 33 58  1  0  0  0  0
 33 71  1  0  0  0  0
 33 77  2  0  0  0  0
 34 67  1  0  0  0  0
 34 72  1  0  0  0  0
 34 78  2  0  0  0  0
 35 38  1  0  0  0  0
 36 45  1  0  0  0  0
 37 66  1  0  0  0  0
 38 40  1  0  0  0  0
 39 41  1  0  0  0  0
 39 42  1  0  0  0  0
 40 44  1  0  0  0  0
 41 46  1  0  0  0  0
 42 67  1  0  0  0  0
 43 46  1  0  0  0  0
 43 67  1  0  0  0  0
 44 70  1  0  0  0  0
 45 66  1  0  0  0  0
 46 65  1  0  0  0  0
 47 58  1  0  0  0  0
 48 59  1  0  0  0  0
 49 60  1  0  0  0  0
 50 60  1  0  0  0  0
 51 60  1  0  0  0  0
 52 73  1  0  0  0  0
 53 54  1  0  0  0  0
 54 56  1  0  0  0  0
 55 59  1  0  0  0  0
 55 64  1  0  0  0  0
 56 72  1  0  0  0  0
 57 60  1  0  0  0  0
 57 71  1  0  0  0  0
 58 73  1  0  0  0  0
 59 80  1  0  0  0  0
 61 65  1  0  0  0  0
 62 63  2  0  0  0  0
 63 64  1  0  0  0  0
M  CHG  1  73   1
M  ISO  4  34 100  59 101  72 100  80 101
M  END
> <Batch ID>
0080

> <Smiles>
CNC(C)C(=O)NC(C(=O)N1Cc2cc([101O:1][101CH:1](C)Cn3cc(CCC[100NH:0][100C:0](=O)N4CCCC(n5nc(-c6ccc(Oc7ccc(F)cc7F)cc6)c(C(N)=O)c5N)C4)nn3)ccc2CC1C(=O)NC1CCCc2ccccc21)C(C)(C)C

> <Shape>
0.285

> <Color>
0.075

> <Negative vol penalty>
0.000

$$$$

  -OEChem-04052318443D

 86 94  0     1  0  0  0  0  0999 V2000
  -19.3266  -10.8787   25.2906 C   0  0  0  0  0  0  0  0  0  0  0  0
  -20.6834  -11.1826   25.2442 C   0  0  0  0  0  0  0  0  0  0  0  0
  -23.1897   -9.8192   19.9317 C   0  0  0  0  0  0  0  0  0  0  0  0
  -23.5664   -9.9999   22.3113 C   0  0  0  0  0  0  0  0  0  0  0  0
  -18.4670  -11.6499   26.0717 C   0  0  0  0  0  0  0  0  0  0  0  0
  -21.1812  -12.2588   25.9780 C   0  0  0  0  0  0  0  0  0  0  0  0
  -26.6558  -12.6436   28.6958 C   0  0  0  0  0  0  0  0  0  0  0  0
  -31.6486  -17.4823   28.0598 C   0  0  0  0  0  0  0  0  0  0  0  0
  -22.4230   -8.6727   20.1401 C   0  0  0  0  0  0  0  0  0  0  0  0
  -22.7997   -8.8534   22.5197 C   0  0  0  0  0  0  0  0  0  0  0  0
  -27.8544  -13.2423   28.3102 C   0  0  0  0  0  0  0  0  0  0  0  0
  -21.2409   -5.7701   23.6481 C   0  0  0  0  0  0  0  0  0  0  0  0
  -21.7365   -4.8103   24.5305 C   0  0  0  0  0  0  0  0  0  0  0  0
  -31.7761  -18.6111   27.2580 C   0  0  0  0  0  0  0  0  0  0  0  0
  -27.2816  -15.2023   29.5946 C   0  0  0  0  0  0  0  0  0  0  0  0
  -23.6960   -4.5457   23.1422 C   0  0  0  0  0  0  0  0  0  0  0  0
  -23.7614  -10.4828   21.0173 C   0  0  0  0  0  0  0  0  0  0  0  0
  -24.1008  -12.9993   20.7733 C   0  0  0  0  0  0  0  0  0  0  0  0
  -18.9560  -12.7302   26.8230 C   0  0  0  0  0  0  0  0  0  0  0  0
  -25.7546  -13.3252   29.5262 C   0  0  0  0  0  0  0  0  0  0  0  0
  -20.3270  -13.0461   26.7688 C   0  0  0  0  0  0  0  0  0  0  0  0
  -26.0734  -14.6090   29.9913 C   0  0  0  0  0  0  0  0  0  0  0  0
  -31.8853  -16.2228   27.5203 C   0  0  0  0  0  0  0  0  0  0  0  0
  -22.2280   -8.1898   21.4341 C   0  0  0  0  0  0  0  0  0  0  0  0
  -28.1662  -14.5229   28.7572 C   0  0  0  0  0  0  0  0  0  0  0  0
  -21.9728   -6.1177   22.5126 C   0  0  0  0  0  0  0  0  0  0  0  0
  -22.9640   -4.1981   24.2776 C   0  0  0  0  0  0  0  0  0  0  0  0
  -23.2003   -5.5055   22.2597 C   0  0  0  0  0  0  0  0  0  0  0  0
  -24.5540  -11.6668   20.8026 C   0  0  0  0  0  0  0  0  0  0  0  0
  -32.1397  -18.4281   25.9336 C   0  0  0  0  0  0  0  0  0  0  0  0
  -32.2439  -16.1468   26.1841 C   0  0  0  0  0  0  0  0  0  0  0  0
  -25.2323  -13.7417   20.5387 C   0  0  0  0  0  0  0  0  0  0  0  0
  -22.7756  -13.5195   20.9432 C   0  0  0  0  0  0  0  0  0  0  0  0
  -22.7610  -14.3502   29.2240 C   0  0  0  0  0  0  0  0  0  0  0  0
  -23.1114  -15.0948   32.3617 C   0  0  0  0  0  0  0  0  0  0  0  0
  -25.2130  -15.8384   34.9457 C   0  0  0  0  0  0  0  0  0  0  0  0
  -31.0462  -12.7507   21.5718 C   0  0  0  0  0  0  0  0  0  0  0  0
  -17.9806  -13.5640   27.6155 C   0  0  0  0  0  0  0  0  0  0  0  0
  -24.4780  -12.6551   29.9548 C   0  0  0  0  0  0  0  0  0  0  0  0
  -25.1492  -15.3752   30.9009 C   0  0  0  0  0  0  0  0  0  0  0  0
  -18.6489  -14.4572   28.6575 C   0  0  0  0  0  0  0  0  0  0  0  0
  -29.5211  -13.4679   18.4356 C   0  0  0  0  0  0  0  0  0  0  0  0
  -19.8442  -15.1843   28.0497 C   0  0  0  0  0  0  0  0  0  0  0  0
  -28.0342  -13.2078   18.6839 C   0  0  0  0  0  0  0  0  0  0  0  0
  -30.4017  -12.4784   19.1955 C   0  0  0  0  0  0  0  0  0  0  0  0
  -28.6469  -12.1363   20.8919 C   0  0  0  0  0  0  0  0  0  0  0  0
  -20.9089  -14.1903   27.5702 C   0  0  1  0  0  0  0  0  0  0  0  0
  -23.3996  -13.6441   30.3864 C   0  0  1  0  0  0  0  0  0  0  0  0
  -27.7202  -13.1441   20.1908 C   0  0  2  0  0  0  0  0  0  0  0  0
  -31.1159  -21.2087   23.4587 C   0  0  0  0  0  0  0  0  0  0  0  0
  -33.9811  -14.7065   25.0888 C   0  0  0  0  0  0  0  0  0  0  0  0
  -25.2036  -16.4369   37.3827 C   0  0  0  0  0  0  0  0  0  0  0  0
  -22.2200  -17.9274   31.6602 C   0  0  0  0  0  0  0  0  0  0  0  0
  -23.1274  -18.6847   33.8673 C   0  0  0  0  0  0  0  0  0  0  0  0
  -21.2628  -17.0296   33.7891 C   0  0  0  0  0  0  0  0  0  0  0  0
  -26.7772  -13.4303   35.6621 C   0  0  0  0  0  0  0  0  0  0  0  0
  -31.7473  -14.9936   28.3854 C   0  0  0  0  0  0  0  0  0  0  0  0
  -32.2874  -19.6179   25.0450 C   0  0  0  0  0  0  0  0  0  0  0  0
  -30.9722  -19.9761   24.3372 C   0  0  0  0  0  0  0  0  0  0  0  0
  -31.5733  -14.4860   24.3583 C   0  0  0  0  0  0  0  0  0  0  0  0
  -31.5349  -13.0021   23.9920 C   0  0  0  0  0  0  0  0  0  0  0  0
  -30.4430  -14.2469   28.1280 C   0  0  0  0  0  0  0  0  0  1  0  0
  -32.5134  -14.8208   25.5517 C   0  0  2  0  0  0  0  0  0  0  0  0
  -23.5923  -16.3045   33.1262 C   0  0  1  0  0  0  0  0  0  0  0  0
  -25.2893  -15.3089   36.3663 C   0  0  2  0  0  0  0  0  0  0  0  0
  -22.5674  -17.4731   33.0920 C   0  0  0  0  0  0  0  0  0  0  0  0
  -25.8707  -11.5654   20.6023 N   0  0  0  0  0  0  0  0  0  0  0  0
  -32.3778  -17.2207   25.3740 N   0  0  0  0  0  0  0  0  0  0  0  0
  -26.2546  -12.8436   20.4449 N   0  0  0  0  0  0  0  0  0  0  0  0
  -23.9103  -14.6798   31.2869 N   0  0  0  0  0  0  0  0  0  0  0  0
  -30.0542  -12.4676   20.6186 N   0  0  0  0  0  0  0  0  0  0  0  0
  -25.4426  -15.0685   20.4053 N   0  0  0  0  0  0  0  0  0  0  0  0
  -21.7286  -12.6175   21.1767 N   0  0  0  0  0  0  0  0  0  0  0  0
  -21.6719  -13.6866   28.6920 N   0  0  0  0  0  0  0  0  0  0  0  0
  -23.9194  -15.8356   34.4684 N   0  0  0  0  0  0  0  0  0  0  0  0
  -30.6311  -12.7256   22.8977 N   0  0  0  0  0  0  0  0  0  0  0  0
  -26.5720  -14.5807   36.5795 N   0  3  0  0  0  0  0  0  0  0  0  0
  -22.5247  -14.7466   20.8732 O   0  0  0  0  0  0  0  0  0  0  0  0
  -23.2212  -15.4188   28.8392 O   0  0  0  0  0  0  0  0  0  0  0  0
  -22.0691  -14.5344   32.7099 O   0  0  0  0  0  0  0  0  0  0  0  0
  -26.2015  -16.2202   34.3231 O   0  0  0  0  0  0  0  0  0  0  0  0
  -32.2141  -13.0120   21.2639 O   0  0  0  0  0  0  0  0  0  0  0  0
  -21.4798   -7.0713   21.6379 O   0  0  0  0  0  0  0  0  0  0  0  0
  -29.3351  -15.1098   28.3818 O   0  0  0  0  0  0  0  0  0  1  0  0
  -23.4406   -3.2776   25.1260 F   0  0  0  0  0  0  0  0  0  0  0  0
  -23.9086   -5.8361   21.1712 F   0  0  0  0  0  0  0  0  0  0  0  0
  1  2  1  0  0  0  0
  1  5  2  0  0  0  0
  2  6  2  0  0  0  0
  3  9  2  0  0  0  0
  3 17  1  0  0  0  0
  4 10  1  0  0  0  0
  4 17  2  0  0  0  0
  5 19  1  0  0  0  0
  6 21  1  0  0  0  0
  7 11  2  0  0  0  0
  7 20  1  0  0  0  0
  8 14  2  0  0  0  0
  8 23  1  0  0  0  0
  9 24  1  0  0  0  0
 10 24  2  0  0  0  0
 11 25  1  0  0  0  0
 12 13  2  0  0  0  0
 12 26  1  0  0  0  0
 13 27  1  0  0  0  0
 14 30  1  0  0  0  0
 15 22  1  0  0  0  0
 15 25  2  0  0  0  0
 16 27  2  0  0  0  0
 16 28  1  0  0  0  0
 17 29  1  0  0  0  0
 18 29  1  0  0  0  0
 18 32  2  0  0  0  0
 18 33  1  0  0  0  0
 19 21  2  0  0  0  0
 19 38  1  0  0  0  0
 20 22  2  0  0  0  0
 20 39  1  0  0  0  0
 21 47  1  0  0  0  0
 22 40  1  0  0  0  0
 23 31  2  0  0  0  0
 23 57  1  0  0  0  0
 24 83  1  0  0  0  0
 25 84  1  0  0  0  0
 26 28  2  0  0  0  0
 26 83  1  0  0  0  0
 27 85  1  0  0  0  0
 28 86  1  0  0  0  0
 29 67  2  0  0  0  0
 30 58  1  0  0  0  0
 30 68  2  0  0  0  0
 31 63  1  0  0  0  0
 31 68  1  0  0  0  0
 32 69  1  0  0  0  0
 32 72  1  0  0  0  0
 33 73  1  0  0  0  0
 33 78  2  0  0  0  0
 34 48  1  0  0  0  0
 34 74  1  0  0  0  0
 34 79  2  0  0  0  0
 35 64  1  0  0  0  0
 35 70  1  0  0  0  0
 35 80  2  0  0  0  0
 36 65  1  0  0  0  0
 36 75  1  0  0  0  0
 36 81  2  0  0  0  0
 37 71  1  0  0  0  0
 37 76  1  0  0  0  0
 37 82  2  0  0  0  0
 38 41  1  0  0  0  0
 39 48  1  0  0  0  0
 40 70  1  0  0  0  0
 41 43  1  0  0  0  0
 42 44  1  0  0  0  0
 42 45  1  0  0  0  0
 43 47  1  0  0  0  0
 44 49  1  0  0  0  0
 45 71  1  0  0  0  0
 46 49  1  0  0  0  0
 46 71  1  0  0  0  0
 47 74  1  0  0  0  0
 48 70  1  0  0  0  0
 49 69  1  0  0  0  0
 50 59  1  0  0  0  0
 51 63  1  0  0  0  0
 52 65  1  0  0  0  0
 53 66  1  0  0  0  0
 54 66  1  0  0  0  0
 55 66  1  0  0  0  0
 56 77  1  0  0  0  0
 57 62  1  0  0  0  0
 58 59  1  0  0  0  0
 60 61  1  0  0  0  0
 60 63  1  0  0  0  0
 61 76  1  0  0  0  0
 62 84  1  0  0  0  0
 64 66  1  0  0  0  0
 64 75  1  0  0  0  0
 65 77  1  0  0  0  0
 67 69  1  0  0  0  0
M  CHG  1  77   1
M  ISO  4  37 100  62 101  76 100  84 101
M  END
> <Batch ID>
0080

> <Smiles>
CCCc1ccc(C[101CH2:1][101O:1]c2ccc3c(c2)CN(C(=O)C(NC(=O)C(C)NC)C(C)(C)C)C(C(=O)NC2CCCc4ccccc42)C3)c(C(C)CC[100NH:0][100C:0](=O)N2CCCC(n3nc(-c4ccc(Oc5ccc(F)cc5F)cc4)c(C(N)=O)c3N)C2)n1

> <Shape>
0.138

> <Color>
0.178

> <Negative vol penalty>
0.000

$$$$

  -OEChem-04052318443D

 86 94  0     1  0  0  0  0  0999 V2000
  -22.2634  -11.1316   19.0973 C   0  0  0  0  0  0  0  0  0  0  0  0
  -21.8334  -12.4480   19.2299 C   0  0  0  0  0  0  0  0  0  0  0  0
  -30.9149  -26.1693   17.7689 C   0  0  0  0  0  0  0  0  0  0  0  0
  -30.8056  -28.5731   17.9851 C   0  0  0  0  0  0  0  0  0  0  0  0
  -23.4943  -10.7450   19.6257 C   0  0  0  0  0  0  0  0  0  0  0  0
  -22.6336  -13.3783   19.8920 C   0  0  0  0  0  0  0  0  0  0  0  0
  -23.2083  -19.3334   18.5831 C   0  0  0  0  0  0  0  0  0  0  0  0
  -31.4734  -26.3089   16.4984 C   0  0  0  0  0  0  0  0  0  0  0  0
  -31.3641  -28.7127   16.7146 C   0  0  0  0  0  0  0  0  0  0  0  0
  -22.6248  -20.4748   19.1313 C   0  0  0  0  0  0  0  0  0  0  0  0
  -32.5959  -26.0316   13.0507 C   0  0  0  0  0  0  0  0  0  0  0  0
  -32.0977  -25.2230   12.0292 C   0  0  0  0  0  0  0  0  0  0  0  0
  -24.5617  -20.7829   20.5359 C   0  0  0  0  0  0  0  0  0  0  0  0
  -29.9016  -26.1801   12.3425 C   0  0  0  0  0  0  0  0  0  0  0  0
  -21.3608  -27.9701   19.2385 C   0  0  0  0  0  0  0  0  0  0  0  0
  -30.5810  -27.3014   18.5123 C   0  0  0  0  0  0  0  0  0  0  0  0
  -30.6896  -27.0789   21.0512 C   0  0  0  0  0  0  0  0  0  0  0  0
  -24.3144  -11.6733   20.2862 C   0  0  0  0  0  0  0  0  0  0  0  0
  -24.4702  -18.9012   19.0158 C   0  0  0  0  0  0  0  0  0  0  0  0
  -23.8761  -13.0035   20.4310 C   0  0  0  0  0  0  0  0  0  0  0  0
  -25.1601  -19.6371   19.9898 C   0  0  0  0  0  0  0  0  0  0  0  0
  -31.6980  -27.5806   15.9712 C   0  0  0  0  0  0  0  0  0  0  0  0
  -23.3002  -21.1981   20.1099 C   0  0  0  0  0  0  0  0  0  0  0  0
  -31.7469  -26.9145   13.7182 C   0  0  0  0  0  0  0  0  0  0  0  0
  -30.7506  -25.2972   11.6751 C   0  0  0  0  0  0  0  0  0  0  0  0
  -30.3998  -26.9888   13.3641 C   0  0  0  0  0  0  0  0  0  0  0  0
  -30.0035  -27.1578   19.8245 C   0  0  0  0  0  0  0  0  0  0  0  0
  -21.5357  -29.0002   20.1362 C   0  0  0  0  0  0  0  0  0  0  0  0
  -20.1820  -27.9251   21.6335 C   0  0  0  0  0  0  0  0  0  0  0  0
  -20.0067  -26.8954   20.7354 C   0  0  0  0  0  0  0  0  0  0  0  0
  -29.6973  -26.9500   21.9920 C   0  0  0  0  0  0  0  0  0  0  0  0
  -32.0981  -27.1186   21.3166 C   0  0  0  0  0  0  0  0  0  0  0  0
  -25.5794  -16.2825   20.4354 C   0  0  0  0  0  0  0  0  0  0  0  0
  -28.4546  -17.6953   19.9261 C   0  0  0  0  0  0  0  0  0  0  0  0
  -30.2184  -20.5704   19.4068 C   0  0  0  0  0  0  0  0  0  0  0  0
  -24.0227  -28.5066   22.2234 C   0  0  0  0  0  0  0  0  0  0  0  0
  -25.6156  -11.1975   20.8822 C   0  0  0  0  0  0  0  0  0  0  0  0
  -25.0975  -17.6831   18.3953 C   0  0  0  0  0  0  0  0  0  0  0  0
  -26.5259  -19.2268   20.4741 C   0  0  0  0  0  0  0  0  0  0  0  0
  -26.5718  -12.3319   21.2416 C   0  0  0  0  0  0  0  0  0  0  0  0
  -25.2579  -25.2839   22.5620 C   0  0  0  0  0  0  0  0  0  0  0  0
  -25.8324  -13.4363   21.9902 C   0  0  0  0  0  0  0  0  0  0  0  0
  -26.6825  -25.3773   22.0171 C   0  0  0  0  0  0  0  0  0  0  0  0
  -24.2944  -26.1007   21.7093 C   0  0  0  0  0  0  0  0  0  0  0  0
  -26.1002  -27.6536   21.0393 C   0  0  0  0  0  0  0  0  0  0  0  0
  -24.7270  -14.0476   21.1208 C   0  0  1  0  0  0  0  0  0  0  0  0
  -26.1639  -17.0440   19.2796 C   0  0  1  0  0  0  0  0  0  0  0  0
  -27.1201  -26.8448   21.8669 C   0  0  2  0  0  0  0  0  0  0  0  0
  -19.5283  -27.9079   22.9729 C   0  0  0  0  0  0  0  0  0  0  0  0
  -25.2514  -31.4729   22.9038 C   0  0  0  0  0  0  0  0  0  0  0  0
  -32.5577  -21.4116   19.0639 C   0  0  0  0  0  0  0  0  0  0  0  0
  -29.0165  -17.3390   22.9039 C   0  0  0  0  0  0  0  0  0  0  0  0
  -30.8756  -19.0011   22.6808 C   0  0  0  0  0  0  0  0  0  0  0  0
  -30.9631  -16.8564   21.4098 C   0  0  0  0  0  0  0  0  0  0  0  0
  -29.5603  -21.6556   16.7332 C   0  0  0  0  0  0  0  0  0  0  0  0
  -22.3903  -30.1683   19.7884 C   0  0  0  0  0  0  0  0  0  0  0  0
  -19.1452  -25.7025   21.0652 C   0  0  0  0  0  0  0  0  0  0  0  0
  -19.6107  -24.4007   20.4038 C   0  0  0  0  0  0  0  0  0  0  0  0
  -20.9982  -23.9559   20.8685 C   0  0  0  0  0  0  0  0  0  0  0  0
  -23.8994  -30.9581   22.4531 C   0  0  0  0  0  0  0  0  0  0  0  0
  -23.8632  -29.9943   20.1823 C   0  0  0  0  0  0  0  0  0  0  0  0
  -21.4431  -22.6828   20.1615 C   0  0  0  0  0  0  0  0  0  1  0  0
  -29.3287  -18.6507   20.7020 C   0  0  1  0  0  0  0  0  0  0  0  0
  -31.2847  -20.9277   18.3871 C   0  0  2  0  0  0  0  0  0  0  0  0
  -30.0194  -17.9687   21.9166 C   0  0  0  0  0  0  0  0  0  0  0  0
  -20.5932  -26.8992   19.5220 N   0  0  0  0  0  0  0  0  0  0  0  0
  -28.6777  -27.0850   19.9696 N   0  0  0  0  0  0  0  0  0  0  0  0
  -20.9494  -28.9962   21.3498 N   0  0  0  0  0  0  0  0  0  0  0  0
  -28.5228  -26.9589   21.2986 N   0  0  0  0  0  0  0  0  0  0  0  0
  -27.0944  -18.0251   19.8415 N   0  0  0  0  0  0  0  0  0  0  0  0
  -24.7436  -27.4875   21.5835 N   0  0  0  0  0  0  0  0  0  0  0  0
  -29.7234  -26.8311   23.3365 N   0  0  0  0  0  0  0  0  0  0  0  0
  -32.9782  -27.2552   20.2345 N   0  0  0  0  0  0  0  0  0  0  0  0
  -25.2934  -14.9607   20.1513 N   0  0  0  0  0  0  0  0  0  0  0  0
  -30.2552  -19.2321   19.7366 N   0  0  0  0  0  0  0  0  0  0  0  0
  -24.0259  -29.7723   21.6179 N   0  0  0  0  0  0  0  0  0  0  0  0
  -30.7951  -22.0053   17.4815 N   0  3  0  0  0  0  0  0  0  0  0  0
  -32.5630  -27.0190   22.4774 O   0  0  0  0  0  0  0  0  0  0  0  0
  -25.4024  -16.8515   21.5062 O   0  0  0  0  0  0  0  0  0  0  0  0
  -28.9612  -16.6971   19.4079 O   0  0  0  0  0  0  0  0  0  0  0  0
  -29.4339  -21.3966   19.8676 O   0  0  0  0  0  0  0  0  0  0  0  0
  -23.4033  -28.2967   23.2744 O   0  0  0  0  0  0  0  0  0  0  0  0
  -32.2432  -27.7172   14.7316 O   0  0  0  0  0  0  0  0  0  0  0  0
  -22.7328  -22.3122   20.6471 O   0  0  0  0  0  0  0  0  0  1  0  0
  -30.2726  -24.5218   10.6931 F   0  0  0  0  0  0  0  0  0  0  0  0
  -29.5796  -27.8359   14.0009 F   0  0  0  0  0  0  0  0  0  0  0  0
  1  2  1  0  0  0  0
  1  5  2  0  0  0  0
  2  6  2  0  0  0  0
  3  8  2  0  0  0  0
  3 16  1  0  0  0  0
  4  9  1  0  0  0  0
  4 16  2  0  0  0  0
  5 18  1  0  0  0  0
  6 20  1  0  0  0  0
  7 10  2  0  0  0  0
  7 19  1  0  0  0  0
  8 22  1  0  0  0  0
  9 22  2  0  0  0  0
 10 23  1  0  0  0  0
 11 12  2  0  0  0  0
 11 24  1  0  0  0  0
 12 25  1  0  0  0  0
 13 21  1  0  0  0  0
 13 23  2  0  0  0  0
 14 25  2  0  0  0  0
 14 26  1  0  0  0  0
 15 28  1  0  0  0  0
 15 66  2  0  0  0  0
 16 27  1  0  0  0  0
 17 27  1  0  0  0  0
 17 31  2  0  0  0  0
 17 32  1  0  0  0  0
 18 20  2  0  0  0  0
 18 37  1  0  0  0  0
 19 21  2  0  0  0  0
 19 38  1  0  0  0  0
 20 46  1  0  0  0  0
 21 39  1  0  0  0  0
 22 83  1  0  0  0  0
 23 84  1  0  0  0  0
 24 26  2  0  0  0  0
 24 83  1  0  0  0  0
 25 85  1  0  0  0  0
 26 86  1  0  0  0  0
 27 67  2  0  0  0  0
 28 56  1  0  0  0  0
 28 68  2  0  0  0  0
 29 30  2  0  0  0  0
 29 49  1  0  0  0  0
 29 68  1  0  0  0  0
 30 57  1  0  0  0  0
 30 66  1  0  0  0  0
 31 69  1  0  0  0  0
 31 72  1  0  0  0  0
 32 73  1  0  0  0  0
 32 78  2  0  0  0  0
 33 47  1  0  0  0  0
 33 74  1  0  0  0  0
 33 79  2  0  0  0  0
 34 63  1  0  0  0  0
 34 70  1  0  0  0  0
 34 80  2  0  0  0  0
 35 64  1  0  0  0  0
 35 75  1  0  0  0  0
 35 81  2  0  0  0  0
 36 71  1  0  0  0  0
 36 76  1  0  0  0  0
 36 82  2  0  0  0  0
 37 40  1  0  0  0  0
 38 47  1  0  0  0  0
 39 70  1  0  0  0  0
 40 42  1  0  0  0  0
 41 43  1  0  0  0  0
 41 44  1  0  0  0  0
 42 46  1  0  0  0  0
 43 48  1  0  0  0  0
 44 71  1  0  0  0  0
 45 48  1  0  0  0  0
 45 71  1  0  0  0  0
 46 74  1  0  0  0  0
 47 70  1  0  0  0  0
 48 69  1  0  0  0  0
 50 60  1  0  0  0  0
 51 64  1  0  0  0  0
 52 65  1  0  0  0  0
 53 65  1  0  0  0  0
 54 65  1  0  0  0  0
 55 77  1  0  0  0  0
 56 61  1  0  0  0  0
 57 58  1  0  0  0  0
 58 59  1  0  0  0  0
 59 62  1  0  0  0  0
 60 76  1  0  0  0  0
 61 76  1  0  0  0  0
 62 84  1  0  0  0  0
 63 65  1  0  0  0  0
 63 75  1  0  0  0  0
 64 77  1  0  0  0  0
 67 69  1  0  0  0  0
M  CHG  1  77   1
M  ISO  4  36 100  62 101  76 100  84 101
M  END
> <Batch ID>
0080

> <Smiles>
CC[100N:0](CCc1cnc(CCC[101CH2:1][101O:1]c2ccc3c(c2)CN(C(=O)C(NC(=O)C(C)NC)C(C)(C)C)C(C(=O)NC2CCCc4ccccc42)C3)c(C)n1)[100C:0](=O)N1CCCC(n2nc(-c3ccc(Oc4ccc(F)cc4F)cc3)c(C(N)=O)c2N)C1

> <Shape>
0.215

> <Color>
0.075

> <Negative vol penalty>
0.000

$$$$

  -OEChem-04052318443D

 84 92  0     1  0  0  0  0  0999 V2000
  -18.1750  -34.0065   22.4988 C   0  0  0  0  0  0  0  0  0  0  0  0
  -19.5300  -33.9662   22.1861 C   0  0  0  0  0  0  0  0  0  0  0  0
  -27.1776  -12.9859   21.0960 C   0  0  0  0  0  0  0  0  0  0  0  0
  -27.0042  -13.4233   18.7263 C   0  0  0  0  0  0  0  0  0  0  0  0
  -17.5918  -32.9543   23.2034 C   0  0  0  0  0  0  0  0  0  0  0  0
  -20.3028  -32.8740   22.5788 C   0  0  0  0  0  0  0  0  0  0  0  0
  -25.9079  -28.9497   20.4576 C   0  0  0  0  0  0  0  0  0  0  0  0
  -26.4227  -11.8238   20.9368 C   0  0  0  0  0  0  0  0  0  0  0  0
  -26.2494  -12.2612   18.5670 C   0  0  0  0  0  0  0  0  0  0  0  0
  -27.1340  -28.4808   20.9273 C   0  0  0  0  0  0  0  0  0  0  0  0
  -24.2362   -8.9311   21.2103 C   0  0  0  0  0  0  0  0  0  0  0  0
  -23.2167   -8.6870   22.1303 C   0  0  0  0  0  0  0  0  0  0  0  0
  -26.0018  -26.6840   22.0712 C   0  0  0  0  0  0  0  0  0  0  0  0
  -22.1437  -10.7548   21.4897 C   0  0  0  0  0  0  0  0  0  0  0  0
  -28.2127  -24.6335   18.0181 C   0  0  0  0  0  0  0  0  0  0  0  0
  -27.4683  -13.7857   19.9907 C   0  0  0  0  0  0  0  0  0  0  0  0
  -29.6477  -15.1089   20.0746 C   0  0  0  0  0  0  0  0  0  0  0  0
  -18.3557  -31.8441   23.5965 C   0  0  0  0  0  0  0  0  0  0  0  0
  -24.7165  -28.2944   20.8006 C   0  0  0  0  0  0  0  0  0  0  0  0
  -19.7295  -31.8065   23.2905 C   0  0  0  0  0  0  0  0  0  0  0  0
  -24.7621  -27.1450   21.6024 C   0  0  0  0  0  0  0  0  0  0  0  0
  -25.9586  -11.4614   19.6723 C   0  0  0  0  0  0  0  0  0  0  0  0
  -27.1808  -27.3495   21.7367 C   0  0  0  0  0  0  0  0  0  0  0  0
  -24.2096  -10.0870   20.4300 C   0  0  0  0  0  0  0  0  0  0  0  0
  -22.1704   -9.5989   22.2700 C   0  0  0  0  0  0  0  0  0  0  0  0
  -23.1634  -10.9988   20.5697 C   0  0  0  0  0  0  0  0  0  0  0  0
  -28.2476  -14.9865   20.1547 C   0  0  0  0  0  0  0  0  0  0  0  0
  -28.4672  -23.3007   17.7807 C   0  0  0  0  0  0  0  0  0  0  0  0
  -29.9978  -23.2904   19.4798 C   0  0  0  0  0  0  0  0  0  0  0  0
  -29.7437  -24.6234   19.7167 C   0  0  0  0  0  0  0  0  0  0  0  0
  -29.8895  -16.4416   20.3021 C   0  0  0  0  0  0  0  0  0  0  0  0
  -30.6410  -14.1074   19.8176 C   0  0  0  0  0  0  0  0  0  0  0  0
  -22.0870  -29.1073   22.3908 C   0  0  0  0  0  0  0  0  0  0  0  0
  -21.0638  -26.1878   21.4153 C   0  0  0  0  0  0  0  0  0  0  0  0
  -21.8614  -23.0361   20.3773 C   0  0  0  0  0  0  0  0  0  0  0  0
  -26.5704  -21.3708   19.5685 C   0  0  0  0  0  0  0  0  0  0  0  0
  -17.6913  -30.7527   24.3977 C   0  0  0  0  0  0  0  0  0  0  0  0
  -23.4044  -28.7971   20.2638 C   0  0  0  0  0  0  0  0  0  0  0  0
  -23.5135  -26.3934   21.9829 C   0  0  0  0  0  0  0  0  0  0  0  0
  -18.4987  -29.4583   24.4506 C   0  0  0  0  0  0  0  0  0  0  0  0
  -28.0836  -20.2382   22.5859 C   0  0  0  0  0  0  0  0  0  0  0  0
  -19.9614  -29.7541   24.7668 C   0  0  0  0  0  0  0  0  0  0  0  0
  -28.4235  -18.7749   22.2977 C   0  0  0  0  0  0  0  0  0  0  0  0
  -26.7675  -20.6514   21.9308 C   0  0  0  0  0  0  0  0  0  0  0  0
  -27.0262  -18.9219   20.1942 C   0  0  0  0  0  0  0  0  0  0  0  0
  -20.5956  -30.6274   23.6776 C   0  0  1  0  0  0  0  0  0  0  0  0
  -22.2074  -28.3513   21.0979 C   0  0  1  0  0  0  0  0  0  0  0  0
  -28.3730  -18.4744   20.7876 C   0  0  2  0  0  0  0  0  0  0  0  0
  -30.9922  -22.5326   20.2914 C   0  0  0  0  0  0  0  0  0  0  0  0
  -28.6297  -21.4888   16.0445 C   0  0  0  0  0  0  0  0  0  0  0  0
  -21.5019  -20.7134   19.4979 C   0  0  0  0  0  0  0  0  0  0  0  0
  -20.4399  -25.5686   24.3372 C   0  0  0  0  0  0  0  0  0  0  0  0
  -20.3110  -23.1448   23.7236 C   0  0  0  0  0  0  0  0  0  0  0  0
  -18.7149  -24.7725   22.7108 C   0  0  0  0  0  0  0  0  0  0  0  0
  -22.0473  -23.9463   17.5673 C   0  0  0  0  0  0  0  0  0  0  0  0
  -30.4596  -25.3784   20.8080 C   0  0  0  0  0  0  0  0  0  0  0  0
  -29.9393  -25.0701   22.2137 C   0  0  0  0  0  0  0  0  0  0  0  0
  -26.4135  -21.9395   17.1579 C   0  0  0  0  0  0  0  0  0  0  0  0
  -28.4882  -25.4860   22.4250 C   0  0  0  0  0  0  0  0  0  1  0  0
  -27.7486  -22.5759   16.6971 C   0  0  1  0  0  0  0  0  0  0  0  0
  -21.1341  -24.7879   21.9761 C   0  0  1  0  0  0  0  0  0  0  0  0
  -21.3567  -22.2005   19.2147 C   0  0  2  0  0  0  0  0  0  0  0  0
  -20.1735  -24.5835   23.1815 C   0  0  0  0  0  0  0  0  0  0  0  0
  -28.8464  -25.3188   18.9904 N   0  0  0  0  0  0  0  0  0  0  0  0
  -27.6423  -16.1488   20.4130 N   0  0  0  0  0  0  0  0  0  0  0  0
  -29.3643  -22.6052   18.5073 N   0  0  0  0  0  0  0  0  0  0  0  0
  -28.6671  -17.0142   20.4973 N   0  0  0  0  0  0  0  0  0  0  0  0
  -22.2544  -26.9279   21.4384 N   0  0  0  0  0  0  0  0  0  0  0  0
  -26.7852  -20.3410   20.4992 N   0  0  0  0  0  0  0  0  0  0  0  0
  -31.0263  -17.1679   20.3523 N   0  0  0  0  0  0  0  0  0  0  0  0
  -30.2197  -12.7875   19.6055 N   0  0  0  0  0  0  0  0  0  0  0  0
  -20.9156  -29.8300   22.5130 N   0  0  0  0  0  0  0  0  0  0  0  0
  -20.8873  -23.8865   20.8559 N   0  0  0  0  0  0  0  0  0  0  0  0
  -26.6099  -20.9919   18.2323 N   0  0  0  0  0  0  0  0  0  0  0  0
  -22.1218  -22.5201   17.9764 N   0  3  0  0  0  0  0  0  0  0  0  0
  -31.8669  -14.3719   19.7934 O   0  0  0  0  0  0  0  0  0  0  0  0
  -22.9894  -29.0388   23.2171 O   0  0  0  0  0  0  0  0  0  0  0  0
  -19.9938  -26.6065   20.9666 O   0  0  0  0  0  0  0  0  0  0  0  0
  -23.0043  -22.9410   20.8192 O   0  0  0  0  0  0  0  0  0  0  0  0
  -26.3644  -22.5423   19.9035 O   0  0  0  0  0  0  0  0  0  0  0  0
  -25.2222  -10.3274   19.5165 O   0  0  0  0  0  0  0  0  0  0  0  0
  -28.3762  -26.8902   22.1971 O   0  0  0  0  0  0  0  0  0  1  0  0
  -21.1905   -9.3636   23.1525 F   0  0  0  0  0  0  0  0  0  0  0  0
  -23.1317  -12.1105   19.8220 F   0  0  0  0  0  0  0  0  0  0  0  0
  1  2  1  0  0  0  0
  1  5  2  0  0  0  0
  2  6  2  0  0  0  0
  3  8  2  0  0  0  0
  3 16  1  0  0  0  0
  4  9  1  0  0  0  0
  4 16  2  0  0  0  0
  5 18  1  0  0  0  0
  6 20  1  0  0  0  0
  7 10  2  0  0  0  0
  7 19  1  0  0  0  0
  8 22  1  0  0  0  0
  9 22  2  0  0  0  0
 10 23  1  0  0  0  0
 11 12  2  0  0  0  0
 11 24  1  0  0  0  0
 12 25  1  0  0  0  0
 13 21  1  0  0  0  0
 13 23  2  0  0  0  0
 14 25  2  0  0  0  0
 14 26  1  0  0  0  0
 15 28  1  0  0  0  0
 15 64  2  0  0  0  0
 16 27  1  0  0  0  0
 17 27  1  0  0  0  0
 17 31  2  0  0  0  0
 17 32  1  0  0  0  0
 18 20  2  0  0  0  0
 18 37  1  0  0  0  0
 19 21  2  0  0  0  0
 19 38  1  0  0  0  0
 20 46  1  0  0  0  0
 21 39  1  0  0  0  0
 22 81  1  0  0  0  0
 23 82  1  0  0  0  0
 24 26  2  0  0  0  0
 24 81  1  0  0  0  0
 25 83  1  0  0  0  0
 26 84  1  0  0  0  0
 27 65  2  0  0  0  0
 28 60  1  0  0  0  0
 28 66  2  0  0  0  0
 29 30  2  0  0  0  0
 29 49  1  0  0  0  0
 29 66  1  0  0  0  0
 30 56  1  0  0  0  0
 30 64  1  0  0  0  0
 31 67  1  0  0  0  0
 31 70  1  0  0  0  0
 32 71  1  0  0  0  0
 32 76  2  0  0  0  0
 33 47  1  0  0  0  0
 33 72  1  0  0  0  0
 33 77  2  0  0  0  0
 34 61  1  0  0  0  0
 34 68  1  0  0  0  0
 34 78  2  0  0  0  0
 35 62  1  0  0  0  0
 35 73  1  0  0  0  0
 35 79  2  0  0  0  0
 36 69  1  0  0  0  0
 36 74  1  0  0  0  0
 36 80  2  0  0  0  0
 37 40  1  0  0  0  0
 38 47  1  0  0  0  0
 39 68  1  0  0  0  0
 40 42  1  0  0  0  0
 41 43  1  0  0  0  0
 41 44  1  0  0  0  0
 42 46  1  0  0  0  0
 43 48  1  0  0  0  0
 44 69  1  0  0  0  0
 45 48  1  0  0  0  0
 45 69  1  0  0  0  0
 46 72  1  0  0  0  0
 47 68  1  0  0  0  0
 48 67  1  0  0  0  0
 50 60  1  0  0  0  0
 51 62  1  0  0  0  0
 52 63  1  0  0  0  0
 53 63  1  0  0  0  0
 54 63  1  0  0  0  0
 55 75  1  0  0  0  0
 56 57  1  0  0  0  0
 57 59  1  0  0  0  0
 58 60  1  0  0  0  0
 58 74  1  0  0  0  0
 59 82  1  0  0  0  0
 61 63  1  0  0  0  0
 61 73  1  0  0  0  0
 62 75  1  0  0  0  0
 65 67  1  0  0  0  0
M  CHG  1  75   1
M  ISO  4  36 100  59 101  74 100  82 101
M  END
> <Batch ID>
0080

> <Smiles>
CNC(C)C(=O)NC(C(=O)N1Cc2cc([101O:1][101CH2:1]CCc3ncc(C(C)C[100NH:0][100C:0](=O)N4CCCC(n5nc(-c6ccc(Oc7ccc(F)cc7F)cc6)c(C(N)=O)c5N)C4)nc3C)ccc2CC1C(=O)NC1CCCc2ccccc21)C(C)(C)C

> <Shape>
0.244

> <Color>
0.083

> <Negative vol penalty>
0.000

$$$$

  -OEChem-04052318443D

 86 94  0     1  0  0  0  0  0999 V2000
  -19.2245  -16.3006   20.8118 C   0  0  0  0  0  0  0  0  0  0  0  0
  -20.2317  -17.2445   20.6388 C   0  0  0  0  0  0  0  0  0  0  0  0
  -24.6026  -30.7436   20.9929 C   0  0  0  0  0  0  0  0  0  0  0  0
  -24.7562  -29.4563   23.0316 C   0  0  0  0  0  0  0  0  0  0  0  0
  -19.4948  -15.1096   21.4844 C   0  0  0  0  0  0  0  0  0  0  0  0
  -21.5097  -16.9983   21.1394 C   0  0  0  0  0  0  0  0  0  0  0  0
  -26.8334  -18.7204   18.6497 C   0  0  0  0  0  0  0  0  0  0  0  0
  -23.8676  -31.7202   21.6649 C   0  0  0  0  0  0  0  0  0  0  0  0
  -24.0212  -30.4330   23.7037 C   0  0  0  0  0  0  0  0  0  0  0  0
  -27.6875  -19.7913   18.9095 C   0  0  0  0  0  0  0  0  0  0  0  0
  -22.2598  -34.7253   22.9295 C   0  0  0  0  0  0  0  0  0  0  0  0
  -22.6016  -36.0597   22.7102 C   0  0  0  0  0  0  0  0  0  0  0  0
  -29.0210  -18.3742   20.3351 C   0  0  0  0  0  0  0  0  0  0  0  0
  -24.8250  -35.6285   23.5515 C   0  0  0  0  0  0  0  0  0  0  0  0
  -27.5790  -24.4002   22.1820 C   0  0  0  0  0  0  0  0  0  0  0  0
  -25.0469  -29.6116   21.6763 C   0  0  0  0  0  0  0  0  0  0  0  0
  -27.2046  -28.5397   20.8379 C   0  0  0  0  0  0  0  0  0  0  0  0
  -20.7792  -14.8445   21.9851 C   0  0  0  0  0  0  0  0  0  0  0  0
  -27.0609  -17.4691   19.2403 C   0  0  0  0  0  0  0  0  0  0  0  0
  -21.7971  -15.8033   21.8205 C   0  0  0  0  0  0  0  0  0  0  0  0
  -28.1698  -17.2883   20.0792 C   0  0  0  0  0  0  0  0  0  0  0  0
  -23.5769  -31.5649   23.0203 C   0  0  0  0  0  0  0  0  0  0  0  0
  -28.7799  -19.6191   19.7545 C   0  0  0  0  0  0  0  0  0  0  0  0
  -23.2005  -33.8425   23.4599 C   0  0  0  0  0  0  0  0  0  0  0  0
  -23.8842  -36.5113   23.0211 C   0  0  0  0  0  0  0  0  0  0  0  0
  -24.4831  -34.2941   23.7708 C   0  0  0  0  0  0  0  0  0  0  0  0
  -25.8057  -28.6022   20.9825 C   0  0  0  0  0  0  0  0  0  0  0  0
  -26.8760  -24.6627   23.3731 C   0  0  0  0  0  0  0  0  0  0  0  0
  -27.4125  -23.0526   21.9750 C   0  0  0  0  0  0  0  0  0  0  0  0
  -27.4233  -27.4002   20.1029 C   0  0  0  0  0  0  0  0  0  0  0  0
  -28.2160  -29.4320   21.3245 C   0  0  0  0  0  0  0  0  0  0  0  0
  -25.4414  -15.6062   21.2429 C   0  0  0  0  0  0  0  0  0  0  0  0
  -27.8453  -13.5170   20.6272 C   0  0  0  0  0  0  0  0  0  0  0  0
  -31.0707  -13.0248   19.6268 C   0  0  0  0  0  0  0  0  0  0  0  0
  -24.2723  -22.3643   19.3533 C   0  0  0  0  0  0  0  0  0  0  0  0
  -21.0114  -13.5636   22.7466 C   0  0  0  0  0  0  0  0  0  0  0  0
  -26.1455  -16.3170   18.9288 C   0  0  0  0  0  0  0  0  0  0  0  0
  -28.4696  -15.9597   20.7221 C   0  0  0  0  0  0  0  0  0  0  0  0
  -22.4880  -13.2164   22.9187 C   0  0  0  0  0  0  0  0  0  0  0  0
  -25.3527  -24.6120   16.8122 C   0  0  0  0  0  0  0  0  0  0  0  0
  -23.2752  -14.4418   23.3722 C   0  0  0  0  0  0  0  0  0  0  0  0
  -25.7175  -25.8839   17.5798 C   0  0  0  0  0  0  0  0  0  0  0  0
  -24.1410  -23.9119   17.4235 C   0  0  0  0  0  0  0  0  0  0  0  0
  -24.6202  -24.8936   19.6326 C   0  0  0  0  0  0  0  0  0  0  0  0
  -23.2025  -15.5619   22.3274 C   0  0  1  0  0  0  0  0  0  0  0  0
  -26.1793  -15.2228   19.9914 C   0  0  1  0  0  0  0  0  0  0  0  0
  -25.8704  -25.6047   19.0871 C   0  0  2  0  0  0  0  0  0  0  0  0
  -26.7267  -25.9565   24.0604 C   0  0  0  0  0  0  0  0  0  0  0  0
  -30.5197  -23.5191   20.0833 C   0  0  0  0  0  0  0  0  0  0  0  0
  -32.7643  -11.2096   19.2603 C   0  0  0  0  0  0  0  0  0  0  0  0
  -24.2131  -19.7526   23.5990 C   0  0  0  0  0  0  0  0  0  0  0  0
  -28.2570  -13.2957   23.6424 C   0  0  0  0  0  0  0  0  0  0  0  0
  -30.4938  -12.2656   23.1911 C   0  0  0  0  0  0  0  0  0  0  0  0
  -28.4174  -11.1279   22.4057 C   0  0  0  0  0  0  0  0  0  0  0  0
  -29.3004  -20.6130   22.3868 C   0  0  0  0  0  0  0  0  0  0  0  0
  -31.3154  -13.6741   16.7498 C   0  0  0  0  0  0  0  0  0  0  0  0
  -27.9163  -22.1468   20.8729 C   0  0  0  0  0  0  0  0  0  0  0  0
  -30.4025  -22.5648   21.2667 C   0  0  0  0  0  0  0  0  0  0  0  0
  -26.2015  -21.2535   23.2441 C   0  0  0  0  0  0  0  0  0  0  0  0
  -24.4488  -20.9412   21.3788 C   0  0  0  0  0  0  0  0  0  0  0  0
  -29.1958  -13.2310   21.2382 C   0  0  1  0  0  0  0  0  0  0  0  0
  -31.6781  -12.0618   18.6227 C   0  0  2  0  0  0  0  0  0  0  0  0
  -24.7174  -21.0154   22.8913 C   0  0  1  0  0  0  0  0  0  0  0  0
  -29.0845  -12.5057   22.6089 C   0  0  0  0  0  0  0  0  0  0  0  0
  -29.2954  -21.4913   21.1275 C   0  0  1  0  0  0  0  0  0  1  0  0
  -25.1798  -27.5835   20.3871 N   0  0  0  0  0  0  0  0  0  0  0  0
  -26.3054  -23.5697   23.8867 N   0  0  0  0  0  0  0  0  0  0  0  0
  -26.6495  -22.6073   23.0140 N   0  0  0  0  0  0  0  0  0  0  0  0
  -26.1901  -26.8702   19.8611 N   0  0  0  0  0  0  0  0  0  0  0  0
  -27.5417  -14.8654   20.3916 N   0  0  0  0  0  0  0  0  0  0  0  0
  -24.3508  -23.6748   18.8537 N   0  0  0  0  0  0  0  0  0  0  0  0
  -28.5483  -26.8100   19.6463 N   0  0  0  0  0  0  0  0  0  0  0  0
  -27.8175  -30.5548   22.0626 N   0  0  0  0  0  0  0  0  0  0  0  0
  -24.0978  -15.2837   21.2250 N   0  0  0  0  0  0  0  0  0  0  0  0
  -29.9512  -12.4933   20.2314 N   0  0  0  0  0  0  0  0  0  0  0  0
  -24.4902  -22.2270   20.7187 N   0  0  0  0  0  0  0  0  0  0  0  0
  -32.2777  -12.8119   17.4830 N   0  3  0  0  0  0  0  0  0  0  0  0
  -29.4358  -29.2480   21.0971 O   0  0  0  0  0  0  0  0  0  0  0  0
  -26.0465  -16.1527   22.1577 O   0  0  0  0  0  0  0  0  0  0  0  0
  -27.0904  -12.5781   20.3620 O   0  0  0  0  0  0  0  0  0  0  0  0
  -31.5443  -14.1357   19.8549 O   0  0  0  0  0  0  0  0  0  0  0  0
  -24.0315  -21.3883   18.6347 O   0  0  0  0  0  0  0  0  0  0  0  0
  -22.8599  -32.5178   23.6764 O   0  0  0  0  0  0  0  0  0  0  0  0
  -29.6147  -20.6629   20.0103 O   0  0  0  0  0  0  0  0  0  1  0  0
  -24.2127  -37.7924   22.8090 F   0  0  0  0  0  0  0  0  0  0  0  0
  -25.3915  -33.4504   24.2795 F   0  0  0  0  0  0  0  0  0  0  0  0
  1  2  1  0  0  0  0
  1  5  2  0  0  0  0
  2  6  2  0  0  0  0
  3  8  2  0  0  0  0
  3 16  1  0  0  0  0
  4  9  1  0  0  0  0
  4 16  2  0  0  0  0
  5 18  1  0  0  0  0
  6 20  1  0  0  0  0
  7 10  2  0  0  0  0
  7 19  1  0  0  0  0
  8 22  1  0  0  0  0
  9 22  2  0  0  0  0
 10 23  1  0  0  0  0
 11 12  2  0  0  0  0
 11 24  1  0  0  0  0
 12 25  1  0  0  0  0
 13 21  1  0  0  0  0
 13 23  2  0  0  0  0
 14 25  2  0  0  0  0
 14 26  1  0  0  0  0
 15 28  1  0  0  0  0
 15 29  2  0  0  0  0
 16 27  1  0  0  0  0
 17 27  1  0  0  0  0
 17 30  2  0  0  0  0
 17 31  1  0  0  0  0
 18 20  2  0  0  0  0
 18 36  1  0  0  0  0
 19 21  2  0  0  0  0
 19 37  1  0  0  0  0
 20 45  1  0  0  0  0
 21 38  1  0  0  0  0
 22 83  1  0  0  0  0
 23 84  1  0  0  0  0
 24 26  2  0  0  0  0
 24 83  1  0  0  0  0
 25 85  1  0  0  0  0
 26 86  1  0  0  0  0
 27 66  2  0  0  0  0
 28 48  1  0  0  0  0
 28 67  2  0  0  0  0
 29 57  1  0  0  0  0
 29 68  1  0  0  0  0
 30 69  1  0  0  0  0
 30 72  1  0  0  0  0
 31 73  1  0  0  0  0
 31 78  2  0  0  0  0
 32 46  1  0  0  0  0
 32 74  1  0  0  0  0
 32 79  2  0  0  0  0
 33 61  1  0  0  0  0
 33 70  1  0  0  0  0
 33 80  2  0  0  0  0
 34 62  1  0  0  0  0
 34 75  1  0  0  0  0
 34 81  2  0  0  0  0
 35 71  1  0  0  0  0
 35 76  1  0  0  0  0
 35 82  2  0  0  0  0
 36 39  1  0  0  0  0
 37 46  1  0  0  0  0
 38 70  1  0  0  0  0
 39 41  1  0  0  0  0
 40 42  1  0  0  0  0
 40 43  1  0  0  0  0
 41 45  1  0  0  0  0
 42 47  1  0  0  0  0
 43 71  1  0  0  0  0
 44 47  1  0  0  0  0
 44 71  1  0  0  0  0
 45 74  1  0  0  0  0
 46 70  1  0  0  0  0
 47 69  1  0  0  0  0
 49 58  1  0  0  0  0
 50 62  1  0  0  0  0
 51 63  1  0  0  0  0
 52 64  1  0  0  0  0
 53 64  1  0  0  0  0
 54 64  1  0  0  0  0
 55 65  1  0  0  0  0
 56 77  1  0  0  0  0
 57 65  1  0  0  0  0
 58 65  1  0  0  0  0
 59 63  1  0  0  0  0
 59 68  1  0  0  0  0
 60 63  1  0  0  0  0
 60 76  1  0  0  0  0
 61 64  1  0  0  0  0
 61 75  1  0  0  0  0
 62 77  1  0  0  0  0
 65 84  1  0  0  0  0
 66 69  1  0  0  0  0
 67 68  1  0  0  0  0
M  CHG  1  77   1
M  ISO  4  35 100  65 101  76 100  84 101
M  END
> <Batch ID>
0080

> <Smiles>
CC[101C:1](C)(Cc1cc(C)nn1CC(C)C[100NH:0][100C:0](=O)N1CCCC(n2nc(-c3ccc(Oc4ccc(F)cc4F)cc3)c(C(N)=O)c2N)C1)[101O:1]c1ccc2c(c1)CN(C(=O)C(NC(=O)C(C)NC)C(C)(C)C)C(C(=O)NC1CCCc3ccccc31)C2

> <Shape>
0.240

> <Color>
0.074

> <Negative vol penalty>
0.000

$$$$

  -OEChem-04052318443D

 81 88  0     1  0  0  0  0  0999 V2000
  -32.4308  -31.5629   22.1528 C   0  0  0  0  0  0  0  0  0  0  0  0
  -32.8952  -30.4542   21.4524 C   0  0  0  0  0  0  0  0  0  0  0  0
  -23.0738   -9.8778   19.9548 C   0  0  0  0  0  0  0  0  0  0  0  0
  -23.7527   -9.9497   22.2724 C   0  0  0  0  0  0  0  0  0  0  0  0
  -32.1140  -31.4487   23.5058 C   0  0  0  0  0  0  0  0  0  0  0  0
  -33.0443  -29.2309   22.1050 C   0  0  0  0  0  0  0  0  0  0  0  0
  -32.1372  -23.6583   19.7324 C   0  0  0  0  0  0  0  0  0  0  0  0
  -22.3248   -8.7292   20.2098 C   0  0  0  0  0  0  0  0  0  0  0  0
  -23.0036   -8.8010   22.5274 C   0  0  0  0  0  0  0  0  0  0  0  0
  -33.0133  -22.7055   19.2142 C   0  0  0  0  0  0  0  0  0  0  0  0
  -23.3230   -5.4662   22.0711 C   0  0  0  0  0  0  0  0  0  0  0  0
  -23.9157   -4.4630   22.8377 C   0  0  0  0  0  0  0  0  0  0  0  0
  -33.0546  -21.5894   21.3523 C   0  0  0  0  0  0  0  0  0  0  0  0
  -22.1549   -4.6764   24.4782 C   0  0  0  0  0  0  0  0  0  0  0  0
  -23.7878  -10.4881   20.9861 C   0  0  0  0  0  0  0  0  0  0  0  0
  -24.1267  -13.0103   20.8096 C   0  0  0  0  0  0  0  0  0  0  0  0
  -32.2501  -30.2211   24.1729 C   0  0  0  0  0  0  0  0  0  0  0  0
  -31.7212  -23.5899   21.0698 C   0  0  0  0  0  0  0  0  0  0  0  0
  -32.7303  -29.1006   23.4685 C   0  0  0  0  0  0  0  0  0  0  0  0
  -32.1712  -22.5411   21.8844 C   0  0  0  0  0  0  0  0  0  0  0  0
  -22.2896   -8.1907   21.4961 C   0  0  0  0  0  0  0  0  0  0  0  0
  -33.4743  -21.6725   20.0250 C   0  0  0  0  0  0  0  0  0  0  0  0
  -22.1462   -6.0747   22.5080 C   0  0  0  0  0  0  0  0  0  0  0  0
  -23.3316   -4.0681   24.0413 C   0  0  0  0  0  0  0  0  0  0  0  0
  -21.5622   -5.6797   23.7116 C   0  0  0  0  0  0  0  0  0  0  0  0
  -24.5622  -11.6744   20.7232 C   0  0  0  0  0  0  0  0  0  0  0  0
  -25.2289  -13.7537   20.4646 C   0  0  0  0  0  0  0  0  0  0  0  0
  -22.8409  -13.5326   21.1695 C   0  0  0  0  0  0  0  0  0  0  0  0
  -32.4659  -17.5777   18.1524 C   0  0  0  0  0  0  0  0  0  0  0  0
  -33.6570  -18.0163   18.6323 C   0  0  0  0  0  0  0  0  0  0  0  0
  -32.0150  -25.4782   23.6098 C   0  0  0  0  0  0  0  0  0  0  0  0
  -30.0510  -23.2892   24.9785 C   0  0  0  0  0  0  0  0  0  0  0  0
  -28.8428  -20.0976   25.0067 C   0  0  0  0  0  0  0  0  0  0  0  0
  -30.8078  -14.5036   21.2590 C   0  0  0  0  0  0  0  0  0  0  0  0
  -31.9401  -30.1579   25.6476 C   0  0  0  0  0  0  0  0  0  0  0  0
  -30.7549  -24.6102   21.6061 C   0  0  0  0  0  0  0  0  0  0  0  0
  -31.7386  -22.4112   23.3212 C   0  0  0  0  0  0  0  0  0  0  0  0
  -31.7701  -28.7351   26.1739 C   0  0  0  0  0  0  0  0  0  0  0  0
  -29.6531  -12.3783   18.4570 C   0  0  0  0  0  0  0  0  0  0  0  0
  -32.8960  -27.8400   25.6660 C   0  0  0  0  0  0  0  0  0  0  0  0
  -28.2109  -12.0630   18.8504 C   0  0  0  0  0  0  0  0  0  0  0  0
  -30.5325  -12.6281   19.6784 C   0  0  0  0  0  0  0  0  0  0  0  0
  -28.5671  -13.3643   20.9859 C   0  0  0  0  0  0  0  0  0  0  0  0
  -32.8818  -27.7505   24.1352 C   0  0  1  0  0  0  0  0  0  0  0  0
  -30.8014  -24.7363   23.1258 C   0  0  1  0  0  0  0  0  0  0  0  0
  -27.6440  -13.1532   19.7764 C   0  0  2  0  0  0  0  0  0  0  0  0
  -31.9257  -17.9380   16.7878 C   0  0  0  0  0  0  0  0  0  0  0  0
  -34.2071  -17.6276   19.9852 C   0  0  0  0  0  0  0  0  0  0  0  0
  -27.2777  -18.5949   26.2675 C   0  0  0  0  0  0  0  0  0  0  0  0
  -32.1103  -23.0243   27.2143 C   0  0  0  0  0  0  0  0  0  0  0  0
  -30.9878  -20.8944   27.9011 C   0  0  0  0  0  0  0  0  0  0  0  0
  -29.7312  -23.0477   27.9847 C   0  0  0  0  0  0  0  0  0  0  0  0
  -30.8054  -16.4822   22.7303 C   0  0  0  0  0  0  0  0  0  0  0  0
  -27.1454  -19.6702   22.6203 C   0  0  0  0  0  0  0  0  0  0  0  0
  -31.5213  -16.6877   18.9430 C   0  0  0  0  0  0  0  0  0  0  0  0
  -34.5594  -18.9779   17.8728 C   0  0  0  0  0  0  0  0  0  0  0  0
  -30.5010  -17.5012   19.7485 C   0  0  0  0  0  0  0  0  0  0  0  0
  -29.5861  -16.6161   20.5899 C   0  0  0  0  0  0  0  0  0  0  0  0
  -34.2258  -20.4451   18.1316 C   0  0  0  0  0  0  0  0  0  1  0  0
  -30.2516  -22.0026   25.7422 C   0  0  1  0  0  0  0  0  0  0  0  0
  -27.4272  -19.5573   25.0995 C   0  0  2  0  0  0  0  0  0  0  0  0
  -30.7801  -22.2455   27.1841 C   0  0  0  0  0  0  0  0  0  0  0  0
  -25.8412  -11.5719   20.3523 N   0  0  0  0  0  0  0  0  0  0  0  0
  -26.2189  -12.8529   20.2024 N   0  0  0  0  0  0  0  0  0  0  0  0
  -30.7978  -23.4370   23.8010 N   0  0  0  0  0  0  0  0  0  0  0  0
  -29.9489  -13.6372   20.5630 N   0  0  0  0  0  0  0  0  0  0  0  0
  -25.4381  -15.0835   20.3628 N   0  0  0  0  0  0  0  0  0  0  0  0
  -21.8203  -12.6292   21.4957 N   0  0  0  0  0  0  0  0  0  0  0  0
  -31.8423  -26.8468   23.6913 N   0  0  0  0  0  0  0  0  0  0  0  0
  -28.9794  -21.2908   25.6841 N   0  0  0  0  0  0  0  0  0  0  0  0
  -30.3260  -15.7906   21.5421 N   0  0  0  0  0  0  0  0  0  0  0  0
  -27.0650  -18.8358   23.8468 N   0  3  0  0  0  0  0  0  0  0  0  0
  -22.5994  -14.7634   21.1851 O   0  0  0  0  0  0  0  0  0  0  0  0
  -33.0323  -24.8551   23.8899 O   0  0  0  0  0  0  0  0  0  0  0  0
  -29.2556  -24.1291   25.4069 O   0  0  0  0  0  0  0  0  0  0  0  0
  -29.7387  -19.5173   24.3976 O   0  0  0  0  0  0  0  0  0  0  0  0
  -31.9442  -14.1503   21.5991 O   0  0  0  0  0  0  0  0  0  0  0  0
  -21.5586   -7.0700   21.7453 O   0  0  0  0  0  0  0  0  0  0  0  0
  -34.3363  -20.7347   19.5181 O   0  0  0  0  0  0  0  0  0  1  0  0
  -23.9001   -3.1036   24.7767 F   0  0  0  0  0  0  0  0  0  0  0  0
  -20.4311   -6.2597   24.1359 F   0  0  0  0  0  0  0  0  0  0  0  0
  1  2  1  0  0  0  0
  1  5  2  0  0  0  0
  2  6  2  0  0  0  0
  3  8  2  0  0  0  0
  3 15  1  0  0  0  0
  4  9  1  0  0  0  0
  4 15  2  0  0  0  0
  5 17  1  0  0  0  0
  6 19  1  0  0  0  0
  7 10  2  0  0  0  0
  7 18  1  0  0  0  0
  8 21  1  0  0  0  0
  9 21  2  0  0  0  0
 10 22  1  0  0  0  0
 11 12  2  0  0  0  0
 11 23  1  0  0  0  0
 12 24  1  0  0  0  0
 13 20  1  0  0  0  0
 13 22  2  0  0  0  0
 14 24  2  0  0  0  0
 14 25  1  0  0  0  0
 15 26  1  0  0  0  0
 16 26  1  0  0  0  0
 16 27  2  0  0  0  0
 16 28  1  0  0  0  0
 17 19  2  0  0  0  0
 17 35  1  0  0  0  0
 18 20  2  0  0  0  0
 18 36  1  0  0  0  0
 19 44  1  0  0  0  0
 20 37  1  0  0  0  0
 21 78  1  0  0  0  0
 22 79  1  0  0  0  0
 23 25  2  0  0  0  0
 23 78  1  0  0  0  0
 24 80  1  0  0  0  0
 25 81  1  0  0  0  0
 26 63  2  0  0  0  0
 27 64  1  0  0  0  0
 27 67  1  0  0  0  0
 28 68  1  0  0  0  0
 28 73  2  0  0  0  0
 29 30  2  0  0  0  0
 29 47  1  0  0  0  0
 29 55  1  0  0  0  0
 30 48  1  0  0  0  0
 30 56  1  0  0  0  0
 31 45  1  0  0  0  0
 31 69  1  0  0  0  0
 31 74  2  0  0  0  0
 32 60  1  0  0  0  0
 32 65  1  0  0  0  0
 32 75  2  0  0  0  0
 33 61  1  0  0  0  0
 33 70  1  0  0  0  0
 33 76  2  0  0  0  0
 34 66  1  0  0  0  0
 34 71  1  0  0  0  0
 34 77  2  0  0  0  0
 35 38  1  0  0  0  0
 36 45  1  0  0  0  0
 37 65  1  0  0  0  0
 38 40  1  0  0  0  0
 39 41  1  0  0  0  0
 39 42  1  0  0  0  0
 40 44  1  0  0  0  0
 41 46  1  0  0  0  0
 42 66  1  0  0  0  0
 43 46  1  0  0  0  0
 43 66  1  0  0  0  0
 44 69  1  0  0  0  0
 45 65  1  0  0  0  0
 46 64  1  0  0  0  0
 49 61  1  0  0  0  0
 50 62  1  0  0  0  0
 51 62  1  0  0  0  0
 52 62  1  0  0  0  0
 53 71  1  0  0  0  0
 54 72  1  0  0  0  0
 55 57  1  0  0  0  0
 56 59  1  0  0  0  0
 57 58  1  0  0  0  0
 58 71  1  0  0  0  0
 59 79  1  0  0  0  0
 60 62  1  0  0  0  0
 60 70  1  0  0  0  0
 61 72  1  0  0  0  0
 63 64  1  0  0  0  0
M  CHG  1  72   1
M  ISO  4  34 100  59 101  71 100  79 101
M  END
> <Batch ID>
0080

> <Smiles>
CNC(C)C(=O)NC(C(=O)N1Cc2cc([101O:1][101CH2:1]CC(C)=C(C)CCC[100N:0](C)[100C:0](=O)N3CCCC(n4nc(-c5ccc(Oc6ccc(F)cc6F)cc5)c(C(N)=O)c4N)C3)ccc2CC1C(=O)NC1CCCc2ccccc21)C(C)(C)C

> <Shape>
0.181

> <Color>
0.185

> <Negative vol penalty>
0.000

$$$$

  -OEChem-04052318443D

 86 94  0     1  0  0  0  0  0999 V2000
  -19.8628  -24.7847   24.3502 C   0  0  0  0  0  0  0  0  0  0  0  0
  -21.1658  -24.9312   23.8856 C   0  0  0  0  0  0  0  0  0  0  0  0
  -28.4414  -14.5045   20.5813 C   0  0  0  0  0  0  0  0  0  0  0  0
  -26.3799  -15.7524   20.7541 C   0  0  0  0  0  0  0  0  0  0  0  0
  -18.8927  -25.7269   24.0109 C   0  0  0  0  0  0  0  0  0  0  0  0
  -21.4994  -26.0196   23.0803 C   0  0  0  0  0  0  0  0  0  0  0  0
  -26.8235  -29.0450   22.9999 C   0  0  0  0  0  0  0  0  0  0  0  0
  -27.7215  -13.3103   20.6167 C   0  0  0  0  0  0  0  0  0  0  0  0
  -25.6600  -14.5583   20.7895 C   0  0  0  0  0  0  0  0  0  0  0  0
  -27.9354  -28.9649   22.1626 C   0  0  0  0  0  0  0  0  0  0  0  0
  -26.3995   -9.9390   20.2982 C   0  0  0  0  0  0  0  0  0  0  0  0
  -26.7459   -8.9454   19.3825 C   0  0  0  0  0  0  0  0  0  0  0  0
  -27.0785  -30.8048   20.8588 C   0  0  0  0  0  0  0  0  0  0  0  0
  -26.2352  -10.4470   17.5600 C   0  0  0  0  0  0  0  0  0  0  0  0
  -28.9839  -25.7619   17.6443 C   0  0  0  0  0  0  0  0  0  0  0  0
  -27.7706  -15.7256   20.6500 C   0  0  0  0  0  0  0  0  0  0  0  0
  -28.8692  -17.7048   19.4739 C   0  0  0  0  0  0  0  0  0  0  0  0
  -19.2168  -26.8326   23.2090 C   0  0  0  0  0  0  0  0  0  0  0  0
  -25.8238  -30.0002   22.7661 C   0  0  0  0  0  0  0  0  0  0  0  0
  -20.5325  -26.9768   22.7287 C   0  0  0  0  0  0  0  0  0  0  0  0
  -25.9563  -30.8967   21.6962 C   0  0  0  0  0  0  0  0  0  0  0  0
  -26.3308  -13.3372   20.7208 C   0  0  0  0  0  0  0  0  0  0  0  0
  -28.0616  -29.8429   21.0901 C   0  0  0  0  0  0  0  0  0  0  0  0
  -25.9708  -11.1865   19.8448 C   0  0  0  0  0  0  0  0  0  0  0  0
  -26.6638   -9.1995   18.0134 C   0  0  0  0  0  0  0  0  0  0  0  0
  -25.8887  -11.4406   18.4757 C   0  0  0  0  0  0  0  0  0  0  0  0
  -28.5138  -16.9595   20.6141 C   0  0  0  0  0  0  0  0  0  0  0  0
  -28.4195  -24.5564   17.9525 C   0  0  0  0  0  0  0  0  0  0  0  0
  -29.5620  -18.7820   19.9702 C   0  0  0  0  0  0  0  0  0  0  0  0
  -30.2353  -24.7983   19.1954 C   0  0  0  0  0  0  0  0  0  0  0  0
  -28.5974  -17.4466   18.0900 C   0  0  0  0  0  0  0  0  0  0  0  0
  -22.7237  -29.8792   22.0745 C   0  0  0  0  0  0  0  0  0  0  0  0
  -22.9162  -33.0974   22.4331 C   0  0  0  0  0  0  0  0  0  0  0  0
  -24.8526  -35.9071   22.3854 C   0  0  0  0  0  0  0  0  0  0  0  0
  -30.1361  -22.9067   23.6854 C   0  0  0  0  0  0  0  0  0  0  0  0
  -18.1234  -27.7996   22.8295 C   0  0  0  0  0  0  0  0  0  0  0  0
  -24.6438  -30.0911   23.6945 C   0  0  0  0  0  0  0  0  0  0  0  0
  -24.9209  -31.9535   21.4142 C   0  0  0  0  0  0  0  0  0  0  0  0
  -18.6456  -29.1248   22.2808 C   0  0  0  0  0  0  0  0  0  0  0  0
  -31.3498  -19.6909   24.6139 C   0  0  0  0  0  0  0  0  0  0  0  0
  -19.7404  -28.8803   21.2471 C   0  0  0  0  0  0  0  0  0  0  0  0
  -30.7446  -18.7550   23.5662 C   0  0  0  0  0  0  0  0  0  0  0  0
  -30.3872  -20.8155   24.9893 C   0  0  0  0  0  0  0  0  0  0  0  0
  -29.2647  -20.6584   22.8009 C   0  0  0  0  0  0  0  0  0  0  0  0
  -20.9389  -28.1572   21.8734 C   0  0  1  0  0  0  0  0  0  0  0  0
  -23.4332  -30.7667   23.0577 C   0  0  1  0  0  0  0  0  0  0  0  0
  -30.2197  -19.5403   22.3492 C   0  0  2  0  0  0  0  0  0  0  0  0
  -24.7206  -38.3958   22.6796 C   0  0  0  0  0  0  0  0  0  0  0  0
  -27.2973  -23.6338   15.8944 C   0  0  0  0  0  0  0  0  0  0  0  0
  -25.9207  -24.7388   17.6889 C   0  0  0  0  0  0  0  0  0  0  0  0
  -26.8878  -22.4782   18.0575 C   0  0  0  0  0  0  0  0  0  0  0  0
  -21.6579  -33.3554   19.6654 C   0  0  0  0  0  0  0  0  0  0  0  0
  -22.4161  -35.7411   19.6197 C   0  0  0  0  0  0  0  0  0  0  0  0
  -20.7967  -34.9820   21.3587 C   0  0  0  0  0  0  0  0  0  0  0  0
  -26.7191  -35.8513   24.6815 C   0  0  0  0  0  0  0  0  0  0  0  0
  -31.3082  -24.5273   20.1844 C   0  0  0  0  0  0  0  0  0  0  0  0
  -31.1306  -25.2430   21.5415 C   0  0  0  0  0  0  0  0  0  0  0  0
  -30.3507  -28.4025   18.7077 C   0  0  0  0  0  0  0  0  0  0  0  0
  -31.0419  -27.0675   18.4218 C   0  0  0  0  0  0  0  0  0  0  0  0
  -29.8228  -24.9120   22.2572 C   0  0  0  0  0  0  0  0  0  0  0  0
  -29.7440  -28.4818   20.1037 C   0  0  0  0  0  0  0  0  0  1  0  0
  -23.2143  -34.2593   21.5165 C   0  0  1  0  0  0  0  0  0  0  0  0
  -24.9768  -37.0617   23.3632 C   0  0  2  0  0  0  0  0  0  0  0  0
  -27.2185  -23.8908   17.4412 C   0  0  0  0  0  0  0  0  0  0  0  0
  -22.0400  -34.5634   20.5440 C   0  0  0  0  0  0  0  0  0  0  0  0
  -28.9453  -17.5159   21.7490 N   0  0  0  0  0  0  0  0  0  0  0  0
  -30.1055  -25.8857   18.4285 N   0  0  0  0  0  0  0  0  0  0  0  0
  -29.5790  -18.6224   21.3246 N   0  0  0  0  0  0  0  0  0  0  0  0
  -29.2146  -23.9817   18.9145 N   0  3  0  0  0  0  0  0  0  0  0  0
  -23.7823  -31.9982   22.3465 N   0  0  0  0  0  0  0  0  0  0  0  0
  -29.9280  -21.5216   23.7907 N   0  0  0  0  0  0  0  0  0  0  0  0
  -30.1522  -19.8407   19.3757 N   0  0  0  0  0  0  0  0  0  0  0  0
  -27.8728  -16.2946   17.7551 N   0  0  0  0  0  0  0  0  0  0  0  0
  -21.7446  -29.0841   22.6391 N   0  0  0  0  0  0  0  0  0  0  0  0
  -23.5798  -35.3770   22.3800 N   0  0  0  0  0  0  0  0  0  0  0  0
  -29.6761  -23.4967   22.5145 N   0  0  0  0  0  0  0  0  0  0  0  0
  -26.3432  -37.0927   23.9572 N   0  3  0  0  0  0  0  0  0  0  0  0
  -28.9998  -18.2062   17.1764 O   0  0  0  0  0  0  0  0  0  0  0  0
  -23.0399  -29.9144   20.8911 O   0  0  0  0  0  0  0  0  0  0  0  0
  -21.9546  -33.1656   23.2028 O   0  0  0  0  0  0  0  0  0  0  0  0
  -25.7900  -35.5172   21.6927 O   0  0  0  0  0  0  0  0  0  0  0  0
  -30.6954  -23.5676   24.5670 O   0  0  0  0  0  0  0  0  0  0  0  0
  -25.6279  -12.1721   20.7551 O   0  0  0  0  0  0  0  0  0  0  0  0
  -29.1455  -29.7665   20.2709 O   0  0  0  0  0  0  0  0  0  1  0  0
  -26.9981   -8.2458   17.1342 F   0  0  0  0  0  0  0  0  0  0  0  0
  -25.4787  -12.6375   18.0341 F   0  0  0  0  0  0  0  0  0  0  0  0
  1  2  1  0  0  0  0
  1  5  2  0  0  0  0
  2  6  2  0  0  0  0
  3  8  2  0  0  0  0
  3 16  1  0  0  0  0
  4  9  1  0  0  0  0
  4 16  2  0  0  0  0
  5 18  1  0  0  0  0
  6 20  1  0  0  0  0
  7 10  2  0  0  0  0
  7 19  1  0  0  0  0
  8 22  1  0  0  0  0
  9 22  2  0  0  0  0
 10 23  1  0  0  0  0
 11 12  2  0  0  0  0
 11 24  1  0  0  0  0
 12 25  1  0  0  0  0
 13 21  1  0  0  0  0
 13 23  2  0  0  0  0
 14 25  2  0  0  0  0
 14 26  1  0  0  0  0
 15 28  2  0  0  0  0
 15 67  1  0  0  0  0
 16 27  1  0  0  0  0
 17 27  1  0  0  0  0
 17 29  2  0  0  0  0
 17 31  1  0  0  0  0
 18 20  2  0  0  0  0
 18 36  1  0  0  0  0
 19 21  2  0  0  0  0
 19 37  1  0  0  0  0
 20 45  1  0  0  0  0
 21 38  1  0  0  0  0
 22 83  1  0  0  0  0
 23 84  1  0  0  0  0
 24 26  2  0  0  0  0
 24 83  1  0  0  0  0
 25 85  1  0  0  0  0
 26 86  1  0  0  0  0
 27 66  2  0  0  0  0
 28 64  1  0  0  0  0
 28 69  1  0  0  0  0
 29 68  1  0  0  0  0
 29 72  1  0  0  0  0
 30 56  1  0  0  0  0
 30 67  1  0  0  0  0
 30 69  2  0  0  0  0
 31 73  1  0  0  0  0
 31 78  2  0  0  0  0
 32 46  1  0  0  0  0
 32 74  1  0  0  0  0
 32 79  2  0  0  0  0
 33 62  1  0  0  0  0
 33 70  1  0  0  0  0
 33 80  2  0  0  0  0
 34 63  1  0  0  0  0
 34 75  1  0  0  0  0
 34 81  2  0  0  0  0
 35 71  1  0  0  0  0
 35 76  1  0  0  0  0
 35 82  2  0  0  0  0
 36 39  1  0  0  0  0
 37 46  1  0  0  0  0
 38 70  1  0  0  0  0
 39 41  1  0  0  0  0
 40 42  1  0  0  0  0
 40 43  1  0  0  0  0
 41 45  1  0  0  0  0
 42 47  1  0  0  0  0
 43 71  1  0  0  0  0
 44 47  1  0  0  0  0
 44 71  1  0  0  0  0
 45 74  1  0  0  0  0
 46 70  1  0  0  0  0
 47 68  1  0  0  0  0
 48 63  1  0  0  0  0
 49 64  1  0  0  0  0
 50 64  1  0  0  0  0
 51 64  1  0  0  0  0
 52 65  1  0  0  0  0
 53 65  1  0  0  0  0
 54 65  1  0  0  0  0
 55 77  1  0  0  0  0
 56 57  1  0  0  0  0
 57 60  1  0  0  0  0
 58 59  1  0  0  0  0
 58 61  1  0  0  0  0
 59 67  1  0  0  0  0
 60 76  1  0  0  0  0
 61 84  1  0  0  0  0
 62 65  1  0  0  0  0
 62 75  1  0  0  0  0
 63 77  1  0  0  0  0
 66 68  1  0  0  0  0
M  CHG  2  69   1  77   1
M  ISO  4  35 100  61 101  76 100  84 101
M  END
> <Batch ID>
0080

> <Smiles>
CNC(C)C(=O)NC(C(=O)N1Cc2cc([101O:1][101CH2:1]CCn3cc(C(C)(C)C)nc3CCC[100NH:0][100C:0](=O)N3CCCC(n4nc(-c5ccc(Oc6ccc(F)cc6F)cc5)c(C(N)=O)c4N)C3)ccc2CC1C(=O)NC1CCCc2ccccc21)C(C)(C)C

> <Shape>
0.268

> <Color>
0.090

> <Negative vol penalty>
0.000

$$$$

  -OEChem-04052318443D

 82 90  0     1  0  0  0  0  0999 V2000
  -37.8991  -20.7737   20.4991 C   0  0  0  0  0  0  0  0  0  0  0  0
  -36.5330  -21.0159   20.3968 C   0  0  0  0  0  0  0  0  0  0  0  0
  -23.0726   -9.8701   19.9434 C   0  0  0  0  0  0  0  0  0  0  0  0
  -23.8346   -9.8790   22.2360 C   0  0  0  0  0  0  0  0  0  0  0  0
  -38.3906  -19.9888   21.5414 C   0  0  0  0  0  0  0  0  0  0  0  0
  -35.6574  -20.4723   21.3360 C   0  0  0  0  0  0  0  0  0  0  0  0
  -30.5173  -23.0173   23.4827 C   0  0  0  0  0  0  0  0  0  0  0  0
  -22.3290   -8.7171   20.1950 C   0  0  0  0  0  0  0  0  0  0  0  0
  -23.0910   -8.7261   22.4877 C   0  0  0  0  0  0  0  0  0  0  0  0
  -29.1746  -22.8431   23.1501 C   0  0  0  0  0  0  0  0  0  0  0  0
  -19.3822   -7.9216   21.6497 C   0  0  0  0  0  0  0  0  0  0  0  0
  -18.0748   -7.8749   21.1657 C   0  0  0  0  0  0  0  0  0  0  0  0
  -28.2805  -18.3371   19.6360 C   0  0  0  0  0  0  0  0  0  0  0  0
  -28.9362  -21.2688   24.9623 C   0  0  0  0  0  0  0  0  0  0  0  0
  -18.6334   -5.9307   19.8446 C   0  0  0  0  0  0  0  0  0  0  0  0
  -27.0133  -18.7516   19.9816 C   0  0  0  0  0  0  0  0  0  0  0  0
  -28.2787  -18.8610   21.8258 C   0  0  0  0  0  0  0  0  0  0  0  0
  -23.8255  -10.4510   20.9639 C   0  0  0  0  0  0  0  0  0  0  0  0
  -24.1671  -12.9761   20.8414 C   0  0  0  0  0  0  0  0  0  0  0  0
  -37.5216  -19.4433   22.4994 C   0  0  0  0  0  0  0  0  0  0  0  0
  -31.0832  -22.3091   24.5526 C   0  0  0  0  0  0  0  0  0  0  0  0
  -36.1376  -19.6782   22.3913 C   0  0  0  0  0  0  0  0  0  0  0  0
  -30.2856  -21.4377   25.3080 C   0  0  0  0  0  0  0  0  0  0  0  0
  -29.0812  -18.4064   20.8027 C   0  0  0  0  0  0  0  0  0  0  0  0
  -22.3382   -8.1451   21.4672 C   0  0  0  0  0  0  0  0  0  0  0  0
  -28.3845  -21.9666   23.8881 C   0  0  0  0  0  0  0  0  0  0  0  0
  -20.3152   -6.9729   21.2311 C   0  0  0  0  0  0  0  0  0  0  0  0
  -17.7004   -6.8795   20.2632 C   0  0  0  0  0  0  0  0  0  0  0  0
  -19.9408   -5.9775   20.3286 C   0  0  0  0  0  0  0  0  0  0  0  0
  -24.5943  -11.6417   20.7044 C   0  0  0  0  0  0  0  0  0  0  0  0
  -25.2589  -13.7253   20.4765 C   0  0  0  0  0  0  0  0  0  0  0  0
  -22.8970  -13.4922   21.2610 C   0  0  0  0  0  0  0  0  0  0  0  0
  -33.4173  -20.1710   24.8428 C   0  0  0  0  0  0  0  0  0  0  0  0
  -32.8396  -20.5477   28.0125 C   0  0  0  0  0  0  0  0  0  0  0  0
  -30.6488  -21.4413   30.4719 C   0  0  0  0  0  0  0  0  0  0  0  0
  -30.7428  -14.7447   20.6589 C   0  0  0  0  0  0  0  0  0  0  0  0
  -38.0946  -18.5621   23.5810 C   0  0  0  0  0  0  0  0  0  0  0  0
  -32.5264  -22.5283   24.9153 C   0  0  0  0  0  0  0  0  0  0  0  0
  -30.8400  -20.6691   26.4787 C   0  0  0  0  0  0  0  0  0  0  0  0
  -37.1393  -18.3327   24.7494 C   0  0  0  0  0  0  0  0  0  0  0  0
  -29.6031  -12.3581   18.2752 C   0  0  0  0  0  0  0  0  0  0  0  0
  -35.7457  -17.9811   24.2385 C   0  0  0  0  0  0  0  0  0  0  0  0
  -28.1660  -12.0647   18.7097 C   0  0  0  0  0  0  0  0  0  0  0  0
  -30.5213  -12.5800   19.4751 C   0  0  0  0  0  0  0  0  0  0  0  0
  -28.6208  -13.3122   20.8628 C   0  0  0  0  0  0  0  0  0  0  0  0
  -35.1586  -19.1265   23.4049 C   0  0  1  0  0  0  0  0  0  0  0  0
  -33.1274  -21.3683   25.7031 C   0  0  1  0  0  0  0  0  0  0  0  0
  -27.6456  -13.1366   19.6862 C   0  0  2  0  0  0  0  0  0  0  0  0
  -31.3915  -19.2730   21.2879 C   0  0  0  0  0  0  0  0  0  0  0  0
  -30.4503  -21.6079   32.9680 C   0  0  0  0  0  0  0  0  0  0  0  0
  -32.5206  -17.5182   28.1869 C   0  0  0  0  0  0  0  0  0  0  0  0
  -31.4150  -17.8326   30.4110 C   0  0  0  0  0  0  0  0  0  0  0  0
  -33.7833  -18.5453   30.0856 C   0  0  0  0  0  0  0  0  0  0  0  0
  -30.1818  -24.3615   30.3561 C   0  0  0  0  0  0  0  0  0  0  0  0
  -25.5326  -21.0484   21.8845 C   0  0  0  0  0  0  0  0  0  0  0  0
  -25.8363  -19.5642   22.1004 C   0  0  0  0  0  0  0  0  0  0  0  0
  -30.8097  -16.8964   21.8939 C   0  0  0  0  0  0  0  0  0  0  0  0
  -26.7159  -21.9582   22.1936 C   0  0  0  0  0  0  0  0  0  1  0  0
  -30.5112  -18.0575   20.9045 C   0  0  1  0  0  0  0  0  0  0  0  0
  -31.9267  -19.8892   29.0184 C   0  0  1  0  0  0  0  0  0  0  0  0
  -30.8078  -22.3409   31.6844 C   0  0  2  0  0  0  0  0  0  0  0  0
  -32.4011  -18.4592   29.4023 C   0  0  0  0  0  0  0  0  0  0  0  0
  -25.8588  -11.5456   20.2851 N   0  0  0  0  0  0  0  0  0  0  0  0
  -27.0238  -19.0673   21.3152 N   0  0  0  0  0  0  0  0  0  0  0  0
  -26.2355  -12.8290   20.1553 N   0  0  0  0  0  0  0  0  0  0  0  0
  -32.2582  -20.9128   26.7899 N   0  0  0  0  0  0  0  0  0  0  0  0
  -29.9715  -13.6093   20.3607 N   0  0  0  0  0  0  0  0  0  0  0  0
  -25.4692  -15.0567   20.4021 N   0  0  0  0  0  0  0  0  0  0  0  0
  -21.8854  -12.5833   21.6000 N   0  0  0  0  0  0  0  0  0  0  0  0
  -34.6736  -20.1825   24.2675 N   0  0  0  0  0  0  0  0  0  0  0  0
  -31.8305  -20.8097   30.1462 N   0  0  0  0  0  0  0  0  0  0  0  0
  -30.1443  -15.6742   21.5007 N   0  0  0  0  0  0  0  0  0  0  0  0
  -29.9238  -23.5346   31.5631 N   0  3  0  0  0  0  0  0  0  0  0  0
  -22.6607  -14.7229   21.3175 O   0  0  0  0  0  0  0  0  0  0  0  0
  -32.5648  -19.3004   24.7119 O   0  0  0  0  0  0  0  0  0  0  0  0
  -34.0231  -20.7379   28.3034 O   0  0  0  0  0  0  0  0  0  0  0  0
  -29.5822  -21.3090   29.8759 O   0  0  0  0  0  0  0  0  0  0  0  0
  -31.8783  -14.9198   20.2041 O   0  0  0  0  0  0  0  0  0  0  0  0
  -21.6125   -7.0202   21.7131 O   0  0  0  0  0  0  0  0  0  0  0  0
  -27.0739  -21.7943   23.5652 O   0  0  0  0  0  0  0  0  0  1  0  0
  -16.4446   -6.8338   19.7996 F   0  0  0  0  0  0  0  0  0  0  0  0
  -20.8324   -5.0626   19.9237 F   0  0  0  0  0  0  0  0  0  0  0  0
  1  2  1  0  0  0  0
  1  5  2  0  0  0  0
  2  6  2  0  0  0  0
  3  8  2  0  0  0  0
  3 18  1  0  0  0  0
  4  9  1  0  0  0  0
  4 18  2  0  0  0  0
  5 20  1  0  0  0  0
  6 22  1  0  0  0  0
  7 10  2  0  0  0  0
  7 21  1  0  0  0  0
  8 25  1  0  0  0  0
  9 25  2  0  0  0  0
 10 26  1  0  0  0  0
 11 12  2  0  0  0  0
 11 27  1  0  0  0  0
 12 28  1  0  0  0  0
 13 16  2  0  0  0  0
 13 24  1  0  0  0  0
 14 23  1  0  0  0  0
 14 26  2  0  0  0  0
 15 28  2  0  0  0  0
 15 29  1  0  0  0  0
 16 64  1  0  0  0  0
 17 24  2  0  0  0  0
 17 64  1  0  0  0  0
 18 30  1  0  0  0  0
 19 30  1  0  0  0  0
 19 31  2  0  0  0  0
 19 32  1  0  0  0  0
 20 22  2  0  0  0  0
 20 37  1  0  0  0  0
 21 23  2  0  0  0  0
 21 38  1  0  0  0  0
 22 46  1  0  0  0  0
 23 39  1  0  0  0  0
 24 59  1  0  0  0  0
 25 79  1  0  0  0  0
 26 80  1  0  0  0  0
 27 29  2  0  0  0  0
 27 79  1  0  0  0  0
 28 81  1  0  0  0  0
 29 82  1  0  0  0  0
 30 63  2  0  0  0  0
 31 65  1  0  0  0  0
 31 68  1  0  0  0  0
 32 69  1  0  0  0  0
 32 74  2  0  0  0  0
 33 47  1  0  0  0  0
 33 70  1  0  0  0  0
 33 75  2  0  0  0  0
 34 60  1  0  0  0  0
 34 66  1  0  0  0  0
 34 76  2  0  0  0  0
 35 61  1  0  0  0  0
 35 71  1  0  0  0  0
 35 77  2  0  0  0  0
 36 67  1  0  0  0  0
 36 72  1  0  0  0  0
 36 78  2  0  0  0  0
 37 40  1  0  0  0  0
 38 47  1  0  0  0  0
 39 66  1  0  0  0  0
 40 42  1  0  0  0  0
 41 43  1  0  0  0  0
 41 44  1  0  0  0  0
 42 46  1  0  0  0  0
 43 48  1  0  0  0  0
 44 67  1  0  0  0  0
 45 48  1  0  0  0  0
 45 67  1  0  0  0  0
 46 70  1  0  0  0  0
 47 66  1  0  0  0  0
 48 65  1  0  0  0  0
 49 59  1  0  0  0  0
 50 61  1  0  0  0  0
 51 62  1  0  0  0  0
 52 62  1  0  0  0  0
 53 62  1  0  0  0  0
 54 73  1  0  0  0  0
 55 56  1  0  0  0  0
 55 58  1  0  0  0  0
 56 64  1  0  0  0  0
 57 59  1  0  0  0  0
 57 72  1  0  0  0  0
 58 80  1  0  0  0  0
 60 62  1  0  0  0  0
 60 71  1  0  0  0  0
 61 73  1  0  0  0  0
 63 65  1  0  0  0  0
M  CHG  1  73   1
M  ISO  4  36 100  58 101  72 100  80 101
M  END
> <Batch ID>
0080

> <Smiles>
CNC(C)C(=O)NC(C(=O)N1Cc2cc([101O:1][101CH2:1]CCn3ccc(C(C)C[100NH:0][100C:0](=O)N4CCCC(n5nc(-c6ccc(Oc7ccc(F)cc7F)cc6)c(C(N)=O)c5N)C4)c3)ccc2CC1C(=O)NC1CCCc2ccccc21)C(C)(C)C

> <Shape>
0.171

> <Color>
0.196

> <Negative vol penalty>
0.000

$$$$

  -OEChem-04052318443D

 85 93  0     1  0  0  0  0  0999 V2000
  -18.1060  -24.0947   24.5433 C   0  0  0  0  0  0  0  0  0  0  0  0
  -19.4955  -24.0669   24.4801 C   0  0  0  0  0  0  0  0  0  0  0  0
  -23.2882   -9.7997   19.9136 C   0  0  0  0  0  0  0  0  0  0  0  0
  -23.7407   -9.9403   22.2827 C   0  0  0  0  0  0  0  0  0  0  0  0
  -17.4360  -23.3090   25.4802 C   0  0  0  0  0  0  0  0  0  0  0  0
  -20.2159  -23.2540   25.3546 C   0  0  0  0  0  0  0  0  0  0  0  0
  -25.4415  -20.2903   24.1650 C   0  0  0  0  0  0  0  0  0  0  0  0
  -22.5620   -8.6272   20.1219 C   0  0  0  0  0  0  0  0  0  0  0  0
  -23.0145   -8.7677   22.4910 C   0  0  0  0  0  0  0  0  0  0  0  0
  -26.7744  -20.5910   24.4420 C   0  0  0  0  0  0  0  0  0  0  0  0
  -20.9763   -6.0075   23.6933 C   0  0  0  0  0  0  0  0  0  0  0  0
  -20.0756   -5.9822   24.7579 C   0  0  0  0  0  0  0  0  0  0  0  0
  -26.6638  -19.2250   26.4272 C   0  0  0  0  0  0  0  0  0  0  0  0
  -18.8652   -7.8293   23.7778 C   0  0  0  0  0  0  0  0  0  0  0  0
  -31.7260  -16.9315   24.1264 C   0  0  0  0  0  0  0  0  0  0  0  0
  -23.8776  -10.4563   20.9940 C   0  0  0  0  0  0  0  0  0  0  0  0
  -24.1367  -12.9863   20.7953 C   0  0  0  0  0  0  0  0  0  0  0  0
  -18.1482  -22.4788   26.3601 C   0  0  0  0  0  0  0  0  0  0  0  0
  -24.7053  -19.4620   25.0244 C   0  0  0  0  0  0  0  0  0  0  0  0
  -19.5549  -22.4574   26.3050 C   0  0  0  0  0  0  0  0  0  0  0  0
  -25.3225  -18.9132   26.1575 C   0  0  0  0  0  0  0  0  0  0  0  0
  -22.4251   -8.1112   21.4106 C   0  0  0  0  0  0  0  0  0  0  0  0
  -27.3849  -20.0607   25.5747 C   0  0  0  0  0  0  0  0  0  0  0  0
  -20.8217   -6.9438   22.6709 C   0  0  0  0  0  0  0  0  0  0  0  0
  -19.0200   -6.8930   24.8002 C   0  0  0  0  0  0  0  0  0  0  0  0
  -19.7661   -7.8546   22.7132 C   0  0  0  0  0  0  0  0  0  0  0  0
  -24.6283  -11.6672   20.7794 C   0  0  0  0  0  0  0  0  0  0  0  0
  -30.7698  -17.9265   24.1366 C   0  0  0  0  0  0  0  0  0  0  0  0
  -31.3075  -15.7061   23.6496 C   0  0  0  0  0  0  0  0  0  0  0  0
  -25.2380  -13.7662   20.5395 C   0  0  0  0  0  0  0  0  0  0  0  0
  -29.2149  -16.5104   23.2739 C   0  0  0  0  0  0  0  0  0  0  0  0
  -22.8038  -13.4638   21.0211 C   0  0  0  0  0  0  0  0  0  0  0  0
  -22.1054  -19.8329   26.8150 C   0  0  0  0  0  0  0  0  0  0  0  0
  -22.4640  -16.6467   27.3065 C   0  0  0  0  0  0  0  0  0  0  0  0
  -24.5405  -13.9389   27.3586 C   0  0  0  0  0  0  0  0  0  0  0  0
  -31.1096  -12.9233   21.3547 C   0  0  0  0  0  0  0  0  0  0  0  0
  -17.3824  -21.6831   27.3873 C   0  0  0  0  0  0  0  0  0  0  0  0
  -23.2763  -19.1256   24.6973 C   0  0  0  0  0  0  0  0  0  0  0  0
  -24.5819  -18.0023   27.1010 C   0  0  0  0  0  0  0  0  0  0  0  0
  -18.2022  -20.5658   28.0274 C   0  0  0  0  0  0  0  0  0  0  0  0
  -29.4584  -13.6628   18.2882 C   0  0  0  0  0  0  0  0  0  0  0  0
  -19.5778  -21.0812   28.4383 C   0  0  0  0  0  0  0  0  0  0  0  0
  -27.9889  -13.3542   18.5804 C   0  0  0  0  0  0  0  0  0  0  0  0
  -30.3923  -12.6834   18.9958 C   0  0  0  0  0  0  0  0  0  0  0  0
  -28.7069  -12.2539   20.7420 C   0  0  0  0  0  0  0  0  0  0  0  0
  -20.3704  -21.5698   27.2200 C   0  0  1  0  0  0  0  0  0  0  0  0
  -22.4718  -18.6857   25.9165 C   0  0  1  0  0  0  0  0  0  0  0  0
  -27.7285  -13.2491   20.0951 C   0  0  2  0  0  0  0  0  0  0  0  0
  -27.8214  -16.2769   22.7968 C   0  0  0  0  0  0  0  0  0  0  0  0
  -24.5531  -11.4749   27.8341 C   0  0  0  0  0  0  0  0  0  0  0  0
  -22.3845  -17.2267   30.3011 C   0  0  0  0  0  0  0  0  0  0  0  0
  -23.3348  -14.9445   30.6976 C   0  0  0  0  0  0  0  0  0  0  0  0
  -21.1095  -15.1933   29.5981 C   0  0  0  0  0  0  0  0  0  0  0  0
  -30.9577  -12.9780   25.1118 C   0  0  0  0  0  0  0  0  0  0  0  0
  -32.8103  -12.1041   23.6849 C   0  0  0  0  0  0  0  0  0  0  0  0
  -25.3785  -13.2921   24.5949 C   0  0  0  0  0  0  0  0  0  0  0  0
  -31.1328  -19.3008   24.6396 C   0  0  0  0  0  0  0  0  0  0  0  0
  -32.2721  -14.5688   23.5986 C   0  0  0  0  0  0  0  0  0  0  0  0
  -30.9039  -19.4874   26.1411 C   0  0  0  0  0  0  0  0  0  0  0  0
  -29.4402  -19.3653   26.5485 C   0  0  0  0  0  0  0  0  0  1  0  0
  -23.2014  -15.7965   28.3128 C   0  0  1  0  0  0  0  0  0  0  0  0
  -24.3970  -12.5479   26.7678 C   0  0  2  0  0  0  0  0  0  0  0  0
  -22.5212  -15.8089   29.7108 C   0  0  0  0  0  0  0  0  0  0  0  0
  -31.6733  -13.1370   23.7621 C   0  0  0  0  0  0  0  0  0  0  0  0
  -25.9397  -11.6086   20.5329 N   0  0  0  0  0  0  0  0  0  0  0  0
  -29.5000  -17.7500   23.7161 N   0  0  0  0  0  0  0  0  0  0  0  0
  -30.0547  -15.4593   23.2139 N   0  0  0  0  0  0  0  0  0  0  0  0
  -26.2815  -12.9006   20.3914 N   0  0  0  0  0  0  0  0  0  0  0  0
  -23.1849  -17.7082   26.7415 N   0  0  0  0  0  0  0  0  0  0  0  0
  -30.0940  -12.6319   20.4291 N   0  0  0  0  0  0  0  0  0  0  0  0
  -25.4058  -15.1011   20.4289 N   0  0  0  0  0  0  0  0  0  0  0  0
  -21.7915  -12.5269   21.2693 N   0  0  0  0  0  0  0  0  0  0  0  0
  -20.9118  -20.4465   26.4855 N   0  0  0  0  0  0  0  0  0  0  0  0
  -23.3196  -14.4698   27.7176 N   0  0  0  0  0  0  0  0  0  0  0  0
  -30.7409  -12.8578   22.6928 N   0  0  0  0  0  0  0  0  0  0  0  0
  -25.4308  -12.3216   25.7185 N   0  3  0  0  0  0  0  0  0  0  0  0
  -22.5159  -14.6843   20.9870 O   0  0  0  0  0  0  0  0  0  0  0  0
  -22.8496  -20.1379   27.7395 O   0  0  0  0  0  0  0  0  0  0  0  0
  -21.2938  -16.3745   27.0268 O   0  0  0  0  0  0  0  0  0  0  0  0
  -25.6274  -14.4970   27.4921 O   0  0  0  0  0  0  0  0  0  0  0  0
  -32.2584  -13.2252   21.0137 O   0  0  0  0  0  0  0  0  0  0  0  0
  -21.7164   -6.9672   21.6142 O   0  0  0  0  0  0  0  0  0  0  0  0
  -28.6856  -20.3532   25.8478 O   0  0  0  0  0  0  0  0  0  1  0  0
  -18.1541   -6.8676   25.8219 F   0  0  0  0  0  0  0  0  0  0  0  0
  -19.6117   -8.7556   21.7333 F   0  0  0  0  0  0  0  0  0  0  0  0
  1  2  1  0  0  0  0
  1  5  2  0  0  0  0
  2  6  2  0  0  0  0
  3  8  2  0  0  0  0
  3 16  1  0  0  0  0
  4  9  1  0  0  0  0
  4 16  2  0  0  0  0
  5 18  1  0  0  0  0
  6 20  1  0  0  0  0
  7 10  2  0  0  0  0
  7 19  1  0  0  0  0
  8 22  1  0  0  0  0
  9 22  2  0  0  0  0
 10 23  1  0  0  0  0
 11 12  2  0  0  0  0
 11 24  1  0  0  0  0
 12 25  1  0  0  0  0
 13 21  1  0  0  0  0
 13 23  2  0  0  0  0
 14 25  2  0  0  0  0
 14 26  1  0  0  0  0
 15 28  1  0  0  0  0
 15 29  2  0  0  0  0
 16 27  1  0  0  0  0
 17 27  1  0  0  0  0
 17 30  2  0  0  0  0
 17 32  1  0  0  0  0
 18 20  2  0  0  0  0
 18 37  1  0  0  0  0
 19 21  2  0  0  0  0
 19 38  1  0  0  0  0
 20 46  1  0  0  0  0
 21 39  1  0  0  0  0
 22 82  1  0  0  0  0
 23 83  1  0  0  0  0
 24 26  2  0  0  0  0
 24 82  1  0  0  0  0
 25 84  1  0  0  0  0
 26 85  1  0  0  0  0
 27 65  2  0  0  0  0
 28 57  1  0  0  0  0
 28 66  2  0  0  0  0
 29 58  1  0  0  0  0
 29 67  1  0  0  0  0
 30 68  1  0  0  0  0
 30 71  1  0  0  0  0
 31 49  1  0  0  0  0
 31 66  1  0  0  0  0
 31 67  2  0  0  0  0
 32 72  1  0  0  0  0
 32 77  2  0  0  0  0
 33 47  1  0  0  0  0
 33 73  1  0  0  0  0
 33 78  2  0  0  0  0
 34 61  1  0  0  0  0
 34 69  1  0  0  0  0
 34 79  2  0  0  0  0
 35 62  1  0  0  0  0
 35 74  1  0  0  0  0
 35 80  2  0  0  0  0
 36 70  1  0  0  0  0
 36 75  1  0  0  0  0
 36 81  2  0  0  0  0
 37 40  1  0  0  0  0
 38 47  1  0  0  0  0
 39 69  1  0  0  0  0
 40 42  1  0  0  0  0
 41 43  1  0  0  0  0
 41 44  1  0  0  0  0
 42 46  1  0  0  0  0
 43 48  1  0  0  0  0
 44 70  1  0  0  0  0
 45 48  1  0  0  0  0
 45 70  1  0  0  0  0
 46 73  1  0  0  0  0
 47 69  1  0  0  0  0
 48 68  1  0  0  0  0
 50 62  1  0  0  0  0
 51 63  1  0  0  0  0
 52 63  1  0  0  0  0
 53 63  1  0  0  0  0
 54 64  1  0  0  0  0
 55 64  1  0  0  0  0
 56 76  1  0  0  0  0
 57 59  1  0  0  0  0
 58 64  1  0  0  0  0
 59 60  1  0  0  0  0
 60 83  1  0  0  0  0
 61 63  1  0  0  0  0
 61 74  1  0  0  0  0
 62 76  1  0  0  0  0
 64 75  1  0  0  0  0
 65 68  1  0  0  0  0
M  CHG  1  76   1
M  ISO  4  36 100  60 101  75 100  83 101
M  END
> <Batch ID>
0080

> <Smiles>
CNC(C)C(=O)NC(C(=O)N1Cc2cc([101O:1][101CH2:1]CCc3cc(CC(C)(C)[100NH:0][100C:0](=O)N4CCCC(n5nc(-c6ccc(Oc7ccc(F)cc7F)cc6)c(C(N)=O)c5N)C4)nc(C)n3)ccc2CC1C(=O)NC1CCCc2ccccc21)C(C)(C)C

> <Shape>
0.140

> <Color>
0.170

> <Negative vol penalty>
0.000

$$$$

  -OEChem-04052318443D

 86 94  0     1  0  0  0  0  0999 V2000
  -32.4400  -14.6251   20.7572 C   0  0  0  0  0  0  0  0  0  0  0  0
  -31.5793  -15.7166   20.7001 C   0  0  0  0  0  0  0  0  0  0  0  0
  -29.0782  -27.0850   20.5031 C   0  0  0  0  0  0  0  0  0  0  0  0
  -27.6797  -25.7030   19.0992 C   0  0  0  0  0  0  0  0  0  0  0  0
  -31.9695  -13.3506   20.4438 C   0  0  0  0  0  0  0  0  0  0  0  0
  -30.2477  -15.5343   20.3286 C   0  0  0  0  0  0  0  0  0  0  0  0
  -25.3851  -18.6064   22.4317 C   0  0  0  0  0  0  0  0  0  0  0  0
  -30.1316  -26.1856   20.3394 C   0  0  0  0  0  0  0  0  0  0  0  0
  -28.7331  -24.8035   18.9354 C   0  0  0  0  0  0  0  0  0  0  0  0
  -24.6615  -19.6821   21.9188 C   0  0  0  0  0  0  0  0  0  0  0  0
  -30.1840  -22.3166   20.7077 C   0  0  0  0  0  0  0  0  0  0  0  0
  -29.8996  -20.9565   20.8291 C   0  0  0  0  0  0  0  0  0  0  0  0
  -23.0564  -18.1463   20.9784 C   0  0  0  0  0  0  0  0  0  0  0  0
  -30.6559  -20.5961   18.5630 C   0  0  0  0  0  0  0  0  0  0  0  0
  -21.2132  -26.0459   18.8495 C   0  0  0  0  0  0  0  0  0  0  0  0
  -27.8522  -26.8437   19.8831 C   0  0  0  0  0  0  0  0  0  0  0  0
  -26.4660  -28.8892   19.2487 C   0  0  0  0  0  0  0  0  0  0  0  0
  -30.6291  -13.1512   20.0775 C   0  0  0  0  0  0  0  0  0  0  0  0
  -24.9549  -17.2899   22.2121 C   0  0  0  0  0  0  0  0  0  0  0  0
  -29.7591  -14.2561   20.0087 C   0  0  0  0  0  0  0  0  0  0  0  0
  -23.7749  -17.0558   21.4918 C   0  0  0  0  0  0  0  0  0  0  0  0
  -21.4812  -24.9536   18.0611 C   0  0  0  0  0  0  0  0  0  0  0  0
  -29.9591  -25.0448   19.5555 C   0  0  0  0  0  0  0  0  0  0  0  0
  -23.4986  -19.4521   21.1896 C   0  0  0  0  0  0  0  0  0  0  0  0
  -30.7043  -22.8165   19.5139 C   0  0  0  0  0  0  0  0  0  0  0  0
  -30.1355  -20.0962   19.7568 C   0  0  0  0  0  0  0  0  0  0  0  0
  -30.9402  -21.9562   18.4416 C   0  0  0  0  0  0  0  0  0  0  0  0
  -26.7635  -27.7722   20.0523 C   0  0  0  0  0  0  0  0  0  0  0  0
  -20.2131  -24.4496   17.7152 C   0  0  0  0  0  0  0  0  0  0  0  0
  -25.3456  -29.4373   19.8237 C   0  0  0  0  0  0  0  0  0  0  0  0
  -27.1421  -29.3867   18.0863 C   0  0  0  0  0  0  0  0  0  0  0  0
  -26.1708  -14.7488   20.7396 C   0  0  0  0  0  0  0  0  0  0  0  0
  -23.5652  -13.2683   21.9811 C   0  0  0  0  0  0  0  0  0  0  0  0
  -20.3827  -13.5310   23.1850 C   0  0  0  0  0  0  0  0  0  0  0  0
  -20.9810  -27.1584   23.2308 C   0  0  0  0  0  0  0  0  0  0  0  0
  -30.1782  -11.7619   19.7018 C   0  0  0  0  0  0  0  0  0  0  0  0
  -25.7321  -16.1415   22.7949 C   0  0  0  0  0  0  0  0  0  0  0  0
  -23.2594  -15.6622   21.2455 C   0  0  0  0  0  0  0  0  0  0  0  0
  -28.6605  -11.5990   19.6803 C   0  0  0  0  0  0  0  0  0  0  0  0
  -23.1352  -29.8739   24.0444 C   0  0  0  0  0  0  0  0  0  0  0  0
  -28.0094  -12.7610   18.9368 C   0  0  0  0  0  0  0  0  0  0  0  0
  -24.2825  -29.7440   23.0411 C   0  0  0  0  0  0  0  0  0  0  0  0
  -22.6259  -28.5080   24.4994 C   0  0  0  0  0  0  0  0  0  0  0  0
  -23.3932  -27.4635   22.4032 C   0  0  0  0  0  0  0  0  0  0  0  0
  -28.3018  -14.0952   19.6339 C   0  0  1  0  0  0  0  0  0  0  0  0
  -25.4804  -14.8218   22.0722 C   0  0  1  0  0  0  0  0  0  0  0  0
  -23.9031  -28.8144   21.8727 C   0  0  2  0  0  0  0  0  0  0  0  0
  -19.9048  -23.2777   16.8771 C   0  0  0  0  0  0  0  0  0  0  0  0
  -18.4975  -12.1428   24.0884 C   0  0  0  0  0  0  0  0  0  0  0  0
  -22.9142  -12.3179   19.1557 C   0  0  0  0  0  0  0  0  0  0  0  0
  -20.6001  -11.7793   19.9450 C   0  0  0  0  0  0  0  0  0  0  0  0
  -22.5612  -10.6022   20.9406 C   0  0  0  0  0  0  0  0  0  0  0  0
  -17.1627  -25.9300   20.8309 C   0  0  0  0  0  0  0  0  0  0  0  0
  -18.1794  -27.9748   21.8203 C   0  0  0  0  0  0  0  0  0  0  0  0
  -20.4305  -14.9478   25.7829 C   0  0  0  0  0  0  0  0  0  0  0  0
  -22.8356  -24.4234   17.6630 C   0  0  0  0  0  0  0  0  0  0  0  0
  -23.5516  -23.6539   18.7785 C   0  0  0  0  0  0  0  0  0  0  0  0
  -22.8054  -22.3899   19.2081 C   0  0  0  0  0  0  0  0  0  0  0  0
  -19.0937  -27.1178   19.6481 C   0  0  0  0  0  0  0  0  0  0  0  0
  -19.4456  -25.7892   21.8426 C   0  0  0  0  0  0  0  0  0  0  0  0
  -23.5251  -21.6744   20.3432 C   0  0  0  0  0  0  0  0  0  1  0  0
  -22.1488  -13.0292   21.5166 C   0  0  1  0  0  0  0  0  0  0  0  0
  -19.7282  -12.9670   24.4332 C   0  0  2  0  0  0  0  0  0  0  0  0
  -22.0666  -11.9585   20.3923 C   0  0  0  0  0  0  0  0  0  0  0  0
  -18.4920  -26.6890   21.0207 C   0  0  0  0  0  0  0  0  0  0  0  0
  -25.9016  -27.6187   21.0611 N   0  0  0  0  0  0  0  0  0  0  0  0
  -19.2137  -25.1630   18.2410 N   0  0  0  0  0  0  0  0  0  0  0  0
  -19.8538  -26.1264   18.9253 N   0  0  0  0  0  0  0  0  0  0  0  0
  -25.0517  -28.6464   20.8953 N   0  0  0  0  0  0  0  0  0  0  0  0
  -24.0579  -14.5722   21.8302 N   0  0  0  0  0  0  0  0  0  0  0  0
  -22.2820  -27.6759   23.3439 N   0  0  0  0  0  0  0  0  0  0  0  0
  -24.5931  -30.5139   19.5123 N   0  0  0  0  0  0  0  0  0  0  0  0
  -28.2773  -28.7031   17.6298 N   0  0  0  0  0  0  0  0  0  0  0  0
  -27.4587  -14.2516   20.7998 N   0  0  0  0  0  0  0  0  0  0  0  0
  -21.3774  -12.7021   22.7109 N   0  0  0  0  0  0  0  0  0  0  0  0
  -20.7371  -26.3853   22.1023 N   0  0  0  0  0  0  0  0  0  0  0  0
  -19.3143  -14.0708   25.3449 N   0  3  0  0  0  0  0  0  0  0  0  0
  -26.7607  -30.4167   17.4804 O   0  0  0  0  0  0  0  0  0  0  0  0
  -25.5784  -15.1150   19.7314 O   0  0  0  0  0  0  0  0  0  0  0  0
  -24.2082  -12.3342   22.4666 O   0  0  0  0  0  0  0  0  0  0  0  0
  -20.0429  -14.5982   22.6789 O   0  0  0  0  0  0  0  0  0  0  0  0
  -20.1005  -27.3741   24.0705 O   0  0  0  0  0  0  0  0  0  0  0  0
  -30.9868  -24.1670   19.3953 O   0  0  0  0  0  0  0  0  0  0  0  0
  -22.7908  -20.5002   20.6873 O   0  0  0  0  0  0  0  0  0  1  0  0
  -29.8638  -18.7898   19.8741 F   0  0  0  0  0  0  0  0  0  0  0  0
  -31.4411  -22.4304   17.2927 F   0  0  0  0  0  0  0  0  0  0  0  0
  1  2  1  0  0  0  0
  1  5  2  0  0  0  0
  2  6  2  0  0  0  0
  3  8  2  0  0  0  0
  3 16  1  0  0  0  0
  4  9  1  0  0  0  0
  4 16  2  0  0  0  0
  5 18  1  0  0  0  0
  6 20  1  0  0  0  0
  7 10  2  0  0  0  0
  7 19  1  0  0  0  0
  8 23  1  0  0  0  0
  9 23  2  0  0  0  0
 10 24  1  0  0  0  0
 11 12  2  0  0  0  0
 11 25  1  0  0  0  0
 12 26  1  0  0  0  0
 13 21  1  0  0  0  0
 13 24  2  0  0  0  0
 14 26  2  0  0  0  0
 14 27  1  0  0  0  0
 15 22  2  0  0  0  0
 15 68  1  0  0  0  0
 16 28  1  0  0  0  0
 17 28  1  0  0  0  0
 17 30  2  0  0  0  0
 17 31  1  0  0  0  0
 18 20  2  0  0  0  0
 18 36  1  0  0  0  0
 19 21  2  0  0  0  0
 19 37  1  0  0  0  0
 20 45  1  0  0  0  0
 21 38  1  0  0  0  0
 22 29  1  0  0  0  0
 22 56  1  0  0  0  0
 23 83  1  0  0  0  0
 24 84  1  0  0  0  0
 25 27  2  0  0  0  0
 25 83  1  0  0  0  0
 26 85  1  0  0  0  0
 27 86  1  0  0  0  0
 28 66  2  0  0  0  0
 29 48  1  0  0  0  0
 29 67  2  0  0  0  0
 30 69  1  0  0  0  0
 30 72  1  0  0  0  0
 31 73  1  0  0  0  0
 31 78  2  0  0  0  0
 32 46  1  0  0  0  0
 32 74  1  0  0  0  0
 32 79  2  0  0  0  0
 33 62  1  0  0  0  0
 33 70  1  0  0  0  0
 33 80  2  0  0  0  0
 34 63  1  0  0  0  0
 34 75  1  0  0  0  0
 34 81  2  0  0  0  0
 35 71  1  0  0  0  0
 35 76  1  0  0  0  0
 35 82  2  0  0  0  0
 36 39  1  0  0  0  0
 37 46  1  0  0  0  0
 38 70  1  0  0  0  0
 39 41  1  0  0  0  0
 40 42  1  0  0  0  0
 40 43  1  0  0  0  0
 41 45  1  0  0  0  0
 42 47  1  0  0  0  0
 43 71  1  0  0  0  0
 44 47  1  0  0  0  0
 44 71  1  0  0  0  0
 45 74  1  0  0  0  0
 46 70  1  0  0  0  0
 47 69  1  0  0  0  0
 49 63  1  0  0  0  0
 50 64  1  0  0  0  0
 51 64  1  0  0  0  0
 52 64  1  0  0  0  0
 53 65  1  0  0  0  0
 54 65  1  0  0  0  0
 55 77  1  0  0  0  0
 56 57  1  0  0  0  0
 57 58  1  0  0  0  0
 58 61  1  0  0  0  0
 59 65  1  0  0  0  0
 59 68  1  0  0  0  0
 60 65  1  0  0  0  0
 60 76  1  0  0  0  0
 61 84  1  0  0  0  0
 62 64  1  0  0  0  0
 62 75  1  0  0  0  0
 63 77  1  0  0  0  0
 66 69  1  0  0  0  0
 67 68  1  0  0  0  0
M  CHG  1  77   1
M  ISO  4  35 100  61 101  76 100  84 101
M  END
> <Batch ID>
0080

> <Smiles>
CNC(C)C(=O)NC(C(=O)N1Cc2cc([101O:1][101CH2:1]CCCc3cn(CC(C)(C)C[100NH:0][100C:0](=O)N4CCCC(n5nc(-c6ccc(Oc7ccc(F)cc7F)cc6)c(C(N)=O)c5N)C4)nc3C)ccc2CC1C(=O)NC1CCCc2ccccc21)C(C)(C)C

> <Shape>
0.252

> <Color>
0.059

> <Negative vol penalty>
0.000

$$$$

  -OEChem-04052318443D

 84 92  0     1  0  0  0  0  0999 V2000
  -21.8794  -12.2361   19.1539 C   0  0  0  0  0  0  0  0  0  0  0  0
  -21.6964  -13.5390   19.6060 C   0  0  0  0  0  0  0  0  0  0  0  0
  -26.2547  -24.2689   14.8039 C   0  0  0  0  0  0  0  0  0  0  0  0
  -24.5695  -23.0299   16.0130 C   0  0  0  0  0  0  0  0  0  0  0  0
  -23.1011  -11.5950   19.3544 C   0  0  0  0  0  0  0  0  0  0  0  0
  -22.7348  -14.2011   20.2601 C   0  0  0  0  0  0  0  0  0  0  0  0
  -23.3328  -18.9599   18.6347 C   0  0  0  0  0  0  0  0  0  0  0  0
  -26.6766  -23.0919   14.1856 C   0  0  0  0  0  0  0  0  0  0  0  0
  -24.9913  -21.8528   15.3947 C   0  0  0  0  0  0  0  0  0  0  0  0
  -22.4342  -19.9132   19.1115 C   0  0  0  0  0  0  0  0  0  0  0  0
  -27.9602  -20.4711   12.0180 C   0  0  0  0  0  0  0  0  0  0  0  0
  -28.1997  -20.5099   10.6444 C   0  0  0  0  0  0  0  0  0  0  0  0
  -24.0761  -20.6480   20.7189 C   0  0  0  0  0  0  0  0  0  0  0  0
  -25.9025  -21.1534   10.2622 C   0  0  0  0  0  0  0  0  0  0  0  0
  -18.9767  -27.9694   21.9802 C   0  0  0  0  0  0  0  0  0  0  0  0
  -20.1705  -26.6598   23.3493 C   0  0  0  0  0  0  0  0  0  0  0  0
  -25.2012  -24.2379   15.7176 C   0  0  0  0  0  0  0  0  0  0  0  0
  -23.7794  -26.3481   15.8999 C   0  0  0  0  0  0  0  0  0  0  0  0
  -24.1582  -12.2530   20.0026 C   0  0  0  0  0  0  0  0  0  0  0  0
  -24.6081  -18.8359   19.2046 C   0  0  0  0  0  0  0  0  0  0  0  0
  -23.9714  -13.5677   20.4706 C   0  0  0  0  0  0  0  0  0  0  0  0
  -24.9899  -19.6940   20.2458 C   0  0  0  0  0  0  0  0  0  0  0  0
  -18.5861  -26.6688   21.7494 C   0  0  0  0  0  0  0  0  0  0  0  0
  -19.3414  -25.8403   22.6155 C   0  0  0  0  0  0  0  0  0  0  0  0
  -26.0448  -21.8839   14.4810 C   0  0  0  0  0  0  0  0  0  0  0  0
  -22.8048  -20.7555   20.1557 C   0  0  0  0  0  0  0  0  0  0  0  0
  -26.6919  -20.7733   12.5137 C   0  0  0  0  0  0  0  0  0  0  0  0
  -27.1708  -20.8510    9.7665 C   0  0  0  0  0  0  0  0  0  0  0  0
  -25.6631  -21.1145   11.6358 C   0  0  0  0  0  0  0  0  0  0  0  0
  -24.7654  -25.4534   16.3571 C   0  0  0  0  0  0  0  0  0  0  0  0
  -23.7398  -27.3333   16.8561 C   0  0  0  0  0  0  0  0  0  0  0  0
  -22.9713  -26.2934   14.7168 C   0  0  0  0  0  0  0  0  0  0  0  0
  -26.1614  -16.5309   20.7467 C   0  0  0  0  0  0  0  0  0  0  0  0
  -28.6447  -18.6087   20.5506 C   0  0  0  0  0  0  0  0  0  0  0  0
  -29.7024  -21.8362   20.2176 C   0  0  0  0  0  0  0  0  0  0  0  0
  -23.6745  -28.9243   22.2049 C   0  0  0  0  0  0  0  0  0  0  0  0
  -25.4449  -11.5024   20.2384 C   0  0  0  0  0  0  0  0  0  0  0  0
  -25.5753  -17.8203   18.6610 C   0  0  0  0  0  0  0  0  0  0  0  0
  -26.3545  -19.6150   20.8784 C   0  0  0  0  0  0  0  0  0  0  0  0
  -26.6184  -12.4061   20.6079 C   0  0  0  0  0  0  0  0  0  0  0  0
  -26.8514  -28.2906   20.7275 C   0  0  0  0  0  0  0  0  0  0  0  0
  -26.2012  -13.4134   21.6748 C   0  0  0  0  0  0  0  0  0  0  0  0
  -26.5107  -27.5646   19.4249 C   0  0  0  0  0  0  0  0  0  0  0  0
  -25.9021  -27.8979   21.8574 C   0  0  0  0  0  0  0  0  0  0  0  0
  -24.1286  -27.3302   20.2430 C   0  0  0  0  0  0  0  0  0  0  0  0
  -25.0820  -14.3280   21.1624 C   0  0  1  0  0  0  0  0  0  0  0  0
  -26.6638  -17.4378   19.6591 C   0  0  1  0  0  0  0  0  0  0  0  0
  -25.0239  -27.7360   19.0597 C   0  0  2  0  0  0  0  0  0  0  0  0
  -17.5654  -26.2310   20.7766 C   0  0  0  0  0  0  0  0  0  0  0  0
  -31.7901  -23.2260   20.1303 C   0  0  0  0  0  0  0  0  0  0  0  0
  -19.6127  -30.0478   24.1870 C   0  0  0  0  0  0  0  0  0  0  0  0
  -28.9538  -18.3299   23.5733 C   0  0  0  0  0  0  0  0  0  0  0  0
  -30.3662  -20.3970   23.5494 C   0  0  0  0  0  0  0  0  0  0  0  0
  -31.1080  -18.3672   22.3034 C   0  0  0  0  0  0  0  0  0  0  0  0
  -29.0910  -22.7918   17.4841 C   0  0  0  0  0  0  0  0  0  0  0  0
  -19.2620  -24.3383   22.7235 C   0  0  0  0  0  0  0  0  0  0  0  0
  -19.9591  -23.5974   21.5770 C   0  0  0  0  0  0  0  0  0  0  0  0
  -19.8019  -22.0786   21.6626 C   0  0  0  0  0  0  0  0  0  0  0  0
  -21.3954  -29.8846   22.4122 C   0  0  0  0  0  0  0  0  0  0  0  0
  -20.5397  -21.3756   20.5312 C   0  0  0  0  0  0  0  0  0  1  0  0
  -29.1722  -19.7289   21.4143 C   0  0  1  0  0  0  0  0  0  0  0  0
  -30.7529  -22.4644   19.3196 C   0  0  2  0  0  0  0  0  0  0  0  0
  -20.6086  -29.1173   23.4866 C   0  0  2  0  0  0  0  0  0  0  0  0
  -29.8736  -19.2062   22.6997 C   0  0  0  0  0  0  0  0  0  0  0  0
  -25.3129  -25.8364   17.5136 N   0  0  0  0  0  0  0  0  0  0  0  0
  -19.9400  -27.9518   22.9548 N   0  0  0  0  0  0  0  0  0  0  0  0
  -24.6687  -26.9827   17.7912 N   0  0  0  0  0  0  0  0  0  0  0  0
  -27.2624  -18.6016   20.3162 N   0  0  0  0  0  0  0  0  0  0  0  0
  -24.5083  -28.0853   21.4473 N   0  0  0  0  0  0  0  0  0  0  0  0
  -23.0016  -28.4567   16.9797 N   0  0  0  0  0  0  0  0  0  0  0  0
  -23.1400  -25.2116   13.8419 N   0  0  0  0  0  0  0  0  0  0  0  0
  -25.6220  -15.3451   20.2859 N   0  0  0  0  0  0  0  0  0  0  0  0
  -30.0277  -20.5393   20.5542 N   0  0  0  0  0  0  0  0  0  0  0  0
  -22.3701  -29.0518   21.7434 N   0  0  0  0  0  0  0  0  0  0  0  0
  -30.1162  -23.4123   18.3621 N   0  3  0  0  0  0  0  0  0  0  0  0
  -22.1364  -27.1862   14.4353 O   0  0  0  0  0  0  0  0  0  0  0  0
  -26.2575  -16.8804   21.9173 O   0  0  0  0  0  0  0  0  0  0  0  0
  -29.4312  -17.7749   20.0947 O   0  0  0  0  0  0  0  0  0  0  0  0
  -28.6959  -22.4373   20.5866 O   0  0  0  0  0  0  0  0  0  0  0  0
  -24.0652  -29.5202   23.2145 O   0  0  0  0  0  0  0  0  0  0  0  0
  -26.4560  -20.7351   13.8777 O   0  0  0  0  0  0  0  0  0  0  0  0
  -21.9294  -21.6865   20.6235 O   0  0  0  0  0  0  0  0  0  1  0  0
  -27.4013  -20.8898    8.4476 F   0  0  0  0  0  0  0  0  0  0  0  0
  -24.4428  -21.4070   12.1062 F   0  0  0  0  0  0  0  0  0  0  0  0
  1  2  1  0  0  0  0
  1  5  2  0  0  0  0
  2  6  2  0  0  0  0
  3  8  2  0  0  0  0
  3 17  1  0  0  0  0
  4  9  1  0  0  0  0
  4 17  2  0  0  0  0
  5 19  1  0  0  0  0
  6 21  1  0  0  0  0
  7 10  2  0  0  0  0
  7 20  1  0  0  0  0
  8 25  1  0  0  0  0
  9 25  2  0  0  0  0
 10 26  1  0  0  0  0
 11 12  2  0  0  0  0
 11 27  1  0  0  0  0
 12 28  1  0  0  0  0
 13 22  1  0  0  0  0
 13 26  2  0  0  0  0
 14 28  2  0  0  0  0
 14 29  1  0  0  0  0
 15 23  2  0  0  0  0
 15 66  1  0  0  0  0
 16 24  2  0  0  0  0
 16 66  1  0  0  0  0
 17 30  1  0  0  0  0
 18 30  1  0  0  0  0
 18 31  2  0  0  0  0
 18 32  1  0  0  0  0
 19 21  2  0  0  0  0
 19 37  1  0  0  0  0
 20 22  2  0  0  0  0
 20 38  1  0  0  0  0
 21 46  1  0  0  0  0
 22 39  1  0  0  0  0
 23 24  1  0  0  0  0
 23 49  1  0  0  0  0
 24 56  1  0  0  0  0
 25 81  1  0  0  0  0
 26 82  1  0  0  0  0
 27 29  2  0  0  0  0
 27 81  1  0  0  0  0
 28 83  1  0  0  0  0
 29 84  1  0  0  0  0
 30 65  2  0  0  0  0
 31 67  1  0  0  0  0
 31 70  1  0  0  0  0
 32 71  1  0  0  0  0
 32 76  2  0  0  0  0
 33 47  1  0  0  0  0
 33 72  1  0  0  0  0
 33 77  2  0  0  0  0
 34 61  1  0  0  0  0
 34 68  1  0  0  0  0
 34 78  2  0  0  0  0
 35 62  1  0  0  0  0
 35 73  1  0  0  0  0
 35 79  2  0  0  0  0
 36 69  1  0  0  0  0
 36 74  1  0  0  0  0
 36 80  2  0  0  0  0
 37 40  1  0  0  0  0
 38 47  1  0  0  0  0
 39 68  1  0  0  0  0
 40 42  1  0  0  0  0
 41 43  1  0  0  0  0
 41 44  1  0  0  0  0
 42 46  1  0  0  0  0
 43 48  1  0  0  0  0
 44 69  1  0  0  0  0
 45 48  1  0  0  0  0
 45 69  1  0  0  0  0
 46 72  1  0  0  0  0
 47 68  1  0  0  0  0
 48 67  1  0  0  0  0
 50 62  1  0  0  0  0
 51 63  1  0  0  0  0
 52 64  1  0  0  0  0
 53 64  1  0  0  0  0
 54 64  1  0  0  0  0
 55 75  1  0  0  0  0
 56 57  1  0  0  0  0
 57 58  1  0  0  0  0
 58 60  1  0  0  0  0
 59 63  1  0  0  0  0
 59 74  1  0  0  0  0
 60 82  1  0  0  0  0
 61 64  1  0  0  0  0
 61 73  1  0  0  0  0
 62 75  1  0  0  0  0
 63 66  1  0  0  0  0
 65 67  1  0  0  0  0
M  CHG  1  75   1
M  ISO  4  36 100  60 101  74 100  82 101
M  END
> <Batch ID>
0080

> <Smiles>
CNC(C)C(=O)NC(C(=O)N1Cc2cc([101O:1][101CH2:1]CCCc3cn(C(C)C[100NH:0][100C:0](=O)N4CCCC(n5nc(-c6ccc(Oc7ccc(F)cc7F)cc6)c(C(N)=O)c5N)C4)cc3C)ccc2CC1C(=O)NC1CCCc2ccccc21)C(C)(C)C

> <Shape>
0.195

> <Color>
0.084

> <Negative vol penalty>
0.000

$$$$
